data_POSCAR
  _audit_creation_date              2014-09-24
  _audit_creation_method            'ToBaCCo'
  _symmetry_space_group_name_H-M    'P1'
  _symmetry_Int_Tables_number       1
  _symmetry_cell_setting            triclinic
  loop_
  _symmetry_equiv_pos_as_xyz
 x,y,z
_cell_length_a 47.8428
_cell_length_b 48.0194
_cell_length_c 16.3758
_cell_angle_alpha 89.899100
_cell_angle_beta 89.924000
_cell_angle_gamma 120.170500
loop_
  _atom_site_label
  _atom_site_type_symbol
  _atom_site_fract_x
  _atom_site_fract_y
  _atom_site_fract_z
O1 O 0.21801 0.48595 0.42291
 O2 O 0.27321 0.48373 0.57532
 O3 O 0.21955 0.48599 0.58079
 O4 O 0.27087 0.48334 0.41811
 O5 O 0.29940 0.53646 0.41710
 O6 O 0.24710 0.53911 0.57913
 O7 O 0.30045 0.53680 0.57715
 O8 O 0.24640 0.53905 0.42044
 Cu9 Cu 0.24255 0.47945 0.49971
 Cu10 Cu 0.27630 0.54321 0.49856
 C11 C 0.22267 0.51273 0.39551
 C12 C 0.29652 0.50995 0.60217
 C13 C 0.22398 0.51283 0.60673
 C14 C 0.29401 0.50941 0.38993
 O15 O 0.53358 -0.26139 0.41921
 O16 O 0.52595 -0.21159 0.57792
 O17 O 0.53517 -0.26099 0.57525
 O18 O 0.52566 -0.21149 0.41951
 O19 O 0.47275 -0.24361 0.42047
 O20 O 0.48226 -0.29274 0.57993
 O21 O 0.47301 -0.24352 0.57970
 O22 O 0.48070 -0.29353 0.42062
 Cu23 Cu 0.53534 -0.23298 0.49789
 Cu24 Cu 0.47187 -0.27161 0.50050
 C25 C 0.50846 -0.28640 0.39355
 C26 C 0.49827 -0.21871 0.60538
 C27 C 0.51041 -0.28577 0.60338
 C28 C 0.49782 -0.21883 0.39333
 O29 O 1.19426 0.74511 0.57537
 O30 O 1.24970 0.79980 0.41870
 O31 O 1.19447 0.74521 0.41890
 O32 O 1.24936 0.79961 0.57579
 O33 O 1.27614 0.77330 0.57622
 O34 O 1.22064 0.71828 0.41863
 O35 O 1.27596 0.77304 0.41726
 O36 O 1.22072 0.71847 0.57699
 Cu37 Cu 1.21940 0.77514 0.49713
 Cu38 Cu 1.25106 0.74313 0.49733
 C39 C 1.19742 0.72193 0.60153
 C40 C 1.27275 0.79636 0.39208
 C41 C 1.19750 0.72188 0.39363
 C42 C 1.27257 0.79634 0.60160
 O43 O 0.73653 0.52942 0.58346
 O44 O 0.79558 0.53822 0.42595
 O45 O 0.73669 0.52917 0.42503
 O46 O 0.79556 0.53920 0.58216
 O47 O 0.77523 0.48650 0.58422
 O48 O 0.71632 0.47652 0.42599
 O49 O 0.77504 0.48551 0.42615
 O50 O 0.71640 0.47687 0.58508
 Cu51 Cu 0.76790 0.53923 0.50386
 Cu52 Cu 0.74368 0.47607 0.50547
 C53 C 0.71615 0.50168 0.61103
 C54 C 0.79591 0.51338 0.40068
 C55 C 0.71620 0.50131 0.39932
 C56 C 0.79593 0.51454 0.60861
 O57 O 0.48980 0.26653 0.41354
 O58 O 0.48505 0.21038 0.57607
 O59 O 0.47922 0.26199 0.56890
 O60 O 0.48660 0.21064 0.41834
 O61 O 0.53973 0.23762 0.42941
 O62 O 0.53226 0.29131 0.58043
 O63 O 0.53790 0.23953 0.58991
 O64 O 0.54293 0.29355 0.42456
 Cu65 Cu 0.48003 0.23467 0.49320
 Cu66 Cu 0.54343 0.26807 0.50777
 C67 C 0.51729 0.28991 0.39199
 C68 C 0.51104 0.21538 0.61062
 C69 C 0.50405 0.28604 0.59830
 C70 C 0.51397 0.21482 0.39813
 O71 O 0.72214 0.21748 0.42357
 O72 O 0.77820 0.27238 0.57821
 O73 O 0.72284 0.21887 0.58169
 O74 O 0.77706 0.27104 0.42086
 O75 O 0.75176 0.29881 0.41958
 O76 O 0.69664 0.24575 0.58052
 O77 O 0.75229 0.29949 0.57891
 O78 O 0.69657 0.24497 0.42085
 Cu79 Cu 0.75256 0.24216 0.50132
 Cu80 Cu 0.72170 0.27501 0.49999
 C81 C 0.69984 0.22175 0.39547
 C82 C 0.77516 0.29556 0.60481
 C83 C 0.70028 0.22305 0.60824
 C84 C 0.77397 0.29402 0.39309
 O85 O 1.04490 0.56371 0.14769
 O86 O 1.08057 0.55622 0.07003
 C87 C 1.07404 0.57118 0.12612
 O88 O 0.95419 0.41824 0.13976
 O89 O 0.91863 0.42783 0.06868
 C90 C 0.92516 0.41147 0.12053
 O91 O 1.04394 0.46558 0.14712
 O92 O 1.07998 0.50917 0.07122
 C93 C 1.07309 0.48733 0.12691
 O94 O 0.95365 0.52019 0.14284
 O95 O 0.91832 0.47579 0.06894
 C96 C 0.92457 0.49809 0.12221
 Zr97 Zr 0.99928 0.52730 0.10388
 O98 O 0.99597 0.52423 0.23290
 O99 O 1.00260 0.57293 0.10740
 Zr100 Zr 0.99918 0.45687 0.10107
 O101 O 0.99608 0.45368 0.23002
 O102 O 1.00061 0.41372 0.09117
 O103 O 1.02814 0.50648 0.11844
 O104 O 0.97118 0.47799 0.11782
 O105 O 0.95360 0.52141 -0.13877
 O106 O 0.91832 0.47642 -0.06590
 C107 C 0.92455 0.49918 -0.11778
 O108 O 1.04403 0.46639 -0.15010
 O109 O 1.08004 0.50970 -0.07391
 C110 C 1.07318 0.48805 -0.12982
 O111 O 0.95394 0.41922 -0.14258
 O112 O 0.91835 0.42859 -0.07043
 C113 C 0.92487 0.41251 -0.12321
 O114 O 1.04495 0.56473 -0.14646
 O115 O 1.08065 0.55671 -0.07055
 C116 C 1.07410 0.57198 -0.12584
 Zr117 Zr 0.99930 0.52820 -0.10229
 O118 O 0.99581 0.52640 -0.23127
 O119 O 1.00279 0.57393 -0.10303
 Zr120 Zr 0.99916 0.45782 -0.10449
 O121 O 0.99579 0.45757 -0.23345
 O122 O 1.00179 0.41514 -0.10676
 Zr123 Zr 1.04760 0.51671 -0.00072
 Zr124 Zr 0.95111 0.46849 -0.00004
 O125 O 0.97113 0.47905 -0.11828
 O126 O 1.02819 0.50754 -0.11971
 O127 O 0.97047 0.51882 0.00119
 O128 O 1.02747 0.46642 -0.00193
 O129 O 1.02737 0.54686 0.00074
 O130 O 0.97020 0.43745 -0.00160
 H131 H 0.95664 0.47050 0.16600
 H132 H 1.04199 0.45727 -0.00230
 H133 H 0.95649 0.47200 -0.16608
 H134 H 1.04179 0.57055 0.00099
 H135 H 1.00041 0.40630 0.14780
 H136 H 0.98752 0.40100 -0.06270
 H137 H 1.01465 0.47759 -0.25406
 H138 H 1.01475 0.52566 -0.25278
 H139 H 0.98555 0.57252 -0.06687
 H140 H 0.98531 0.57177 0.07203
 H141 H 1.01548 0.52436 0.25343
 H142 H 1.01218 0.47502 0.25169
 O143 O 0.48313 0.42861 -0.14920
 O144 O 0.52585 0.43935 -0.06585
 C145 C 0.50628 0.42383 -0.12513
 O146 O 0.52458 0.57070 -0.13676
 O147 O 0.47701 0.55612 -0.06994
 C148 C 0.50016 0.57452 -0.11951
 O149 O 0.57482 0.53090 -0.13811
 O150 O 0.56995 0.48827 -0.06284
 C151 C 0.58432 0.51090 -0.11728
 O152 O 0.42798 0.46317 -0.14852
 O153 O 0.43187 0.50569 -0.07537
 C154 C 0.41822 0.48321 -0.12981
 Zr155 Zr 0.46846 0.46082 -0.10468
 O156 O 0.46826 0.46241 -0.23386
 O157 O 0.42759 0.41395 -0.10170
 Zr158 Zr 0.53508 0.53477 -0.09697
 O159 O 0.53524 0.53719 -0.22611
 O160 O 0.57883 0.57952 -0.09200
 O161 O 0.51876 0.48595 -0.11466
 O162 O 0.48592 0.50962 -0.11791
 O163 O 0.42258 0.46045 0.13434
 O164 O 0.42925 0.50450 0.06286
 C165 C 0.41369 0.48101 0.11417
 O166 O 0.56931 0.52815 0.15791
 O167 O 0.56729 0.48701 0.08223
 C168 C 0.57976 0.50876 0.13885
 O169 O 0.51983 0.56837 0.14344
 O170 O 0.47465 0.55518 0.06710
 C171 C 0.49623 0.57267 0.12099
 O172 O 0.47553 0.42458 0.14590
 O173 O 0.52208 0.43688 0.07644
 C174 C 0.49906 0.41958 0.12817
 Zr175 Zr 0.46442 0.45887 0.10037
 O176 O 0.46090 0.45973 0.22918
 O177 O 0.42401 0.41165 0.09608
 Zr178 Zr 0.53101 0.53258 0.10863
 O179 O 0.52514 0.53147 0.23703
 O180 O 0.57460 0.57726 0.11757
 Zr181 Zr 0.52778 0.47659 0.00559
 Zr182 Zr 0.47212 0.51693 -0.00148
 O183 O 0.48129 0.50733 0.11776
 O184 O 0.51408 0.48342 0.12296
 O185 O 0.44468 0.46630 -0.00487
 O186 O 0.55413 0.52730 0.00834
 O187 O 0.47797 0.44280 -0.00081
 O188 O 0.52174 0.55154 0.00439
 H189 H 0.47850 0.51609 -0.16708
 H190 H 0.57805 0.53858 0.01094
 H191 H 0.47205 0.51307 0.16461
 H192 H 0.47057 0.41947 -0.00223
 H193 H 0.57458 0.59464 -0.06080
 H194 H 0.57340 0.59206 0.07754
 H195 H 0.52667 0.51299 0.25835
 H196 H 0.48118 0.46236 0.25233
 H197 H 0.41026 0.41103 0.05024
 H198 H 0.42228 0.40717 -0.15941
 H199 H 0.49033 0.46876 -0.25269
 H200 H 0.53585 0.51822 -0.24724
 O201 O 0.52965 -0.04557 0.14569
 O202 O 0.48703 -0.08308 0.06993
 C203 C 0.50924 -0.07502 0.12526
 O204 O 0.46825 0.03808 0.14254
 O205 O 0.51221 0.07567 0.06980
 C206 C 0.48942 0.06763 0.12342
 O207 O 0.42836 -0.05196 0.14662
 O208 O 0.43861 -0.08600 0.07054
 C209 C 0.42253 -0.08050 0.12596
 O210 O 0.57300 0.04382 0.13936
 O211 O 0.56157 0.07842 0.06995
 C212 C 0.57873 0.07252 0.12114
 Zr213 Zr 0.53596 -0.00168 0.10041
 O214 O 0.53837 0.00106 0.22945
 O215 O 0.58074 -0.00031 0.09198
 Zr216 Zr 0.46330 -0.00605 0.10191
 O217 O 0.46470 -0.00333 0.23100
 O218 O 0.41636 -0.01193 0.10146
 O219 O 0.48648 -0.03269 0.11726
 O220 O 0.51246 0.02401 0.11685
 O221 O 0.57355 0.04467 -0.14036
 O222 O 0.56144 0.07869 -0.07057
 C223 C 0.57898 0.07317 -0.12124
 O224 O 0.42838 -0.05125 -0.14841
 O225 O 0.43850 -0.08565 -0.07343
 C226 C 0.42249 -0.07990 -0.12839
 O227 O 0.46713 0.03842 -0.14133
 O228 O 0.51145 0.07572 -0.06999
 C229 C 0.48816 0.06789 -0.12203
 O230 O 0.53002 -0.04476 -0.14980
 O231 O 0.48704 -0.08266 -0.07490
 C232 C 0.50943 -0.07434 -0.13013
 Zr233 Zr 0.53581 -0.00112 -0.10446
 O234 O 0.53610 0.00273 -0.23337
 O235 O 0.58000 -0.00115 -0.10785
 Zr236 Zr 0.46329 -0.00552 -0.10328
 O237 O 0.46564 -0.00176 -0.23227
 O238 O 0.41626 -0.01166 -0.10377
 Zr239 Zr 0.47755 -0.05197 -0.00171
 Zr240 Zr 0.52173 0.04471 -0.00055
 O241 O 0.51244 0.02483 -0.11865
 O242 O 0.48636 -0.03216 -0.12043
 O243 O 0.55472 0.02783 -0.00162
 O244 O 0.44523 -0.03424 -0.00089
 O245 O 0.52829 -0.02928 -0.00231
 O246 O 0.47087 0.02282 -0.00019
 H247 H 0.51916 0.03810 0.16557
 H248 H 0.42163 -0.04959 -0.00079
 H249 H 0.51916 0.03947 -0.16651
 H250 H 0.53880 -0.04256 -0.00263
 H251 H 0.41756 0.00659 0.07172
 H252 H 0.41654 0.00487 -0.06732
 H253 H 0.46777 -0.01987 -0.25357
 H254 H 0.51730 -0.01715 -0.25446
 H255 H 0.59306 0.01193 -0.06112
 H256 H 0.58798 0.00003 0.14883
 H257 H 0.51762 -0.01655 0.25086
 H258 H 0.46789 -0.02091 0.25163
 C259 C 1.20610 0.54182 0.29648
 C260 C 1.19970 0.51311 0.33572
 C261 C 1.17039 0.48470 0.32001
 C262 C 1.14733 0.48506 0.26818
 C263 C 1.15376 0.51406 0.22957
 C264 C 1.18341 0.54225 0.24340
 C265 C 1.13004 0.51449 0.17990
 C266 C 1.09963 0.48658 0.17097
 C267 C 1.09385 0.45781 0.20867
 C268 C 1.11754 0.45699 0.25622
 H269 H 1.16502 0.46241 0.35010
 H270 H 1.18878 0.56473 0.21454
 H271 H 1.13477 0.53671 0.15094
 H272 H 1.11227 0.43455 0.28521
 H273 H 1.22855 0.56403 0.30738
 H274 H 1.07076 0.43586 0.20202
 C275 C 0.54238 0.69810 0.31710
 C276 C 0.51158 0.69325 0.33732
 C277 C 0.48404 0.66668 0.30337
 C278 C 0.48715 0.64476 0.25306
 C279 C 0.51810 0.64897 0.23742
 C280 C 0.54556 0.67601 0.26843
 C281 C 0.52102 0.62572 0.19249
 C282 C 0.49342 0.59861 0.16144
 C283 C 0.46296 0.59561 0.17334
 C284 C 0.45977 0.61829 0.21948
 H285 H 0.46010 0.66271 0.31684
 H286 H 0.56950 0.67981 0.25619
 H287 H 0.54471 0.62852 0.18246
 H288 H 0.43586 0.61483 0.22998
 H289 H 0.56416 0.71834 0.34146
 H290 H 0.44146 0.57511 0.14943
 C291 C 0.29413 -0.15272 0.31827
 C292 C 0.29542 -0.18070 0.33747
 C293 C 0.32091 -0.18404 0.30484
 C294 C 0.34516 -0.15942 0.25674
 C295 C 0.34426 -0.13089 0.24196
 C296 C 0.31840 -0.12803 0.27176
 C297 C 0.36946 -0.10544 0.19858
 C298 C 0.39538 -0.10824 0.16791
 C299 C 0.39529 -0.13728 0.17925
 C300 C 0.37061 -0.16253 0.22416
 H301 H 0.32228 -0.20548 0.31780
 H302 H 0.31717 -0.10644 0.26015
 H303 H 0.36890 -0.08338 0.18876
 H304 H 0.37159 -0.18434 0.23397
 H305 H 0.27491 -0.14924 0.34162
 H306 H 0.41471 -0.14015 0.15514
 C307 C 0.85167 0.54600 0.34282
 C308 C 0.82181 0.51705 0.34451
 C309 C 0.81787 0.49095 0.29711
 C310 C 0.84367 0.49344 0.25035
 C311 C 0.87402 0.52218 0.25191
 C312 C 0.87760 0.54848 0.29738
 C313 C 0.90038 0.52390 0.20915
 C314 C 0.89661 0.49742 0.16356
 C315 C 0.86585 0.46955 0.15960
 C316 C 0.83976 0.46744 0.20317
 H317 H 0.79489 0.46859 0.29752
 H318 H 0.90059 0.57079 0.29892
 H319 H 0.92379 0.54573 0.21189
 H320 H 0.81659 0.44534 0.20052
 H321 H 0.85536 0.56639 0.37917
 H322 H 0.86202 0.44897 0.12404
 C323 C 0.54969 0.33869 0.30337
 C324 C 0.51944 0.31399 0.33154
 C325 C 0.49138 0.31400 0.30662
 C326 C 0.49350 0.33900 0.25768
 C327 C 0.52402 0.36417 0.23119
 C328 C 0.55195 0.36343 0.25329
 C329 C 0.52606 0.39007 0.18553
 C330 C 0.49794 0.39138 0.16844
 C331 C 0.46776 0.36571 0.19366
 C332 C 0.46554 0.33976 0.23726
 H333 H 0.46792 0.29527 0.32805
 H334 H 0.57558 0.38240 0.23371
 H335 H 0.54941 0.40966 0.16640
 H336 H 0.44195 0.32063 0.25671
 H337 H 0.57175 0.33929 0.32147
 H338 H 0.44564 0.36581 0.18023
 C339 C 0.65547 0.20539 0.29194
 C340 C 0.67725 0.19898 0.33394
 C341 C 0.67687 0.17002 0.31836
 C342 C 0.65428 0.14722 0.26440
 C343 C 0.63199 0.15350 0.22363
 C344 C 0.63328 0.18300 0.23663
 C345 C 0.60826 0.12977 0.17280
 C346 C 0.60612 0.09958 0.16433
 C347 C 0.62925 0.09426 0.20325
 C348 C 0.65314 0.11784 0.25236
 H349 H 0.69352 0.16470 0.35013
 H350 H 0.61686 0.18856 0.20496
 H351 H 0.59074 0.13429 0.14294
 H352 H 0.67020 0.11274 0.28268
 H353 H 0.65548 0.22768 0.30210
 H354 H 0.62854 0.07146 0.19707
 C355 C 0.53888 0.20090 -0.28714
 C356 C 0.51047 0.19378 -0.32998
 C357 C 0.48220 0.16396 -0.31500
 C358 C 0.48288 0.14110 -0.26235
 C359 C 0.51174 0.14847 -0.22121
 C360 C 0.53934 0.17872 -0.23266
 C361 C 0.51289 0.12509 -0.17167
 C362 C 0.48584 0.09394 -0.16495
 C363 C 0.45704 0.08712 -0.20483
 C364 C 0.45548 0.11052 -0.25235
 H365 H 0.46003 0.15782 -0.34715
 H366 H 0.56156 0.18494 -0.20097
 H367 H 0.53526 0.13072 -0.14150
 H368 H 0.43309 0.10438 -0.28321
 H369 H 0.56104 0.22366 -0.29603
 H370 H 0.43573 0.06342 -0.20029
 C371 C 0.66996 0.46798 -0.29970
 C372 C 0.69276 0.49845 -0.33139
 C373 C 0.69075 0.52553 -0.30697
 C374 C 0.66579 0.52213 -0.25529
 C375 C 0.64278 0.49138 -0.22514
 C376 C 0.64539 0.46454 -0.24683
 C377 C 0.61701 0.48791 -0.17615
 C378 C 0.61342 0.51465 -0.15941
 C379 C 0.63681 0.54516 -0.18870
 C380 C 0.66289 0.54892 -0.23544
 H381 H 0.70793 0.54926 -0.33029
 H382 H 0.62796 0.44075 -0.22444
 H383 H 0.59903 0.46431 -0.15439
 H384 H 0.68032 0.57269 -0.25790
 H385 H 0.67074 0.44658 -0.31660
 H386 H 0.63471 0.56618 -0.17616
 C387 C 0.79418 0.34244 -0.30541
 C388 C 0.79760 0.31720 -0.33837
 C389 C 0.82472 0.31474 -0.31555
 C390 C 0.84850 0.33766 -0.26388
 C391 C 0.84485 0.36296 -0.23197
 C392 C 0.81742 0.36489 -0.25229
 C393 C 0.86920 0.38647 -0.18245
 C394 C 0.89768 0.38566 -0.16682
 C395 C 0.90092 0.36024 -0.19836
 C396 C 0.87639 0.33624 -0.24565
 H397 H 0.82804 0.29563 -0.34009
 H398 H 0.81428 0.38420 -0.22850
 H399 H 0.86664 0.40616 -0.15926
 H400 H 0.87961 0.31702 -0.26970
 H401 H 0.77364 0.34508 -0.32109
 H402 H 0.92261 0.35908 -0.18696
 C403 C 0.46581 -0.20596 -0.29632
 C404 C 0.49549 -0.19720 -0.33452
 C405 C 0.52235 -0.16674 -0.31854
 C406 C 0.51944 -0.14485 -0.26790
 C407 C 0.48944 -0.15361 -0.23058
 C408 C 0.46287 -0.18444 -0.24432
 C409 C 0.48639 -0.13104 -0.18233
 C410 C 0.51270 -0.09957 -0.17350
 C411 C 0.54250 -0.09151 -0.20990
 C412 C 0.54591 -0.11396 -0.25604
 H413 H 0.54535 -0.15954 -0.34782
 H414 H 0.43966 -0.19163 -0.21641
 H415 H 0.46340 -0.13757 -0.15429
 H416 H 0.56909 -0.10690 -0.28399
 H417 H 0.44474 -0.22932 -0.30747
 H418 H 0.56331 -0.06760 -0.20319
 C419 C 0.34169 0.53788 -0.30328
 C420 C 0.31837 0.50932 -0.34160
 C421 C 0.31821 0.48038 -0.32476
 C422 C 0.34172 0.48031 -0.27359
 C423 C 0.36469 0.50913 -0.23532
 C424 C 0.36424 0.53766 -0.24975
 C425 C 0.38843 0.50925 -0.18520
 C426 C 0.39080 0.48143 -0.17586
 C427 C 0.36797 0.45284 -0.21442
 C428 C 0.34331 0.45215 -0.26188
 H429 H 0.30073 0.45814 -0.35411
 H430 H 0.38186 0.56000 -0.22114
 H431 H 0.40587 0.53137 -0.15601
 H432 H 0.32599 0.42983 -0.29107
 H433 H 0.34250 0.56053 -0.31431
 H434 H 0.36924 0.43105 -0.20797
 C435 C 1.14212 0.69553 -0.33749
 C436 C 1.17256 0.69784 -0.34289
 C437 C 1.17791 0.67554 -0.29996
 C438 C 1.15288 0.65080 -0.25389
 C439 C 1.12205 0.64806 -0.25179
 C440 C 1.11707 0.67080 -0.29281
 C441 C 1.09656 0.62240 -0.20960
 C442 C 1.10147 0.59961 -0.16788
 C443 C 1.13256 0.60333 -0.16739
 C444 C 1.15795 0.62846 -0.21075
 H445 H 1.20130 0.67714 -0.30330
 H446 H 1.09365 0.66918 -0.29139
 H447 H 1.07288 0.62023 -0.20931
 H448 H 1.18148 0.63032 -0.21085
 H449 H 1.13726 0.71226 -0.37024
 H450 H 1.13717 0.58652 -0.13449
 C451 C 0.85167 0.54742 -0.33539
 C452 C 0.82173 0.51858 -0.33522
 C453 C 0.81761 0.49275 -0.28640
 C454 C 0.84345 0.49523 -0.24049
 C455 C 0.87396 0.52376 -0.24409
 C456 C 0.87765 0.54994 -0.29054
 C457 C 0.90040 0.52533 -0.20273
 C458 C 0.89655 0.49886 -0.15686
 C459 C 0.86565 0.47126 -0.15053
 C460 C 0.83944 0.46933 -0.19255
 H461 H 0.79451 0.47050 -0.28545
 H462 H 0.90077 0.57209 -0.29358
 H463 H 0.92394 0.54694 -0.20711
 H464 H 0.81615 0.44742 -0.18837
 H465 H 0.85540 0.56760 -0.37296
 H466 H 0.86178 0.45072 -0.11445
 C467 C 0.47047 0.30925 -0.35637
 C468 C 0.49952 0.30870 -0.35019
 C469 C 0.52400 0.33068 -0.29815
 C470 C 0.51948 0.35308 -0.25329
 C471 C 0.49049 0.35391 -0.26218
 C472 C 0.46609 0.33175 -0.31331
 C473 C 0.48636 0.37699 -0.22022
 C474 C 0.51052 0.39902 -0.16774
 C475 C 0.53873 0.39719 -0.15667
 C476 C 0.54336 0.37472 -0.19985
 H477 H 0.54641 0.33035 -0.29262
 H478 H 0.44366 0.33194 -0.32048
 H479 H 0.46422 0.37767 -0.22831
 H480 H 0.56558 0.37426 -0.19134
 H481 H 0.45129 0.29274 -0.39644
 H482 H 0.55741 0.41333 -0.11512
 C483 C 0.65334 0.20516 -0.29557
 C484 C 0.67760 0.20049 -0.33002
 C485 C 0.67916 0.17298 -0.30840
 C486 C 0.65595 0.14965 -0.25643
 C487 C 0.63113 0.15408 -0.22354
 C488 C 0.63044 0.18224 -0.24222
 C489 C 0.60682 0.12972 -0.17525
 C490 C 0.60660 0.10069 -0.16188
 C491 C 0.63196 0.09704 -0.19304
 C492 C 0.65656 0.12140 -0.23933
 H493 H 0.69773 0.16903 -0.33443
 H494 H 0.61175 0.18616 -0.21722
 H495 H 0.58734 0.13272 -0.15161
 H496 H 0.67552 0.11773 -0.26378
 H497 H 0.65172 0.22625 -0.31086
 H498 H 0.63250 0.07503 -0.18273
 C499 C 1.20744 0.54196 -0.29438
 C500 C 1.20112 0.51323 -0.33297
 C501 C 1.17163 0.48490 -0.31762
 C502 C 1.14822 0.48541 -0.26727
 C503 C 1.15454 0.51444 -0.22942
 C504 C 1.18445 0.54250 -0.24246
 C505 C 1.13046 0.51503 -0.18137
 C506 C 1.09985 0.48725 -0.17334
 C507 C 1.09416 0.45847 -0.21045
 C508 C 1.11818 0.45749 -0.25634
 H509 H 1.16629 0.46262 -0.34740
 H510 H 1.18973 0.56501 -0.21416
 H511 H 1.13513 0.53726 -0.15288
 H512 H 1.11298 0.43503 -0.28483
 H513 H 1.23001 0.56411 -0.30515
 H514 H 1.07093 0.43662 -0.20440
 C515 C 0.54510 0.69749 -0.32900
 C516 C 0.51431 0.69392 -0.34175
 C517 C 0.48744 0.66864 -0.30169
 C518 C 0.49110 0.64685 -0.25206
 C519 C 0.52176 0.64950 -0.24424
 C520 C 0.54868 0.67522 -0.28185
 C521 C 0.52487 0.62613 -0.19991
 C522 C 0.49784 0.60070 -0.16101
 C523 C 0.46801 0.59978 -0.16443
 C524 C 0.46450 0.62222 -0.21073
 H525 H 0.46360 0.66577 -0.30918
 H526 H 0.57247 0.67792 -0.27560
 H527 H 0.54822 0.62764 -0.19612
 H528 H 0.44093 0.62020 -0.21452
 H529 H 0.56639 0.71673 -0.35837
 H530 H 0.44712 0.58124 -0.13267
 C531 C 0.29667 -0.15019 -0.32971
 C532 C 0.29646 -0.17929 -0.34185
 C533 C 0.32050 -0.18363 -0.30445
 C534 C 0.34493 -0.15882 -0.25759
 C535 C 0.34546 -0.12928 -0.24882
 C536 C 0.32097 -0.12541 -0.28399
 C537 C 0.37070 -0.10385 -0.20605
 C538 C 0.39538 -0.10751 -0.17046
 C539 C 0.39400 -0.13737 -0.17648
 C540 C 0.36917 -0.16272 -0.22037
 H541 H 0.32055 -0.20598 -0.31294
 H542 H 0.32091 -0.10299 -0.27730
 H543 H 0.37112 -0.08115 -0.20058
 H544 H 0.36907 -0.18526 -0.22571
 H545 H 0.27855 -0.14611 -0.35777
 H546 H 0.41246 -0.14091 -0.14868
 C547 C 0.46527 -0.20647 0.29425
 C548 C 0.49487 -0.19754 0.33274
 C549 C 0.52176 -0.16714 0.31597
 C550 C 0.51898 -0.14544 0.26424
 C551 C 0.48911 -0.15433 0.22641
 C552 C 0.46248 -0.18513 0.24095
 C553 C 0.48624 -0.13188 0.17703
 C554 C 0.51249 -0.10036 0.16824
 C555 C 0.54220 -0.09223 0.20496
 C556 C 0.54550 -0.11460 0.25183
 H557 H 0.54471 -0.15981 0.34543
 H558 H 0.43935 -0.19242 0.21269
 H559 H 0.46342 -0.13853 0.14820
 H560 H 0.56859 -0.10747 0.28014
 H561 H 0.44421 -0.22981 0.30597
 H562 H 0.56300 -0.06829 0.19815
 C563 C 0.33505 0.53515 0.27814
 C564 C 0.31517 0.50802 0.32633
 C565 C 0.31637 0.47960 0.31549
 C566 C 0.33810 0.47865 0.25971
 C567 C 0.35816 0.50611 0.21190
 C568 C 0.35612 0.53410 0.22067
 C569 C 0.38094 0.50562 0.15891
 C570 C 0.38535 0.47880 0.15672
 C571 C 0.36466 0.45131 0.20292
 C572 C 0.34094 0.45108 0.25315
 H573 H 0.30133 0.45860 0.35281
 H574 H 0.37146 0.55543 0.18477
 H575 H 0.39634 0.52675 0.12267
 H576 H 0.32568 0.42979 0.28926
 H577 H 0.33441 0.55725 0.28519
 H578 H 0.36733 0.43021 0.20186
 C579 C 1.14217 0.69535 0.33355
 C580 C 1.17263 0.69771 0.33868
 C581 C 1.17797 0.67532 0.29639
 C582 C 1.15290 0.65039 0.25133
 C583 C 1.12203 0.64756 0.24966
 C584 C 1.11707 0.67042 0.28991
 C585 C 1.09648 0.62170 0.20863
 C586 C 1.10140 0.59884 0.16751
 C587 C 1.13253 0.60268 0.16642
 C588 C 1.15797 0.62798 0.20878
 H589 H 1.20140 0.67699 0.29950
 H590 H 1.09363 0.66875 0.28872
 H591 H 1.07277 0.61946 0.20861
 H592 H 1.18154 0.62993 0.20848
 H593 H 1.13733 0.71216 0.36581
 H594 H 1.13715 0.58586 0.13375
 C595 C 0.54355 0.19923 0.29749
 C596 C 0.51503 0.19210 0.33912
 C597 C 0.48671 0.16249 0.32460
 C598 C 0.48690 0.13998 0.27092
 C599 C 0.51565 0.14721 0.22930
 C600 C 0.54374 0.17708 0.24224
 C601 C 0.51594 0.12409 0.17740
 C602 C 0.48812 0.09352 0.16887
 C603 C 0.45956 0.08695 0.20958
 C604 C 0.45888 0.11006 0.25960
 H605 H 0.46454 0.15655 0.35666
 H606 H 0.56587 0.18316 0.21023
 H607 H 0.53812 0.12940 0.14652
 H608 H 0.43663 0.10423 0.29097
 H609 H 0.56558 0.22197 0.30721
 H610 H 0.43778 0.06370 0.20365
 C611 C 0.67081 0.46824 0.30219
 C612 C 0.69122 0.49784 0.34054
 C613 C 0.68639 0.52397 0.32648
 C614 C 0.66093 0.52042 0.27730
 C615 C 0.64029 0.49054 0.23941
 C616 C 0.64569 0.46468 0.25148
 C617 C 0.61422 0.48692 0.19192
 C618 C 0.60812 0.51256 0.18411
 C619 C 0.62904 0.54216 0.22171
 C620 C 0.65532 0.54614 0.26731
 H621 H 0.70175 0.54686 0.35617
 H622 H 0.63010 0.44157 0.22313
 H623 H 0.59822 0.46400 0.16324
 H624 H 0.67095 0.56918 0.29593
 H625 H 0.67403 0.44772 0.31212
 H626 H 0.62509 0.56239 0.21585
 C627 C 0.79218 0.33882 0.29090
 C628 C 0.79714 0.31580 0.33119
 C629 C 0.82535 0.31459 0.31490
 C630 C 0.84895 0.33686 0.26178
 C631 C 0.84401 0.36023 0.22240
 C632 C 0.81533 0.36073 0.23640
 C633 C 0.86834 0.38344 0.17222
 C634 C 0.89801 0.38435 0.16346
 C635 C 0.90240 0.36059 0.20159
 C636 C 0.87793 0.33683 0.24968
 H637 H 0.82957 0.29706 0.34587
 H638 H 0.81120 0.37854 0.20683
 H639 H 0.86475 0.40168 0.14327
 H640 H 0.88206 0.31903 0.27938
 H641 H 0.77057 0.34014 0.30225
 H642 H 0.92498 0.36068 0.19526
   
