data_POSCAR
  _audit_creation_date              2014-09-24
  _audit_creation_method            'ToBaCCo'
  _symmetry_space_group_name_H-M    'P1'
  _symmetry_Int_Tables_number       1
  _symmetry_cell_setting            triclinic
  loop_
  _symmetry_equiv_pos_as_xyz
 x,y,z
_cell_length_a 54.1982
_cell_length_b 54.0983
_cell_length_c 30.7994
_cell_angle_alpha 90.079300
_cell_angle_beta 89.939800
_cell_angle_gamma 96.420700
loop_
  _atom_site_label
  _atom_site_type_symbol
  _atom_site_fract_x
  _atom_site_fract_y
  _atom_site_fract_z
O1 O -0.01573 0.26920 0.03331
 O2 O 0.03487 0.25321 -0.03738
 O3 O -0.01276 0.25492 -0.04718
 O4 O 0.03219 0.26498 0.04339
 O5 O 0.02256 0.22587 0.06342
 O6 O -0.02002 0.21537 -0.02849
 O7 O 0.02741 0.21389 -0.01748
 O8 O -0.02426 0.22972 0.05167
 Cu9 Cu 0.01034 0.26461 -0.00366
 Cu10 Cu 0.00056 0.21730 0.01917
 C11 C -0.02884 0.25222 0.05398
 C12 C 0.04010 0.23091 -0.03895
 C13 C -0.02390 0.23322 -0.05323
 C14 C 0.03519 0.24683 0.06832
 O15 O 0.51441 0.74989 0.45772
 O16 O 0.46564 0.75260 0.54152
 O17 O 0.51419 0.75472 0.54122
 O18 O 0.46592 0.75035 0.45640
 O19 O 0.46157 0.70941 0.46214
 O20 O 0.51067 0.71371 0.54485
 O21 O 0.46249 0.71165 0.54661
 O22 O 0.50923 0.70885 0.46161
 Cu23 Cu 0.49027 0.75605 0.49866
 Cu24 Cu 0.48547 0.70684 0.50441
 C25 C 0.52023 0.72874 0.44592
 C26 C 0.45594 0.73237 0.55846
 C27 C 0.52110 0.73488 0.55661
 C28 C 0.45552 0.72915 0.44489
 O29 O 1.01639 0.75534 0.04153
 O30 O 0.96538 0.74469 -0.03749
 O31 O 1.01405 0.74908 -0.04164
 O32 O 0.96794 0.75327 0.04618
 O33 O 0.97000 0.79380 0.03527
 O34 O 1.01468 0.78949 -0.05263
 O35 O 0.96671 0.78519 -0.04791
 O36 O 1.01807 0.79582 0.03059
 Cu37 Cu 0.99066 0.74649 0.00321
 Cu38 Cu 0.99243 0.79510 -0.00968
 C39 C 1.02621 0.77736 0.04903
 C40 C 0.95738 0.76308 -0.05622
 C41 C 1.02237 0.76882 -0.06174
 C42 C 0.96127 0.77445 0.05564
 O43 O 0.52792 0.22561 0.55578
 O44 O 0.47601 0.22186 0.47675
 O45 O 0.52427 0.21974 0.47226
 O46 O 0.47933 0.22448 0.56099
 O47 O 0.48403 0.26538 0.55447
 O48 O 0.52920 0.26068 0.46644
 O49 O 0.48143 0.26276 0.47061
 O50 O 0.53186 0.26656 0.54994
 Cu51 Cu 0.50140 0.21880 0.51704
 Cu52 Cu 0.50711 0.26789 0.50965
 C53 C 0.53873 0.24692 0.56601
 C54 C 0.46978 0.24189 0.46060
 C55 C 0.53464 0.23940 0.45468
 C56 C 0.47384 0.24571 0.57254
 O57 O 0.75565 0.01728 -0.03821
 O58 O 0.75457 -0.02987 0.04893
 O59 O 0.75380 0.01877 0.04602
 O60 O 0.75437 -0.03128 -0.03523
 O61 O 0.79538 -0.02697 -0.03376
 O62 O 0.79481 0.02308 0.04699
 O63 O 0.79556 -0.02481 0.05029
 O64 O 0.79666 0.02097 -0.03710
 Cu65 Cu 0.75043 -0.00669 0.00536
 Cu66 Cu 0.79968 -0.00147 0.00680
 C67 C 0.77653 0.02713 -0.05231
 C68 C 0.77506 -0.03556 0.06397
 C69 C 0.77426 0.02965 0.05987
 C70 C 0.77499 -0.03777 -0.04799
 O71 O 0.23784 0.52826 0.45389
 O72 O 0.23446 0.47825 0.53600
 O73 O 0.23535 0.52702 0.53827
 O74 O 0.23956 0.47952 0.45253
 O75 O 0.28048 0.48575 0.45673
 O76 O 0.27621 0.53070 0.54439
 O77 O 0.27540 0.48253 0.53969
 O78 O 0.27869 0.53338 0.46016
 Cu79 Cu 0.23265 0.50287 0.49456
 Cu80 Cu 0.28174 0.50868 0.50089
 C81 C 0.25884 0.53953 0.44355
 C82 C 0.25445 0.47139 0.55081
 C83 C 0.25531 0.53691 0.55579
 C84 C 0.26091 0.47438 0.44067
 O85 O 0.28689 1.03315 0.03011
 O86 O 0.28075 0.98199 -0.04975
 O87 O 0.28334 1.03046 -0.05346
 O88 O 0.28449 0.98435 0.03470
 O89 O 0.24366 0.98200 0.03966
 O90 O 0.24256 1.02820 -0.04753
 O91 O 0.23994 0.97994 -0.04461
 O92 O 0.24610 1.03024 0.03651
 Cu93 Cu 0.28798 1.00763 -0.01001
 Cu94 Cu 0.23899 1.00480 -0.00342
 C95 C 0.26753 1.04065 0.04646
 C96 C 0.25926 0.97236 -0.06095
 C97 C 0.26273 1.03741 -0.06516
 C98 C 0.26421 0.97524 0.05201
 O99 O 0.76980 0.52091 0.54871
 O100 O 0.77374 0.47468 0.46179
 O101 O 0.77175 0.52294 0.46435
 O102 O 0.76825 0.47239 0.54610
 O103 O 0.72739 0.46803 0.53978
 O104 O 0.73087 0.51772 0.45922
 O105 O 0.73288 0.47007 0.45598
 O106 O 0.72892 0.51599 0.54332
 Cu107 Cu 0.77501 0.49815 0.50572
 Cu108 Cu 0.72596 0.49246 0.49900
 C109 C 0.74869 0.52640 0.56072
 C110 C 0.75404 0.46450 0.44411
 C111 C 0.75168 0.52900 0.44818
 C112 C 0.74699 0.46168 0.55674
 C113 C 0.21685 0.21208 0.18823
 C114 C 0.23592 0.20207 0.21055
 C115 C 0.24982 0.21649 0.24166
 C116 C 0.24623 0.24168 0.24818
 C117 C 0.22729 0.25151 0.22444
 C118 C 0.21183 0.23654 0.19622
 C119 C 0.26234 0.25783 0.27881
 C120 C 0.25342 0.27855 0.29877
 C121 C 0.26901 0.29519 0.32398
 C122 C 0.29336 0.29009 0.33248
 C123 C 0.30244 0.26897 0.31456
 C124 C 0.28699 0.25323 0.28732
 H125 H 0.20589 0.20066 0.16477
 H126 H 0.26371 0.20804 0.25992
 H127 H 0.22421 0.27082 0.22789
 H128 H 0.23437 0.28221 0.29432
 H129 H 0.30481 0.30219 0.35421
 H130 H 0.29461 0.23770 0.27214
 C131 C 0.78917 0.78859 0.20814
 C132 C 0.76457 0.79389 0.21313
 C133 C 0.74736 0.77659 0.23391
 C134 C 0.75474 0.75486 0.25283
 C135 C 0.77980 0.75039 0.24864
 C136 C 0.79689 0.76674 0.22551
 C137 C 0.73636 0.73686 0.27634
 C138 C 0.73996 0.71151 0.27973
 C139 C 0.72315 0.69466 0.30242
 C140 C 0.70163 0.70295 0.32012
 C141 C 0.69720 0.72791 0.31594
 C142 C 0.71501 0.74483 0.29569
 H143 H 0.80191 0.80095 0.18896
 H144 H 0.72817 0.78030 0.23502
 H145 H 0.78636 0.73420 0.26330
 H146 H 0.75581 0.70451 0.26463
 H147 H 0.68880 0.69038 0.33873
 H148 H 0.71195 0.76424 0.29514
 C149 C 0.78913 0.21117 0.19318
 C150 C 0.79904 0.23410 0.21015
 C151 C 0.78357 0.24888 0.23244
 C152 C 0.75762 0.24198 0.23445
 C153 C 0.74802 0.21886 0.21615
 C154 C 0.76382 0.20297 0.19745
 C155 C 0.74066 0.25897 0.25458
 C156 C 0.71716 0.24952 0.27129
 C157 C 0.70079 0.26551 0.28790
 C158 C 0.70862 0.29102 0.29091
 C159 C 0.73195 0.30091 0.27545
 C160 C 0.74766 0.28494 0.25678
 H161 H 0.80129 0.19970 0.17645
 H162 H 0.79195 0.26595 0.24710
 H163 H 0.72830 0.21291 0.21630
 H164 H 0.71132 0.22975 0.27162
 H165 H 0.69686 0.30302 0.30721
 H166 H 0.76520 0.29310 0.24365
 C167 C 0.20438 0.80196 0.20176
 C168 C 0.19544 0.77672 0.20541
 C169 C 0.21082 0.76018 0.22330
 C170 C 0.23442 0.76880 0.24047
 C171 C 0.24240 0.79457 0.23802
 C172 C 0.22779 0.81107 0.21800
 C173 C 0.25073 0.75103 0.26013
 C174 C 0.27677 0.75714 0.26222
 C175 C 0.29209 0.74105 0.28147
 C176 C 0.28147 0.71799 0.29722
 C177 C 0.25587 0.71090 0.29406
 C178 C 0.24055 0.72779 0.27709
 H179 H 0.19356 0.81431 0.18427
 H180 H 0.20422 0.74058 0.22319
 H181 H 0.25999 0.80220 0.25164
 H182 H 0.28554 0.77438 0.24879
 H183 H 0.29295 0.70592 0.31389
 H184 H 0.22071 0.72256 0.27746
 C185 C 0.72403 0.28096 0.68881
 C186 C 0.71637 0.25544 0.69320
 C187 C 0.73275 0.23993 0.71104
 C188 C 0.75604 0.24981 0.72772
 C189 C 0.76296 0.27565 0.72406
 C190 C 0.74742 0.29117 0.70390
 C191 C 0.77290 0.23333 0.74911
 C192 C 0.79880 0.24018 0.75085
 C193 C 0.81450 0.22549 0.77273
 C194 C 0.80438 0.20289 0.79118
 C195 C 0.77887 0.19514 0.78836
 C196 C 0.76321 0.21078 0.76885
 H197 H 0.71218 0.29258 0.67196
 H198 H 0.72705 0.22013 0.71182
 H199 H 0.78040 0.28410 0.73716
 H200 H 0.80709 0.25704 0.73539
 H201 H 0.81607 0.19184 0.80966
 H202 H 0.74342 0.20518 0.76955
 C203 C 0.27810 0.71911 0.68874
 C204 C 0.28766 0.74246 0.70503
 C205 C 0.27158 0.75753 0.72515
 C206 C 0.24583 0.74997 0.72786
 C207 C 0.23661 0.72683 0.70953
 C208 C 0.25267 0.71102 0.69154
 C209 C 0.22865 0.76591 0.74997
 C210 C 0.20619 0.75511 0.76858
 C211 C 0.18966 0.76984 0.78807
 C212 C 0.19635 0.79551 0.79219
 C213 C 0.21893 0.80673 0.77528
 C214 C 0.23463 0.79193 0.75339
 H215 H 0.29024 0.70764 0.67206
 H216 H 0.27951 0.77498 0.73909
 H217 H 0.21691 0.72077 0.70922
 H218 H 0.20129 0.73517 0.76824
 H219 H 0.18441 0.80642 0.81051
 H220 H 0.25152 0.80100 0.73918
 C221 C 0.30252 0.30185 0.70816
 C222 C 0.27712 0.30465 0.70788
 C223 C 0.26025 0.28590 0.72574
 C224 C 0.26850 0.26426 0.74381
 C225 C 0.29414 0.26154 0.74187
 C226 C 0.31121 0.27987 0.72295
 C227 C 0.25046 0.24467 0.76446
 C228 C 0.25526 0.21955 0.76584
 C229 C 0.23890 0.20142 0.78674
 C230 C 0.21706 0.20832 0.80544
 C231 C 0.21132 0.23292 0.80311
 C232 C 0.22839 0.25104 0.78379
 H233 H 0.31529 0.31725 0.69722
 H234 H 0.24067 0.28814 0.72463
 H235 H 0.30112 0.24525 0.75539
 H236 H 0.27171 0.21380 0.75067
 H237 H 0.20512 0.19480 0.82381
 H238 H 0.22440 0.27019 0.78449
 C239 C 0.69204 0.69312 0.71499
 C240 C 0.71524 0.68589 0.72610
 C241 C 0.73314 0.70368 0.74431
 C242 C 0.72883 0.72898 0.74777
 C243 C 0.70616 0.73595 0.73160
 C244 C 0.68780 0.71814 0.71524
 C245 C 0.74786 0.74815 0.76723
 C246 C 0.74063 0.77023 0.78554
 C247 C 0.75823 0.78876 0.80213
 C248 C 0.78324 0.78452 0.80342
 C249 C 0.79098 0.76258 0.78657
 C250 C 0.77335 0.74469 0.76802
 H251 H 0.67701 0.67925 0.70599
 H252 H 0.75031 0.69752 0.75555
 H253 H 0.70274 0.75525 0.73064
 H254 H 0.72126 0.77326 0.78725
 H255 H 0.79652 0.79786 0.81957
 H256 H 0.77984 0.72827 0.75400
 C257 C 0.27004 0.06119 0.07411
 C258 C 0.24976 0.06979 0.09499
 C259 C 0.25104 0.09480 0.11465
 C260 C 0.23623 0.09877 0.15084
 C261 C 0.23513 0.12283 0.16691
 C262 C 0.24830 0.14334 0.14613
 C263 C 0.26324 0.13934 0.11018
 C264 C 0.26487 0.11527 0.09487
 C265 C 0.24478 0.16906 0.15842
 C266 C 0.24135 0.17652 0.20111
 H267 H 0.23208 0.05824 0.09580
 H268 H 0.22515 0.08327 0.16614
 H269 H 0.22306 0.12549 0.19415
 H270 H 0.27330 0.15494 0.09340
 H271 H 0.27595 0.11282 0.06622
 H272 H 0.24546 0.18289 0.13286
 H273 H 0.28829 0.07136 0.07808
 H274 H 0.24406 0.16406 0.22774
 C275 C 0.74733 0.54568 0.59413
 C276 C 0.72455 0.55114 0.61050
 C277 C 0.72104 0.57401 0.63514
 C278 C 0.69731 0.58194 0.63512
 C279 C 0.69333 0.60473 0.65333
 C280 C 0.71288 0.61996 0.67280
 C281 C 0.73644 0.61154 0.67523
 C282 C 0.74052 0.58870 0.65644
 C283 C 0.70819 0.64533 0.68546
 C284 C 0.72109 0.66011 0.71730
 H285 H 0.70796 0.53951 0.60037
 H286 H 0.68193 0.57096 0.61928
 H287 H 0.67499 0.61081 0.65112
 H288 H 0.75192 0.62300 0.68973
 H289 H 0.75896 0.58293 0.65805
 H290 H 0.69363 0.65274 0.66733
 H291 H 0.76438 0.55678 0.60321
 H292 H 0.73643 0.65327 0.73428
 C293 C 0.77572 0.94581 0.09489
 C294 C 0.75478 0.93027 0.10828
 C295 C 0.75732 0.90774 0.13434
 C296 C 0.74134 0.88598 0.12639
 C297 C 0.74538 0.86360 0.14652
 C298 C 0.76534 0.86276 0.17553
 C299 C 0.78048 0.88485 0.18506
 C300 C 0.77645 0.90714 0.16496
 C301 C 0.77207 0.83924 0.19428
 C302 C 0.75629 0.81701 0.19551
 H303 H 0.73680 0.93264 0.09453
 H304 H 0.72643 0.88603 0.10301
 H305 H 0.73347 0.84697 0.13783
 H306 H 0.79583 0.88478 0.20755
 H307 H 0.78859 0.92378 0.17292
 H308 H 0.79033 0.83962 0.20872
 H309 H 0.79386 0.94200 0.10604
 H310 H 0.73700 0.81680 0.18637
 C311 C 0.25332 0.44944 0.57932
 C312 C 0.27492 0.43908 0.59031
 C313 C 0.27528 0.41379 0.60835
 C314 C 0.29627 0.40157 0.60014
 C315 C 0.29751 0.37745 0.61503
 C316 C 0.27802 0.36505 0.63931
 C317 C 0.25701 0.37732 0.64830
 C318 C 0.25561 0.40152 0.63275
 C319 C 0.28091 0.33956 0.65426
 C320 C 0.26841 0.32744 0.68932
 H321 H 0.29259 0.44874 0.58024
 H322 H 0.31168 0.41058 0.58149
 H323 H 0.31395 0.36851 0.60779
 H324 H 0.24157 0.36828 0.66671
 H325 H 0.23931 0.41058 0.64024
 H326 H 0.29538 0.33049 0.63857
 H327 H 0.23528 0.43981 0.58711
 H328 H 0.25271 0.33484 0.70418
 C329 C 0.94969 0.25873 0.07897
 C330 C 0.93697 0.24227 0.10823
 C331 C 0.91193 0.24570 0.12464
 C332 C 0.90422 0.23600 0.16531
 C333 C 0.87963 0.23644 0.17909
 C334 C 0.86227 0.24605 0.15180
 C335 C 0.87010 0.25613 0.11153
 C336 C 0.89474 0.25622 0.09822
 C337 C 0.83546 0.24272 0.16162
 C338 C 0.82558 0.24254 0.20344
 H339 H 0.94519 0.22582 0.11820
 H340 H 0.91708 0.22750 0.18592
 H341 H 0.87393 0.22800 0.20988
 H342 H 0.85692 0.26327 0.08974
 H343 H 0.89992 0.26326 0.06621
 H344 H 0.82278 0.23964 0.13444
 H345 H 0.94299 0.27649 0.07254
 H346 H 0.83713 0.24867 0.23091
 C347 C 0.43657 0.73215 0.59184
 C348 C 0.42529 0.75310 0.60371
 C349 C 0.40314 0.75106 0.63226
 C350 C 0.38499 0.76729 0.62606
 C351 C 0.36236 0.76358 0.64836
 C352 C 0.35764 0.74363 0.67762
 C353 C 0.37643 0.72844 0.68581
 C354 C 0.39904 0.73223 0.66374
 C355 C 0.33266 0.73629 0.69596
 C356 C 0.31403 0.75207 0.69831
 H357 H 0.43094 0.77067 0.58776
 H358 H 0.38779 0.78205 0.60222
 H359 H 0.34822 0.77550 0.64075
 H360 H 0.37333 0.71309 0.70845
 H361 H 0.41300 0.71999 0.67071
 H362 H 0.32838 0.71714 0.70626
 H363 H 0.42968 0.71416 0.60499
 H364 H 0.31866 0.77192 0.69421
 C365 C 0.04642 0.78163 0.07706
 C366 C 0.05798 0.76231 0.09557
 C367 C 0.08107 0.76681 0.12137
 C368 C 0.09794 0.74893 0.12107
 C369 C 0.12063 0.75329 0.14297
 C370 C 0.12669 0.77556 0.16623
 C371 C 0.10930 0.79294 0.16784
 C372 C 0.08674 0.78865 0.14576
 C373 C 0.15108 0.78218 0.18754
 C374 C 0.17056 0.76724 0.18851
 H375 H 0.05129 0.74321 0.08758
 H376 H 0.09387 0.73184 0.10279
 H377 H 0.13334 0.73933 0.14072
 H378 H 0.11332 0.81017 0.18577
 H379 H 0.07381 0.80246 0.14794
 H380 H 0.15402 0.80034 0.20273
 H381 H 0.05415 0.80072 0.08239
 H382 H 0.16764 0.74809 0.17791
 C383 C 0.55979 0.24958 0.59619
 C384 C 0.57448 0.23054 0.60438
 C385 C 0.59846 0.23550 0.62752
 C386 C 0.61853 0.22282 0.61500
 C387 C 0.64213 0.22928 0.63281
 C388 C 0.64594 0.24837 0.66401
 C389 C 0.62556 0.26017 0.67797
 C390 C 0.60204 0.25374 0.66016
 C391 C 0.67091 0.25772 0.68047
 C392 C 0.69160 0.24454 0.67809
 H393 H 0.57002 0.21269 0.58855
 H394 H 0.61619 0.20867 0.58995
 H395 H 0.65740 0.21999 0.62070
 H396 H 0.62792 0.27475 0.70225
 H397 H 0.58678 0.26334 0.67155
 H398 H 0.67296 0.27580 0.69607
 H399 H 0.56564 0.26815 0.60812
 H400 H 0.68939 0.22528 0.66787
 C401 C 0.77808 0.04626 0.91385
 C402 C 0.75824 0.05934 0.90286
 C403 C 0.76197 0.08160 0.87483
 C404 C 0.74869 0.10188 0.88345
 C405 C 0.75418 0.12429 0.86096
 C406 C 0.77284 0.12658 0.82891
 C407 C 0.78512 0.10582 0.81880
 C408 C 0.77969 0.08352 0.84133
 C409 C 0.78144 0.15051 0.80771
 C410 C 0.76817 0.17119 0.80726
 H411 H 0.74065 0.05518 0.91950
 H412 H 0.73489 0.10077 0.90906
 H413 H 0.74454 0.13994 0.87017
 H414 H 0.79939 0.10701 0.79399
 H415 H 0.78972 0.06796 0.83295
 H416 H 0.79920 0.15183 0.79121
 H417 H 0.79632 0.05199 0.90053
 H418 H 0.74914 0.16952 0.81848
 C419 C 0.26073 0.56027 0.41250
 C420 C 0.24050 0.57279 0.40115
 C421 C 0.24350 0.59563 0.37430
 C422 C 0.22800 0.61436 0.38156
 C423 C 0.23194 0.63703 0.35923
 C424 C 0.25129 0.64115 0.32866
 C425 C 0.26594 0.62188 0.32001
 C426 C 0.26209 0.59938 0.34243
 C427 C 0.25827 0.66552 0.30742
 C428 C 0.24503 0.68624 0.31027
 H429 H 0.22259 0.56722 0.41593
 H430 H 0.21342 0.61182 0.40576
 H431 H 0.22031 0.65137 0.36713
 H432 H 0.28085 0.62443 0.29642
 H433 H 0.27385 0.58504 0.33494
 H434 H 0.27549 0.66749 0.28919
 H435 H 0.27915 0.56724 0.40135
 H436 H 0.22641 0.68447 0.32339
 C437 C 0.25694 0.95188 0.90730
 C438 C 0.23386 0.94178 0.89146
 C439 C 0.23002 0.91950 0.86315
 C440 C 0.20726 0.91449 0.84144
 C441 C 0.20188 0.89257 0.81759
 C442 C 0.21911 0.87510 0.81492
 C443 C 0.24216 0.88031 0.83593
 C444 C 0.24756 0.90228 0.85978
 C445 C 0.21129 0.85074 0.79421
 C446 C 0.22752 0.83330 0.78369
 H447 H 0.21758 0.95056 0.90055
 H448 H 0.19335 0.92733 0.84371
 H449 H 0.18390 0.88894 0.80211
 H450 H 0.25568 0.86706 0.83585
 H451 H 0.26503 0.90504 0.87699
 H452 H 0.19161 0.84598 0.78869
 H453 H 0.27378 0.94475 0.89651
 H454 H 0.24731 0.83893 0.78303
 C455 C 0.75594 0.44563 0.41019
 C456 C 0.73519 0.43548 0.38683
 C457 C 0.73508 0.41400 0.35689
 C458 C 0.71487 0.40884 0.32864
 C459 C 0.71239 0.38719 0.30356
 C460 C 0.73000 0.37012 0.30619
 C461 C 0.75077 0.37567 0.33331
 C462 C 0.75329 0.39739 0.35841
 C463 C 0.72431 0.34561 0.28478
 C464 C 0.74080 0.32757 0.28199
 H465 H 0.71784 0.44336 0.39136
 H466 H 0.70053 0.42125 0.32695
 H467 H 0.69611 0.38332 0.28321
 H468 H 0.76448 0.36278 0.33713
 H469 H 0.76884 0.40032 0.38047
 H470 H 0.70542 0.34076 0.27366
 H471 H 0.77398 0.43958 0.40410
 H472 H 0.76049 0.33271 0.28661
 C473 C 0.06020 0.22493 0.93635
 C474 C 0.07597 0.24303 0.91436
 C475 C 0.09882 0.23782 0.89119
 C476 C 0.11739 0.25756 0.88337
 C477 C 0.13947 0.25347 0.86239
 C478 C 0.14340 0.22942 0.84848
 C479 C 0.12452 0.20982 0.85536
 C480 C 0.10248 0.21390 0.87642
 C481 C 0.16661 0.22371 0.82688
 C482 C 0.18822 0.24034 0.82264
 H483 H 0.07241 0.26232 0.91663
 H484 H 0.11492 0.27622 0.89399
 H485 H 0.15316 0.26928 0.85725
 H486 H 0.12686 0.19115 0.84458
 H487 H 0.08836 0.19832 0.88052
 H488 H 0.16665 0.20509 0.81399
 H489 H 0.06416 0.20577 0.93639
 H490 H 0.18838 0.25948 0.83270
 C491 C 0.54038 0.72658 0.41478
 C492 C 0.55928 0.74578 0.40729
 C493 C 0.58256 0.74125 0.38491
 C494 C 0.60494 0.75505 0.39716
 C495 C 0.62755 0.74941 0.37992
 C496 C 0.62811 0.72996 0.34966
 C497 C 0.60562 0.71684 0.33620
 C498 C 0.58306 0.72253 0.35331
 C499 C 0.65161 0.72188 0.33317
 C500 C 0.67434 0.73683 0.33340
 H501 H 0.55847 0.76348 0.42343
 H502 H 0.60503 0.76956 0.42145
 H503 H 0.64449 0.75969 0.39163
 H504 H 0.60551 0.70193 0.31266
 H505 H 0.56611 0.71204 0.34202
 H506 H 0.65070 0.70361 0.31843
 H507 H 0.54215 0.70814 0.40235
 H508 H 0.67508 0.75616 0.34293
 C509 C 0.93674 0.75852 0.91274
 C510 C 0.92845 0.77776 0.88854
 C511 C 0.90593 0.77504 0.86086
 C512 C 0.90206 0.79446 0.83241
 C513 C 0.87994 0.79405 0.80907
 C514 C 0.86112 0.77420 0.81360
 C515 C 0.86523 0.75429 0.84104
 C516 C 0.88739 0.75471 0.86445
 C517 C 0.83661 0.77655 0.79373
 C518 C 0.81708 0.75738 0.79172
 H519 H 0.93882 0.79607 0.89052
 H520 H 0.91593 0.81040 0.82913
 H521 H 0.87720 0.80973 0.78849
 H522 H 0.85097 0.73896 0.84636
 H523 H 0.88928 0.73962 0.88671
 H524 H 0.83316 0.79492 0.78300
 H525 H 0.92803 0.73964 0.90930
 H526 H 0.82065 0.73827 0.79610
 C527 C 0.44822 0.24108 0.43123
 C528 C 0.44128 0.26296 0.41303
 C529 C 0.41755 0.26533 0.39024
 C530 C 0.41424 0.28843 0.37171
 C531 C 0.39150 0.29265 0.35357
 C532 C 0.37148 0.27386 0.35322
 C533 C 0.37482 0.25048 0.37093
 C534 C 0.39763 0.24625 0.38927
 C535 C 0.34711 0.28005 0.33733
 C536 C 0.32758 0.26236 0.32515
 H537 H 0.45364 0.27995 0.41751
 H538 H 0.42915 0.30354 0.37219
 H539 H 0.38941 0.31088 0.34046
 H540 H 0.35965 0.23571 0.37234
 H541 H 0.39915 0.22833 0.40386
 H542 H 0.34465 0.29957 0.33452
 H543 H 0.43727 0.22339 0.42593
 H544 H 0.33082 0.24305 0.32217
 C545 C 0.77571 0.94170 0.92097
 C546 C 0.75471 0.92538 0.91073
 C547 C 0.75623 0.90276 0.88426
 C548 C 0.73954 0.88151 0.89224
 C549 C 0.74185 0.85924 0.87017
 C550 C 0.76077 0.85801 0.83914
 C551 C 0.77675 0.87962 0.82995
 C552 C 0.77449 0.90177 0.85209
 C553 C 0.76575 0.83452 0.81778
 C554 C 0.75024 0.81208 0.81974
 H555 H 0.73719 0.92787 0.92620
 H556 H 0.72524 0.88188 0.91677
 H557 H 0.72930 0.84302 0.87864
 H558 H 0.79138 0.87927 0.80603
 H559 H 0.78717 0.91802 0.84408
 H560 H 0.78293 0.83490 0.79965
 H561 H 0.79373 0.93816 0.90885
 H562 H 0.73165 0.81158 0.83272
 C563 C 0.26371 0.45436 0.40948
 C564 C 0.24565 0.43410 0.40417
 C565 C 0.25153 0.41038 0.38460
 C566 C 0.23829 0.38795 0.39831
 C567 C 0.24517 0.36509 0.38416
 C568 C 0.26537 0.36429 0.35568
 C569 C 0.27802 0.38671 0.34081
 C570 C 0.27105 0.40951 0.35465
 C571 C 0.27446 0.34064 0.34229
 C572 C 0.25950 0.31791 0.34081
 H573 H 0.22801 0.43430 0.42068
 H574 H 0.22318 0.38809 0.42133
 H575 H 0.23523 0.34818 0.39685
 H576 H 0.29350 0.38658 0.31853
 H577 H 0.28116 0.42636 0.34209
 H578 H 0.29334 0.34147 0.33032
 H579 H 0.28217 0.45355 0.39656
 H580 H 0.23981 0.31731 0.34727
 C581 C 0.26256 0.05582 0.90317
 C582 C 0.24051 0.06416 0.88859
 C583 C 0.23944 0.08644 0.86101
 C584 C 0.21711 0.08951 0.83979
 C585 C 0.21421 0.11154 0.81776
 C586 C 0.23351 0.13112 0.81660
 C587 C 0.25621 0.12781 0.83676
 C588 C 0.25915 0.10568 0.85870
 C589 C 0.22813 0.15536 0.79856
 C590 C 0.24587 0.17586 0.79215
 H591 H 0.22295 0.05427 0.89874
 H592 H 0.20158 0.07507 0.84126
 H593 H 0.19647 0.11361 0.80281
 H594 H 0.27138 0.14258 0.83761
 H595 H 0.27643 0.10432 0.87558
 H596 H 0.20884 0.15756 0.79224
 H597 H 0.28019 0.06407 0.89044
 H598 H 0.26541 0.17346 0.79227
 C599 C 0.75240 0.54987 0.41738
 C600 C 0.73060 0.55588 0.39773
 C601 C 0.72801 0.57923 0.37392
 C602 C 0.70529 0.58165 0.35337
 C603 C 0.70069 0.60421 0.33479
 C604 C 0.71875 0.62486 0.33605
 C605 C 0.74181 0.62235 0.35560
 C606 C 0.74640 0.59976 0.37434
 C607 C 0.71208 0.64911 0.32041
 C608 C 0.72960 0.66910 0.30985
 H609 H 0.71384 0.54317 0.40197
 H610 H 0.69071 0.56622 0.35277
 H611 H 0.68272 0.60568 0.32024
 H612 H 0.75597 0.63802 0.35837
 H613 H 0.76395 0.59894 0.39056
 H614 H 0.69254 0.65123 0.31732
 H615 H 0.76996 0.56099 0.41188
 H616 H 0.74894 0.66606 0.30702
 C617 C 0.04054 0.76858 0.90644
 C618 C 0.05307 0.74799 0.89729
 C619 C 0.07526 0.75062 0.86900
 C620 C 0.09587 0.73837 0.87994
 C621 C 0.11836 0.74370 0.85765
 C622 C 0.12039 0.76117 0.82363
 C623 C 0.09927 0.77214 0.81103
 C624 C 0.07689 0.76682 0.83324
 C625 C 0.14440 0.77025 0.80322
 C626 C 0.16575 0.75812 0.80546
 H627 H 0.04887 0.73098 0.91572
 H628 H 0.09497 0.72573 0.90729
 H629 H 0.13429 0.73506 0.86863
 H630 H 0.10028 0.78546 0.78467
 H631 H 0.06107 0.77595 0.82314
 H632 H 0.14533 0.78763 0.78549
 H633 H 0.04651 0.78611 0.89060
 H634 H 0.16476 0.73931 0.81777
 C635 C 0.55384 0.23739 0.42145
 C636 C 0.56444 0.25820 0.39872
 C637 C 0.58666 0.25840 0.37069
 C638 C 0.59160 0.27785 0.34086
 C639 C 0.61366 0.28045 0.31712
 C640 C 0.63150 0.26383 0.32292
 C641 C 0.62631 0.24384 0.35196
 C642 C 0.60407 0.24114 0.37558
 C643 C 0.65575 0.26948 0.30071
 C644 C 0.67587 0.25548 0.30385
 H645 H 0.55630 0.27551 0.40225
 H646 H 0.57857 0.29146 0.33663
 H647 H 0.61714 0.29607 0.29511
 H648 H 0.63957 0.23074 0.35782
 H649 H 0.60118 0.22621 0.39898
 H650 H 0.65836 0.28661 0.28222
 H651 H 0.56016 0.21937 0.41593
 H652 H 0.67356 0.23697 0.31751
 C653 C 0.95809 0.22815 0.91141
 C654 C 0.94851 0.24684 0.88772
 C655 C 0.92731 0.24120 0.85767
 C656 C 0.90995 0.25839 0.85309
 C657 C 0.88814 0.25225 0.82928
 C658 C 0.88350 0.22883 0.80902
 C659 C 0.90160 0.21226 0.81157
 C660 C 0.92333 0.21839 0.83542
 C661 C 0.85919 0.21991 0.78927
 C662 C 0.84087 0.23526 0.77958
 H663 H 0.95461 0.26612 0.89532
 H664 H 0.91268 0.27613 0.86976
 H665 H 0.87458 0.26545 0.82875
 H666 H 0.89858 0.19418 0.79611
 H667 H 0.93673 0.20502 0.83700
 H668 H 0.85512 0.20007 0.78417
 H669 H 0.95051 0.20896 0.90675
 H670 H 0.84564 0.25521 0.77838
 C671 C 0.43602 0.72693 0.41155
 C672 C 0.42662 0.74754 0.39326
 C673 C 0.40507 0.74499 0.36344
 C674 C 0.38899 0.76359 0.36289
 C675 C 0.36705 0.76047 0.33860
 C676 C 0.36100 0.73874 0.31382
 C677 C 0.37785 0.72086 0.31245
 C678 C 0.39971 0.72396 0.33679
 C679 C 0.33639 0.73266 0.29317
 C680 C 0.31876 0.74944 0.28845
 H681 H 0.43365 0.76600 0.40440
 H682 H 0.39284 0.78006 0.38288
 H683 H 0.35451 0.77459 0.34107
 H684 H 0.37375 0.70403 0.29345
 H685 H 0.41215 0.70968 0.33509
 H686 H 0.33129 0.71347 0.28375
 H687 H 0.42795 0.70835 0.40310
 H688 H 0.32427 0.76920 0.29157
 C689 C 0.26455 0.95609 0.08591
 C690 C 0.24299 0.94733 0.10855
 C691 C 0.24054 0.92531 0.13751
 C692 C 0.21930 0.92114 0.16371
 C693 C 0.21447 0.89916 0.18744
 C694 C 0.23074 0.88076 0.18557
 C695 C 0.25254 0.88525 0.16056
 C696 C 0.25740 0.90731 0.13677
 C697 C 0.22278 0.85628 0.20568
 C698 C 0.23806 0.83731 0.21074
 H699 H 0.22655 0.95671 0.10374
 H700 H 0.20594 0.93460 0.16478
 H701 H 0.19746 0.89614 0.20617
 H702 H 0.26529 0.87135 0.15736
 H703 H 0.27371 0.90951 0.11632
 H704 H 0.20341 0.85253 0.21474
 H705 H 0.28186 0.94857 0.09217
 H706 H 0.25799 0.84145 0.20792
 C707 C 0.74427 0.44146 0.58865
 C708 C 0.76418 0.43051 0.60590
 C709 C 0.76002 0.40776 0.63279
 C710 C 0.77674 0.38983 0.62995
 C711 C 0.77142 0.36671 0.65024
 C712 C 0.74935 0.36130 0.67427
 C713 C 0.73345 0.37985 0.67924
 C714 C 0.73879 0.40291 0.65907
 C715 C 0.74107 0.33606 0.69087
 C716 C 0.75679 0.31757 0.69622
 H717 H 0.78287 0.43692 0.59534
 H718 H 0.79331 0.39322 0.61016
 H719 H 0.78402 0.35284 0.64510
 H720 H 0.71646 0.37625 0.69786
 H721 H 0.72597 0.41668 0.66337
 H722 H 0.72153 0.33176 0.69837
 H723 H 0.72547 0.43375 0.59629
 H724 H 0.77669 0.32243 0.69471
 C725 C 0.77466 0.05048 0.09057
 C726 C 0.75395 0.06307 0.09830
 C727 C 0.75570 0.08639 0.12388
 C728 C 0.74042 0.10481 0.11325
 C729 C 0.74349 0.12801 0.13402
 C730 C 0.76172 0.13297 0.16632
 C731 C 0.77607 0.11405 0.17836
 C732 C 0.77305 0.09098 0.15759
 C733 C 0.76799 0.15792 0.18577
 C734 C 0.75391 0.17793 0.18179
 H735 H 0.73680 0.05725 0.08126
 H736 H 0.72679 0.10161 0.08756
 H737 H 0.73224 0.14215 0.12347
 H738 H 0.79013 0.11730 0.20334
 H739 H 0.78453 0.07691 0.16768
 H740 H 0.78519 0.16086 0.20393
 H741 H 0.79248 0.05752 0.10417
 H742 H 0.73523 0.17518 0.16898
 C743 C 0.25495 0.55638 0.58891
 C744 C 0.23524 0.57067 0.59372
 C745 C 0.23803 0.59408 0.61911
 C746 C 0.22570 0.61415 0.60539
 C747 C 0.23060 0.63749 0.62521
 C748 C 0.24776 0.64100 0.65954
 C749 C 0.25905 0.62056 0.67466
 C750 C 0.25411 0.59730 0.65496
 C751 C 0.25588 0.66581 0.67812
 C752 C 0.24254 0.68634 0.67471
 H753 H 0.21893 0.56662 0.57349
 H754 H 0.21316 0.61210 0.57792
 H755 H 0.22179 0.65286 0.61224
 H756 H 0.27216 0.62272 0.70129
 H757 H 0.26328 0.58201 0.66739
 H758 H 0.27319 0.66790 0.69604
 H759 H 0.27223 0.56176 0.60578
 H760 H 0.22379 0.68407 0.66214
 C761 C 0.94302 0.77727 0.09004
 C762 C 0.92951 0.75724 0.11082
 C763 C 0.90856 0.76088 0.14021
 C764 C 0.88805 0.74265 0.14198
 C765 C 0.86668 0.74700 0.16498
 C766 C 0.86560 0.76965 0.18716
 C767 C 0.88667 0.78724 0.18738
 C768 C 0.90801 0.78286 0.16450
 C769 C 0.84229 0.77661 0.20637
 C770 C 0.82197 0.75945 0.21672
 H771 H 0.93241 0.73847 0.10142
 H772 H 0.88810 0.72551 0.12375
 H773 H 0.85073 0.73312 0.16337
 H774 H 0.88640 0.80474 0.20443
 H775 H 0.92385 0.79693 0.16526
 H776 H 0.84090 0.79622 0.21140
 H777 H 0.93882 0.79600 0.09669
 H778 H 0.82426 0.73984 0.21769
 C779 C 0.45463 0.24737 0.60595
 C780 C 0.44889 0.27041 0.62100
 C781 C 0.42598 0.27445 0.64513
 C782 C 0.41995 0.29892 0.64858
 C783 C 0.39729 0.30379 0.66610
 C784 C 0.38012 0.28437 0.68118
 C785 C 0.38654 0.25989 0.67989
 C786 C 0.40931 0.25496 0.66208
 C787 C 0.35503 0.29040 0.69325
 C788 C 0.33765 0.27510 0.71772
 H789 H 0.46068 0.28686 0.61064
 H790 H 0.43241 0.31432 0.63601
 H791 H 0.39282 0.32283 0.66661
 H792 H 0.37366 0.24439 0.69066
 H793 H 0.41333 0.23587 0.66080
 H794 H 0.35019 0.30769 0.68020
 H795 H 0.44384 0.23031 0.61585
 H796 H 0.34318 0.25823 0.73172
 C797 C 0.05425 0.24904 0.10219
 C798 C 0.07784 0.26136 0.09439
 C799 C 0.10043 0.25480 0.11691
 C800 C 0.12272 0.27060 0.11302
 C801 C 0.14489 0.26371 0.13017
 C802 C 0.14516 0.24074 0.15146
 C803 C 0.12288 0.22506 0.15550
 C804 C 0.10082 0.23191 0.13846
 C805 C 0.16812 0.23170 0.16826
 C806 C 0.19035 0.24673 0.17602
 H807 H 0.08029 0.27431 0.06750
 H808 H 0.12306 0.28811 0.09589
 H809 H 0.16176 0.27609 0.12548
 H810 H 0.12258 0.20715 0.17130
 H811 H 0.08446 0.21861 0.14091
 H812 H 0.16694 0.21229 0.17748
 H813 H 0.05113 0.23667 0.12966
 H814 H 0.19124 0.26666 0.17183
 C815 C 0.54231 0.73652 0.58668
 C816 C 0.55246 0.71514 0.59970
 C817 C 0.57756 0.71532 0.61849
 C818 C 0.58997 0.69425 0.61203
 C819 C 0.61415 0.69375 0.62683
 C820 C 0.62639 0.71407 0.64934
 C821 C 0.61390 0.73511 0.65682
 C822 C 0.58963 0.73575 0.64139
 C823 C 0.65212 0.71219 0.66362
 C824 C 0.66417 0.72548 0.69796
 H825 H 0.54298 0.69722 0.59034
 H826 H 0.58111 0.67827 0.59455
 H827 H 0.62333 0.67728 0.62076
 H828 H 0.62287 0.75118 0.67375
 H829 H 0.58043 0.75215 0.64756
 H830 H 0.66155 0.69796 0.64791
 H831 H 0.55166 0.75475 0.59410
 H832 H 0.65625 0.74092 0.71281
   
