data_POSCAR
  _audit_creation_date              2014-09-24
  _audit_creation_method            'ToBaCCo'
  _symmetry_space_group_name_H-M    'P1'
  _symmetry_Int_Tables_number       1
  _symmetry_cell_setting            triclinic
  loop_
  _symmetry_equiv_pos_as_xyz
 x,y,z
_cell_length_a 45.8313
_cell_length_b 46.9009
_cell_length_c 44.0052
_cell_angle_alpha 94.610700
_cell_angle_beta 92.049000
_cell_angle_gamma 91.055900
loop_
  _atom_site_label
  _atom_site_type_symbol
  _atom_site_fract_x
  _atom_site_fract_y
  _atom_site_fract_z
C1 C 0.63013 0.67314 0.63956
 C2 C 0.63101 0.65234 0.66079
 C3 C 0.65253 0.63113 0.65993
 C4 C 0.67333 0.63156 0.63702
 C5 C 0.67257 0.65214 0.61550
 C6 C 0.65088 0.67284 0.61693
 H7 H 0.61521 0.65347 0.67850
 H8 H 0.68981 0.61538 0.63505
 H9 H 0.65015 0.68877 0.60041
 C10 C 0.87902 0.30944 0.12645
 C11 C 0.85586 0.30965 0.10442
 C12 C 0.83595 0.33206 0.10508
 C13 C 0.83828 0.35379 0.12887
 C14 C 0.86062 0.35377 0.15143
 C15 C 0.88131 0.33206 0.14968
 H16 H 0.85424 0.29339 0.08548
 H17 H 0.82255 0.37079 0.12989
 H18 H 0.89795 0.33190 0.16776
 C19 C 0.38840 0.16781 -0.14262
 C20 C 0.38611 0.14497 -0.16529
 C21 C 0.36225 0.12565 -0.16660
 C22 C 0.34099 0.12899 -0.14446
 C23 C 0.34324 0.15144 -0.12132
 C24 C 0.36680 0.17105 -0.12086
 H25 H 0.40256 0.14268 -0.18237
 H26 H 0.32275 0.11390 -0.14508
 H27 H 0.36897 0.18822 -0.10286
 C28 C 0.06988 0.86648 0.38500
 C29 C 0.09442 0.86871 0.40547
 C30 C 0.11443 0.89175 0.40582
 C31 C 0.11045 0.91242 0.38488
 C32 C 0.08673 0.91043 0.36376
 C33 C 0.06622 0.88788 0.36441
 H34 H 0.09733 0.85342 0.42244
 H35 H 0.12617 0.92996 0.38474
 H36 H 0.04860 0.88604 0.34727
 N37 N 0.09880 0.16078 0.11794
 N38 N 0.08242 0.14489 0.13415
 C39 C 0.05877 0.15968 0.14271
 C40 C 0.06078 0.18639 0.13170
 C41 C 0.08645 0.18644 0.11619
 H42 H 0.04159 0.15179 0.15625
 H43 H 0.09488 0.20351 0.10364
 Cu44 Cu 0.09390 0.10688 0.14381
 Cu45 Cu 0.13295 0.14582 0.09744
 Cu46 Cu 0.15854 0.08205 0.12035
 N47 N 0.11296 0.07556 0.16250
 N48 N 0.13824 0.06614 0.15331
 C49 C 0.14705 0.04543 0.17070
 C50 C 0.12624 0.04158 0.19215
 C51 C 0.10478 0.06107 0.18614
 H52 H 0.16730 0.03422 0.16803
 H53 H 0.08515 0.06509 0.19857
 N54 N 0.17604 0.10183 0.08757
 N55 N 0.16678 0.12657 0.07920
 C56 C 0.18269 0.13426 0.05590
 C57 C 0.20287 0.11323 0.04922
 C58 C 0.19800 0.09306 0.06988
 H59 H 0.17913 0.15322 0.04394
 H60 H 0.20944 0.07331 0.07178
 H61 H 0.12412 0.10278 0.09943
 H62 H 0.14304 0.12233 0.13380
 N63 N 0.41735 0.82786 0.59114
 N64 N 0.42958 0.84022 0.61640
 C65 C 0.45492 0.82739 0.62243
 C66 C 0.45886 0.80579 0.59967
 C67 C 0.43455 0.80678 0.58016
 H68 H 0.46946 0.83350 0.64183
 H69 H 0.42944 0.79284 0.55982
 Cu70 Cu 0.41137 0.87174 0.63938
 Cu71 Cu 0.37965 0.83947 0.57504
 Cu72 Cu 0.35088 0.90073 0.61030
 N73 N 0.39776 0.90874 0.65539
 N74 N 0.37399 0.91986 0.64420
 C75 C 0.36930 0.94509 0.65987
 C76 C 0.39140 0.95016 0.68209
 C77 C 0.40911 0.92658 0.67848
 H78 H 0.35125 0.95879 0.65524
 H79 H 0.42856 0.92246 0.69191
 N80 N 0.33089 0.87822 0.57569
 N81 N 0.34174 0.85477 0.56234
 C82 C 0.32292 0.84413 0.53987
 C83 C 0.29907 0.86180 0.53894
 C84 C 0.30494 0.88320 0.56201
 H85 H 0.32644 0.82506 0.52509
 H86 H 0.29114 0.90088 0.56866
 H87 H 0.38716 0.88160 0.59148
 H88 H 0.36385 0.85913 0.61469
 N89 N 0.92902 0.64392 0.39674
 N90 N 0.94894 0.62744 0.38419
 C91 C 0.97354 0.64302 0.38161
 C92 C 0.96858 0.67089 0.39271
 C93 C 0.94004 0.67074 0.40196
 H94 H 0.99329 0.63492 0.37166
 H95 H 0.92835 0.68865 0.41224
 Cu96 Cu 0.94021 0.58775 0.37038
 Cu97 Cu 0.89055 0.62916 0.40587
 Cu98 Cu 0.88210 0.55542 0.39727
 N99 N 0.92458 0.55166 0.35098
 N100 N 0.90167 0.53908 0.36159
 C101 C 0.89492 0.51502 0.34384
 C102 C 0.91463 0.51237 0.32069
 C103 C 0.93327 0.53600 0.32605
 H104 H 0.87685 0.50069 0.34749
 H105 H 0.95126 0.54183 0.31239
 N106 N 0.85640 0.58000 0.42198
 N107 N 0.85891 0.60815 0.42452
 C108 C 0.83826 0.61877 0.44303
 C109 C 0.82185 0.59616 0.45256
 C110 C 0.83411 0.57190 0.43858
 H111 H 0.83588 0.64129 0.44954
 H112 H 0.82770 0.54987 0.44054
 H113 H 0.90862 0.59115 0.41398
 H114 H 0.88774 0.59185 0.37683
 N115 N 0.56950 0.36463 -0.11684
 N116 N 0.55409 0.38301 -0.13135
 C117 C 0.52734 0.37162 -0.13863
 C118 C 0.52598 0.34453 -0.12833
 C119 C 0.55316 0.34079 -0.11466
 H120 H 0.51030 0.38211 -0.15089
 H121 H 0.56027 0.32238 -0.10331
 Cu122 Cu 0.57035 0.41983 -0.14014
 Cu123 Cu 0.60878 0.37386 -0.10015
 Cu124 Cu 0.64172 0.43457 -0.12393
 N125 N 0.59120 0.44984 -0.15895
 N126 N 0.61915 0.45522 -0.15302
 C127 C 0.62801 0.47640 -0.16965
 C128 C 0.60431 0.48482 -0.18695
 C129 C 0.58128 0.46746 -0.17949
 H130 H 0.65003 0.48514 -0.16900
 H131 H 0.55910 0.46720 -0.18875
 N132 N 0.66065 0.41065 -0.09452
 N133 N 0.64824 0.38725 -0.08570
 C134 C 0.66587 0.37640 -0.06456
 C135 C 0.69053 0.39392 -0.05969
 C136 C 0.68644 0.41538 -0.07918
 H137 H 0.66053 0.35786 -0.05260
 H138 H 0.70090 0.43344 -0.08163
 H139 H 0.60793 0.41803 -0.09990
 H140 H 0.61746 0.39756 -0.13652
 C141 C -0.07117 0.29221 0.13511
 C142 C -0.05090 0.27011 0.13354
 C143 C -0.06025 0.24197 0.12339
 C144 C -0.08946 0.23661 0.11396
 C145 C -0.10928 0.25888 0.11445
 C146 C -0.10064 0.28701 0.12538
 C147 C -0.04020 0.21971 0.12244
 C148 C -0.01062 0.22544 0.13030
 C149 C -0.00101 0.25383 0.13920
 C150 C -0.02129 0.27587 0.14134
 C151 C 0.02883 0.25973 0.14538
 C152 C 0.04897 0.23775 0.14260
 C153 C 0.03948 0.20946 0.13462
 C154 C 0.00964 0.20334 0.12875
 H155 H -0.06349 0.31374 0.14248
 H156 H -0.09698 0.21517 0.10603
 H157 H -0.13176 0.25361 0.10750
 H158 H -0.04749 0.19804 0.11503
 H159 H -0.01395 0.29757 0.14855
 H160 H 0.03662 0.28138 0.15197
 H161 H 0.07197 0.24275 0.14712
 H162 H 0.00237 0.18153 0.12208
 C163 C 0.59102 0.70109 0.61492
 C164 C 0.56877 0.72128 0.61669
 C165 C 0.56316 0.73613 0.64508
 C166 C 0.57984 0.73052 0.67116
 C167 C 0.60169 0.71017 0.66926
 C168 C 0.60742 0.69524 0.64121
 C169 C 0.54080 0.75612 0.64703
 C170 C 0.52369 0.76123 0.62104
 C171 C 0.52918 0.74631 0.59268
 C172 C 0.55181 0.72656 0.59064
 C173 C 0.51175 0.75122 0.56687
 C174 C 0.48896 0.77057 0.56915
 C175 C 0.48330 0.78555 0.59722
 C176 C 0.50094 0.78082 0.62307
 H177 H 0.59514 0.68944 0.59326
 H178 H 0.57586 0.74172 0.69308
 H179 H 0.61428 0.70617 0.68972
 H180 H 0.53652 0.76748 0.66882
 H181 H 0.55600 0.71511 0.56887
 H182 H 0.51565 0.74000 0.54495
 H183 H 0.47592 0.77395 0.54881
 H184 H 0.49666 0.79192 0.64495
 C185 C 1.05889 0.81595 0.39245
 C186 C 1.03908 0.79270 0.39173
 C187 C 1.00927 0.79662 0.38430
 C188 C 0.99993 0.82354 0.37691
 C189 C 1.01989 0.84640 0.37676
 C190 C 1.04968 0.84316 0.38482
 C191 C 0.98935 0.77351 0.38404
 C192 C 0.99905 0.74629 0.39017
 C193 C 1.02906 0.74216 0.39661
 C194 C 1.04881 0.76546 0.39779
 C195 C 1.03888 0.71470 0.40147
 C196 C 1.01919 0.69150 0.39987
 C197 C 0.98927 0.69548 0.39413
 C198 C 0.97928 0.72299 0.38949
 H199 H 1.08176 0.81227 0.39748
 H200 H 0.97714 0.82694 0.37113
 H201 H 1.01152 0.86695 0.37155
 H202 H 0.96641 0.77662 0.37863
 H203 H 1.07177 0.76231 0.40304
 H204 H 1.06182 0.71112 0.40626
 H205 H 1.02728 0.67047 0.40361
 H206 H 0.95626 0.72610 0.38461
 C207 C 0.40918 0.21770 -0.13916
 C208 C 0.43306 0.23699 -0.13766
 C209 C 0.46180 0.22648 -0.13771
 C210 C 0.46612 0.19687 -0.13994
 C211 C 0.44220 0.17783 -0.14196
 C212 C 0.41361 0.18807 -0.14132
 C213 C 0.48574 0.24571 -0.13556
 C214 C 0.48131 0.27530 -0.13390
 C215 C 0.45257 0.28578 -0.13464
 C216 C 0.42864 0.26657 -0.13625
 C217 C 0.44825 0.31534 -0.13382
 C218 C 0.47215 0.33438 -0.13216
 C219 C 0.50078 0.32424 -0.13080
 C220 C 0.50520 0.29462 -0.13166
 H221 H 0.38712 0.22567 -0.13901
 H222 H 0.48797 0.18845 -0.14012
 H223 H 0.44601 0.15504 -0.14347
 H224 H 0.50777 0.23764 -0.13531
 H225 H 0.40660 0.27463 -0.13652
 H226 H 0.42639 0.32373 -0.13448
 H227 H 0.46821 0.35711 -0.13135
 H228 H 0.52721 0.28658 -0.13105
 C229 C 0.10942 -0.06138 0.32454
 C230 C 0.10767 -0.04230 0.30166
 C231 C 0.08051 -0.03050 0.29386
 C232 C 0.05554 -0.03813 0.30916
 C233 C 0.05748 -0.05729 0.33192
 C234 C 0.08443 -0.06900 0.33988
 C235 C 0.07880 -0.01142 0.27085
 C236 C 0.10391 -0.00414 0.25551
 C237 C 0.13098 -0.01610 0.26337
 C238 C 0.13270 -0.03501 0.28639
 C239 C 0.15600 -0.00900 0.24804
 C240 C 0.15431 0.00970 0.22500
 C241 C 0.12759 0.02179 0.21681
 C242 C 0.10241 0.01481 0.23232
 H243 H 0.13023 -0.07070 0.33007
 H244 H 0.03453 -0.02932 0.30352
 H245 H 0.03795 -0.06274 0.34353
 H246 H 0.05798 -0.00235 0.26485
 H247 H 0.15351 -0.04413 0.29237
 H248 H 0.17692 -0.01792 0.25387
 H249 H 0.17417 0.01487 0.21388
 H250 H 0.08161 0.02377 0.22618
 C251 C 0.62729 0.60095 -0.30523
 C252 C 0.62783 0.57996 -0.28422
 C253 C 0.65457 0.56771 -0.27596
 C254 C 0.68028 0.57652 -0.28898
 C255 C 0.67962 0.59724 -0.31007
 C256 C 0.65316 0.60999 -0.31862
 C257 C 0.65519 0.54677 -0.25490
 C258 C 0.62928 0.53771 -0.24221
 C259 C 0.60245 0.54975 -0.25073
 C260 C 0.60190 0.57085 -0.27159
 C261 C 0.57657 0.54040 -0.23831
 C262 C 0.57722 0.51928 -0.21766
 C263 C 0.60377 0.50723 -0.20888
 C264 C 0.62977 0.51666 -0.22127
 H265 H 0.60633 0.60915 -0.31202
 H266 H 0.70104 0.56747 -0.28275
 H267 H 0.70028 0.60396 -0.31857
 H268 H 0.67578 0.53745 -0.24851
 H269 H 0.58129 0.58012 -0.27803
 H270 H 0.55581 0.54940 -0.24457
 H271 H 0.55689 0.51265 -0.20832
 H272 H 0.65037 0.50735 -0.21504
 C273 C 0.38363 1.08515 0.80132
 C274 C 0.38076 1.06221 0.77879
 C275 C 0.35339 1.05612 0.76354
 C276 C 0.32941 1.07305 0.77107
 C277 C 0.33240 1.09566 0.79368
 C278 C 0.35945 1.10190 0.80904
 C279 C 0.35036 1.03313 0.74116
 C280 C 0.37427 1.01592 0.73402
 C281 C 0.40160 1.02190 0.74933
 C282 C 0.40472 1.04508 0.77152
 C283 C 0.42533 1.00445 0.74231
 C284 C 0.42201 0.98119 0.72046
 C285 C 0.39494 0.97502 0.70505
 C286 C 0.37117 0.99264 0.71195
 H287 H 0.40451 1.08962 0.81329
 H288 H 0.30830 1.06872 0.75957
 H289 H 0.31356 1.10847 0.79903
 H290 H 0.32935 1.02849 0.72949
 H291 H 0.42570 1.04966 0.78327
 H292 H 0.44646 1.00872 0.75379
 H293 H 0.44078 0.96820 0.71548
 H294 H 0.35006 0.98804 0.70058
 C295 C 0.88775 0.39033 0.18722
 C296 C 0.88830 0.41132 0.21191
 C297 C 0.86232 0.41752 0.22736
 C298 C 0.83628 0.40288 0.21775
 C299 C 0.83586 0.38232 0.19300
 C300 C 0.86150 0.37583 0.17754
 C301 C 0.86272 0.43832 0.25208
 C302 C 0.88865 0.45333 0.26139
 C303 C 0.91457 0.44746 0.24578
 C304 C 0.91429 0.42635 0.22125
 C305 C 0.94029 0.46297 0.25490
 C306 C 0.94032 0.48412 0.27919
 C307 C 0.91471 0.48992 0.29501
 C308 C 0.88896 0.47433 0.28596
 H309 H 0.90756 0.38557 0.17523
 H310 H 0.81620 0.40737 0.22934
 H311 H 0.81549 0.37117 0.18614
 H312 H 0.84279 0.44295 0.26396
 H313 H 0.93419 0.42177 0.20933
 H314 H 0.96037 0.45881 0.24320
 H315 H 0.96048 0.49572 0.28580
 H316 H 0.86894 0.47885 0.29762
 C317 C 0.31276 0.12905 -0.08325
 C318 C 0.29266 0.13086 -0.05993
 C319 C 0.28103 0.15764 -0.05022
 C320 C 0.28988 0.18218 -0.06397
 C321 C 0.31008 0.18021 -0.08709
 C322 C 0.32162 0.15365 -0.09700
 C323 C 0.26087 0.15943 -0.02688
 C324 C 0.25237 0.13478 -0.01303
 C325 C 0.26423 0.10808 -0.02269
 C326 C 0.28420 0.10627 -0.04611
 C327 C 0.25595 0.08354 -0.00874
 C328 C 0.23613 0.08534 0.01462
 C329 C 0.22405 0.11170 0.02447
 C330 C 0.23229 0.13639 0.01042
 H331 H 0.32191 0.10854 -0.09037
 H332 H 0.28122 0.20289 -0.05683
 H333 H 0.31648 0.19942 -0.09748
 H334 H 0.25190 0.17995 -0.01945
 H335 H 0.29321 0.08575 -0.05351
 H336 H 0.26479 0.06291 -0.01591
 H337 H 0.23001 0.06589 0.02466
 H338 H 0.22339 0.15690 0.01790
 C339 C 0.70182 0.62593 0.57553
 C340 C 0.72321 0.62535 0.55349
 C341 C 0.73753 0.65106 0.54717
 C342 C 0.72988 0.67695 0.56276
 C343 C 0.70853 0.67733 0.58468
 C344 C 0.69449 0.65184 0.59146
 C345 C 0.75938 0.65042 0.52557
 C346 C 0.76712 0.62438 0.51027
 C347 C 0.75251 0.59877 0.51638
 C348 C 0.73064 0.59941 0.53788
 C349 C 0.76019 0.57284 0.50105
 C350 C 0.78240 0.57213 0.48014
 C351 C 0.79750 0.59735 0.47408
 C352 C 0.78945 0.62350 0.48916
 H353 H 0.69078 0.60621 0.58024
 H354 H 0.74060 0.69687 0.55820
 H355 H 0.70339 0.69752 0.59681
 H356 H 0.77048 0.67013 0.52088
 H357 H 0.71960 0.57970 0.54266
 H358 H 0.74913 0.55303 0.50536
 H359 H 0.78768 0.55165 0.46887
 H360 H 0.80068 0.64320 0.48490
 C361 C 0.80813 0.35907 0.06721
 C362 C 0.78642 0.36062 0.04417
 C363 C 0.76922 0.33604 0.03433
 C364 C 0.77436 0.31023 0.04749
 C365 C 0.79619 0.30884 0.07032
 C366 C 0.81309 0.33327 0.08053
 C367 C 0.74715 0.33770 0.01162
 C368 C 0.74216 0.36362 -0.00143
 C369 C 0.75969 0.38804 0.00815
 C370 C 0.78166 0.38640 0.03089
 C371 C 0.75487 0.41380 -0.00507
 C372 C 0.73268 0.41553 -0.02736
 C373 C 0.71477 0.39156 -0.03683
 C374 C 0.71980 0.36556 -0.02381
 H375 H 0.82140 0.37790 0.07461
 H376 H 0.76144 0.29117 0.04021
 H377 H 0.79958 0.28878 0.08037
 H378 H 0.73382 0.31890 0.00421
 H379 H 0.79496 0.40521 0.03834
 H380 H 0.76813 0.43271 0.00199
 H381 H 0.72925 0.43590 -0.03670
 H382 H 0.70643 0.34680 -0.03109
 C383 C 0.15687 0.87049 0.43292
 C384 C 0.18125 0.87314 0.45329
 C385 C 0.18826 0.89991 0.46928
 C386 C 0.17084 0.92352 0.46460
 C387 C 0.14682 0.92076 0.44409
 C388 C 0.13963 0.89430 0.42804
 C389 C 0.21266 0.90272 0.48952
 C390 C 0.23034 0.87917 0.49380
 C391 C 0.22345 0.85245 0.47772
 C392 C 0.19887 0.84956 0.45767
 C393 C 0.24138 0.82908 0.48188
 C394 C 0.26595 0.83214 0.50170
 C395 C 0.27299 0.85859 0.51789
 C396 C 0.25496 0.88203 0.51380
 H397 H 0.15166 0.85007 0.42038
 H398 H 0.17587 0.94417 0.47670
 H399 H 0.13366 0.93931 0.44090
 H400 H 0.21799 0.92326 0.50178
 H401 H 0.19359 0.82904 0.44535
 H402 H 0.23643 0.80842 0.46977
 H403 H 0.27923 0.81364 0.50455
 H404 H 0.26022 0.90266 0.52578
   
