data_POSCAR
  _audit_creation_date              2014-09-24
  _audit_creation_method            'ToBaCCo'
  _symmetry_space_group_name_H-M    'P1'
  _symmetry_Int_Tables_number       1
  _symmetry_cell_setting            triclinic
  loop_
  _symmetry_equiv_pos_as_xyz
 x,y,z
_cell_length_a 29.0533
_cell_length_b 28.9736
_cell_length_c 15.4781
_cell_angle_alpha 89.896400
_cell_angle_beta 90.103600
_cell_angle_gamma 120.013600
loop_
  _atom_site_label
  _atom_site_type_symbol
  _atom_site_fract_x
  _atom_site_fract_y
  _atom_site_fract_z
C1 C 0.44616 0.88732 0.58039
 C2 C 0.43140 0.86075 0.50079
 C3 C 0.44295 0.88784 0.42187
 C4 C 0.46924 0.94428 0.42207
 C5 C 0.48677 0.97254 0.50130
 C6 C 0.47610 0.94402 0.58049
 C7 C 0.49589 0.97320 0.65725
 C8 C 0.52338 1.02847 0.65726
 C9 C 0.53268 1.05783 0.58054
 C10 C 0.51512 1.02953 0.50126
 C11 C 0.47858 0.97333 0.34524
 C12 C 0.50598 1.02859 0.34515
 C13 C 0.52577 1.05790 0.42191
 C14 C 0.55581 1.11456 0.42171
 C15 C 0.57073 1.14132 0.50118
 C16 C 0.55901 1.11449 0.58068
 H17 H 0.49111 0.95405 0.71885
 H18 H 0.53758 1.04745 0.71892
 H19 H 0.46450 0.95403 0.28368
 H20 H 0.51076 1.04758 0.28344
 H21 H 0.41043 0.81794 0.49986
 H22 H 0.59204 1.18413 0.50114
 C23 C 0.11203 0.55792 0.57723
 C24 C 0.13877 0.56978 0.49813
 C25 C 0.11195 0.55475 0.41901
 C26 C 0.05561 0.52498 0.41886
 C27 C 0.02738 0.51390 0.49807
 C28 C 0.05570 0.53118 0.57734
 C29 C 0.02680 0.52115 0.65437
 C30 C -0.02836 0.49349 0.65439
 C31 C -0.05746 0.47440 0.57740
 C32 C -0.02936 0.48542 0.49804
 C33 C 0.02664 0.50589 0.34188
 C34 C -0.02853 0.47811 0.34180
 C35 C -0.05773 0.46808 0.41872
 C36 C -0.11428 0.44123 0.41889
 C37 C -0.14076 0.42930 0.49855
 C38 C -0.11376 0.44454 0.57754
 H39 H 0.04617 0.53483 0.71600
 H40 H -0.04754 0.48786 0.71607
 H41 H 0.04596 0.51155 0.28028
 H42 H -0.04756 0.46434 0.28004
 H43 H 0.18147 0.59120 0.49815
 H44 H -0.18345 0.40759 0.49948
 C45 C 0.44169 0.55500 0.58142
 C46 C 0.42988 0.56973 0.50166
 C47 C 0.44507 0.55791 0.42283
 C48 C 0.47482 0.53131 0.42324
 C49 C 0.48563 0.51391 0.50268
 C50 C 0.46821 0.52490 0.58180
 C51 C 0.47774 0.50523 0.65873
 C52 C 0.50519 0.47746 0.65894
 C53 C 0.52473 0.46777 0.58222
 C54 C 0.51392 0.48535 0.50289
 C55 C 0.49402 0.52145 0.34642
 C56 C 0.52151 0.49376 0.34663
 C57 C 0.53122 0.47444 0.42367
 C58 C 0.55759 0.44445 0.42367
 C59 C 0.56920 0.42906 0.50271
 C60 C 0.55453 0.44095 0.58226
 H61 H 0.46373 0.51030 0.72032
 H62 H 0.51015 0.46335 0.72066
 H63 H 0.48859 0.53527 0.28469
 H64 H 0.53527 0.48826 0.28505
 H65 H 0.40828 0.59087 0.50054
 H66 H 0.59015 0.40727 0.50190
 O67 O 0.41087 0.67047 -0.10146
 O68 O 0.41401 0.76023 -0.07258
 C69 C 0.38017 0.76473 -0.11869
 O70 O 0.33101 0.74103 -0.10189
 O71 O 0.24143 0.65434 -0.07301
 C72 C 0.23688 0.61587 -0.11884
 O73 O 0.26068 0.59041 -0.10205
 O74 O 0.34705 0.58721 -0.07242
 C75 C 0.38540 0.62118 -0.11833
 O76 O 0.41346 0.65362 0.07046
 O77 O 0.41097 0.74055 0.09933
 C78 C 0.38569 0.76447 0.11617
 O79 O 0.34753 0.76034 0.07000
 O80 O 0.26078 0.67081 0.09876
 C81 C 0.23668 0.62146 0.11535
 O82 O 0.24101 0.58744 0.06951
 O83 O 0.33024 0.59003 0.09931
 C84 C 0.37937 0.61537 0.11649
 Cr85 Cr 0.40975 0.70493 -0.00108
 Cr86 Cr 0.29649 0.70534 -0.00154
 Cr87 Cr 0.29606 0.59136 -0.00142
 O88 O 0.33410 0.66721 -0.00136
 O89 O 0.58628 0.34575 -0.07053
 O90 O 0.58917 0.25905 -0.09954
 C91 C 0.61467 0.23541 -0.11675
 O92 O 0.65285 0.23957 -0.07059
 O93 O 0.73933 0.32921 -0.09980
 C94 C 0.76305 0.37849 -0.11688
 O95 O 0.75878 0.41253 -0.07095
 O96 O 0.66932 0.40963 -0.09975
 C97 C 0.62015 0.38415 -0.11659
 O98 O 0.58940 0.32911 0.10136
 O99 O 0.58660 0.23955 0.07254
 C100 C 0.62067 0.23550 0.11875
 O101 O 0.66976 0.25918 0.10142
 O102 O 0.75906 0.34593 0.07201
 C103 C 0.76341 0.38429 0.11795
 O104 O 0.73960 0.40970 0.10098
 O105 O 0.65299 0.41246 0.07216
 C106 C 0.61481 0.37839 0.11826
 Cr107 Cr 0.59044 0.29465 0.00095
 Cr108 Cr 0.70395 0.29475 0.00076
 Cr109 Cr 0.70388 0.40849 0.00061
 O110 O 0.66609 0.33264 0.00076
 C111 C 0.36102 0.80317 -0.26240
 C112 C 0.39896 0.86409 -0.26729
 C113 C 0.42948 0.85581 -0.34146
 C114 C 0.39128 0.79477 -0.33698
 C115 C 0.46722 0.85132 -0.27626
 C116 C 0.43664 0.85941 -0.20105
 C117 C 0.39883 0.79894 -0.19748
 C118 C 0.42896 0.79028 -0.27126
 H119 H 0.31712 0.78324 -0.25644
 H120 H 0.38636 0.89449 -0.26575
 H121 H 0.37058 0.76544 -0.38935
 H122 H 0.51111 0.87124 -0.28227
 H123 H 0.45505 0.88563 -0.14419
 H124 H 0.44108 0.75952 -0.27225
 C125 C 0.19855 0.55840 -0.26239
 C126 C 0.13768 0.53482 -0.26651
 C127 C 0.14515 0.57367 -0.34049
 C128 C 0.20608 0.59715 -0.33673
 C129 C 0.14928 0.61558 -0.27500
 C130 C 0.14201 0.57686 -0.20003
 C131 C 0.20244 0.60016 -0.19720
 C132 C 0.21026 0.63903 -0.27077
 H133 H 0.21894 0.53477 -0.25693
 H134 H 0.10771 0.49168 -0.26508
 H135 H 0.23484 0.60619 -0.39003
 H136 H 0.12883 0.63913 -0.28068
 H137 H 0.11599 0.56863 -0.14288
 H138 H 0.24052 0.68209 -0.27186
 C139 C 0.36216 0.57224 -0.27084
 C140 C 0.40429 0.61004 -0.33643
 C141 C 0.42702 0.57179 -0.34059
 C142 C 0.38483 0.53394 -0.27550
 C143 C 0.46581 0.60246 -0.26630
 C144 C 0.44294 0.64044 -0.26172
 C145 C 0.40093 0.60252 -0.19693
 C146 C 0.42348 0.56467 -0.20017
 H147 H 0.31935 0.56003 -0.27206
 H148 H 0.39569 0.63074 -0.38894
 H149 H 0.36082 0.48992 -0.28147
 H150 H 0.50874 0.61515 -0.26453
 H151 H 0.46694 0.68447 -0.25579
 H152 H 0.43126 0.54625 -0.14318
 C153 C 0.57698 0.14130 -0.20049
 C154 C 0.53468 0.13691 -0.26659
 C155 C 0.57359 0.14571 -0.34087
 C156 C 0.61576 0.14992 -0.27578
 C157 C 0.59616 0.20670 -0.33559
 C158 C 0.55740 0.19778 -0.26089
 C159 C 0.59937 0.20171 -0.19610
 C160 C 0.63826 0.21091 -0.26999
 H161 H 0.56919 0.11473 -0.14401
 H162 H 0.49178 0.10645 -0.26526
 H163 H 0.63990 0.13015 -0.28219
 H164 H 0.60475 0.23631 -0.38760
 H165 H 0.53326 0.21756 -0.25450
 H166 H 0.68104 0.24172 -0.27076
 C167 C 0.78875 0.42771 -0.26945
 C168 C 0.84971 0.46539 -0.27451
 C169 C 0.85344 0.42732 -0.33986
 C170 C 0.79253 0.38972 -0.33528
 C171 C 0.86133 0.39629 -0.26575
 C172 C 0.85743 0.43432 -0.19943
 C173 C 0.79701 0.39702 -0.19576
 C174 C 0.80049 0.35887 -0.26082
 H175 H 0.75852 0.44045 -0.27032
 H176 H 0.87013 0.50944 -0.28062
 H177 H 0.76346 0.36969 -0.38822
 H178 H 0.89127 0.38318 -0.26452
 H179 H 0.88381 0.45245 -0.14266
 H180 H 0.78018 0.31481 -0.25491
 C181 C 0.56400 0.42261 -0.19909
 C182 C 0.60181 0.46496 -0.26528
 C183 C 0.57110 0.42609 -0.33950
 C184 C 0.53324 0.38390 -0.27435
 C185 C 0.60903 0.40304 -0.33488
 C186 C 0.63947 0.44176 -0.26027
 C187 C 0.60153 0.39975 -0.19540
 C188 C 0.57122 0.36090 -0.26923
 H189 H 0.54573 0.43055 -0.14230
 H190 H 0.61466 0.50805 -0.26376
 H191 H 0.48933 0.35999 -0.28046
 H192 H 0.62958 0.39427 -0.38716
 H193 H 0.68339 0.46568 -0.25422
 H194 H 0.55885 0.31793 -0.27021
 C195 C 0.78933 0.36104 0.27052
 C196 C 0.85030 0.38435 0.27553
 C197 C 0.85427 0.42634 0.34075
 C198 C 0.79331 0.40297 0.33625
 C199 C 0.86211 0.46524 0.26658
 C200 C 0.85794 0.42310 0.20033
 C201 C 0.79755 0.39992 0.19674
 C202 C 0.80127 0.44173 0.26167
 H203 H 0.75902 0.31801 0.27150
 H204 H 0.87058 0.36065 0.28154
 H205 H 0.76396 0.39393 0.38859
 H206 H 0.89206 0.50839 0.26506
 H207 H 0.88416 0.43127 0.14348
 H208 H 0.78100 0.46545 0.25571
 C209 C 0.57249 0.21089 0.27200
 C210 C 0.53436 0.14986 0.27796
 C211 C 0.57235 0.14583 0.34321
 C212 C 0.61043 0.20686 0.33778
 C213 C 0.60269 0.13722 0.26909
 C214 C 0.56473 0.14141 0.20283
 C215 C 0.60242 0.20186 0.19827
 C216 C 0.64051 0.19812 0.26324
 H217 H 0.56028 0.24157 0.27256
 H218 H 0.49047 0.12993 0.28429
 H219 H 0.63121 0.23648 0.38975
 H220 H 0.61539 0.10690 0.26796
 H221 H 0.54616 0.11483 0.14641
 H222 H 0.68439 0.21806 0.25690
 C223 C 0.55770 0.35877 0.26219
 C224 C 0.59643 0.38945 0.33666
 C225 C 0.57323 0.42721 0.34115
 C226 C 0.53440 0.39635 0.26704
 C227 C 0.61506 0.46527 0.27580
 C228 C 0.63823 0.42742 0.27082
 C229 C 0.59936 0.39690 0.19712
 C230 C 0.57635 0.43435 0.20072
 H231 H 0.53394 0.31472 0.25631
 H232 H 0.60537 0.36931 0.38966
 H233 H 0.49140 0.38339 0.26578
 H234 H 0.63871 0.50930 0.28188
 H235 H 0.68113 0.44001 0.27171
 H236 H 0.56819 0.45261 0.14392
 C237 C 0.14175 0.56549 0.19631
 C238 C 0.14902 0.53417 0.27145
 C239 C 0.14499 0.57208 0.33675
 C240 C 0.13751 0.60334 0.26260
 C241 C 0.20592 0.60966 0.33307
 C242 C 0.21001 0.57183 0.26731
 C243 C 0.20220 0.60277 0.19356
 C244 C 0.19839 0.64075 0.25856
 H245 H 0.11569 0.54756 0.13913
 H246 H 0.12853 0.49010 0.27726
 H247 H 0.10758 0.61646 0.26098
 H248 H 0.23473 0.62954 0.38638
 H249 H 0.24022 0.55906 0.26859
 H250 H 0.21881 0.68483 0.25298
 C251 C 0.42399 0.85899 0.19883
 C252 C 0.38532 0.85088 0.27394
 C253 C 0.42732 0.85497 0.33924
 C254 C 0.46611 0.86325 0.26509
 C255 C 0.40435 0.79397 0.33459
 C256 C 0.36238 0.78983 0.26881
 C257 C 0.40120 0.79848 0.19508
 C258 C 0.44303 0.80231 0.26008
 H259 H 0.43196 0.88542 0.14209
 H260 H 0.36151 0.87101 0.28013
 H261 H 0.50905 0.89356 0.26386
 H262 H 0.39560 0.76487 0.38750
 H263 H 0.31952 0.75924 0.26968
 H264 H 0.46691 0.78224 0.25409
 C265 C 0.35964 0.55817 0.26085
 C266 C 0.39696 0.53460 0.26615
 C267 C 0.42790 0.57358 0.34006
 C268 C 0.39041 0.59704 0.33513
 C269 C 0.46588 0.61537 0.27453
 C270 C 0.43489 0.57651 0.19965
 C271 C 0.39771 0.59979 0.19561
 C272 C 0.42832 0.63880 0.26911
 H273 H 0.31570 0.53451 0.25494
 H274 H 0.38388 0.49145 0.26523
 H275 H 0.37047 0.60619 0.38793
 H276 H 0.50981 0.63897 0.28064
 H277 H 0.45297 0.56816 0.14303
 H278 H 0.44102 0.68186 0.26967
   
