data_POSCAR
  _audit_creation_date              2014-09-24
  _audit_creation_method            'ToBaCCo'
  _symmetry_space_group_name_H-M    'P1'
  _symmetry_Int_Tables_number       1
  _symmetry_cell_setting            triclinic
  loop_
  _symmetry_equiv_pos_as_xyz
 x,y,z
_cell_length_a 39.4802
_cell_length_b 39.3224
_cell_length_c 39.5056
_cell_angle_alpha 89.989900
_cell_angle_beta 89.969700
_cell_angle_gamma 89.963300
loop_
  _atom_site_label
  _atom_site_type_symbol
  _atom_site_fract_x
  _atom_site_fract_y
  _atom_site_fract_z
N1 N 0.29814 0.45183 0.95153
 N2 N 0.45136 0.79892 0.45168
 N3 N 0.94939 0.94951 0.80152
 N4 N 0.44935 -0.04908 0.30113
 N5 N 0.79998 0.29997 0.29969
 N6 N -0.20000 0.79935 0.80006
 N7 N 0.95073 0.29818 0.45044
 N8 N 0.45120 0.45053 0.79931
 N9 N 0.80015 0.95116 0.94974
 N10 N 0.29803 0.79909 0.29921
 N11 N 0.79928 0.45148 0.45013
 N12 N 0.95043 0.79968 -0.05017
 N13 N 0.29960 0.29741 0.79947
 N14 N 0.19965 0.54953 0.55072
 N15 N 0.55089 0.69917 0.05160
 N16 N 0.70118 0.20157 0.70042
 N17 N 1.04839 0.04827 0.20185
 N18 N 0.04974 0.20166 1.04926
 N19 N 0.20023 0.69943 0.69977
 N20 N 1.20099 0.20207 0.20095
 N21 N 0.70065 1.04930 0.54932
 N22 N 0.54894 0.54942 0.19998
 N23 N 0.69932 0.70176 0.20043
 N24 N 0.20086 0.04886 1.04925
 N25 N 0.54931 0.20176 0.54885
 N26 N 0.05040 0.54849 0.69965
 N27 N 0.69910 0.54978 0.04984
 N28 N 0.05044 0.69994 0.54984
 N29 N 0.54864 1.04743 0.70194
 N30 N 0.45104 0.29791 0.95017
 N31 N 0.94964 0.45099 0.29931
 N32 N 0.30015 0.95075 0.44975
 O33 O 0.25186 0.45560 0.84017
 O34 O 0.19295 0.46042 0.82818
 O35 O 0.29272 0.40842 0.75147
 O36 O 0.29467 0.41851 0.69570
 O37 O 0.34015 0.49805 0.79404
 O38 O 0.32888 0.55594 0.78898
 O39 O 0.20575 0.50036 0.66105
 O40 O 0.21242 0.44268 0.67097
 O41 O 0.16112 0.54279 0.74756
 O42 O 0.16995 0.54031 0.80459
 O43 O 0.24742 0.58814 0.70611
 O44 O 0.30782 0.57639 0.70716
 O45 O 0.24652 0.54138 0.66083
 O46 O 0.30915 0.53832 0.67357
 O47 O 0.20713 0.58862 0.74734
 O48 O 0.21258 0.57336 0.81081
 O49 O 0.16137 0.50232 0.70631
 O50 O 0.17236 0.44123 0.71675
 O51 O 0.29212 0.49717 0.84028
 O52 O 0.28483 0.55817 0.82657
 O53 O 0.34061 0.45737 0.75289
 O54 O 0.32690 0.46190 0.69152
 O55 O 0.25315 0.40859 0.79353
 O56 O 0.19233 0.42154 0.78242
 Zr57 Zr 0.23160 0.45752 0.79085
 O58 O 0.19937 0.48813 0.76131
 Zr59 Zr 0.29158 0.45816 0.73169
 O60 O 0.26102 0.48747 0.69912
 Zr61 Zr 0.29082 0.51806 0.79111
 O62 O 0.26129 0.55047 0.76058
 Zr63 Zr 0.20953 0.47961 0.70987
 O64 O 0.24006 0.44654 0.73928
 Zr65 Zr 0.20983 0.53979 0.76895
 O66 O 0.23932 0.50939 0.80193
 Zr67 Zr 0.26904 0.53929 0.70915
 O68 O 0.30214 0.50993 0.73962
 O69 O 0.28281 0.46657 0.78267
 O70 O 0.21761 0.53144 0.71747
 C71 C 0.27496 0.47343 0.85461
 C72 C 0.27610 0.39412 0.77556
 C73 C 0.35474 0.47471 0.77656
 C74 C 0.22252 0.52441 0.64684
 C75 C 0.14712 0.52614 0.72336
 C76 C 0.22376 0.60257 0.72315
 H77 H 0.17552 0.48286 0.76701
 H78 H 0.26695 0.57436 0.76591
 H79 H 0.29734 0.45212 0.79715
 H80 H 0.26617 0.48153 0.67535
 H81 H 0.21955 0.42116 0.68187
 H82 H 0.27691 0.42297 0.67864
 H83 H 0.22919 0.59136 0.80529
 H84 H 0.30294 0.55634 0.84389
 H85 H 0.15668 0.44202 0.69716
 H86 H 0.19419 0.40295 0.79927
 H87 H 0.30700 0.58942 0.72855
 H88 H 0.33858 0.55518 0.76588
 H89 H 0.19420 0.43996 0.84282
 H90 H 0.17399 0.52073 0.81976
 H91 H 0.34021 0.48286 0.69544
 H92 H 0.30507 0.51915 0.65789
 O93 O 0.15967 0.04399 0.24829
 O94 O 0.17146 0.03910 0.30716
 O95 O 0.24866 0.09085 0.20770
 O96 O 0.30442 0.08055 0.20581
 O97 O 0.20590 0.00133 0.16017
 O98 O 0.21080 -0.05656 0.17143
 O99 O 0.33869 -0.00105 0.29471
 O100 O 0.32876 0.05652 0.28815
 O101 O 0.25200 -0.04357 0.33913
 O102 O 0.19493 -0.04082 0.33029
 O103 O 0.29336 -0.08906 0.25296
 O104 O 0.29276 -0.07733 0.19278
 O105 O 0.33894 -0.04222 0.25409
 O106 O 0.32627 -0.03925 0.19141
 O107 O 0.25190 -0.08944 0.29302
 O108 O 0.18858 -0.07381 0.28769
 O109 O 0.29331 -0.00316 0.33898
 O110 O 0.28288 0.05795 0.32809
 O111 O 0.15952 0.00239 0.20807
 O112 O 0.17307 -0.05865 0.21533
 O113 O 0.24717 0.04189 0.15980
 O114 O 0.30854 0.03716 0.17364
 O115 O 0.20647 0.09082 0.24715
 O116 O 0.21735 0.07782 0.30796
 Zr117 Zr 0.20894 0.04189 0.26866
 O118 O 0.23833 0.01119 0.30093
 Zr119 Zr 0.26828 0.04104 0.20885
 O120 O 0.30072 0.01167 0.23948
 Zr121 Zr 0.20867 -0.01866 0.20947
 O122 O 0.23909 -0.05114 0.23903
 Zr123 Zr 0.28983 0.01960 0.29089
 O124 O 0.26057 0.05273 0.26031
 Zr125 Zr 0.23062 -0.04045 0.29045
 O126 O 0.19775 -0.00996 0.26091
 Zr127 Zr 0.29061 -0.04014 0.23145
 O128 O 0.26026 -0.01072 0.19829
 O129 O 0.21723 0.03280 0.21749
 O130 O 0.28218 -0.03224 0.28283
 C131 C 0.14522 0.02619 0.22518
 C132 C 0.22457 0.10524 0.22426
 C133 C 0.22348 0.02462 0.14563
 C134 C 0.35294 -0.02512 0.27800
 C135 C 0.27621 -0.02697 0.35316
 C136 C 0.27607 -0.10351 0.27642
 H137 H 0.23260 0.01647 0.32476
 H138 H 0.23370 -0.07500 0.23333
 H139 H 0.20281 0.04730 0.20294
 H140 H 0.32452 0.01757 0.23437
 H141 H 0.31786 0.07805 0.28100
 H142 H 0.32137 0.07613 0.22368
 H143 H 0.19390 -0.09166 0.27086
 H144 H 0.15578 -0.05676 0.19720
 H145 H 0.30245 0.05712 0.34380
 H146 H 0.20057 0.09648 0.30605
 H147 H 0.27116 -0.09003 0.19325
 H148 H 0.23392 -0.05583 0.16174
 H149 H 0.15689 0.05963 0.30591
 H150 H 0.17983 -0.02116 0.32627
 H151 H 0.30459 0.01622 0.16031
 H152 H 0.34202 -0.02015 0.19555
 O153 O 0.45522 0.84011 0.25269
 O154 O 0.46055 0.82851 0.19367
 O155 O 0.40882 0.75086 0.29285
 O156 O 0.41918 0.69476 0.29456
 O157 O 0.49797 0.79367 0.34064
 O158 O 0.55562 0.78904 0.32934
 O159 O 0.50079 0.66057 0.20595
 O160 O 0.44339 0.67050 0.21223
 O161 O 0.54319 0.74785 0.16177
 O162 O 0.53997 0.80513 0.17055
 O163 O 0.58820 0.70629 0.24759
 O164 O 0.57639 0.70699 0.30807
 O165 O 0.54172 0.66040 0.24663
 O166 O 0.53881 0.67298 0.30915
 O167 O 0.58855 0.74811 0.20775
 O168 O 0.57282 0.81161 0.21333
 O169 O 0.50317 0.70615 0.16176
 O170 O 0.44212 0.71656 0.17235
 O171 O 0.49654 0.84026 0.29303
 O172 O 0.55747 0.82706 0.28551
 O173 O 0.45758 0.75222 0.34089
 O174 O 0.46225 0.69066 0.32692
 O175 O 0.40887 0.79315 0.25335
 O176 O 0.42201 0.78234 0.19261
 Zr177 Zr 0.45767 0.79077 0.23203
 O178 O 0.48837 0.76138 0.19976
 Zr179 Zr 0.45848 0.73112 0.29176
 O180 O 0.48793 0.69867 0.26114
 Zr181 Zr 0.51784 0.79108 0.29134
 O182 O 0.55035 0.76070 0.26178
 Zr183 Zr 0.48014 0.70963 0.20971
 O184 O 0.44698 0.73889 0.24027
 Zr185 Zr 0.53973 0.76931 0.21039
 O186 O 0.50924 0.80218 0.23992
 Zr187 Zr 0.53950 0.70893 0.26925
 O188 O 0.51001 0.73926 0.30241
 O189 O 0.46662 0.78237 0.28321
 O190 O 0.53170 0.71750 0.21791
 C191 C 0.47273 0.85454 0.27601
 C192 C 0.39449 0.77502 0.27624
 C193 C 0.47479 0.77599 0.35513
 C194 C 0.52476 0.64630 0.22270
 C195 C 0.52692 0.72339 0.14771
 C196 C 0.60255 0.72376 0.22418
 H197 H 0.48317 0.76713 0.17592
 H198 H 0.57409 0.76618 0.26751
 H199 H 0.45211 0.79673 0.29780
 H200 H 0.48210 0.67476 0.26620
 H201 H 0.42192 0.68140 0.21934
 H202 H 0.42371 0.67777 0.27669
 H203 H 0.59063 0.80625 0.23010
 H204 H 0.55549 0.84437 0.30369
 H205 H 0.44313 0.69697 0.15657
 H206 H 0.40346 0.79923 0.19444
 H207 H 0.58940 0.72846 0.30722
 H208 H 0.55508 0.76576 0.33886
 H209 H 0.44011 0.84314 0.19494
 H210 H 0.52058 0.82048 0.17480
 H211 H 0.48317 0.69454 0.34018
 H212 H 0.51958 0.65738 0.30520
 O213 O 0.08986 0.70567 0.74810
 O214 O 0.07808 0.71090 0.80715
 O215 O 0.00126 0.65898 0.70759
 O216 O -0.05468 0.66913 0.70602
 O217 O 0.04387 0.74844 0.66015
 O218 O 0.03894 0.80639 0.67136
 O219 O -0.08917 0.75110 0.79458
 O220 O -0.07929 0.69346 0.78826
 O221 O -0.00216 0.79337 0.83907
 O222 O 0.05476 0.79087 0.83003
 O223 O -0.04404 0.83871 0.75307
 O224 O -0.04286 0.82714 0.69260
 O225 O -0.08939 0.79201 0.75369
 O226 O -0.07648 0.78910 0.69118
 O227 O -0.00267 0.83909 0.79317
 O228 O 0.06093 0.82376 0.78722
 O229 O -0.04371 0.75320 0.83895
 O230 O -0.03346 0.69199 0.82811
 O231 O 0.09004 0.74723 0.70781
 O232 O 0.07664 0.80840 0.71537
 O233 O 0.00266 0.70780 0.65982
 O234 O -0.05879 0.71251 0.67358
 O235 O 0.04329 0.65905 0.74716
 O236 O 0.03222 0.67200 0.80796
 Zr237 Zr 0.04065 0.70796 0.76867
 O238 O 0.01122 0.73868 0.80088
 Zr239 Zr -0.01861 0.70872 0.70885
 O240 O -0.05109 0.73815 0.73941
 Zr241 Zr 0.04099 0.76848 0.70941
 O242 O 0.01053 0.80101 0.73891
 Zr243 Zr -0.04030 0.73031 0.79087
 O244 O -0.01099 0.69712 0.76034
 Zr245 Zr 0.01899 0.79030 0.79030
 O246 O 0.05190 0.75978 0.76084
 Zr247 Zr -0.04095 0.78994 0.73129
 O248 O -0.01057 0.76047 0.69819
 O249 O 0.03238 0.71704 0.71752
 O250 O -0.03256 0.78210 0.78268
 C251 C 0.10426 0.72330 0.72480
 C252 C 0.02540 0.64466 0.72413
 C253 C 0.02643 0.72503 0.64567
 C254 C -0.10342 0.77506 0.77769
 C255 C -0.02645 0.77691 0.85313
 C256 C -0.02697 0.85306 0.77671
 H257 H 0.01694 0.73341 0.82471
 H258 H 0.01590 0.82489 0.73325
 H259 H 0.04679 0.70254 0.70297
 H260 H -0.07488 0.73225 0.73430
 H261 H -0.06845 0.67193 0.78103
 H262 H -0.07180 0.67376 0.72369
 H263 H 0.05519 0.84202 0.77099
 H264 H 0.09395 0.80649 0.69724
 H265 H -0.05298 0.69294 0.84389
 H266 H 0.04912 0.65344 0.80612
 H267 H -0.02146 0.84018 0.69347
 H268 H 0.01580 0.80573 0.66175
 H269 H 0.09273 0.69044 0.80588
 H270 H 0.06988 0.77121 0.82604
 H271 H -0.05479 0.73341 0.66018
 H272 H -0.09210 0.76984 0.69515
 O273 O 0.08993 0.04366 0.00248
 O274 O 0.07816 0.03850 -0.05642
 O275 O 0.00123 0.09073 0.04297
 O276 O -0.05466 0.08063 0.04478
 O277 O 0.04362 0.00109 0.09076
 O278 O 0.03886 -0.05673 0.07955
 O279 O -0.08910 -0.00118 -0.04382
 O280 O -0.07910 0.05641 -0.03744
 O281 O -0.00232 -0.04394 -0.08813
 O282 O 0.05474 -0.04126 -0.07925
 O283 O -0.04401 -0.08909 -0.00220
 O284 O -0.04308 -0.07735 0.05826
 O285 O -0.08942 -0.04221 -0.00305
 O286 O -0.07672 -0.03932 0.05952
 O287 O -0.00250 -0.08960 -0.04220
 O288 O 0.06092 -0.07431 -0.03650
 O289 O -0.04372 -0.00357 -0.08805
 O290 O -0.03324 0.05761 -0.07738
 O291 O 0.09005 0.00219 0.04286
 O292 O 0.07650 -0.05895 0.03560
 O293 O 0.00245 0.04180 0.09102
 O294 O -0.05887 0.03737 0.07716
 O295 O 0.04332 0.09047 0.00343
 O296 O 0.03230 0.07741 -0.05728
 Zr297 Zr 0.04070 0.04152 -0.01791
 O298 O 0.01128 0.01085 -0.05010
 Zr299 Zr -0.01861 0.04098 0.04193
 O300 O -0.05108 0.01159 0.01138
 Zr301 Zr 0.04092 -0.01889 0.04145
 O302 O 0.01047 -0.05138 0.01195
 Zr303 Zr -0.04021 0.01939 -0.04006
 O304 O -0.01091 0.05252 -0.00957
 Zr305 Zr 0.01899 -0.04076 -0.03946
 O306 O 0.05189 -0.01031 -0.01000
 Zr307 Zr -0.04104 -0.04024 0.01950
 O308 O -0.01066 -0.01080 0.05258
 O309 O 0.03241 0.03257 0.03330
 O310 O -0.03256 -0.03242 -0.03187
 C311 C 0.10434 0.02596 0.02570
 C312 C 0.02534 0.10499 0.02633
 C313 C 0.02607 0.02443 0.10526
 C314 C -0.10339 -0.02516 -0.02703
 C315 C -0.02659 -0.02741 -0.10217
 C316 C -0.02681 -0.10353 -0.02574
 H317 H 0.01702 0.01607 -0.07394
 H318 H 0.01582 -0.07526 0.01766
 H319 H 0.04682 0.04705 0.04784
 H320 H -0.07488 0.01756 0.01648
 H321 H -0.06819 0.07792 -0.03034
 H322 H -0.07167 0.07613 0.02699
 H323 H 0.05537 -0.09229 -0.01990
 H324 H 0.09386 -0.05701 0.05366
 H325 H -0.05279 0.05674 -0.09312
 H326 H 0.04917 0.09597 -0.05549
 H327 H -0.02171 -0.09046 0.05742
 H328 H 0.01563 -0.05621 0.08899
 H329 H 0.09277 0.05898 -0.05523
 H330 H 0.07005 -0.02183 -0.07506
 H331 H -0.05506 0.01636 0.09043
 H332 H -0.09231 -0.02003 0.05550
 O333 O -0.08975 0.49855 0.45612
 O334 O -0.07766 0.55767 0.46172
 O335 O -0.00127 0.45752 0.40940
 O336 O 0.05463 0.45566 0.41943
 O337 O -0.04401 0.40941 0.49816
 O338 O -0.03942 0.42034 0.55583
 O339 O 0.08933 0.54398 0.50180
 O340 O 0.07968 0.53779 0.44435
 O341 O 0.00260 0.58873 0.54398
 O342 O -0.05439 0.57994 0.54154
 O343 O 0.04390 0.50159 0.58868
 O344 O 0.04259 0.44098 0.57654
 O345 O 0.08932 0.50265 0.54228
 O346 O 0.07637 0.43986 0.53878
 O347 O 0.00279 0.54219 0.58933
 O348 O -0.06078 0.53682 0.57397
 O349 O 0.04407 0.58866 0.50387
 O350 O 0.03395 0.57809 0.44296
 O351 O -0.09019 0.45772 0.49715
 O352 O -0.07682 0.46472 0.55812
 O353 O -0.00269 0.40916 0.45778
 O354 O 0.05867 0.42275 0.46240
 O355 O -0.04310 0.49754 0.40974
 O356 O -0.03172 0.55844 0.42304
 Zr357 Zr -0.04043 0.51878 0.45856
 O358 O -0.01091 0.55077 0.48937
 Zr359 Zr 0.01858 0.45836 0.45891
 O360 O 0.05114 0.48868 0.48842
 Zr361 Zr -0.04114 0.45882 0.51835
 O362 O -0.01059 0.48808 0.55095
 Zr363 Zr 0.04056 0.54047 0.48095
 O364 O 0.01118 0.51020 0.44770
 Zr365 Zr -0.01878 0.53985 0.54068
 O366 O -0.05177 0.51063 0.51008
 Zr367 Zr 0.04089 0.48024 0.53991
 O368 O 0.01040 0.44736 0.51034
 O369 O -0.03242 0.46726 0.46722
 O370 O 0.03273 0.53196 0.53245
 C371 C -0.10431 0.47514 0.47351
 C372 C -0.02530 0.47440 0.39526
 C373 C -0.02645 0.39489 0.47490
 C374 C 0.10343 0.52686 0.52562
 C375 C 0.02688 0.60285 0.52756
 C376 C 0.02692 0.52533 0.60315
 H377 H -0.01653 0.57476 0.48427
 H378 H -0.01602 0.48223 0.57467
 H379 H -0.04687 0.45278 0.45271
 H380 H 0.07493 0.48349 0.48254
 H381 H 0.06887 0.53079 0.42284
 H382 H 0.07191 0.47317 0.42424
 H383 H -0.05522 0.52020 0.59193
 H384 H -0.09428 0.44669 0.55602
 H385 H 0.05358 0.59379 0.44394
 H386 H -0.04858 0.55682 0.40453
 H387 H 0.02122 0.44190 0.58959
 H388 H -0.01628 0.41066 0.55528
 H389 H -0.09224 0.55668 0.44130
 H390 H -0.06943 0.57621 0.52189
 H391 H 0.05474 0.40930 0.48322
 H392 H 0.09213 0.44404 0.51975
 O393 O 0.58978 0.04374 0.50244
 O394 O 0.57798 0.03849 0.44355
 O395 O 0.50111 0.09062 0.54308
 O396 O 0.44530 0.08044 0.54517
 O397 O 0.54374 0.00084 0.59065
 O398 O 0.53902 -0.05696 0.57930
 O399 O 0.41076 -0.00126 0.45630
 O400 O 0.42063 0.05630 0.46290
 O401 O 0.49738 -0.04379 0.41177
 O402 O 0.55440 -0.04131 0.42050
 O403 O 0.45613 -0.08927 0.49806
 O404 O 0.45691 -0.07742 0.55833
 O405 O 0.41056 -0.04239 0.49696
 O406 O 0.42328 -0.03942 0.55959
 O407 O 0.49748 -0.08971 0.45789
 O408 O 0.56084 -0.07419 0.46316
 O409 O 0.45609 -0.00331 0.41198
 O410 O 0.46647 0.05778 0.42292
 O411 O 0.59004 0.00218 0.54273
 O412 O 0.57661 -0.05894 0.53527
 O413 O 0.50255 0.04153 0.59111
 O414 O 0.44117 0.03710 0.57735
 O415 O 0.54309 0.09046 0.50341
 O416 O 0.53211 0.07741 0.44273
 Zr417 Zr 0.54055 0.04151 0.48208
 O418 O 0.51107 0.01087 0.44991
 Zr419 Zr 0.48137 0.04083 0.54206
 O420 O 0.44884 0.01150 0.51153
 Zr421 Zr 0.54095 -0.01899 0.54131
 O422 O 0.51043 -0.05143 0.51185
 Zr423 Zr 0.45960 0.01938 0.46008
 O424 O 0.48895 0.05247 0.49057
 Zr425 Zr 0.51881 -0.04077 0.46042
 O426 O 0.55177 -0.01033 0.48984
 Zr427 Zr 0.45893 -0.04034 0.51954
 O428 O 0.48939 -0.01095 0.55260
 O429 O 0.53238 0.03249 0.53329
 O430 O 0.46727 -0.03247 0.46815
 C431 C 0.60425 0.02604 0.52563
 C432 C 0.52512 0.10494 0.52635
 C433 C 0.52620 0.02412 0.60526
 C434 C 0.39653 -0.02531 0.47304
 C435 C 0.47318 -0.02712 0.39777
 C436 C 0.47335 -0.10373 0.47455
 H437 H 0.51676 0.01615 0.42607
 H438 H 0.51584 -0.07530 0.51756
 H439 H 0.54678 0.04697 0.54784
 H440 H 0.42505 0.01743 0.51667
 H441 H 0.43150 0.07782 0.47003
 H442 H 0.42829 0.07605 0.52735
 H443 H 0.55549 -0.09209 0.47992
 H444 H 0.59398 -0.05704 0.55333
 H445 H 0.44688 0.05698 0.40722
 H446 H 0.54901 0.09596 0.44449
 H447 H 0.47838 -0.09037 0.55763
 H448 H 0.51588 -0.05635 0.58894
 H449 H 0.59259 0.05898 0.44472
 H450 H 0.56949 -0.02164 0.42440
 H451 H 0.44504 0.01607 0.59058
 H452 H 0.40758 -0.02024 0.55551
 O453 O 0.49791 0.45587 -0.08977
 O454 O 0.55685 0.46106 -0.07783
 O455 O 0.45717 0.40885 -0.00127
 O456 O 0.45523 0.41894 0.05456
 O457 O 0.40945 0.49856 -0.04371
 O458 O 0.42066 0.55632 -0.03902
 O459 O 0.54379 0.50099 0.08927
 O460 O 0.53754 0.44336 0.07936
 O461 O 0.58840 0.54342 0.00236
 O462 O 0.57944 0.54103 -0.05454
 O463 O 0.50225 0.58856 0.04426
 O464 O 0.44165 0.57691 0.04288
 O465 O 0.50278 0.54182 0.08948
 O466 O 0.44029 0.53890 0.07654
 O467 O 0.54248 0.58907 0.00297
 O468 O 0.53656 0.57393 -0.06064
 O469 O 0.58825 0.50320 0.04387
 O470 O 0.57752 0.44199 0.03359
 O471 O 0.45748 0.49733 -0.09000
 O472 O 0.46481 0.55850 -0.07645
 O473 O 0.40910 0.45785 -0.00258
 O474 O 0.42287 0.46221 0.05876
 O475 O 0.49688 0.40908 -0.04321
 O476 O 0.55758 0.42214 -0.03202
 Zr477 Zr 0.51821 0.45804 -0.04052
 O478 O 0.55032 0.48874 -0.01105
 Zr479 Zr 0.45818 0.45860 0.01858
 O480 O 0.48865 0.48800 0.05112
 Zr481 Zr 0.45880 0.51846 -0.04092
 O482 O 0.48819 0.55098 -0.01039
 Zr483 Zr 0.54019 0.48026 0.04041
 O484 O 0.50975 0.44709 0.01105
 Zr485 Zr 0.53965 0.54035 -0.01879
 O486 O 0.51031 0.50986 -0.05173
 Zr487 Zr 0.48048 0.53981 0.04104
 O488 O 0.44749 0.51036 0.01059
 O489 O 0.46694 0.46700 -0.03238
 O490 O 0.53192 0.53204 0.03271
 C491 C 0.47469 0.47354 -0.10423
 C492 C 0.47390 0.39458 -0.02532
 C493 C 0.39489 0.47525 -0.02619
 C494 C 0.52681 0.52490 0.10350
 C495 C 0.60244 0.52693 0.02664
 C496 C 0.52597 0.60295 0.02729
 H497 H 0.57418 0.48351 -0.01675
 H498 H 0.48250 0.57487 -0.01573
 H499 H 0.45241 0.45252 -0.04681
 H500 H 0.48349 0.48204 0.07488
 H501 H 0.53042 0.42182 0.06851
 H502 H 0.47305 0.42337 0.07155
 H503 H 0.52037 0.59223 -0.05482
 H504 H 0.44683 0.55655 -0.09388
 H505 H 0.59327 0.44293 0.05312
 H506 H 0.55586 0.40359 -0.04892
 H507 H 0.44279 0.59024 0.02169
 H508 H 0.41127 0.55595 -0.01579
 H509 H 0.55570 0.44059 -0.09246
 H510 H 0.57544 0.52145 -0.06972
 H511 H 0.40952 0.48317 0.05490
 H512 H 0.44424 0.51959 0.09211
 O513 O 0.83967 0.25135 0.45626
 O514 O 0.82759 0.19223 0.46163
 O515 O 0.75107 0.29245 0.40972
 O516 O 0.69517 0.29418 0.41987
 O517 O 0.79392 0.34039 0.49834
 O518 O 0.78922 0.32943 0.55606
 O519 O 0.66052 0.20593 0.50186
 O520 O 0.67035 0.21189 0.44458
 O521 O 0.74759 0.16092 0.54402
 O522 O 0.80447 0.16982 0.54156
 O523 O 0.70621 0.24795 0.58904
 O524 O 0.70723 0.30841 0.57712
 O525 O 0.66051 0.24715 0.54243
 O526 O 0.67370 0.30988 0.53930
 O527 O 0.74747 0.20751 0.58954
 O528 O 0.81092 0.21287 0.57390
 O529 O 0.70599 0.16103 0.50409
 O530 O 0.71605 0.17168 0.44320
 O531 O 0.84011 0.29208 0.49736
 O532 O 0.82674 0.28514 0.55829
 O533 O 0.75254 0.34067 0.45807
 O534 O 0.69119 0.32706 0.46287
 O535 O 0.79300 0.25254 0.40990
 O536 O 0.78161 0.19157 0.42306
 Zr537 Zr 0.79035 0.23112 0.45866
 O538 O 0.76090 0.19905 0.48948
 Zr539 Zr 0.73129 0.29147 0.45925
 O540 O 0.69880 0.26104 0.48877
 Zr541 Zr 0.79104 0.29098 0.51856
 O542 O 0.76057 0.26161 0.55116
 Zr543 Zr 0.70941 0.20927 0.48120
 O544 O 0.73872 0.23966 0.44794
 Zr545 Zr 0.76881 0.20987 0.54080
 O546 O 0.80173 0.23920 0.51018
 Zr547 Zr 0.70906 0.26939 0.54027
 O548 O 0.73948 0.30238 0.51069
 O549 O 0.78230 0.28261 0.46743
 O550 O 0.71723 0.21766 0.53274
 C551 C 0.85424 0.27470 0.47370
 C552 C 0.77514 0.27568 0.39550
 C553 C 0.77635 0.35492 0.47510
 C554 C 0.64633 0.22313 0.52558
 C555 C 0.72331 0.14678 0.52764
 C556 C 0.72337 0.22433 0.60348
 H557 H 0.76656 0.17507 0.48433
 H558 H 0.76603 0.26743 0.57487
 H559 H 0.79675 0.29711 0.45293
 H560 H 0.67502 0.26628 0.48291
 H561 H 0.68116 0.21902 0.42310
 H562 H 0.67792 0.27662 0.42469
 H563 H 0.80546 0.22955 0.59183
 H564 H 0.84413 0.30323 0.55620
 H565 H 0.69645 0.15593 0.44421
 H566 H 0.79843 0.19327 0.40450
 H567 H 0.72883 0.30782 0.58978
 H568 H 0.76611 0.33918 0.55542
 H569 H 0.84214 0.19329 0.44117
 H570 H 0.81935 0.17347 0.52175
 H571 H 0.69519 0.34055 0.48364
 H572 H 0.65801 0.30587 0.52020
 O573 O 0.75198 0.79382 -0.08946
 O574 O 0.69295 0.78878 -0.07768
 O575 O 0.79257 0.84071 -0.00092
 O576 O 0.79418 0.83061 0.05500
 O577 O 0.84004 0.75120 -0.04344
 O578 O 0.82885 0.69323 -0.03830
 O579 O 0.70553 0.74910 0.08955
 O580 O 0.71188 0.80666 0.07940
 O581 O 0.66111 0.70623 0.00294
 O582 O 0.66990 0.70912 -0.05412
 O583 O 0.74699 0.66101 0.04442
 O584 O 0.80740 0.67255 0.04354
 O585 O 0.74622 0.70794 0.08984
 O586 O 0.80887 0.71070 0.07699
 O587 O 0.70702 0.66058 0.00292
 O588 O 0.71263 0.67594 -0.06041
 O589 O 0.66124 0.74659 0.04430
 O590 O 0.67190 0.80781 0.03366
 O591 O 0.79228 0.75221 -0.08957
 O592 O 0.78490 0.69111 -0.07603
 O593 O 0.84039 0.79189 -0.00229
 O594 O 0.82664 0.78723 0.05911
 O595 O 0.75301 0.84056 -0.04297
 O596 O 0.69216 0.82769 -0.03187
 Zr597 Zr 0.73146 0.79169 -0.04027
 O598 O 0.69919 0.76108 -0.01081
 Zr599 Zr 0.79134 0.79099 0.01897
 O600 O 0.76071 0.76167 0.05146
 Zr601 Zr 0.79076 0.73113 -0.04048
 O602 O 0.76119 0.69871 -0.01001
 Zr603 Zr 0.70925 0.76958 0.04063
 O604 O 0.73982 0.80266 0.01130
 Zr605 Zr 0.70977 0.70945 -0.01850
 O606 O 0.73930 0.73984 -0.05142
 Zr607 Zr 0.76876 0.70982 0.04145
 O608 O 0.80194 0.73920 0.01104
 O609 O 0.78265 0.78259 -0.03199
 O610 O 0.71738 0.71775 0.03301
 C611 C 0.77525 0.77610 -0.10383
 C612 C 0.77603 0.85498 -0.02508
 C613 C 0.85454 0.77464 -0.02605
 C614 C 0.72231 0.72509 0.10384
 C615 C 0.64711 0.72272 0.02725
 C616 C 0.72346 0.64660 0.02721
 H617 H 0.67534 0.76633 -0.01652
 H618 H 0.76688 0.67483 -0.01536
 H619 H 0.79720 0.79705 -0.04643
 H620 H 0.76583 0.76762 0.07522
 H621 H 0.71905 0.82814 0.06844
 H622 H 0.77645 0.82605 0.07207
 H623 H 0.72933 0.65800 -0.05496
 H624 H 0.80306 0.69298 -0.09331
 H625 H 0.65614 0.80692 0.05320
 H626 H 0.69404 0.84626 -0.04874
 H627 H 0.80680 0.65971 0.02203
 H628 H 0.83852 0.69403 -0.01520
 H629 H 0.69423 0.80925 -0.09231
 H630 H 0.67419 0.72849 -0.06950
 H631 H 0.84000 0.76629 0.05515
 H632 H 0.80488 0.72998 0.09257
 O633 O 1.00180 0.16006 0.20625
 O634 O 0.94288 0.17191 0.21124
 O635 O 1.04227 0.24954 0.15980
 O636 O 1.04376 0.30557 0.17011
 O637 O 1.09006 0.20651 0.24858
 O638 O 1.07891 0.21109 0.30625
 O639 O 0.95521 0.33967 0.25174
 O640 O 0.96155 0.32988 0.19441
 O641 O 0.91092 0.25221 0.29381
 O642 O 0.91998 0.19500 0.29097
 O643 O 0.99708 0.29381 0.33908
 O644 O 1.05735 0.29321 0.32731
 O645 O 0.99599 0.33979 0.29257
 O646 O 1.05863 0.32703 0.28957
 O647 O 0.95710 0.25213 0.33941
 O648 O 0.96270 0.18860 0.32367
 O649 O 0.91091 0.29395 0.25383
 O650 O 0.92169 0.28383 0.19297
 O651 O 1.04219 0.15981 0.24751
 O652 O 1.03508 0.17318 0.30835
 O653 O 1.09021 0.24814 0.20837
 O654 O 1.07623 0.30962 0.21321
 O655 O 1.00288 0.20716 0.15979
 O656 O 0.94202 0.21815 0.17282
 Zr657 Zr 0.98138 0.20953 0.20852
 O658 O 0.94910 0.23889 0.23925
 Zr659 Zr 1.04107 0.26918 0.20939
 O660 O 1.01044 0.30158 0.23884
 Zr661 Zr 1.04075 0.20908 0.26863
 O662 O 1.01116 0.23945 0.30115
 Zr663 Zr 0.95900 0.29065 0.23105
 O664 O 0.98957 0.26143 0.19788
 Zr665 Zr 0.95972 0.23092 0.29059
 O666 O 0.98928 0.19809 0.26006
 Zr667 Zr 1.01860 0.29123 0.29036
 O668 O 1.05178 0.26092 0.26086
 O669 O 1.03258 0.21787 0.21747
 O670 O 0.96719 0.28275 0.28260
 C671 C 1.02501 0.14551 0.22385
 C672 C 1.02577 0.22535 0.14547
 C673 C 1.10451 0.22431 0.22544
 C674 C 0.97204 0.35392 0.27564
 C675 C 0.89678 0.27658 0.27743
 C676 C 0.97365 0.27638 0.35344
 H677 H 0.92526 0.23312 0.23402
 H678 H 1.01691 0.23394 0.32487
 H679 H 1.04716 0.20346 0.20299
 H680 H 1.01551 0.32550 0.23304
 H681 H 0.96870 0.31905 0.17293
 H682 H 1.02605 0.32271 0.17481
 H683 H 0.97947 0.19396 0.34148
 H684 H 1.05323 0.15583 0.30634
 H685 H 0.90593 0.30346 0.19391
 H686 H 0.94392 0.20137 0.15420
 H687 H 1.05685 0.27152 0.33997
 H688 H 1.08846 0.23435 0.30566
 H689 H 0.94412 0.15737 0.19076
 H690 H 0.92400 0.17993 0.27134
 H691 H 1.08956 0.30566 0.23406
 H692 H 1.05454 0.34283 0.27052
 O693 O 0.66004 1.04343 0.74810
 O694 O 0.67193 1.03860 0.80697
 O695 O 0.74895 1.09047 0.70745
 O696 O 0.80474 1.08024 0.70550
 O697 O 0.70621 1.00098 0.65994
 O698 O 0.71131 0.94305 0.67112
 O699 O 0.83910 0.99841 0.79449
 O700 O 0.82931 1.05609 0.78773
 O701 O 0.75241 0.95622 0.83892
 O702 O 0.69539 0.95862 0.82995
 O703 O 0.79404 0.91067 0.75270
 O704 O 0.79315 0.92239 0.69240
 O705 O 0.83940 0.95737 0.75375
 O706 O 0.82674 0.96048 0.69107
 O707 O 0.75276 0.91029 0.79294
 O708 O 0.68925 0.92563 0.78733
 O709 O 0.79371 0.99666 0.83872
 O710 O 0.78341 1.05771 0.82766
 O711 O 0.65992 1.00181 0.70789
 O712 O 0.67364 0.94079 0.71509
 O713 O 0.74744 1.04160 0.65957
 O714 O 0.80885 1.03683 0.67328
 O715 O 0.70676 1.09037 0.74688
 O716 O 0.71775 1.07741 0.80768
 Zr717 Zr 0.70935 1.04144 0.76841
 O718 O 0.73881 1.01080 0.80065
 Zr719 Zr 0.76865 1.04069 0.70856
 O720 O 0.80116 1.01135 0.73915
 Zr721 Zr 0.70912 0.98089 0.70921
 O722 O 0.73960 0.94843 0.73877
 Zr723 Zr 0.79030 1.01926 0.79057
 O724 O 0.76097 1.05236 0.76002
 Zr725 Zr 0.73115 0.95914 0.79018
 O726 O 0.69823 0.98958 0.76066
 Zr727 Zr 0.79109 0.95953 0.73112
 O728 O 0.76068 0.98892 0.69799
 O729 O 0.71761 1.03236 0.71725
 O730 O 0.78268 0.96743 0.78250
 C731 C 0.64559 1.02559 0.72502
 C732 C 0.72483 1.10481 0.72400
 C733 C 0.72371 1.02435 0.64542
 C734 C 0.85334 0.97433 0.77778
 C735 C 0.77658 0.97290 0.85295
 C736 C 0.77696 0.89627 0.77633
 H737 H 0.73307 1.01610 0.82446
 H738 H 0.73426 0.92456 0.73310
 H739 H 0.70314 1.04684 0.70273
 H740 H 0.82496 1.01725 0.73404
 H741 H 0.81845 1.07763 0.78056
 H742 H 0.82180 1.07575 0.72324
 H743 H 0.69481 0.90758 0.77079
 H744 H 0.65633 0.94265 0.69698
 H745 H 0.80300 1.05693 0.84336
 H746 H 0.70092 1.09604 0.80579
 H747 H 0.77164 0.90952 0.69305
 H748 H 0.73442 0.94384 0.66142
 H749 H 0.65731 1.05909 0.80572
 H750 H 0.68031 0.97830 0.82597
 H751 H 0.80487 1.01590 0.65995
 H752 H 0.84249 0.97958 0.69523
 O753 O 0.65949 0.54414 0.24830
 O754 O 0.67130 0.53888 0.30731
 O755 O 0.74808 0.59108 0.20773
 O756 O 0.80394 0.58100 0.20587
 O757 O 0.70553 0.50151 0.16030
 O758 O 0.71064 0.44353 0.17155
 O759 O 0.83871 0.49918 0.29444
 O760 O 0.82867 0.55677 0.28807
 O761 O 0.75193 0.45671 0.33919
 O762 O 0.69498 0.45897 0.33029
 O763 O 0.79360 0.41136 0.25287
 O764 O 0.79252 0.42304 0.19257
 O765 O 0.83894 0.45824 0.25360
 O766 O 0.82599 0.46116 0.19109
 O767 O 0.75232 0.41083 0.29311
 O768 O 0.68876 0.42616 0.28758
 O769 O 0.79328 0.49707 0.33896
 O770 O 0.78286 0.55818 0.32803
 O771 O 0.65939 0.50256 0.20804
 O772 O 0.67291 0.44147 0.21557
 O773 O 0.74664 0.54225 0.15989
 O774 O 0.80810 0.53763 0.17351
 O775 O 0.70606 0.59090 0.24736
 O776 O 0.71704 0.57788 0.30812
 Zr777 Zr 0.70873 0.54195 0.26880
 O778 O 0.73829 0.51131 0.30096
 Zr779 Zr 0.76795 0.54135 0.20886
 O780 O 0.80052 0.51201 0.23936
 Zr781 Zr 0.70849 0.48146 0.20955
 O782 O 0.73905 0.44902 0.23902
 Zr783 Zr 0.78977 0.51982 0.29083
 O784 O 0.76033 0.55293 0.26036
 Zr785 Zr 0.73067 0.45967 0.29045
 O786 O 0.69763 0.49009 0.26102
 Zr787 Zr 0.79050 0.46020 0.23128
 O788 O 0.76001 0.48959 0.19823
 O789 O 0.71697 0.53292 0.21763
 O790 O 0.78219 0.46800 0.28270
 C791 C 0.64511 0.52644 0.22505
 C792 C 0.72396 0.60536 0.22435
 C793 C 0.72292 0.52495 0.14577
 C794 C 0.85298 0.47525 0.27752
 C795 C 0.77613 0.47334 0.35321
 C796 C 0.77654 0.39690 0.27647
 H797 H 0.73258 0.51658 0.32479
 H798 H 0.73372 0.42514 0.23334
 H799 H 0.70252 0.54741 0.20311
 H800 H 0.82429 0.51797 0.23419
 H801 H 0.81776 0.57828 0.28088
 H802 H 0.82106 0.57646 0.22355
 H803 H 0.69435 0.40807 0.27110
 H804 H 0.65562 0.44332 0.19743
 H805 H 0.80243 0.55735 0.34374
 H806 H 0.70010 0.59641 0.30630
 H807 H 0.77106 0.41010 0.19330
 H808 H 0.73371 0.44437 0.16176
 H809 H 0.65660 0.55931 0.30607
 H810 H 0.67994 0.47871 0.32647
 H811 H 0.80411 0.51674 0.16011
 H812 H 0.84160 0.48042 0.19507
 O813 O 0.59024 0.20607 0.74775
 O814 O 0.57857 0.21118 0.80672
 O815 O 0.50138 0.15896 0.70760
 O816 O 0.44564 0.16922 0.70539
 O817 O 0.54393 0.24886 0.65987
 O818 O 0.53883 0.30670 0.67125
 O819 O 0.41100 0.25056 0.79440
 O820 O 0.42117 0.19310 0.78797
 O821 O 0.49788 0.29315 0.83900
 O822 O 0.55477 0.29102 0.82996
 O823 O 0.45609 0.33875 0.75286
 O824 O 0.45686 0.32712 0.69261
 O825 O 0.41062 0.29166 0.75370
 O826 O 0.42349 0.28899 0.69117
 O827 O 0.49753 0.33921 0.79289
 O828 O 0.56099 0.32380 0.78729
 O829 O 0.45658 0.25274 0.83884
 O830 O 0.46706 0.19170 0.82777
 O831 O 0.59025 0.24775 0.70759
 O832 O 0.57660 0.30875 0.71515
 O833 O 0.50291 0.20805 0.65952
 O834 O 0.44147 0.21255 0.67337
 O835 O 0.54354 0.15913 0.74702
 O836 O 0.53286 0.17219 0.80774
 Zr837 Zr 0.54102 0.20812 0.76835
 O838 O 0.51149 0.23866 0.80064
 Zr839 Zr 0.48170 0.20878 0.70858
 O840 O 0.44915 0.23803 0.73924
 Zr841 Zr 0.54108 0.26871 0.70920
 O842 O 0.51054 0.30106 0.73881
 Zr843 Zr 0.46000 0.23012 0.79066
 O844 O 0.48941 0.19712 0.76004
 Zr845 Zr 0.51904 0.29033 0.79019
 O846 O 0.55204 0.26000 0.76062
 Zr847 Zr 0.45906 0.28989 0.73125
 O848 O 0.48953 0.26059 0.69805
 O849 O 0.53270 0.21719 0.71719
 O850 O 0.46749 0.28200 0.78263
 C851 C 0.60460 0.22390 0.72458
 C852 C 0.52544 0.14462 0.72423
 C853 C 0.52650 0.22549 0.64533
 C854 C 0.39663 0.27448 0.77757
 C855 C 0.47376 0.27644 0.85308
 C856 C 0.47332 0.35322 0.77632
 H857 H 0.51726 0.23336 0.82445
 H858 H 0.51586 0.32495 0.73313
 H859 H 0.54713 0.20270 0.70262
 H860 H 0.42539 0.23203 0.73412
 H861 H 0.43210 0.17163 0.78072
 H862 H 0.42881 0.17341 0.72343
 H863 H 0.55547 0.34182 0.77072
 H864 H 0.59387 0.30698 0.69697
 H865 H 0.44752 0.19246 0.84354
 H866 H 0.54981 0.15368 0.80589
 H867 H 0.47837 0.33999 0.69319
 H868 H 0.51572 0.30592 0.66159
 H869 H 0.59327 0.19075 0.80544
 H870 H 0.56973 0.27120 0.82619
 H871 H 0.44540 0.23348 0.66000
 H872 H 0.40796 0.26966 0.69511
 O873 O 0.29411 0.83994 0.49823
 O874 O 0.28860 0.82824 0.55726
 O875 O 0.34063 0.75081 0.45797
 O876 O 0.33042 0.69477 0.45610
 O877 O 0.25139 0.79368 0.41023
 O878 O 0.19375 0.78909 0.42154
 O879 O 0.24858 0.66035 0.54478
 O880 O 0.30603 0.67011 0.53836
 O881 O 0.20640 0.74757 0.58912
 O882 O 0.20901 0.80477 0.58023
 O883 O 0.16138 0.70591 0.50291
 O884 O 0.17326 0.70692 0.44248
 O885 O 0.20782 0.66024 0.50393
 O886 O 0.21096 0.67293 0.44139
 O887 O 0.16090 0.74744 0.54303
 O888 O 0.17637 0.81117 0.53742
 O889 O 0.24654 0.70593 0.58905
 O890 O 0.30749 0.71618 0.57825
 O891 O 0.25280 0.84018 0.45789
 O892 O 0.19186 0.82695 0.46551
 O893 O 0.29188 0.75228 0.40992
 O894 O 0.28732 0.69066 0.42379
 O895 O 0.34050 0.79298 0.49759
 O896 O 0.32731 0.78213 0.55829
 Zr897 Zr 0.29167 0.79057 0.51885
 O898 O 0.26100 0.76107 0.55103
 Zr899 Zr 0.29102 0.73106 0.45901
 O900 O 0.26164 0.69850 0.48954
 Zr901 Zr 0.23154 0.79100 0.45953
 O902 O 0.19907 0.76049 0.48899
 Zr903 Zr 0.26936 0.70934 0.54100
 O904 O 0.30247 0.73871 0.51052
 Zr905 Zr 0.20961 0.76895 0.54041
 O906 O 0.24008 0.80194 0.51098
 Zr907 Zr 0.21007 0.70877 0.48137
 O908 O 0.23950 0.73923 0.44832
 O909 O 0.28277 0.78228 0.46766
 O910 O 0.21778 0.71718 0.53277
 C911 C 0.27661 0.85441 0.47491
 C912 C 0.35492 0.77492 0.47466
 C913 C 0.27461 0.77605 0.39572
 C914 C 0.22465 0.64614 0.52795
 C915 C 0.22284 0.72319 0.60319
 C916 C 0.14699 0.72314 0.52646
 H917 H 0.26620 0.76680 0.57487
 H918 H 0.17531 0.76594 0.48326
 H919 H 0.29727 0.79667 0.45309
 H920 H 0.26751 0.67460 0.48445
 H921 H 0.32751 0.68096 0.53124
 H922 H 0.32593 0.67771 0.47391
 H923 H 0.15838 0.80562 0.52091
 H924 H 0.19381 0.84433 0.44739
 H925 H 0.30656 0.69655 0.59400
 H926 H 0.34580 0.79908 0.55652
 H927 H 0.16014 0.72833 0.44342
 H928 H 0.19431 0.76584 0.41195
 H929 H 0.30900 0.84291 0.55604
 H930 H 0.22863 0.81989 0.57631
 H931 H 0.26645 0.69459 0.41047
 H932 H 0.23010 0.65721 0.44545
 O933 O 0.25216 0.29322 0.91037
 O934 O 0.19318 0.28817 0.92216
 O935 O 0.29249 0.34043 0.99908
 O936 O 0.29479 0.33020 1.05481
 O937 O 0.34018 0.25055 0.95644
 O938 O 0.32889 0.19268 0.96171
 O939 O 0.20579 0.24887 1.08958
 O940 O 0.21219 0.30631 1.07942
 O941 O 0.16105 0.20628 1.00277
 O942 O 0.17004 0.20831 0.94594
 O943 O 0.24734 0.16066 1.04445
 O944 O 0.30762 0.17229 1.04361
 O945 O 0.24655 0.20779 1.08991
 O946 O 0.30909 0.21045 1.07695
 O947 O 0.20721 0.16019 1.00312
 O948 O 0.21275 0.17558 0.93967
 O949 O 0.16124 0.24671 1.04405
 O950 O 0.17233 0.30775 1.03361
 O951 O 0.29234 0.25152 0.91032
 O952 O 0.28491 0.19054 0.92402
 O953 O 0.34060 0.29139 0.99743
 O954 O 0.32689 0.28686 1.05890
 O955 O 0.25300 0.34021 0.95699
 O956 O 0.19226 0.32720 0.96782
 Zr957 Zr 0.23165 0.29125 0.95959
 O958 O 0.19940 0.26072 0.98916
 Zr959 Zr 0.29157 0.29062 1.01877
 O960 O 0.26094 0.26140 1.05136
 Zr961 Zr 0.29086 0.23064 0.95947
 O962 O 0.26130 0.19831 0.99004
 Zr963 Zr 0.20946 0.26930 1.04060
 O964 O 0.24005 0.30227 1.01116
 Zr965 Zr 0.20987 0.20905 0.98160
 O966 O 0.23939 0.23936 0.94859
 Zr967 Zr 0.26894 0.20953 1.04146
 O968 O 0.30211 0.23881 1.01096
 O969 O 0.28286 0.28217 0.96783
 O970 O 0.21750 0.21741 1.03312
 C971 C 0.27532 0.27535 0.89599
 C972 C 0.27582 0.35474 0.97503
 C973 C 0.35474 0.27397 0.97379
 C974 C 0.22268 0.22497 1.10393
 C975 C 0.14697 0.22302 1.02687
 C976 C 0.22384 0.14619 1.02727
 H977 H 0.17557 0.26603 0.98343
 H978 H 0.26698 0.17443 0.98472
 H979 H 0.29738 0.29664 0.95337
 H980 H 0.26610 0.26741 1.07510
 H981 H 0.21946 0.32778 1.06851
 H982 H 0.27679 0.32599 1.07168
 H983 H 0.22930 0.15751 0.94520
 H984 H 0.30309 0.19230 0.90675
 H985 H 0.15656 0.30699 1.05315
 H986 H 0.19407 0.34570 0.95087
 H987 H 0.30705 0.15946 1.02210
 H988 H 0.33864 0.19356 0.98477
 H989 H 0.19443 0.30859 0.90745
 H990 H 0.17374 0.22816 0.93103
 H991 H 0.34028 0.26595 1.05492
 H992 H 0.30519 0.22982 1.09245
 C993 C 0.29148 0.33063 0.79088
 C994 C 0.28442 0.35957 0.78363
 C995 C 0.29065 -0.16733 0.29133
 C996 C 0.28413 -0.13814 0.28451
 C997 C 0.79227 0.83277 0.79184
 C998 C 0.78540 0.86181 0.78473
 C999 C 0.45743 0.91781 0.29215
 C1000 C 0.46444 0.88897 0.28451
 C1001 C -0.04268 0.91625 0.79289
 C1002 C -0.03563 0.88737 0.78542
 C1003 C -0.04200 -0.16694 -0.04167
 C1004 C -0.03524 -0.13795 -0.03429
 C1005 C -0.04137 0.33140 0.45917
 C1006 C -0.03454 0.36035 0.46661
 C1007 C 0.45874 -0.16751 0.45960
 C1008 C 0.46526 -0.13834 0.46645
 C1009 C 0.45889 0.33111 -0.04098
 C1010 C 0.46574 0.36004 -0.03351
 C1011 C 0.79135 0.41831 0.45907
 C1012 C 0.78450 0.38942 0.46668
 C1013 C 0.79184 0.91814 -0.04116
 C1014 C 0.78459 0.88937 -0.03348
 C1015 C 0.79106 0.29151 0.33257
 C1016 C 0.78349 0.28418 0.36123
 C1017 C 0.79118 0.79126 -0.16693
 C1018 C 0.78366 0.78427 -0.13817
 C1019 C 0.28990 0.45931 0.91821
 C1020 C 0.28288 0.46576 0.88920
 C1021 C 0.29191 -0.04192 0.41640
 C1022 C 0.28471 -0.03535 0.38745
 C1023 C -0.04235 -0.04284 -0.16523
 C1024 C -0.03514 -0.03600 -0.13636
 C1025 C -0.04131 0.45908 0.33224
 C1026 C -0.03367 0.46611 0.36095
 C1027 C 0.45756 -0.04185 0.33450
 C1028 C 0.46472 -0.03539 0.36346
 C1029 C 0.45953 0.45856 -0.16755
 C1030 C 0.46664 0.46548 -0.13867
 C1031 C 0.45968 0.79090 0.41851
 C1032 C 0.46677 0.78399 0.38962
 C1033 C -0.04168 0.79212 0.91643
 C1034 C -0.03477 0.78536 0.88745
 C1035 C 0.33116 0.79041 0.29129
 C1036 C 0.36003 0.78307 0.28442
 C1037 C -0.16670 0.79090 0.79261
 C1038 C -0.13776 0.78356 0.78600
 C1039 C 0.91758 0.28980 0.45852
 C1040 C 0.88870 0.28270 0.46552
 C1041 C 0.91750 0.79074 -0.04177
 C1042 C 0.88882 0.78310 -0.03451
 C1043 C -0.16659 -0.04065 -0.04245
 C1044 C -0.13769 -0.03353 -0.03553
 C1045 C -0.16759 0.45992 0.45822
 C1046 C -0.13874 0.46709 0.46526
 C1047 C 0.33338 -0.04095 0.45756
 C1048 C 0.36226 -0.03376 0.46450
 C1049 C 0.33139 0.46022 -0.04078
 C1050 C 0.36035 0.46732 -0.03411
 C1051 C 0.41806 0.45921 0.79145
 C1052 C 0.38920 0.46657 0.78465
 C1053 C 0.41611 -0.04075 0.29338
 C1054 C 0.38722 -0.03355 0.28650
 C1055 C 0.08380 0.54108 0.70774
 C1056 C 0.11279 0.53448 0.71487
 C1057 C 0.08167 0.04061 0.21014
 C1058 C 0.11066 0.03401 0.21719
 C1059 C 0.66596 0.70915 0.20867
 C1060 C 0.63696 0.71566 0.21582
 C1061 C 0.16726 0.70775 0.70866
 C1062 C 0.13855 0.71493 0.71627
 C1063 C 0.58277 0.20891 0.54079
 C1064 C 0.61184 0.21521 0.53380
 C1065 C 0.58411 0.70700 0.04327
 C1066 C 0.61294 0.71400 0.03596
 C1067 C 0.16770 0.04086 0.04090
 C1068 C 0.13881 0.03397 0.03379
 C1069 C 0.16647 0.54199 0.54196
 C1070 C 0.13766 0.53526 0.53438
 C1071 C 0.66752 0.04117 0.54093
 C1072 C 0.63867 0.03417 0.53376
 C1073 C 0.66573 0.54219 0.04191
 C1074 C 0.63676 0.53541 0.03498
 C1075 C 0.04066 0.03974 0.16867
 C1076 C 0.03399 0.03250 0.13976
 C1077 C 0.04248 0.54051 0.66637
 C1078 C 0.03546 0.53356 0.63747
 C1079 C 0.54088 0.03908 0.66872
 C1080 C 0.53415 0.03202 0.63978
 C1081 C 0.54163 0.54083 0.16671
 C1082 C 0.53509 0.53342 0.13781
 C1083 C 0.20721 0.54070 0.58386
 C1084 C 0.21399 0.53310 0.61265
 C1085 C 0.20870 0.04016 0.08235
 C1086 C 0.21546 0.03278 0.11120
 C1087 C 0.70862 0.20944 0.66699
 C1088 C 0.71521 0.21627 0.63795
 C1089 C 0.70704 0.70982 0.16712
 C1090 C 0.71388 0.71684 0.13818
 C1091 C 0.54290 0.70745 0.08478
 C1092 C 0.53577 0.71472 0.11358
 C1093 C 0.04208 0.70893 0.58274
 C1094 C 0.03484 0.71658 0.61140
 C1095 C 0.54051 0.58283 0.20752
 C1096 C 0.53323 0.61186 0.21426
 C1097 C 0.04142 0.58151 0.70814
 C1098 C 0.03380 0.61027 0.71552
 C1099 C 0.04093 0.16846 0.04135
 C1100 C 0.03349 0.13953 0.03450
 C1101 C 0.04234 0.66641 0.54253
 C1102 C 0.03528 0.63730 0.53596
 C1103 C 0.54054 0.16851 0.54113
 C1104 C 0.53317 0.13953 0.53442
 C1105 C 0.54226 0.66599 0.04339
 C1106 C 0.53474 0.63718 0.03612
 C1107 C 0.70842 0.08297 0.54223
 C1108 C 0.71519 0.11220 0.53585
 C1109 C 0.70757 0.58317 0.04229
 C1110 C 0.71492 0.61217 0.03558
 C1111 C 0.20834 0.66603 0.70767
 C1112 C 0.21539 0.63701 0.71465
 C1113 C 0.20950 0.16881 0.20898
 C1114 C 0.21664 0.13983 0.21599
 C1115 C 0.70966 1.16833 0.70860
 C1116 C 0.71683 1.13938 0.71569
 C1117 C 0.70818 0.66866 0.20871
 C1118 C 0.71567 0.63982 0.21591
 C1119 C 0.54029 0.08083 0.70961
 C1120 C 0.53326 0.10992 0.71628
 C1121 C 1.04006 0.08170 0.20941
 C1122 C 1.03300 0.11082 0.21599
 C1123 C 0.20841 0.58284 0.54319
 C1124 C 0.21597 0.61178 0.53645
 C1125 C 0.20882 0.08243 1.04191
 C1126 C 0.21570 0.11160 1.03541
 C1127 C 0.20768 0.70760 0.66642
 C1128 C 0.21437 0.71473 0.63748
 C1129 C 0.20817 0.21004 1.16749
 C1130 C 0.21457 0.21693 1.13841
 C1131 C 0.70738 0.54089 0.08279
 C1132 C 0.71454 0.53333 0.11148
 C1133 C 0.70861 1.04032 0.58232
 C1134 C 0.71551 1.03271 0.61108
 C1135 C 0.54143 0.21028 0.58199
 C1136 C 0.53458 0.21748 0.61087
 C1137 C 1.04141 0.21016 0.08230
 C1138 C 1.03419 0.21735 0.11109
 C1139 C 0.66799 0.20934 0.70897
 C1140 C 0.63908 0.21603 0.71630
 C1141 C 1.16786 0.20979 0.20974
 C1142 C 1.13898 0.21642 0.21720
 C1143 C 0.08373 0.70780 0.54180
 C1144 C 0.11265 0.71473 0.53478
 C1145 C 0.08331 0.20874 1.04165
 C1146 C 0.11247 0.21503 1.03497
 C1147 C 0.58198 0.54150 0.20895
 C1148 C 0.61075 0.53461 0.21659
 C1149 C 0.58197 1.03983 0.71012
 C1150 C 0.61099 1.03330 0.71710
 C1151 C 0.91631 0.45952 0.29212
 C1152 C 0.88735 0.46685 0.28570
 C1153 C 0.91627 0.95812 0.79354
 C1154 C 0.88751 0.96562 0.78648
 C1155 C 0.33307 0.28944 0.79220
 C1156 C 0.36214 0.28254 0.78573
 C1157 C 0.83340 0.29193 0.29235
 C1158 C 0.86242 0.28490 0.28579
 C1159 C 0.41823 0.79029 0.45961
 C1160 C 0.38937 0.78298 0.46650
 C1161 C 0.41796 0.28935 0.95838
 C1162 C 0.38914 0.28209 0.96548
 C1163 C 0.79137 0.45867 0.41666
 C1164 C 0.78444 0.46512 0.38761
 C1165 C 0.79204 0.95832 0.91632
 C1166 C 0.78495 0.96471 0.88731
 C1167 C 0.28970 0.79103 0.33236
 C1168 C 0.28261 0.78410 0.36125
 C1169 C 0.29094 0.28976 0.83264
 C1170 C 0.28356 0.28317 0.86153
 C1171 C 0.45880 0.29082 0.91665
 C1172 C 0.46560 0.28449 0.88754
 C1173 C 0.95863 0.29086 0.41699
 C1174 C 0.96550 0.28439 0.38792
 C1175 C 0.45860 0.41697 0.79136
 C1176 C 0.46515 0.38780 0.78448
 C1177 C 0.95710 0.41750 0.29110
 C1178 C 0.96373 0.38842 0.28399
 C1179 C 0.29202 0.91765 0.45873
 C1180 C 0.28495 0.88883 0.46638
 C1181 C 0.29047 0.41848 0.96000
 C1182 C 0.28380 0.38941 0.96713
 C1183 C 0.79204 0.33340 0.29172
 C1184 C 0.78504 0.36244 0.28477
   
