data_POSCAR
  _audit_creation_date              2014-09-24
  _audit_creation_method            'ToBaCCo'
  _symmetry_space_group_name_H-M    'P1'
  _symmetry_Int_Tables_number       1
  _symmetry_cell_setting            triclinic
  loop_
  _symmetry_equiv_pos_as_xyz
 x,y,z
_cell_length_a 35.6750
_cell_length_b 35.2104
_cell_length_c 35.1056
_cell_angle_alpha 92.735600
_cell_angle_beta 89.610800
_cell_angle_gamma 91.299200
loop_
  _atom_site_label
  _atom_site_type_symbol
  _atom_site_fract_x
  _atom_site_fract_y
  _atom_site_fract_z
C1 C 0.76802 0.67962 1.04652
 C2 C 0.76964 0.66026 1.00642
 C3 C 0.73995 0.63658 0.99797
 C4 C 0.71123 0.63433 1.03031
 C5 C 0.73014 0.69925 1.04864
 C6 C 0.70051 0.67565 1.03986
 C7 C 0.76365 0.64670 1.07368
 C8 C 0.73400 0.62289 1.06475
 H9 H 0.79273 0.66468 0.98682
 H10 H 0.68683 0.61505 1.02364
 H11 H 0.72729 0.72954 1.05452
 H12 H 0.78249 0.64201 1.09693
 C13 C 0.79783 0.36541 0.49107
 C14 C 0.79120 0.38479 0.53060
 C15 C 0.75452 0.38888 0.54017
 C16 C 0.72744 0.37300 0.50947
 C17 C 0.77588 0.32750 0.49232
 C18 C 0.73896 0.33135 0.50206
 C19 C 0.77594 0.38895 0.46350
 C20 C 0.73923 0.39320 0.47332
 H21 H 0.81375 0.39483 0.54922
 H22 H 0.69750 0.37657 0.51729
 H23 H 0.78880 0.30014 0.48740
 H24 H 0.78888 0.40247 0.43950
 C25 C 0.27482 -0.12874 -0.04868
 C26 C 0.28152 -0.11021 -0.01107
 C27 C 0.24776 -0.09656 0.00719
 C28 C 0.21401 -0.10437 -0.01588
 C29 C 0.24703 -0.15866 -0.04245
 C30 C 0.21353 -0.14560 -0.02407
 C31 C 0.25553 -0.10076 -0.07012
 C32 C 0.22174 -0.08760 -0.05259
 H33 H 0.30906 -0.10646 0.00151
 H34 H 0.18782 -0.09395 -0.00217
 H35 H 0.25192 -0.18850 -0.04943
 H36 H 0.26610 -0.09037 -0.09679
 C37 C 0.28575 0.15673 0.53293
 C38 C 0.29197 0.13689 0.49341
 C39 C 0.25937 0.12526 0.47569
 C40 C 0.22383 0.13467 0.49900
 C41 C 0.25902 0.18912 0.52588
 C42 C 0.22675 0.17773 0.50797
 C43 C 0.26210 0.12816 0.55501
 C44 C 0.22964 0.11674 0.53754
 H45 H 0.31936 0.13238 0.48083
 H46 H 0.19725 0.12536 0.48481
 H47 H 0.26538 0.21861 0.53409
 H48 H 0.27048 0.11814 0.58229
 C49 C 0.18741 0.53635 0.25942
 C50 C 0.16722 0.49882 0.26825
 C51 C 0.14324 0.48549 0.24046
 C52 C 0.14203 0.51071 0.20604
 C53 C 0.20654 0.52863 0.22073
 C54 C 0.18294 0.51519 0.19289
 C55 C 0.15601 0.56384 0.25108
 C56 C 0.13220 0.55034 0.22313
 H57 H 0.17071 0.48504 0.29487
 H58 H 0.12288 0.49986 0.18299
 H59 H 0.23610 0.53403 0.21551
 H60 H 0.15320 0.59141 0.26571
 C61 C -0.12146 -0.00394 0.31322
 C62 C -0.09730 0.03268 0.31442
 C63 C -0.08717 0.04463 0.27939
 C64 C -0.10209 0.01844 0.24628
 C65 C -0.15485 0.00491 0.28829
 C66 C -0.14498 0.01670 0.25310
 C67 C -0.10012 -0.03160 0.29098
 C68 C -0.08890 -0.01934 0.25434
 H69 H -0.08941 0.04786 0.34075
 H70 H -0.09386 0.02816 0.21773
 H71 H -0.18364 0.00299 0.29815
 H72 H -0.09170 -0.05821 0.30220
 C73 C 0.37073 0.45909 0.75341
 C74 C 0.39321 0.49264 0.77203
 C75 C 0.42318 0.50410 0.75083
 C76 C 0.42798 0.48082 0.71306
 C77 C 0.36035 0.47245 0.71399
 C78 C 0.39016 0.48412 0.69293
 C79 C 0.39939 0.42789 0.74544
 C80 C 0.42951 0.43927 0.72449
 H81 H 0.38526 0.50659 0.79892
 H82 H 0.45237 0.49006 0.69570
 H83 H 0.33170 0.47413 0.70439
 H84 H 0.39635 0.39969 0.75625
 C85 C 0.67994 0.99044 0.80712
 C86 C 0.65528 0.95497 0.81326
 C87 C 0.63754 0.94089 0.78135
 C88 C 0.64619 0.96366 0.74609
 C89 C 0.70672 0.97870 0.77459
 C90 C 0.68914 0.96467 0.74260
 C91 C 0.65519 1.01781 0.79068
 C92 C 0.63652 1.00289 0.75678
 H93 H 0.65168 0.94285 0.84085
 H94 H 0.63226 0.95150 0.71993
 H95 H 0.73683 0.98330 0.77607
 H96 H 0.65233 1.04680 0.80177
 C97 C -0.04028 0.29010 -0.15883
 C98 C -0.00018 0.29179 -0.14367
 C99 C 0.01114 0.25907 -0.12871
 C100 C -0.01884 0.22712 -0.13065
 C101 C -0.04155 0.25601 -0.18733
 C102 C -0.03038 0.22299 -0.17289
 C103 C -0.06444 0.27775 -0.12506
 C104 C -0.05291 0.24493 -0.11014
 H105 H 0.01691 0.31758 -0.14341
 H106 H -0.00980 0.20026 -0.11858
 H107 H -0.05041 0.25806 -0.21660
 H108 H -0.08723 0.29416 -0.11292
 C109 C 0.49176 0.28709 0.14366
 C110 C 0.46266 0.29780 0.11422
 C111 C 0.45682 0.27072 0.08582
 C112 C 0.48090 0.23571 0.08906
 C113 C 0.47756 0.24855 0.15759
 C114 C 0.47209 0.22164 0.12883
 C115 C 0.52732 0.27762 0.12018
 C116 C 0.52139 0.25076 0.09162
 H117 H 0.44712 0.32387 0.11671
 H118 H 0.47609 0.21374 0.06576
 H119 H 0.47317 0.24301 0.18738
 H120 H 0.55492 0.28937 0.12661
 C121 C 1.00501 0.75256 0.65661
 C122 C 0.97980 0.76422 0.62703
 C123 C 0.97139 0.73482 0.59860
 C124 C 0.99071 0.69959 0.60483
 C125 C 0.98688 0.71860 0.67180
 C126 C 0.97875 0.68932 0.64294
 C127 C 1.03844 0.73888 0.63651
 C128 C 1.03062 0.70942 0.60801
 H129 H 0.96602 0.79137 0.62843
 H130 H 0.98458 0.67708 0.58232
 H131 H 0.97886 0.71616 0.70140
 H132 H 1.06665 0.74842 0.64398
 C133 C 0.48295 0.80314 0.34169
 C134 C 0.52026 0.80432 0.36330
 C135 C 0.52830 0.77121 0.37966
 C136 C 0.49810 0.73998 0.37326
 C137 C 0.48559 0.76892 0.31345
 C138 C 0.49365 0.73583 0.32971
 C139 C 0.45350 0.79127 0.37120
 C140 C 0.46179 0.75843 0.38802
 H141 H 0.53848 0.82933 0.36532
 H142 H 0.50432 0.71302 0.38685
 H143 H 0.48266 0.77117 0.28295
 H144 H 0.43011 0.80864 0.38024
 C145 C 0.41800 -0.02331 0.25454
 H146 H 0.42978 0.00195 0.24243
 C147 C 0.44187 -0.05059 0.26760
 H148 H 0.47188 -0.04617 0.26495
 C149 C 0.36479 -0.05933 0.27365
 H150 H 0.33461 -0.06237 0.27582
 C151 C 0.38769 -0.08731 0.28728
 H152 H 0.37480 -0.11202 0.29953
 N153 N 0.38021 -0.02836 0.25729
 C154 C 0.37558 0.08448 0.23028
 H155 H 0.35926 0.09252 0.25527
 C156 C 0.39563 0.11242 0.21115
 H157 H 0.39448 0.14167 0.22186
 C158 C 0.39523 0.03696 0.18486
 H159 H 0.39461 0.00748 0.17465
 C160 C 0.41552 0.06385 0.16490
 H161 H 0.43058 0.05478 0.13930
 Zn162 Zn 0.34774 0.00859 0.23975
 N163 N 0.37591 0.04756 0.21696
 C164 C 0.34324 0.04372 0.31194
 N165 N 0.32143 0.02873 0.28308
 C166 C 0.28343 0.02781 0.28623
 C167 C 0.26602 0.04350 0.31898
 C168 C 0.32705 0.05970 0.34512
 C169 C 0.32624 -0.04721 0.18309
 C170 C 0.30817 -0.06097 0.14981
 C171 C 0.26904 -0.00587 0.15358
 C172 C 0.28853 0.00738 0.18621
 N173 N 0.31637 -0.01346 0.20050
 H174 H 0.37345 0.04352 0.30896
 H175 H 0.26655 0.01486 0.26349
 H176 H 0.23571 0.04276 0.32083
 H177 H 0.34522 0.07163 0.36731
 H178 H 0.34933 -0.06273 0.19395
 H179 H 0.31673 -0.08756 0.13602
 H180 H 0.24712 0.01113 0.14237
 H181 H 0.28222 0.03488 0.19945
 C182 C 0.41581 0.10219 0.17783
 C183 C 0.42684 -0.08316 0.28411
 C184 C 0.27934 -0.04006 0.13457
 C185 C 0.28784 0.05999 0.34894
 C186 C 0.03415 1.03904 0.78245
 H187 H 0.03723 1.01662 0.80207
 C188 C 0.01134 1.06983 0.79261
 H189 H -0.00361 1.07065 0.81956
 C190 C 0.05158 1.06727 0.72485
 H191 H 0.06824 1.06751 0.69919
 C192 C 0.02814 1.09763 0.73319
 H193 H 0.02671 1.12042 0.71363
 N194 N 0.05456 1.03871 0.74942
 C195 C 0.08375 0.92977 0.69928
 H196 H 0.10605 0.94059 0.68160
 C197 C 0.07043 0.89258 0.69224
 H198 H 0.08229 0.87571 0.66879
 C199 C 0.04366 0.93746 0.75295
 H200 H 0.03380 0.95475 0.77700
 C201 C 0.02975 0.90014 0.74713
 H202 H 0.00883 0.88925 0.76651
 Zn203 Zn 0.09177 1.00118 0.73866
 N204 N 0.06991 0.95173 0.72887
 C205 C 0.14574 0.96721 0.78211
 N206 N 0.12323 0.99783 0.78177
 C207 C 0.11915 1.02140 0.81337
 C208 C 0.13532 1.01253 0.84791
 C209 C 0.16312 0.95780 0.81581
 C210 C 0.10056 1.01254 0.66082
 C211 C 0.11706 1.02557 0.62767
 C212 C 0.17263 1.04328 0.66382
 C213 C 0.15498 1.02970 0.69647
 N214 N 0.11932 1.01526 0.69450
 H215 H 0.14837 0.94879 0.75673
 H216 H 0.10203 1.04620 0.81242
 H217 H 0.13032 1.03038 0.87332
 H218 H 0.17930 0.93219 0.81598
 H219 H 0.07210 1.00125 0.66002
 H220 H 0.10113 1.02387 0.60150
 H221 H 0.20075 1.05518 0.66621
 H222 H 0.16933 1.03172 0.72356
 C223 C 0.04300 0.87729 0.71627
 C224 C 0.00849 1.09958 0.76777
 C225 C 0.15330 1.04189 0.62888
 C226 C 0.15682 0.97986 0.84956
 C227 C 0.56024 0.55021 0.30318
 H228 H 0.55684 0.52782 0.32305
 C229 C 0.53949 0.58339 0.30836
 H230 H 0.52057 0.58672 0.33246
 C231 C 0.58780 0.57298 0.24684
 H232 H 0.60624 0.56898 0.22258
 C233 C 0.56684 0.60585 0.25029
 H234 H 0.56983 0.62700 0.22901
 N235 N 0.58475 0.54608 0.27336
 C236 C 0.60065 0.42568 0.24151
 H237 H 0.63080 0.42407 0.24113
 C238 C 0.57921 0.39412 0.22857
 H239 H 0.59314 0.36828 0.21930
 C240 C 0.54594 0.46164 0.25213
 H241 H 0.53302 0.48819 0.26053
 C242 C 0.52335 0.43048 0.23992
 H243 H 0.49322 0.43334 0.23907
 Zn244 Zn 0.61510 0.50218 0.26572
 N245 N 0.58395 0.45888 0.25241
 C246 C 0.66812 0.46355 0.30763
 N247 N 0.64298 0.49210 0.31019
 C248 C 0.63587 0.51073 0.34424
 C249 C 0.65116 0.49822 0.37780
 C250 C 0.68448 0.45045 0.34045
 C251 C 0.64105 0.49438 0.18981
 C252 C 0.66103 0.50522 0.15774
 C253 C 0.69684 0.55021 0.19772
 C254 C 0.67646 0.53805 0.22930
 N255 N 0.64853 0.51126 0.22465
 H256 H 0.67477 0.45015 0.28021
 H257 H 0.61744 0.53454 0.34589
 H258 H 0.64381 0.51220 0.40487
 H259 H 0.70288 0.42645 0.33794
 H260 H 0.61812 0.47401 0.18632
 H261 H 0.65355 0.49237 0.13013
 H262 H 0.71805 0.57245 0.20175
 H263 H 0.68155 0.55135 0.25726
 C264 C 0.54007 0.39648 0.22720
 C265 C 0.54286 0.61162 0.28162
 C266 C 0.68845 0.53436 0.16118
 C267 C 0.67489 0.46700 0.37623
 C268 C 0.89451 0.47443 0.77938
 H269 H 0.90578 0.49827 0.76446
 C270 C 0.91797 0.44490 0.78752
 H271 H 0.94706 0.44631 0.77862
 C272 C 0.84307 0.44325 0.80862
 H273 H 0.81353 0.44250 0.81578
 C274 C 0.86567 0.41298 0.81745
 H275 H 0.85329 0.38901 0.83147
 N276 N 0.85744 0.47230 0.78841
 C277 C 0.86032 0.58011 0.75284
 H278 H 0.84822 0.59139 0.77917
 C279 C 0.88347 0.60348 0.73111
 H280 H 0.88867 0.63270 0.74089
 C281 C 0.86767 0.52866 0.70757
 H282 H 0.86166 0.49930 0.69877
 C283 C 0.89060 0.55093 0.68500
 H284 H 0.90193 0.53854 0.65869
 Zn285 Zn 0.82478 0.50817 0.76895
 N286 N 0.85339 0.54326 0.74098
 C287 C 0.82127 0.54933 0.83819
 N288 N 0.79956 0.53245 0.81031
 C289 C 0.76152 0.53159 0.81319
 C290 C 0.74390 0.54869 0.84506
 C291 C 0.80487 0.56691 0.87037
 C292 C 0.79776 0.44577 0.72353
 C293 C 0.78010 0.42837 0.69187
 C294 C 0.74788 0.48674 0.68246
 C295 C 0.76657 0.50331 0.71427
 N296 N 0.79153 0.48289 0.73362
 H297 H 0.85149 0.54879 0.83551
 H298 H 0.74483 0.51727 0.79108
 H299 H 0.71361 0.54771 0.84706
 H300 H 0.82287 0.57967 0.89231
 H301 H 0.81842 0.43017 0.73821
 H302 H 0.78673 0.39936 0.68323
 H303 H 0.72958 0.50373 0.66606
 H304 H 0.76285 0.53307 0.72216
 C305 C 0.89909 0.58874 0.69677
 C306 C 0.90337 0.41311 0.80561
 C307 C 0.75581 0.44927 0.67023
 C308 C 0.76563 0.56674 0.87414
 C309 C 0.29135 0.40315 -0.07499
 H310 H 0.30696 0.40580 -0.04864
 C311 C 0.30681 0.41716 -0.10835
 H312 H 0.33410 0.43115 -0.10726
 C313 C 0.23692 0.38115 -0.10833
 H314 H 0.21005 0.36645 -0.10853
 C315 C 0.25111 0.39503 -0.14215
 H316 H 0.23477 0.39112 -0.16796
 N317 N 0.25697 0.38559 -0.07556
 C318 C 0.20522 0.39099 0.03724
 H319 H 0.19700 0.36139 0.03935
 C320 C 0.19725 0.41716 0.06715
 H321 H 0.18314 0.40733 0.09231
 C322 C 0.23553 0.43905 0.00247
 H323 H 0.25070 0.44738 -0.02262
 C324 C 0.22846 0.46608 0.03185
 H325 H 0.23838 0.49512 0.02917
 Zn326 Zn 0.23886 0.36397 -0.03050
 N327 N 0.22478 0.40212 0.00615
 C328 C 0.29113 0.34510 0.02472
 N329 N 0.27829 0.33609 -0.01103
 C330 C 0.29601 0.31042 -0.03458
 C331 C 0.32833 0.29298 -0.02251
 C332 C 0.32332 0.32844 0.03789
 C333 C 0.16456 0.35192 -0.04903
 C334 C 0.13219 0.33215 -0.06083
 C335 C 0.16492 0.27321 -0.05619
 C336 C 0.19687 0.29425 -0.04432
 N337 N 0.19627 0.33293 -0.04192
 H338 H 0.27712 0.36605 0.04280
 H339 H 0.28567 0.30444 -0.06319
 H340 H 0.34251 0.27311 -0.04182
 H341 H 0.33291 0.33625 0.06638
 H342 H 0.16481 0.38266 -0.04642
 H343 H 0.10746 0.34809 -0.06649
 H344 H 0.16596 0.24251 -0.05914
 H345 H 0.22228 0.27973 -0.03801
 C346 C 0.20975 0.45510 0.06501
 C347 C 0.28660 0.41301 -0.14255
 C348 C 0.13234 0.29230 -0.06551
 C349 C 0.34274 0.30245 0.01394
 C350 C 0.80115 0.08788 1.07926
 H351 H 0.81903 0.08648 1.05425
 C352 C 0.81154 0.06944 1.11189
 H353 H 0.83716 0.05355 1.11159
 C354 C 0.74616 0.11036 1.11015
 H355 H 0.72092 0.12670 1.10970
 C356 C 0.75514 0.09187 1.14303
 H357 H 0.73660 0.09410 1.16754
 N358 N 0.76904 0.10813 1.07902
 C359 C 0.72728 0.11495 0.96289
 H360 H 0.71790 0.14393 0.96450
 C361 C 0.71892 0.09177 0.93059
 H362 H 0.70416 0.10361 0.90729
 C363 C 0.75678 0.06425 0.99192
 H364 H 0.77100 0.05334 1.01596
 C365 C 0.74921 0.04013 0.96007
 H366 H 0.75801 0.01090 0.95998
 Zn367 Zn 0.75557 0.13507 1.03537
 N368 N 0.74624 0.10112 0.99260
 C369 C 0.79078 0.18840 0.98930
 N370 N 0.79471 0.16931 1.02176
 C371 C 0.82792 0.17006 1.04063
 C372 C 0.85984 0.18645 1.02442
 C373 C 0.82189 0.20547 0.97226
 C374 C 0.67919 0.13744 1.04253
 C375 C 0.64373 0.15293 1.04422
 C376 C 0.67258 0.21547 1.05352
 C377 C 0.70784 0.19877 1.05057
 N378 N 0.71030 0.16039 1.04489
 H379 H 0.76399 0.18844 0.97526
 H380 H 0.83037 0.15606 1.06713
 H381 H 0.88661 0.18462 1.03850
 H382 H 0.81850 0.21804 0.94503
 H383 H 0.68206 0.10703 1.03805
 H384 H 0.61917 0.13441 1.04132
 H385 H 0.67052 0.24604 1.05749
 H386 H 0.73308 0.21636 1.05212
 C387 C 0.73008 0.05382 0.92884
 C388 C 0.78834 0.07139 1.14432
 C389 C 0.64020 0.19231 1.04944
 C390 C 0.85734 0.20286 0.98894
 C391 C 0.33170 0.58949 0.52832
 H392 H 0.34393 0.60196 0.50351
 C393 C 0.35406 0.56768 0.55087
 H394 H 0.38282 0.56272 0.54237
 C395 C 0.28070 0.58343 0.57119
 H396 H 0.25251 0.59046 0.57978
 C397 C 0.30207 0.56137 0.59457
 H398 H 0.28954 0.55168 0.62057
 N399 N 0.29563 0.59693 0.53858
 C400 C 0.22220 0.60846 0.44481
 H401 H 0.20003 0.62158 0.46141
 C402 C 0.21473 0.59507 0.40750
 H403 H 0.18677 0.59757 0.39634
 C404 C 0.28604 0.59248 0.43776
 H405 H 0.31404 0.59253 0.44896
 C406 C 0.27987 0.57902 0.40029
 H407 H 0.30316 0.56816 0.38347
 Zn408 Zn 0.26811 0.63029 0.50830
 N409 N 0.25742 0.60688 0.45934
 C410 C 0.29851 0.68805 0.46478
 N411 N 0.29910 0.67337 0.49991
 C412 C 0.32761 0.68189 0.52457
 C413 C 0.35904 0.70254 0.51263
 C414 C 0.32923 0.70919 0.45181
 C415 C 0.19678 0.61435 0.53617
 C416 C 0.16034 0.62161 0.54835
 C417 C 0.17688 0.68849 0.55523
 C418 C 0.21315 0.67999 0.54223
 N419 N 0.22207 0.64341 0.53237
 H420 H 0.27574 0.68051 0.44550
 H421 H 0.32759 0.66963 0.55224
 H422 H 0.38283 0.70654 0.53149
 H423 H 0.32946 0.71790 0.42268
 H424 H 0.20450 0.58559 0.52782
 H425 H 0.14020 0.59825 0.54984
 H426 H 0.16959 0.71778 0.56168
 H427 H 0.23368 0.70264 0.53874
 C428 C 0.24391 0.58042 0.38463
 C429 C 0.33946 0.55343 0.58464
 C430 C 0.14979 0.65906 0.55739
 C431 C 0.36087 0.71477 0.47517
 C432 C 0.81617 0.89290 0.48002
 H433 H 0.82611 0.88722 0.50819
 C434 C 0.83664 0.91731 0.45737
 H435 H 0.86242 0.93040 0.46819
 C436 C 0.77034 0.88263 0.43179
 H437 H 0.74456 0.86891 0.42197
 C438 C 0.79026 0.90660 0.40789
 H439 H 0.77926 0.91164 0.37998
 N440 N 0.78322 0.87696 0.46742
 C441 C 0.72248 0.85928 0.57313
 H442 H 0.71414 0.82963 0.56927
 C443 C 0.71473 0.87928 0.60753
 H444 H 0.70046 0.86492 0.63023
 C445 C 0.75297 0.91370 0.54898
 H446 H 0.76762 0.92725 0.52615
 C447 C 0.74651 0.93442 0.58307
 H448 H 0.75659 0.96362 0.58638
 Zn449 Zn 0.75788 0.84618 0.50217
 N450 N 0.74236 0.87637 0.54522
 C451 C 0.80678 0.81446 0.55349
 N452 N 0.79348 0.81111 0.51726
 C453 C 0.80973 0.78767 0.49031
 C454 C 0.84118 0.76694 0.49932
 C455 C 0.83834 0.79475 0.56351
 C456 C 0.68746 0.84577 0.46966
 C457 C 0.65445 0.83078 0.45348
 C458 C 0.67817 0.76764 0.45974
 C459 C 0.71091 0.78392 0.47572
 N460 N 0.71501 0.82238 0.47995
 H461 H 0.79426 0.83397 0.57425
 H462 H 0.79926 0.78640 0.46142
 H463 H 0.85452 0.74911 0.47746
 H464 H 0.84887 0.79835 0.59231
 H465 H 0.69123 0.87623 0.47413
 H466 H 0.63290 0.85008 0.44585
 H467 H 0.67531 0.73700 0.45633
 H468 H 0.73285 0.76584 0.48491
 C469 C 0.72795 0.91695 0.61304
 C470 C 0.82360 0.92465 0.42097
 C471 C 0.64955 0.79119 0.44811
 C472 C 0.85642 0.77133 0.53602
 C473 C -0.01101 0.33405 0.41341
 H474 H 0.01638 0.34787 0.41411
 C475 C -0.04084 0.35053 0.43362
 H476 H -0.03601 0.37697 0.45004
 C477 C -0.05057 0.28310 0.39078
 H478 H -0.05445 0.25697 0.37376
 C479 C -0.08128 0.29874 0.41039
 H480 H -0.10816 0.28396 0.40868
 N481 N -0.01609 0.30048 0.39317
 C482 C 0.09056 0.24148 0.38680
 H483 H 0.09001 0.23234 0.35695
 C484 C 0.11915 0.22951 0.41016
 H485 H 0.14075 0.21147 0.39802
 C486 C 0.06328 0.27656 0.43875
 H487 H 0.04130 0.29451 0.44998
 C488 C 0.09183 0.26595 0.46290
 H489 H 0.09171 0.27605 0.49252
 Zn490 Zn 0.02588 0.27907 0.36682
 N491 N 0.06343 0.26470 0.40129
 C492 C 0.08213 0.32851 0.33884
 N493 N 0.04607 0.31580 0.33419
 C494 C 0.02350 0.33045 0.30776
 C495 C 0.03721 0.35866 0.28432
 C496 C 0.09681 0.35701 0.31635
 C497 C -0.00003 0.20479 0.36062
 C498 C -0.01376 0.17086 0.34355
 C499 C -0.00544 0.19773 0.28193
 C500 C 0.00842 0.23127 0.30029
 N501 N 0.01002 0.23438 0.33903
 H502 H 0.09947 0.31693 0.36036
 H503 H -0.00529 0.32038 0.30512
 H504 H 0.01886 0.37013 0.26351
 H505 H 0.12558 0.36661 0.32046
 H506 H 0.00213 0.20788 0.39134
 H507 H -0.02157 0.14802 0.36168
 H508 H -0.00743 0.19593 0.25114
 H509 H 0.01732 0.25484 0.28357
 C510 C 0.12015 0.24208 0.44867
 C511 C -0.07653 0.33274 0.43254
 C512 C -0.01740 0.16721 0.30368
 C513 C 0.07420 0.37253 0.28872
 C514 C 1.04749 0.80859 0.06949
 H515 H 1.02469 0.82799 0.07439
 C516 C 1.07632 0.81771 0.04402
 H517 H 1.07536 0.84381 0.02900
 C518 C 1.07740 0.75163 0.08380
 H519 H 1.07843 0.72628 0.09980
 C520 C 1.10610 0.75911 0.05796
 H521 H 1.12880 0.73934 0.05431
 N522 N 1.04892 0.77637 0.08946
 C523 C 0.94004 0.73540 0.12876
 H524 H 0.94856 0.72560 0.15604
 C525 C 0.90382 0.72708 0.11572
 H526 H 0.88457 0.71131 0.13329
 C527 C 0.95477 0.76805 0.07292
 H528 H 0.97467 0.78385 0.05623
 C529 C 0.91857 0.76086 0.05904
 H530 H 0.91094 0.77115 0.03165
 Zn531 Zn 1.01299 0.76581 0.12835
 N532 N 0.96474 0.75549 0.10736
 C533 C 0.97863 0.80949 0.18713
 N534 N 1.00846 0.80884 0.16278
 C535 C 1.02953 0.84087 0.15732
 C536 C 1.01796 0.87603 0.17268
 C537 C 0.96651 0.84396 0.20370
 C538 C 1.01853 0.68826 0.13265
 C539 C 1.02992 0.65365 0.14549
 C540 C 1.06035 0.68733 0.19875
 C541 C 1.04775 0.72161 0.18509
 N542 N 1.02747 0.72135 0.15237
 H543 H 0.96244 0.78376 0.19143
 H544 H 1.05393 0.83976 0.13902
 H545 H 1.03346 0.90168 0.16597
 H546 H 0.94113 0.84425 0.22075
 H547 H 1.00318 0.68886 0.10624
 H548 H 1.02287 0.62779 0.12892
 H549 H 1.07684 0.68786 0.22452
 H550 H 1.05491 0.74836 0.19998
 C551 C 0.89269 0.74002 0.08050
 C552 C 1.10618 0.79281 0.03833
 C553 C 1.05159 0.65279 0.17856
 C554 C 0.98522 0.87796 0.19486
 C555 C 0.57086 0.25564 0.57023
 H556 H 0.54574 0.27222 0.57286
 C557 C 0.60101 0.26846 0.54812
 H558 H 0.59857 0.29447 0.53318
 C559 C 0.60560 0.20294 0.58831
 H560 H 0.60809 0.17820 0.60503
 C561 C 0.63594 0.21420 0.56586
 H562 H 0.66121 0.19772 0.56533
 N563 N 0.57406 0.22399 0.59075
 C564 C 0.46581 0.18014 0.63021
 H565 H 0.47548 0.17245 0.65787
 C566 C 0.42855 0.17307 0.62028
 H567 H 0.40961 0.16024 0.64046
 C568 C 0.47828 0.20749 0.57094
 H569 H 0.49760 0.22169 0.55220
 C570 C 0.44099 0.20022 0.55950
 H571 H 0.43162 0.20915 0.53213
 Zn572 Zn 0.53701 0.21229 0.62834
 N573 N 0.48957 0.19834 0.60633
 C574 C 0.49753 0.25967 0.68163
 N575 N 0.52995 0.25644 0.66118
 C576 C 0.55412 0.28669 0.65868
 C577 C 0.54428 0.32258 0.67371
 C578 C 0.48658 0.29502 0.69715
 C579 C 0.55024 0.13642 0.63474
 C580 C 0.56076 0.10286 0.65053
 C581 C 0.57681 0.13852 0.70886
 C582 C 0.56551 0.17176 0.69186
 N583 N 0.55280 0.17000 0.65529
 H584 H 0.47887 0.23539 0.68408
 H585 H 0.58025 0.28356 0.64325
 H586 H 0.56305 0.34662 0.66955
 H587 H 0.45980 0.29692 0.71157
 H588 H 0.54003 0.13583 0.60576
 H589 H 0.55854 0.07660 0.63328
 H590 H 0.58693 0.14026 0.73787
 H591 H 0.56713 0.19885 0.70771
 C592 C 0.41554 0.18388 0.58501
 C593 C 0.63436 0.24799 0.54643
 C594 C 0.57446 0.10342 0.68796
 C595 C 0.50929 0.32748 0.69168
 C596 C 0.45300 0.79013 0.92582
 H597 H 0.47935 0.80099 0.93741
 C598 C 0.42021 0.81044 0.93290
 H599 H 0.42124 0.83670 0.95025
 C600 C 0.41995 0.74487 0.88585
 H601 H 0.42011 0.72024 0.86632
 C602 C 0.38693 0.76478 0.89138
 H603 H 0.36175 0.75504 0.87650
 N604 N 0.45229 0.75804 0.90253
 C605 C 0.55867 0.70217 0.91717
 H606 H 0.56350 0.69431 0.88741
 C607 C 0.58508 0.69357 0.94426
 H608 H 0.61030 0.67933 0.93491
 C609 C 0.52066 0.73231 0.96475
 H610 H 0.49551 0.74733 0.97259
 C611 C 0.54676 0.72481 0.99281
 H612 H 0.54173 0.73445 1.02210
 Zn613 Zn 0.49789 0.73575 0.88652
 N614 N 0.52771 0.72199 0.92759
 C615 C 0.55800 0.78684 0.87057
 N616 N 0.52410 0.77262 0.85857
 C617 C 0.50722 0.78572 0.82731
 C618 C 0.52484 0.81378 0.80630
 C619 C 0.57642 0.81518 0.85063
 C620 C 0.46894 0.66186 0.87024
 C621 C 0.46221 0.62816 0.84846
 C622 C 0.49801 0.65458 0.79700
 C623 C 0.50375 0.68784 0.81960
 N624 N 0.48886 0.69108 0.85534
 H625 H 0.57064 0.77662 0.89589
 H626 H 0.47997 0.77433 0.81876
 H627 H 0.51102 0.82395 0.78152
 H628 H 0.60346 0.82589 0.86054
 H629 H 0.45818 0.66485 0.89909
 H630 H 0.44630 0.60530 0.86087
 H631 H 0.50994 0.65259 0.76856
 H632 H 0.52054 0.71083 0.80866
 C633 C 0.57972 0.70575 0.98251
 C634 C 0.38703 0.79821 0.91463
 C635 C 0.47673 0.62432 0.81121
 C636 C 0.55975 0.82908 0.81810
 N637 N 0.48729 -0.11367 0.28637
 N638 N 0.50303 -0.14321 0.30116
 C639 C 0.47639 -0.16068 0.32188
 C640 C 0.44353 -0.14103 0.31894
 N641 N 0.45155 -0.11179 0.29656
 H642 H 0.41655 -0.14764 0.33149
 N643 N 0.95625 0.37390 0.78732
 N644 N 0.97136 0.34136 0.79543
 C645 C 0.95018 0.32650 0.82322
 C646 C 0.92137 0.35112 0.83192
 N647 N 0.92628 0.38040 0.80888
 H648 H 0.89943 0.34832 0.85307
 N649 N -0.03254 1.15068 0.75267
 N650 N -0.04303 1.18403 0.76748
 C651 C -0.02911 1.18750 0.80314
 C652 C -0.01004 1.15479 0.80994
 N653 N -0.01286 1.13261 0.77768
 H654 H 0.00691 1.14909 0.83439
 N655 N 0.51003 0.66460 0.25639
 N656 N 0.49665 0.69788 0.26819
 C657 C 0.50068 0.70073 0.30640
 C658 C 0.51675 0.66778 0.31776
 N659 N 0.52220 0.64607 0.28565
 H660 H 0.52611 0.66136 0.34596
 N661 N 0.48169 0.35916 0.21917
 N662 N 0.46813 0.33011 0.19769
 C663 C 0.49648 0.31743 0.17519
 C664 C 0.52795 0.33968 0.18379
 N665 N 0.51760 0.36530 0.21130
 H666 H 0.55515 0.33888 0.17006
 N667 N 0.01179 0.81856 0.73577
 N668 N 0.00160 0.78452 0.72102
 C669 C 0.01297 0.78302 0.68421
 C670 C 0.03035 0.81744 0.67699
 N671 N 0.02912 0.83879 0.70980
 H672 H 0.04147 0.82630 0.64998
 N673 N 0.92962 0.60242 0.63671
 N674 N 0.95110 0.62878 0.62143
 C675 C 0.95821 0.65583 0.64907
 C676 C 0.94024 0.64511 0.68206
 N677 N 0.92252 0.61166 0.67300
 H678 H 0.93968 0.66031 0.70955
 N679 N 0.44721 0.12322 0.12057
 N680 N 0.46222 0.15432 0.10659
 C681 C 0.45971 0.18213 0.13412
 C682 C 0.44260 0.16710 0.16559
 N683 N 0.43509 0.13018 0.15590
 H684 H 0.43582 0.18181 0.19242
 N685 N 0.28078 0.43199 -0.20805
 N686 N 0.30190 0.44414 -0.23630
 C687 C 0.33744 0.44660 -0.22341
 C688 C 0.33741 0.43558 -0.18622
 N689 N 0.30146 0.42676 -0.17763
 H690 H 0.36133 0.43372 -0.16767
 N691 N 0.86712 0.97786 0.41263
 N692 N 0.88207 0.99775 0.38510
 C693 C 0.86773 0.98302 0.35201
 C694 C 0.84349 0.95338 0.36012
 N695 N 0.84386 0.95113 0.39828
 H696 H 0.82793 0.93488 0.34011
 N697 N 0.77277 0.04308 1.20450
 N698 N 0.78946 0.02832 1.23372
 C699 C 0.82656 0.02863 1.22605
 C700 C 0.83209 0.04401 1.19088
 N701 N 0.79776 0.05270 1.17843
 H702 H 0.85840 0.04969 1.17652
 N703 N 0.39999 0.53022 0.60491
 N704 N 0.41463 0.51189 0.63318
 C705 C 0.38598 0.50232 0.65626
 C706 C 0.35332 0.51545 0.64123
 N707 N 0.36318 0.53285 0.60922
 H708 H 0.32540 0.51345 0.65319
 N709 N 0.26524 0.56445 0.31988
 N710 N 0.25152 0.55331 0.28615
 C711 C 0.21397 0.55039 0.29031
 C712 C 0.20510 0.56002 0.32778
 N713 N 0.23790 0.56864 0.34533
 H714 H 0.17758 0.55977 0.34092
 N715 N 0.73862 -0.00426 0.88987
 N716 N 0.72619 -0.02141 0.85798
 C717 C 0.70134 0.00184 0.84283
 C718 C 0.69887 0.03405 0.86674
 N719 N 0.72265 0.02906 0.89581
 H720 H 0.68084 0.05799 0.86382
 N721 N 0.75216 0.95992 0.66364
 N722 N 0.74324 0.97257 0.69854
 C723 C 0.70964 0.95662 0.70684
 C724 C 0.69817 0.93368 0.67598
 N725 N 0.72554 0.93655 0.64965
 H726 H 0.67261 0.91669 0.67291
 N727 N 0.23048 0.51078 0.10349
 N728 N 0.22458 0.52732 0.13757
 C729 C 0.19600 0.50797 0.15354
 C730 C 0.18447 0.47901 0.12824
 N731 N 0.20690 0.48156 0.09733
 H732 H 0.16313 0.45733 0.13271
 N733 N -0.10172 0.37547 0.48239
 N734 N -0.13400 0.38450 0.49878
 C735 C -0.16094 0.36271 0.48130
 C736 C -0.14394 0.34012 0.45315
 N737 N -0.10685 0.34882 0.45492
 H738 H -0.15740 0.31972 0.43337
 N739 N 0.33572 0.82819 0.88409
 N740 N 0.30623 0.84890 0.89286
 C741 C 0.30674 0.85656 0.93097
 C742 C 0.33765 0.83889 0.94542
 N743 N 0.35490 0.82182 0.91513
 H744 H 0.34538 0.83650 0.97497
 N745 N 1.15755 0.77511 -0.00416
 N746 N 1.18687 0.79088 -0.02097
 C747 C 1.18520 0.82875 -0.01347
 C748 C 1.15332 0.83577 0.00823
 N749 N 1.13704 0.80146 0.01351
 H750 H 1.14413 0.86257 0.02101
 N751 N 0.69506 0.24051 0.51461
 N752 N 0.72352 0.26176 0.50266
 C753 C 0.71356 0.29836 0.50804
 C754 C 0.67778 0.29878 0.52349
 N755 N 0.66724 0.26213 0.52716
 H756 H 0.66195 0.32319 0.53340
 N757 N 0.35092 0.19218 0.60424
 N758 N 0.31656 0.18559 0.59139
 C759 C 0.31966 0.17049 0.55551
 C760 C 0.35757 0.16843 0.54652
 N761 N 0.37595 0.18219 0.57789
 H762 H 0.37051 0.15683 0.52068
 N763 N 0.83889 0.75314 0.04125
 N764 N 0.80555 0.73829 0.03225
 C765 C 0.80053 0.70708 0.05274
 C766 C 0.83213 0.70318 0.07457
 N767 N 0.85537 0.73250 0.06656
 H768 H 0.83852 0.68023 0.09271
 N769 N 0.61596 0.72719 1.03838
 N770 N 0.64852 0.72044 1.05441
 C771 C 0.66245 0.68964 1.03547
 C772 C 0.63759 0.67772 1.00742
 N773 N 0.60900 0.70202 1.00990
 H774 H 0.64131 0.65520 0.98574
 N775 N 0.16375 0.25446 0.50127
 N776 N 0.19249 0.23850 0.51750
 C777 C 0.19735 0.20457 0.49887
 C778 C 0.17074 0.20027 0.47053
 N779 N 0.15036 0.23208 0.47292
 H780 H 0.16680 0.17657 0.45005
 N781 N 0.57860 0.03474 0.68584
 N782 N 0.59497 0.00728 0.70335
 C783 C 0.61339 0.02354 0.73352
 C784 C 0.60735 0.06243 0.73409
 N785 N 0.58571 0.06819 0.70343
 H786 H 0.61934 0.08432 0.75328
 N787 N 1.05184 0.58360 0.17670
 N788 N 1.07270 0.55562 0.18777
 C789 C 1.10059 0.57173 0.20902
 C790 C 1.09607 0.61069 0.21079
 N791 N 1.06533 0.61695 0.19006
 H792 H 1.11478 0.63229 0.22347
 N793 N 0.97139 0.94400 0.18338
 N794 N 0.95070 0.97197 0.19798
 C795 C 0.93473 0.95935 0.23008
 C796 C 0.94639 0.92267 0.23466
 N797 N 0.96918 0.91417 0.20497
 H798 H 0.93871 0.90372 0.25694
 N799 N 0.51498 0.39684 0.69323
 N800 N 0.49447 0.42719 0.70093
 C801 C 0.46123 0.41453 0.71428
 C802 C 0.46208 0.37536 0.71467
 N803 N 0.49616 0.36529 0.70122
 H804 H 0.43942 0.35629 0.72241
 N805 N 0.48988 0.58109 0.75656
 N806 N 0.47655 0.54913 0.73985
 C807 C 0.44738 0.53742 0.76123
 C808 C 0.44327 0.56328 0.79173
 N809 N 0.47034 0.59014 0.78777
 H810 H 0.42182 0.56332 0.81365
 N811 N -0.03458 0.12525 0.24831
 N812 N -0.05310 0.09268 0.24062
 C813 C -0.06465 0.07969 0.27435
 C814 C -0.05266 0.10526 0.30280
 N815 N -0.03391 0.13327 0.28558
 H816 H -0.05809 0.10400 0.33302
 N817 N 0.07374 0.41097 0.23253
 N818 N 0.09162 0.44075 0.21870
 C819 C 0.11851 0.45163 0.24399
 C820 C 0.11659 0.42742 0.27379
 N821 N 0.08830 0.40243 0.26557
 H822 H 0.13322 0.42869 0.29948
 N823 N 0.56995 0.86631 0.76170
 N824 N 0.59029 0.89590 0.75085
 C825 C 0.61161 0.90769 0.78088
 C826 C 0.60378 0.88430 0.81046
 N827 N 0.57770 0.85881 0.79739
 H828 H 0.61527 0.88621 0.83893
 N829 N 0.70066 0.53277 0.09284
 N830 N 0.71235 0.55571 0.06624
 C831 C 0.72485 0.58800 0.08444
 C832 C 0.72041 0.58424 0.12317
 N833 N 0.70500 0.54928 0.12728
 H834 H 0.72453 0.60610 0.14556
 N835 N 0.15251 1.05585 0.56133
 N836 N 0.17180 1.07553 0.53628
 C837 C 0.20192 1.09079 0.55472
 C838 C 0.20046 1.07975 0.59201
 N839 N 0.16912 1.05795 0.59506
 H840 H 0.21951 1.08815 0.61486
 N841 N 0.15008 0.97051 0.91785
 N842 N 0.16644 0.95181 0.94492
 C843 C 0.19759 0.93649 0.92922
 C844 C 0.19976 0.94654 0.89166
 N845 N 0.16958 0.96752 0.88562
 H846 H 0.22020 0.93805 0.87019
 N847 N 0.66687 0.45280 0.44305
 N848 N 0.68269 0.43282 0.46935
 C849 C 0.71361 0.41751 0.45328
 C850 C 0.71633 0.42875 0.41620
 N851 N 0.68655 0.45072 0.41091
 H852 H 0.73756 0.42131 0.39515
 N853 N 0.71093 0.44114 0.61755
 N854 N 0.70956 0.42504 0.58257
 C855 C 0.74248 0.40753 0.57651
 C856 C 0.76383 0.41306 0.60885
 N857 N 0.74326 0.43398 0.63379
 H858 H 0.79219 0.40401 0.61336
 N859 N 0.22487 -0.04728 0.09300
 N860 N 0.21550 -0.06234 0.05899
 C861 C 0.24658 -0.07805 0.04350
 C862 C 0.27543 -0.07230 0.06951
 N863 N 0.26064 -0.05309 0.10000
 H864 H 0.30427 -0.08094 0.06658
 N865 N 0.23316 0.07717 0.38769
 N866 N 0.22460 0.09429 0.42090
 C867 C 0.25717 0.10520 0.43777
 C868 C 0.28613 0.09412 0.41366
 N869 N 0.26997 0.07664 0.38261
 H870 H 0.31585 0.09846 0.41846
 N871 N 0.71276 0.57617 0.91797
 N872 N 0.70489 0.59422 0.95094
 C873 C 0.73617 0.61390 0.96182
 C874 C 0.76348 0.60732 0.93451
 N875 N 0.74787 0.58349 0.90764
 H876 H 0.79198 0.61842 0.93459
 N877 N 0.08298 0.64556 0.55142
 N878 N 0.05052 0.65861 0.56409
 C879 C 0.05819 0.68923 0.58750
 C880 C 0.09679 0.69475 0.58853
 N881 N 0.11112 0.66673 0.56570
 H882 H 0.11289 0.71619 0.60483
 N883 N 0.57630 0.19466 1.02689
 N884 N 0.54405 0.20984 1.03732
 C885 C 0.55115 0.23373 1.06768
 C886 C 0.58908 0.23301 1.07542
 N887 N 0.60362 0.20814 1.04936
 H888 H 0.60391 0.24627 1.09953
 N889 N 0.92361 0.19640 0.97368
 N890 N 0.94812 0.20609 0.94717
 C891 C 0.93024 0.22911 0.92408
 C892 C 0.89406 0.23341 0.93731
 N893 N 0.89092 0.21240 0.96828
 H894 H 0.87198 0.24913 0.92472
 N895 N 0.42894 0.71560 0.47208
 N896 N 0.45650 0.72563 0.44895
 C897 C 0.44074 0.74412 0.42066
 C898 C 0.40260 0.74531 0.42719
 N899 N 0.39629 0.72701 0.45958
 H900 H 0.38155 0.75689 0.40927
 N901 N 0.60487 0.73882 0.43347
 N902 N 0.57255 0.73244 0.41563
 C903 C 0.56263 0.76575 0.40164
 C904 C 0.58988 0.79273 0.41148
 N905 N 0.61574 0.77491 0.43143
 H906 H 0.59087 0.82229 0.40446
 N907 N 0.09264 0.23499 -0.07697
 N908 N 0.06044 0.22494 -0.09380
 C909 C 0.04725 0.25648 -0.10893
 C910 C 0.07224 0.28603 -0.10077
 N911 N 0.10003 0.27170 -0.08063
 H912 H 0.07036 0.31519 -0.10874
 N913 N 0.39278 0.25622 0.00871
 N914 N 0.42352 0.24717 0.02685
 C915 C 0.42754 0.27247 0.05667
 C916 C 0.39822 0.29721 0.05636
 N917 N 0.37698 0.28605 0.02609
 H918 H 0.39275 0.32060 0.07656
 N919 N 0.90116 0.71973 0.53000
 N920 N 0.93240 0.70912 0.54633
 C921 C 0.94207 0.73690 0.57251
 C922 C 0.91574 0.76490 0.57162
 N923 N 0.89052 0.75295 0.54513
 H924 H 0.91419 0.79078 0.58939
   
