data_POSCAR
  _audit_creation_date              2014-09-24
  _audit_creation_method            'ToBaCCo'
  _symmetry_space_group_name_H-M    'P1'
  _symmetry_Int_Tables_number       1
  _symmetry_cell_setting            triclinic
  loop_
  _symmetry_equiv_pos_as_xyz
 x,y,z
_cell_length_a 44.6617
_cell_length_b 44.6203
_cell_length_c 37.8127
_cell_angle_alpha 89.888700
_cell_angle_beta 90.098300
_cell_angle_gamma 120.222200
loop_
  _atom_site_label
  _atom_site_type_symbol
  _atom_site_fract_x
  _atom_site_fract_y
  _atom_site_fract_z
C1 C 0.04622 0.49858 0.05844
 C2 C 0.05859 0.53242 0.07054
 C3 C 0.05074 0.55539 0.05326
 C4 C 0.02986 0.54424 0.02245
 C5 C 0.01581 0.50957 0.01053
 C6 C 0.02449 0.48683 0.02819
 C7 C 0.01141 0.45315 0.01493
 C8 C -0.01092 0.44145 -0.01388
 C9 C -0.01968 0.46348 -0.03219
 C10 C -0.00686 0.49769 -0.01925
 C11 C 0.02367 0.56712 0.00247
 C12 C 0.00107 0.55535 -0.02616
 C13 C -0.01666 0.52010 -0.03583
 C14 C -0.04220 0.50716 -0.06305
 C15 C -0.05393 0.47339 -0.07564
 C16 C -0.04232 0.45174 -0.06188
 H17 H 0.01806 0.43519 0.02668
 H18 H -0.02180 0.41451 -0.02100
 H19 H 0.03644 0.59449 0.00857
 H20 H -0.00188 0.57444 -0.04100
 H21 H 0.07404 0.54077 0.09451
 H22 H -0.07272 0.46350 -0.09686
 C23 C 0.49914 0.54635 0.05519
 C24 C 0.46672 0.52397 0.07017
 C25 C 0.44400 0.49141 0.05565
 C26 C 0.45443 0.48026 0.02542
 C27 C 0.48792 0.50183 0.01088
 C28 C 0.50963 0.53555 0.02477
 C29 C 0.54044 0.55800 0.00685
 C30 C 0.55150 0.54645 -0.02171
 C31 C 0.53299 0.51156 -0.03271
 C32 C 0.49957 0.48979 -0.01789
 C33 C 0.43193 0.44878 0.00851
 C34 C 0.44317 0.43711 -0.01976
 C35 C 0.47744 0.45629 -0.03213
 C36 C 0.48981 0.44345 -0.05916
 C37 C 0.52341 0.46453 -0.07212
 C38 C 0.54554 0.49846 -0.05981
 H39 H 0.55606 0.58497 0.01432
 H40 H 0.57451 0.56554 -0.03535
 H41 H 0.40524 0.43291 0.01669
 H42 H 0.42446 0.41294 -0.03198
 H43 H 0.45925 0.53180 0.09417
 H44 H 0.53313 0.45320 -0.09096
 C45 C 0.46007 0.95738 0.06158
 C46 C 0.48032 0.94336 0.07281
 C47 C 0.51235 0.95288 0.05731
 C48 C 0.52500 0.97786 0.02975
 C49 C 0.50438 0.99164 0.01718
 C50 C 0.47171 0.98114 0.03293
 C51 C 0.45158 0.99465 0.01958
 C52 C 0.46354 1.01866 -0.00781
 C53 C 0.49528 1.02877 -0.02474
 C54 C 0.51659 1.01618 -0.01105
 C55 C 0.55787 0.98984 0.01477
 C56 C 0.56989 1.01397 -0.01256
 C57 C 0.55014 1.02821 -0.02531
 C58 C 0.56291 1.05398 -0.05203
 C59 C 0.54137 1.06571 -0.06545
 C60 C 0.50719 1.05260 -0.05359
 H61 H 0.42620 0.98688 0.03004
 H62 H 0.44768 1.02968 -0.01497
 H63 H 0.57502 0.98107 0.02422
 H64 H 0.59490 1.02112 -0.02363
 H65 H 0.47098 0.92469 0.09428
 H66 H 0.55116 1.08431 -0.08695
 C67 C 0.95639 0.50954 0.55831
 C68 C 0.94404 0.47587 0.57114
 C69 C 0.95538 0.45417 0.55745
 C70 C 0.98064 0.46691 0.53028
 C71 C 0.99160 0.49998 0.51508
 C72 C 0.97966 0.52150 0.52930
 C73 C 0.99138 0.55430 0.51415
 C74 C 1.01456 0.56595 0.48600
 C75 C 1.02535 0.54448 0.47001
 C76 C 1.01472 0.51159 0.48572
 C77 C 0.99610 0.44799 0.51869
 C78 C 1.01917 0.45957 0.49056
 C79 C 1.02757 0.49043 0.47262
 C80 C 1.04946 0.50121 0.44271
 C81 C 1.05968 0.53353 0.42756
 C82 C 1.04816 0.55559 0.44028
 H83 H 0.98281 0.57152 0.52382
 H84 H 1.02422 0.59235 0.47748
 H85 H 0.99100 0.42424 0.53162
 H86 H 1.03063 0.44412 0.48328
 H87 H 0.92524 0.46640 0.59243
 H88 H 1.07537 0.54064 0.40379
 C89 C 0.49276 0.44290 0.55821
 C90 C 0.52744 0.46325 0.56863
 C91 C 0.54885 0.49684 0.55556
 C92 C 0.53548 0.51043 0.53011
 C93 C 0.50055 0.49002 0.51869
 C94 C 0.47883 0.45664 0.53355
 C95 C 0.44359 0.43845 0.52411
 C96 C 0.43073 0.45095 0.49803
 C97 C 0.45242 0.48248 0.48072
 C98 C 0.48714 0.50317 0.49256
 C99 C 0.55580 0.54399 0.51611
 C100 C 0.54293 0.55650 0.49003
 C101 C 0.50855 0.53680 0.47812
 C102 C 0.49503 0.54949 0.45184
 C103 C 0.46140 0.52776 0.43913
 C104 C 0.44010 0.49428 0.45250
 H105 H 0.42540 0.41439 0.53691
 H106 H 0.40339 0.43581 0.49189
 H107 H 0.58200 0.56113 0.52499
 H108 H 0.56057 0.58178 0.47914
 H109 H 0.53826 0.45253 0.58702
 H110 H 0.45173 0.53703 0.41797
 C111 C 0.55548 0.04677 0.55470
 C112 C 0.53250 0.05444 0.57202
 C113 C 0.49868 0.04204 0.55992
 C114 C 0.48686 0.02022 0.52977
 C115 C 0.50969 0.01192 0.51188
 C116 C 0.54440 0.02615 0.52375
 C117 C 0.56740 0.02043 0.50358
 C118 C 0.55580 -0.00164 0.47456
 C119 C 0.52054 -0.01965 0.46491
 C120 C 0.49788 -0.01052 0.48194
 C121 C 0.45300 0.00665 0.51686
 C122 C 0.44129 -0.01571 0.48811
 C123 C 0.46351 -0.02377 0.46930
 C124 C 0.45183 -0.04614 0.43940
 C125 C 0.47383 -0.05697 0.42505
 C126 C 0.50779 -0.04482 0.43734
 H127 H 0.59474 0.03330 0.50980
 H128 H 0.57504 -0.00399 0.45945
 H129 H 0.43488 0.01286 0.52889
 H130 H 0.41421 -0.02710 0.48139
 H131 H 0.54084 0.06981 0.59602
 H132 H 0.46409 -0.07549 0.40360
 O133 O 0.16362 0.39211 0.21712
 O134 O 0.22259 0.39149 0.28519
 O135 O 0.16448 0.39258 0.28532
 O136 O 0.22211 0.39093 0.21654
 O137 O 0.25146 0.44817 0.21603
 O138 O 0.19429 0.44983 0.28470
 O139 O 0.25167 0.44875 0.28497
 O140 O 0.19375 0.44935 0.21617
 Cu141 Cu 0.19030 0.38600 0.25099
 Cu142 Cu 0.22583 0.45474 0.25032
 C143 C 0.16829 0.42091 0.20554
 C144 C 0.24716 0.42009 0.29675
 C145 C 0.16939 0.42157 0.29646
 C146 C 0.24688 0.41934 0.20484
 O147 O 0.60442 0.76593 0.22005
 O148 O 0.60518 0.82832 0.28458
 O149 O 0.60182 0.76904 0.28891
 O150 O 0.60761 0.82614 0.21507
 O151 O 0.55043 0.80045 0.21393
 O152 O 0.54468 0.74147 0.28465
 O153 O 0.54800 0.80153 0.28189
 O154 O 0.54752 0.74092 0.21607
 Cu155 Cu 0.61059 0.80011 0.25220
 Cu156 Cu 0.54195 0.76838 0.24889
 C157 C 0.57577 0.74277 0.20701
 C158 C 0.57657 0.82519 0.29443
 C159 C 0.57211 0.74549 0.29916
 C160 C 0.57987 0.82314 0.20236
 O161 O 0.23161 0.83802 0.21392
 O162 O 0.16940 0.77694 0.27939
 O163 O 0.22872 0.83566 0.28212
 O164 O 0.17183 0.77942 0.21077
 O165 O 0.19977 0.75035 0.21115
 O166 O 0.25649 0.80642 0.28196
 O167 O 0.19783 0.74836 0.27981
 O168 O 0.25867 0.80805 0.21351
 Cu169 Cu 0.19751 0.81039 0.24647
 Cu170 Cu 0.23090 0.77533 0.24663
 C171 C 0.25604 0.83365 0.20295
 C172 C 0.17303 0.75211 0.29070
 C173 C 0.25271 0.83093 0.29382
 C174 C 0.17588 0.75501 0.19907
 O175 O 0.83136 0.60528 0.71874
 O176 O 0.76856 0.60085 0.78481
 O177 O 0.82709 0.60240 0.78721
 O178 O 0.77169 0.60335 0.71486
 O179 O 0.74289 0.54601 0.71436
 O180 O 0.80097 0.54532 0.78254
 O181 O 0.74151 0.54359 0.78261
 O182 O 0.80207 0.54819 0.71427
 Cu183 Cu 0.80225 0.60881 0.75143
 Cu184 Cu 0.76906 0.54006 0.74826
 C185 C 0.82751 0.57743 0.70541
 C186 C 0.74472 0.57136 0.79533
 C187 C 0.82373 0.57352 0.79659
 C188 C 0.74771 0.57471 0.70262
 O189 O 0.39587 0.16231 0.78574
 O190 O 0.39224 0.21842 0.71578
 O191 O 0.39411 0.16063 0.71799
 O192 O 0.39272 0.21906 0.78585
 O193 O 0.44991 0.25029 0.78409
 O194 O 0.45122 0.19200 0.71628
 O195 O 0.44944 0.24967 0.71603
 O196 O 0.45300 0.19361 0.78486
 Cu197 Cu 0.38788 0.18730 0.75133
 Cu198 Cu 0.45658 0.22449 0.75014
 C199 C 0.42523 0.16816 0.79679
 C200 C 0.42038 0.24371 0.70422
 C201 C 0.42296 0.16586 0.70622
 C202 C 0.42113 0.24444 0.79663
 O203 O 0.84050 0.23035 0.77851
 O204 O 0.77747 0.16691 0.71538
 O205 O 0.83502 0.22645 0.70978
 O206 O 0.78254 0.17158 0.78454
 O207 O 0.75075 0.19673 0.78207
 O208 O 0.80786 0.25625 0.71374
 O209 O 0.75042 0.19682 0.71349
 O210 O 0.80882 0.25546 0.78187
 Cu211 Cu 0.81180 0.19591 0.74693
 Cu212 Cu 0.77643 0.22899 0.74785
 C213 C 0.83514 0.25355 0.79127
 C214 C 0.75350 0.17143 0.70318
 C215 C 0.83083 0.25132 0.69984
 C216 C 0.75734 0.17464 0.79554
 C217 C 0.10102 0.46944 0.10715
 C218 C 0.07606 0.43792 0.12038
 C219 C 0.04083 0.42459 0.11433
 C220 C 0.03105 0.44454 0.09374
 C221 C 0.05646 0.47658 0.07879
 C222 C 0.09194 0.48914 0.08588
 O223 O 0.13276 0.47878 0.11814
 C224 C 0.12781 0.45254 0.13867
 C225 C 0.09365 0.42664 0.14066
 C226 C 0.08271 0.39716 0.16144
 C227 C 0.10792 0.39460 0.18140
 C228 C 0.14309 0.42163 0.18077
 C229 C 0.15313 0.45078 0.15867
 H230 H 0.02155 0.40021 0.12586
 H231 H 0.00376 0.43530 0.08972
 H232 H 0.11184 0.51398 0.07573
 H233 H 0.05568 0.37718 0.16275
 H234 H 0.09979 0.37231 0.19847
 H235 H 0.17970 0.47194 0.15782
 C236 C 0.52761 0.62971 0.10493
 C237 C 0.56051 0.63819 0.11522
 C238 C 0.57547 0.61857 0.10555
 C239 C 0.55555 0.58886 0.08481
 C240 C 0.52164 0.57980 0.07363
 C241 C 0.50775 0.60086 0.08372
 O242 O 0.51708 0.65004 0.11896
 C243 C 0.54388 0.67188 0.13856
 C244 C 0.57127 0.66599 0.13707
 C245 C 0.60145 0.68526 0.15669
 C246 C 0.60328 0.71138 0.17892
 C247 C 0.57495 0.71729 0.18150
 C248 C 0.54501 0.69737 0.16064
 H249 H 0.60107 0.62519 0.11465
 H250 H 0.56607 0.57236 0.07831
 H251 H 0.48167 0.59418 0.07634
 H252 H 0.62260 0.68002 0.15535
 H253 H 0.62630 0.72625 0.19483
 H254 H 0.52287 0.70108 0.16206
 C255 C 0.37417 0.90203 0.10745
 C256 C 0.36821 0.92702 0.12136
 C257 C 0.39110 0.96232 0.11671
 C258 C 0.42124 0.97219 0.09685
 C259 C 0.42733 0.94684 0.08116
 C260 C 0.40337 0.91123 0.08680
 O261 O 0.35082 0.87009 0.11725
 C262 C 0.32953 0.87496 0.13769
 C263 C 0.33873 0.90926 0.14077
 C264 C 0.32037 0.92013 0.16171
 C265 C 0.29179 0.89466 0.18070
 C266 C 0.28271 0.85930 0.17900
 C267 C 0.30165 0.84937 0.15676
 H268 H 0.38645 0.98158 0.12879
 H269 H 0.44003 0.99951 0.09396
 H270 H 0.40779 0.89130 0.07605
 H271 H 0.32817 0.94728 0.16389
 H272 H 0.27775 0.90267 0.19793
 H273 H 0.29551 0.82263 0.15513
 C274 C 0.89846 0.53624 0.60417
 C275 C 0.92249 0.56797 0.61779
 C276 C 0.95791 0.58264 0.61197
 C277 C 0.96892 0.56368 0.59156
 C278 C 0.94452 0.53119 0.57666
 C279 C 0.90875 0.51753 0.58300
 O280 O 0.86647 0.52535 0.61535
 C281 C 0.87030 0.55074 0.63646
 C282 C 0.90399 0.57764 0.63864
 C283 C 0.91387 0.60622 0.66045
 C284 C 0.88807 0.60679 0.68120
 C285 C 0.85340 0.57871 0.68030
 C286 C 0.84443 0.55056 0.65716
 H287 H 0.97646 0.60713 0.62384
 H288 H 0.99643 0.57381 0.58809
 H289 H 0.88958 0.49236 0.57290
 H290 H 0.94057 0.62696 0.66200
 H291 H 0.89539 0.62837 0.69902
 H292 H 0.81829 0.52862 0.65606
 C293 C 0.45759 0.36836 0.62321
 C294 C 0.43939 0.34040 0.60116
 C295 C 0.43732 0.34408 0.56482
 C296 C 0.45468 0.37788 0.55078
 C297 C 0.47262 0.40720 0.57322
 C298 C 0.47394 0.40209 0.61002
 O299 O 0.45923 0.35941 0.65629
 C300 C 0.44155 0.32505 0.65524
 C301 C 0.42840 0.31199 0.62227
 C302 C 0.40986 0.27650 0.61527
 C303 C 0.40531 0.25371 0.64323
 C304 C 0.42001 0.26687 0.67687
 C305 C 0.43799 0.30297 0.68302
 H306 H 0.42386 0.32171 0.54775
 H307 H 0.45466 0.38122 0.52241
 H308 H 0.48818 0.42378 0.62776
 H309 H 0.39991 0.26676 0.58910
 H310 H 0.39191 0.22605 0.63831
 H311 H 0.44983 0.31356 0.70842
 C312 C 0.63958 0.10443 0.60223
 C313 C 0.65010 0.08111 0.61055
 C314 C 0.63179 0.04658 0.59989
 C315 C 0.60122 0.03564 0.58033
 C316 C 0.59000 0.05934 0.57130
 C317 C 0.60984 0.09433 0.58218
 O318 O 0.65886 0.13521 0.61715
 C319 C 0.68208 0.13131 0.63533
 C320 C 0.67809 0.09880 0.63206
 C321 C 0.69887 0.08887 0.65020
 C322 C 0.72453 0.11336 0.67281
 C323 C 0.72850 0.14677 0.67723
 C324 C 0.70710 0.15584 0.65780
 H325 H 0.64002 0.02843 0.60748
 H326 H 0.58568 0.00853 0.57321
 H327 H 0.60149 0.11280 0.57649
 H328 H 0.69508 0.06305 0.64751
 H329 H 0.74056 0.10593 0.68762
 H330 H 0.70928 0.18100 0.66067
 C331 C 0.47907 0.10569 0.89519
 C332 C 0.44540 0.08121 0.88741
 C333 C 0.43052 0.04693 0.89846
 C334 C 0.45114 0.03759 0.91840
 C335 C 0.48587 0.06259 0.92783
 C336 C 0.49978 0.09720 0.91549
 O337 O 0.48906 0.13629 0.88044
 C338 C 0.46108 0.13103 0.86294
 C339 C 0.43351 0.09784 0.86650
 C340 C 0.40194 0.08662 0.84955
 C341 C 0.39889 0.11046 0.82767
 C342 C 0.42736 0.14455 0.82280
 C343 C 0.45874 0.15497 0.84113
 H344 H 0.40429 0.02780 0.89108
 H345 H 0.44036 0.01052 0.92527
 H346 H 0.52601 0.11725 0.92170
 H347 H 0.38064 0.06033 0.85258
 H348 H 0.37479 0.10198 0.81363
 H349 H 0.48101 0.18069 0.83788
 C350 C 0.61897 0.52909 0.87659
 C351 C 0.64673 0.54935 0.89808
 C352 C 0.64294 0.55391 0.93382
 C353 C 0.60920 0.53696 0.94788
 C354 C 0.57969 0.51690 0.92596
 C355 C 0.58531 0.51309 0.88962
 O356 O 0.62801 0.52595 0.84403
 C357 C 0.66229 0.54476 0.84487
 C358 C 0.67514 0.56008 0.87718
 C359 C 0.71050 0.58087 0.88371
 C360 C 0.73342 0.58570 0.85592
 C361 C 0.72060 0.56905 0.82293
 C362 C 0.68457 0.54846 0.81730
 H363 H 0.66524 0.56893 0.95060
 H364 H 0.60639 0.53839 0.97615
 H365 H 0.56403 0.49816 0.87162
 H366 H 0.72009 0.59269 0.90930
 H367 H 0.76107 0.60133 0.86039
 H368 H 0.67425 0.53544 0.79231
 C369 C 0.90203 0.36951 0.88962
 C370 C 0.92565 0.35944 0.88152
 C371 C 0.96006 0.37815 0.89236
 C372 C 0.97051 0.40854 0.91208
 C373 C 0.94649 0.41946 0.92112
 C374 C 0.91163 0.39913 0.90955
 O375 O 0.87118 0.34957 0.87515
 C376 C 0.87535 0.32637 0.85739
 C377 C 0.90812 0.33103 0.86049
 C378 C 0.91821 0.31018 0.84286
 C379 C 0.89363 0.28382 0.82090
 C380 C 0.85993 0.27916 0.81670
 C381 C 0.85072 0.30061 0.83567
 H382 H 0.97849 0.37028 0.88492
 H383 H 0.99767 0.42436 0.91884
 H384 H 0.89229 0.40617 0.91572
 H385 H 0.94420 0.31443 0.84543
 H386 H 0.90118 0.26775 0.80643
 H387 H 0.82534 0.29793 0.83298
 C388 C 0.53907 0.91334 0.37338
 C389 C 0.55942 0.90609 0.39491
 C390 C 0.56427 0.91482 0.43055
 C391 C 0.54734 0.93153 0.44453
 C392 C 0.52685 0.94041 0.42268
 C393 C 0.52314 0.93102 0.38631
 O394 O 0.53533 0.90045 0.34106
 C395 C 0.55380 0.88472 0.34211
 C396 C 0.56952 0.88776 0.37430
 C397 C 0.58966 0.87264 0.38118
 C398 C 0.59330 0.85330 0.35391
 C399 C 0.57612 0.84879 0.32113
 C400 C 0.55634 0.86494 0.31509
 H401 H 0.57937 0.90774 0.44737
 H402 H 0.54897 0.93598 0.47278
 H403 H 0.50822 0.93719 0.36820
 H404 H 0.60172 0.87525 0.40670
 H405 H 0.60824 0.84068 0.35875
 H406 H 0.54283 0.86166 0.29030
 C407 C 0.35642 0.46587 0.40299
 C408 C 0.34850 0.43335 0.39188
 C409 C 0.36846 0.41860 0.40097
 C410 C 0.39799 0.43838 0.42194
 C411 C 0.40647 0.47184 0.43418
 C412 C 0.38492 0.48544 0.42477
 O413 O 0.33622 0.47655 0.38880
 C414 C 0.31504 0.45021 0.36830
 C415 C 0.32116 0.42294 0.36947
 C416 C 0.30275 0.39329 0.34891
 C417 C 0.27728 0.39191 0.32597
 C418 C 0.27134 0.42024 0.32349
 C419 C 0.29030 0.44961 0.34534
 H420 H 0.36238 0.39342 0.39104
 H421 H 0.41490 0.42814 0.42763
 H422 H 0.39108 0.51119 0.43286
 H423 H 0.30820 0.37226 0.35002
 H424 H 0.26314 0.36938 0.30921
 H425 H 0.28651 0.47172 0.34391
 C426 C 0.10402 0.63617 0.38923
 C427 C 0.08076 0.64658 0.38055
 C428 C 0.04628 0.62830 0.39122
 C429 C 0.03544 0.59814 0.41162
 C430 C 0.05920 0.58717 0.42173
 C431 C 0.09404 0.60681 0.40987
 O432 O 0.13502 0.65571 0.37491
 C433 C 0.13135 0.67907 0.35672
 C434 C 0.09874 0.67489 0.35938
 C435 C 0.08929 0.69621 0.34155
 C436 C 0.11434 0.72255 0.31985
 C437 C 0.14785 0.72667 0.31604
 C438 C 0.15640 0.70472 0.33515
 H439 H 0.02809 0.63632 0.38319
 H440 H 0.00820 0.58259 0.41813
 H441 H 0.11309 0.59949 0.41653
 H442 H 0.06345 0.69241 0.34384
 H443 H 0.10729 0.73898 0.30523
 H444 H 0.18164 0.70704 0.33278
 C445 C 0.91354 0.53722 0.87451
 C446 C 0.90578 0.55680 0.89653
 C447 C 0.91522 0.56177 0.93201
 C448 C 0.93307 0.54566 0.94531
 C449 C 0.94225 0.52580 0.92294
 C450 C 0.93226 0.52210 0.88674
 O451 O 0.90017 0.53336 0.84239
 C452 C 0.88358 0.55095 0.84407
 C453 C 0.88650 0.56624 0.87645
 C454 C 0.87068 0.58564 0.88382
 C455 C 0.85089 0.58908 0.85680
 C456 C 0.84665 0.57240 0.82378
 C457 C 0.86338 0.55327 0.81733
 H458 H 0.90786 0.57634 0.94922
 H459 H 0.93812 0.54734 0.97346
 H460 H 0.93873 0.50775 0.86824
 H461 H 0.87326 0.59744 0.90946
 H462 H 0.83797 0.60367 0.86189
 H463 H 0.86048 0.54033 0.79228
 C464 C 0.45397 0.36829 0.87688
 C465 C 0.43886 0.34045 0.89962
 C466 C 0.43865 0.34438 0.93611
 C467 C 0.45485 0.37833 0.94961
 C468 C 0.46972 0.40747 0.92655
 C469 C 0.46893 0.40207 0.88959
 O470 O 0.45464 0.35934 0.84360
 C471 C 0.43949 0.32508 0.84526
 C472 C 0.42887 0.31209 0.87884
 C473 C 0.41335 0.27684 0.88657
 C474 C 0.40909 0.25424 0.85866
 C475 C 0.42115 0.26740 0.82428
 C476 C 0.43626 0.30322 0.81742
 H477 H 0.42772 0.32217 0.95364
 H478 H 0.45663 0.38195 0.97800
 H479 H 0.48095 0.42369 0.87132
 H480 H 0.40541 0.26719 0.91321
 H481 H 0.39786 0.22680 0.86404
 H482 H 0.44606 0.31381 0.79141
 C483 C 0.63609 0.08917 0.88170
 C484 C 0.66456 0.10330 0.90362
 C485 C 0.66169 0.10178 0.94032
 C486 C 0.62816 0.08513 0.95488
 C487 C 0.59841 0.06941 0.93274
 C488 C 0.60271 0.07147 0.89557
 O489 O 0.64409 0.09629 0.84780
 C490 C 0.67838 0.11520 0.84821
 C491 C 0.69233 0.11990 0.88162
 C492 C 0.72781 0.13997 0.88801
 C493 C 0.74959 0.15630 0.85886
 C494 C 0.73544 0.15288 0.82456
 C495 C 0.69943 0.13176 0.81912
 H496 H 0.68439 0.11409 0.95711
 H497 H 0.62531 0.08500 0.98333
 H498 H 0.58059 0.06061 0.87793
 H499 H 0.73823 0.14357 0.91452
 H500 H 0.77716 0.17293 0.86317
 H501 H 0.68807 0.12934 0.79320
 C502 C 0.10485 0.47206 0.39542
 C503 C 0.08033 0.43887 0.38580
 C504 C 0.04549 0.42422 0.39453
 C505 C 0.03557 0.44468 0.41383
 C506 C 0.06055 0.47873 0.42476
 C507 C 0.09572 0.49245 0.41537
 O508 O 0.13594 0.48220 0.38205
 C509 C 0.13101 0.45483 0.36363
 C510 C 0.09754 0.42746 0.36528
 C511 C 0.08654 0.39670 0.34681
 C512 C 0.11091 0.39430 0.32537
 C513 C 0.14528 0.42268 0.32234
 C514 C 0.15547 0.45316 0.34221
 H515 H 0.02646 0.39843 0.38581
 H516 H 0.00838 0.43433 0.41967
 H517 H 0.11521 0.51866 0.42246
 H518 H 0.05999 0.37560 0.34829
 H519 H 0.10264 0.37092 0.31008
 H520 H 0.18140 0.47535 0.34028
 C521 C 0.53151 0.62283 0.38550
 C522 C 0.54643 0.65126 0.40743
 C523 C 0.54601 0.64832 0.44410
 C524 C 0.52944 0.61474 0.45866
 C525 C 0.51482 0.58502 0.43649
 C526 C 0.51608 0.58939 0.39932
 O527 O 0.53203 0.63094 0.35166
 C528 C 0.54777 0.66528 0.35213
 C529 C 0.55756 0.67911 0.38553
 C530 C 0.57395 0.71463 0.39198
 C531 C 0.58012 0.73665 0.36286
 C532 C 0.56910 0.72270 0.32855
 C533 C 0.55289 0.68659 0.32307
 H534 H 0.55696 0.67100 0.46092
 H535 H 0.52742 0.61182 0.48713
 H536 H 0.50441 0.56728 0.38169
 H537 H 0.58131 0.72496 0.41846
 H538 H 0.59227 0.76435 0.36714
 H539 H 0.54402 0.67545 0.29706
 C540 C 0.36914 0.89742 0.39169
 C541 C 0.35807 0.92054 0.38488
 C542 C 0.37640 0.95488 0.39600
 C543 C 0.40740 0.96578 0.41478
 C544 C 0.41925 0.94223 0.42279
 C545 C 0.39937 0.90744 0.41078
 O546 O 0.34947 0.86667 0.37686
 C547 C 0.32541 0.87040 0.36023
 C548 C 0.32926 0.90277 0.36443
 C549 C 0.30751 0.91249 0.34802
 C550 C 0.28117 0.88803 0.32596
 C551 C 0.27746 0.85485 0.32040
 C552 C 0.29968 0.84589 0.33834
 H553 H 0.36779 0.97295 0.38944
 H554 H 0.42287 0.99294 0.42171
 H555 H 0.40713 0.88845 0.41608
 H556 H 0.31114 0.93819 0.35145
 H557 H 0.26458 0.89543 0.31222
 H558 H 0.29778 0.82095 0.33450
 C559 C 0.55048 0.91507 0.12016
 C560 C 0.56097 0.89835 0.09708
 C561 C 0.55695 0.89896 0.06061
 C562 C 0.54146 0.91747 0.04753
 C563 C 0.53129 0.93568 0.07083
 C564 C 0.53608 0.93442 0.10768
 O565 O 0.55323 0.90851 0.15384
 C566 C 0.56582 0.88725 0.15210
 C567 C 0.57144 0.88046 0.11801
 C568 C 0.58291 0.85738 0.11024
 C569 C 0.58807 0.84015 0.13873
 C570 C 0.58116 0.84593 0.17380
 C571 C 0.57032 0.87009 0.18062
 H572 H 0.56427 0.88466 0.04298
 H573 H 0.53671 0.91706 0.01940
 H574 H 0.52763 0.94714 0.12620
 H575 H 0.58673 0.85206 0.08323
 H576 H 0.59569 0.82107 0.13342
 H577 H 0.56401 0.87413 0.20718
 C578 C 0.36038 0.46484 0.10399
 C579 C 0.35098 0.43172 0.11453
 C580 C 0.37033 0.41618 0.10596
 C581 C 0.40062 0.43566 0.08591
 C582 C 0.41042 0.46963 0.07413
 C583 C 0.38976 0.48421 0.08332
 O584 O 0.34028 0.47601 0.11724
 C585 C 0.31761 0.44937 0.13654
 C586 C 0.32275 0.42146 0.13557
 C587 C 0.30256 0.39132 0.15497
 C588 C 0.27641 0.39016 0.17659
 C589 C 0.27146 0.41913 0.17889
 C590 C 0.29216 0.44894 0.15813
 H591 H 0.36303 0.39047 0.11537
 H592 H 0.41686 0.42466 0.08023
 H593 H 0.39705 0.51040 0.07557
 H594 H 0.30720 0.36975 0.15403
 H595 H 0.26098 0.36727 0.19255
 H596 H 0.28921 0.47157 0.15946
 C597 C 0.10894 0.64038 0.09928
 C598 C 0.08583 0.65127 0.10698
 C599 C 0.05117 0.63266 0.09687
 C600 C 0.03992 0.60150 0.07835
 C601 C 0.06345 0.59002 0.06966
 C602 C 0.09853 0.61004 0.08018
 O603 O 0.13985 0.65998 0.11383
 C604 C 0.13625 0.68380 0.13111
 C605 C 0.10381 0.67989 0.12757
 C606 C 0.09412 0.70119 0.14491
 C607 C 0.11868 0.72714 0.16721
 C608 C 0.15190 0.73085 0.17216
 C609 C 0.16085 0.70912 0.15330
 H610 H 0.03318 0.64115 0.10408
 H611 H 0.01274 0.58582 0.07160
 H612 H 0.11688 0.60151 0.07480
 H613 H 0.06834 0.69744 0.14204
 H614 H 0.11131 0.74335 0.18167
 H615 H 0.18583 0.71103 0.15672
 C616 C 0.47037 0.09750 0.60824
 C617 C 0.43907 0.07268 0.62196
 C618 C 0.42555 0.03736 0.61628
 C619 C 0.44510 0.02728 0.59557
 C620 C 0.47690 0.05251 0.58014
 C621 C 0.48964 0.08812 0.58681
 O622 O 0.47997 0.12938 0.61895
 C623 C 0.45410 0.12469 0.63980
 C624 C 0.42822 0.09053 0.64226
 C625 C 0.39907 0.07979 0.66335
 C626 C 0.39680 0.10521 0.68308
 C627 C 0.42379 0.14042 0.68195
 C628 C 0.45266 0.15025 0.65963
 H629 H 0.40137 0.01822 0.62821
 H630 H 0.43578 -0.00009 0.59190
 H631 H 0.51434 0.10789 0.57630
 H632 H 0.37909 0.05276 0.66501
 H633 H 0.37470 0.09723 0.70031
 H634 H 0.47376 0.17685 0.65837
 C635 C 0.62400 0.53542 0.61957
 C636 C 0.65182 0.54934 0.59684
 C637 C 0.64788 0.54701 0.56024
 C638 C 0.61394 0.52981 0.54663
 C639 C 0.58488 0.51643 0.56960
 C640 C 0.59022 0.51925 0.60663
 O641 O 0.63300 0.53749 0.65330
 C642 C 0.66728 0.55322 0.65196
 C643 C 0.68024 0.56148 0.61810
 C644 C 0.71552 0.57706 0.61075
 C645 C 0.73818 0.58369 0.63939
 C646 C 0.72507 0.57407 0.67418
 C647 C 0.68923 0.55901 0.68059
 H648 H 0.67008 0.55710 0.54282
 H649 H 0.61022 0.52654 0.51829
 H650 H 0.56858 0.50834 0.62485
 H651 H 0.72515 0.58307 0.58391
 H652 H 0.76560 0.59461 0.63434
 H653 H 0.67865 0.55076 0.70690
 C654 C 0.91663 0.37779 0.62042
 C655 C 0.90433 0.35043 0.59716
 C656 C 0.90802 0.35509 0.56072
 C657 C 0.92506 0.38929 0.54782
 C658 C 0.93906 0.41801 0.57137
 C659 C 0.93466 0.41190 0.60826
 O660 O 0.90783 0.36799 0.65371
 C661 C 0.88972 0.33369 0.65152
 C662 C 0.88714 0.32150 0.61759
 C663 C 0.86850 0.28628 0.60937
 C664 C 0.85141 0.26283 0.63720
 C665 C 0.85269 0.27512 0.67199
 C666 C 0.87235 0.31095 0.67928
 H667 H 0.89717 0.33321 0.54281
 H668 H 0.92688 0.39345 0.51950
 H669 H 0.94424 0.43312 0.62695
 H670 H 0.86666 0.27727 0.58247
 H671 H 0.83598 0.23537 0.63149
 H672 H 0.87327 0.32086 0.70564
   
