data_POSCAR
  _audit_creation_date              2014-09-24
  _audit_creation_method            'ToBaCCo'
  _symmetry_space_group_name_H-M    'P1'
  _symmetry_Int_Tables_number       1
  _symmetry_cell_setting            triclinic
  loop_
  _symmetry_equiv_pos_as_xyz
 x,y,z
_cell_length_a 45.7116
_cell_length_b 45.6916
_cell_length_c 36.8586
_cell_angle_alpha 90.069300
_cell_angle_beta 89.997300
_cell_angle_gamma 120.013500
loop_
  _atom_site_label
  _atom_site_type_symbol
  _atom_site_fract_x
  _atom_site_fract_y
  _atom_site_fract_z
C1 C 0.07142 0.55074 0.08327
 C2 C 0.07026 0.52023 0.08430
 C3 C 0.04742 0.50009 0.05784
 N4 N 0.03461 0.51740 0.04083
 C5 C 0.04918 0.54839 0.05628
 C6 C 0.03987 0.46680 0.04938
 C7 C 0.01752 0.44639 0.02160
 C8 C 0.01402 0.41585 0.01023
 C9 C -0.00928 0.40416 -0.01741
 C10 C -0.01952 0.42783 -0.02234
 N11 N -0.00344 0.45320 0.00202
 C12 C -0.04310 0.42527 -0.04898
 C13 C -0.05012 0.45136 -0.05780
 C14 C -0.07239 0.44903 -0.08479
 C15 C -0.07124 0.47952 -0.08581
 C16 C -0.04838 0.49972 -0.05933
 N17 N -0.03556 0.48237 -0.04235
 C18 C -0.04081 0.53309 -0.05086
 C19 C -0.01840 0.55349 -0.02303
 C20 C -0.01475 0.58411 -0.01151
 C21 C 0.00858 0.59569 0.01609
 C22 C 0.01868 0.57193 0.02088
 N23 N 0.00253 0.54660 -0.00350
 C24 C 0.04219 0.57442 0.04746
 H25 H 0.08679 0.57214 0.10065
 H26 H 0.08481 0.51376 0.10240
 H27 H 0.00732 0.52707 -0.00829
 H28 H 0.02722 0.40341 0.02043
 H29 H -0.01741 0.38101 -0.03251
 H30 H -0.08778 0.42764 -0.10217
 H31 H -0.08581 0.48596 -0.10390
 H32 H 0.01681 0.61882 0.03126
 H33 H -0.00830 0.47269 0.00676
 H34 H -0.02787 0.59664 -0.02163
 C35 C 0.52054 0.44922 -0.08524
 C36 C 0.55099 0.47862 -0.08400
 C37 C 0.54861 0.49829 -0.05674
 N38 N 0.51765 0.48168 -0.04131
 C39 C 0.50034 0.45163 -0.05860
 C40 C 0.57466 0.53126 -0.04759
 C41 C 0.57216 0.55221 -0.02087
 C42 C 0.59608 0.58598 -0.01558
 C43 C 0.58430 0.59770 0.01189
 C44 C 0.55346 0.57083 0.02276
 N45 N 0.54658 0.54306 0.00308
 C46 C 0.53279 0.57293 0.05008
 C47 C 0.49936 0.54730 0.05810
 C48 C 0.47892 0.55021 0.08400
 C49 C 0.44844 0.52081 0.08280
 C50 C 0.45110 0.50069 0.05628
 N51 N 0.48224 0.51700 0.04128
 C52 C 0.42526 0.46752 0.04758
 C53 C 0.42803 0.44637 0.02133
 C54 C 0.40457 0.41236 0.01685
 C55 C 0.41629 0.40058 -0.01059
 C56 C 0.44669 0.42767 -0.02231
 N57 N 0.45331 0.45561 -0.00307
 C58 C 0.46707 0.42571 -0.05016
 H59 H 0.51412 0.42834 -0.10358
 H60 H 0.57237 0.48482 -0.10142
 H61 H 0.47252 0.48002 -0.00815
 H62 H 0.61941 0.60086 -0.03035
 H63 H 0.59685 0.62330 0.02227
 H64 H 0.48518 0.57137 0.10185
 H65 H 0.42686 0.51491 0.09977
 H66 H 0.40399 0.37481 -0.02049
 H67 H 0.52678 0.51880 0.00737
 H68 H 0.38155 0.39739 0.03208
 C69 C 0.44850 0.92794 0.08297
 C70 C 0.47897 0.92902 0.08405
 C71 C 0.49934 0.95229 0.05809
 N72 N 0.48220 0.96544 0.04134
 C73 C 0.45111 0.95066 0.05646
 C74 C 0.53273 0.96005 0.04993
 C75 C 0.55333 0.98275 0.02256
 C76 C 0.58413 0.98669 0.01156
 C77 C 0.59584 1.01012 -0.01594
 C78 C 0.57193 1.01997 -0.02112
 N79 N 0.54641 1.00360 0.00291
 C80 C 0.57436 1.04335 -0.04783
 C81 C 0.54831 1.05025 -0.05688
 C82 C 0.55062 1.07222 -0.08413
 C83 C 0.52018 1.07117 -0.08526
 C84 C 0.50005 1.04864 -0.05856
 N85 N 0.51739 1.03595 -0.04134
 C86 C 0.46681 1.04131 -0.05000
 C87 C 0.44651 1.01905 -0.02208
 C88 C 0.41616 1.01579 -0.01024
 C89 C 0.40452 0.99237 0.01724
 C90 C 0.42796 0.98182 0.02162
 N91 N 0.45317 0.99779 -0.00287
 C92 C 0.42526 0.95797 0.04786
 H93 H 0.42697 0.91232 0.10002
 H94 H 0.48526 0.91416 0.10186
 H95 H 0.47236 0.99257 -0.00803
 H96 H 0.59669 0.97367 0.02188
 H97 H 0.61912 1.01854 -0.03079
 H98 H 0.57196 1.08736 -0.10162
 H99 H 0.51372 1.08558 -0.10356
 H100 H 0.38154 0.98435 0.03256
 H101 H 0.52664 1.00807 0.00729
 H102 H 0.40384 1.02922 -0.02009
 C103 C 0.93015 0.48011 0.58402
 C104 C 0.92899 0.44959 0.58292
 C105 C 0.95127 0.45195 0.55598
 N106 N 0.96586 0.48294 0.54062
 C107 C 0.95303 0.50026 0.55765
 C108 C 0.95826 0.42592 0.54711
 C109 C 0.98182 0.42841 0.52058
 C110 C 0.99190 0.40464 0.51576
 C111 C 1.01529 0.41623 0.48824
 C112 C 1.01900 0.44688 0.47682
 N113 N 0.99804 0.45377 0.49631
 C114 C 1.04148 0.46729 0.44910
 C115 C 1.04909 0.50067 0.44075
 C116 C 1.07203 0.52090 0.41440
 C117 C 1.07317 0.55139 0.41549
 C118 C 1.05083 0.54904 0.44240
 N119 N 1.03623 0.51801 0.45773
 C120 C 1.04378 0.57512 0.45125
 C121 C 1.02014 0.57254 0.47781
 C122 C 1.00987 0.59620 0.48274
 C123 C 0.98652 0.58451 0.51030
 C124 C 0.98300 0.55396 0.52161
 N125 N 1.00401 0.54717 0.50208
 C126 C 0.96060 0.53355 0.54929
 H127 H 0.91558 0.48657 0.60211
 H128 H 0.91358 0.42819 0.60022
 H129 H 1.00887 0.52768 0.50681
 H130 H 0.98362 0.38149 0.53083
 H131 H 1.02842 0.40369 0.47812
 H132 H 1.08664 0.51447 0.39634
 H133 H 1.08861 0.57279 0.39821
 H134 H 0.97329 0.59693 0.52048
 H135 H 0.99328 0.47332 0.49158
 H136 H 1.01803 0.61935 0.46771
 C137 C 0.44927 0.52033 0.41575
 C138 C 0.47860 0.55087 0.41691
 C139 C 0.49855 0.54849 0.44379
 N140 N 0.48219 0.51745 0.45906
 C141 C 0.45204 0.50013 0.44204
 C142 C 0.53158 0.57452 0.45269
 C143 C 0.55264 0.57199 0.47919
 C144 C 0.58652 0.59571 0.48404
 C145 C 0.59827 0.58402 0.51152
 C146 C 0.57131 0.55342 0.52285
 N147 N 0.54346 0.54661 0.50342
 C148 C 0.57337 0.53297 0.55044
 C149 C 0.54767 0.49965 0.55877
 C150 C 0.55042 0.47946 0.58509
 C151 C 0.52106 0.44894 0.58397
 C152 C 0.50112 0.45132 0.55708
 N153 N 0.51750 0.48233 0.54177
 C154 C 0.46808 0.42529 0.54820
 C155 C 0.44704 0.42780 0.52165
 C156 C 0.41317 0.40407 0.51676
 C157 C 0.40144 0.41573 0.48923
 C158 C 0.42840 0.44634 0.47792
 N159 N 0.45623 0.45318 0.49741
 C160 C 0.42636 0.46679 0.45033
 H161 H 0.42823 0.51388 0.39769
 H162 H 0.48458 0.57231 0.39968
 H163 H 0.48056 0.47270 0.49269
 H164 H 0.60143 0.61886 0.46899
 H165 H 0.62395 0.59647 0.52165
 H166 H 0.57147 0.48591 0.60314
 H167 H 0.51508 0.42751 0.60123
 H168 H 0.37578 0.40326 0.47907
 H169 H 0.51913 0.52710 0.50817
 H170 H 0.39826 0.38091 0.53180
 C171 C 0.52003 0.07024 0.58466
 C172 C 0.55055 0.07144 0.58348
 C173 C 0.54814 0.04914 0.55648
 N174 N 0.51711 0.03450 0.54117
 C175 C 0.49983 0.04732 0.55828
 C176 C 0.57415 0.04217 0.54753
 C177 C 0.57160 0.01859 0.52096
 C178 C 0.59535 0.00850 0.51608
 C179 C 0.58370 -0.01492 0.48854
 C180 C 0.55304 -0.01864 0.47716
 N181 N 0.54620 0.00235 0.49670
 C182 C 0.53258 -0.04114 0.44941
 C183 C 0.49920 -0.04875 0.44107
 C184 C 0.47894 -0.07167 0.41467
 C185 C 0.44847 -0.07283 0.41580
 C186 C 0.45086 -0.05049 0.44278
 N187 N 0.48190 -0.03589 0.45812
 C188 C 0.42480 -0.04346 0.45171
 C189 C 0.42741 -0.01984 0.47836
 C190 C 0.40374 -0.00960 0.48341
 C191 C 0.41548 0.01374 0.51103
 C192 C 0.44605 0.01729 0.52227
 N193 N 0.45282 -0.00370 0.50263
 C194 C 0.46651 0.03970 0.54998
 H195 H 0.51360 0.08481 0.60280
 H196 H 0.57199 0.08688 0.60076
 H197 H 0.47233 -0.00853 0.50728
 H198 H 0.61853 0.01679 0.53114
 H199 H 0.59621 -0.02807 0.47837
 H200 H 0.48534 -0.08628 0.39654
 H201 H 0.42705 -0.08826 0.39849
 H202 H 0.40306 0.02694 0.52131
 H203 H 0.52665 0.00711 0.49200
 H204 H 0.38056 -0.01778 0.46840
 O205 O 0.22468 0.39271 0.28521
 O206 O 0.16733 0.39272 0.21451
 O207 O 0.22461 0.39269 0.21443
 O208 O 0.16741 0.39281 0.28528
 O209 O 0.19563 0.44870 0.28506
 O210 O 0.25238 0.44859 0.21471
 O211 O 0.19553 0.44862 0.21479
 O212 O 0.25246 0.44861 0.28500
 Cu213 Cu 0.19316 0.38705 0.24986
 Cu214 Cu 0.22681 0.45422 0.24990
 C215 C 0.24838 0.42078 0.29686
 C216 C 0.17174 0.42079 0.20290
 C217 C 0.24828 0.42074 0.20278
 C218 C 0.17184 0.42090 0.29693
 O219 O 0.60654 0.83242 0.28562
 O220 O 0.60658 0.77494 0.21499
 O221 O 0.60660 0.83230 0.21486
 O222 O 0.60648 0.77507 0.28576
 O223 O 0.55061 0.74735 0.28540
 O224 O 0.55073 0.80414 0.21498
 O225 O 0.55071 0.74722 0.21511
 O226 O 0.55066 0.80427 0.28526
 Cu227 Cu 0.61223 0.80652 0.25031
 Cu228 Cu 0.54509 0.77295 0.25017
 C229 C 0.57847 0.82806 0.29718
 C230 C 0.57853 0.75124 0.20331
 C231 C 0.57856 0.82790 0.20315
 C232 C 0.57840 0.75143 0.29738
 O233 O 0.22516 0.83213 0.21535
 O234 O 0.16807 0.77462 0.28607
 O235 O 0.22534 0.83200 0.28614
 O236 O 0.16790 0.77475 0.21529
 O237 O 0.19612 0.74709 0.21521
 O238 O 0.25311 0.80390 0.28557
 O239 O 0.19628 0.74696 0.28551
 O240 O 0.25294 0.80404 0.21527
 Cu241 Cu 0.19377 0.80621 0.25075
 Cu242 Cu 0.22742 0.77271 0.25036
 C243 C 0.24881 0.82779 0.20354
 C244 C 0.17253 0.75095 0.29755
 C245 C 0.24905 0.82762 0.29764
 C246 C 0.17232 0.75113 0.20346
 O247 O 0.77551 0.60688 0.78571
 O248 O 0.83286 0.60726 0.71474
 O249 O 0.77545 0.60710 0.71494
 O250 O 0.83292 0.60710 0.78551
 O251 O 0.80490 0.55121 0.78501
 O252 O 0.74786 0.55120 0.71493
 O253 O 0.80482 0.55137 0.71473
 O254 O 0.74793 0.55099 0.78521
 Cu255 Cu 0.80701 0.61277 0.75024
 Cu256 Cu 0.77359 0.54560 0.74994
 C257 C 0.75191 0.57875 0.79727
 C258 C 0.82854 0.57925 0.70295
 C259 C 0.75181 0.57903 0.70322
 C260 C 0.82862 0.57903 0.79699
 O261 O 0.39298 0.16769 0.78632
 O262 O 0.39307 0.22491 0.71544
 O263 O 0.39289 0.16750 0.71556
 O264 O 0.39311 0.22510 0.78622
 O265 O 0.44898 0.25273 0.78595
 O266 O 0.44876 0.19557 0.71577
 O267 O 0.44894 0.25254 0.71566
 O268 O 0.44886 0.19576 0.78605
 Cu269 Cu 0.38733 0.19347 0.75089
 Cu270 Cu 0.45447 0.22694 0.75087
 C271 C 0.42103 0.17205 0.79796
 C272 C 0.42114 0.24851 0.70375
 C273 C 0.42091 0.17181 0.70391
 C274 C 0.42120 0.24878 0.79782
 O275 O 0.83232 0.22588 0.78516
 O276 O 0.77496 0.16839 0.71440
 O277 O 0.83233 0.22568 0.71437
 O278 O 0.77496 0.16859 0.78518
 O279 O 0.74732 0.19682 0.78480
 O280 O 0.80425 0.25348 0.71447
 O281 O 0.74732 0.19663 0.71451
 O282 O 0.80424 0.25367 0.78477
 Cu283 Cu 0.80648 0.19429 0.74979
 Cu284 Cu 0.77300 0.22795 0.74962
 C285 C 0.82796 0.24960 0.79674
 C286 C 0.75133 0.17280 0.70269
 C287 C 0.82797 0.24934 0.70264
 C288 C 0.75133 0.17306 0.79678
 C289 C 0.05768 0.45342 0.06989
 C290 C 0.07332 0.44394 0.08798
 C291 C 0.09259 0.43489 0.11033
 C292 C 0.10978 0.42890 0.13034
 C293 C 0.13070 0.42397 0.15476
 C294 C 0.14916 0.42153 0.17637
 C295 C 0.54606 0.60416 0.07058
 C296 C 0.55549 0.62933 0.08864
 C297 C 0.56451 0.65772 0.11094
 C298 C 0.57047 0.68097 0.13091
 C299 C 0.57539 0.70690 0.15527
 C300 C 0.57782 0.72786 0.17683
 C301 C 0.39435 0.94065 0.06888
 C302 C 0.36943 0.92535 0.08735
 C303 C 0.34134 0.90641 0.11011
 C304 C 0.31834 0.88944 0.13041
 C305 C 0.29269 0.86871 0.15511
 C306 C 0.27195 0.85035 0.17689
 C307 C 0.94276 0.54692 0.56980
 C308 C 0.92710 0.55640 0.58788
 C309 C 0.90780 0.56544 0.61023
 C310 C 0.89057 0.57140 0.63025
 C311 C 0.86962 0.57628 0.65470
 C312 C 0.85114 0.57865 0.67635
 C313 C 0.45451 0.39436 0.56918
 C314 C 0.44487 0.36942 0.58762
 C315 C 0.43564 0.34128 0.61033
 C316 C 0.42952 0.31824 0.63061
 C317 C 0.42445 0.29252 0.65529
 C318 C 0.42193 0.27173 0.67707
 C319 C 0.60514 0.05963 0.56847
 C320 C 0.63013 0.07502 0.58686
 C321 C 0.65832 0.09403 0.60952
 C322 C 0.68142 0.11106 0.62974
 C323 C 0.70720 0.13185 0.65435
 C324 C 0.72805 0.15024 0.67608
 C325 C 0.45415 0.05818 0.93064
 C326 C 0.44453 0.07377 0.91267
 C327 C 0.43533 0.09299 0.89043
 C328 C 0.42924 0.11016 0.87048
 C329 C 0.42423 0.13105 0.84611
 C330 C 0.42175 0.14949 0.82451
 C331 C 0.60567 0.54489 0.93153
 C332 C 0.63067 0.55458 0.91318
 C333 C 0.65888 0.56389 0.89056
 C334 C 0.68198 0.57008 0.87034
 C335 C 0.70778 0.57524 0.84571
 C336 C 0.72863 0.57785 0.82395
 C337 C 0.94047 0.39596 0.93114
 C338 C 0.92522 0.37091 0.91275
 C339 C 0.90635 0.34268 0.89008
 C340 C 0.88943 0.31956 0.86982
 C341 C 0.86876 0.29375 0.84516
 C342 C 0.85045 0.27289 0.82340
 C343 C 0.54526 0.94203 0.42996
 C344 C 0.55491 0.92647 0.41193
 C345 C 0.56412 0.90725 0.38963
 C346 C 0.57020 0.89008 0.36966
 C347 C 0.57522 0.86915 0.34527
 C348 C 0.57771 0.85068 0.32369
 C349 C 0.39515 0.45340 0.42983
 C350 C 0.37001 0.44392 0.41176
 C351 C 0.34166 0.43486 0.38942
 C352 C 0.31846 0.42887 0.36941
 C353 C 0.29259 0.42394 0.34499
 C354 C 0.27170 0.42151 0.32339
 C355 C 0.06024 0.60443 0.43147
 C356 C 0.07549 0.62949 0.41318
 C357 C 0.09435 0.65775 0.39061
 C358 C 0.11124 0.68089 0.37044
 C359 C 0.13186 0.70673 0.34587
 C360 C 0.15012 0.72763 0.32416
 C361 C 0.94241 0.54582 0.92972
 C362 C 0.92689 0.55550 0.91171
 C363 C 0.90771 0.56472 0.88943
 C364 C 0.89057 0.57081 0.86946
 C365 C 0.86967 0.57583 0.84507
 C366 C 0.85122 0.57830 0.82349
 C367 C 0.45445 0.39617 0.93043
 C368 C 0.44485 0.37093 0.91243
 C369 C 0.43567 0.34247 0.89017
 C370 C 0.42958 0.31918 0.87023
 C371 C 0.42454 0.29319 0.84588
 C372 C 0.42202 0.27220 0.82432
 C373 C 0.60531 0.06069 0.93120
 C374 C 0.63027 0.07597 0.91279
 C375 C 0.65843 0.09485 0.89010
 C376 C 0.68149 0.11176 0.86984
 C377 C 0.70724 0.13239 0.84519
 C378 C 0.72807 0.15065 0.82343
 C379 C 0.05827 0.45454 0.42969
 C380 C 0.07379 0.44484 0.41168
 C381 C 0.09294 0.43554 0.38942
 C382 C 0.11005 0.42937 0.36946
 C383 C 0.13090 0.42426 0.34508
 C384 C 0.14930 0.42171 0.32348
 C385 C 0.54512 0.60548 0.43175
 C386 C 0.55474 0.63044 0.41336
 C387 C 0.56394 0.65860 0.39069
 C388 C 0.57004 0.68166 0.37045
 C389 C 0.57509 0.70740 0.34581
 C390 C 0.57761 0.72820 0.32405
 C391 C 0.39547 0.94009 0.43190
 C392 C 0.37040 0.92483 0.41357
 C393 C 0.34215 0.90595 0.39095
 C394 C 0.31902 0.88903 0.37072
 C395 C 0.29320 0.86837 0.34608
 C396 C 0.27234 0.85008 0.32431
 C397 C 0.54605 0.94216 0.07038
 C398 C 0.55550 0.92645 0.08840
 C399 C 0.56453 0.90713 0.11068
 C400 C 0.57051 0.88989 0.13064
 C401 C 0.57544 0.86894 0.15501
 C402 C 0.57786 0.85048 0.17661
 C403 C 0.39428 0.45392 0.06848
 C404 C 0.36930 0.44428 0.08686
 C405 C 0.34112 0.43505 0.10951
 C406 C 0.31805 0.42896 0.12974
 C407 C 0.29230 0.42393 0.15438
 C408 C 0.27150 0.42146 0.17613
 C409 C 0.05954 0.60534 0.06856
 C410 C 0.07485 0.63027 0.08708
 C411 C 0.09378 0.65840 0.10989
 C412 C 0.11074 0.68142 0.13023
 C413 C 0.13145 0.70713 0.15496
 C414 C 0.14979 0.72792 0.17677
 C415 C 0.45317 0.05752 0.57059
 C416 C 0.44373 0.07317 0.58875
 C417 C 0.43472 0.09247 0.61118
 C418 C 0.42880 0.10969 0.63125
 C419 C 0.42393 0.13066 0.65572
 C420 C 0.42156 0.14916 0.67736
 C421 C 0.60462 0.54632 0.57085
 C422 C 0.62981 0.55580 0.58884
 C423 C 0.65823 0.56487 0.61106
 C424 C 0.68149 0.57087 0.63097
 C425 C 0.70745 0.57583 0.65527
 C426 C 0.72842 0.57829 0.67678
 C427 C 0.94087 0.39499 0.56809
 C428 C 0.92552 0.37006 0.58653
 C429 C 0.90655 0.34195 0.60925
 C430 C 0.88957 0.31893 0.62953
 C431 C 0.86883 0.29326 0.65420
 C432 C 0.85049 0.27250 0.67598
   
