data_POSCAR
  _audit_creation_date              2014-09-24
  _audit_creation_method            'ToBaCCo'
  _symmetry_space_group_name_H-M    'P1'
  _symmetry_Int_Tables_number       1
  _symmetry_cell_setting            triclinic
  loop_
  _symmetry_equiv_pos_as_xyz
 x,y,z
_cell_length_a 52.8151
_cell_length_b 52.1166
_cell_length_c 52.8541
_cell_angle_alpha 89.962600
_cell_angle_beta 90.010000
_cell_angle_gamma 89.962600
loop_
  _atom_site_label
  _atom_site_type_symbol
  _atom_site_fract_x
  _atom_site_fract_y
  _atom_site_fract_z
C1 C 0.60603 0.64359 0.62569
 C2 C 0.60636 0.62457 0.64456
 C3 C 0.62527 0.60547 0.64500
 C4 C 0.64401 0.60576 0.62601
 C5 C 0.64401 0.62461 0.60697
 C6 C 0.62494 0.64341 0.60700
 H7 H 0.59179 0.62471 0.65896
 H8 H 0.65871 0.59127 0.62599
 H9 H 0.62482 0.65799 0.59240
 C10 C 0.89478 0.35570 0.12534
 C11 C 0.87578 0.35599 0.10661
 C12 C 0.85673 0.37484 0.10656
 C13 C 0.85677 0.39365 0.12559
 C14 C 0.87547 0.39383 0.14449
 C15 C 0.89435 0.37481 0.14419
 H16 H 0.87574 0.34149 0.09194
 H17 H 0.84216 0.40823 0.12569
 H18 H 0.90877 0.37494 0.15876
 C19 C 0.39414 0.14418 -0.12522
 C20 C 0.39379 0.12518 -0.14408
 C21 C 0.37492 0.10617 -0.14440
 C22 C 0.35621 0.10636 -0.12549
 C23 C 0.35618 0.12517 -0.10644
 C24 C 0.37524 0.14399 -0.10650
 H25 H 0.40827 0.12518 -0.15857
 H26 H 0.34161 0.09179 -0.12560
 H27 H 0.37536 0.15855 -0.09190
 C28 C 0.10507 0.85538 0.37488
 C29 C 0.10549 0.87450 0.35601
 C30 C 0.12437 0.89350 0.35571
 C31 C 0.14307 0.89329 0.37461
 C32 C 0.14312 0.87447 0.39364
 C33 C 0.12408 0.85563 0.39361
 H34 H 0.09108 0.87466 0.34144
 H35 H 0.15767 0.90786 0.37450
 H36 H 0.12411 0.84112 0.40829
 N37 N 0.09557 0.16603 0.11350
 N38 N 0.08567 0.15553 0.13385
 C39 C 0.06512 0.16913 0.14083
 C40 C 0.06207 0.18915 0.12395
 C41 C 0.08169 0.18663 0.10685
 H42 H 0.05323 0.16488 0.15695
 H43 H 0.08554 0.19889 0.09079
 Cu44 Cu 0.10066 0.12514 0.14915
 Cu45 Cu 0.12568 0.15224 0.09714
 Cu46 Cu 0.15269 0.09805 0.12412
 N47 N 0.11597 0.09475 0.16412
 N48 N 0.13634 0.08426 0.15422
 C49 C 0.14300 0.06366 0.16808
 C50 C 0.12589 0.06114 0.18769
 C51 C 0.10899 0.08115 0.18465
 H52 H 0.15907 0.05140 0.16422
 H53 H 0.09286 0.08539 0.19653
 N54 N 0.16645 0.11483 0.09365
 N55 N 0.15616 0.13546 0.08338
 C56 C 0.16982 0.14229 0.06293
 C57 C 0.18957 0.12514 0.06025
 C58 C 0.18690 0.10800 0.07999
 H59 H 0.16576 0.15851 0.05082
 H60 H 0.19902 0.09178 0.08404
 H61 H 0.12064 0.11474 0.10885
 H62 H 0.14098 0.13554 0.12917
 N63 N 0.40407 0.83400 0.61344
 N64 N 0.41396 0.84451 0.63378
 C65 C 0.43453 0.83094 0.64077
 C66 C 0.43762 0.81094 0.62390
 C67 C 0.41799 0.81343 0.60681
 H68 H 0.44642 0.83520 0.65689
 H69 H 0.41414 0.80117 0.59076
 Cu70 Cu 0.39892 0.87485 0.64906
 Cu71 Cu 0.37392 0.84773 0.59708
 Cu72 Cu 0.34680 0.90184 0.62404
 N73 N 0.38355 0.90520 0.66401
 N74 N 0.36315 0.91565 0.65412
 C75 C 0.35645 0.93623 0.66797
 C76 C 0.37357 0.93878 0.68757
 C77 C 0.39051 0.91881 0.68453
 H78 H 0.34035 0.94845 0.66411
 H79 H 0.40666 0.91459 0.69642
 N80 N 0.33306 0.88505 0.59359
 N81 N 0.34339 0.86445 0.58333
 C82 C 0.32973 0.85760 0.56288
 C83 C 0.30993 0.87469 0.56021
 C84 C 0.31257 0.89183 0.57994
 H85 H 0.33381 0.84140 0.55079
 H86 H 0.30041 0.90802 0.58398
 H87 H 0.37888 0.88523 0.60877
 H88 H 0.35861 0.86437 0.62910
 N89 N 0.90404 0.66620 0.38648
 N90 N 0.91361 0.65607 0.36580
 C91 C 0.93415 0.66966 0.35882
 C92 C 0.93754 0.68930 0.37604
 C93 C 0.91812 0.68657 0.39334
 H94 H 0.94582 0.66564 0.34249
 H95 H 0.91455 0.69851 0.40968
 Cu96 Cu 0.89833 0.62610 0.35006
 Cu97 Cu 0.87409 0.65227 0.40296
 Cu98 Cu 0.84705 0.59823 0.37595
 N99 N 0.88328 0.59541 0.33550
 N100 N 0.86323 0.58461 0.34571
 C101 C 0.85675 0.56385 0.33203
 C102 C 0.87365 0.56154 0.31221
 C103 C 0.89024 0.58184 0.31495
 H104 H 0.84095 0.55135 0.33615
 H105 H 0.90615 0.58630 0.30286
 N106 N 0.83344 0.61482 0.40655
 N107 N 0.84373 0.63540 0.41684
 C108 C 0.83016 0.64213 0.43737
 C109 C 0.81045 0.62497 0.44008
 C110 C 0.81305 0.60792 0.42028
 H111 H 0.83423 0.65831 0.44950
 H112 H 0.80093 0.59173 0.41622
 H113 H 0.87934 0.61499 0.39065
 H114 H 0.85832 0.63587 0.37104
 N115 N 0.59634 0.33408 -0.11367
 N116 N 0.58676 0.34425 -0.13435
 C117 C 0.56619 0.33070 -0.14131
 C118 C 0.56279 0.31105 -0.12408
 C119 C 0.58222 0.31374 -0.10680
 H120 H 0.55452 0.33475 -0.15764
 H121 H 0.58580 0.30177 -0.09046
 Cu122 Cu 0.60210 0.37419 -0.15012
 Cu123 Cu 0.62634 0.34794 -0.09722
 Cu124 Cu 0.65346 0.40194 -0.12429
 N125 N 0.61720 0.40485 -0.16473
 N126 N 0.63728 0.41560 -0.15453
 C127 C 0.64379 0.43635 -0.16825
 C128 C 0.62689 0.43870 -0.18805
 C129 C 0.61025 0.41844 -0.18528
 H130 H 0.65963 0.44881 -0.16414
 H131 H 0.59432 0.41402 -0.19736
 N132 N 0.66707 0.38530 -0.09368
 N133 N 0.65674 0.36473 -0.08337
 C134 C 0.67032 0.35796 -0.06284
 C135 C 0.69007 0.37507 -0.06016
 C136 C 0.68748 0.39214 -0.07997
 H137 H 0.66623 0.34177 -0.05071
 H138 H 0.69964 0.40831 -0.08405
 H139 H 0.62116 0.38524 -0.10955
 H140 H 0.64211 0.36432 -0.12916
 N141 N -0.04981 0.31841 0.14312
 C142 C -0.04950 0.30011 0.12494
 N143 N -0.06771 0.30028 0.10689
 N144 N -0.08569 0.31822 0.10703
 C145 C -0.08618 0.33670 0.12520
 N146 N -0.06779 0.33635 0.14325
 C147 C -0.03012 0.28081 0.12478
 C148 C -0.01383 0.26459 0.12464
 C149 C 0.00557 0.24530 0.12447
 N150 N 0.00602 0.22677 0.14248
 N151 N 0.02404 0.20886 0.14231
 C152 C 0.04220 0.20889 0.12413
 N153 N 0.04169 0.22748 0.10612
 N154 N 0.02368 0.24539 0.10629
 N155 N 0.56755 0.69995 0.60708
 C156 C 0.54931 0.70010 0.62510
 N157 N 0.54960 0.68180 0.64332
 N158 N 0.56760 0.66388 0.64350
 C159 C 0.58597 0.66358 0.62549
 N160 N 0.58555 0.68202 0.60728
 C161 C 0.52991 0.71940 0.62489
 C162 C 0.51361 0.73559 0.62471
 C163 C 0.49419 0.75486 0.62450
 N164 N 0.47609 0.75476 0.60631
 N165 N 0.45804 0.77264 0.60612
 C166 C 0.45751 0.79123 0.62411
 N167 N 0.47568 0.79128 0.64230
 N168 N 0.49372 0.77339 0.64249
 N169 N 1.06757 0.79998 0.39335
 C170 C 1.04936 0.79986 0.37530
 N171 N 1.04966 0.81818 0.35712
 N172 N 1.06765 0.83609 0.35698
 C173 C 1.08604 0.83640 0.37502
 N174 N 1.08555 0.81790 0.39321
 C175 C 1.02997 0.78058 0.37546
 C176 C 1.01366 0.76441 0.37559
 C177 C 0.99424 0.74517 0.37573
 N178 N 0.97638 0.74499 0.39416
 N179 N 0.95831 0.72716 0.39427
 C180 C 0.95749 0.70893 0.37594
 N181 N 0.97540 0.70916 0.35752
 N182 N 0.99348 0.72699 0.35741
 N183 N 0.45053 0.18233 -0.14299
 C184 C 0.45085 0.20062 -0.12479
 N185 N 0.43264 0.20048 -0.10673
 N186 N 0.41465 0.18258 -0.10688
 C187 C 0.41419 0.16415 -0.12507
 N188 N 0.43253 0.16443 -0.14312
 C189 C 0.47025 0.21988 -0.12463
 C190 C 0.48657 0.23604 -0.12450
 C191 C 0.50602 0.25525 -0.12436
 N192 N 0.52388 0.25539 -0.10594
 N193 N 0.54198 0.27320 -0.10584
 C194 C 0.54281 0.29145 -0.12417
 N195 N 0.52489 0.29126 -0.14259
 N196 N 0.50679 0.27345 -0.14269
 N197 N 0.10666 -0.06820 0.29937
 C198 C 0.12486 -0.04990 0.29911
 N199 N 0.14290 -0.05008 0.31734
 N200 N 0.14274 -0.06804 0.33529
 C201 C 0.12454 -0.08648 0.33569
 N202 N 0.10650 -0.08616 0.31733
 C203 C 0.12504 -0.03057 0.27976
 C204 C 0.12519 -0.01435 0.26349
 C205 C 0.12537 0.00495 0.24412
 N206 N 0.10735 0.02349 0.24368
 N207 N 0.10751 0.04141 0.22569
 C208 C 0.12571 0.04139 0.20754
 N209 N 0.14373 0.02280 0.20803
 N210 N 0.14356 0.00488 0.22603
 N211 N 0.60751 0.56819 -0.29964
 C212 C 0.62573 0.54988 -0.29933
 N213 N 0.64379 0.55005 -0.31752
 N214 N 0.64364 0.56799 -0.33548
 C215 C 0.62543 0.58648 -0.33598
 N216 N 0.60737 0.58612 -0.31761
 C217 C 0.62590 0.53056 -0.27997
 C218 C 0.62605 0.51433 -0.26371
 C219 C 0.62625 0.49501 -0.24436
 N220 N 0.64421 0.49529 -0.22603
 N221 N 0.64441 0.47734 -0.20807
 C222 C 0.62665 0.45851 -0.20784
 N223 N 0.60868 0.45828 -0.22622
 N224 N 0.60849 0.47624 -0.24419
 N225 N 0.35640 1.04983 0.81719
 C226 C 0.37445 1.04968 0.79897
 N227 N 0.39265 1.06799 0.79926
 N228 N 0.39280 1.08591 0.81722
 C229 C 0.37475 1.08619 0.83557
 N230 N 0.35656 1.06775 0.83515
 C231 C 0.37428 1.03039 0.77962
 C232 C 0.37415 1.01418 0.76336
 C233 C 0.37400 0.99490 0.74399
 N234 N 0.39207 0.97642 0.74354
 N235 N 0.39193 0.95852 0.72555
 C236 C 0.37372 0.95851 0.70741
 N237 N 0.35565 0.97705 0.70791
 N238 N 0.35579 0.99495 0.72590
 N239 N 0.85689 0.45023 0.18282
 C240 C 0.87493 0.45039 0.20106
 N241 N 0.89314 0.43207 0.20081
 N242 N 0.89331 0.41413 0.18286
 C243 C 0.87528 0.41383 0.16450
 N244 N 0.85707 0.43228 0.16488
 C245 C 0.87473 0.46971 0.22039
 C246 C 0.87456 0.48593 0.23663
 C247 C 0.87434 0.50525 0.25596
 N248 N 0.89207 0.52405 0.25611
 N249 N 0.89185 0.54200 0.27405
 C250 C 0.87391 0.54174 0.29244
 N251 N 0.85618 0.52288 0.29224
 N252 N 0.85640 0.50493 0.27430
 N253 N 0.31834 0.14331 -0.05025
 C254 C 0.30000 0.12514 -0.05022
 N255 N 0.30001 0.10699 -0.06856
 N256 N 0.31784 0.10700 -0.08640
 C257 C 0.33631 0.12516 -0.08656
 N258 N 0.33617 0.14331 -0.06809
 C259 C 0.28081 0.12512 -0.03101
 C260 C 0.26468 0.12512 -0.01487
 C261 C 0.24549 0.12513 0.00433
 N262 N 0.24540 0.10686 0.02261
 N263 N 0.22757 0.10687 0.04045
 C264 C 0.20923 0.12514 0.04059
 N265 N 0.20937 0.14341 0.02226
 N266 N 0.22720 0.14340 0.00443
 N267 N 0.68183 0.64286 0.55078
 C268 C 0.70020 0.62470 0.55074
 N269 N 0.70022 0.60652 0.56908
 N270 N 0.68240 0.60649 0.58691
 C271 C 0.66389 0.62464 0.58709
 N272 N 0.66401 0.64282 0.56862
 C273 C 0.71939 0.62473 0.53153
 C274 C 0.73550 0.62476 0.51538
 C275 C 0.75467 0.62480 0.49614
 N276 N 0.77295 0.64306 0.49604
 N277 N 0.79074 0.64311 0.47817
 C278 C 0.79084 0.62490 0.45980
 N279 N 0.77251 0.60665 0.45995
 N280 N 0.75472 0.60660 0.47783
 N281 N 0.81881 0.35675 0.05040
 C282 C 0.80048 0.37495 0.05038
 N283 N 0.80052 0.39311 0.06872
 N284 N 0.81836 0.39307 0.08654
 C285 C 0.83683 0.37487 0.08669
 N286 N 0.83666 0.35672 0.06823
 C287 C 0.78126 0.37498 0.03119
 C288 C 0.76512 0.37501 0.01506
 C289 C 0.74593 0.37504 -0.00416
 N290 N 0.72760 0.35683 -0.00423
 N291 N 0.70979 0.35684 -0.02209
 C292 C 0.70970 0.37507 -0.04046
 N293 N 0.72808 0.39328 -0.04033
 N294 N 0.74590 0.39327 -0.02247
 N295 N 0.19932 0.89267 0.43148
 C296 C 0.19936 0.87450 0.44983
 N297 N 0.18104 0.85632 0.44982
 N298 N 0.16320 0.85631 0.43200
 C299 C 0.16301 0.87448 0.41352
 N300 N 0.18147 0.89265 0.41366
 C301 C 0.21858 0.87451 0.46902
 C302 C 0.23473 0.87453 0.48515
 C303 C 0.25395 0.87457 0.50433
 N304 N 0.27229 0.85636 0.50442
 N305 N 0.29014 0.85640 0.52224
 C306 C 0.29025 0.87465 0.54056
 N307 N 0.27185 0.89287 0.54042
 N308 N 0.25400 0.89283 0.52260
   
