data_POSCAR
  _audit_creation_date              2014-09-24
  _audit_creation_method            'ToBaCCo'
  _symmetry_space_group_name_H-M    'P1'
  _symmetry_Int_Tables_number       1
  _symmetry_cell_setting            triclinic
  loop_
  _symmetry_equiv_pos_as_xyz
 x,y,z
_cell_length_a 29.9586
_cell_length_b 29.7724
_cell_length_c 51.3645
_cell_angle_alpha 87.560600
_cell_angle_beta 92.477900
_cell_angle_gamma 85.742500
loop_
  _atom_site_label
  _atom_site_type_symbol
  _atom_site_fract_x
  _atom_site_fract_y
  _atom_site_fract_z
C1 C -0.00974 0.59457 0.97958
 C2 C -0.01595 0.61263 1.00410
 C3 C -0.01413 0.58579 1.02725
 C4 C -0.00872 0.53817 1.02578
 C5 C -0.00315 0.51873 1.00122
 C6 C -0.00253 0.54690 0.97813
 C7 C 0.00849 0.52664 0.95471
 C8 C 0.01490 0.48010 0.95344
 C9 C 0.01178 0.45167 0.97565
 C10 C 0.00295 0.47091 0.99985
 C11 C -0.01031 0.50937 1.04808
 C12 C -0.00398 0.46292 1.04673
 C13 C 0.00121 0.44251 1.02274
 C14 C 0.00756 0.39471 1.02117
 C15 C 0.01751 0.37699 0.99699
 C16 C 0.01899 0.40448 0.97442
 H17 H 0.01366 0.54636 0.93713
 H18 H 0.02321 0.46660 0.93486
 H19 H -0.01671 0.52226 1.06702
 H20 H -0.00233 0.44346 1.06501
 H21 H -0.02113 0.64894 1.00528
 H22 H 0.02154 0.34074 0.99518
 C23 C 0.40763 0.00838 0.52498
 C24 C 0.38302 0.00246 0.50180
 C25 C 0.40330 0.00114 0.47783
 C26 C 0.45014 0.00414 0.47695
 C27 C 0.47581 0.00963 0.50034
 C28 C 0.45438 0.01242 0.52439
 C29 C 0.48023 0.01912 0.54714
 C30 C 0.52610 0.02312 0.54636
 C31 C 0.54878 0.01791 0.52308
 C32 C 0.52298 0.01242 0.49967
 C33 C 0.47201 0.00129 0.45337
 C34 C 0.51797 0.00469 0.45262
 C35 C 0.54407 0.01015 0.47551
 C36 C 0.59064 0.01420 0.47477
 C37 C 0.61551 0.02040 0.49778
 C38 C 0.59602 0.02084 0.52220
 H39 H 0.46526 0.02181 0.56584
 H40 H 0.54329 0.03114 0.56429
 H41 H 0.45381 -0.00369 0.43519
 H42 H 0.53280 0.00323 0.43381
 H43 H 0.34708 0.00021 0.50233
 H44 H 0.65151 0.02149 0.49667
 C45 C 0.05853 -0.06942 0.27911
 H46 H 0.05003 -0.09881 0.26895
 C47 C 0.09520 -0.07301 0.29704
 H48 H 0.11516 -0.10483 0.29987
 C49 C 0.04219 0.00691 0.28875
 H50 H 0.02063 0.03753 0.28624
 C51 C 0.07860 0.00488 0.30675
 H52 H 0.08481 0.03427 0.31769
 N53 N 0.03322 -0.02963 0.27494
 C54 C -0.06217 -0.09810 0.23207
 H55 H -0.09032 -0.08368 0.24218
 C56 C -0.06781 -0.13468 0.21642
 H57 H -0.10017 -0.14857 0.21493
 C58 C 0.01349 -0.09635 0.22062
 H59 H 0.04463 -0.08016 0.22161
 C60 C 0.00941 -0.13305 0.20491
 H61 H 0.03764 -0.14494 0.19393
 Zn62 Zn -0.01762 -0.02458 0.25105
 N63 N -0.02221 -0.07920 0.23353
 C64 C -0.01034 0.01312 0.20001
 N65 N -0.01290 0.02343 0.22551
 C66 C -0.01223 0.06698 0.23262
 C67 C -0.00743 0.10167 0.21394
 C68 C -0.00492 0.04656 0.18084
 C69 C -0.07326 -0.04256 0.29140
 C70 C -0.10917 -0.03612 0.30759
 C71 C -0.13575 0.02996 0.28079
 C72 C -0.09945 0.02201 0.26495
 N73 N -0.06890 -0.01354 0.27068
 H74 H -0.01246 -0.02106 0.19429
 H75 H -0.01605 0.07513 0.25269
 H76 H -0.00643 0.13601 0.21996
 H77 H -0.00264 0.03750 0.16071
 H78 H -0.04841 -0.07051 0.29550
 H79 H -0.11155 -0.05908 0.32431
 H80 H -0.15972 0.05849 0.27609
 H81 H -0.09572 0.04431 0.24817
 C82 C -0.03195 -0.15203 0.20221
 C83 C 0.10577 -0.03543 0.31102
 C84 C -0.14078 0.00076 0.30250
 C85 C -0.00299 0.09141 0.18774
 C86 C -0.01262 0.10464 0.76143
 H87 H -0.03541 0.10265 0.74473
 C88 C -0.01468 0.14361 0.77572
 H89 H -0.03921 0.17108 0.76980
 C90 C 0.04790 0.07225 0.78880
 H91 H 0.07249 0.04465 0.79383
 C92 C 0.04679 0.11034 0.80374
 H93 H 0.06997 0.11075 0.82047
 N94 N 0.01772 0.06944 0.76850
 C95 C 0.09339 -0.03277 0.73008
 H96 H 0.08181 -0.06184 0.74032
 C97 C 0.12974 -0.03826 0.71412
 H98 H 0.14659 -0.07149 0.71290
 C99 C 0.08449 0.04541 0.71860
 H100 H 0.06588 0.07771 0.72001
 C101 C 0.12036 0.04135 0.70215
 H102 H 0.12885 0.07080 0.69088
 Zn103 Zn 0.01813 0.01499 0.75028
 N104 N 0.07143 0.00854 0.73189
 C105 C -0.02282 0.01303 0.70004
 N106 N -0.03143 0.01779 0.72561
 C107 C -0.07416 0.02575 0.73325
 C108 C -0.11012 0.02992 0.71478
 C109 C -0.05759 0.01743 0.68098
 C110 C 0.05338 -0.04644 0.79024
 C111 C 0.05339 -0.08061 0.80963
 C112 C -0.02306 -0.09192 0.79635
 C113 C -0.02153 -0.05754 0.77703
 N114 N 0.01602 -0.03483 0.77470
 H115 H 0.01113 0.00620 0.69424
 H116 H -0.08022 0.02976 0.75366
 H117 H -0.14385 0.03706 0.72107
 H118 H -0.04998 0.01380 0.66072
 H119 H 0.08352 -0.02942 0.78745
 H120 H 0.08360 -0.08917 0.82171
 H121 H -0.05375 -0.10849 0.79848
 H122 H -0.05070 -0.04863 0.76430
 C123 C 0.14314 -0.00108 0.69943
 C124 C 0.01480 0.14654 0.79751
 C125 C 0.01454 -0.10328 0.81327
 C126 C -0.10183 0.02639 0.68824
 C127 C 0.01815 -0.37646 0.09335
 C128 C -0.01414 -0.34005 0.09648
 C129 C -0.04829 -0.33127 0.07656
 C130 C -0.04852 -0.35647 0.05410
 C131 C -0.01586 -0.39191 0.05103
 C132 C 0.01731 -0.40164 0.07102
 C133 C -0.08183 -0.29689 0.07886
 C134 C -0.08205 -0.27023 0.10034
 C135 C -0.04806 -0.27638 0.12036
 C136 C -0.01331 -0.31166 0.11832
 C137 C 0.02179 -0.31641 0.13774
 C138 C 0.02366 -0.28711 0.15801
 C139 C -0.00970 -0.25247 0.16016
 C140 C -0.04678 -0.24736 0.14187
 C141 C -0.08066 -0.21280 0.14572
 C142 C -0.07636 -0.18314 0.16583
 C143 C -0.03846 -0.18689 0.18291
 C144 C -0.00569 -0.22228 0.18029
 H145 H 0.04483 -0.38623 0.10764
 H146 H -0.07469 -0.34875 0.03895
 H147 H 0.04395 -0.42774 0.06894
 H148 H -0.10815 -0.29020 0.06373
 H149 H -0.10887 -0.24408 0.10019
 H150 H 0.04930 -0.34175 0.13748
 H151 H 0.05189 -0.29142 0.17207
 H152 H -0.11083 -0.20739 0.13349
 H153 H -0.10222 -0.15610 0.16743
 H154 H 0.02335 -0.22595 0.19378
 C155 C -0.03835 0.33681 0.07917
 C156 C -0.00672 0.29938 0.08432
 C157 C 0.02919 0.29410 0.06737
 C158 C 0.03388 0.32592 0.04693
 C159 C 0.00315 0.36379 0.04254
 C160 C -0.03359 0.36804 0.05858
 C161 C 0.06039 0.25700 0.07080
 C162 C 0.05635 0.22423 0.09037
 C163 C 0.02112 0.22760 0.10774
 C164 C -0.00998 0.26663 0.10528
 C165 C -0.04282 0.27190 0.12406
 C166 C -0.04616 0.23957 0.14405
 C167 C -0.01757 0.20032 0.14593
 C168 C 0.01624 0.19347 0.12768
 C169 C 0.04321 0.15222 0.12990
 C170 C 0.03696 0.11967 0.14946
 C171 C 0.00396 0.12696 0.16758
 C172 C -0.02300 0.16756 0.16585
 H173 H -0.06789 0.34229 0.09018
 H174 H 0.06238 0.32164 0.03469
 H175 H -0.05966 0.39501 0.05475
 H176 H 0.08813 0.25298 0.05801
 H177 H 0.08216 0.19696 0.09166
 H178 H -0.06608 0.30125 0.12418
 H179 H -0.07185 0.24517 0.15804
 H180 H 0.06879 0.14345 0.11653
 H181 H 0.05822 0.08851 0.15045
 H182 H -0.04910 0.17308 0.17961
 C183 C 0.35182 0.05290 0.58444
 C184 C 0.32857 0.01574 0.59324
 C185 C 0.33320 -0.02428 0.57922
 C186 C 0.36031 -0.02677 0.55766
 C187 C 0.38274 0.01034 0.54926
 C188 C 0.37815 0.05017 0.56268
 C189 C 0.31016 -0.06144 0.58646
 C190 C 0.28106 -0.05945 0.60672
 C191 C 0.27419 -0.02010 0.62088
 C192 C 0.29990 0.01734 0.61484
 C193 C 0.29607 0.05502 0.63061
 C194 C 0.26666 0.05705 0.65078
 C195 C 0.23926 0.02212 0.65579
 C196 C 0.24250 -0.01696 0.64092
 C197 C 0.21282 -0.05069 0.64625
 C198 C 0.18146 -0.04563 0.66540
 C199 C 0.17854 -0.00708 0.68015
 C200 C 0.20805 0.02646 0.67537
 H201 H 0.34928 0.08500 0.59337
 H202 H 0.36334 -0.05740 0.54696
 H203 H 0.39446 0.07954 0.55599
 H204 H 0.31407 -0.09229 0.57602
 H205 H 0.26480 -0.08978 0.61100
 H206 H 0.31585 0.08351 0.62809
 H207 H 0.26473 0.08679 0.66227
 H208 H 0.21177 -0.08078 0.63540
 H209 H 0.15841 -0.07161 0.66806
 H210 H 0.20649 0.05634 0.68674
 C211 C -0.34751 -0.00931 0.58766
 C212 C -0.31194 0.01946 0.58823
 C213 C -0.30832 0.04910 0.56622
 C214 C -0.33950 0.05020 0.54498
 C215 C -0.37497 0.02183 0.54472
 C216 C -0.37806 -0.00830 0.56626
 C217 C -0.27327 0.07727 0.56526
 C218 C -0.24055 0.07569 0.58527
 C219 C -0.24186 0.04608 0.60739
 C220 C -0.27916 0.01893 0.60943
 C221 C -0.28250 -0.00762 0.63262
 C222 C -0.24966 -0.00917 0.65265
 C223 C -0.21179 0.01497 0.65028
 C224 C -0.20717 0.04282 0.62759
 C225 C -0.16732 0.06534 0.62579
 C226 C -0.13380 0.06023 0.64560
 C227 C -0.13871 0.03288 0.66796
 C228 C -0.17809 0.01078 0.67036
 H229 H -0.35183 -0.03418 0.60301
 H230 H -0.33633 0.07377 0.52859
 H231 H -0.40316 -0.03269 0.56617
 H232 H -0.27067 0.10042 0.54861
 H233 H -0.21486 0.09877 0.58291
 H234 H -0.31058 -0.02728 0.63610
 H235 H -0.25362 -0.03017 0.67004
 H236 H -0.16029 0.08623 0.60907
 H237 H -0.10369 0.07780 0.64339
 H238 H -0.18181 -0.01092 0.68750
 C239 C -0.03555 -0.34840 0.91361
 C240 C -0.01101 -0.30958 0.91507
 C241 C 0.01354 -0.30375 0.93873
 C242 C 0.01410 -0.33581 0.95953
 C243 C -0.00960 -0.37463 0.95773
 C244 C -0.03497 -0.38006 0.93460
 C245 C 0.03763 -0.26593 0.94169
 C246 C 0.03760 -0.23306 0.92181
 C247 C 0.01358 -0.23679 0.89783
 C248 C -0.01026 -0.27620 0.89414
 C249 C -0.03193 -0.28110 0.86956
 C250 C -0.03080 -0.24860 0.84940
 C251 C -0.00872 -0.20953 0.85292
 C252 C 0.01329 -0.20272 0.87729
 C253 C 0.03386 -0.16179 0.88010
 C254 C 0.03379 -0.12998 0.85942
 C255 C 0.01326 -0.13743 0.83515
 C256 C -0.00840 -0.17720 0.83213
 H257 H -0.05634 -0.35491 0.89676
 H258 H 0.03414 -0.33092 0.97715
 H259 H -0.05560 -0.40829 0.93296
 H260 H 0.05671 -0.26154 0.95971
 H261 H 0.05760 -0.20538 0.92580
 H262 H -0.04955 -0.31024 0.86507
 H263 H -0.04763 -0.25407 0.83082
 H264 H 0.04978 -0.15275 0.89812
 H265 H 0.04954 -0.09896 0.86261
 H266 H -0.02448 -0.18336 0.81344
 C267 C 0.07348 0.33555 0.92284
 C268 C 0.03659 0.32825 0.90569
 C269 C -0.00589 0.34931 0.91107
 C270 C -0.01077 0.37633 0.93267
 C271 C 0.02586 0.38185 0.94968
 C272 C 0.06792 0.36163 0.94459
 C273 C -0.04358 0.34214 0.89538
 C274 C -0.04076 0.31248 0.87528
 C275 C 0.00030 0.28923 0.86976
 C276 C 0.04000 0.29926 0.88421
 C277 C 0.08165 0.27961 0.87686
 C278 C 0.08428 0.24889 0.85730
 C279 C 0.04560 0.23587 0.84457
 C280 C 0.00302 0.25598 0.85043
 C281 C -0.03517 0.24054 0.83740
 C282 C -0.03109 0.20608 0.81985
 C283 C 0.01105 0.18597 0.81439
 C284 C 0.04932 0.20192 0.82645
 H285 H 0.10668 0.32006 0.92068
 H286 H -0.04351 0.39152 0.93698
 H287 H 0.09637 0.36518 0.95790
 H288 H -0.07598 0.35871 0.89914
 H289 H -0.07155 0.30874 0.86425
 H290 H 0.11313 0.28757 0.88577
 H291 H 0.11699 0.23423 0.85258
 H292 H -0.06887 0.25300 0.84109
 H293 H -0.06135 0.19404 0.81126
 H294 H 0.08222 0.18724 0.82212
 C295 C -0.35198 -0.03854 0.41826
 C296 C -0.32850 -0.00273 0.40785
 C297 C -0.33526 0.03993 0.41898
 C298 C -0.36279 0.04556 0.44024
 C299 C -0.38445 0.00937 0.45064
 C300 C -0.37924 -0.03247 0.43939
 C301 C -0.31384 0.07660 0.40924
 C302 C -0.28491 0.07196 0.38899
 C303 C -0.27570 0.03000 0.37773
 C304 C -0.29798 -0.00796 0.38726
 C305 C -0.28807 -0.05013 0.37638
 C306 C -0.25669 -0.05549 0.35745
 C307 C -0.23424 -0.01912 0.34827
 C308 C -0.24403 0.02441 0.35775
 C309 C -0.22103 0.06030 0.34705
 C310 C -0.18856 0.05269 0.32870
 C311 C -0.17784 0.00926 0.32032
 C312 C -0.20142 -0.02634 0.32987
 H313 H -0.34976 -0.07184 0.41082
 H314 H -0.36681 0.07797 0.44909
 H315 H -0.39566 -0.06085 0.44738
 H316 H -0.31913 0.10932 0.41758
 H317 H -0.26950 0.10200 0.38300
 H318 H -0.30330 -0.08023 0.38244
 H319 H -0.24960 -0.08875 0.35010
 H320 H -0.22692 0.09465 0.35252
 H321 H -0.17080 0.08080 0.32160
 H322 H -0.19395 -0.05994 0.32307
 C323 C 0.33722 0.03408 0.41469
 C324 C 0.31030 -0.00273 0.41148
 C325 C 0.31687 -0.03950 0.43010
 C326 C 0.34827 -0.03864 0.45114
 C327 C 0.37375 -0.00158 0.45415
 C328 C 0.36816 0.03457 0.43577
 C329 C 0.29155 -0.07666 0.42795
 C330 C 0.25889 -0.07799 0.40808
 C331 C 0.25000 -0.04187 0.38940
 C332 C 0.27659 -0.00388 0.39089
 C333 C 0.26811 0.03195 0.37200
 C334 C 0.23412 0.03151 0.35282
 C335 C 0.20722 -0.00459 0.35150
 C336 C 0.21497 -0.04215 0.36948
 C337 C 0.18676 -0.07805 0.36693
 C338 C 0.15203 -0.07604 0.34778
 C339 C 0.14407 -0.03839 0.33051
 C340 C 0.17218 -0.00300 0.33233
 H341 H 0.33481 0.06344 0.40160
 H342 H 0.35243 -0.06652 0.46556
 H343 H 0.38726 0.06378 0.43807
 H344 H 0.29669 -0.10496 0.44203
 H345 H 0.24086 -0.10792 0.40812
 H346 H 0.28695 0.06134 0.37152
 H347 H 0.22857 0.06010 0.33897
 H348 H 0.19009 -0.10802 0.37954
 H349 H 0.13059 -0.10373 0.34692
 H350 H 0.16674 0.02599 0.31875
   
