data_POSCAR
  _audit_creation_date              2014-09-24
  _audit_creation_method            'ToBaCCo'
  _symmetry_space_group_name_H-M    'P1'
  _symmetry_Int_Tables_number       1
  _symmetry_cell_setting            triclinic
  loop_
  _symmetry_equiv_pos_as_xyz
 x,y,z
_cell_length_a 21.2389
_cell_length_b 21.2376
_cell_length_c 33.1877
_cell_angle_alpha 89.954600
_cell_angle_beta 89.787400
_cell_angle_gamma 81.266000
loop_
  _atom_site_label
  _atom_site_type_symbol
  _atom_site_fract_x
  _atom_site_fract_y
  _atom_site_fract_z
O1 O -0.05008 0.56684 0.96185
 O2 O -0.04906 0.44377 1.04019
 O3 O -0.04998 0.56690 1.04014
 O4 O -0.04922 0.44383 0.96195
 O5 O 0.05613 0.42855 0.96163
 O6 O 0.05536 0.55167 1.03985
 O7 O 0.05627 0.42850 1.03989
 O8 O 0.05527 0.55160 0.96153
 Cu9 Cu -0.06021 0.50689 1.00108
 Cu10 Cu 0.06639 0.48856 1.00071
 C11 C 0.00242 0.58026 0.94864
 C12 C 0.00377 0.41497 1.05303
 C13 C 0.00255 0.58038 1.05298
 C14 C 0.00358 0.41510 0.94879
 O15 O 0.55373 0.05614 0.45999
 O16 O 0.43026 0.05677 0.53832
 O17 O 0.55331 0.05588 0.53831
 O18 O 0.43057 0.05709 0.46005
 O19 O 0.44582 -0.04826 0.45992
 O20 O 0.56852 -0.04947 0.53816
 O21 O 0.44551 -0.04858 0.53816
 O22 O 0.56894 -0.04920 0.45986
 Cu23 Cu 0.49045 0.06710 0.49917
 Cu24 Cu 0.50876 -0.05950 0.49900
 C25 C 0.58250 0.00335 0.44691
 C26 C 0.41673 0.00419 0.55125
 C27 C 0.58189 0.00299 0.55128
 C28 C 0.41710 0.00461 0.44703
 C29 C -0.00079 0.00004 0.25000
 C30 C -0.00126 -0.00158 0.74998
 C31 C -0.04507 -0.11930 0.17158
 C32 C -0.00086 -0.17367 0.17917
 C33 C 0.04259 -0.17350 0.21068
 C34 C 0.04309 -0.11856 0.23382
 C35 C 0.00217 -0.36970 0.08212
 C36 C -0.04469 -0.06440 0.19461
 C37 C 0.00021 -0.22916 0.15416
 C38 C 0.00097 -0.27460 0.13231
 C39 C 0.00170 -0.32652 0.10571
 C40 C 0.00133 -0.06180 0.22500
 H41 H -0.07973 -0.11920 0.14770
 H42 H 0.07605 -0.21593 0.21745
 H43 H 0.07580 -0.12143 0.25884
 H44 H -0.07984 -0.02313 0.18825
 C45 C 0.02049 0.11004 0.15915
 C46 C 0.00404 0.17032 0.17634
 C47 C -0.01235 0.17577 0.21714
 C48 C -0.01375 0.12106 0.24039
 C49 C 0.00411 0.36754 0.08049
 C50 C 0.01910 0.05531 0.18227
 C51 C 0.00429 0.22625 0.15186
 C52 C 0.00437 0.27199 0.13034
 C53 C 0.00429 0.32419 0.10398
 C54 C -0.00089 0.05962 0.22303
 H55 H 0.03491 0.10526 0.12781
 H56 H -0.02396 0.22226 0.23102
 H57 H -0.02566 0.12661 0.27207
 H58 H 0.03492 0.00991 0.16804
 C59 C 0.17462 -0.01287 0.71712
 C60 C 0.16933 0.00367 0.67638
 C61 C 0.10912 0.02013 0.65924
 C62 C 0.05432 0.01861 0.68235
 C63 C 0.36665 0.00439 0.58038
 C64 C 0.11982 -0.01440 0.74036
 C65 C 0.22533 0.00408 0.65189
 C66 C 0.27108 0.00430 0.63033
 C67 C 0.32328 0.00442 0.60391
 C68 C 0.05846 -0.00155 0.72303
 H69 H 0.22105 -0.02448 0.73097
 H70 H 0.10447 0.03466 0.62795
 H71 H 0.00898 0.03445 0.66816
 H72 H 0.12524 -0.02641 0.77200
 C73 C -0.11985 -0.04566 0.67117
 C74 C -0.17419 -0.00127 0.67866
 C75 C -0.17432 0.04216 0.71029
 C76 C -0.11968 0.04250 0.73363
 C77 C -0.36858 0.00246 0.58059
 C78 C -0.06525 -0.04544 0.69440
 C79 C -0.22928 0.00003 0.65338
 C80 C -0.27433 0.00096 0.63129
 C81 C -0.32577 0.00185 0.60439
 C82 C -0.06290 0.00058 0.72490
 H83 H -0.11952 -0.08031 0.64720
 H84 H -0.21675 0.07576 0.71698
 H85 H -0.12276 0.07522 0.75872
 H86 H -0.02396 -0.08068 0.68808
 C87 C -0.04585 -0.12077 0.82871
 C88 C -0.00138 -0.17503 0.82122
 C89 C 0.04226 -0.17493 0.78960
 C90 C 0.04274 -0.12011 0.76628
 C91 C 0.00196 -0.37005 0.91930
 C92 C -0.04549 -0.06600 0.80550
 C93 C -0.00020 -0.23030 0.84649
 C94 C 0.00064 -0.27549 0.86858
 C95 C 0.00143 -0.32710 0.89548
 C96 C 0.00074 -0.06341 0.77503
 H97 H -0.08065 -0.12062 0.85267
 H98 H 0.07593 -0.21729 0.78291
 H99 H 0.07563 -0.12301 0.74121
 H100 H -0.08079 -0.02476 0.81182
 C101 C -0.01280 0.17408 0.78292
 C102 C 0.00347 0.16849 0.82366
 C103 C 0.01981 0.10816 0.84078
 C104 C 0.01843 0.05352 0.81764
 C105 C 0.00384 0.36518 0.91968
 C106 C -0.01418 0.11944 0.75965
 C107 C 0.00376 0.22432 0.84817
 C108 C 0.00390 0.26993 0.86974
 C109 C 0.00393 0.32196 0.89616
 C110 C -0.00144 0.05795 0.77695
 H111 H -0.02431 0.22061 0.76909
 H112 H 0.03414 0.10328 0.87207
 H113 H 0.03418 0.00807 0.83182
 H114 H -0.02597 0.12508 0.72801
 C115 C -0.17423 0.04347 0.28986
 C116 C -0.17431 0.00009 0.32154
 C117 C -0.11992 -0.04409 0.32909
 C118 C -0.06508 -0.04374 0.30584
 C119 C -0.37017 0.00304 0.41928
 C120 C -0.11936 0.04395 0.26650
 C121 C -0.22975 0.00117 0.34676
 C122 C -0.27514 0.00192 0.36876
 C123 C -0.32701 0.00261 0.39555
 C124 C -0.06256 0.00221 0.27526
 H125 H -0.21668 0.07691 0.28312
 H126 H -0.11974 -0.07870 0.35311
 H127 H -0.02378 -0.07886 0.31218
 H128 H -0.12230 0.07659 0.24136
 C129 C 0.10943 0.02154 0.34033
 C130 C 0.16966 0.00504 0.32296
 C131 C 0.17501 -0.01143 0.28220
 C132 C 0.12025 -0.01287 0.25918
 C133 C 0.36707 0.00504 0.41806
 C134 C 0.05465 0.02011 0.31743
 C135 C 0.22565 0.00530 0.34722
 C136 C 0.27144 0.00536 0.36856
 C137 C 0.32369 0.00526 0.39473
 C138 C 0.05885 0.00002 0.27673
 H139 H 0.10473 0.03602 0.37163
 H140 H 0.22146 -0.02309 0.26818
 H141 H 0.12571 -0.02485 0.22752
 H142 H 0.00928 0.03596 0.33179
   
