data_POSCAR
  _audit_creation_date              2014-09-24
  _audit_creation_method            'ToBaCCo'
  _symmetry_space_group_name_H-M    'P1'
  _symmetry_Int_Tables_number       1
  _symmetry_cell_setting            triclinic
  loop_
  _symmetry_equiv_pos_as_xyz
 x,y,z
_cell_length_a 38.6082
_cell_length_b 49.6670
_cell_length_c 34.6061
_cell_angle_alpha 90.074300
_cell_angle_beta 89.992500
_cell_angle_gamma 90.084200
loop_
  _atom_site_label
  _atom_site_type_symbol
  _atom_site_fract_x
  _atom_site_fract_y
  _atom_site_fract_z
O1 O 0.24450 0.27422 0.20234
 O2 O 0.29221 0.22271 0.25707
 O3 O 0.24446 0.22176 0.20398
 O4 O 0.29206 0.27505 0.25580
 O5 O 0.25150 0.27560 0.30093
 O6 O 0.20393 0.22234 0.24913
 O7 O 0.25169 0.22326 0.30225
 O8 O 0.20394 0.27481 0.24745
 Cu9 Cu 0.27237 0.24839 0.22522
 Cu10 Cu 0.22364 0.24908 0.27947
 C11 C 0.21617 0.28322 0.21564
 C12 C 0.28006 0.21432 0.28892
 C13 C 0.21618 0.21302 0.21786
 C14 C 0.27987 0.28424 0.28720
 O15 O 0.79252 0.27649 0.24543
 O16 O 0.74382 0.22324 0.29572
 O17 O 0.79250 0.22410 0.24360
 O18 O 0.74362 0.27575 0.29714
 O19 O 0.70408 0.27629 0.25092
 O20 O 0.75293 0.22466 0.19741
 O21 O 0.70425 0.22376 0.24954
 O22 O 0.75299 0.27707 0.19919
 Cu23 Cu 0.77208 0.24982 0.27516
 Cu24 Cu 0.72455 0.25049 0.21962
 C25 C 0.78098 0.28578 0.21383
 C26 C 0.71586 0.21447 0.28112
 C27 C 0.78098 0.21569 0.21143
 C28 C 0.71567 0.28481 0.28298
 O29 O 0.74436 0.77672 0.70502
 O30 O 0.79319 0.72364 0.75528
 O31 O 0.74414 0.72420 0.70376
 O32 O 0.79319 0.77604 0.75695
 O33 O 0.75377 0.77545 0.80330
 O34 O 0.70474 0.72365 0.75014
 O35 O 0.75380 0.72304 0.80167
 O36 O 0.70493 0.77618 0.75137
 Cu37 Cu 0.77267 0.75022 0.72555
 Cu38 Cu 0.72531 0.74954 0.78128
 C39 C 0.71645 0.78545 0.71972
 C40 C 0.78174 0.71437 0.78694
 C41 C 0.71622 0.71510 0.71806
 C42 C 0.78178 0.78447 0.78915
 O43 O 0.29240 0.77743 0.74241
 O44 O 0.24487 0.72584 0.79742
 O45 O 0.29229 0.72509 0.74381
 O46 O 0.24475 0.77830 0.79565
 O47 O 0.20412 0.77755 0.75063
 O48 O 0.25163 0.72436 0.69881
 O49 O 0.20420 0.72508 0.75244
 O50 O 0.25177 0.77671 0.69737
 Cu51 Cu 0.27265 0.75173 0.77439
 Cu52 Cu 0.22380 0.75084 0.72030
 C53 C 0.28016 0.78574 0.71059
 C54 C 0.21652 0.71675 0.78423
 C55 C 0.28004 0.71582 0.71247
 C56 C 0.21643 0.78694 0.78184
 C57 C 0.98287 -0.00022 -0.00043
 C58 C 1.01820 -0.00020 -0.00036
 C59 C 1.03838 0.01976 0.02244
 C60 C 1.03843 -0.02012 -0.02309
 C61 C 0.96268 -0.02196 -0.01957
 C62 C 0.96264 0.02148 0.01865
 C63 C 1.06368 0.03557 0.00411
 C64 C 1.08240 0.05474 0.02508
 C65 C 1.07623 0.05817 0.06464
 C66 C 1.05151 0.04212 0.08328
 C67 C 1.03278 0.02291 0.06234
 C68 C 1.03297 -0.02327 -0.06301
 C69 C 1.05174 -0.04246 -0.08387
 C70 C 1.07638 -0.05847 -0.06514
 C71 C 1.08242 -0.05504 -0.02555
 C72 C 1.06364 -0.03589 -0.00465
 C73 C 0.96814 -0.04915 -0.01010
 C74 C 0.94933 -0.06941 -0.02879
 C75 C 0.92466 -0.06270 -0.05682
 C76 C 0.91865 -0.03563 -0.06583
 C77 C 0.93746 -0.01536 -0.04721
 C78 C 0.93733 0.01482 0.04619
 C79 C 0.91852 0.03505 0.06479
 C80 C 0.92460 0.06213 0.05585
 C81 C 0.94935 0.06890 0.02791
 C82 C 0.96817 0.04868 0.00924
 H83 H 1.06852 0.03333 -0.02656
 H84 H 1.10154 0.06700 0.01040
 H85 H 1.04665 0.04452 0.11392
 H86 H 1.01386 0.01055 0.07716
 H87 H 1.01412 -0.01094 -0.07790
 H88 H 1.04699 -0.04485 -0.11454
 H89 H 1.06838 -0.03365 0.02603
 H90 H 0.98700 -0.05463 0.01167
 H91 H 0.95405 -0.09028 -0.02145
 H92 H 0.89956 -0.03021 -0.08739
 H93 H 0.93273 0.00547 -0.05474
 H94 H 0.93254 -0.00602 0.05366
 H95 H 0.89936 0.02959 0.08629
 H96 H 0.95414 0.08979 0.02063
 H97 H 0.98710 0.05420 -0.01246
 H98 H 1.10148 -0.06727 -0.01080
 C99 C 0.48179 0.49998 0.50030
 C100 C 0.51711 0.49996 0.50039
 C101 C 0.53732 0.52003 0.52296
 C102 C 0.53731 0.47987 0.47795
 C103 C 0.46154 0.47838 0.48092
 C104 C 0.46156 0.52160 0.51957
 C105 C 0.56242 0.53588 0.50436
 C106 C 0.58103 0.55527 0.52504
 C107 C 0.57495 0.55888 0.56458
 C108 C 0.55046 0.54277 0.58350
 C109 C 0.53185 0.52334 0.56285
 C110 C 0.53204 0.47657 0.43803
 C111 C 0.55066 0.45711 0.41750
 C112 C 0.57495 0.44098 0.43657
 C113 C 0.58083 0.44458 0.47616
 C114 C 0.56222 0.46399 0.49672
 C115 C 0.46672 0.45114 0.49028
 C116 C 0.44784 0.43103 0.47133
 C117 C 0.42339 0.43796 0.44317
 C118 C 0.41767 0.46508 0.43428
 C119 C 0.43654 0.48519 0.45316
 C120 C 0.43638 0.51481 0.54718
 C121 C 0.41751 0.53494 0.56594
 C122 C 0.42342 0.56205 0.55707
 C123 C 0.44805 0.56895 0.52907
 C124 C 0.46693 0.54883 0.51024
 H125 H 0.56716 0.53351 0.47369
 H126 H 0.59998 0.56758 0.51014
 H127 H 0.54568 0.54531 0.61414
 H128 H 0.51308 0.51096 0.57788
 H129 H 0.51342 0.48896 0.42288
 H130 H 0.54603 0.45459 0.38683
 H131 H 0.56679 0.46635 0.52742
 H132 H 0.48540 0.44550 0.51215
 H133 H 0.45234 0.41011 0.47857
 H134 H 0.39875 0.47067 0.41261
 H135 H 0.43203 0.50607 0.44573
 H136 H 0.43172 0.49393 0.55459
 H137 H 0.39844 0.52937 0.58748
 H138 H 0.45271 0.58987 0.52185
 H139 H 0.48576 0.55445 0.48850
 H140 H 0.59963 0.43226 0.49118
 C141 C 0.01970 0.50001 0.00027
 C142 C -0.01563 0.50005 0.00029
 C143 C -0.03593 0.47994 0.02261
 C144 C -0.03579 0.52020 -0.02200
 C145 C 0.03997 0.52176 -0.01865
 C146 C 0.03982 0.47820 0.01916
 C147 C -0.06117 0.46431 0.00382
 C148 C -0.08012 0.44507 0.02433
 C149 C -0.07424 0.44140 0.06388
 C150 C -0.04954 0.45724 0.08296
 C151 C -0.03058 0.47652 0.06248
 C152 C -0.03045 0.52361 -0.06188
 C153 C -0.04929 0.54294 -0.08233
 C154 C -0.07386 0.55883 -0.06322
 C155 C -0.07974 0.55516 -0.02366
 C156 C -0.06091 0.53588 -0.00318
 C157 C 0.03457 0.54893 -0.00894
 C158 C 0.05316 0.56923 -0.02776
 C159 C 0.07758 0.56256 -0.05611
 C160 C 0.08362 0.53551 -0.06526
 C161 C 0.06502 0.51521 -0.04652
 C162 C 0.06494 0.48470 0.04701
 C163 C 0.08340 0.46435 0.06572
 C164 C 0.07716 0.43732 0.05657
 C165 C 0.05268 0.43070 0.02824
 C166 C 0.03421 0.45104 0.00946
 H167 H -0.06581 0.46676 -0.02684
 H168 H -0.09923 0.43296 0.00931
 H169 H -0.04490 0.45464 0.11361
 H170 H -0.01171 0.48874 0.07765
 H171 H -0.01167 0.51136 -0.07707
 H172 H -0.04465 0.54552 -0.11298
 H173 H -0.06555 0.53344 0.02749
 H174 H 0.01584 0.55438 0.01300
 H175 H 0.04840 0.59010 -0.02032
 H176 H 0.10251 0.53013 -0.08708
 H177 H 0.06970 0.49438 -0.05422
 H178 H 0.06978 0.50551 0.05471
 H179 H 0.10235 0.46970 0.08752
 H180 H 0.04776 0.40985 0.02081
 H181 H 0.01543 0.44564 -0.01246
 H182 H -0.09876 0.56730 -0.00861
 C183 C 0.52052 1.00027 0.49963
 C184 C 0.48520 1.00023 0.49958
 C185 C 0.46493 0.97857 0.51874
 C186 C 0.46498 1.02184 0.48038
 C187 C 0.54072 1.02008 0.47663
 C188 C 0.54065 0.98051 0.52269
 C189 C 0.47037 0.95135 0.50941
 C190 C 0.45119 0.93120 0.52781
 C191 C 0.42617 0.93808 0.55540
 C192 C 0.42026 0.96517 0.56435
 C193 C 0.43944 0.98533 0.54602
 C194 C 0.43954 1.01504 0.45304
 C195 C 0.42040 1.03516 0.43469
 C196 C 0.42629 1.06226 0.44368
 C197 C 0.45125 1.06919 0.47133
 C198 C 0.47040 1.04907 0.48975
 C199 C 0.56591 1.03611 0.49480
 C200 C 0.58436 1.05534 0.47368
 C201 C 0.57803 1.05859 0.43413
 C202 C 0.55349 1.04226 0.41564
 C203 C 0.53505 1.02300 0.43672
 C204 C 0.53490 0.97760 0.56259
 C205 C 0.55327 0.95836 0.58373
 C206 C 0.57781 0.94205 0.56530
 C207 C 0.58422 0.94529 0.52575
 C208 C 0.56584 0.96450 0.50458
 H209 H 0.48943 0.94575 0.48790
 H210 H 0.45585 0.91029 0.52054
 H211 H 0.40091 0.97072 0.58559
 H212 H 0.43471 1.00620 0.55343
 H213 H 0.43482 0.99416 0.44561
 H214 H 0.40109 1.02958 0.41341
 H215 H 0.48941 1.05471 0.51131
 H216 H 0.57080 1.03405 0.52548
 H217 H 0.60335 1.06782 0.48825
 H218 H 0.54851 1.04451 0.38501
 H219 H 0.51621 1.01048 0.42202
 H220 H 0.51606 0.99010 0.57725
 H221 H 0.54823 0.95611 0.61435
 H222 H 0.60320 0.93282 0.51123
 H223 H 0.57080 0.96654 0.47392
 H224 H 0.45589 1.09010 0.47864
 C225 C 1.16458 0.15497 0.16206
 N226 N 1.18121 0.13862 0.13673
 N227 N 1.16392 0.11937 0.11798
 C228 C 1.12950 0.11588 0.12403
 N229 N 1.11287 0.13223 0.14937
 N230 N 1.13015 0.15147 0.16812
 C231 C 1.18314 0.17579 0.18208
 C232 C 1.19870 0.19330 0.19889
 C233 C 1.11081 0.09540 0.10347
 C234 C 1.09507 0.07833 0.08593
 C235 C 0.66298 0.65648 0.66075
 N236 N 0.67786 0.63216 0.65431
 N237 N 0.66053 0.61285 0.63574
 C238 C 0.62778 0.61728 0.62310
 N239 N 0.61290 0.64159 0.62954
 N240 N 0.63023 0.66090 0.64811
 C241 C 0.68165 0.67724 0.68077
 C242 C 0.69739 0.69460 0.69770
 C243 C 0.60922 0.59658 0.60283
 C244 C 0.59361 0.57931 0.58556
 C245 C -0.16479 0.34472 0.15863
 N246 N -0.18121 0.36671 0.14444
 N247 N -0.16338 0.38590 0.12628
 C248 C -0.12860 0.38368 0.12180
 N249 N -0.11218 0.36170 0.13600
 N250 N -0.13001 0.34251 0.15416
 C251 C -0.18398 0.32399 0.17802
 C252 C -0.20003 0.30654 0.19433
 C253 C -0.10947 0.40416 0.10180
 C254 C -0.09340 0.42122 0.08471
 C255 C 0.33403 0.84233 0.65015
 N256 N 0.36624 0.83674 0.63673
 N257 N 0.38425 0.85534 0.61759
 C258 C 0.37059 0.88009 0.61128
 N259 N 0.33838 0.88567 0.62468
 N260 N 0.32036 0.86707 0.64383
 C261 C 0.31484 0.82242 0.67122
 C262 C 0.29889 0.80569 0.68911
 C263 C 0.39018 0.90028 0.59124
 C264 C 0.40662 0.91740 0.57472
 C265 C -0.16401 0.65556 -0.15787
 N266 N -0.17896 0.63143 -0.15015
 N267 N -0.16118 0.61226 -0.13200
 C268 C -0.12791 0.61663 -0.12106
 N269 N -0.11296 0.64075 -0.12880
 N270 N -0.13073 0.65993 -0.14695
 C271 C -0.18318 0.67625 -0.17727
 C272 C -0.19923 0.69366 -0.19357
 C273 C -0.10888 0.59613 -0.10109
 C274 C -0.09291 0.57903 -0.08402
 C275 C 0.33408 1.15783 0.34910
 N276 N 0.36630 1.16349 0.36248
 N277 N 0.38434 1.14492 0.38157
 C278 C 0.37070 1.12013 0.38786
 N279 N 0.33847 1.11447 0.37450
 N280 N 0.32043 1.13304 0.35541
 C281 C 0.31485 1.17771 0.32811
 C282 C 0.29885 1.19441 0.31029
 C283 C 0.39030 1.09999 0.40787
 C284 C 0.40675 1.08290 0.42438
 C285 C 1.16489 -0.15509 -0.16235
 N286 N 1.13223 -0.14847 -0.17316
 N287 N 1.11494 -0.12926 -0.15443
 C288 C 1.12981 -0.11608 -0.12434
 N289 N 1.16247 -0.12269 -0.11354
 N290 N 1.17976 -0.14190 -0.13227
 C291 C 1.18343 -0.17588 -0.18237
 C292 C 1.19897 -0.19337 -0.19918
 C293 C 1.11105 -0.09563 -0.10384
 C294 C 1.09526 -0.07860 -0.08637
 C295 C 0.66267 0.34331 0.34060
 N296 N 0.63481 0.35525 0.32403
 N297 N 0.61764 0.37458 0.34265
 C298 C 0.62784 0.38257 0.37838
 N299 N 0.65569 0.37063 0.39494
 N300 N 0.67286 0.35130 0.37632
 C301 C 0.68125 0.32258 0.32048
 C302 C 0.69692 0.30526 0.30346
 C303 C 0.60925 0.40327 0.39854
 C304 C 0.59363 0.42055 0.41572
 C305 C 0.83482 -0.15936 -0.15281
 N306 N 0.81972 -0.13552 -0.14383
 N307 N 0.83735 -0.11671 -0.12460
 C308 C 0.87060 -0.12117 -0.11374
 N309 N 0.88570 -0.14501 -0.12271
 N310 N 0.86807 -0.16383 -0.14194
 C311 C 0.81586 -0.17956 -0.17365
 C312 C 0.79986 -0.19650 -0.19117
 C313 C 0.88966 -0.10078 -0.09340
 C314 C 0.90563 -0.08351 -0.07655
 C315 C 0.33347 0.34189 0.34608
 N316 N 0.32018 0.36696 0.35065
 N317 N 0.33780 0.38570 0.37005
 C318 C 0.36920 0.37993 0.38550
 N319 N 0.38248 0.35486 0.38093
 N320 N 0.36487 0.33612 0.36153
 C321 C 0.31452 0.32171 0.32519
 C322 C 0.29866 0.30467 0.30775
 C323 C 0.38827 0.40018 0.40610
 C324 C 0.40429 0.41732 0.42317
 C325 C 0.16443 0.65946 -0.15468
 N326 N 0.18019 0.63594 -0.14548
 N327 N 0.16323 0.61709 -0.12564
 C328 C 0.13001 0.62121 -0.11437
 N329 N 0.11425 0.64473 -0.12356
 N330 N 0.13121 0.66358 -0.14340
 C331 C 0.18266 0.67969 -0.17621
 C332 C 0.19806 0.69663 -0.19430
 C333 C 0.11161 0.60075 -0.09348
 C334 C 0.09613 0.58343 -0.07624
 C335 C 0.66423 1.15610 0.33606
 N336 N 0.68146 1.13433 0.34976
 N337 N 0.66453 1.11496 0.36858
 C338 C 0.62986 1.11678 0.37426
 N339 N 0.61262 1.13854 0.36054
 N340 N 0.62955 1.15791 0.34172
 C341 C 0.68255 1.17708 0.31616
 C342 C 0.69812 1.19469 0.29960
 C343 C 0.61170 1.09612 0.39501
 C344 C 0.59640 1.07891 0.41269
 C345 C 0.16379 0.34034 0.15480
 N346 N 0.12884 0.34232 0.15757
 N347 N 0.11183 0.36115 0.13782
 C348 C 0.12924 0.37855 0.11469
 N349 N 0.16419 0.37656 0.11191
 N350 N 0.18120 0.35774 0.13166
 C351 C 0.18215 0.32019 0.17625
 C352 C 0.19764 0.30329 0.19427
 C353 C 0.11097 0.39905 0.09386
 C354 C 0.09558 0.41641 0.07666
 C355 C 0.66357 0.84463 0.66363
 N356 N 0.67616 0.87014 0.66290
 N357 N 0.65926 0.88944 0.64400
 C358 C 0.62926 0.88382 0.62524
 N359 N 0.61667 0.85832 0.62599
 N360 N 0.63356 0.83902 0.64489
 C361 C 0.68200 0.82378 0.68358
 C362 C 0.69762 0.80626 0.70017
 C363 C 0.61125 0.90451 0.60448
 C364 C 0.59606 0.92173 0.58677
 C365 C 0.83486 0.15861 0.15195
 N366 N 0.82019 0.13435 0.14428
 N367 N 0.83778 0.11558 0.12500
 C368 C 0.87056 0.12049 0.11279
 N369 N 0.88523 0.14475 0.12044
 N370 N 0.86764 0.16353 0.13972
 C371 C 0.81596 0.17876 0.17288
 C372 C 0.80002 0.19564 0.19050
 C373 C 0.88960 0.10015 0.09243
 C374 C 0.90557 0.08291 0.07558
 C375 C 0.33354 0.65818 0.65369
 N376 N 0.32166 0.63250 0.65203
 N377 N 0.33925 0.61375 0.63271
 C378 C 0.36925 0.62012 0.61445
 N379 N 0.38113 0.64581 0.61611
 N380 N 0.36353 0.66456 0.63543
 C381 C 0.31462 0.67837 0.67452
 C382 C 0.29879 0.69541 0.69194
 C383 C 0.38832 0.59986 0.59394
 C384 C 0.40433 0.58272 0.57696
   
