data_POSCAR
  _audit_creation_date              2014-09-24
  _audit_creation_method            'ToBaCCo'
  _symmetry_space_group_name_H-M    'P1'
  _symmetry_Int_Tables_number       1
  _symmetry_cell_setting            triclinic
  loop_
  _symmetry_equiv_pos_as_xyz
 x,y,z
_cell_length_a 42.3935
_cell_length_b 42.3921
_cell_length_c 42.3933
_cell_angle_alpha 89.818400
_cell_angle_beta 90.000000
_cell_angle_gamma 90.000000
loop_
  _atom_site_label
  _atom_site_type_symbol
  _atom_site_fract_x
  _atom_site_fract_y
  _atom_site_fract_z
N1 N 0.17793 0.17693 0.17705
 N2 N -0.17740 0.82159 0.17821
 N3 N -0.17741 0.17852 -0.17828
 N4 N 0.17793 0.82318 -0.17712
 N5 N 0.17973 1.18000 0.81986
 N6 N 0.81982 0.82011 0.82017
 N7 N 0.17973 0.82011 1.18008
 N8 N 0.81982 1.18000 1.17976
 N9 N 0.46743 1.05579 1.03387
 N10 N 0.44281 1.07454 1.03718
 N11 N 0.53390 1.03389 1.05577
 N12 N 0.55833 1.03738 1.07475
 N13 N 0.53385 1.05585 1.03387
 N14 N 0.55824 1.07487 1.03736
 N15 N 0.46748 1.03386 1.05580
 N16 N 0.44290 1.03709 1.07461
 C17 C 0.42776 1.06265 1.06277
 C18 C 0.57329 1.06311 1.06301
 N19 N 0.53381 0.94411 1.03395
 N20 N 0.55835 0.92525 1.03728
 N21 N 0.46744 0.96598 1.05587
 N22 N 0.44302 0.96246 1.07487
 N23 N 0.46739 0.94415 1.03398
 N24 N 0.44293 0.92519 1.03749
 N25 N 0.53386 0.96597 1.05581
 N26 N 0.55844 0.96257 1.07462
 Mn27 Mn 0.50068 0.99992 1.05621
 C28 C 0.57346 0.93699 1.06283
 C29 C 0.42795 0.93686 1.06316
 N30 N 0.53380 1.05600 0.96599
 N31 N 0.55834 1.07486 0.96265
 N32 N 0.46744 1.03413 0.94407
 N33 N 0.44302 1.03764 0.92507
 N34 N 0.46739 1.05596 0.96596
 N35 N 0.44293 1.07492 0.96244
 N36 N 0.53386 1.03414 0.94413
 N37 N 0.55843 1.03755 0.92532
 Mn38 Mn 0.50061 1.05630 0.99993
 C39 C 0.57346 1.06312 0.93711
 C40 C 0.42795 1.06324 0.93677
 N41 N 0.46743 0.94432 0.96606
 N42 N 0.44281 0.92556 0.96276
 N43 N 0.53390 0.96622 0.94417
 N44 N 0.55833 0.96273 0.92519
 N45 N 0.53385 0.94426 0.96607
 N46 N 0.55825 0.92524 0.96258
 N47 N 0.46748 0.96625 0.94414
 N48 N 0.44290 0.96302 0.92532
 Mn49 Mn 0.50061 0.94381 1.00001
 Mn50 Mn 0.50068 1.00019 0.94372
 Cl51 Cl 0.50065 1.00006 0.99997
 C52 C 0.42777 0.93746 0.93717
 C53 C 0.57329 0.93701 0.93693
 N54 N 0.03395 0.46647 0.05567
 N55 N 0.03730 0.44176 0.07439
 N56 N 0.05585 0.53304 0.03404
 N57 N 0.07481 0.55747 0.03759
 N58 N 0.03397 0.53290 0.05594
 N59 N 0.03744 0.55723 0.07498
 N60 N 0.05584 0.46664 0.03377
 N61 N 0.07467 0.44205 0.03699
 C62 C 0.06288 0.42678 0.06250
 C63 C 0.06309 0.57233 0.06328
 N64 N 0.03395 0.53364 -0.05574
 N65 N 0.03730 0.55835 -0.07445
 N66 N 0.05586 0.46707 -0.03410
 N67 N 0.07482 0.44264 -0.03765
 N68 N 0.03397 0.46721 -0.05601
 N69 N 0.03745 0.44288 -0.07504
 N70 N 0.05584 0.53347 -0.03384
 N71 N 0.07467 0.55806 -0.03706
 Mn72 Mn 0.05624 0.50006 -0.00003
 C73 C 0.06287 0.57333 -0.06256
 C74 C 0.06309 0.42778 -0.06335
 N75 N -0.03393 0.53285 0.05593
 N76 N -0.03722 0.55730 0.07483
 N77 N -0.05585 0.46658 0.03381
 N78 N -0.07486 0.44215 0.03727
 N79 N -0.03394 0.46644 0.05569
 N80 N -0.03747 0.44192 0.07464
 N81 N -0.05583 0.53301 0.03404
 N82 N -0.07461 0.55759 0.03746
 Mn83 Mn 0.00001 0.49966 0.05621
 C84 C -0.06277 0.57249 0.06308
 C85 C -0.06315 0.42699 0.06290
 N86 N -0.03393 0.46726 -0.05600
 N87 N -0.03722 0.44281 -0.07490
 N88 N -0.05585 0.53353 -0.03387
 N89 N -0.07486 0.55795 -0.03733
 N90 N -0.03394 0.53367 -0.05576
 N91 N -0.03747 0.55819 -0.07470
 N92 N -0.05583 0.46709 -0.03411
 N93 N -0.07461 0.44252 -0.03752
 Mn94 Mn 0.00001 0.50045 -0.05628
 Mn95 Mn -0.05624 0.50005 -0.00003
 Cl96 Cl 0.00000 0.50005 -0.00003
 C97 C -0.06277 0.42762 -0.06315
 C98 C -0.06315 0.57312 -0.06296
 N99 N 0.94357 -0.03397 0.46696
 N100 N 0.92476 -0.03736 0.44240
 N101 N 0.96545 -0.05572 0.53350
 N102 N 0.96194 -0.07467 0.55802
 N103 N 0.94355 -0.03383 0.53339
 N104 N 0.92455 -0.03730 0.55782
 N105 N 0.96547 -0.05586 0.46709
 N106 N 0.96215 -0.07474 0.44262
 C107 C 0.93659 -0.06296 0.42746
 C108 C 0.93626 -0.06294 0.57296
 N109 N 1.05524 -0.03380 0.53334
 N110 N 1.07407 -0.03708 0.55792
 N111 N 1.03336 -0.05587 0.46705
 N112 N 1.03685 -0.07490 0.44271
 N113 N 1.05525 -0.03397 0.46693
 N114 N 1.07423 -0.03751 0.44251
 N115 N 1.03335 -0.05570 0.53347
 N116 N 1.03669 -0.07447 0.55814
 Mn117 Mn 0.99941 -0.05619 0.50028
 C118 C 1.06226 -0.06262 0.57314
 C119 C 1.06251 -0.06320 0.42763
 N120 N 0.94357 0.03408 0.53297
 N121 N 0.92476 0.03746 0.55753
 N122 N 0.96545 0.05583 0.46643
 N123 N 0.96194 0.07478 0.44192
 N124 N 0.94355 0.03394 0.46655
 N125 N 0.92455 0.03741 0.44212
 N126 N 0.96546 0.05597 0.53285
 N127 N 0.96215 0.07484 0.55732
 Mn128 Mn 0.94315 0.00005 0.49997
 C129 C 0.93658 0.06307 0.57247
 C130 C 0.93626 0.06305 0.42697
 N131 N 1.05524 0.03391 0.46660
 N132 N 1.07407 0.03719 0.44202
 N133 N 1.03336 0.05598 0.53289
 N134 N 1.03685 0.07501 0.55723
 N135 N 1.05525 0.03408 0.53301
 N136 N 1.07422 0.03762 0.55743
 N137 N 1.03335 0.05581 0.46647
 N138 N 1.03669 0.07458 0.44180
 Mn139 Mn 1.05564 0.00005 0.49997
 Mn140 Mn 0.99940 0.05630 0.49966
 Cl141 Cl 0.99940 0.00005 0.49997
 C142 C 1.06226 0.06273 0.42680
 C143 C 1.06250 0.06331 0.57231
 C144 C 1.13740 0.13747 0.26008
 C145 C 1.14030 0.17022 0.25696
 C146 C 1.15351 0.18319 0.22965
 C147 C 1.16396 0.16354 0.20513
 C148 C 1.16088 0.13067 0.20842
 C149 C 1.14767 0.11772 0.23576
 C150 C 1.12413 0.12419 0.28837
 C151 C 1.11313 0.11322 0.31221
 C152 C 1.10013 0.10031 0.34079
 C153 C 1.11405 0.07387 0.35491
 C154 C 1.10169 0.06156 0.38293
 C155 C 1.07526 0.07563 0.39715
 C156 C 1.06133 0.10210 0.38274
 C157 C 1.07373 0.11437 0.35472
 H158 H 1.13249 0.18571 0.27568
 H159 H 1.15590 0.20856 0.22775
 H160 H 1.16860 0.11511 0.18975
 H161 H 1.14552 0.09234 0.23795
 H162 H 1.13449 0.06282 0.34430
 H163 H 1.11283 0.04110 0.39347
 H164 H 1.04090 0.11335 0.39314
 H165 H 1.06279 0.13485 0.34398
 C166 C 0.86189 -0.13809 0.26118
 C167 C 0.82915 -0.14099 0.25809
 C168 C 0.81623 -0.15413 0.23081
 C169 C 0.83593 -0.16453 0.20627
 C170 C 0.86879 -0.16146 0.20953
 C171 C 0.88169 -0.14832 0.23684
 C172 C 0.87512 -0.12486 0.28943
 C173 C 0.88606 -0.11388 0.31322
 C174 C 0.89895 -0.10089 0.34174
 C175 C 0.92540 -0.11481 0.35582
 C176 C 0.93771 -0.10243 0.38375
 C177 C 0.92365 -0.07599 0.39792
 C178 C 0.89717 -0.06207 0.38356
 C179 C 0.88490 -0.07449 0.35563
 H180 H 0.81363 -0.13322 0.27683
 H181 H 0.79087 -0.15652 0.22894
 H182 H 0.88439 -0.16913 0.19085
 H183 H 0.90706 -0.14616 0.23900
 H184 H 0.93645 -0.13525 0.34525
 H185 H 0.95818 -0.11357 0.39426
 H186 H 0.88593 -0.04164 0.39393
 H187 H 0.86441 -0.06355 0.34492
 C188 C 0.86188 0.13820 0.73875
 C189 C 0.88168 0.14843 0.76309
 C190 C 0.86879 0.16157 0.79040
 C191 C 0.83593 0.16464 0.79366
 C192 C 0.81622 0.15425 0.76912
 C193 C 0.82914 0.14110 0.74184
 C194 C 0.87511 0.12497 0.71050
 C195 C 0.88605 0.11399 0.68671
 C196 C 0.89894 0.10100 0.65819
 C197 C 0.88489 0.07460 0.64430
 C198 C 0.89717 0.06218 0.61637
 C199 C 0.92365 0.07610 0.60201
 C200 C 0.93770 0.10254 0.61618
 C201 C 0.92539 0.11491 0.64412
 H202 H 0.90705 0.14627 0.76093
 H203 H 0.88438 0.16924 0.80909
 H204 H 0.79087 0.15663 0.77099
 H205 H 0.81362 0.13333 0.72310
 H206 H 0.86441 0.06365 0.65501
 H207 H 0.88592 0.04175 0.60601
 H208 H 0.95817 0.11368 0.60568
 H209 H 0.93644 0.13536 0.65469
 C210 C 1.13740 -0.13736 0.73986
 C211 C 1.14030 -0.17011 0.74298
 C212 C 1.15351 -0.18308 0.77029
 C213 C 1.16397 -0.16343 0.79481
 C214 C 1.16089 -0.13056 0.79151
 C215 C 1.14768 -0.11761 0.76418
 C216 C 1.12414 -0.12408 0.71156
 C217 C 1.11313 -0.11311 0.68773
 C218 C 1.10013 -0.10020 0.65915
 C219 C 1.07373 -0.11426 0.64521
 C220 C 1.06133 -0.10199 0.61719
 C221 C 1.07526 -0.07552 0.60279
 C222 C 1.10169 -0.06145 0.61701
 C223 C 1.11405 -0.07376 0.64503
 H224 H 1.13249 -0.18560 0.72426
 H225 H 1.15590 -0.20845 0.77219
 H226 H 1.16861 -0.11500 0.81019
 H227 H 1.14553 -0.09223 0.76199
 H228 H 1.06279 -0.13474 0.65596
 H229 H 1.04091 -0.11324 0.60679
 H230 H 1.11284 -0.04099 0.60647
 H231 H 1.13450 -0.06271 0.65563
 C232 C 0.26096 1.13669 1.13767
 C233 C 0.23654 1.14691 1.11791
 C234 C 0.20919 1.15998 1.13084
 C235 C 0.20597 1.16298 1.16370
 C236 C 0.23058 1.15254 1.18337
 C237 C 0.25790 1.13947 1.17042
 C238 C 0.28928 1.12363 1.12439
 C239 C 0.31314 1.11280 1.11341
 C240 C 0.34175 1.10001 1.10048
 C241 C 0.35569 1.11409 1.07403
 C242 C 0.38372 1.10191 1.06168
 C243 C 0.39812 1.07549 1.07572
 C244 C 0.38390 1.06140 1.10220
 C245 C 0.35587 1.07363 1.11450
 H246 H 0.23867 1.14484 1.09253
 H247 H 0.19045 1.16769 1.11526
 H248 H 0.22874 1.15488 1.20873
 H249 H 0.27670 1.13170 1.18592
 H250 H 0.34495 1.13452 1.06300
 H251 H 0.39413 1.11317 1.04121
 H252 H 0.39444 1.04098 1.11343
 H253 H 0.34527 1.06255 1.13499
 C254 C 0.26096 0.86342 0.86227
 C255 C 0.25790 0.86063 0.82952
 C256 C 0.23058 0.84756 0.81656
 C257 C 0.20598 0.83713 0.83624
 C258 C 0.20919 0.84013 0.86910
 C259 C 0.23654 0.85320 0.88203
 C260 C 0.28929 0.87648 0.87554
 C261 C 0.31315 0.88730 0.88653
 C262 C 0.34176 0.90010 0.89946
 C263 C 0.35588 0.92648 0.88543
 C264 C 0.38390 0.93870 0.89774
 C265 C 0.39813 0.92462 0.92422
 C266 C 0.38373 0.89820 0.93826
 C267 C 0.35570 0.88601 0.92591
 H268 H 0.27670 0.86841 0.81402
 H269 H 0.22874 0.84523 0.79121
 H270 H 0.19045 0.83242 0.88468
 H271 H 0.23867 0.85527 0.90741
 H272 H 0.34527 0.93755 0.86495
 H273 H 0.39444 0.95912 0.88651
 H274 H 0.39413 0.88693 0.95872
 H275 H 0.34495 0.86558 0.93694
 C276 C 0.73981 0.86137 1.13763
 C277 C 0.74276 0.82860 1.14051
 C278 C 0.77001 0.81552 1.15370
 C279 C 0.79463 0.83508 1.16416
 C280 C 0.79152 0.86797 1.16107
 C281 C 0.76425 0.88102 1.14788
 C282 C 0.71157 0.87477 1.12443
 C283 C 0.68778 0.88587 1.11349
 C284 C 0.65926 0.89893 1.10056
 C285 C 0.64518 0.88503 1.07418
 C286 C 0.61723 0.89745 1.06183
 C287 C 0.60304 0.92393 1.07579
 C288 C 0.61740 0.93785 1.10220
 C289 C 0.64535 0.92538 1.11451
 H290 H 0.72395 0.81319 1.13271
 H291 H 0.77177 0.79014 1.15610
 H292 H 0.81028 0.88346 1.16880
 H293 H 0.76220 0.90642 1.14574
 H294 H 0.65576 0.86455 1.06320
 H295 H 0.60672 0.88632 1.04141
 H296 H 0.60702 0.95831 1.11337
 H297 H 0.65607 0.93632 1.13494
 C298 C 0.73980 1.13875 0.86231
 C299 C 0.74276 1.17152 0.85943
 C300 C 0.77000 1.18460 0.84623
 C301 C 0.79462 1.16503 0.83577
 C302 C 0.79151 1.13215 0.83886
 C303 C 0.76424 1.11909 0.85205
 C304 C 0.71156 1.12534 0.87551
 C305 C 0.68778 1.11425 0.88645
 C306 C 0.65925 1.10119 0.89938
 C307 C 0.64517 1.11509 0.92576
 C308 C 0.61722 1.10266 0.93811
 C309 C 0.60304 1.07618 0.92415
 C310 C 0.61739 1.06227 0.89774
 C311 C 0.64535 1.07473 0.88543
 H312 H 0.72394 1.18693 0.86723
 H313 H 0.77177 1.20997 0.84383
 H314 H 0.81027 1.11665 0.83113
 H315 H 0.76219 1.09370 0.85419
 H316 H 0.65575 1.13557 0.93673
 H317 H 0.60671 1.11380 0.95852
 H318 H 0.60702 1.04181 0.88657
 H319 H 0.65607 1.06380 0.86499
 C320 C 0.13827 0.25987 0.13654
 C321 C 0.17103 0.25690 0.13940
 C322 C 0.18408 0.22960 0.15254
 C323 C 0.16449 0.20493 0.16298
 C324 C 0.13161 0.20804 0.15990
 C325 C 0.11859 0.23537 0.14676
 C326 C 0.12489 0.28820 0.12345
 C327 C 0.11382 0.31206 0.11262
 C328 C 0.10079 0.34068 0.09982
 C329 C 0.11474 0.35493 0.07346
 C330 C 0.10236 0.38298 0.06125
 C331 C 0.07588 0.39710 0.07532
 C332 C 0.06192 0.38257 0.10171
 C333 C 0.07434 0.35451 0.11388
 H334 H 0.18646 0.27576 0.13163
 H335 H 0.20944 0.22783 0.15494
 H336 H 0.11610 0.18925 0.16761
 H337 H 0.09320 0.23744 0.14463
 H338 H 0.13522 0.34440 0.06240
 H339 H 0.11353 0.39362 0.04085
 H340 H 0.04146 0.39289 0.11296
 H341 H 0.06338 0.34367 0.13430
 C342 C -0.13702 0.26131 -0.13869
 C343 C -0.13987 0.25843 -0.17145
 C344 C -0.15299 0.23118 -0.18447
 C345 C -0.16340 0.20648 -0.16486
 C346 C -0.16032 0.20952 -0.13199
 C347 C -0.14720 0.23679 -0.11899
 C348 C -0.12392 0.28957 -0.12533
 C349 C -0.11308 0.31336 -0.11427
 C350 C -0.10026 0.34189 -0.10122
 C351 C -0.07388 0.35608 -0.11515
 C352 C -0.06162 0.38401 -0.10273
 C353 C -0.07566 0.39808 -0.07622
 C354 C -0.10207 0.38361 -0.06229
 C355 C -0.11430 0.35567 -0.07475
 H356 H -0.13213 0.27730 -0.18690
 H357 H -0.15538 0.22947 -0.20983
 H358 H -0.16800 0.19070 -0.11646
 H359 H -0.14508 0.23879 -0.09360
 H360 H -0.06284 0.34560 -0.13565
 H361 H -0.04121 0.39461 -0.11388
 H362 H -0.11330 0.39389 -0.04181
 H363 H -0.13472 0.34487 -0.06379
 C364 C 0.13827 0.74024 -0.13661
 C365 C 0.17103 0.74321 -0.13946
 C366 C 0.18408 0.77051 -0.15260
 C367 C 0.16449 0.79518 -0.16304
 C368 C 0.13161 0.79207 -0.15996
 C369 C 0.11859 0.76474 -0.14682
 C370 C 0.12489 0.71192 -0.12352
 C371 C 0.11382 0.68805 -0.11268
 C372 C 0.10079 0.65943 -0.09988
 C373 C 0.07434 0.64560 -0.11395
 C374 C 0.06192 0.61754 -0.10177
 C375 C 0.07588 0.60301 -0.07538
 C376 C 0.10235 0.61714 -0.06131
 C377 C 0.11473 0.64519 -0.07352
 H378 H 0.18646 0.72434 -0.13170
 H379 H 0.20944 0.77227 -0.15501
 H380 H 0.11610 0.81086 -0.16767
 H381 H 0.09320 0.76268 -0.14469
 H382 H 0.06338 0.65644 -0.13436
 H383 H 0.04146 0.60722 -0.11302
 H384 H 0.11352 0.60650 -0.04091
 H385 H 0.13522 0.65571 -0.06247
 C386 C -0.13702 0.73880 0.13862
 C387 C -0.14720 0.76332 0.11892
 C388 C -0.16031 0.79060 0.13192
 C389 C -0.16339 0.79363 0.16479
 C390 C -0.15298 0.76893 0.18440
 C391 C -0.13987 0.74168 0.17138
 C392 C -0.12393 0.71054 0.12526
 C393 C -0.11308 0.68674 0.11420
 C394 C -0.10026 0.65822 0.10115
 C395 C -0.11430 0.64444 0.07468
 C396 C -0.10208 0.61650 0.06222
 C397 C -0.07567 0.60203 0.07616
 C398 C -0.06163 0.61609 0.10266
 C399 C -0.07389 0.64403 0.11508
 H400 H -0.14508 0.76132 0.09353
 H401 H -0.16799 0.80941 0.11639
 H402 H -0.15538 0.77064 0.20977
 H403 H -0.13213 0.72281 0.18683
 H404 H -0.13473 0.65524 0.06373
 H405 H -0.11331 0.60622 0.04174
 H406 H -0.04121 0.60550 0.11381
 H407 H -0.06285 0.65451 0.13558
 C408 C 1.13897 0.13999 0.73734
 C409 C 1.14178 0.17277 0.74012
 C410 C 1.15508 0.18592 0.76724
 C411 C 1.16575 0.16642 0.79193
 C412 C 1.16278 0.13353 0.78897
 C413 C 1.14948 0.12040 0.76183
 C414 C 1.12552 0.12650 0.70926
 C415 C 1.11434 0.11529 0.68566
 C416 C 1.10112 0.10204 0.65736
 C417 C 1.07459 0.11590 0.64336
 C418 C 1.06195 0.10326 0.61568
 C419 C 1.07574 0.07660 0.60165
 C420 C 1.10230 0.06274 0.61593
 C421 C 1.11491 0.07541 0.64362
 H422 H 1.13379 0.18815 0.72129
 H423 H 1.15736 0.21130 0.76887
 H424 H 1.17063 0.11807 0.80777
 H425 H 1.14740 0.09501 0.75993
 H426 H 1.06373 0.13651 0.65380
 H427 H 1.04143 0.11437 0.60524
 H428 H 1.11336 0.04214 0.60569
 H429 H 1.13544 0.06449 0.65425
 C430 C 0.85954 -0.13947 0.73845
 C431 C 0.87904 -0.15249 0.76167
 C432 C 0.86593 -0.16585 0.78886
 C433 C 0.83288 -0.16648 0.79341
 C434 C 0.81358 -0.15309 0.76967
 C435 C 0.82682 -0.13977 0.74253
 C436 C 0.87306 -0.12599 0.71031
 C437 C 0.88427 -0.11480 0.68664
 C438 C 0.89754 -0.10156 0.65827
 C439 C 0.88368 -0.07503 0.64423
 C440 C 0.89633 -0.06238 0.61647
 C441 C 0.92299 -0.07618 0.60240
 C442 C 0.93685 -0.10274 0.61672
 C443 C 0.92417 -0.11535 0.64448
 H444 H 0.90444 -0.15226 0.75881
 H445 H 0.88170 -0.17517 0.80669
 H446 H 0.78813 -0.15365 0.77172
 H447 H 0.81148 -0.12990 0.72460
 H448 H 0.86307 -0.06417 0.65470
 H449 H 0.88521 -0.04187 0.60600
 H450 H 0.95744 -0.11380 0.60645
 H451 H 0.93509 -0.13588 0.65515
 C452 C 1.13898 -0.13988 0.26260
 C453 C 1.14178 -0.17266 0.25982
 C454 C 1.15508 -0.18581 0.23270
 C455 C 1.16575 -0.16632 0.20801
 C456 C 1.16278 -0.13342 0.21097
 C457 C 1.14948 -0.12029 0.23811
 C458 C 1.12553 -0.12639 0.29067
 C459 C 1.11435 -0.11518 0.31428
 C460 C 1.10113 -0.10193 0.34258
 C461 C 1.07460 -0.11579 0.35658
 C462 C 1.06195 -0.10315 0.38426
 C463 C 1.07575 -0.07649 0.39829
 C464 C 1.10231 -0.06263 0.38401
 C465 C 1.11491 -0.07530 0.35632
 H466 H 1.13380 -0.18804 0.27865
 H467 H 1.15736 -0.21119 0.23107
 H468 H 1.17064 -0.11796 0.19217
 H469 H 1.14741 -0.09490 0.24001
 H470 H 1.06373 -0.13640 0.34614
 H471 H 1.04144 -0.11426 0.39470
 H472 H 1.11337 -0.04203 0.39425
 H473 H 1.13544 -0.06438 0.34568
 C474 C 0.85954 0.13958 0.26149
 C475 C 0.87904 0.15260 0.23826
 C476 C 0.86593 0.16596 0.21107
 C477 C 0.83288 0.16659 0.20653
 C478 C 0.81358 0.15320 0.23027
 C479 C 0.82682 0.13988 0.25741
 C480 C 0.87305 0.12610 0.28963
 C481 C 0.88427 0.11491 0.31330
 C482 C 0.89753 0.10167 0.34167
 C483 C 0.92417 0.11545 0.35545
 C484 C 0.93684 0.10284 0.38322
 C485 C 0.92298 0.07628 0.39754
 C486 C 0.89633 0.06249 0.38347
 C487 C 0.88368 0.07514 0.35570
 H488 H 0.90444 0.15236 0.24112
 H489 H 0.88170 0.17527 0.19325
 H490 H 0.78813 0.15376 0.22822
 H491 H 0.81147 0.13001 0.27534
 H492 H 0.93508 0.13599 0.34479
 H493 H 0.95744 0.11390 0.39349
 H494 H 0.88521 0.04197 0.39394
 H495 H 0.86307 0.06427 0.34524
 C496 C 0.13962 0.26262 -0.13968
 C497 C 0.17240 0.25979 -0.14251
 C498 C 0.18559 0.23263 -0.15571
 C499 C 0.16613 0.20795 -0.16623
 C500 C 0.13323 0.21096 -0.16323
 C501 C 0.12007 0.23814 -0.15003
 C502 C 0.12610 0.29072 -0.12632
 C503 C 0.11489 0.31436 -0.11521
 C504 C 0.10167 0.34268 -0.10200
 C505 C 0.11551 0.35649 -0.07544
 C506 C 0.10292 0.38419 -0.06279
 C507 C 0.07632 0.39843 -0.07662
 C508 C 0.06247 0.38434 -0.10323
 C509 C 0.07511 0.35663 -0.11583
 H510 H 0.18776 0.27862 -0.13463
 H511 H 0.21096 0.23097 -0.15802
 H512 H 0.11779 0.19217 -0.17098
 H513 H 0.09467 0.24006 -0.14793
 H514 H 0.13607 0.34588 -0.06454
 H515 H 0.11402 0.39447 -0.04224
 H516 H 0.04193 0.39475 -0.11431
 H517 H 0.06420 0.34614 -0.13640
 C518 C -0.13982 0.26163 0.13976
 C519 C -0.15275 0.23839 0.12033
 C520 C -0.16608 0.21123 0.13354
 C521 C -0.16676 0.20672 0.16661
 C522 C -0.15346 0.23047 0.18583
 C523 C -0.14017 0.25759 0.17250
 C524 C -0.12638 0.28974 0.12615
 C525 C -0.11519 0.31338 0.11488
 C526 C -0.10192 0.34173 0.10159
 C527 C -0.11572 0.35571 0.07499
 C528 C -0.10307 0.38346 0.06232
 C529 C -0.07644 0.39757 0.07614
 C530 C -0.06263 0.38330 0.10275
 C531 C -0.07532 0.35556 0.11539
 H532 H -0.15248 0.24122 0.09492
 H533 H -0.17533 0.19339 0.11783
 H534 H -0.15406 0.22846 0.21129
 H535 H -0.13036 0.27552 0.18778
 H536 H -0.13631 0.34521 0.06411
 H537 H -0.11414 0.39389 0.04176
 H538 H -0.04207 0.39360 0.11384
 H539 H -0.06445 0.34494 0.13597
 C540 C -0.13983 0.73848 -0.13983
 C541 C -0.14018 0.74252 -0.17256
 C542 C -0.15346 0.76963 -0.18589
 C543 C -0.16676 0.79338 -0.16668
 C544 C -0.16608 0.78888 -0.13361
 C545 C -0.15276 0.76172 -0.12040
 C546 C -0.12638 0.71037 -0.12621
 C547 C -0.11520 0.68672 -0.11494
 C548 C -0.10193 0.65838 -0.10165
 C549 C -0.07533 0.64455 -0.11546
 C550 C -0.06263 0.61681 -0.10282
 C551 C -0.07645 0.60254 -0.07621
 C552 C -0.10307 0.61665 -0.06238
 C553 C -0.11573 0.64440 -0.07506
 H554 H -0.13037 0.72458 -0.18784
 H555 H -0.15406 0.77165 -0.21135
 H556 H -0.17533 0.80672 -0.11789
 H557 H -0.15248 0.75889 -0.09499
 H558 H -0.06445 0.65517 -0.13604
 H559 H -0.04207 0.60651 -0.11391
 H560 H -0.11415 0.60622 -0.04183
 H561 H -0.13631 0.65490 -0.06418
 C562 C 0.13962 0.73749 0.13961
 C563 C 0.12007 0.76198 0.14997
 C564 C 0.13323 0.78915 0.16316
 C565 C 0.16613 0.79216 0.16617
 C566 C 0.18559 0.76747 0.15564
 C567 C 0.17240 0.74032 0.14245
 C568 C 0.12609 0.70939 0.12626
 C569 C 0.11489 0.68576 0.11514
 C570 C 0.10167 0.65743 0.10194
 C571 C 0.11550 0.64363 0.07537
 C572 C 0.10291 0.61592 0.06273
 C573 C 0.07632 0.60168 0.07656
 C574 C 0.06247 0.61577 0.10316
 C575 C 0.07510 0.64348 0.11577
 H576 H 0.09467 0.76005 0.14787
 H577 H 0.11779 0.80794 0.17091
 H578 H 0.21096 0.76914 0.15795
 H579 H 0.18775 0.72149 0.13457
 H580 H 0.13606 0.65423 0.06447
 H581 H 0.11401 0.60564 0.04218
 H582 H 0.04193 0.60536 0.11425
 H583 H 0.06420 0.65397 0.13633
 C584 C 0.26246 1.13941 0.86000
 C585 C 0.23800 1.14984 0.87955
 C586 C 0.21079 1.16307 0.86638
 C587 C 0.20772 1.16604 0.83348
 C588 C 0.23237 1.15543 0.81402
 C589 C 0.25956 1.14219 0.82722
 C590 C 0.29062 1.12604 0.87355
 C591 C 0.31429 1.11493 0.88478
 C592 C 0.34267 1.10176 0.89805
 C593 C 0.35649 1.11554 0.92464
 C594 C 0.38426 1.10298 0.93732
 C595 C 0.39853 1.07646 0.92350
 C596 C 0.38443 1.06267 0.89688
 C597 C 0.35667 1.07527 0.88423
 H598 H 0.23998 1.14778 0.90495
 H599 H 0.19202 1.17089 0.88182
 H600 H 0.23066 1.15770 0.78863
 H601 H 0.27837 1.13426 0.81186
 H602 H 0.34586 1.13604 0.93553
 H603 H 0.39456 1.11403 0.95788
 H604 H 0.39486 1.04219 0.88579
 H605 H 0.34617 1.06441 0.86365
 C606 C 0.26247 0.86070 1.13994
 C607 C 0.23801 0.85026 1.12039
 C608 C 0.21079 0.83703 1.13355
 C609 C 0.20772 0.83407 1.16646
 C610 C 0.23238 0.84468 1.18592
 C611 C 0.25957 0.85791 1.17272
 C612 C 0.29062 0.87406 1.12639
 C613 C 0.31430 0.88517 1.11516
 C614 C 0.34267 0.89835 1.10189
 C615 C 0.35650 0.88456 1.07530
 C616 C 0.38426 0.89713 1.06262
 C617 C 0.39854 0.92365 1.07644
 C618 C 0.38443 0.93744 1.10306
 C619 C 0.35667 0.92483 1.11570
 H620 H 0.23998 0.85233 1.09498
 H621 H 0.19202 0.82922 1.11812
 H622 H 0.23066 0.84240 1.21130
 H623 H 0.27838 0.86584 1.18807
 H624 H 0.34586 0.86406 1.06441
 H625 H 0.39456 0.88608 1.04206
 H626 H 0.39486 0.95792 1.11414
 H627 H 0.34617 0.93569 1.13628
 C628 C 0.73837 1.14009 1.13939
 C629 C 0.74234 1.17282 1.13962
 C630 C 0.76941 1.18612 1.15290
 C631 C 0.79316 1.16688 1.16633
 C632 C 0.78872 1.13382 1.16577
 C633 C 0.76161 1.12063 1.15244
 C634 C 0.71030 1.12650 1.12598
 C635 C 0.68669 1.11523 1.11482
 C636 C 0.65839 1.10192 1.10161
 C637 C 0.64443 1.11578 1.07504
 C638 C 0.61673 1.10310 1.06241
 C639 C 0.60265 1.07640 1.07625
 C640 C 0.61690 1.06253 1.10284
 C641 C 0.64460 1.07524 1.11544
 H642 H 0.72440 1.18812 1.12972
 H643 H 0.77138 1.21158 1.15341
 H644 H 0.80657 1.11809 1.17512
 H645 H 0.75883 1.09523 1.15227
 H646 H 0.65490 1.13642 1.06415
 H647 H 0.60632 1.11423 1.04187
 H648 H 0.60662 1.04191 1.11394
 H649 H 0.65521 1.06432 1.13600
 C650 C 0.73837 0.86003 0.86054
 C651 C 0.76162 0.87948 0.84750
 C652 C 0.78873 0.86629 0.83417
 C653 C 0.79316 0.83323 0.83360
 C654 C 0.76941 0.81399 0.84703
 C655 C 0.74235 0.82730 0.86032
 C656 C 0.71030 0.87362 0.87396
 C657 C 0.68669 0.88489 0.88511
 C658 C 0.65839 0.89820 0.89833
 C659 C 0.64460 0.92487 0.88450
 C660 C 0.61690 0.93758 0.89710
 C661 C 0.60266 0.92371 0.92369
 C662 C 0.61674 0.89701 0.93753
 C663 C 0.64443 0.88434 0.92489
 H664 H 0.75883 0.90489 0.84767
 H665 H 0.80657 0.88202 0.82482
 H666 H 0.77138 0.78853 0.84652
 H667 H 0.72440 0.81200 0.87022
 H668 H 0.65521 0.93580 0.86394
 H669 H 0.60662 0.95820 0.88600
 H670 H 0.60633 0.88589 0.95807
 H671 H 0.65491 0.86370 0.93579
   
