data_POSCAR
  _audit_creation_date              2014-09-24
  _audit_creation_method            'ToBaCCo'
  _symmetry_space_group_name_H-M    'P1'
  _symmetry_Int_Tables_number       1
  _symmetry_cell_setting            triclinic
  loop_
  _symmetry_equiv_pos_as_xyz
 x,y,z
_cell_length_a 23.1424
_cell_length_b 23.4203
_cell_length_c 22.9383
_cell_angle_alpha 89.999900
_cell_angle_beta 90.108500
_cell_angle_gamma 90.123400
loop_
  _atom_site_label
  _atom_site_type_symbol
  _atom_site_fract_x
  _atom_site_fract_y
  _atom_site_fract_z
C1 C 0.44848 1.00136 -0.53195
 C2 C 0.44830 1.00108 -0.47074
 C3 C 0.50069 1.00115 -0.44040
 C4 C 0.55340 1.00118 -0.47011
 C5 C 0.55361 1.00093 -0.53144
 C6 C 0.50112 1.00117 -0.56175
 H7 H 0.50123 1.00116 -0.60917
 H8 H 0.50031 1.00111 -0.39301
 C9 C -0.52968 1.44882 0.00023
 C10 C -0.46876 1.44871 -0.00000
 C11 C -0.43892 1.50092 0.00010
 C12 C -0.46830 1.55333 0.00022
 C13 C -0.52932 1.55341 0.00003
 C14 C -0.55908 1.50114 0.00014
 H15 H -0.60601 1.50118 0.00015
 H16 H -0.39196 1.50064 0.00008
 C17 C -0.00009 0.44556 0.46931
 C18 C -0.00038 0.44555 0.53084
 C19 C -0.00032 0.49778 0.56074
 C20 C -0.00021 0.54984 0.53073
 C21 C -0.00040 0.54984 0.46943
 C22 C -0.00023 0.49778 0.43942
 H23 H -0.00019 0.49803 0.39204
 H24 H -0.00035 0.49802 0.60812
 O25 O -0.14867 1.00185 -0.07924
 O26 O 0.14811 0.99806 -0.07910
 O27 O -0.00220 1.07645 -0.14975
 O28 O 0.00145 0.92332 -0.14971
 O29 O 0.00151 0.85262 -0.07950
 O30 O -0.00207 1.14720 -0.07959
 O31 O 0.07680 0.99798 -0.14954
 O32 O -0.07755 1.00186 -0.14961
 Zr33 Zr -0.00031 0.99991 -0.10163
 O34 O 0.05216 0.94787 -0.05249
 O35 O -0.05264 1.05198 -0.05254
 C36 C -0.13076 1.00280 -0.13276
 C37 C 0.13006 0.99711 -0.13264
 C38 C -0.00300 1.12926 -0.13317
 C39 C 0.00232 0.87052 -0.13308
 H40 H 0.07661 1.07607 -0.07729
 O41 O 0.05197 1.05186 -0.05222
 H42 H -0.07718 0.92378 -0.07735
 O43 O -0.05246 0.94799 -0.05225
 O44 O 0.14834 1.00227 0.07937
 O45 O -0.14843 0.99766 0.07929
 O46 O 0.07917 1.14739 0.00192
 O47 O 0.07897 0.85271 -0.00169
 O48 O -0.07953 0.85250 0.00187
 O49 O -0.07926 1.14717 -0.00177
 O50 O 0.00198 1.07647 0.14990
 O51 O -0.00189 0.92333 0.14988
 O52 O 0.00195 1.14721 0.07974
 O53 O -0.00207 0.85262 0.07968
 O54 O 0.14906 1.07700 0.00186
 O55 O -0.14928 1.07660 -0.00171
 O56 O -0.14942 0.92290 0.00175
 O57 O 0.14896 0.92331 -0.00159
 O58 O 0.07725 1.00209 0.14977
 O59 O -0.07710 0.99779 0.14972
 Zr60 Zr 0.10156 1.00008 0.00012
 Zr61 Zr -0.10190 0.99980 0.00004
 Zr62 Zr -0.00009 1.10135 0.00008
 Zr63 Zr -0.00024 0.89851 0.00009
 Zr64 Zr -0.00001 0.99992 0.10180
 O65 O -0.05257 0.94773 0.05265
 O66 O 0.05239 1.05213 0.05270
 C67 C 0.13046 1.00317 0.13290
 C68 C -0.13037 0.99677 0.13283
 C69 C 0.13245 1.12979 0.00270
 C70 C 0.13228 0.87047 -0.00245
 C71 C -0.13281 0.87011 0.00262
 C72 C -0.13258 1.12944 -0.00255
 C73 C 0.00286 1.12928 0.13332
 C74 C -0.00285 0.87052 0.13326
 H75 H -0.07682 1.07586 0.07744
 O76 O -0.05221 1.05172 0.05237
 H77 H 0.07674 0.92400 0.07752
 O78 O 0.05205 0.94813 0.05242
 C79 C 0.31793 1.00317 0.35390
 C80 C 0.34751 1.00534 0.29403
 C81 C 0.30994 1.00589 0.24845
 C82 C 0.24651 1.00421 0.26718
 C83 C 0.23920 1.05506 0.30881
 C84 C 0.27689 1.05451 0.35455
 C85 C 0.27862 0.95043 0.35161
 C86 C 0.24095 0.95097 0.30590
 C87 C 0.36010 1.00250 0.40122
 C88 C 0.39944 1.00191 0.43543
 C89 C 0.20646 1.00456 0.21800
 C90 C 0.17273 1.00427 0.17816
 H91 H 0.39403 1.00638 0.28799
 H92 H 0.32415 1.00740 0.20339
 H93 H 0.20722 1.08843 0.30294
 H94 H 0.27725 1.08733 0.38797
 H95 H 0.28007 0.91589 0.38315
 H96 H 0.21008 0.91682 0.29817
 C97 C -0.31623 0.99824 0.35449
 C98 C -0.27644 0.94594 0.35433
 C99 C -0.23914 0.94504 0.30842
 C100 C -0.24555 0.99652 0.26743
 C101 C -0.23840 1.04917 0.30677
 C102 C -0.27568 1.05007 0.35266
 C103 C -0.34631 0.99747 0.29473
 C104 C -0.30914 0.99657 0.24897
 C105 C -0.35804 0.99929 0.40197
 C106 C -0.39727 1.00014 0.43616
 C107 C -0.20591 0.99581 0.21806
 C108 C -0.17246 0.99587 0.17811
 H109 H -0.27732 0.91276 0.38736
 H110 H -0.20802 0.91099 0.30200
 H111 H -0.20677 1.08268 0.29931
 H112 H -0.27604 1.08426 0.38462
 H113 H -0.39290 0.99760 0.28889
 H114 H -0.32374 0.99592 0.20396
 C115 C -0.31685 1.00275 -0.35496
 C116 C -0.34693 1.00487 -0.29536
 C117 C -0.30976 1.00539 -0.24944
 C118 C -0.24618 1.00373 -0.26760
 C119 C -0.23829 1.05460 -0.30914
 C120 C -0.27559 1.05408 -0.35521
 C121 C -0.27779 0.95000 -0.35237
 C122 C -0.24051 0.95052 -0.30632
 C123 C -0.35861 1.00212 -0.40266
 C124 C -0.39770 1.00162 -0.43718
 C125 C -0.20651 1.00407 -0.21810
 C126 C -0.17298 1.00381 -0.17808
 H127 H -0.39351 1.00590 -0.28972
 H128 H -0.32435 1.00686 -0.20450
 H129 H -0.20622 1.08798 -0.30297
 H130 H -0.27551 1.08692 -0.38861
 H131 H -0.27911 0.91549 -0.38394
 H132 H -0.20986 0.91636 -0.29834
 C133 C 0.31588 0.99860 -0.35432
 C134 C 0.27512 0.94688 -0.35468
 C135 C 0.23787 0.94600 -0.30873
 C136 C 0.24529 0.99695 -0.26718
 C137 C 0.23908 1.05010 -0.30592
 C138 C 0.27631 1.05097 -0.35185
 C139 C 0.34604 0.99677 -0.29462
 C140 C 0.30890 0.99590 -0.24882
 C141 C 0.35757 0.99960 -0.40192
 C142 C 0.39649 1.00038 -0.43645
 C143 C 0.20566 0.99625 -0.21781
 C144 C 0.17217 0.99628 -0.17789
 H145 H 0.27534 0.91403 -0.38808
 H146 H 0.20613 0.91233 -0.30265
 H147 H 0.20809 1.08397 -0.29803
 H148 H 0.27728 1.08550 -0.38341
 H149 H 0.39262 0.99619 -0.28885
 H150 H 0.32354 0.99456 -0.20384
 C151 C 0.35277 1.31720 0.00191
 C152 C 0.35225 1.27597 -0.05010
 C153 C 0.30695 1.23855 -0.04953
 C154 C 0.26649 1.24596 0.00299
 C155 C 0.24799 1.30873 0.00110
 C156 C 0.29319 1.34606 0.00053
 C157 C 0.35140 1.27872 0.05608
 C158 C 0.30609 1.24129 0.05665
 C159 C 0.40033 1.35913 0.00125
 C160 C 0.43529 1.39757 0.00072
 C161 C 0.21742 1.20574 0.00345
 C162 C 0.17778 1.17202 0.00340
 H163 H 0.38467 1.27603 -0.08425
 H164 H 0.30062 1.20662 -0.08327
 H165 H 0.20329 1.32269 0.00029
 H166 H 0.28704 1.39200 -0.00078
 H167 H 0.38327 1.28058 0.09082
 H168 H 0.29919 1.21117 0.09194
 C169 C 0.35307 0.68451 -0.00163
 C170 C 0.29361 0.65517 -0.00362
 C171 C 0.24828 0.69214 -0.00418
 C172 C 0.26652 0.75507 -0.00271
 C173 C 0.30775 0.76226 -0.05468
 C174 C 0.35320 0.72518 -0.05412
 C175 C 0.35074 0.72354 0.05206
 C176 C 0.30530 0.76061 0.05149
 C177 C 0.40077 0.64292 -0.00098
 C178 C 0.43576 0.60464 -0.00046
 C179 C 0.21730 0.79493 -0.00317
 C180 C 0.17759 0.82842 -0.00312
 H181 H 0.28764 0.60917 -0.00452
 H182 H 0.20364 0.67783 -0.00557
 H183 H 0.30180 0.79376 -0.08888
 H184 H 0.38613 0.72500 -0.08775
 H185 H 0.38208 0.72232 0.08730
 H186 H 0.29777 0.79106 0.08633
 C187 C -0.35318 0.68270 0.00184
 C188 C -0.35185 0.72272 -0.05114
 C189 C -0.30656 0.76016 -0.05057
 C190 C -0.26692 0.75398 0.00290
 C191 C -0.24840 0.69120 0.00289
 C192 C -0.29357 0.65385 0.00234
 C193 C -0.35267 0.72241 0.05508
 C194 C -0.30737 0.75987 0.05564
 C195 C -0.40064 0.64065 0.00119
 C196 C -0.43528 0.60191 0.00068
 C197 C -0.21784 0.79420 0.00335
 C198 C -0.17816 0.82790 0.00330
 H199 H -0.38373 0.72186 -0.08590
 H200 H -0.29971 0.79131 -0.08494
 H201 H -0.20369 0.67725 0.00331
 H202 H -0.28739 0.60790 0.00227
 H203 H -0.38508 0.72134 0.08921
 H204 H -0.30103 0.79081 0.09033
 C205 C -0.35212 1.31681 -0.00171
 C206 C -0.35340 1.27546 -0.05363
 C207 C -0.30829 1.23799 -0.05422
 C208 C -0.26621 1.24550 -0.00282
 C209 C -0.30421 1.24099 0.05189
 C210 C -0.34931 1.27845 0.05247
 C211 C -0.29245 1.34562 -0.00478
 C212 C -0.24746 1.30825 -0.00536
 C213 C -0.39944 1.35880 -0.00104
 C214 C -0.43414 1.39733 -0.00051
 C215 C -0.21734 1.20525 -0.00329
 C216 C -0.17781 1.17156 -0.00324
 H217 H -0.38684 1.27549 -0.08689
 H218 H -0.30313 1.20599 -0.08804
 H219 H -0.29642 1.21093 0.08705
 H220 H -0.38010 1.28040 0.08806
 H221 H -0.28611 1.39154 -0.00638
 H222 H -0.20273 1.32216 -0.00746
 C223 C 0.00192 1.31606 0.35447
 C224 C -0.05103 1.27657 0.35259
 C225 C -0.05035 1.23902 0.30714
 C226 C 0.00322 1.24471 0.26804
 C227 C 0.05496 1.23839 0.30963
 C228 C 0.05428 1.27595 0.35510
 C229 C 0.00346 1.34483 0.29427
 C230 C 0.00413 1.30738 0.24895
 C231 C 0.00114 1.35815 0.40185
 C232 C 0.00050 1.39702 0.43632
 C233 C 0.00375 1.20461 0.21888
 C234 C 0.00367 1.17110 0.17898
 H235 H -0.08583 1.27782 0.38423
 H236 H -0.08465 1.20813 0.29983
 H237 H 0.08904 1.20711 0.30392
 H238 H 0.08770 1.27683 0.38836
 H239 H 0.00398 1.39076 0.28783
 H240 H 0.00524 1.32119 0.20377
 C241 C -0.00220 1.31604 -0.35432
 C242 C 0.05063 1.27661 -0.35264
 C243 C 0.05000 1.23906 -0.30719
 C244 C -0.00340 1.24468 -0.26790
 C245 C -0.05531 1.23830 -0.30930
 C246 C -0.05468 1.27587 -0.35476
 C247 C -0.00343 1.34480 -0.29412
 C248 C -0.00406 1.30735 -0.24879
 C249 C -0.00147 1.35813 -0.40170
 C250 C -0.00089 1.39701 -0.43617
 C251 C -0.00389 1.20458 -0.21874
 C252 C -0.00380 1.17106 -0.17884
 H253 H 0.08532 1.27791 -0.38441
 H254 H 0.08424 1.20821 -0.30001
 H255 H -0.08947 1.20698 -0.30346
 H256 H -0.08822 1.27670 -0.38790
 H257 H -0.00378 1.39073 -0.28767
 H258 H -0.00495 1.32115 -0.20362
 C259 C 0.00153 0.68239 -0.35300
 C260 C 0.00287 0.65408 -0.29258
 C261 C 0.00347 0.69188 -0.24756
 C262 C 0.00267 0.75441 -0.26717
 C263 C -0.05079 0.75963 -0.30664
 C264 C -0.05139 0.72173 -0.35179
 C265 C 0.05392 0.72267 -0.35362
 C266 C 0.05452 0.76058 -0.30846
 C267 C 0.00083 0.64003 -0.40012
 C268 C 0.00028 0.60120 -0.43462
 C269 C 0.00314 0.79488 -0.21834
 C270 C 0.00306 0.82862 -0.17865
 H271 H 0.00333 0.60820 -0.28577
 H272 H 0.00445 0.67843 -0.20227
 H273 H -0.08508 0.79046 -0.29980
 H274 H -0.08611 0.72011 -0.38363
 H275 H 0.08744 0.72164 -0.38665
 H276 H 0.08862 0.79201 -0.30278
 C277 C -0.00220 0.68239 0.35318
 C278 C -0.00434 0.65409 0.29277
 C279 C -0.00493 0.69189 0.24775
 C280 C -0.00332 0.75441 0.26734
 C281 C 0.05052 0.75933 0.30636
 C282 C 0.05111 0.72143 0.35150
 C283 C -0.05417 0.72297 0.35424
 C284 C -0.05476 0.76088 0.30908
 C285 C -0.00151 0.64003 0.40029
 C286 C -0.00094 0.60120 0.43478
 C287 C -0.00376 0.79489 0.21852
 C288 C -0.00365 0.82863 0.17883
 H289 H -0.00533 0.60821 0.28597
 H290 H -0.00642 0.67845 0.20247
 H291 H 0.08506 0.78996 0.29922
 H292 H 0.08608 0.71962 0.38305
 H293 H -0.08742 0.72213 0.38755
 H294 H -0.08858 0.79251 0.30368
   
