data_POSCAR
  _audit_creation_date              2014-09-24
  _audit_creation_method            'ToBaCCo'
  _symmetry_space_group_name_H-M    'P1'
  _symmetry_Int_Tables_number       1
  _symmetry_cell_setting            triclinic
  loop_
  _symmetry_equiv_pos_as_xyz
 x,y,z
_cell_length_a 40.2091
_cell_length_b 41.3740
_cell_length_c 40.9250
_cell_angle_alpha 89.446600
_cell_angle_beta 89.180800
_cell_angle_gamma 90.232700
loop_
  _atom_site_label
  _atom_site_type_symbol
  _atom_site_fract_x
  _atom_site_fract_y
  _atom_site_fract_z
Si1 Si 1.24994 0.25532 0.25321
 Si2 Si 0.74542 -0.25881 0.24926
 Si3 Si 0.74704 0.23958 -0.25381
 Si4 Si 1.24797 -0.24817 -0.24503
 Si5 Si 0.25338 0.24694 0.74633
 Si6 Si 0.75104 0.76063 0.75128
 Si7 Si 0.74661 0.25999 0.25296
 Si8 Si 0.25492 0.74564 0.24317
 N9 N 0.96245 0.03766 -0.04801
 N10 N 0.94082 0.04465 -0.07097
 N11 N 1.03187 0.06258 -0.02793
 N12 N 1.05333 0.08584 -0.03522
 N13 N 1.03225 0.04034 -0.05058
 N14 N 1.05395 0.04796 -0.07397
 N15 N 0.96206 0.05989 -0.02530
 N16 N 0.94008 0.08247 -0.03223
 C17 C 0.92665 0.07242 -0.06057
 C18 C 1.06719 0.07628 -0.06387
 N19 N 1.03537 0.03983 0.06515
 N20 N 1.05833 0.04724 0.08664
 N21 N 0.96401 0.05967 0.04529
 N22 N 0.94226 0.08208 0.05361
 N23 N 0.96559 0.03723 0.06812
 N24 N 0.94495 0.04381 0.09251
 N25 N 1.03382 0.06222 0.04228
 N26 N 1.05576 0.08533 0.04748
 Mn27 Mn 0.99789 0.06133 0.00859
 C28 C 1.07111 0.07554 0.07506
 C29 C 0.93020 0.07164 0.08294
 N30 N 1.03477 -0.02935 -0.05024
 N31 N 1.05591 -0.03546 -0.07433
 N32 N 0.96624 -0.05467 -0.02486
 N33 N 0.94579 -0.07871 -0.03151
 N34 N 0.96501 -0.03223 -0.04775
 N35 N 0.94377 -0.04053 -0.07054
 N36 N 1.03602 -0.05210 -0.02767
 N37 N 1.05795 -0.07434 -0.03597
 Mn38 Mn 0.99862 0.00410 -0.04940
 C39 C 1.07053 -0.06339 -0.06493
 C40 C 0.93158 -0.06938 -0.05986
 N41 N 0.96798 -0.03244 0.06829
 N42 N 0.94609 -0.03950 0.09163
 N43 N 1.03797 -0.05243 0.04303
 N44 N 1.05963 -0.07526 0.05025
 N45 N 1.03772 -0.03009 0.06564
 N46 N 1.05907 -0.03727 0.08879
 N47 N 0.96806 -0.05483 0.04576
 N48 N 0.94619 -0.07773 0.05322
 Mn49 Mn 1.00169 0.00363 0.06705
 Mn50 Mn 1.00208 -0.05378 0.00908
 Cl51 Cl 1.00005 0.00380 0.00883
 C52 C 0.93244 -0.06769 0.08178
 C53 C 1.07299 -0.06525 0.07864
 N54 N 1.03273 0.46940 0.44503
 N55 N 1.05497 0.46345 0.42182
 N56 N 0.96292 0.44775 0.47120
 N57 N 0.94126 0.42478 0.46463
 N58 N 0.96283 0.47029 0.44837
 N59 N 0.94114 0.46300 0.42557
 N60 N 1.03263 0.44628 0.46723
 N61 N 1.05466 0.42393 0.45967
 C62 C 1.06864 0.43508 0.43143
 C63 C 0.92747 0.43477 0.43635
 N64 N 0.96755 0.46792 0.56450
 N65 N 0.94685 0.46085 0.58885
 N66 N 1.03561 0.44448 0.53743
 N67 N 1.05697 0.42096 0.54265
 N68 N 1.03730 0.46615 0.56057
 N69 N 1.05986 0.45782 0.58222
 N70 N 0.96585 0.44598 0.54161
 N71 N 0.94394 0.42337 0.54987
 Mn72 Mn 0.99921 0.44590 0.50435
 C73 C 0.93195 0.43320 0.57924
 C74 C 1.07224 0.42974 0.57046
 N75 N 0.96447 0.54029 0.44958
 N76 N 0.94248 0.54860 0.42741
 N77 N 1.03587 0.56096 0.46902
 N78 N 1.05770 0.58375 0.46121
 N79 N 1.03429 0.53933 0.44579
 N80 N 1.05496 0.54702 0.42151
 N81 N 0.96612 0.56233 0.47244
 N82 N 0.94543 0.58624 0.46621
 Mn83 Mn 0.99857 0.50483 0.44689
 C84 C 0.93045 0.57711 0.43831
 C85 C 1.06975 0.57458 0.43168
 N86 N 1.03926 0.53584 0.56146
 N87 N 1.06202 0.54166 0.58355
 N88 N 0.96892 0.56050 0.54312
 N89 N 0.94818 0.58362 0.55190
 N90 N 0.96952 0.53755 0.56551
 N91 N 0.94918 0.54448 0.59004
 N92 N 1.03867 0.55920 0.53952
 N93 N 1.06094 0.58163 0.54630
 Mn94 Mn 1.00344 0.50187 0.56325
 Mn95 Mn 1.00238 0.56100 0.50602
 Cl96 Cl 1.00086 0.50343 0.50511
 C97 C 1.07566 0.57009 0.57359
 C98 C 0.93570 0.57311 0.58106
 N99 N 0.55170 0.03262 0.53191
 N100 N 0.57322 0.05505 0.54040
 N101 N 0.53297 -0.03780 0.55105
 N102 N 0.54046 -0.06045 0.57267
 N103 N 0.55673 -0.03488 0.52889
 N104 N 0.58097 -0.05538 0.53478
 N105 N 0.52775 0.02986 0.55388
 N106 N 0.53232 0.05040 0.57790
 C107 C 0.56060 0.06625 0.56894
 C108 C 0.57038 -0.07143 0.56196
 N109 N 0.43952 -0.04371 0.52554
 N110 N 0.41712 -0.06652 0.53150
 N111 N 0.45640 0.02463 0.55158
 N112 N 0.44775 0.04567 0.57417
 N113 N 0.43424 0.02384 0.52835
 N114 N 0.40984 0.04420 0.53457
 N115 N 0.46150 -0.04293 0.54896
 N116 N 0.45459 -0.06511 0.57142
 Mn117 Mn 0.49463 -0.00657 0.55168
 C118 C 0.42713 -0.07998 0.56000
 C119 C 0.41875 0.05787 0.56309
 N120 N 0.55961 -0.03109 0.45882
 N121 N 0.58338 -0.05231 0.45347
 N122 N 0.53282 0.03609 0.43819
 N123 N 0.53868 0.06009 0.41735
 N124 N 0.55451 0.03648 0.46185
 N125 N 0.57555 0.06076 0.45788
 N126 N 0.53785 -0.03159 0.43522
 N127 N 0.54633 -0.05317 0.41306
 Mn128 Mn 0.55591 0.00080 0.49534
 C129 C 0.57473 -0.06604 0.42493
 C130 C 0.56525 0.07548 0.43018
 N131 N 0.43730 0.02770 0.45809
 N132 N 0.41372 0.04915 0.45301
 N133 N 0.46620 -0.03677 0.43281
 N134 N 0.46105 -0.05663 0.40830
 N135 N 0.44244 -0.03988 0.45502
 N136 N 0.42063 -0.06194 0.44618
 N137 N 0.46118 0.03081 0.43605
 N138 N 0.45442 0.05447 0.41533
 Mn139 Mn 0.43808 -0.00808 0.49173
 Mn140 Mn 0.49954 -0.00034 0.43519
 Cl141 Cl 0.49701 -0.00358 0.49347
 C142 C 0.42480 0.06584 0.42638
 C143 C 0.43276 -0.07252 0.41719
 N144 N 0.56260 0.52799 0.02672
 N145 N 0.58783 0.54711 0.03348
 N146 N 0.53445 0.46264 0.05182
 N147 N 0.53865 0.44028 0.07463
 N148 N 0.55761 0.46041 0.02904
 N149 N 0.57804 0.43647 0.03555
 N150 N 0.53902 0.53042 0.04909
 N151 N 0.54763 0.55141 0.07160
 C152 C 0.57799 0.56194 0.06126
 C153 C 0.56580 0.42394 0.06393
 N154 N 0.44073 0.46714 0.02769
 N155 N 0.41707 0.44565 0.03392
 N156 N 0.46720 0.53459 0.04818
 N157 N 0.46053 0.55694 0.07014
 N158 N 0.44487 0.53499 0.02507
 N159 N 0.42254 0.55760 0.03066
 N160 N 0.46287 0.46690 0.05095
 N161 N 0.45477 0.44541 0.07376
 Mn162 Mn 0.50088 0.49870 0.05036
 C163 C 0.42629 0.43214 0.06266
 C164 C 0.43280 0.57140 0.05864
 N165 N 0.55967 0.45848 -0.04101
 N166 N 0.58106 0.43488 -0.04580
 N167 N 0.54200 0.52711 -0.06656
 N168 N 0.54927 0.55031 -0.08795
 N169 N 0.56424 0.52617 -0.04342
 N170 N 0.58721 0.54857 -0.04836
 N171 N 0.53752 0.45916 -0.06424
 N172 N 0.54329 0.43596 -0.08551
 Mn173 Mn 0.56129 0.49323 -0.00718
 C174 C 0.57039 0.42080 -0.07347
 C175 C 0.57755 0.56353 -0.07617
 N176 N 0.44684 0.53290 -0.04525
 N177 N 0.42542 0.55573 -0.05285
 N178 N 0.46593 0.46322 -0.06518
 N179 N 0.45813 0.44117 -0.08694
 N180 N 0.44249 0.46526 -0.04263
 N181 N 0.41814 0.44479 -0.04847
 N182 N 0.47037 0.53099 -0.06772
 N183 N 0.46555 0.55247 -0.09121
 Mn184 Mn 0.44344 0.50008 -0.00878
 Mn185 Mn 0.50399 0.49512 -0.06631
 Cl186 Cl 0.50237 0.49682 -0.00797
 C187 C 0.43759 0.56798 -0.08141
 C188 C 0.42836 0.42963 -0.07596
 C189 C 1.21103 0.19915 0.24426
 C190 C 1.19189 0.17744 0.22648
 C191 C 1.18585 0.18297 0.19317
 C192 C 1.19897 0.21116 0.17816
 C193 C 1.21815 0.23283 0.19601
 C194 C 1.22437 0.22689 0.22910
 C195 C 1.16466 0.15954 0.17561
 C196 C 1.16394 0.15709 0.14295
 C197 C 1.14128 0.13482 0.12575
 C198 C 1.13127 0.14308 0.09406
 C199 C 1.10888 0.12353 0.07741
 C200 C 1.09637 0.09502 0.09196
 C201 C 1.10730 0.08603 0.12318
 C202 C 1.12956 0.10572 0.13995
 H203 H 1.21541 0.19429 0.26989
 H204 H 1.18182 0.15618 0.23877
 H205 H 1.19400 0.21711 0.15294
 H206 H 1.22769 0.25442 0.18397
 H207 H 1.14890 0.14387 0.19050
 H208 H 1.17943 0.17275 0.12783
 H209 H 1.14021 0.16515 0.08243
 H210 H 1.10108 0.13095 0.05326
 H211 H 1.09829 0.06402 0.13484
 H212 H 1.13761 0.09793 0.16386
 C213 C 1.18798 0.73612 0.72200
 C214 C 1.16877 0.71819 0.70041
 C215 C 1.18195 0.69081 0.68502
 C216 C 1.21493 0.68181 0.69148
 C217 C 1.23411 0.69983 0.71295
 C218 C 1.22091 0.72725 0.72815
 C219 C 1.16106 0.67292 0.66169
 C220 C 1.16531 0.64151 0.65509
 C221 C 1.14344 0.62351 0.63281
 C222 C 1.13786 0.59047 0.63869
 C223 C 1.11631 0.57297 0.61901
 C224 C 1.10039 0.58806 0.59267
 C225 C 1.10704 0.62080 0.58588
 C226 C 1.12832 0.63843 0.60582
 H227 H 1.17702 0.75698 0.73347
 H228 H 1.14347 0.72569 0.69577
 H229 H 1.22631 0.66138 0.67949
 H230 H 1.25945 0.69242 0.71741
 H231 H 1.14033 0.68572 0.65107
 H232 H 1.18380 0.62777 0.66818
 H233 H 1.14955 0.57837 0.65909
 H234 H 1.11179 0.54769 0.62466
 H235 H 1.09525 0.63298 0.56559
 H236 H 1.13295 0.66363 0.59999
 C237 C 0.72430 0.22292 0.68301
 C238 C 0.70407 0.20645 0.66124
 C239 C 0.67993 0.18434 0.67272
 C240 C 0.67658 0.17893 0.70667
 C241 C 0.69674 0.19559 0.72841
 C242 C 0.72100 0.21732 0.71671
 C243 C 0.66009 0.16656 0.64839
 C244 C 0.63186 0.15042 0.65560
 C245 C 0.61334 0.13083 0.63162
 C246 C 0.58086 0.12067 0.63973
 C247 C 0.56328 0.10034 0.61898
 C248 C 0.57788 0.08977 0.58966
 C249 C 0.61006 0.10037 0.58114
 C250 C 0.62774 0.12046 0.60195
 H251 H 0.74227 0.24011 0.67331
 H252 H 0.70727 0.21106 0.63528
 H253 H 0.65902 0.16153 0.71669
 H254 H 0.69365 0.19124 0.75442
 H255 H 0.66912 0.16760 0.62341
 H256 H 0.62131 0.15169 0.68000
 H257 H 0.56920 0.12809 0.66247
 H258 H 0.53849 0.09248 0.62617
 H259 H 0.62204 0.09234 0.55879
 H260 H 0.65297 0.12671 0.59497
 C261 C 0.69859 0.73429 0.19933
 C262 C 0.67818 0.71725 0.17818
 C263 C 0.68051 0.68354 0.17607
 C264 C 0.70371 0.66711 0.19551
 C265 C 0.72375 0.68417 0.21708
 C266 C 0.72081 0.71778 0.21954
 C267 C 0.65737 0.66609 0.15470
 C268 C 0.66575 0.63884 0.13937
 C269 C 0.64239 0.62101 0.11856
 C270 C 0.65499 0.60383 0.09180
 C271 C 0.63380 0.58551 0.07253
 C272 C 0.59968 0.58342 0.08016
 C273 C 0.58697 0.60065 0.10690
 C274 C 0.60812 0.61943 0.12589
 H275 H 0.69636 0.76033 0.20059
 H276 H 0.66050 0.73039 0.16344
 H277 H 0.70574 0.64105 0.19479
 H278 H 0.74126 0.67099 0.23188
 H279 H 0.63326 0.67682 0.15044
 H280 H 0.69100 0.62995 0.14088
 H281 H 0.68133 0.60454 0.08586
 H282 H 0.64430 0.57229 0.05216
 H283 H 0.56079 0.59929 0.11338
 H284 H 0.59779 0.63181 0.14686
 C285 C 0.79786 -0.24659 0.20422
 C286 C 0.81813 -0.22743 0.18382
 C287 C 0.81384 -0.19377 0.18228
 C288 C 0.78830 -0.17977 0.20132
 C289 C 0.76819 -0.19899 0.22185
 C290 C 0.77309 -0.23246 0.22369
 C291 C 0.83578 -0.17457 0.15986
 C292 C 0.84009 -0.14246 0.16195
 C293 C 0.86302 -0.12359 0.14025
 C294 C 0.87453 -0.09349 0.15098
 C295 C 0.89669 -0.07513 0.13177
 C296 C 0.90770 -0.08642 0.10125
 C297 C 0.89553 -0.11609 0.08999
 C298 C 0.87330 -0.13446 0.10919
 H299 H 0.80151 -0.27252 0.20476
 H300 H 0.83723 -0.23897 0.16915
 H301 H 0.78311 -0.15419 0.19999
 H302 H 0.74837 -0.18765 0.23563
 H303 H 0.85015 -0.18793 0.14203
 H304 H 0.82801 -0.12940 0.18152
 H305 H 0.86675 -0.08433 0.17459
 H306 H 0.90551 -0.05226 0.14103
 H307 H 0.90332 -0.12520 0.06638
 H308 H 0.86411 -0.15692 0.09942
 C309 C 0.80153 0.25251 0.70376
 C310 C 0.82262 0.27209 0.68462
 C311 C 0.81981 0.30593 0.68528
 C312 C 0.79569 0.31973 0.70619
 C313 C 0.77475 0.30007 0.72545
 C314 C 0.77703 0.26636 0.72377
 C315 C 0.84151 0.32544 0.66286
 C316 C 0.84511 0.35767 0.66441
 C317 C 0.86671 0.37668 0.64157
 C318 C 0.87843 0.40696 0.65157
 C319 C 0.89917 0.42554 0.63109
 C320 C 0.90844 0.41433 0.60000
 C321 C 0.89599 0.38449 0.58951
 C322 C 0.87522 0.36586 0.61001
 H323 H 0.80378 0.22648 0.70230
 H324 H 0.84090 0.26071 0.66885
 H325 H 0.79207 0.34553 0.70736
 H326 H 0.75643 0.31140 0.74109
 H327 H 0.85574 0.31227 0.64477
 H328 H 0.83321 0.37088 0.68394
 H329 H 0.87192 0.41607 0.67554
 H330 H 0.90826 0.44854 0.63978
 H331 H 0.90248 0.37541 0.56553
 H332 H 0.86571 0.34327 0.60085
 C333 C 0.28087 -0.18978 0.73602
 C334 C 0.30209 -0.17087 0.71632
 C335 C 0.31766 -0.18406 0.68861
 C336 C 0.31229 -0.21681 0.68142
 C337 C 0.29132 -0.23573 0.70128
 C338 C 0.27517 -0.22228 0.72847
 C339 C 0.34034 -0.16351 0.66858
 C340 C 0.34569 -0.16810 0.63655
 C341 C 0.36784 -0.14682 0.61676
 C342 C 0.36032 -0.14070 0.58392
 C343 C 0.37998 -0.11944 0.56511
 C344 C 0.40787 -0.10445 0.57874
 C345 C 0.41626 -0.11174 0.61116
 C346 C 0.39641 -0.13268 0.63004
 H347 H 0.26942 -0.17904 0.75736
 H348 H 0.30627 -0.14583 0.72265
 H349 H 0.32483 -0.22809 0.66095
 H350 H 0.28805 -0.26094 0.69544
 H351 H 0.35156 -0.14288 0.68033
 H352 H 0.33181 -0.18653 0.62391
 H353 H 0.33866 -0.15169 0.57308
 H354 H 0.37310 -0.11438 0.54010
 H355 H 0.43777 -0.10073 0.62221
 H356 H 0.40349 -0.13777 0.65498
 C357 C 0.27040 0.31667 0.22712
 C358 C 0.29003 0.33712 0.20743
 C359 C 0.31257 0.32432 0.18460
 C360 C 0.31512 0.29060 0.18170
 C361 C 0.29589 0.27017 0.20183
 C362 C 0.27377 0.28301 0.22508
 C363 C 0.33422 0.34665 0.16549
 C364 C 0.34484 0.34050 0.13502
 C365 C 0.36646 0.36338 0.11657
 C366 C 0.36175 0.36791 0.08296
 C367 C 0.38128 0.39023 0.06530
 C368 C 0.40643 0.40771 0.08086
 C369 C 0.41193 0.40230 0.11426
 C370 C 0.39199 0.38049 0.13202
 H371 H 0.25285 0.32743 0.24393
 H372 H 0.28753 0.36304 0.20997
 H373 H 0.33261 0.27997 0.16461
 H374 H 0.29847 0.24436 0.19918
 H375 H 0.34039 0.36962 0.17645
 H376 H 0.33593 0.31925 0.12255
 H377 H 0.34243 0.35471 0.07053
 H378 H 0.37672 0.39382 0.03950
 H379 H 0.43124 0.41538 0.12681
 H380 H 0.39671 0.37684 0.15778
 C381 C 0.77004 0.17798 -0.23232
 C382 C 0.78851 0.15724 -0.21252
 C383 C 0.80906 0.16957 -0.18809
 C384 C 0.81140 0.20336 -0.18451
 C385 C 0.79284 0.22405 -0.20432
 C386 C 0.77172 0.21149 -0.22802
 C387 C 0.82846 0.14646 -0.16799
 C388 C 0.84151 0.15377 -0.13893
 C389 C 0.86172 0.13113 -0.11896
 C390 C 0.86900 0.13971 -0.08669
 C391 C 0.88940 0.12025 -0.06741
 C392 C 0.90301 0.09169 -0.07999
 C393 C 0.89534 0.08267 -0.11199
 C394 C 0.87512 0.10222 -0.13138
 H395 H 0.75465 0.16765 -0.25100
 H396 H 0.78664 0.13142 -0.21626
 H397 H 0.82788 0.21405 -0.16695
 H398 H 0.79496 0.24994 -0.20112
 H399 H 0.83082 0.12224 -0.17733
 H400 H 0.83675 0.17730 -0.12861
 H401 H 0.85920 0.16182 -0.07644
 H402 H 0.89493 0.12784 -0.04282
 H403 H 0.90571 0.06090 -0.12242
 H404 H 0.87104 0.09481 -0.15623
 C405 C 0.75254 0.69038 0.29522
 C406 C 0.77000 0.67002 0.31628
 C407 C 0.80427 0.67431 0.32061
 C408 C 0.82091 0.69909 0.30305
 C409 C 0.80349 0.71909 0.28156
 C410 C 0.76926 0.71464 0.27729
 C411 C 0.82222 0.65184 0.34246
 C412 C 0.84859 0.66095 0.35984
 C413 C 0.86730 0.63842 0.38101
 C414 C 0.88376 0.65062 0.40829
 C415 C 0.90332 0.63042 0.42766
 C416 C 0.90736 0.59772 0.41967
 C417 C 0.89070 0.58539 0.39253
 C418 C 0.87076 0.60549 0.37342
 H419 H 0.72600 0.68692 0.29260
 H420 H 0.75668 0.65106 0.32946
 H421 H 0.84745 0.70264 0.30537
 H422 H 0.81683 0.73805 0.26848
 H423 H 0.81245 0.62753 0.34530
 H424 H 0.85618 0.68611 0.35953
 H425 H 0.88166 0.67594 0.41449
 H426 H 0.91604 0.64063 0.44832
 H427 H 0.89353 0.56031 0.38573
 H428 H 0.85909 0.59545 0.35210
 C429 C 0.29805 0.20609 0.26050
 C430 C 0.32017 0.18655 0.27766
 C431 C 0.32432 0.19040 0.31139
 C432 C 0.30627 0.21477 0.32750
 C433 C 0.28408 0.23423 0.31029
 C434 C 0.27995 0.23020 0.27661
 C435 C 0.34761 0.16862 0.32864
 C436 C 0.34571 0.16236 0.36085
 C437 C 0.36733 0.13867 0.37761
 C438 C 0.35582 0.12447 0.40694
 C439 C 0.37473 0.10115 0.42301
 C440 C 0.40574 0.09173 0.41020
 C441 C 0.41786 0.10664 0.38144
 C442 C 0.39891 0.12998 0.36532
 H443 H 0.29461 0.20175 0.23476
 H444 H 0.33366 0.16795 0.26463
 H445 H 0.30933 0.21919 0.35328
 H446 H 0.27025 0.25227 0.32356
 H447 H 0.36538 0.15564 0.31368
 H448 H 0.32596 0.17301 0.37533
 H449 H 0.33178 0.13097 0.41714
 H450 H 0.36485 0.09022 0.44528
 H451 H 0.44187 0.10009 0.37124
 H452 H 0.40922 0.14120 0.34343
 C453 C 0.26029 0.69680 -0.20574
 C454 C 0.27977 0.67640 -0.18660
 C455 C 0.31391 0.68248 -0.18305
 C456 C 0.32818 0.70957 -0.19904
 C457 C 0.30865 0.72991 -0.21823
 C458 C 0.27461 0.72369 -0.22155
 C459 C 0.33318 0.66093 -0.16133
 C460 C 0.36644 0.65845 -0.16243
 C461 C 0.38496 0.63643 -0.14059
 C462 C 0.41572 0.62421 -0.15123
 C463 C 0.43326 0.60242 -0.13174
 C464 C 0.42045 0.59273 -0.10107
 C465 C 0.39034 0.60593 -0.08983
 C466 C 0.37280 0.62765 -0.10932
 H467 H 0.23394 0.69184 -0.20783
 H468 H 0.26807 0.65590 -0.17435
 H469 H 0.35410 0.71579 -0.19615
 H470 H 0.32011 0.75088 -0.22977
 H471 H 0.31905 0.64552 -0.14466
 H472 H 0.38062 0.67134 -0.18109
 H473 H 0.42584 0.63097 -0.17502
 H474 H 0.45654 0.59277 -0.14090
 H475 H 0.38010 0.59919 -0.06610
 H476 H 0.34985 0.63758 -0.09972
 C477 C 1.22553 -0.22884 -0.18195
 C478 C 1.20758 -0.20986 -0.15995
 C479 C 1.18748 -0.18451 -0.17110
 C480 C 1.18550 -0.17877 -0.20504
 C481 C 1.20362 -0.19777 -0.22703
 C482 C 1.22354 -0.22309 -0.21568
 C483 C 1.16835 -0.16567 -0.14654
 C484 C 1.15485 -0.13663 -0.15257
 C485 C 1.13486 -0.11809 -0.12834
 C486 C 1.12678 -0.08591 -0.13591
 C487 C 1.10655 -0.06788 -0.11493
 C488 C 1.09398 -0.08163 -0.08578
 C489 C 1.10247 -0.11355 -0.07774
 C490 C 1.12248 -0.13171 -0.09883
 H491 H 1.24095 -0.24792 -0.17233
 H492 H 1.20951 -0.21496 -0.13404
 H493 H 1.16973 -0.16010 -0.21492
 H494 H 1.20214 -0.19259 -0.25295
 H495 H 1.16646 -0.17611 -0.12229
 H496 H 1.15898 -0.12525 -0.17618
 H497 H 1.13578 -0.07475 -0.15842
 H498 H 1.10038 -0.04330 -0.12177
 H499 H 1.09287 -0.12484 -0.05554
 H500 H 1.12721 -0.15654 -0.09209
 C501 C 1.18807 0.27251 0.28301
 C502 C 1.16755 0.29003 0.30417
 C503 C 1.18082 0.31449 0.32363
 C504 C 1.21524 0.32054 0.32227
 C505 C 1.23583 0.30262 0.30151
 C506 C 1.22239 0.27864 0.28152
 C507 C 1.15832 0.33255 0.34570
 C508 C 1.16302 0.36376 0.35291
 C509 C 1.13946 0.38189 0.37385
 C510 C 1.13373 0.41471 0.36715
 C511 C 1.11080 0.43214 0.38594
 C512 C 1.09378 0.41719 0.41224
 C513 C 1.10037 0.38464 0.41964
 C514 C 1.12288 0.36710 0.40055
 H515 H 1.17694 0.25421 0.26793
 H516 H 1.14113 0.28478 0.30500
 H517 H 1.22636 0.33869 0.33760
 H518 H 1.26230 0.30759 0.30093
 H519 H 1.13602 0.32029 0.35448
 H520 H 1.18333 0.37705 0.34136
 H521 H 1.14649 0.42668 0.34689
 H522 H 1.10634 0.45727 0.37986
 H523 H 1.08774 0.37256 0.43990
 H524 H 1.12746 0.34206 0.40687
 C525 C 0.68257 -0.23962 0.27515
 C526 C 0.66147 -0.22046 0.29410
 C527 C 0.67443 -0.19641 0.31429
 C528 C 0.70921 -0.19217 0.31539
 C529 C 0.73028 -0.21150 0.29650
 C530 C 0.71706 -0.23476 0.27568
 C531 C 0.65080 -0.17543 0.33233
 C532 C 0.65923 -0.15742 0.35801
 C533 C 0.63593 -0.13533 0.37503
 C534 C 0.64384 -0.12504 0.40655
 C535 C 0.62360 -0.10298 0.42296
 C536 C 0.59503 -0.09059 0.40809
 C537 C 0.58683 -0.10098 0.37668
 C538 C 0.60716 -0.12299 0.36018
 H539 H 0.67172 -0.25814 0.26016
 H540 H 0.63486 -0.22437 0.29285
 H541 H 0.72035 -0.17349 0.32996
 H542 H 0.75692 -0.20769 0.29748
 H543 H 0.62525 -0.17567 0.32441
 H544 H 0.68398 -0.15938 0.36782
 H545 H 0.66593 -0.13394 0.41848
 H546 H 0.63055 -0.09536 0.44717
 H547 H 0.56510 -0.09157 0.36455
 H548 H 0.60064 -0.12941 0.33554
 C549 C 0.69587 0.28507 -0.24429
 C550 C 0.67300 0.30299 -0.22606
 C551 C 0.67057 0.29910 -0.19198
 C552 C 0.69098 0.27601 -0.17665
 C553 C 0.71406 0.25829 -0.19494
 C554 C 0.71702 0.26313 -0.22877
 C555 C 0.64656 0.31959 -0.17373
 C556 C 0.64752 0.32425 -0.14135
 C557 C 0.62577 0.34741 -0.12378
 C558 C 0.63623 0.35893 -0.09346
 C559 C 0.61777 0.38219 -0.07678
 C560 C 0.58828 0.39436 -0.09001
 C561 C 0.57696 0.38197 -0.11968
 C562 C 0.59542 0.35858 -0.13638
 H563 H 0.69725 0.28854 -0.27054
 H564 H 0.65735 0.32020 -0.23863
 H565 H 0.68914 0.27112 -0.15071
 H566 H 0.72926 0.24065 -0.18255
 H567 H 0.62899 0.33310 -0.18818
 H568 H 0.66671 0.31279 -0.12717
 H569 H 0.65926 0.35050 -0.08298
 H570 H 0.62699 0.39112 -0.05381
 H571 H 0.55406 0.39064 -0.13020
 H572 H 0.58574 0.34947 -0.15902
 C573 C 1.19903 0.20424 -0.24280
 C574 C 1.17849 0.18363 -0.22415
 C575 C 1.18421 0.17874 -0.19068
 C576 C 1.21129 0.19470 -0.17636
 C577 C 1.23171 0.21537 -0.19503
 C578 C 1.22587 0.22009 -0.22839
 C579 C 1.16200 0.15631 -0.17192
 C580 C 1.15847 0.15685 -0.13926
 C581 C 1.13559 0.13516 -0.12047
 C582 C 1.12492 0.14473 -0.08924
 C583 C 1.10304 0.12540 -0.07073
 C584 C 1.09154 0.09586 -0.08296
 C585 C 1.10283 0.08576 -0.11383
 C586 C 1.12471 0.10515 -0.13241
 H587 H 1.19409 0.20767 -0.26854
 H588 H 1.15798 0.17156 -0.23589
 H589 H 1.21733 0.19093 -0.15096
 H590 H 1.25225 0.22728 -0.18329
 H591 H 1.14685 0.13995 -0.18590
 H592 H 1.17131 0.17517 -0.12553
 H593 H 1.13318 0.16751 -0.07928
 H594 H 1.09491 0.13374 -0.04694
 H595 H 1.09459 0.06295 -0.12372
 H596 H 1.13323 0.09634 -0.15585
 C597 C 1.22805 0.68536 0.25893
 C598 C 1.20804 0.66426 0.27756
 C599 C 1.18805 0.67577 0.30327
 C600 C 1.18791 0.70921 0.30945
 C601 C 1.20796 0.73031 0.29082
 C602 C 1.22820 0.71868 0.26530
 C603 C 1.16734 0.65224 0.32238
 C604 C 1.15564 0.65786 0.35271
 C605 C 1.13481 0.63479 0.37238
 C606 C 1.12840 0.64203 0.40534
 C607 C 1.10787 0.62211 0.42472
 C608 C 1.09320 0.59435 0.41162
 C609 C 1.09990 0.58665 0.37885
 C610 C 1.12031 0.60669 0.35934
 H611 H 1.24343 0.67522 0.23979
 H612 H 1.20852 0.63870 0.27208
 H613 H 1.17217 0.71936 0.32833
 H614 H 1.20776 0.75582 0.29659
 H615 H 1.16303 0.62907 0.31124
 H616 H 1.16226 0.68025 0.36445
 H617 H 1.13907 0.66344 0.41613
 H618 H 1.10316 0.62870 0.44991
 H619 H 1.08872 0.56550 0.36804
 H620 H 1.12385 0.60024 0.33403
 C621 C 0.69607 0.21376 0.26300
 C622 C 0.67400 0.19454 0.28126
 C623 C 0.67381 0.19537 0.31554
 C624 C 0.69655 0.21596 0.33119
 C625 C 0.71868 0.23525 0.31277
 C626 C 0.71871 0.23402 0.27860
 C627 C 0.65017 0.17367 0.33341
 C628 C 0.64369 0.17479 0.36562
 C629 C 0.62151 0.15104 0.38237
 C630 C 0.62834 0.14201 0.41467
 C631 C 0.60949 0.11796 0.43048
 C632 C 0.58310 0.10282 0.41441
 C633 C 0.57513 0.11299 0.38267
 C634 C 0.59415 0.13690 0.36675
 H635 H 0.69546 0.21280 0.23657
 H636 H 0.65690 0.17897 0.26848
 H637 H 0.69782 0.21717 0.35748
 H638 H 0.73561 0.25107 0.32533
 H639 H 0.63796 0.15535 0.31910
 H640 H 0.65619 0.19212 0.38078
 H641 H 0.64900 0.15283 0.42734
 H642 H 0.61600 0.11079 0.45509
 H643 H 0.55468 0.10197 0.36986
 H644 H 0.58743 0.14416 0.34226
 C645 C 0.70105 0.71341 -0.24059
 C646 C 0.67902 0.69344 -0.22311
 C647 C 0.67777 0.69405 -0.18883
 C648 C 0.69862 0.71588 -0.17242
 C649 C 0.72084 0.73577 -0.19003
 C650 C 0.72249 0.73428 -0.22418
 C651 C 0.65428 0.67169 -0.17162
 C652 C 0.65626 0.66372 -0.13985
 C653 C 0.63457 0.63908 -0.12362
 C654 C 0.64560 0.62457 -0.09463
 C655 C 0.62683 0.60034 -0.07907
 C656 C 0.59647 0.59013 -0.09211
 C657 C 0.58481 0.60521 -0.12056
 C658 C 0.60355 0.62959 -0.13611
 H659 H 0.70152 0.71241 -0.26704
 H660 H 0.66305 0.67723 -0.23646
 H661 H 0.69769 0.71812 -0.14615
 H662 H 0.73641 0.75243 -0.17690
 H663 H 0.63608 0.65973 -0.18654
 H664 H 0.67609 0.67364 -0.12542
 H665 H 0.66917 0.63158 -0.08427
 H666 H 0.63635 0.58930 -0.05702
 H667 H 0.56126 0.59810 -0.13087
 H668 H 0.59346 0.64093 -0.15769
 C669 C 0.77345 -0.17813 -0.22656
 C670 C 0.79215 -0.15754 -0.20709
 C671 C 0.81386 -0.17003 -0.18359
 C672 C 0.81695 -0.20387 -0.18053
 C673 C 0.79811 -0.22446 -0.20004
 C674 C 0.77595 -0.21173 -0.22288
 C675 C 0.83347 -0.14684 -0.16398
 C676 C 0.84892 -0.15457 -0.13609
 C677 C 0.86880 -0.13130 -0.11674
 C678 C 0.87737 -0.13990 -0.08465
 C679 C 0.89717 -0.11952 -0.06591
 C680 C 0.90889 -0.09000 -0.07886
 C681 C 0.90011 -0.08110 -0.11077
 C682 C 0.88050 -0.10156 -0.12962
 H683 H 0.75728 -0.16757 -0.24459
 H684 H 0.78961 -0.13166 -0.21043
 H685 H 0.83418 -0.21468 -0.16364
 H686 H 0.80087 -0.25038 -0.19734
 H687 H 0.83390 -0.12207 -0.17259
 H688 H 0.84628 -0.17876 -0.12614
 H689 H 0.86894 -0.16266 -0.07409
 H690 H 0.90361 -0.12707 -0.04140
 H691 H 0.90908 -0.05863 -0.12153
 H692 H 0.87550 -0.09415 -0.15444
 C693 C 0.76855 0.32213 0.27277
 C694 C 0.78749 0.34360 0.29100
 C695 C 0.81005 0.33213 0.31420
 C696 C 0.81388 0.29845 0.31815
 C697 C 0.79485 0.27697 0.29983
 C698 C 0.77175 0.28867 0.27736
 C699 C 0.82973 0.35608 0.33272
 C700 C 0.84397 0.34951 0.36148
 C701 C 0.86371 0.37322 0.38034
 C702 C 0.87101 0.36570 0.41297
 C703 C 0.89092 0.38619 0.43137
 C704 C 0.90408 0.41477 0.41756
 C705 C 0.89638 0.42278 0.38514
 C706 C 0.87658 0.40216 0.36660
 H707 H 0.75162 0.33191 0.25498
 H708 H 0.78441 0.36933 0.28703
 H709 H 0.83187 0.28851 0.33481
 H710 H 0.79822 0.25119 0.30314
 H711 H 0.83099 0.38034 0.32273
 H712 H 0.84024 0.32591 0.37257
 H713 H 0.86160 0.34362 0.42422
 H714 H 0.89645 0.37936 0.45632
 H715 H 0.90646 0.44452 0.37378
 H716 H 0.87240 0.40871 0.34138
 C717 C 0.28568 -0.24390 0.30202
 C718 C 0.30454 -0.22600 0.32390
 C719 C 0.31598 -0.19492 0.31545
 C720 C 0.30737 -0.18169 0.28493
 C721 C 0.28827 -0.19949 0.26315
 C722 C 0.27720 -0.23077 0.27148
 C723 C 0.33593 -0.17668 0.33930
 C724 C 0.35858 -0.15427 0.33036
 C725 C 0.37822 -0.13535 0.35396
 C726 C 0.40837 -0.12124 0.34338
 C727 C 0.42667 -0.10162 0.36425
 C728 C 0.41496 -0.09540 0.39604
 C729 C 0.38501 -0.10979 0.40683
 C730 C 0.36677 -0.12950 0.38602
 H731 H 0.27814 -0.26819 0.30899
 H732 H 0.31070 -0.23668 0.34730
 H733 H 0.31495 -0.15744 0.27795
 H734 H 0.28247 -0.18863 0.23980
 H735 H 0.33284 -0.18318 0.36484
 H736 H 0.36391 -0.15021 0.30463
 H737 H 0.41764 -0.12517 0.31876
 H738 H 0.44960 -0.09076 0.35522
 H739 H 0.37527 -0.10523 0.43115
 H740 H 0.34323 -0.13914 0.39484
 C741 C 0.30911 0.25380 -0.21285
 C742 C 0.33166 0.27086 -0.19379
 C743 C 0.32739 0.30404 -0.18849
 C744 C 0.30070 0.32006 -0.20337
 C745 C 0.27845 0.30307 -0.22274
 C746 C 0.28232 0.26979 -0.22734
 C747 C 0.35154 0.32167 -0.16831
 C748 C 0.34242 0.34652 -0.14952
 C749 C 0.36593 0.36537 -0.12974
 C750 C 0.35377 0.38095 -0.10179
 C751 C 0.37446 0.40095 -0.08373
 C752 C 0.40762 0.40626 -0.09365
 C753 C 0.42003 0.39037 -0.12140
 C754 C 0.39939 0.37001 -0.13929
 H755 H 0.31269 0.22814 -0.21646
 H756 H 0.35226 0.25811 -0.18288
 H757 H 0.29735 0.34584 -0.20063
 H758 H 0.25843 0.31614 -0.23412
 H759 H 0.37692 0.31302 -0.16784
 H760 H 0.31633 0.35278 -0.14758
 H761 H 0.32805 0.37790 -0.09408
 H762 H 0.36418 0.41294 -0.06248
 H763 H 0.44548 0.39417 -0.12963
 H764 H 0.40933 0.35895 -0.16118
 C765 C 1.24800 -0.21446 0.18921
 C766 C 1.23048 -0.19424 0.16803
 C767 C 1.19692 -0.18715 0.17418
 C768 C 1.18091 -0.20146 0.20150
 C769 C 1.19830 -0.22208 0.22242
 C770 C 1.23213 -0.22866 0.21666
 C771 C 1.17896 -0.16572 0.15122
 C772 C 1.15447 -0.14599 0.16102
 C773 C 1.13594 -0.12453 0.13852
 C774 C 1.12162 -0.09624 0.15093
 C775 C 1.10217 -0.07639 0.13111
 C776 C 1.09608 -0.08476 0.09855
 C777 C 1.11066 -0.11290 0.08593
 C778 C 1.13049 -0.13258 0.10567
 H779 H 1.27407 -0.21892 0.18403
 H780 H 1.24330 -0.18373 0.14700
 H781 H 1.15477 -0.19726 0.20642
 H782 H 1.18495 -0.23272 0.24293
 H783 H 1.18738 -0.16504 0.12597
 H784 H 1.14850 -0.14441 0.18686
 H785 H 1.12527 -0.08960 0.17617
 H786 H 1.09115 -0.05494 0.14158
 H787 H 1.10623 -0.12002 0.06097
 H788 H 1.14048 -0.15460 0.09549
 C789 C 1.20130 0.29216 0.73902
 C790 C 1.18169 0.31421 0.72187
 C791 C 1.18702 0.31967 0.68826
 C792 C 1.21273 0.30270 0.67224
 C793 C 1.23217 0.28056 0.68940
 C794 C 1.22675 0.27534 0.72292
 C795 C 1.16586 0.34366 0.67118
 C796 C 1.16203 0.34452 0.63864
 C797 C 1.13990 0.36760 0.62159
 C798 C 1.12849 0.35950 0.59047
 C799 C 1.10700 0.37999 0.57368
 C800 C 1.09663 0.40924 0.58754
 C801 C 1.10880 0.41796 0.61823
 C802 C 1.13030 0.39740 0.63511
 H803 H 1.19676 0.28843 0.76494
 H804 H 1.16225 0.32701 0.73491
 H805 H 1.21850 0.30678 0.64666
 H806 H 1.25170 0.26797 0.67639
 H807 H 1.15167 0.36003 0.68633
 H808 H 1.17385 0.32634 0.62371
 H809 H 1.13577 0.33692 0.57930
 H810 H 1.09818 0.37270 0.54997
 H811 H 1.10143 0.44052 0.62936
 H812 H 1.13946 0.40510 0.65851
 C813 C 0.69841 -0.19642 0.73890
 C814 C 0.67594 -0.17957 0.71950
 C815 C 0.67701 -0.18233 0.68532
 C816 C 0.70089 -0.20292 0.67102
 C817 C 0.72354 -0.21957 0.69051
 C818 C 0.72264 -0.21614 0.72452
 C819 C 0.65253 -0.16370 0.66597
 C820 C 0.65512 -0.15854 0.63360
 C821 C 0.63185 -0.13780 0.61507
 C822 C 0.64288 -0.12426 0.58525
 C823 C 0.62258 -0.10329 0.56767
 C824 C 0.59067 -0.09551 0.57945
 C825 C 0.57901 -0.10996 0.60862
 C826 C 0.59931 -0.13104 0.62622
 H827 H 0.69688 -0.19405 0.76521
 H828 H 0.65766 -0.16426 0.73127
 H829 H 0.70200 -0.20684 0.64498
 H830 H 0.74127 -0.23550 0.67890
 H831 H 0.63264 -0.15223 0.67957
 H832 H 0.67635 -0.16772 0.62020
 H833 H 0.66763 -0.12934 0.57588
 H834 H 0.63215 -0.09268 0.54512
 H835 H 0.55433 -0.10470 0.61803
 H836 H 0.58932 -0.14194 0.64840
 C837 C 0.69240 0.30113 0.24155
 C838 C 0.66957 0.31793 0.22256
 C839 C 0.67104 0.31628 0.18833
 C840 C 0.69620 0.29762 0.17347
 C841 C 0.71903 0.28079 0.19256
 C842 C 0.71741 0.28270 0.22668
 C843 C 0.64695 0.33561 0.16936
 C844 C 0.64030 0.33069 0.13779
 C845 C 0.61874 0.35257 0.11884
 C846 C 0.62620 0.35786 0.08566
 C847 C 0.60834 0.38049 0.06759
 C848 C 0.58227 0.39785 0.08226
 C849 C 0.57351 0.39128 0.11498
 C850 C 0.59162 0.36885 0.13318
 H851 H 0.69060 0.30260 0.26793
 H852 H 0.65064 0.33223 0.23466
 H853 H 0.69893 0.29631 0.14721
 H854 H 0.73786 0.26642 0.18052
 H855 H 0.63474 0.35522 0.18203
 H856 H 0.65252 0.31150 0.12456
 H857 H 0.64672 0.34532 0.07400
 H858 H 0.61539 0.38486 0.04228
 H859 H 0.55329 0.40412 0.12676
 H860 H 0.58450 0.36447 0.15844
 C861 C 0.79853 0.24965 0.20675
 C862 C 0.81919 0.23094 0.18675
 C863 C 0.81739 0.19700 0.18787
 C864 C 0.79444 0.18222 0.20974
 C865 C 0.77400 0.20098 0.22983
 C866 C 0.77547 0.23478 0.22806
 C867 C 0.83891 0.17823 0.16510
 C868 C 0.84438 0.14631 0.16800
 C869 C 0.86577 0.12761 0.14517
 C870 C 0.87800 0.09758 0.15570
 C871 C 0.89844 0.07914 0.13528
 C872 C 0.90698 0.09028 0.10375
 C873 C 0.89412 0.11990 0.09278
 C874 C 0.87360 0.13835 0.11319
 H875 H 0.80016 0.27576 0.20519
 H876 H 0.83650 0.24306 0.17017
 H877 H 0.79144 0.15630 0.21112
 H878 H 0.75676 0.18882 0.24635
 H879 H 0.85146 0.19175 0.14580
 H880 H 0.83413 0.13315 0.18876
 H881 H 0.87208 0.08850 0.18002
 H882 H 0.90789 0.05634 0.14438
 H883 H 0.90005 0.12892 0.06845
 H884 H 0.86377 0.16073 0.10359
 C885 C 0.80330 0.75088 0.70530
 C886 C 0.82431 0.73243 0.68541
 C887 C 0.82307 0.69846 0.68662
 C888 C 0.80035 0.68342 0.70854
 C889 C 0.77955 0.70192 0.72853
 C890 C 0.78043 0.73574 0.72662
 C891 C 0.84489 0.67996 0.66389
 C892 C 0.85059 0.64806 0.66664
 C893 C 0.87208 0.62950 0.64375
 C894 C 0.88372 0.59912 0.65394
 C895 C 0.90398 0.58063 0.63341
 C896 C 0.91297 0.59205 0.60209
 C897 C 0.90083 0.62210 0.59150
 C898 C 0.88046 0.64060 0.61202
 H899 H 0.80448 0.77700 0.70363
 H900 H 0.84144 0.74476 0.66880
 H901 H 0.79777 0.65746 0.71006
 H902 H 0.76255 0.68956 0.74512
 H903 H 0.85738 0.69366 0.64468
 H904 H 0.84031 0.63473 0.68727
 H905 H 0.87739 0.58976 0.67805
 H906 H 0.91287 0.55751 0.64222
 H907 H 0.90713 0.63137 0.56735
 H908 H 0.87115 0.66329 0.60265
 C909 C 0.30710 0.23746 0.70222
 C910 C 0.32798 0.21940 0.68189
 C911 C 0.32148 0.18653 0.67668
 C912 C 0.29411 0.17185 0.69276
 C913 C 0.27353 0.18983 0.71341
 C914 C 0.27976 0.22279 0.71809
 C915 C 0.34445 0.16777 0.65573
 C916 C 0.33421 0.14276 0.63788
 C917 C 0.35707 0.12292 0.61789
 C918 C 0.34477 0.10748 0.59018
 C919 C 0.36514 0.08704 0.57180
 C920 C 0.39802 0.08117 0.58122
 C921 C 0.41044 0.09670 0.60887
 C922 C 0.39019 0.11746 0.62703
 H923 H 0.31249 0.26284 0.70582
 H924 H 0.34913 0.23112 0.67007
 H925 H 0.28905 0.14630 0.69008
 H926 H 0.25300 0.17777 0.72580
 H927 H 0.37015 0.17563 0.65409
 H928 H 0.30790 0.13712 0.63695
 H929 H 0.31927 0.11112 0.58283
 H930 H 0.35488 0.07526 0.55066
 H931 H 0.43567 0.09247 0.61674
 H932 H 0.40020 0.12832 0.64876
 C933 C 0.31684 0.71960 0.22910
 C934 C 0.33912 0.70143 0.21039
 C935 C 0.32902 0.68704 0.18126
 C936 C 0.29583 0.69076 0.17142
 C937 C 0.27346 0.70875 0.19026
 C938 C 0.28374 0.72337 0.21928
 C939 C 0.35318 0.66693 0.16292
 C940 C 0.35147 0.66199 0.13062
 C941 C 0.37415 0.64028 0.11217
 C942 C 0.36416 0.62957 0.08137
 C943 C 0.38363 0.60781 0.06366
 C944 C 0.41370 0.59637 0.07630
 C945 C 0.42445 0.60792 0.10652
 C946 C 0.40498 0.62975 0.12427
 H947 H 0.32571 0.73024 0.25140
 H948 H 0.36442 0.69863 0.21870
 H949 H 0.28675 0.67911 0.14973
 H950 H 0.24797 0.71091 0.18230
 H951 H 0.37285 0.65603 0.17690
 H952 H 0.33185 0.67349 0.11697
 H953 H 0.34077 0.63748 0.07126
 H954 H 0.37478 0.59948 0.04032
 H955 H 0.44771 0.59976 0.11667
 H956 H 0.41434 0.63818 0.14729
   
