data_POSCAR
  _audit_creation_date              2014-09-24
  _audit_creation_method            'ToBaCCo'
  _symmetry_space_group_name_H-M    'P1'
  _symmetry_Int_Tables_number       1
  _symmetry_cell_setting            triclinic
  loop_
  _symmetry_equiv_pos_as_xyz
 x,y,z
_cell_length_a 48.0481
_cell_length_b 47.3920
_cell_length_c 48.0477
_cell_angle_alpha 89.815000
_cell_angle_beta 90.015800
_cell_angle_gamma 89.999300
loop_
  _atom_site_label
  _atom_site_type_symbol
  _atom_site_fract_x
  _atom_site_fract_y
  _atom_site_fract_z
C1 C 0.60464 0.64479 0.62532
 N2 N 0.60482 0.62468 0.64549
 C3 C 0.62494 0.60459 0.64567
 N4 N 0.64489 0.60462 0.62568
 C5 C 0.64471 0.62472 0.60551
 N6 N 0.62459 0.64481 0.60533
 C7 C 0.89588 0.35462 0.12538
 N8 N 0.89572 0.37467 0.14547
 C9 C 0.87558 0.39474 0.14562
 N10 N 0.85558 0.39475 0.12567
 C11 C 0.85573 0.37470 0.10557
 N12 N 0.87588 0.35464 0.10542
 C13 C 0.39491 0.14490 -0.12508
 N14 N 0.39471 0.12488 -0.14521
 C15 C 0.37453 0.10486 -0.14540
 N16 N 0.35455 0.10484 -0.12544
 C17 C 0.35475 0.12485 -0.10531
 N18 N 0.37493 0.14488 -0.10513
 C19 C 0.10368 0.85472 0.37453
 N20 N 0.12364 0.85471 0.39452
 C21 C 0.14372 0.87484 0.39438
 N22 N 0.14385 0.89498 0.37424
 C23 C 0.12389 0.89500 0.35424
 N24 N 0.10381 0.87486 0.35439
 N25 N 0.09264 0.17040 0.11311
 N26 N 0.08205 0.15917 0.13584
 C27 C 0.05949 0.17415 0.14351
 C28 C 0.05597 0.19575 0.12457
 C29 C 0.07723 0.19289 0.10556
 H30 H 0.04659 0.16974 0.16143
 H31 H 0.08115 0.20615 0.08762
 Cu32 Cu 0.09875 0.12607 0.15313
 Cu33 Cu 0.12554 0.15505 0.09501
 Cu34 Cu 0.15508 0.09538 0.12473
 N35 N 0.11520 0.09222 0.16918
 N36 N 0.13724 0.08032 0.15797
 C37 C 0.14431 0.05741 0.17304
 C38 C 0.12569 0.05495 0.19471
 C39 C 0.10749 0.07723 0.19179
 H40 H 0.16165 0.04359 0.16859
 H41 H 0.09001 0.08207 0.20512
 N42 N 0.17012 0.11372 0.09108
 N43 N 0.15887 0.13645 0.07976
 C44 C 0.17382 0.14391 0.05718
 C45 C 0.19534 0.12496 0.05432
 C46 C 0.19253 0.10611 0.07600
 H47 H 0.16947 0.16176 0.04380
 H48 H 0.20586 0.08826 0.08041
 H49 H 0.11967 0.11400 0.10850
 H50 H 0.14279 0.13680 0.13013
 N51 N 0.40714 0.83057 0.61187
 N52 N 0.41834 0.84241 0.63393
 C53 C 0.44097 0.82750 0.64163
 C54 C 0.44392 0.80532 0.62339
 C55 C 0.42224 0.80777 0.60477
 H56 H 0.45429 0.83231 0.65912
 H57 H 0.41780 0.79401 0.58741
 Cu58 Cu 0.40223 0.87610 0.65044
 Cu59 Cu 0.37386 0.84555 0.59405
 Cu60 Cu 0.34404 0.90491 0.62369
 N61 N 0.38488 0.90902 0.66719
 N62 N 0.36213 0.92019 0.65662
 C63 C 0.35455 0.94257 0.67207
 C64 C 0.37357 0.94543 0.69333
 C65 C 0.39254 0.92394 0.68977
 H66 H 0.33659 0.95576 0.66816
 H67 H 0.41049 0.91957 0.70266
 N68 N 0.32881 0.88641 0.59033
 N69 N 0.34017 0.86379 0.57904
 C70 C 0.32509 0.85622 0.55661
 C71 C 0.30338 0.87497 0.55383
 C72 C 0.30621 0.89382 0.57539
 H73 H 0.32953 0.83846 0.54326
 H74 H 0.29280 0.91158 0.57977
 H75 H 0.37919 0.88693 0.60642
 H76 H 0.35761 0.86390 0.62950
 N77 N 0.90783 0.66954 0.38791
 N78 N 0.91905 0.65771 0.36587
 C79 C 0.94162 0.67270 0.35815
 C80 C 0.94451 0.69491 0.37636
 C81 C 0.92285 0.69241 0.39498
 H82 H 0.95495 0.66790 0.34066
 H83 H 0.91838 0.70618 0.41233
 Cu84 Cu 0.90305 0.62394 0.34941
 Cu85 Cu 0.87461 0.65447 0.40577
 Cu86 Cu 0.84499 0.59495 0.37622
 N87 N 0.88581 0.59092 0.33272
 N88 N 0.86310 0.57969 0.34331
 C89 C 0.85559 0.55726 0.32790
 C90 C 0.87460 0.55444 0.30664
 C91 C 0.89350 0.57600 0.31015
 H92 H 0.83768 0.54401 0.33184
 H93 H 0.91142 0.58042 0.29724
 N94 N 0.82972 0.61345 0.40956
 N95 N 0.84101 0.63613 0.42082
 C96 C 0.82592 0.64368 0.44323
 C97 C 0.80428 0.62485 0.44605
 C98 C 0.80716 0.60597 0.42452
 H99 H 0.83030 0.66147 0.45656
 H100 H 0.79381 0.58815 0.42017
 H101 H 0.88009 0.61309 0.39346
 H102 H 0.85841 0.63600 0.37035
 N103 N 0.59331 0.32972 -0.11274
 N104 N 0.58275 0.34095 -0.13548
 C105 C 0.56014 0.32604 -0.14314
 C106 C 0.55655 0.30447 -0.12417
 C107 C 0.57782 0.30729 -0.10516
 H108 H 0.54724 0.33045 -0.16108
 H109 H 0.58172 0.29405 -0.08720
 Cu110 Cu 0.59955 0.37396 -0.15283
 Cu111 Cu 0.62628 0.34498 -0.09466
 Cu112 Cu 0.65601 0.40449 -0.12448
 N113 N 0.61612 0.40772 -0.16894
 N114 N 0.63820 0.41955 -0.15775
 C115 C 0.64534 0.44242 -0.17285
 C116 C 0.62672 0.44491 -0.19453
 C117 C 0.60844 0.42270 -0.19157
 H118 H 0.66273 0.45619 -0.16843
 H119 H 0.59093 0.41791 -0.20488
 N120 N 0.67101 0.38615 -0.09081
 N121 N 0.65968 0.36347 -0.07944
 C122 C 0.67462 0.35600 -0.05685
 C123 C 0.69621 0.37487 -0.05403
 C124 C 0.69346 0.39369 -0.07574
 H125 H 0.67021 0.33818 -0.04345
 H126 H 0.70684 0.41149 -0.08017
 H127 H 0.62054 0.38603 -0.10822
 H128 H 0.64356 0.36311 -0.12981
 C129 C -0.00965 0.27805 0.10148
 C130 C -0.04134 0.27212 0.10273
 C131 C -0.04428 0.29511 0.12501
 C132 C -0.01293 0.30136 0.12377
 C133 C -0.00516 0.25628 0.12482
 C134 C -0.00810 0.27927 0.14711
 C135 C -0.03651 0.25002 0.12606
 C136 C -0.03979 0.27334 0.14835
 C137 C -0.06605 0.31674 0.12513
 C138 C -0.08396 0.33455 0.12524
 C139 C 0.01663 0.23467 0.12473
 C140 C 0.03458 0.21691 0.12465
 H141 H 0.00298 0.27974 0.08221
 H142 H -0.05525 0.26943 0.08448
 H143 H -0.00347 0.32272 0.12283
 H144 H 0.00581 0.28196 0.16536
 H145 H -0.04597 0.22867 0.12701
 H146 H -0.05242 0.27165 0.16762
 C147 C 0.51530 0.72898 0.59827
 C148 C 0.54560 0.73344 0.60838
 C149 C 0.54377 0.70556 0.62470
 C150 C 0.51381 0.70078 0.61458
 C151 C 0.50478 0.74451 0.62423
 C152 C 0.50295 0.71664 0.64055
 C153 C 0.53474 0.74930 0.63435
 C154 C 0.53325 0.72109 0.65067
 C155 C 0.56549 0.68387 0.62494
 C156 C 0.58336 0.66603 0.62512
 C157 C 0.48306 0.76621 0.62395
 C158 C 0.46520 0.78405 0.62371
 H159 H 0.50768 0.73247 0.57671
 H160 H 0.56338 0.74010 0.59516
 H161 H 0.50544 0.68058 0.60646
 H162 H 0.48517 0.70998 0.65377
 H163 H 0.54310 0.76950 0.64247
 H164 H 0.54087 0.71761 0.67222
 C165 C 1.00668 0.78025 0.35437
 C166 C 1.01285 0.80089 0.37855
 C167 C 1.04409 0.79495 0.37506
 C168 C 1.03826 0.77465 0.35088
 C169 C 1.00520 0.75589 0.37550
 C170 C 1.03644 0.74995 0.37201
 C171 C 1.01103 0.77619 0.39967
 C172 C 1.04260 0.77058 0.39618
 C173 C 1.06575 0.81669 0.37484
 C174 C 1.08358 0.83458 0.37468
 C175 C 0.98354 0.73413 0.37577
 C176 C 0.96573 0.71624 0.37602
 H177 H 0.99167 0.78398 0.33719
 H178 H 1.00339 0.82207 0.38123
 H179 H 1.04969 0.77426 0.33081
 H180 H 1.04589 0.72876 0.36932
 H181 H 0.99959 0.77658 0.41974
 H182 H 1.05762 0.76685 0.41337
 C183 C 0.46819 0.24615 -0.14135
 C184 C 0.47218 0.21511 -0.15054
 C185 C 0.45603 0.20541 -0.12462
 C186 C 0.45171 0.23612 -0.11544
 C187 C 0.49525 0.24412 -0.12441
 C188 C 0.47911 0.23442 -0.09850
 C189 C 0.49957 0.21341 -0.13360
 C190 C 0.48309 0.20338 -0.10769
 C191 C 0.43420 0.18383 -0.12476
 C192 C 0.41626 0.16606 -0.12489
 C193 C 0.51711 0.26567 -0.12431
 C194 C 0.53510 0.28338 -0.12424
 H195 H 0.46231 0.26398 -0.15519
 H196 H 0.46908 0.20692 -0.17194
 H197 H 0.43178 0.24521 -0.10797
 H198 H 0.48220 0.24260 -0.07710
 H199 H 0.51950 0.20431 -0.14107
 H200 H 0.48897 0.18555 -0.09385
 C201 C 0.12164 -0.00015 0.28678
 C202 C 0.10033 -0.02461 0.28882
 C203 C 0.12440 -0.04519 0.29450
 C204 C 0.14569 -0.02106 0.29280
 C205 C 0.12484 -0.00610 0.25553
 C206 C 0.14890 -0.02667 0.26122
 C207 C 0.10354 -0.03022 0.25723
 C208 C 0.12760 -0.05114 0.26325
 C209 C 0.12418 -0.06695 0.31622
 C210 C 0.12403 -0.08485 0.33409
 C211 C 0.12511 0.01568 0.23382
 C212 C 0.12536 0.03360 0.21598
 H213 H 0.11919 0.02106 0.29621
 H214 H 0.08036 -0.02401 0.30041
 H215 H 0.16303 -0.01754 0.30767
 H216 H 0.16887 -0.02728 0.24962
 H217 H 0.08621 -0.03374 0.24236
 H218 H 0.13005 -0.07234 0.25382
 C219 C 0.65073 0.51267 -0.27453
 C220 C 0.63065 0.51334 -0.29976
 C221 C 0.62553 0.54488 -0.29449
 C222 C 0.64560 0.54454 -0.26960
 C223 C 0.62596 0.50586 -0.25544
 C224 C 0.62084 0.53739 -0.25017
 C225 C 0.60589 0.50619 -0.28034
 C226 C 0.60076 0.53806 -0.27541
 C227 C 0.62530 0.56660 -0.31625
 C228 C 0.62513 0.58447 -0.33415
 C229 C 0.62622 0.48412 -0.23370
 C230 C 0.62644 0.46623 -0.21582
 H231 H 0.67129 0.50199 -0.27393
 H232 H 0.63469 0.50370 -0.32039
 H233 H 0.66193 0.56055 -0.26543
 H234 H 0.61680 0.54703 -0.22954
 H235 H 0.58956 0.49018 -0.28451
 H236 H 0.58020 0.54875 -0.27601
 C237 C 0.37799 0.99954 0.78564
 C238 C 0.39858 1.02465 0.78727
 C239 C 0.37404 1.04439 0.79363
 C240 C 0.35346 1.01962 0.79234
 C241 C 0.37383 1.00571 0.75450
 C242 C 0.34930 1.02546 0.76087
 C243 C 0.39441 1.03048 0.75580
 C244 C 0.36988 1.05056 0.76250
 C245 C 0.37419 1.06595 0.81541
 C246 C 0.37433 1.08370 0.83331
 C247 C 0.37372 0.98419 0.73269
 C248 C 0.37365 0.96649 0.71474
 H249 H 0.38133 0.97833 0.79491
 H250 H 0.41884 1.02456 0.79837
 H251 H 0.33662 1.01540 0.80761
 H252 H 0.32903 1.02555 0.74976
 H253 H 0.41125 1.03471 0.74053
 H254 H 0.36655 1.07178 0.75322
 C255 C 0.88185 0.49976 0.21482
 C256 C 0.90056 0.47313 0.21470
 C257 C 0.87516 0.45531 0.20649
 C258 C 0.85645 0.48160 0.20627
 C259 C 0.87494 0.49406 0.24555
 C260 C 0.84954 0.47624 0.23733
 C261 C 0.89365 0.46777 0.24577
 C262 C 0.86825 0.44962 0.23721
 C263 C 0.87529 0.43371 0.18475
 C264 C 0.87541 0.41593 0.16688
 C265 C 0.87482 0.51563 0.26733
 C266 C 0.87472 0.53334 0.28525
 H267 H 0.88744 0.52062 0.20586
 H268 H 0.92154 0.47161 0.20516
 H269 H 0.84116 0.48705 0.18978
 H270 H 0.82856 0.47776 0.24688
 H271 H 0.90894 0.46232 0.26225
 H272 H 0.86266 0.42876 0.24618
 C273 C 0.25211 0.13777 -0.03535
 C274 C 0.28121 0.15158 -0.03257
 C275 C 0.29434 0.12484 -0.04491
 C276 C 0.26558 0.11103 -0.04802
 C277 C 0.25567 0.12487 -0.00619
 C278 C 0.26880 0.09813 -0.01852
 C279 C 0.28443 0.13868 -0.00308
 C280 C 0.29790 0.11194 -0.01575
 C281 C 0.31589 0.12483 -0.06648
 C282 C 0.33363 0.12484 -0.08421
 C283 C 0.23413 0.12489 0.01539
 C284 C 0.21643 0.12492 0.03315
 H285 H 0.23305 0.14839 -0.04316
 H286 H 0.28655 0.17355 -0.03859
 H287 H 0.25808 0.09967 -0.06674
 H288 H 0.26346 0.07616 -0.01251
 H289 H 0.29194 0.15004 0.01564
 H290 H 0.31696 0.10132 -0.00794
 C291 C 0.74920 0.63059 0.53737
 C292 C 0.72347 0.65029 0.53784
 C293 C 0.70508 0.62479 0.54508
 C294 C 0.73047 0.60508 0.54495
 C295 C 0.74379 0.62483 0.50639
 C296 C 0.72540 0.59932 0.51363
 C297 C 0.71840 0.64453 0.50653
 C298 C 0.69967 0.61903 0.51410
 C299 C 0.68352 0.62476 0.56664
 C300 C 0.66580 0.62474 0.58438
 C301 C 0.76536 0.62484 0.48485
 C302 C 0.78311 0.62485 0.46714
 H303 H 0.76980 0.63534 0.54670
 H304 H 0.72244 0.67125 0.54804
 H305 H 0.73519 0.58886 0.56098
 H306 H 0.72643 0.57836 0.50343
 H307 H 0.71368 0.66075 0.49049
 H308 H 0.67907 0.61427 0.50477
 C309 C 0.78279 0.39338 0.00581
 C310 C 0.77800 0.40073 0.03684
 C311 C 0.79528 0.37477 0.04519
 C312 C 0.80041 0.36742 0.01449
 C313 C 0.75658 0.37483 0.00647
 C314 C 0.77386 0.34887 0.01482
 C315 C 0.75145 0.38217 0.03716
 C316 C 0.76907 0.35622 0.04585
 C317 C 0.81685 0.37474 0.06675
 C318 C 0.83460 0.37472 0.08447
 C319 C 0.73503 0.37485 -0.01511
 C320 C 0.71731 0.37486 -0.03286
 H321 H 0.78819 0.40866 -0.01089
 H322 H 0.77994 0.42205 0.04613
 H323 H 0.82078 0.36136 0.00541
 H324 H 0.77192 0.32755 0.00552
 H325 H 0.73108 0.38824 0.04624
 H326 H 0.76367 0.34094 0.06255
 C327 C 0.24834 0.87997 0.46239
 C328 C 0.22916 0.85468 0.45542
 C329 C 0.20412 0.87484 0.45481
 C330 C 0.22297 0.90013 0.46144
 C331 C 0.24285 0.87487 0.49350
 C332 C 0.21782 0.89503 0.49288
 C333 C 0.22401 0.84958 0.48687
 C334 C 0.19863 0.86974 0.48592
 C335 C 0.18255 0.87483 0.43325
 C336 C 0.16482 0.87483 0.41551
 C337 C 0.26444 0.87490 0.51504
 C338 C 0.28220 0.87493 0.53274
 H339 H 0.26902 0.88418 0.45295
 H340 H 0.23358 0.83809 0.43978
 H341 H 0.22230 0.92091 0.45074
 H342 H 0.21340 0.91162 0.50853
 H343 H 0.22467 0.82880 0.49757
 H344 H 0.17795 0.86553 0.49536
   
