data_POSCAR
  _audit_creation_date              2014-09-24
  _audit_creation_method            'ToBaCCo'
  _symmetry_space_group_name_H-M    'P1'
  _symmetry_Int_Tables_number       1
  _symmetry_cell_setting            triclinic
  loop_
  _symmetry_equiv_pos_as_xyz
 x,y,z
_cell_length_a 39.7083
_cell_length_b 38.5667
_cell_length_c 38.4456
_cell_angle_alpha 92.729400
_cell_angle_beta 92.962500
_cell_angle_gamma 93.037300
loop_
  _atom_site_label
  _atom_site_type_symbol
  _atom_site_fract_x
  _atom_site_fract_y
  _atom_site_fract_z
N1 N 0.18739 1.25518 0.16068
 N2 N 0.16746 1.25697 0.18683
 C3 C 0.14543 1.28173 0.18132
 C4 C 0.15174 1.29641 0.14977
 C5 C 0.17876 1.27871 0.13759
 H6 H 0.12594 1.28787 0.19884
 H7 H 0.19122 1.28218 0.11359
 Cu8 Cu 0.17122 1.22597 0.22501
 Cu9 Cu 0.22237 1.22181 0.15793
 Cu10 Cu 0.22198 1.15895 0.21909
 N11 N 0.16698 1.18694 0.25485
 N12 N 0.18685 1.16089 0.25250
 C13 C 0.17805 1.13729 0.27550
 C14 C 0.15095 1.14901 0.29341
 C15 C 0.14477 1.18083 0.27940
 H16 H 0.19040 1.11324 0.27842
 H17 H 0.12538 1.19823 0.28599
 N18 N 0.25540 1.16169 0.18308
 N19 N 0.25559 1.18569 0.15978
 C20 C 0.28066 1.18017 0.13826
 C21 C 0.29710 1.15117 0.14839
 C22 C 0.28033 1.14023 0.17700
 H23 H 0.28628 1.19598 0.11663
 H24 H 0.28531 1.11780 0.19184
 H25 H 0.19390 1.18542 0.18330
 H26 H 0.22792 1.21138 0.21017
 N27 N 0.80845 0.74251 0.15706
 N28 N 0.82572 0.73790 0.18641
 C29 C 0.84883 0.71436 0.18067
 C30 C 0.84598 0.70338 0.14576
 C31 C 0.81993 0.72177 0.13159
 H32 H 0.86642 0.70595 0.20052
 H33 H 0.81059 0.72081 0.10462
 Cu34 Cu 0.81729 0.76371 0.22926
 Cu35 Cu 0.77351 0.77630 0.15411
 Cu36 Cu 0.76546 0.82934 0.22844
 N37 N 0.81784 0.79783 0.26805
 N38 N 0.79675 0.82288 0.26804
 C39 C 0.80367 0.84407 0.29660
 C40 C 0.83112 0.83206 0.31554
 C41 C 0.83920 0.80234 0.29645
 H42 H 0.79099 0.86773 0.30168
 H43 H 0.85980 0.78583 0.30179
 N44 N 0.73668 0.83195 0.18547
 N45 N 0.73980 0.81217 0.15696
 C46 C 0.71791 0.82190 0.13171
 C47 C 0.70040 0.84930 0.14493
 C48 C 0.71291 0.85473 0.17913
 H49 H 0.71569 0.81069 0.10533
 H50 H 0.70560 0.87422 0.19796
 H51 H 0.79747 0.80890 0.19280
 H52 H 0.76213 0.77918 0.20577
 N53 N 0.80221 1.26522 -0.17619
 N54 N 0.82899 1.26189 -0.19444
 C55 C 0.84949 1.29078 -0.18913
 C56 C 0.83497 1.31348 -0.16600
 C57 C 0.80480 1.29633 -0.15853
 H58 H 0.87426 1.29393 -0.19933
 H59 H 0.78696 1.30489 -0.14010
 Cu60 Cu 0.83708 1.21839 -0.21933
 Cu61 Cu 0.76896 1.22684 -0.17238
 Cu62 Cu 0.77802 1.15180 -0.22364
 N63 N 0.83856 1.17903 -0.25244
 N64 N 0.81578 1.15297 -0.25427
 C65 C 0.82390 1.12931 -0.27897
 C66 C 0.85356 1.14117 -0.29345
 C67 C 0.86183 1.17300 -0.27578
 H68 H 0.80937 1.10517 -0.28545
 H69 H 0.88316 1.19076 -0.27934
 N70 N 0.74163 1.15640 -0.19076
 N71 N 0.73804 1.18530 -0.17184
 C72 C 0.71265 1.18005 -0.15057
 C73 C 0.69956 1.14614 -0.15601
 C74 C 0.71845 1.13196 -0.18193
 H75 H 0.70494 1.19931 -0.13174
 H76 H 0.71650 1.10538 -0.19243
 H77 H 0.79868 1.18545 -0.18409
 H78 H 0.77652 1.20510 -0.22185
 N79 N 0.18717 0.73700 -0.17051
 N80 N 0.15971 0.74142 -0.19003
 C81 C 0.13471 0.71925 -0.18068
 C82 C 0.14723 0.70009 -0.15372
 C83 C 0.18068 0.71201 -0.14825
 H84 H 0.10898 0.71824 -0.19150
 H85 H 0.19884 0.70388 -0.12882
 Cu86 Cu 0.15937 0.77801 -0.22332
 Cu87 Cu 0.22836 0.76652 -0.17189
 Cu88 Cu 0.22711 0.83280 -0.22961
 N89 N 0.15904 0.81459 -0.25661
 N90 N 0.18556 0.83618 -0.25826
 C91 C 0.17875 0.85992 -0.28171
 C92 C 0.14605 0.85302 -0.29594
 C93 C 0.13442 0.82378 -0.27929
 H94 H 0.19661 0.88051 -0.28785
 H95 H 0.10968 0.81062 -0.28269
 N96 N 0.26676 0.82489 -0.19850
 N97 N 0.26737 0.79930 -0.17695
 C98 C 0.29646 0.80251 -0.15718
 C99 C 0.31512 0.83169 -0.16648
 C100 C 0.29548 0.84505 -0.19297
 H101 H 0.30273 0.78587 -0.13626
 H102 H 0.30066 0.86903 -0.20562
 H103 H 0.20494 0.80993 -0.18832
 H104 H 0.22085 0.78031 -0.22280
 C105 C 0.47840 1.02749 0.02546
 C106 C 0.50377 1.00727 0.04696
 C107 C 0.52443 0.98807 0.02740
 C108 C 0.51810 0.99103 -0.01217
 C109 C 0.50098 1.04928 0.00253
 C110 C 0.52179 1.03039 -0.01714
 C111 C 0.45988 1.00016 0.00039
 C112 C 0.48039 0.98123 -0.01918
 H113 H 0.50641 1.00916 0.07511
 H114 H 0.53478 0.97538 -0.02821
 H115 H 0.50156 1.07739 0.00319
 H116 H 0.43263 0.99590 -0.00148
 C117 C 0.02418 0.47819 1.02906
 C118 C 0.04568 0.50268 1.00768
 C119 C 0.02758 0.52445 0.98806
 C120 C -0.01078 0.51994 0.99170
 C121 C 0.00352 0.50316 1.05066
 C122 C -0.01484 0.52495 1.03121
 C123 C -0.00149 0.45964 1.00260
 C124 C -0.01965 0.48124 0.98321
 H125 H 0.07300 0.50338 1.00885
 H126 H -0.02568 0.53749 0.97569
 H127 H 0.00444 0.50477 1.07883
 H128 H -0.00531 0.43159 0.99979
 C129 C 1.02383 0.02606 0.47475
 C130 C 1.00250 0.04760 0.49911
 C131 C 0.98451 0.02844 0.52143
 C132 C 0.98946 -0.01082 0.51748
 C133 C 1.04575 0.00595 0.50002
 C134 C 1.02799 -0.01341 0.52239
 C135 C 0.99894 -0.00141 0.45669
 C136 C 0.98107 -0.02055 0.47878
 H137 H 1.00312 0.07567 0.50030
 H138 H 0.97467 -0.02654 0.53538
 H139 H 1.07306 0.00760 0.50052
 H140 H 0.99538 -0.00504 0.42858
 C141 C 0.09888 0.37439 1.10017
 C142 C 0.12539 0.35908 1.08352
 C143 C 0.14302 0.33347 1.10020
 C144 C 0.13424 0.32269 1.13338
 C145 C 0.10738 0.33859 1.14957
 C146 C 0.08969 0.36434 1.13310
 C147 C 0.08016 0.40122 1.08259
 C148 C 0.05341 0.41632 1.09906
 C149 C 0.03542 0.44153 1.08205
 C150 C 0.04439 0.45222 1.04894
 C151 C 0.07074 0.43578 1.03253
 C152 C 0.08895 0.41072 1.04936
 C153 C 0.06280 0.38010 1.14883
 C154 C 0.04494 0.40560 1.13208
 C155 C 0.13360 0.36946 1.05030
 C156 C 0.11561 0.39477 1.03346
 H157 H 0.05539 0.37257 1.17425
 H158 H 0.02430 0.41699 1.14508
 H159 H 0.15399 0.35779 1.03712
 H160 H 0.12264 0.40190 1.00779
 H161 H 0.16331 0.32194 1.08686
 H162 H 0.09994 0.33117 1.17496
 H163 H 0.01404 0.45193 1.09442
 H164 H 0.07690 0.44223 1.00639
 C165 C -0.09380 0.62912 1.09503
 C166 C -0.08196 0.64566 1.12696
 C167 C -0.10169 0.67007 1.14317
 C168 C -0.13312 0.67808 1.12775
 C169 C -0.14444 0.66152 1.09544
 C170 C -0.12490 0.63687 1.07902
 C171 C -0.07333 0.60294 1.07821
 C172 C -0.08524 0.58604 1.04644
 C173 C -0.06585 0.56073 1.03088
 C174 C -0.03491 0.55230 1.04705
 C175 C -0.02320 0.56995 1.07866
 C176 C -0.04235 0.59514 1.09441
 C177 C -0.13590 0.61958 1.04710
 C178 C -0.11643 0.59459 1.03111
 C179 C -0.05069 0.63735 1.14220
 C180 C -0.03120 0.61254 1.12618
 H181 H -0.15985 0.62530 1.03445
 H182 H -0.12594 0.58177 1.00660
 H183 H -0.04126 0.65002 1.16681
 H184 H -0.00729 0.60676 1.13888
 H185 H -0.09235 0.68293 1.16769
 H186 H -0.16863 0.66726 1.08338
 H187 H -0.07518 0.54709 1.00671
 H188 H 0.00093 0.56428 1.09093
 C189 C -0.11151 0.39939 0.89073
 C190 C -0.10088 0.38840 0.85793
 C191 C -0.11967 0.36163 0.83850
 C192 C -0.14855 0.34541 0.85192
 C193 C -0.15970 0.35797 0.88416
 C194 C -0.14108 0.38468 0.90383
 C195 C -0.09013 0.42510 0.91273
 C196 C -0.09961 0.43423 0.94653
 C197 C -0.07741 0.45561 0.96874
 C198 C -0.04597 0.46739 0.95735
 C199 C -0.03746 0.45962 0.92296
 C200 C -0.05943 0.43814 0.90051
 C201 C -0.15052 0.39575 0.93711
 C202 C -0.13010 0.42006 0.95813
 C203 C -0.07082 0.40328 0.84594
 C204 C -0.05042 0.42771 0.86689
 H205 H -0.17337 0.38472 0.94744
 H206 H -0.13774 0.42704 0.98408
 H207 H -0.06246 0.39517 0.82058
 H208 H -0.02690 0.43769 0.85711
 H209 H -0.11107 0.35266 0.81353
 H210 H -0.18173 0.34581 0.89498
 H211 H -0.08349 0.46127 0.99552
 H212 H -0.01288 0.46829 0.91461
 C213 C 0.09438 0.62655 0.90706
 C214 C 0.08034 0.63408 0.87419
 C215 C 0.09755 0.65828 0.85427
 C216 C 0.12864 0.67466 0.86707
 C217 C 0.14210 0.66679 0.90023
 C218 C 0.12514 0.64284 0.92027
 C219 C 0.07668 0.60100 0.92803
 C220 C 0.09094 0.59349 0.96079
 C221 C 0.07442 0.56885 0.98041
 C222 C 0.04393 0.55145 0.96745
 C223 C 0.02960 0.55964 0.93477
 C224 C 0.04600 0.58440 0.91484
 C225 C 0.13844 0.63484 0.95331
 C226 C 0.12161 0.61059 0.97325
 C227 C 0.04948 0.61710 0.86191
 C228 C 0.03263 0.59268 0.88188
 H229 H 0.16213 0.64734 0.96380
 H230 H 0.13279 0.60504 0.99854
 H231 H 0.03832 0.62264 0.83661
 H232 H 0.00899 0.58011 0.87136
 H233 H 0.08698 0.66397 0.82877
 H234 H 0.16562 0.67950 0.91080
 H235 H 0.08526 0.56335 1.00587
 H236 H 0.00626 0.54620 0.92454
 C237 C 1.09786 0.09802 0.37063
 C238 C 1.12501 0.08216 0.35573
 C239 C 1.14266 0.09924 0.33029
 C240 C 1.13333 0.13210 0.31938
 C241 C 1.10583 0.14749 0.33488
 C242 C 1.08806 0.13057 0.36036
 C243 C 1.07915 0.08007 0.39732
 C244 C 1.05174 0.09575 0.41194
 C245 C 1.03384 0.07845 0.43708
 C246 C 1.04363 0.04592 0.44835
 C247 C 1.07061 0.03021 0.43233
 C248 C 1.08867 0.04730 0.40722
 C249 C 1.06049 0.14550 0.37564
 C250 C 1.04260 0.12835 0.40093
 C251 C 1.13388 0.04935 0.36642
 C252 C 1.11596 0.03218 0.39166
 H253 H 1.05261 0.17061 0.36791
 H254 H 1.02144 0.14074 0.41197
 H255 H 1.15479 0.03677 0.35508
 H256 H 1.12357 0.00687 0.39909
 H257 H 1.16350 0.08655 0.31911
 H258 H 1.09790 0.17256 0.32729
 H259 H 1.01194 0.09020 0.44703
 H260 H 1.07741 0.00448 0.43921
 C261 C 1.09484 -0.09013 0.62828
 C262 C 1.12652 -0.07749 0.64272
 C263 C 1.14335 -0.09653 0.66768
 C264 C 1.12871 -0.12807 0.67882
 C265 C 1.09653 -0.14008 0.66413
 C266 C 1.07966 -0.12133 0.63872
 C267 C 1.07732 -0.07032 0.60159
 C268 C 1.04582 -0.08313 0.58665
 C269 C 1.02958 -0.06439 0.56081
 C270 C 1.04466 -0.03302 0.55012
 C271 C 1.07600 -0.02036 0.56597
 C272 C 1.09254 -0.03900 0.59143
 C273 C 1.04797 -0.13324 0.62337
 C274 C 1.03139 -0.11452 0.59772
 C275 C 1.14087 -0.04596 0.63194
 C276 C 1.12410 -0.02698 0.60681
 H277 H 1.03593 -0.15731 0.63114
 H278 H 1.00709 -0.12473 0.58648
 H279 H 1.16528 -0.03587 0.64300
 H280 H 1.13606 -0.00280 0.59919
 H281 H 1.16768 -0.08618 0.67852
 H282 H 1.08463 -0.16421 0.67183
 H283 H 1.00566 -0.07458 0.54861
 H284 H 1.08753 0.00415 0.55872
 C285 C 0.88855 -0.11347 0.39828
 C286 C 0.90009 -0.14448 0.38389
 C287 C 0.88006 -0.16357 0.35775
 C288 C 0.84904 -0.15132 0.34501
 C289 C 0.83733 -0.12083 0.36114
 C290 C 0.85704 -0.10175 0.38749
 C291 C 0.91070 -0.09183 0.42365
 C292 C 0.89982 -0.05986 0.43662
 C293 C 0.92228 -0.03773 0.45784
 C294 C 0.95540 -0.04725 0.46538
 C295 C 0.96553 -0.07993 0.45362
 C296 C 0.94323 -0.10239 0.43258
 C297 C 0.84643 -0.07037 0.40223
 C298 C 0.86747 -0.04977 0.42637
 C299 C 0.93215 -0.15501 0.39480
 C300 C 0.95341 -0.13424 0.41863
 H301 H 0.82204 -0.06115 0.39428
 H302 H 0.85873 -0.02525 0.43629
 H303 H 0.94132 -0.17898 0.38401
 H304 H 0.97836 -0.14275 0.42545
 H305 H 0.88972 -0.18699 0.34639
 H306 H 0.81331 -0.11112 0.35281
 H307 H 0.91490 -0.01218 0.46646
 H308 H 0.99134 -0.08679 0.45906
 C309 C 0.90868 0.09254 0.62841
 C310 C 0.87824 0.07636 0.63782
 C311 C 0.85989 0.09248 0.66380
 C312 C 0.87173 0.12475 0.68032
 C313 C 0.90249 0.14036 0.67015
 C314 C 0.92097 0.12443 0.64445
 C315 C 0.92811 0.07581 0.60121
 C316 C 0.95858 0.09211 0.59199
 C317 C 0.97692 0.07630 0.56611
 C318 C 0.96494 0.04452 0.54914
 C319 C 0.93445 0.02830 0.55887
 C320 C 0.91587 0.04392 0.58494
 C321 C 0.95161 0.13988 0.63453
 C322 C 0.97013 0.12396 0.60878
 C323 C 0.86679 0.04440 0.62101
 C324 C 0.88525 0.02847 0.59501
 H325 H 0.96138 0.16451 0.64679
 H326 H 0.99363 0.13675 0.60187
 H327 H 0.84332 0.03158 0.62796
 H328 H 0.87547 0.00388 0.58270
 H329 H 0.83644 0.07977 0.67082
 H330 H 0.91261 0.16489 0.68212
 H331 H 1.00075 0.08861 0.55952
 H332 H 0.92493 0.00396 0.54580
 C333 C 0.37694 1.10118 0.09811
 C334 C 0.36779 1.09088 0.13100
 C335 C 0.34207 1.10767 0.14756
 C336 C 0.32526 1.13443 0.13135
 C337 C 0.33503 1.14452 0.09838
 C338 C 0.36077 1.12794 0.08164
 C339 C 0.40355 1.08317 0.08030
 C340 C 0.41216 1.09294 0.04709
 C341 C 0.43686 1.07516 0.02990
 C342 C 0.45356 1.04812 0.04586
 C343 C 0.44381 1.03822 0.07897
 C344 C 0.41917 1.05588 0.09641
 C345 C 0.37031 1.13723 0.04849
 C346 C 0.39554 1.11998 0.03148
 C347 C 0.38425 1.06367 0.14648
 C348 C 0.40943 1.04639 0.12943
 H349 H 0.35801 1.15783 0.03548
 H350 H 0.40197 1.12777 0.00583
 H351 H 0.37741 1.05545 0.17186
 H352 H 0.42128 1.02535 0.14215
 H353 H 0.33519 1.09969 0.17297
 H354 H 0.32233 1.16479 0.08532
 H355 H 0.44258 1.08197 0.00376
 H356 H 0.45447 1.01619 0.09097
 C357 C 0.62377 1.09581 -0.09723
 C358 C 0.63998 1.12735 -0.08431
 C359 C 0.66458 1.14352 -0.10373
 C360 C 0.67320 1.12851 -0.13600
 C361 C 0.65678 1.09667 -0.14854
 C362 C 0.63194 1.08023 -0.12923
 C363 C 0.59776 1.07879 -0.07679
 C364 C 0.58142 1.04720 -0.08957
 C365 C 0.55656 1.03125 -0.06996
 C366 C 0.54805 1.04688 -0.03795
 C367 C 0.56502 1.07838 -0.02548
 C368 C 0.58977 1.09447 -0.04479
 C369 C 0.61507 1.04859 -0.14121
 C370 C 0.59024 1.03237 -0.12174
 C371 C 0.63135 1.14216 -0.05211
 C372 C 0.60667 1.12598 -0.03267
 H373 H 0.62108 1.03626 -0.16586
 H374 H 0.57785 1.00803 -0.13195
 H375 H 0.64377 1.16648 -0.04186
 H376 H 0.60073 1.13828 -0.00798
 H377 H 0.67725 1.16760 -0.09329
 H378 H 0.66302 1.08486 -0.17334
 H379 H 0.54351 1.00709 -0.07981
 H380 H 0.55934 1.09021 -0.00049
 C381 C 0.39881 0.88609 -0.10911
 C382 C 0.39010 0.89543 -0.14312
 C383 C 0.36383 0.87640 -0.16254
 C384 C 0.34597 0.84853 -0.14796
 C385 C 0.35615 0.83866 -0.11433
 C386 C 0.38227 0.85754 -0.09469
 C387 C 0.42422 0.90788 -0.08742
 C388 C 0.43111 0.89987 -0.05258
 C389 C 0.45235 0.92277 -0.03094
 C390 C 0.46634 0.95343 -0.04392
 C391 C 0.46079 0.96028 -0.07925
 C392 C 0.43935 0.93767 -0.10114
 C393 C 0.39107 0.84942 -0.06027
 C394 C 0.41503 0.87029 -0.03953
 C395 C 0.40687 0.92453 -0.15646
 C396 C 0.43107 0.94530 -0.13582
 H397 H 0.37859 0.82735 -0.04891
 H398 H 0.42028 0.86378 -0.01276
 H399 H 0.40053 0.93190 -0.18274
 H400 H 0.44263 0.96811 -0.14677
 H401 H 0.35668 0.88405 -0.18851
 H402 H 0.34276 0.81746 -0.10255
 H403 H 0.45633 0.91798 -0.00350
 H404 H 0.47115 0.98435 -0.08888
 C405 C 0.62717 0.90924 0.09253
 C406 C 0.64441 0.92291 0.12336
 C407 C 0.66836 0.90319 0.14011
 C408 C 0.67523 0.86992 0.12641
 C409 C 0.65795 0.85672 0.09519
 C410 C 0.63377 0.87628 0.07820
 C411 C 0.60153 0.92977 0.07514
 C412 C 0.58394 0.91607 0.04448
 C413 C 0.55906 0.93550 0.02848
 C414 C 0.55170 0.96820 0.04319
 C415 C 0.57006 0.98171 0.07361
 C416 C 0.59486 0.96258 0.08975
 C417 C 0.61583 0.86351 0.04733
 C418 C 0.59134 0.88305 0.03078
 C419 C 0.63727 0.95600 0.13696
 C420 C 0.61291 0.97551 0.12043
 H421 H 0.62064 0.83813 0.03596
 H422 H 0.57797 0.87214 0.00716
 H423 H 0.65049 0.96683 0.16070
 H424 H 0.60800 1.00084 0.13189
 H425 H 0.68179 0.91405 0.16370
 H426 H 0.66287 0.83114 0.08443
 H427 H 0.54487 0.92484 0.00521
 H428 H 0.56511 1.00718 0.08471
   
