data_POSCAR
  _audit_creation_date              2014-09-24
  _audit_creation_method            'ToBaCCo'
  _symmetry_space_group_name_H-M    'P1'
  _symmetry_Int_Tables_number       1
  _symmetry_cell_setting            triclinic
  loop_
  _symmetry_equiv_pos_as_xyz
 x,y,z
_cell_length_a 32.3938
_cell_length_b 31.3037
_cell_length_c 31.0757
_cell_angle_alpha 89.914000
_cell_angle_beta 89.989100
_cell_angle_gamma 91.581600
loop_
  _atom_site_label
  _atom_site_type_symbol
  _atom_site_fract_x
  _atom_site_fract_y
  _atom_site_fract_z
N1 N 0.18021 1.27174 0.14768
 N2 N 0.15306 1.27194 0.17907
 C3 C 0.12152 1.29674 0.16793
 C4 C 0.12929 1.31315 0.12709
 C5 C 0.16717 1.29693 0.11559
 H6 H 0.09452 1.30096 0.18770
 H7 H 0.18304 1.30153 0.08523
 Cu8 Cu 0.15925 1.23594 0.22928
 Cu9 Cu 0.22849 1.23590 0.14959
 Cu10 Cu 0.23196 1.16231 0.23381
 N11 N 0.15389 1.18733 0.26776
 N12 N 0.18252 1.15849 0.26963
 C13 C 0.16988 1.12687 0.29634
 C14 C 0.13074 1.13591 0.31139
 C15 C 0.12177 1.17488 0.29267
 H16 H 0.18688 1.09823 0.30255
 H17 H 0.09356 1.19230 0.29518
 N18 N 0.27079 1.16269 0.18483
 N19 N 0.26886 1.18989 0.15242
 C20 C 0.29507 1.17787 0.12134
 C21 C 0.31442 1.14125 0.13475
 C22 C 0.29855 1.13291 0.17534
 H23 H 0.29785 1.19329 0.09034
 H24 H 0.30453 1.10522 0.19499
 H25 H 0.19819 1.18847 0.18476
 H26 H 0.23346 1.22558 0.21475
 N27 N 0.81879 0.72837 0.14856
 N28 N 0.84602 0.72814 0.17986
 C29 C 0.87739 0.70314 0.16874
 C30 C 0.86937 0.68664 0.12812
 C31 C 0.83162 0.70301 0.11659
 H32 H 0.90453 0.69878 0.18827
 H33 H 0.81573 0.69839 0.08627
 Cu34 Cu 0.84014 0.76433 0.22988
 Cu35 Cu 0.77069 0.76446 0.15039
 Cu36 Cu 0.76769 0.83824 0.23425
 N37 N 0.84575 0.81301 0.26810
 N38 N 0.81721 0.84194 0.26992
 C39 C 0.82995 0.87353 0.29651
 C40 C 0.86909 0.86437 0.31153
 C41 C 0.87793 0.82536 0.29292
 H42 H 0.81303 0.90220 0.30269
 H43 H 0.90607 0.80783 0.29549
 N44 N 0.72876 0.83793 0.18536
 N45 N 0.73052 0.81066 0.15308
 C46 C 0.70430 0.82272 0.12201
 C47 C 0.68513 0.85946 0.13528
 C48 C 0.70111 0.86782 0.17578
 H49 H 0.70140 0.80725 0.09109
 H50 H 0.69527 0.89558 0.19530
 H51 H 0.80125 0.81186 0.18523
 H52 H 0.76594 0.77493 0.21552
 N53 N 0.81256 1.26620 -0.15725
 N54 N 0.84088 1.26554 -0.18747
 C55 C 0.87283 1.29153 -0.17625
 C56 C 0.86408 1.30961 -0.13669
 C57 C 0.82526 1.29319 -0.12596
 H58 H 0.90092 1.29521 -0.19476
 H59 H 0.80865 1.29852 -0.09633
 Cu60 Cu 0.83562 1.22687 -0.23590
 Cu61 Cu 0.76371 1.22838 -0.15879
 Cu62 Cu 0.76740 1.14490 -0.23285
 N63 N 0.84228 1.17711 -0.27194
 N64 N 0.81552 1.14486 -0.27059
 C65 C 0.82898 1.11330 -0.29589
 C66 C 0.86680 1.12606 -0.31335
 C67 C 0.87402 1.16709 -0.29761
 H68 H 0.81356 1.08242 -0.29957
 H69 H 0.90085 1.18771 -0.30272
 N70 N 0.72754 1.14607 -0.18485
 N71 N 0.72560 1.17809 -0.15737
 C72 C 0.69844 1.16744 -0.12611
 C73 C 0.68292 1.12656 -0.13383
 C74 C 0.70188 1.11413 -0.17158
 H75 H 0.69263 1.18661 -0.09795
 H76 H 0.69931 1.08324 -0.18692
 H77 H 0.79775 1.18107 -0.18644
 H78 H 0.76171 1.20939 -0.22242
 N79 N 0.18780 0.73388 -0.15635
 N80 N 0.15956 0.73441 -0.18665
 C81 C 0.12771 0.70824 -0.17545
 C82 C 0.13644 0.69018 -0.13583
 C83 C 0.17515 0.70681 -0.12502
 H84 H 0.09968 0.70443 -0.19403
 H85 H 0.19171 0.70153 -0.09534
 Cu86 Cu 0.16476 0.77314 -0.23516
 Cu87 Cu 0.23651 0.77191 -0.15788
 Cu88 Cu 0.23279 0.85527 -0.23232
 N89 N 0.15798 0.82289 -0.27132
 N90 N 0.18468 0.85520 -0.27007
 C91 C 0.17116 0.88673 -0.29547
 C92 C 0.13338 0.87388 -0.31288
 C93 C 0.12623 0.83284 -0.29701
 H94 H 0.18653 0.91763 -0.29925
 H95 H 0.09945 0.81216 -0.30208
 N96 N 0.27257 0.85426 -0.18425
 N97 N 0.27450 0.82229 -0.15661
 C98 C 0.30159 0.83305 -0.12537
 C99 C 0.31708 0.87393 -0.13327
 C100 C 0.29815 0.88626 -0.17111
 H101 H 0.30741 0.81393 -0.09711
 H102 H 0.30072 0.91711 -0.18661
 H103 H 0.20241 0.81910 -0.18581
 H104 H 0.23860 0.79082 -0.22158
 C105 C 0.45575 0.97256 -0.01376
 C106 C 0.47721 0.99992 0.01456
 C107 C 0.45562 1.02757 0.04126
 C108 C 0.41225 1.02850 0.03959
 C109 C 0.39143 1.00228 0.00938
 C110 C 0.41242 0.97273 -0.01606
 C111 C 0.52261 1.00097 0.01458
 C112 C 0.54409 1.02828 -0.01386
 C113 C 0.58743 1.02807 -0.01615
 C114 C 0.60838 0.99854 0.00942
 C115 C 0.58753 0.97238 0.03974
 C116 C 0.54416 0.97333 0.04140
 H117 H 0.47334 0.95251 -0.03484
 H118 H 0.47310 1.04912 0.06191
 H119 H 0.52654 1.04831 -0.03504
 H120 H 0.52666 0.95181 0.06212
 H121 H 0.35838 1.00499 0.00558
 H122 H 0.64143 0.99579 0.00562
 C123 C -0.02935 0.45352 0.97152
 C124 C -0.00009 0.47586 0.99658
 C125 C 0.02833 0.45359 1.02134
 C126 C 0.02851 0.40867 1.02060
 C127 C -0.00182 0.38674 0.99604
 C128 C -0.03120 0.40858 0.97164
 C129 C 0.00087 0.52285 0.99678
 C130 C -0.02768 0.54483 1.02160
 C131 C -0.02791 0.58975 1.02117
 C132 C 0.00243 0.61197 0.99682
 C133 C 0.03195 0.59042 0.97237
 C134 C 0.03019 0.54549 0.97196
 H135 H -0.04987 0.47160 0.95151
 H136 H 0.04960 0.47165 1.04157
 H137 H -0.04899 0.52651 1.04160
 H138 H 0.05078 0.52765 0.95186
 H139 H -0.00263 0.35219 0.99591
 H140 H 0.00303 0.64653 0.99681
 C141 C 0.97151 -0.02608 0.45341
 C142 C 1.00003 -0.00015 0.47584
 C143 C 1.02855 0.02582 0.45335
 C144 C 1.02960 0.02543 0.40811
 C145 C 1.00002 -0.00008 0.38608
 C146 C 0.97044 -0.02563 0.40817
 C147 C 1.00002 -0.00016 0.52316
 C148 C 1.02905 -0.02384 0.54565
 C149 C 1.03011 -0.02331 0.59089
 C150 C 1.00002 -0.00016 0.61291
 C151 C 0.96993 0.02299 0.59083
 C152 C 0.97099 0.02352 0.54559
 H153 H 0.95089 -0.04696 0.47163
 H154 H 1.04917 0.04669 0.47152
 H155 H 1.05012 -0.04307 0.52752
 H156 H 0.94993 0.04276 0.52741
 H157 H 1.00000 -0.00004 0.35129
 H158 H 1.00003 -0.00015 0.64768
 C159 C 0.10321 0.33813 1.10027
 C160 C 0.12167 0.38280 1.09016
 C161 C 0.09800 0.40645 1.06335
 C162 C 0.05745 0.38350 1.04915
 C163 C 0.07213 0.34151 1.02911
 C164 C 0.09547 0.31770 1.05589
 C165 C 0.05970 0.34640 1.11798
 C166 C 0.03608 0.36994 1.09129
 H167 H 0.15159 0.39427 1.10173
 H168 H 0.10876 0.43740 1.05154
 H169 H 0.06614 0.33193 0.99610
 H170 H 0.10833 0.28765 1.04580
 H171 H 0.04778 0.33477 1.14851
 H172 H 0.00469 0.37818 1.09945
 C173 C -0.10318 0.66020 1.10002
 C174 C -0.12104 0.61513 1.09107
 C175 C -0.09720 0.59137 1.06459
 C176 C -0.05711 0.61474 1.04953
 C177 C -0.07266 0.65607 1.02872
 C178 C -0.09622 0.67992 1.05520
 C179 C -0.05949 0.65308 1.11754
 C180 C -0.03563 0.62948 1.09120
 H181 H -0.15075 0.60351 1.10311
 H182 H -0.10766 0.56009 1.05350
 H183 H -0.06697 0.66518 0.99549
 H184 H -0.10973 0.70952 1.04468
 H185 H -0.04774 0.66559 1.14778
 H186 H -0.00405 0.62195 1.09931
 C187 C -0.10798 0.33675 0.89173
 C188 C -0.12413 0.38168 0.89995
 C189 C -0.09982 0.40595 0.92676
 C190 C -0.06100 0.38316 0.94285
 C191 C -0.07868 0.34180 0.96362
 C192 C -0.10272 0.31746 0.93683
 C193 C -0.06365 0.34431 0.87507
 C194 C -0.03933 0.36840 0.90174
 H195 H -0.15312 0.39283 0.88720
 H196 H -0.10921 0.43717 0.93739
 H197 H -0.07394 0.33299 0.99701
 H198 H -0.11766 0.28775 0.94727
 H199 H -0.05186 0.33196 0.84507
 H200 H -0.00731 0.37639 0.89417
 C201 C 0.10857 0.66284 0.89257
 C202 C 0.10292 0.68214 0.93756
 C203 C 0.07892 0.65765 0.96433
 C204 C 0.06168 0.61612 0.94366
 C205 C 0.04010 0.63063 0.90236
 C206 C 0.06437 0.65488 0.87572
 C207 C 0.12504 0.61808 0.90109
 C208 C 0.10077 0.59365 0.92789
 H209 H 0.11759 0.71198 0.94794
 H210 H 0.07398 0.66645 0.99767
 H211 H 0.00818 0.62235 0.89466
 H212 H 0.05265 0.66707 0.84559
 H213 H 0.15418 0.60715 0.88853
 H214 H 0.11033 0.56251 0.93871
 C215 C 1.10457 0.10811 0.33678
 C216 C 1.12207 0.09916 0.38179
 C217 C 1.09834 0.07140 0.40572
 C218 C 1.05867 0.05518 0.38270
 C219 C 1.03680 0.09588 0.36892
 C220 C 1.06050 0.12351 0.34513
 C221 C 1.09830 0.06365 0.31641
 C222 C 1.07485 0.03596 0.34048
 H223 H 1.15146 0.11219 0.39327
 H224 H 1.10858 0.06029 0.43689
 H225 H 1.00511 0.10253 0.37746
 H226 H 1.04839 0.15339 0.33376
 H227 H 1.11218 0.05423 0.28618
 H228 H 1.06972 0.00290 0.33095
 C229 C 1.10668 -0.10023 0.66193
 C230 C 1.12435 -0.08905 0.61726
 C231 C 1.10005 -0.06310 0.59346
 C232 C 1.05974 -0.05077 0.61627
 C233 C 1.03895 -0.09353 0.62924
 C234 C 1.06318 -0.11935 0.65293
 C235 C 1.09887 -0.05669 0.68289
 C236 C 1.07493 -0.03075 0.65893
 H237 H 1.15419 -0.09930 0.60592
 H238 H 1.11018 -0.05069 0.56251
 H239 H 1.00748 -0.10272 0.62052
 H240 H 1.05169 -0.15020 0.66421
 H241 H 1.11213 -0.04648 0.71340
 H242 H 1.06888 0.00171 0.66884
 C243 C 0.89532 -0.10796 0.33689
 C244 C 0.90151 -0.06338 0.31662
 C245 C 0.92501 -0.03581 0.34069
 C246 C 0.94132 -0.05527 0.38279
 C247 C 0.90172 -0.07163 0.40591
 C248 C 0.87794 -0.09927 0.38198
 C249 C 0.93943 -0.12337 0.34503
 C250 C 0.96318 -0.09587 0.36882
 H251 H 0.88756 -0.05379 0.28646
 H252 H 0.93013 -0.00270 0.33122
 H253 H 0.89154 -0.06070 0.43714
 H254 H 0.84858 -0.11237 0.39353
 H255 H 0.95154 -0.15315 0.33348
 H256 H 0.99490 -0.10253 0.37720
 C257 C 0.89346 0.10010 0.66156
 C258 C 0.87573 0.08879 0.61699
 C259 C 0.89999 0.06277 0.59330
 C260 C 0.94034 0.05051 0.61611
 C261 C 0.96115 0.09331 0.62878
 C262 C 0.93694 0.11921 0.65236
 C263 C 0.90130 0.05663 0.68277
 C264 C 0.92521 0.03062 0.65892
 H265 H 0.84587 0.09901 0.60564
 H266 H 0.88983 0.05027 0.56244
 H267 H 0.99259 0.10248 0.61993
 H268 H 0.94844 0.15010 0.66340
 H269 H 0.88807 0.04650 0.71336
 H270 H 0.93127 -0.00182 0.66901
 C271 C 0.34147 1.11207 0.10914
 C272 C 0.38444 1.10650 0.12891
 C273 C 0.40846 1.07878 0.10698
 C274 C 0.38740 1.05918 0.06670
 C275 C 0.34698 1.03884 0.08445
 C276 C 0.32294 1.06648 0.10608
 C277 C 0.34993 1.12542 0.06221
 C278 C 0.37377 1.09780 0.04022
 H279 H 0.39455 1.12182 0.15855
 H280 H 0.43845 1.07010 0.11912
 H281 H 0.33838 1.00523 0.08123
 H282 H 0.29375 1.05647 0.12059
 H283 H 0.33866 1.15409 0.04720
 H284 H 0.38254 1.10317 0.00689
 C285 C 0.65657 1.10000 -0.10328
 C286 C 0.61403 1.11871 -0.09468
 C287 C 0.59068 1.09596 -0.06567
 C288 C 0.61187 1.05595 -0.04796
 C289 C 0.62405 1.03069 -0.08814
 C290 C 0.64724 1.05352 -0.11702
 C291 C 0.67640 1.09641 -0.05857
 C292 C 0.65302 1.07391 -0.02964
 H293 H 0.60378 1.14828 -0.10892
 H294 H 0.56116 1.10732 -0.05477
 H295 H 0.61476 0.99755 -0.09360
 H296 H 0.65740 1.03946 -0.14691
 H297 H 0.70595 1.11127 -0.05002
 H298 H 0.66254 1.07033 0.00363
 C299 C 0.34338 0.90058 -0.10284
 C300 C 0.32352 0.90423 -0.05816
 C301 C 0.34687 0.92680 -0.02934
 C302 C 0.38801 0.94477 -0.04773
 C303 C 0.40925 0.90474 -0.06524
 C304 C 0.38594 0.88192 -0.09414
 C305 C 0.35268 0.94703 -0.11682
 C306 C 0.37583 0.96994 -0.08804
 H307 H 0.29398 0.88936 -0.04955
 H308 H 0.33732 0.93045 0.00391
 H309 H 0.43876 0.89343 -0.05427
 H310 H 0.39622 0.85233 -0.10823
 H311 H 0.34252 0.96103 -0.14678
 H312 H 0.38510 1.00308 -0.09366
 C313 C 0.65814 0.88869 0.10957
 C314 C 0.64957 0.87529 0.06272
 C315 C 0.62580 0.90295 0.04064
 C316 C 0.61233 0.94167 0.06696
 C317 C 0.59126 0.92221 0.10737
 C318 C 0.61522 0.89445 0.12939
 C319 C 0.67681 0.93422 0.10626
 C320 C 0.65283 0.96190 0.08454
 H321 H 0.66074 0.84655 0.04783
 H322 H 0.61697 0.89756 0.00735
 H323 H 0.56132 0.93103 0.11951
 H324 H 0.60510 0.87922 0.15913
 H325 H 0.70605 0.94415 0.12068
 H326 H 0.66154 0.99548 0.08115
   
