data_POSCAR
  _audit_creation_date              2014-09-24
  _audit_creation_method            'ToBaCCo'
  _symmetry_space_group_name_H-M    'P1'
  _symmetry_Int_Tables_number       1
  _symmetry_cell_setting            triclinic
  loop_
  _symmetry_equiv_pos_as_xyz
 x,y,z
_cell_length_a 48.6386
_cell_length_b 48.4561
_cell_length_c 48.6191
_cell_angle_alpha 89.926400
_cell_angle_beta 90.001600
_cell_angle_gamma 90.086900
loop_
  _atom_site_label
  _atom_site_type_symbol
  _atom_site_fract_x
  _atom_site_fract_y
  _atom_site_fract_z
N1 N 0.59246 0.66866 0.61364
 N2 N 0.58164 0.65735 0.63575
 C3 C 0.55944 0.67209 0.64341
 C4 C 0.55626 0.69368 0.62507
 C5 C 0.57754 0.69091 0.60647
 H6 H 0.54653 0.66758 0.66096
 H7 H 0.58189 0.70420 0.58912
 Cu8 Cu 0.59804 0.62464 0.65221
 Cu9 Cu 0.62522 0.65391 0.59581
 Cu10 Cu 0.65459 0.59574 0.62529
 N11 N 0.61445 0.59192 0.66866
 N12 N 0.63668 0.58082 0.65799
 C13 C 0.64395 0.55866 0.67305
 C14 C 0.62525 0.55572 0.69428
 C15 C 0.60680 0.57718 0.69093
 H16 H 0.66155 0.54570 0.66892
 H17 H 0.58920 0.58163 0.70376
 N18 N 0.66960 0.61383 0.59216
 N19 N 0.65836 0.63591 0.58087
 C20 C 0.67313 0.64318 0.55855
 C21 C 0.69462 0.62482 0.55571
 C22 C 0.69181 0.60650 0.57730
 H23 H 0.66864 0.66051 0.54526
 H24 H 0.70499 0.58910 0.58174
 H25 H 0.61996 0.61364 0.60856
 H26 H 0.64189 0.63612 0.63071
 N27 N 0.90770 0.33021 0.11381
 N28 N 0.91873 0.34170 0.13569
 C29 C 0.94108 0.32712 0.14321
 C30 C 0.94414 0.30542 0.12501
 C31 C 0.92261 0.30798 0.10662
 H32 H 0.95415 0.33187 0.16056
 H33 H 0.91819 0.29469 0.08930
 Cu34 Cu 0.90273 0.37453 0.15221
 Cu35 Cu 0.87504 0.34504 0.09603
 Cu36 Cu 0.84633 0.40371 0.12479
 N37 N 0.88623 0.40737 0.16824
 N38 N 0.86418 0.41867 0.15738
 C39 C 0.85698 0.44086 0.17237
 C40 C 0.87551 0.44356 0.19373
 C41 C 0.89379 0.42200 0.19054
 H42 H 0.83956 0.45405 0.16813
 H43 H 0.91123 0.41739 0.20354
 N44 N 0.83118 0.38556 0.09183
 N45 N 0.84203 0.36311 0.08097
 C46 C 0.82710 0.35569 0.05883
 C47 C 0.80593 0.37436 0.05565
 C48 C 0.80908 0.39300 0.07686
 H49 H 0.83126 0.33805 0.04589
 H50 H 0.79614 0.41065 0.08101
 H51 H 0.88098 0.38537 0.10834
 H52 H 0.85878 0.36334 0.13077
 N53 N 0.40731 0.16911 -0.11349
 N54 N 0.41813 0.15781 -0.13555
 C55 C 0.44044 0.17247 -0.14312
 C56 C 0.44367 0.19403 -0.12482
 C57 C 0.42233 0.19131 -0.10629
 H58 H 0.45341 0.16792 -0.16058
 H59 H 0.41809 0.20452 -0.08889
 Cu60 Cu 0.40199 0.12505 -0.15213
 Cu61 Cu 0.37461 0.15426 -0.09572
 Cu62 Cu 0.34541 0.09590 -0.12481
 N63 N 0.38535 0.09228 -0.16822
 N64 N 0.36322 0.08100 -0.15742
 C65 C 0.35601 0.05879 -0.17239
 C66 C 0.37462 0.05604 -0.19367
 C67 C 0.39295 0.07759 -0.19045
 H68 H 0.33856 0.04559 -0.16817
 H69 H 0.41047 0.08214 -0.20337
 N70 N 0.33039 0.11399 -0.09181
 N71 N 0.34153 0.13622 -0.08074
 C72 C 0.32667 0.14361 -0.05857
 C73 C 0.30523 0.12516 -0.05561
 C74 C 0.30815 0.10666 -0.07697
 H75 H 0.33103 0.16111 -0.04548
 H76 H 0.29500 0.08919 -0.08129
 H77 H 0.38024 0.11394 -0.10831
 H78 H 0.35816 0.13622 -0.13055
 N79 N 0.09195 0.83072 0.38635
 N80 N 0.08067 0.84249 0.36473
 C81 C 0.05837 0.82782 0.35712
 C82 C 0.05559 0.80575 0.37499
 C83 C 0.07723 0.80822 0.39328
 H84 H 0.04515 0.83274 0.33991
 H85 H 0.08190 0.79465 0.41033
 Cu86 Cu 0.09685 0.87558 0.34880
 Cu87 Cu 0.12481 0.84547 0.40413
 Cu88 Cu 0.15354 0.90447 0.37538
 N89 N 0.11315 0.90829 0.33222
 N90 N 0.13543 0.91943 0.34284
 C91 C 0.14283 0.94143 0.32763
 C92 C 0.12421 0.94421 0.30638
 C93 C 0.10564 0.92288 0.30983
 H94 H 0.16046 0.95444 0.33165
 H95 H 0.08807 0.91841 0.29695
 N96 N 0.16877 0.88614 0.40824
 N97 N 0.15797 0.86358 0.41908
 C98 C 0.17296 0.85615 0.44119
 C99 C 0.19413 0.87490 0.44432
 C100 C 0.19089 0.89362 0.42316
 H101 H 0.16879 0.83852 0.45419
 H102 H 0.20370 0.91142 0.41907
 H103 H 0.11937 0.88601 0.39232
 H104 H 0.14101 0.86416 0.36940
 N105 N 0.12427 0.12561 0.12517
 N106 N 0.37525 0.87497 0.62511
 N107 N 0.87572 0.62497 0.37474
 N108 N 0.62518 0.37521 -0.12552
 N109 N 0.00402 0.26607 0.14473
 C110 C 0.00421 0.24607 0.12526
 N111 N -0.01568 0.24591 0.10574
 N112 N -0.03518 0.26518 0.10567
 C113 C -0.03546 0.28528 0.12513
 N114 N -0.01549 0.28536 0.14467
 C115 C 0.02517 0.22526 0.12531
 C116 C 0.04269 0.20770 0.12527
 C117 C 0.06348 0.18673 0.12521
 N118 N 0.06365 0.16686 0.14480
 N119 N 0.08299 0.14743 0.14472
 C120 C 0.10299 0.14694 0.12515
 N121 N 0.10249 0.16705 0.10559
 N122 N 0.08320 0.18653 0.10558
 N123 N 0.51512 0.75438 0.60566
 C124 C 0.49539 0.75445 0.62536
 N125 N 0.49570 0.73459 0.64504
 N126 N 0.51514 0.71523 0.64499
 C127 C 0.53490 0.71508 0.62526
 N128 N 0.53454 0.73502 0.60561
 C129 C 0.47444 0.77530 0.62535
 C130 C 0.45689 0.79286 0.62529
 C131 C 0.43606 0.81382 0.62522
 N132 N 0.41633 0.81404 0.60560
 N133 N 0.39702 0.83352 0.60559
 C134 C 0.39652 0.85361 0.62512
 N135 N 0.41653 0.85309 0.64469
 N136 N 0.43588 0.83366 0.64478
 N137 N 0.99579 0.76612 0.35521
 C138 C 0.99589 0.74578 0.37439
 N139 N 1.01598 0.74547 0.39371
 N140 N 1.03537 0.76492 0.39387
 C141 C 1.03534 0.78537 0.37471
 N142 N 1.01518 0.78558 0.35536
 C143 C 0.97495 0.72487 0.37433
 C144 C 0.95740 0.70726 0.37440
 C145 C 0.93655 0.68626 0.37451
 N146 N 0.93640 0.66635 0.35502
 N147 N 0.91704 0.64688 0.35516
 C148 C 0.89700 0.64637 0.37470
 N149 N 0.89747 0.66654 0.39416
 N150 N 0.91679 0.68606 0.39411
 N151 N 0.50450 0.23468 -0.14487
 C152 C 0.50485 0.25462 -0.12533
 N153 N 0.48511 0.25464 -0.10564
 N154 N 0.46561 0.23531 -0.10548
 C155 C 0.46520 0.21531 -0.12501
 N156 N 0.48499 0.21534 -0.14471
 C157 C 0.52582 0.27548 -0.12548
 C158 C 0.54338 0.29306 -0.12552
 C159 C 0.56425 0.31403 -0.12552
 N160 N 0.58402 0.31421 -0.10594
 N161 N 0.60336 0.33370 -0.10598
 C162 C 0.60386 0.35385 -0.12550
 N163 N 0.58380 0.35337 -0.14502
 N164 N 0.56441 0.33393 -0.14507
 N165 N 0.10444 -0.01493 0.24563
 C166 C 0.12427 0.00476 0.24517
 N167 N 0.14412 0.00449 0.26474
 N168 N 0.14411 -0.01486 0.28423
 C169 C 0.12425 -0.03458 0.28479
 N170 N 0.10443 -0.03429 0.26512
 C171 C 0.12420 0.02574 0.22434
 C172 C 0.12420 0.04342 0.20688
 C173 C 0.12426 0.06445 0.18610
 N174 N 0.10472 0.08429 0.18594
 N175 N 0.10478 0.10374 0.16656
 C176 C 0.12430 0.10428 0.14651
 N177 N 0.14383 0.08420 0.14701
 N178 N 0.14386 0.06470 0.16635
 N179 N 0.60525 0.51572 -0.24618
 C180 C 0.62494 0.49594 -0.24580
 N181 N 0.64473 0.49619 -0.26542
 N182 N 0.64483 0.51560 -0.28486
 C183 C 0.62513 0.53546 -0.28534
 N184 N 0.60534 0.53515 -0.26562
 C185 C 0.62489 0.47503 -0.22485
 C186 C 0.62495 0.45744 -0.20729
 C187 C 0.62503 0.43646 -0.18641
 N188 N 0.64469 0.43624 -0.16670
 N189 N 0.64470 0.41674 -0.14736
 C190 C 0.62515 0.39661 -0.14681
 N191 N 0.60556 0.39714 -0.16679
 N192 N 0.60546 0.41659 -0.18617
 N193 N 0.39478 1.01537 0.74568
 C194 C 0.37519 0.99544 0.74530
 N195 N 0.35543 0.99542 0.76496
 N196 N 0.35525 1.01475 0.78442
 C197 C 0.37483 1.03474 0.78487
 N198 N 0.39461 1.03471 0.76515
 C199 C 0.37535 0.97459 0.72436
 C200 C 0.37539 0.95702 0.70682
 C201 C 0.37536 0.93608 0.68597
 N202 N 0.35575 0.93587 0.66622
 N203 N 0.35575 0.91641 0.64690
 C204 C 0.37526 0.89630 0.64641
 N205 N 0.39480 0.89681 0.66644
 N206 N 0.39489 0.91623 0.68581
 N207 N 0.85625 0.50414 0.23505
 C208 C 0.87592 0.50416 0.25481
 N209 N 0.89546 0.48422 0.25453
 N210 N 0.89533 0.46488 0.23507
 C211 C 0.87566 0.46483 0.21524
 N212 N 0.85612 0.48481 0.21559
 C213 C 0.87604 0.52507 0.27571
 C214 C 0.87603 0.54269 0.29320
 C215 C 0.87594 0.56370 0.31401
 N216 N 0.85629 0.56390 0.33372
 N217 N 0.85626 0.58341 0.35300
 C218 C 0.87577 0.60358 0.35349
 N219 N 0.89535 0.60307 0.33349
 N220 N 0.89548 0.58360 0.31417
 N221 N 0.26428 0.14508 0.00485
 C222 C 0.24439 0.12544 0.00502
 N223 N 0.24450 0.10570 -0.01472
 N224 N 0.26390 0.10561 -0.03406
 C225 C 0.28385 0.12525 -0.03429
 N226 N 0.28368 0.14498 -0.01449
 C227 C 0.22352 0.12553 0.02586
 C228 C 0.20598 0.12558 0.04337
 C229 C 0.18513 0.12561 0.06423
 N230 N 0.18492 0.10596 0.08403
 N231 N 0.16554 0.10602 0.10339
 C232 C 0.14553 0.12562 0.10386
 N233 N 0.14605 0.14522 0.08379
 N234 N 0.16539 0.14526 0.06439
 N235 N 0.73538 0.64432 0.49482
 C236 C 0.75531 0.62478 0.49481
 N237 N 0.75527 0.60523 0.51480
 N238 N 0.73591 0.60523 0.53420
 C239 C 0.71594 0.62479 0.53427
 N240 N 0.71602 0.64433 0.51422
 C241 C 0.77620 0.62480 0.47393
 C242 C 0.79376 0.62484 0.45641
 C243 C 0.81468 0.62488 0.43556
 N244 N 0.83447 0.64455 0.43539
 N245 N 0.85386 0.64454 0.41603
 C246 C 0.85439 0.62494 0.39600
 N247 N 0.83434 0.60532 0.39648
 N248 N 0.81491 0.60524 0.41579
 N249 N 0.76502 0.35478 -0.00504
 C250 C 0.74542 0.37466 -0.00537
 N251 N 0.74570 0.39441 0.01435
 N252 N 0.76498 0.39430 0.03382
 C253 C 0.78464 0.37443 0.03421
 N254 N 0.78431 0.35467 0.01443
 C255 C 0.72461 0.37476 -0.02631
 C256 C 0.70710 0.37486 -0.04386
 C257 C 0.68621 0.37496 -0.06472
 N258 N 0.66635 0.35538 -0.06487
 N259 N 0.64697 0.35551 -0.08423
 C260 C 0.64651 0.37514 -0.10427
 N261 N 0.66663 0.39469 -0.10381
 N262 N 0.68606 0.39465 -0.08450
 N263 N 0.25468 0.89488 0.48524
 C264 C 0.25508 0.87501 0.50490
 N265 N 0.23544 0.85513 0.50467
 N266 N 0.21598 0.85510 0.48537
 C267 C 0.21552 0.87497 0.46566
 N268 N 0.23523 0.89486 0.46594
 C269 C 0.27599 0.87506 0.52574
 C270 C 0.29353 0.87508 0.54326
 C271 C 0.31440 0.87507 0.56413
 N272 N 0.33415 0.85543 0.56432
 N273 N 0.35348 0.85544 0.58373
 C274 C 0.35398 0.87499 0.60380
 N275 N 0.33396 0.89459 0.60330
 N276 N 0.31459 0.89467 0.58394
   
