data_POSCAR
  _audit_creation_date              2014-09-24
  _audit_creation_method            'ToBaCCo'
  _symmetry_space_group_name_H-M    'P1'
  _symmetry_Int_Tables_number       1
  _symmetry_cell_setting            triclinic
  loop_
  _symmetry_equiv_pos_as_xyz
 x,y,z
_cell_length_a 29.1659
_cell_length_b 29.0957
_cell_length_c 35.6296
_cell_angle_alpha 89.084100
_cell_angle_beta 90.002500
_cell_angle_gamma 90.083100
loop_
  _atom_site_label
  _atom_site_type_symbol
  _atom_site_fract_x
  _atom_site_fract_y
  _atom_site_fract_z
C1 C 1.17912 0.26199 0.30367
 H2 H 1.17456 0.22515 0.30229
 C3 C 1.15340 0.28728 0.32898
 H4 H 1.12889 0.26948 0.34682
 C5 C 1.21818 0.32924 0.28301
 H6 H 1.24469 0.34521 0.26613
 C7 C 1.19316 0.35593 0.30797
 H8 H 1.20024 0.39239 0.30943
 N9 N 1.21058 0.28317 0.28119
 C10 C 1.23104 0.17510 0.19997
 H11 H 1.26752 0.16972 0.20335
 C12 C 1.20662 0.14998 0.17354
 H13 H 1.22467 0.12501 0.15688
 C14 C 1.16392 0.21574 0.21670
 H15 H 1.14773 0.24248 0.23264
 C16 C 1.13812 0.19128 0.19066
 H17 H 1.10206 0.19915 0.18736
 Zn18 Zn 1.24690 0.24447 0.25134
 N19 N 1.20957 0.20743 0.22069
 C20 C 1.26368 0.16651 0.29744
 N21 N 1.28084 0.20788 0.28594
 C22 C 1.31695 0.22728 0.30382
 C23 C 1.33799 0.20458 0.33405
 C24 C 1.28287 0.14302 0.32821
 C25 C 1.26220 0.31239 0.19729
 C26 C 1.28601 0.33950 0.17121
 C27 C 1.35475 0.29673 0.18606
 C28 C 1.32978 0.27116 0.21276
 N29 N 1.28439 0.27976 0.21811
 H30 H 1.23374 0.15260 0.28375
 H31 H 1.32860 0.26120 0.29536
 H32 H 1.36662 0.22137 0.34754
 H33 H 1.26783 0.11051 0.33692
 H34 H 1.22575 0.31738 0.20105
 H35 H 1.26766 0.36547 0.15513
 H36 H 1.39076 0.28939 0.18186
 H37 H 1.34641 0.24383 0.22847
 C38 C 1.15961 0.15840 0.16820
 C39 C 1.16058 0.33486 0.33165
 C40 C 1.33282 0.33169 0.16519
 C41 C 1.32063 0.16199 0.34738
 C42 C 0.67795 -0.24341 0.30623
 H43 H 0.67637 -0.28053 0.30533
 C44 C 0.65248 -0.21986 0.33297
 H45 H 0.63115 -0.23917 0.35248
 C46 C 0.70945 -0.17354 0.28276
 H47 H 0.73265 -0.15573 0.26389
 C48 C 0.68466 -0.14865 0.30901
 H49 H 0.68874 -0.11168 0.30953
 N50 N 0.70590 -0.22008 0.28200
 C51 C 0.73063 -0.32276 0.19691
 H52 H 0.76741 -0.32655 0.19933
 C53 C 0.70633 -0.34916 0.17132
 H54 H 0.72458 -0.37346 0.15414
 C55 C 0.66244 -0.28498 0.21531
 H56 H 0.64569 -0.25932 0.23207
 C57 C 0.63699 -0.30975 0.18927
 H58 H 0.60056 -0.30342 0.18647
 Zn59 Zn 0.74394 -0.25511 0.25057
 N60 N 0.70839 -0.29192 0.21862
 C61 C 0.77891 -0.33792 0.28380
 N62 N 0.78094 -0.29122 0.28282
 C63 C 0.80800 -0.26776 0.30696
 C64 C 0.83524 -0.29128 0.33298
 C65 C 0.80556 -0.36290 0.30948
 C66 C 0.75886 -0.18841 0.19478
 C67 C 0.78379 -0.16119 0.16944
 C68 C 0.85371 -0.19332 0.19493
 C69 C 0.82739 -0.21989 0.21986
 N70 N 0.78084 -0.21688 0.21943
 H71 H 0.75598 -0.35593 0.26532
 H72 H 0.80815 -0.23057 0.30606
 H73 H 0.85640 -0.27177 0.35196
 H74 H 0.80324 -0.40005 0.31002
 H75 H 0.72178 -0.18730 0.19458
 H76 H 0.76542 -0.13908 0.14991
 H77 H 0.89067 -0.19666 0.19546
 H78 H 0.84426 -0.24367 0.23888
 C79 C 0.65903 -0.34234 0.16702
 C80 C 0.65621 -0.17186 0.33498
 C81 C 0.83191 -0.16367 0.16908
 C82 C 0.83412 -0.33952 0.33458
 C83 C 0.66331 0.28580 -0.21617
 H84 H 0.64662 0.25997 -0.23284
 C85 C 0.63776 0.31068 -0.19027
 H86 H 0.60132 0.30425 -0.18753
 C87 C 0.73141 0.32390 -0.19779
 H88 H 0.76820 0.32779 -0.20011
 C89 C 0.70699 0.35042 -0.17235
 H90 H 0.72519 0.37491 -0.15526
 N91 N 0.70929 0.29281 -0.21942
 C92 C 0.71068 0.17378 -0.28355
 H93 H 0.73367 0.15604 -0.26450
 C94 C 0.68618 0.14880 -0.31004
 H95 H 0.69026 0.11184 -0.31053
 C96 C 0.67940 0.24352 -0.30723
 H97 H 0.67780 0.28064 -0.30636
 C98 C 0.65420 0.21988 -0.33418
 H99 H 0.63304 0.23913 -0.35380
 Zn100 Zn 0.74509 0.25557 -0.25109
 N101 N 0.70713 0.22031 -0.28278
 C102 C 0.75927 0.18917 -0.19465
 N103 N 0.78155 0.21739 -0.21937
 C104 C 0.82813 0.22044 -0.21943
 C105 C 0.85412 0.19427 -0.19400
 C106 C 0.78389 0.16238 -0.16878
 C107 C 0.78097 0.33813 -0.28465
 C108 C 0.80777 0.36290 -0.31044
 C109 C 0.83723 0.29101 -0.33345
 C110 C 0.80984 0.26780 -0.30727
 N111 N 0.78273 0.29145 -0.28337
 H112 H 0.72219 0.18798 -0.19473
 H113 H 0.84526 0.24397 -0.23853
 H114 H 0.89109 0.19769 -0.19426
 H115 H 0.76527 0.14051 -0.14919
 H116 H 0.75809 0.35632 -0.26630
 H117 H 0.80526 0.40005 -0.31082
 H118 H 0.85825 0.27080 -0.35203
 H119 H 0.80987 0.23062 -0.30611
 C120 C 0.65794 0.17188 -0.33621
 C121 C 0.65967 0.34352 -0.16808
 C122 C 0.83640 0.33947 -0.33572
 C123 C 0.83201 0.16497 -0.16799
 C124 C 1.17144 -0.23180 -0.19941
 H125 H 1.16701 -0.26849 -0.20233
 C126 C 1.14523 -0.20813 -0.17331
 H127 H 1.12041 -0.22682 -0.15636
 C128 C 1.21087 -0.16339 -0.21680
 H129 H 1.23717 -0.14645 -0.23336
 C130 C 1.18624 -0.13858 -0.19023
 H131 H 1.19330 -0.10234 -0.18681
 N132 N 1.20320 -0.20920 -0.22069
 C133 C 1.22938 -0.31547 -0.30219
 H134 H 1.26621 -0.31780 -0.29918
 C135 C 1.20665 -0.34414 -0.32698
 H136 H 1.22619 -0.36865 -0.34300
 C137 C 1.15958 -0.27886 -0.28629
 H138 H 1.14167 -0.25252 -0.27111
 C139 C 1.13561 -0.30605 -0.31163
 H140 H 1.09911 -0.30097 -0.31537
 Zn141 Zn 1.24084 -0.24505 -0.25179
 N142 N 1.20561 -0.28423 -0.28197
 C143 C 1.27351 -0.32653 -0.21589
 N144 N 1.27944 -0.28025 -0.21933
 C145 C 1.30987 -0.25776 -0.19724
 C146 C 1.33620 -0.28201 -0.17075
 C147 C 1.29921 -0.35209 -0.18997
 C148 C 1.24972 -0.18184 -0.31103
 C149 C 1.27161 -0.15851 -0.34065
 C150 C 1.34387 -0.18857 -0.31809
 C151 C 1.32062 -0.21138 -0.28903
 N152 N 1.27434 -0.20783 -0.28615
 H153 H 1.24777 -0.34372 -0.23230
 H154 H 1.31313 -0.22080 -0.19978
 H155 H 1.35992 -0.26333 -0.15327
 H156 H 1.29338 -0.38877 -0.18754
 H157 H 1.21279 -0.18038 -0.30849
 H158 H 1.25131 -0.13856 -0.36043
 H159 H 1.38069 -0.19253 -0.32005
 H160 H 1.33941 -0.23322 -0.26966
 C161 C 1.15931 -0.33918 -0.33221
 C162 C 1.15304 -0.16110 -0.16807
 C163 C 1.31931 -0.16216 -0.34476
 C164 C 1.33084 -0.32986 -0.16671
 C165 C 0.27501 0.17132 0.69788
 H166 H 0.23829 0.16651 0.69984
 C167 C 0.30083 0.14339 0.67443
 H168 H 0.28365 0.11715 0.65841
 C169 C 0.34149 0.21279 0.71519
 H170 H 0.35705 0.24057 0.73040
 C171 C 0.36848 0.18626 0.69145
 H172 H 0.40479 0.19356 0.68905
 N173 N 0.29565 0.20470 0.71819
 C174 C 0.19139 0.22941 0.80323
 H175 H 0.18958 0.26648 0.80083
 C176 C 0.16398 0.20611 0.82933
 H177 H 0.14111 0.22592 0.84671
 C178 C 0.22462 0.15948 0.78383
 H179 H 0.24922 0.14154 0.76683
 C180 C 0.19780 0.13467 0.80957
 H181 H 0.20190 0.09771 0.81143
 Zn182 Zn 0.25763 0.24206 0.74831
 N183 N 0.22065 0.20597 0.78092
 C184 C 0.17435 0.27260 0.71416
 N185 N 0.22070 0.27775 0.71539
 C186 C 0.24272 0.30751 0.69177
 C187 C 0.21802 0.33393 0.66576
 C188 C 0.14825 0.29838 0.68856
 C189 C 0.32601 0.26075 0.80097
 C190 C 0.35069 0.28676 0.82661
 C191 C 0.30498 0.35290 0.80910
 C192 C 0.28197 0.32588 0.78299
 N193 N 0.29283 0.28067 0.77944
 H194 H 0.15755 0.24796 0.73253
 H195 H 0.27967 0.31051 0.69307
 H196 H 0.23641 0.35726 0.64717
 H197 H 0.11145 0.29349 0.68785
 H198 H 0.33293 0.22441 0.79847
 H199 H 0.37689 0.27024 0.84359
 H200 H 0.29554 0.38865 0.81206
 H201 H 0.25445 0.34066 0.76648
 C202 C 0.16700 0.15795 0.83303
 C203 C 0.34817 0.15094 0.67079
 C204 C 0.33986 0.33330 0.83122
 C205 C 0.17009 0.32944 0.66379
 C206 C 0.77268 0.67487 0.70044
 H207 H 0.73566 0.67287 0.70157
 C208 C 0.79676 0.64897 0.67441
 H209 H 0.77782 0.62679 0.65585
 C210 C 0.84171 0.70811 0.72232
 H211 H 0.85890 0.73228 0.74026
 C212 C 0.86722 0.68285 0.69661
 H213 H 0.90404 0.68749 0.69545
 N214 N 0.79527 0.70399 0.72347
 C215 C 0.68649 0.73242 0.80366
 H216 H 0.68328 0.76915 0.79924
 C217 C 0.65684 0.70959 0.82836
 H218 H 0.63087 0.72934 0.84262
 C219 C 0.72542 0.66304 0.79087
 H220 H 0.75253 0.64524 0.77641
 C221 C 0.69773 0.63907 0.81656
 H222 H 0.70376 0.60270 0.82118
 Zn223 Zn 0.75842 0.74305 0.75263
 N224 N 0.71922 0.70886 0.78486
 C225 C 0.67763 0.77510 0.71603
 N226 N 0.72400 0.77914 0.71825
 C227 C 0.74760 0.80733 0.69433
 C228 C 0.72438 0.83402 0.66758
 C229 C 0.65303 0.80128 0.68987
 C230 C 0.82164 0.75889 0.80937
 C231 C 0.84623 0.78411 0.83558
 C232 C 0.81461 0.85384 0.80851
 C233 C 0.79065 0.82723 0.78275
 N234 N 0.79453 0.78064 0.78369
 H235 H 0.65955 0.75096 0.73394
 H236 H 0.78460 0.80901 0.69610
 H237 H 0.74383 0.85638 0.64893
 H238 H 0.61614 0.79742 0.68861
 H239 H 0.82340 0.72174 0.80989
 H240 H 0.86711 0.76591 0.85605
 H241 H 0.81045 0.89081 0.80770
 H242 H 0.76791 0.84383 0.76284
 C243 C 0.66253 0.66226 0.83561
 C244 C 0.84464 0.65340 0.67172
 C245 C 0.84247 0.83225 0.83568
 C246 C 0.67639 0.83128 0.66522
 C247 C 0.78775 0.17301 0.21756
 H248 H 0.76505 0.15603 0.23731
 C249 C 0.81249 0.14680 0.19207
 H250 H 0.80889 0.10976 0.19292
 C251 C 0.81813 0.24186 0.19120
 H252 H 0.81942 0.27903 0.19070
 C253 C 0.84348 0.21705 0.16525
 H254 H 0.86443 0.23557 0.14498
 N255 N 0.79100 0.21966 0.21666
 C256 C 0.67233 0.22236 0.28151
 H257 H 0.65459 0.24586 0.26284
 C258 C 0.64711 0.19577 0.30709
 H259 H 0.61011 0.19876 0.30731
 C260 C 0.74196 0.19180 0.30531
 H261 H 0.77903 0.19097 0.30463
 C262 C 0.71814 0.16468 0.33140
 H263 H 0.73728 0.14289 0.35066
 Zn264 Zn 0.75435 0.25649 0.24783
 N265 N 0.71887 0.21952 0.28079
 C266 C 0.68572 0.26816 0.19438
 N267 N 0.71605 0.29165 0.21583
 C268 C 0.72026 0.33812 0.21274
 C269 C 0.69290 0.36282 0.18734
 C270 C 0.65685 0.29157 0.16947
 C271 C 0.83738 0.29113 0.27877
 C272 C 0.86301 0.31595 0.30471
 C273 C 0.79252 0.34773 0.32864
 C274 C 0.76830 0.32231 0.30232
 N275 N 0.79087 0.29453 0.27824
 H276 H 0.68398 0.23108 0.19673
 H277 H 0.74545 0.35595 0.22935
 H278 H 0.69692 0.39974 0.18476
 H279 H 0.63291 0.27230 0.15259
 H280 H 0.85459 0.26802 0.26000
 H281 H 0.89991 0.31201 0.30521
 H282 H 0.77365 0.36895 0.34795
 H283 H 0.73124 0.32375 0.30166
 C284 C 0.67003 0.16651 0.33254
 C285 C 0.84049 0.16884 0.16520
 C286 C 0.84051 0.34421 0.33050
 C287 C 0.66058 0.33943 0.16554
 C288 C 0.26972 0.69221 0.19894
 H289 H 0.23276 0.69107 0.20141
 C290 C 0.29176 0.66503 0.17253
 H291 H 0.27134 0.64294 0.15494
 C292 C 0.34068 0.72361 0.21833
 H293 H 0.35951 0.74732 0.23556
 C294 C 0.36418 0.69695 0.19226
 H295 H 0.40107 0.70019 0.19013
 N296 N 0.29424 0.72079 0.22116
 C297 C 0.18929 0.74362 0.30589
 H298 H 0.18397 0.78021 0.30230
 C299 C 0.16159 0.71832 0.33070
 H300 H 0.13504 0.73574 0.34622
 C301 C 0.23111 0.67672 0.29056
 H302 H 0.25858 0.66078 0.27514
 C303 C 0.20496 0.65034 0.31579
 H304 H 0.21229 0.61405 0.31933
 Zn305 Zn 0.25961 0.75900 0.25320
 N306 N 0.22279 0.72247 0.28600
 C307 C 0.17685 0.78520 0.21680
 N308 N 0.22204 0.79559 0.22112
 C309 C 0.24233 0.82914 0.19988
 C310 C 0.21660 0.85499 0.17411
 C311 C 0.15011 0.80943 0.19067
 C312 C 0.32918 0.77351 0.30588
 C313 C 0.35732 0.79783 0.33035
 C314 C 0.32091 0.86815 0.30931
 C315 C 0.29354 0.84234 0.28519
 N316 N 0.29828 0.79589 0.28370
 H317 H 0.16175 0.75711 0.23269
 H318 H 0.27870 0.83552 0.20269
 H319 H 0.23338 0.88151 0.15742
 H320 H 0.11434 0.80034 0.18727
 H321 H 0.33169 0.73646 0.30476
 H322 H 0.38133 0.77854 0.34761
 H323 H 0.31578 0.90500 0.30994
 H324 H 0.26772 0.85953 0.26843
 C325 C 0.16951 0.67111 0.33607
 C326 C 0.33963 0.66742 0.16864
 C327 C 0.35335 0.84607 0.33282
 C328 C 0.16997 0.84491 0.16904
 O329 O 1.08516 0.05479 0.02380
 O330 O 0.91039 -0.05097 0.02889
 O331 O 0.94505 0.08925 0.02335
 O332 O 1.05068 -0.08587 0.02954
 O333 O 0.92006 0.02672 0.04686
 O334 O 1.07739 -0.02176 0.04699
 O335 O 0.97352 -0.07581 0.05077
 O336 O 1.02225 0.08121 0.04409
 C337 C 1.06372 0.07520 0.04879
 C338 C 0.93183 -0.07070 0.05475
 C339 C 0.92558 0.06851 0.04973
 C340 C 1.07229 -0.06323 0.05313
 O341 O 1.08430 -0.05303 -0.02444
 O342 O 0.91017 0.05315 -0.02668
 O343 O 1.05050 0.08765 -0.02878
 O344 O 0.94409 -0.08732 -0.02131
 O345 O 0.91884 -0.02482 -0.04473
 O346 O 1.07552 0.02368 -0.04777
 O347 O 1.02076 -0.08028 -0.04279
 O348 O 0.97318 0.07769 -0.04902
 Co349 Co 1.07256 0.00092 -0.00031
 Co350 Co 0.92297 0.00103 0.00103
 Co351 Co 0.99773 0.07584 -0.00231
 Co352 Co 0.99732 -0.07421 0.00377
 O353 O 0.99770 0.00087 0.00055
 C354 C 1.06198 -0.07413 -0.04855
 C355 C 0.93141 0.07282 -0.05271
 C356 C 1.07086 0.06532 -0.05323
 C357 C 0.92452 -0.06661 -0.04766
 O358 O 1.08432 0.52206 0.54510
 O359 O 0.92690 0.47444 0.54752
 O360 O 0.98064 0.57678 0.54651
 O361 O 1.02879 0.41953 0.54656
 O362 O 0.91735 0.55164 0.52613
 O363 O 1.09178 0.44500 0.52466
 O364 O 0.95123 0.41105 0.52685
 O365 O 1.05738 0.58545 0.52472
 C366 C 1.07749 0.56334 0.54997
 C367 C 0.93128 0.43263 0.55199
 C368 C 0.93922 0.57098 0.55144
 C369 C 1.07060 0.42428 0.55021
 O370 O 1.08179 0.47484 0.45202
 O371 O 0.92519 0.52316 0.45391
 O372 O 1.02798 0.57891 0.45269
 O373 O 0.97900 0.42113 0.45369
 O374 O 0.91633 0.44589 0.47536
 O375 O 1.09137 0.55189 0.47251
 O376 O 1.05604 0.41160 0.47378
 O377 O 0.95088 0.58652 0.47395
 Co378 Co 1.07918 0.49846 0.49866
 Co379 Co 0.92951 0.49875 0.50064
 Co380 Co 1.00413 0.57389 0.49953
 Co381 Co 1.00373 0.42390 0.50016
 O382 O 1.00417 0.49878 0.49973
 C383 C 1.07565 0.43329 0.44797
 C384 C 0.93018 0.56490 0.44920
 C385 C 1.06957 0.57366 0.44794
 C386 C 0.93745 0.42669 0.44960
 O387 O 0.58903 0.03087 0.54293
 O388 O 0.40387 -0.04903 0.51167
 O389 O 0.46586 0.08289 0.53401
 O390 O 0.53599 -0.07192 0.55281
 O391 O 0.43204 0.01930 0.54607
 O392 O 0.59768 -0.05257 0.52608
 O393 O 0.45964 -0.06526 0.54583
 O394 O 0.54809 0.08971 0.52258
 C395 C 0.57609 0.07172 0.54603
 C396 C 0.41851 -0.07076 0.53943
 C397 C 0.44109 0.05914 0.55523
 C398 C 0.57800 -0.07083 0.55314
 O399 O 0.58906 -0.03168 0.45653
 O400 O 0.38900 0.03618 0.48460
 O401 O 0.53003 0.07184 0.44771
 O402 O 0.46479 -0.08368 0.46965
 O403 O 0.43810 -0.01815 0.44947
 O404 O 0.59345 0.05238 0.47258
 O405 O 0.54811 -0.09068 0.47695
 O406 O 0.45055 0.06678 0.45951
 Co407 Co 0.58415 -0.00032 0.49973
 Co408 Co 0.43837 0.00200 0.49770
 Co409 Co 0.49937 0.07103 0.49200
 Co410 Co 0.50241 -0.07229 0.51033
 O411 O 0.50843 -0.00190 0.50099
 C412 C 0.57582 -0.07247 0.45336
 C413 C 0.40729 0.06817 0.46352
 C414 C 0.57220 0.07015 0.44591
 C415 C 0.44479 -0.06008 0.44443
 O416 O 0.57283 0.52397 0.04569
 O417 O 0.41530 0.47495 0.04509
 O418 O 0.47112 0.57832 0.04680
 O419 O 0.51811 0.42086 0.04528
 O420 O 0.40734 0.55328 0.02656
 O421 O 0.58114 0.44768 0.02476
 O422 O 0.44100 0.41270 0.02345
 O423 O 0.54791 0.58809 0.02547
 C424 C 0.56794 0.56547 0.05048
 C425 C 0.42083 0.43318 0.04903
 C426 C 0.42953 0.57331 0.05151
 C427 C 0.55952 0.42705 0.05004
 O428 O 0.57263 0.47827 -0.04771
 O429 O 0.41601 0.52816 -0.04719
 O430 O 0.51830 0.58218 -0.04677
 O431 O 0.47093 0.42404 -0.04813
 O432 O 0.40718 0.44984 -0.02855
 O433 O 0.58128 0.55461 -0.02677
 O434 O 0.54752 0.41425 -0.02723
 O435 O 0.44119 0.59035 -0.02494
 Co436 Co 0.56900 0.50117 -0.00099
 Co437 Co 0.41951 0.50153 -0.00103
 Co438 Co 0.49463 0.57652 0.00001
 Co439 Co 0.49442 0.42619 -0.00151
 O440 O 0.49438 0.50135 -0.00090
 C441 C 0.56776 0.43670 -0.05230
 C442 C 0.42107 0.57005 -0.05070
 C443 C 0.55962 0.57568 -0.05176
 C444 C 0.42946 0.42927 -0.05309
 N445 N 1.15609 0.10766 0.11340
 C446 C 1.13390 0.13488 0.13813
 N447 N 1.08809 0.14161 0.13363
 N448 N 1.06551 0.12217 0.10547
 C449 C 1.08794 0.09538 0.08064
 N450 N 1.13358 0.08831 0.08521
 N451 N 1.10012 0.65212 0.61948
 C452 C 1.13570 0.63374 0.63911
 N453 N 1.15107 0.59128 0.63003
 N454 N 1.13172 0.56815 0.60222
 C455 C 1.09673 0.58698 0.58220
 N456 N 1.08114 0.62924 0.59140
 N457 N 0.60636 0.16737 0.60845
 C458 C 0.63463 0.14604 0.63366
 N459 N 0.64266 0.10044 0.62988
 N460 N 0.62360 0.07717 0.60209
 C461 C 0.59564 0.09843 0.57684
 N462 N 0.58712 0.14400 0.58058
 N463 N 0.59804 0.65280 0.11961
 C464 C 0.63349 0.63250 0.13817
 N465 N 0.64636 0.58948 0.12839
 N466 N 0.62469 0.56763 0.10102
 C467 C 0.58975 0.58826 0.08212
 N468 N 0.57674 0.63118 0.09192
 N469 N 0.90516 -0.14121 0.13873
 C470 C 0.85877 -0.13715 0.14079
 N471 N 0.83716 -0.10971 0.11520
 N472 N 0.86074 -0.08778 0.08841
 C473 C 0.90693 -0.09230 0.08613
 N474 N 0.92882 -0.11923 0.11190
 N475 N 0.85966 0.40923 0.63505
 C476 C 0.86132 0.36254 0.63800
 N477 N 0.88782 0.33956 0.61308
 N478 N 0.91084 0.36198 0.58621
 C479 C 0.90850 0.40841 0.58316
 N480 N 0.88270 0.43169 0.60817
 N481 N 0.39003 -0.14257 0.62121
 C482 C 0.34379 -0.13932 0.62346
 N483 N 0.32122 -0.11470 0.59632
 N484 N 0.34422 -0.09366 0.56845
 C485 C 0.39063 -0.09680 0.56674
 N486 N 0.41288 -0.12166 0.59359
 N487 N 0.39256 0.34018 0.11649
 C488 C 0.35772 0.35897 0.13634
 N489 N 0.34464 0.40274 0.12790
 N490 N 0.36544 0.42675 0.10066
 C491 C 0.39975 0.40769 0.08047
 N492 N 0.41301 0.36401 0.08893
 N493 N 0.90504 0.14252 -0.13726
 C494 C 0.85859 0.13887 -0.13921
 N495 N 0.83674 0.11213 -0.11321
 N496 N 0.86016 0.09043 -0.08620
 C497 C 0.90643 0.09449 -0.08409
 N498 N 0.92852 0.12078 -0.11023
 N499 N 0.85851 0.58852 0.36634
 C500 C 0.86114 0.63506 0.36324
 N501 N 0.88786 0.65803 0.38793
 N502 N 0.91057 0.63551 0.41488
 C503 C 0.90748 0.58913 0.41814
 N504 N 0.88123 0.56596 0.39330
 N505 N 0.37819 0.15731 0.39386
 C506 C 0.33968 0.14031 0.37757
 N507 N 0.32151 0.10067 0.39217
 N508 N 0.34140 0.07875 0.42106
 C509 C 0.38035 0.09559 0.43656
 N510 N 0.39833 0.13518 0.42236
 N511 N 0.35222 0.59730 -0.13467
 C512 C 0.35631 0.64379 -0.13743
 N513 N 0.38286 0.66565 -0.11192
 N514 N 0.40402 0.64209 -0.08463
 C515 C 0.39952 0.59571 -0.08180
 N516 N 0.37341 0.57372 -0.10743
 N517 N 1.08565 -0.15031 -0.12754
 C518 C 1.12827 -0.13659 -0.13831
 N519 N 1.14860 -0.10153 -0.11982
 N520 N 1.12735 -0.08138 -0.09136
 C521 C 1.08482 -0.09525 -0.08059
 N522 N 1.06419 -0.12981 -0.09938
 N523 N 1.14278 0.40758 0.36351
 C524 C 1.13617 0.36152 0.36046
 N525 N 1.10836 0.33985 0.38567
 N526 N 1.08845 0.36305 0.41308
 C527 C 1.09548 0.40888 0.41632
 N528 N 1.12276 0.43087 0.39092
 N529 N 0.60503 -0.16769 0.39048
 C530 C 0.63288 -0.14615 0.36504
 N531 N 0.64074 -0.10048 0.36869
 N532 N 0.62200 -0.07736 0.39665
 C533 C 0.59454 -0.09885 0.42216
 N534 N 0.58610 -0.14446 0.41851
 N535 N 0.59829 0.34875 -0.12091
 C536 C 0.63397 0.36889 -0.13938
 N537 N 0.64687 0.41200 -0.12971
 N538 N 0.62502 0.43407 -0.10257
 C539 C 0.58983 0.41362 -0.08377
 N540 N 0.57680 0.37060 -0.09344
 N541 N 1.14447 0.08766 -0.13533
 C542 C 1.14101 0.13408 -0.13968
 N543 N 1.11280 0.15713 -0.11616
 N544 N 1.08973 0.13501 -0.08917
 C545 C 1.09374 0.08884 -0.08467
 N546 N 1.12132 0.06547 -0.10834
 N547 N 1.09885 0.65698 0.37275
 C548 C 1.14224 0.64419 0.36372
 N549 N 1.16078 0.60710 0.38164
 N550 N 1.13722 0.58420 0.40797
 C551 C 1.09397 0.59709 0.41706
 N552 N 1.07507 0.63374 0.39881
 N553 N 0.66663 0.11447 0.38771
 C554 C 0.64417 0.13947 0.36099
 N555 N 0.59758 0.14031 0.36175
 N556 N 0.57444 0.11748 0.38836
 C557 C 0.59709 0.09296 0.41522
 N558 N 0.64355 0.09172 0.41433
 N559 N 0.64618 0.59659 -0.12478
 C560 C 0.63484 0.63927 -0.13777
 N561 N 0.59701 0.65984 -0.12330
 N562 N 0.57192 0.63891 -0.09685
 C563 C 0.58408 0.59680 -0.08344
 N564 N 0.62161 0.57601 -0.09785
 N565 N 0.89106 -0.16212 -0.10795
 C566 C 0.86569 -0.14070 -0.13497
 N567 N 0.86061 -0.09431 -0.13350
 N568 N 0.87980 -0.07044 -0.10599
 C569 C 0.90476 -0.09211 -0.07889
 N570 N 0.91021 -0.13832 -0.08047
 N571 N 0.91266 0.36319 0.36338
 C572 C 0.86642 0.36783 0.36039
 N573 N 0.84407 0.39288 0.38653
 N574 N 0.86684 0.41212 0.41461
 C575 C 0.91291 0.40707 0.41770
 N576 N 0.93549 0.38248 0.39147
 N577 N 0.40838 -0.15201 0.38150
 C578 C 0.37856 -0.13003 0.35796
 N579 N 0.37351 -0.08374 0.36154
 N580 N 0.39606 -0.06091 0.38799
 C581 C 0.42492 -0.08336 0.41186
 N582 N 0.43087 -0.12926 0.40792
 N583 N 0.40760 0.34993 -0.13021
 C584 C 0.36383 0.36037 -0.14006
 N585 N 0.34200 0.39465 -0.12175
 N586 N 0.36295 0.41713 -0.09427
 C587 C 0.40667 0.40647 -0.08442
 N588 N 0.42869 0.37271 -0.10308
 N589 N 1.10731 -0.15113 0.12270
 C590 C 1.14293 -0.13021 0.14015
 N591 N 1.15426 -0.08662 0.12949
 N592 N 1.13102 -0.06487 0.10237
 C593 C 1.09586 -0.08607 0.08462
 N594 N 1.08439 -0.12957 0.09529
 N595 N 1.09713 0.35169 0.63300
 C596 C 1.14350 0.35583 0.63527
 N597 N 1.16527 0.38368 0.61001
 N598 N 1.14183 0.40604 0.58338
 C599 C 1.09563 0.40155 0.58098
 N600 N 1.07362 0.37411 0.60636
 N601 N 0.60430 -0.14143 0.63662
 C602 C 0.65087 -0.14159 0.63667
 N603 N 0.67335 -0.11725 0.60948
 N604 N 0.65019 -0.09410 0.58310
 C605 C 0.60367 -0.09431 0.58303
 N606 N 0.58114 -0.11823 0.61032
 N607 N 0.59022 0.34878 0.12798
 C608 C 0.63264 0.36422 0.13736
 N609 N 0.64998 0.40142 0.11877
 N610 N 0.62617 0.42189 0.09138
 C611 C 0.58393 0.40630 0.08189
 N612 N 0.56615 0.36962 0.10088
 N613 N 0.89016 0.16382 0.10941
 C614 C 0.86468 0.14210 0.13624
 N615 N 0.86036 0.09561 0.13493
 N616 N 0.88034 0.07193 0.10773
 C617 C 0.90538 0.09388 0.08080
 N618 N 0.91012 0.14019 0.08223
 N619 N 0.91622 0.63505 0.63774
 C620 C 0.87014 0.62963 0.64169
 N621 N 0.84741 0.60383 0.61623
 N622 N 0.86961 0.58465 0.58786
 C623 C 0.91549 0.59049 0.58378
 N624 N 0.93849 0.61581 0.60935
 N625 N 0.36047 0.08276 0.63167
 C626 C 0.37536 0.12431 0.64367
 N627 N 0.41405 0.14247 0.62822
 N628 N 0.43619 0.12062 0.60112
 C629 C 0.42089 0.07945 0.58879
 N630 N 0.38286 0.06069 0.60480
 N631 N 0.33918 0.61495 0.11464
 C632 C 0.36340 0.64081 0.13919
 N633 N 0.40970 0.64309 0.13526
 N634 N 0.43078 0.62087 0.10778
 C635 C 0.40642 0.59545 0.08310
 N636 N 0.36023 0.59275 0.08713
   
