data_POSCAR
  _audit_creation_date              2014-09-24
  _audit_creation_method            'ToBaCCo'
  _symmetry_space_group_name_H-M    'P1'
  _symmetry_Int_Tables_number       1
  _symmetry_cell_setting            triclinic
  loop_
  _symmetry_equiv_pos_as_xyz
 x,y,z
_cell_length_a 37.6282
_cell_length_b 37.3057
_cell_length_c 37.2636
_cell_angle_alpha 95.989700
_cell_angle_beta 95.919100
_cell_angle_gamma 94.945800
loop_
  _atom_site_label
  _atom_site_type_symbol
  _atom_site_fract_x
  _atom_site_fract_y
  _atom_site_fract_z
C1 C 0.71066 0.71081 0.95889
 H2 H 0.73427 0.70459 0.94613
 C3 C 0.68381 0.72753 0.94003
 H4 H 0.68736 0.73458 0.91308
 C5 C 0.67605 0.70649 1.00812
 H6 H 0.67209 0.69697 1.03387
 C7 C 0.64887 0.72372 0.99053
 H8 H 0.62473 0.72745 1.00340
 N9 N 0.70607 0.69992 0.99199
 C10 C 0.80113 0.67974 1.05982
 H11 H 0.78762 0.65849 1.07247
 C12 C 0.83722 0.69074 1.07129
 H13 H 0.85058 0.67828 1.09324
 C14 C 0.80089 0.71923 1.01399
 H15 H 0.78693 0.72923 0.99082
 C16 C 0.83732 0.73062 1.02427
 H17 H 0.85087 0.74995 1.00926
 Zn18 Zn 0.73884 0.66840 1.01079
 N19 N 0.78384 0.69345 1.03119
 C20 C 0.78135 0.63718 0.96087
 N21 N 0.74746 0.63586 0.97070
 C22 C 0.71976 0.61511 0.94991
 C23 C 0.72574 0.59485 0.91764
 C24 C 0.78819 0.61848 0.92843
 C25 C 0.71458 0.66528 1.07822
 C26 C 0.69884 0.65088 1.10642
 C27 C 0.69385 0.59164 1.07218
 C28 C 0.70945 0.60749 1.04425
 N29 N 0.71876 0.64386 1.04750
 H30 H 0.80317 0.65346 0.97761
 H31 H 0.69295 0.61495 0.95798
 H32 H 0.70362 0.57838 0.90121
 H33 H 0.81528 0.62025 0.92087
 H34 H 0.72306 0.69397 1.08053
 H35 H 0.69544 0.66930 1.13001
 H36 H 0.68613 0.56273 1.06854
 H37 H 0.71376 0.59075 1.01992
 C38 C 0.85617 0.71557 1.05269
 C39 C 0.65204 0.73344 0.95554
 C40 C 0.68749 0.61352 1.10371
 C41 C 0.76020 0.59726 0.90632
 C42 C 0.72123 0.33997 0.47542
 H43 H 0.74943 0.33734 0.48232
 C44 C 0.69576 0.31357 0.48347
 H45 H 0.70488 0.29055 0.49595
 C46 C 0.67549 0.37517 0.45444
 H47 H 0.66796 0.40000 0.44453
 C48 C 0.64904 0.34958 0.46256
 H49 H 0.62115 0.35481 0.45838
 N50 N 0.71078 0.37038 0.46198
 C51 C 0.82178 0.40178 0.47148
 H52 H 0.82423 0.42394 0.49289
 C53 C 0.85228 0.38478 0.46370
 H54 H 0.87799 0.39429 0.47902
 C55 C 0.78560 0.36181 0.42584
 H56 H 0.75945 0.35227 0.41171
 C57 C 0.81505 0.34374 0.41767
 H58 H 0.81126 0.32109 0.39652
 Zn59 Zn 0.74609 0.40968 0.46286
 N60 N 0.78925 0.39016 0.45243
 C61 C 0.73055 0.42109 0.53466
 N62 N 0.75112 0.43522 0.51060
 C63 C 0.77547 0.46456 0.52130
 C64 C 0.78185 0.47874 0.55803
 C65 C 0.73601 0.43427 0.57126
 C66 C 0.72588 0.42340 0.39170
 C67 C 0.71253 0.44265 0.36402
 C68 C 0.71078 0.49403 0.40875
 C69 C 0.72440 0.47379 0.43562
 N70 N 0.73126 0.43898 0.42673
 H71 H 0.71067 0.39846 0.52601
 H72 H 0.79107 0.47594 0.50167
 H73 H 0.80272 0.50071 0.56649
 H74 H 0.72028 0.42137 0.58996
 H75 H 0.73091 0.39558 0.38523
 H76 H 0.70763 0.42925 0.33652
 H77 H 0.70463 0.52139 0.41652
 H78 H 0.72849 0.48555 0.46366
 C79 C 0.84892 0.35513 0.43670
 C80 C 0.65920 0.31898 0.47859
 C81 C 0.70417 0.47825 0.37244
 C82 C 0.76282 0.46253 0.58364
 C83 C 0.23191 -0.13991 -0.00055
 H84 H 0.25968 -0.13581 0.01117
 C85 C 0.20750 -0.16282 0.01408
 H86 H 0.21698 -0.17641 0.03700
 C87 C 0.18605 -0.12573 -0.04382
 H88 H 0.17778 -0.11053 -0.06587
 C89 C 0.16057 -0.14841 -0.02988
 H90 H 0.13280 -0.15062 -0.04157
 N91 N 0.22089 -0.12179 -0.02880
 C92 C 0.32132 -0.09207 -0.07175
 H93 H 0.32140 -0.06293 -0.06997
 C94 C 0.35029 -0.10872 -0.08417
 H95 H 0.37257 -0.09215 -0.09210
 C96 C 0.29193 -0.14896 -0.06367
 H97 H 0.26902 -0.16461 -0.05598
 C98 C 0.32009 -0.16675 -0.07633
 H99 H 0.31860 -0.19599 -0.07788
 Zn100 Zn 0.25585 -0.08797 -0.04233
 N101 N 0.29333 -0.11222 -0.06097
 C102 C 0.30845 -0.05721 0.01449
 N103 N 0.27348 -0.05749 0.00088
 C104 C 0.24955 -0.04146 0.02075
 C105 C 0.26015 -0.02594 0.05652
 C106 C 0.32010 -0.04217 0.04995
 C107 C 0.22656 -0.08095 -0.11221
 C108 C 0.21035 -0.06436 -0.14061
 C109 C 0.21329 -0.00914 -0.09970
 C110 C 0.22998 -0.02675 -0.07227
 N111 N 0.23550 -0.06222 -0.07879
 H112 H 0.32695 -0.07082 -0.00109
 H113 H 0.22167 -0.04287 0.00966
 H114 H 0.24032 -0.01522 0.07265
 H115 H 0.34769 -0.04386 0.06073
 H116 H 0.23169 -0.10907 -0.11664
 H117 H 0.20310 -0.08039 -0.16670
 H118 H 0.20854 0.01892 -0.09331
 H119 H 0.23794 -0.01221 -0.04564
 C120 C 0.34999 -0.14655 -0.08633
 C121 C 0.17114 -0.16689 -0.00015
 C122 C 0.20255 -0.02805 -0.13452
 C123 C 0.29555 -0.02754 0.07191
 C124 C 0.21015 0.19985 0.46054
 H125 H 0.23215 0.19268 0.44558
 C126 C 0.18410 0.21998 0.44516
 H127 H 0.18656 0.22851 0.41855
 C128 C 0.17882 0.19513 0.51206
 H129 H 0.17581 0.18439 0.53742
 C130 C 0.15256 0.21568 0.49800
 H131 H 0.12998 0.22051 0.51306
 N132 N 0.20671 0.18717 0.49308
 C133 C 0.30182 0.15782 0.55394
 H134 H 0.28871 0.13490 0.56453
 C135 C 0.33814 0.16806 0.56490
 H136 H 0.35236 0.15328 0.58440
 C137 C 0.29994 0.20273 0.51341
 H138 H 0.28518 0.21527 0.49248
 C139 C 0.33650 0.21340 0.52312
 H140 H 0.34945 0.23470 0.50997
 Zn141 Zn 0.23787 0.15245 0.50749
 N142 N 0.28362 0.17475 0.52822
 C143 C 0.27807 0.12412 0.45424
 N144 N 0.24442 0.12259 0.46466
 C145 C 0.21600 0.10420 0.44276
 C146 C 0.22101 0.08672 0.40871
 C147 C 0.28398 0.10825 0.42022
 C148 C 0.21692 0.14600 0.57536
 C149 C 0.20013 0.13122 0.60269
 C150 C 0.18730 0.07459 0.56381
 C151 C 0.20415 0.09075 0.53678
 N152 N 0.21765 0.12620 0.54276
 H153 H 0.30046 0.13855 0.47177
 H154 H 0.18938 0.10389 0.45131
 H155 H 0.19836 0.07213 0.39140
 H156 H 0.31094 0.11021 0.41234
 H157 H 0.22850 0.17389 0.57967
 H158 H 0.19891 0.14801 0.62797
 H159 H 0.17545 0.04680 0.55838
 H160 H 0.20556 0.07529 0.51085
 C161 C 0.35621 0.19536 0.54855
 C162 C 0.15439 0.22741 0.46361
 C163 C 0.18434 0.09536 0.59687
 C164 C 0.25527 0.08959 0.39693
 C165 C 0.15788 0.44062 0.16386
 H166 H 0.12939 0.43456 0.16480
 C167 C 0.17461 0.42229 0.13695
 H168 H 0.15873 0.40210 0.11740
 C169 C 0.21270 0.47490 0.18793
 H170 H 0.22724 0.49546 0.20799
 C171 C 0.23048 0.45773 0.16056
 H172 H 0.25885 0.46501 0.15972
 N173 N 0.17698 0.46599 0.18896
 C174 C 0.19519 0.48515 0.28760
 H175 H 0.19807 0.45800 0.27595
 C176 C 0.20822 0.49600 0.32395
 H177 H 0.22106 0.47688 0.33964
 C178 C 0.17418 0.54243 0.28165
 H179 H 0.16048 0.56043 0.26539
 C180 C 0.18685 0.55444 0.31792
 H181 H 0.18269 0.58160 0.32889
 Zn182 Zn 0.14896 0.48746 0.22333
 N183 N 0.17703 0.50772 0.26768
 C184 C 0.13230 0.41829 0.24191
 N185 N 0.11715 0.44905 0.23499
 C186 C 0.08157 0.45161 0.23706
 C187 C 0.06033 0.42320 0.24841
 C188 C 0.11215 0.38933 0.25323
 C189 C 0.13169 0.53064 0.16798
 C190 C 0.11722 0.55874 0.15142
 C191 C 0.08560 0.57212 0.20358
 C192 C 0.10067 0.54347 0.21921
 N193 N 0.12381 0.52374 0.20155
 H194 H 0.16028 0.41619 0.23876
 H195 H 0.06974 0.47586 0.23075
 H196 H 0.03233 0.42624 0.25102
 H197 H 0.12519 0.36560 0.25944
 H198 H 0.15012 0.51502 0.15421
 H199 H 0.12474 0.56390 0.12502
 H200 H 0.06817 0.58817 0.21852
 H201 H 0.09492 0.53787 0.24603
 C202 C 0.20284 0.53059 0.34002
 C203 C 0.21130 0.43076 0.13494
 C204 C 0.09438 0.58048 0.16944
 C205 C 0.07584 0.39184 0.25745
 C206 C -0.12926 0.00886 0.24125
 H207 H -0.12563 0.02130 0.26911
 C208 C -0.15200 0.02276 0.21551
 H209 H -0.16573 0.04593 0.22425
 C210 C -0.11465 -0.03597 0.19678
 H211 H -0.09952 -0.05848 0.18963
 C212 C -0.13735 -0.02296 0.16994
 H213 H -0.13945 -0.03592 0.14232
 N214 N -0.11110 -0.01987 0.23160
 C215 C -0.08728 -0.06369 0.33392
 H216 H -0.05827 -0.06201 0.33630
 C217 C -0.10565 -0.07725 0.36107
 H218 H -0.09050 -0.08607 0.38429
 C219 C -0.14214 -0.05459 0.30038
 H220 H -0.15633 -0.04617 0.27650
 C221 C -0.16160 -0.06828 0.32668
 H222 H -0.19063 -0.06986 0.32281
 Zn223 Zn -0.07915 -0.03318 0.26922
 N224 N -0.10563 -0.05204 0.30469
 C225 C -0.05294 0.02322 0.32429
 N226 N -0.05061 0.01015 0.28927
 C227 C -0.03408 0.03082 0.26661
 C228 C -0.02123 0.06697 0.27835
 C229 C -0.04052 0.05897 0.33707
 C230 C -0.07020 -0.10267 0.24034
 C231 C -0.05251 -0.13146 0.22646
 C232 C 0.00292 -0.09209 0.23617
 C233 C -0.01587 -0.06404 0.25016
 N234 N -0.05188 -0.06970 0.25135
 H235 H -0.06680 0.00695 0.34176
 H236 H -0.03329 0.02008 0.23862
 H237 H -0.01025 0.08372 0.25932
 H238 H -0.04438 0.06920 0.36453
 H239 H -0.09879 -0.10644 0.24204
 H240 H -0.06787 -0.15723 0.21714
 H241 H 0.03145 -0.08689 0.23465
 H242 H -0.00181 -0.03772 0.25961
 C243 C -0.14334 -0.07954 0.35768
 C244 C -0.15613 0.00719 0.17905
 C245 C -0.01553 -0.12627 0.22371
 C246 C -0.02585 0.08181 0.31357
 C247 C 0.36139 0.49507 0.72278
 H248 H 0.36204 0.50672 0.75070
 C249 C 0.33755 0.50608 0.69595
 H250 H 0.31992 0.52635 0.70355
 C251 C 0.38474 0.45543 0.67914
 H252 H 0.40359 0.43608 0.67276
 C253 C 0.36174 0.46630 0.65120
 H254 H 0.36287 0.45497 0.62342
 N255 N 0.38409 0.46993 0.71411
 C256 C 0.41037 0.43117 0.81905
 H257 H 0.43939 0.43491 0.82162
 C258 C 0.39288 0.41816 0.84705
 H259 H 0.40871 0.41174 0.87107
 C260 C 0.35464 0.43466 0.78430
 H261 H 0.33978 0.44050 0.75960
 C262 C 0.33609 0.42142 0.81143
 H263 H 0.30704 0.41769 0.80733
 Zn264 Zn 0.41659 0.45901 0.75265
 N265 N 0.39112 0.43995 0.78884
 C266 C 0.43955 0.51768 0.80608
 N267 N 0.44356 0.50348 0.77179
 C268 C 0.46142 0.52327 0.74934
 C269 C 0.47462 0.55941 0.76067
 C270 C 0.45215 0.55346 0.81838
 C271 C 0.42750 0.38982 0.72566
 C272 C 0.44560 0.36132 0.71189
 C273 C 0.50010 0.40201 0.71944
 C274 C 0.48094 0.42973 0.73353
 N275 N 0.44516 0.42326 0.73568
 H276 H 0.42445 0.50222 0.82327
 H277 H 0.46348 0.51170 0.72187
 H278 H 0.48704 0.57538 0.74184
 H279 H 0.44719 0.56452 0.84525
 H280 H 0.39906 0.38547 0.72795
 H281 H 0.43072 0.33516 0.70332
 H282 H 0.52840 0.40779 0.71706
 H283 H 0.49451 0.45643 0.74216
 C284 C 0.35520 0.41334 0.84350
 C285 C 0.33775 0.49194 0.65955
 C286 C 0.48227 0.36735 0.70804
 C287 C 0.46879 0.57523 0.79518
 C288 C 0.70230 0.94235 0.71224
 H289 H 0.69285 0.92817 0.73384
 C290 C 0.71911 0.92374 0.68520
 H291 H 0.72277 0.89542 0.68651
 C292 C 0.70680 0.99563 0.68296
 H293 H 0.70096 1.02314 0.68105
 C294 C 0.72428 0.97829 0.65580
 H295 H 0.73172 0.99306 0.63376
 N296 N 0.69560 0.97743 0.71023
 C297 C 0.67608 1.04748 0.80429
 H298 H 0.65633 1.06148 0.78965
 C299 C 0.68734 1.05958 0.84067
 H300 H 0.67660 1.08340 0.85279
 C301 C 0.71162 0.99823 0.80662
 H302 H 0.72005 0.97368 0.79342
 C303 C 0.72310 1.00900 0.84346
 H304 H 0.74098 0.99278 0.85792
 Zn305 Zn 0.66357 0.99718 0.74189
 N306 N 0.68779 1.01700 0.78809
 C307 C 0.62988 0.94902 0.78379
 N308 N 0.63027 0.95814 0.74941
 C309 C 0.61055 0.93738 0.72073
 C310 C 0.58986 0.90573 0.72617
 C311 C 0.61069 0.91721 0.79020
 C312 C 0.66158 1.06497 0.71716
 C313 C 0.64774 1.09309 0.70019
 C314 C 0.58914 1.05952 0.69235
 C315 C 0.60434 1.03156 0.70912
 N316 N 0.64019 1.03447 0.72044
 H317 H 0.64517 0.96583 0.80639
 H318 H 0.61165 0.94490 0.69357
 H319 H 0.57438 0.88924 0.70326
 H320 H 0.61122 0.91013 0.81770
 H321 H 0.68973 1.06723 0.72746
 H322 H 0.66560 1.11670 0.69725
 H323 H 0.56079 1.05653 0.68267
 H324 H 0.58757 1.00745 0.71263
 C325 C 0.71024 1.03966 0.86134
 C326 C 0.72958 0.94153 0.65601
 C327 C 0.61120 1.09043 0.68704
 C328 C 0.59071 0.89502 0.76120
 C329 C -0.01505 0.22395 -0.15600
 H330 H -0.00442 0.25174 -0.15665
 C331 C -0.00532 0.19668 -0.18038
 H332 H 0.01285 0.20385 -0.19978
 C333 C -0.05002 0.18105 -0.12829
 H334 H -0.06675 0.17514 -0.10732
 C335 C -0.04030 0.15269 -0.15176
 H336 H -0.04991 0.12505 -0.14889
 N337 N -0.03700 0.21580 -0.13067
 C338 C -0.06782 0.32310 -0.09889
 H339 H -0.06021 0.32545 -0.06988
 C340 C -0.08099 0.35223 -0.11478
 H341 H -0.08360 0.37698 -0.09771
 C342 C -0.07381 0.28770 -0.15621
 H343 H -0.07152 0.26232 -0.17219
 C344 C -0.08752 0.31600 -0.17318
 H345 H -0.09515 0.31219 -0.20224
 Zn346 Zn -0.04397 0.25449 -0.09626
 N347 N -0.06361 0.29199 -0.11980
 C348 C 0.01813 0.30322 -0.07897
 N349 N 0.00239 0.27085 -0.07203
 C350 C 0.02154 0.24771 -0.05378
 C351 C 0.05829 0.25643 -0.04268
 C352 C 0.05462 0.31279 -0.06872
 C353 C -0.11110 0.22956 -0.08151
 C354 C -0.13799 0.21660 -0.06180
 C355 C -0.09458 0.22402 -0.00834
 C356 C -0.06858 0.23724 -0.02917
 N357 N -0.07713 0.23894 -0.06522
 H358 H 0.00310 0.32073 -0.09464
 H359 H 0.00876 0.22160 -0.04964
 H360 H 0.07349 0.23710 -0.02959
 H361 H 0.06674 0.33811 -0.07584
 H362 H -0.11716 0.23169 -0.11019
 H363 H -0.16455 0.20877 -0.07603
 H364 H -0.08669 0.22217 0.02015
 H365 H -0.04153 0.24560 -0.01665
 C366 C -0.09079 0.34895 -0.15246
 C367 C -0.01736 0.16042 -0.17798
 C368 C -0.12991 0.21269 -0.02470
 C369 C 0.07542 0.28886 -0.05128
 C370 C 0.44883 0.21266 0.19296
 H371 H 0.43560 0.23552 0.18456
 C372 C 0.43078 0.18767 0.21192
 H373 H 0.40397 0.19192 0.21845
 C374 C 0.49854 0.17790 0.19216
 H375 H 0.52422 0.17306 0.18325
 C376 C 0.48175 0.15261 0.21165
 H377 H 0.49513 0.12902 0.21766
 N378 N 0.48187 0.20714 0.18290
 C379 C 0.54699 0.30144 0.15931
 H380 H 0.56038 0.28698 0.13883
 C381 C 0.55773 0.33806 0.16999
 H382 H 0.57978 0.35103 0.15804
 C383 C 0.50049 0.30271 0.19756
 H384 H 0.47756 0.28907 0.20743
 C385 C 0.51000 0.33965 0.20856
 H386 H 0.49459 0.35391 0.22741
 Zn387 Zn 0.50050 0.23752 0.14965
 N388 N 0.51855 0.28456 0.17274
 C389 C 0.45002 0.27653 0.11418
 N390 N 0.46129 0.24289 0.11485
 C391 C 0.44222 0.21349 0.09485
 C392 C 0.41014 0.21740 0.07349
 C393 C 0.41775 0.28139 0.09436
 C394 C 0.56853 0.21433 0.15163
 C395 C 0.59790 0.19832 0.13969
 C396 C 0.56690 0.18867 0.07892
 C397 C 0.53763 0.20454 0.09224
 N398 N 0.53877 0.21637 0.12823
 H399 H 0.46535 0.29967 0.12994
 H400 H 0.45138 0.18692 0.09628
 H401 H 0.39497 0.19393 0.05779
 H402 H 0.40892 0.30830 0.09474
 H403 H 0.56914 0.22476 0.17991
 H404 H 0.62094 0.19645 0.15914
 H405 H 0.56543 0.17868 0.05041
 H406 H 0.51400 0.20707 0.07391
 C407 C 0.53857 0.35793 0.19417
 C408 C 0.44700 0.15678 0.22093
 C409 C 0.59726 0.18482 0.10302
 C410 C 0.39727 0.25162 0.07407
 C411 C 0.94720 0.69886 0.68534
 H412 H 0.93463 0.72274 0.67888
 C413 C 0.92950 0.67386 0.70448
 H414 H 0.90369 0.67918 0.71315
 C415 C 0.99475 0.66177 0.67953
 H416 H 1.01946 0.65628 0.66872
 C417 C 0.97819 0.63626 0.69895
 H418 H 0.99076 0.61175 0.70304
 N419 N 0.97908 0.69235 0.67297
 C420 C 1.04443 0.78770 0.65274
 H421 H 1.05679 0.77439 0.63074
 C422 C 1.05512 0.82407 0.66466
 H423 H 1.07618 0.83802 0.65213
 C424 C 1.00010 0.78648 0.69348
 H425 H 0.97792 0.77207 0.70381
 C426 C 1.00956 0.82312 0.70578
 H427 H 0.99491 0.83634 0.72605
 Zn428 Zn 0.99751 0.72432 0.64122
 N429 N 1.01696 0.76978 0.66673
 C430 C 0.94846 0.76745 0.61027
 N431 N 0.95781 0.73293 0.60857
 C432 C 0.93628 0.70510 0.58862
 C433 C 0.90339 0.71153 0.57021
 C434 C 0.91562 0.77478 0.59343
 C435 C 1.06466 0.70046 0.64021
 C436 C 1.09379 0.68515 0.62697
 C437 C 1.06200 0.67835 0.56657
 C438 C 1.03299 0.69360 0.58119
 N439 N 1.03471 0.70373 0.61758
 H440 H 0.96576 0.78939 0.62584
 H441 H 0.94400 0.67780 0.58813
 H442 H 0.88617 0.68927 0.55472
 H443 H 0.90838 0.80235 0.59582
 H444 H 1.06564 0.70945 0.66889
 H445 H 1.11701 0.68238 0.64584
 H446 H 1.06011 0.66968 0.53773
 H447 H 1.00912 0.69701 0.56358
 C448 C 1.03685 0.84257 0.69067
 C449 C 0.94475 0.64177 0.71104
 C450 C 1.09266 0.67342 0.58980
 C451 C 0.89245 0.74662 0.57364
 C452 C 0.49057 0.73717 0.35169
 H453 H 0.50170 0.76507 0.35310
 C454 C 0.50178 0.71094 0.32713
 H455 H 0.52168 0.71900 0.30974
 C456 C 0.45236 0.69288 0.37411
 H457 H 0.43366 0.68596 0.39303
 C458 C 0.46340 0.66555 0.35036
 H459 H 0.45284 0.63772 0.35099
 N460 N 0.46621 0.72785 0.37441
 C461 C 0.43083 0.83357 0.40512
 H462 H 0.43585 0.83561 0.43441
 C463 C 0.41887 0.86279 0.38837
 H464 H 0.41465 0.88714 0.40525
 C465 C 0.43034 0.79903 0.34799
 H466 H 0.43430 0.77397 0.33232
 C467 C 0.41793 0.82730 0.33011
 H468 H 0.41297 0.82343 0.30075
 Zn469 Zn 0.45607 0.76522 0.40882
 N470 N 0.43732 0.80291 0.38478
 C471 C 0.51601 0.81564 0.43278
 N472 N 0.50079 0.78201 0.43644
 C473 C 0.51981 0.75818 0.45383
 C474 C 0.55605 0.76741 0.46699
 C475 C 0.55197 0.82585 0.44529
 C476 C 0.38787 0.73753 0.41815
 C477 C 0.36032 0.72156 0.43520
 C478 C 0.40089 0.72717 0.49061
 C479 C 0.42768 0.74335 0.47249
 N480 N 0.42091 0.74733 0.43667
 H481 H 0.50119 0.83385 0.41785
 H482 H 0.50748 0.73119 0.45544
 H483 H 0.57128 0.74751 0.47907
 H484 H 0.56379 0.85222 0.44060
 H485 H 0.38327 0.74127 0.38970
 H486 H 0.33460 0.71294 0.41952
 H487 H 0.40706 0.72314 0.51885
 H488 H 0.45402 0.75182 0.48678
 C489 C 0.41251 0.86008 0.35022
 C490 C 0.48862 0.67450 0.32665
 C491 C 0.36686 0.71540 0.47169
 C492 C 0.57282 0.80121 0.46152
 C493 C 0.35904 -0.02582 0.28037
 C494 C 0.34601 -0.03525 0.24002
 C495 C 0.33048 -0.00822 0.22443
 C496 C 0.32896 0.02602 0.25100
 C497 C 0.38408 0.00927 0.28219
 C498 C 0.36852 0.03637 0.26639
 C499 C 0.32599 -0.01469 0.29753
 C500 C 0.31059 0.01288 0.28299
 H501 H 0.35072 -0.06024 0.22449
 H502 H 0.31577 0.04785 0.23835
 H503 H 0.41232 0.01122 0.29222
 H504 H 0.31894 -0.02399 0.32272
 C505 C 0.05809 1.05603 0.74822
 C506 C 0.07522 1.06871 0.71569
 C507 C 0.09957 1.04721 0.70302
 C508 C 0.10419 1.01406 0.72379
 C509 C 0.04191 1.01707 0.73556
 C510 C 0.06610 0.99494 0.72297
 C511 C 0.08993 1.05225 0.77617
 C512 C 0.11379 1.02990 0.76374
 H513 H 0.06963 1.09352 0.70444
 H514 H 0.12410 0.99644 0.71346
 H515 H 0.01442 1.00754 0.73827
 H516 H 0.09136 1.06337 0.80439
 C517 C 0.56455 0.57121 0.25175
 C518 C 0.58355 0.58454 0.22062
 C519 C 0.60765 0.56260 0.20823
 C520 C 0.61033 0.52845 0.22793
 C521 C 0.54763 0.53289 0.23737
 C522 C 0.57158 0.51025 0.22524
 C523 C 0.59500 0.56567 0.28050
 C524 C 0.61876 0.54298 0.26844
 H525 H 0.57938 0.61002 0.21009
 H526 H 0.63007 0.51053 0.21777
 H527 H 0.51977 0.52394 0.23912
 H528 H 0.59567 0.57629 0.30878
 C529 C 0.85234 0.46658 0.78275
 C530 C 0.83035 0.45714 0.74554
 C531 C 0.81581 0.48587 0.73218
 C532 C 0.82403 0.52151 0.75762
 C533 C 0.88001 0.49785 0.77761
 C534 C 0.86525 0.52658 0.76428
 C535 C 0.82641 0.48357 0.80680
 C536 C 0.81184 0.51243 0.79408
 H537 H 0.82849 0.43072 0.72997
 H538 H 0.81151 0.54471 0.74692
 H539 H 0.90872 0.49644 0.78239
 H540 H 0.82235 0.47534 0.83325
 C541 C 0.28223 0.35179 -0.04750
 C542 C 0.24314 0.33711 -0.05961
 C543 C 0.22695 0.31975 -0.03440
 C544 C 0.25190 0.31803 0.00072
 C545 C 0.28097 0.37563 -0.01141
 C546 C 0.26457 0.35804 0.01372
 C547 C 0.30066 0.31890 -0.03708
 C548 C 0.28564 0.30168 -0.01117
 H549 H 0.22863 0.34257 -0.08477
 H550 H 0.23905 0.30317 0.02106
 H551 H 0.28915 0.40445 -0.00759
 H552 H 0.32690 0.31375 -0.04482
 C553 C 0.76610 0.07633 1.07395
 C554 C 0.73146 0.09013 1.08521
 C555 C 0.71596 0.11186 1.06237
 C556 C 0.73644 0.11710 1.02923
 C557 C 0.75593 0.05713 1.03523
 C558 C 0.74045 0.07855 1.01170
 C559 C 0.78999 0.11037 1.06919
 C560 C 0.77504 0.13142 1.04524
 H561 H 0.72081 0.08403 1.11005
 H562 H 0.72384 0.13483 1.01047
 H563 H 0.76186 0.02981 1.02692
 H564 H 0.81810 0.11448 1.07995
 C565 C 0.25814 0.56214 0.55454
 C566 C 0.22423 0.57717 0.56654
 C567 C 0.20975 0.60040 0.54472
 C568 C 0.23053 0.60610 0.51183
 C569 C 0.24716 0.54470 0.51542
 C570 C 0.23300 0.56773 0.49281
 C571 C 0.28338 0.59563 0.55106
 C572 C 0.26942 0.61848 0.52844
 H573 H 0.21294 0.57048 0.59087
 H574 H 0.21880 0.62504 0.49388
 H575 H 0.25203 0.51724 0.50619
 H576 H 0.31115 0.59905 0.56298
 C577 C 0.78071 0.85911 0.46478
 C578 C 0.74068 0.84788 0.45423
 C579 C 0.72436 0.83121 0.47986
 C580 C 0.75003 0.82689 0.51387
 C581 C 0.78265 0.88254 0.50148
 C582 C 0.76629 0.86589 0.52719
 C583 C 0.79651 0.82429 0.47340
 C584 C 0.78133 0.80772 0.49961
 H585 H 0.72609 0.85437 0.42953
 H586 H 0.73688 0.81283 0.53457
 H587 H 0.79382 0.91060 0.50573
 H588 H 0.82144 0.81684 0.46388
 C589 C -0.03350 0.28694 0.38682
 C590 C -0.04210 0.24748 0.37037
 C591 C -0.01549 0.23365 0.35283
 C592 C 0.01742 0.26121 0.35262
 C593 C 0.00206 0.28727 0.41112
 C594 C 0.02878 0.27358 0.39326
 C595 C -0.02417 0.30740 0.35526
 C596 C 0.00270 0.29462 0.33753
 H597 H -0.06578 0.23085 0.37526
 H598 H 0.03892 0.25012 0.33780
 H599 H 0.00493 0.29519 0.44015
 H600 H -0.03576 0.33215 0.34977
 C601 C 1.06973 0.75979 0.07703
 C602 C 1.07921 0.72318 0.08774
 C603 C 1.05766 0.70874 0.11073
 C604 C 1.02762 0.73241 0.12049
 C605 C 1.03011 0.75327 0.06086
 C606 C 1.00795 0.73898 0.08369
 C607 C 1.06939 0.78357 0.11297
 C608 C 1.04671 0.76995 0.13546
 H609 H 1.10178 0.71023 0.07835
 H610 H 1.00997 0.72064 0.13927
 H611 H 1.02042 0.76042 0.03443
 H612 H 1.08164 0.81128 0.11737
 C613 C 0.56719 0.24554 0.56387
 C614 C 0.58149 0.21337 0.58093
 C615 C 0.56174 0.20093 0.60644
 C616 C 0.52878 0.22181 0.61232
 C617 C 0.52821 0.23278 0.54903
 C618 C 0.50787 0.22074 0.57438
 C619 C 0.56463 0.27375 0.59616
 C620 C 0.54406 0.26177 0.62128
 H621 H 0.60576 0.20196 0.57408
 H622 H 0.51259 0.21174 0.63313
 H623 H 0.51721 0.23553 0.52154
 H624 H 0.57488 0.30189 0.59680
 C625 C 0.46590 0.78325 0.86034
 C626 C 0.45709 0.74316 0.84640
 C627 C 0.48454 0.72744 0.83209
 C628 C 0.51859 0.75368 0.83257
 C629 C 0.49990 0.78446 0.88729
 C630 C 0.52750 0.76876 0.87285
 C631 C 0.47819 0.80073 0.82786
 C632 C 0.50627 0.78607 0.81377
 H633 H 0.43198 0.72792 0.84952
 H634 H 0.54081 0.74094 0.82038
 H635 H 0.50121 0.79510 0.91562
 H636 H 0.46933 0.82620 0.82066
 N637 N 0.39236 -0.11452 0.29594
 C638 C 0.40065 -0.11089 0.33259
 N639 N 0.39679 -0.07864 0.35173
 N640 N 0.38465 -0.05151 0.33503
 C641 C 0.37574 -0.05551 0.29849
 N642 N 0.38002 -0.08749 0.27927
 N643 N 0.87843 0.37443 0.79573
 C644 C 0.89542 0.37957 0.83011
 N645 N 0.89917 0.41339 0.84832
 N646 N 0.88617 0.44088 0.83293
 C647 C 0.86877 0.43563 0.79876
 N648 N 0.86526 0.40189 0.78039
 N649 N -0.00188 1.09760 0.81028
 C650 C -0.00306 1.13123 0.79952
 N651 N 0.01300 1.13881 0.76987
 N652 N 0.03049 1.11425 0.75234
 C653 C 0.03272 1.08104 0.76371
 N654 N 0.01577 1.07301 0.79278
 N655 N 0.50225 0.61145 0.31188
 C656 C 0.50363 0.64616 0.30368
 N657 N 0.52238 0.65521 0.27620
 N658 N 0.53988 0.63091 0.25832
 C659 C 0.53938 0.59648 0.26711
 N660 N 0.51992 0.58712 0.29404
 N661 N 0.52335 0.41869 0.21700
 C662 C 0.54730 0.39766 0.20269
 N663 N 0.57892 0.41401 0.19512
 N664 N 0.58644 0.44980 0.20189
 C665 C 0.56246 0.47079 0.21610
 N666 N 0.53078 0.45451 0.22357
 N667 N 0.07541 0.89964 0.69139
 C668 C 0.04477 0.88223 0.70002
 N669 N 0.02081 0.90222 0.71576
 N670 N 0.02729 0.93810 0.72263
 C671 C 0.05797 0.95543 0.71401
 N672 N 0.08198 0.93547 0.69845
 N673 N 0.88908 0.61386 0.73046
 C674 C 0.92476 0.61312 0.72784
 N675 N 0.94109 0.58434 0.73872
 N676 N 0.92244 0.55728 0.75131
 C677 C 0.88666 0.55782 0.75336
 N678 N 0.87041 0.58673 0.74288
 N679 N 0.39035 0.12496 0.23419
 C680 C 0.42678 0.12750 0.23673
 N681 N 0.44401 0.10086 0.25117
 N682 N 0.42557 0.07261 0.26203
 C683 C 0.38912 0.06972 0.25871
 N684 N 0.37191 0.09660 0.24483
 N685 N 0.30026 0.38827 -0.13370
 C686 C 0.33593 0.39918 -0.12749
 N687 N 0.35356 0.39604 -0.09443
 N688 N 0.33632 0.38206 -0.06884
 C689 C 0.30076 0.37059 -0.07533
 N690 N 0.28306 0.37417 -0.10820
 N691 N 0.80047 0.89723 0.37976
 C692 C 0.83657 0.90589 0.38594
 N693 N 0.85391 0.90033 0.41838
 N694 N 0.83599 0.88632 0.44345
 C695 C 0.80000 0.87722 0.43708
 N696 N 0.78256 0.88308 0.40478
 N697 N 0.81820 0.00842 1.11701
 C698 C 0.82256 0.02256 1.15257
 N699 N 0.80690 0.05312 1.16194
 N700 N 0.78831 0.06918 1.13704
 C701 C 0.78409 0.05521 1.10163
 N702 N 0.79938 0.02446 1.09200
 N703 N 0.28557 0.52297 0.63934
 C704 C 0.31441 0.50576 0.63077
 N705 N 0.32297 0.50444 0.59612
 N706 N 0.30401 0.52063 0.57137
 C707 C 0.27548 0.53836 0.58019
 N708 N 0.26657 0.53894 0.61461
 N709 N 0.20613 0.57401 0.39561
 C710 C 0.21180 0.54078 0.37979
 N711 N 0.22409 0.51635 0.40149
 N712 N 0.23056 0.52479 0.43735
 C713 C 0.22484 0.55798 0.45310
 N714 N 0.21264 0.58247 0.43149
 N715 N 0.70648 0.07963 0.91553
 C716 C 0.71853 0.04946 0.89907
 N717 N 0.73762 0.02854 0.92018
 N718 N 0.74425 0.03741 0.95602
 C719 C 0.73210 0.06759 0.97226
 N720 N 0.71327 0.08860 0.95126
 N721 N 0.73670 0.88474 0.61809
 C722 C 0.74282 0.92141 0.62439
 N723 N 0.75843 0.93946 0.59933
 N724 N 0.76706 0.92170 0.56905
 C725 C 0.76025 0.88513 0.56243
 N726 N 0.74515 0.86698 0.58768
 N727 N 0.25474 0.42801 0.08928
 C728 C 0.22837 0.41128 0.10573
 N729 N 0.21556 0.37672 0.09283
 N730 N 0.22814 0.35966 0.06439
 C731 C 0.25386 0.37648 0.04738
 N732 N 0.26715 0.41097 0.06049
 N733 N -0.12489 0.30245 0.40916
 C734 C -0.11981 0.33614 0.42759
 N735 N -0.08582 0.35261 0.43521
 N736 N -0.05816 0.33630 0.42387
 C737 C -0.06342 0.30275 0.40495
 N738 N -0.09731 0.28614 0.39802
 N739 N 0.37696 0.79873 0.89126
 C740 C 0.38040 0.83509 0.90082
 N741 N 0.41224 0.85420 0.89811
 N742 N 0.43939 0.83765 0.88601
 C743 C 0.43575 0.80134 0.87600
 N744 N 0.40403 0.78221 0.87899
 N745 N 1.15523 0.79708 0.04846
 C746 C 1.14456 0.81160 0.01769
 N747 N 1.10900 0.80775 0.00524
 N748 N 1.08514 0.79043 0.02312
 C749 C 1.09599 0.77630 0.05413
 N750 N 1.13148 0.77991 0.06633
 N751 N 0.64316 0.26679 0.51107
 C752 C 0.63291 0.29597 0.49516
 N753 N 0.59981 0.30655 0.49947
 N754 N 0.57835 0.28934 0.51975
 C755 C 0.58911 0.26087 0.53652
 N756 N 0.62171 0.24957 0.53131
 N757 N 0.41474 0.21857 0.53173
 C758 C 0.39567 0.20289 0.55595
 N759 N 0.41378 0.19252 0.58602
 N760 N 0.44948 0.19793 0.59180
 C761 C 0.46850 0.21341 0.56745
 N762 N 0.45042 0.22372 0.53737
 N763 N 0.91584 0.73965 0.03834
 C764 C 0.89566 0.72336 0.06139
 N765 N 0.91270 0.71228 0.09163
 N766 N 0.94832 0.71728 0.09860
 C767 C 0.96847 0.73328 0.07545
 N768 N 0.95153 0.74455 0.04525
 N769 N 0.61865 0.74331 0.89740
 C770 C 0.62112 0.74633 0.93425
 N771 N 0.59320 0.75843 0.95085
 N772 N 0.56390 0.76675 0.93143
 C773 C 0.56121 0.76303 0.89458
 N774 N 0.58926 0.75139 0.87798
 N775 N 0.11921 0.24358 0.40912
 C776 C 0.12375 0.24381 0.44578
 N777 N 0.09774 0.25603 0.46525
 N778 N 0.06815 0.26694 0.44871
 C779 C 0.06328 0.26587 0.41199
 N780 N 0.08953 0.25431 0.39256
 N781 N 0.56225 0.12583 0.66420
 C782 C 0.59738 0.11920 0.66649
 N783 N 0.62024 0.13958 0.64916
 N784 N 0.60862 0.16535 0.63020
 C785 C 0.57368 0.17217 0.62793
 N786 N 0.55064 0.15201 0.64543
 N787 N 1.05928 0.63419 0.16916
 C788 C 1.08211 0.61271 0.15326
 N789 N 1.09535 0.62241 0.12278
 N790 N 1.08676 0.65241 0.10906
 C791 C 1.06439 0.67412 0.12507
 N792 N 1.05051 0.66429 0.15527
 N793 N 0.98523 0.81132 0.19435
 C794 C 1.00288 0.84462 0.20544
 N795 N 1.03660 0.85167 0.19636
 N796 N 1.05147 0.82699 0.17592
 C797 C 1.03337 0.79413 0.16389
 N798 N 1.00016 0.78657 0.17397
 N799 N 0.53277 0.34653 0.67701
 C800 C 0.50086 0.33845 0.68972
 N801 N 0.48486 0.30399 0.68232
 N802 N 0.49964 0.27893 0.66218
 C803 C 0.53099 0.28738 0.64859
 N804 N 0.54746 0.32155 0.65675
 N805 N 0.49851 0.63628 0.78945
 C806 C 0.47545 0.61479 0.80573
 N807 N 0.45629 0.63062 0.83080
 N808 N 0.45963 0.66632 0.83908
 C809 C 0.48242 0.68786 0.82284
 N810 N 0.50217 0.67220 0.79808
 N811 N 0.00024 0.14420 0.30720
 C812 C -0.02037 0.12137 0.32466
 N813 N -0.03853 0.13580 0.35134
 N814 N -0.03659 0.17138 0.36008
 C815 C -0.01629 0.19425 0.34267
 N816 N 0.00251 0.18003 0.31628
 N817 N 0.07127 0.33485 0.28595
 C818 C 0.05522 0.36334 0.27382
 N819 N 0.02079 0.36697 0.28014
 N820 N 0.00355 0.34384 0.29877
 C821 C 0.01991 0.31603 0.31181
 N822 N 0.05398 0.31164 0.30461
 N823 N 0.58505 0.84042 0.79223
 C824 C 0.57015 0.86179 0.76863
 N825 N 0.53472 0.85499 0.75650
 N826 N 0.51463 0.82878 0.76883
 C827 C 0.52937 0.80802 0.79320
 N828 N 0.56508 0.81392 0.80416
 N829 N 0.66180 0.62251 0.15848
 C830 C 0.67012 0.59989 0.13023
 N831 N 0.65927 0.56386 0.12895
 N832 N 0.64046 0.55137 0.15437
 C833 C 0.63154 0.57450 0.18189
 N834 N 0.64279 0.61018 0.18350
 N835 N 0.14669 1.10542 0.64586
 C836 C 0.16274 1.08162 0.62440
 N837 N 0.15806 1.04580 0.62878
 N838 N 0.13825 1.03447 0.65397
 C839 C 0.12205 1.05853 0.67522
 N840 N 0.12670 1.09412 0.67058
 N841 N 0.17348 1.02137 0.84631
 C842 C 0.18394 0.98758 0.83927
 N843 N 0.17342 0.96923 0.80579
 N844 N 0.15254 0.98346 0.78103
 C845 C 0.14125 1.01665 0.78872
 N846 N 0.15240 1.03547 0.82168
 N847 N 0.67957 0.48226 0.30901
 C848 C 0.68586 0.49748 0.34414
 N849 N 0.67216 0.52919 0.35339
 N850 N 0.65218 0.54449 0.32882
 C851 C 0.64517 0.52882 0.29395
 N852 N 0.65963 0.49763 0.28437
 N853 N 0.76569 0.44612 0.64571
 C854 C 0.77322 0.47138 0.62316
 N855 N 0.79292 0.50288 0.63736
 N856 N 0.80497 0.50852 0.67266
 C857 C 0.79802 0.48273 0.69487
 N858 N 0.77802 0.45156 0.68075
 N859 N 0.33340 -0.03523 0.12739
 C860 C 0.30593 -0.01912 0.11146
 N861 N 0.28683 0.00183 0.13295
 N862 N 0.29498 0.00630 0.16900
 C863 C 0.32210 -0.01056 0.18476
 N864 N 0.34125 -0.03112 0.16322
 N865 N 0.25092 0.03645 0.35144
 C866 C 0.26249 0.07183 0.36164
 N867 N 0.28604 0.08870 0.34206
 N868 N 0.29867 0.07055 0.31420
 C869 C 0.28843 0.03475 0.30505
 N870 N 0.26391 0.01818 0.32384
 N871 N 0.79113 0.59178 0.85146
 C872 C 0.76809 0.57666 0.87272
 N873 N 0.75651 0.54097 0.86519
 N874 N 0.76868 0.52086 0.83830
 C875 C 0.79231 0.53582 0.81754
 N876 N 0.80290 0.57177 0.82424
 N877 N 0.14431 0.63884 0.60064
 C878 C 0.12292 0.65471 0.57674
 N879 N 0.13017 0.65290 0.54155
 N880 N 0.15791 0.63597 0.53096
 C881 C 0.17912 0.61996 0.55513
 N882 N 0.17164 0.62180 0.59007
 N883 N 0.63575 0.16322 1.05630
 C884 C 0.62775 0.16570 1.09124
 N885 N 0.64866 0.15030 1.11598
 N886 N 0.67632 0.13314 1.10642
 C887 C 0.68459 0.13076 1.07172
 N888 N 0.66381 0.14622 1.04675
 N889 N 0.85386 0.19024 1.02887
 C890 C 0.84524 0.19682 0.99398
 N891 N 0.81162 0.18484 0.97767
 N892 N 0.78838 0.16587 0.99479
 C893 C 0.79770 0.15817 1.02905
 N894 N 0.83070 0.17117 1.04593
 N895 N 0.34831 0.68163 0.52113
 C896 C 0.33950 0.69411 0.48878
 N897 N 0.30622 0.68374 0.47094
 N898 N 0.28309 0.66106 0.48442
 C899 C 0.29238 0.64783 0.51626
 N900 N 0.32527 0.65890 0.53452
 N901 N 0.63301 0.79188 0.49146
 C902 C 0.61228 0.80962 0.46842
 N903 N 0.62868 0.83431 0.44973
 N904 N 0.66419 0.84095 0.45361
 C905 C 0.68497 0.82331 0.47648
 N906 N 0.66874 0.79883 0.49565
 N907 N 0.13580 0.28163 -0.02042
 C908 C 0.11498 0.29659 -0.04581
 N909 N 0.13127 0.31837 -0.06743
 N910 N 0.16677 0.32510 -0.06390
 C911 C 0.18765 0.31046 -0.03851
 N912 N 0.17150 0.28870 -0.01663
 N913 N 0.35754 0.24671 0.01686
 C914 C 0.36340 0.25750 0.05306
 N915 N 0.34041 0.27902 0.06840
 N916 N 0.31324 0.29031 0.04817
 C917 C 0.30823 0.28080 0.01175
 N918 N 0.33062 0.25841 -0.00345
 N919 N 0.84834 0.74512 0.52005
 C920 C 0.85789 0.75519 0.55601
 N921 N 0.83832 0.77862 0.57402
 N922 N 0.81110 0.79260 0.55649
 C923 C 0.80260 0.78388 0.52021
 N924 N 0.82137 0.75945 0.50243
   
