data_POSCAR
  _audit_creation_date              2014-09-24
  _audit_creation_method            'ToBaCCo'
  _symmetry_space_group_name_H-M    'P1'
  _symmetry_Int_Tables_number       1
  _symmetry_cell_setting            triclinic
  loop_
  _symmetry_equiv_pos_as_xyz
 x,y,z
_cell_length_a 32.3986
_cell_length_b 32.3430
_cell_length_c 31.5617
_cell_angle_alpha 90.765500
_cell_angle_beta 89.262500
_cell_angle_gamma 119.905600
loop_
  _atom_site_label
  _atom_site_type_symbol
  _atom_site_fract_x
  _atom_site_fract_y
  _atom_site_fract_z
C1 C 0.52561 0.07268 0.05325
 H2 H 0.55829 0.07129 0.05219
 C3 C 0.52330 0.10815 0.07690
 H4 H 0.55425 0.13359 0.09455
 C5 C 0.44571 0.04103 0.03118
 H6 H 0.41596 0.01542 0.01255
 C7 C 0.44179 0.07599 0.05458
 H8 H 0.40886 0.07690 0.05380
 N9 N 0.48721 0.04004 0.03105
 C10 C 0.52022 -0.07436 0.01381
 H11 H 0.52211 -0.07579 -0.02039
 C12 C 0.52710 -0.10602 0.03833
 H13 H 0.53432 -0.13185 0.02284
 C14 C 0.50626 -0.04038 0.07550
 H15 H 0.49713 -0.01546 0.08983
 C16 C 0.51226 -0.07177 0.10117
 H17 H 0.50855 -0.07013 0.13521
 Zn18 Zn 0.49691 -0.00337 -0.00235
 N19 N 0.51029 -0.04221 0.03265
 C20 C 0.59036 0.03363 -0.03810
 N21 N 0.54863 0.03413 -0.03904
 C22 C 0.54311 0.06444 -0.06466
 C23 C 0.58011 0.09543 -0.09120
 C24 C 0.62851 0.06428 -0.06408
 C25 C 0.40165 -0.07413 -0.01207
 C26 C 0.36086 -0.10763 -0.03341
 C27 C 0.40381 -0.07971 -0.09947
 C28 C 0.44366 -0.04683 -0.07670
 N29 N 0.44191 -0.04457 -0.03382
 H30 H 0.59451 0.01019 -0.01671
 H31 H 0.50991 0.06484 -0.06403
 H32 H 0.57516 0.11982 -0.11080
 H33 H 0.66147 0.06345 -0.06304
 H34 H 0.40129 -0.07178 0.02216
 H35 H 0.32956 -0.12846 -0.01419
 H36 H 0.40874 -0.08124 -0.13322
 H37 H 0.47651 -0.02420 -0.09343
 C38 C 0.52261 -0.10525 0.08258
 C39 C 0.48113 0.11042 0.07750
 C40 C 0.36090 -0.11183 -0.07824
 C41 C 0.62360 0.09575 -0.09107
 C42 C -0.07205 0.47327 0.60809
 H43 H -0.07057 0.44058 0.60727
 C44 C -0.10533 0.47729 0.58362
 H45 H -0.12896 0.44768 0.56347
 C46 C -0.04308 0.55131 0.63584
 H47 H -0.01947 0.57958 0.65702
 C48 C -0.07590 0.55692 0.61173
 H49 H -0.07720 0.58965 0.61449
 N50 N -0.04190 0.50987 0.63360
 C51 C 0.06910 0.47352 0.65338
 H52 H 0.06644 0.46792 0.68725
 C53 C 0.10325 0.46868 0.62977
 H54 H 0.12680 0.45919 0.64557
 C55 C 0.04323 0.49506 0.59184
 H56 H 0.02053 0.50639 0.57733
 C57 C 0.07740 0.49146 0.56720
 H58 H 0.08022 0.49927 0.53368
 Zn59 Zn -0.00238 0.49717 0.66815
 N60 N 0.03976 0.48619 0.63413
 C61 C -0.04350 0.40097 0.69754
 N62 N -0.04387 0.44281 0.70027
 C63 C -0.07702 0.44671 0.72409
 C64 C -0.11154 0.40769 0.74654
 C65 C -0.07744 0.36092 0.71963
 C66 C 0.06759 0.59119 0.68556
 C67 C 0.09927 0.63002 0.71030
 C68 C 0.06435 0.58244 0.77289
 C69 C 0.03330 0.54453 0.74695
 N70 N 0.03550 0.54952 0.70412
 H71 H -0.01777 0.39813 0.67746
 H72 H -0.07691 0.48022 0.72517
 H73 H -0.13747 0.41169 0.76546
 H74 H -0.07731 0.32761 0.71647
 H75 H 0.06919 0.59385 0.65138
 H76 H 0.12535 0.66246 0.69484
 H77 H 0.06215 0.57775 0.80690
 H78 H 0.00830 0.51084 0.76108
 C79 C 0.10802 0.47833 0.58622
 C80 C -0.10798 0.51929 0.58561
 C81 C 0.09823 0.62576 0.75459
 C82 C -0.11235 0.36391 0.74419
 C83 C 0.55133 0.47962 0.39157
 H84 H 0.51706 0.44722 0.39157
 C85 C 0.58849 0.48232 0.41540
 H86 H 0.58231 0.45200 0.43425
 C87 C 0.60077 0.55825 0.36651
 H88 H 0.60571 0.58724 0.34652
 C89 C 0.63905 0.56256 0.39008
 H90 H 0.67318 0.59506 0.38817
 N91 N 0.55797 0.51717 0.36776
 C92 C 0.41011 0.47968 0.35014
 H93 H 0.40694 0.47488 0.31612
 C94 C 0.37107 0.47341 0.37441
 H95 H 0.33775 0.46362 0.35894
 C96 C 0.45815 0.50070 0.41149
 H97 H 0.49245 0.51245 0.42568
 C98 C 0.42030 0.49564 0.43682
 H99 H 0.42550 0.50274 0.47054
 Zn100 Zn 0.50548 0.50598 0.33411
 N101 N 0.45248 0.49282 0.36896
 C102 C 0.45229 0.41072 0.30063
 N103 N 0.49323 0.45358 0.29859
 C104 C 0.52989 0.46008 0.27285
 C105 C 0.52636 0.42269 0.24777
 C106 C 0.44722 0.37220 0.27597
 C107 C 0.53186 0.60171 0.32181
 C108 C 0.53840 0.64148 0.29938
 C109 C 0.51681 0.59398 0.23520
 C110 C 0.51128 0.55530 0.25879
 N111 N 0.51879 0.55979 0.30131
 H112 H 0.42409 0.40587 0.32220
 H113 H 0.56226 0.49437 0.27231
 H114 H 0.55599 0.42877 0.22741
 H115 H 0.41491 0.33799 0.27866
 H116 H 0.53666 0.60404 0.35579
 H117 H 0.54934 0.67460 0.31636
 H118 H 0.50894 0.58898 0.20168
 H119 H 0.49936 0.52127 0.24328
 C120 C 0.37620 0.48207 0.41822
 C121 C 0.63322 0.52400 0.41454
 C122 C 0.53026 0.63783 0.25547
 C123 C 0.48486 0.37784 0.24949
 C124 C 0.22095 0.47650 0.51485
 C125 C 0.19032 0.43733 0.54000
 C126 C 0.15357 0.43785 0.56335
 C127 C 0.14630 0.47711 0.56118
 C128 C 0.17649 0.51589 0.53547
 C129 C 0.21370 0.51575 0.51279
 C130 C 0.26080 0.47691 0.49110
 C131 C 0.30691 0.51641 0.49420
 C132 C 0.34452 0.51754 0.47114
 C133 C 0.33656 0.47954 0.44402
 C134 C 0.29045 0.43996 0.44092
 C135 C 0.25294 0.43844 0.46463
 H136 H 0.13061 0.40751 0.58289
 H137 H 0.17179 0.54671 0.53357
 H138 H 0.37969 0.54860 0.47377
 H139 H 0.28356 0.41021 0.42029
 H140 H 0.23672 0.54621 0.49339
 H141 H 0.31381 0.54635 0.51460
 H142 H 0.19542 0.40679 0.54216
 H143 H 0.21759 0.40773 0.46163
 C144 C 0.53234 0.79028 0.15855
 C145 C 0.56671 0.81546 0.12704
 C146 C 0.56368 0.84947 0.10239
 C147 C 0.52660 0.85946 0.10908
 C148 C 0.49257 0.83478 0.14080
 C149 C 0.49523 0.80041 0.16506
 C150 C 0.53441 0.75291 0.18400
 C151 C 0.51990 0.74601 0.22674
 C152 C 0.51917 0.70920 0.24998
 C153 C 0.53352 0.67862 0.23130
 C154 C 0.54933 0.68636 0.18890
 C155 C 0.54954 0.72286 0.16549
 H156 H 0.59060 0.86836 0.07836
 H157 H 0.46318 0.84127 0.14613
 H158 H 0.50617 0.70405 0.28233
 H159 H 0.56136 0.66404 0.17364
 H160 H 0.46751 0.78104 0.18831
 H161 H 0.50882 0.76895 0.24230
 H162 H 0.59621 0.80920 0.12159
 H163 H 0.56050 0.72673 0.13256
 C164 C 0.24364 0.78061 0.85418
 C165 C 0.27871 0.82122 0.83342
 C166 C 0.31699 0.85721 0.85576
 C167 C 0.32194 0.85403 0.90006
 C168 C 0.28515 0.81325 0.92065
 C169 C 0.24698 0.77737 0.89808
 C170 C 0.20468 0.74103 0.82987
 C171 C 0.19032 0.69337 0.83934
 C172 C 0.15527 0.65605 0.81535
 C173 C 0.13373 0.66547 0.78130
 C174 C 0.14756 0.71309 0.77219
 C175 C 0.18263 0.75046 0.79623
 H176 H 0.34146 0.88805 0.83765
 H177 H 0.28630 0.80654 0.95388
 H178 H 0.14603 0.61982 0.82272
 H179 H 0.13114 0.72145 0.74652
 H180 H 0.22020 0.74660 0.91510
 H181 H 0.20719 0.68492 0.86455
 H182 H 0.27711 0.82488 0.79951
 H183 H 0.19242 0.78677 0.78855
 C184 C 0.78425 0.52686 0.51303
 C185 C 0.77365 0.48551 0.53557
 C186 C 0.80849 0.48348 0.55945
 C187 C 0.85486 0.52278 0.56148
 C188 C 0.86530 0.56468 0.53990
 C189 C 0.83032 0.56669 0.51585
 C190 C 0.74729 0.52764 0.48624
 C191 C 0.74150 0.56792 0.48522
 C192 C 0.70499 0.56723 0.46137
 C193 C 0.67359 0.52623 0.43820
 C194 C 0.68030 0.48655 0.43836
 C195 C 0.71669 0.48726 0.46203
 H196 H 0.79904 0.45111 0.57655
 H197 H 0.90082 0.59542 0.54072
 H198 H 0.70049 0.59823 0.46200
 H199 H 0.65739 0.45487 0.42002
 H200 H 0.83963 0.59894 0.49861
 H201 H 0.76434 0.59944 0.50376
 H202 H 0.73820 0.45465 0.53491
 H203 H 0.72095 0.45611 0.46130
 C204 C 0.47757 0.22294 0.14924
 C205 C 0.51734 0.23223 0.12410
 C206 C 0.51804 0.19586 0.10043
 C207 C 0.47898 0.14924 0.10126
 C208 C 0.43860 0.14008 0.12548
 C209 C 0.43791 0.17659 0.14927
 C210 C 0.47833 0.26146 0.17595
 C211 C 0.43809 0.26708 0.17958
 C212 C 0.43986 0.30453 0.20380
 C213 C 0.48190 0.33705 0.22480
 C214 C 0.52170 0.33070 0.22183
 C215 C 0.51994 0.29341 0.19773
 H216 H 0.54921 0.20429 0.08131
 H217 H 0.40810 0.10442 0.12694
 H218 H 0.40873 0.30871 0.20530
 H219 H 0.55424 0.35444 0.23846
 H220 H 0.40691 0.16828 0.16858
 H221 H 0.40564 0.24321 0.16291
 H222 H 0.54800 0.26780 0.12262
 H223 H 0.55116 0.28937 0.19639
 C224 C -0.26116 0.20165 0.83368
 C225 C -0.30721 0.17519 0.81686
 C226 C -0.34424 0.13988 0.84083
 C227 C -0.33609 0.13013 0.88217
 C228 C -0.28967 0.15530 0.89843
 C229 C -0.25258 0.19072 0.87443
 C230 C -0.22299 0.24213 0.80966
 C231 C -0.17594 0.25075 0.80935
 C232 C -0.14000 0.28996 0.78772
 C233 C -0.15036 0.32148 0.76626
 C234 C -0.19749 0.31250 0.76628
 C235 C -0.23334 0.27335 0.78771
 H236 H -0.37943 0.12043 0.82714
 H237 H -0.28240 0.14895 0.93035
 H238 H -0.10395 0.29612 0.78843
 H239 H -0.20674 0.33574 0.74955
 H240 H -0.21760 0.21081 0.88843
 H241 H -0.16697 0.22711 0.82572
 H242 H -0.31472 0.18212 0.78523
 H243 H -0.26908 0.26806 0.78779
   
