data_POSCAR
  _audit_creation_date              2014-09-24
  _audit_creation_method            'ToBaCCo'
  _symmetry_space_group_name_H-M    'P1'
  _symmetry_Int_Tables_number       1
  _symmetry_cell_setting            triclinic
  loop_
  _symmetry_equiv_pos_as_xyz
 x,y,z
_cell_length_a 54.9333
_cell_length_b 55.1788
_cell_length_c 55.3137
_cell_angle_alpha 90.004100
_cell_angle_beta 89.973000
_cell_angle_gamma 90.010000
loop_
  _atom_site_label
  _atom_site_type_symbol
  _atom_site_fract_x
  _atom_site_fract_y
  _atom_site_fract_z
N1 N 0.28341 0.23500 0.21565
 N2 N 0.27318 0.25452 0.20661
 C3 C 0.28566 0.26151 0.18684
 C4 C 0.30473 0.24546 0.18321
 C5 C 0.30268 0.22887 0.20191
 H6 H 0.28101 0.27691 0.17569
 H7 H 0.31444 0.21357 0.20542
 Cu8 Cu 0.24423 0.26855 0.22133
 Cu9 Cu 0.27094 0.21887 0.24446
 Cu10 Cu 0.21946 0.24368 0.27108
 N11 N 0.21528 0.28224 0.23638
 N12 N 0.20581 0.27252 0.25592
 C13 C 0.18606 0.28533 0.26254
 C14 C 0.18285 0.30412 0.24622
 C15 C 0.20179 0.30155 0.22986
 H16 H 0.17466 0.28104 0.27789
 H17 H 0.20558 0.31300 0.21447
 N18 N 0.23591 0.21454 0.28372
 N19 N 0.25558 0.20519 0.27369
 C20 C 0.26238 0.18549 0.28639
 C21 C 0.24618 0.18218 0.30530
 C22 C 0.22964 0.20098 0.30299
 H23 H 0.27779 0.17415 0.28199
 H24 H 0.21428 0.20464 0.31464
 H25 H 0.23515 0.22958 0.24014
 H26 H 0.25482 0.24913 0.25953
 N27 N 0.71710 -0.23628 0.21548
 N28 N 0.72507 -0.25759 0.20852
 C29 C 0.71186 -0.26511 0.18942
 C30 C 0.69477 -0.24740 0.18385
 C31 C 0.69882 -0.22932 0.20087
 H32 H 0.71492 -0.28199 0.17999
 H33 H 0.68875 -0.21266 0.20310
 Cu34 Cu 0.75258 -0.27324 0.22430
 Cu35 Cu 0.72988 -0.21985 0.24389
 Cu36 Cu 0.77966 -0.24595 0.27194
 N37 N 0.78246 -0.28569 0.23859
 N38 N 0.79252 -0.27545 0.25754
 C39 C 0.81262 -0.28792 0.26374
 C40 C 0.81566 -0.30699 0.24758
 C41 C 0.79605 -0.30484 0.23184
 H42 H 0.82441 -0.28294 0.27853
 H43 H 0.79173 -0.31641 0.21668
 N44 N 0.76412 -0.21603 0.28374
 N45 N 0.74520 -0.20602 0.27298
 C46 C 0.73876 -0.18592 0.28526
 C47 C 0.75445 -0.18303 0.30464
 C48 C 0.77030 -0.20248 0.30305
 H49 H 0.72384 -0.17415 0.28037
 H50 H 0.78506 -0.20665 0.31527
 H51 H 0.76469 -0.23369 0.23986
 H52 H 0.74384 -0.25013 0.26102
 N53 N 0.71719 0.23495 0.78462
 N54 N 0.72742 0.25447 0.79368
 C55 C 0.71513 0.26122 0.81366
 C56 C 0.69619 0.24504 0.81738
 C57 C 0.69813 0.22860 0.79854
 H58 H 0.71976 0.27663 0.82480
 H59 H 0.68635 0.21331 0.79499
 Cu60 Cu 0.75585 0.26908 0.77851
 Cu61 Cu 0.72927 0.21929 0.75541
 Cu62 Cu 0.78005 0.24483 0.72818
 N63 N 0.78484 0.28272 0.76348
 N64 N 0.79385 0.27352 0.74350
 C65 C 0.81346 0.28648 0.73678
 C66 C 0.81724 0.30485 0.75357
 C67 C 0.79858 0.30175 0.77030
 H68 H 0.82434 0.28239 0.72102
 H69 H 0.79498 0.31263 0.78613
 N70 N 0.76357 0.21575 0.71546
 N71 N 0.74419 0.20608 0.72576
 C72 C 0.73741 0.18637 0.71306
 C73 C 0.75333 0.18337 0.69388
 C74 C 0.76967 0.20237 0.69600
 H75 H 0.72226 0.17477 0.71770
 H76 H 0.78484 0.20622 0.68417
 H77 H 0.76503 0.23038 0.75930
 H78 H 0.74484 0.24982 0.74033
 N79 N 0.28363 -0.23736 0.78397
 N80 N 0.27393 -0.25742 0.79245
 C81 C 0.28681 -0.26483 0.81182
 C82 C 0.30543 -0.24838 0.81581
 C83 C 0.30281 -0.23118 0.79779
 H84 H 0.28271 -0.28068 0.82255
 H85 H 0.31422 -0.21548 0.79478
 Cu86 Cu 0.24481 -0.27122 0.77785
 Cu87 Cu 0.27102 -0.22102 0.75535
 Cu88 Cu 0.22000 -0.24617 0.72829
 N89 N 0.21570 -0.28472 0.76296
 N90 N 0.20644 -0.27517 0.74326
 C91 C 0.18660 -0.28788 0.73670
 C92 C 0.18293 -0.30642 0.75334
 C93 C 0.20190 -0.30371 0.76977
 H94 H 0.17544 -0.28344 0.72124
 H95 H 0.20562 -0.31478 0.78543
 N96 N 0.23627 -0.21681 0.71589
 N97 N 0.25566 -0.20721 0.72621
 C98 C 0.26234 -0.18734 0.71371
 C99 C 0.24634 -0.18416 0.69462
 C100 C 0.23005 -0.20322 0.69663
 H101 H 0.27754 -0.17581 0.71834
 H102 H 0.21488 -0.20701 0.68479
 H103 H 0.23530 -0.23221 0.75943
 H104 H 0.25533 -0.25130 0.73994
 N105 N 0.71508 -0.23631 0.78356
 N106 N 0.72635 -0.25490 0.79331
 C107 C 0.71493 -0.26107 0.81396
 C108 C 0.69551 -0.24543 0.81740
 C109 C 0.69621 -0.22994 0.79772
 H110 H 0.72041 -0.27574 0.82570
 H111 H 0.68370 -0.21536 0.79373
 Cu112 Cu 0.75465 -0.26926 0.77780
 Cu113 Cu 0.72566 -0.22172 0.75327
 Cu114 Cu 0.77603 -0.24747 0.72535
 N115 N 0.78314 -0.28330 0.76230
 N116 N 0.79063 -0.27546 0.74115
 C117 C 0.80970 -0.28892 0.73386
 C118 C 0.81481 -0.30597 0.75163
 C119 C 0.79750 -0.30170 0.76946
 H120 H 0.81948 -0.28595 0.71717
 H121 H 0.79504 -0.31164 0.78610
 N122 N 0.75878 -0.21901 0.71233
 N123 N 0.73928 -0.20956 0.72261
 C124 C 0.73205 -0.19016 0.70968
 C125 C 0.74799 -0.18706 0.69060
 C126 C 0.76468 -0.20566 0.69282
 H127 H 0.71692 -0.17852 0.71430
 H128 H 0.78010 -0.20905 0.68115
 H129 H 0.74146 -0.25256 0.73917
 H130 H 0.76185 -0.23155 0.75617
 N131 N 0.28650 0.23976 0.78143
 N132 N 0.27679 0.25993 0.78961
 C133 C 0.28913 0.26716 0.80938
 C134 C 0.30735 0.25047 0.81394
 C135 C 0.30513 0.23332 0.79584
 H136 H 0.28488 0.28304 0.82001
 H137 H 0.31639 0.21747 0.79322
 Cu138 Cu 0.24838 0.27426 0.77428
 Cu139 Cu 0.27445 0.22339 0.75271
 Cu140 Cu 0.22324 0.24768 0.72545
 N141 N 0.21890 0.28677 0.75937
 N142 N 0.20956 0.27675 0.73991
 C143 C 0.18961 0.28922 0.73322
 C144 C 0.18608 0.30786 0.74954
 C145 C 0.20497 0.30574 0.76593
 H146 H 0.17818 0.28472 0.71795
 H147 H 0.20839 0.31731 0.78133
 N148 N 0.23969 0.21836 0.71349
 N149 N 0.25955 0.20942 0.72352
 C150 C 0.26657 0.18963 0.71108
 C151 C 0.25015 0.18576 0.69255
 C152 C 0.23335 0.20429 0.69464
 H153 H 0.28213 0.17848 0.71546
 H154 H 0.21777 0.20736 0.68310
 H155 H 0.25864 0.25337 0.73674
 H156 H 0.23880 0.23477 0.75698
 N157 N 0.28614 -0.23715 0.21726
 N158 N 0.27493 -0.25583 0.20760
 C159 C 0.28674 -0.26245 0.18731
 C160 C 0.30633 -0.24699 0.18398
 C161 C 0.30534 -0.23116 0.20338
 H162 H 0.28129 -0.27717 0.17563
 H163 H 0.31776 -0.21647 0.20725
 Cu164 Cu 0.24578 -0.26944 0.22224
 Cu165 Cu 0.27479 -0.22169 0.24680
 Cu166 Cu 0.22349 -0.24620 0.27392
 N167 N 0.21747 -0.28339 0.23815
 N168 N 0.20921 -0.27460 0.25865
 C169 C 0.18990 -0.28777 0.26587
 C170 C 0.18569 -0.30566 0.24885
 C171 C 0.20354 -0.30232 0.23151
 H172 H 0.17939 -0.28430 0.28204
 H173 H 0.20629 -0.31309 0.21541
 N174 N 0.24052 -0.21751 0.28661
 N175 N 0.26044 -0.20855 0.27669
 C176 C 0.26767 -0.18906 0.28950
 C177 C 0.25131 -0.18542 0.30814
 C178 C 0.23436 -0.20376 0.30576
 H179 H 0.28320 -0.17784 0.28516
 H180 H 0.21870 -0.20684 0.31720
 H181 H 0.25824 -0.25223 0.26088
 H182 H 0.23857 -0.23116 0.24308
 N183 N 0.71338 0.23934 0.21846
 N184 N 0.72359 0.25905 0.20978
 C185 C 0.71120 0.26630 0.19004
 C186 C 0.69244 0.25006 0.18602
 C187 C 0.69439 0.23319 0.20439
 H188 H 0.71578 0.28185 0.17905
 H189 H 0.68274 0.21769 0.20740
 Cu190 Cu 0.75273 0.27248 0.22456
 Cu191 Cu 0.72537 0.22304 0.24731
 Cu192 Cu 0.77669 0.24747 0.27453
 N193 N 0.78149 0.28602 0.23997
 N194 N 0.79040 0.27650 0.25987
 C195 C 0.81001 0.28934 0.26685
 C196 C 0.81377 0.30772 0.25027
 C197 C 0.79534 0.30506 0.23344
 H198 H 0.82109 0.28524 0.28247
 H199 H 0.79222 0.31629 0.21773
 N200 N 0.76016 0.21818 0.28659
 N201 N 0.74029 0.20921 0.27659
 C202 C 0.73329 0.18944 0.28909
 C203 C 0.74972 0.18563 0.30761
 C204 C 0.76652 0.20415 0.30548
 H205 H 0.71774 0.17826 0.28473
 H206 H 0.78211 0.20724 0.31699
 H207 H 0.74151 0.25318 0.26259
 H208 H 0.76129 0.23347 0.24343
 C209 C 0.25153 -0.01252 0.50090
 C210 C 0.25139 0.01214 0.50041
 C211 C 0.25128 0.02594 0.47738
 C212 C 0.25081 0.02702 0.52282
 C213 C 0.25146 -0.02635 0.52391
 C214 C 0.25117 -0.02738 0.47849
 C215 C 0.27024 0.04227 0.47266
 C216 C 0.26965 0.05695 0.45213
 C217 C 0.24989 0.05581 0.43605
 C218 C 0.23097 0.03925 0.44068
 C219 C 0.23167 0.02439 0.46118
 C220 C 0.26819 0.02418 0.54122
 C221 C 0.26780 0.03930 0.56154
 C222 C 0.25032 0.05786 0.56359
 C223 C 0.23309 0.06066 0.54501
 C224 C 0.23329 0.04538 0.52496
 C225 C 0.23173 -0.02511 0.53998
 C226 C 0.23101 -0.04014 0.56038
 C227 C 0.25005 -0.05655 0.56501
 C228 C 0.26995 -0.05735 0.54906
 C229 C 0.27056 -0.04251 0.52865
 C230 C 0.23376 -0.04584 0.47624
 C231 C 0.23371 -0.06103 0.45613
 C232 C 0.25097 -0.05804 0.43759
 C233 C 0.26839 -0.03945 0.43979
 C234 C 0.26864 -0.02442 0.46017
 H235 H 0.28537 0.04388 0.48511
 H236 H 0.28429 0.06978 0.44925
 H237 H 0.21558 0.03795 0.42852
 H238 H 0.21671 0.01212 0.46473
 H239 H 0.28226 0.01053 0.53972
 H240 H 0.28122 0.03650 0.57558
 H241 H 0.21985 0.04807 0.51089
 H242 H 0.21666 -0.01298 0.53639
 H243 H 0.21550 -0.03909 0.57242
 H244 H 0.28469 -0.07006 0.55193
 H245 H 0.28579 -0.04388 0.51627
 H246 H 0.22028 -0.04867 0.49026
 H247 H 0.22044 -0.07552 0.45543
 H248 H 0.28186 -0.03653 0.42581
 H249 H 0.28264 -0.01071 0.46179
 H250 H 0.21975 0.07508 0.54560
 C251 C 0.74864 0.01213 0.49985
 C252 C 0.74862 -0.01253 0.49933
 C253 C 0.74877 -0.02631 0.47628
 C254 C 0.74905 -0.02745 0.52171
 C255 C 0.74865 0.02593 0.52289
 C256 C 0.74920 0.02703 0.47746
 C257 C 0.72967 -0.04243 0.47139
 C258 C 0.73034 -0.05719 0.45092
 C259 C 0.75032 -0.05636 0.43508
 C260 C 0.76937 -0.04000 0.43985
 C261 C 0.76858 -0.02504 0.46029
 C262 C 0.73165 -0.02455 0.54010
 C263 C 0.73188 -0.03974 0.56037
 C264 C 0.74921 -0.05844 0.56238
 C265 C 0.76645 -0.06131 0.54380
 C266 C 0.76643 -0.04595 0.52382
 C267 C 0.76832 0.02461 0.53903
 C268 C 0.76899 0.03958 0.55946
 C269 C 0.74996 0.05602 0.56407
 C270 C 0.73013 0.05691 0.54807
 C271 C 0.72958 0.04213 0.52761
 C272 C 0.76670 0.04541 0.47533
 C273 C 0.76689 0.06069 0.45528
 C274 C 0.74967 0.05786 0.43668
 C275 C 0.73220 0.03929 0.43874
 C276 C 0.73182 0.02417 0.45907
 H277 H 0.71438 -0.04383 0.48368
 H278 H 0.71559 -0.06986 0.44790
 H279 H 0.78494 -0.03895 0.42788
 H280 H 0.78365 -0.01295 0.46398
 H281 H 0.71768 -0.01079 0.53862
 H282 H 0.71844 -0.03689 0.57440
 H283 H 0.77988 -0.04871 0.50976
 H284 H 0.78337 0.01245 0.53547
 H285 H 0.78444 0.03848 0.57156
 H286 H 0.71541 0.06964 0.55094
 H287 H 0.71440 0.04357 0.51520
 H288 H 0.78013 0.04814 0.48940
 H289 H 0.78021 0.07513 0.45468
 H290 H 0.71878 0.03647 0.42470
 H291 H 0.71776 0.01051 0.46057
 H292 H 0.77966 -0.07585 0.54434
 C293 C 0.50038 0.25235 -0.01248
 C294 C 0.49970 0.25239 0.01211
 C295 C 0.47641 0.25226 0.02572
 C296 C 0.52215 0.25181 0.02712
 C297 C 0.52367 0.25205 -0.02608
 C298 C 0.47792 0.25189 -0.02747
 C299 C 0.47152 0.27115 0.04197
 C300 C 0.45088 0.27041 0.05666
 C301 C 0.43486 0.25059 0.05561
 C302 C 0.43961 0.23178 0.03909
 C303 C 0.46023 0.23263 0.02422
 C304 C 0.54076 0.26905 0.02434
 C305 C 0.56116 0.26860 0.03950
 C306 C 0.56307 0.25121 0.05803
 C307 C 0.54424 0.23416 0.06081
 C308 C 0.52413 0.23441 0.04549
 C309 C 0.53976 0.23235 -0.02450
 C310 C 0.56045 0.23141 -0.03926
 C311 C 0.56537 0.25019 -0.05576
 C312 C 0.54941 0.27005 -0.05693
 C313 C 0.52870 0.27088 -0.04235
 C314 C 0.47575 0.23440 -0.04573
 C315 C 0.45560 0.23422 -0.06101
 C316 C 0.43694 0.25144 -0.05829
 C317 C 0.43905 0.26894 -0.03988
 C318 C 0.45947 0.26931 -0.02475
 H319 H 0.48397 0.28629 0.04355
 H320 H 0.44791 0.28496 0.06947
 H321 H 0.42751 0.21634 0.03786
 H322 H 0.46392 0.21772 0.01203
 H323 H 0.53938 0.28302 0.01067
 H324 H 0.57538 0.28189 0.03674
 H325 H 0.50989 0.22109 0.04815
 H326 H 0.53595 0.21747 -0.01229
 H327 H 0.57250 0.21594 -0.03794
 H328 H 0.55251 0.28459 -0.06972
 H329 H 0.51632 0.28607 -0.04399
 H330 H 0.48987 0.22095 -0.04834
 H331 H 0.45496 0.22087 -0.07533
 H332 H 0.42495 0.28238 -0.03718
 H333 H 0.46100 0.28334 -0.01116
 H334 H 0.54472 0.22090 0.07523
 C335 C 0.50080 0.74721 -0.01221
 C336 C 0.49996 0.74695 0.01239
 C337 C 0.52226 0.74775 0.02779
 C338 C 0.47650 0.74691 0.02563
 C339 C 0.47845 0.74776 -0.02746
 C340 C 0.52415 0.74776 -0.02561
 C341 C 0.54185 0.73171 0.02440
 C342 C 0.56219 0.73265 0.03965
 C343 C 0.56306 0.74912 0.05911
 C344 C 0.54311 0.76471 0.06269
 C345 C 0.52317 0.76417 0.04714
 C346 C 0.47133 0.72783 0.04155
 C347 C 0.45051 0.72847 0.05596
 C348 C 0.43462 0.74839 0.05495
 C349 C 0.43962 0.76735 0.03870
 C350 C 0.46041 0.76661 0.02411
 C351 C 0.47653 0.76527 -0.04576
 C352 C 0.45651 0.76560 -0.06122
 C353 C 0.43764 0.74856 -0.05866
 C354 C 0.43950 0.73102 -0.04025
 C355 C 0.45983 0.73048 -0.02496
 C356 C 0.54000 0.76765 -0.02391
 C357 C 0.56086 0.76872 -0.03840
 C358 C 0.56616 0.74988 -0.05472
 C359 C 0.55044 0.72985 -0.05599
 C360 C 0.52956 0.72889 -0.04169
 H361 H 0.54135 0.71831 0.01012
 H362 H 0.57720 0.72046 0.03612
 H363 H 0.54258 0.77712 0.07782
 H364 H 0.50821 0.77654 0.05042
 H365 H 0.48372 0.71264 0.04311
 H366 H 0.44732 0.71381 0.06858
 H367 H 0.46434 0.78166 0.01216
 H368 H 0.49075 0.77865 -0.04823
 H369 H 0.45612 0.77895 -0.07554
 H370 H 0.42527 0.71771 -0.03762
 H371 H 0.46111 0.71641 -0.01137
 H372 H 0.53589 0.78253 -0.01181
 H373 H 0.57274 0.78432 -0.03704
 H374 H 0.55386 0.71527 -0.06866
 H375 H 0.51736 0.71355 -0.04339
 H376 H 0.42760 0.78287 0.03752
 C377 C 0.01266 0.50018 0.24984
 C378 C -0.01210 0.50076 0.24988
 C379 C -0.02720 0.47841 0.24957
 C380 C -0.02578 0.52391 0.24967
 C381 C 0.02765 0.52261 0.24925
 C382 C 0.02644 0.47706 0.24986
 C383 C -0.04578 0.47624 0.23232
 C384 C -0.06120 0.45619 0.23233
 C385 C -0.05831 0.43762 0.24948
 C386 C -0.03958 0.43972 0.26673
 C387 C -0.02432 0.46004 0.26692
 C388 C -0.02557 0.53908 0.22930
 C389 C -0.04065 0.55952 0.22848
 C390 C -0.05588 0.56517 0.24812
 C391 C -0.05552 0.55026 0.26869
 C392 C -0.04079 0.52968 0.26933
 C393 C 0.04604 0.52478 0.23179
 C394 C 0.06146 0.54483 0.23164
 C395 C 0.05879 0.56336 0.24889
 C396 C 0.04022 0.56126 0.26633
 C397 C 0.02495 0.54095 0.26665
 C398 C 0.04277 0.47236 0.26875
 C399 C 0.05743 0.45173 0.26829
 C400 C 0.05629 0.43552 0.24874
 C401 C 0.03974 0.44012 0.22988
 C402 C 0.02489 0.46074 0.23045
 H403 H -0.04854 0.49028 0.21891
 H404 H -0.07577 0.45557 0.21917
 H405 H -0.03672 0.42569 0.28011
 H406 H -0.01051 0.46157 0.28079
 H407 H -0.01430 0.53468 0.21385
 H408 H -0.04060 0.57080 0.21246
 H409 H -0.04132 0.51799 0.28507
 H410 H 0.04865 0.51072 0.21836
 H411 H 0.07589 0.54548 0.21833
 H412 H 0.03753 0.57526 0.27978
 H413 H 0.01132 0.53940 0.28070
 H414 H 0.04437 0.48491 0.28373
 H415 H 0.07025 0.44886 0.28288
 H416 H 0.03844 0.42787 0.21464
 H417 H 0.01263 0.46427 0.21554
 H418 H -0.06729 0.55407 0.28394
 C419 C 0.01149 0.50052 0.74957
 C420 C -0.01328 0.49979 0.74942
 C421 C -0.02672 0.47648 0.74953
 C422 C -0.02862 0.52205 0.75001
 C423 C 0.02512 0.52370 0.74993
 C424 C 0.02667 0.47820 0.75005
 C425 C -0.04189 0.47074 0.72999
 C426 C -0.05643 0.45001 0.73062
 C427 C -0.05641 0.43490 0.75105
 C428 C -0.04100 0.44052 0.77055
 C429 C -0.02615 0.46112 0.76975
 C430 C -0.02508 0.54131 0.73376
 C431 C -0.04032 0.56163 0.73443
 C432 C -0.05992 0.56278 0.75081
 C433 C -0.06364 0.54319 0.76665
 C434 C -0.04809 0.52326 0.76640
 C435 C 0.02457 0.53898 0.77020
 C436 C 0.03957 0.55947 0.77113
 C437 C 0.05507 0.56508 0.75167
 C438 C 0.05510 0.55002 0.73121
 C439 C 0.04043 0.52939 0.73046
 C440 C 0.04513 0.47611 0.76744
 C441 C 0.06063 0.45613 0.76755
 C442 C 0.05794 0.43752 0.75038
 C443 C 0.03929 0.43952 0.73303
 C444 C 0.02399 0.45980 0.73270
 H445 H -0.04271 0.48257 0.71437
 H446 H -0.06836 0.44625 0.71550
 H447 H -0.04066 0.42911 0.78648
 H448 H -0.01476 0.46550 0.78512
 H449 H -0.01074 0.54055 0.72037
 H450 H -0.03670 0.57640 0.72206
 H451 H -0.05146 0.50856 0.77894
 H452 H 0.01305 0.53464 0.78550
 H453 H 0.03926 0.57083 0.78710
 H454 H 0.06713 0.55374 0.71614
 H455 H 0.04123 0.51763 0.71480
 H456 H 0.04773 0.49017 0.78085
 H457 H 0.07511 0.45559 0.78079
 H458 H 0.03655 0.42547 0.71965
 H459 H 0.01031 0.46126 0.71870
 H460 H -0.07891 0.54291 0.77902
 C461 C 0.35844 0.24686 0.12684
 C462 C 0.35465 0.22541 0.13994
 C463 C 0.33704 0.22503 0.15832
 C464 C 0.32320 0.24590 0.16360
 C465 C 0.32719 0.26722 0.15011
 C466 C 0.34483 0.26782 0.13178
 C467 C 0.37725 0.24749 0.10779
 C468 C 0.38139 0.26911 0.09504
 C469 C 0.39980 0.26983 0.07749
 C470 C 0.41405 0.24914 0.07267
 C471 C 0.40930 0.22747 0.08530
 C472 C 0.39101 0.22659 0.10299
 C473 C 0.34930 0.28902 0.11842
 C474 C 0.36729 0.28966 0.10038
 C475 C 0.36865 0.20480 0.13449
 C476 C 0.38651 0.20538 0.11632
 H477 H 0.33892 0.30531 0.12205
 H478 H 0.37028 0.30644 0.09066
 H479 H 0.36588 0.18812 0.14444
 H480 H 0.39701 0.18913 0.11281
 H481 H 0.33404 0.20843 0.16833
 H482 H 0.31692 0.28348 0.15409
 H483 H 0.40321 0.28651 0.06770
 H484 H 0.42040 0.21158 0.08196
 C485 C 0.64110 0.75148 0.12908
 C486 C 0.64626 0.77325 0.14113
 C487 C 0.66397 0.77349 0.15937
 C488 C 0.67707 0.75224 0.16533
 C489 C 0.67191 0.73066 0.15251
 C490 C 0.65372 0.73012 0.13469
 C491 C 0.62189 0.75099 0.11044
 C492 C 0.61601 0.72902 0.09906
 C493 C 0.59703 0.72848 0.08205
 C494 C 0.58421 0.74984 0.07606
 C495 C 0.59108 0.77186 0.08715
 C496 C 0.60953 0.77245 0.10462
 C497 C 0.64765 0.70854 0.12258
 C498 C 0.62901 0.70797 0.10520
 C499 C 0.63352 0.79438 0.13476
 C500 C 0.61560 0.79403 0.11669
 H501 H 0.65720 0.69189 0.12677
 H502 H 0.62473 0.69089 0.09652
 H503 H 0.63740 0.81135 0.14384
 H504 H 0.60616 0.81072 0.11238
 H505 H 0.66774 0.79043 0.16849
 H506 H 0.68136 0.71400 0.15681
 H507 H 0.59188 0.71132 0.07404
 H508 H 0.58199 0.78860 0.08236
 C509 C 0.64234 0.24636 -0.12639
 C510 C 0.64617 0.22492 -0.13950
 C511 C 0.66388 0.22454 -0.15779
 C512 C 0.67775 0.24541 -0.16299
 C513 C 0.67373 0.26671 -0.14948
 C514 C 0.65600 0.26730 -0.13122
 C515 C 0.62340 0.24700 -0.10747
 C516 C 0.61920 0.26861 -0.09474
 C517 C 0.60065 0.26936 -0.07733
 C518 C 0.58632 0.24870 -0.07265
 C519 C 0.59112 0.22702 -0.08524
 C520 C 0.60956 0.22612 -0.10279
 C521 C 0.65148 0.28850 -0.11788
 C522 C 0.63337 0.28916 -0.09997
 C523 C 0.63211 0.20432 -0.13415
 C524 C 0.61412 0.20491 -0.11610
 H525 H 0.66191 0.30479 -0.12142
 H526 H 0.63033 0.30593 -0.09025
 H527 H 0.63491 0.18764 -0.14411
 H528 H 0.60357 0.18868 -0.11269
 H529 H 0.66689 0.20796 -0.16782
 H530 H 0.68403 0.28298 -0.15339
 H531 H 0.59720 0.28604 -0.06756
 H532 H 0.57997 0.21115 -0.08199
 C533 C 0.35982 0.75020 -0.12873
 C534 C 0.35223 0.77251 -0.13833
 C535 C 0.33444 0.77282 -0.15650
 C536 C 0.32401 0.75106 -0.16483
 C537 C 0.33155 0.72885 -0.15474
 C538 C 0.34966 0.72831 -0.13683
 C539 C 0.37900 0.74976 -0.11007
 C540 C 0.38716 0.72744 -0.10098
 C541 C 0.40602 0.72709 -0.08386
 C542 C 0.41657 0.74891 -0.07563
 C543 C 0.40757 0.77114 -0.08452
 C544 C 0.38905 0.77166 -0.10194
 C545 C 0.35804 0.70632 -0.12706
 C546 C 0.37654 0.70589 -0.10953
 C547 C 0.36265 0.79406 -0.12964
 C548 C 0.38066 0.79365 -0.11166
 H549 H 0.35040 0.68929 -0.13318
 H550 H 0.38263 0.68854 -0.10266
 H551 H 0.35689 0.81140 -0.13684
 H552 H 0.38830 0.81068 -0.10553
 H553 H 0.32856 0.79000 -0.16396
 H554 H 0.32377 0.71201 -0.16119
 H555 H 0.41290 0.70984 -0.07749
 H556 H 0.41507 0.78810 -0.07803
 C557 C 0.12692 0.35843 0.24652
 C558 C 0.14019 0.35415 0.22524
 C559 C 0.15842 0.33635 0.22522
 C560 C 0.16340 0.32280 0.24626
 C561 C 0.14975 0.32728 0.26739
 C562 C 0.13156 0.34512 0.26764
 C563 C 0.10803 0.37743 0.24676
 C564 C 0.09513 0.38205 0.26819
 C565 C 0.07772 0.40063 0.26854
 C566 C 0.07320 0.41457 0.24768
 C567 C 0.08597 0.40936 0.22620
 C568 C 0.10352 0.39089 0.22568
 C569 C 0.11806 0.35007 0.28865
 C570 C 0.10017 0.36824 0.28893
 C571 C 0.13503 0.36786 0.20446
 C572 C 0.11700 0.38590 0.20467
 H573 H 0.12146 0.33993 0.30508
 H574 H 0.09031 0.37160 0.30557
 H575 H 0.14511 0.36472 0.18791
 H576 H 0.11372 0.39616 0.18829
 H577 H 0.16855 0.33297 0.20876
 H578 H 0.15350 0.31723 0.28378
 H579 H 0.06781 0.40440 0.28507
 H580 H 0.08284 0.42021 0.21016
 C581 C 0.12686 0.64099 0.75389
 C582 C 0.12928 0.65652 0.73395
 C583 C 0.14772 0.67411 0.73398
 C584 C 0.16412 0.67609 0.75359
 C585 C 0.16128 0.66015 0.77344
 C586 C 0.14265 0.64274 0.77372
 C587 C 0.10764 0.62231 0.75383
 C588 C 0.10522 0.60676 0.77379
 C589 C 0.08730 0.58863 0.77339
 C590 C 0.07222 0.58575 0.75301
 C591 C 0.07471 0.60168 0.73327
 C592 C 0.09234 0.62006 0.73362
 C593 C 0.13957 0.62695 0.79344
 C594 C 0.12113 0.60931 0.79350
 C595 C 0.11335 0.65398 0.71424
 C596 C 0.09526 0.63600 0.71403
 H597 H 0.15157 0.62816 0.80893
 H598 H 0.11948 0.59743 0.80900
 H599 H 0.11502 0.66585 0.69872
 H600 H 0.08355 0.63449 0.69835
 H601 H 0.14942 0.68579 0.71837
 H602 H 0.17326 0.66126 0.78891
 H603 H 0.08567 0.57621 0.78849
 H604 H 0.06306 0.59959 0.71760
 C605 C -0.12808 0.64067 0.24653
 C606 C -0.14437 0.64202 0.22706
 C607 C -0.16309 0.65932 0.22754
 C608 C -0.16548 0.67558 0.24717
 C609 C -0.14858 0.67401 0.26641
 C610 C -0.13008 0.65649 0.26627
 C611 C -0.10876 0.62209 0.24639
 C612 C -0.09298 0.62020 0.26627
 C613 C -0.07526 0.60191 0.26647
 C614 C -0.07314 0.58574 0.24688
 C615 C -0.08870 0.58827 0.22682
 C616 C -0.10673 0.60628 0.22659
 C617 C -0.11368 0.65430 0.28566
 C618 C -0.09552 0.63640 0.28570
 C619 C -0.14168 0.62597 0.20751
 C620 C -0.12313 0.60846 0.20724
 H621 H -0.11504 0.66638 0.30105
 H622 H -0.08344 0.63516 0.30113
 H623 H -0.15408 0.62688 0.19231
 H624 H -0.12180 0.59636 0.19187
 H625 H -0.17546 0.66016 0.21235
 H626 H -0.14996 0.68595 0.28187
 H627 H -0.06323 0.60008 0.28190
 H628 H -0.08734 0.57566 0.21184
 C629 C -0.12748 0.35828 0.75357
 C630 C -0.12984 0.34273 0.73365
 C631 C -0.14802 0.32486 0.73384
 C632 C -0.16418 0.32261 0.75364
 C633 C -0.16140 0.33858 0.77346
 C634 C -0.14306 0.35628 0.77356
 C635 C -0.10851 0.37722 0.75336
 C636 C -0.10615 0.39278 0.77332
 C637 C -0.08844 0.41109 0.77282
 C638 C -0.07348 0.41415 0.75236
 C639 C -0.07595 0.39825 0.73259
 C640 C -0.09338 0.37968 0.73304
 C641 C -0.14007 0.37211 0.79325
 C642 C -0.12189 0.39001 0.79316
 C643 C -0.11411 0.34552 0.71379
 C644 C -0.09625 0.36373 0.71345
 H645 H -0.15194 0.37073 0.80883
 H646 H -0.12029 0.40191 0.80865
 H647 H -0.11574 0.33364 0.69827
 H648 H -0.08467 0.36539 0.69768
 H649 H -0.14967 0.31315 0.71825
 H650 H -0.17322 0.33729 0.78905
 H651 H -0.08685 0.42349 0.78794
 H652 H -0.06439 0.40047 0.71685
 C653 C 0.24701 0.12637 0.35937
 C654 C 0.26820 0.13113 0.34598
 C655 C 0.26778 0.14928 0.32822
 C656 C 0.24642 0.16276 0.32389
 C657 C 0.22532 0.15765 0.33750
 C658 C 0.22551 0.13947 0.35523
 C659 C 0.24744 0.10752 0.37828
 C660 C 0.22629 0.10288 0.39180
 C661 C 0.22697 0.08536 0.41017
 C662 C 0.24867 0.07274 0.41524
 C663 C 0.26961 0.07740 0.40125
 C664 C 0.26909 0.09478 0.38276
 C665 C 0.20467 0.13419 0.36900
 C666 C 0.20505 0.11620 0.38696
 C667 C 0.28944 0.11779 0.35079
 C668 C 0.28989 0.09994 0.36888
 H669 H 0.18794 0.14413 0.36597
 H670 H 0.18862 0.11282 0.39727
 H671 H 0.30592 0.12128 0.34059
 H672 H 0.30670 0.09022 0.37214
 H673 H 0.28422 0.15312 0.31811
 H674 H 0.20868 0.16765 0.33424
 H675 H 0.21088 0.08212 0.42106
 H676 H 0.28632 0.06761 0.40490
 C677 C 0.75264 0.12727 0.64013
 C678 C 0.77403 0.14063 0.64399
 C679 C 0.77417 0.15896 0.66158
 C680 C 0.75312 0.16391 0.67534
 C681 C 0.73187 0.15018 0.67126
 C682 C 0.73151 0.13190 0.65363
 C683 C 0.75229 0.10824 0.62138
 C684 C 0.73074 0.09522 0.61718
 C685 C 0.73028 0.07767 0.59885
 C686 C 0.75116 0.07311 0.58475
 C687 C 0.77276 0.08601 0.58955
 C688 C 0.77338 0.10371 0.60776
 C689 C 0.71037 0.11829 0.64909
 C690 C 0.70999 0.10028 0.63116
 C691 C 0.79483 0.13547 0.63011
 C692 C 0.79452 0.11731 0.61232
 H693 H 0.69394 0.12168 0.65938
 H694 H 0.69326 0.09034 0.62811
 H695 H 0.81147 0.14563 0.63294
 H696 H 0.81091 0.11402 0.60192
 H697 H 0.79072 0.16915 0.66465
 H698 H 0.71548 0.15391 0.68148
 H699 H 0.71365 0.06768 0.59539
 H700 H 0.78880 0.08286 0.57857
 C701 C 0.24717 -0.12796 0.64095
 C702 C 0.22576 -0.14131 0.64477
 C703 C 0.22558 -0.15965 0.66235
 C704 C 0.24658 -0.16464 0.67613
 C705 C 0.26786 -0.15092 0.67209
 C706 C 0.26827 -0.13262 0.65447
 C707 C 0.24758 -0.10891 0.62222
 C708 C 0.26915 -0.09589 0.61807
 C709 C 0.26966 -0.07830 0.59977
 C710 C 0.24881 -0.07370 0.58565
 C711 C 0.22719 -0.08662 0.59039
 C712 C 0.22652 -0.10435 0.60858
 C713 C 0.28943 -0.11902 0.64998
 C714 C 0.28986 -0.10098 0.63207
 C715 C 0.20500 -0.13612 0.63087
 C716 C 0.20537 -0.11794 0.61309
 H717 H 0.30583 -0.12245 0.66028
 H718 H 0.30660 -0.09104 0.62907
 H719 H 0.18836 -0.14627 0.63367
 H720 H 0.18901 -0.11463 0.60268
 H721 H 0.20901 -0.16986 0.66538
 H722 H 0.28423 -0.15469 0.68232
 H723 H 0.28629 -0.06829 0.59637
 H724 H 0.21118 -0.08345 0.57939
 C725 C 0.75350 -0.12716 0.35862
 C726 C 0.73251 -0.13157 0.34483
 C727 C 0.73299 -0.14971 0.32706
 C728 C 0.75419 -0.16356 0.32316
 C729 C 0.77509 -0.15883 0.33719
 C730 C 0.77485 -0.14063 0.35490
 C731 C 0.75301 -0.10828 0.37751
 C732 C 0.77396 -0.10397 0.39140
 C733 C 0.77322 -0.08639 0.40972
 C734 C 0.75163 -0.07340 0.41436
 C735 C 0.73089 -0.07777 0.40003
 C736 C 0.73148 -0.09519 0.38157
 C737 C 0.79550 -0.13568 0.36907
 C738 C 0.79507 -0.11765 0.38699
 C739 C 0.71139 -0.11788 0.34924
 C740 C 0.71088 -0.10003 0.36732
 H741 H 0.81211 -0.14591 0.36636
 H742 H 0.81134 -0.11452 0.39759
 H743 H 0.69507 -0.12111 0.33873
 H744 H 0.69416 -0.09003 0.37026
 H745 H 0.71670 -0.15330 0.31663
 H746 H 0.79160 -0.16915 0.33426
 H747 H 0.78914 -0.08338 0.42089
 H748 H 0.71427 -0.06771 0.40337
 C749 C 0.64284 0.75377 -0.12543
 C750 C 0.65674 0.73292 -0.13002
 C751 C 0.67417 0.73338 -0.14854
 C752 C 0.67759 0.75442 -0.16258
 C753 C 0.66355 0.77521 -0.15760
 C754 C 0.64617 0.77499 -0.13903
 C755 C 0.62412 0.75321 -0.10633
 C756 C 0.60999 0.77396 -0.10195
 C757 C 0.59164 0.77307 -0.08433
 C758 C 0.58720 0.75152 -0.07141
 C759 C 0.60187 0.73103 -0.07572
 C760 C 0.62034 0.73177 -0.09319
 C761 C 0.63188 0.79548 -0.13393
 C762 C 0.61410 0.79498 -0.11569
 C763 C 0.65270 0.71192 -0.11622
 C764 C 0.63478 0.71135 -0.09813
 H765 H 0.63431 0.81199 -0.14426
 H766 H 0.60332 0.81111 -0.11249
 H767 H 0.66331 0.69572 -0.11959
 H768 H 0.63206 0.69471 -0.08808
 H769 H 0.68463 0.71718 -0.15231
 H770 H 0.66617 0.79159 -0.16806
 H771 H 0.58020 0.78880 -0.08134
 H772 H 0.59867 0.71446 -0.06568
 C773 C 0.36005 0.25101 -0.12914
 C774 C 0.35064 0.27308 -0.13765
 C775 C 0.33302 0.27282 -0.15601
 C776 C 0.32525 0.25072 -0.16613
 C777 C 0.33487 0.22877 -0.15736
 C778 C 0.35215 0.22881 -0.13874
 C779 C 0.37883 0.25117 -0.11010
 C780 C 0.38821 0.22910 -0.10164
 C781 C 0.40648 0.22933 -0.08399
 C782 C 0.41590 0.25143 -0.07522
 C783 C 0.40597 0.27342 -0.08370
 C784 C 0.38736 0.27338 -0.10108
 C785 C 0.36183 0.20708 -0.12965
 C786 C 0.37948 0.20722 -0.11132
 C787 C 0.35932 0.29494 -0.12788
 C788 C 0.37745 0.29509 -0.10998
 H789 H 0.35580 0.18983 -0.13684
 H790 H 0.38659 0.19007 -0.10492
 H791 H 0.35224 0.31210 -0.13430
 H792 H 0.38385 0.31236 -0.10315
 H793 H 0.32584 0.28979 -0.16282
 H794 H 0.32876 0.21168 -0.16486
 H795 H 0.41355 0.21228 -0.07729
 H796 H 0.41321 0.29056 -0.07739
 C797 C 0.35883 0.75202 0.12664
 C798 C 0.34503 0.73114 0.13141
 C799 C 0.32772 0.73163 0.15005
 C800 C 0.32432 0.75273 0.16401
 C801 C 0.33830 0.77352 0.15888
 C802 C 0.35556 0.77327 0.14020
 C803 C 0.37735 0.75148 0.10734
 C804 C 0.39134 0.77228 0.10275
 C805 C 0.40946 0.77143 0.08491
 C806 C 0.41382 0.74989 0.07195
 C807 C 0.39931 0.72933 0.07650
 C808 C 0.38106 0.73002 0.09420
 C809 C 0.36973 0.79380 0.13490
 C810 C 0.38731 0.79332 0.11648
 C811 C 0.34901 0.71012 0.11763
 C812 C 0.36675 0.70956 0.09936
 H813 H 0.36733 0.81034 0.14520
 H814 H 0.39799 0.80948 0.11312
 H815 H 0.33847 0.69389 0.12113
 H816 H 0.36941 0.69290 0.08932
 H817 H 0.31729 0.71544 0.15393
 H818 H 0.33570 0.78996 0.16927
 H819 H 0.42078 0.78721 0.08175
 H820 H 0.40246 0.71276 0.06645
 C821 C 0.63971 0.25065 0.12915
 C822 C 0.64939 0.27269 0.13743
 C823 C 0.66700 0.27241 0.15580
 C824 C 0.67447 0.25033 0.16617
 C825 C 0.66455 0.22841 0.15765
 C826 C 0.64730 0.22845 0.13901
 C827 C 0.62100 0.25082 0.11005
 C828 C 0.61138 0.22877 0.10177
 C829 C 0.59319 0.22903 0.08405
 C830 C 0.58406 0.25114 0.07503
 C831 C 0.59422 0.27310 0.08332
 C832 C 0.61276 0.27303 0.10076
 C833 C 0.63738 0.20675 0.13012
 C834 C 0.61980 0.20690 0.11172
 C835 C 0.64100 0.29455 0.12740
 C836 C 0.62292 0.29472 0.10946
 H837 H 0.64316 0.18951 0.13751
 H838 H 0.61250 0.18977 0.10547
 H839 H 0.64829 0.31168 0.13366
 H840 H 0.61675 0.31198 0.10243
 H841 H 0.67443 0.28936 0.16242
 H842 H 0.67043 0.21133 0.16535
 H843 H 0.58595 0.21198 0.07749
 H844 H 0.58720 0.29025 0.07682
 C845 C -0.13028 0.64046 0.75156
 C846 C -0.13587 0.65262 0.73000
 C847 C -0.15376 0.67077 0.73018
 C848 C -0.16669 0.67630 0.75160
 C849 C -0.16081 0.66363 0.77302
 C850 C -0.14246 0.64599 0.77315
 C851 C -0.11152 0.62134 0.75147
 C852 C -0.10569 0.60948 0.77313
 C853 C -0.08809 0.59112 0.77293
 C854 C -0.07694 0.58385 0.75111
 C855 C -0.08294 0.59616 0.72954
 C856 C -0.10004 0.61506 0.72968
 C857 C -0.13607 0.63375 0.79450
 C858 C -0.11787 0.61593 0.79452
 C859 C -0.12366 0.64615 0.70861
 C860 C -0.10619 0.62757 0.70841
 H861 H -0.14525 0.63794 0.81133
 H862 H -0.11353 0.60687 0.81136
 H863 H -0.12785 0.65533 0.69180
 H864 H -0.09744 0.62295 0.69147
 H865 H -0.15803 0.67990 0.71339
 H866 H -0.17000 0.66773 0.78984
 H867 H -0.08328 0.58240 0.78981
 H868 H -0.07487 0.59067 0.71254
 C869 C -0.12959 0.36094 0.25002
 C870 C -0.13955 0.35307 0.22800
 C871 C -0.15816 0.33570 0.22822
 C872 C -0.16652 0.32594 0.25023
 C873 C -0.15607 0.33374 0.27213
 C874 C -0.13774 0.35146 0.27214
 C875 C -0.11049 0.37972 0.24991
 C876 C -0.10107 0.38819 0.27193
 C877 C -0.08360 0.40675 0.27174
 C878 C -0.07540 0.41669 0.24969
 C879 C -0.08456 0.40735 0.22777
 C880 C -0.10232 0.38913 0.22778
 C881 C -0.12760 0.36010 0.29381
 C882 C -0.10966 0.37824 0.29372
 C883 C -0.13078 0.36281 0.20621
 C884 C -0.11239 0.38046 0.20610
 H885 H -0.13375 0.35296 0.31101
 H886 H -0.10252 0.38459 0.31084
 H887 H -0.13825 0.35680 0.18911
 H888 H -0.10623 0.38759 0.18890
 H889 H -0.16591 0.32957 0.21128
 H890 H -0.16256 0.32645 0.28914
 H891 H -0.07700 0.41393 0.28875
 H892 H -0.07808 0.41442 0.21066
 C893 C 0.12937 0.36096 0.74990
 C894 C 0.13734 0.35130 0.72778
 C895 C 0.15564 0.33358 0.72777
 C896 C 0.16630 0.32598 0.74964
 C897 C 0.15814 0.33591 0.77164
 C898 C 0.13952 0.35326 0.77189
 C899 C 0.11029 0.37975 0.75002
 C900 C 0.10227 0.38931 0.77214
 C901 C 0.08448 0.40749 0.77215
 C902 C 0.07516 0.41668 0.75022
 C903 C 0.08326 0.40662 0.72819
 C904 C 0.10072 0.38807 0.72800
 C905 C 0.13092 0.36316 0.79368
 C906 C 0.11251 0.38079 0.79380
 C907 C 0.12704 0.35979 0.70612
 C908 C 0.10913 0.37795 0.70623
 H909 H 0.13853 0.35729 0.81076
 H910 H 0.10647 0.38804 0.81099
 H911 H 0.13305 0.35251 0.68894
 H912 H 0.10187 0.38418 0.68911
 H913 H 0.16200 0.32615 0.71076
 H914 H 0.16608 0.32993 0.78856
 H915 H 0.07809 0.41464 0.78926
 H916 H 0.07657 0.41369 0.71117
 C917 C 0.12970 0.64039 0.24901
 C918 C 0.13807 0.64978 0.27108
 C919 C 0.15619 0.66770 0.27095
 C920 C 0.16621 0.67586 0.24896
 C921 C 0.15763 0.66618 0.22700
 C922 C 0.13926 0.64856 0.22691
 C923 C 0.11079 0.62142 0.24902
 C924 C 0.10241 0.61211 0.22693
 C925 C 0.08477 0.59377 0.22703
 C926 C 0.07591 0.58426 0.24901
 C927 C 0.08435 0.59407 0.27101
 C928 C 0.10173 0.61272 0.27111
 C929 C 0.13030 0.63889 0.20517
 C930 C 0.11211 0.62104 0.20518
 C931 C 0.12832 0.64086 0.29283
 C932 C 0.11053 0.62257 0.29284
 H933 H 0.13748 0.64511 0.18801
 H934 H 0.10579 0.61397 0.18802
 H935 H 0.13465 0.64792 0.30999
 H936 H 0.10368 0.61604 0.31002
 H937 H 0.16285 0.67490 0.28794
 H938 H 0.16502 0.67256 0.20999
 H939 H 0.07811 0.58677 0.20996
 H940 H 0.07799 0.58675 0.28806
 C941 C 0.74842 -0.13015 0.63813
 C942 C 0.72612 -0.13816 0.64764
 C943 C 0.72607 -0.15661 0.66510
 C944 C 0.74807 -0.16734 0.67256
 C945 C 0.77024 -0.15914 0.66277
 C946 C 0.77054 -0.14039 0.64569
 C947 C 0.74861 -0.11089 0.61965
 C948 C 0.77091 -0.10284 0.61025
 C949 C 0.77099 -0.08495 0.59230
 C950 C 0.74895 -0.07556 0.58317
 C951 C 0.72673 -0.08363 0.59312
 C952 C 0.72647 -0.10121 0.61144
 C953 C 0.79251 -0.13173 0.63598
 C954 C 0.79270 -0.11318 0.61864
 C955 C 0.70435 -0.12774 0.63930
 C956 C 0.70452 -0.10967 0.62141
 H957 H 0.80969 -0.13941 0.64177
 H958 H 0.81003 -0.10711 0.61150
 H959 H 0.68702 -0.13377 0.64647
 H960 H 0.68731 -0.10233 0.61526
 H961 H 0.70893 -0.16297 0.67248
 H962 H 0.78726 -0.16709 0.66867
 H963 H 0.78824 -0.07857 0.58523
 H964 H 0.70962 -0.07686 0.58610
 C965 C 0.25127 -0.12879 0.36095
 C966 C 0.22907 -0.13870 0.35317
 C967 C 0.22924 -0.15729 0.33592
 C968 C 0.25136 -0.16569 0.32619
 C969 C 0.27345 -0.15527 0.33386
 C970 C 0.27352 -0.13696 0.35147
 C971 C 0.25122 -0.10975 0.37966
 C972 C 0.27343 -0.10042 0.38808
 C973 C 0.27329 -0.08307 0.40662
 C974 C 0.25112 -0.07491 0.41660
 C975 C 0.22901 -0.08394 0.40727
 C976 C 0.22897 -0.10159 0.38908
 C977 C 0.29537 -0.12688 0.36003
 C978 C 0.29533 -0.10900 0.37811
 C979 C 0.20716 -0.12991 0.36289
 C980 C 0.20710 -0.11157 0.38046
 H981 H 0.31266 -0.13304 0.35289
 H982 H 0.31260 -0.10192 0.38441
 H983 H 0.18991 -0.13734 0.35694
 H984 H 0.18981 -0.10540 0.38760
 H985 H 0.21215 -0.16501 0.32988
 H986 H 0.29055 -0.16179 0.32657
 H987 H 0.29044 -0.07655 0.41378
 H988 H 0.21181 -0.07747 0.41437
 C989 C 0.74964 0.12889 0.36029
 C990 C 0.77186 0.13880 0.35256
 C991 C 0.77175 0.15742 0.33533
 C992 C 0.74965 0.16583 0.32558
 C993 C 0.72754 0.15540 0.33319
 C994 C 0.72742 0.13708 0.35077
 C995 C 0.74963 0.10982 0.37896
 C996 C 0.72739 0.10048 0.38732
 C997 C 0.72747 0.08307 0.40581
 C998 C 0.74961 0.07485 0.41580
 C999 C 0.77175 0.08393 0.40656
 C1000 C 0.77185 0.10163 0.38841
 C1001 C 0.70554 0.12699 0.35928
 C1002 C 0.70552 0.10909 0.37733
 C1003 C 0.79374 0.13000 0.36231
 C1004 C 0.79375 0.11164 0.37986
 H1005 H 0.68827 0.13318 0.35212
 H1006 H 0.68824 0.10201 0.38359
 H1007 H 0.81101 0.13743 0.35641
 H1008 H 0.81101 0.10545 0.38703
 H1009 H 0.78885 0.16517 0.32934
 H1010 H 0.71046 0.16194 0.32589
 H1011 H 0.71029 0.07654 0.41291
 H1012 H 0.78892 0.07744 0.41367
 C1013 C 0.25029 0.12896 0.63993
 C1014 C 0.27250 0.13718 0.64944
 C1015 C 0.27236 0.15552 0.66701
 C1016 C 0.25024 0.16594 0.67461
 C1017 C 0.22815 0.15750 0.66485
 C1018 C 0.22806 0.13887 0.64764
 C1019 C 0.25032 0.10988 0.62127
 C1020 C 0.22810 0.10166 0.61182
 C1021 C 0.22823 0.08393 0.59370
 C1022 C 0.25037 0.07487 0.58447
 C1023 C 0.27250 0.08312 0.59445
 C1024 C 0.27256 0.10055 0.61293
 C1025 C 0.20618 0.13004 0.63788
 C1026 C 0.20620 0.11165 0.62035
 C1027 C 0.29439 0.12711 0.64095
 C1028 C 0.29443 0.10919 0.62292
 H1029 H 0.18891 0.13746 0.64376
 H1030 H 0.18894 0.10545 0.61318
 H1031 H 0.31165 0.13332 0.64812
 H1032 H 0.31172 0.10212 0.61667
 H1033 H 0.28944 0.16209 0.67431
 H1034 H 0.21105 0.16524 0.67082
 H1035 H 0.21105 0.07741 0.58659
 H1036 H 0.28968 0.07660 0.58736
   
