data_POSCAR
  _audit_creation_date              2014-09-24
  _audit_creation_method            'ToBaCCo'
  _symmetry_space_group_name_H-M    'P1'
  _symmetry_Int_Tables_number       1
  _symmetry_cell_setting            triclinic
  loop_
  _symmetry_equiv_pos_as_xyz
 x,y,z
_cell_length_a 61.7877
_cell_length_b 62.9374
_cell_length_c 24.8169
_cell_angle_alpha 89.953500
_cell_angle_beta 90.040700
_cell_angle_gamma 119.635000
loop_
  _atom_site_label
  _atom_site_type_symbol
  _atom_site_fract_x
  _atom_site_fract_y
  _atom_site_fract_z
C1 C 0.16633 0.43122 0.45136
 C2 C 0.15460 0.42897 0.50119
 C3 C 0.16649 0.43102 0.55081
 C4 C 0.19012 0.43221 0.55054
 C5 C 0.20206 0.43344 0.50072
 C6 C 0.18999 0.43248 0.45107
 C7 C 0.20101 0.43068 0.40291
 C8 C 0.22418 0.43225 0.40268
 C9 C 0.23722 0.43495 0.45071
 C10 C 0.22587 0.43482 0.50049
 C11 C 0.20112 0.42984 0.59817
 C12 C 0.22433 0.43138 0.59789
 C13 C 0.23787 0.43526 0.54991
 C14 C 0.26196 0.43728 0.54915
 C15 C 0.27222 0.43675 0.49891
 C16 C 0.26064 0.43617 0.45028
 H17 H 0.19148 0.42675 0.36471
 H18 H 0.23131 0.43034 0.36427
 H19 H 0.19141 0.42535 0.63622
 H20 H 0.23064 0.42798 0.63576
 H21 H 0.13675 0.42832 0.50136
 H22 H 0.29056 0.43849 0.49688
 C23 C 0.54435 -0.27303 0.55266
 C24 C 0.54411 -0.28456 0.50452
 C25 C 0.54268 -0.27530 0.45384
 C26 C 0.54347 -0.25221 0.45197
 C27 C 0.54378 -0.24019 0.50098
 C28 C 0.54438 -0.25061 0.55126
 C29 C 0.54658 -0.23764 0.59875
 C30 C 0.54709 -0.21535 0.59752
 C31 C 0.54480 -0.20514 0.54878
 C32 C 0.54429 -0.21725 0.49977
 C33 C 0.54597 -0.23975 0.40318
 C34 C 0.54647 -0.21746 0.40195
 C35 C 0.54509 -0.20616 0.44949
 C36 C 0.54606 -0.18329 0.44809
 C37 C 0.54661 -0.17163 0.49626
 C38 C 0.54499 -0.18233 0.54696
 H39 H 0.54886 -0.24416 0.63752
 H40 H 0.55063 -0.20587 0.63542
 H41 H 0.54891 -0.24619 0.36518
 H42 H 0.54887 -0.20875 0.36312
 H43 H 0.54332 -0.30213 0.50733
 H44 H 0.54657 -0.15445 0.49351
 C45 C 1.19796 0.71769 0.54711
 C46 C 1.19126 0.70597 0.49671
 C47 C 1.19886 0.71884 0.44829
 C48 C 1.21547 0.74428 0.44905
 C49 C 1.22455 0.75650 0.49897
 C50 C 1.21562 0.74331 0.54826
 C51 C 1.22553 0.75605 0.59667
 C52 C 1.24236 0.78093 0.59719
 C53 C 1.25219 0.79424 0.54929
 C54 C 1.24274 0.78195 0.49943
 C55 C 1.22345 0.75774 0.40109
 C56 C 1.24027 0.78260 0.40169
 C57 C 1.25134 0.79497 0.44994
 C58 C 1.26965 0.82025 0.45037
 C59 C 1.27688 0.83229 0.50031
 C60 C 1.27018 0.81966 0.54969
 H61 H 1.22108 0.74719 0.63539
 H62 H 1.24696 0.78942 0.63633
 H63 H 1.21674 0.74928 0.36222
 H64 H 1.24382 0.79193 0.36350
 H65 H 1.17799 0.68657 0.49442
 H66 H 1.29074 0.85152 0.50063
 C67 C 0.72686 0.54669 0.45389
 C68 C 0.71690 0.54946 0.50205
 C69 C 0.72901 0.55276 0.55192
 C70 C 0.75333 0.55534 0.55207
 C71 C 0.76354 0.55214 0.50328
 C72 C 0.75010 0.54757 0.45422
 C73 C 0.75999 0.54346 0.40699
 C74 C 0.78313 0.54488 0.40712
 C75 C 0.79735 0.55045 0.45449
 C76 C 0.78731 0.55357 0.50340
 C77 C 0.76858 0.56273 0.59819
 C78 C 0.79172 0.56404 0.59835
 C79 C 0.80092 0.55808 0.55236
 C80 C 0.82406 0.55814 0.55264
 C81 C 0.83404 0.55643 0.50292
 C82 C 0.82112 0.55243 0.45449
 H83 H 0.74988 0.53889 0.36933
 H84 H 0.78959 0.54131 0.36955
 H85 H 0.76349 0.56876 0.63429
 H86 H 0.80270 0.57094 0.63455
 H87 H 0.69862 0.54788 0.50028
 H88 H 0.85183 0.55694 0.50156
 C89 C 0.47707 0.19341 0.45422
 C90 C 0.48036 0.18490 0.50383
 C91 C 0.48072 0.19640 0.55223
 C92 C 0.47868 0.21784 0.55103
 C93 C 0.47513 0.22673 0.50112
 C94 C 0.47415 0.21433 0.45248
 C95 C 0.47122 0.22371 0.40338
 C96 C 0.46929 0.24476 0.40181
 C97 C 0.47085 0.25769 0.44911
 C98 C 0.47338 0.24848 0.49960
 C99 C 0.48162 0.23143 0.59787
 C100 C 0.48025 0.25281 0.59639
 C101 C 0.47499 0.26133 0.54822
 C102 C 0.47311 0.28312 0.54593
 C103 C 0.47091 0.29169 0.49491
 C104 C 0.46994 0.27961 0.44716
 H105 H 0.47068 0.21509 0.36538
 H106 H 0.46668 0.25083 0.36281
 H107 H 0.48601 0.22619 0.63610
 H108 H 0.48460 0.26283 0.63358
 H109 H 0.48218 0.16861 0.50481
 H110 H 0.46972 0.30827 0.49162
 C111 C 0.72695 0.18473 0.45135
 C112 C 0.71828 0.17300 0.50096
 C113 C 0.72654 0.18562 0.54972
 C114 C 0.74513 0.21062 0.54929
 C115 C 0.75497 0.22263 0.49950
 C116 C 0.74580 0.20963 0.45032
 C117 C 0.75589 0.22182 0.40151
 C118 C 0.77365 0.24646 0.40064
 C119 C 0.78278 0.25981 0.44864
 C120 C 0.77365 0.24780 0.49879
 C121 C 0.75412 0.22395 0.59723
 C122 C 0.77189 0.24862 0.59657
 C123 C 0.78274 0.26097 0.54806
 C124 C 0.80121 0.28632 0.54667
 C125 C 0.80845 0.29786 0.49609
 C126 C 0.80021 0.28504 0.44772
 H127 H 0.75022 0.21246 0.36323
 H128 H 0.77989 0.25496 0.36161
 H129 H 0.74740 0.21555 0.63616
 H130 H 0.77604 0.25776 0.63495
 H131 H 0.70347 0.15409 0.50156
 H132 H 0.82236 0.31707 0.49364
 N133 N 1.02336 0.48814 -0.09594
 N134 N 1.04005 0.49118 -0.13274
 N135 N 0.96969 0.45122 -0.05872
 N136 N 0.95126 0.42909 -0.07016
 N137 N 0.97124 0.46699 -0.09531
 N138 N 0.95389 0.45612 -0.13237
 N139 N 1.02180 0.47243 -0.05913
 N140 N 1.03736 0.46430 -0.07000
 C141 C 1.04878 0.47638 -0.11574
 C142 C 0.94143 0.43257 -0.11592
 N143 N 0.97182 0.46684 0.09486
 N144 N 0.95423 0.45602 0.13145
 N145 N 1.02212 0.47228 0.05719
 N146 N 1.03741 0.46381 0.06815
 N147 N 1.02393 0.48804 0.09405
 N148 N 1.04052 0.49081 0.13087
 N149 N 0.97000 0.45116 0.05778
 N150 N 0.95113 0.42917 0.06832
 Mn151 Mn 0.99587 0.46152 -0.00072
 C152 C 0.94138 0.43262 0.11416
 C153 C 1.04895 0.47581 0.11391
 N154 N 0.97611 0.51487 -0.09464
 N155 N 0.95890 0.51147 -0.13041
 N156 N 1.02994 0.55180 -0.05862
 N157 N 1.04834 0.57394 -0.07014
 N158 N 1.02824 0.53607 -0.09546
 N159 N 1.04543 0.54699 -0.13278
 N160 N 0.97781 0.53052 -0.05759
 N161 N 0.96184 0.53828 -0.06735
 Mn162 Mn 0.99974 0.50153 -0.09579
 C163 C 0.95005 0.52603 -0.11266
 C164 C 1.05797 0.57051 -0.11624
 N165 N 1.02887 0.53593 0.09453
 N166 N 1.04654 0.54676 0.13095
 N167 N 0.97818 0.53044 0.05889
 N168 N 0.96221 0.53809 0.06980
 N169 N 0.97676 0.51467 0.09536
 N170 N 0.95977 0.51104 0.13179
 N171 N 1.03034 0.55168 0.05793
 N172 N 1.04907 0.57373 0.06864
 Mn173 Mn 1.00036 0.50138 0.09514
 Mn174 Mn 1.00410 0.54138 0.00016
 Cl175 Cl 1.00003 0.50146 -0.00032
 C176 C 1.05912 0.57024 0.11404
 C177 C 0.95074 0.52560 0.11519
 N178 N 0.53286 0.50986 0.09685
 N179 N 0.54551 0.50517 0.13316
 N180 N 0.51983 0.54938 0.06086
 N181 N 0.52491 0.57188 0.07235
 N182 N 0.50476 0.53392 0.09706
 N183 N 0.49913 0.54544 0.13405
 N184 N 0.54789 0.52530 0.06059
 N185 N 0.57126 0.53164 0.07146
 C186 C 0.56938 0.51872 0.11659
 C187 C 0.51162 0.56904 0.11780
 N188 N 0.50604 0.53554 -0.09304
 N189 N 0.50127 0.54779 -0.12987
 N190 N 0.54866 0.52628 -0.05577
 N191 N 0.57221 0.53303 -0.06576
 N192 N 0.53413 0.51145 -0.09349
 N193 N 0.54733 0.50761 -0.12996
 N194 N 0.52062 0.55035 -0.05533
 N195 N 0.52618 0.57309 -0.06558
 Mn196 Mn 0.53449 0.53805 0.00260
 C197 C 0.51372 0.57112 -0.11186
 C198 C 0.57100 0.52101 -0.11189
 N199 N 0.45956 0.48735 0.09493
 N200 N 0.44623 0.49069 0.13194
 N201 N 0.47332 0.44848 0.05706
 N202 N 0.46855 0.42592 0.06675
 N203 N 0.48777 0.46342 0.09471
 N204 N 0.49334 0.45150 0.13083
 N205 N 0.44509 0.47239 0.05732
 N206 N 0.42148 0.46511 0.06783
 Mn207 Mn 0.49623 0.49864 0.09636
 C208 C 0.42257 0.47693 0.11417
 C209 C 0.48140 0.42821 0.11267
 N210 N 0.48892 0.46498 -0.09566
 N211 N 0.49465 0.45357 -0.13269
 N212 N 0.44582 0.47341 -0.05887
 N213 N 0.42237 0.46662 -0.06995
 N214 N 0.46074 0.48896 -0.09514
 N215 N 0.44786 0.49321 -0.13179
 N216 N 0.47399 0.44946 -0.05937
 N217 N 0.46905 0.42700 -0.07095
 Mn218 Mn 0.49745 0.50024 -0.09483
 Mn219 Mn 0.45933 0.46069 -0.00098
 Cl220 Cl 0.49687 0.49941 0.00077
 C221 C 0.48231 0.42997 -0.11650
 C222 C 0.42400 0.47935 -0.11522
 N223 N 0.44858 -0.02529 0.05769
 N224 N 0.42510 -0.04105 0.06933
 N225 N 0.49097 0.02501 0.09587
 N226 N 0.49632 0.04175 0.13325
 N227 N 0.47616 0.02604 0.05924
 N228 N 0.47092 0.04350 0.07099
 N229 N 0.46351 -0.02630 0.09406
 N230 N 0.45066 -0.04275 0.13117
 C231 C 0.42679 -0.05200 0.11493
 C232 C 0.48388 0.05325 0.11702
 N233 N 0.55166 0.02312 0.05829
 N234 N 0.57501 0.03929 0.06998
 N235 N 0.50924 -0.02810 0.09342
 N236 N 0.50435 -0.04515 0.12988
 N237 N 0.52437 -0.02823 0.05643
 N238 N 0.53021 -0.04537 0.06682
 N239 N 0.53655 0.02324 0.09534
 N240 N 0.54912 0.03951 0.13294
 Mn241 Mn 0.50005 -0.00157 0.09508
 C242 C 0.57302 0.04952 0.11642
 C243 C 0.51733 -0.05593 0.11242
 N244 N 0.47635 0.02686 -0.05750
 N245 N 0.47184 0.04500 -0.06710
 N246 N 0.46374 -0.02505 -0.09564
 N247 N 0.45104 -0.04146 -0.13292
 N248 N 0.44872 -0.02455 -0.05886
 N249 N 0.42532 -0.04062 -0.07032
 N250 N 0.49127 0.02627 -0.09439
 N251 N 0.49745 0.04397 -0.12974
 Mn252 Mn 0.46220 0.00080 0.00013
 C253 C 0.48535 0.05558 -0.11214
 C254 C 0.42717 -0.05117 -0.11637
 N255 N 0.52445 -0.02753 -0.05975
 N256 N 0.52987 -0.04488 -0.07112
 N257 N 0.53672 0.02444 -0.09509
 N258 N 0.54934 0.04126 -0.13168
 N259 N 0.55176 0.02386 -0.05845
 N260 N 0.57513 0.04023 -0.06943
 N261 N 0.50936 -0.02690 -0.09621
 N262 N 0.50406 -0.04379 -0.13323
 Mn263 Mn 0.53832 -0.00217 -0.00088
 Mn264 Mn 0.50025 -0.00034 -0.09574
 Cl265 Cl 0.50020 -0.00083 -0.00033
 C266 C 0.51677 -0.05500 -0.11679
 C267 C 0.57319 0.05109 -0.11496
 N268 N 1.15691 0.45106 0.31933
 C269 C 1.13209 0.44283 0.32007
 N270 N 1.11866 0.43027 0.36358
 N271 N 1.12967 0.42604 0.40504
 C272 C 1.15457 0.43403 0.40476
 N273 N 1.16790 0.44677 0.36090
 C274 C 1.12029 0.44890 0.27768
 C275 C 1.10953 0.45425 0.24451
 C276 C 1.09577 0.46091 0.20826
 N277 N 1.09073 0.47879 0.22241
 N278 N 1.07628 0.48388 0.19143
 C279 C 1.06636 0.47125 0.14523
 N280 N 1.07159 0.45345 0.13079
 N281 N 1.08604 0.44833 0.16190
 N282 N 0.54178 0.67675 0.37056
 C283 C 0.53076 0.67842 0.32491
 N284 N 0.52392 0.69579 0.32135
 N285 N 0.52812 0.71106 0.36234
 C286 C 0.53942 0.70970 0.40830
 N287 N 0.54592 0.69199 0.41136
 C288 C 0.52567 0.66120 0.28225
 C289 C 0.52172 0.64577 0.24892
 C290 C 0.51743 0.62641 0.21237
 N291 N 0.50188 0.60287 0.22672
 N292 N 0.49956 0.58461 0.19569
 C293 C 0.51276 0.58926 0.14930
 N294 N 0.52818 0.61286 0.13469
 N295 N 0.53052 0.63115 0.16581
 N296 N 0.30086 -0.16540 0.31973
 C297 C 0.31318 -0.14065 0.32040
 N298 N 0.31036 -0.12895 0.36326
 N299 N 0.29567 -0.14161 0.40416
 C300 C 0.28307 -0.16651 0.40396
 N301 N 0.28617 -0.17803 0.36071
 C302 C 0.33088 -0.12694 0.27903
 C303 C 0.34675 -0.11493 0.24643
 C304 C 0.36682 -0.10006 0.21049
 N305 N 0.36272 -0.09107 0.16422
 N306 N 0.38177 -0.07613 0.13285
 C307 C 0.40549 -0.06970 0.14685
 N308 N 0.40946 -0.07885 0.19299
 N309 N 0.39046 -0.09376 0.22425
 N310 N 0.85336 0.53039 0.36519
 C311 C 0.85727 0.54405 0.32028
 N312 N 0.84882 0.56026 0.31862
 N313 N 0.83678 0.56266 0.36076
 C314 C 0.83278 0.54887 0.40579
 N315 N 0.84139 0.53278 0.40721
 C316 C 0.87147 0.54205 0.27682
 C317 C 0.88411 0.53943 0.24340
 C318 C 0.89986 0.53518 0.20776
 N319 N 0.90994 0.54901 0.16298
 N320 N 0.92582 0.54572 0.13244
 C321 C 0.93215 0.52857 0.14593
 N322 N 0.92191 0.51474 0.19055
 N323 N 0.90605 0.51799 0.22091
 N324 N 0.48705 0.31080 0.31517
 C325 C 0.47018 0.31852 0.31020
 N326 N 0.45256 0.31241 0.34875
 N327 N 0.45187 0.29910 0.39111
 C328 C 0.46873 0.29133 0.39636
 N329 N 0.48635 0.29743 0.35757
 C330 C 0.47266 0.33544 0.26862
 C331 C 0.47492 0.35082 0.23658
 C332 C 0.47783 0.37037 0.20208
 N333 N 0.49269 0.39383 0.21786
 N334 N 0.49417 0.41221 0.18854
 C335 C 0.48082 0.40780 0.14242
 N336 N 0.46605 0.38429 0.12635
 N337 N 0.46454 0.36585 0.15581
 N338 N 0.69094 0.16720 0.32450
 C339 C 0.68521 0.14356 0.31894
 N340 N 0.69396 0.13371 0.35567
 N341 N 0.70803 0.14708 0.39667
 C342 C 0.71393 0.17083 0.40228
 N343 N 0.70500 0.18057 0.36550
 C344 C 0.66785 0.12843 0.27833
 C345 C 0.65220 0.11537 0.24634
 C346 C 0.63229 0.09939 0.21119
 N347 N 0.63683 0.09105 0.16450
 N348 N 0.61799 0.07543 0.13349
 C349 C 0.59406 0.06767 0.14828
 N350 N 0.58965 0.07615 0.19486
 N351 N 0.60843 0.09174 0.22575
 N352 N 0.46754 0.16706 -0.31350
 C353 C 0.48456 0.15942 -0.31098
 N354 N 0.50086 0.16483 -0.35214
 N355 N 0.50014 0.17737 -0.39465
 C356 C 0.48317 0.18508 -0.39748
 N357 N 0.46685 0.17968 -0.35608
 C358 C 0.48408 0.14378 -0.26828
 C359 C 0.48431 0.12969 -0.23561
 C360 C 0.48545 0.11198 -0.20100
 N361 N 0.50042 0.10281 -0.21473
 N362 N 0.50060 0.08517 -0.18552
 C363 C 0.48582 0.07604 -0.14149
 N364 N 0.47091 0.08534 -0.12739
 N365 N 0.47069 0.10302 -0.15679
 N366 N 0.70539 0.54200 -0.30992
 C367 C 0.68577 0.54591 -0.31481
 N368 N 0.68118 0.55284 -0.36309
 N369 N 0.69563 0.55568 -0.40526
 C370 C 0.71542 0.55186 -0.40114
 N371 N 0.71990 0.54491 -0.35231
 C372 C 0.66868 0.54110 -0.27124
 C373 C 0.65279 0.53677 -0.23803
 C374 C 0.63232 0.53136 -0.20264
 N375 N 0.63574 0.54393 -0.15608
 N376 N 0.61624 0.54022 -0.12617
 C377 C 0.59271 0.52391 -0.14205
 N378 N 0.58940 0.51127 -0.18843
 N379 N 0.60886 0.51495 -0.21821
 N380 N 0.83835 0.33940 -0.36900
 C381 C 0.84085 0.32912 -0.32323
 N382 N 0.82982 0.30444 -0.31998
 N383 N 0.81660 0.29052 -0.36133
 C384 C 0.81374 0.30064 -0.40740
 N385 N 0.82518 0.32547 -0.41017
 C386 C 0.85612 0.34455 -0.28035
 C387 C 0.86973 0.35888 -0.24703
 C388 C 0.88680 0.37743 -0.21094
 N389 N 0.89461 0.37161 -0.16497
 N390 N 0.91166 0.38917 -0.13372
 C391 C 0.92145 0.41307 -0.14758
 N392 N 0.91346 0.41877 -0.19341
 N393 N 0.89644 0.40127 -0.22452
 N394 N 0.54637 -0.13424 -0.36946
 C395 C 0.53521 -0.14640 -0.32370
 N396 N 0.52752 -0.17059 -0.32021
 N397 N 0.53104 -0.18219 -0.36134
 C398 C 0.54248 -0.17009 -0.40740
 N399 N 0.54984 -0.14585 -0.41040
 C400 C 0.53065 -0.13374 -0.28101
 C401 C 0.52701 -0.12193 -0.24768
 C402 C 0.52287 -0.10661 -0.21123
 N403 N 0.53614 -0.09843 -0.16490
 N404 N 0.53375 -0.08243 -0.13380
 C405 C 0.51812 -0.07403 -0.14823
 N406 N 0.50476 -0.08239 -0.19440
 N407 N 0.50712 -0.09839 -0.22538
 N408 N 0.31178 0.44131 -0.36577
 C409 C 0.30891 0.45145 -0.32026
 N410 N 0.28997 0.45646 -0.31724
 N411 N 0.27440 0.45142 -0.35868
 C412 C 0.27705 0.44109 -0.40462
 N413 N 0.29625 0.43633 -0.40701
 C414 C 0.32669 0.45779 -0.27747
 C415 C 0.34280 0.46291 -0.24431
 C416 C 0.36314 0.46874 -0.20819
 N417 N 0.35956 0.45606 -0.16170
 N418 N 0.37892 0.45991 -0.13111
 C419 C 0.40249 0.47647 -0.14619
 N420 N 0.40598 0.48924 -0.19250
 N421 N 0.38664 0.48541 -0.22300
 N422 N 1.16837 0.69896 -0.32063
 C423 C 1.15851 0.67438 -0.32320
 N424 N 1.16214 0.66439 -0.36811
 N425 N 1.17529 0.67850 -0.40910
 C426 C 1.18558 0.70325 -0.40697
 N427 N 1.18157 0.71307 -0.36178
 C428 C 1.14315 0.65873 -0.28066
 C429 C 1.12951 0.64431 -0.24751
 C430 C 1.11243 0.62571 -0.21150
 N431 N 1.10261 0.60189 -0.22536
 N432 N 1.08563 0.58437 -0.19420
 C433 C 1.07786 0.59004 -0.14805
 N434 N 1.08783 0.61392 -0.13390
 N435 N 1.10484 0.63150 -0.16521
 N436 N 0.87308 0.56154 -0.36064
 C437 C 0.86103 0.55299 -0.31330
 N438 N 0.83678 0.54702 -0.30955
 N439 N 0.82499 0.54949 -0.35211
 C440 C 0.83693 0.55799 -0.40003
 N441 N 0.86127 0.56392 -0.40303
 C442 C 0.87343 0.54820 -0.27003
 C443 C 0.88496 0.54374 -0.23705
 C444 C 0.89982 0.53798 -0.20199
 N445 N 0.91015 0.55107 -0.15648
 N446 N 0.92572 0.54689 -0.12697
 C447 C 0.93155 0.52959 -0.14225
 N448 N 0.92105 0.51646 -0.18758
 N449 N 0.90548 0.52060 -0.21695
 N450 N 0.46695 0.30097 -0.31686
 C451 C 0.47358 0.32476 -0.32429
 N452 N 0.47973 0.33444 -0.37429
 N453 N 0.47953 0.32089 -0.41553
 C454 C 0.47340 0.29709 -0.40873
 N455 N 0.46676 0.28740 -0.35838
 C456 C 0.47446 0.34000 -0.28044
 C457 C 0.47599 0.35447 -0.24677
 C458 C 0.47863 0.37342 -0.21075
 N459 N 0.49396 0.39709 -0.22437
 N460 N 0.49545 0.41505 -0.19352
 C461 C 0.48166 0.40996 -0.14795
 N462 N 0.46641 0.38622 -0.13403
 N463 N 0.46488 0.36821 -0.16502
 N464 N 0.69527 0.13631 -0.35008
 C465 C 0.68510 0.14590 -0.31629
 N466 N 0.68923 0.16885 -0.32539
 N467 N 0.70315 0.18183 -0.36693
 C468 C 0.71351 0.17237 -0.40070
 N469 N 0.70919 0.14930 -0.39161
 C470 C 0.66791 0.13097 -0.27530
 C471 C 0.65235 0.11797 -0.24314
 C472 C 0.63250 0.10194 -0.20803
 N473 N 0.63701 0.09289 -0.16235
 N474 N 0.61817 0.07700 -0.13174
 C475 C 0.59425 0.06966 -0.14599
 N476 N 0.58987 0.07886 -0.19154
 N477 N 0.60866 0.09473 -0.22200
 N478 N 1.11940 0.43089 -0.36116
 C479 C 1.13299 0.44332 -0.31774
 N480 N 1.15770 0.45096 -0.31684
 N481 N 1.16845 0.44632 -0.35834
 C482 C 1.15495 0.43383 -0.40229
 N483 N 1.13016 0.42631 -0.40252
 C484 C 1.12146 0.44991 -0.27577
 C485 C 1.11068 0.45552 -0.24325
 C486 C 1.09669 0.46220 -0.20782
 N487 N 1.09107 0.47957 -0.22328
 N488 N 1.07626 0.48447 -0.19313
 C489 C 1.06653 0.47213 -0.14651
 N490 N 1.07232 0.45487 -0.13080
 N491 N 1.08713 0.44994 -0.16106
 N492 N 0.52181 0.69445 -0.31782
 C493 C 0.53656 0.68428 -0.31167
 N494 N 0.55461 0.68916 -0.34847
 N495 N 0.55776 0.70364 -0.39036
 C496 C 0.54303 0.71384 -0.39682
 N497 N 0.52498 0.70897 -0.35975
 C498 C 0.53151 0.66644 -0.27045
 C499 C 0.52724 0.65044 -0.23841
 C500 C 0.52226 0.63038 -0.20341
 N501 N 0.53437 0.63416 -0.15574
 N502 N 0.53116 0.61525 -0.12566
 C503 C 0.51580 0.59197 -0.14243
 N504 N 0.50359 0.58827 -0.18996
 N505 N 0.50678 0.60716 -0.21995
 N506 N 0.30288 -0.16620 -0.32141
 C507 C 0.31390 -0.14151 -0.32039
 N508 N 0.30980 -0.12983 -0.36159
 N509 N 0.29510 -0.14247 -0.40247
 C510 C 0.28373 -0.16733 -0.40387
 N511 N 0.28816 -0.17881 -0.36237
 C512 C 0.33157 -0.12766 -0.27914
 C513 C 0.34741 -0.11546 -0.24668
 C514 C 0.36744 -0.10026 -0.21103
 N515 N 0.36318 -0.09156 -0.16456
 N516 N 0.38217 -0.07627 -0.13348
 C517 C 0.40599 -0.06918 -0.14802
 N518 N 0.41012 -0.07804 -0.19435
 N519 N 0.39118 -0.09331 -0.22531
 N520 N 0.52370 -0.17202 0.31897
 C521 C 0.53905 -0.14765 0.31239
 N522 N 0.55741 -0.13532 0.34883
 N523 N 0.56027 -0.14693 0.39073
 C524 C 0.54494 -0.17132 0.39759
 N525 N 0.52657 -0.18365 0.36091
 C526 C 0.53437 -0.13446 0.27115
 C527 C 0.53037 -0.12243 0.23905
 C528 C 0.52561 -0.10707 0.20397
 N529 N 0.50968 -0.09930 0.21969
 N530 N 0.50661 -0.08345 0.18968
 C531 C 0.51939 -0.07479 0.14294
 N532 N 0.53521 -0.08274 0.12698
 N533 N 0.53830 -0.09860 0.15708
 N534 N 0.30149 0.42918 0.35236
 C535 C 0.30545 0.44661 0.31544
 N536 N 0.29382 0.45994 0.32140
 N537 N 0.27873 0.45597 0.36317
 C538 C 0.27472 0.43851 0.40029
 N539 N 0.28644 0.42523 0.39410
 C540 C 0.32378 0.45251 0.27416
 C541 C 0.34022 0.45765 0.24194
 C542 C 0.36089 0.46388 0.20669
 N543 N 0.35774 0.45206 0.15917
 N544 N 0.37737 0.45665 0.12876
 C545 C 0.40075 0.47315 0.14505
 N546 N 0.40380 0.48505 0.19242
 N547 N 0.38419 0.48048 0.22273
 N548 N 1.16202 0.69711 0.32304
 C549 C 1.16214 0.67593 0.31390
 N550 N 1.17514 0.66939 0.34755
 N551 N 1.18761 0.68356 0.38911
 C552 C 1.18763 0.70484 0.39833
 N553 N 1.17451 0.71130 0.36461
 C554 C 1.14658 0.65931 0.27293
 C555 C 1.13268 0.64440 0.24091
 C556 C 1.11521 0.62560 0.20589
 N557 N 1.10525 0.60185 0.22059
 N558 N 1.08774 0.58423 0.19050
 C559 C 1.07957 0.58975 0.14468
 N560 N 1.08967 0.61355 0.12972
 N561 N 1.10720 0.63121 0.15993
 N562 N 0.49724 0.16256 0.35707
 C563 C 0.47812 0.15295 0.32147
 N564 N 0.45871 0.15704 0.32859
 N565 N 0.45853 0.17044 0.37006
 C566 C 0.47778 0.18019 0.40563
 N567 N 0.49705 0.17589 0.39846
 C568 C 0.47785 0.13714 0.27955
 C569 C 0.47857 0.12333 0.24691
 C570 C 0.48049 0.10631 0.21158
 N571 N 0.46692 0.09846 0.16553
 N572 N 0.46823 0.08181 0.13453
 C573 C 0.48313 0.07251 0.14873
 N574 N 0.49673 0.08052 0.19465
 N575 N 0.49544 0.09713 0.22550
 N576 N 0.67251 0.52060 0.36357
 C577 C 0.68142 0.53507 0.31947
 N578 N 0.70560 0.55304 0.31855
 N579 N 0.72041 0.55638 0.36063
 C580 C 0.71148 0.54184 0.40489
 N581 N 0.68726 0.52395 0.40556
 C582 C 0.66464 0.53247 0.27676
 C583 C 0.64914 0.52973 0.24383
 C584 C 0.62917 0.52588 0.20844
 N585 N 0.63339 0.53947 0.16315
 N586 N 0.61437 0.53686 0.13288
 C587 C 0.59056 0.52065 0.14715
 N588 N 0.58646 0.50701 0.19229
 N589 N 0.60544 0.50959 0.22241
 N590 N 0.83608 0.30554 0.32104
 C591 C 0.83714 0.32734 0.31276
 N592 N 0.82522 0.33470 0.34743
 N593 N 0.81265 0.32074 0.38916
 C594 C 0.81147 0.29886 0.39758
 N595 N 0.82348 0.29155 0.36280
 C596 C 0.85293 0.34374 0.27173
 C597 C 0.86704 0.35856 0.23984
 C598 C 0.88478 0.37735 0.20519
 N599 N 0.89514 0.40105 0.22048
 N600 N 0.91284 0.41865 0.19069
 C601 C 0.92080 0.41316 0.14459
 N602 N 0.91029 0.38941 0.12904
 N603 N 0.89257 0.37176 0.15895
   
