data_POSCAR
  _audit_creation_date              2014-09-24
  _audit_creation_method            'ToBaCCo'
  _symmetry_space_group_name_H-M    'P1'
  _symmetry_Int_Tables_number       1
  _symmetry_cell_setting            triclinic
  loop_
  _symmetry_equiv_pos_as_xyz
 x,y,z
_cell_length_a 25.5578
_cell_length_b 25.5421
_cell_length_c 25.4692
_cell_angle_alpha 90.064200
_cell_angle_beta 90.036700
_cell_angle_gamma 90.024300
loop_
  _atom_site_label
  _atom_site_type_symbol
  _atom_site_fract_x
  _atom_site_fract_y
  _atom_site_fract_z
C1 C 0.38993 1.00289 -0.54984
 C2 C 0.36271 1.00445 -0.50229
 C3 C 0.38912 1.00313 -0.45433
 C4 C 0.44431 1.00044 -0.45326
 C5 C 0.47251 0.99866 -0.50121
 C6 C 0.44526 0.99983 -0.54980
 C7 C 0.47404 0.99778 -0.59684
 C8 C 0.52843 0.99453 -0.59619
 C9 C 0.55625 0.99336 -0.54848
 C10 C 0.52802 0.99553 -0.50054
 C11 C 0.47199 0.99940 -0.40556
 C12 C 0.52637 0.99667 -0.40487
 C13 C 0.55521 0.99463 -0.45190
 C14 C 0.61050 0.99173 -0.45171
 C15 C 0.63783 0.98937 -0.49914
 C16 C 0.61153 0.99012 -0.54726
 H17 H 0.45466 0.99860 -0.63465
 H18 H 0.54856 0.99293 -0.63355
 H19 H 0.45178 1.00076 -0.36823
 H20 H 0.54568 0.99605 -0.36703
 H21 H 0.32025 1.00644 -0.50250
 H22 H 0.68031 0.98713 -0.49861
 C23 C -0.54974 1.39258 0.00688
 C24 C -0.50276 1.36475 0.00609
 C25 C -0.45470 1.39067 0.00481
 C26 C -0.45301 1.44594 0.00460
 C27 C -0.50050 1.47467 0.00508
 C28 C -0.54915 1.44789 0.00620
 C29 C -0.59578 1.47707 0.00638
 C30 C -0.59467 1.53156 0.00514
 C31 C -0.54689 1.55888 0.00383
 C32 C -0.49935 1.53022 0.00405
 C33 C -0.40521 1.47319 0.00371
 C34 C -0.40405 1.52769 0.00303
 C35 C -0.45069 1.55701 0.00300
 C36 C -0.45015 1.61240 0.00182
 C37 C -0.49726 1.64014 0.00129
 C38 C -0.54530 1.61412 0.00216
 H39 H -0.63359 1.45796 0.00732
 H40 H -0.63170 1.55215 0.00520
 H41 H -0.36821 1.45256 0.00352
 H42 H -0.36619 1.54670 0.00234
 H43 H -0.50362 1.32225 0.00609
 H44 H -0.49665 1.68265 0.00006
 C45 C 0.00635 0.38985 0.45149
 C46 C 0.00754 0.36252 0.49895
 C47 C 0.00571 0.38886 0.54703
 C48 C 0.00290 0.44419 0.54818
 C49 C 0.00161 0.47239 0.50020
 C50 C 0.00325 0.44516 0.45160
 C51 C 0.00170 0.47395 0.40453
 C52 C -0.00127 0.52835 0.40515
 C53 C -0.00277 0.55609 0.45282
 C54 C -0.00134 0.52794 0.50080
 C55 C 0.00132 0.47208 0.59586
 C56 C -0.00128 0.52653 0.59643
 C57 C -0.00261 0.55528 0.54935
 C58 C -0.00501 0.61065 0.54930
 C59 C -0.00657 0.63782 0.50174
 C60 C -0.00552 0.61131 0.45383
 H61 H 0.00280 0.45459 0.36671
 H62 H -0.00231 0.54851 0.36779
 H63 H 0.00223 0.45195 0.63325
 H64 H -0.00231 0.54598 0.63422
 H65 H 0.00969 0.32001 0.49847
 H66 H -0.00825 0.68033 0.50191
 O67 O -0.13616 1.00092 -0.07040
 O68 O 0.13342 1.00119 -0.07150
 O69 O -0.00360 1.07156 -0.13535
 O70 O 0.00069 0.93021 -0.13506
 O71 O 0.00181 0.86632 -0.07096
 O72 O -0.00397 1.13594 -0.07159
 O73 O 0.06917 0.99996 -0.13532
 O74 O -0.07251 1.00171 -0.13474
 Zr75 Zr -0.00144 1.00104 -0.09239
 O76 O 0.04688 0.95421 -0.04784
 O77 O -0.04936 1.04815 -0.04769
 C78 C -0.12069 1.00166 -0.11885
 C79 C 0.11748 1.00000 -0.11981
 C80 C -0.00435 1.11991 -0.11992
 C81 C 0.00195 0.88199 -0.11935
 H82 H 0.06756 1.07152 -0.07009
 O83 O 0.04545 1.04901 -0.04767
 H84 H -0.07001 0.93070 -0.06940
 O85 O -0.04784 0.95336 -0.04711
 O86 O 0.13399 1.00488 0.07049
 O87 O -0.13532 0.99749 0.07162
 O88 O 0.06811 1.13702 0.00145
 O89 O 0.07147 0.86736 -0.00182
 O90 O -0.07003 0.86556 0.00195
 O91 O -0.07348 1.13525 -0.00202
 O92 O 0.00094 1.07274 0.13466
 O93 O -0.00165 0.93104 0.13506
 O94 O -0.00025 1.13650 0.07043
 O95 O -0.00124 0.86677 0.07117
 O96 O 0.13266 1.07374 0.00149
 O97 O -0.13648 1.07039 -0.00137
 O98 O -0.13465 0.92877 0.00219
 O99 O 0.13444 0.93225 -0.00219
 O100 O 0.07028 1.00431 0.13474
 O101 O -0.07098 0.99877 0.13532
 Zr102 Zr 0.09104 1.00243 -0.00036
 Zr103 Zr -0.09308 1.00018 0.00036
 Zr104 Zr -0.00218 1.09357 -0.00037
 Zr105 Zr 0.00017 0.90910 0.00005
 Zr106 Zr -0.00058 1.00169 0.09222
 O107 O -0.04759 0.95341 0.04775
 O108 O 0.04603 1.04959 0.04717
 C109 C 0.11844 1.00563 0.11892
 C110 C -0.11926 0.99670 0.11991
 C111 C 0.11647 1.12180 0.00242
 C112 C 0.11945 0.88380 -0.00286
 C113 C -0.11840 0.88071 0.00281
 C114 C -0.12147 1.11883 -0.00255
 C115 C 0.00140 1.12095 0.11881
 C116 C -0.00231 0.88273 0.11948
 H117 H -0.07116 1.07035 0.07002
 O118 O -0.04868 1.04829 0.04747
 H119 H 0.06965 0.93270 0.06970
 O120 O 0.04702 0.95471 0.04728
 C121 C 0.22899 1.00544 0.23496
 C122 C 0.25738 1.05125 0.24802
 C123 C 0.29323 1.05056 0.29074
 C124 C 0.30041 1.00406 0.32012
 C125 C 0.27284 0.95794 0.30630
 C126 C 0.23700 0.95864 0.26362
 C127 C 0.20956 0.91215 0.25082
 C128 C 0.21731 0.86630 0.27937
 C129 C 0.25240 0.86560 0.32106
 C130 C 0.27995 0.91076 0.33456
 C131 C 0.32094 1.09690 0.30326
 C132 C 0.31353 1.14261 0.27435
 C133 C 0.27854 1.14326 0.23255
 C134 C 0.25058 1.09826 0.21943
 C135 C 0.33435 1.00409 0.36589
 C136 C 0.36118 1.00370 0.40487
 C137 C 0.19060 1.00657 0.19296
 C138 C 0.15799 1.00665 0.15877
 H139 H 0.18189 0.91068 0.21868
 H140 H 0.19598 0.83115 0.26907
 H141 H 0.25831 0.82987 0.34310
 H142 H 0.30687 0.90821 0.36726
 H143 H 0.34868 1.09825 0.33536
 H144 H 0.33509 1.17770 0.28441
 H145 H 0.27298 1.17883 0.21020
 H146 H 0.22375 1.10070 0.18663
 C147 C -0.22741 0.98743 0.23775
 C148 C -0.27443 1.01665 0.23582
 C149 C -0.30956 1.01556 0.27906
 C150 C -0.29747 0.98522 0.32394
 C151 C -0.25104 0.95497 0.32534
 C152 C -0.21588 0.95612 0.28214
 C153 C -0.16943 0.92601 0.28469
 C154 C -0.15799 0.89577 0.32872
 C155 C -0.19250 0.89443 0.37084
 C156 C -0.23853 0.92362 0.36940
 C157 C -0.35613 1.04542 0.27640
 C158 C -0.36770 1.07545 0.23225
 C159 C -0.33335 1.07651 0.18996
 C160 C -0.28718 1.04754 0.19152
 C161 C -0.33163 0.98659 0.36946
 C162 C -0.35891 0.98813 0.40805
 C163 C -0.19010 0.99072 0.19492
 C164 C -0.15825 0.99355 0.16017
 H165 H -0.14148 0.92550 0.25279
 H166 H -0.12219 0.87318 0.33012
 H167 H -0.18352 0.87069 0.40485
 H168 H -0.26412 0.92131 0.40315
 H169 H -0.38407 1.04581 0.30830
 H170 H -0.40351 1.09803 0.23085
 H171 H -0.34251 1.09991 0.15576
 H172 H -0.26172 1.04956 0.15765
 C173 C -0.23188 0.99667 -0.23413
 C174 C -0.25996 1.04214 -0.24875
 C175 C -0.29523 1.04029 -0.29189
 C176 C -0.30210 0.99300 -0.32019
 C177 C -0.27535 0.94709 -0.30440
 C178 C -0.24015 0.94892 -0.26120
 C179 C -0.21358 0.90259 -0.24634
 C180 C -0.22153 0.85583 -0.27342
 C181 C -0.25594 0.85404 -0.31565
 C182 C -0.28263 0.89903 -0.33116
 C183 C -0.32267 1.08631 -0.30598
 C184 C -0.31540 1.13284 -0.27828
 C185 C -0.28080 1.13468 -0.23620
 C186 C -0.25334 1.08995 -0.22137
 C187 C -0.33486 0.99215 -0.36680
 C188 C -0.36099 0.99179 -0.40624
 C189 C -0.19322 0.99930 -0.19246
 C190 C -0.16037 1.00087 -0.15854
 H191 H -0.18654 0.90195 -0.21364
 H192 H -0.20088 0.82080 -0.26155
 H193 H -0.26201 0.81760 -0.33653
 H194 H -0.30909 0.89567 -0.36419
 H195 H -0.35009 1.08678 -0.33838
 H196 H -0.33674 1.16767 -0.28955
 H197 H -0.27529 1.17093 -0.21482
 H198 H -0.22707 1.09324 -0.18819
 C199 C 0.22742 1.00195 -0.23614
 C200 C 0.23851 1.04982 -0.26184
 C201 C 0.27366 1.05065 -0.30504
 C202 C 0.29763 1.00365 -0.32213
 C203 C 0.28768 0.95606 -0.29543
 C204 C 0.25242 0.95520 -0.25231
 C205 C 0.24280 0.90713 -0.22643
 C206 C 0.26743 0.86122 -0.24264
 C207 C 0.30191 0.86203 -0.28479
 C208 C 0.31206 0.90879 -0.31106
 C209 C 0.28377 1.09887 -0.33045
 C210 C 0.25997 1.14498 -0.31353
 C211 C 0.22577 1.14420 -0.27114
 C212 C 0.21492 1.09728 -0.24551
 C213 C 0.33109 1.00390 -0.36816
 C214 C 0.35800 1.00377 -0.40702
 C215 C 0.18917 1.00064 -0.19412
 C216 C 0.15673 0.99999 -0.15985
 H217 H 0.21639 0.90453 -0.19334
 H218 H 0.25977 0.82482 -0.22229
 H219 H 0.32096 0.82626 -0.29719
 H220 H 0.33928 0.90748 -0.34355
 H221 H 0.31021 1.10147 -0.36351
 H222 H 0.26813 1.18152 -0.33341
 H223 H 0.20730 1.18010 -0.25821
 H224 H 0.18795 1.09867 -0.21281
 C225 C 0.23154 1.23270 0.00472
 C226 C 0.25831 1.24432 -0.04250
 C227 C 0.30121 1.27970 -0.04189
 C228 C 0.31712 1.30314 0.00595
 C229 C 0.28954 1.29245 0.05295
 C230 C 0.24658 1.25710 0.05233
 C231 C 0.21978 1.24670 0.09983
 C232 C 0.23493 1.27065 0.14661
 C233 C 0.27701 1.30515 0.14725
 C234 C 0.30416 1.31607 0.10107
 C235 C 0.32762 1.29047 -0.08954
 C236 C 0.31211 1.26688 -0.13641
 C237 C 0.27019 1.23221 -0.13698
 C238 C 0.24344 1.22093 -0.09070
 C239 C 0.36316 1.33639 0.00702
 C240 C 0.40229 1.36272 0.00727
 C241 C 0.18975 1.19431 0.00448
 C242 C 0.15584 1.16159 0.00379
 H243 H 0.18682 1.22012 0.10130
 H244 H 0.21394 1.26235 0.18256
 H245 H 0.28868 1.32359 0.18371
 H246 H 0.33655 1.34327 0.10348
 H247 H 0.36041 1.31722 -0.09112
 H248 H 0.33274 1.27556 -0.17247
 H249 H 0.25832 1.21396 -0.17347
 H250 H 0.21103 1.19376 -0.09319
 C251 C 0.23781 0.77647 -0.00508
 C252 C 0.23881 0.73458 0.03125
 C253 C 0.28210 0.69967 0.03206
 C254 C 0.32413 0.70702 -0.00336
 C255 C 0.32279 0.74854 -0.04016
 C256 C 0.27951 0.78341 -0.04099
 C257 C 0.27930 0.82501 -0.07771
 C258 C 0.32077 0.83203 -0.11248
 C259 C 0.36298 0.79777 -0.11186
 C260 C 0.36419 0.75643 -0.07622
 C261 C 0.28238 0.65818 0.06886
 C262 C 0.24110 0.65147 0.10397
 C263 C 0.19882 0.68568 0.10326
 C264 C 0.19746 0.72682 0.06739
 C265 C 0.36949 0.67296 -0.00107
 C266 C 0.40787 0.64563 0.00061
 C267 C 0.19478 0.81345 -0.00455
 C268 C 0.15986 0.84507 -0.00393
 H269 H 0.24726 0.85261 -0.07988
 H270 H 0.32020 0.86429 -0.13998
 H271 H 0.39503 0.80332 -0.13905
 H272 H 0.39792 0.73086 -0.07724
 H273 H 0.31439 0.63054 0.07086
 H274 H 0.24195 0.61954 0.13187
 H275 H 0.16685 0.68029 0.13060
 H276 H 0.16372 0.75238 0.06831
 C277 C -0.23270 0.76894 0.00139
 C278 C -0.25898 0.75813 -0.04637
 C279 C -0.30211 0.72300 -0.04689
 C280 C -0.31861 0.69891 0.00034
 C281 C -0.29105 0.70822 0.04770
 C282 C -0.24795 0.74338 0.04823
 C283 C -0.22121 0.75242 0.09609
 C284 C -0.23656 0.72731 0.14212
 C285 C -0.27873 0.69293 0.14162
 C286 C -0.30584 0.68337 0.09508
 C287 C -0.32808 0.71312 -0.09500
 C288 C -0.31185 0.73723 -0.14129
 C289 C -0.26968 0.77159 -0.14078
 C290 C -0.24339 0.78207 -0.09399
 C291 C -0.36521 0.66642 0.00065
 C292 C -0.40467 0.64056 0.00112
 C293 C -0.19129 0.80774 0.00258
 C294 C -0.15765 0.84076 0.00309
 H295 H -0.18810 0.77876 0.09841
 H296 H -0.21559 0.73454 0.17834
 H297 H -0.29049 0.67351 0.17748
 H298 H -0.33829 0.65618 0.09661
 H299 H -0.36102 0.68659 -0.09739
 H300 H -0.33212 0.72918 -0.17776
 H301 H -0.25724 0.79023 -0.17682
 H302 H -0.21070 0.80896 -0.09563
 C303 C -0.23913 1.22685 -0.00493
 C304 C -0.23751 1.27132 0.02827
 C305 C -0.28052 1.30655 0.02944
 C306 C -0.32485 1.29699 -0.00254
 C307 C -0.32602 1.25305 -0.03649
 C308 C -0.28301 1.21785 -0.03768
 C309 C -0.28521 1.17393 -0.07162
 C310 C -0.32873 1.16500 -0.10336
 C311 C -0.37074 1.19951 -0.10232
 C312 C -0.36962 1.24308 -0.06935
 C313 C -0.27817 1.35063 0.06308
 C314 C -0.23453 1.35965 0.09468
 C315 C -0.19246 1.32519 0.09354
 C316 C -0.19374 1.28143 0.06083
 C317 C -0.36986 1.33142 0.00039
 C318 C -0.40802 1.35900 0.00263
 C319 C -0.19646 1.18950 -0.00436
 C320 C -0.16178 1.15763 -0.00367
 H321 H -0.25343 1.14605 -0.07399
 H322 H -0.32988 1.13110 -0.12887
 H323 H -0.40442 1.19246 -0.12714
 H324 H -0.40327 1.26878 -0.06994
 H325 H -0.30991 1.37859 0.06525
 H326 H -0.23335 1.39358 0.12016
 H327 H -0.15862 1.33242 0.11808
 H328 H -0.16006 1.25576 0.06128
 C329 C 0.00729 1.23256 0.23368
 C330 C 0.05418 1.24018 0.26231
 C331 C 0.05503 1.27536 0.30557
 C332 C 0.00900 1.30276 0.31981
 C333 C -0.03728 1.29675 0.28980
 C334 C -0.03815 1.26150 0.24660
 C335 C -0.08499 1.25577 0.21743
 C336 C -0.12969 1.28413 0.23055
 C337 C -0.12881 1.31868 0.27275
 C338 C -0.08327 1.32504 0.30220
 C339 C 0.10222 1.28199 0.33394
 C340 C 0.14733 1.25473 0.31985
 C341 C 0.14651 1.22037 0.27750
 C342 C 0.10058 1.21300 0.24892
 C343 C 0.00858 1.33532 0.36655
 C344 C 0.00772 1.36136 0.40605
 C345 C 0.00528 1.19363 0.19223
 C346 C 0.00348 1.16064 0.15846
 H347 H -0.08753 1.22952 0.18415
 H348 H -0.16518 1.27927 0.20784
 H349 H -0.16362 1.34067 0.28273
 H350 H -0.08446 1.35247 0.33460
 H351 H 0.10481 1.30840 0.36709
 H352 H 0.18313 1.26033 0.34190
 H353 H 0.18164 1.19931 0.26672
 H354 H 0.10193 1.18596 0.21620
 C355 C 0.00179 1.22764 -0.23821
 C356 C 0.03560 1.21703 -0.28097
 C357 C 0.03786 1.25221 -0.32409
 C358 C 0.00622 1.29773 -0.32426
 C359 C -0.02684 1.30882 -0.28107
 C360 C -0.02909 1.27364 -0.23791
 C361 C -0.06266 1.28535 -0.19533
 C362 C -0.09312 1.33059 -0.19535
 C363 C -0.09090 1.36502 -0.23753
 C364 C -0.05822 1.35445 -0.28002
 C365 C 0.07180 1.24067 -0.36648
 C366 C 0.10246 1.19557 -0.36635
 C367 C 0.10006 1.16104 -0.32430
 C368 C 0.06725 1.17153 -0.28191
 C369 C 0.00638 1.33198 -0.36970
 C370 C 0.00619 1.35930 -0.40827
 C371 C -0.00163 1.19070 -0.19510
 C372 C -0.00359 1.15896 -0.16020
 H373 H -0.06568 1.25976 -0.16163
 H374 H -0.11858 1.33898 -0.16244
 H375 H -0.11461 1.40013 -0.23734
 H376 H -0.05778 1.38242 -0.31190
 H377 H 0.07502 1.26632 -0.40011
 H378 H 0.12817 1.18733 -0.39909
 H379 H 0.12376 1.12593 -0.32451
 H380 H 0.06696 1.14355 -0.25004
 C381 C 0.00113 0.77156 -0.23554
 C382 C -0.04572 0.74439 -0.24745
 C383 C -0.04706 0.70861 -0.29022
 C384 C -0.00157 0.70029 -0.32081
 C385 C 0.04554 0.72672 -0.30824
 C386 C 0.04687 0.76252 -0.26551
 C387 C 0.09425 0.78894 -0.25405
 C388 C 0.13904 0.78020 -0.28395
 C389 C 0.13779 0.74509 -0.32565
 C390 C 0.09171 0.71855 -0.33784
 C391 C -0.09441 0.68217 -0.30163
 C392 C -0.13916 0.69080 -0.27160
 C393 C -0.13785 0.72576 -0.22975
 C394 C -0.09180 0.75242 -0.21767
 C395 C -0.00360 0.66636 -0.36653
 C396 C -0.00461 0.63950 -0.40547
 C397 C 0.00188 0.80996 -0.19353
 C398 C 0.00223 0.84252 -0.15929
 H399 H 0.09722 0.81657 -0.22195
 H400 H 0.17488 0.80078 -0.27473
 H401 H 0.17272 0.73841 -0.34873
 H402 H 0.09272 0.69159 -0.37063
 H403 H -0.09729 0.65452 -0.33373
 H404 H -0.17505 0.67024 -0.28084
 H405 H -0.17270 0.73230 -0.20652
 H406 H -0.09273 0.77924 -0.18477
 C407 C -0.00604 0.77256 0.23543
 C408 C -0.05369 0.76151 0.26149
 C409 C -0.05419 0.72642 0.30474
 C410 C -0.00708 0.70247 0.32147
 C411 C 0.04026 0.71228 0.29432
 C412 C 0.04078 0.74747 0.25116
 C413 C 0.08862 0.75696 0.22479
 C414 C 0.13461 0.73226 0.24055
 C415 C 0.13411 0.69785 0.28278
 C416 C 0.08761 0.68784 0.30952
 C417 C -0.10219 0.71637 0.33055
 C418 C -0.14840 0.74012 0.31392
 C419 C -0.14794 0.77424 0.27145
 C420 C -0.10122 0.78506 0.24546
 C421 C -0.00695 0.66915 0.36758
 C422 C -0.00648 0.64233 0.40648
 C423 C -0.00489 0.81093 0.19357
 C424 C -0.00375 0.84345 0.15942
 H425 H 0.09097 0.78335 0.19166
 H426 H 0.17082 0.73988 0.21989
 H427 H 0.16995 0.67877 0.29488
 H428 H 0.08917 0.66066 0.34205
 H429 H -0.10455 0.68999 0.36368
 H430 H -0.18478 0.73200 0.33409
 H431 H -0.18391 0.79268 0.25875
 H432 H -0.10284 0.81197 0.21271
   
