data_POSCAR
  _audit_creation_date              2014-09-24
  _audit_creation_method            'ToBaCCo'
  _symmetry_space_group_name_H-M    'P1'
  _symmetry_Int_Tables_number       1
  _symmetry_cell_setting            triclinic
  loop_
  _symmetry_equiv_pos_as_xyz
 x,y,z
_cell_length_a 49.0476
_cell_length_b 48.9157
_cell_length_c 48.8954
_cell_angle_alpha 89.986000
_cell_angle_beta 90.149600
_cell_angle_gamma 89.997400
loop_
  _atom_site_label
  _atom_site_type_symbol
  _atom_site_fract_x
  _atom_site_fract_y
  _atom_site_fract_z
C1 C 0.18891 1.22471 0.19252
 N2 N 0.17901 1.21369 0.21601
 C3 C 0.19082 1.19129 0.22756
 N4 N 0.21297 1.17996 0.21526
 C5 C 0.22310 1.19064 0.19173
 N6 N 0.21090 1.21291 0.18050
 C7 C 0.80691 0.77780 0.19075
 N8 N 0.78530 0.79053 0.17883
 C9 C 0.77404 0.81319 0.19020
 N10 N 0.78485 0.82338 0.21370
 C11 C 0.80659 0.81109 0.22592
 N12 N 0.81735 0.78824 0.21432
 C13 C 0.81038 1.22432 -0.19245
 N14 N 0.82215 1.21236 -0.21457
 C15 C 0.81032 1.19060 -0.22723
 N16 N 0.78634 1.18075 -0.21736
 C17 C 0.77434 1.19229 -0.19515
 N18 N 0.78651 1.21402 -0.18287
 C19 C 0.19374 0.76829 -0.19374
 N20 N 0.18386 0.77791 -0.21785
 C21 C 0.19610 0.79921 -0.23086
 N22 N 0.21866 0.81075 -0.21940
 C23 C 0.22867 0.80146 -0.19517
 N24 N 0.21599 0.78034 -0.18243
 C25 C 0.52002 1.05334 -0.02526
 H26 H 0.50621 1.06335 -0.01132
 C27 C 0.53774 1.06910 -0.04109
 H28 H 0.53685 1.09116 -0.03960
 C29 C 0.53843 1.01256 -0.04371
 H30 H 0.53880 0.99045 -0.04424
 C31 C 0.55653 1.02750 -0.05984
 H32 H 0.57094 1.01667 -0.07260
 N33 N 0.52059 1.02559 -0.02695
 C34 C 0.47400 1.02165 0.04501
 H35 H 0.48758 1.00742 0.05505
 C36 C 0.45476 1.03598 0.06044
 H37 H 0.45382 1.03251 0.08227
 C38 C 0.45734 1.04171 0.00416
 H39 H 0.45817 1.04340 -0.01789
 C40 C 0.43811 1.05673 0.01878
 H41 H 0.42472 1.07046 0.00775
 Zn42 Zn 0.49835 1.00334 -0.00454
 N43 N 0.47491 1.02476 0.01738
 C44 C 0.52283 0.95442 0.01556
 N45 N 0.52209 0.98215 0.01748
 C46 C 0.53961 0.99589 0.03411
 C47 C 0.55870 0.98170 0.04988
 C48 C 0.54157 0.93941 0.03100
 C49 C 0.47406 0.98359 -0.05373
 C50 C 0.45534 0.96817 -0.06884
 C51 C 0.44034 0.94703 -0.02683
 C52 C 0.45901 0.96311 -0.01254
 N53 N 0.47554 0.98078 -0.02609
 H54 H 0.50926 0.94387 0.00171
 H55 H 0.53892 1.01799 0.03484
 H56 H 0.57280 0.99310 0.06257
 H57 H 0.54170 0.91734 0.02933
 H58 H 0.48679 0.99836 -0.06403
 H59 H 0.45393 0.97135 -0.09070
 H60 H 0.42780 0.93276 -0.01556
 H61 H 0.46028 0.96165 0.00951
 C62 C 0.43632 1.05373 0.04732
 C63 C 0.55643 1.05619 -0.05859
 C64 C 0.43801 0.94965 -0.05538
 C65 C 0.55995 0.95305 0.04836
 C66 C -0.02252 0.52525 1.05223
 H67 H -0.00762 0.51268 1.06261
 C68 C -0.03753 0.54446 1.06708
 H69 H -0.03385 0.54640 1.08883
 C70 C -0.04363 0.53947 1.01100
 H71 H -0.04543 0.53776 0.98901
 C72 C -0.05940 0.55853 1.02506
 H73 H -0.07383 0.57082 1.01366
 N74 N -0.02581 0.52316 1.02469
 C75 C 0.00538 0.45984 1.04297
 H76 H -0.01666 0.45992 1.04382
 C77 C 0.02018 0.44127 1.05881
 H78 H 0.00931 0.42697 1.07169
 C79 C 0.04610 0.47748 1.02389
 H80 H 0.05612 0.49113 1.00977
 C81 C 0.06171 0.45929 1.03940
 H82 H 0.08369 0.45968 1.03750
 Zn83 Zn -0.00350 0.49997 1.00342
 N84 N 0.01845 0.47748 1.02598
 C85 C 0.03524 0.54060 0.99490
 N86 N 0.01823 0.52317 0.98156
 C87 C 0.01553 0.52396 0.95388
 C88 C 0.03043 0.54285 0.93851
 C89 C 0.05080 0.55948 0.98036
 C90 C -0.05241 0.47565 0.98308
 C91 C -0.06736 0.45692 0.96754
 C92 C -0.02511 0.43952 0.94917
 C93 C -0.01099 0.45862 0.96499
 N94 N -0.02474 0.47628 0.98140
 H95 H 0.03662 0.53984 1.01698
 H96 H 0.00127 0.51050 0.94373
 H97 H 0.02736 0.54365 0.91660
 H98 H 0.06459 0.57270 0.99149
 H99 H -0.06297 0.48930 0.99679
 H100 H -0.08938 0.45692 0.96899
 H101 H -0.01370 0.42531 0.93667
 H102 H 0.01106 0.45919 0.96448
 C103 C 0.04876 0.44068 1.05699
 C104 C -0.05622 0.56159 1.05349
 C105 C -0.05370 0.43843 0.95037
 C106 C 0.04832 0.56105 0.95175
 C107 C 1.05252 -0.02252 0.52473
 H108 H 1.06239 -0.00728 0.51219
 C109 C 1.06805 -0.03815 0.54296
 H110 H 1.08979 -0.03457 0.54422
 C111 C 1.01200 -0.04406 0.53976
 H112 H 0.99004 -0.04588 0.53868
 C113 C 1.02674 -0.06046 0.55783
 H114 H 1.01585 -0.07534 0.57000
 N115 N 1.02502 -0.02580 0.52343
 C116 C 1.02243 0.04679 0.47855
 H117 H 1.00840 0.05661 0.49240
 C118 C 1.03779 0.06275 0.46060
 H119 H 1.03587 0.08478 0.46140
 C120 C 1.04153 0.00626 0.46024
 H121 H 1.04251 -0.01583 0.46002
 C122 C 1.05720 0.02142 0.44189
 H123 H 1.07007 0.01077 0.42744
 Zn124 Zn 1.00295 -0.00338 0.50094
 N125 N 1.02469 0.01907 0.47818
 C126 C 0.99472 0.03542 0.54181
 N127 N 0.98138 0.01797 0.52480
 C128 C 0.95390 0.01462 0.52634
 C129 C 0.93873 0.02935 0.54550
 C130 C 0.98033 0.05090 0.56088
 C131 C 0.96348 -0.01120 0.46048
 C132 C 0.94732 -0.02555 0.44182
 C133 C 0.96706 -0.06766 0.45844
 C134 C 0.98291 -0.05249 0.47671
 N135 N 0.98070 -0.02478 0.47756
 H136 H 1.01666 0.03730 0.54051
 H137 H 0.94378 -0.00000 0.51323
 H138 H 0.91701 0.02572 0.54688
 H139 H 0.99145 0.06515 0.57364
 H140 H 0.96253 0.01089 0.46120
 H141 H 0.93413 -0.01427 0.42808
 H142 H 0.96893 -0.08971 0.45831
 H143 H 0.99725 -0.06291 0.48985
 C144 C 1.05539 0.05009 0.44184
 C145 C 1.05519 -0.05747 0.55991
 C146 C 0.94902 -0.05420 0.44057
 C147 C 0.95192 0.04782 0.56319
 C148 C 0.15001 0.29277 1.15525
 C149 C 0.17316 0.28083 1.14333
 C150 C 0.18611 0.25861 1.15573
 C151 C 0.17624 0.24760 1.18044
 C152 C 0.15320 0.25985 1.19252
 C153 C 0.14030 0.28213 1.18008
 C154 C 0.13585 0.31582 1.14154
 N155 N 0.11384 0.32797 1.15319
 N156 N 0.10080 0.34825 1.14051
 C157 C 0.10920 0.35725 1.11562
 N158 N 0.13127 0.34518 1.10405
 N159 N 0.14432 0.32493 1.11673
 C160 C 0.09428 0.37930 1.10109
 C161 C 0.10182 0.38694 1.07444
 C162 C 0.08726 0.40704 1.06032
 C163 C 0.06483 0.42007 1.07250
 C164 C 0.05749 0.41271 1.09929
 C165 C 0.07203 0.39255 1.11341
 H166 H 0.18127 0.28852 1.12425
 H167 H 0.20379 0.24998 1.14568
 H168 H 0.14490 0.25218 1.21154
 H169 H 0.12252 0.29085 1.18986
 H170 H 0.11878 0.37712 1.06426
 H171 H 0.09319 0.41189 1.03956
 H172 H 0.04054 0.42262 1.10939
 H173 H 0.06574 0.38728 1.13396
 C174 C -0.15611 0.70948 1.15246
 C175 C -0.17768 0.72341 1.13970
 C176 C -0.19028 0.74552 1.15258
 C177 C -0.18125 0.75466 1.17841
 C178 C -0.15976 0.74039 1.19126
 C179 C -0.14753 0.71793 1.17853
 C180 C -0.14217 0.68679 1.13821
 N181 N -0.12777 0.66771 1.15238
 N182 N -0.11481 0.64764 1.13935
 C183 C -0.11551 0.64601 1.11162
 N184 N -0.12990 0.66509 1.09748
 N185 N -0.14304 0.68499 1.11051
 C186 C -0.10051 0.62430 1.09696
 C187 C -0.09247 0.62830 1.06973
 C188 C -0.07798 0.60810 1.05581
 C189 C -0.07161 0.58309 1.06857
 C190 C -0.07986 0.57906 1.09584
 C191 C -0.09394 0.59954 1.10995
 H192 H -0.18487 0.71722 1.11967
 H193 H -0.20675 0.75573 1.14190
 H194 H -0.15223 0.74654 1.21117
 H195 H -0.13089 0.70761 1.18883
 H196 H -0.09694 0.64732 1.05929
 H197 H -0.07139 0.61237 1.03514
 H198 H -0.07575 0.55997 1.10624
 H199 H -0.10005 0.59583 1.13089
 C200 C -0.15128 0.29101 0.84771
 C201 C -0.17603 0.28038 0.85745
 C202 C -0.18877 0.25858 0.84410
 C203 C -0.17705 0.24668 0.82066
 C204 C -0.15232 0.25756 0.81083
 C205 C -0.13967 0.27945 0.82416
 C206 C -0.13750 0.31376 0.86228
 N207 N -0.11458 0.32541 0.85196
 N208 N -0.10197 0.34553 0.86531
 C209 C -0.11171 0.35483 0.88957
 N210 N -0.13467 0.34323 0.89984
 N211 N -0.14730 0.32315 0.88647
 C212 C -0.09734 0.37678 0.90477
 C213 C -0.10578 0.38426 0.93119
 C214 C -0.09178 0.40438 0.94585
 C215 C -0.06907 0.41762 0.93442
 C216 C -0.06083 0.41040 0.90786
 C217 C -0.07477 0.39019 0.89323
 H218 H -0.18560 0.28884 0.87549
 H219 H -0.20778 0.25100 0.85241
 H220 H -0.14255 0.24917 0.79286
 H221 H -0.12061 0.28712 0.81609
 H222 H -0.12300 0.37429 0.94076
 H223 H -0.09842 0.40914 0.96640
 H224 H -0.04367 0.42049 0.89830
 H225 H -0.06781 0.38508 0.87287
 C226 C 0.15208 0.70350 0.84867
 C227 C 0.17057 0.72051 0.86257
 C228 C 0.18441 0.74123 0.84868
 C229 C 0.17977 0.74567 0.82066
 C230 C 0.16134 0.72861 0.80671
 C231 C 0.14780 0.70759 0.82054
 C232 C 0.13703 0.68198 0.86364
 N233 N 0.12506 0.66087 0.85012
 N234 N 0.11134 0.64170 0.86370
 C235 C 0.10884 0.64298 0.89134
 N236 N 0.12078 0.66410 0.90483
 N237 N 0.13465 0.68315 0.89128
 C238 C 0.09328 0.62200 0.90653
 C239 C 0.08362 0.62757 0.93295
 C240 C 0.06888 0.60793 0.94742
 C241 C 0.06378 0.58202 0.93603
 C242 C 0.07351 0.57645 0.90955
 C243 C 0.08793 0.59629 0.89490
 H244 H 0.17443 0.71780 0.88422
 H245 H 0.19842 0.75406 0.86004
 H246 H 0.15741 0.73145 0.78510
 H247 H 0.13361 0.69486 0.80929
 H248 H 0.08712 0.64731 0.94236
 H249 H 0.06116 0.61328 0.96744
 H250 H 0.07034 0.55662 0.90025
 H251 H 0.09527 0.59133 0.87462
 C252 C 1.15514 0.15380 0.29710
 C253 C 1.17914 0.14319 0.28561
 C254 C 1.19121 0.15578 0.26301
 C255 C 1.17960 0.17941 0.25125
 C256 C 1.15594 0.19040 0.26334
 C257 C 1.14389 0.17773 0.28588
 C258 C 1.14141 0.13957 0.32005
 N259 N 1.11693 0.14846 0.32947
 N260 N 1.10406 0.13513 0.34937
 C261 C 1.11511 0.11233 0.36075
 N262 N 1.13968 0.10354 0.35148
 N263 N 1.15255 0.11686 0.33155
 C264 C 1.10028 0.09698 0.38224
 C265 C 1.11225 0.07418 0.39502
 C266 C 1.09785 0.05918 0.41459
 C267 C 1.07112 0.06658 0.42179
 C268 C 1.05928 0.08956 0.40923
 C269 C 1.07369 0.10460 0.38974
 H270 H 1.18843 0.12483 0.29378
 H271 H 1.20947 0.14666 0.25456
 H272 H 1.14633 0.20860 0.25518
 H273 H 1.12550 0.18658 0.29430
 H274 H 1.13274 0.06780 0.38986
 H275 H 1.10771 0.04183 0.42417
 H276 H 1.03858 0.09559 0.41398
 H277 H 1.06377 0.12197 0.38025
 C278 C 1.15877 -0.16476 0.69967
 C279 C 1.18448 -0.15575 0.70859
 C280 C 1.19715 -0.16798 0.73116
 C281 C 1.18456 -0.18982 0.74510
 C282 C 1.15939 -0.19962 0.73514
 C283 C 1.14657 -0.18706 0.71292
 C284 C 1.14400 -0.15014 0.67768
 N285 N 1.11638 -0.15131 0.67630
 N286 N 1.10277 -0.13718 0.65742
 C287 C 1.11623 -0.12145 0.63899
 N288 N 1.14390 -0.12049 0.64014
 N289 N 1.15751 -0.13444 0.65921
 C290 C 1.10089 -0.10516 0.61865
 C291 C 1.11290 -0.09729 0.59383
 C292 C 1.09808 -0.08205 0.57465
 C293 C 1.07109 -0.07390 0.58011
 C294 C 1.05937 -0.08151 0.60523
 C295 C 1.07397 -0.09718 0.62410
 H296 H 1.19437 -0.13859 0.69875
 H297 H 1.21660 -0.15991 0.73789
 H298 H 1.14899 -0.21647 0.74499
 H299 H 1.12689 -0.19463 0.70630
 H300 H 1.13359 -0.10332 0.58904
 H301 H 1.10770 -0.07701 0.55541
 H302 H 1.03898 -0.07505 0.61062
 H303 H 1.06431 -0.10261 0.64324
 C304 C 0.84439 -0.15309 0.29538
 C305 C 0.82071 -0.14150 0.28405
 C306 C 0.80793 -0.15353 0.26146
 C307 C 0.81849 -0.17756 0.24960
 C308 C 0.84180 -0.18953 0.26156
 C309 C 0.85458 -0.17741 0.28406
 C310 C 0.85891 -0.13948 0.31829
 N311 N 0.88336 -0.14905 0.32721
 N312 N 0.89693 -0.13630 0.34708
 C313 C 0.88663 -0.11344 0.35895
 N314 N 0.86207 -0.10396 0.35018
 N315 N 0.84852 -0.11669 0.33026
 C316 C 0.90220 -0.09878 0.38046
 C317 C 0.89077 -0.07629 0.39419
 C318 C 0.90581 -0.06203 0.41388
 C319 C 0.93267 -0.06984 0.42026
 C320 C 0.94401 -0.09247 0.40669
 C321 C 0.92894 -0.10679 0.38709
 H322 H 0.81225 -0.12280 0.29230
 H323 H 0.78998 -0.14366 0.25312
 H324 H 0.85061 -0.20807 0.25331
 H325 H 0.87269 -0.18701 0.29237
 H326 H 0.87018 -0.06964 0.38971
 H327 H 0.89633 -0.04495 0.42424
 H328 H 0.96478 -0.09878 0.41077
 H329 H 0.93847 -0.12392 0.37685
 C330 C 0.85015 0.15117 0.70676
 C331 C 0.86276 0.17289 0.72064
 C332 C 0.84938 0.18630 0.74195
 C333 C 0.82318 0.17797 0.75035
 C334 C 0.81050 0.15632 0.73613
 C335 C 0.82374 0.14328 0.71445
 C336 C 0.86485 0.13642 0.68489
 N337 N 0.85110 0.12194 0.66556
 N338 N 0.86450 0.10834 0.64618
 C339 C 0.89219 0.10844 0.64552
 N340 N 0.90591 0.12289 0.66486
 N341 N 0.89252 0.13668 0.68408
 C342 C 0.90722 0.09289 0.62445
 C343 C 0.93414 0.08446 0.62936
 C344 C 0.94844 0.06963 0.60967
 C345 C 0.93638 0.06331 0.58429
 C346 C 0.90940 0.07189 0.57939
 C347 C 0.89490 0.08630 0.59934
 H348 H 0.88304 0.17956 0.71502
 H349 H 0.85995 0.20286 0.75216
 H350 H 0.79033 0.14929 0.74172
 H351 H 0.81355 0.12655 0.70414
 H352 H 0.94405 0.08894 0.64867
 H353 H 0.96886 0.06282 0.61458
 H354 H 0.89954 0.06785 0.55998
 H355 H 0.87422 0.09272 0.59493
 C356 C 0.28993 1.15156 0.15027
 C357 C 0.28511 1.14629 0.17810
 C358 C 0.26345 1.15901 0.19167
 C359 C 0.24647 1.17758 0.17777
 C360 C 0.25168 1.18322 0.15009
 C361 C 0.27302 1.17021 0.13646
 C362 C 0.31204 1.13734 0.13543
 N363 N 0.31152 1.13572 0.10772
 N364 N 0.33111 1.12265 0.09421
 C365 C 0.35216 1.11078 0.10783
 N366 N 0.35280 1.11250 0.13557
 N367 N 0.33308 1.12543 0.14911
 C368 C 0.37374 1.09610 0.09265
 C369 C 0.39936 1.09119 0.10458
 C370 C 0.41975 1.07764 0.08989
 C371 C 0.41483 1.06837 0.06307
 C372 C 0.38900 1.07303 0.05138
 C373 C 0.36881 1.08691 0.06589
 H374 H 0.29775 1.13195 0.18927
 H375 H 0.26001 1.15431 0.21303
 H376 H 0.23895 1.19735 0.13875
 H377 H 0.27630 1.17483 0.11505
 H378 H 0.40381 1.09819 0.12512
 H379 H 0.43948 1.07479 0.09943
 H380 H 0.38414 1.06561 0.03109
 H381 H 0.34917 1.09009 0.05624
 C382 C 0.70251 1.15638 -0.15936
 C383 C 0.71371 1.14549 -0.18346
 C384 C 0.73669 1.15743 -0.19542
 C385 C 0.74898 1.18056 -0.18357
 C386 C 0.73735 1.19182 -0.15986
 C387 C 0.71443 1.17988 -0.14790
 C388 C 0.67917 1.14284 -0.14567
 N389 N 0.66979 1.15221 -0.12130
 N390 N 0.64958 1.13946 -0.10839
 C391 C 0.63782 1.11680 -0.11930
 N392 N 0.64704 1.10755 -0.14380
 N393 N 0.66729 1.12029 -0.15670
 C394 C 0.61608 1.10201 -0.10434
 C395 C 0.60318 1.07914 -0.11601
 C396 C 0.58353 1.06454 -0.10137
 C397 C 0.57635 1.07243 -0.07469
 C398 C 0.58894 1.09556 -0.06320
 C399 C 0.60852 1.11019 -0.07785
 H400 H 0.70502 1.12744 -0.19288
 H401 H 0.74505 1.14825 -0.21372
 H402 H 0.74619 1.20967 -0.15020
 H403 H 0.70630 1.18891 -0.12943
 H404 H 0.60837 1.07235 -0.13642
 H405 H 0.57391 1.04706 -0.11096
 H406 H 0.58419 1.10197 -0.04256
 H407 H 0.61808 1.12765 -0.06817
 C408 C 0.29531 0.84301 -0.15546
 C409 C 0.29033 0.84699 -0.18350
 C410 C 0.26884 0.83335 -0.19655
 C411 C 0.25218 0.81515 -0.18189
 C412 C 0.25764 0.81070 -0.15401
 C413 C 0.27882 0.82459 -0.14093
 C414 C 0.31700 0.85844 -0.14109
 N415 N 0.31657 0.86085 -0.11344
 N416 N 0.33567 0.87511 -0.10035
 C417 C 0.35613 0.88745 -0.11433
 N418 N 0.35670 0.88493 -0.14201
 N419 N 0.33746 0.87080 -0.15514
 C420 C 0.37711 0.90349 -0.09959
 C421 C 0.40232 0.90948 -0.11178
 C422 C 0.42216 0.92430 -0.09746
 C423 C 0.41708 0.93376 -0.07077
 C424 C 0.39165 0.92804 -0.05884
 C425 C 0.37203 0.91293 -0.07297
 H426 H 0.30266 0.86110 -0.19524
 H427 H 0.26522 0.83714 -0.21808
 H428 H 0.24518 0.79688 -0.14207
 H429 H 0.28223 0.82093 -0.11934
 H430 H 0.40689 0.90234 -0.13222
 H431 H 0.44162 0.92798 -0.10719
 H432 H 0.38666 0.93555 -0.03864
 H433 H 0.35268 0.90895 -0.06312
 C434 C 0.70682 0.85359 0.14996
 C435 C 0.71877 0.83012 0.13853
 C436 C 0.74039 0.81695 0.15170
 C437 C 0.75067 0.82693 0.17664
 C438 C 0.73860 0.85028 0.18822
 C439 C 0.71691 0.86344 0.17504
 C440 C 0.68426 0.86781 0.13554
 N441 N 0.67197 0.89003 0.14674
 N442 N 0.65200 0.90299 0.13351
 C443 C 0.64349 0.89430 0.10851
 N444 N 0.65574 0.87205 0.09737
 N445 N 0.67567 0.85909 0.11060
 C446 C 0.62164 0.90898 0.09346
 C447 C 0.61435 0.90099 0.06680
 C448 C 0.59423 0.91514 0.05231
 C449 C 0.58083 0.93760 0.06413
 C450 C 0.58791 0.94546 0.09087
 C451 C 0.60810 0.93133 0.10537
 H452 H 0.71152 0.82190 0.11928
 H453 H 0.74913 0.79901 0.14217
 H454 H 0.74596 0.85851 0.20742
 H455 H 0.70819 0.88146 0.18444
 H456 H 0.62440 0.88395 0.05693
 H457 H 0.58958 0.90882 0.03160
 H458 H 0.57772 0.96244 0.10069
 H459 H 0.61309 0.93797 0.12590
   
