data_POSCAR
  _audit_creation_date              2014-09-24
  _audit_creation_method            'ToBaCCo'
  _symmetry_space_group_name_H-M    'P1'
  _symmetry_Int_Tables_number       1
  _symmetry_cell_setting            triclinic
  loop_
  _symmetry_equiv_pos_as_xyz
 x,y,z
_cell_length_a 24.9912
_cell_length_b 24.3335
_cell_length_c 24.5428
_cell_angle_alpha 89.957600
_cell_angle_beta 90.110200
_cell_angle_gamma 89.813700
loop_
  _atom_site_label
  _atom_site_type_symbol
  _atom_site_fract_x
  _atom_site_fract_y
  _atom_site_fract_z
C1 C 0.32756 0.32772 0.23205
 H2 H 0.32937 0.32876 0.27608
 C3 C 0.36174 0.36086 0.20157
 H4 H 0.38951 0.38758 0.22246
 C5 C 0.28974 0.29064 0.15146
 H6 H 0.26204 0.26282 0.13206
 C7 C 0.32343 0.32294 0.11943
 H8 H 0.32125 0.32018 0.07543
 N9 N 0.29206 0.29388 0.20677
 C10 C 0.16122 0.26915 0.32182
 H11 H 0.15472 0.22555 0.31731
 C12 C 0.12711 0.29980 0.35510
 H13 H 0.09545 0.27919 0.37698
 C14 C 0.20812 0.34955 0.29629
 H15 H 0.23882 0.36927 0.27259
 C16 C 0.17477 0.38174 0.32886
 H17 H 0.18058 0.42580 0.33056
 Zn18 Zn 0.24709 0.24929 0.25060
 N19 N 0.20170 0.29403 0.29427
 C20 C 0.26796 0.17291 0.33567
 N21 N 0.29068 0.20340 0.29540
 C22 C 0.34436 0.20109 0.28612
 C23 C 0.37738 0.16851 0.31884
 C24 C 0.29955 0.13971 0.36928
 C25 C 0.16361 0.23104 0.17688
 C26 C 0.12940 0.20053 0.14367
 C27 C 0.17642 0.11808 0.17115
 C28 C 0.20984 0.15014 0.20376
 N29 N 0.20292 0.20557 0.20588
 H30 H 0.22531 0.17400 0.34182
 H31 H 0.36178 0.22410 0.25303
 H32 H 0.42005 0.16726 0.31125
 H33 H 0.28071 0.11608 0.40122
 H34 H 0.15893 0.27517 0.17961
 H35 H 0.09846 0.22148 0.12076
 H36 H 0.18226 0.07399 0.16952
 H37 H 0.24137 0.13079 0.22716
 C38 C 0.13422 0.35669 0.35917
 C39 C 0.35966 0.35868 0.14459
 C40 C 0.13580 0.14338 0.14064
 C41 C 0.35495 0.13766 0.36109
 C42 C 0.79241 0.85230 0.20252
 H43 H 0.76396 0.87259 0.22878
 C44 C 0.82588 0.88384 0.16953
 H45 H 0.82237 0.92823 0.17034
 C46 C 0.83247 0.77027 0.17016
 H47 H 0.83477 0.72586 0.17087
 C48 C 0.86690 0.80018 0.13670
 H49 H 0.89523 0.77797 0.11178
 N50 N 0.79577 0.79650 0.20173
 C51 C 0.70941 0.79289 0.34594
 H52 H 0.73710 0.76462 0.36496
 C53 C 0.67624 0.82532 0.37853
 H54 H 0.67897 0.82227 0.42248
 C55 C 0.67054 0.83045 0.26594
 H56 H 0.66830 0.83172 0.22192
 C57 C 0.63685 0.86386 0.29703
 H58 H 0.60881 0.89089 0.27665
 Zn59 Zn 0.75101 0.75233 0.24599
 N60 N 0.70656 0.79657 0.29066
 C61 C 0.83283 0.73322 0.32167
 N62 N 0.79597 0.70756 0.28983
 C63 C 0.79207 0.65179 0.28899
 C64 C 0.82488 0.61974 0.32251
 C65 C 0.86650 0.70270 0.35571
 C66 C 0.70841 0.71004 0.14681
 C67 C 0.67496 0.67681 0.11536
 C68 C 0.63579 0.64158 0.19816
 C69 C 0.66973 0.67567 0.22805
 N70 N 0.70579 0.70826 0.20217
 H71 H 0.83559 0.77758 0.32097
 H72 H 0.76358 0.63195 0.26247
 H73 H 0.82111 0.57541 0.32199
 H74 H 0.89512 0.72388 0.38119
 H75 H 0.73631 0.73719 0.12689
 H76 H 0.67756 0.67820 0.07133
 H77 H 0.60781 0.61555 0.21953
 H78 H 0.66781 0.67582 0.27209
 C79 C 0.63984 0.86158 0.35403
 C80 C 0.86379 0.85789 0.13597
 C81 C 0.63858 0.64174 0.14114
 C82 C 0.86232 0.64529 0.35653
 C83 C 0.83160 0.32808 0.73260
 H84 H 0.83387 0.32848 0.77663
 C85 C 0.86461 0.36255 0.70209
 H86 H 0.89230 0.38942 0.72291
 C87 C 0.79301 0.29193 0.65199
 H88 H 0.76560 0.26389 0.63251
 C89 C 0.82550 0.32547 0.61995
 H90 H 0.82264 0.32339 0.57596
 N91 N 0.79604 0.29437 0.70731
 C92 C 0.67065 0.26713 0.82793
 H93 H 0.66904 0.22271 0.82793
 C94 C 0.63614 0.29723 0.86133
 H95 H 0.60815 0.27566 0.88714
 C96 C 0.70889 0.34919 0.79372
 H97 H 0.73661 0.36943 0.76672
 C98 C 0.67514 0.38082 0.82648
 H99 H 0.67751 0.42523 0.82500
 Zn100 Zn 0.75188 0.24944 0.75136
 N101 N 0.70663 0.29334 0.79558
 C102 C 0.79465 0.20686 0.85049
 N103 N 0.79725 0.20493 0.79517
 C104 C 0.83329 0.17201 0.76948
 C105 C 0.86711 0.13756 0.79949
 C106 C 0.82793 0.17337 0.88211
 C107 C 0.67001 0.23133 0.67570
 C108 C 0.63604 0.20128 0.64179
 C109 C 0.67833 0.11785 0.67376
 C110 C 0.71137 0.14944 0.70722
 N111 N 0.70722 0.20522 0.70700
 H112 H 0.76690 0.23441 0.87031
 H113 H 0.83534 0.17215 0.72545
 H114 H 0.89501 0.11164 0.77776
 H115 H 0.82513 0.17525 0.92612
 H116 H 0.66706 0.27569 0.67687
 H117 H 0.60703 0.22279 0.61686
 H118 H 0.68221 0.07351 0.67389
 H119 H 0.74013 0.12923 0.73332
 C120 C 0.63850 0.35476 0.86091
 C121 C 0.86140 0.36156 0.64508
 C122 C 0.64033 0.14386 0.64050
 C123 C 0.86432 0.13754 0.85671
 C124 C 0.32752 0.83465 0.73074
 H125 H 0.32568 0.84015 0.77424
 C126 C 0.36160 0.86783 0.70013
 H127 H 0.38499 0.89899 0.72052
 C128 C 0.30068 0.78662 0.65140
 H129 H 0.27789 0.75416 0.63252
 C130 C 0.33423 0.81896 0.61927
 H131 H 0.33634 0.81185 0.57577
 N132 N 0.29743 0.79525 0.70611
 C133 C 0.15390 0.79529 0.78735
 H134 H 0.13547 0.77144 0.75554
 C135 C 0.12159 0.82789 0.82061
 H136 H 0.07881 0.82939 0.81357
 C137 C 0.23100 0.82129 0.83716
 H138 H 0.27337 0.81705 0.84478
 C139 C 0.20012 0.85454 0.87132
 H140 H 0.21934 0.87661 0.90416
 Zn141 Zn 0.25230 0.74977 0.74925
 N142 N 0.20786 0.79347 0.79522
 C143 C 0.27118 0.67487 0.83414
 N144 N 0.29521 0.70431 0.79397
 C145 C 0.34904 0.70192 0.78610
 C146 C 0.38095 0.66880 0.81945
 C147 C 0.30161 0.64103 0.86826
 C148 C 0.17665 0.73150 0.66611
 C149 C 0.14283 0.70104 0.63251
 C150 C 0.17789 0.61796 0.67317
 C151 C 0.21089 0.65001 0.70627
 N152 N 0.20917 0.70582 0.70275
 H153 H 0.22831 0.67775 0.83955
 H154 H 0.36729 0.72548 0.75380
 H155 H 0.42377 0.66716 0.81292
 H156 H 0.28186 0.61791 0.89998
 H157 H 0.17662 0.77589 0.66347
 H158 H 0.11690 0.72231 0.60412
 H159 H 0.17916 0.57359 0.67659
 H160 H 0.23758 0.63023 0.73491
 C161 C 0.14482 0.85838 0.86270
 C162 C 0.36497 0.86013 0.64372
 C163 C 0.14299 0.64361 0.63630
 C164 C 0.35716 0.63788 0.86092
 Si165 Si -0.00038 -0.00076 -0.00115
 Si166 Si -0.00150 0.50196 0.50055
 Si167 Si 0.50203 0.00072 0.49964
 Si168 Si 0.49947 0.49773 0.00172
 C169 C 0.08174 -0.08974 -0.02014
 C170 C 0.06404 -0.12808 -0.06706
 C171 C 0.11009 -0.10585 -0.10215
 C172 C 0.12819 -0.06786 -0.05553
 C173 C 0.07346 -0.06041 -0.12512
 C174 C 0.02710 -0.08228 -0.08962
 C175 C 0.04510 -0.04433 -0.04303
 C176 C 0.09113 -0.02216 -0.07816
 H177 H 0.08499 -0.10194 0.02329
 H178 H 0.05311 -0.17203 -0.06257
 H179 H 0.16967 -0.06124 -0.04082
 H180 H 0.07028 -0.04843 -0.16865
 H181 H -0.01477 -0.08805 -0.10353
 H182 H 0.10215 0.02173 -0.08273
 C183 C 0.01789 0.41762 0.41265
 C184 C 0.06241 0.43718 0.37349
 C185 C 0.09908 0.39116 0.39508
 C186 C 0.05487 0.37115 0.43386
 C187 C 0.12124 0.42961 0.43937
 C188 C 0.08421 0.47594 0.41814
 C189 C 0.04001 0.45610 0.45692
 C190 C 0.07670 0.41007 0.47843
 H191 H -0.02492 0.41284 0.40168
 H192 H 0.05664 0.44812 0.32996
 H193 H 0.04219 0.32810 0.44101
 H194 H 0.16410 0.43434 0.45028
 H195 H 0.09640 0.51922 0.41162
 H196 H 0.08273 0.39901 0.52186
 C197 C 0.52296 -0.08103 0.40993
 C198 C 0.56511 -0.05835 0.36976
 C199 C 0.60468 -0.10295 0.38910
 C200 C 0.56283 -0.12596 0.42887
 C201 C 0.62641 -0.06439 0.43357
 C202 C 0.58649 -0.01955 0.41463
 C203 C 0.54462 -0.04248 0.45438
 C204 C 0.58416 -0.08701 0.47365
 H205 H 0.48011 -0.08778 0.40026
 H206 H 0.55662 -0.04573 0.32716
 H207 H 0.55319 -0.17010 0.43447
 H208 H 0.66932 -0.05762 0.44308
 H209 H 0.59637 0.02451 0.40905
 H210 H 0.59169 -0.09869 0.51671
 C211 C 0.52081 0.41231 -0.08477
 C212 C 0.56379 0.43274 -0.12524
 C213 C 0.60268 0.38880 -0.10332
 C214 C 0.55998 0.36794 -0.06321
 C215 C 0.62404 0.42926 -0.06039
 C216 C 0.58479 0.47350 -0.08193
 C217 C 0.54213 0.45276 -0.04184
 C218 C 0.58102 0.40882 -0.02000
 H219 H 0.47804 0.40553 -0.09484
 H220 H 0.55679 0.44238 -0.16889
 H221 H 0.54905 0.32461 -0.05483
 H222 H 0.66686 0.43603 -0.05043
 H223 H 0.59495 0.51718 -0.08952
 H224 H 0.58811 0.39903 0.02357
 C225 C -0.08244 0.08721 -0.02752
 C226 C -0.06209 0.12559 -0.07308
 C227 C -0.10218 0.10268 -0.11060
 C228 C -0.12445 0.06607 -0.06864
 C229 C -0.06518 0.06012 -0.13094
 C230 C -0.02170 0.08112 -0.09138
 C231 C -0.04308 0.04222 -0.04677
 C232 C -0.08560 0.02012 -0.08677
 H233 H -0.09070 0.09968 0.01514
 H234 H -0.05375 0.17021 -0.06904
 H235 H -0.16794 0.06114 -0.06090
 H236 H -0.05828 0.04871 -0.17410
 H237 H 0.02072 0.08850 -0.10235
 H238 H -0.09676 -0.02345 -0.09351
 C239 C -0.08072 0.59291 0.47697
 C240 C -0.05880 0.63130 0.43203
 C241 C -0.10293 0.61088 0.39321
 C242 C -0.12520 0.57292 0.43785
 C243 C -0.06622 0.56458 0.37247
 C244 C -0.02182 0.58460 0.41162
 C245 C -0.04398 0.54664 0.45629
 C246 C -0.08808 0.52630 0.41751
 H247 H -0.08674 0.60442 0.52026
 H248 H -0.04592 0.67436 0.43870
 H249 H -0.16810 0.56835 0.44853
 H250 H -0.06030 0.55311 0.32913
 H251 H 0.02094 0.58926 0.40058
 H252 H -0.10018 0.48287 0.41175
 C253 C 0.47375 0.08043 0.40931
 C254 C 0.42724 0.05735 0.37463
 C255 C 0.39047 0.10299 0.39663
 C256 C 0.43664 0.12648 0.43090
 C257 C 0.37309 0.06607 0.44435
 C258 C 0.41026 0.02014 0.42266
 C259 C 0.45643 0.04352 0.45697
 C260 C 0.41967 0.08919 0.47889
 H261 H 0.51543 0.08629 0.39504
 H262 H 0.43009 0.04431 0.33140
 H263 H 0.44726 0.17061 0.43416
 H264 H 0.33185 0.05939 0.45959
 H265 H 0.39943 -0.02390 0.41927
 H266 H 0.41677 0.10257 0.52197
 C267 C 0.41726 0.58585 -0.02026
 C268 C 0.43598 0.62485 -0.06619
 C269 C 0.39147 0.60222 -0.10320
 C270 C 0.37238 0.56358 -0.05757
 C271 C 0.42952 0.55757 -0.12504
 C272 C 0.47434 0.57980 -0.08758
 C273 C 0.45531 0.54118 -0.04197
 C274 C 0.41083 0.51865 -0.07905
 H275 H 0.41221 0.59774 0.02304
 H276 H 0.44611 0.66892 -0.06100
 H277 H 0.33058 0.55609 -0.04445
 H278 H 0.43432 0.54600 -0.16850
 H279 H 0.51658 0.58631 -0.09975
 H280 H 0.40051 0.47470 -0.08452
 C281 C -0.07879 -0.09258 0.02032
 C282 C -0.05878 -0.13018 0.06688
 C283 C -0.10214 -0.10947 0.10203
 C284 C -0.12409 -0.07387 0.05891
 C285 C -0.06868 -0.06529 0.12458
 C286 C -0.02202 -0.08377 0.08765
 C287 C -0.04312 -0.04572 0.04200
 C288 C -0.08892 -0.02607 0.07946
 H289 H -0.08410 -0.10518 -0.02279
 H290 H -0.04611 -0.17359 0.06180
 H291 H -0.16730 -0.07142 0.04847
 H292 H -0.06574 -0.05567 0.16871
 H293 H 0.02008 -0.08888 0.10120
 H294 H -0.10272 0.01685 0.08572
 C295 C -0.02235 0.41991 0.58987
 C296 C -0.06442 0.44208 0.63050
 C297 C -0.10391 0.39794 0.61061
 C298 C -0.06213 0.37547 0.57038
 C299 C -0.12590 0.43735 0.56682
 C300 C -0.08602 0.48176 0.58626
 C301 C -0.04422 0.45930 0.54606
 C302 C -0.08372 0.41523 0.52628
 H303 H 0.02048 0.41275 0.59952
 H304 H -0.05587 0.45389 0.67328
 H305 H -0.05235 0.33141 0.56403
 H306 H -0.16886 0.44441 0.55754
 H307 H -0.09587 0.52579 0.59252
 H308 H -0.09152 0.40426 0.48313
 C309 C 0.42425 -0.09061 0.52525
 C310 C 0.44531 -0.12698 0.57241
 C311 C 0.40053 -0.10453 0.60921
 C312 C 0.37913 -0.06859 0.56238
 C313 C 0.43699 -0.05757 0.62875
 C314 C 0.48207 -0.07963 0.59148
 C315 C 0.46065 -0.04367 0.54469
 C316 C 0.41587 -0.02139 0.58154
 H317 H 0.41920 -0.10430 0.48246
 H318 H 0.45729 -0.17080 0.56892
 H319 H 0.33644 -0.06410 0.55057
 H320 H 0.44295 -0.04314 0.67119
 H321 H 0.52477 -0.08409 0.60319
 H322 H 0.40351 0.02227 0.58523
 C323 C 0.47767 0.41487 0.09068
 C324 C 0.43526 0.43764 0.13063
 C325 C 0.39555 0.39390 0.11034
 C326 C 0.43765 0.37077 0.07083
 C327 C 0.37459 0.43332 0.06611
 C328 C 0.41462 0.47732 0.08599
 C329 C 0.45677 0.45431 0.04646
 C330 C 0.41708 0.41058 0.02628
 H331 H 0.52034 0.40724 0.10075
 H332 H 0.44343 0.44965 0.17343
 H333 H 0.44699 0.32656 0.06481
 H334 H 0.33184 0.44086 0.05617
 H335 H 0.40493 0.52137 0.09220
 H336 H 0.40974 0.39925 -0.01685
 C337 C 0.08620 0.02456 0.08061
 C338 C 0.12204 0.07166 0.05957
 C339 C 0.10030 0.10905 0.10498
 C340 C 0.06481 0.06226 0.12640
 C341 C 0.05488 0.12932 0.06745
 C342 C 0.07633 0.09150 0.02176
 C343 C 0.04084 0.04470 0.04307
 C344 C 0.01909 0.08207 0.08846
 H345 H 0.09902 -0.01881 0.08591
 H346 H 0.16471 0.06756 0.04774
 H347 H 0.06021 0.05044 0.16983
 H348 H 0.04127 0.17233 0.06133
 H349 H 0.08108 0.10360 -0.02153
 H350 H -0.02360 0.08605 0.10019
 C351 C 0.02365 0.58747 0.58545
 C352 C 0.06738 0.56664 0.62516
 C353 C 0.10630 0.60944 0.60176
 C354 C 0.06283 0.63068 0.56241
 C355 C 0.12599 0.56800 0.55894
 C356 C 0.08668 0.52488 0.58192
 C357 C 0.04327 0.54605 0.54257
 C358 C 0.08219 0.58885 0.51929
 H359 H -0.01871 0.59532 0.59650
 H360 H 0.06140 0.55770 0.66908
 H361 H 0.05210 0.67407 0.55366
 H362 H 0.16844 0.56020 0.54811
 H363 H 0.09648 0.48108 0.58975
 H364 H 0.08837 0.59817 0.47552
 C365 C 0.58037 0.09264 0.52116
 C366 C 0.55939 0.13048 0.56712
 C367 C 0.60490 0.10989 0.60437
 C368 C 0.62624 0.07251 0.55872
 C369 C 0.56931 0.06321 0.62583
 C370 C 0.52354 0.08337 0.58825
 C371 C 0.54480 0.04598 0.54261
 C372 C 0.59027 0.02552 0.57983
 H373 H 0.58467 0.10458 0.47775
 H374 H 0.54591 0.17357 0.56129
 H375 H 0.66885 0.06826 0.54670
 H376 H 0.56482 0.05125 0.66923
 H377 H 0.48107 0.08769 0.60058
 H378 H 0.60298 -0.01792 0.58486
 C379 C 0.58483 0.52087 0.08544
 C380 C 0.62458 0.56463 0.06450
 C381 C 0.60326 0.60514 0.10748
 C382 C 0.56387 0.56163 0.12881
 C383 C 0.56105 0.62679 0.06707
 C384 C 0.58194 0.58587 0.02377
 C385 C 0.54257 0.54242 0.04505
 C386 C 0.52136 0.58294 0.08803
 H387 H 0.59477 0.47704 0.09288
 H388 H 0.66740 0.55718 0.05501
 H389 H 0.55571 0.55074 0.17189
 H390 H 0.55134 0.67072 0.05972
 H391 H 0.58913 0.59576 -0.01973
 H392 H 0.47871 0.59060 0.09790
   
