data_POSCAR
  _audit_creation_date              2014-09-24
  _audit_creation_method            'ToBaCCo'
  _symmetry_space_group_name_H-M    'P1'
  _symmetry_Int_Tables_number       1
  _symmetry_cell_setting            triclinic
  loop_
  _symmetry_equiv_pos_as_xyz
 x,y,z
_cell_length_a 34.9751
_cell_length_b 35.0923
_cell_length_c 34.5439
_cell_angle_alpha 89.695000
_cell_angle_beta 90.153600
_cell_angle_gamma 89.848900
loop_
  _atom_site_label
  _atom_site_type_symbol
  _atom_site_fract_x
  _atom_site_fract_y
  _atom_site_fract_z
C1 C 0.31444 0.30287 0.23085
 H2 H 0.31629 0.30499 0.26203
 C3 C 0.33954 0.32364 0.20755
 H4 H 0.36070 0.34193 0.22080
 C5 C 0.28485 0.27619 0.17546
 H6 H 0.26394 0.25729 0.16300
 C7 C 0.30929 0.29654 0.15111
 H8 H 0.30660 0.29370 0.12001
 N9 N 0.28751 0.28005 0.21456
 C10 C 0.19731 0.27012 0.30089
 H11 H 0.19535 0.23944 0.30330
 C12 C 0.17270 0.29325 0.32221
 H13 H 0.15182 0.28040 0.34131
 C14 C 0.22673 0.32444 0.27285
 H15 H 0.24741 0.33649 0.25316
 C16 C 0.20273 0.34862 0.29372
 H17 H 0.20523 0.37921 0.29028
 Zn18 Zn 0.25512 0.25242 0.24837
 N19 N 0.22382 0.28596 0.27702
 C20 C 0.28581 0.22822 0.32092
 N21 N 0.28705 0.22362 0.28184
 C22 C 0.31227 0.19911 0.26522
 C23 C 0.33691 0.17724 0.28818
 C24 C 0.31011 0.20703 0.34496
 C25 C 0.19693 0.23612 0.19500
 C26 C 0.17297 0.21336 0.17249
 C27 C 0.20016 0.15765 0.20354
 C28 C 0.22374 0.18142 0.22528
 N29 N 0.22236 0.21986 0.22002
 H30 H 0.26619 0.24843 0.33353
 H31 H 0.31303 0.19647 0.23404
 H32 H 0.35668 0.15757 0.27472
 H33 H 0.30887 0.21066 0.37604
 H34 H 0.19579 0.26681 0.19207
 H35 H 0.15344 0.22652 0.15200
 H36 H 0.20173 0.12706 0.20763
 H37 H 0.24311 0.16906 0.24626
 C38 C 0.17523 0.33294 0.31847
 C39 C 0.33717 0.32036 0.16721
 C40 C 0.17510 0.17363 0.17616
 C41 C 0.33598 0.18129 0.32846
 C42 C 0.81807 0.77288 0.22248
 H43 H 0.83026 0.75446 0.24446
 C44 C 0.84216 0.79292 0.19748
 H45 H 0.87282 0.79033 0.20119
 C46 C 0.76341 0.79971 0.19210
 H47 H 0.73261 0.80176 0.18996
 C48 C 0.78640 0.82079 0.16697
 H49 H 0.77287 0.83886 0.14539
 N50 N 0.77948 0.77644 0.21920
 C51 C 0.69239 0.76379 0.30888
 H52 H 0.69087 0.73308 0.31130
 C53 C 0.66879 0.78651 0.33176
 H54 H 0.64889 0.77333 0.35168
 C55 C 0.72029 0.81857 0.28025
 H56 H 0.74059 0.83104 0.26043
 C57 C 0.69731 0.84236 0.30271
 H58 H 0.69973 0.87300 0.29980
 Zn59 Zn 0.74659 0.74739 0.25106
 N60 N 0.71690 0.78001 0.28308
 C61 C 0.77984 0.72205 0.32129
 N62 N 0.77608 0.71406 0.28293
 C63 C 0.79383 0.68330 0.26712
 C64 C 0.81582 0.65885 0.29020
 C65 C 0.80152 0.69830 0.34541
 C66 C 0.67559 0.71792 0.22297
 C67 C 0.65233 0.69733 0.19774
 C68 C 0.70846 0.68008 0.16118
 C69 C 0.73069 0.70087 0.18720
 N70 N 0.71415 0.71890 0.21771
 H71 H 0.76644 0.74712 0.33322
 H72 H 0.79120 0.67775 0.23656
 H73 H 0.82997 0.63457 0.27729
 H74 H 0.80429 0.70493 0.37587
 H75 H 0.66256 0.73313 0.24653
 H76 H 0.62176 0.69630 0.20258
 H77 H 0.72197 0.66581 0.13708
 H78 H 0.76116 0.70316 0.18263
 C79 C 0.67077 0.82621 0.32822
 C80 C 0.82646 0.81686 0.16868
 C81 C 0.66879 0.67837 0.16629
 C82 C 0.81942 0.66610 0.32989
 C83 C 0.82008 0.29855 0.73465
 H84 H 0.82072 0.30024 0.76591
 C85 C 0.84578 0.31994 0.71264
 H86 H 0.86625 0.33823 0.72696
 C87 C 0.79260 0.27271 0.67775
 H88 H 0.77219 0.25398 0.66421
 C89 C 0.81768 0.29367 0.65467
 H90 H 0.81596 0.29148 0.62345
 N91 N 0.79381 0.27596 0.71698
 C92 C 0.70055 0.26640 0.79990
 H93 H 0.69834 0.23571 0.80206
 C94 C 0.67541 0.28954 0.82055
 H95 H 0.65386 0.27671 0.83889
 C96 C 0.73110 0.32069 0.77309
 H97 H 0.75240 0.33272 0.75409
 C98 C 0.70656 0.34489 0.79331
 H99 H 0.70930 0.37548 0.79009
 Zn100 Zn 0.75949 0.24848 0.74886
 N101 N 0.72783 0.28221 0.77693
 C102 C 0.78751 0.22340 0.82200
 N103 N 0.78901 0.21800 0.78312
 C104 C 0.81196 0.19083 0.76761
 C105 C 0.83203 0.16560 0.79155
 C106 C 0.80790 0.19945 0.84706
 C107 C 0.70308 0.23507 0.69265
 C108 C 0.67944 0.21359 0.66853
 C109 C 0.70366 0.15638 0.69924
 C110 C 0.72675 0.17890 0.72279
 N111 N 0.72687 0.21748 0.71842
 H112 H 0.77011 0.24601 0.83376
 H113 H 0.81391 0.18820 0.73649
 H114 H 0.85037 0.14453 0.77820
 H115 H 0.80465 0.20367 0.87791
 H116 H 0.70301 0.26584 0.69042
 H117 H 0.66119 0.22778 0.64754
 H118 H 0.70419 0.12566 0.70253
 H119 H 0.74450 0.16538 0.74447
 C120 C 0.67819 0.32923 0.81705
 C121 C 0.84471 0.31749 0.67217
 C122 C 0.68030 0.17377 0.67127
 C123 C 0.82926 0.16858 0.83219
 C124 C 0.31878 0.78563 0.72770
 H125 H 0.33117 0.76706 0.74944
 C126 C 0.34242 0.80935 0.70578
 H127 H 0.37303 0.80897 0.71062
 C128 C 0.26387 0.80925 0.69489
 H129 H 0.23318 0.80892 0.69091
 C130 C 0.28645 0.83352 0.67245
 H131 H 0.27319 0.85199 0.65105
 N132 N 0.28026 0.78624 0.72209
 C133 C 0.19482 0.76754 0.81191
 H134 H 0.19291 0.73677 0.81220
 C135 C 0.17308 0.78884 0.83784
 H136 H 0.15395 0.77449 0.85771
 C137 C 0.22222 0.82382 0.78593
 H138 H 0.24166 0.83739 0.76596
 C139 C 0.20112 0.84621 0.81152
 H140 H 0.20421 0.87691 0.81091
 Zn141 Zn 0.24817 0.75471 0.75223
 N142 N 0.21859 0.78520 0.78638
 C143 C 0.28225 0.72614 0.82084
 N144 N 0.27861 0.72033 0.78206
 C145 C 0.29702 0.69093 0.76445
 C146 C 0.31933 0.66551 0.78611
 C147 C 0.30424 0.70138 0.84356
 C148 C 0.17737 0.72555 0.72367
 C149 C 0.15414 0.70502 0.69838
 C150 C 0.20999 0.68973 0.66052
 C151 C 0.23221 0.71045 0.68661
 N152 N 0.21582 0.72734 0.71787
 H153 H 0.26844 0.75023 0.83426
 H154 H 0.29456 0.68714 0.73359
 H155 H 0.33385 0.64222 0.77181
 H156 H 0.30678 0.70621 0.87441
 H157 H 0.16446 0.73987 0.74787
 H158 H 0.12370 0.70315 0.70376
 H159 H 0.22342 0.67616 0.63594
 H160 H 0.26255 0.71342 0.68164
 C161 C 0.17646 0.82863 0.83801
 C162 C 0.32612 0.83389 0.67818
 C163 C 0.17048 0.68695 0.66633
 C164 C 0.32263 0.67041 0.82620
 C165 C 0.05036 0.05807 0.02300
 H166 H 0.05052 0.05961 -0.00828
 C167 C 0.07429 0.08174 0.04442
 H168 H 0.09286 0.10168 0.02963
 C169 C 0.02607 0.03010 0.08049
 H170 H 0.00690 0.01036 0.09449
 C171 C 0.04972 0.05316 0.10306
 H172 H 0.04906 0.05066 0.13432
 N173 N 0.02773 0.03210 0.04116
 C174 C 0.01739 -0.05681 -0.04568
 H175 H -0.01340 -0.05848 -0.04825
 C176 C 0.04056 -0.08086 -0.06760
 H177 H 0.02760 -0.10109 -0.08721
 C178 C 0.07190 -0.02871 -0.01663
 H179 H 0.08405 -0.00884 0.00369
 C180 C 0.09612 -0.05210 -0.03815
 H181 H 0.12681 -0.04964 -0.03478
 Zn182 Zn -0.00043 -0.00084 0.00855
 N183 N 0.03330 -0.03125 -0.02097
 C184 C -0.02405 0.03178 -0.06314
 N185 N -0.03079 0.03012 -0.02440
 C186 C -0.05912 0.05110 -0.00795
 C187 C -0.08365 0.07300 -0.03099
 C188 C -0.04739 0.05403 -0.08717
 C189 C -0.01556 -0.05721 0.06496
 C190 C -0.03777 -0.08310 0.08591
 C191 C -0.09260 -0.06413 0.04771
 C192 C -0.06955 -0.03812 0.02801
 N193 N -0.03185 -0.03476 0.03719
 H194 H -0.00057 0.01592 -0.07546
 H195 H -0.06326 0.04992 0.02306
 H196 H -0.10688 0.08856 -0.01766
 H197 H -0.04183 0.05515 -0.11798
 H198 H 0.01472 -0.05488 0.07093
 H199 H -0.02469 -0.10014 0.10861
 H200 H -0.12252 -0.06661 0.03995
 H201 H -0.08175 -0.02127 0.00482
 C202 C 0.08038 -0.07881 -0.06364
 C203 C 0.07488 0.07855 0.08486
 C204 C -0.07670 -0.08709 0.07695
 C205 C -0.07837 0.07396 -0.07122
 C206 C 0.05318 0.56537 0.51038
 H207 H 0.04995 0.56905 0.47950
 C208 C 0.07479 0.59161 0.53133
 H209 H 0.08908 0.61469 0.51633
 C210 C 0.03722 0.53222 0.56800
 H211 H 0.02198 0.50967 0.58251
 C212 C 0.05841 0.55789 0.59005
 H213 H 0.05972 0.55453 0.62122
 N214 N 0.03541 0.53595 0.52877
 C215 C 0.03264 0.43326 0.46515
 H216 H 0.01160 0.41986 0.48346
 C217 C 0.05422 0.41071 0.44018
 H218 H 0.05021 0.38011 0.44006
 C219 C 0.06284 0.48911 0.44167
 H220 H 0.06568 0.51968 0.44167
 C221 C 0.08496 0.46761 0.41617
 H222 H 0.10498 0.48173 0.39705
 Zn223 Zn 0.00565 0.50166 0.49862
 N224 N 0.03732 0.47178 0.46566
 C225 C -0.03288 0.52278 0.42967
 N226 N -0.02843 0.53076 0.46791
 C227 C -0.04846 0.55932 0.48506
 C228 C -0.07454 0.58101 0.46357
 C229 C -0.05870 0.54375 0.40714
 C230 C -0.00374 0.44426 0.55550
 C231 C -0.02382 0.41856 0.57872
 C232 C -0.08285 0.44294 0.55170
 C233 C -0.06168 0.46832 0.52911
 N234 N -0.02282 0.46853 0.53133
 H235 H -0.01676 0.49987 0.41670
 H236 H -0.04427 0.56502 0.51552
 H237 H -0.09053 0.60357 0.47747
 H238 H -0.06218 0.53717 0.37674
 H239 H 0.02718 0.44461 0.55638
 H240 H -0.00837 0.39943 0.59790
 H241 H -0.11375 0.44281 0.54950
 H242 H -0.07636 0.48745 0.50946
 C243 C 0.08037 0.42800 0.41505
 C244 C 0.07732 0.58805 0.57167
 C245 C -0.06381 0.41742 0.57645
 C246 C -0.08011 0.57292 0.42428
 C247 C 0.55397 0.06173 0.51585
 H248 H 0.55037 0.06646 0.48514
 C249 C 0.57844 0.08526 0.53686
 H250 H 0.59430 0.10747 0.52215
 C251 C 0.53635 0.02865 0.57302
 H252 H 0.51947 0.00718 0.58732
 C253 C 0.56049 0.05156 0.59513
 H254 H 0.56244 0.04714 0.62613
 N255 N 0.53422 0.03339 0.53390
 C256 C 0.52594 -0.06873 0.47087
 H257 H 0.50345 -0.08071 0.48842
 C258 C 0.54739 -0.09272 0.44713
 H259 H 0.54174 -0.12305 0.44709
 C260 C 0.56037 -0.01493 0.44849
 H261 H 0.56503 0.01541 0.44854
 C262 C 0.58234 -0.03786 0.42421
 H263 H 0.60399 -0.02502 0.40600
 Zn264 Zn 0.50232 0.00192 0.50290
 N265 N 0.53277 -0.03054 0.47130
 C266 C 0.47108 0.02863 0.43204
 N267 N 0.47253 0.03431 0.47094
 C268 C 0.45352 0.06372 0.48777
 C269 C 0.43205 0.08905 0.46516
 C270 C 0.45013 0.05342 0.40835
 C271 C 0.48574 -0.05391 0.55967
 C272 C 0.46272 -0.07574 0.58413
 C273 C 0.40707 -0.04532 0.55607
 C274 C 0.43114 -0.02393 0.53224
 N275 N 0.46977 -0.02815 0.53479
 H276 H 0.48616 0.00490 0.41932
 H277 H 0.45517 0.06750 0.51879
 H278 H 0.41683 0.11227 0.47882
 H279 H 0.44929 0.04879 0.37738
 H280 H 0.51648 -0.05733 0.56063
 H281 H 0.47578 -0.09581 0.60413
 H282 H 0.37637 -0.04169 0.55388
 H283 H 0.41887 -0.00398 0.51176
 C284 C 0.57562 -0.07715 0.42313
 C285 C 0.58234 0.07970 0.57685
 C286 C 0.42295 -0.07105 0.58284
 C287 C 0.43073 0.08427 0.42490
 C288 C 0.55278 0.56065 0.00656
 H289 H 0.55055 0.56475 -0.02435
 C290 C 0.57438 0.58613 0.02846
 H291 H 0.58966 0.60900 0.01417
 C292 C 0.53432 0.52729 0.06326
 H293 H 0.51809 0.50499 0.07704
 C294 C 0.55543 0.55222 0.08626
 H295 H 0.55570 0.54852 0.11741
 N296 N 0.53377 0.53147 0.02404
 C297 C 0.53114 0.42974 -0.04079
 H298 H 0.50963 0.41640 -0.02301
 C299 C 0.55330 0.40714 -0.06519
 H300 H 0.54922 0.37656 -0.06544
 C301 C 0.56216 0.48551 -0.06336
 H302 H 0.56511 0.51605 -0.06324
 C303 C 0.58488 0.46395 -0.08826
 H304 H 0.60547 0.47803 -0.10678
 Zn305 Zn 0.50405 0.49827 -0.00743
 N306 N 0.53599 0.46824 -0.04004
 C307 C 0.46775 0.52182 -0.07697
 N308 N 0.47132 0.52865 -0.03840
 C309 C 0.45131 0.55705 -0.02097
 C310 C 0.42609 0.57971 -0.04248
 C311 C 0.44284 0.54381 -0.09956
 C312 C 0.49204 0.44050 0.04857
 C313 C 0.47085 0.41547 0.07152
 C314 C 0.41298 0.44155 0.04355
 C315 C 0.43525 0.46621 0.02123
 N316 N 0.47407 0.46535 0.02414
 H317 H 0.48387 0.49902 -0.09016
 H318 H 0.45480 0.56186 0.00975
 H319 H 0.41007 0.60209 -0.02833
 H320 H 0.44003 0.53814 -0.13022
 H321 H 0.52294 0.44004 0.05006
 H322 H 0.48543 0.39603 0.09106
 H323 H 0.38212 0.44239 0.04094
 H324 H 0.42144 0.48577 0.00137
 C325 C 0.58023 0.42436 -0.08953
 C326 C 0.57559 0.58211 0.06882
 C327 C 0.43086 0.41561 0.06874
 C328 C 0.42139 0.57280 -0.08212
 C329 C 0.15621 -0.15190 -0.09417
 C330 C 0.15339 -0.14808 -0.13500
 C331 C 0.12719 -0.12212 -0.15094
 C332 C 0.10364 -0.10035 -0.12733
 C333 C 0.10548 -0.10381 -0.08697
 C334 C 0.13153 -0.13013 -0.06997
 C335 C 0.18336 -0.17650 -0.07677
 C336 C 0.18499 -0.18084 -0.03666
 C337 C 0.15978 -0.16085 -0.01315
 C338 C 0.13324 -0.13575 -0.02949
 H339 H 0.20372 -0.19236 -0.09387
 H340 H 0.20582 -0.19996 -0.02376
 H341 H 0.16089 -0.16470 0.01795
 H342 H 0.11402 -0.12108 -0.01011
 H343 H 0.12471 -0.11893 -0.18207
 H344 H 0.08390 -0.08035 -0.14069
 C345 C 0.10941 0.35896 0.33461
 C346 C 0.14950 0.35802 0.34083
 C347 C 0.16575 0.38121 0.36928
 C348 C 0.14291 0.40415 0.39250
 C349 C 0.10313 0.40465 0.38793
 C350 C 0.08602 0.38256 0.35830
 C351 C 0.09214 0.33764 0.30477
 C352 C 0.05276 0.33930 0.29861
 C353 C 0.02994 0.36246 0.32162
 C354 C 0.04628 0.38410 0.35104
 H355 H 0.10887 0.31992 0.28565
 H356 H 0.03993 0.32281 0.27561
 H357 H -0.00057 0.36392 0.31642
 H358 H 0.02756 0.40236 0.36758
 H359 H 0.19638 0.38094 0.37408
 H360 H 0.15635 0.42110 0.41483
 C361 C 0.60509 -0.14727 0.34370
 C362 C 0.64497 -0.14915 0.35097
 C363 C 0.66094 -0.12687 0.38030
 C364 C 0.63800 -0.10363 0.40311
 C365 C 0.59839 -0.10182 0.39720
 C366 C 0.58160 -0.12325 0.36687
 C367 C 0.58816 -0.16800 0.31323
 C368 C 0.54904 -0.16526 0.30585
 C369 C 0.52616 -0.14157 0.32824
 C370 C 0.54217 -0.12054 0.35830
 H371 H 0.60497 -0.18614 0.29459
 H372 H 0.53647 -0.18130 0.28238
 H373 H 0.49588 -0.13923 0.32207
 H374 H 0.52343 -0.10184 0.37430
 H375 H 0.69143 -0.12788 0.38588
 H376 H 0.65123 -0.08718 0.42595
 C377 C 0.61186 0.35527 -0.16896
 C378 C 0.65174 0.35433 -0.16144
 C379 C 0.66706 0.37751 -0.13245
 C380 C 0.64347 0.40044 -0.10999
 C381 C 0.60385 0.40094 -0.11585
 C382 C 0.58771 0.37885 -0.14603
 C383 C 0.59556 0.33399 -0.19938
 C384 C 0.55639 0.33564 -0.20682
 C385 C 0.53283 0.35875 -0.18453
 C386 C 0.54821 0.38037 -0.15457
 H387 H 0.61290 0.31632 -0.21798
 H388 H 0.54431 0.31917 -0.23024
 H389 H 0.50250 0.36020 -0.19072
 H390 H 0.52897 0.39860 -0.13863
 H391 H 0.69752 0.37724 -0.12664
 H392 H 0.65618 0.41739 -0.08723
 C393 C -0.14945 0.10345 -0.15123
 C394 C -0.15218 0.14356 -0.14379
 C395 C -0.13399 0.15773 -0.11034
 C396 C -0.11053 0.13475 -0.08755
 C397 C -0.10486 0.09632 -0.09628
 C398 C -0.12536 0.07995 -0.12751
 C399 C -0.17327 0.08530 -0.17882
 C400 C -0.17096 0.04621 -0.18522
 C401 C -0.14623 0.02383 -0.16328
 C402 C -0.12418 0.04025 -0.13425
 H403 H -0.19509 0.10065 -0.19472
 H404 H -0.18918 0.03308 -0.20671
 H405 H -0.14505 -0.00663 -0.16792
 H406 H -0.10726 0.02119 -0.11646
 H407 H -0.13513 0.18772 -0.10315
 H408 H -0.09565 0.14750 -0.06332
 C409 C -0.16579 0.60193 0.36113
 C410 C -0.15695 0.64092 0.35489
 C411 C -0.12463 0.65661 0.37267
 C412 C -0.10046 0.63421 0.39539
 C413 C -0.10780 0.59539 0.40102
 C414 C -0.14097 0.57895 0.38437
 C415 C -0.19928 0.58548 0.34565
 C416 C -0.20781 0.54723 0.35241
 C417 C -0.18354 0.52480 0.37502
 C418 C -0.15055 0.54042 0.39111
 H419 H -0.21941 0.60203 0.32867
 H420 H -0.23357 0.53502 0.34033
 H421 H -0.19052 0.49522 0.38044
 H422 H -0.13301 0.52216 0.40921
 H423 H -0.11770 0.68641 0.36834
 H424 H -0.07536 0.64714 0.40819
 C425 C 0.39250 0.17425 0.37421
 C426 C 0.36167 0.15814 0.35325
 C427 C 0.35516 0.11887 0.35536
 C428 C 0.37800 0.09554 0.37852
 C429 C 0.40820 0.11071 0.40018
 C430 C 0.41614 0.15031 0.39770
 C431 C 0.40095 0.21350 0.37154
 C432 C 0.43190 0.22883 0.39159
 C433 C 0.45522 0.20543 0.41421
 C434 C 0.44769 0.16652 0.41714
 H435 H 0.38405 0.23258 0.35367
 H436 H 0.43805 0.25897 0.38924
 H437 H 0.47946 0.21744 0.42933
 H438 H 0.46712 0.14933 0.43429
 H439 H 0.33184 0.10623 0.33924
 H440 H 0.37176 0.06533 0.37994
 C441 C 0.33707 0.60478 -0.14575
 C442 C 0.34618 0.64394 -0.15015
 C443 C 0.37844 0.65865 -0.13141
 C444 C 0.40219 0.63518 -0.10934
 C445 C 0.39446 0.59625 -0.10532
 C446 C 0.36143 0.58072 -0.12314
 C447 C 0.30371 0.58920 -0.16240
 C448 C 0.29483 0.55079 -0.15736
 C449 C 0.31860 0.52731 -0.13531
 C450 C 0.35147 0.54204 -0.11811
 H451 H 0.28394 0.60654 -0.17900
 H452 H 0.26917 0.53925 -0.17032
 H453 H 0.31135 0.49760 -0.13121
 H454 H 0.36860 0.52295 -0.10051
 H455 H 0.38555 0.68856 -0.13431
 H456 H 0.42717 0.64743 -0.09563
 C457 C -0.11784 -0.17798 0.12359
 C458 C -0.14983 -0.16194 0.14340
 C459 C -0.15794 -0.12300 0.13809
 C460 C -0.13396 -0.09964 0.11656
 C461 C -0.10125 -0.11421 0.09869
 C462 C -0.09342 -0.15386 0.10119
 C463 C -0.11130 -0.21780 0.12281
 C464 C -0.08055 -0.23315 0.10255
 C465 C -0.05635 -0.20952 0.08157
 C466 C -0.06292 -0.17037 0.08034
 H467 H -0.13046 -0.23771 0.13665
 H468 H -0.07595 -0.26367 0.10248
 H469 H -0.03289 -0.22169 0.06538
 H470 H -0.04442 -0.15350 0.06208
 H471 H -0.18203 -0.10982 0.15251
 H472 H -0.14064 -0.06952 0.11452
 C473 C -0.10353 0.32540 0.62113
 C474 C -0.12954 0.34123 0.64813
 C475 C -0.13267 0.38088 0.65126
 C476 C -0.11119 0.40492 0.62776
 C477 C -0.08585 0.39011 0.60035
 C478 C -0.08202 0.35002 0.59653
 C479 C -0.09812 0.28562 0.61827
 C480 C -0.07339 0.27041 0.59075
 C481 C -0.05361 0.29439 0.56566
 C482 C -0.05781 0.33380 0.56837
 H483 H -0.11267 0.26595 0.63736
 H484 H -0.06968 0.23985 0.58877
 H485 H -0.03479 0.28238 0.54407
 H486 H -0.04212 0.35128 0.54805
 H487 H -0.15247 0.39337 0.67170
 H488 H -0.11437 0.43546 0.63097
 C489 C 0.34963 -0.10009 0.65990
 C490 C 0.35061 -0.14020 0.65526
 C491 C 0.37572 -0.15635 0.62844
 C492 C 0.39904 -0.13346 0.60554
 C493 C 0.39807 -0.09370 0.60883
 C494 C 0.37369 -0.07663 0.63662
 C495 C 0.32596 -0.08284 0.68789
 C496 C 0.32587 -0.04342 0.69272
 C497 C 0.34957 -0.02053 0.67023
 C498 C 0.37346 -0.03684 0.64261
 H499 H 0.30770 -0.09958 0.70657
 H500 H 0.30759 -0.03060 0.71431
 H501 H 0.34967 0.01001 0.67444
 H502 H 0.39202 -0.01801 0.62648
 H503 H 0.37691 -0.18699 0.62488
 H504 H 0.41771 -0.14688 0.58464
 C505 C 0.38837 0.32573 0.11526
 C506 C 0.36284 0.34288 0.14192
 C507 C 0.36057 0.38266 0.14390
 C508 C 0.38261 0.40556 0.11977
 C509 C 0.40767 0.38944 0.09285
 C510 C 0.41046 0.34920 0.09004
 C511 C 0.39280 0.28577 0.11342
 C512 C 0.41714 0.26928 0.08631
 C513 C 0.43749 0.29213 0.06062
 C514 C 0.43426 0.33170 0.06232
 H515 H 0.37779 0.26692 0.13301
 H516 H 0.42010 0.23860 0.08511
 H517 H 0.45600 0.27914 0.03935
 H518 H 0.45037 0.34829 0.04158
 H519 H 0.34118 0.39613 0.16409
 H520 H 0.38022 0.43624 0.12223
 C521 C 0.16691 0.12220 0.12535
 C522 C 0.15101 0.14885 0.15160
 C523 C 0.11123 0.15156 0.15530
 C524 C 0.08711 0.12824 0.13383
 C525 C 0.10202 0.10149 0.10797
 C526 C 0.14224 0.09779 0.10397
 C527 C 0.20679 0.11961 0.11945
 C528 C 0.22206 0.09249 0.09449
 C529 C 0.19807 0.06754 0.07492
 C530 C 0.15855 0.07002 0.07953
 H531 H 0.22652 0.13860 0.13378
 H532 H 0.25269 0.09072 0.09043
 H533 H 0.21012 0.04624 0.05592
 H534 H 0.14108 0.04982 0.06398
 H535 H 0.09875 0.17180 0.17523
 H536 H 0.05646 0.13131 0.13716
 C537 C 0.11527 0.67929 0.61885
 C538 C 0.14655 0.66380 0.63998
 C539 C 0.15452 0.62477 0.63750
 C540 C 0.13174 0.60089 0.61526
 C541 C 0.10024 0.61524 0.59470
 C542 C 0.09151 0.65471 0.59655
 C543 C 0.10726 0.71875 0.61905
 C544 C 0.07574 0.73342 0.59912
 C545 C 0.05167 0.70923 0.57865
 C546 C 0.05932 0.67024 0.57733
 H547 H 0.12535 0.73863 0.63432
 H548 H 0.06986 0.76371 0.59969
 H549 H 0.02700 0.72075 0.56360
 H550 H 0.03967 0.65251 0.56133
 H551 H 0.17828 0.61253 0.65352
 H552 H 0.13873 0.57082 0.61409
 C553 C 0.67322 0.12546 0.61742
 C554 C 0.65673 0.15020 0.64513
 C555 C 0.61694 0.15166 0.64917
 C556 C 0.59340 0.12855 0.62684
 C557 C 0.60892 0.10348 0.59964
 C558 C 0.64914 0.10156 0.59480
 C559 C 0.71314 0.12415 0.61149
 C560 C 0.72901 0.09906 0.58477
 C561 C 0.70559 0.07489 0.56353
 C562 C 0.66604 0.07598 0.56841
 H563 H 0.73239 0.14257 0.62720
 H564 H 0.75967 0.09828 0.58063
 H565 H 0.71812 0.05524 0.54308
 H566 H 0.64899 0.05650 0.55148
 H567 H 0.60405 0.17045 0.67026
 H568 H 0.56271 0.13023 0.63078
 C569 C 0.61452 0.67217 0.11749
 C570 C 0.64472 0.65580 0.13955
 C571 C 0.65158 0.61655 0.13737
 C572 C 0.62879 0.59333 0.11442
 C573 C 0.59839 0.60857 0.09285
 C574 C 0.59071 0.64827 0.09450
 C575 C 0.60768 0.71185 0.11740
 C576 C 0.57716 0.72740 0.09656
 C577 C 0.55297 0.70388 0.07545
 C578 C 0.55952 0.66470 0.07437
 H579 H 0.62592 0.73124 0.13313
 H580 H 0.57216 0.75785 0.09693
 H581 H 0.52906 0.71609 0.05969
 H582 H 0.53979 0.64752 0.05784
 H583 H 0.67452 0.60365 0.15407
 H584 H 0.63497 0.56307 0.11341
   
