data_POSCAR
  _audit_creation_date              2014-09-24
  _audit_creation_method            'ToBaCCo'
  _symmetry_space_group_name_H-M    'P1'
  _symmetry_Int_Tables_number       1
  _symmetry_cell_setting            triclinic
  loop_
  _symmetry_equiv_pos_as_xyz
 x,y,z
_cell_length_a 41.1260
_cell_length_b 34.7922
_cell_length_c 30.5692
_cell_angle_alpha 89.823700
_cell_angle_beta 90.051700
_cell_angle_gamma 85.486000
loop_
  _atom_site_label
  _atom_site_type_symbol
  _atom_site_fract_x
  _atom_site_fract_y
  _atom_site_fract_z
C1 C 1.23121 0.21771 0.20969
 C2 C 1.24819 0.24757 0.18251
 C3 C 1.26506 0.27217 0.20683
 C4 C 1.26301 0.26527 0.25647
 C5 C 1.25864 0.19797 0.23797
 C6 C 1.27531 0.22275 0.26213
 C7 C 1.21013 0.24176 0.24247
 C8 C 1.22632 0.26727 0.26600
 H9 H 1.24882 0.24722 0.14709
 H10 H 1.27634 0.28549 0.27653
 H11 H 1.26573 0.16745 0.23819
 H12 H 1.18388 0.24093 0.24429
 C13 C 0.73292 -0.28417 0.17435
 C14 C 0.75038 -0.25041 0.15664
 C15 C 0.76308 -0.22825 0.18802
 C16 C 0.75677 -0.24206 0.23533
 C17 C 0.75785 -0.30631 0.20445
 C18 C 0.76985 -0.28468 0.23677
 C19 C 0.70746 -0.26592 0.20633
 C20 C 0.71945 -0.24425 0.23865
 H21 H 0.75398 -0.24586 0.12196
 H22 H 0.76743 -0.22443 0.26096
 H23 H 0.76342 -0.33711 0.20363
 H24 H 0.68187 -0.27057 0.20337
 C25 C 0.72147 0.23030 -0.31551
 C26 C 0.73930 0.26029 -0.33507
 C27 C 0.75966 0.27936 -0.30522
 C28 C 0.75750 0.26466 -0.26009
 C29 C 0.74612 0.20424 -0.29370
 C30 C 0.76590 0.22261 -0.26216
 C31 C 0.70343 0.24839 -0.27920
 C32 C 0.72275 0.26798 -0.24900
 H33 H 0.74002 0.26435 -0.37019
 H34 H 0.77156 0.27995 -0.23576
 H35 H 0.74771 0.17342 -0.29804
 H36 H 0.67745 0.24679 -0.27474
 C37 C 1.22939 -0.26896 -0.30640
 C38 C 1.25904 -0.25411 -0.32915
 C39 C 1.27821 -0.23359 -0.30284
 C40 C 1.26506 -0.22937 -0.25545
 C41 C 1.24326 -0.29138 -0.26640
 C42 C 1.26217 -0.27109 -0.23987
 C43 C 1.21120 -0.23312 -0.28630
 C44 C 1.22963 -0.21220 -0.25998
 H45 H 1.26366 -0.25900 -0.36359
 H46 H 1.27943 -0.21245 -0.23302
 H47 H 1.23989 -0.32155 -0.26109
 H48 H 1.18497 -0.22761 -0.28703
 C49 C 0.23685 0.21295 0.79270
 C50 C 0.25593 0.23783 0.81891
 C51 C 0.27286 0.26533 0.79427
 C52 C 0.26732 0.26238 0.74705
 C53 C 0.21446 0.24052 0.76483
 C54 C 0.23009 0.26684 0.74172
 C55 C 0.26108 0.19418 0.75917
 C56 C 0.27701 0.22009 0.73544
 H57 H 0.25879 0.23366 0.85384
 H58 H 0.27907 0.28312 0.72593
 H59 H 0.18815 0.23996 0.76446
 H60 H 0.26541 0.16358 0.75369
 C61 C 0.72919 0.72263 0.82570
 C62 C 0.74192 0.75777 0.84152
 C63 C 0.75804 0.77914 0.80872
 C64 C 0.75658 0.76141 0.76489
 C65 C 0.70757 0.73458 0.78967
 C66 C 0.72185 0.75633 0.75599
 C67 C 0.75661 0.70116 0.80430
 C68 C 0.77184 0.72205 0.77040
 H69 H 0.74387 0.76347 0.87621
 H70 H 0.76829 0.77801 0.73927
 H71 H 0.68199 0.72935 0.78990
 H72 H 0.75969 0.67006 0.80440
 C73 C 0.72253 0.23415 0.31230
 C74 C 0.74315 0.26315 0.33418
 C75 C 0.76328 0.28070 0.30646
 C76 C 0.76107 0.26724 0.25855
 C77 C 0.70492 0.25629 0.27466
 C78 C 0.72489 0.27369 0.24691
 C79 C 0.74713 0.20584 0.28844
 C80 C 0.76709 0.22286 0.25981
 H81 H 0.74235 0.26847 0.36906
 H82 H 0.77673 0.28195 0.23535
 H83 H 0.67900 0.25624 0.26850
 H84 H 0.74695 0.17489 0.29141
 C85 C 0.22900 0.73041 0.30842
 C86 C 0.25814 0.74642 0.33128
 C87 C 0.27750 0.76661 0.30472
 C88 C 0.26482 0.76955 0.25689
 C89 C 0.21063 0.76545 0.28666
 C90 C 0.22906 0.78619 0.25999
 C91 C 0.24365 0.70732 0.26952
 C92 C 0.26271 0.72736 0.24286
 H93 H 0.26242 0.74211 0.36591
 H94 H 0.27929 0.78601 0.23399
 H95 H 0.18436 0.77063 0.28713
 H96 H 0.24083 0.67693 0.26503
 O97 O 1.04017 0.06717 0.07629
 O98 O 1.07759 0.02991 0.03574
 C99 C 1.06982 0.05650 0.06448
 O100 O 0.95322 -0.06632 0.07515
 O101 O 0.91556 -0.02792 0.03613
 C102 C 0.92341 -0.05505 0.06457
 O103 O 1.04368 -0.06587 0.08089
 O104 O 1.07933 -0.03553 0.03742
 C105 C 1.07289 -0.05809 0.06962
 O106 O 0.94978 0.07518 0.07254
 O107 O 0.91358 0.04083 0.03449
 C108 C 0.92044 0.06774 0.06183
 Zr109 Zr 0.99535 0.04996 0.05242
 O110 O 0.99314 0.05137 0.12156
 O111 O 0.99467 0.11063 0.04689
 Zr112 Zr 0.99787 -0.04678 0.05375
 O113 O 0.99570 -0.04302 0.12274
 O114 O 1.00281 -0.10779 0.05489
 O115 O 1.02585 0.00002 0.06169
 O116 O 0.96790 0.00330 0.06109
 O117 O 0.94961 0.07524 -0.07711
 O118 O 0.91361 0.04041 -0.03907
 C119 C 0.92032 0.06739 -0.06654
 O120 O 1.04342 -0.06487 -0.08459
 O121 O 1.07924 -0.03563 -0.04040
 C122 C 1.07268 -0.05760 -0.07289
 O123 O 0.95290 -0.06618 -0.07887
 O124 O 0.91549 -0.02806 -0.03949
 C125 C 0.92312 -0.05503 -0.06798
 O126 O 1.04056 0.06695 -0.08019
 O127 O 1.07777 0.02866 -0.04011
 C128 C 1.07017 0.05543 -0.06876
 Zr129 Zr 0.99532 0.04971 -0.05696
 O130 O 0.99263 0.05057 -0.12614
 O131 O 0.99475 0.11042 -0.05272
 Zr132 Zr 0.99768 -0.04743 -0.05631
 O133 O 0.99531 -0.05297 -0.12504
 O134 O 1.00141 -0.10799 -0.04876
 Zr135 Zr 1.04564 -0.00166 -0.00181
 Zr136 Zr 0.94729 0.00403 -0.00193
 O137 O 0.96798 0.00284 -0.06487
 O138 O 1.02553 -0.00047 -0.06540
 O139 O 0.96582 0.05879 -0.00234
 O140 O 1.02675 -0.05607 -0.00131
 O141 O 1.02378 0.05504 -0.00228
 O142 O 0.96863 -0.05307 -0.00127
 H143 H 0.95327 0.00454 0.08686
 H144 H 1.04245 -0.07919 -0.00113
 H145 H 0.95342 0.00394 -0.09075
 H146 H 1.03742 0.07728 -0.00240
 H147 H 0.98732 -0.11674 0.03307
 H148 H 1.00265 -0.11869 -0.07876
 H149 H 0.99795 -0.02711 -0.13731
 H150 H 1.01205 0.03504 -0.13730
 H151 H 0.99505 0.12016 -0.08322
 H152 H 0.99488 0.12072 0.07717
 H153 H 1.00805 0.02971 0.13242
 H154 H 0.99671 -0.06989 0.13384
 O155 O 1.03981 0.56691 0.58682
 O156 O 1.07754 0.53190 0.54438
 C157 C 1.06946 0.55766 0.57381
 O158 O 0.95397 0.43257 0.57899
 O159 O 0.91625 0.47204 0.54129
 C160 C 0.92417 0.44406 0.56851
 O161 O 1.04430 0.43351 0.58466
 O162 O 1.07970 0.46651 0.54364
 C163 C 1.07338 0.44220 0.57414
 O164 O 0.94906 0.57285 0.58485
 O165 O 0.91366 0.54027 0.54312
 C166 C 0.92004 0.56505 0.57309
 Zr167 Zr 0.99498 0.55010 0.56254
 O168 O 0.99319 0.54902 0.63170
 O169 O 0.99313 0.61097 0.55997
 Zr170 Zr 0.99850 0.45342 0.55886
 O171 O 0.99648 0.45461 0.62796
 O172 O 1.00369 0.39244 0.55716
 O173 O 1.02600 0.50028 0.56939
 O174 O 0.96811 0.50267 0.56849
 O175 O 0.94933 0.57970 0.43419
 O176 O 0.91379 0.54278 0.47001
 C177 C 0.92019 0.57102 0.44424
 O178 O 1.04453 0.43950 0.42167
 O179 O 1.07993 0.46897 0.46621
 C180 C 1.07366 0.44680 0.43369
 O181 O 0.95445 0.43817 0.42596
 O182 O 0.91640 0.47472 0.46595
 C183 C 0.92458 0.44864 0.43675
 O184 O 1.04004 0.57286 0.43134
 O185 O 1.07772 0.53430 0.47026
 C186 C 1.06973 0.56219 0.44310
 Zr187 Zr 0.99515 0.55404 0.45305
 O188 O 0.99226 0.55722 0.38394
 O189 O 0.99397 0.61464 0.45968
 Zr190 Zr 0.99869 0.45711 0.44886
 O191 O 0.99582 0.45625 0.37979
 O192 O 1.00278 0.39624 0.45207
 Zr193 Zr 1.04580 0.50139 0.50592
 Zr194 Zr 0.94772 0.50562 0.50533
 O195 O 0.96844 0.50714 0.44253
 O196 O 1.02609 0.50474 0.44224
 O197 O 0.96554 0.56068 0.50796
 O198 O 1.02751 0.44673 0.50369
 O199 O 1.02323 0.55778 0.50825
 O200 O 0.96960 0.44885 0.50327
 H201 H 0.95357 0.50249 0.59431
 H202 H 1.04324 0.42365 0.50292
 H203 H 0.95393 0.50898 0.41658
 H204 H 1.03633 0.58047 0.50929
 H205 H 0.98901 0.38426 0.53389
 H206 H 1.00354 0.38714 0.42137
 H207 H 1.00695 0.47859 0.36902
 H208 H 1.01220 0.54326 0.37208
 H209 H 0.99410 0.62535 0.42959
 H210 H 0.99360 0.61983 0.59073
 H211 H 1.00817 0.52700 0.64146
 H212 H 0.99757 0.42735 0.63776
 O213 O 0.45336 -0.06323 0.41565
 O214 O 0.48187 -0.10762 0.45980
 C215 C 0.46148 -0.09830 0.42799
 O216 O 0.56661 0.03940 0.43001
 O217 O 0.53150 0.08491 0.46311
 C218 C 0.55767 0.07459 0.44097
 O219 O 0.56718 -0.06583 0.42386
 O220 O 0.53962 -0.10909 0.46360
 C221 C 0.56223 -0.10048 0.43615
 O222 O 0.44554 0.04295 0.41707
 O223 O 0.47174 0.08649 0.45802
 C224 C 0.45105 0.07781 0.42814
 Zr225 Zr 0.46566 -0.01049 0.44120
 O226 O 0.46598 -0.00851 0.37200
 O227 O 0.41430 -0.01031 0.44444
 Zr228 Zr 0.54637 -0.01253 0.44525
 O229 O 0.54329 -0.01065 0.37628
 O230 O 0.59793 -0.01639 0.44308
 O231 O 0.50811 -0.04687 0.43554
 O232 O 0.50484 0.02286 0.43438
 O233 O 0.43882 0.04519 0.56697
 O234 O 0.46937 0.08772 0.53071
 C235 C 0.44515 0.07972 0.55553
 O236 O 0.56317 -0.06403 0.58017
 O237 O 0.53867 -0.10836 0.53840
 C238 C 0.55982 -0.09895 0.56754
 O239 O 0.56224 0.04168 0.57114
 O240 O 0.52978 0.08606 0.53198
 C241 C 0.55458 0.07637 0.55712
 O242 O 0.44927 -0.06080 0.57774
 O243 O 0.48011 -0.10653 0.53846
 C244 C 0.45842 -0.09623 0.56819
 Zr245 Zr 0.46231 -0.00876 0.55073
 O246 O 0.45857 -0.00262 0.61944
 O247 O 0.41131 -0.01044 0.54317
 Zr248 Zr 0.54325 -0.01088 0.55567
 O249 O 0.53825 -0.00491 0.62433
 O250 O 0.59481 -0.01425 0.55944
 Zr251 Zr 0.50759 -0.06960 0.49965
 Zr252 Zr 0.50179 0.04768 0.49698
 O253 O 0.50097 0.02478 0.56060
 O254 O 0.50436 -0.04485 0.56269
 O255 O 0.45586 0.02500 0.49473
 O256 O 0.55271 -0.04511 0.50143
 O257 O 0.45968 -0.04368 0.49649
 O258 O 0.54965 0.02166 0.50005
 H259 H 0.50539 0.04027 0.40870
 H260 H 0.57357 -0.06136 0.50238
 H261 H 0.49958 0.04324 0.58529
 H262 H 0.44131 -0.06048 0.49603
 H263 H 0.60541 -0.01069 0.47300
 H264 H 0.60066 -0.01326 0.59090
 H265 H 0.53183 -0.02974 0.63608
 H266 H 0.47542 -0.02095 0.63262
 H267 H 0.40199 -0.00981 0.57307
 H268 H 0.40652 -0.01077 0.41377
 H269 H 0.48473 -0.02586 0.36211
 H270 H 0.56597 -0.00977 0.36568
 O271 O 0.54227 0.55902 0.07542
 O272 O 0.57777 0.52154 0.03238
 C273 C 0.57127 0.54838 0.06099
 O274 O 0.45293 0.42698 0.07414
 O275 O 0.41469 0.46674 0.03772
 C276 C 0.42300 0.43895 0.06510
 O277 O 0.54351 0.42221 0.07276
 O278 O 0.57837 0.45630 0.03197
 C279 C 0.57244 0.43019 0.06049
 O280 O 0.45165 0.56884 0.07636
 O281 O 0.41411 0.53635 0.03873
 C282 C 0.42196 0.56287 0.06585
 Zr283 Zr 0.49633 0.54252 0.05462
 O284 O 0.49575 0.54028 0.12383
 O285 O 0.49641 0.60332 0.05328
 Zr286 Zr 0.49729 0.44643 0.05224
 O287 O 0.49820 0.45034 0.12119
 O288 O 0.49961 0.38551 0.05411
 O289 O 0.52655 0.49196 0.06069
 O290 O 0.46810 0.49656 0.06269
 O291 O 0.44793 0.57255 -0.07179
 O292 O 0.41223 0.53794 -0.03327
 C293 C 0.41881 0.56588 -0.05936
 O294 O 0.53987 0.42644 -0.08359
 O295 O 0.57688 0.45792 -0.04371
 C296 C 0.56947 0.43303 -0.07278
 O297 O 0.44922 0.43131 -0.07835
 O298 O 0.41303 0.46812 -0.03552
 C299 C 0.41996 0.44223 -0.06542
 O300 O 0.53827 0.56335 -0.07900
 O301 O 0.57581 0.52384 -0.04122
 C302 C 0.56795 0.55233 -0.06752
 Zr303 Zr 0.49355 0.54523 -0.05557
 O304 O 0.48898 0.54613 -0.12458
 O305 O 0.49380 0.60591 -0.05150
 Zr306 Zr 0.49454 0.44897 -0.05808
 O307 O 0.49032 0.45088 -0.12711
 O308 O 0.49606 0.38810 -0.05670
 Zr309 Zr 0.54431 0.49197 -0.00394
 Zr310 Zr 0.44621 0.49950 0.00045
 O311 O 0.46503 0.49963 -0.06351
 O312 O 0.52333 0.49507 -0.06688
 O313 O 0.46590 0.55354 0.00099
 O314 O 0.52425 0.43822 -0.00435
 O315 O 0.52295 0.54883 -0.00149
 O316 O 0.46690 0.44223 -0.00189
 H317 H 0.45388 0.49741 0.08888
 H318 H 0.53866 0.41404 -0.00545
 H319 H 0.44960 0.50176 -0.08847
 H320 H 0.53628 0.57133 -0.00136
 H321 H 0.48931 0.37721 0.02683
 H322 H 0.49587 0.37963 -0.08762
 H323 H 0.50815 0.46563 -0.13837
 H324 H 0.50892 0.53241 -0.13673
 H325 H 0.49317 0.61580 -0.08198
 H326 H 0.49769 0.61176 0.08415
 H327 H 0.51414 0.52199 0.13307
 H328 H 0.49855 0.42351 0.13225
 C329 C 1.16689 0.14740 0.13801
 C330 C 1.19559 0.12938 0.15590
 C331 C 1.21747 0.15186 0.17768
 C332 C 1.21069 0.19224 0.18182
 C333 C 1.18268 0.20976 0.16090
 C334 C 1.16040 0.18755 0.14001
 C335 C 1.14276 0.12372 0.11775
 C336 C 1.11338 0.14180 0.10188
 C337 C 1.08983 0.11918 0.08472
 C338 C 1.09565 0.07884 0.08247
 C339 C 1.12564 0.06104 0.09705
 C340 C 1.14916 0.08346 0.11553
 C341 C 1.13118 0.20464 0.12239
 C342 C 1.10795 0.18211 0.10390
 C343 C 1.20140 0.08908 0.15260
 C344 C 1.17868 0.06655 0.13257
 H345 H 1.12590 0.23562 0.12375
 H346 H 1.08544 0.19635 0.09141
 H347 H 1.22355 0.07476 0.16605
 H348 H 1.18402 0.03559 0.13110
 H349 H 1.23924 0.13734 0.19150
 H350 H 1.17749 0.24076 0.16276
 H351 H 1.06696 0.13298 0.07274
 H352 H 1.13014 0.02996 0.09522
 C353 C 1.16577 0.65816 0.62695
 C354 C 1.15658 0.69774 0.63031
 C355 C 1.17874 0.72220 0.64728
 C356 C 1.20906 0.70704 0.66406
 C357 C 1.21911 0.66789 0.65607
 C358 C 1.19729 0.64313 0.63826
 C359 C 1.14154 0.63185 0.61279
 C360 C 1.15051 0.59212 0.60951
 C361 C 1.12692 0.56716 0.59695
 C362 C 1.09457 0.58195 0.58942
 C363 C 1.08617 0.62178 0.59278
 C364 C 1.10957 0.64691 0.60388
 C365 C 1.20571 0.60338 0.63365
 C366 C 1.18274 0.57831 0.61928
 C367 C 1.12479 0.71188 0.61896
 C368 C 1.10155 0.68680 0.60629
 H369 H 1.23005 0.59144 0.64206
 H370 H 1.19008 0.54781 0.61670
 H371 H 1.11750 0.74242 0.62130
 H372 H 1.07700 0.69867 0.59886
 H373 H 1.17150 0.75270 0.64902
 H374 H 1.24315 0.65623 0.66625
 H375 H 1.13346 0.53651 0.59361
 H376 H 1.06148 0.63337 0.58556
 C377 C 0.65369 0.17414 0.60698
 C378 C 0.64523 0.21153 0.62197
 C379 C 0.66897 0.23156 0.64303
 C380 C 0.70020 0.21309 0.65306
 C381 C 0.70918 0.17749 0.63241
 C382 C 0.68585 0.15755 0.61041
 C383 C 0.62808 0.15114 0.58952
 C384 C 0.63658 0.11319 0.57631
 C385 C 0.61198 0.09007 0.56423
 C386 C 0.57893 0.10412 0.56605
 C387 C 0.57067 0.14298 0.57649
 C388 C 0.59539 0.16666 0.58881
 C389 C 0.69363 0.12028 0.59416
 C390 C 0.66935 0.09843 0.57732
 C391 C 0.61272 0.22713 0.61821
 C392 C 0.58817 0.20498 0.60215
 H393 H 0.71843 0.10732 0.59607
 H394 H 0.67610 0.06925 0.56655
 H395 H 0.60594 0.25615 0.62949
 H396 H 0.56323 0.21759 0.60136
 H397 H 0.66226 0.26051 0.65464
 H398 H 0.73384 0.16429 0.63470
 H399 H 0.61854 0.06052 0.55450
 H400 H 0.54529 0.15404 0.57700
 C401 C 0.67292 0.64563 0.10089
 C402 C 0.66537 0.68567 0.10210
 C403 C 0.68815 0.70918 0.11945
 C404 C 0.71687 0.69257 0.13933
 C405 C 0.72601 0.65308 0.13205
 C406 C 0.70368 0.62927 0.11379
 C407 C 0.64739 0.62025 0.08905
 C408 C 0.65457 0.58005 0.08913
 C409 C 0.62957 0.55600 0.08017
 C410 C 0.59759 0.57217 0.07314
 C411 C 0.59096 0.61241 0.07267
 C412 C 0.61582 0.63663 0.08009
 C413 C 0.71050 0.58908 0.11153
 C414 C 0.68636 0.56486 0.09915
 C415 C 0.63409 0.70107 0.08994
 C416 C 0.60960 0.67689 0.07939
 H417 H 0.73431 0.57613 0.12099
 H418 H 0.69231 0.53396 0.09894
 H419 H 0.62806 0.73195 0.09062
 H420 H 0.58540 0.68976 0.07175
 H421 H 0.68165 0.73984 0.12283
 H422 H 0.74929 0.63999 0.14292
 H423 H 0.63473 0.52498 0.07946
 H424 H 0.56651 0.62488 0.06555
 C425 C 0.82672 -0.14422 0.14446
 C426 C 0.79619 -0.14587 0.12436
 C427 C 0.77465 -0.17199 0.14035
 C428 C 0.78348 -0.19638 0.17614
 C429 C 0.81357 -0.19301 0.19711
 C430 C 0.83549 -0.16735 0.18104
 C431 C 0.85052 -0.11905 0.12567
 C432 C 0.88163 -0.11901 0.14442
 C433 C 0.90483 -0.09698 0.12494
 C434 C 0.89727 -0.07498 0.08683
 C435 C 0.86545 -0.07417 0.06943
 C436 C 0.84209 -0.09659 0.08845
 C437 C 0.86657 -0.16550 0.19968
 C438 C 0.88926 -0.14183 0.18163
 C439 C 0.78831 -0.12231 0.08779
 C440 C 0.81078 -0.09795 0.07032
 H441 H 0.87367 -0.18313 0.22791
 H442 H 0.91318 -0.14187 0.19653
 H443 H 0.76474 -0.12311 0.07212
 H444 H 0.80378 -0.08057 0.04191
 H445 H 0.75139 -0.17418 0.12420
 H446 H 0.82075 -0.21190 0.22416
 H447 H 0.92904 -0.09756 0.13911
 H448 H 0.85924 -0.05729 0.04036
 C449 C 0.82591 0.35663 0.64646
 C450 C 0.79699 0.35199 0.62355
 C451 C 0.77470 0.32735 0.64052
 C452 C 0.78095 0.30704 0.68033
 C453 C 0.80963 0.31375 0.70375
 C454 C 0.83236 0.33789 0.68661
 C455 C 0.85031 0.38078 0.62746
 C456 C 0.87993 0.38396 0.64945
 C457 C 0.90370 0.40532 0.63024
 C458 C 0.89793 0.42380 0.58952
 C459 C 0.86767 0.42134 0.56855
 C460 C 0.84391 0.39940 0.58713
 C461 C 0.86196 0.34265 0.70819
 C462 C 0.88539 0.36515 0.68984
 C463 C 0.79119 0.37152 0.58359
 C464 C 0.81420 0.39491 0.56578
 H465 H 0.86733 0.32833 0.73919
 H466 H 0.90811 0.36753 0.70724
 H467 H 0.76883 0.36833 0.56565
 H468 H 0.80889 0.40910 0.53471
 H469 H 0.75229 0.32458 0.62263
 H470 H 0.81571 0.29853 0.73382
 H471 H 0.92680 0.40737 0.64686
 H472 H 0.86307 0.43534 0.53721
 C473 C 0.36508 -0.18538 0.65013
 C474 C 0.34953 -0.17037 0.68798
 C475 C 0.32138 -0.18633 0.70322
 C476 C 0.30889 -0.21768 0.68150
 C477 C 0.32572 -0.23329 0.64438
 C478 C 0.35341 -0.21678 0.62814
 C479 C 0.39318 -0.16667 0.63208
 C480 C 0.40735 -0.17978 0.59241
 C481 C 0.43161 -0.15894 0.57283
 C482 C 0.44121 -0.12521 0.59282
 C483 C 0.42858 -0.11463 0.63435
 C484 C 0.40409 -0.13458 0.65358
 C485 C 0.36921 -0.23040 0.58973
 C486 C 0.39556 -0.21209 0.57205
 C487 C 0.36191 -0.13891 0.70924
 C488 C 0.38887 -0.12146 0.69247
 H489 H 0.36057 -0.25481 0.57252
 H490 H 0.40639 -0.22287 0.54179
 H491 H 0.35031 -0.12722 0.73866
 H492 H 0.39717 -0.09668 0.70932
 H493 H 0.30881 -0.17325 0.73113
 H494 H 0.31732 -0.25804 0.62771
 H495 H 0.44107 -0.16719 0.54087
 H496 H 0.43607 -0.08891 0.65024
 C497 C 0.32946 0.34909 0.14973
 C498 C 0.29836 0.34686 0.13135
 C499 C 0.27706 0.32175 0.15013
 C500 C 0.28669 0.29956 0.18729
 C501 C 0.31774 0.30269 0.20556
 C502 C 0.33931 0.32714 0.18676
 C503 C 0.35245 0.37424 0.12931
 C504 C 0.38388 0.37516 0.14686
 C505 C 0.40619 0.39747 0.12626
 C506 C 0.39747 0.41901 0.08829
 C507 C 0.36532 0.41924 0.07218
 C508 C 0.34283 0.39624 0.09219
 C509 C 0.37076 0.32955 0.20387
 C510 C 0.39272 0.35307 0.18416
 C511 C 0.28943 0.36954 0.09443
 C512 C 0.31120 0.39397 0.07536
 H513 H 0.37861 0.31274 0.23242
 H514 H 0.41693 0.35371 0.19802
 H515 H 0.26547 0.36826 0.08001
 H516 H 0.30337 0.41078 0.04682
 H517 H 0.25306 0.31957 0.13611
 H518 H 0.32553 0.28521 0.23364
 H519 H 0.43063 0.39755 0.13957
 H520 H 0.35818 0.43623 0.04354
 C521 C 0.82749 0.15846 -0.17172
 C522 C 0.80225 0.14077 -0.19240
 C523 C 0.78214 0.16207 -0.22235
 C524 C 0.78667 0.20131 -0.23184
 C525 C 0.81198 0.21855 -0.20963
 C526 C 0.83258 0.19721 -0.18012
 C527 C 0.84944 0.13571 -0.14133
 C528 C 0.87562 0.15301 -0.12223
 C529 C 0.89767 0.13068 -0.09579
 C530 C 0.89365 0.09135 -0.08811
 C531 C 0.86645 0.07477 -0.10583
 C532 C 0.84447 0.09678 -0.13310
 C533 C 0.85860 0.21373 -0.15937
 C534 C 0.87983 0.19197 -0.13110
 C535 C 0.79764 0.10197 -0.18284
 C536 C 0.81832 0.08040 -0.15366
 H537 H 0.86289 0.24360 -0.16551
 H538 H 0.89993 0.20566 -0.11643
 H539 H 0.77805 0.08800 -0.19841
 H540 H 0.81413 0.05047 -0.14772
 H541 H 0.76220 0.14796 -0.23659
 H542 H 0.81690 0.24800 -0.21632
 H543 H 0.91857 0.14358 -0.08213
 H544 H 0.86352 0.04441 -0.10050
 C545 C 0.82663 0.65967 0.33945
 C546 C 0.79971 0.64213 0.32282
 C547 C 0.78049 0.66127 0.29046
 C548 C 0.78842 0.69734 0.27406
 C549 C 0.81457 0.71530 0.29253
 C550 C 0.83402 0.69638 0.32496
 C551 C 0.84840 0.63840 0.37104
 C552 C 0.87628 0.65515 0.38580
 C553 C 0.89850 0.63353 0.41246
 C554 C 0.89329 0.59521 0.42386
 C555 C 0.86434 0.57948 0.41096
 C556 C 0.84190 0.60090 0.38397
 C557 C 0.86145 0.71278 0.34198
 C558 C 0.88227 0.69248 0.37189
 C559 C 0.79319 0.60527 0.33778
 C560 C 0.81396 0.58497 0.36782
 H561 H 0.86734 0.74112 0.33126
 H562 H 0.90368 0.70570 0.38334
 H563 H 0.77231 0.59158 0.32531
 H564 H 0.80856 0.55620 0.37760
 H565 H 0.75967 0.64775 0.27754
 H566 H 0.82063 0.74309 0.28047
 H567 H 0.92063 0.64592 0.42277
 H568 H 0.86034 0.54995 0.41950
 C569 C 0.35943 0.17581 0.33145
 C570 C 0.33628 0.20037 0.35372
 C571 C 0.30940 0.21776 0.33044
 C572 C 0.30547 0.20959 0.28577
 C573 C 0.32956 0.18619 0.26375
 C574 C 0.35648 0.16907 0.28640
 C575 C 0.38616 0.15487 0.35615
 C576 C 0.40796 0.12861 0.33403
 C577 C 0.43108 0.10575 0.35805
 C578 C 0.43241 0.10869 0.40382
 C579 C 0.41170 0.13655 0.42557
 C580 C 0.38809 0.15953 0.40174
 C581 C 0.37971 0.14396 0.26518
 C582 C 0.40503 0.12402 0.28863
 C583 C 0.33977 0.20553 0.39906
 C584 C 0.36519 0.18542 0.42266
 H585 H 0.37773 0.13879 0.23037
 H586 H 0.42186 0.10396 0.27128
 H587 H 0.32220 0.22445 0.41666
 H588 H 0.36638 0.18939 0.45775
 H589 H 0.29078 0.23583 0.34734
 H590 H 0.32670 0.18035 0.22918
 H591 H 0.44694 0.08406 0.34146
 H592 H 0.41237 0.13827 0.46097
 C593 C 0.32296 0.66780 -0.14547
 C594 C 0.33329 0.70142 -0.16490
 C595 C 0.31246 0.72256 -0.19385
 C596 C 0.28145 0.71040 -0.20345
 C597 C 0.27066 0.67799 -0.18143
 C598 C 0.29161 0.65610 -0.15307
 C599 C 0.34615 0.64315 -0.11896
 C600 C 0.33676 0.60803 -0.10203
 C601 C 0.36006 0.58300 -0.08028
 C602 C 0.39239 0.59308 -0.07623
 C603 C 0.40064 0.62941 -0.09126
 C604 C 0.37788 0.65422 -0.11316
 C605 C 0.28247 0.62177 -0.13390
 C606 C 0.30472 0.59805 -0.10894
 C607 C 0.36490 0.71218 -0.15683
 C608 C 0.38681 0.68903 -0.13116
 H609 H 0.25825 0.61253 -0.13938
 H610 H 0.29701 0.57124 -0.09588
 H611 H 0.37303 0.73819 -0.17140
 H612 H 0.41128 0.69782 -0.12658
 H613 H 0.32141 0.74692 -0.21090
 H614 H 0.24652 0.66884 -0.18766
 H615 H 0.35350 0.55522 -0.06853
 H616 H 0.42529 0.63790 -0.08742
 C617 C 1.17271 -0.13239 -0.18061
 C618 C 1.16820 -0.13204 -0.22613
 C619 C 1.18934 -0.15549 -0.25226
 C620 C 1.21407 -0.18042 -0.23323
 C621 C 1.21959 -0.17888 -0.18779
 C622 C 1.19873 -0.15492 -0.16118
 C623 C 1.14850 -0.11069 -0.15266
 C624 C 1.15220 -0.11195 -0.10695
 C625 C 1.12799 -0.09300 -0.08050
 C626 C 1.09985 -0.07439 -0.09975
 C627 C 1.09685 -0.07289 -0.14552
 C628 C 1.12119 -0.09071 -0.17217
 C629 C 1.20214 -0.15464 -0.11539
 C630 C 1.17940 -0.13334 -0.08877
 C631 C 1.14144 -0.11012 -0.24447
 C632 C 1.11822 -0.08994 -0.21791
 H633 H 1.22214 -0.17171 -0.09992
 H634 H 1.18263 -0.13452 -0.05360
 H635 H 1.13781 -0.10961 -0.27959
 H636 H 1.09740 -0.07431 -0.23328
 H637 H 1.18520 -0.15637 -0.28728
 H638 H 1.23840 -0.19823 -0.17289
 H639 H 1.13022 -0.09420 -0.04517
 H640 H 1.07534 -0.05815 -0.16031
 C641 C 1.16902 0.35501 0.33501
 C642 C 1.16205 0.34733 0.29109
 C643 C 1.18193 0.31971 0.26857
 C644 C 1.20839 0.29927 0.28963
 C645 C 1.21610 0.30831 0.33309
 C646 C 1.19612 0.33606 0.35622
 C647 C 1.14658 0.38206 0.35972
 C648 C 1.15251 0.38868 0.40425
 C649 C 1.12963 0.41229 0.42831
 C650 C 1.10078 0.42807 0.40805
 C651 C 1.09600 0.42229 0.36308
 C652 C 1.11870 0.39929 0.33879
 C653 C 1.20184 0.34431 0.40047
 C654 C 1.18043 0.37015 0.42405
 C655 C 1.13463 0.36636 0.27089
 C656 C 1.11327 0.39189 0.29439
 H657 H 1.22266 0.33006 0.41727
 H658 H 1.18539 0.37500 0.45833
 H659 H 1.12920 0.36073 0.23692
 H660 H 1.09191 0.40524 0.27793
 H661 H 1.17634 0.31329 0.23481
 H662 H 1.23658 0.29266 0.34924
 H663 H 1.13326 0.41652 0.46302
 H664 H 1.07394 0.43465 0.34732
 C665 C 0.65614 -0.19340 0.33835
 C666 C 0.64698 -0.22577 0.31582
 C667 C 0.66851 -0.24343 0.28508
 C668 C 0.69837 -0.22772 0.27483
 C669 C 0.70736 -0.19565 0.29864
 C670 C 0.68650 -0.17864 0.33068
 C671 C 0.63290 -0.17348 0.36906
 C672 C 0.64200 -0.14066 0.39082
 C673 C 0.61907 -0.11979 0.41675
 C674 C 0.58663 -0.13008 0.41932
 C675 C 0.57812 -0.16428 0.39949
 C676 C 0.60141 -0.18623 0.37411
 C677 C 0.69497 -0.14633 0.35424
 C678 C 0.67317 -0.12783 0.38410
 C679 C 0.61602 -0.23910 0.32341
 C680 C 0.59351 -0.21943 0.35170
 H681 H 0.71838 -0.13481 0.34898
 H682 H 0.68035 -0.10246 0.40091
 H683 H 0.60872 -0.26422 0.30624
 H684 H 0.56952 -0.22987 0.35536
 H685 H 0.66149 -0.26912 0.26891
 H686 H 0.72993 -0.18292 0.29140
 H687 H 0.62582 -0.09369 0.43254
 H688 H 0.55319 -0.17221 0.40128
 C689 C 0.66758 0.33292 -0.15679
 C690 C 0.69648 0.34725 -0.17222
 C691 C 0.71734 0.32388 -0.19959
 C692 C 0.70821 0.28738 -0.21282
 C693 C 0.68067 0.27257 -0.19350
 C694 C 0.66007 0.29525 -0.16628
 C695 C 0.64368 0.35845 -0.13260
 C696 C 0.61405 0.34438 -0.11979
 C697 C 0.59031 0.36930 -0.10006
 C698 C 0.59588 0.40805 -0.09269
 C699 C 0.62619 0.42163 -0.10387
 C700 C 0.65014 0.39688 -0.12464
 C701 C 0.63097 0.28164 -0.15083
 C702 C 0.60824 0.30589 -0.12802
 C703 C 0.70268 0.38547 -0.16230
 C704 C 0.67995 0.40982 -0.13883
 H705 H 0.62516 0.25244 -0.15783
 H706 H 0.58558 0.29473 -0.11778
 H707 H 0.72485 0.39700 -0.17380
 H708 H 0.68539 0.43930 -0.13276
 H709 H 0.73846 0.33573 -0.21401
 H710 H 0.67439 0.24365 -0.20116
 H711 H 0.56729 0.35854 -0.09052
 H712 H 0.63059 0.45147 -0.09784
 C713 C 1.17120 0.14260 -0.13822
 C714 C 1.19773 0.12389 -0.16045
 C715 C 1.22044 0.14610 -0.18113
 C716 C 1.21660 0.18687 -0.17970
 C717 C 1.19106 0.20463 -0.15419
 C718 C 1.16788 0.18288 -0.13455
 C719 C 1.14586 0.11971 -0.11952
 C720 C 1.11844 0.13881 -0.09955
 C721 C 1.09366 0.11722 -0.08379
 C722 C 1.09651 0.07681 -0.08678
 C723 C 1.12454 0.05777 -0.10554
 C724 C 1.14913 0.07929 -0.12284
 C725 C 1.14068 0.20081 -0.11290
 C726 C 1.11623 0.17915 -0.09597
 C727 C 1.20040 0.08337 -0.16270
 C728 C 1.17664 0.06145 -0.14396
 H729 H 1.13789 0.23192 -0.10992
 H730 H 1.09531 0.19413 -0.08025
 H731 H 1.22084 0.06847 -0.17952
 H732 H 1.17954 0.03033 -0.14674
 H733 H 1.24035 0.13127 -0.19878
 H734 H 1.18815 0.23582 -0.15196
 H735 H 1.07228 0.13174 -0.06856
 H736 H 1.12670 0.02656 -0.10761
 C737 C 1.16589 0.65993 0.38096
 C738 C 1.19676 0.64399 0.36808
 C739 C 1.21828 0.66780 0.34770
 C740 C 1.20857 0.70693 0.33867
 C741 C 1.17885 0.72300 0.35628
 C742 C 1.15704 0.69949 0.37609
 C743 C 1.14198 0.63458 0.39855
 C744 C 1.11063 0.65050 0.40935
 C745 C 1.08735 0.62618 0.42345
 C746 C 1.09521 0.58623 0.42750
 C747 C 1.12708 0.57067 0.41825
 C748 C 1.15054 0.59482 0.40301
 C749 C 1.12592 0.71456 0.38923
 C750 C 1.10300 0.69040 0.40533
 C751 C 1.20484 0.60428 0.37407
 C752 C 1.18215 0.58012 0.39136
 H753 H 1.11888 0.74509 0.38579
 H754 H 1.07895 0.70296 0.41408
 H755 H 1.22867 0.59163 0.36446
 H756 H 1.18919 0.54960 0.39479
 H757 H 1.24192 0.65543 0.33699
 H758 H 1.17190 0.75353 0.35339
 H759 H 1.06307 0.63841 0.43170
 H760 H 1.13324 0.53995 0.42182
 C761 C 0.65380 0.17554 0.38906
 C762 C 0.68651 0.16054 0.38751
 C763 C 0.70942 0.18125 0.36569
 C764 C 0.69956 0.21599 0.34397
 C765 C 0.66745 0.23271 0.35059
 C766 C 0.64419 0.21199 0.37174
 C767 C 0.62889 0.15170 0.40682
 C768 C 0.59579 0.16558 0.40585
 C769 C 0.57189 0.14106 0.41876
 C770 C 0.58132 0.10293 0.43135
 C771 C 0.61466 0.09047 0.43455
 C772 C 0.63851 0.11452 0.42203
 C773 C 0.61118 0.22596 0.37363
 C774 C 0.58734 0.20306 0.39026
 C775 C 0.69534 0.12406 0.40552
 C776 C 0.67168 0.10139 0.42257
 H777 H 0.60353 0.25423 0.36061
 H778 H 0.56203 0.21436 0.38970
 H779 H 0.72055 0.11236 0.40496
 H780 H 0.67927 0.07282 0.43483
 H781 H 0.73450 0.16932 0.36384
 H782 H 0.65998 0.26090 0.33729
 H783 H 0.54624 0.15084 0.41705
 H784 H 0.62204 0.06148 0.44578
 C785 C 0.66722 0.65445 -0.10461
 C786 C 0.69958 0.63962 -0.11056
 C787 C 0.72230 0.66386 -0.12720
 C788 C 0.71210 0.70198 -0.14085
 C789 C 0.68116 0.71783 -0.12653
 C790 C 0.65810 0.69379 -0.11078
 C791 C 0.64207 0.62794 -0.09448
 C792 C 0.60937 0.64254 -0.09193
 C793 C 0.58528 0.61702 -0.08535
 C794 C 0.59365 0.57722 -0.08032
 C795 C 0.62665 0.56306 -0.08163
 C796 C 0.65101 0.58835 -0.08937
 C797 C 0.62538 0.70765 -0.10518
 C798 C 0.60134 0.68236 -0.09620
 C799 C 0.70793 0.60016 -0.10319
 C800 C 0.68404 0.57495 -0.09261
 H801 H 0.61807 0.73800 -0.10975
 H802 H 0.57619 0.69395 -0.09354
 H803 H 0.73293 0.58839 -0.10724
 H804 H 0.69135 0.54457 -0.08826
 H805 H 0.74705 0.65179 -0.13209
 H806 H 0.67353 0.74776 -0.13368
 H807 H 0.56003 0.62837 -0.08279
 H808 H 0.63326 0.53255 -0.07683
 C809 C 0.82364 -0.14124 -0.14671
 C810 C 0.83034 -0.16126 -0.18591
 C811 C 0.80747 -0.18564 -0.20255
 C812 C 0.77855 -0.19151 -0.17916
 C813 C 0.77201 -0.16980 -0.14053
 C814 C 0.79431 -0.14475 -0.12432
 C815 C 0.84830 -0.11718 -0.12789
 C816 C 0.84164 -0.09737 -0.08851
 C817 C 0.86563 -0.07570 -0.06988
 C818 C 0.89652 -0.07470 -0.08969
 C819 C 0.90248 -0.09436 -0.12964
 C820 C 0.87843 -0.11542 -0.14896
 C821 C 0.78825 -0.12393 -0.08540
 C822 C 0.81139 -0.10050 -0.06799
 C823 C 0.86046 -0.15774 -0.20673
 C824 C 0.88411 -0.13542 -0.18848
 H825 H 0.76558 -0.12615 -0.06790
 H826 H 0.80578 -0.08525 -0.03778
 H827 H 0.86610 -0.17302 -0.23694
 H828 H 0.90720 -0.13417 -0.20526
 H829 H 0.81373 -0.20217 -0.23170
 H830 H 0.74950 -0.17236 -0.12274
 H831 H 0.86068 -0.06081 -0.03927
 H832 H 0.92598 -0.09359 -0.14553
 C833 C 0.82899 0.36000 0.35537
 C834 C 0.79761 0.36011 0.37331
 C835 C 0.77579 0.33496 0.35627
 C836 C 0.78531 0.30960 0.32181
 C837 C 0.81655 0.31074 0.30347
 C838 C 0.83857 0.33569 0.32028
 C839 C 0.85262 0.38492 0.37455
 C840 C 0.88432 0.38371 0.35750
 C841 C 0.90720 0.40581 0.37717
 C842 C 0.89881 0.42889 0.41397
 C843 C 0.86654 0.43086 0.42976
 C844 C 0.84339 0.40858 0.41035
 C845 C 0.87031 0.33604 0.30348
 C846 C 0.89281 0.35965 0.32179
 C847 C 0.78897 0.38476 0.40850
 C848 C 0.81145 0.40863 0.42666
 H849 H 0.87797 0.31749 0.27638
 H850 H 0.91722 0.35862 0.30831
 H851 H 0.76475 0.38523 0.42252
 H852 H 0.80390 0.42686 0.45406
 H853 H 0.75155 0.33487 0.37011
 H854 H 0.82425 0.29119 0.27739
 H855 H 0.93181 0.40430 0.36427
 H856 H 0.85975 0.44864 0.45782
 C857 C 0.36561 -0.18648 0.35052
 C858 C 0.35250 -0.21594 0.37450
 C859 C 0.32436 -0.23190 0.35887
 C860 C 0.30842 -0.21762 0.32028
 C861 C 0.32231 -0.18807 0.29671
 C862 C 0.35096 -0.17275 0.31138
 C863 C 0.39441 -0.16848 0.36767
 C864 C 0.40688 -0.13836 0.34405
 C865 C 0.43213 -0.11890 0.36220
 C866 C 0.44399 -0.12788 0.40469
 C867 C 0.43274 -0.15981 0.42690
 C868 C 0.40773 -0.18018 0.40845
 C869 C 0.36484 -0.14325 0.28813
 C870 C 0.39243 -0.12651 0.30405
 C871 C 0.36743 -0.22826 0.41413
 C872 C 0.39438 -0.21052 0.43093
 H873 H 0.35397 -0.13256 0.25771
 H874 H 0.40190 -0.10324 0.28556
 H875 H 0.35766 -0.25114 0.43294
 H876 H 0.40447 -0.22018 0.46215
 H877 H 0.31503 -0.25531 0.37713
 H878 H 0.31060 -0.17596 0.26758
 H879 H 0.44075 -0.09453 0.34466
 H880 H 0.44147 -0.16678 0.45963
 C881 C 0.33042 0.34725 -0.14748
 C882 C 0.33503 0.33764 -0.19166
 C883 C 0.31596 0.31060 -0.21076
 C884 C 0.29222 0.29265 -0.18617
 C885 C 0.28816 0.30288 -0.14151
 C886 C 0.30709 0.33012 -0.12216
 C887 C 0.35111 0.37496 -0.12704
 C888 C 0.34710 0.38401 -0.08248
 C889 C 0.36823 0.40867 -0.06266
 C890 C 0.39355 0.42323 -0.08703
 C891 C 0.39649 0.41482 -0.13191
 C892 C 0.37541 0.39069 -0.15208
 C893 C 0.30330 0.34042 -0.07787
 C894 C 0.32296 0.36689 -0.05837
 C895 C 0.35910 0.35476 -0.21588
 C896 C 0.37899 0.38080 -0.19640
 H897 H 0.28525 0.32755 -0.05794
 H898 H 0.31962 0.37348 -0.02399
 H899 H 0.36289 0.34758 -0.25006
 H900 H 0.39765 0.39284 -0.21602
 H901 H 0.32110 0.30268 -0.24432
 H902 H 0.26968 0.29076 -0.12174
 H903 H 0.36634 0.41452 -0.02800
 H904 H 0.41604 0.42599 -0.15073
 C905 C 1.17213 -0.13438 0.17882
 C906 C 1.16742 -0.13398 0.22429
 C907 C 1.18844 -0.15741 0.25088
 C908 C 1.21335 -0.18235 0.23243
 C909 C 1.21897 -0.18098 0.18697
 C910 C 1.19819 -0.15704 0.15988
 C911 C 1.14816 -0.11240 0.15043
 C912 C 1.15209 -0.11357 0.10477
 C913 C 1.12815 -0.09419 0.07790
 C914 C 1.10005 -0.07519 0.09672
 C915 C 1.09686 -0.07389 0.14249
 C916 C 1.12091 -0.09214 0.16950
 C917 C 1.20177 -0.15675 0.11411
 C918 C 1.17926 -0.13524 0.08707
 C919 C 1.14065 -0.11189 0.24217
 C920 C 1.11769 -0.09146 0.21522
 H921 H 1.22178 -0.17393 0.09896
 H922 H 1.18269 -0.13641 0.05195
 H923 H 1.13685 -0.11134 0.27724
 H924 H 1.09689 -0.07565 0.23027
 H925 H 1.18417 -0.15812 0.28587
 H926 H 1.23788 -0.20033 0.17248
 H927 H 1.13056 -0.09535 0.04261
 H928 H 1.07539 -0.05896 0.15700
 C929 C 1.17079 0.35322 0.67318
 C930 C 1.19857 0.33585 0.65219
 C931 C 1.21932 0.30882 0.67536
 C932 C 1.21178 0.29899 0.71868
 C933 C 1.18474 0.31808 0.73966
 C934 C 1.16400 0.34487 0.71703
 C935 C 1.14747 0.37914 0.64828
 C936 C 1.11888 0.39456 0.66889
 C937 C 1.09551 0.41651 0.64441
 C938 C 1.10044 0.42320 0.59964
 C939 C 1.12985 0.40921 0.57967
 C940 C 1.15336 0.38650 0.60386
 C941 C 1.13584 0.36218 0.73696
 C942 C 1.11358 0.38658 0.71322
 C943 C 1.20417 0.34476 0.60805
 C944 C 1.18198 0.36971 0.58433
 H945 H 1.13052 0.35599 0.77085
 H946 H 1.09167 0.39859 0.72943
 H947 H 1.22551 0.33172 0.59145
 H948 H 1.18690 0.37516 0.55014
 H949 H 1.24017 0.29408 0.65922
 H950 H 1.17926 0.31103 0.77331
 H951 H 1.07301 0.42764 0.65992
 H952 H 1.13359 0.41428 0.54512
 C953 C 0.65872 -0.19294 0.65874
 C954 C 0.68897 -0.17774 0.66611
 C955 C 0.71111 -0.19591 0.69633
 C956 C 0.70289 -0.22878 0.71986
 C957 C 0.67337 -0.24516 0.70869
 C958 C 0.65098 -0.22691 0.67933
 C959 C 0.63404 -0.17188 0.63060
 C960 C 0.60296 -0.18577 0.62542
 C961 C 0.57848 -0.16344 0.60212
 C962 C 0.58526 -0.12749 0.58475
 C963 C 0.61722 -0.11553 0.58794
 C964 C 0.64146 -0.13713 0.61135
 C965 C 0.62037 -0.24115 0.67167
 C966 C 0.59671 -0.22082 0.64543
 C967 C 0.69576 -0.14351 0.64473
 C968 C 0.67246 -0.12363 0.61769
 H969 H 0.61422 -0.26761 0.68730
 H970 H 0.57309 -0.23218 0.64162
 H971 H 0.71897 -0.13145 0.64978
 H972 H 0.67840 -0.09680 0.60271
 H973 H 0.73331 -0.18245 0.70359
 H974 H 0.66721 -0.27208 0.72305
 H975 H 0.55403 -0.17282 0.59972
 H976 H 0.62281 -0.08820 0.57382
 C977 C 0.67301 0.33713 0.14788
 C978 C 0.69722 0.35495 0.17112
 C979 C 0.71697 0.33294 0.20092
 C980 C 0.71188 0.29392 0.20769
 C981 C 0.68947 0.27589 0.18158
 C982 C 0.66949 0.29748 0.15221
 C983 C 0.64917 0.36089 0.12146
 C984 C 0.62324 0.34342 0.10171
 C985 C 0.59867 0.36652 0.08072
 C986 C 0.60009 0.40665 0.07905
 C987 C 0.62697 0.42377 0.09678
 C988 C 0.65141 0.40095 0.11895
 C989 C 0.64446 0.28072 0.12970
 C990 C 0.62158 0.30339 0.10496
 C991 C 0.69955 0.39483 0.16633
 C992 C 0.67711 0.41743 0.14047
 H993 H 0.64171 0.25011 0.13274
 H994 H 0.60185 0.28966 0.08939
 H995 H 0.71822 0.40888 0.18381
 H996 H 0.67921 0.44825 0.13859
 H997 H 0.73422 0.34671 0.22132
 H998 H 0.68587 0.24565 0.18674
 H999 H 0.57804 0.35348 0.06645
 H1000 H 0.62785 0.45480 0.09540
 C1001 C 0.82868 0.15885 0.16749
 C1002 C 0.80021 0.14334 0.18223
 C1003 C 0.78007 0.16434 0.21227
 C1004 C 0.78847 0.20045 0.22808
 C1005 C 0.81703 0.21555 0.21246
 C1006 C 0.83719 0.19494 0.18225
 C1007 C 0.85039 0.13655 0.13674
 C1008 C 0.87919 0.15186 0.12296
 C1009 C 0.90071 0.12978 0.09598
 C1010 C 0.89409 0.09226 0.08323
 C1011 C 0.86441 0.07780 0.09567
 C1012 C 0.84250 0.09988 0.12286
 C1013 C 0.86593 0.20955 0.16688
 C1014 C 0.88657 0.18838 0.13770
 C1015 C 0.79263 0.10701 0.16687
 C1016 C 0.81344 0.08562 0.13781
 H1017 H 0.87273 0.23740 0.17788
 H1018 H 0.90878 0.20044 0.12715
 H1019 H 0.77064 0.09475 0.17787
 H1020 H 0.80693 0.05748 0.12744
 H1021 H 0.75772 0.15267 0.22279
 H1022 H 0.82398 0.24299 0.22425
 H1023 H 0.92335 0.14132 0.08618
 H1024 H 0.85926 0.04889 0.08624
 C1025 C 0.83398 0.65631 0.68434
 C1026 C 0.83287 0.64637 0.72871
 C1027 C 0.81369 0.66979 0.75713
 C1028 C 0.79474 0.70279 0.74182
 C1029 C 0.79750 0.71347 0.69733
 C1030 C 0.81685 0.68997 0.66836
 C1031 C 0.85359 0.63092 0.65414
 C1032 C 0.85521 0.64085 0.60963
 C1033 C 0.87519 0.61732 0.58151
 C1034 C 0.89334 0.58452 0.59818
 C1035 C 0.89076 0.57454 0.64245
 C1036 C 0.87101 0.59764 0.67065
 C1037 C 0.81883 0.69882 0.62354
 C1038 C 0.83772 0.67475 0.59472
 C1039 C 0.85053 0.61278 0.74392
 C1040 C 0.86930 0.58880 0.71535
 H1041 H 0.80569 0.72459 0.61060
 H1042 H 0.83877 0.68286 0.56054
 H1043 H 0.84978 0.60490 0.77821
 H1044 H 0.88274 0.56326 0.72840
 H1045 H 0.81351 0.66197 0.79148
 H1046 H 0.78315 0.73833 0.68432
 H1047 H 0.87798 0.62546 0.54754
 H1048 H 0.90540 0.54971 0.65526
 C1049 C 0.34802 0.17592 0.64328
 C1050 C 0.31541 0.16710 0.63882
 C1051 C 0.29199 0.18318 0.66804
 C1052 C 0.30095 0.20793 0.70140
 C1053 C 0.33333 0.21808 0.70430
 C1054 C 0.35720 0.20159 0.67560
 C1055 C 0.37330 0.15584 0.61556
 C1056 C 0.40632 0.16217 0.62223
 C1057 C 0.43054 0.13958 0.59919
 C1058 C 0.42150 0.11066 0.57060
 C1059 C 0.38834 0.10639 0.56247
 C1060 C 0.36413 0.12856 0.58513
 C1061 C 0.39026 0.20866 0.67986
 C1062 C 0.41440 0.18921 0.65373
 C1063 C 0.30710 0.14099 0.60654
 C1064 C 0.33107 0.12208 0.58005
 H1065 H 0.39766 0.22850 0.70453
 H1066 H 0.43969 0.19456 0.65913
 H1067 H 0.28199 0.13424 0.60260
 H1068 H 0.32379 0.10120 0.55646
 H1069 H 0.26698 0.17555 0.66583
 H1070 H 0.34023 0.23683 0.73038
 H1071 H 0.45613 0.14242 0.60587
 H1072 H 0.38152 0.08390 0.54055
 C1073 C 0.32652 0.66411 0.15428
 C1074 C 0.29437 0.65388 0.15862
 C1075 C 0.27271 0.67628 0.18540
 C1076 C 0.28332 0.70810 0.20845
 C1077 C 0.31523 0.71882 0.20215
 C1078 C 0.33697 0.69685 0.17530
 C1079 C 0.35013 0.63908 0.12903
 C1080 C 0.38253 0.64865 0.12635
 C1081 C 0.40531 0.62384 0.10461
 C1082 C 0.39626 0.58922 0.08592
 C1083 C 0.36342 0.58049 0.08758
 C1084 C 0.34022 0.60534 0.10950
 C1085 C 0.36941 0.70600 0.17068
 C1086 C 0.39182 0.68232 0.14651
 C1087 C 0.28498 0.62061 0.13755
 C1088 C 0.30752 0.59674 0.11342
 H1089 H 0.37771 0.73124 0.18662
 H1090 H 0.41681 0.68998 0.14437
 H1091 H 0.26019 0.61248 0.14054
 H1092 H 0.29944 0.57097 0.09842
 H1093 H 0.24799 0.66815 0.18950
 H1094 H 0.32387 0.74277 0.22019
 H1095 H 0.43036 0.63138 0.10288
 H1096 H 0.35620 0.55407 0.07309
   
