data_POSCAR
  _audit_creation_date              2014-09-24
  _audit_creation_method            'ToBaCCo'
  _symmetry_space_group_name_H-M    'P1'
  _symmetry_Int_Tables_number       1
  _symmetry_cell_setting            triclinic
  loop_
  _symmetry_equiv_pos_as_xyz
 x,y,z
_cell_length_a 26.8490
_cell_length_b 26.8863
_cell_length_c 49.0180
_cell_angle_alpha 90.000900
_cell_angle_beta 92.588600
_cell_angle_gamma 89.984700
loop_
  _atom_site_label
  _atom_site_type_symbol
  _atom_site_fract_x
  _atom_site_fract_y
  _atom_site_fract_z
C1 C -0.00074 0.63285 0.99998
 C2 C 0.00274 0.60696 1.02467
 C3 C 0.00419 0.55486 1.02470
 C4 C -0.00078 0.52763 0.99998
 C5 C -0.00573 0.55487 0.97526
 C6 C -0.00425 0.60697 0.97530
 C7 C -0.00079 0.47155 0.99998
 C8 C 0.00916 0.44429 0.97608
 C9 C 0.00774 0.39224 0.97599
 C10 C -0.00079 0.36641 0.99998
 C11 C -0.00933 0.39224 1.02397
 C12 C -0.01075 0.44430 1.02388
 H13 H -0.00072 0.67326 0.99998
 H14 H 0.00947 0.53629 1.04416
 H15 H -0.01102 0.53631 0.95580
 H16 H 0.01835 0.46268 0.95738
 H17 H -0.00079 0.32604 0.99998
 H18 H -0.01993 0.46269 1.04258
 C19 C 0.36847 0.00929 0.50145
 C20 C 0.39720 0.01535 0.52562
 C21 C 0.44926 0.01706 0.52504
 C22 C 0.47367 0.00980 0.50031
 C23 C 0.44354 0.00231 0.47617
 C24 C 0.39146 0.00347 0.47672
 C25 C 0.52979 0.00979 0.49972
 C26 C 0.55417 0.01697 0.47498
 C27 C 0.60627 0.01521 0.47437
 C28 C 0.63502 0.00923 0.49857
 C29 C 0.61202 0.00351 0.52334
 C30 C 0.55990 0.00236 0.52387
 H31 H 0.32810 0.00895 0.50190
 H32 H 0.46989 0.02422 0.54405
 H33 H 0.45968 -0.00484 0.45677
 H34 H 0.53339 0.02411 0.45600
 H35 H 0.67544 0.00887 0.49812
 H36 H 0.54360 -0.00475 0.54324
 C37 C 0.07989 0.00061 0.26416
 H38 H 0.08420 -0.00013 0.24233
 C39 C 0.12204 0.00164 0.28202
 H40 H 0.15896 0.00159 0.27398
 C41 C 0.02667 0.00165 0.30148
 H42 H -0.01038 0.00236 0.30910
 C43 C 0.06767 0.00279 0.31997
 H44 H 0.06190 0.00378 0.34170
 N45 N 0.03336 -0.00049 0.27414
 C46 C -0.06204 -0.07412 0.21186
 H47 H -0.09334 -0.04873 0.21094
 C48 C -0.06155 -0.11497 0.19429
 H49 H -0.09252 -0.12108 0.17974
 C50 C 0.01750 -0.09617 0.23117
 H51 H 0.04828 -0.08880 0.24551
 C52 C 0.01949 -0.13747 0.21395
 H53 H 0.05203 -0.16135 0.21487
 Zn54 Zn -0.02299 -0.00438 0.24938
 N55 N -0.02217 -0.06459 0.22921
 C56 C -0.01961 0.04247 0.19780
 N57 N -0.02085 0.05064 0.22517
 C58 C -0.01962 0.09766 0.23554
 C59 C -0.01913 0.13876 0.21803
 C60 C -0.01905 0.08237 0.17966
 C61 C -0.09039 -0.04273 0.28569
 C62 C -0.13022 -0.04214 0.30302
 C63 C -0.15453 0.03811 0.28464
 C64 C -0.11421 0.03602 0.26761
 N65 N -0.08220 -0.00330 0.26907
 H66 H -0.01894 0.00506 0.18988
 H67 H -0.01957 0.10317 0.25740
 H68 H -0.01882 0.17608 0.22637
 H69 H -0.01856 0.07541 0.15790
 H70 H -0.06465 -0.07372 0.28624
 H71 H -0.13520 -0.07275 0.31701
 H72 H -0.17870 0.07039 0.28416
 H73 H -0.10785 0.06648 0.25386
 C74 C -0.01997 -0.14634 0.19498
 C75 C 0.11574 0.00225 0.31019
 C76 C -0.16197 -0.00091 0.30287
 C77 C -0.01924 0.13091 0.18982
 C78 C 0.01898 0.09762 0.76445
 H79 H 0.01915 0.10312 0.74259
 C80 C 0.01833 0.13873 0.78195
 H81 H 0.01813 0.17604 0.77361
 C82 C 0.01861 0.04244 0.80218
 H83 H 0.01787 0.00503 0.81010
 C84 C 0.01789 0.08235 0.82031
 H85 H 0.01720 0.07539 0.84207
 N86 N 0.02012 0.05060 0.77483
 C87 C 0.09036 -0.04274 0.71454
 H88 H 0.06465 -0.07374 0.71388
 C89 C 0.13040 -0.04214 0.69733
 H90 H 0.13555 -0.07274 0.68336
 C91 C 0.11396 0.03599 0.73271
 H92 H 0.10744 0.06643 0.74645
 C93 C 0.15448 0.03809 0.71582
 H94 H 0.17864 0.07037 0.71639
 Zn95 Zn 0.02254 -0.00442 0.75063
 N96 N 0.08198 -0.00333 0.73113
 C97 C -0.02660 0.00162 0.69840
 N98 N -0.03357 -0.00055 0.72571
 C99 C -0.08022 0.00053 0.73553
 C100 C -0.12219 0.00157 0.71755
 C101 C -0.06740 0.00276 0.67978
 C102 C 0.06131 -0.07413 0.78825
 C103 C 0.06070 -0.11497 0.80583
 C104 C -0.02017 -0.13751 0.78596
 C105 C -0.01806 -0.09622 0.76874
 N106 N 0.02157 -0.06463 0.77080
 H107 H 0.01055 0.00234 0.69090
 H108 H -0.08476 -0.00023 0.75735
 H109 H -0.15921 0.00150 0.72546
 H110 H -0.06141 0.00378 0.65808
 H111 H 0.09258 -0.04873 0.78926
 H112 H 0.09156 -0.12107 0.82046
 H113 H -0.05269 -0.16140 0.78495
 H114 H -0.04873 -0.08886 0.75432
 C115 C 0.16214 -0.00091 0.69761
 C116 C 0.01819 0.13088 0.81016
 C117 C 0.01915 -0.14636 0.80503
 C118 C -0.11559 0.00221 0.68940
 C119 C -0.00167 -0.30942 0.09274
 C120 C 0.04669 -0.30531 0.11053
 C121 C 0.04304 -0.27397 0.13224
 C122 C -0.00861 -0.24988 0.13398
 C123 C -0.04538 -0.29358 0.13416
 C124 C -0.04173 -0.32491 0.11246
 C125 C -0.01488 -0.25576 0.08459
 C126 C -0.01852 -0.22452 0.10623
 C127 C 0.00170 -0.34216 0.06896
 C128 C 0.00302 -0.36704 0.04854
 C129 C -0.01271 -0.21523 0.15689
 C130 C -0.01614 -0.18482 0.17478
 H131 H 0.08070 -0.32530 0.10649
 H132 H 0.07394 -0.26711 0.14680
 H133 H -0.07183 -0.29946 0.14996
 H134 H -0.06505 -0.35766 0.10966
 H135 H -0.02085 -0.24334 0.06362
 H136 H -0.02762 -0.18537 0.10378
 C137 C -0.01860 0.30410 0.09186
 C138 C -0.01199 0.24987 0.08300
 C139 C -0.01245 0.21682 0.10397
 C140 C -0.01948 0.24108 0.13186
 C141 C -0.06776 0.27150 0.12818
 C142 C -0.06730 0.30469 0.10712
 C143 C 0.02282 0.31300 0.11396
 C144 C 0.02236 0.27984 0.13500
 C145 C -0.01743 0.33862 0.06873
 C146 C -0.01478 0.36447 0.04876
 C147 C -0.01967 0.20433 0.15396
 C148 C -0.01949 0.17193 0.17097
 H149 H -0.00738 0.23838 0.06202
 H150 H -0.00823 0.17706 0.10095
 H151 H -0.09942 0.26744 0.14102
 H152 H -0.09854 0.32905 0.10190
 H153 H 0.04999 0.34281 0.11319
 H154 H 0.04913 0.28123 0.15226
 C155 C 0.31855 0.01502 0.59548
 C156 C 0.33632 -0.02337 0.61699
 C157 C 0.30657 -0.02622 0.63877
 C158 C 0.26200 0.00959 0.63687
 C159 C 0.23485 -0.00242 0.60945
 C160 C 0.26450 0.00042 0.58775
 C161 C 0.31467 0.06418 0.61117
 C162 C 0.28490 0.06133 0.63296
 C163 C 0.34946 0.01737 0.57160
 C164 C 0.37252 0.01754 0.55106
 C165 C 0.22893 0.00620 0.65981
 C166 C 0.19958 0.00301 0.67763
 H167 H 0.36942 -0.04616 0.61531
 H168 H 0.31416 -0.05145 0.65574
 H169 H 0.19566 -0.01232 0.60727
 H170 H 0.25069 -0.00703 0.56699
 H171 H 0.33369 0.09813 0.60572
 H172 H 0.27841 0.09286 0.64618
 C173 C -0.29514 -0.00078 0.59020
 C174 C -0.24138 0.00456 0.58125
 C175 C -0.20682 0.00513 0.60240
 C176 C -0.22925 0.00031 0.63051
 C177 C -0.26037 -0.04762 0.62888
 C178 C -0.29506 -0.04820 0.60765
 C179 C -0.30219 0.04204 0.61040
 C180 C -0.26752 0.04262 0.63161
 C181 C -0.33142 -0.00088 0.56691
 C182 C -0.35905 0.00040 0.54684
 C183 C -0.19099 0.00109 0.65283
 C184 C -0.15758 0.00174 0.67011
 H185 H -0.23130 0.00760 0.56011
 H186 H -0.16717 0.00868 0.59936
 H187 H -0.25567 -0.07831 0.64315
 H188 H -0.32007 -0.07936 0.60374
 H189 H -0.33187 0.06939 0.60828
 H190 H -0.26748 0.07045 0.64766
 C191 C 0.00036 -0.30942 0.90724
 C192 C -0.04806 -0.30496 0.88952
 C193 C -0.04433 -0.27362 0.86781
 C194 C 0.00746 -0.24988 0.86600
 C195 C 0.04394 -0.29384 0.86574
 C196 C 0.04021 -0.32517 0.88744
 C197 C 0.01395 -0.25585 0.91538
 C198 C 0.01767 -0.22462 0.89375
 C199 C -0.00310 -0.34215 0.93101
 C200 C -0.00447 -0.36703 0.95143
 C201 C 0.01166 -0.21524 0.84310
 C202 C 0.01519 -0.18483 0.82522
 H203 H -0.08218 -0.32472 0.89361
 H204 H -0.07526 -0.26654 0.85330
 H205 H 0.07027 -0.29989 0.84990
 H206 H 0.06333 -0.35807 0.89019
 H207 H 0.02010 -0.24349 0.93636
 H208 H 0.02703 -0.18554 0.89620
 C209 C 0.01716 0.30408 0.90811
 C210 C 0.06590 0.30466 0.89289
 C211 C 0.06643 0.27147 0.87183
 C212 C 0.01816 0.24106 0.86811
 C213 C -0.02368 0.27983 0.86493
 C214 C -0.02421 0.31299 0.88597
 C215 C 0.01054 0.24985 0.91696
 C216 C 0.01106 0.21680 0.89599
 C217 C 0.01592 0.33860 0.93124
 C218 C 0.01322 0.36446 0.95120
 C219 C 0.01843 0.20431 0.84601
 C220 C 0.01834 0.17191 0.82900
 H221 H 0.09712 0.32901 0.89813
 H222 H 0.09812 0.26740 0.85902
 H223 H -0.05041 0.28123 0.84765
 H224 H -0.05140 0.34281 0.88672
 H225 H 0.00588 0.23836 0.93793
 H226 H 0.00684 0.17704 0.89901
 C227 C -0.31708 0.01480 0.40561
 C228 C -0.26303 -0.00012 0.41311
 C229 C -0.23366 -0.00290 0.39128
 C230 C -0.26107 0.00949 0.36399
 C231 C -0.28369 0.06130 0.36813
 C232 C -0.31317 0.06409 0.39004
 C233 C -0.33528 -0.02330 0.38405
 C234 C -0.30580 -0.02609 0.36215
 C235 C -0.34768 0.01709 0.42962
 C236 C -0.37046 0.01718 0.45026
 C237 C -0.22830 0.00615 0.34092
 C238 C -0.19917 0.00299 0.32299
 H239 H -0.24900 -0.00782 0.43380
 H240 H -0.19450 -0.01300 0.39329
 H241 H -0.27723 0.09291 0.35498
 H242 H -0.33197 0.09808 0.39566
 H243 H -0.36845 -0.04596 0.38578
 H244 H -0.31371 -0.05114 0.34513
 C245 C 0.29639 -0.00095 0.40880
 C246 C 0.29657 -0.04804 0.39108
 C247 C 0.26164 -0.04741 0.36998
 C248 C 0.23004 0.00025 0.36871
 C249 C 0.26785 0.04295 0.36771
 C250 C 0.30277 0.04232 0.38880
 C251 C 0.24270 0.00369 0.41796
 C252 C 0.20790 0.00432 0.39694
 C253 C 0.33294 -0.00111 0.43196
 C254 C 0.36083 0.00011 0.45192
 C255 C 0.19152 0.00107 0.34652
 C256 C 0.15793 0.00176 0.32936
 H257 H 0.32193 -0.07903 0.39474
 H258 H 0.25707 -0.07787 0.35555
 H259 H 0.26735 0.07107 0.35181
 H260 H 0.33219 0.06992 0.39097
 H261 H 0.23285 0.00624 0.43916
 H262 H 0.16826 0.00741 0.40014
   
