data_POSCAR
  _audit_creation_date              2014-09-24
  _audit_creation_method            'ToBaCCo'
  _symmetry_space_group_name_H-M    'P1'
  _symmetry_Int_Tables_number       1
  _symmetry_cell_setting            triclinic
  loop_
  _symmetry_equiv_pos_as_xyz
 x,y,z
_cell_length_a 58.0116
_cell_length_b 53.2399
_cell_length_c 56.6015
_cell_angle_alpha 89.845100
_cell_angle_beta 88.987800
_cell_angle_gamma 89.474500
loop_
  _atom_site_label
  _atom_site_type_symbol
  _atom_site_fract_x
  _atom_site_fract_y
  _atom_site_fract_z
N1 N 0.15601 0.23032 0.22493
 N2 N 0.15928 0.21088 0.23884
 C3 C 0.14107 0.20895 0.25387
 C4 C 0.12558 0.22810 0.24885
 C5 C 0.13568 0.24129 0.23042
 H6 H 0.13907 0.19463 0.26732
 H7 H 0.12888 0.25779 0.22172
 Cu8 Cu 0.18691 0.19002 0.23539
 Cu9 Cu 0.17798 0.23998 0.20054
 Cu10 Cu 0.22635 0.20221 0.19219
 N11 N 0.21404 0.16880 0.23037
 N12 N 0.22948 0.17359 0.21370
 C13 C 0.24636 0.15603 0.21452
 C14 C 0.24112 0.13928 0.23255
 C15 C 0.22049 0.14802 0.24221
 H16 H 0.26128 0.15538 0.20280
 H17 H 0.21094 0.13997 0.25689
 N18 N 0.21985 0.23223 0.17254
 N19 N 0.20182 0.24699 0.17661
 C20 C 0.20179 0.26576 0.16073
 C21 C 0.22054 0.26272 0.14568
 C22 C 0.23162 0.24118 0.15355
 H23 H 0.18843 0.27995 0.15944
 H24 H 0.24688 0.23253 0.14577
 H25 H 0.19102 0.20385 0.19447
 H26 H 0.20738 0.22392 0.21526
 N27 N 0.67240 0.72742 0.73623
 N28 N 0.67941 0.70933 0.75028
 C29 C 0.66530 0.70821 0.76937
 C30 C 0.64847 0.72661 0.76712
 C31 C 0.65350 0.73841 0.74586
 H32 H 0.66669 0.69438 0.78330
 H33 H 0.64379 0.75349 0.73777
 Cu34 Cu 0.70528 0.68780 0.74165
 Cu35 Cu 0.68789 0.73467 0.70618
 Cu36 Cu 0.72985 0.69201 0.68755
 N37 N 0.72491 0.66127 0.72906
 N38 N 0.73511 0.66323 0.70822
 C39 C 0.74830 0.64264 0.70437
 C40 C 0.74594 0.62687 0.72371
 C41 C 0.73097 0.63930 0.73905
 H42 H 0.75871 0.63928 0.68864
 H43 H 0.72525 0.63311 0.75637
 N44 N 0.72172 0.72238 0.66936
 N45 N 0.70570 0.73858 0.67645
 C46 C 0.70407 0.75714 0.66035
 C47 C 0.71981 0.75238 0.64222
 C48 C 0.73067 0.73020 0.64852
 H49 H 0.69227 0.77290 0.66175
 H50 H 0.74412 0.72052 0.63858
 H51 H 0.69676 0.69731 0.70080
 H52 H 0.71962 0.71812 0.71269
 N53 N 0.34479 0.76486 0.73489
 N54 N 0.33986 0.78592 0.74600
 C55 C 0.35361 0.78827 0.76467
 C56 C 0.36827 0.76774 0.76528
 C57 C 0.36233 0.75325 0.74601
 H58 H 0.35363 0.80436 0.77628
 H59 H 0.37038 0.73581 0.74036
 Cu60 Cu 0.31765 0.80980 0.73422
 Cu61 Cu 0.32786 0.75483 0.70680
 Cu62 Cu 0.28106 0.79287 0.69230
 N63 N 0.28973 0.82865 0.72868
 N64 N 0.27502 0.82186 0.71259
 C65 C 0.25747 0.83862 0.71231
 C66 C 0.26163 0.85699 0.72902
 C67 C 0.28226 0.84990 0.73913
 H68 H 0.24312 0.83794 0.70038
 H69 H 0.29139 0.85941 0.75291
 N70 N 0.29027 0.76285 0.67397
 N71 N 0.30808 0.74838 0.67929
 C72 C 0.31046 0.73036 0.66268
 C73 C 0.29340 0.73381 0.64611
 C74 C 0.28099 0.75454 0.65387
 H75 H 0.32402 0.71630 0.66229
 H76 H 0.26657 0.76327 0.64509
 H77 H 0.31656 0.78973 0.69565
 H78 H 0.29847 0.77334 0.71846
 N79 N 0.84439 0.26961 0.21763
 N80 N 0.83845 0.28684 0.23321
 C81 C 0.85473 0.28794 0.24982
 C82 C 0.87183 0.27047 0.24432
 C83 C 0.86461 0.25911 0.22375
 H84 H 0.85433 0.30073 0.26465
 H85 H 0.87338 0.24449 0.21380
 Cu86 Cu 0.81063 0.30721 0.23006
 Cu87 Cu 0.82571 0.26301 0.19030
 Cu88 Cu 0.77426 0.29205 0.18439
 N89 N 0.78175 0.32562 0.22389
 N90 N 0.76783 0.31990 0.20655
 C91 C 0.75028 0.33667 0.20631
 C92 C 0.75342 0.35385 0.22423
 C93 C 0.77351 0.34620 0.23505
 H94 H 0.73665 0.33699 0.19352
 H95 H 0.78186 0.35527 0.24959
 N96 N 0.78379 0.26380 0.16452
 N97 N 0.80354 0.25199 0.16741
 C98 C 0.80567 0.23352 0.15132
 C99 C 0.78632 0.23394 0.13742
 C100 C 0.77281 0.25344 0.14623
 H101 H 0.82060 0.22138 0.14928
 H102 H 0.75640 0.25982 0.13958
 H103 H 0.80656 0.30390 0.19393
 H104 H 0.79282 0.27921 0.21288
 N105 N 0.83223 0.71790 0.27080
 N106 N 0.82475 0.70173 0.25524
 C107 C 0.83990 0.70039 0.23698
 C108 C 0.85791 0.71650 0.24135
 C109 C 0.85247 0.72728 0.26299
 H110 H 0.83818 0.68819 0.22191
 H111 H 0.86267 0.74071 0.27247
 Cu112 Cu 0.79637 0.68321 0.26053
 Cu113 Cu 0.81553 0.72497 0.30037
 Cu114 Cu 0.76402 0.69365 0.30916
 N115 N 0.76720 0.66611 0.26581
 N116 N 0.75428 0.67121 0.28451
 C117 C 0.73546 0.65671 0.28448
 C118 C 0.73668 0.64146 0.26481
 C119 C 0.75709 0.64782 0.25334
 H120 H 0.72256 0.65623 0.29848
 H121 H 0.76427 0.63925 0.23752
 N122 N 0.77648 0.71691 0.33228
 N123 N 0.79590 0.72928 0.32905
 C124 C 0.79955 0.74349 0.34834
 C125 C 0.78173 0.73939 0.36447
 C126 C 0.76746 0.72256 0.35364
 H127 H 0.81423 0.75552 0.35074
 H128 H 0.75154 0.71508 0.36078
 H129 H 0.79947 0.69082 0.30280
 H130 H 0.78385 0.71666 0.28719
 N131 N 0.33097 0.22334 -0.23281
 N132 N 0.32401 0.20480 -0.24614
 C133 C 0.33968 0.20086 -0.26364
 C134 C 0.35753 0.21775 -0.26096
 C135 C 0.35137 0.23166 -0.24118
 H136 H 0.33833 0.18654 -0.27702
 H137 H 0.36102 0.24677 -0.23347
 Cu138 Cu 0.29555 0.18721 -0.23851
 Cu139 Cu 0.31318 0.23547 -0.20559
 Cu140 Cu 0.26222 0.20447 -0.19223
 N141 N 0.26698 0.16981 -0.23090
 N142 N 0.25393 0.17689 -0.21285
 C143 C 0.23575 0.16147 -0.21085
 C144 C 0.23753 0.14363 -0.22854
 C145 C 0.25756 0.14949 -0.24092
 H146 H 0.22271 0.16264 -0.19701
 H147 H 0.26493 0.13929 -0.25576
 N148 N 0.27354 0.23282 -0.17353
 N149 N 0.29274 0.24490 -0.17881
 C150 C 0.29592 0.26295 -0.16257
 C151 C 0.27795 0.26202 -0.14623
 C152 C 0.26415 0.24270 -0.15368
 H153 H 0.31060 0.27528 -0.16221
 H154 H 0.24857 0.23614 -0.14500
 H155 H 0.29746 0.20174 -0.19779
 H156 H 0.28141 0.22403 -0.21713
 N157 N 0.65578 0.26413 -0.22901
 N158 N 0.66043 0.28251 -0.24381
 C159 C 0.64289 0.28487 -0.25906
 C160 C 0.62631 0.26713 -0.25328
 C161 C 0.63520 0.25432 -0.23409
 H162 H 0.64199 0.29875 -0.27302
 H163 H 0.62741 0.23899 -0.22442
 Cu164 Cu 0.68855 0.30214 -0.24087
 Cu165 Cu 0.67636 0.25421 -0.20398
 Cu166 Cu 0.72514 0.28980 -0.19618
 N167 N 0.71565 0.32267 -0.23529
 N168 N 0.72983 0.31780 -0.21797
 C169 C 0.74666 0.33508 -0.21810
 C170 C 0.74279 0.35180 -0.23638
 C171 C 0.72293 0.34332 -0.24693
 H172 H 0.76054 0.33569 -0.20561
 H173 H 0.71431 0.35163 -0.26184
 N174 N 0.71736 0.26061 -0.17605
 N175 N 0.69899 0.24677 -0.17952
 C176 C 0.69813 0.22841 -0.16316
 C177 C 0.71678 0.23082 -0.14852
 C178 C 0.72859 0.25149 -0.15714
 H179 H 0.68450 0.21480 -0.16151
 H180 H 0.74406 0.25941 -0.14994
 H181 H 0.68984 0.28993 -0.19935
 H182 H 0.70676 0.26799 -0.21890
 N183 N 0.16281 0.77699 0.27278
 N184 N 0.16656 0.79828 0.26161
 C185 C 0.15187 0.80040 0.24355
 C186 C 0.13799 0.77941 0.24350
 C187 C 0.14538 0.76497 0.26234
 H188 H 0.15079 0.81649 0.23192
 H189 H 0.13831 0.74725 0.26822
 Cu190 Cu 0.18881 0.82230 0.27276
 Cu191 Cu 0.18051 0.76703 0.30036
 Cu192 Cu 0.22522 0.80625 0.31590
 N193 N 0.21575 0.84224 0.27943
 N194 N 0.23009 0.83594 0.29620
 C195 C 0.24683 0.85327 0.29721
 C196 C 0.24269 0.87148 0.28020
 C197 C 0.22280 0.86374 0.26920
 H198 H 0.26080 0.85287 0.30962
 H199 H 0.21395 0.87299 0.25492
 N200 N 0.21742 0.77537 0.33360
 N201 N 0.20049 0.76037 0.32764
 C202 C 0.19919 0.74133 0.34334
 C203 C 0.21606 0.74457 0.36005
 C204 C 0.22724 0.76634 0.35331
 H205 H 0.18657 0.72655 0.34295
 H206 H 0.24132 0.77507 0.36235
 H207 H 0.19012 0.80228 0.31158
 H208 H 0.20942 0.78656 0.28925
 N209 N 0.48063 0.42431 0.46248
 N210 N 0.46199 0.42983 0.47499
 C211 C 0.45903 0.41215 0.49187
 C212 C 0.47663 0.39457 0.48950
 C213 C 0.49004 0.40296 0.47074
 H214 H 0.44479 0.41159 0.50445
 H215 H 0.50539 0.39409 0.46343
 Cu216 Cu 0.44290 0.45869 0.46664
 Cu217 Cu 0.49086 0.44425 0.43565
 Cu218 Cu 0.45719 0.49563 0.42016
 N219 N 0.42412 0.48762 0.45795
 N220 N 0.42977 0.50212 0.43995
 C221 C 0.41364 0.52034 0.43777
 C222 C 0.39695 0.51695 0.45530
 C223 C 0.40418 0.49601 0.46770
 H224 H 0.41384 0.53464 0.42417
 H225 H 0.39536 0.48746 0.48262
 N226 N 0.48570 0.48571 0.40259
 N227 N 0.49862 0.46642 0.40901
 C228 C 0.51640 0.46385 0.39364
 C229 C 0.51468 0.48229 0.37655
 C230 C 0.49496 0.49583 0.38273
 H231 H 0.52917 0.44899 0.39431
 H232 H 0.48771 0.51154 0.37315
 H233 H 0.47553 0.47799 0.44611
 H234 H 0.45843 0.45759 0.42632
 N235 N -0.02375 -0.08992 0.96809
 N236 N -0.04104 -0.08464 0.98265
 C237 C -0.04212 -0.10256 0.99955
 C238 C -0.02470 -0.12001 0.99519
 C239 C -0.01340 -0.11131 0.97509
 H240 H -0.05467 -0.10302 1.01390
 H241 H 0.00142 -0.11971 0.96628
 Cu242 Cu -0.06039 -0.05488 0.97777
 Cu243 Cu -0.01547 -0.06883 0.94114
 Cu244 Cu -0.04856 -0.01536 0.93288
 N245 N -0.07926 -0.02487 0.97221
 N246 N -0.07373 -0.00920 0.95510
 C247 C -0.08919 0.00969 0.95456
 C248 C -0.10553 0.00575 0.97217
 C249 C -0.09878 -0.01646 0.98304
 H250 H -0.08913 0.02456 0.94153
 H251 H -0.10767 -0.02592 0.99742
 N252 N -0.02253 -0.02459 0.91201
 N253 N -0.00985 -0.04501 0.91493
 C254 C 0.00587 -0.04648 0.89712
 C255 C 0.00270 -0.02613 0.88223
 C256 C -0.01538 -0.01264 0.89229
 H257 H 0.01833 -0.06154 0.89475
 H258 H -0.02301 0.00447 0.88559
 H259 H -0.02832 -0.03623 0.95572
 H260 H -0.04803 -0.05421 0.93636
 N261 N 1.01801 0.57755 0.97158
 N262 N 1.03518 0.57253 0.98577
 C263 C 1.03636 0.59089 1.00207
 C264 C 1.01912 0.60837 0.99778
 C265 C 1.00781 0.59925 0.97828
 H266 H 1.04889 0.59165 1.01597
 H267 H 0.99318 0.60765 0.96961
 Cu268 Cu 1.05441 0.54258 0.98133
 Cu269 Cu 1.01008 0.55579 0.94529
 Cu270 Cu 1.04348 0.50216 0.93765
 N271 N 1.07327 0.51241 0.97636
 N272 N 1.06815 0.49635 0.95971
 C273 C 1.08367 0.47748 0.95947
 C274 C 1.09960 0.48190 0.97678
 C275 C 1.09254 0.50431 0.98716
 H276 H 1.08399 0.46235 0.94678
 H277 H 1.10113 0.51418 1.00112
 N278 N 1.01792 0.51100 0.91691
 N279 N 1.00494 0.53129 0.91974
 C280 C 0.98969 0.53245 0.90201
 C281 C 0.99360 0.51211 0.88724
 C282 C 1.01152 0.49892 0.89730
 H283 H 0.97730 0.54745 0.89943
 H284 H 1.01959 0.48196 0.89056
 H285 H 1.02271 0.52351 0.96029
 H286 H 1.04271 0.54113 0.94017
 N287 N 0.53341 0.08678 0.47862
 N288 N 0.55326 0.08505 0.48936
 C289 C 0.55315 0.10063 0.50800
 C290 C 0.53213 0.11306 0.50896
 C291 C 0.52002 0.10389 0.48998
 H292 H 0.56762 0.10332 0.51946
 H293 H 0.50290 0.10949 0.48470
 Cu294 Cu 0.57804 0.06401 0.47727
 Cu295 Cu 0.52699 0.06673 0.45060
 Cu296 Cu 0.56845 0.02195 0.43467
 N297 N 0.59917 0.03642 0.47131
 N298 N 0.59557 0.01977 0.45473
 C299 C 0.61294 0.00274 0.45477
 C300 C 0.62815 0.00918 0.47235
 C301 C 0.61876 0.03065 0.48248
 H302 H 0.61439 -0.01317 0.44298
 H303 H 0.62543 0.04125 0.49706
 N304 N 0.53977 0.02749 0.41685
 N305 N 0.52401 0.04446 0.42294
 C306 C 0.50691 0.04404 0.40715
 C307 C 0.51214 0.02606 0.39026
 C308 C 0.53311 0.01591 0.39699
 H309 H 0.49187 0.05618 0.40762
 H310 H 0.54292 0.00136 0.38800
 H311 H 0.54824 0.03758 0.46136
 H312 H 0.56041 0.05964 0.43876
 N313 N -0.03094 0.09121 0.54314
 N314 N -0.04687 0.08624 0.52767
 C315 C -0.04670 0.10413 0.51084
 C316 C -0.02981 0.12127 0.51613
 C317 C -0.02012 0.11247 0.53676
 H318 H -0.05820 0.10481 0.49600
 H319 H -0.00623 0.12080 0.54642
 Cu320 Cu -0.06661 0.05727 0.53115
 Cu321 Cu -0.02540 0.06970 0.57024
 Cu322 Cu -0.06490 0.02252 0.58101
 N323 N -0.09113 0.03440 0.53980
 N324 N -0.09033 0.02053 0.55902
 C325 C -0.10911 0.00586 0.56007
 C326 C -0.12243 0.01102 0.54056
 C327 C -0.11048 0.02925 0.52808
 H328 H -0.11277 -0.00767 0.57388
 H329 H -0.11517 0.03776 0.51147
 N330 N -0.03784 0.02798 0.60096
 N331 N -0.02279 0.04594 0.59665
 C332 C -0.00618 0.04481 0.61289
 C333 C -0.01097 0.02532 0.62824
 C334 C -0.03120 0.01499 0.62020
 H335 H 0.00843 0.05724 0.61354
 H336 H -0.04028 -0.00090 0.62763
 H337 H -0.04015 0.03674 0.55821
 H338 H -0.05993 0.05991 0.57324
 N339 N 0.46699 0.58093 0.01450
 N340 N 0.44932 0.57516 0.00139
 C341 C 0.44722 0.59245 -0.01589
 C342 C 0.46443 0.61002 -0.01336
 C343 C 0.47661 0.60213 0.00612
 H344 H 0.43393 0.59247 -0.02904
 H345 H 0.49132 0.61126 0.01369
 Cu346 Cu 0.43035 0.54608 0.00859
 Cu347 Cu 0.47606 0.56094 0.04174
 Cu348 Cu 0.44380 0.50791 0.05366
 N349 N 0.41267 0.51594 0.01552
 N350 N 0.41868 0.50075 0.03272
 C351 C 0.40365 0.48176 0.03429
 C352 C 0.38716 0.48525 0.01727
 C353 C 0.39334 0.50717 0.00568
 H354 H 0.40404 0.46723 0.04765
 H355 H 0.38410 0.51629 -0.00844
 N356 N 0.46976 0.51812 0.07300
 N357 N 0.48232 0.53816 0.06847
 C358 C 0.49825 0.54033 0.08540
 C359 C 0.49524 0.52092 0.10142
 C360 C 0.47711 0.50720 0.09296
 H361 H 0.51063 0.55532 0.08649
 H362 H 0.46968 0.49060 0.10090
 H363 H 0.46319 0.52797 0.02897
 H364 H 0.44387 0.54669 0.04914
 N365 N 0.52417 -0.07549 0.04172
 N366 N 0.54061 -0.06989 0.02636
 C367 C 0.54080 -0.08700 0.00884
 C368 C 0.52364 -0.10429 0.01353
 C369 C 0.51342 -0.09635 0.03455
 H370 H 0.55276 -0.08720 -0.00604
 H371 H 0.49931 -0.10512 0.04406
 Cu372 Cu 0.56061 -0.04121 0.03118
 Cu373 Cu 0.51817 -0.05579 0.07020
 Cu374 Cu 0.55369 -0.00498 0.07941
 N375 N 0.58100 -0.01317 0.03729
 N376 N 0.57765 0.00132 0.05582
 C377 C 0.59401 0.01903 0.05608
 C378 C 0.60857 0.01538 0.03678
 C379 C 0.59988 -0.00529 0.02526
 H380 H 0.59573 0.03288 0.06985
 H381 H 0.60701 -0.01408 0.00952
 N382 N 0.52857 -0.01427 0.10141
 N383 N 0.51490 -0.03353 0.09794
 C384 C 0.49977 -0.03509 0.11624
 C385 C 0.50431 -0.01604 0.13203
 C386 C 0.52264 -0.00320 0.12201
 H387 H 0.48660 -0.04923 0.11819
 H388 H 0.53107 0.01303 0.12918
 H389 H 0.53105 -0.02257 0.05708
 H390 H 0.55153 -0.04330 0.07337
 N391 N 1.02876 0.43198 0.51867
 N392 N 1.04836 0.43695 0.50775
 C393 C 1.05135 0.42079 0.48959
 C394 C 1.03258 0.40488 0.48935
 C395 C 1.01865 0.41258 0.50801
 H396 H 1.06636 0.42006 0.47802
 H397 H 1.00266 0.40410 0.51383
 Cu398 Cu 1.06837 0.46305 0.51965
 Cu399 Cu 1.01847 0.44941 0.54702
 Cu400 Cu 1.05364 0.49601 0.56866
 N401 N 1.08772 0.48972 0.53141
 N402 N 1.08192 0.50275 0.55036
 C403 C 1.09835 0.51995 0.55429
 C404 C 1.11536 0.51743 0.53689
 C405 C 1.10801 0.49807 0.52277
 H406 H 1.09804 0.53307 0.56884
 H407 H 1.11689 0.49069 0.50729
 N408 N 1.02418 0.48616 0.58432
 N409 N 1.01074 0.46879 0.57551
 C410 C 0.99229 0.46576 0.58986
 C411 C 0.99404 0.48186 0.60879
 C412 C 1.01454 0.49454 0.60477
 H413 H 0.97894 0.45212 0.58714
 H414 H 1.02197 0.50851 0.61611
 H415 H 1.03588 0.48283 0.54043
 H416 H 1.05098 0.45903 0.55902
 C417 C 0.35088 -0.01562 0.27258
 C418 C 0.36324 0.00611 0.26687
 C419 C 0.35150 0.02801 0.26002
 C420 C 0.32730 0.02833 0.25872
 C421 C 0.31512 0.00638 0.26454
 C422 C 0.32671 -0.01568 0.27145
 C423 C 0.38861 0.00541 0.26653
 C424 C 0.40044 -0.00089 0.24559
 C425 C 0.42463 -0.00185 0.24479
 C426 C 0.43687 0.00387 0.26529
 C427 C 0.42522 0.01025 0.28649
 C428 C 0.40093 0.01083 0.28694
 H429 H 0.36023 -0.03261 0.27711
 H430 H 0.36131 0.04469 0.25585
 H431 H 0.39069 -0.00464 0.22986
 H432 H 0.39149 0.01511 0.30313
 H433 H 0.29649 0.00637 0.26347
 H434 H 0.45555 0.00334 0.26470
 C435 C 0.15309 -0.02874 0.73934
 C436 C 0.14151 -0.00587 0.74306
 C437 C 0.15398 0.01652 0.74426
 C438 C 0.17811 0.01616 0.74185
 C439 C 0.18957 -0.00696 0.73852
 C440 C 0.17719 -0.02941 0.73702
 C441 C 0.11625 -0.00540 0.74540
 C442 C 0.10549 -0.01267 0.76666
 C443 C 0.08133 -0.01225 0.76890
 C444 C 0.06815 -0.00485 0.74943
 C445 C 0.07878 0.00235 0.72803
 C446 C 0.10295 0.00210 0.72619
 H447 H 0.14333 -0.04597 0.73860
 H448 H 0.14485 0.03416 0.74698
 H449 H 0.11602 -0.01793 0.78153
 H450 H 0.11153 0.00711 0.70972
 H451 H 0.20822 -0.00761 0.73723
 H452 H 0.04950 -0.00452 0.75100
 C453 C 0.64671 0.47375 0.22954
 C454 C 0.63652 0.49764 0.23186
 C455 C 0.65038 0.51890 0.23361
 C456 C 0.67447 0.51660 0.23303
 C457 C 0.68455 0.49260 0.23116
 C458 C 0.67086 0.47108 0.22927
 C459 C 0.61133 0.50083 0.23177
 C460 C 0.59853 0.50059 0.25302
 C461 C 0.57460 0.50509 0.25305
 C462 C 0.56368 0.50921 0.23138
 C463 C 0.57643 0.50982 0.21007
 C464 C 0.60032 0.50566 0.21042
 H465 H 0.63582 0.45740 0.22833
 H466 H 0.64231 0.53728 0.23513
 H467 H 0.60732 0.49735 0.26950
 H468 H 0.61037 0.50581 0.19410
 H469 H 0.70313 0.49056 0.23133
 H470 H 0.54517 0.51189 0.23095
 C471 C 0.85162 0.46689 0.75021
 C472 C 0.86314 0.48917 0.74420
 C473 C 0.85063 0.50994 0.73604
 C474 C 0.82659 0.50891 0.73427
 C475 C 0.81519 0.48658 0.74022
 C476 C 0.82750 0.46531 0.74803
 C477 C 0.88822 0.49141 0.74715
 C478 C 0.90293 0.49256 0.72726
 C479 C 0.92674 0.49626 0.72976
 C480 C 0.93557 0.49868 0.75262
 C481 C 0.92090 0.49826 0.77264
 C482 C 0.89721 0.49436 0.76977
 H483 H 0.86157 0.45082 0.75609
 H484 H 0.85961 0.52725 0.73206
 H485 H 0.89569 0.49085 0.70982
 H486 H 0.88570 0.49378 0.78505
 H487 H 0.79659 0.48588 0.73894
 H488 H 0.95389 0.50103 0.75501
 C489 C 0.24870 0.34725 -0.02219
 C490 C 0.24619 0.36025 -0.00082
 C491 C 0.24523 0.34695 0.02056
 C492 C 0.24682 0.32058 0.02079
 C493 C 0.24864 0.30772 -0.00084
 C494 C 0.24955 0.32092 -0.02237
 C495 C 0.24519 0.38786 -0.00080
 C496 C 0.22391 0.40053 -0.00039
 C497 C 0.22297 0.42693 -0.00031
 C498 C 0.24370 0.44045 -0.00097
 C499 C 0.26512 0.42787 -0.00153
 C500 C 0.26566 0.40152 -0.00129
 H501 H 0.24955 0.35765 -0.03867
 H502 H 0.24361 0.35725 0.03701
 H503 H 0.20814 0.38977 -0.00002
 H504 H 0.28202 0.39151 -0.00165
 H505 H 0.24930 0.28741 -0.00105
 H506 H 0.24318 0.46075 -0.00109
 C507 C 0.74994 0.14605 -0.02569
 C508 C 0.75258 0.13322 -0.00423
 C509 C 0.75541 0.14674 0.01669
 C510 C 0.75515 0.17309 0.01641
 C511 C 0.75283 0.18579 -0.00522
 C512 C 0.75045 0.17243 -0.02642
 C513 C 0.75199 0.10560 -0.00348
 C514 C 0.77254 0.09161 -0.00446
 C515 C 0.77219 0.06522 -0.00310
 C516 C 0.75079 0.05306 -0.00117
 C517 C 0.73007 0.06697 -0.00008
 C518 C 0.73087 0.09329 -0.00110
 H519 H 0.74780 0.13545 -0.04182
 H520 H 0.75728 0.13671 0.03325
 H521 H 0.78881 0.10138 -0.00598
 H522 H 0.71505 0.10427 -0.00012
 H523 H 0.75281 0.20612 -0.00551
 H524 H 0.75018 0.03279 -0.00037
 C525 C 0.25237 0.65587 0.47927
 C526 C 0.25640 0.64191 0.49985
 C527 C 0.26041 0.65428 0.52119
 C528 C 0.26007 0.68063 0.52222
 C529 C 0.25632 0.69445 0.50139
 C530 C 0.25261 0.68224 0.47978
 C531 C 0.25635 0.61429 0.49909
 C532 C 0.27683 0.60104 0.49406
 C533 C 0.27707 0.57467 0.49372
 C534 C 0.25631 0.56175 0.49778
 C535 C 0.23557 0.57487 0.50249
 C536 C 0.23584 0.60121 0.50348
 H537 H 0.24939 0.64613 0.46283
 H538 H 0.26333 0.64335 0.53705
 H539 H 0.29265 0.61129 0.49087
 H540 H 0.22005 0.61161 0.50720
 H541 H 0.25623 0.71476 0.50202
 H542 H 0.25628 0.54143 0.49724
 C543 C 0.76517 0.84491 0.48174
 C544 C 0.75877 0.85618 0.50318
 C545 C 0.75512 0.84138 0.52334
 C546 C 0.75759 0.81514 0.52223
 C547 C 0.76384 0.80396 0.50050
 C548 C 0.76795 0.81874 0.48026
 C549 C 0.75659 0.88363 0.50464
 C550 C 0.73715 0.89597 0.49575
 C551 C 0.73535 0.92233 0.49663
 C552 C 0.75351 0.93604 0.50638
 C553 C 0.77300 0.92375 0.51541
 C554 C 0.77433 0.89746 0.51456
 H555 H 0.76768 0.85660 0.46623
 H556 H 0.75043 0.85041 0.53990
 H557 H 0.72334 0.88486 0.48872
 H558 H 0.78949 0.88766 0.52085
 H559 H 0.76531 0.78372 0.49918
 H560 H 0.75248 0.95637 0.50700
 C561 C -0.02469 0.26292 0.35350
 C562 C -0.00511 0.25665 0.36640
 C563 C 0.01515 0.24894 0.35467
 C564 C 0.01600 0.24743 0.32991
 C565 C -0.00375 0.25384 0.31708
 C566 C -0.02420 0.26157 0.32872
 C567 C -0.00622 0.25689 0.39229
 C568 C -0.01152 0.23476 0.40453
 C569 C -0.01310 0.23465 0.42929
 C570 C -0.00919 0.25701 0.44161
 C571 C -0.00404 0.27938 0.42947
 C572 C -0.00236 0.27913 0.40472
 H573 H -0.04045 0.26804 0.36293
 H574 H 0.03023 0.24446 0.36494
 H575 H -0.01407 0.21763 0.39466
 H576 H 0.00157 0.29625 0.39510
 H577 H -0.00323 0.25268 0.29796
 H578 H -0.01015 0.25698 0.46075
 C579 C -0.02053 0.74493 0.15960
 C580 C 0.00036 0.74610 0.14679
 C581 C 0.02127 0.74698 0.15885
 C582 C 0.02141 0.74636 0.18365
 C583 C 0.00037 0.74513 0.19626
 C584 C -0.02072 0.74460 0.18442
 C585 C 0.00026 0.74604 0.12075
 C586 C -0.00667 0.76759 0.10837
 C587 C -0.00715 0.76757 0.08353
 C588 C -0.00088 0.74548 0.07134
 C589 C 0.00595 0.72368 0.08353
 C590 C 0.00661 0.72422 0.10835
 H591 H -0.03661 0.74431 0.15017
 H592 H 0.03738 0.74794 0.14890
 H593 H -0.01110 0.78444 0.11817
 H594 H 0.01132 0.70753 0.11819
 H595 H 0.00047 0.74461 0.21538
 H596 H -0.00134 0.74524 0.05221
 C597 C 0.47186 0.25149 0.65252
 C598 C 0.49105 0.25634 0.63796
 C599 C 0.51241 0.26150 0.64799
 C600 C 0.51473 0.26156 0.67268
 C601 C 0.49529 0.25672 0.68712
 C602 C 0.47372 0.25199 0.67718
 C603 C 0.48857 0.25645 0.61217
 C604 C 0.48363 0.27900 0.60041
 C605 C 0.48138 0.27937 0.57576
 C606 C 0.48385 0.25684 0.56309
 C607 C 0.48854 0.23406 0.57471
 C608 C 0.49108 0.23406 0.59934
 H609 H 0.45535 0.24787 0.64457
 H610 H 0.52721 0.26489 0.63653
 H611 H 0.48220 0.29626 0.61045
 H612 H 0.49495 0.21670 0.60856
 H613 H 0.49701 0.25657 0.70615
 H614 H 0.48261 0.25718 0.54402
 C615 C 0.48643 0.75384 0.85200
 C616 C 0.50703 0.75682 0.86429
 C617 C 0.52812 0.75737 0.85183
 C618 C 0.52872 0.75523 0.82713
 C619 C 0.50802 0.75232 0.81501
 C620 C 0.48679 0.75140 0.82729
 C621 C 0.50661 0.75827 0.89029
 C622 C 0.50125 0.73683 0.90363
 C623 C 0.50155 0.73753 0.92838
 C624 C 0.50626 0.76032 0.93969
 C625 C 0.51144 0.78209 0.92660
 C626 C 0.51187 0.78081 0.90176
 H627 H 0.47018 0.75324 0.86172
 H628 H 0.54404 0.75930 0.86138
 H629 H 0.49752 0.71941 0.89464
 H630 H 0.51558 0.79736 0.89126
 H631 H 0.50848 0.75067 0.79595
 H632 H 0.50584 0.76117 0.95881
 C633 C 0.07802 0.22761 0.29360
 C634 C 0.06240 0.24493 0.28395
 N635 N 0.06743 0.25605 0.26294
 C636 C 0.08749 0.25081 0.25117
 C637 C 0.10334 0.23361 0.26083
 N638 N 0.09807 0.22229 0.28183
 N639 N 0.07300 0.21664 0.31472
 C640 C 0.05315 0.22241 0.32675
 C641 C 0.03754 0.24000 0.31725
 N642 N 0.04260 0.25064 0.29590
 H643 H 0.09089 0.25999 0.23443
 H644 H 0.04955 0.21314 0.34343
 C645 C 0.59119 0.74983 0.78780
 C646 C 0.58889 0.73819 0.80998
 N647 N 0.60637 0.72365 0.81816
 C648 C 0.62596 0.71995 0.80503
 C649 C 0.62818 0.73127 0.78261
 N650 N 0.61072 0.74614 0.77469
 N651 N 0.57359 0.76399 0.77939
 C652 C 0.55356 0.76671 0.79198
 C653 C 0.55096 0.75463 0.81401
 N654 N 0.56889 0.74087 0.82258
 H655 H 0.63952 0.70817 0.81201
 H656 H 0.53976 0.77802 0.78479
 C657 C 0.42538 0.74833 0.78802
 C658 C 0.42626 0.76204 0.80914
 N659 N 0.40774 0.77596 0.81623
 C660 C 0.38851 0.77726 0.80291
 C661 C 0.38777 0.76417 0.78136
 N662 N 0.40620 0.74969 0.77460
 N663 N 0.44407 0.73473 0.78078
 C664 C 0.46379 0.73464 0.79342
 C665 C 0.46501 0.74902 0.81423
 N666 N 0.44596 0.76208 0.82170
 H667 H 0.37411 0.78872 0.80897
 H668 H 0.47839 0.72358 0.78718
 C669 C -0.08459 0.27564 0.28954
 C670 C -0.06822 0.25774 0.28198
 N671 N -0.07195 0.24434 0.26209
 C672 C -0.09136 0.24798 0.24936
 C673 C -0.10793 0.26596 0.25685
 N674 N -0.10396 0.27935 0.27685
 N675 N -0.08088 0.28900 0.30948
 C676 C -0.06159 0.28511 0.32234
 C677 C -0.04517 0.26698 0.31496
 N678 N -0.04895 0.25386 0.29477
 H679 H -0.09364 0.23689 0.23363
 H680 H -0.05904 0.29627 0.33800
 C681 C -0.08361 0.73785 0.22321
 C682 C -0.08074 0.72667 0.20093
 N683 N -0.09804 0.71283 0.19198
 C684 C -0.11807 0.70948 0.20440
 C685 C -0.12097 0.72043 0.22689
 N686 N -0.10359 0.73450 0.23564
 N687 N -0.06627 0.75160 0.23219
 C688 C -0.04603 0.75443 0.22004
 C689 C -0.04286 0.74288 0.19782
 N690 N -0.06053 0.72945 0.18877
 H691 H -0.13147 0.69831 0.19673
 H692 H -0.03266 0.76573 0.22762
 C693 C 0.41350 0.24088 0.71919
 C694 C 0.41731 0.22716 0.69838
 N695 N 0.40139 0.21028 0.69149
 C696 C 0.38175 0.20652 0.70446
 C697 C 0.37764 0.22053 0.72525
 N698 N 0.39380 0.23738 0.73200
 N699 N 0.42950 0.25759 0.72623
 C700 C 0.44919 0.26124 0.71335
 C701 C 0.45302 0.24771 0.69228
 N702 N 0.43683 0.23100 0.68533
 H703 H 0.36948 0.19296 0.69832
 H704 H 0.46143 0.27499 0.71922
 C705 C 0.57915 0.27332 0.70507
 C706 C 0.56331 0.25599 0.71432
 N707 N 0.56862 0.24260 0.73389
 C708 C 0.58908 0.24569 0.74475
 C709 C 0.60509 0.26327 0.73578
 N710 N 0.59957 0.27669 0.71604
 N711 N 0.57385 0.28645 0.68525
 C712 C 0.55341 0.28301 0.67428
 C713 C 0.53738 0.26576 0.68365
 N714 N 0.54285 0.25275 0.70356
 H715 H 0.59247 0.23462 0.76034
 H716 H 0.54957 0.29395 0.65868
 C717 C 0.08303 0.75334 0.22206
 C718 C 0.07957 0.76733 0.20135
 N719 N 0.09556 0.78437 0.19435
 C720 C 0.11474 0.78831 0.20726
 C721 C 0.11814 0.77458 0.22822
 N722 N 0.10220 0.75722 0.23495
 N723 N 0.06685 0.73664 0.22933
 C724 C 0.04716 0.73356 0.21702
 C725 C 0.04339 0.74786 0.19646
 N726 N 0.05992 0.76424 0.18901
 H727 H 0.12709 0.80210 0.20123
 H728 H 0.03455 0.72012 0.22327
 C729 C 0.28921 0.09290 0.23759
 C730 C 0.27991 0.07552 0.25370
 N731 N 0.25829 0.07917 0.26259
 C732 C 0.24548 0.09947 0.25614
 C733 C 0.25464 0.11700 0.23992
 N734 N 0.27639 0.11317 0.23100
 N735 N 0.31088 0.08915 0.22875
 C736 C 0.32369 0.06882 0.23532
 C737 C 0.31440 0.05125 0.25147
 N738 N 0.29260 0.05518 0.26014
 H739 H 0.22828 0.10165 0.26352
 H740 H 0.34071 0.06620 0.22756
 C741 C 0.78894 0.57511 0.71840
 C742 C 0.78100 0.55821 0.73571
 N743 N 0.76158 0.56372 0.74842
 C744 C 0.74979 0.58553 0.74477
 C745 C 0.75775 0.60262 0.72754
 N746 N 0.77711 0.59683 0.71463
 N747 N 0.80866 0.56981 0.70606
 C748 C 0.82095 0.54846 0.71043
 C749 C 0.81315 0.53157 0.72792
 N750 N 0.79318 0.53686 0.73999
 H751 H 0.73437 0.58938 0.75521
 H752 H 0.83663 0.54472 0.70036
 C753 C 0.78953 0.39927 0.76397
 C754 C 0.78219 0.41627 0.74666
 N755 N 0.76242 0.41188 0.73499
 C756 C 0.74954 0.39123 0.73987
 C757 C 0.75665 0.37416 0.75739
 N758 N 0.77661 0.37869 0.76900
 N759 N 0.80933 0.40377 0.77562
 C760 C 0.82214 0.42454 0.77077
 C761 C 0.81476 0.44181 0.75349
 N762 N 0.79485 0.43705 0.74192
 H763 H 0.73383 0.38844 0.73028
 H764 H 0.83756 0.42776 0.78074
 C765 C 0.28797 -0.08169 0.28447
 C766 C 0.28112 -0.06405 0.26751
 N767 N 0.26186 -0.06812 0.25491
 C768 C 0.24903 -0.08906 0.25849
 C769 C 0.25565 -0.10686 0.27567
 N770 N 0.27510 -0.10257 0.28822
 N771 N 0.30736 -0.07762 0.29696
 C772 C 0.32024 -0.05669 0.29319
 C773 C 0.31338 -0.03886 0.27620
 N774 N 0.29385 -0.04311 0.26386
 H775 H 0.23379 -0.09148 0.24807
 H776 H 0.33542 -0.05385 0.30364
 C777 C 0.21492 -0.09691 0.72624
 C778 C 0.22268 -0.07837 0.74167
 N779 N 0.24279 -0.08184 0.75309
 C780 C 0.25568 -0.10296 0.74968
 C781 C 0.24832 -0.12148 0.73377
 N782 N 0.22795 -0.11789 0.72250
 N783 N 0.19461 -0.09347 0.71505
 C784 C 0.18178 -0.07222 0.71852
 C785 C 0.18979 -0.05338 0.73363
 N786 N 0.21011 -0.05705 0.74483
 H787 H 0.27166 -0.10483 0.75907
 H788 H 0.16583 -0.06979 0.70912
 C789 C 0.70630 0.40154 0.22143
 C790 C 0.71456 0.42038 0.23623
 N791 N 0.73478 0.41687 0.24748
 C792 C 0.74732 0.39542 0.24444
 C793 C 0.73945 0.37665 0.22916
 N794 N 0.71898 0.38020 0.21808
 N795 N 0.68602 0.40518 0.21022
 C796 C 0.67374 0.42695 0.21296
 C797 C 0.68231 0.44616 0.22733
 N798 N 0.70254 0.44219 0.23867
 H799 H 0.76348 0.39344 0.25349
 H800 H 0.65792 0.42952 0.20337
 C801 C 0.71564 0.58123 0.24101
 C802 C 0.69374 0.57963 0.25180
 N803 N 0.68587 0.59865 0.26571
 C804 C 0.69906 0.61910 0.26966
 C805 C 0.72122 0.62061 0.25925
 N806 N 0.72887 0.60165 0.24494
 N807 N 0.72357 0.56204 0.22730
 C808 C 0.71069 0.54114 0.22412
 C809 C 0.68885 0.53926 0.23526
 N810 N 0.68090 0.55881 0.24865
 H811 H 0.69233 0.63390 0.28095
 H812 H 0.71740 0.52629 0.21288
 C813 C 0.21681 0.08283 0.74848
 C814 C 0.19628 0.07948 0.76153
 N815 N 0.18922 0.09738 0.77714
 C816 C 0.20188 0.11841 0.78048
 C817 C 0.22265 0.12171 0.76765
 N818 N 0.22947 0.10379 0.75182
 N819 N 0.22399 0.06488 0.73301
 C820 C 0.21173 0.04349 0.73020
 C821 C 0.19132 0.03976 0.74357
 N822 N 0.18401 0.05812 0.75876
 H823 H 0.19579 0.13227 0.79310
 H824 H 0.21784 0.02963 0.71758
 C825 C 0.24183 0.28085 0.08579
 C826 C 0.23153 0.30461 0.08304
 N827 N 0.21900 0.31474 0.10111
 C828 C 0.21590 0.30201 0.12171
 C829 C 0.22566 0.27787 0.12440
 N830 N 0.23868 0.26799 0.10636
 N831 N 0.25427 0.27075 0.06758
 C832 C 0.25658 0.28314 0.04663
 C833 C 0.24576 0.30674 0.04358
 N834 N 0.23372 0.31692 0.06214
 H835 H 0.20572 0.31062 0.13573
 H836 H 0.26687 0.27466 0.03263
 C837 C 0.74441 0.77210 0.58415
 C838 C 0.73299 0.79502 0.58031
 N839 N 0.71747 0.80366 0.59662
 C840 C 0.71282 0.79040 0.61667
 C841 C 0.72426 0.76739 0.62067
 N842 N 0.73984 0.75886 0.60419
 N843 N 0.75996 0.76351 0.56783
 C844 C 0.76455 0.77677 0.54773
 C845 C 0.75306 0.79979 0.54371
 N846 N 0.73760 0.80830 0.56032
 H847 H 0.70038 0.79788 0.62929
 H848 H 0.77736 0.76958 0.53533
 C849 C 0.78424 0.78397 0.41471
 C850 C 0.76955 0.77243 0.43136
 N851 N 0.75975 0.75015 0.42620
 C852 C 0.76373 0.73896 0.40498
 C853 C 0.77822 0.75055 0.38807
 N854 N 0.78832 0.77276 0.39347
 N855 N 0.79377 0.80644 0.41987
 C856 C 0.78909 0.81802 0.44084
 C857 C 0.77415 0.80660 0.45749
 N858 N 0.76493 0.78390 0.45228
 H859 H 0.75565 0.72117 0.40145
 H860 H 0.79710 0.83582 0.44450
 C861 C 0.25665 0.28139 -0.08688
 C862 C 0.26898 0.30353 -0.08310
 N863 N 0.28385 0.31193 -0.10007
 C864 C 0.28706 0.29910 -0.12065
 C865 C 0.27473 0.27689 -0.12449
 N866 N 0.25972 0.26870 -0.10745
 N867 N 0.24207 0.27273 -0.06979
 C868 C 0.23935 0.28511 -0.04895
 C869 C 0.25173 0.30727 -0.04500
 N870 N 0.26616 0.31603 -0.06235
 H871 H 0.29902 0.30627 -0.13384
 H872 H 0.22749 0.27784 -0.03570
 C873 C 0.74114 0.21182 -0.09083
 C874 C 0.72986 0.18905 -0.08638
 N875 N 0.71509 0.17996 -0.10251
 C876 C 0.71088 0.19276 -0.12282
 C877 C 0.72191 0.21579 -0.12726
 N878 N 0.73697 0.22463 -0.11113
 N879 N 0.75572 0.22102 -0.07456
 C880 C 0.75932 0.20863 -0.05389
 C881 C 0.74776 0.18595 -0.04915
 N882 N 0.73345 0.17664 -0.06576
 H883 H 0.69899 0.18497 -0.13528
 H884 H 0.77120 0.21638 -0.04137
 C885 C 0.24052 0.72426 0.41729
 C886 C 0.22944 0.70130 0.42135
 N887 N 0.21434 0.69270 0.40526
 C888 C 0.20974 0.70606 0.38533
 C889 C 0.22077 0.72915 0.38122
 N890 N 0.23599 0.73757 0.39739
 N891 N 0.25552 0.73296 0.43340
 C892 C 0.25983 0.71986 0.45352
 C893 C 0.24862 0.69689 0.45784
 N894 N 0.23378 0.68813 0.44141
 H895 H 0.19763 0.69865 0.37290
 H896 H 0.27211 0.72719 0.46583
 C897 C 0.27045 0.71766 0.58737
 C898 C 0.28242 0.69537 0.58189
 N899 N 0.29772 0.68582 0.59752
 C900 C 0.30165 0.69762 0.61837
 C901 C 0.28966 0.71999 0.62392
 N902 N 0.27428 0.72935 0.60818
 N903 N 0.25529 0.72737 0.57176
 C904 C 0.25161 0.71589 0.55076
 C905 C 0.26363 0.69357 0.54503
 N906 N 0.27868 0.68377 0.56095
 H907 H 0.31394 0.68953 0.63043
 H908 H 0.23915 0.72397 0.53886
 C909 C 0.76313 0.21371 0.07995
 C910 C 0.77541 0.19126 0.07582
 N911 N 0.79057 0.18284 0.09208
 C912 C 0.79419 0.19597 0.11222
 C913 C 0.78203 0.21857 0.11637
 N914 N 0.76664 0.22677 0.10011
 N915 N 0.74825 0.22233 0.06351
 C916 C 0.74523 0.20964 0.04300
 C917 C 0.75763 0.18721 0.03869
 N918 N 0.77231 0.17850 0.05542
 H919 H 0.80642 0.18879 0.12482
 H920 H 0.73310 0.21689 0.03031
 C921 C 0.47164 0.34699 0.53743
 C922 C 0.48574 0.32754 0.52853
 N923 N 0.49661 0.33029 0.50731
 C924 C 0.49407 0.35169 0.49450
 C925 C 0.47984 0.37125 0.50320
 N926 N 0.46888 0.36834 0.52453
 N927 N 0.46101 0.34419 0.55885
 C928 C 0.46387 0.32280 0.57176
 C929 C 0.47787 0.30318 0.56276
 N930 N 0.48840 0.30617 0.54126
 H931 H 0.50285 0.35315 0.47756
 H932 H 0.45499 0.32099 0.58864
 C933 C -0.02441 0.83277 0.04386
 C934 C -0.00863 0.81486 0.03505
 N935 N 0.00148 0.81837 0.01354
 C936 C -0.00340 0.83906 0.00037
 C937 C -0.01921 0.85718 0.00906
 N938 N -0.02941 0.85346 0.03068
 N939 N -0.03441 0.82918 0.06547
 C940 C -0.02927 0.80854 0.07871
 C941 C -0.01339 0.79051 0.06995
 N942 N -0.00358 0.79425 0.04818
 H943 H 0.00494 0.84114 -0.01674
 H944 H -0.03782 0.80611 0.09569
 C945 C 0.02105 0.65723 0.04458
 C946 C 0.00480 0.67483 0.03662
 N947 N -0.00645 0.67054 0.01624
 C948 C -0.00224 0.64938 0.00341
 C949 C 0.01406 0.63162 0.01126
 N950 N 0.02536 0.63611 0.03173
 N951 N 0.03222 0.66155 0.06503
 C952 C 0.02781 0.68263 0.07797
 C953 C 0.01146 0.70036 0.07010
 N954 N 0.00047 0.69591 0.04945
 H955 H -0.01149 0.64665 -0.01277
 H956 H 0.03727 0.68563 0.09399
 C957 C 0.50152 0.16894 0.53358
 C958 C 0.51404 0.17355 0.55410
 N959 N 0.53150 0.15778 0.56003
 C960 C 0.53729 0.13780 0.54619
 C961 C 0.52512 0.13338 0.52533
 N962 N 0.50731 0.14900 0.51970
 N963 N 0.48429 0.18495 0.52745
 C964 C 0.47927 0.20563 0.54069
 C965 C 0.49214 0.21068 0.56098
 N966 N 0.50907 0.19421 0.56730
 H967 H 0.55138 0.12567 0.55139
 H968 H 0.46544 0.21805 0.53534
 C969 C -0.02868 0.16866 0.46808
 C970 C -0.01356 0.18660 0.47693
 N971 N -0.00383 0.18287 0.49829
 C972 C -0.00857 0.16197 0.51127
 C973 C -0.02386 0.14400 0.50254
 N974 N -0.03355 0.14788 0.48108
 N975 N -0.03836 0.17237 0.44669
 C976 C -0.03357 0.19325 0.43368
 C977 C -0.01845 0.21137 0.44252
 N978 N -0.00889 0.20750 0.46406
 H979 H -0.00061 0.15964 0.52827
 H980 H -0.04187 0.19586 0.41688
 C981 C 0.48880 0.67116 0.96781
 C982 C 0.47723 0.67589 0.94669
 N983 N 0.46169 0.65905 0.93888
 C984 C 0.45715 0.63768 0.95129
 C985 C 0.46877 0.63284 0.97247
 N986 N 0.48438 0.64980 0.98012
 N987 N 0.50426 0.68800 0.97571
 C988 C 0.50862 0.70949 0.96349
 C989 C 0.49702 0.71443 0.94230
 N990 N 0.48166 0.69729 0.93438
 H991 H 0.44471 0.62462 0.94456
 H992 H 0.52133 0.72232 0.97009
 C993 C 0.52450 0.84884 0.96486
 C994 C 0.50903 0.83083 0.97354
 N995 N 0.49834 0.83441 0.99478
 C996 C 0.50247 0.85520 1.00786
 C997 C 0.51819 0.87325 0.99943
 N998 N 0.52881 0.86956 0.97801
 N999 N 0.53516 0.84514 0.94357
 C1000 C 0.53109 0.82418 0.93059
 C1001 C 0.51575 0.80589 0.93937
 N1002 N 0.50514 0.80986 0.96073
 H1003 H 0.49374 0.85732 1.02478
 H1004 H 0.54021 0.82160 0.91393
 C1005 C 0.00683 0.34604 0.46800
 C1006 C 0.02063 0.34029 0.44813
 N1007 N 0.03805 0.35594 0.44175
 C1008 C 0.04236 0.37704 0.45445
 C1009 C 0.02854 0.38277 0.47443
 N1010 N 0.01105 0.36706 0.48056
 N1011 N -0.01039 0.33037 0.47468
 C1012 C -0.01435 0.30896 0.46249
 C1013 C -0.00047 0.30291 0.44264
 N1014 N 0.01663 0.31893 0.43582
 H1015 H 0.05637 0.38911 0.44899
 H1016 H -0.02832 0.29690 0.46816
 C1017 C 0.33964 0.53491 0.48040
 C1018 C 0.33502 0.55767 0.46881
 N1019 N 0.35068 0.56684 0.45296
 C1020 C 0.37076 0.55425 0.44814
 C1021 C 0.37548 0.53144 0.45980
 N1022 N 0.35970 0.52244 0.47571
 N1023 N 0.32399 0.52559 0.49611
 C1024 C 0.30380 0.53792 0.50071
 C1025 C 0.29896 0.56075 0.48910
 N1026 N 0.31490 0.57012 0.47348
 H1027 H 0.38289 0.56207 0.43546
 H1028 H 0.29184 0.53013 0.51359
 C1029 C 0.83522 0.02410 -0.00802
 C1030 C 0.83293 0.04801 -0.01825
 N1031 N 0.85092 0.05804 -0.03046
 C1032 C 0.87106 0.04511 -0.03324
 C1033 C 0.87336 0.02088 -0.02347
 N1034 N 0.85534 0.01105 -0.01085
 N1035 N 0.81712 0.01416 0.00418
 C1036 C 0.79674 0.02690 0.00636
 C1037 C 0.79420 0.05073 -0.00431
 N1038 N 0.81262 0.06067 -0.01616
 H1039 H 0.88503 0.05372 -0.04311
 H1040 H 0.78285 0.01854 0.01654
 C1041 C 0.66621 0.03041 0.01123
 C1042 C 0.67058 0.05377 0.02156
 N1043 N 0.65449 0.06446 0.03611
 C1044 C 0.63425 0.05273 0.04102
 C1045 C 0.62984 0.02918 0.03090
 N1046 N 0.64595 0.01869 0.01605
 N1047 N 0.68248 0.01959 -0.00306
 C1048 C 0.70306 0.03096 -0.00729
 C1049 C 0.70763 0.05428 0.00326
 N1050 N 0.69106 0.06515 0.01730
 H1051 H 0.62180 0.06175 0.05272
 H1052 H 0.71561 0.02194 -0.01888
 C1053 C 0.17290 0.53572 0.51335
 C1054 C 0.17761 0.55734 0.52644
 N1055 N 0.16197 0.56559 0.54288
 C1056 C 0.14183 0.55317 0.54683
 C1057 C 0.13700 0.53155 0.53362
 N1058 N 0.15277 0.52346 0.51716
 N1059 N 0.18850 0.52730 0.49704
 C1060 C 0.20874 0.53945 0.49324
 C1061 C 0.21366 0.56116 0.50631
 N1062 N 0.19777 0.56964 0.52255
 H1063 H 0.12971 0.56025 0.55999
 H1064 H 0.22067 0.53241 0.47986
 C1065 C 0.15866 0.46527 -0.00379
 C1066 C 0.16175 0.44131 -0.01368
 N1067 N 0.14426 0.43062 -0.02550
 C1068 C 0.12388 0.44296 -0.02822
 C1069 C 0.12082 0.46725 -0.01882
 N1070 N 0.13832 0.47770 -0.00657
 N1071 N 0.17627 0.47596 0.00790
 C1072 C 0.19696 0.46396 0.00981
 C1073 C 0.20034 0.44015 -0.00062
 N1074 N 0.18240 0.42937 -0.01188
 H1075 H 0.11034 0.43390 -0.03781
 H1076 H 0.21054 0.47294 0.01943
 C1077 C 0.67507 0.96112 0.47464
 C1078 C 0.68908 0.97081 0.49231
 N1079 N 0.68319 0.99278 0.50292
 C1080 C 0.66382 1.00554 0.49677
 C1081 C 0.64954 0.99590 0.47914
 N1082 N 0.65565 0.97384 0.46843
 N1083 N 0.68109 0.93910 0.46405
 C1084 C 0.70038 0.92623 0.47049
 C1085 C 0.71438 0.93576 0.48845
 N1086 N 0.70828 0.95800 0.49874
 H1087 H 0.65976 1.02301 0.50565
 H1088 H 0.70480 0.90895 0.46142
 C1089 C 0.83034 0.96458 0.53927
 C1090 C 0.81708 0.97349 0.52047
 N1091 N 0.82338 0.99481 0.50899
 C1092 C 0.84253 1.00753 0.51528
 C1093 C 0.85607 0.99850 0.53392
 N1094 N 0.84946 0.97727 0.54557
 N1095 N 0.82421 0.94308 0.55054
 C1096 C 0.80558 0.92984 0.54365
 C1097 C 0.79244 0.93844 0.52451
 N1098 N 0.79847 0.96030 0.51357
 H1099 H 0.84708 1.02443 0.50572
 H1100 H 0.80110 0.91278 0.55302
 C1101 C 0.32798 0.46773 0.00034
 C1102 C 0.32582 0.44395 0.01083
 N1103 N 0.34389 0.43371 0.02241
 C1104 C 0.36400 0.44633 0.02426
 C1105 C 0.36617 0.47038 0.01412
 N1106 N 0.34807 0.48040 0.00218
 N1107 N 0.30977 0.47797 -0.01109
 C1108 C 0.28940 0.46562 -0.01227
 C1109 C 0.28705 0.44190 -0.00142
 N1110 N 0.30554 0.43165 0.00968
 H1111 H 0.37806 0.43766 0.03367
 H1112 H 0.27534 0.47418 -0.02176
 C1113 C 0.53551 0.50290 0.31716
 C1114 C 0.55589 0.48873 0.31437
 N1115 N 0.56287 0.47349 0.33214
 C1116 C 0.55025 0.47150 0.35250
 C1117 C 0.52953 0.48528 0.35525
 N1118 N 0.52280 0.50086 0.33747
 N1119 N 0.52857 0.51813 0.29935
 C1120 C 0.54089 0.51957 0.27873
 C1121 C 0.56110 0.50492 0.27560
 N1122 N 0.56816 0.49006 0.29377
 H1123 H 0.55637 0.45914 0.36624
 H1124 H 0.53500 0.53219 0.26507
 C1125 C 0.04662 -0.02864 0.83362
 C1126 C 0.03809 -0.01049 0.81796
 N1127 N 0.01841 0.00224 0.82351
 C1128 C 0.00679 -0.00232 0.84407
 C1129 C 0.01515 -0.02059 0.85987
 N1130 N 0.03494 -0.03338 0.85416
 N1131 N 0.06644 -0.04121 0.82799
 C1132 C 0.07813 -0.03639 0.80742
 C1133 C 0.06954 -0.01822 0.79163
 N1134 N 0.04962 -0.00582 0.79743
 H1135 H -0.00894 0.00808 0.84779
 H1136 H 0.09370 -0.04695 0.80331
 C1137 C 0.03735 0.02291 0.67009
 C1138 C 0.03010 0.00443 0.68620
 N1139 N 0.00959 -0.00709 0.68313
 C1140 C -0.00405 -0.00094 0.66462
 C1141 C 0.00312 0.01767 0.64849
 N1142 N 0.02372 0.02912 0.65174
 N1143 N 0.05785 0.03441 0.67308
 C1144 C 0.07158 0.02819 0.69145
 C1145 C 0.06444 0.00961 0.70769
 N1146 N 0.04372 -0.00171 0.70462
 H1147 H -0.02032 -0.01041 0.66270
 H1148 H 0.08766 0.03798 0.69353
 C1149 C 0.54097 0.52287 0.14641
 C1150 C 0.53133 0.50808 0.16455
 N1151 N 0.51029 0.49775 0.16176
 C1152 C 0.49840 0.50147 0.14160
 C1153 C 0.50787 0.51642 0.12339
 N1154 N 0.52899 0.52685 0.12632
 N1155 N 0.56217 0.53293 0.14920
 C1156 C 0.57416 0.52887 0.16932
 C1157 C 0.56442 0.51423 0.18762
 N1158 N 0.54315 0.50428 0.18469
 H1159 H 0.48158 0.49311 0.14003
 H1160 H 0.59089 0.53740 0.17118
 C1161 C 0.46056 -0.01844 0.18072
 C1162 C 0.46925 -0.00105 0.19680
 N1163 N 0.48918 0.01103 0.19157
 C1164 C 0.50083 0.00660 0.17093
 C1165 C 0.49221 -0.01081 0.15470
 N1166 N 0.47223 -0.02299 0.16014
 N1167 N 0.44052 -0.03038 0.18590
 C1168 C 0.42866 -0.02558 0.20636
 C1169 C 0.43722 -0.00802 0.22251
 N1170 N 0.45748 0.00368 0.21727
 H1171 H 0.51670 0.01652 0.16741
 H1172 H 0.41286 -0.03560 0.21006
 C1173 C 0.97049 0.49734 0.66868
 C1174 C 0.94945 0.48455 0.66883
 N1175 N 0.94303 0.47190 0.64932
 C1176 C 0.95681 0.47117 0.62969
 C1177 C 0.97817 0.48357 0.62950
 N1178 N 0.98439 0.49656 0.64908
 N1179 N 0.97676 0.51007 0.68825
 C1180 C 0.96309 0.51036 0.70805
 C1181 C 0.94212 0.49712 0.70845
 N1182 N 0.93585 0.48474 0.68857
 H1183 H 0.95104 0.46089 0.61449
 H1184 H 0.96851 0.52111 0.72311
 C1185 C 0.95069 0.51166 0.83921
 C1186 C 0.96204 0.49677 0.82212
 N1187 N 0.98314 0.48695 0.82667
 C1188 C 0.99350 0.49136 0.84756
 C1189 C 0.98239 0.50657 0.86468
 N1190 N 0.96117 0.51641 0.86001
 N1191 N 0.92945 0.52124 0.83462
 C1192 C 0.91912 0.51672 0.81367
 C1193 C 0.93067 0.50217 0.79632
 N1194 N 0.95192 0.49259 0.80111
 H1195 H 1.01044 0.48343 0.85050
 H1196 H 0.90238 0.52500 0.81035
 C1197 C 0.46439 0.02633 0.34727
 C1198 C 0.47254 0.00928 0.33016
 N1199 N 0.49330 -0.00217 0.33299
 C1200 C 0.50636 0.00266 0.35216
 C1201 C 0.49835 0.01987 0.36934
 N1202 N 0.47745 0.03128 0.36637
 N1203 N 0.44363 0.03779 0.34442
 C1204 C 0.43057 0.03294 0.32524
 C1205 C 0.43864 0.01583 0.30796
 N1206 N 0.45959 0.00452 0.31096
 H1207 H 0.52284 -0.00675 0.35377
 H1208 H 0.41431 0.04278 0.32336
   
