data_POSCAR
  _audit_creation_date              2014-09-24
  _audit_creation_method            'ToBaCCo'
  _symmetry_space_group_name_H-M    'P1'
  _symmetry_Int_Tables_number       1
  _symmetry_cell_setting            triclinic
  loop_
  _symmetry_equiv_pos_as_xyz
 x,y,z
_cell_length_a 48.0249
_cell_length_b 47.8563
_cell_length_c 44.3315
_cell_angle_alpha 90.088400
_cell_angle_beta 89.964100
_cell_angle_gamma 119.970500
loop_
  _atom_site_label
  _atom_site_type_symbol
  _atom_site_fract_x
  _atom_site_fract_y
  _atom_site_fract_z
O1 O 0.03981 0.49199 0.00821
 O2 O 0.00225 0.52742 -0.03894
 O3 O 0.03985 0.54625 0.00825
 O4 O 0.00230 0.47319 -0.03908
 O5 O -0.04031 0.45182 -0.00927
 O6 O -0.00276 0.52488 0.03808
 O7 O -0.04035 0.50605 -0.00911
 O8 O -0.00281 0.47062 0.03803
 Cu9 Cu 0.02535 0.51186 -0.01840
 Cu10 Cu -0.02586 0.48618 0.01744
 C11 C 0.02497 0.47558 0.03124
 C12 C -0.02550 0.52249 -0.03212
 C13 C 0.02499 0.54779 0.03130
 C14 C -0.02546 0.45029 -0.03232
 O15 O 0.54678 0.50624 -0.00874
 O16 O 0.47412 0.47122 0.03870
 O17 O 0.49262 0.45212 -0.00861
 O18 O 0.52826 0.52533 0.03854
 O19 O 0.50698 0.54677 0.00879
 O20 O 0.47134 0.47356 -0.03835
 O21 O 0.45283 0.49266 0.00895
 O22 O 0.52549 0.52768 -0.03850
 Cu23 Cu 0.51259 0.48656 0.01797
 Cu24 Cu 0.48701 0.51232 -0.01778
 C25 C 0.54828 0.52265 -0.03177
 C26 C 0.45133 0.47627 0.03198
 C27 C 0.47619 0.45059 -0.03159
 C28 C 0.52341 0.54829 0.03177
 O29 O 0.45272 0.96040 0.00842
 O30 O 0.52552 0.99784 -0.03882
 O31 O 0.50673 0.96029 0.00845
 O32 O 0.47153 0.99798 -0.03885
 O33 O 0.49290 1.04083 -0.00909
 O34 O 0.52811 1.00316 0.03821
 O35 O 0.54689 1.04070 -0.00907
 O36 O 0.47409 1.00325 0.03819
 Cu37 Cu 0.48696 0.97481 -0.01820
 Cu38 Cu 0.51265 1.02630 0.01757
 C39 C 0.45123 0.97539 0.03144
 C40 C 0.54837 1.02570 -0.03207
 C41 C 0.52315 0.97526 0.03146
 C42 C 0.47650 1.02589 -0.03212
 O43 O 1.04027 0.54704 0.49071
 O44 O 1.00349 0.47415 0.53810
 O45 O 1.04076 0.49304 0.49066
 O46 O 1.00294 0.52812 0.53809
 O47 O 0.96018 0.50636 0.50844
 O48 O 0.99800 0.47127 0.46103
 O49 O 0.96072 0.45238 0.50846
 O50 O 0.99752 0.52528 0.46106
 Cu51 Cu 1.02618 0.51278 0.51738
 Cu52 Cu 0.97479 0.48662 0.48176
 C53 C 1.02523 0.54835 0.46775
 C54 C 0.97577 0.45108 0.53143
 C55 C 1.02588 0.47647 0.46769
 C56 C 0.97506 0.52293 0.53141
 O57 O 0.52802 0.52562 0.46163
 O58 O 0.49242 0.45290 0.50928
 O59 O 0.47375 0.47162 0.46192
 O60 O 0.54670 0.50688 0.50896
 O61 O 0.52575 0.52877 0.53867
 O62 O 0.45280 0.49351 0.49162
 O63 O 0.47148 0.47479 0.53899
 O64 O 0.50707 0.54750 0.49135
 Cu65 Cu 0.51233 0.48704 0.48245
 Cu66 Cu 0.48716 0.51335 0.51815
 C67 C 0.52333 0.54872 0.46832
 C68 C 0.47619 0.45170 0.53232
 C69 C 0.45108 0.47685 0.46868
 C70 C 0.54842 0.52355 0.53190
 O71 O 0.54748 0.04039 0.50829
 O72 O 0.47464 0.00277 0.46105
 O73 O 0.49338 0.04035 0.50842
 O74 O 0.52871 0.00277 0.46097
 O75 O 0.50744 -0.04004 0.49068
 O76 O 0.47211 -0.00247 0.53812
 O77 O 0.45336 -0.04005 0.49075
 O78 O 0.52620 -0.00242 0.53800
 Cu79 Cu 0.51319 0.02588 0.48169
 Cu80 Cu 0.48763 -0.02556 0.51738
 C81 C 0.54902 0.02545 0.53126
 C82 C 0.45182 -0.02511 0.46777
 C83 C 0.47702 0.02540 0.53143
 C84 C 0.52382 -0.02510 0.46767
 C85 C 0.30150 0.43088 0.23502
 C86 C 0.30143 0.43091 0.26597
 C87 C 0.27069 0.42316 0.27485
 N88 N 0.25196 0.41802 0.25037
 C89 C 0.27081 0.42309 0.22598
 C90 C 0.26018 0.41972 0.30509
 C91 C 0.22969 0.41463 0.31387
 C92 C 0.21698 0.40608 0.34271
 C93 C 0.18835 0.40613 0.34264
 C94 C 0.18432 0.41468 0.31376
 N95 N 0.20969 0.41993 0.29646
 C96 C 0.15898 0.41981 0.30483
 C97 C 0.15204 0.42318 0.27454
 C98 C 0.12905 0.43089 0.26549
 C99 C 0.12908 0.43077 0.23454
 C100 C 0.15208 0.42299 0.22567
 N101 N 0.16578 0.41800 0.25016
 C102 C 0.15910 0.41939 0.19544
 C103 C 0.18448 0.41424 0.18667
 C104 C 0.18861 0.40553 0.15786
 C105 C 0.21730 0.40559 0.15793
 C106 C 0.22993 0.41432 0.18678
 N107 N 0.20982 0.41964 0.20407
 C108 C 0.26042 0.41955 0.19570
 H109 H 0.32182 0.43591 0.22081
 H110 H 0.32168 0.43598 0.28028
 H111 H 0.21511 0.43040 0.22519
 H112 H 0.22751 0.40088 0.36196
 H113 H 0.17256 0.40097 0.36182
 H114 H 0.11377 0.43598 0.27969
 H115 H 0.11382 0.43574 0.22022
 H116 H 0.22790 0.40032 0.13876
 H117 H 0.21505 0.43057 0.27533
 H118 H 0.17286 0.40021 0.13863
 C119 C 0.56900 0.69871 0.23440
 C120 C 0.56892 0.69866 0.26535
 C121 C 0.57692 0.72955 0.27437
 N122 N 0.58224 0.74849 0.24999
 C123 C 0.57705 0.72963 0.22551
 C124 C 0.58050 0.74006 0.30464
 C125 C 0.58581 0.77072 0.31352
 C126 C 0.59455 0.78348 0.34235
 C127 C 0.59463 0.81228 0.34240
 C128 C 0.58594 0.81634 0.31360
 N129 N 0.58051 0.79086 0.29622
 C130 C 0.58079 0.84178 0.30481
 C131 C 0.57730 0.84877 0.27457
 C132 C 0.56945 0.87176 0.26565
 C133 C 0.56950 0.87179 0.23470
 C134 C 0.57737 0.84882 0.22570
 N135 N 0.58249 0.83509 0.25012
 C136 C 0.58095 0.84187 0.19545
 C137 C 0.58620 0.81649 0.18660
 C138 C 0.59503 0.81251 0.15781
 C139 C 0.59499 0.78372 0.15776
 C140 C 0.58613 0.77089 0.18653
 N141 N 0.58074 0.79098 0.20388
 C142 C 0.58079 0.74022 0.19529
 H143 H 0.56381 0.67832 0.22009
 H144 H 0.56366 0.67824 0.27957
 H145 H 0.56988 0.78556 0.22492
 H146 H 0.59981 0.77289 0.36151
 H147 H 0.59996 0.82815 0.36161
 H148 H 0.56432 0.88700 0.27994
 H149 H 0.56442 0.88706 0.22046
 H150 H 0.60034 0.77318 0.13858
 H151 H 0.56976 0.78549 0.27513
 H152 H 0.60043 0.82842 0.13867
 C153 C 0.12891 0.69850 0.23397
 C154 C 0.12888 0.69852 0.26492
 C155 C 0.15187 0.72932 0.27391
 N156 N 0.16561 0.74816 0.24950
 C157 C 0.15192 0.72931 0.22504
 C158 C 0.15886 0.73980 0.30419
 C159 C 0.18426 0.77035 0.31310
 C160 C 0.18841 0.78298 0.34201
 C161 C 0.21711 0.81168 0.34206
 C162 C 0.22971 0.81583 0.31318
 N163 N 0.20959 0.79047 0.29576
 C164 C 0.26020 0.84124 0.30434
 C165 C 0.27060 0.84833 0.27408
 C166 C 0.30129 0.87143 0.26513
 C167 C 0.30126 0.87147 0.23418
 C168 C 0.27057 0.84838 0.22521
 N169 N 0.25181 0.83458 0.24964
 C170 C 0.26013 0.84136 0.19495
 C171 C 0.22967 0.81592 0.18606
 C172 C 0.21701 0.81184 0.15721
 C173 C 0.18837 0.78309 0.15716
 C174 C 0.18429 0.77036 0.18599
 N175 N 0.20962 0.79048 0.20337
 C176 C 0.15894 0.73978 0.19480
 H177 H 0.11367 0.67815 0.21968
 H178 H 0.11361 0.67818 0.27915
 H179 H 0.21495 0.78512 0.22448
 H180 H 0.17267 0.77237 0.36122
 H181 H 0.22773 0.82743 0.36132
 H182 H 0.32157 0.88674 0.27940
 H183 H 0.32152 0.88682 0.21994
 H184 H 0.17260 0.77251 0.13795
 H185 H 0.21484 0.78518 0.27457
 H186 H 0.22756 0.82768 0.13803
 C187 C 0.69814 0.56844 0.73429
 C188 C 0.69807 0.56832 0.76525
 C189 C 0.72878 0.57611 0.77423
 N190 N 0.74762 0.58133 0.74981
 C191 C 0.72888 0.57629 0.72536
 C192 C 0.73919 0.57955 0.80449
 C193 C 0.76969 0.58476 0.81333
 C194 C 0.78236 0.59341 0.84219
 C195 C 0.81104 0.59345 0.84217
 C196 C 0.81513 0.58482 0.81330
 N197 N 0.78977 0.57948 0.79596
 C198 C 0.84047 0.57965 0.80444
 C199 C 0.84747 0.57618 0.77417
 C200 C 0.87042 0.56837 0.76519
 C201 C 0.87045 0.56841 0.73424
 C202 C 0.84752 0.57625 0.72530
 N203 N 0.83381 0.58135 0.74975
 C204 C 0.84060 0.57981 0.69506
 C205 C 0.81528 0.58502 0.68623
 C206 C 0.81124 0.59370 0.65741
 C207 C 0.78260 0.59375 0.65743
 C208 C 0.76991 0.58508 0.68626
 N209 N 0.78993 0.57972 0.70359
 C210 C 0.73941 0.57992 0.69512
 H211 H 0.67787 0.56341 0.72002
 H212 H 0.67775 0.56319 0.77949
 H213 H 0.78458 0.56900 0.72469
 H214 H 0.77178 0.59862 0.86141
 H215 H 0.82682 0.59870 0.86137
 H216 H 0.88563 0.56326 0.77943
 H217 H 0.88570 0.56334 0.71996
 H218 H 0.77206 0.59901 0.63825
 H219 H 0.78446 0.56878 0.77482
 H220 H 0.82702 0.59893 0.63821
 C221 C 0.43011 0.12855 0.73495
 C222 C 0.43013 0.12850 0.76590
 C223 C 0.42250 0.15163 0.77496
 N224 N 0.41745 0.16546 0.75058
 C225 C 0.42248 0.15170 0.72609
 C226 C 0.41917 0.15868 0.80526
 C227 C 0.41406 0.18413 0.81422
 C228 C 0.40562 0.18825 0.84314
 C229 C 0.40561 0.21700 0.84324
 C230 C 0.41405 0.22968 0.81438
 N231 N 0.41924 0.20953 0.79692
 C232 C 0.41916 0.26028 0.80561
 C233 C 0.42261 0.27081 0.77538
 C234 C 0.43037 0.30166 0.76652
 C235 C 0.43039 0.30171 0.73557
 C236 C 0.42263 0.27090 0.72651
 N237 N 0.41752 0.25200 0.75088
 C238 C 0.41917 0.26047 0.69622
 C239 C 0.41402 0.22988 0.68726
 C240 C 0.40542 0.21722 0.65838
 C241 C 0.40540 0.18845 0.65828
 C242 C 0.41399 0.18430 0.68710
 N243 N 0.41929 0.20971 0.70454
 C244 C 0.41910 0.15882 0.69585
 H245 H 0.43508 0.11321 0.72063
 H246 H 0.43511 0.11313 0.78010
 H247 H 0.42995 0.21501 0.72567
 H248 H 0.40053 0.17246 0.86233
 H249 H 0.40050 0.22763 0.86251
 H250 H 0.43543 0.32200 0.78084
 H251 H 0.43546 0.32210 0.72137
 H252 H 0.40017 0.17265 0.63903
 H253 H 0.42977 0.21484 0.77574
 H254 H 0.40021 0.22785 0.63923
 C255 C 0.69861 0.12948 0.76512
 C256 C 0.69872 0.12946 0.73416
 C257 C 0.72954 0.15230 0.72530
 N258 N 0.74828 0.16593 0.74980
 C259 C 0.72936 0.15233 0.77417
 C260 C 0.74012 0.15922 0.69508
 C261 C 0.77074 0.18446 0.68633
 C262 C 0.78349 0.18845 0.65753
 C263 C 0.81227 0.21706 0.65763
 C264 C 0.81634 0.22979 0.68648
 N265 N 0.79087 0.20981 0.70376
 C266 C 0.84179 0.26029 0.69541
 C267 C 0.84869 0.27080 0.72568
 C268 C 0.87175 0.30157 0.73469
 C269 C 0.87161 0.30160 0.76565
 C270 C 0.84848 0.27084 0.77455
 N271 N 0.83481 0.25200 0.75008
 C272 C 0.84134 0.26037 0.80478
 C273 C 0.81584 0.22986 0.81355
 C274 C 0.81161 0.21709 0.84237
 C275 C 0.78284 0.18846 0.84228
 C276 C 0.77026 0.18452 0.81340
 N277 N 0.79048 0.20991 0.79612
 C278 C 0.73972 0.15927 0.80446
 H279 H 0.67822 0.11433 0.77931
 H280 H 0.67844 0.11429 0.71984
 H281 H 0.78526 0.21535 0.77500
 H282 H 0.77290 0.17266 0.63829
 H283 H 0.82813 0.22756 0.63847
 H284 H 0.88714 0.32187 0.72047
 H285 H 0.88688 0.32193 0.77995
 H286 H 0.77216 0.17263 0.86143
 H287 H 0.78554 0.21523 0.72486
 H288 H 0.82736 0.22755 0.86161
 C289 C 0.04034 0.46334 0.05056
 C290 C 0.05369 0.45405 0.06741
 C291 C 0.07012 0.44416 0.08819
 C292 C 0.09947 0.44660 0.08008
 C293 C 0.11666 0.43942 0.10114
 C294 C 0.10458 0.42977 0.13038
 C295 C 0.07495 0.42676 0.13831
 C296 C 0.05776 0.43393 0.11726
 C297 C 0.12340 0.42492 0.15278
 C298 C 0.13946 0.42186 0.17196
 H299 H 0.10935 0.45470 0.05773
 H300 H 0.13965 0.44203 0.09484
 H301 H 0.06550 0.41953 0.16092
 H302 H 0.03521 0.43217 0.12383
 C303 C 0.53585 0.57607 0.05102
 C304 C 0.54534 0.59889 0.06777
 C305 C 0.55547 0.62547 0.08841
 C306 C 0.56585 0.62349 0.11745
 C307 C 0.57321 0.64810 0.13839
 C308 C 0.57023 0.67479 0.13038
 C309 C 0.56048 0.67710 0.10115
 C310 C 0.55312 0.65247 0.08020
 C311 C 0.57517 0.69868 0.15270
 C312 C 0.57828 0.71796 0.17184
 H313 H 0.56758 0.60263 0.12409
 H314 H 0.58054 0.64599 0.16099
 H315 H 0.55792 0.69755 0.09479
 H316 H 0.54493 0.65415 0.05786
 C317 C 0.42364 0.96009 0.05076
 C318 C 0.40098 0.94678 0.06756
 C319 C 0.37459 0.93039 0.08827
 C320 C 0.34734 0.90138 0.07984
 C321 C 0.32283 0.88420 0.10078
 C322 C 0.32549 0.89598 0.13022
 C323 C 0.35246 0.92528 0.13848
 C324 C 0.37696 0.94245 0.11755
 C325 C 0.30162 0.87712 0.15247
 C326 C 0.28237 0.86104 0.17155
 H327 H 0.34537 0.89172 0.05732
 H328 H 0.30217 0.86146 0.09423
 H329 H 0.35487 0.93448 0.16125
 H330 H 0.39802 0.96474 0.12437
 C331 C 0.95964 0.53515 0.55077
 C332 C 0.94625 0.54446 0.56759
 C333 C 0.92977 0.55444 0.58829
 C334 C 0.94196 0.56460 0.61743
 C335 C 0.92474 0.57192 0.63837
 C336 C 0.89526 0.56912 0.63025
 C337 C 0.88335 0.55955 0.60093
 C338 C 0.90058 0.55222 0.57999
 C339 C 0.87637 0.57409 0.65253
 C340 C 0.86027 0.57724 0.67164
 H341 H 0.96440 0.56620 0.62415
 H342 H 0.93405 0.57908 0.66104
 H343 H 0.86048 0.55710 0.59448
 H344 H 0.89083 0.54418 0.55757
 C345 C 0.46383 0.42413 0.55178
 C346 C 0.45445 0.40149 0.56869
 C347 C 0.44447 0.37510 0.58947
 C348 C 0.44593 0.34763 0.58103
 C349 C 0.43867 0.32313 0.60204
 C350 C 0.42993 0.32603 0.63154
 C351 C 0.42789 0.35321 0.63981
 C352 C 0.43513 0.37770 0.61881
 C353 C 0.42495 0.30214 0.65381
 C354 C 0.42178 0.28282 0.67287
 H355 H 0.45332 0.34547 0.55846
 H356 H 0.44052 0.30230 0.59547
 H357 H 0.42136 0.35579 0.66262
 H358 H 0.43411 0.39892 0.62563
 C359 C 0.57666 0.04079 0.55055
 C360 C 0.59936 0.05412 0.56733
 C361 C 0.62580 0.07051 0.58801
 C362 C 0.65264 0.09998 0.57993
 C363 C 0.67714 0.11713 0.60091
 C364 C 0.67488 0.10487 0.63005
 C365 C 0.64835 0.07511 0.63794
 C366 C 0.62386 0.05796 0.61697
 C367 C 0.69869 0.12365 0.65241
 C368 C 0.71790 0.13965 0.67158
 H369 H 0.65429 0.11000 0.55766
 H370 H 0.69747 0.14022 0.59464
 H371 H 0.64627 0.06551 0.66047
 H372 H 0.60313 0.03530 0.62352
 C373 C 0.46492 0.04043 0.94957
 C374 C 0.45551 0.05372 0.93274
 C375 C 0.44541 0.07000 0.91196
 C376 C 0.44594 0.09845 0.92060
 C377 C 0.43849 0.11554 0.89962
 C378 C 0.43047 0.10424 0.86993
 C379 C 0.42938 0.07551 0.86144
 C380 C 0.43682 0.05842 0.88241
 C381 C 0.42528 0.12303 0.84769
 C382 C 0.42194 0.13906 0.82862
 H383 H 0.45275 0.10774 0.94333
 H384 H 0.43961 0.13786 0.90636
 H385 H 0.42345 0.06669 0.83849
 H386 H 0.43655 0.03658 0.87542
 C387 C 0.57585 0.53486 0.94889
 C388 C 0.59849 0.54416 0.93206
 C389 C 0.62486 0.55410 0.91135
 C390 C 0.62270 0.56417 0.88221
 C391 C 0.64716 0.57144 0.86125
 C392 C 0.67388 0.56869 0.86934
 C393 C 0.67635 0.55921 0.89864
 C394 C 0.65187 0.55192 0.91962
 C395 C 0.69770 0.57369 0.84704
 C396 C 0.71694 0.57689 0.82792
 H397 H 0.60183 0.56573 0.87552
 H398 H 0.64492 0.57854 0.83859
 H399 H 0.69682 0.55680 0.90507
 H400 H 0.65369 0.54396 0.94202
 C401 C 0.96003 0.42409 0.94937
 C402 C 0.94673 0.40130 0.93258
 C403 C 0.93034 0.37478 0.91189
 C404 C 0.90100 0.34785 0.92004
 C405 C 0.88382 0.32329 0.89904
 C406 C 0.89592 0.32560 0.86981
 C407 C 0.92555 0.35222 0.86186
 C408 C 0.94273 0.37676 0.88285
 C409 C 0.87707 0.30179 0.84744
 C410 C 0.86099 0.28257 0.82827
 H411 H 0.89110 0.34617 0.94237
 H412 H 0.86083 0.30290 0.90536
 H413 H 0.93502 0.35434 0.83926
 H414 H 0.96529 0.39757 0.87625
 C415 C 0.53549 0.96040 0.44936
 C416 C 0.54498 0.94712 0.43257
 C417 C 0.55514 0.93077 0.41187
 C418 C 0.56527 0.94311 0.38277
 C419 C 0.57267 0.92595 0.36178
 C420 C 0.56998 0.89640 0.36979
 C421 C 0.56046 0.88436 0.39906
 C422 C 0.55304 0.90151 0.42006
 C423 C 0.57501 0.87756 0.34743
 C424 C 0.57820 0.86147 0.32827
 H425 H 0.56677 0.96560 0.37613
 H426 H 0.57980 0.93537 0.33914
 H427 H 0.55811 0.86142 0.40542
 H428 H 0.54503 0.89165 0.44243
 C429 C 0.42342 0.46457 0.44945
 C430 C 0.40072 0.45520 0.43270
 C431 C 0.37430 0.44517 0.41204
 C432 C 0.34756 0.44791 0.42017
 C433 C 0.32307 0.44056 0.39920
 C434 C 0.32525 0.43046 0.37005
 C435 C 0.35169 0.42713 0.36212
 C436 C 0.37616 0.43447 0.38307
 C437 C 0.30150 0.42547 0.34771
 C438 C 0.28233 0.42231 0.32856
 H439 H 0.34598 0.45636 0.44244
 H440 H 0.30282 0.44341 0.40550
 H441 H 0.35372 0.41955 0.33958
 H442 H 0.39683 0.43247 0.37649
 C443 C 0.04031 0.57600 0.44839
 C444 C 0.05349 0.59872 0.43157
 C445 C 0.06980 0.62519 0.41088
 C446 C 0.09871 0.65253 0.41931
 C447 C 0.11589 0.67708 0.39837
 C448 C 0.10422 0.67436 0.36891
 C449 C 0.07501 0.64731 0.36066
 C450 C 0.05784 0.62277 0.38160
 C451 C 0.12309 0.69824 0.34665
 C452 C 0.13919 0.71752 0.32757
 H453 H 0.10829 0.65454 0.44184
 H454 H 0.13856 0.69781 0.40492
 H455 H 0.06589 0.64486 0.33788
 H456 H 0.03563 0.60164 0.37478
 C457 C 0.95916 0.53482 0.94863
 C458 C 0.94581 0.54420 0.93187
 C459 C 0.92939 0.55421 0.91121
 C460 C 0.94158 0.56426 0.88206
 C461 C 0.92439 0.57155 0.86112
 C462 C 0.89494 0.56883 0.86924
 C463 C 0.88302 0.55936 0.89855
 C464 C 0.90022 0.55206 0.91950
 C465 C 0.87611 0.57383 0.84695
 C466 C 0.86007 0.57702 0.82785
 H467 H 0.96400 0.56579 0.87535
 H468 H 0.93370 0.57863 0.83845
 H469 H 0.86017 0.55698 0.90499
 H470 H 0.89047 0.54410 0.94191
 C471 C 0.46445 0.42433 0.95016
 C472 C 0.45492 0.40150 0.93341
 C473 C 0.44475 0.37493 0.91274
 C474 C 0.43416 0.37686 0.88378
 C475 C 0.42679 0.35229 0.86279
 C476 C 0.42996 0.32568 0.87067
 C477 C 0.43994 0.32342 0.89981
 C478 C 0.44732 0.34801 0.92081
 C479 C 0.42496 0.30182 0.84828
 C480 C 0.42178 0.28256 0.82910
 H481 H 0.43229 0.39767 0.87724
 H482 H 0.41931 0.35437 0.84025
 H483 H 0.44267 0.30304 0.90607
 H484 H 0.45569 0.34637 0.94308
 C485 C 0.57596 0.04096 0.94860
 C486 C 0.59856 0.05417 0.93171
 C487 C 0.62477 0.07033 0.91079
 C488 C 0.65396 0.09673 0.92021
 C489 C 0.67849 0.11385 0.89925
 C490 C 0.67389 0.10462 0.86883
 C491 C 0.64493 0.07788 0.85954
 C492 C 0.62044 0.06077 0.88047
 C493 C 0.69796 0.12357 0.84678
 C494 C 0.71735 0.13966 0.82780
 H495 H 0.65750 0.10444 0.94357
 H496 H 0.70072 0.13461 0.90663
 H497 H 0.64106 0.07067 0.83604
 H498 H 0.59790 0.04053 0.87291
 C499 C 0.04046 0.46492 0.44934
 C500 C 0.05378 0.45553 0.43250
 C501 C 0.07014 0.44547 0.41174
 C502 C 0.05795 0.43550 0.38257
 C503 C 0.07507 0.42813 0.36157
 C504 C 0.10445 0.43069 0.36965
 C505 C 0.11636 0.44007 0.39899
 C506 C 0.09923 0.44745 0.42001
 C507 C 0.12325 0.42566 0.34731
 C508 C 0.13931 0.42246 0.32820
 H509 H 0.03558 0.43409 0.37588
 H510 H 0.06576 0.42111 0.33888
 H511 H 0.13916 0.44232 0.40541
 H512 H 0.10898 0.45533 0.44244
 C513 C 0.53576 0.57633 0.44891
 C514 C 0.54521 0.59903 0.43207
 C515 C 0.55528 0.62548 0.41137
 C516 C 0.56484 0.62303 0.38208
 C517 C 0.57212 0.64755 0.36113
 C518 C 0.56987 0.67463 0.36938
 C519 C 0.56094 0.67740 0.39884
 C520 C 0.55365 0.65286 0.41980
 C521 C 0.57480 0.69849 0.34710
 C522 C 0.57792 0.71776 0.32801
 H523 H 0.56599 0.60188 0.37526
 H524 H 0.57881 0.64509 0.33835
 H525 H 0.55894 0.69815 0.40539
 H526 H 0.54609 0.65491 0.44233
 C527 C 0.42418 0.95955 0.44849
 C528 C 0.40147 0.94622 0.43172
 C529 C 0.37500 0.92984 0.41108
 C530 C 0.34811 0.90043 0.41923
 C531 C 0.32351 0.88333 0.39832
 C532 C 0.32572 0.89557 0.36918
 C533 C 0.35233 0.92525 0.36121
 C534 C 0.37690 0.94235 0.38211
 C535 C 0.30180 0.87682 0.34690
 C536 C 0.28250 0.86082 0.32778
 H537 H 0.34648 0.89043 0.44150
 H538 H 0.30314 0.86030 0.40465
 H539 H 0.35438 0.93482 0.33867
 H540 H 0.39768 0.96496 0.37550
 C541 C 0.53546 0.95993 0.05077
 C542 C 0.54487 0.94666 0.06761
 C543 C 0.55499 0.93040 0.08840
 C544 C 0.55354 0.90144 0.08007
 C545 C 0.56101 0.88440 0.10110
 C546 C 0.56993 0.89626 0.13054
 C547 C 0.57196 0.92551 0.13869
 C548 C 0.56451 0.94255 0.11767
 C549 C 0.57505 0.87752 0.15289
 C550 C 0.57830 0.86150 0.17203
 H551 H 0.54601 0.89172 0.05756
 H552 H 0.55916 0.86170 0.09463
 H553 H 0.57861 0.93478 0.16144
 H554 H 0.56551 0.96480 0.12441
 C555 C 0.42379 0.46410 0.05136
 C556 C 0.40117 0.45483 0.06821
 C557 C 0.37483 0.44492 0.08895
 C558 C 0.34769 0.44684 0.08061
 C559 C 0.32322 0.43955 0.10158
 C560 C 0.32580 0.43032 0.13096
 C561 C 0.35266 0.42784 0.13912
 C562 C 0.37712 0.43512 0.11816
 C563 C 0.30196 0.42532 0.15324
 C564 C 0.28270 0.42214 0.17233
 H565 H 0.34578 0.45461 0.05815
 H566 H 0.30265 0.44175 0.09510
 H567 H 0.35500 0.42095 0.16184
 H568 H 0.39809 0.43377 0.12491
 C569 C 0.04031 0.57552 0.05060
 C570 C 0.05363 0.59831 0.06737
 C571 C 0.07003 0.62487 0.08801
 C572 C 0.09931 0.65184 0.07977
 C573 C 0.11649 0.67648 0.10070
 C574 C 0.10445 0.67423 0.12994
 C575 C 0.07489 0.64755 0.13800
 C576 C 0.05771 0.62293 0.11708
 C577 C 0.12328 0.69816 0.15223
 C578 C 0.13933 0.71747 0.17135
 H579 H 0.10915 0.65348 0.05743
 H580 H 0.13943 0.69690 0.09431
 H581 H 0.06547 0.64546 0.16061
 H582 H 0.03521 0.60209 0.12375
 C583 C 0.46471 0.04072 0.55082
 C584 C 0.45531 0.05401 0.56770
 C585 C 0.44521 0.07033 0.58851
 C586 C 0.44733 0.09963 0.58043
 C587 C 0.43988 0.11671 0.60150
 C588 C 0.43028 0.10454 0.63073
 C589 C 0.42758 0.07495 0.63862
 C590 C 0.43502 0.05788 0.61756
 C591 C 0.42513 0.12326 0.65314
 C592 C 0.42182 0.13924 0.67234
 H593 H 0.45537 0.10958 0.55809
 H594 H 0.44224 0.13967 0.59522
 H595 H 0.42038 0.06542 0.66122
 H596 H 0.43347 0.03534 0.62411
 C597 C 0.57607 0.53583 0.55112
 C598 C 0.59878 0.54516 0.56786
 C599 C 0.62522 0.55512 0.58848
 C600 C 0.65205 0.55261 0.58017
 C601 C 0.67655 0.55985 0.60108
 C602 C 0.67429 0.56960 0.63037
 C603 C 0.64776 0.57269 0.63848
 C604 C 0.62327 0.56546 0.61758
 C605 C 0.69807 0.57445 0.65263
 C606 C 0.71726 0.57749 0.67172
 H607 H 0.65368 0.54442 0.55779
 H608 H 0.69687 0.55718 0.59464
 H609 H 0.64567 0.57999 0.66113
 H610 H 0.60253 0.56727 0.62431
 C611 C 0.96068 0.42346 0.55082
 C612 C 0.94750 0.40078 0.56769
 C613 C 0.93119 0.37439 0.58846
 C614 C 0.94312 0.37693 0.61777
 C615 C 0.92592 0.35251 0.63880
 C616 C 0.89671 0.32543 0.63060
 C617 C 0.88508 0.32256 0.60111
 C618 C 0.90229 0.34700 0.58008
 C619 C 0.87778 0.30168 0.65293
 C620 C 0.86160 0.28249 0.67204
 H621 H 0.96534 0.39809 0.62455
 H622 H 0.93501 0.35507 0.66160
 H623 H 0.86241 0.30181 0.59460
 H624 H 0.89273 0.34487 0.55753
   
