data_POSCAR
  _audit_creation_date              2014-09-24
  _audit_creation_method            'ToBaCCo'
  _symmetry_space_group_name_H-M    'P1'
  _symmetry_Int_Tables_number       1
  _symmetry_cell_setting            triclinic
  loop_
  _symmetry_equiv_pos_as_xyz
 x,y,z
_cell_length_a 35.3617
_cell_length_b 34.9084
_cell_length_c 15.0099
_cell_angle_alpha 89.543300
_cell_angle_beta 90.032400
_cell_angle_gamma 118.812700
loop_
  _atom_site_label
  _atom_site_type_symbol
  _atom_site_fract_x
  _atom_site_fract_y
  _atom_site_fract_z
C1 C 0.14198 0.51099 0.49948
 C2 C 0.14194 0.50574 0.40861
 C3 C 0.16032 0.47906 0.39269
 N4 N 0.17193 0.46838 0.47111
 C5 C 0.16085 0.48787 0.53609
 C6 C 0.16802 0.46596 0.30792
 C7 C 0.19975 0.45228 0.29826
 C8 C 0.20262 0.42818 0.22781
 C9 C 0.24082 0.42713 0.23743
 C10 C 0.25995 0.44981 0.31446
 N11 N 0.23455 0.46464 0.35150
 C12 C 0.30188 0.46089 0.34441
 C13 C 0.31485 0.47564 0.43125
 C14 C 0.35685 0.50027 0.46098
 C15 C 0.35434 0.50253 0.55177
 C16 C 0.31116 0.47730 0.57437
 N17 N 0.28712 0.46182 0.50036
 C18 C 0.29324 0.46581 0.66065
 C19 C 0.25022 0.45809 0.67367
 C20 C 0.22369 0.43872 0.74749
 C21 C 0.18834 0.44497 0.73795
 C22 C 0.19322 0.46613 0.65722
 N23 N 0.23040 0.47355 0.61798
 C24 C 0.16771 0.48435 0.62771
 H25 H 0.13059 0.53055 0.53421
 H26 H 0.13169 0.52188 0.36036
 H27 H 0.24400 0.49373 0.56239
 H28 H 0.17994 0.41339 0.17394
 H29 H 0.25329 0.41224 0.19142
 H30 H 0.38624 0.51595 0.42227
 H31 H 0.38122 0.52175 0.59513
 H32 H 0.16219 0.43550 0.78531
 H33 H 0.24322 0.48662 0.40402
 H34 H 0.22857 0.42199 0.80341
 C35 C 0.53127 -0.34820 0.42461
 C36 C 0.53051 -0.35098 0.51659
 C37 C 0.52194 -0.31866 0.54775
 N38 N 0.51924 -0.29545 0.47718
 C39 C 0.52533 -0.31285 0.40169
 C40 C 0.51490 -0.31041 0.63776
 C41 C 0.50787 -0.27455 0.65457
 C42 C 0.48081 -0.27349 0.72044
 C43 C 0.48952 -0.23089 0.72717
 C44 C 0.52109 -0.20735 0.66429
 N45 N 0.53132 -0.23431 0.61838
 C46 C 0.54261 -0.16154 0.65596
 C47 C 0.55924 -0.14124 0.57334
 C48 C 0.58345 -0.09673 0.55730
 C49 C 0.58905 -0.09173 0.46644
 C50 C 0.56840 -0.13344 0.43095
 N51 N 0.55023 -0.16348 0.49625
 C52 C 0.56340 -0.14341 0.33976
 C53 C 0.54610 -0.18672 0.30723
 C54 C 0.53166 -0.19865 0.22103
 C55 C 0.51944 -0.24214 0.21365
 C56 C 0.52583 -0.25664 0.29628
 N57 N 0.54274 -0.22209 0.35271
 C58 C 0.52081 -0.29929 0.31399
 H59 H 0.53641 -0.36965 0.38095
 H60 H 0.53635 -0.37398 0.55423
 H61 H 0.55520 -0.22156 0.41571
 H62 H 0.45814 -0.30049 0.76141
 H63 H 0.47480 -0.21852 0.77390
 H64 H 0.59543 -0.07061 0.60539
 H65 H 0.60603 -0.06100 0.43060
 H66 H 0.50896 -0.25987 0.15198
 H67 H 0.55720 -0.22481 0.57433
 H68 H 0.53051 -0.17810 0.16791
 C69 C 1.35001 0.88017 0.46350
 C70 C 1.34921 0.88350 0.55464
 C71 C 1.32503 0.84138 0.58792
 N72 N 1.31106 0.81250 0.51980
 C73 C 1.32638 0.83605 0.44341
 C74 C 1.31478 0.82961 0.67906
 C75 C 1.28201 0.78728 0.70391
 C76 C 1.28053 0.76681 0.78460
 C77 C 1.24110 0.72999 0.78953
 C78 C 1.21970 0.72857 0.71135
 N79 N 1.24527 0.76288 0.65797
 C80 C 1.17730 0.69599 0.69159
 C81 C 1.16869 0.67645 0.60688
 C82 C 1.13822 0.63387 0.58764
 C83 C 1.13945 0.62924 0.49787
 C84 C 1.17269 0.66818 0.46552
 N85 N 1.19132 0.69652 0.53272
 C86 C 1.18543 0.67743 0.37583
 C87 C 1.22599 0.71178 0.34870
 C88 C 1.24512 0.71203 0.26830
 C89 C 1.28299 0.75069 0.26367
 C90 C 1.28553 0.77399 0.34032
 N91 N 1.25101 0.74934 0.39318
 C92 C 1.31760 0.81806 0.35612
 H93 H 1.36456 0.90755 0.41764
 H94 H 1.36306 0.91379 0.59118
 H95 H 1.24245 0.76000 0.45029
 H96 H 1.30530 0.77745 0.83517
 H97 H 1.22989 0.70642 0.84372
 H98 H 1.11983 0.60712 0.63307
 H99 H 1.11977 0.59917 0.46363
 H100 H 1.30598 0.76039 0.20940
 H101 H 1.23599 0.77208 0.59915
 H102 H 1.23317 0.68657 0.21864
 C103 C 0.88215 0.53859 0.54190
 C104 C 0.88575 0.54380 0.45070
 C105 C 0.84429 0.52800 0.41825
 N106 N 0.81552 0.51203 0.48603
 C107 C 0.83836 0.51804 0.56200
 C108 C 0.83324 0.52812 0.32769
 C109 C 0.79333 0.52491 0.30130
 C110 C 0.77895 0.52034 0.21414
 C111 C 0.74230 0.52482 0.21498
 C112 C 0.73522 0.53210 0.30270
 N113 N 0.76634 0.53182 0.35489
 C114 C 0.70357 0.54342 0.33067
 C115 C 0.69256 0.54462 0.42077
 C116 C 0.66695 0.56188 0.45159
 C117 C 0.66274 0.55476 0.54225
 C118 C 0.68497 0.53236 0.56336
 N119 N 0.70310 0.52632 0.48901
 C120 C 0.68933 0.51741 0.64855
 C121 C 0.71674 0.49889 0.65894
 C122 C 0.70982 0.46571 0.71884
 C123 C 0.74615 0.46109 0.71669
 C124 C 0.77436 0.49203 0.65637
 N125 N 0.75556 0.51385 0.61878
 C126 C 0.81851 0.50451 0.64719
 H127 H 0.90917 0.55095 0.58692
 H128 H 0.91562 0.55929 0.41313
 H129 H 0.77093 0.54175 0.57852
 H130 H 0.79413 0.51579 0.15556
 H131 H 0.72389 0.52434 0.15698
 H132 H 0.65312 0.57840 0.41318
 H133 H 0.64592 0.56569 0.58665
 H134 H 0.75182 0.43861 0.75728
 H135 H 0.77188 0.54138 0.42113
 H136 H 0.68183 0.44745 0.76097
 C137 C 0.47756 0.13429 0.45829
 C138 C 0.47456 0.12990 0.54967
 C139 C 0.45028 0.14909 0.57809
 N140 N 0.44005 0.16646 0.50673
 C141 C 0.45686 0.15777 0.43391
 C142 C 0.43696 0.15155 0.66649
 C143 C 0.41965 0.18004 0.68175
 C144 C 0.39073 0.17570 0.74892
 C145 C 0.39095 0.21510 0.75428
 C146 C 0.41911 0.24178 0.68887
 N147 N 0.43545 0.21991 0.64333
 C148 C 0.43423 0.28689 0.67918
 C149 C 0.44813 0.30670 0.59482
 C150 C 0.47600 0.35062 0.57652
 C151 C 0.47805 0.35510 0.48582
 C152 C 0.45307 0.31359 0.45247
 N153 N 0.43490 0.28400 0.51855
 C154 C 0.44489 0.30357 0.36234
 C155 C 0.43933 0.26337 0.32947
 C156 C 0.42697 0.24772 0.24402
 C157 C 0.42852 0.20890 0.23962
 C158 C 0.44160 0.20201 0.32279
 N159 N 0.44831 0.23542 0.37662
 C160 C 0.45075 0.16789 0.34546
 H161 H 0.49444 0.12284 0.41508
 H162 H 0.49065 0.11610 0.58861
 H163 H 0.46213 0.24073 0.43969
 H164 H 0.37287 0.14775 0.79230
 H165 H 0.37354 0.22367 0.80241
 H166 H 0.49460 0.37668 0.62237
 H167 H 0.49694 0.38505 0.44842
 H168 H 0.42158 0.18853 0.18139
 H169 H 0.46134 0.23401 0.59873
 H170 H 0.41850 0.26296 0.19024
 C171 C 0.66518 0.12225 0.56542
 C172 C 0.66447 0.11820 0.47425
 C173 C 0.69086 0.15961 0.44003
 N174 N 0.70725 0.18887 0.50704
 C175 C 0.69131 0.16627 0.58404
 C176 C 0.69947 0.17044 0.34859
 C177 C 0.73398 0.21120 0.32031
 C178 C 0.73776 0.23000 0.23676
 C179 C 0.77754 0.26707 0.23359
 C180 C 0.79721 0.26976 0.31500
 N181 N 0.77024 0.23573 0.36765
 C182 C 0.84030 0.30089 0.33618
 C183 C 0.85749 0.30536 0.42191
 C184 C 0.90112 0.32609 0.44275
 C185 C 0.90361 0.32579 0.53377
 C186 C 0.86146 0.30504 0.56443
 N187 N 0.83338 0.29253 0.49631
 C188 C 0.84870 0.30121 0.65336
 C189 C 0.80508 0.27758 0.67796
 C190 C 0.78711 0.28679 0.75079
 C191 C 0.74441 0.25554 0.75259
 C192 C 0.73798 0.22698 0.68274
 N193 N 0.77502 0.24166 0.63579
 C194 C 0.70077 0.18582 0.66975
 H195 H 0.64990 0.09526 0.61196
 H196 H 0.64773 0.08797 0.43778
 H197 H 0.78095 0.22505 0.58491
 H198 H 0.71439 0.21811 0.18336
 H199 H 0.79078 0.28901 0.17703
 H200 H 0.92831 0.33991 0.39731
 H201 H 0.93294 0.33977 0.57271
 H202 H 0.72100 0.25405 0.80078
 H203 H 0.77800 0.22659 0.42820
 H204 H 0.80299 0.31361 0.79680
 O205 O 0.95784 0.52416 -0.16291
 O206 O 1.04057 0.53608 0.22062
 O207 O 0.92133 0.47927 0.08281
 O208 O 1.05238 0.59672 -0.04414
 O209 O 0.97799 0.53571 0.13505
 O210 O 1.03923 0.56902 -0.17374
 O211 O 1.05389 0.57685 0.10407
 O212 O 0.91290 0.46837 -0.08026
 C213 C 0.92033 0.49827 -0.13719
 C214 C 1.06529 0.57327 0.18163
 C215 C 0.93799 0.51513 0.12498
 C216 C 1.05529 0.60219 -0.12526
 O217 O 1.04322 0.49628 -0.18117
 O218 O 0.96486 0.46062 0.19155
 O219 O 0.95198 0.41719 -0.06804
 O220 O 1.09004 0.52676 0.05572
 O221 O 1.03691 0.47482 0.12553
 O222 O 0.96193 0.45342 -0.18828
 O223 O 1.09086 0.54900 -0.09905
 O224 O 0.96148 0.42666 0.07790
 Co225 Co 1.00083 0.51022 -0.16067
 Co226 Co 1.00823 0.50604 0.12454
 Co227 Co 0.94152 0.45202 0.00262
 Co228 Co 1.06641 0.55781 0.00303
 O229 O 1.00258 0.50458 -0.01354
 C230 C 1.08163 0.52116 -0.16044
 C231 C 0.95079 0.42444 0.15579
 C232 C 0.94934 0.41770 -0.14927
 C233 C 1.07543 0.49283 0.10275
 O234 O 0.46768 0.43776 -0.16054
 O235 O 0.45762 0.50663 0.17444
 O236 O 0.49266 0.41960 0.08358
 O237 O 0.41324 0.46130 -0.07500
 O238 O 0.49827 0.46885 0.18058
 O239 O 0.44352 0.49332 -0.18895
 O240 O 0.41566 0.46688 0.07332
 O241 O 0.51212 0.42573 -0.08007
 C242 C 0.48070 0.41254 -0.13192
 C243 C 0.42156 0.47644 0.15228
 C244 C 0.48448 0.42899 0.15865
 C245 C 0.40914 0.46897 -0.15201
 O246 O 0.52035 0.55572 -0.16797
 O247 O 0.56931 0.54699 0.10548
 O248 O 0.58012 0.50165 -0.04741
 O249 O 0.45884 0.55612 0.06572
 O250 O 0.52453 0.57735 0.09264
 O251 O 0.54878 0.50079 -0.17258
 O252 O 0.46634 0.55488 -0.09322
 O253 O 0.56550 0.48622 0.11473
 Co254 Co 0.49551 0.49702 -0.15511
 Co255 Co 0.51157 0.52269 0.12650
 Co256 Co 0.53349 0.46247 0.01483
 Co257 Co 0.44329 0.50922 -0.00813
 O258 O 0.49670 0.49868 -0.00572
 C259 C 0.49866 0.57390 -0.14623
 C260 C 0.58669 0.52561 0.12804
 C261 C 0.58176 0.50696 -0.12981
 C262 C 0.49417 0.58527 0.09336
 O263 O 0.56778 0.05274 -0.14855
 O264 O 0.51653 -0.03076 0.18107
 O265 O 0.58020 0.07713 0.06424
 O266 O 0.49028 -0.08450 -0.07299
 O267 O 0.54600 0.04857 0.18263
 O268 O 0.53715 -0.02796 -0.14844
 O269 O 0.53022 -0.05338 0.06175
 O270 O 0.56315 0.10300 -0.07098
 C271 C 0.58203 0.09198 -0.12765
 C272 C 0.53644 -0.04707 0.14198
 C273 C 0.58136 0.07118 0.14453
 C274 C 0.52015 -0.06785 -0.12914
 O275 O 0.45743 -0.03936 -0.16550
 O276 O 0.47060 0.04087 0.12430
 O277 O 0.48440 0.07250 -0.03633
 O278 O 0.44740 -0.10084 0.09405
 O279 O 0.43911 -0.04309 0.12716
 O280 O 0.49010 0.04604 -0.16598
 O281 O 0.42897 -0.07004 -0.03561
 O282 O 0.52595 0.10732 0.09718
 Co283 Co 0.51253 0.00771 -0.14429
 Co284 Co 0.49416 0.00415 0.14004
 Co285 Co 0.52964 0.06972 0.02004
 Co286 Co 0.48089 -0.05709 0.01904
 O287 O 0.50856 0.00672 -0.00258
 C288 C 0.42539 -0.06636 -0.11893
 C289 C 0.48954 0.08218 0.13937
 C290 C 0.47802 0.06867 -0.11960
 C291 C 0.42784 -0.08371 0.14068
 N292 N 1.13873 0.48318 0.09298
 N293 N 1.16481 0.47723 0.14780
 C294 C 1.14680 0.46918 0.23002
 C295 C 1.10763 0.46912 0.22226
 N296 N 1.10397 0.47794 0.13613
 H297 H 1.08471 0.46493 0.27421
 N298 N 0.46616 0.63392 0.13198
 N299 N 0.47142 0.66338 0.19249
 C300 C 0.50560 0.67009 0.24327
 C301 C 0.52140 0.64329 0.21041
 N302 N 0.49613 0.62185 0.14031
 H303 H 0.54871 0.64007 0.23348
 N304 N 0.35150 -0.13473 0.14295
 N305 N 0.32136 -0.16156 0.19901
 C306 C 0.33953 -0.15582 0.28057
 C307 C 0.38244 -0.12368 0.27209
 N308 N 0.38827 -0.11176 0.18539
 H309 H 0.40761 -0.11246 0.32188
 N310 N 0.92502 0.57266 0.18247
 N311 N 0.89808 0.57744 0.23681
 C312 C 0.86658 0.53698 0.25830
 C313 C 0.87505 0.50703 0.21469
 N314 N 0.91169 0.53074 0.16756
 H315 H 0.85816 0.47178 0.22185
 N316 N 0.43594 0.39510 0.28388
 N317 N 0.42286 0.36034 0.33628
 C318 C 0.44133 0.33679 0.30615
 C319 C 0.46633 0.35846 0.23300
 N320 N 0.46224 0.39466 0.22200
 H321 H 0.48848 0.35103 0.19693
 N322 N 0.65922 0.10537 0.15239
 N323 N 0.69133 0.13212 0.20405
 C324 C 0.67366 0.13799 0.27881
 C325 C 0.62906 0.11312 0.27140
 N326 N 0.62156 0.09333 0.19142
 H327 H 0.60469 0.11241 0.31605
 N328 N 0.45203 0.12090 -0.11760
 N329 N 0.44211 0.14398 -0.17351
 C330 C 0.44320 0.13050 -0.25731
 C331 C 0.45387 0.09696 -0.24941
 N332 N 0.45930 0.09252 -0.16151
 H333 H 0.45678 0.07695 -0.30036
 N334 N 0.65600 0.52232 -0.13376
 N335 N 0.68501 0.52427 -0.19161
 C336 C 0.66829 0.52076 -0.27405
 C337 C 0.62751 0.51689 -0.26423
 N338 N 0.62120 0.51772 -0.17562
 H339 H 0.60322 0.50958 -0.31483
 N340 N 0.91427 0.33893 -0.15380
 N341 N 0.88610 0.30663 -0.20344
 C342 C 0.88103 0.32527 -0.27807
 C343 C 0.90698 0.36995 -0.27321
 N344 N 0.92722 0.37706 -0.19452
 H345 H 0.90813 0.39480 -0.31848
 N346 N 0.54374 -0.12233 -0.12499
 N347 N 0.55042 -0.14762 -0.18072
 C348 C 0.54551 -0.13574 -0.26394
 C349 C 0.53584 -0.10195 -0.25741
 N350 N 0.53522 -0.09465 -0.16981
 H351 H 0.52635 -0.08698 -0.31006
 N352 N 0.33608 0.45601 -0.13374
 N353 N 0.30518 0.45689 -0.18167
 C354 C 0.31769 0.46219 -0.26783
 C355 C 0.35790 0.46390 -0.27034
 N356 N 0.36815 0.46061 -0.18572
 H357 H 0.37796 0.46647 -0.32671
 N358 N 1.11763 0.67281 -0.10898
 N359 N 1.15305 0.69671 -0.15608
 C360 C 1.14540 0.68134 -0.24015
 C361 C 1.10229 0.64945 -0.24344
 N362 N 1.08694 0.64356 -0.15999
 H363 H 1.08324 0.63057 -0.29884
 N364 N 0.85264 0.50014 -0.13386
 N365 N 0.82520 0.50211 -0.19110
 C366 C 0.84073 0.50380 -0.27450
 C367 C 0.87932 0.50307 -0.26555
 N368 N 0.88536 0.50100 -0.17756
 H369 H 0.89946 0.50039 -0.31651
 N370 N 0.46294 0.33681 -0.11402
 N371 N 0.44972 0.30168 -0.16402
 C372 C 0.43962 0.31185 -0.24442
 C373 C 0.44484 0.35363 -0.24017
 N374 N 0.46061 0.36827 -0.15922
 H375 H 0.44045 0.37281 -0.29208
 N376 N 0.65546 0.15007 -0.11674
 N377 N 0.68816 0.17484 -0.16973
 C378 C 0.67464 0.16451 -0.25490
 C379 C 0.63200 0.13172 -0.25169
 N380 N 0.62164 0.12417 -0.16489
 H381 H 0.60966 0.11642 -0.30585
 N382 N 1.15679 0.54169 -0.18685
 N383 N 1.18060 0.53312 -0.24280
 C384 C 1.15353 0.50497 -0.30362
 C385 C 1.11206 0.49607 -0.28260
 N386 N 1.11561 0.51959 -0.20916
 H387 H 1.08232 0.47388 -0.31560
 N388 N 0.51503 0.64972 -0.14494
 N389 N 0.51972 0.68076 -0.20192
 C390 C 0.51462 0.66471 -0.28575
 C391 C 0.50719 0.62189 -0.27700
 N392 N 0.50763 0.61421 -0.18859
 H393 H 0.49818 0.59715 -0.32742
 N394 N 0.34831 -0.11518 -0.11708
 N395 N 0.31805 -0.14356 -0.16996
 C396 C 0.33610 -0.14048 -0.25102
 C397 C 0.37887 -0.10801 -0.24596
 N398 N 0.38504 -0.09360 -0.16121
 H399 H 0.40409 -0.09924 -0.29532
 N400 N 0.58868 -0.07314 0.15029
 N401 N 0.59676 -0.09942 0.20151
 C402 C 0.57229 -0.10760 0.27538
 C403 C 0.54916 -0.08519 0.26805
 N404 N 0.56031 -0.06411 0.18910
 H405 H 0.52303 -0.08836 0.31047
 N406 N 0.35468 0.41716 0.20908
 N407 N 0.32109 0.41210 0.25686
 C408 C 0.33103 0.45187 0.28865
 C409 C 0.37206 0.48131 0.26025
 N410 N 0.38582 0.45826 0.21191
 H411 H 0.38890 0.51648 0.26778
 N412 N 1.11170 0.65083 0.19572
 N413 N 1.14456 0.67902 0.24360
 C414 C 1.15292 0.65571 0.30493
 C415 C 1.12382 0.61178 0.29261
 N416 N 1.09840 0.61051 0.22499
 H417 H 1.12229 0.58349 0.32559
 N418 N 0.42501 0.07811 0.20332
 N419 N 0.41322 0.10039 0.25686
 C420 C 0.44918 0.13798 0.27529
 C421 C 0.48368 0.13813 0.23170
 N422 N 0.46703 0.10012 0.18753
 H423 H 0.51759 0.16180 0.23667
 N424 N 0.65130 0.58640 0.19040
 N425 N 0.68360 0.59257 0.24386
 C426 C 0.67908 0.55265 0.26206
 C427 C 0.64305 0.52186 0.21889
 N428 N 0.62671 0.54419 0.17488
 H429 H 0.62863 0.48662 0.22357
 N430 N 0.90889 0.34631 0.14838
 N431 N 0.87783 0.31260 0.19105
 C432 C 0.86970 0.32869 0.26526
 C433 C 0.89719 0.37351 0.26755
 N434 N 0.92121 0.38295 0.19328
 H435 H 0.89931 0.39664 0.31756
   
