data_POSCAR
  _audit_creation_date              2014-09-24
  _audit_creation_method            'ToBaCCo'
  _symmetry_space_group_name_H-M    'P1'
  _symmetry_Int_Tables_number       1
  _symmetry_cell_setting            triclinic
  loop_
  _symmetry_equiv_pos_as_xyz
 x,y,z
_cell_length_a 26.0812
_cell_length_b 34.4476
_cell_length_c 27.8888
_cell_angle_alpha 89.891700
_cell_angle_beta 89.979600
_cell_angle_gamma 89.451700
loop_
  _atom_site_label
  _atom_site_type_symbol
  _atom_site_fract_x
  _atom_site_fract_y
  _atom_site_fract_z
O1 O 0.18473 0.21291 0.24163
 O2 O 0.24756 0.28721 0.31533
 O3 O 0.18531 0.28852 0.24264
 O4 O 0.24762 0.21183 0.31468
 O5 O 0.31193 0.20978 0.26345
 O6 O 0.25243 0.28952 0.19454
 O7 O 0.31494 0.28503 0.26748
 O8 O 0.24975 0.21378 0.19106
 Cu9 Cu 0.20963 0.25007 0.28347
 Cu10 Cu 0.28880 0.24957 0.22409
 C11 C 0.20632 0.20078 0.20356
 C12 C 0.29231 0.29843 0.30434
 C13 C 0.20850 0.30247 0.20655
 C14 C 0.29041 0.19747 0.30137
 O15 O 0.68464 0.28938 0.25764
 O16 O 0.74576 0.21283 0.18482
 O17 O 0.68350 0.21382 0.25833
 O18 O 0.74638 0.28830 0.18456
 O19 O 0.81416 0.28529 0.23162
 O20 O 0.74881 0.21421 0.30853
 O21 O 0.81049 0.21015 0.23573
 O22 O 0.75221 0.28993 0.30516
 Cu23 Cu 0.70838 0.25111 0.21646
 Cu24 Cu 0.78799 0.24991 0.27527
 C25 C 0.70823 0.30308 0.29358
 C26 C 0.78843 0.19826 0.19800
 C27 C 0.70521 0.20145 0.29626
 C28 C 0.79145 0.29919 0.19498
 O29 O 0.68543 0.71297 0.74107
 O30 O 0.74869 0.78744 0.81414
 O31 O 0.68638 0.78853 0.74151
 O32 O 0.74831 0.71203 0.81411
 O33 O 0.81257 0.70950 0.76286
 O34 O 0.75346 0.78911 0.69335
 O35 O 0.81604 0.78481 0.76629
 O36 O 0.75040 0.71340 0.69044
 Cu37 Cu 0.71055 0.75025 0.78263
 Cu38 Cu 0.78968 0.74920 0.72320
 C39 C 0.70690 0.70061 0.70305
 C40 C 0.79348 0.79850 0.80302
 C41 C 0.70959 0.80223 0.70528
 C42 C 0.79097 0.69743 0.80086
 O43 O 0.31414 0.78526 0.73384
 O44 O 0.24854 0.71429 0.81077
 O45 O 0.31032 0.71007 0.73794
 O46 O 0.25227 0.79004 0.80719
 O47 O 0.18468 0.78943 0.75984
 O48 O 0.24554 0.71272 0.68709
 O49 O 0.18328 0.71392 0.76052
 O50 O 0.24637 0.78812 0.68655
 Cu51 Cu 0.28789 0.74989 0.77745
 Cu52 Cu 0.20827 0.75109 0.71863
 C53 C 0.29136 0.79897 0.69718
 C54 C 0.20490 0.70158 0.79850
 C55 C 0.28822 0.69814 0.70025
 C56 C 0.20826 0.80328 0.79574
 C57 C 0.97646 -0.00164 0.00127
 C58 C 1.02855 0.00089 -0.00030
 C59 C 1.05644 0.02913 0.02990
 C60 C 1.05982 -0.02438 -0.03204
 C61 C 0.94786 -0.03193 -0.02535
 C62 C 0.94567 0.02691 0.02886
 C63 C 1.08734 0.05732 0.00842
 C64 C 1.11214 0.08495 0.03654
 C65 C 1.10682 0.08464 0.08676
 C66 C 1.07669 0.05573 0.10818
 C67 C 1.05188 0.02818 0.08002
 C68 C 1.05198 -0.02431 -0.08179
 C69 C 1.07854 -0.05061 -0.11095
 C70 C 1.11332 -0.07759 -0.09086
 C71 C 1.12227 -0.07653 -0.04110
 C72 C 1.09610 -0.04993 -0.01207
 C73 C 0.96201 -0.07135 -0.02215
 C74 C 0.93662 -0.09916 -0.04947
 C75 C 0.89551 -0.08825 -0.07919
 C76 C 0.87985 -0.04918 -0.08078
 C77 C 0.90593 -0.02125 -0.05425
 C78 C 0.91883 0.01510 0.06983
 C79 C 0.89178 0.04233 0.09727
 C80 C 0.89017 0.08152 0.08333
 C81 C 0.91592 0.09307 0.04152
 C82 C 0.94381 0.06598 0.01465
 H83 H 1.09133 0.05844 -0.03022
 H84 H 1.13461 0.10704 0.01889
 H85 H 1.07265 0.05418 0.14677
 H86 H 1.02898 0.00612 0.09728
 H87 H 1.02460 -0.00434 -0.09785
 H88 H 1.07157 -0.04994 -0.14920
 H89 H 1.10256 -0.05036 0.02629
 H90 H 0.99300 -0.08056 0.00117
 H91 H 0.94876 -0.12925 -0.04712
 H92 H 0.84823 -0.04015 -0.10351
 H93 H 0.89401 0.00887 -0.05703
 H94 H 0.91990 -0.01501 0.08110
 H95 H 0.87195 0.03284 0.12929
 H96 H 0.91536 0.12319 0.03033
 H97 H 0.96421 0.07543 -0.01707
 H98 H 1.14820 -0.09713 -0.02424
 C99 C 0.47525 0.49822 0.50264
 C100 C 0.52730 0.50095 0.50033
 C101 C 0.55543 0.52920 0.53033
 C102 C 0.55834 0.47589 0.46807
 C103 C 0.44641 0.46778 0.47649
 C104 C 0.44471 0.52675 0.53052
 C105 C 0.58605 0.55747 0.50863
 C106 C 0.61113 0.58505 0.53660
 C107 C 0.60637 0.58463 0.58686
 C108 C 0.57652 0.55565 0.60849
 C109 C 0.55145 0.52813 0.58049
 C110 C 0.54863 0.47501 0.41860
 C111 C 0.57505 0.44884 0.38917
 C112 C 0.61181 0.42313 0.40865
 C113 C 0.62279 0.42524 0.45797
 C114 C 0.59652 0.45156 0.48731
 C115 C 0.46102 0.42845 0.47933
 C116 C 0.43556 0.40057 0.45217
 C117 C 0.39393 0.41133 0.42299
 C118 C 0.37778 0.45030 0.42185
 C119 C 0.40391 0.47830 0.44822
 C120 C 0.41834 0.51495 0.57177
 C121 C 0.39149 0.54217 0.59939
 C122 C 0.38961 0.58134 0.58537
 C123 C 0.41491 0.59287 0.54331
 C124 C 0.44260 0.56580 0.51625
 H125 H 0.58961 0.55866 0.46996
 H126 H 0.63339 0.60720 0.51881
 H127 H 0.57293 0.55402 0.64711
 H128 H 0.52881 0.50601 0.59791
 H129 H 0.51986 0.49408 0.40301
 H130 H 0.56647 0.44856 0.35120
 H131 H 0.60454 0.45190 0.52541
 H132 H 0.49253 0.41938 0.50212
 H133 H 0.44811 0.37055 0.45415
 H134 H 0.34578 0.45922 0.39953
 H135 H 0.39164 0.50835 0.44571
 H136 H 0.41960 0.48486 0.58309
 H137 H 0.37200 0.53270 0.63159
 H138 H 0.41414 0.62298 0.53204
 H139 H 0.46263 0.57524 0.48432
 H140 H 0.65043 0.40564 0.47426
 C141 C 0.02592 0.50077 0.00090
 C142 C -0.02607 0.49768 -0.00191
 C143 C -0.05507 0.46705 0.02398
 C144 C -0.05637 0.52622 -0.03007
 C145 C 0.05393 0.52938 -0.02880
 C146 C 0.05707 0.47575 0.03320
 C147 C -0.03941 0.42787 0.02239
 C148 C -0.06493 0.39995 0.04958
 C149 C -0.10780 0.41044 0.07716
 C150 C -0.12522 0.44906 0.07683
 C151 C -0.09889 0.47718 0.05068
 C152 C -0.07902 0.51522 -0.07349
 C153 C -0.10517 0.54271 -0.10142
 C154 C -0.11020 0.58117 -0.08548
 C155 C -0.08879 0.59187 -0.04136
 C156 C -0.06157 0.56462 -0.01402
 C157 C 0.08300 0.55836 -0.00680
 C158 C 0.10801 0.58620 -0.03460
 C159 C 0.10465 0.58534 -0.08495
 C160 C 0.07638 0.55566 -0.10682
 C161 C 0.05145 0.52787 -0.07901
 C162 C 0.04700 0.47437 0.08260
 C163 C 0.07360 0.44817 0.11197
 C164 C 0.11090 0.42295 0.09250
 C165 C 0.12220 0.42559 0.04327
 C166 C 0.09577 0.45193 0.01400
 H167 H -0.00700 0.41896 0.00065
 H168 H -0.05143 0.37012 0.04895
 H169 H -0.15836 0.45759 0.09788
 H170 H -0.11212 0.50705 0.05218
 H171 H -0.07524 0.48565 -0.08623
 H172 H -0.12157 0.53404 -0.13538
 H173 H -0.04432 0.57342 0.01952
 H174 H 0.08543 0.55986 0.03192
 H175 H 0.12910 0.60886 -0.01666
 H176 H 0.07394 0.55371 -0.14549
 H177 H 0.03011 0.50517 -0.09661
 H178 H 0.01780 0.49304 0.09816
 H179 H 0.06473 0.44748 0.14989
 H180 H 0.15024 0.40636 0.02696
 H181 H 0.10408 0.45265 -0.02405
 H182 H -0.09221 0.62148 -0.02869
 C183 C 0.52724 1.00073 0.49962
 C184 C 0.47520 0.99805 0.49747
 C185 C 0.44627 0.96772 0.52387
 C186 C 0.44477 1.02661 0.46950
 C187 C 0.55522 1.02917 0.46966
 C188 C 0.55839 0.97550 0.53168
 C189 C 0.46067 0.92834 0.52119
 C190 C 0.43508 0.90054 0.54852
 C191 C 0.39355 0.91143 0.57774
 C192 C 0.37763 0.95045 0.57874
 C193 C 0.40388 0.97836 0.55219
 C194 C 0.42121 1.01546 0.42657
 C195 C 0.39478 1.04290 0.39881
 C196 C 0.39040 1.08147 0.41447
 C197 C 0.41275 1.09235 0.45810
 C198 C 0.44023 1.06514 0.48526
 C199 C 0.58483 1.05795 0.49140
 C200 C 0.60968 1.08574 0.46341
 C201 C 0.60562 1.08504 0.41310
 C202 C 0.57680 1.05555 0.39146
 C203 C 0.55201 1.02781 0.41948
 C204 C 0.54897 0.97444 0.58120
 C205 C 0.57554 0.94813 0.61045
 C206 C 0.61217 0.92249 0.59072
 C207 C 0.62284 0.92478 0.54134
 C208 C 0.59642 0.95122 0.51219
 H209 H 0.49210 0.91917 0.49838
 H210 H 0.44746 0.87048 0.54665
 H211 H 0.34573 0.95948 0.60109
 H212 H 0.39176 1.00845 0.55460
 H213 H 0.42448 0.98579 0.41406
 H214 H 0.37766 1.03412 0.36521
 H215 H 0.45817 1.07404 0.51844
 H216 H 0.58779 1.05936 0.53010
 H217 H 0.63118 1.10826 0.48118
 H218 H 0.57379 1.05371 0.35282
 H219 H 0.53019 1.00528 0.40205
 H220 H 0.52031 0.99346 0.59698
 H221 H 0.56719 0.94772 0.64847
 H222 H 0.65037 0.90523 0.52487
 H223 H 0.60422 0.95170 0.47404
 H224 H 0.40982 1.12206 0.47053
 C225 C 1.13110 0.15862 0.18480
 C226 C 1.18079 0.17122 0.17361
 C227 C 1.20595 0.15517 0.13361
 C228 C 1.18204 0.12708 0.10551
 C229 C 1.13234 0.11446 0.11667
 C230 C 1.10712 0.13062 0.15661
 H231 H 1.11056 0.17053 0.21524
 H232 H 1.24434 0.16411 0.12413
 H233 H 1.20279 0.11484 0.07541
 H234 H 1.06851 0.12199 0.16574
 C235 C 0.70596 0.65503 0.63308
 C236 C 0.68113 0.67106 0.67328
 C237 C 0.63152 0.65848 0.68480
 C238 C 0.60729 0.63052 0.65675
 C239 C 0.63216 0.61439 0.61662
 C240 C 0.68178 0.62699 0.60512
 H241 H 0.74428 0.66396 0.62334
 H242 H 0.61123 0.67038 0.71540
 H243 H 0.56875 0.62190 0.66615
 H244 H 0.70226 0.61477 0.57484
 C245 C -0.21015 0.34536 0.12815
 C246 C -0.18371 0.32653 0.16583
 C247 C -0.13175 0.33561 0.17348
 C248 C -0.10691 0.36236 0.14400
 C249 C -0.13374 0.38131 0.10712
 C250 C -0.18553 0.37285 0.09954
 H251 H -0.25012 0.33933 0.12107
 H252 H -0.10993 0.32174 0.20189
 H253 H -0.06691 0.36876 0.15043
 H254 H -0.20675 0.38727 0.07116
 C255 C 0.37117 0.83072 0.66732
 C256 C 0.31749 0.82766 0.66650
 C257 C 0.28902 0.85212 0.63591
 C258 C 0.31373 0.87946 0.60715
 C259 C 0.36738 0.88228 0.60778
 C260 C 0.39592 0.85755 0.63788
 H261 H 0.39406 0.81211 0.69040
 H262 H 0.24760 0.85044 0.63463
 H263 H 0.29101 0.89818 0.58405
 H264 H 0.43733 0.85946 0.63917
 C265 C -0.20556 0.65743 -0.12655
 C266 C -0.18545 0.66810 -0.17158
 C267 C -0.14073 0.64906 -0.18810
 C268 C -0.11698 0.62021 -0.16045
 C269 C -0.13666 0.61041 -0.11534
 C270 C -0.18095 0.62923 -0.09847
 H271 H -0.23977 0.67136 -0.11243
 H272 H -0.12406 0.65624 -0.22254
 H273 H -0.08261 0.60600 -0.17384
 H274 H -0.19658 0.62192 -0.06365
 C275 C 0.29422 1.15723 0.37375
 C276 C 0.31423 1.16816 0.32877
 C277 C 0.35917 1.14945 0.31218
 C278 C 0.38323 1.12068 0.33972
 C279 C 0.36364 1.11064 0.38477
 C280 C 0.31913 1.12911 0.40170
 H281 H 0.25986 1.17091 0.38791
 H282 H 0.37577 1.15685 0.27779
 H283 H 0.41775 1.10673 0.32629
 H284 H 0.30358 1.12159 0.43649
 C285 C 1.13535 -0.15370 -0.18730
 C286 C 1.18549 -0.16684 -0.17710
 C287 C 1.21210 -0.14953 -0.13887
 C288 C 1.18913 -0.12015 -0.11157
 C289 C 1.13875 -0.10757 -0.12129
 C290 C 1.11222 -0.12470 -0.15957
 H291 H 1.11338 -0.16628 -0.21623
 H292 H 1.25087 -0.15851 -0.13000
 H293 H 1.21106 -0.10716 -0.08293
 H294 H 1.07303 -0.11633 -0.16755
 C295 C 0.63257 0.34499 0.31464
 C296 C 0.68410 0.33442 0.32225
 C297 C 0.71211 0.35384 0.35776
 C298 C 0.68897 0.38304 0.38527
 C299 C 0.63721 0.39330 0.37810
 C300 C 0.60935 0.37397 0.34235
 H301 H 0.60986 0.33044 0.28773
 H302 H 0.75198 0.34655 0.36427
 H303 H 0.71174 0.39772 0.41201
 H304 H 0.56918 0.38061 0.33647
 C305 C 0.87325 -0.16945 -0.16773
 C306 C 0.81958 -0.17256 -0.16680
 C307 C 0.79107 -0.14788 -0.13660
 C308 C 0.81574 -0.12031 -0.10830
 C309 C 0.86938 -0.11748 -0.10897
 C310 C 0.89796 -0.14240 -0.13871
 H311 H 0.89617 -0.18822 -0.19052
 H312 H 0.74965 -0.14959 -0.13528
 H313 H 0.79300 -0.10145 -0.08547
 H314 H 0.93938 -0.14049 -0.14000
 C315 C 0.28973 0.35152 0.36544
 C316 C 0.31830 0.32724 0.33480
 C317 C 0.37194 0.33061 0.33371
 C318 C 0.39656 0.35755 0.36296
 C319 C 0.36791 0.38209 0.39312
 C320 C 0.31430 0.37897 0.39399
 H321 H 0.24834 0.34960 0.36691
 H322 H 0.39491 0.31215 0.31059
 H323 H 0.43794 0.35969 0.36149
 H324 H 0.29151 0.39755 0.41714
 C325 C 0.12996 0.65892 -0.18343
 C326 C 0.17914 0.67211 -0.17144
 C327 C 0.20355 0.65670 -0.13059
 C328 C 0.17940 0.62862 -0.10250
 C329 C 0.13029 0.61533 -0.11459
 C330 C 0.10581 0.63089 -0.15531
 H331 H 0.11000 0.67032 -0.21454
 H332 H 0.24150 0.66615 -0.12044
 H333 H 0.19953 0.61687 -0.07169
 H334 H 0.06765 0.62171 -0.16516
 C335 C 0.70436 1.15626 0.36685
 C336 C 0.67961 1.17188 0.32630
 C337 C 0.63028 1.15883 0.31464
 C338 C 0.60629 1.13075 0.34284
 C339 C 0.63111 1.11500 0.38328
 C340 C 0.68040 1.12813 0.39499
 H341 H 0.74246 1.16558 0.37672
 H342 H 0.61006 1.17039 0.28378
 H343 H 0.56799 1.12170 0.33329
 H344 H 0.70081 1.11623 0.42555
 C345 C 0.21188 0.35392 0.14296
 C346 C 0.18402 0.33394 0.17821
 C347 C 0.13236 0.34411 0.18588
 C348 C 0.10887 0.37320 0.15843
 C349 C 0.13658 0.39307 0.12292
 C350 C 0.18848 0.38325 0.11576
 H351 H 0.25185 0.34697 0.13645
 H352 H 0.10978 0.32913 0.21261
 H353 H 0.06861 0.37951 0.16431
 H354 H 0.21115 0.39835 0.08922
 C355 C 0.63369 0.84411 0.68467
 C356 C 0.68517 0.83358 0.67669
 C357 C 0.71288 0.85309 0.64093
 C358 C 0.68952 0.88234 0.61357
 C359 C 0.63781 0.89257 0.62111
 C360 C 0.61024 0.87314 0.65709
 H361 H 0.61121 0.82950 0.71178
 H362 H 0.75271 0.84583 0.63415
 H363 H 0.71207 0.89709 0.58664
 H364 H 0.57011 0.87976 0.66327
 C365 C 0.80146 0.16379 0.12001
 C366 C 0.81305 0.16751 0.16897
 C367 C 0.84933 0.14218 0.18973
 C368 C 0.87358 0.11367 0.16203
 C369 C 0.86275 0.11052 0.11293
 C370 C 0.82653 0.13579 0.09210
 H371 H 0.77382 0.18306 0.10308
 H372 H 0.85886 0.14437 0.22742
 H373 H 0.90166 0.09460 0.17869
 H374 H 0.81756 0.13372 0.05428
 C375 C 0.34924 0.64213 0.69185
 C376 C 0.31277 0.66736 0.67121
 C377 C 0.30089 0.66352 0.62232
 C378 C 0.32587 0.63551 0.59436
 C379 C 0.36229 0.61034 0.61506
 C380 C 0.37341 0.61360 0.66410
 H381 H 0.35900 0.64440 0.72948
 H382 H 0.27310 0.68271 0.60547
 H383 H 0.31666 0.63335 0.55659
 H384 H 0.40165 0.59461 0.68066
   
