data_POSCAR
  _audit_creation_date              2014-09-24
  _audit_creation_method            'ToBaCCo'
  _symmetry_space_group_name_H-M    'P1'
  _symmetry_Int_Tables_number       1
  _symmetry_cell_setting            triclinic
  loop_
  _symmetry_equiv_pos_as_xyz
 x,y,z
_cell_length_a 22.6264
_cell_length_b 22.5967
_cell_length_c 22.7686
_cell_angle_alpha 89.470200
_cell_angle_beta 90.177100
_cell_angle_gamma 90.018400
loop_
  _atom_site_label
  _atom_site_type_symbol
  _atom_site_fract_x
  _atom_site_fract_y
  _atom_site_fract_z
C1 C -0.08161 0.50841 0.27481
 C2 C -0.02631 0.51932 0.25006
 C3 C -0.01501 0.57313 0.22188
 C4 C -0.05931 0.61659 0.21601
 C5 C -0.11547 0.60433 0.24070
 C6 C -0.12750 0.55062 0.27126
 C7 C 0.01992 0.47353 0.25291
 C8 C 0.01013 0.41878 0.22654
 C9 C 0.05452 0.37543 0.22614
 C10 C 0.10849 0.38684 0.25484
 C11 C 0.11840 0.44148 0.28251
 C12 C 0.07402 0.48491 0.28043
 H13 H -0.08662 0.46751 0.29922
 H14 H 0.02931 0.58082 0.20583
 H15 H -0.03207 0.41038 0.20556
 H16 H 0.08142 0.52777 0.30013
 H17 H -0.15102 0.63500 0.23217
 H18 H 0.14277 0.35341 0.25537
 C19 C -0.07783 0.49023 0.72554
 C20 C -0.02287 0.47979 0.75150
 C21 C -0.01104 0.42507 0.77824
 C22 C -0.05432 0.37999 0.78018
 C23 C -0.10948 0.39143 0.75271
 C24 C -0.12111 0.44602 0.72486
 C25 C 0.02256 0.52640 0.74967
 C26 C 0.01092 0.58194 0.77357
 C27 C 0.05252 0.62858 0.76997
 C28 C 0.10646 0.61687 0.74055
 C29 C 0.11865 0.56074 0.71710
 C30 C 0.07654 0.51569 0.72250
 H31 H -0.08650 0.53288 0.70509
 H32 H 0.03114 0.41975 0.80013
 H33 H -0.03009 0.58657 0.79720
 H34 H 0.08533 0.47216 0.70492
 H35 H -0.14258 0.35703 0.74970
 H36 H 0.13853 0.65148 0.73302
 C37 C 0.27464 -0.07772 0.51435
 C38 C 0.24714 -0.02343 0.52456
 C39 C 0.22051 -0.01283 0.57857
 C40 C 0.21985 -0.05672 0.62244
 C41 C 0.24842 -0.11108 0.61226
 C42 C 0.27709 -0.12229 0.55821
 C43 C 0.24618 0.02231 0.47815
 C44 C 0.21863 0.01088 0.42443
 C45 C 0.21922 0.05297 0.37831
 C46 C 0.24978 0.10689 0.38757
 C47 C 0.27737 0.11881 0.44181
 C48 C 0.27451 0.07635 0.48701
 H49 H 0.29270 -0.08495 0.47107
 H50 H 0.19983 0.02968 0.58611
 H51 H 0.19869 -0.03222 0.41850
 H52 H 0.29498 0.08491 0.52919
 H53 H 0.24920 -0.14356 0.64740
 H54 H 0.25107 0.14054 0.35350
 C55 C 0.72502 -0.07674 0.48830
 C56 C 0.75383 -0.02329 0.47613
 C57 C 0.78181 -0.01476 0.42221
 C58 C 0.78295 -0.06002 0.38056
 C59 C 0.75410 -0.11391 0.39314
 C60 C 0.72396 -0.12288 0.44697
 C61 C 0.75629 0.02329 0.52078
 C62 C 0.78460 0.01226 0.57445
 C63 C 0.78691 0.05574 0.61839
 C64 C 0.75946 0.11092 0.60659
 C65 C 0.73070 0.12244 0.55265
 C66 C 0.72973 0.07811 0.50992
 H67 H 0.70531 -0.08248 0.53125
 H68 H 0.80326 0.02721 0.41307
 H69 H 0.80286 -0.03142 0.58206
 H70 H 0.70665 0.08520 0.46870
 H71 H 0.75404 -0.14789 0.35999
 H72 H 0.76270 0.14629 0.63811
 C73 C 0.48649 0.28195 1.07953
 C74 C 0.47678 0.25458 1.02577
 C75 C 0.42195 0.22867 1.01367
 C76 C 0.37506 0.23035 1.05468
 C77 C 0.38578 0.26018 1.10832
 C78 C 0.44115 0.28559 1.12097
 C79 C 0.52375 0.25469 0.98112
 C80 C 0.57845 0.22798 0.99287
 C81 C 0.62439 0.22826 0.95068
 C82 C 0.61265 0.25702 0.89609
 C83 C 0.55770 0.28369 0.88433
 C84 C 0.51359 0.28222 0.92699
 H85 H 0.52946 0.30105 1.08868
 H86 H 0.41809 0.20515 0.97279
 H87 H 0.58287 0.20481 1.03433
 H88 H 0.47111 0.30271 0.91811
 H89 H 0.35089 0.26657 1.13986
 H90 H 0.64629 0.26167 0.86285
 C91 C 0.51399 0.71950 1.07710
 C92 C 0.52431 0.74592 1.02248
 C93 C 0.57876 0.77274 1.01096
 C94 C 0.62360 0.77502 1.05425
 C95 C 0.61252 0.74671 1.10899
 C96 C 0.55808 0.71865 1.12042
 C97 C 0.47758 0.74594 0.97733
 C98 C 0.42374 0.77395 0.98827
 C99 C 0.37785 0.77419 0.94619
 C100 C 0.38731 0.74361 0.89296
 C101 C 0.44164 0.71547 0.88150
 C102 C 0.48670 0.71763 0.92388
 H103 H 0.47136 0.69935 1.08568
 H104 H 0.58574 0.79068 0.96732
 H105 H 0.41764 0.79403 1.03081
 H106 H 0.52906 0.69701 0.91558
 H107 H 0.64511 0.74752 1.14376
 H108 H 0.35343 0.74296 0.85937
 B109 B 1.00156 1.05845 0.03850
 B110 B 1.00109 1.06058 -0.03548
 B111 B 1.06148 1.03639 0.00081
 B112 B 1.03877 0.99741 0.06010
 B113 B 0.96428 0.99773 0.06033
 B114 B 0.94093 1.03689 0.00138
 B115 B 1.00051 0.94018 -0.03779
 B116 B 1.00108 0.93795 0.03615
 B117 B 0.94064 0.96235 -0.00018
 B118 B 0.96342 1.00117 -0.05937
 B119 B 1.03793 1.00089 -0.05952
 B120 B 1.06123 0.96177 -0.00049
 B121 B 0.55916 0.50040 0.46433
 B122 B 0.49885 0.53816 0.44207
 B123 B 0.49891 0.46361 0.44127
 B124 B 0.53649 0.43932 0.50069
 B125 B 0.55950 0.49897 0.53838
 B126 B 0.53639 0.56000 0.50214
 B127 B 0.43913 0.49873 0.53847
 B128 B 0.49939 0.46105 0.56095
 B129 B 0.49936 0.53565 0.56173
 B130 B 0.46194 0.55988 0.50217
 B131 B 0.43884 0.50035 0.46458
 B132 B 0.46199 0.43918 0.50086
 C133 C 1.02164 1.21331 0.13454
 C134 C 1.05137 1.21194 0.18858
 C135 C 1.06266 1.26464 0.21845
 C136 C 1.04432 1.31923 0.19442
 C137 C 1.01513 1.31997 0.13971
 C138 C 1.00384 1.26738 0.11008
 C139 C 1.01145 1.15968 0.10278
 C140 C 1.00480 1.11514 0.07502
 H141 H 1.06584 1.17021 0.20756
 H142 H 1.08486 1.26264 0.26062
 H143 H 1.00153 1.36135 0.11949
 H144 H 0.98157 1.26893 0.06789
 C145 C 0.97824 0.77895 0.12757
 C146 C 1.00953 0.72787 0.11360
 C147 C 0.99693 0.67447 0.14224
 C148 C 0.95250 0.67083 0.18588
 C149 C 0.92087 0.72314 0.19881
 C150 C 0.93376 0.77650 0.16997
 C151 C 0.99013 0.83341 0.09678
 C152 C 0.99771 0.87916 0.07040
 H153 H 1.04328 0.72910 0.07994
 H154 H 1.02083 0.63582 0.12793
 H155 H 0.88769 0.72407 0.23286
 H156 H 0.90909 0.81599 0.18095
 C157 C 0.98054 1.21834 -0.12930
 C158 C 1.02707 1.25097 -0.15323
 C159 C 1.01572 1.30376 -0.18363
 C160 C 0.95725 1.32520 -0.19074
 C161 C 0.91079 1.29078 -0.16682
 C162 C 0.92248 1.23814 -0.13637
 C163 C 0.99180 1.16454 -0.09723
 C164 C 0.99847 1.11912 -0.07009
 H165 H 1.07220 1.23554 -0.14857
 H166 H 1.05311 1.32628 -0.20307
 H167 H 0.86532 1.30539 -0.16877
 H168 H 0.88616 1.21323 -0.11757
 C169 C 1.01814 0.79061 -0.14215
 C170 C 0.97148 0.75360 -0.15758
 C171 C 0.98234 0.70176 -0.18871
 C172 C 1.04071 0.68452 -0.20368
 C173 C 1.08692 0.72436 -0.18962
 C174 C 1.07543 0.77694 -0.15995
 C175 C 1.00808 0.84154 -0.10626
 C176 C 1.00235 0.88430 -0.07569
 H177 H 0.92660 0.76461 -0.14529
 H178 H 0.94407 0.67630 -0.20139
 H179 H 1.13272 0.71456 -0.19836
 H180 H 1.11161 0.80642 -0.14968
 C181 C 1.13292 1.01449 0.21700
 C182 C 1.11161 0.99068 0.26958
 C183 C 1.14010 1.00313 0.32258
 C184 C 1.19025 1.04064 0.32432
 C185 C 1.21075 1.06470 0.27063
 C186 C 1.18274 1.05103 0.21763
 C187 C 1.10170 1.00434 0.16288
 C188 C 1.07461 0.99861 0.11766
 H189 H 1.07242 0.96309 0.26976
 H190 H 1.12074 0.98526 0.36234
 H191 H 1.24998 1.09202 0.26873
 H192 H 1.20014 1.06885 0.17703
 C193 C 1.13093 0.98086 -0.21568
 C194 C 1.18540 0.95144 -0.21462
 C195 C 1.21431 0.93854 -0.26722
 C196 C 1.18888 0.95487 -0.32144
 C197 C 1.13376 0.98380 -0.32188
 C198 C 1.10504 0.99667 -0.26936
 C199 C 1.10007 0.99216 -0.16193
 C200 C 1.07322 0.99897 -0.11698
 H201 H 1.20544 0.93842 -0.17318
 H202 H 1.25687 0.91669 -0.26546
 H203 H 1.11259 0.99600 -0.36295
 H204 H 1.06244 1.01857 -0.27065
 C205 C 0.87261 0.97371 0.21747
 C206 C 0.89828 0.99082 0.27058
 C207 C 0.86950 0.97892 0.32355
 C208 C 0.81452 0.94971 0.32417
 C209 C 0.78947 0.93177 0.27056
 C210 C 0.81843 0.94370 0.21751
 C211 C 0.90293 0.98533 0.16322
 C212 C 0.92931 0.99318 0.11799
 H213 H 0.94061 1.01328 0.27106
 H214 H 0.89041 0.99235 0.36415
 H215 H 0.74703 0.90966 0.26958
 H216 H 0.79850 0.92976 0.17656
 C217 C 0.87176 1.01993 -0.21819
 C218 C 0.89104 0.99188 -0.26905
 C219 C 0.86304 1.00330 -0.32283
 C220 C 0.81549 1.04393 -0.32707
 C221 C 0.79690 1.07187 -0.27504
 C222 C 0.82443 1.05944 -0.22136
 C223 C 0.90204 1.01043 -0.16321
 C224 C 0.92819 1.00462 -0.11733
 H225 H 0.92825 0.96172 -0.26731
 H226 H 0.88083 0.98206 -0.36130
 H227 H 0.75942 1.10158 -0.27479
 H228 H 0.80855 1.08059 -0.18220
 C229 C 1.21380 1.13894 0.01966
 C230 C 1.22732 1.15685 0.07659
 C231 C 1.27978 1.18723 0.08827
 C232 C 1.31974 1.20211 0.04262
 C233 C 1.30305 1.18638 -0.01539
 C234 C 1.25125 1.15454 -0.02643
 C235 C 1.16213 1.10337 0.00935
 C236 C 1.11856 1.07336 0.00336
 H237 H 1.19764 1.14640 0.11236
 H238 H 1.28923 1.19611 0.13383
 H239 H 1.32874 1.19920 -0.05329
 H240 H 1.24047 1.14208 -0.07105
 C241 C 0.78686 1.13785 -0.01478
 C242 C 0.77146 1.15421 -0.07197
 C243 C 0.71856 1.18396 -0.08351
 C244 C 0.67977 1.19977 -0.03749
 C245 C 0.69793 1.18510 0.02067
 C246 C 0.75037 1.15397 0.03164
 C247 C 0.83946 1.10325 -0.00484
 C248 C 0.88367 1.07385 0.00025
 H249 H 0.80014 1.14309 -0.10801
 H250 H 0.70795 1.19172 -0.12916
 H251 H 0.67299 1.19840 0.05866
 H252 H 0.76242 1.14254 0.07642
 C253 C 1.21743 0.86514 -0.01895
 C254 C 1.27044 0.88480 0.00550
 C255 C 1.32310 0.85474 -0.00569
 C256 C 1.32411 0.80450 -0.04245
 C257 C 1.26998 0.78556 -0.06704
 C258 C 1.21726 0.81521 -0.05471
 C259 C 1.16369 0.89769 -0.00948
 C260 C 1.11879 0.92561 -0.00356
 H261 H 1.27125 0.92391 0.03269
 H262 H 1.36327 0.87299 0.01257
 H263 H 1.26740 0.74633 -0.09380
 H264 H 1.17627 0.79893 -0.07286
 C265 C 0.78446 0.86630 0.01932
 C266 C 0.78321 0.82074 0.06122
 C267 C 0.73049 0.79055 0.07297
 C268 C 0.67763 0.80534 0.04281
 C269 C 0.68017 0.85196 0.00080
 C270 C 0.73291 0.88188 -0.01070
 C271 C 0.83805 0.89879 0.00892
 C272 C 0.88293 0.92661 0.00238
 H273 H 0.82308 0.80845 0.08486
 H274 H 0.73238 0.75429 0.10422
 H275 H 0.64110 0.86781 -0.02179
 H276 H 0.73321 0.91791 -0.04244
 C277 C 0.71052 0.51853 0.36133
 C278 C 0.74661 0.47126 0.34588
 C279 C 0.79851 0.48140 0.31422
 C280 C 0.81667 0.53961 0.29858
 C281 C 0.77792 0.58651 0.31298
 C282 C 0.72530 0.57578 0.34322
 C283 C 0.65908 0.50895 0.39709
 C284 C 0.61583 0.50317 0.42727
 H285 H 0.73477 0.42644 0.35843
 H286 H 0.82323 0.44273 0.30153
 H287 H 0.78866 0.63226 0.30398
 H288 H 0.69659 0.61248 0.35349
 C289 C 0.28138 0.47985 0.37169
 C290 C 0.22750 0.49675 0.39626
 C291 C 0.17457 0.48387 0.36740
 C292 C 0.17483 0.45380 0.31351
 C293 C 0.22927 0.43655 0.28936
 C294 C 0.28224 0.44949 0.31837
 C295 C 0.33553 0.49108 0.40265
 C296 C 0.38089 0.49792 0.42941
 H297 H 0.22638 0.51945 0.43797
 H298 H 0.13334 0.49681 0.38759
 H299 H 0.23093 0.41385 0.24773
 H300 H 0.32380 0.43571 0.29933
 C301 C 0.71607 0.47948 0.63318
 C302 C 0.76974 0.49752 0.60872
 C303 C 0.82260 0.48622 0.63844
 C304 C 0.82247 0.45672 0.69318
 C305 C 0.76826 0.43830 0.71728
 C306 C 0.71530 0.44964 0.68736
 C307 C 0.66213 0.48943 0.60137
 C308 C 0.61711 0.49584 0.57389
 H309 H 0.77078 0.51994 0.56645
 H310 H 0.86371 0.49994 0.61825
 H311 H 0.76680 0.41587 0.75948
 H312 H 0.67385 0.43508 0.70636
 C313 C 0.28175 0.52146 0.62972
 C314 C 0.22816 0.50156 0.60646
 C315 C 0.17513 0.51510 0.63445
 C316 C 0.17499 0.54881 0.68616
 C317 C 0.22908 0.56937 0.70876
 C318 C 0.28217 0.55577 0.68062
 C319 C 0.33597 0.50915 0.59968
 C320 C 0.38133 0.50152 0.57345
 H321 H 0.22735 0.47585 0.56652
 H322 H 0.13412 0.49956 0.61540
 H323 H 0.23037 0.59504 0.74868
 H324 H 0.32350 0.57199 0.69851
 C325 C 0.52045 0.63169 0.28488
 C326 C 0.50395 0.60547 0.23194
 C327 C 0.51684 0.63353 0.17861
 C328 C 0.54650 0.68832 0.17743
 C329 C 0.56351 0.71409 0.23091
 C330 C 0.55058 0.68585 0.28433
 C331 C 0.50901 0.60138 0.33943
 C332 C 0.50180 0.57452 0.38474
 H333 H 0.48146 0.56311 0.23186
 H334 H 0.50406 0.61208 0.13817
 H335 H 0.58590 0.75644 0.23145
 H336 H 0.56413 0.70617 0.32515
 C337 C 0.47713 0.62646 0.71903
 C338 C 0.49564 0.60157 0.77243
 C339 C 0.48324 0.63007 0.82517
 C340 C 0.45218 0.68409 0.82532
 C341 C 0.43306 0.70842 0.77139
 C342 C 0.44542 0.67969 0.71860
 C343 C 0.48872 0.59618 0.66496
 C344 C 0.49613 0.57005 0.61970
 H345 H 0.51952 0.56001 0.77332
 H346 H 0.49768 0.60964 0.86595
 H347 H 0.40960 0.75016 0.76992
 H348 H 0.43039 0.69906 0.67747
 C349 C 0.47672 0.37367 0.28374
 C350 C 0.44374 0.32123 0.28361
 C351 C 0.43139 0.29285 0.23063
 C352 C 0.45190 0.31672 0.17717
 C353 C 0.48430 0.36993 0.17783
 C354 C 0.49659 0.39817 0.23078
 C355 C 0.48819 0.40360 0.33795
 C356 C 0.49552 0.42947 0.38333
 H357 H 0.42766 0.30227 0.32444
 H358 H 0.40675 0.25176 0.23153
 H359 H 0.49979 0.38994 0.13732
 H360 H 0.52138 0.43922 0.23039
 C361 C 0.51880 0.36902 0.71971
 C362 C 0.51163 0.39972 0.77231
 C363 C 0.52458 0.37198 0.82595
 C364 C 0.54585 0.31354 0.82745
 C365 C 0.55319 0.28303 0.77454
 C366 C 0.53907 0.31047 0.72099
 C367 C 0.50836 0.39873 0.66449
 C368 C 0.50211 0.42504 0.61863
 H369 H 0.49624 0.44512 0.77184
 H370 H 0.51856 0.39625 0.86630
 H371 H 0.56867 0.23768 0.77482
 H372 H 0.54381 0.28600 0.68071
 C373 C 0.63283 0.71681 0.48508
 C374 C 0.61356 0.76992 0.50924
 C375 C 0.64379 0.82258 0.49717
 C376 C 0.69365 0.82344 0.45967
 C377 C 0.71228 0.76916 0.43561
 C378 C 0.68254 0.71651 0.44886
 C379 C 0.60004 0.66307 0.49482
 C380 C 0.57221 0.61791 0.50035
 H381 H 0.57460 0.77083 0.53679
 H382 H 0.62593 0.86289 0.51523
 H383 H 0.75131 0.76642 0.40845
 H384 H 0.69849 0.67542 0.43094
 C385 C 0.63675 0.28514 0.51900
 C386 C 0.66695 0.25740 0.47341
 C387 C 0.69879 0.20535 0.48452
 C388 C 0.70024 0.17996 0.54136
 C389 C 0.67046 0.20901 0.58697
 C390 C 0.63947 0.26138 0.57584
 C391 C 0.60241 0.33774 0.50825
 C392 C 0.57320 0.38197 0.50238
 H393 H 0.66573 0.27580 0.42931
 H394 H 0.72221 0.18504 0.44856
 H395 H 0.66985 0.19065 0.63104
 H396 H 0.61709 0.28313 0.61151
 C397 C 0.36740 0.71647 0.52428
 C398 C 0.38351 0.76832 0.49485
 C399 C 0.35415 0.82124 0.50632
 C400 C 0.30752 0.82368 0.54766
 C401 C 0.29252 0.77063 0.57766
 C402 C 0.32215 0.71769 0.56592
 C403 C 0.39894 0.66256 0.51329
 C404 C 0.42624 0.61755 0.50594
 H405 H 0.41940 0.76808 0.46344
 H406 H 0.37026 0.86049 0.48408
 H407 H 0.25639 0.76876 0.60856
 H408 H 0.30954 0.67759 0.58921
 C409 C 0.36856 0.28183 0.47701
 C410 C 0.31536 0.28273 0.44536
 C411 C 0.28594 0.22973 0.43291
 C412 C 0.30953 0.17521 0.45199
 C413 C 0.36356 0.17491 0.48287
 C414 C 0.39277 0.22781 0.49529
 C415 C 0.39955 0.33602 0.48893
 C416 C 0.42648 0.38125 0.49682
 H417 H 0.29654 0.32437 0.43049
 H418 H 0.24425 0.23147 0.40949
 H419 H 0.38342 0.13363 0.49723
 H420 H 0.43433 0.22655 0.51905
   
