data_POSCAR
  _audit_creation_date              2014-09-24
  _audit_creation_method            'ToBaCCo'
  _symmetry_space_group_name_H-M    'P1'
  _symmetry_Int_Tables_number       1
  _symmetry_cell_setting            triclinic
  loop_
  _symmetry_equiv_pos_as_xyz
 x,y,z
_cell_length_a 32.5457
_cell_length_b 32.5231
_cell_length_c 32.5060
_cell_angle_alpha 89.926100
_cell_angle_beta 90.049500
_cell_angle_gamma 89.994200
loop_
  _atom_site_label
  _atom_site_type_symbol
  _atom_site_fract_x
  _atom_site_fract_y
  _atom_site_fract_z
C1 C 0.37395 1.02191 -0.48061
 C2 C 0.37406 1.02229 -0.52279
 C3 C 0.41317 1.01040 -0.53509
 N4 N 0.43659 1.00228 -0.50170
 C5 C 0.41277 1.00942 -0.46843
 C6 C 0.42527 1.00202 -0.57610
 C7 C 0.46634 0.99166 -0.58668
 C8 C 0.47860 0.97439 -0.62376
 C9 C 0.52073 0.97298 -0.62335
 C10 C 0.53348 0.99060 -0.58665
 N11 N 0.50011 1.00147 -0.56428
 C12 C 0.57510 0.99804 -0.57557
 C13 C 0.58671 1.00544 -0.53416
 C14 C 0.62406 1.02182 -0.52155
 C15 C 0.62369 1.02201 -0.47941
 C16 C 0.58592 1.00643 -0.46762
 N17 N 0.56328 0.99634 -0.50104
 C18 C 0.57372 0.99965 -0.42655
 C19 C 0.53251 0.99215 -0.41541
 C20 C 0.51984 0.97677 -0.37771
 C21 C 0.47759 0.97748 -0.37794
 C22 C 0.46569 0.99334 -0.41576
 N23 N 0.49937 1.00216 -0.43843
 C24 C 0.42467 1.00164 -0.42737
 H25 H 0.34794 1.02910 -0.46118
 H26 H 0.34779 1.02922 -0.54196
 H27 H 0.49993 1.01859 -0.46589
 H28 H 0.45957 0.96434 -0.64907
 H29 H 0.53977 0.96087 -0.64777
 H30 H 0.64893 1.03285 -0.54067
 H31 H 0.64824 1.03278 -0.45970
 H32 H 0.45791 0.96783 -0.35291
 H33 H 0.50054 1.01921 -0.53766
 H34 H 0.53903 0.96655 -0.35249
 C35 C -0.62251 1.52165 0.02664
 C36 C -0.62262 1.47955 0.02703
 C37 C -0.58680 1.46706 0.00764
 N38 N -0.56445 1.50020 -0.00405
 C39 C -0.58658 1.53363 0.00711
 C40 C -0.57558 1.42564 -0.00003
 C41 C -0.53415 1.41491 -0.00827
 C42 C -0.52130 1.37903 -0.02748
 C43 C -0.47908 1.37900 -0.02643
 C44 C -0.46728 1.41512 -0.00721
 N45 N -0.50096 1.43704 0.00347
 C46 C -0.42631 1.42582 0.00224
 C47 C -0.41444 1.46652 0.01108
 C48 C -0.37628 1.47834 0.02585
 C49 C -0.37618 1.52054 0.02633
 C50 C -0.41427 1.53292 0.01177
 N51 N -0.43761 1.49989 0.00253
 C52 C -0.42588 1.57387 0.00365
 C53 C -0.46662 1.58488 -0.00640
 C54 C -0.47790 1.62113 -0.02576
 C55 C -0.52008 1.62125 -0.02767
 C56 C -0.53347 1.58539 -0.00868
 N57 N -0.50059 1.56307 0.00364
 C58 C -0.57510 1.57487 -0.00112
 H59 H -0.64590 1.54121 0.03989
 H60 H -0.64612 1.46035 0.04064
 H61 H -0.50147 1.53675 0.02192
 H62 H -0.54033 1.35518 -0.04071
 H63 H -0.45933 1.35508 -0.03842
 H64 H -0.35099 1.45864 0.03480
 H65 H -0.35079 1.53987 0.03571
 H66 H -0.53873 1.64521 -0.04132
 H67 H -0.50144 1.46329 0.02180
 H68 H -0.45780 1.64497 -0.03737
 C69 C 0.02474 0.52158 0.37720
 C70 C 0.02498 0.47944 0.37664
 C71 C 0.00758 0.46650 0.41344
 N72 N -0.00240 0.49938 0.43680
 C73 C 0.00800 0.53296 0.41461
 C74 C -0.00019 0.42507 0.42468
 C75 C -0.00931 0.41422 0.46603
 C76 C -0.02805 0.37791 0.47832
 C77 C -0.02814 0.37774 0.52056
 C78 C -0.01044 0.41448 0.53319
 N79 N 0.00082 0.43656 0.49967
 C80 C -0.00021 0.42472 0.57433
 C81 C 0.00976 0.46539 0.58621
 C82 C 0.02558 0.47693 0.62413
 C83 C 0.02644 0.51904 0.62452
 C84 C 0.00993 0.53208 0.58738
 N85 N 0.00008 0.49920 0.56391
 C86 C 0.00233 0.57359 0.57617
 C87 C -0.00671 0.58458 0.53485
 C88 C -0.02599 0.62072 0.52261
 C89 C -0.02667 0.62071 0.48035
 C90 C -0.00838 0.58435 0.46791
 N91 N 0.00344 0.56232 0.50121
 C92 C -0.00017 0.57371 0.42669
 H93 H 0.03586 0.54157 0.35301
 H94 H 0.03682 0.46057 0.35195
 H95 H 0.02150 0.53588 0.50078
 H96 H -0.03988 0.35362 0.45892
 H97 H -0.03920 0.35275 0.53948
 H98 H 0.03508 0.45733 0.64928
 H99 H 0.03767 0.53781 0.64958
 H100 H -0.03912 0.64477 0.46098
 H101 H 0.01908 0.46285 0.49981
 H102 H -0.03826 0.64471 0.54208
 O103 O -0.10573 1.00139 -0.05580
 O104 O 0.10553 0.99867 -0.05602
 O105 O -0.00171 1.05562 -0.10616
 O106 O 0.00134 0.94437 -0.10596
 O107 O 0.00149 0.89428 -0.05574
 O108 O -0.00167 1.10577 -0.05614
 O109 O 0.05538 0.99859 -0.10610
 O110 O -0.05579 1.00140 -0.10601
 Zr111 Zr -0.00014 1.00001 -0.07260
 O112 O 0.03723 0.96276 -0.03755
 O113 O -0.03737 1.03731 -0.03763
 C114 C -0.09381 1.00210 -0.09390
 C115 C 0.09345 0.99792 -0.09409
 C116 C -0.00244 1.09370 -0.09421
 C117 C 0.00214 0.90630 -0.09386
 H118 H 0.05449 1.05478 -0.05515
 O119 O 0.03700 1.03723 -0.03754
 H120 H -0.05470 0.94526 -0.05485
 O121 O -0.03714 0.96283 -0.03734
 O122 O 0.10573 1.00167 0.05526
 O123 O -0.10553 0.99848 0.05542
 O124 O 0.05549 1.10586 0.00095
 O125 O 0.05572 0.89437 -0.00160
 O126 O -0.05550 0.89426 0.00145
 O127 O -0.05574 1.10574 -0.00186
 O128 O 0.00157 1.05571 0.10541
 O129 O -0.00122 0.94451 0.10562
 O130 O 0.00143 1.10583 0.05523
 O131 O -0.00126 0.89434 0.05562
 O132 O 0.10558 1.05576 0.00099
 O133 O -0.10570 1.05554 -0.00173
 O134 O -0.10557 0.94436 0.00139
 O135 O 0.10570 0.94455 -0.00175
 O136 O 0.05577 1.00165 0.10545
 O137 O -0.05542 0.99856 0.10555
 Zr138 Zr 0.07221 1.00013 -0.00034
 Zr139 Zr -0.07220 0.99998 -0.00021
 Zr140 Zr -0.00008 1.07238 -0.00040
 Zr141 Zr 0.00008 0.92773 -0.00013
 Zr142 Zr 0.00012 1.00009 0.07205
 O143 O -0.03715 0.96273 0.03714
 O144 O 0.03729 1.03742 0.03694
 C145 C 0.09379 1.00242 0.09336
 C146 C -0.09347 0.99776 0.09351
 C147 C 0.09355 1.09383 0.00166
 C148 C 0.09374 0.90646 -0.00240
 C149 C -0.09355 0.90630 0.00219
 C150 C -0.09376 1.09363 -0.00252
 C151 C 0.00223 1.09378 0.09334
 C152 C -0.00194 0.90643 0.09368
 H153 H -0.05463 1.05473 0.05441
 O154 O -0.03709 1.03720 0.03686
 H155 H 0.05482 0.94543 0.05451
 O156 O 0.03722 0.96295 0.03693
 C157 C 0.35167 0.96628 0.34378
 C158 C 0.33357 1.00354 0.33200
 C159 C 0.34598 1.04023 0.35074
 C160 C 0.37643 1.03972 0.38108
 C161 C 0.39500 1.00246 0.39289
 C162 C 0.38213 0.96569 0.37412
 C163 C 0.30217 1.00409 0.30081
 C164 C 0.27586 1.00447 0.27469
 C165 C 0.24508 1.00480 0.24410
 C166 C 0.21879 1.00494 0.21796
 C167 C 0.18743 1.00488 0.18672
 C168 C 0.14592 1.00463 0.19787
 C169 C 0.11543 1.00403 0.16756
 C170 C 0.12608 1.00364 0.12557
 C171 C 0.16797 1.00412 0.11472
 C172 C 0.19838 1.00472 0.14512
 H173 H 0.34212 0.93769 0.32963
 H174 H 0.33210 1.06921 0.34191
 H175 H 0.38575 1.06841 0.39520
 H176 H 0.39536 0.93650 0.38329
 H177 H 0.13712 1.00475 0.23001
 H178 H 0.08356 1.00372 0.17708
 H179 H 0.17735 1.00389 0.08277
 H180 H 0.23044 1.00492 0.13615
 C181 C -0.36965 1.01754 0.32538
 C182 C -0.33301 0.99604 0.33195
 C183 C -0.32680 0.97508 0.36901
 C184 C -0.35704 0.97566 0.39949
 C185 C -0.39416 0.99730 0.39343
 C186 C -0.39999 1.01817 0.35578
 C187 C -0.30170 0.99561 0.30072
 C188 C -0.27542 0.99531 0.27463
 C189 C -0.24462 0.99508 0.24411
 C190 C -0.21832 0.99503 0.21803
 C191 C -0.18698 0.99517 0.18684
 C192 C -0.14546 0.99557 0.19802
 C193 C -0.11500 0.99623 0.16772
 C194 C -0.12570 0.99652 0.12572
 C195 C -0.16761 0.99590 0.11486
 C196 C -0.19797 0.99524 0.14523
 H197 H -0.37470 1.03402 0.29683
 H198 H -0.29861 0.95815 0.37432
 H199 H -0.35176 0.95837 0.42751
 H200 H -0.42768 1.03582 0.35023
 H201 H -0.13662 0.99552 0.23016
 H202 H -0.08311 0.99664 0.17725
 H203 H -0.17703 0.99605 0.08290
 H204 H -0.23004 0.99493 0.13624
 C205 C -0.33157 0.97257 -0.36418
 C206 C -0.33373 1.00146 -0.33235
 C207 C -0.36630 1.02957 -0.33114
 C208 C -0.39653 1.02890 -0.36172
 C209 C -0.39443 1.00008 -0.39379
 C210 C -0.36178 0.97185 -0.39476
 C211 C -0.30246 1.00231 -0.30105
 C212 C -0.27619 1.00294 -0.27491
 C213 C -0.24537 1.00354 -0.24436
 C214 C -0.21903 1.00389 -0.21828
 C215 C -0.18761 1.00406 -0.18711
 C216 C -0.19848 1.00407 -0.14549
 C217 C -0.16802 1.00365 -0.11515
 C218 C -0.12614 1.00318 -0.12607
 C219 C -0.11557 1.00342 -0.16808
 C220 C -0.14612 1.00384 -0.19834
 H221 H -0.30652 0.95067 -0.36539
 H222 H -0.36826 1.05205 -0.30665
 H223 H -0.42144 1.05096 -0.36058
 H224 H -0.35977 0.94935 -0.41920
 H225 H -0.23052 1.00424 -0.13646
 H226 H -0.17734 1.00353 -0.08318
 H227 H -0.08371 1.00312 -0.17766
 H228 H -0.13738 1.00383 -0.23049
 C229 C 0.36267 1.02886 -0.33263
 C230 C 0.33186 0.99881 -0.33368
 C231 C 0.33139 0.96968 -0.36537
 C232 C 0.36158 0.97059 -0.39591
 C233 C 0.39247 1.00073 -0.39505
 C234 C 0.39287 1.02982 -0.36318
 C235 C 0.30073 0.99791 -0.30228
 C236 C 0.27463 0.99724 -0.27601
 C237 C 0.24405 0.99660 -0.24527
 C238 C 0.21792 0.99621 -0.21902
 C239 C 0.18671 0.99600 -0.18769
 C240 C 0.14516 0.99606 -0.19873
 C241 C 0.11479 0.99645 -0.16834
 C242 C 0.12562 0.99684 -0.12638
 C243 C 0.16756 0.99653 -0.11564
 C244 C 0.19784 0.99614 -0.14611
 H245 H 0.36333 1.05152 -0.30824
 H246 H 0.30772 0.94628 -0.36644
 H247 H 0.36099 0.94782 -0.42019
 H248 H 0.41652 1.05322 -0.36208
 H249 H 0.13621 0.99595 -0.23084
 H250 H 0.08288 0.99663 -0.17779
 H251 H 0.17707 0.99677 -0.08371
 H252 H 0.22994 0.99609 -0.13723
 C253 C 0.32496 1.37051 -0.01784
 C254 C 0.33268 1.33284 0.00145
 C255 C 0.37077 1.32575 0.02008
 C256 C 0.40105 1.35623 0.01953
 C257 C 0.39375 1.39450 0.00032
 C258 C 0.35514 1.40106 -0.01844
 C259 C 0.30147 1.30149 0.00213
 C260 C 0.27529 1.27529 0.00265
 C261 C 0.24459 1.24465 0.00315
 C262 C 0.21835 1.21849 0.00344
 C263 C 0.18704 1.18724 0.00357
 C264 C 0.14551 1.19835 0.00333
 C265 C 0.11507 1.16803 0.00292
 C266 C 0.12578 1.12606 0.00270
 C267 C 0.16770 1.11526 0.00317
 C268 C 0.19806 1.14566 0.00358
 H269 H 0.29564 1.37623 -0.03259
 H270 H 0.37700 1.29674 0.03527
 H271 H 0.42984 1.35021 0.03516
 H272 H 0.34858 1.42954 -0.03447
 H273 H 0.13665 1.23046 0.00332
 H274 H 0.08318 1.17752 0.00261
 H275 H 0.17713 1.08333 0.00307
 H276 H 0.23013 1.13673 0.00377
 C277 C 0.32585 0.62972 -0.02194
 C278 C 0.33318 0.66771 -0.00326
 C279 C 0.37085 0.67508 0.01608
 C280 C 0.40112 0.64459 0.01679
 C281 C 0.39424 0.60603 -0.00190
 C282 C 0.35601 0.59915 -0.02128
 C283 C 0.30197 0.69907 -0.00381
 C284 C 0.27577 0.72526 -0.00420
 C285 C 0.24504 0.75588 -0.00455
 C286 C 0.21878 0.78202 -0.00470
 C287 C 0.18741 0.81322 -0.00468
 C288 C 0.19835 0.85481 -0.00461
 C289 C 0.16793 0.88516 -0.00407
 C290 C 0.12604 0.87429 -0.00355
 C291 C 0.11540 0.83231 -0.00384
 C292 C 0.14590 0.80204 -0.00438
 H293 H 0.29683 0.62375 -0.03717
 H294 H 0.37676 0.70433 0.03087
 H295 H 0.42955 0.65084 0.03296
 H296 H 0.34976 0.57039 -0.03686
 H297 H 0.23040 0.86380 -0.00484
 H298 H 0.17731 0.91711 -0.00391
 H299 H 0.08353 0.82276 -0.00350
 H300 H 0.13709 0.76991 -0.00444
 C301 C -0.33034 0.63483 -0.02353
 C302 C -0.33315 0.66778 0.00402
 C303 C -0.36639 0.67016 0.03124
 C304 C -0.39663 0.63963 0.03104
 C305 C -0.39382 0.60638 0.00366
 C306 C -0.36056 0.60430 -0.02377
 C307 C -0.30187 0.69905 0.00440
 C308 C -0.27560 0.72518 0.00467
 C309 C -0.24480 0.75572 0.00489
 C310 C -0.21850 0.78181 0.00494
 C311 C -0.18714 0.81300 0.00480
 C312 C -0.14562 0.80184 0.00442
 C313 C -0.11514 0.83212 0.00378
 C314 C -0.12580 0.87409 0.00345
 C315 C -0.16770 0.88495 0.00405
 C316 C -0.19810 0.85459 0.00470
 H317 H -0.30480 0.63274 -0.04478
 H318 H -0.36889 0.69555 0.05264
 H319 H -0.42211 0.64173 0.05234
 H320 H -0.35809 0.57903 -0.04531
 H321 H -0.13680 0.76971 0.00450
 H322 H -0.08326 0.82259 0.00338
 H323 H -0.17710 0.91689 0.00388
 H324 H -0.23016 0.86357 0.00499
 C325 C -0.33137 1.36555 -0.02823
 C326 C -0.33368 1.33186 -0.00147
 C327 C -0.36637 1.32878 0.02636
 C328 C -0.39656 1.35934 0.02753
 C329 C -0.39427 1.39330 0.00091
 C330 C -0.36155 1.39611 -0.02711
 C331 C -0.30240 1.30059 -0.00242
 C332 C -0.27613 1.27448 -0.00313
 C333 C -0.24531 1.24396 -0.00380
 C334 C -0.21898 1.21790 -0.00421
 C335 C -0.18755 1.18676 -0.00445
 C336 C -0.19843 1.14515 -0.00444
 C337 C -0.16798 1.11485 -0.00405
 C338 C -0.12609 1.12577 -0.00362
 C339 C -0.11551 1.16777 -0.00388
 C340 C -0.14606 1.19800 -0.00427
 H341 H -0.30625 1.36820 -0.04992
 H342 H -0.36846 1.30284 0.04719
 H343 H -0.42162 1.35669 0.04929
 H344 H -0.35947 1.42195 -0.04806
 H345 H -0.23048 1.13612 -0.00458
 H346 H -0.17731 1.08289 -0.00392
 H347 H -0.08365 1.17736 -0.00360
 H348 H -0.13730 1.23014 -0.00427
 C349 C -0.01871 1.36949 0.32558
 C350 C 0.00164 1.33233 0.33296
 C351 C 0.02114 1.32573 0.37074
 C352 C 0.02045 1.35620 0.40103
 C353 C 0.00028 1.39399 0.39399
 C354 C -0.01944 1.40003 0.35577
 C355 C 0.00248 1.30102 0.30172
 C356 C 0.00311 1.27488 0.27547
 C357 C 0.00370 1.24433 0.24468
 C358 C 0.00405 1.21824 0.21837
 C359 C 0.00422 1.18706 0.18698
 C360 C 0.00435 1.14546 0.19799
 C361 C 0.00393 1.11512 0.16758
 C362 C 0.00333 1.12598 0.12562
 C363 C 0.00345 1.16796 0.11491
 C364 C 0.00387 1.19824 0.14541
 H365 H -0.03417 1.37481 0.29653
 H366 H 0.03710 1.29710 0.37674
 H367 H 0.03662 1.35060 0.42964
 H368 H -0.03629 1.42809 0.34953
 H369 H 0.00463 1.13647 0.23009
 H370 H 0.00391 1.08317 0.17701
 H371 H 0.00304 1.17750 0.08298
 H372 H 0.00377 1.23037 0.13655
 C373 C -0.03919 1.34619 -0.35202
 C374 C -0.00245 1.33242 -0.33430
 C375 C 0.03503 1.34924 -0.34707
 C376 C 0.03581 1.37973 -0.37741
 C377 C -0.00095 1.39372 -0.39539
 C378 C -0.03849 1.37668 -0.38237
 C379 C -0.00321 1.30116 -0.30293
 C380 C -0.00377 1.27500 -0.27662
 C381 C -0.00428 1.24440 -0.24580
 C382 C -0.00456 1.21826 -0.21947
 C383 C -0.00465 1.18704 -0.18804
 C384 C -0.00443 1.19818 -0.14648
 C385 C -0.00393 1.16788 -0.11593
 C386 C -0.00362 1.12590 -0.12656
 C387 C -0.00409 1.11507 -0.16851
 C388 C -0.00458 1.14545 -0.19897
 H389 H -0.06837 1.33346 -0.34228
 H390 H 0.06364 1.33880 -0.33356
 H391 H 0.06510 1.39228 -0.38708
 H392 H -0.06724 1.38731 -0.39543
 H393 H -0.00448 1.23030 -0.13768
 H394 H -0.00363 1.17740 -0.08403
 H395 H -0.00391 1.08313 -0.17788
 H396 H -0.00476 1.13648 -0.23106
 C397 C -0.01708 0.62951 -0.32510
 C398 C 0.00331 0.66664 -0.33241
 C399 C 0.02319 0.67307 -0.36999
 C400 C 0.02282 0.64246 -0.40013
 C401 C 0.00263 0.60469 -0.39316
 C402 C -0.01750 0.59882 -0.35515
 C403 C 0.00378 0.69815 -0.30135
 C404 C 0.00412 0.72448 -0.27528
 C405 C 0.00441 0.75525 -0.24470
 C406 C 0.00452 0.78149 -0.21854
 C407 C 0.00446 0.81280 -0.18728
 C408 C 0.00419 0.85436 -0.19840
 C409 C 0.00363 0.88480 -0.16807
 C410 C 0.00330 0.87405 -0.12608
 C411 C 0.00378 0.83210 -0.11526
 C412 C 0.00434 0.80174 -0.14567
 H413 H -0.03285 0.62433 -0.29621
 H414 H 0.03915 0.70170 -0.37594
 H415 H 0.03919 0.64797 -0.42862
 H416 H -0.03446 0.57082 -0.34901
 H417 H 0.00429 0.86326 -0.23053
 H418 H 0.00332 0.91672 -0.17759
 H419 H 0.00359 0.82263 -0.08331
 H420 H 0.00456 0.76964 -0.13672
 C421 C -0.02919 0.63421 0.33116
 C422 C -0.00266 0.66799 0.33403
 C423 C 0.02452 0.67108 0.36731
 C424 C 0.02528 0.64046 0.39753
 C425 C -0.00115 0.60643 0.39473
 C426 C -0.02848 0.60360 0.36137
 C427 C -0.00320 0.69931 0.30272
 C428 C -0.00358 0.72545 0.27640
 C429 C -0.00393 0.75600 0.24552
 C430 C -0.00409 0.78208 0.21913
 C431 C -0.00408 0.81324 0.18765
 C432 C -0.00401 0.85484 0.19851
 C433 C -0.00350 0.88516 0.16800
 C434 C -0.00302 0.87426 0.12607
 C435 C -0.00332 0.83227 0.11551
 C436 C -0.00383 0.80203 0.14611
 H437 H -0.05036 0.63153 0.30557
 H438 H 0.04519 0.69707 0.36981
 H439 H 0.04660 0.64310 0.42300
 H440 H -0.04922 0.57768 0.35882
 H441 H -0.00421 0.86386 0.23059
 H442 H -0.00334 0.91712 0.17732
 H443 H -0.00302 0.82270 0.08361
 H444 H -0.00389 0.76989 0.13736
   
