data_POSCAR
  _audit_creation_date              2014-09-24
  _audit_creation_method            'ToBaCCo'
  _symmetry_space_group_name_H-M    'P1'
  _symmetry_Int_Tables_number       1
  _symmetry_cell_setting            triclinic
  loop_
  _symmetry_equiv_pos_as_xyz
 x,y,z
_cell_length_a 25.1821
_cell_length_b 25.4511
_cell_length_c 47.8218
_cell_angle_alpha 90.645800
_cell_angle_beta 90.224100
_cell_angle_gamma 93.004900
loop_
  _atom_site_label
  _atom_site_type_symbol
  _atom_site_fract_x
  _atom_site_fract_y
  _atom_site_fract_z
C1 C -0.00028 0.63876 0.99608
 C2 C -0.00931 0.61441 1.02209
 C3 C -0.01297 0.55889 1.02265
 C4 C -0.00300 0.52829 0.99862
 C5 C 0.00714 0.55441 0.97320
 C6 C 0.00751 0.60955 0.97141
 C7 C 0.00035 0.46957 1.00030
 C8 C -0.00743 0.43718 0.97623
 C9 C 0.00189 0.38333 0.97699
 C10 C 0.01542 0.36067 1.00239
 C11 C 0.02023 0.39113 1.02683
 C12 C 0.01389 0.44542 1.02567
 H13 H -0.00347 0.68082 0.99463
 H14 H -0.02098 0.53933 1.04215
 H15 H 0.01816 0.53217 0.95496
 H16 H -0.01959 0.45351 0.95658
 H17 H 0.02083 0.31873 1.00330
 H18 H 0.02121 0.46826 1.04460
 C19 C 0.35736 0.03280 0.50489
 C20 C 0.38838 0.03800 0.52929
 C21 C 0.44362 0.03377 0.52736
 C22 C 0.46779 0.02076 0.50181
 C23 C 0.43535 0.01454 0.47775
 C24 C 0.38054 0.02198 0.47899
 C25 C 0.52630 0.01258 0.50043
 C26 C 0.55476 0.02092 0.47540
 C27 C 0.60939 0.01179 0.47354
 C28 C 0.63541 -0.00542 0.49767
 C29 C 0.60869 -0.01229 0.52327
 C30 C 0.55398 -0.00389 0.52417
 H31 H 0.31462 0.03525 0.50614
 H32 H 0.46749 0.04085 0.54600
 H33 H 0.45237 0.00395 0.45788
 H34 H 0.53493 0.03734 0.45770
 H35 H 0.67718 -0.01289 0.49668
 H36 H 0.53250 -0.01289 0.54320
 C37 C 0.09419 0.02928 0.26992
 H38 H 0.09816 0.05364 0.25163
 C39 C 0.13555 0.02999 0.28951
 H40 H 0.17087 0.05519 0.28611
 C41 C 0.04435 -0.03412 0.29622
 H42 H 0.00873 -0.05901 0.29881
 C43 C 0.08473 -0.03472 0.31628
 H44 H 0.07919 -0.05955 0.33438
 N45 N 0.04918 -0.00167 0.27387
 C46 C -0.06002 -0.07448 0.21232
 H47 H -0.09231 -0.04810 0.21312
 C48 C -0.06267 -0.11748 0.19386
 H49 H -0.09712 -0.12357 0.18037
 C50 C 0.02583 -0.09584 0.22749
 H51 H 0.06074 -0.08653 0.24020
 C52 C 0.02470 -0.13945 0.20950
 H53 H 0.05860 -0.16389 0.20892
 Zn54 Zn -0.00913 0.00036 0.24858
 N55 N -0.01555 -0.06365 0.22801
 C56 C -0.00040 0.04689 0.19530
 N57 N 0.00237 0.05721 0.22325
 C58 C 0.01410 0.10693 0.23305
 C59 C 0.02333 0.14849 0.21449
 C60 C 0.00781 0.08722 0.17608
 C61 C -0.09435 -0.03534 0.28206
 C62 C -0.13760 -0.03129 0.29998
 C63 C -0.13672 0.06175 0.29053
 C64 C -0.09355 0.05588 0.27271
 N65 N -0.07236 0.00811 0.26940
 H66 H -0.00913 0.00733 0.18769
 H67 H 0.01703 0.11423 0.25534
 H68 H 0.03355 0.18748 0.22277
 H69 H 0.00380 0.07788 0.15402
 H70 H -0.07745 -0.07309 0.27877
 H71 H -0.15295 -0.06599 0.31077
 H72 H -0.15227 0.10029 0.29342
 H73 H -0.07633 0.08986 0.26217
 C74 C -0.01927 -0.14982 0.19171
 C75 C 0.13079 -0.00177 0.31329
 C76 C -0.15857 0.01799 0.30490
 C77 C 0.02018 0.13892 0.18550
 C78 C -0.00880 0.09395 0.76904
 H79 H 0.00012 0.10372 0.74755
 C80 C -0.01254 0.13410 0.78907
 H81 H -0.00535 0.17460 0.78286
 C82 C -0.02735 0.02920 0.80330
 H83 H -0.03399 -0.01168 0.80874
 C84 C -0.03213 0.06788 0.82383
 H85 H -0.04225 0.05608 0.84491
 N86 N -0.01375 0.04262 0.77673
 C87 C 0.07243 -0.03610 0.71077
 H88 H 0.04493 -0.06990 0.70808
 C89 C 0.11618 -0.02964 0.69319
 H90 H 0.12168 -0.05852 0.67680
 C91 C 0.09684 0.04353 0.73478
 H92 H 0.08960 0.07158 0.75124
 C93 C 0.14122 0.05166 0.71752
 H94 H 0.16757 0.08619 0.72079
 Zn95 Zn -0.00143 -0.01200 0.75055
 N96 N 0.06278 0.00082 0.73060
 C97 C -0.04996 0.00487 0.69904
 N98 N -0.05865 -0.01657 0.72462
 C99 C -0.10696 -0.03919 0.73142
 C100 C -0.14758 -0.04441 0.71135
 C101 C -0.08960 0.00157 0.67863
 C102 C 0.04407 -0.07331 0.79035
 C103 C 0.05060 -0.11602 0.80775
 C104 C -0.01760 -0.16521 0.78136
 C105 C -0.02327 -0.12111 0.76459
 N106 N 0.00626 -0.07578 0.76996
 H107 H -0.01220 0.02494 0.69443
 H108 H -0.11361 -0.05427 0.75224
 H109 H -0.18485 -0.06473 0.71682
 H110 H -0.08158 0.01962 0.65860
 H111 H 0.06769 -0.03707 0.79383
 H112 H 0.07877 -0.11159 0.82487
 H113 H -0.04189 -0.20072 0.77698
 H114 H -0.05145 -0.12320 0.74750
 C115 C 0.15089 0.01509 0.69614
 C116 C -0.02283 0.12113 0.81710
 C117 C 0.01889 -0.16262 0.80376
 C118 C -0.13886 -0.02459 0.68430
 C119 C -0.01573 -0.29299 0.09691
 C120 C -0.04250 -0.34270 0.09531
 C121 C -0.04095 -0.37323 0.07078
 C122 C -0.01287 -0.35463 0.04698
 C123 C 0.01330 -0.30417 0.04891
 C124 C 0.01178 -0.27404 0.07336
 C125 C -0.01608 -0.26042 0.12287
 C126 C 0.03043 -0.23199 0.13169
 C127 C 0.02958 -0.19752 0.15453
 C128 C -0.01776 -0.19074 0.16931
 C129 C -0.06392 -0.22070 0.16117
 C130 C -0.06306 -0.25528 0.13821
 H131 H -0.06342 -0.41060 0.07050
 H132 H 0.03740 -0.28823 0.03203
 H133 H 0.06571 -0.17466 0.15993
 H134 H -0.10089 -0.21682 0.17231
 H135 H 0.03236 -0.23559 0.07381
 H136 H 0.06746 -0.23575 0.12058
 H137 H -0.06421 -0.35828 0.11315
 H138 H -0.09956 -0.27656 0.13186
 C139 C 0.03823 0.30109 0.10117
 C140 C -0.00401 0.33490 0.09852
 C141 C -0.00790 0.36689 0.07510
 C142 C 0.02980 0.36507 0.05367
 C143 C 0.07330 0.33343 0.05678
 C144 C 0.07788 0.30231 0.08046
 C145 C 0.03834 0.26159 0.12398
 C146 C 0.05690 0.21124 0.11877
 C147 C 0.05280 0.17234 0.13908
 C148 C 0.02905 0.18219 0.16504
 C149 C 0.01197 0.23297 0.17066
 C150 C 0.01684 0.27226 0.15044
 H151 H -0.04205 0.39072 0.07291
 H152 H 0.10297 0.33180 0.04049
 H153 H 0.06762 0.13416 0.13420
 H154 H -0.00674 0.24201 0.19035
 H155 H 0.11177 0.27806 0.08209
 H156 H 0.07298 0.20099 0.09860
 H157 H -0.03571 0.33470 0.11374
 H158 H 0.00296 0.31077 0.15544
 C159 C 0.30480 0.04441 0.60759
 C160 C 0.28944 0.07496 0.58491
 C161 C 0.31798 0.07490 0.55990
 C162 C 0.36243 0.04414 0.55694
 C163 C 0.37934 0.01570 0.58009
 C164 C 0.35093 0.01593 0.60513
 C165 C 0.27028 0.03872 0.63265
 C166 C 0.26097 -0.01091 0.64484
 C167 C 0.22394 -0.01802 0.66629
 C168 C 0.19513 0.02425 0.67603
 C169 C 0.20613 0.07442 0.66477
 C170 C 0.24329 0.08157 0.64329
 H171 H 0.30442 0.09790 0.54261
 H172 H 0.41316 -0.00872 0.57849
 H173 H 0.21691 -0.05699 0.67482
 H174 H 0.18437 0.10771 0.67171
 H175 H 0.36430 -0.00735 0.62235
 H176 H 0.28059 -0.04490 0.63700
 H177 H 0.25390 0.09704 0.58599
 H178 H 0.25006 0.12042 0.63459
 C179 C -0.29665 -0.03835 0.59504
 C180 C -0.34255 -0.00935 0.59717
 C181 C -0.37575 -0.00362 0.57399
 C182 C -0.36294 -0.02519 0.54770
 C183 C -0.31878 -0.05691 0.54618
 C184 C -0.28674 -0.06400 0.56954
 C185 C -0.25713 -0.03858 0.61839
 C186 C -0.20256 -0.04010 0.61246
 C187 C -0.16480 -0.03721 0.63387
 C188 C -0.18011 -0.03119 0.66191
 C189 C -0.23470 -0.03055 0.66803
 C190 C -0.27275 -0.03456 0.64655
 H191 H -0.40883 0.02157 0.57628
 H192 H -0.30902 -0.07698 0.52694
 H193 H -0.12336 -0.03931 0.62828
 H194 H -0.24811 -0.02570 0.68932
 H195 H -0.25341 -0.08887 0.56736
 H196 H -0.18847 -0.04210 0.59115
 H197 H -0.35150 0.01142 0.61630
 H198 H -0.31436 -0.03410 0.65206
 C199 C 0.02398 -0.30981 0.89427
 C200 C 0.04437 -0.28677 0.91907
 C201 C 0.03972 -0.31351 0.94431
 C202 C 0.01522 -0.36466 0.94545
 C203 C -0.00294 -0.38848 0.92007
 C204 C 0.00064 -0.36099 0.89490
 C205 C 0.02433 -0.27866 0.86836
 C206 C -0.02326 -0.27165 0.85385
 C207 C -0.02465 -0.23564 0.83202
 C208 C 0.02175 -0.20642 0.82404
 C209 C 0.07002 -0.21629 0.83746
 C210 C 0.07117 -0.25160 0.85958
 H211 H 0.05650 -0.29413 0.96283
 H212 H -0.02299 -0.42716 0.91972
 H213 H -0.06265 -0.22874 0.82247
 H214 H 0.10679 -0.19567 0.83141
 H215 H -0.01545 -0.37943 0.87595
 H216 H -0.05996 -0.29181 0.86045
 H217 H 0.06260 -0.24725 0.91907
 H218 H 0.10843 -0.25688 0.87031
 C219 C -0.00819 0.28023 0.90509
 C220 C 0.03724 0.28309 0.92232
 C221 C 0.04069 0.31745 0.94522
 C222 C -0.00088 0.35029 0.95130
 C223 C -0.04530 0.34950 0.93343
 C224 C -0.04905 0.31458 0.91055
 C225 C -0.01341 0.23980 0.88242
 C226 C -0.03618 0.25087 0.85637
 C227 C -0.03981 0.21242 0.83513
 C228 C -0.02087 0.16212 0.83956
 C229 C 0.00150 0.15121 0.86570
 C230 C 0.00486 0.18933 0.88684
 H231 H 0.07581 0.31810 0.95841
 H232 H -0.07790 0.37444 0.93777
 H233 H -0.05765 0.22199 0.81532
 H234 H 0.01736 0.11330 0.86975
 H235 H -0.08467 0.31315 0.89776
 H236 H -0.05039 0.28946 0.85226
 H237 H 0.07008 0.25830 0.91827
 H238 H 0.02172 0.17909 0.90680
 C239 C -0.30327 0.02907 0.39779
 C240 C -0.27842 0.03888 0.42374
 C241 C -0.30724 0.03426 0.44849
 C242 C -0.36217 0.01973 0.44818
 C243 C -0.38735 0.01204 0.42186
 C244 C -0.35811 0.01609 0.39705
 C245 C -0.27096 0.02989 0.37192
 C246 C -0.27698 -0.01127 0.35214
 C247 C -0.24174 -0.01420 0.32971
 C248 C -0.20003 0.02418 0.32651
 C249 C -0.19575 0.06670 0.34553
 C250 C -0.23077 0.06947 0.36800
 H251 H -0.28610 0.04348 0.46781
 H252 H -0.42907 -0.00013 0.42023
 H253 H -0.24636 -0.04711 0.31520
 H254 H -0.16380 0.09664 0.34380
 H255 H -0.37829 0.00851 0.37726
 H256 H -0.30741 -0.04248 0.35474
 H257 H -0.23614 0.04892 0.42498
 H258 H -0.22557 0.10192 0.38277
 C259 C 0.28165 0.01165 0.40513
 C260 C 0.32032 -0.02532 0.40957
 C261 C 0.35283 -0.02189 0.43340
 C262 C 0.34706 0.01838 0.45334
 C263 C 0.30859 0.05543 0.44879
 C264 C 0.27631 0.05213 0.42498
 C265 C 0.24599 0.00760 0.38030
 C266 C 0.23266 0.05306 0.36601
 C267 C 0.19633 0.04979 0.34383
 C268 C 0.17240 0.00099 0.33544
 C269 C 0.18677 -0.04466 0.34926
 C270 C 0.22325 -0.04140 0.37142
 H271 H 0.38185 -0.05124 0.43646
 H272 H 0.30359 0.08720 0.46365
 H273 H 0.18575 0.08573 0.33380
 H274 H 0.16947 -0.08290 0.34308
 H275 H 0.24645 0.08080 0.42236
 H276 H 0.25003 0.09130 0.37214
 H277 H 0.32559 -0.05674 0.39454
 H278 H 0.23245 -0.07708 0.38214
   
