data_POSCAR
  _audit_creation_date              2014-09-24
  _audit_creation_method            'ToBaCCo'
  _symmetry_space_group_name_H-M    'P1'
  _symmetry_Int_Tables_number       1
  _symmetry_cell_setting            triclinic
  loop_
  _symmetry_equiv_pos_as_xyz
 x,y,z
_cell_length_a 44.4812
_cell_length_b 44.6791
_cell_length_c 44.5314
_cell_angle_alpha 89.941900
_cell_angle_beta 89.949600
_cell_angle_gamma 89.957000
loop_
  _atom_site_label
  _atom_site_type_symbol
  _atom_site_fract_x
  _atom_site_fract_y
  _atom_site_fract_z
N1 N 0.14257 0.16468 0.22475
 N2 N 0.16302 0.14338 0.22420
 C3 C 0.15839 0.12475 0.24760
 C4 C 0.13382 0.13510 0.26340
 C5 C 0.12424 0.16038 0.24846
 H6 H 0.17180 0.10522 0.25279
 H7 H 0.10542 0.17455 0.25437
 Cu8 Cu 0.19377 0.14220 0.19301
 Cu9 Cu 0.14125 0.19646 0.19482
 Cu10 Cu 0.19645 0.19572 0.13985
 N11 N 0.22507 0.14253 0.16235
 N12 N 0.22597 0.16356 0.14166
 C13 C 0.24966 0.15869 0.12344
 C14 C 0.26423 0.13333 0.13335
 C15 C 0.24824 0.12351 0.15800
 H16 H 0.25580 0.17253 0.10445
 H17 H 0.25311 0.10407 0.17164
 N18 N 0.16469 0.22645 0.14171
 N19 N 0.14363 0.22673 0.16265
 C20 C 0.12519 0.25018 0.15775
 C21 C 0.13521 0.26517 0.13263
 C22 C 0.16017 0.24970 0.12293
 H23 H 0.10580 0.25588 0.17126
 H24 H 0.17386 0.25494 0.10355
 H25 H 0.16199 0.17298 0.16083
 H26 H 0.18688 0.19594 0.18546
 N27 N -0.14168 0.83614 0.22636
 N28 N -0.16256 0.85702 0.22627
 C29 C -0.15773 0.87577 0.24948
 C30 C -0.13258 0.86596 0.26470
 C31 C -0.12289 0.84086 0.24957
 H32 H -0.17135 0.89507 0.25494
 H33 H -0.10362 0.82712 0.25502
 Cu34 Cu -0.19394 0.85750 0.19576
 Cu35 Cu -0.14035 0.80438 0.19646
 Cu36 Cu -0.19596 0.80481 0.14189
 N37 N -0.22508 0.85750 0.16501
 N38 N -0.22571 0.83681 0.14400
 C39 C -0.24934 0.84183 0.12576
 C40 C -0.26415 0.86693 0.13601
 C41 C -0.24835 0.87643 0.16085
 H42 H -0.25528 0.82826 0.10656
 H43 H -0.25345 0.89560 0.17477
 N44 N -0.16392 0.77430 0.14355
 N45 N -0.14276 0.77414 0.16436
 C46 C -0.12433 0.75067 0.15953
 C47 C -0.13447 0.73551 0.13462
 C48 C -0.15949 0.75091 0.12495
 H49 H -0.10495 0.74500 0.17303
 H50 H -0.17335 0.74546 0.10578
 H51 H -0.16164 0.82805 0.16273
 H52 H -0.18586 0.80415 0.18720
 N53 N -0.14408 0.16309 -0.22545
 N54 N -0.16458 0.14189 -0.22487
 C55 C -0.15990 0.12317 -0.24814
 C56 C -0.13524 0.13331 -0.26392
 C57 C -0.12566 0.15859 -0.24905
 H58 H -0.17330 0.10365 -0.25326
 H59 H -0.10672 0.17260 -0.25493
 Cu60 Cu -0.19534 0.14081 -0.19373
 Cu61 Cu -0.14279 0.19492 -0.19559
 Cu62 Cu -0.19802 0.19420 -0.14057
 N63 N -0.22658 0.14105 -0.16306
 N64 N -0.22748 0.16200 -0.14231
 C65 C -0.25108 0.15696 -0.12400
 C66 C -0.26557 0.13158 -0.13394
 C67 C -0.24962 0.12194 -0.15867
 H68 H -0.25717 0.17065 -0.10492
 H69 H -0.25444 0.10252 -0.17232
 N70 N -0.16628 0.22495 -0.14254
 N71 N -0.14523 0.22521 -0.16350
 C72 C -0.12696 0.24881 -0.15882
 C73 C -0.13709 0.26393 -0.13385
 C74 C -0.16194 0.24838 -0.12399
 H75 H -0.10769 0.25459 -0.17247
 H76 H -0.17572 0.25375 -0.10471
 H77 H -0.16342 0.17131 -0.16139
 H78 H -0.18829 0.19439 -0.18601
 N79 N 0.14449 0.83758 -0.22570
 N80 N 0.16578 0.85800 -0.22481
 C81 C 0.16192 0.87718 -0.24789
 C82 C 0.13698 0.86815 -0.26387
 C83 C 0.12640 0.84305 -0.24932
 H84 H 0.17606 0.89626 -0.25275
 H85 H 0.10700 0.82981 -0.25543
 Cu86 Cu 0.19638 0.85733 -0.19352
 Cu87 Cu 0.14179 0.80541 -0.19625
 Cu88 Cu 0.19607 0.80384 -0.14037
 N89 N 0.22675 0.85624 -0.16204
 N90 N 0.22647 0.83522 -0.14130
 C91 C 0.24970 0.83950 -0.12240
 C92 C 0.26520 0.86446 -0.13191
 C93 C 0.25022 0.87465 -0.15702
 H94 H 0.25488 0.82554 -0.10322
 H95 H 0.25599 0.89397 -0.17050
 N96 N 0.16350 0.77404 -0.14320
 N97 N 0.14282 0.77464 -0.16448
 C98 C 0.12385 0.75147 -0.16039
 C99 C 0.13313 0.73573 -0.13546
 C100 C 0.15820 0.75048 -0.12502
 H101 H 0.10470 0.74638 -0.17443
 H102 H 0.17151 0.74444 -0.10563
 H103 H 0.16274 0.82809 -0.16166
 H104 H 0.18706 0.80405 -0.18587
 N105 N 0.16509 1.14314 0.77513
 N106 N 0.14382 1.16362 0.77547
 C107 C 0.12538 1.15915 0.75190
 C108 C 0.13578 1.13465 0.73624
 C109 C 0.16090 1.12494 0.75144
 H110 H 0.10589 1.17261 0.74651
 H111 H 0.17501 1.10607 0.74569
 Cu112 Cu 0.14231 1.19414 0.80658
 Cu113 Cu 0.19662 1.14155 0.80526
 Cu114 Cu 0.19587 1.19660 0.85992
 N115 N 0.14295 1.22544 0.83693
 N116 N 0.16396 1.22622 0.85770
 C117 C 0.15921 1.24994 0.87570
 C118 C 0.13400 1.26467 0.86557
 C119 C 0.12411 1.24872 0.84102
 H120 H 0.17301 1.25600 0.89473
 H121 H 0.10471 1.25372 0.82728
 N122 N 0.22636 1.16473 0.85845
 N123 N 0.22663 1.14371 0.83762
 C124 C 0.25007 1.12526 0.84265
 C125 C 0.26504 1.13528 0.86773
 C126 C 0.24961 1.16022 0.87729
 H127 H 0.25582 1.10595 0.82920
 H128 H 0.25492 1.17394 0.89656
 H129 H 0.17271 1.16229 0.83913
 H130 H 0.19605 1.18692 0.81445
 N131 N 0.83690 0.85898 0.77375
 N132 N 0.85817 0.83850 0.77411
 C133 C 0.87694 0.84329 0.75083
 C134 C 0.86674 0.86799 0.73532
 C135 C 0.84140 0.87749 0.75031
 H136 H 0.89651 0.82992 0.74552
 H137 H 0.82734 0.89641 0.74459
 Cu138 Cu 0.85921 0.80758 0.80487
 Cu139 Cu 0.80500 0.86016 0.80353
 Cu140 Cu 0.80508 0.80453 0.85776
 N141 N 0.85828 0.77598 0.83492
 N142 N 0.83710 0.77493 0.85554
 C143 C 0.84172 0.75098 0.87332
 C144 C 0.86705 0.73639 0.86318
 C145 C 0.87710 0.75266 0.83887
 H146 H 0.82777 0.74467 0.89219
 H147 H 0.89661 0.74783 0.82519
 N148 N 0.77458 0.83647 0.85620
 N149 N 0.77457 0.85766 0.83549
 C150 C 0.75107 0.87606 0.84033
 C151 C 0.73576 0.86588 0.86517
 C152 C 0.75107 0.84086 0.87480
 H153 H 0.74550 0.89547 0.82691
 H154 H 0.74550 0.82701 0.89394
 H155 H 0.82849 0.83898 0.83758
 H156 H 0.80540 0.81464 0.81248
 N157 N 0.16266 0.85563 1.22534
 N158 N 0.14198 0.83458 1.22556
 C159 C 0.12330 0.83921 1.24894
 C160 C 0.13295 0.86437 1.26394
 C161 C 0.15788 0.87433 1.24854
 H162 H 0.10417 0.82540 1.25467
 H163 H 0.17147 0.89368 1.25383
 Cu164 Cu 0.14163 0.80320 1.19538
 Cu165 Cu 0.19432 0.85711 1.19521
 Cu166 Cu 0.19359 0.80198 1.14048
 N167 N 0.14114 0.77279 1.16420
 N168 N 0.16154 0.77247 1.14279
 C169 C 0.15617 0.74925 1.12433
 C170 C 0.13116 0.73441 1.13483
 C171 C 0.12206 0.74976 1.16006
 H172 H 0.16943 0.74357 1.10478
 H173 H 0.10303 0.74449 1.17424
 N174 N 0.22416 0.83377 1.14202
 N175 N 0.22444 0.85479 1.16287
 C176 C 0.24802 0.87306 1.15795
 C177 C 0.26309 0.86293 1.13293
 C178 C 0.24756 0.83811 1.12329
 H179 H 0.25386 0.89227 1.17149
 H180 H 0.25297 0.82431 1.10409
 H181 H 0.17017 0.83570 1.16191
 H182 H 0.19495 0.81177 1.18581
 N183 N 0.83779 1.14425 1.22595
 N184 N 0.85809 1.16563 1.22497
 C185 C 0.87743 1.16197 1.24797
 C186 C 0.86860 1.13706 1.26396
 C187 C 0.84348 1.12628 1.24954
 H188 H 0.89646 1.17623 1.25275
 H189 H 0.83038 1.10684 1.25574
 Cu190 Cu 0.85709 1.19607 1.19376
 Cu191 Cu 0.80546 1.14127 1.19672
 Cu192 Cu 0.80321 1.19536 1.14086
 N193 N 0.85559 1.22626 1.16232
 N194 N 0.83443 1.22584 1.14169
 C195 C 0.83850 1.24902 1.12279
 C196 C 0.86345 1.26464 1.13219
 C197 C 0.87386 1.24977 1.15722
 H198 H 0.82443 1.25411 1.10366
 H199 H 0.89325 1.25566 1.17059
 N200 N 0.77367 1.16270 1.14387
 N201 N 0.77453 1.14208 1.16514
 C202 C 0.75144 1.12300 1.16117
 C203 C 0.73550 1.13218 1.13634
 C204 C 0.75002 1.15728 1.12581
 H205 H 0.74653 1.10386 1.17522
 H206 H 0.74377 1.17052 1.10646
 H207 H 0.82797 1.16240 1.16206
 H208 H 0.80367 1.18636 1.18640
 O209 O 0.45742 1.05302 1.05402
 O210 O 0.42459 1.02432 1.02660
 C211 C 0.43055 1.04498 1.04607
 O212 O 0.54219 1.05077 0.94676
 O213 O 0.57515 1.02353 0.97562
 C214 C 0.56910 1.04286 0.95478
 O215 O 0.45767 1.05351 0.94962
 O216 O 0.42468 1.02450 0.97668
 C217 C 0.43078 1.04540 0.95745
 O218 O 0.54196 1.05042 1.05667
 O219 O 0.57502 1.02339 1.02772
 C220 C 0.56887 1.04259 1.04859
 Zr221 Zr 0.49976 1.03624 1.03973
 O222 O 0.50309 1.08351 1.03988
 O223 O 0.49629 1.03573 1.08716
 Zr224 Zr 0.49992 1.03655 0.96372
 O225 O 0.50323 1.08382 0.96400
 O226 O 0.49657 1.03662 0.91630
 O227 O 0.47304 1.04222 1.00173
 O228 O 0.52592 1.04187 1.00176
 O229 O 0.54224 0.94640 1.05652
 O230 O 0.57517 0.97367 1.02765
 C231 C 0.56914 0.95434 1.04848
 O232 O 0.45777 0.94394 0.94914
 O233 O 0.42474 0.97258 0.97651
 C234 C 0.43084 0.95191 0.95706
 O235 O 0.54229 0.94668 0.94659
 O236 O 0.57518 0.97377 0.97556
 C237 C 0.56915 0.95453 0.95470
 O238 O 0.45766 0.94342 1.05347
 O239 O 0.42469 0.97240 1.02637
 C240 C 0.43077 0.95149 1.04556
 Zr241 Zr 0.49993 0.96050 1.03950
 O242 O 0.50344 0.91325 1.03936
 O243 O 0.49638 0.96050 1.08691
 Zr244 Zr 0.50000 0.96081 0.96349
 O245 O 0.50346 0.91354 0.96345
 O246 O 0.49671 0.96122 0.91606
 Zr247 Zr 0.45524 0.99849 1.00157
 Zr248 Zr 0.54457 0.99856 1.00162
 O249 O 0.52606 0.95522 1.00149
 O250 O 0.47319 0.95478 1.00146
 O251 O 0.52663 0.99838 1.04548
 O252 O 0.47388 0.99869 0.95811
 O253 O 0.47373 0.99831 1.04505
 O254 O 0.52676 0.99872 0.95775
 H255 H 0.53953 1.05942 1.00178
 H256 H 0.46026 0.99876 0.94052
 H257 H 0.53973 0.93770 1.00150
 H258 H 0.46005 0.99820 1.06262
 H259 H 0.51331 1.02432 0.90844
 H260 H 0.51371 0.97320 0.90826
 H261 H 0.48651 0.90563 0.97545
 H262 H 0.48698 0.90547 1.02666
 H263 H 0.51297 0.97293 1.09479
 H264 H 0.51343 1.02397 1.09497
 H265 H 0.48619 1.09141 1.02781
 H266 H 0.48661 1.09154 0.97657
 O267 O -0.05698 0.45783 0.05033
 O268 O -0.02775 0.42502 0.02336
 C269 C -0.04877 0.43106 0.04255
 O270 O -0.05349 0.54206 -0.05687
 O271 O -0.02648 0.57484 -0.02773
 C272 C -0.04563 0.56882 -0.04875
 O273 O -0.05633 0.45782 -0.05398
 O274 O -0.02756 0.42500 -0.02651
 C275 C -0.04832 0.43102 -0.04598
 O276 O -0.05444 0.54198 0.05303
 O277 O -0.02688 0.57479 0.02438
 C278 C -0.04644 0.56876 0.04506
 Zr279 Zr -0.03999 0.49990 0.03620
 O280 O -0.08747 0.50326 0.03585
 O281 O -0.04008 0.49650 0.08363
 Zr282 Zr -0.03947 0.49995 -0.03976
 O283 O -0.08694 0.50335 -0.03987
 O284 O -0.03909 0.49659 -0.08718
 O285 O -0.04555 0.47324 -0.00180
 O286 O -0.04522 0.52592 -0.00182
 O287 O 0.05005 0.54190 0.05380
 O288 O 0.02304 0.57477 0.02464
 C289 C 0.04219 0.56868 0.04566
 O290 O 0.05356 0.45801 -0.05373
 O291 O 0.02421 0.42516 -0.02692
 C292 C 0.04525 0.43123 -0.04609
 O293 O 0.05099 0.54211 -0.05616
 O294 O 0.02343 0.57486 -0.02745
 C295 C 0.04298 0.56888 -0.04815
 O296 O 0.05312 0.45773 0.05088
 O297 O 0.02441 0.42495 0.02344
 C298 C 0.04517 0.43095 0.04289
 Zr299 Zr 0.03613 0.49985 0.03667
 O300 O 0.08360 0.50328 0.03678
 O301 O 0.03580 0.49637 0.08408
 Zr302 Zr 0.03664 0.50000 -0.03931
 O303 O 0.08412 0.50333 -0.03862
 O304 O 0.03696 0.49681 -0.08674
 Zr305 Zr -0.00161 0.45544 -0.00153
 Zr306 Zr -0.00170 0.54438 -0.00154
 O307 O 0.04184 0.52591 -0.00127
 O308 O 0.04229 0.47321 -0.00131
 O309 O -0.00199 0.52652 0.04231
 O310 O -0.00137 0.47403 -0.04499
 O311 O -0.00194 0.47390 0.04193
 O312 O -0.00140 0.52664 -0.04540
 H313 H -0.06283 0.53950 -0.00194
 H314 H -0.00135 0.46056 -0.06264
 H315 H 0.05942 0.53951 -0.00114
 H316 H -0.00200 0.46030 0.05951
 H317 H -0.02656 0.51316 -0.09494
 H318 H 0.02476 0.51356 -0.09465
 H319 H 0.09189 0.48610 -0.02701
 H320 H 0.09153 0.48676 0.02430
 H321 H 0.02299 0.51272 0.09184
 H322 H -0.02825 0.51347 0.09154
 H323 H -0.09524 0.48653 0.02361
 H324 H -0.09486 0.48663 -0.02764
 O325 O 1.05699 -0.05032 0.54196
 O326 O 1.02770 -0.02348 0.57483
 C327 C 1.04873 -0.04262 0.56883
 O328 O 1.05436 0.05648 0.45727
 O329 O 1.02698 0.02770 0.42449
 C330 C 1.04642 0.04841 0.43043
 O331 O 1.05694 0.05400 0.54173
 O332 O 1.02809 0.02682 0.57475
 C333 C 1.04887 0.04616 0.56862
 O334 O 1.05414 -0.05304 0.45755
 O335 O 1.02687 -0.02421 0.42459
 C336 C 1.04617 -0.04504 0.43069
 Zr337 Zr 1.04006 -0.03603 0.49976
 O338 O 1.08754 -0.03572 0.49629
 O339 O 1.04006 -0.08330 0.50321
 Zr340 Zr 1.04004 0.03970 0.49958
 O341 O 1.08753 0.03945 0.49622
 O342 O 1.03993 0.08698 0.50278
 O343 O 1.04594 0.00186 0.52646
 O344 O 1.04551 0.00178 0.47359
 O345 O 0.94970 -0.05295 0.45767
 O346 O 0.97697 -0.02420 0.42466
 C347 C 0.95758 -0.04495 0.43077
 O348 O 0.94695 0.05394 0.54193
 O349 O 0.97595 0.02684 0.57487
 C350 C 0.95502 0.04608 0.56881
 O351 O 0.94985 0.05668 0.45746
 O352 O 0.97705 0.02775 0.42455
 C353 C 0.95778 0.04862 0.43061
 O354 O 0.94710 -0.05013 0.54209
 O355 O 0.97598 -0.02288 0.57494
 C356 C 0.95519 -0.04222 0.56892
 Zr357 Zr 0.96395 -0.03598 0.49982
 O358 O 0.91647 -0.03570 0.49653
 O359 O 0.96397 -0.08324 0.50326
 Zr360 Zr 0.96389 0.03968 0.49969
 O361 O 0.91641 0.03925 0.49631
 O362 O 0.96369 0.08695 0.50295
 Zr363 Zr 1.00203 0.00194 0.54434
 Zr364 Zr 1.00198 0.00180 0.45511
 O365 O 0.95845 0.00184 0.47366
 O366 O 0.95809 0.00189 0.52655
 O367 O 1.00199 -0.04189 0.47306
 O368 O 1.00197 0.04522 0.52565
 O369 O 1.00200 -0.04141 0.52583
 O370 O 1.00196 0.04553 0.47288
 H371 H 1.06310 0.00173 0.45993
 H372 H 1.00194 0.06278 0.53922
 H373 H 0.94085 0.00184 0.46003
 H374 H 1.00197 -0.05899 0.53940
 H375 H 1.02781 0.09477 0.48588
 H376 H 0.97651 0.09476 0.48657
 H377 H 0.90858 0.02752 0.51347
 H378 H 0.90864 -0.02364 0.51343
 H379 H 0.97641 -0.09108 0.48661
 H380 H 1.02769 -0.09114 0.48655
 H381 H 1.09536 -0.02382 0.51329
 H382 H 1.09534 0.02734 0.51310
 C383 C 1.12143 0.12284 0.28850
 C384 C 1.11030 0.11198 0.31070
 C385 C 1.09710 0.09918 0.33657
 C386 C 1.08569 0.08809 0.35850
 C387 C 1.07217 0.07478 0.38395
 C388 C 1.06049 0.06303 0.40538
 C389 C 0.88096 -0.12077 0.29079
 C390 C 0.89248 -0.10968 0.31260
 C391 C 0.90613 -0.09661 0.33804
 C392 C 0.91786 -0.08528 0.35962
 C393 C 0.93167 -0.07170 0.38470
 C394 C 0.94349 -0.05973 0.40588
 C395 C 0.87793 0.12007 0.70975
 C396 C 0.88909 0.10894 0.68773
 C397 C 0.90235 0.09583 0.66206
 C398 C 0.91390 0.08459 0.64031
 C399 C 0.92778 0.07133 0.61505
 C400 C 0.93999 0.05989 0.59376
 C401 C 1.12443 -0.11796 0.70982
 C402 C 1.11365 -0.10644 0.68781
 C403 C 1.10070 -0.09303 0.66214
 C404 C 1.08935 -0.08159 0.64037
 C405 C 1.07566 -0.06814 0.61511
 C406 C 1.06360 -0.05656 0.59380
 C407 C 0.28917 1.12056 1.12111
 C408 C 0.31122 1.10933 1.11005
 C409 C 0.33695 1.09620 1.09686
 C410 C 0.35876 1.08490 1.08543
 C411 C 0.38412 1.07143 1.07186
 C412 C 0.40550 1.05962 1.06015
 C413 C 0.29006 0.87667 0.88098
 C414 C 0.31204 0.88756 0.89246
 C415 C 0.33766 0.90048 0.90597
 C416 C 0.35938 0.91173 0.91757
 C417 C 0.38461 0.92525 0.93124
 C418 C 0.40589 0.93717 0.94298
 C419 C 0.71081 0.87971 1.12396
 C420 C 0.68867 0.89102 1.11315
 C421 C 0.66285 0.90426 1.10024
 C422 C 0.64097 0.91559 1.08897
 C423 C 0.61557 0.92896 1.07539
 C424 C 0.59417 0.94047 1.06338
 C425 C 0.70964 1.11857 0.87832
 C426 C 0.68772 1.10703 0.88932
 C427 C 0.66216 1.09350 0.90243
 C428 C 0.64049 1.08195 0.91389
 C429 C 0.61532 1.06839 0.92768
 C430 C 0.59406 1.05677 0.93983
 C431 C 0.12196 0.29119 0.11894
 C432 C 0.11078 0.31293 0.10739
 C433 C 0.09752 0.33830 0.09380
 C434 C 0.08601 0.35984 0.08217
 C435 C 0.07221 0.38490 0.06853
 C436 C 0.06010 0.40607 0.05686
 C437 C -0.12416 0.29028 -0.12059
 C438 C -0.11319 0.31229 -0.10942
 C439 C -0.10015 0.33794 -0.09624
 C440 C -0.08880 0.35967 -0.08490
 C441 C -0.07517 0.38489 -0.07150
 C442 C -0.06316 0.40615 -0.05993
 C443 C 0.11938 0.70947 -0.12282
 C444 C 0.10781 0.68751 -0.11210
 C445 C 0.09422 0.66191 -0.09934
 C446 C 0.08258 0.64021 -0.08819
 C447 C 0.06886 0.61502 -0.07476
 C448 C 0.05708 0.59377 -0.06288
 C449 C -0.12140 0.70925 0.12130
 C450 C -0.11031 0.68729 0.11010
 C451 C -0.09714 0.66171 0.09689
 C452 C -0.08575 0.64003 0.08545
 C453 C -0.07223 0.61485 0.07180
 C454 C -0.06054 0.59362 0.05983
 C455 C 1.12296 0.12163 0.70974
 C456 C 1.11223 0.11048 0.68759
 C457 C 1.09959 0.09720 0.66182
 C458 C 1.08858 0.08568 0.64001
 C459 C 1.07532 0.07203 0.61475
 C460 C 1.06355 0.06026 0.59348
 C461 C 0.87991 -0.11865 0.70914
 C462 C 0.89092 -0.10722 0.68724
 C463 C 0.90388 -0.09364 0.66175
 C464 C 0.91512 -0.08192 0.64013
 C465 C 0.92859 -0.06811 0.61503
 C466 C 0.94048 -0.05627 0.59383
 C467 C 1.11973 -0.12244 0.29018
 C468 C 1.10865 -0.11124 0.31215
 C469 C 1.09566 -0.09790 0.33773
 C470 C 1.08449 -0.08627 0.35942
 C471 C 1.07130 -0.07233 0.38459
 C472 C 1.05991 -0.06008 0.40582
 C473 C 0.88266 0.12468 0.29016
 C474 C 0.89427 0.11397 0.31210
 C475 C 0.90771 0.10102 0.33767
 C476 C 0.91914 0.08959 0.35935
 C477 C 0.93251 0.07579 0.38449
 C478 C 0.94400 0.06361 0.40572
 C479 C 0.12064 0.29098 -0.12164
 C480 C 0.10955 0.31297 -0.11059
 C481 C 0.09655 0.33854 -0.09732
 C482 C 0.08531 0.36020 -0.08578
 C483 C 0.07185 0.38529 -0.07207
 C484 C 0.05996 0.40645 -0.06025
 C485 C -0.12385 0.29085 0.11855
 C486 C -0.11308 0.31278 0.10707
 C487 C -0.10026 0.33832 0.09355
 C488 C -0.08906 0.35997 0.08195
 C489 C -0.07555 0.38507 0.06828
 C490 C -0.06360 0.40626 0.05655
 C491 C -0.11962 0.70988 -0.12438
 C492 C -0.10842 0.68773 -0.11371
 C493 C -0.09529 0.66197 -0.10091
 C494 C -0.08404 0.64017 -0.08962
 C495 C -0.07078 0.61492 -0.07594
 C496 C -0.05937 0.59367 -0.06379
 C497 C 0.11739 0.70836 0.12202
 C498 C 0.10588 0.68656 0.11109
 C499 C 0.09245 0.66115 0.09804
 C500 C 0.08097 0.63960 0.08660
 C501 C 0.06751 0.61458 0.07283
 C502 C 0.05598 0.59345 0.06067
 C503 C 0.29112 1.12216 0.88138
 C504 C 0.31291 1.11102 0.89290
 C505 C 0.33828 1.09779 0.90646
 C506 C 0.35979 1.08626 0.91811
 C507 C 0.38477 1.07243 0.93180
 C508 C 0.40591 1.06030 0.94352
 C509 C 0.28950 0.87570 1.11960
 C510 C 0.31162 0.88653 1.10840
 C511 C 0.33739 0.89945 1.09527
 C512 C 0.35922 0.91076 1.08401
 C513 C 0.38453 0.92442 1.07075
 C514 C 0.40585 0.93651 1.05932
 C515 C 0.70927 1.11835 1.12382
 C516 C 0.68732 1.10678 1.11313
 C517 C 0.66176 1.09326 1.10031
 C518 C 0.64008 1.08170 1.08906
 C519 C 0.61494 1.06814 1.07548
 C520 C 0.59372 1.05650 1.06346
 C521 C 0.70950 0.87901 0.87850
 C522 C 0.68756 0.89026 0.88965
 C523 C 0.66203 0.90364 0.90280
 C524 C 0.64040 0.91520 0.91421
 C525 C 0.61529 0.92886 0.92787
 C526 C 0.59408 0.94058 0.93988
   
