data_POSCAR
  _audit_creation_date              2014-09-24
  _audit_creation_method            'ToBaCCo'
  _symmetry_space_group_name_H-M    'P1'
  _symmetry_Int_Tables_number       1
  _symmetry_cell_setting            triclinic
  loop_
  _symmetry_equiv_pos_as_xyz
 x,y,z
_cell_length_a 31.7748
_cell_length_b 47.3806
_cell_length_c 38.7493
_cell_angle_alpha 90.017300
_cell_angle_beta 90.184200
_cell_angle_gamma 90.012600
loop_
  _atom_site_label
  _atom_site_type_symbol
  _atom_site_fract_x
  _atom_site_fract_y
  _atom_site_fract_z
O1 O 0.33327 0.23298 0.25265
 O2 O 0.27980 0.28568 0.19853
 O3 O 0.32095 0.28750 0.25712
 O4 O 0.29013 0.23142 0.19567
 O5 O 0.23097 0.22542 0.22448
 O6 O 0.26304 0.27958 0.28696
 O7 O 0.22142 0.28000 0.22853
 O8 O 0.27421 0.22541 0.28110
 Cu9 Cu 0.31198 0.26021 0.22316
 Cu10 Cu 0.24149 0.25207 0.25820
 C11 C 0.31274 0.21982 0.27560
 C12 C 0.24159 0.29177 0.20417
 C13 C 0.29731 0.29280 0.28274
 C14 C 0.25517 0.21883 0.19972
 O15 O 0.79783 0.26020 0.24694
 O16 O 0.73630 0.20872 0.29708
 O17 O 0.78305 0.20640 0.24145
 O18 O 0.75222 0.26239 0.30205
 O19 O 0.69700 0.27219 0.26939
 O20 O 0.72609 0.21451 0.21019
 O21 O 0.68000 0.21863 0.26585
 O22 O 0.74223 0.26853 0.21412
 Cu23 Cu 0.77295 0.23332 0.27506
 Cu24 Cu 0.70570 0.24423 0.23660
 C25 C 0.78039 0.27327 0.22214
 C26 C 0.69741 0.20531 0.29046
 C27 C 0.75998 0.20098 0.21546
 C28 C 0.71972 0.27709 0.29577
 O29 O 0.78791 0.78113 0.69038
 O30 O 0.83392 0.72484 0.74368
 O31 O 0.78134 0.72642 0.69256
 O32 O 0.83970 0.77954 0.74336
 O33 O 0.78620 0.78268 0.77934
 O34 O 0.72708 0.73103 0.72765
 O35 O 0.77990 0.72750 0.77928
 O36 O 0.73502 0.78522 0.72690
 Cu37 Cu 0.81614 0.75278 0.71391
 Cu38 Cu 0.75182 0.75694 0.75708
 C39 C 0.75353 0.79258 0.69931
 C40 C 0.81455 0.71632 0.77026
 C41 C 0.74407 0.71995 0.70136
 C42 C 0.82293 0.79007 0.77016
 O43 O 0.27705 0.76411 0.73847
 O44 O 0.21553 0.71342 0.78906
 O45 O 0.26797 0.70966 0.73718
 O46 O 0.22261 0.76829 0.78781
 O47 O 0.17099 0.77189 0.74976
 O48 O 0.21449 0.71243 0.70078
 O49 O 0.16241 0.71749 0.75252
 O50 O 0.22541 0.76726 0.70036
 Cu51 Cu 0.25099 0.73838 0.76691
 Cu52 Cu 0.18815 0.74248 0.72202
 C53 C 0.26179 0.77445 0.71099
 C54 C 0.17835 0.70709 0.77980
 C55 C 0.24880 0.70114 0.71027
 C56 C 0.18920 0.78027 0.77706
 C57 C 0.99502 0.00196 0.00144
 C58 C 1.03788 0.00034 0.00418
 C59 C 1.06162 0.01855 0.02866
 C60 C 1.06305 -0.01952 -0.01705
 C61 C 0.97019 -0.01867 -0.01936
 C62 C 0.97105 0.02458 0.01945
 C63 C 1.09340 0.03643 0.01642
 C64 C 1.11348 0.05537 0.03872
 C65 C 1.10242 0.05644 0.07387
 C66 C 1.07159 0.03777 0.08619
 C67 C 1.05160 0.01886 0.06389
 C68 C 1.05874 -0.02018 -0.05311
 C69 C 1.08066 -0.04013 -0.07259
 C70 C 1.10753 -0.05969 -0.05631
 C71 C 1.11344 -0.05797 -0.02047
 C72 C 1.09138 -0.03809 -0.00099
 C73 C 0.97707 -0.04789 -0.01632
 C74 C 0.95492 -0.06690 -0.03714
 C75 C 0.92447 -0.05708 -0.06059
 C76 C 0.91596 -0.02808 -0.06233
 C77 C 0.93887 -0.00901 -0.04214
 C78 C 0.93755 0.01753 0.04135
 C79 C 0.91706 0.03846 0.06044
 C80 C 0.92979 0.06681 0.05786
 C81 C 0.96235 0.07391 0.03511
 C82 C 0.98231 0.05308 0.01563
 H83 H 1.10154 0.03647 -0.01071
 H84 H 1.13644 0.06965 0.02793
 H85 H 1.06247 0.03811 0.11311
 H86 H 1.02756 0.00490 0.07392
 H87 H 1.03798 -0.00546 -0.06609
 H88 H 1.07659 -0.04003 -0.10031
 H89 H 1.09554 -0.03770 0.02676
 H90 H 0.99979 -0.05601 0.00204
 H91 H 0.96111 -0.08926 -0.03448
 H92 H 0.89220 -0.02013 -0.07992
 H93 H 0.93253 0.01335 -0.04463
 H94 H 0.92825 -0.00430 0.04456
 H95 H 0.89255 0.03222 0.07820
 H96 H 0.97263 0.09562 0.03265
 H97 H 1.00737 0.05910 -0.00176
 H98 H 1.13438 -0.07253 -0.00739
 C99 C 0.49370 0.51294 0.49148
 C100 C 0.53638 0.51097 0.48934
 C101 C 0.56453 0.52768 0.51185
 C102 C 0.55682 0.49114 0.46503
 C103 C 0.46652 0.49408 0.47056
 C104 C 0.47266 0.53341 0.51482
 C105 C 0.58883 0.54942 0.49762
 C106 C 0.61418 0.56614 0.51886
 C107 C 0.61650 0.56076 0.55445
 C108 C 0.59351 0.53825 0.56843
 C109 C 0.56716 0.52202 0.54732
 C110 C 0.55032 0.49356 0.42934
 C111 C 0.56655 0.47325 0.40689
 C112 C 0.59010 0.45044 0.41965
 C113 C 0.59752 0.44852 0.45543
 C114 C 0.58119 0.46882 0.47785
 C115 C 0.46656 0.46488 0.47650
 C116 C 0.44570 0.44670 0.45378
 C117 C 0.42454 0.45749 0.42469
 C118 C 0.42358 0.48680 0.41943
 C119 C 0.44398 0.50501 0.44244
 C120 C 0.44201 0.52400 0.53815
 C121 C 0.42316 0.54286 0.56116
 C122 C 0.43464 0.57153 0.56116
 C123 C 0.46481 0.58098 0.53748
 C124 C 0.48312 0.56221 0.51413
 H125 H 0.58730 0.55383 0.47022
 H126 H 0.63224 0.58313 0.50747
 H127 H 0.59515 0.53371 0.59580
 H128 H 0.54883 0.50509 0.55854
 H129 H 0.53193 0.51085 0.41897
 H130 H 0.56029 0.47521 0.37950
 H131 H 0.58627 0.46656 0.50536
 H132 H 0.48410 0.45615 0.49800
 H133 H 0.44790 0.42420 0.45818
 H134 H 0.40768 0.49557 0.39710
 H135 H 0.44397 0.52749 0.43740
 H136 H 0.43337 0.50190 0.53908
 H137 H 0.40056 0.53481 0.57952
 H138 H 0.47399 0.60300 0.53689
 H139 H 0.50562 0.57017 0.49562
 H140 H 0.61453 0.43096 0.46650
 C141 C -0.00335 0.50148 0.01531
 C142 C -0.04585 0.49936 0.01066
 C143 C -0.07115 0.47790 0.02936
 C144 C -0.06916 0.51803 -0.01350
 C145 C 0.02266 0.52301 -0.00278
 C146 C 0.01944 0.48136 0.03794
 C147 C -0.09621 0.45886 0.01068
 C148 C -0.11879 0.43781 0.02777
 C149 C -0.11642 0.43528 0.06380
 C150 C -0.09258 0.45504 0.08263
 C151 C -0.07042 0.47630 0.06554
 C152 C -0.05802 0.51985 -0.04846
 C153 C -0.07853 0.53895 -0.07026
 C154 C -0.11081 0.55638 -0.05746
 C155 C -0.12332 0.55336 -0.02297
 C156 C -0.10268 0.53438 -0.00117
 C157 C 0.01153 0.55174 -0.00289
 C158 C 0.03465 0.57117 -0.02231
 C159 C 0.07007 0.56233 -0.04106
 C160 C 0.08264 0.53401 -0.03922
 C161 C 0.05899 0.51449 -0.02050
 C162 C 0.03823 0.49098 0.06853
 C163 C 0.05783 0.47195 0.09096
 C164 C 0.06005 0.44317 0.08262
 C165 C 0.04184 0.43363 0.05160
 C166 C 0.02158 0.45260 0.02947
 H167 H -0.09761 0.45996 -0.01722
 H168 H -0.13741 0.42306 0.01277
 H169 H -0.09138 0.45435 0.11053
 H170 H -0.05247 0.49141 0.08053
 H171 H -0.03301 0.50679 -0.05867
 H172 H -0.06910 0.53984 -0.09702
 H173 H -0.11208 0.53300 0.02562
 H174 H -0.01541 0.55906 0.01162
 H175 H 0.02506 0.59310 -0.02238
 H176 H 0.11015 0.52682 -0.05312
 H177 H 0.06856 0.49255 -0.02052
 H178 H 0.03675 0.51312 0.07541
 H179 H 0.07149 0.47972 0.11479
 H180 H 0.04232 0.41147 0.04482
 H181 H 0.00720 0.44488 0.00591
 H182 H -0.14845 0.56625 -0.01260
 C183 C 0.49990 0.99780 0.51047
 C184 C 0.45782 0.99535 0.50397
 C185 C 0.43184 0.97342 0.52120
 C186 C 0.43530 1.01461 0.47995
 C187 C 0.52675 1.01964 0.49389
 C188 C 0.52175 0.97805 0.53415
 C189 C 0.40811 0.95452 0.50115
 C190 C 0.38385 0.93361 0.51692
 C191 C 0.38306 0.93109 0.55299
 C192 C 0.40581 0.95061 0.57310
 C193 C 0.42978 0.97167 0.55732
 C194 C 0.44866 1.01843 0.44575
 C195 C 0.42844 1.03802 0.42436
 C196 C 0.39408 1.05376 0.43675
 C197 C 0.37951 1.04878 0.47032
 C198 C 0.39998 1.02947 0.49176
 C199 C 0.51594 1.04842 0.49451
 C200 C 0.54084 1.06827 0.47730
 C201 C 0.57757 1.05974 0.46004
 C202 C 0.58943 1.03127 0.46100
 C203 C 0.56414 1.01139 0.47752
 C204 C 0.53903 0.98824 0.56506
 C205 C 0.55974 0.96993 0.58766
 C206 C 0.56460 0.94133 0.57922
 C207 C 0.54742 0.93114 0.54811
 C208 C 0.52601 0.94938 0.52578
 H209 H 0.40881 0.95578 0.47325
 H210 H 0.36616 0.91907 0.50089
 H211 H 0.40463 0.95002 0.60099
 H212 H 0.44663 0.98668 0.57328
 H213 H 0.47508 1.00654 0.43580
 H214 H 0.43956 1.04058 0.39820
 H215 H 0.38884 1.02660 0.51791
 H216 H 0.48808 1.05546 0.50801
 H217 H 0.53163 1.09026 0.47789
 H218 H 0.61784 1.02428 0.44820
 H219 H 0.57344 0.98940 0.47703
 H220 H 0.53599 1.01033 0.57182
 H221 H 0.57253 0.97818 0.61157
 H222 H 0.54992 0.90905 0.54129
 H223 H 0.51290 0.94125 0.50193
 H224 H 0.35280 1.06038 0.48030
 C225 C 1.24364 0.19747 0.17679
 C226 C 1.20638 0.18215 0.18073
 C227 C 1.19398 0.15911 0.15742
 N228 N 1.15834 0.14432 0.16396
 N229 N 1.14630 0.12344 0.14317
 C230 C 1.16946 0.11652 0.11502
 N231 N 1.20514 0.13133 0.10844
 N232 N 1.21724 0.15222 0.12929
 C233 C 1.15584 0.09394 0.09138
 C234 C 1.12015 0.07763 0.09802
 H235 H 1.18549 0.18687 0.20202
 H236 H 1.17441 0.09038 0.06847
 H237 H 1.26468 0.19241 0.15573
 H238 H 1.10392 0.08064 0.12230
 C239 C 0.71950 0.69996 0.68060
 C240 C 0.73841 0.67920 0.66054
 C241 C 0.71313 0.66044 0.63857
 N242 N 0.72692 0.63405 0.63105
 N243 N 0.70409 0.61701 0.61099
 C244 C 0.66698 0.62596 0.59737
 N245 N 0.65352 0.65248 0.60450
 N246 N 0.67602 0.66934 0.62494
 C247 C 0.64198 0.60779 0.57452
 C248 C 0.64274 0.57849 0.57715
 H249 H 0.77212 0.67596 0.66201
 H250 H 0.62040 0.61775 0.55656
 H251 H 0.68548 0.70104 0.68199
 H252 H 0.66002 0.56859 0.59803
 C253 C -0.19517 0.29450 0.20317
 C254 C -0.21219 0.30965 0.17564
 C255 C -0.18918 0.33272 0.15871
 N256 N -0.20618 0.34582 0.13083
 N257 N -0.18613 0.36716 0.11568
 C258 C -0.14839 0.37625 0.12795
 N259 N -0.13145 0.36319 0.15587
 N260 N -0.15144 0.34181 0.17096
 C261 C -0.12598 0.39994 0.11177
 C262 C -0.13953 0.41213 0.08091
 H263 H -0.24367 0.30484 0.16655
 H264 H -0.09722 0.40718 0.12393
 H265 H -0.16337 0.29888 0.21182
 H266 H -0.16641 0.40315 0.06759
 C267 C 0.28702 0.79531 0.69213
 C268 C 0.27294 0.80885 0.66232
 C269 C 0.29786 0.83134 0.64591
 N270 N 0.28438 0.84347 0.61613
 N271 N 0.30646 0.86417 0.60149
 C272 C 0.34275 0.87356 0.61620
 N273 N 0.35614 0.86146 0.64597
 N274 N 0.33415 0.84075 0.66053
 C275 C 0.36745 0.89658 0.60083
 C276 C 0.35771 0.90832 0.56878
 H277 H 0.24278 0.80323 0.65116
 H278 H 0.39494 0.90376 0.61486
 H279 H 0.31746 0.80080 0.70288
 H280 H 0.33211 0.89940 0.55379
 C281 C -0.16688 0.69312 -0.20970
 C282 C -0.18685 0.68090 -0.18144
 C283 C -0.16781 0.65718 -0.16245
 N284 N -0.18834 0.64540 -0.13539
 N285 N -0.17128 0.62397 -0.11801
 C286 C -0.13305 0.61352 -0.12709
 N287 N -0.11259 0.62527 -0.15417
 N288 N -0.12964 0.64668 -0.17154
 C289 C -0.11321 0.59025 -0.10788
 C290 C -0.13195 0.57796 -0.07905
 H291 H -0.21726 0.68869 -0.17322
 H292 H -0.08215 0.58371 -0.11593
 H293 H -0.13665 0.68508 -0.21802
 H294 H -0.16205 0.58597 -0.07036
 C295 C 0.33421 1.19761 0.29543
 C296 C 0.31321 1.18086 0.31941
 C297 C 0.33410 1.15742 0.33753
 N298 N 0.31237 1.14192 0.36090
 N299 N 0.33076 1.12051 0.37736
 C300 C 0.37156 1.11376 0.37099
 N301 N 0.39325 1.12922 0.34756
 N302 N 0.37488 1.15064 0.33112
 C303 C 0.39254 1.09046 0.38935
 C304 C 0.37259 1.07542 0.41559
 H305 H 0.28025 1.18472 0.32470
 H306 H 0.42507 1.08613 0.38312
 H307 H 0.36717 1.19377 0.29012
 H308 H 0.34089 1.08134 0.42285
 C309 C 1.17180 -0.19704 -0.20516
 C310 C 1.18940 -0.18574 -0.17513
 C311 C 1.17016 -0.16144 -0.15749
 N312 N 1.18768 -0.15101 -0.12815
 N313 N 1.17033 -0.12910 -0.11198
 C314 C 1.13485 -0.11679 -0.12460
 N315 N 1.11744 -0.12718 -0.15396
 N316 N 1.13475 -0.14907 -0.17010
 C317 C 1.11468 -0.09291 -0.10694
 C318 C 1.12963 -0.08212 -0.07572
 H319 H 1.21786 -0.19475 -0.16431
 H320 H 1.08609 -0.08462 -0.11827
 H321 H 1.14330 -0.18774 -0.21557
 H322 H 1.15680 -0.09191 -0.06374
 C323 C 0.70887 0.30012 0.31951
 C324 C 0.67582 0.31869 0.31289
 C325 C 0.66577 0.34221 0.33622
 N326 N 0.63419 0.36031 0.32809
 N327 N 0.62466 0.38167 0.34902
 C328 C 0.64642 0.38572 0.37885
 N329 N 0.67799 0.36762 0.38697
 N330 N 0.68754 0.34628 0.36603
 C331 C 0.63572 0.40877 0.40267
 C332 C 0.60423 0.42839 0.39518
 H333 H 0.65702 0.31618 0.28972
 H334 H 0.65331 0.41013 0.42654
 H335 H 0.72807 0.30285 0.34242
 H336 H 0.58917 0.42767 0.37007
 C337 C 0.84546 -0.19026 -0.21038
 C338 C 0.82774 -0.17618 -0.18228
 C339 C 0.85178 -0.15618 -0.16093
 N340 N 0.83115 -0.13814 -0.13969
 N341 N 0.85241 -0.12019 -0.11972
 C342 C 0.89515 -0.11981 -0.12002
 N343 N 0.91581 -0.13802 -0.14104
 N344 N 0.89452 -0.15581 -0.16125
 C345 C 0.91900 -0.10050 -0.09759
 C346 C 0.90055 -0.07672 -0.08279
 H347 H 0.79483 -0.17930 -0.17609
 H348 H 0.95229 -0.10442 -0.09388
 H349 H 0.87757 -0.18554 -0.21777
 H350 H 0.86850 -0.07121 -0.08966
 C351 C 0.30943 0.31409 0.30849
 C352 C 0.34084 0.33401 0.30266
 C353 C 0.35307 0.35455 0.32939
 N354 N 0.37610 0.37763 0.32088
 N355 N 0.38769 0.39616 0.34500
 C356 C 0.37690 0.39216 0.37856
 N357 N 0.35417 0.36898 0.38709
 N358 N 0.34229 0.35059 0.36294
 C359 C 0.39089 0.41177 0.40571
 C360 C 0.40619 0.43864 0.39819
 H361 H 0.35609 0.33503 0.27773
 H362 H 0.38852 0.40492 0.43228
 H363 H 0.29226 0.31444 0.33260
 H364 H 0.40423 0.44636 0.37191
 C365 C 0.15306 0.68781 -0.19889
 C366 C 0.17056 0.67339 -0.17095
 C367 C 0.14562 0.65523 -0.14801
 N368 N 0.16549 0.63849 -0.12470
 N369 N 0.14352 0.62214 -0.10338
 C370 C 0.10079 0.62209 -0.10438
 N371 N 0.08088 0.63899 -0.12752
 N372 N 0.10288 0.65523 -0.14901
 C373 C 0.07618 0.60403 -0.08104
 C374 C 0.09474 0.58209 -0.06243
 H375 H 0.20397 0.67525 -0.16574
 H376 H 0.04242 0.60703 -0.08007
 H377 H 0.12009 0.68503 -0.20522
 H378 H 0.12785 0.57760 -0.06615
 C379 C 0.67298 1.18719 0.31043
 C380 C 0.68954 1.17151 0.33777
 C381 C 0.66288 1.15375 0.35990
 N382 N 0.68091 1.13573 0.38277
 N383 N 0.65719 1.11957 0.40304
 C384 C 0.61453 1.12099 0.40137
 N385 N 0.59649 1.13920 0.37872
 N386 N 0.62021 1.15525 0.35831
 C387 C 0.58792 1.10294 0.42317
 C388 C 0.60434 1.07990 0.44108
 H389 H 0.72302 1.17205 0.34314
 H390 H 0.55431 1.10674 0.42318
 H391 H 0.63970 1.18558 0.30452
 H392 H 0.63742 1.07486 0.43832
 C393 C 0.22088 0.31232 0.18139
 C394 C 0.18236 0.32476 0.18922
 C395 C 0.16174 0.34439 0.16508
 N396 N 0.13099 0.36199 0.17631
 N397 N 0.11221 0.37981 0.15456
 C398 C 0.12323 0.38048 0.12072
 N399 N 0.15360 0.36266 0.10943
 N400 N 0.17264 0.34504 0.13122
 C401 C 0.10256 0.39976 0.09624
 C402 C 0.08031 0.42348 0.10712
 H403 H 0.16759 0.32063 0.21386
 H404 H 0.10687 0.39595 0.06892
 H405 H 0.23694 0.31815 0.15782
 H406 H 0.08002 0.42880 0.13431
 C407 C 0.73466 0.81402 0.67664
 C408 C 0.69888 0.82916 0.68601
 C409 C 0.67713 0.84811 0.66176
 N410 N 0.64659 0.86570 0.67334
 N411 N 0.62586 0.88244 0.65150
 C412 C 0.63467 0.88200 0.61722
 N413 N 0.66502 0.86428 0.60562
 N414 N 0.68595 0.84769 0.62748
 C415 C 0.61162 0.90000 0.59271
 C416 C 0.58693 0.92260 0.60361
 H417 H 0.68608 0.82685 0.71173
 H418 H 0.61575 0.89610 0.56539
 H419 H 0.74869 0.81738 0.65154
 H420 H 0.58635 0.92801 0.63078
 C421 C 0.77268 0.17896 0.19086
 C422 C 0.81410 0.16937 0.18945
 C423 C 0.82835 0.14839 0.16412
 N424 N 0.87013 0.14514 0.15826
 N425 N 0.88380 0.12621 0.13551
 C426 C 0.85621 0.10965 0.11794
 N427 N 0.81440 0.11269 0.12402
 N428 N 0.80068 0.13183 0.14657
 C429 C 0.87122 0.08821 0.09341
 C430 C 0.91201 0.08904 0.08025
 H431 H 0.83751 0.17857 0.20646
 H432 H 0.84955 0.07191 0.08512
 H433 H 0.74974 0.17136 0.17233
 H434 H 0.93169 0.10713 0.08604
 C435 C 0.26607 0.67804 0.68937
 C436 C 0.30827 0.67019 0.69107
 C437 C 0.32586 0.64870 0.66779
 N438 N 0.36807 0.64710 0.66300
 N439 N 0.38428 0.62825 0.64123
 C440 C 0.35886 0.61018 0.62364
 N441 N 0.31670 0.61152 0.62880
 N442 N 0.30047 0.63052 0.65034
 C443 C 0.37620 0.58939 0.59933
 C444 C 0.41684 0.59182 0.58617
 H445 H 0.32948 0.68133 0.70826
 H446 H 0.35565 0.57274 0.59021
 H447 H 0.24561 0.66829 0.67039
 H448 H 0.43547 0.61019 0.59284
   
