data_POSCAR
  _audit_creation_date              2014-09-24
  _audit_creation_method            'ToBaCCo'
  _symmetry_space_group_name_H-M    'P1'
  _symmetry_Int_Tables_number       1
  _symmetry_cell_setting            triclinic
  loop_
  _symmetry_equiv_pos_as_xyz
 x,y,z
_cell_length_a 42.9197
_cell_length_b 42.5527
_cell_length_c 14.7703
_cell_angle_alpha 88.877600
_cell_angle_beta 90.182100
_cell_angle_gamma 120.277100
loop_
  _atom_site_label
  _atom_site_type_symbol
  _atom_site_fract_x
  _atom_site_fract_y
  _atom_site_fract_z
C1 C 0.19574 0.52068 0.59523
 C2 C 0.17678 0.52071 0.51744
 C3 C 0.18786 0.51879 0.42963
 C4 C 0.21862 0.51475 0.41878
 C5 C 0.23867 0.51509 0.49643
 C6 C 0.22717 0.51791 0.58455
 C7 C 0.24845 0.51959 0.65913
 C8 C 0.27918 0.51683 0.64860
 C9 C 0.29023 0.51199 0.56292
 C10 C 0.27003 0.51191 0.48586
 C11 C 0.22834 0.50736 0.33427
 C12 C 0.25942 0.50553 0.32358
 C13 C 0.28104 0.50859 0.39791
 C14 C 0.31240 0.50649 0.38650
 C15 C 0.33172 0.50615 0.46224
 C16 C 0.32148 0.50858 0.55136
 H17 H 0.24219 0.52391 0.72692
 H18 H 0.29447 0.51946 0.70899
 H19 H 0.21169 0.50166 0.27519
 H20 H 0.26576 0.50052 0.25640
 H21 H 0.15204 0.52149 0.52530
 H22 H 0.35430 0.50229 0.44948
 C23 C 0.46085 -0.20643 0.43255
 C24 C 0.45274 -0.19461 0.51214
 C25 C 0.45165 -0.21089 0.59622
 C26 C 0.45762 -0.24077 0.60087
 C27 C 0.46366 -0.25445 0.52001
 C28 C 0.46535 -0.23707 0.43578
 C29 C 0.47103 -0.25097 0.35618
 C30 C 0.47598 -0.28073 0.35896
 C31 C 0.47600 -0.29769 0.44173
 C32 C 0.46885 -0.28500 0.52336
 C33 C 0.45830 -0.25692 0.68397
 C34 C 0.46415 -0.28631 0.68769
 C35 C 0.46772 -0.30213 0.60824
 C36 C 0.47311 -0.33259 0.61012
 C37 C 0.48010 -0.34430 0.52859
 C38 C 0.48143 -0.32788 0.44456
 H39 H 0.47110 -0.23933 0.29031
 H40 H 0.47922 -0.29043 0.29466
 H41 H 0.45487 -0.24658 0.74726
 H42 H 0.46684 -0.29547 0.75419
 H43 H 0.44972 -0.17078 0.50954
 H44 H 0.48576 -0.36645 0.53106
 C45 C 1.19135 0.68688 0.58323
 C46 C 1.17623 0.67359 0.49834
 C47 C 1.19275 0.69162 0.41753
 C48 C 1.22611 0.72426 0.41956
 C49 C 1.24235 0.73907 0.50394
 C50 C 1.22460 0.72085 0.58658
 C51 C 1.23868 0.73922 0.66799
 C52 C 1.27031 0.77285 0.66957
 C53 C 1.28923 0.79055 0.58950
 C54 C 1.27498 0.77353 0.50527
 C55 C 1.24192 0.74395 0.33931
 C56 C 1.27339 0.77742 0.34076
 C57 C 1.29168 0.79206 0.42204
 C58 C 1.32414 0.82637 0.42391
 C59 C 1.33665 0.84276 0.50761
 C60 C 1.31972 0.82631 0.59029
 H61 H 1.22451 0.72933 0.73156
 H62 H 1.27862 0.78542 0.73476
 H63 H 1.22921 0.73439 0.27435
 H64 H 1.28161 0.79240 0.27733
 H65 H 1.15077 0.64811 0.49419
 H66 H 1.36183 0.86856 0.50876
 C67 C 0.68572 0.49882 0.59275
 C68 C 0.67007 0.50198 0.51170
 C69 C 0.68492 0.50306 0.42640
 C70 C 0.71722 0.50177 0.42157
 C71 C 0.73423 0.49973 0.50267
 C72 C 0.71814 0.49761 0.58818
 C73 C 0.73652 0.49742 0.66716
 C74 C 0.76980 0.49953 0.66302
 C75 C 0.78652 0.50170 0.57964
 C76 C 0.76824 0.50141 0.49835
 C77 C 0.73384 0.50414 0.33791
 C78 C 0.76687 0.50547 0.33359
 C79 C 0.78471 0.50468 0.41275
 C80 C 0.81925 0.50847 0.40870
 C81 C 0.83666 0.50856 0.48876
 C82 C 0.82191 0.50668 0.57481
 H83 H 0.72638 0.49732 0.73405
 H84 H 0.78242 0.50055 0.72699
 H85 H 0.72197 0.50594 0.27473
 H86 H 0.77874 0.50808 0.26735
 H87 H 0.64459 0.50150 0.51444
 H88 H 0.86216 0.50925 0.48283
 C89 C 0.46818 0.30408 0.54531
 C90 C 0.46175 0.31263 0.45821
 C91 C 0.46270 0.29377 0.38305
 C92 C 0.46901 0.26447 0.39451
 C93 C 0.47457 0.25464 0.48290
 C94 C 0.47451 0.27475 0.55862
 C95 C 0.47956 0.26424 0.64547
 C96 C 0.48410 0.23429 0.65821
 C97 C 0.48321 0.21322 0.58462
 C98 C 0.47909 0.22401 0.49576
 C99 C 0.46860 0.24401 0.32053
 C100 C 0.47317 0.21410 0.33302
 C101 C 0.47837 0.20360 0.41990
 C102 C 0.48193 0.17265 0.43331
 C103 C 0.48743 0.16322 0.52030
 C104 C 0.48765 0.18252 0.59685
 H105 H 0.47981 0.27898 0.70463
 H106 H 0.48864 0.22817 0.72667
 H107 H 0.46425 0.25066 0.25229
 H108 H 0.47244 0.19916 0.27383
 H109 H 0.45610 0.33462 0.44856
 H110 H 0.48850 0.13839 0.52865
 C111 C 0.71574 0.15752 0.56153
 C112 C 0.70221 0.14472 0.47557
 C113 C 0.71348 0.16776 0.39930
 C114 C 0.74035 0.20460 0.40720
 C115 C 0.75561 0.21795 0.49323
 C116 C 0.74327 0.19440 0.57091
 C117 C 0.75954 0.20811 0.65465
 C118 C 0.78714 0.24414 0.66241
 C119 C 0.80016 0.26794 0.58632
 C120 C 0.78366 0.25475 0.50106
 C121 C 0.75308 0.22801 0.33088
 C122 C 0.78018 0.26406 0.33866
 C123 C 0.79576 0.27795 0.42289
 C124 C 0.82410 0.31413 0.43022
 C125 C 0.83903 0.32726 0.51483
 C126 C 0.82830 0.30481 0.59327
 H127 H 0.75141 0.19099 0.71510
 H128 H 0.79777 0.25304 0.72937
 H129 H 0.74251 0.21860 0.26403
 H130 H 0.78899 0.28092 0.27769
 H131 H 0.68139 0.11643 0.46825
 H132 H 0.86185 0.35477 0.51695
 O133 O 0.95657 0.43156 0.17674
 O134 O 0.91647 0.43922 0.08962
 C135 C 0.92406 0.42318 0.15463
 O136 O 1.05801 0.59263 0.15856
 O137 O 1.09786 0.58248 0.07907
 C138 C 1.09044 0.60015 0.13761
 O139 O 0.95698 0.54037 0.16470
 O140 O 0.91669 0.49146 0.08209
 C141 C 0.92439 0.51578 0.14294
 O142 O 1.05670 0.47848 0.16719
 O143 O 1.09742 0.52838 0.08320
 C144 C 1.08932 0.50335 0.14527
 Zr145 Zr 1.00657 0.47019 0.12017
 O146 O 1.00989 0.46891 0.26293
 O147 O 1.00166 0.41815 0.11513
 Zr148 Zr 1.00748 0.55037 0.11509
 O149 O 1.01080 0.55309 0.25806
 O150 O 1.00457 0.59858 0.10805
 O151 O 0.97503 0.49441 0.13650
 O152 O 1.03805 0.52575 0.13457
 O153 O 1.05672 0.47729 -0.15138
 O154 O 1.09710 0.52797 -0.07375
 C155 C 1.08925 0.50272 -0.13239
 O156 O 0.95864 0.53904 -0.16822
 O157 O 0.91758 0.49138 -0.07917
 C158 C 0.92585 0.51454 -0.14614
 O159 O 1.05927 0.59286 -0.15674
 O160 O 1.09870 0.58232 -0.07466
 C161 C 1.09157 0.60041 -0.13476
 O162 O 0.95509 0.43048 -0.15788
 O163 O 0.91602 0.44011 -0.07271
 C164 C 0.92294 0.42398 -0.13618
 Zr165 Zr 1.00643 0.46956 -0.10629
 O166 O 1.01038 0.46921 -0.24900
 O167 O 1.00121 0.41739 -0.09620
 Zr168 Zr 1.00828 0.55029 -0.11174
 O169 O 1.01298 0.55470 -0.25458
 O170 O 1.00448 0.59802 -0.10974
 Zr171 Zr 0.95322 0.48346 0.00512
 Zr172 Zr 1.06122 0.53693 0.00397
 O173 O 1.03846 0.52533 -0.12635
 O174 O 0.97559 0.49424 -0.12673
 O175 O 1.03913 0.47997 0.00699
 O176 O 0.97622 0.54035 0.00112
 O177 O 0.97448 0.44842 0.00793
 O178 O 1.04053 0.57262 0.00115
 H179 H 1.05368 0.53362 0.18869
 H180 H 0.95989 0.55048 -0.00103
 H181 H 1.05433 0.53334 -0.18061
 H182 H 0.95730 0.42182 0.00934
 H183 H 1.02621 0.61728 0.07484
 H184 H 1.02660 0.61732 -0.08119
 H185 H 0.99686 0.53015 -0.27836
 H186 H 0.99271 0.47527 -0.27465
 H187 H 1.02330 0.42029 -0.06720
 H188 H 1.02456 0.42137 0.09073
 H189 H 0.99676 0.48057 0.28664
 H190 H 0.99037 0.53026 0.28310
 O191 O 0.41143 0.44472 0.14233
 O192 O 0.41374 0.49521 0.07672
 C193 C 0.39923 0.46682 0.13059
 O194 O 0.57189 0.52628 0.17266
 O195 O 0.57456 0.48749 0.07129
 C196 C 0.58588 0.50757 0.14277
 O197 O 0.50593 0.55873 0.19412
 O198 O 0.45841 0.54891 0.10326
 C199 C 0.47817 0.56203 0.17439
 O200 O 0.47186 0.40644 0.11070
 O201 O 0.52723 0.43080 0.04122
 C202 C 0.50076 0.40570 0.08888
 Zr203 Zr 0.45688 0.44598 0.08432
 O204 O 0.45003 0.42841 0.22143
 O205 O 0.41062 0.39613 0.04992
 Zr206 Zr 0.52744 0.53035 0.12590
 O207 O 0.52556 0.51935 0.26676
 O208 O 0.56912 0.58481 0.14462
 O209 O 0.47139 0.49781 0.12848
 O210 O 0.51094 0.47569 0.11706
 O211 O 0.48416 0.43191 -0.19625
 O212 O 0.53333 0.44353 -0.11020
 C213 C 0.51088 0.42705 -0.17527
 O214 O 0.52082 0.58758 -0.12971
 O215 O 0.46644 0.56424 -0.05549
 C216 C 0.49195 0.58825 -0.10768
 O217 O 0.58468 0.55310 -0.14528
 O218 O 0.58042 0.50058 -0.08740
 C219 C 0.59604 0.53020 -0.13705
 O220 O 0.42800 0.47669 -0.19520
 O221 O 0.42097 0.50995 -0.08513
 C222 C 0.41347 0.49466 -0.16345
 Zr223 Zr 0.46629 0.46510 -0.13708
 O224 O 0.47094 0.47050 -0.27967
 O225 O 0.41840 0.41418 -0.15168
 Zr226 Zr 0.53691 0.54942 -0.09598
 O227 O 0.54608 0.56256 -0.23600
 O228 O 0.57854 0.60232 -0.06233
 Zr229 Zr 0.46268 0.51677 0.00330
 Zr230 Zr 0.53115 0.47865 -0.01454
 O231 O 0.52171 0.49757 -0.13868
 O232 O 0.48251 0.52018 -0.12921
 O233 O 0.47693 0.43769 -0.03477
 O234 O 0.51690 0.55698 0.02324
 O235 O 0.43625 0.46090 -0.02411
 O236 O 0.55834 0.53476 0.01258
 H237 H 0.51839 0.46538 0.16770
 H238 H 0.52256 0.58209 0.03608
 H239 H 0.53319 0.49602 -0.19520
 H240 H 0.40968 0.44825 -0.03093
 H241 H 0.59160 0.58750 0.11878
 H242 H 0.59881 0.60022 -0.03705
 H243 H 0.52261 0.55614 -0.26347
 H244 H 0.48591 0.49681 -0.29372
 H245 H 0.42412 0.39488 -0.13684
 H246 H 0.41886 0.38124 0.01855
 H247 H 0.45773 0.45020 0.25831
 H248 H 0.50004 0.50777 0.28627
 O249 O 0.52608 -0.05862 0.18321
 O250 O 0.47783 -0.09400 0.09247
 C251 C 0.49879 -0.08954 0.16070
 O252 O 0.48557 0.05748 0.15953
 O253 O 0.53882 0.09408 0.08381
 C254 C 0.51338 0.08908 0.13957
 O255 O 0.42675 -0.04382 0.16228
 O256 O 0.43040 -0.08723 0.08048
 C257 C 0.41524 -0.07727 0.14060
 O258 O 0.58979 0.04078 0.17521
 O259 O 0.58845 0.08631 0.09249
 C260 C 0.60224 0.07468 0.15369
 Zr261 Zr 0.54460 -0.00630 0.12658
 O262 O 0.54583 -0.00404 0.26959
 O263 O 0.58728 -0.01772 0.12677
 Zr264 Zr 0.47198 0.00503 0.11513
 O265 O 0.47005 0.00721 0.25801
 O266 O 0.42439 0.00817 0.10416
 O267 O 0.48852 -0.03284 0.13780
 O268 O 0.52674 0.03036 0.13911
 O269 O 0.59666 0.04601 -0.14356
 O270 O 0.59149 0.08858 -0.06228
 C271 C 0.60769 0.07941 -0.12085
 O272 O 0.43402 -0.04108 -0.16540
 O273 O 0.43416 -0.08619 -0.07769
 C274 C 0.42153 -0.07511 -0.14283
 O275 O 0.49248 0.06118 -0.15457
 O276 O 0.54309 0.09605 -0.06995
 C277 C 0.51998 0.09216 -0.13169
 O278 O 0.53476 -0.05480 -0.15257
 O279 O 0.48227 -0.09237 -0.07423
 C280 C 0.50708 -0.08648 -0.13360
 Zr281 Zr 0.55003 -0.00334 -0.09990
 O282 O 0.55729 0.00108 -0.24210
 O283 O 0.59318 -0.01365 -0.08431
 Zr284 Zr 0.47698 0.00738 -0.11157
 O285 O 0.48191 0.01288 -0.25441
 O286 O 0.42916 0.01018 -0.11875
 Zr287 Zr 0.47823 -0.05357 0.00563
 Zr288 Zr 0.54342 0.05470 0.00961
 O289 O 0.53248 0.03330 -0.12167
 O290 O 0.49462 -0.02988 -0.12508
 O291 O 0.57255 0.02698 0.01548
 O292 O 0.45024 -0.02471 -0.00007
 O293 O 0.53316 -0.03764 0.01307
 O294 O 0.48850 0.03962 0.00194
 H295 H 0.53517 0.04570 0.19345
 H296 H 0.42356 -0.03848 -0.00336
 H297 H 0.54300 0.04972 -0.17528
 H298 H 0.53954 -0.05701 0.01585
 H299 H 0.43076 0.03134 0.07230
 H300 H 0.43302 0.03124 -0.08302
 H301 H 0.48157 -0.00898 -0.27734
 H302 H 0.53299 -0.01184 -0.26912
 H303 H 0.61402 0.00844 -0.05972
 H304 H 0.60854 0.00329 0.09784
 H305 H 0.52053 -0.01734 0.29120
 H306 H 0.46942 -0.01476 0.28352
 C307 C 1.16572 0.51903 0.35871
 C308 C 1.17701 0.53408 0.27566
 C309 C 1.15135 0.53247 0.20606
 C310 C 1.11806 0.50351 0.19994
 H311 H 1.20553 0.55062 0.26043
 H312 H 1.15997 0.55572 0.16060
 H313 H 1.13775 0.50963 0.37577
 H314 H 1.11027 0.47994 0.24378
 C315 C 0.49009 0.65914 0.36665
 C316 C 0.47867 0.62377 0.35596
 C317 C 0.49034 0.61074 0.27925
 C318 C 0.46689 0.57986 0.23963
 H319 H 0.45921 0.60348 0.40290
 H320 H 0.51833 0.62569 0.25744
 H321 H 0.50543 0.67784 0.31186
 H322 H 0.43845 0.56670 0.25693
 C323 C 0.34511 -0.15285 0.34821
 C324 C 0.34872 -0.16525 0.26805
 C325 C 0.37330 -0.14026 0.19604
 C326 C 0.38354 -0.10483 0.19163
 H327 H 0.33729 -0.19410 0.25804
 H328 H 0.38427 -0.15115 0.14830
 H329 H 0.36305 -0.12417 0.35991
 H330 H 0.37051 -0.09443 0.23446
 C331 C 0.83892 0.51295 0.32267
 C332 C 0.87331 0.53989 0.31383
 C333 C 0.89925 0.54215 0.24520
 C334 C 0.89412 0.51472 0.19240
 H335 H 0.88447 0.56054 0.36516
 H336 H 0.92560 0.56657 0.24647
 H337 H 0.82585 0.49289 0.27087
 H338 H 0.86814 0.49002 0.18960
 C339 C 0.45528 0.30512 0.29487
 C340 C 0.48177 0.32457 0.23536
 C341 C 0.47663 0.34704 0.16713
 C342 C 0.50466 0.37565 0.12677
 H343 H 0.50839 0.32819 0.24603
 H344 H 0.44986 0.34348 0.16039
 H345 H 0.42964 0.30413 0.28786
 H346 H 0.53149 0.37935 0.13207
 C347 C 0.69601 0.15148 0.31324
 C348 C 0.67309 0.16000 0.27315
 C349 C 0.64637 0.13649 0.20558
 C350 C 0.63329 0.10052 0.20633
 H351 H 0.67184 0.18346 0.29535
 H352 H 0.63416 0.14822 0.16281
 H353 H 0.69800 0.12843 0.29153
 H354 H 0.64337 0.08834 0.25435
 C355 C 0.48828 0.16821 -0.31667
 C356 C 0.50729 0.15173 -0.30001
 C357 C 0.50074 0.12853 -0.21949
 C358 C 0.52729 0.12443 -0.18557
 H359 H 0.52690 0.15357 -0.34920
 H360 H 0.47324 0.11133 -0.19552
 H361 H 0.47261 0.17006 -0.26187
 H362 H 0.55498 0.14308 -0.20613
 C363 C 0.66843 0.49618 -0.32381
 C364 C 0.65233 0.51543 -0.30725
 C365 C 0.63267 0.51104 -0.22207
 C366 C 0.62606 0.53715 -0.19747
 H367 H 0.65404 0.53542 -0.35679
 H368 H 0.62046 0.48512 -0.18570
 H369 H 0.66972 0.47965 -0.26891
 H370 H 0.63873 0.56274 -0.23549
 C371 C 0.84828 0.31887 -0.32654
 C372 C 0.86344 0.35407 -0.30605
 C373 C 0.88974 0.37068 -0.23307
 C374 C 0.89231 0.39945 -0.19199
 H375 H 0.85654 0.37171 -0.34436
 H376 H 0.90844 0.36124 -0.21804
 H377 H 0.85179 0.30101 -0.27978
 H378 H 0.87183 0.40684 -0.20388
 C379 C 0.44695 -0.19361 -0.32289
 C380 C 0.47537 -0.17184 -0.27240
 C381 C 0.47424 -0.14633 -0.20778
 C382 C 0.50510 -0.11700 -0.18369
 H383 H 0.50105 -0.17004 -0.28625
 H384 H 0.44855 -0.14952 -0.18718
 H385 H 0.42193 -0.19345 -0.31517
 H386 H 0.53034 -0.11315 -0.21042
 C387 C 0.34095 0.50522 -0.37415
 C388 C 0.37487 0.51134 -0.38176
 C389 C 0.39398 0.50191 -0.31313
 C390 C 0.38899 0.50027 -0.22329
 H391 H 0.39027 0.52274 -0.44340
 H392 H 0.41570 0.49867 -0.33968
 H393 H 0.32782 0.49604 -0.30894
 H394 H 0.36992 0.50683 -0.19400
 C395 C 1.16992 0.66563 -0.34224
 C396 C 1.18116 0.66155 -0.26008
 C397 C 1.15494 0.63668 -0.19036
 C398 C 1.12112 0.63069 -0.18605
 H399 H 1.20956 0.67258 -0.24690
 H400 H 1.16335 0.62217 -0.14478
 H401 H 1.14154 0.64760 -0.35621
 H402 H 1.11356 0.64672 -0.22880
 C403 C 0.84304 0.51020 -0.34749
 C404 C 0.87932 0.53045 -0.34983
 C405 C 0.90409 0.53466 -0.27558
 C406 C 0.89646 0.51187 -0.20418
 H407 H 0.89277 0.54692 -0.40949
 H408 H 0.93163 0.55644 -0.28664
 H409 H 0.83024 0.49798 -0.28346
 H410 H 0.86938 0.48931 -0.19285
 C411 C 0.46458 0.32478 -0.38030
 C412 C 0.49292 0.34975 -0.33437
 C413 C 0.48864 0.37518 -0.27632
 C414 C 0.51586 0.40093 -0.22880
 H415 H 0.51934 0.35281 -0.34412
 H416 H 0.46244 0.37317 -0.27399
 H417 H 0.43869 0.32321 -0.37308
 H418 H 0.54181 0.40240 -0.22778
 C419 C 0.69933 0.13065 -0.36257
 C420 C 0.68260 0.13575 -0.29308
 C421 C 0.65723 0.10481 -0.23439
 C422 C 0.63908 0.10967 -0.16801
 H423 H 0.68474 0.16205 -0.28513
 H424 H 0.65118 0.07755 -0.25042
 H425 H 0.69498 0.10357 -0.37307
 H426 H 0.64545 0.13710 -0.15270
 C427 C 1.18162 0.52134 -0.31869
 C428 C 1.16435 0.53978 -0.30439
 C429 C 1.14462 0.53684 -0.22048
 C430 C 1.11851 0.50464 -0.18820
 H431 H 1.16499 0.55868 -0.35561
 H432 H 1.14562 0.56142 -0.19839
 H433 H 1.18508 0.50709 -0.26157
 H434 H 1.11436 0.47985 -0.21864
 C435 C 0.47475 0.64856 -0.31206
 C436 C 0.45416 0.63954 -0.23698
 C437 C 0.45686 0.61570 -0.16652
 C438 C 0.48862 0.61812 -0.14827
 H439 H 0.43194 0.64466 -0.23303
 H440 H 0.43213 0.59387 -0.13695
 H441 H 0.49104 0.63580 -0.31875
 H442 H 0.51314 0.64068 -0.17685
 C443 C 0.33477 -0.15409 -0.32931
 C444 C 0.35115 -0.11750 -0.32875
 C445 C 0.37384 -0.09394 -0.25578
 C446 C 0.39176 -0.10306 -0.19654
 H447 H 0.34843 -0.10301 -0.38654
 H448 H 0.37981 -0.06599 -0.25990
 H449 H 0.33299 -0.16848 -0.26668
 H450 H 0.38670 -0.13068 -0.19220
 C451 C 0.46931 -0.18361 0.34922
 C452 C 0.44713 -0.17287 0.31588
 C453 C 0.45688 -0.14730 0.23786
 C454 C 0.49077 -0.12064 0.22099
 H455 H 0.42077 -0.18313 0.34661
 H456 H 0.43508 -0.14747 0.20116
 H457 H 0.49442 -0.17592 0.31450
 H458 H 0.51250 -0.11815 0.26338
 C459 C 0.32671 0.50568 0.29592
 C460 C 0.33478 0.48010 0.27641
 C461 C 0.35769 0.48399 0.19831
 C462 C 0.36824 0.45967 0.18741
 H463 H 0.32736 0.45772 0.32429
 H464 H 0.36930 0.50871 0.15699
 H465 H 0.33290 0.52769 0.24792
 H466 H 0.35680 0.43550 0.23085
 C467 C 1.17327 0.67587 0.33235
 C468 C 1.13967 0.66973 0.32198
 C469 C 1.11458 0.64821 0.24979
 C470 C 1.12057 0.62889 0.18869
 H471 H 1.12853 0.67902 0.37379
 H472 H 1.08808 0.64533 0.25445
 H473 H 1.18642 0.66878 0.28096
 H474 H 1.14675 0.63124 0.18213
 C475 C 0.47442 0.14585 0.36211
 C476 C 0.49874 0.15035 0.29934
 C477 C 0.49233 0.11936 0.24311
 C478 C 0.51737 0.12139 0.18573
 H479 H 0.52412 0.17587 0.29411
 H480 H 0.46736 0.09371 0.25297
 H481 H 0.44990 0.11965 0.36972
 H482 H 0.54228 0.14704 0.17562
 C483 C 0.66544 0.50488 0.34409
 C484 C 0.65293 0.52811 0.33939
 C485 C 0.62879 0.52942 0.26920
 C486 C 0.61515 0.50772 0.19728
 H487 H 0.65934 0.54699 0.39409
 H488 H 0.62018 0.54887 0.28218
 H489 H 0.66072 0.48647 0.28950
 H490 H 0.62359 0.48842 0.18137
 C491 C 0.84269 0.33758 0.34992
 C492 C 0.87689 0.34663 0.33375
 C493 C 0.90128 0.37275 0.26450
 C494 C 0.89437 0.39384 0.20890
 H495 H 0.88899 0.33502 0.37763
 H496 H 0.92800 0.37602 0.26427
 H497 H 0.82861 0.34708 0.30674
 H498 H 0.86782 0.39083 0.20593
   
