data_POSCAR
  _audit_creation_date              2014-09-24
  _audit_creation_method            'ToBaCCo'
  _symmetry_space_group_name_H-M    'P1'
  _symmetry_Int_Tables_number       1
  _symmetry_cell_setting            triclinic
  loop_
  _symmetry_equiv_pos_as_xyz
 x,y,z
_cell_length_a 40.2351
_cell_length_b 41.1220
_cell_length_c 38.8125
_cell_angle_alpha 88.502200
_cell_angle_beta 90.788000
_cell_angle_gamma 90.811000
loop_
  _atom_site_label
  _atom_site_type_symbol
  _atom_site_fract_x
  _atom_site_fract_y
  _atom_site_fract_z
C1 C 0.21043 0.19726 0.21961
 N2 N 0.23211 0.17669 0.20507
 C3 C 0.23941 0.17934 0.17096
 N4 N 0.22456 0.20298 0.15129
 C5 C 0.20372 0.22431 0.16559
 N6 N 0.19667 0.22133 0.19962
 C7 C -0.14049 0.80097 0.22549
 N8 N -0.16385 0.81755 0.20703
 C9 C -0.18599 0.80231 0.18620
 N10 N -0.18357 0.76969 0.18251
 C11 C -0.15944 0.75256 0.19965
 N12 N -0.13845 0.76823 0.22187
 C13 C -0.22229 0.19987 -0.26105
 N14 N -0.20947 0.22879 -0.25035
 C15 C -0.21850 0.24121 -0.21982
 N16 N -0.24032 0.22422 -0.19974
 C17 C -0.25350 0.19533 -0.20974
 N18 N -0.24440 0.18340 -0.24055
 C19 C 0.16902 0.82397 -0.20898
 N20 N 0.19867 0.83795 -0.20072
 C21 C 0.22132 0.82192 -0.18068
 N22 N 0.21338 0.79170 -0.16793
 C23 C 0.18363 0.77741 -0.17583
 N24 N 0.16160 0.79351 -0.19679
 C25 C 0.20783 1.19071 0.78337
 N26 N 0.22923 1.17153 0.80190
 C27 C 0.23531 1.17722 0.83583
 N28 N 0.21954 1.20174 0.85146
 C29 C 0.19864 1.22148 0.83309
 N30 N 0.19329 1.21577 0.79919
 C31 C 0.80213 0.81883 0.75603
 N32 N 0.81915 0.79268 0.76834
 C33 C 0.80644 0.77247 0.79324
 N34 N 0.77584 0.77868 0.80592
 C35 C 0.75834 0.80476 0.79380
 N36 N 0.77174 0.82474 0.76908
 C37 C 0.18533 0.81197 1.23965
 N38 N 0.21802 0.81473 1.23183
 C39 C 0.23257 0.79332 1.21091
 N40 N 0.21382 0.76913 1.19690
 C41 C 0.18096 0.76602 1.20443
 N42 N 0.16704 0.78739 1.22594
 C43 C 0.77681 1.21632 1.24416
 N44 N 0.79071 1.24405 1.23053
 C45 C 0.77873 1.25790 1.20078
 N46 N 0.75268 1.24333 1.18433
 C47 C 0.73849 1.21559 1.19738
 N48 N 0.75059 1.20230 1.22735
 O49 O 0.53737 0.95293 0.95051
 O50 O 0.47987 0.93003 1.08182
 O51 O 0.57756 0.96580 1.05233
 O52 O 0.47103 0.92625 0.97634
 O53 O 0.54112 0.93374 1.07454
 O54 O 0.47691 0.96481 0.94156
 O55 O 0.46031 0.91339 1.03360
 O56 O 0.56356 0.93964 0.99733
 C57 C 0.55678 0.93409 0.96665
 C58 C 0.46372 0.90953 1.06511
 C59 C 0.57090 0.94067 1.06964
 C60 C 0.46789 0.93631 0.94672
 O61 O 0.48482 1.02025 0.97201
 O62 O 0.53643 0.99925 1.08147
 O63 O 0.59090 0.99486 0.99209
 O64 O 0.43726 0.97324 1.04580
 O65 O 0.47424 0.99174 1.08362
 O66 O 0.54530 1.01532 0.97069
 O67 O 0.44297 0.98807 0.98456
 O68 O 0.55014 1.01986 1.03184
 Co69 Co 0.51097 0.98617 0.96430
 Co70 Co 0.50833 0.96430 1.07461
 Co71 Co 0.55458 0.97919 1.01397
 Co72 Co 0.45713 0.95190 1.01015
 O73 O 0.50575 0.96891 1.01847
 C74 C 0.45411 1.01572 0.97467
 C75 C 0.54772 1.02280 1.06366
 C76 C 0.57639 1.01181 0.96737
 C77 C 0.44487 0.99001 1.07192
 O78 O 0.04456 0.47180 0.03268
 O79 O 0.01938 0.52421 -0.07637
 O80 O 0.00098 0.42458 -0.04012
 O81 O 0.00976 0.57409 0.01485
 O82 O 0.01901 0.46244 -0.07742
 O83 O 0.03690 0.53121 0.03369
 O84 O 0.03783 0.53913 -0.02688
 O85 O 0.01329 0.42974 0.02148
 C86 C 0.04110 0.44164 0.03057
 C87 C 0.04105 0.53869 -0.05872
 C88 C 0.01882 0.43352 -0.06566
 C89 C 0.03124 0.56143 0.03691
 O90 O -0.02574 0.52050 0.05637
 O91 O -0.04418 0.46148 -0.07686
 O92 O -0.05112 0.45284 0.02891
 O93 O -0.02026 0.56029 -0.04560
 O94 O -0.04714 0.52145 -0.07000
 O95 O -0.01250 0.46194 0.06389
 O96 O -0.04488 0.54295 0.01006
 O97 O -0.06244 0.44287 -0.02867
 Co98 Co 0.00869 0.49601 0.04105
 Co99 Co -0.01271 0.49274 -0.06923
 Co100 Co -0.02338 0.44172 -0.00471
 Co101 Co -0.00382 0.53850 -0.00771
 O102 O -0.00917 0.49032 -0.01278
 C103 C -0.04776 0.53715 0.04141
 C104 C -0.06526 0.44536 -0.06034
 C105 C -0.04151 0.45258 0.05891
 C106 C -0.04359 0.55104 -0.06466
 O107 O 1.07748 0.03907 0.46697
 O108 O 0.93584 0.04604 0.51858
 O109 O 0.98266 0.08055 0.45382
 O110 O 1.03760 0.06945 0.55317
 O111 O 0.94133 0.04760 0.45702
 O112 O 1.07443 0.03752 0.53101
 O113 O 0.97602 0.07676 0.53714
 O114 O 1.04314 0.07695 0.45388
 C115 C 1.07224 0.06753 0.45586
 C116 C 0.94577 0.07259 0.53110
 C117 C 0.95226 0.07577 0.45077
 C118 C 1.06719 0.06130 0.54936
 O119 O 1.05067 -0.02203 0.53147
 O120 O 0.96563 -0.01415 0.45894
 O121 O 1.03862 0.01786 0.42540
 O122 O 0.96508 0.01620 0.56102
 O123 O 0.95789 -0.01695 0.52043
 O124 O 1.04828 -0.01955 0.46467
 O125 O 1.02521 0.00789 0.56888
 O126 O 0.97881 0.02264 0.42184
 Co127 Co 1.05716 0.01058 0.49782
 Co128 Co 0.95469 0.01681 0.48921
 Co129 Co 1.01021 0.04786 0.44338
 Co130 Co 1.00113 0.04158 0.54923
 O131 O 1.00608 0.02938 0.49509
 C132 C 1.04050 -0.01765 0.56138
 C133 C 0.97029 -0.00617 0.42836
 C134 C 1.04593 -0.01105 0.43371
 C135 C 0.95693 -0.01152 0.55153
 C136 C 1.16056 0.20237 0.29931
 C137 C 1.17010 0.17395 0.31809
 C138 C 1.19695 0.15611 0.30529
 C139 C 1.21168 0.16512 0.27374
 C140 C 1.19980 0.19166 0.25379
 C141 C 1.17506 0.21091 0.26781
 C142 C 1.20814 0.12849 0.32325
 C143 C 1.19192 0.11679 0.35247
 C144 C 1.16341 0.13214 0.36482
 C145 C 1.15301 0.16183 0.34807
 C146 C 1.12486 0.17751 0.36081
 C147 C 1.10592 0.16345 0.38697
 C148 C 1.11436 0.13345 0.40185
 C149 C 1.14393 0.11793 0.39213
 C150 C 1.15168 0.08793 0.40900
 C151 C 1.12942 0.07273 0.43180
 C152 C 1.09893 0.08696 0.43886
 C153 C 1.09237 0.11810 0.42513
 H154 H 1.14128 0.21815 0.30760
 H155 H 1.23139 0.15029 0.26404
 H156 H 1.16576 0.23213 0.25386
 H157 H 1.22912 0.11512 0.31400
 H158 H 1.20183 0.09491 0.36416
 H159 H 1.11598 0.20031 0.35032
 H160 H 1.08371 0.17575 0.39484
 H161 H 1.17409 0.07488 0.40425
 H162 H 1.13537 0.04886 0.44242
 H163 H 1.06907 0.12962 0.43086
 C164 C 0.91359 -0.17882 0.30111
 C165 C 0.91449 -0.14433 0.29869
 C166 C 0.90070 -0.12941 0.26859
 C167 C 0.88334 -0.14789 0.24440
 C168 C 0.88041 -0.18185 0.24822
 C169 C 0.89726 -0.19728 0.27589
 C170 C 0.90335 -0.09590 0.26306
 C171 C 0.91868 -0.07645 0.28726
 C172 C 0.93087 -0.08968 0.31878
 C173 C 0.92796 -0.12406 0.32507
 C174 C 0.93659 -0.13660 0.35817
 C175 C 0.94643 -0.11610 0.38457
 C176 C 0.94970 -0.08257 0.37858
 C177 C 0.94387 -0.06925 0.34504
 C178 C 0.95079 -0.03578 0.33924
 C179 C 0.96015 -0.01592 0.36625
 C180 C 0.96287 -0.02854 0.39999
 C181 C 0.95827 -0.06210 0.40595
 H182 H 0.92534 -0.19213 0.32214
 H183 H 0.87193 -0.13546 0.22234
 H184 H 0.89629 -0.22352 0.27922
 H185 H 0.89307 -0.08446 0.23986
 H186 H 0.91870 -0.05071 0.28132
 H187 H 0.93410 -0.16210 0.36497
 H188 H 0.95139 -0.12660 0.41000
 H189 H 0.94960 -0.02423 0.31402
 H190 H 0.96457 0.00972 0.36068
 H191 H 0.96139 -0.07226 0.43183
 C192 C 0.79023 0.14053 0.66942
 C193 C 0.81657 0.15514 0.65047
 C194 C 0.82796 0.18632 0.66046
 C195 C 0.81388 0.20167 0.68860
 C196 C 0.78894 0.18613 0.70834
 C197 C 0.77685 0.15570 0.69777
 C198 C 0.85414 0.20170 0.64305
 C199 C 0.87090 0.18595 0.61745
 C200 C 0.86187 0.15410 0.60791
 C201 C 0.83300 0.13927 0.62315
 C202 C 0.82206 0.10878 0.61110
 C203 C 0.84024 0.09202 0.58731
 C204 C 0.87022 0.10469 0.57489
 C205 C 0.88124 0.13617 0.58443
 C206 C 0.91227 0.14748 0.57168
 C207 C 0.93228 0.12749 0.55244
 C208 C 0.92185 0.09592 0.54454
 C209 C 0.89010 0.08524 0.55448
 H210 H 0.78017 0.11680 0.66390
 H211 H 0.82354 0.22531 0.69589
 H212 H 0.75743 0.14293 0.71194
 H213 H 0.86249 0.22585 0.65005
 H214 H 0.89104 0.19946 0.60564
 H215 H 0.79949 0.09700 0.61975
 H216 H 0.83134 0.06826 0.57958
 H217 H 0.92273 0.17094 0.57768
 H218 H 0.95669 0.13632 0.54491
 H219 H 0.88189 0.06072 0.54868
 C220 C 1.12017 -0.10524 0.75545
 C221 C 1.10614 -0.11754 0.72472
 C222 C 1.11186 -0.15062 0.71732
 C223 C 1.13035 -0.17048 0.74036
 C224 C 1.14511 -0.15731 0.76981
 C225 C 1.13969 -0.12476 0.77724
 C226 C 1.10035 -0.16324 0.68627
 C227 C 1.08537 -0.14323 0.66132
 C228 C 1.08032 -0.10989 0.66701
 C229 C 1.08849 -0.09757 0.70020
 C230 C 1.07913 -0.06558 0.70761
 C231 C 1.06503 -0.04528 0.68248
 C232 C 1.06046 -0.05576 0.64887
 C233 C 1.06781 -0.08826 0.64057
 C234 C 1.06406 -0.09718 0.60573
 C235 C 1.05447 -0.07444 0.58027
 C236 C 1.04764 -0.04234 0.58870
 C237 C 1.04970 -0.03345 0.62323
 H238 H 1.11813 -0.08017 0.76243
 H239 H 1.13509 -0.19557 0.73428
 H240 H 1.15119 -0.11416 0.79981
 H241 H 1.10413 -0.18859 0.68062
 H242 H 1.07765 -0.15469 0.63782
 H243 H 1.08207 -0.05559 0.73289
 H244 H 1.05876 -0.02070 0.68918
 H245 H 1.06986 -0.12108 0.59702
 H246 H 1.05290 -0.08191 0.55373
 H247 H 1.04469 -0.00857 0.62994
 C248 C 0.28669 1.13536 1.10509
 C249 C 0.30470 1.11246 1.12543
 C250 C 0.30134 1.11331 1.16170
 C251 C 0.27930 1.13496 1.17654
 C252 C 0.26124 1.15739 1.15601
 C253 C 0.26566 1.15750 1.12014
 C254 C 0.32023 1.09273 1.18306
 C255 C 0.34325 1.07200 1.16933
 C256 C 0.34747 1.07020 1.13338
 C257 C 0.32652 1.08938 1.11107
 C258 C 0.32764 1.08442 1.07524
 C259 C 0.34942 1.06244 1.06154
 C260 C 0.37172 1.04539 1.08277
 C261 C 0.37158 1.04945 1.11895
 C262 C 0.39630 1.03333 1.13905
 C263 C 0.41985 1.01391 1.12373
 C264 C 0.41907 1.00928 1.08816
 C265 C 0.39470 1.02476 1.06789
 H266 H 0.28903 1.13746 1.07749
 H267 H 0.27688 1.13470 1.20435
 H268 H 0.25258 1.17457 1.10331
 H269 H 0.31763 1.09306 1.21082
 H270 H 0.35675 1.05687 1.18759
 H271 H 0.31120 1.09655 1.05708
 H272 H 0.34930 1.05930 1.03388
 H273 H 0.39893 1.03622 1.16647
 H274 H 0.43881 1.00245 1.13978
 H275 H 0.39457 1.02181 1.04028
 C276 C 0.28947 0.88402 0.82340
 C277 C 0.31406 0.86790 0.84356
 C278 C 0.30735 0.83524 0.85425
 C279 C 0.27680 0.82009 0.84612
 C280 C 0.25226 0.83674 0.82690
 C281 C 0.25934 0.86871 0.81525
 C282 C 0.33095 0.81786 0.87342
 C283 C 0.36067 0.83245 0.88352
 C284 C 0.36794 0.86541 0.87514
 C285 C 0.34456 0.88327 0.85422
 C286 C 0.35196 0.91619 0.84570
 C287 C 0.37989 0.93181 0.85909
 C288 C 0.40184 0.91530 0.88112
 C289 C 0.39698 0.88155 0.88841
 C290 C 0.42061 0.86583 0.91020
 C291 C 0.44545 0.88355 0.92694
 C292 C 0.44821 0.91728 0.92192
 C293 C 0.42757 0.93279 0.89752
 H294 H 0.29246 0.90859 0.81361
 H295 H 0.27224 0.79523 0.85504
 H296 H 0.24135 0.88243 0.80003
 H297 H 0.32619 0.79274 0.88125
 H298 H 0.37708 0.81724 0.89874
 H299 H 0.33611 0.93107 0.82948
 H300 H 0.38377 0.95745 0.85294
 H301 H 0.41990 0.84011 0.91610
 H302 H 0.46159 0.87102 0.94534
 H303 H 0.42968 0.95893 0.89349
 C304 C 0.76550 0.87334 1.15434
 C305 C 0.73696 0.85865 1.13960
 C306 C 0.73460 0.82421 1.14063
 C307 C 0.76094 0.80543 1.15423
 C308 C 0.78892 0.82049 1.16942
 C309 C 0.79064 0.85465 1.16923
 C310 C 0.70555 0.80880 1.12902
 C311 C 0.67828 0.82687 1.11781
 C312 C 0.67961 0.86122 1.11625
 C313 C 0.71021 0.87715 1.12517
 C314 C 0.71330 0.91102 1.11895
 C315 C 0.68684 0.92906 1.10619
 C316 C 0.65604 0.91430 1.10003
 C317 C 0.65167 0.88027 1.10545
 C318 C 0.61930 0.86698 1.10054
 C319 C 0.59282 0.88669 1.08984
 C320 C 0.59791 0.91999 1.08323
 C321 C 0.62956 0.93358 1.08843
 H322 H 0.76852 0.89932 1.15626
 H323 H 0.75872 0.77911 1.15463
 H324 H 0.81164 0.86736 1.18070
 H325 H 0.70351 0.78248 1.12955
 H326 H 0.65667 0.81321 1.10955
 H327 H 0.73634 0.92423 1.12264
 H328 H 0.69041 0.95499 1.10160
 H329 H 0.61353 0.84162 1.10548
 H330 H 0.56844 0.87573 1.08607
 H331 H 0.63353 0.95947 1.08379
 C332 C 0.69968 1.17002 0.86881
 C333 C 0.68637 1.13932 0.85990
 C334 C 0.69141 1.12887 0.82587
 C335 C 0.71100 1.14752 0.80277
 C336 C 0.72530 1.17736 0.81251
 C337 C 0.71863 1.18858 0.84558
 C338 C 0.67708 1.09973 0.81509
 C339 C 0.65759 1.08073 0.83724
 C340 C 0.65243 1.08967 0.87163
 C341 C 0.66807 1.11886 0.88348
 C342 C 0.66578 1.12612 0.91874
 C343 C 0.64826 1.10601 0.94153
 C344 C 0.63162 1.07832 0.93008
 C345 C 0.63283 1.07000 0.89484
 C346 C 0.61406 1.04246 0.88435
 C347 C 0.59565 1.02379 0.90806
 C348 C 0.59560 1.03175 0.94277
 C349 C 0.61362 1.05888 0.95377
 H350 H 0.69554 1.18069 0.89342
 H351 H 0.71513 1.13856 0.77716
 H352 H 0.72850 1.21172 0.85407
 H353 H 0.68082 1.09154 0.78912
 H354 H 0.64776 1.05849 0.82686
 H355 H 0.67822 1.14676 0.92989
 H356 H 0.64754 1.11239 0.96844
 H357 H 0.61251 1.03504 0.85797
 H358 H 0.58159 1.00285 0.89927
 H359 H 0.61320 1.06510 0.98074
 C360 C 0.15089 0.26167 0.09469
 C361 C 0.14956 0.29467 0.10407
 C362 C 0.16941 0.30462 0.13248
 C363 C 0.18695 0.28155 0.15268
 C364 C 0.18668 0.24879 0.14378
 C365 C 0.16943 0.23923 0.11417
 C366 C 0.17140 0.33743 0.14067
 C367 C 0.15395 0.36068 0.12138
 C368 C 0.13235 0.35172 0.09415
 C369 C 0.12914 0.31800 0.08634
 C370 C 0.10431 0.30841 0.06251
 C371 C 0.08304 0.33091 0.04716
 C372 C 0.08673 0.36398 0.05348
 C373 C 0.11237 0.37511 0.07580
 C374 C 0.11646 0.40917 0.07917
 C375 C 0.09446 0.43093 0.06291
 C376 C 0.06755 0.41946 0.04317
 C377 C 0.06420 0.38592 0.03830
 H378 H 0.13835 0.25259 0.07210
 H379 H 0.20108 0.28907 0.17518
 H380 H 0.16955 0.21406 0.10660
 H381 H 0.18673 0.34526 0.16218
 H382 H 0.15651 0.38543 0.12963
 H383 H 0.09939 0.28330 0.05669
 H384 H 0.06343 0.32228 0.03013
 H385 H 0.13652 0.41970 0.09404
 H386 H 0.09781 0.45674 0.06694
 H387 H 0.04331 0.37661 0.02347
 C388 C -0.16211 0.31559 -0.21299
 C389 C -0.16916 0.32676 -0.17966
 C390 C -0.19432 0.31004 -0.16078
 C391 C -0.21112 0.28316 -0.17464
 C392 C -0.20297 0.27166 -0.20713
 C393 C -0.17870 0.28849 -0.22633
 C394 C -0.20212 0.31963 -0.12771
 C395 C -0.18425 0.34434 -0.11198
 C396 C -0.15785 0.36077 -0.12891
 C397 C -0.15133 0.35302 -0.16393
 C398 C -0.12686 0.37143 -0.18180
 C399 C -0.10780 0.39498 -0.16543
 C400 C -0.11199 0.40090 -0.13057
 C401 C -0.13732 0.38426 -0.11181
 C402 C -0.13994 0.39077 -0.07628
 C403 C -0.11747 0.41170 -0.06000
 C404 C -0.09193 0.42725 -0.07852
 C405 C -0.09004 0.42253 -0.11407
 H406 H -0.14318 0.32651 -0.22906
 H407 H -0.22994 0.27054 -0.15945
 H408 H -0.17187 0.28031 -0.25153
 H409 H -0.22178 0.30731 -0.11343
 H410 H -0.19185 0.35000 -0.08636
 H411 H -0.12172 0.36821 -0.20863
 H412 H -0.08885 0.40803 -0.18004
 H413 H -0.15814 0.37908 -0.05988
 H414 H -0.11952 0.41496 -0.03250
 H415 H -0.07025 0.43431 -0.12865
 C416 C 0.17373 0.70912 -0.10947
 C417 C 0.15152 0.68743 -0.12615
 C418 C 0.14287 0.69462 -0.16107
 C419 C 0.15366 0.72379 -0.17725
 C420 C 0.17432 0.74567 -0.15975
 C421 C 0.18502 0.73763 -0.12616
 C422 C 0.12304 0.67296 -0.17952
 C423 C 0.11105 0.64444 -0.16403
 C424 C 0.11743 0.63694 -0.12885
 C425 C 0.13728 0.65919 -0.10935
 C426 C 0.14071 0.65341 -0.07343
 C427 C 0.12438 0.62747 -0.05694
 C428 C 0.10509 0.60550 -0.07565
 C429 C 0.10280 0.60896 -0.11206
 C430 C 0.08512 0.58463 -0.13008
 C431 C 0.06727 0.56030 -0.11247
 C432 C 0.06657 0.55912 -0.07637
 C433 C 0.08686 0.58089 -0.05807
 H434 H 0.18303 0.70466 -0.08364
 H435 H 0.14591 0.72954 -0.20357
 H436 H 0.20139 0.75398 -0.11226
 H437 H 0.11652 0.67821 -0.20627
 H438 H 0.09529 0.62952 -0.17999
 H439 H 0.15446 0.66959 -0.05694
 H440 H 0.12653 0.62485 -0.02913
 H441 H 0.08423 0.58395 -0.15781
 H442 H 0.05262 0.54324 -0.12736
 H443 H 0.08705 0.57986 -0.03012
 C444 C -0.11963 0.66975 0.19676
 C445 C -0.13259 0.65750 0.16546
 C446 C -0.15757 0.67575 0.14798
 C447 C -0.16821 0.70534 0.16099
 C448 C -0.15332 0.71830 0.19062
 C449 C -0.12966 0.69975 0.20885
 C450 C -0.17065 0.66529 0.11664
 C451 C -0.15750 0.63865 0.10063
 C452 C -0.13099 0.62103 0.11576
 C453 C -0.12014 0.62903 0.14982
 C454 C -0.09650 0.60889 0.16659
 C455 C -0.08144 0.58391 0.14947
 C456 C -0.08884 0.57842 0.11488
 C457 C -0.11416 0.59640 0.09761
 C458 C -0.11988 0.59056 0.06217
 C459 C -0.09968 0.56955 0.04433
 C460 C -0.07375 0.55308 0.06129
 C461 C -0.06959 0.55640 0.09695
 H462 H -0.10036 0.65770 0.21154
 H463 H -0.18658 0.71932 0.14653
 H464 H -0.11785 0.70899 0.23192
 H465 H -0.19036 0.67868 0.10357
 H466 H -0.16860 0.63251 0.07619
 H467 H -0.08891 0.61197 0.19304
 H468 H -0.06266 0.56970 0.16305
 H469 H -0.13831 0.60336 0.04692
 H470 H -0.10342 0.56737 0.01677
 H471 H -0.04946 0.54389 0.11031
 C472 C 1.16157 0.19472 0.70000
 C473 C 1.16823 0.16420 0.68590
 C474 C 1.19286 0.14483 0.70255
 C475 C 1.20776 0.15458 0.73379
 C476 C 1.19808 0.18340 0.74936
 C477 C 1.17597 0.20391 0.73112
 C478 C 1.20148 0.11519 0.68873
 C479 C 1.18496 0.10341 0.65982
 C480 C 1.15854 0.12064 0.64382
 C481 C 1.15040 0.15179 0.65677
 C482 C 1.12342 0.16870 0.64145
 C483 C 1.10380 0.15495 0.61593
 C484 C 1.11053 0.12414 0.60403
 C485 C 1.13879 0.10705 0.61656
 C486 C 1.14518 0.07649 0.60210
 C487 C 1.12289 0.06256 0.57858
 C488 C 1.09364 0.07853 0.56871
 C489 C 1.08826 0.10982 0.58058
 H490 H 1.14479 0.21195 0.68813
 H491 H 1.22545 0.13868 0.74682
 H492 H 1.16877 0.22701 0.74132
 H493 H 1.22066 0.10046 0.70095
 H494 H 1.19268 0.07996 0.65150
 H495 H 1.11573 0.19222 0.64957
 H496 H 1.08255 0.16834 0.60599
 H497 H 1.16675 0.06239 0.60891
 H498 H 1.12780 0.03845 0.56943
 H499 H 1.06598 0.12263 0.57249
 C500 C 0.81743 -0.10767 0.70011
 C501 C 0.84837 -0.11462 0.68527
 C502 C 0.86208 -0.14564 0.69236
 C503 C 0.84669 -0.16749 0.71571
 C504 C 0.81661 -0.15978 0.73143
 C505 C 0.80178 -0.12996 0.72251
 C506 C 0.89117 -0.15471 0.67623
 C507 C 0.90683 -0.13379 0.65273
 C508 C 0.89465 -0.10230 0.64547
 C509 C 0.86591 -0.09202 0.66335
 C510 C 0.85634 -0.05921 0.65970
 C511 C 0.87366 -0.03737 0.63857
 C512 C 0.90035 -0.04758 0.61926
 C513 C 0.91077 -0.08038 0.62166
 C514 C 0.93646 -0.08994 0.59957
 C515 C 0.95136 -0.06760 0.57662
 C516 C 0.94173 -0.03511 0.57568
 C517 C 0.91646 -0.02514 0.59718
 H518 H 0.80431 -0.08546 0.69437
 H519 H 0.85824 -0.19074 0.72135
 H520 H 0.77829 -0.12328 0.73345
 H521 H 0.90183 -0.17841 0.68158
 H522 H 0.92930 -0.14255 0.64163
 H523 H 0.83620 -0.04933 0.67395
 H524 H 0.86572 -0.01229 0.63693
 H525 H 0.94483 -0.11468 0.59861
 H526 H 0.97069 -0.07564 0.55976
 H527 H 0.90856 -0.00001 0.59579
 C528 C 1.17207 -0.11184 0.28685
 C529 C 1.13956 -0.11650 0.29951
 C530 C 1.12336 -0.14670 0.29368
 C531 C 1.13820 -0.16999 0.27320
 C532 C 1.17038 -0.16485 0.26025
 C533 C 1.18731 -0.13579 0.26810
 C534 C 1.09263 -0.15362 0.30868
 C535 C 1.07835 -0.13174 0.33063
 C536 C 1.09350 -0.10126 0.33685
 C537 C 1.12319 -0.09262 0.31888
 C538 C 1.13518 -0.06026 0.32027
 C539 C 1.11975 -0.03757 0.34029
 C540 C 1.09295 -0.04670 0.36096
 C541 C 1.07983 -0.07889 0.36014
 C542 C 1.05479 -0.08784 0.38399
 C543 C 1.04370 -0.06569 0.40779
 C544 C 1.05586 -0.03370 0.40731
 C545 C 1.07997 -0.02410 0.38343
 H546 H 1.18679 -0.09037 0.29211
 H547 H 1.12494 -0.19259 0.26832
 H548 H 1.21231 -0.13098 0.25906
 H549 H 1.07993 -0.17658 0.30419
 H550 H 1.05470 -0.13881 0.34148
 H551 H 1.15592 -0.05152 0.30515
 H552 H 1.12968 -0.01293 0.34053
 H553 H 1.04476 -0.11226 0.38615
 H554 H 1.02575 -0.07364 0.42687
 H555 H 1.09011 0.00049 0.38388
 C556 C 0.79208 0.15613 0.31593
 C557 C 0.82188 0.16812 0.33109
 C558 C 0.83526 0.19776 0.31753
 C559 C 0.81947 0.21428 0.28985
 C560 C 0.79065 0.20137 0.27408
 C561 C 0.77694 0.17239 0.28798
 C562 C 0.86492 0.21039 0.33098
 C563 C 0.88276 0.19334 0.35626
 C564 C 0.87134 0.16298 0.36955
 C565 C 0.83953 0.15106 0.35813
 C566 C 0.82674 0.12220 0.37371
 C567 C 0.84540 0.10414 0.39743
 C568 C 0.87762 0.11387 0.40641
 C569 C 0.89094 0.14372 0.39325
 C570 C 0.92397 0.15212 0.40311
 C571 C 0.94332 0.13086 0.42336
 C572 C 0.93039 0.10076 0.43481
 C573 C 0.89705 0.09309 0.42738
 H574 H 0.78034 0.13362 0.32419
 H575 H 0.83058 0.23671 0.27984
 H576 H 0.75465 0.16164 0.27687
 H577 H 0.87500 0.23334 0.32114
 H578 H 0.90558 0.20469 0.36483
 H579 H 0.80225 0.11273 0.36802
 H580 H 0.83484 0.08169 0.40802
 H581 H 0.93619 0.17424 0.39438
 H582 H 0.96897 0.13748 0.42888
 H583 H 0.88666 0.06995 0.43631
 C584 C 0.16252 0.27325 -0.09977
 C585 C 0.14201 0.29440 -0.11977
 C586 C 0.14332 0.29234 -0.15608
 C587 C 0.16229 0.26844 -0.17131
 C588 C 0.18139 0.24656 -0.15117
 C589 C 0.18199 0.24995 -0.11526
 C590 C 0.12539 0.31390 -0.17721
 C591 C 0.10609 0.33771 -0.16315
 C592 C 0.10312 0.34030 -0.12715
 C593 C 0.12038 0.31751 -0.10511
 C594 C 0.11448 0.31782 -0.06935
 C595 C 0.09267 0.33972 -0.05555
 C596 C 0.07677 0.36289 -0.07655
 C597 C 0.08256 0.36425 -0.11249
 C598 C 0.06775 0.38981 -0.13220
 C599 C 0.04728 0.41226 -0.11687
 C600 C 0.04043 0.40970 -0.08167
 C601 C 0.05521 0.38494 -0.06170
 H602 H 0.16440 0.27435 -0.07210
 H603 H 0.16206 0.26706 -0.19918
 H604 H 0.19686 0.23402 -0.09881
 H605 H 0.12631 0.31240 -0.20503
 H606 H 0.09267 0.35298 -0.18133
 H607 H 0.12547 0.30055 -0.05138
 H608 H 0.08845 0.33870 -0.02804
 H609 H 0.07215 0.39369 -0.15932
 H610 H 0.03647 0.43156 -0.13272
 H611 H 0.05055 0.38338 -0.03438
 C612 C -0.20315 0.32759 0.14056
 C613 C -0.17307 0.34044 0.15417
 C614 C -0.15986 0.32552 0.18459
 C615 C -0.17659 0.29915 0.20075
 C616 C -0.20597 0.28601 0.18632
 C617 C -0.21907 0.30089 0.15622
 C618 C -0.12948 0.33634 0.19816
 C619 C -0.11089 0.36039 0.18113
 C620 C -0.12245 0.37525 0.15011
 C621 C -0.15495 0.36649 0.13766
 C622 C -0.16809 0.38375 0.10881
 C623 C -0.14904 0.40643 0.09061
 C624 C -0.11616 0.41270 0.10027
 C625 C -0.10244 0.39798 0.13058
 C626 C -0.06876 0.40546 0.13889
 C627 C -0.04922 0.42495 0.11673
 C628 C -0.06271 0.43768 0.08593
 C629 C -0.09654 0.43261 0.07872
 H630 H -0.21447 0.33672 0.11700
 H631 H -0.16581 0.28811 0.22391
 H632 H -0.24166 0.29170 0.14421
 H633 H -0.11941 0.32534 0.22168
 H634 H -0.08745 0.36689 0.19299
 H635 H -0.19321 0.38029 0.09954
 H636 H -0.15986 0.41837 0.06798
 H637 H -0.05629 0.39541 0.16139
 H638 H -0.02311 0.42863 0.12285
 H639 H -0.10729 0.44279 0.05509
 C640 C -0.12053 0.72039 -0.18764
 C641 C -0.13316 0.69753 -0.16324
 C642 C -0.16755 0.69829 -0.15596
 C643 C -0.18756 0.72321 -0.17011
 C644 C -0.17428 0.74668 -0.19328
 C645 C -0.14076 0.74420 -0.20254
 C646 C -0.18171 0.67416 -0.13463
 C647 C -0.16253 0.64899 -0.12079
 C648 C -0.12795 0.64797 -0.12635
 C649 C -0.11283 0.67369 -0.14633
 C650 C -0.07781 0.67552 -0.14770
 C651 C -0.05818 0.65249 -0.13088
 C652 C -0.07261 0.62605 -0.11327
 C653 C -0.10771 0.62276 -0.11162
 C654 C -0.12100 0.59409 -0.09574
 C655 C -0.10012 0.57039 -0.08121
 C656 C -0.06564 0.57497 -0.08133
 C657 C -0.05201 0.60278 -0.09733
 H658 H -0.09524 0.71998 -0.19643
 H659 H -0.21359 0.72395 -0.16333
 H660 H -0.12955 0.76123 -0.22087
 H661 H -0.20800 0.67446 -0.12895
 H662 H -0.17525 0.63136 -0.10449
 H663 H -0.06474 0.69543 -0.16036
 H664 H -0.03137 0.65520 -0.13206
 H665 H -0.14733 0.58895 -0.09497
 H666 H -0.11095 0.54871 -0.06920
 H667 H -0.02520 0.60591 -0.09799
 C668 C 0.10503 0.72422 0.16689
 C669 C 0.11859 0.69737 0.15019
 C670 C 0.15319 0.69203 0.15421
 C671 C 0.17349 0.71428 0.17204
 C672 C 0.15972 0.74147 0.18722
 C673 C 0.12527 0.74573 0.18507
 C674 C 0.16736 0.66466 0.14024
 C675 C 0.14794 0.64224 0.12250
 C676 C 0.11355 0.64695 0.11695
 C677 C 0.09895 0.67564 0.12988
 C678 C 0.06551 0.68229 0.12109
 C679 C 0.04676 0.66144 0.10087
 C680 C 0.06015 0.63268 0.08940
 C681 C 0.09344 0.62448 0.09795
 C682 C 0.10500 0.59397 0.08732
 C683 C 0.08464 0.57325 0.06804
 C684 C 0.05244 0.58244 0.05836
 C685 C 0.04029 0.61206 0.06927
 H686 H 0.07878 0.72906 0.16687
 H687 H 0.20004 0.71036 0.17416
 H688 H 0.11381 0.76625 0.19692
 H689 H 0.19379 0.66039 0.14322
 H690 H 0.16091 0.62196 0.11229
 H691 H 0.05335 0.70419 0.12838
 H692 H 0.02136 0.66784 0.09431
 H693 H 0.12939 0.58514 0.09402
 H694 H 0.09433 0.55017 0.06021
 H695 H 0.01505 0.61889 0.06242
 C696 C 0.26928 1.11796 0.90267
 C697 C 0.30373 1.11823 0.89544
 C698 C 0.31511 1.13949 0.86859
 C699 C 0.29249 1.15786 0.84852
 C700 C 0.25858 1.15675 0.85582
 C701 C 0.24721 1.13723 0.88329
 C702 C 0.34900 1.14248 0.86202
 C703 C 0.37207 1.12504 0.88168
 C704 C 0.36201 1.10284 0.90801
 C705 C 0.32721 1.09843 0.91406
 C706 C 0.31699 1.07355 0.93752
 C707 C 0.33990 1.05343 0.95419
 C708 C 0.37392 1.05809 0.94932
 C709 C 0.38556 1.08374 0.92735
 C710 C 0.42036 1.08892 0.92544
 C711 C 0.44248 1.06789 0.94243
 C712 C 0.43079 1.04094 0.96173
 C713 C 0.39639 1.03663 0.96562
 H714 H 0.25874 1.10382 0.92368
 H715 H 0.30131 1.17372 0.82772
 H716 H 0.22106 1.13674 0.88963
 H717 H 0.35786 1.15871 0.84158
 H718 H 0.39770 1.12848 0.87459
 H719 H 0.29120 1.06795 0.94234
 H720 H 0.33083 1.03395 0.97108
 H721 H 0.43127 1.10908 0.91111
 H722 H 0.46892 1.07213 0.93932
 H723 H 0.38694 1.01593 0.98051
 C724 C 0.32040 0.82665 1.21175
 C725 C 0.33248 0.81732 1.17945
 C726 C 0.31191 0.79672 1.15925
 C727 C 0.28021 0.78691 1.17071
 C728 C 0.26785 0.79839 1.20163
 C729 C 0.28860 0.81753 1.22238
 C730 C 0.32238 0.78733 1.12693
 C731 C 0.35144 0.80017 1.11285
 C732 C 0.37145 0.82275 1.13085
 C733 C 0.36311 0.82953 1.16561
 C734 C 0.38502 0.84938 1.18485
 C735 C 0.41185 0.86527 1.16952
 C736 C 0.41785 0.86212 1.13451
 C737 C 0.39857 0.83994 1.11486
 C738 C 0.40578 0.83778 1.07940
 C739 C 0.42889 0.85884 1.06375
 C740 C 0.44601 0.88231 1.08291
 C741 C 0.44171 0.88253 1.11864
 H742 H 0.33412 0.84239 1.22872
 H743 H 0.26436 0.77207 1.15444
 H744 H 0.27984 0.82640 1.24663
 H745 H 0.30721 0.77094 1.11169
 H746 H 0.35732 0.79222 1.08745
 H747 H 0.38182 0.85357 1.21187
 H748 H 0.42716 0.88139 1.18494
 H749 H 0.39267 0.82150 1.06253
 H750 H 0.43202 0.85785 1.03612
 H751 H 0.45497 0.90047 1.13378
 C752 C 0.68566 1.18574 1.12274
 C753 C 0.66486 1.16188 1.13871
 C754 C 0.66691 1.15834 1.17514
 C755 C 0.69051 1.17622 1.19415
 C756 C 0.71191 1.19863 1.17770
 C757 C 0.70864 1.20378 1.14198
 C758 C 0.64579 1.13656 1.19247
 C759 C 0.62295 1.11766 1.17452
 C760 C 0.62083 1.11914 1.13815
 C761 C 0.64253 1.14121 1.11988
 C762 C 0.64221 1.14079 1.08346
 C763 C 0.62221 1.11896 1.06553
 C764 C 0.60097 1.09731 1.08298
 C765 C 0.59894 1.09803 1.11942
 C766 C 0.57554 1.07695 1.13568
 C767 C 0.55758 1.05402 1.11698
 C768 C 0.56186 1.05141 1.08140
 C769 C 0.58258 1.07409 1.06430
 H770 H 0.68477 1.19115 1.09544
 H771 H 0.69235 1.17252 1.22188
 H772 H 0.72458 1.22123 1.12859
 H773 H 0.64710 1.13386 1.22032
 H774 H 0.60821 1.10103 1.19003
 H775 H 0.65830 1.15614 1.06795
 H776 H 0.62373 1.11874 1.03767
 H777 H 0.57071 1.07727 1.16289
 H778 H 0.54103 1.03744 1.13080
 H779 H 0.58564 1.07270 1.03668
 C780 C 0.67563 0.84484 0.80601
 C781 C 0.66864 0.83729 0.84098
 C782 C 0.69077 0.81637 0.85934
 C783 C 0.71879 0.80395 0.84315
 C784 C 0.72620 0.81320 0.80908
 C785 C 0.70405 0.83321 0.79058
 C786 C 0.68566 0.80908 0.89418
 C787 C 0.66055 0.82398 0.91194
 C788 C 0.63904 0.84641 0.89527
 C789 C 0.64167 0.85134 0.85878
 C790 C 0.61775 0.87079 0.84148
 C791 C 0.59417 0.88752 0.85950
 C792 C 0.59371 0.88588 0.89540
 C793 C 0.61561 0.86482 0.91389
 C794 C 0.61446 0.86464 0.95036
 C795 C 0.59395 0.88590 0.96746
 C796 C 0.57352 0.90761 0.94892
 C797 C 0.57251 0.90645 0.91290
 H798 H 0.66060 0.86099 0.79027
 H799 H 0.73592 0.78866 0.85780
 H800 H 0.70911 0.84060 0.76415
 H801 H 0.70206 0.79259 0.90822
 H802 H 0.65865 0.81743 0.93890
 H803 H 0.61663 0.87369 0.81383
 H804 H 0.57692 0.90294 0.84518
 H805 H 0.63034 0.84966 0.96651
 H806 H 0.59512 0.88621 0.99536
 H807 H 0.55679 0.92318 0.89828
   
