data_POSCAR
  _audit_creation_date              2014-09-24
  _audit_creation_method            'ToBaCCo'
  _symmetry_space_group_name_H-M    'P1'
  _symmetry_Int_Tables_number       1
  _symmetry_cell_setting            triclinic
  loop_
  _symmetry_equiv_pos_as_xyz
 x,y,z
_cell_length_a 25.4812
_cell_length_b 24.7988
_cell_length_c 24.8194
_cell_angle_alpha 89.863000
_cell_angle_beta 89.936300
_cell_angle_gamma 90.244800
loop_
  _atom_site_label
  _atom_site_type_symbol
  _atom_site_fract_x
  _atom_site_fract_y
  _atom_site_fract_z
C1 C 0.46479 0.95601 -0.53690
 C2 C 0.46533 0.98033 -0.48536
 C3 C 0.51354 0.99073 -0.45991
 C4 C 0.56259 0.97820 -0.48379
 C5 C 0.56213 0.95514 -0.53660
 C6 C 0.51328 0.94276 -0.56051
 H7 H 0.51297 0.92859 -0.60178
 H8 H 0.51185 1.00484 -0.41868
 C9 C -0.53706 1.48170 0.04157
 C10 C -0.53329 1.53828 0.05029
 C11 C -0.48258 1.56137 0.05285
 C12 C -0.43660 1.53081 0.04811
 C13 C -0.44075 1.47421 0.04615
 C14 C -0.49082 1.45086 0.04202
 H15 H -0.49383 1.40732 0.03883
 H16 H -0.47839 1.60485 0.05528
 C17 C -0.06842 0.47370 0.44482
 C18 C -0.08062 0.52932 0.44102
 C19 C -0.09035 0.55859 0.48836
 C20 C -0.08216 0.53642 0.54002
 C21 C -0.06774 0.48137 0.54355
 C22 C -0.06428 0.45074 0.49638
 H23 H -0.05810 0.40768 0.50037
 H24 H -0.09716 0.60156 0.48464
 O25 O -0.12135 1.01402 -0.08082
 O26 O 0.14854 0.99317 -0.08077
 O27 O 0.01539 1.07589 -0.14807
 O28 O 0.01032 0.92971 -0.14463
 O29 O 0.00910 0.86600 -0.07674
 O30 O 0.01705 1.14220 -0.08304
 O31 O 0.08449 0.99777 -0.14653
 O32 O -0.05742 1.00753 -0.14654
 Zr33 Zr 0.01361 1.00371 -0.10262
 O34 O 0.05905 0.95362 -0.05552
 O35 O -0.03176 1.05555 -0.05761
 C36 C -0.10582 1.01224 -0.13071
 C37 C 0.13274 0.99285 -0.13056
 C38 C 0.01521 1.12579 -0.13249
 C39 C 0.00930 0.88043 -0.12690
 H40 H 0.08713 1.07227 -0.08092
 O41 O 0.06376 1.05064 -0.05740
 H42 H -0.05995 0.93614 -0.07743
 O43 O -0.03637 0.95863 -0.05513
 O44 O 0.14908 1.00098 0.06621
 O45 O -0.12122 1.00982 0.06668
 O46 O 0.09088 1.14040 -0.00750
 O47 O 0.07699 0.86364 -0.00606
 O48 O -0.06339 0.87078 -0.00156
 O49 O -0.04979 1.14746 -0.01233
 O50 O 0.01949 1.08136 0.12857
 O51 O 0.00404 0.93628 0.13192
 O52 O 0.02074 1.14560 0.06133
 O53 O 0.00356 0.86926 0.06763
 O54 O 0.15247 1.07234 -0.00786
 O55 O -0.11778 1.08580 -0.00858
 O56 O -0.12497 0.93873 -0.00467
 O57 O 0.14508 0.92523 -0.00585
 O58 O 0.08421 1.00715 0.13097
 O59 O -0.05616 1.01196 0.13141
 Zr60 Zr 0.10661 1.00078 -0.00743
 Zr61 Zr -0.07923 1.01021 -0.00745
 Zr62 Zr 0.01831 1.09966 -0.00980
 Zr63 Zr 0.00908 0.91163 -0.00555
 Zr64 Zr 0.01379 1.00776 0.08677
 O65 O -0.03626 0.96063 0.04202
 O66 O 0.06405 1.05300 0.04003
 C67 C 0.13283 1.00451 0.11579
 C68 C -0.10480 1.01094 0.11633
 C69 C 0.13869 1.12278 -0.00671
 C70 C 0.12638 0.87636 -0.00591
 C71 C -0.11121 0.88839 -0.00150
 C72 C -0.09918 1.13469 -0.01082
 C73 C 0.02112 1.13077 0.11142
 C74 C -0.00029 0.88649 0.11666
 H75 H -0.05257 1.08177 0.06251
 O76 O -0.03146 1.05734 0.03985
 H77 H 0.07919 0.93173 0.06649
 O78 O 0.05882 0.95562 0.04245
 C79 C 0.37660 0.90385 0.35549
 C80 C 0.34272 0.94797 0.34677
 C81 C 0.34404 0.99041 0.38494
 C82 C 0.38158 0.99083 0.42659
 C83 C 0.41884 0.94943 0.43125
 C84 C 0.41395 0.90490 0.39652
 C85 C 0.30965 1.03367 0.37980
 C86 C 0.27469 1.03654 0.33698
 C87 C 0.27349 0.99664 0.29642
 C88 C 0.30861 0.95197 0.30101
 C89 C 0.31014 0.91408 0.25857
 C90 C 0.27827 0.91921 0.21346
 C91 C 0.24278 0.96158 0.20902
 C92 C 0.23920 1.00051 0.25078
 C93 C 0.20095 1.04141 0.24521
 C94 C 0.16783 1.04308 0.20055
 C95 C 0.17201 1.00497 0.15941
 C96 C 0.21006 0.96468 0.16338
 H97 H 0.37589 0.86818 0.33082
 H98 H 0.38492 1.02642 0.45138
 H99 H 0.44030 0.87089 0.40025
 H100 H 0.31018 1.06618 0.40894
 H101 H 0.25029 1.07184 0.33595
 H102 H 0.33680 0.88052 0.25819
 H103 H 0.28126 0.88935 0.18177
 H104 H 0.19444 1.07191 0.27525
 H105 H 0.13834 1.07427 0.19824
 H106 H 0.21260 0.93437 0.13206
 C107 C -0.35136 0.90792 0.35220
 C108 C -0.31724 0.95233 0.34471
 C109 C -0.31796 0.99352 0.38425
 C110 C -0.35541 0.99263 0.42616
 C111 C -0.39292 0.95092 0.42958
 C112 C -0.38842 0.90752 0.39346
 C113 C -0.28267 1.03651 0.38050
 C114 C -0.24724 1.04008 0.33793
 C115 C -0.24664 1.00137 0.29620
 C116 C -0.28310 0.95743 0.29908
 C117 C -0.28591 0.92138 0.25515
 C118 C -0.25378 0.92739 0.21031
 C119 C -0.21665 0.96870 0.20770
 C120 C -0.21174 1.00576 0.25100
 C121 C -0.17148 1.04517 0.24743
 C122 C -0.13791 1.04735 0.20297
 C123 C -0.14389 1.01138 0.16007
 C124 C -0.18369 0.97251 0.16228
 H125 H -0.35069 0.87286 0.32665
 H126 H -0.35774 1.02665 0.45338
 H127 H -0.41455 0.87305 0.39660
 H128 H -0.28270 1.06810 0.41061
 H129 H -0.22204 1.07505 0.33787
 H130 H -0.31396 0.88883 0.25329
 H131 H -0.25780 0.89898 0.17740
 H132 H -0.16369 1.07379 0.27902
 H133 H -0.10665 1.07714 0.20227
 H134 H -0.18741 0.94365 0.12971
 C135 C -0.30719 0.94677 -0.41997
 C136 C -0.30380 0.98567 -0.37847
 C137 C -0.34507 1.02350 -0.37447
 C138 C -0.38696 1.02280 -0.41128
 C139 C -0.39110 0.98291 -0.45151
 C140 C -0.35010 0.94513 -0.45513
 C141 C -0.34511 1.06135 -0.33297
 C142 C -0.30646 1.06088 -0.29358
 C143 C -0.26501 1.02334 -0.29498
 C144 C -0.26197 0.98724 -0.33980
 C145 C -0.21707 0.95440 -0.34462
 C146 C -0.17741 0.95543 -0.30612
 C147 C -0.18161 0.98770 -0.26033
 C148 C -0.22601 1.02131 -0.25348
 C149 C -0.23019 1.05039 -0.20459
 C150 C -0.19141 1.04694 -0.16497
 C151 C -0.14672 1.01534 -0.17292
 C152 C -0.14192 0.98604 -0.22093
 H153 H -0.27863 0.91520 -0.42463
 H154 H -0.41660 1.05385 -0.40818
 H155 H -0.35221 0.91186 -0.48314
 H156 H -0.37620 1.09092 -0.33007
 H157 H -0.30945 1.09148 -0.26300
 H158 H -0.21077 0.92829 -0.37864
 H159 H -0.14347 0.92983 -0.31179
 H160 H -0.26373 1.07488 -0.19497
 H161 H -0.19619 1.06960 -0.12802
 H162 H -0.10788 0.96065 -0.22695
 C163 C 0.35482 1.04431 -0.40612
 C164 C 0.33539 1.00034 -0.37532
 C165 C 0.35910 0.94927 -0.38310
 C166 C 0.39852 0.94245 -0.42221
 C167 C 0.41734 0.98648 -0.45198
 C168 C 0.39600 1.03751 -0.44278
 C169 C 0.34460 0.90571 -0.35059
 C170 C 0.30863 0.91209 -0.30893
 C171 C 0.28390 0.96204 -0.29957
 C172 C 0.29498 1.00581 -0.33552
 C173 C 0.26472 1.05316 -0.33105
 C174 C 0.22607 1.05823 -0.29174
 C175 C 0.21759 1.01743 -0.25384
 C176 C 0.24746 0.96932 -0.25622
 C177 C 0.24049 0.93107 -0.21427
 C178 C 0.20415 0.93965 -0.17294
 C179 C 0.17288 0.98580 -0.17270
 C180 C 0.17960 1.02456 -0.21326
 H181 H 0.34093 1.08493 -0.40063
 H182 H 0.41671 0.90335 -0.42755
 H183 H 0.41178 1.07241 -0.46366
 H184 H 0.36232 0.86649 -0.35646
 H185 H 0.29962 0.87651 -0.28560
 H186 H 0.26881 1.08642 -0.35881
 H187 H 0.20324 1.09499 -0.29037
 H188 H 0.26359 0.89485 -0.21149
 H189 H 0.19974 0.90958 -0.14148
 H190 H 0.15594 1.06081 -0.21249
 C191 C 0.33090 1.41608 0.07092
 C192 C 0.32837 1.37601 0.03021
 C193 C 0.36896 1.37542 -0.00884
 C194 C 0.40954 1.41359 -0.00722
 C195 C 0.41314 1.45092 0.03489
 C196 C 0.37317 1.45236 0.07357
 C197 C 0.37027 1.33543 -0.04818
 C198 C 0.33377 1.29383 -0.04798
 C199 C 0.29326 1.29163 -0.00930
 C200 C 0.28843 1.33521 0.02812
 C201 C 0.24376 1.33662 0.06175
 C202 C 0.20585 1.29614 0.05986
 C203 C 0.21203 1.25159 0.02620
 C204 C 0.25663 1.24784 -0.00769
 C205 C 0.26330 1.19977 -0.03773
 C206 C 0.22583 1.15851 -0.03600
 C207 C 0.18035 1.16414 -0.00509
 C208 C 0.17381 1.21061 0.02624
 H209 H 0.30248 1.41841 0.10301
 H210 H 0.44053 1.41222 -0.03720
 H211 H 0.37569 1.48014 0.10708
 H212 H 0.40090 1.33532 -0.07855
 H213 H 0.33750 1.26448 -0.07971
 H214 H 0.23620 1.36955 0.08889
 H215 H 0.17173 1.29931 0.08578
 H216 H 0.29761 1.19236 -0.06200
 H217 H 0.23182 1.12261 -0.06001
 H218 H 0.13907 1.21452 0.05123
 C219 C 0.38916 0.65867 0.08880
 C220 C 0.34823 0.65857 0.05065
 C221 C 0.34235 0.61227 0.01774
 C222 C 0.37992 0.57067 0.01913
 C223 C 0.42337 0.57384 0.05397
 C224 C 0.42580 0.61737 0.09017
 C225 C 0.29998 0.60868 -0.01763
 C226 C 0.26347 0.65012 -0.02124
 C227 C 0.26911 0.69803 0.00901
 C228 C 0.31334 0.70304 0.04399
 C229 C 0.32274 0.75316 0.06925
 C230 C 0.28947 0.79664 0.06160
 C231 C 0.24464 0.79158 0.02994
 C232 C 0.23298 0.74183 0.00427
 C233 C 0.18508 0.73784 -0.02423
 C234 C 0.15099 0.78161 -0.02759
 C235 C 0.16385 0.83116 -0.00401
 C236 C 0.21097 0.83597 0.02445
 H237 H 0.39383 0.69002 0.11843
 H238 H 0.37706 0.53827 -0.00987
 H239 H 0.45688 0.61986 0.11986
 H240 H 0.29497 0.57344 -0.04290
 H241 H 0.23236 0.64439 -0.05005
 H242 H 0.35690 0.76084 0.09364
 H243 H 0.29869 0.83453 0.08123
 H244 H 0.17194 0.70093 -0.04276
 H245 H 0.11415 0.77653 -0.04860
 H246 H 0.22049 0.87377 0.04413
 C247 C -0.30285 0.59328 0.07508
 C248 C -0.30147 0.63532 0.03607
 C249 C -0.34333 0.63784 -0.00139
 C250 C -0.38430 0.60023 0.00054
 C251 C -0.38673 0.56111 0.04117
 C252 C -0.34531 0.55714 0.07785
 C253 C -0.34545 0.67909 -0.03949
 C254 C -0.30847 0.72015 -0.03953
 C255 C -0.26694 0.72082 -0.00206
 C256 C -0.26144 0.67608 0.03409
 C257 C -0.21611 0.67368 0.06666
 C258 C -0.17806 0.71408 0.06474
 C259 C -0.18467 0.75946 0.03206
 C260 C -0.23002 0.76430 -0.00053
 C261 C -0.23711 0.81308 -0.02947
 C262 C -0.19927 0.85388 -0.02828
 C263 C -0.15303 0.84725 0.00113
 C264 C -0.14614 0.80017 0.03171
 H265 H -0.27317 0.58900 0.10567
 H266 H -0.41642 0.60329 -0.02799
 H267 H -0.34682 0.52754 0.10999
 H268 H -0.37698 0.68053 -0.06877
 H269 H -0.31281 0.75039 -0.07045
 H270 H -0.20822 0.64014 0.09308
 H271 H -0.14346 0.71015 0.08980
 H272 H -0.27197 0.82142 -0.05251
 H273 H -0.20562 0.89026 -0.05161
 H274 H -0.11086 0.79549 0.05569
 C275 C -0.36076 1.35308 0.08456
 C276 C -0.32125 1.35221 0.04465
 C277 C -0.31643 1.39770 0.01018
 C278 C -0.35403 1.43918 0.01175
 C279 C -0.39535 1.43705 0.04903
 C280 C -0.39696 1.39484 0.08658
 C281 C -0.27498 1.40067 -0.02650
 C282 C -0.23817 1.35948 -0.02968
 C283 C -0.24292 1.31231 0.00205
 C284 C -0.28662 1.30763 0.03785
 C285 C -0.29583 1.25770 0.06375
 C286 C -0.26273 1.21411 0.05596
 C287 C -0.21799 1.21912 0.02400
 C288 C -0.20649 1.26878 -0.00210
 C289 C -0.15830 1.27317 -0.03009
 C290 C -0.12379 1.22970 -0.03273
 C291 C -0.13679 1.17988 -0.00943
 C292 C -0.18415 1.17486 0.01877
 H293 H -0.36450 1.32218 0.11497
 H294 H -0.35227 1.47183 -0.01731
 H295 H -0.42776 1.39324 0.11670
 H296 H -0.27083 1.43531 -0.05292
 H297 H -0.20768 1.36454 -0.05944
 H298 H -0.32986 1.25030 0.08857
 H299 H -0.27186 1.17627 0.07593
 H300 H -0.14518 1.31034 -0.04838
 H301 H -0.08648 1.23537 -0.05273
 H302 H -0.19367 1.13705 0.03864
 C303 C -0.07650 1.41323 0.30698
 C304 C -0.03780 1.37252 0.30970
 C305 C -0.01010 1.36640 0.35872
 C306 C -0.01985 1.40058 0.40215
 C307 C -0.05852 1.44074 0.39940
 C308 C -0.08677 1.44642 0.35114
 C309 C 0.02718 1.32590 0.36462
 C310 C 0.03561 1.28902 0.32385
 C311 C 0.00777 1.29213 0.27490
 C312 C -0.02676 1.33662 0.26627
 C313 C -0.04862 1.34380 0.21454
 C314 C -0.03930 1.30709 0.17348
 C315 C -0.00963 1.26090 0.18300
 C316 C 0.01365 1.25230 0.23412
 C317 C 0.03981 1.20290 0.24323
 C318 C 0.04276 1.16399 0.20308
 C319 C 0.02101 1.17345 0.15231
 C320 C -0.00449 1.22232 0.14217
 H321 H -0.10089 1.41911 0.27203
 H322 H 0.00404 1.39639 0.43804
 H323 H -0.11830 1.47538 0.34791
 H324 H 0.04927 1.32185 0.40173
 H325 H 0.06526 1.25909 0.33142
 H326 H -0.07232 1.37819 0.20420
 H327 H -0.05686 1.31411 0.13432
 H328 H 0.05614 1.19191 0.28174
 H329 H 0.06154 1.12598 0.21208
 H330 H -0.02273 1.22917 0.10328
 C331 C -0.08738 1.41332 -0.32114
 C332 C -0.04334 1.37846 -0.31913
 C333 C -0.00535 1.38320 -0.36060
 C334 C -0.01170 1.42078 -0.40205
 C335 C -0.05715 1.45209 -0.40550
 C336 C -0.09435 1.44915 -0.36419
 C337 C 0.03769 1.34877 -0.36215
 C338 C 0.04228 1.30696 -0.32539
 C339 C 0.00452 1.29898 -0.28458
 C340 C -0.03692 1.33746 -0.27911
 C341 C -0.07049 1.33345 -0.23402
 C342 C -0.06511 1.29205 -0.19673
 C343 C -0.02739 1.25211 -0.20391
 C344 C 0.00730 1.25419 -0.24850
 C345 C 0.04234 1.21047 -0.25585
 C346 C 0.04411 1.16784 -0.21899
 C347 C 0.01164 1.16803 -0.17368
 C348 C -0.02429 1.20982 -0.16666
 H349 H -0.11861 1.41171 -0.29188
 H350 H 0.01732 1.42334 -0.43400
 H351 H -0.12995 1.47275 -0.36648
 H352 H 0.06728 1.35299 -0.39333
 H353 H 0.07654 1.28194 -0.32938
 H354 H -0.10066 1.36259 -0.22572
 H355 H -0.09144 1.29075 -0.16238
 H356 H 0.06799 1.20743 -0.29026
 H357 H 0.07162 1.13524 -0.22527
 H358 H -0.05058 1.20874 -0.13244
 C359 C -0.11433 0.65597 -0.37666
 C360 C -0.07121 0.65839 -0.34104
 C361 C -0.03663 0.61379 -0.33989
 C362 C -0.04223 0.57145 -0.37692
 C363 C -0.08249 0.57209 -0.41557
 C364 C -0.11947 0.61393 -0.41333
 C365 C 0.00484 0.61272 -0.30338
 C366 C 0.01329 0.65531 -0.26827
 C367 C -0.01871 0.70168 -0.26936
 C368 C -0.06082 0.70381 -0.30734
 C369 C -0.08966 0.75212 -0.31211
 C370 C -0.07860 0.79649 -0.28014
 C371 C -0.03930 0.79423 -0.24128
 C372 C -0.00928 0.74656 -0.23460
 C373 C 0.02831 0.74559 -0.19265
 C374 C 0.03524 0.78985 -0.15893
 C375 C 0.00593 0.83671 -0.16639
 C376 C -0.03066 0.83914 -0.20813
 H377 H -0.14466 0.68609 -0.37752
 H378 H -0.01211 0.54085 -0.37842
 H379 H -0.15243 0.61461 -0.44088
 H380 H 0.03139 0.57868 -0.30217
 H381 H 0.04672 0.65141 -0.24208
 H382 H -0.12021 0.75763 -0.34155
 H383 H -0.10154 0.83284 -0.28551
 H384 H 0.05171 0.71071 -0.18345
 H385 H 0.06331 0.78728 -0.12639
 H386 H -0.05430 0.87509 -0.21302
 C387 C -0.01335 0.59123 0.31978
 C388 C -0.04746 0.63395 0.30626
 C389 C -0.09446 0.63949 0.33636
 C390 C -0.10733 0.60217 0.37679
 C391 C -0.07214 0.56134 0.39104
 C392 C -0.02505 0.55646 0.36228
 C393 C -0.12712 0.68364 0.32770
 C394 C -0.11229 0.72450 0.29246
 C395 C -0.06525 0.72124 0.26260
 C396 C -0.03482 0.67319 0.26625
 C397 C 0.00704 0.66593 0.22974
 C398 C 0.02053 0.70576 0.19283
 C399 C -0.00558 0.75503 0.19261
 C400 C -0.04802 0.76405 0.22846
 C401 C -0.07046 0.81613 0.22981
 C402 C -0.05284 0.85664 0.19515
 C403 C -0.01317 0.84616 0.15774
 C404 C 0.01046 0.79546 0.15662
 H405 H 0.02435 0.58599 0.30079
 H406 H -0.14344 0.60675 0.39948
 H407 H 0.00391 0.52684 0.37401
 H408 H -0.16346 0.68778 0.35005
 H409 H -0.13917 0.75771 0.28826
 H410 H 0.02902 0.62892 0.22763
 H411 H 0.05257 0.69838 0.16506
 H412 H -0.10083 0.82705 0.25800
 H413 H -0.07156 0.89579 0.19631
 H414 H 0.04159 0.78768 0.12785
   
