data_POSCAR
  _audit_creation_date              2014-09-24
  _audit_creation_method            'ToBaCCo'
  _symmetry_space_group_name_H-M    'P1'
  _symmetry_Int_Tables_number       1
  _symmetry_cell_setting            triclinic
  loop_
  _symmetry_equiv_pos_as_xyz
 x,y,z
_cell_length_a 24.9017
_cell_length_b 25.2198
_cell_length_c 25.0830
_cell_angle_alpha 90.535700
_cell_angle_beta 90.653000
_cell_angle_gamma 89.791900
loop_
  _atom_site_label
  _atom_site_type_symbol
  _atom_site_fract_x
  _atom_site_fract_y
  _atom_site_fract_z
C1 C 0.00161 0.44878 0.20958
 C2 C 0.05141 0.45317 0.24534
 C3 C 0.05244 0.49753 0.27664
 C4 C 0.00267 0.53381 0.26971
 C5 C -0.04589 0.45264 0.24732
 C6 C -0.04587 0.49699 0.27859
 C7 C 0.00005 0.50054 0.17773
 C8 C 0.00061 0.54513 0.20934
 H9 H 0.08475 0.42528 0.24352
 H10 H 0.00315 0.56978 0.29563
 H11 H -0.07902 0.42465 0.24644
 H12 H -0.00159 0.50181 0.13447
 C13 C 0.00741 0.44573 0.78609
 C14 C -0.03765 0.44693 0.74879
 C15 C -0.03777 0.49248 0.71530
 C16 C 0.00753 0.52821 0.72520
 C17 C 0.05525 0.44916 0.75373
 C18 C 0.05537 0.49468 0.72018
 C19 C 0.00471 0.49550 0.81613
 C20 C 0.00482 0.54111 0.78212
 H21 H -0.07146 0.41973 0.75029
 H22 H 0.00768 0.56337 0.69865
 H23 H 0.08947 0.42238 0.75730
 H24 H 0.00281 0.49816 0.85936
 C25 C 0.22009 -0.00102 0.44084
 C26 C 0.25584 0.04783 0.44574
 C27 C 0.28649 0.04934 0.49098
 C28 C 0.27911 0.00087 0.52744
 C29 C 0.25818 -0.04833 0.44561
 C30 C 0.28884 -0.04785 0.49089
 C31 C 0.18713 -0.00130 0.49225
 C32 C 0.21818 -0.00033 0.53763
 H33 H 0.25372 0.08066 0.41798
 H34 H 0.30459 0.00168 0.56409
 H35 H 0.25763 -0.08167 0.41782
 H36 H 0.14354 -0.00248 0.49274
 C37 C 0.76775 -0.00549 0.43525
 C38 C 0.73169 -0.05009 0.43878
 C39 C 0.70089 -0.05005 0.48636
 C40 C 0.71120 -0.00488 0.52161
 C41 C 0.73247 0.04384 0.44107
 C42 C 0.70298 0.04431 0.48643
 C43 C 0.80234 -0.00670 0.48639
 C44 C 0.77227 -0.00628 0.53169
 H45 H 0.73366 -0.08433 0.41213
 H46 H 0.68659 -0.00442 0.55834
 H47 H 0.73405 0.07734 0.41415
 H48 H 0.84597 -0.00741 0.48679
 C49 C 0.44107 0.22189 1.00329
 C50 C 0.44478 0.25477 1.05106
 C51 C 0.49193 0.28704 1.05319
 C52 C 0.52665 0.28047 1.00648
 C53 C 0.44428 0.25822 0.95882
 C54 C 0.49148 0.29043 0.96010
 C55 C 0.49073 0.19086 1.00208
 C56 C 0.53816 0.22339 1.00386
 H57 H 0.41700 0.25221 1.08413
 H58 H 0.56303 0.30600 1.00793
 H59 H 0.41694 0.25712 0.92463
 H60 H 0.49209 0.14783 0.99920
 C61 C 0.44406 0.77562 1.00883
 C62 C 0.44878 0.73740 0.96149
 C63 C 0.49480 0.70806 0.96225
 C64 C 0.53161 0.71929 1.01089
 C65 C 0.44907 0.74077 1.05809
 C66 C 0.49503 0.71137 1.05937
 C67 C 0.49247 0.80757 1.00832
 C68 C 0.54058 0.77629 1.00949
 H69 H 0.42130 0.73782 0.92748
 H70 H 0.56880 0.69475 1.01189
 H71 H 0.42117 0.74258 1.09110
 H72 H 0.49243 0.85058 1.00583
 B73 B 0.99078 1.05012 0.02153
 B74 B 0.99079 1.04980 -0.04549
 B75 B 1.04538 1.02889 -0.01143
 B76 B 1.02425 0.99596 0.04239
 B77 B 0.95680 0.99649 0.04144
 B78 B 0.93583 1.02989 -0.01272
 B79 B 0.99034 0.94186 -0.04618
 B80 B 0.99033 0.94204 0.02101
 B81 B 0.93574 0.96301 -0.01310
 B82 B 0.95668 0.99608 -0.06699
 B83 B 1.02443 0.99557 -0.06630
 B84 B 1.04493 0.96228 -0.01183
 B85 B 0.56022 0.49874 0.47532
 B86 B 0.56047 0.49864 0.54233
 B87 B 0.54024 0.55287 0.50943
 B88 B 0.50596 0.53322 0.45473
 B89 B 0.50477 0.46632 0.45368
 B90 B 0.53854 0.44510 0.50827
 B91 B 0.45111 0.50098 0.54195
 B92 B 0.45053 0.50103 0.47459
 B93 B 0.47071 0.44630 0.50795
 B94 B 0.50545 0.46637 0.56278
 B95 B 0.50663 0.53298 0.56315
 B96 B 0.47281 0.55458 0.50906
 C97 C 1.00074 1.39942 0.17815
 C98 C 0.99963 1.35660 0.15636
 C99 C 0.99802 1.30376 0.13423
 C100 C 0.99479 1.29537 0.07901
 C101 C 0.99285 1.24363 0.05838
 C102 C 0.99406 1.20019 0.09290
 C103 C 0.99729 1.20861 0.14806
 C104 C 0.99924 1.26026 0.16865
 C105 C 0.99245 1.14715 0.07150
 C106 C 0.99141 1.10352 0.05166
 H107 H 0.99375 1.32866 0.05202
 H108 H 0.99044 1.23749 0.01560
 H109 H 0.99833 1.17532 0.17506
 H110 H 1.00167 1.26631 0.21144
 C111 C 0.99878 0.59807 0.18753
 C112 C 0.99713 0.64200 0.16859
 C113 C 0.99504 0.69415 0.14510
 C114 C 0.97492 0.70046 0.09309
 C115 C 0.97328 0.75077 0.06992
 C116 C 0.99178 0.79523 0.09853
 C117 C 1.01180 0.78903 0.15059
 C118 C 1.01341 0.73866 0.17380
 C119 C 0.99099 0.84677 0.07389
 C120 C 0.99050 0.88918 0.05188
 H121 H 0.96065 0.66647 0.07038
 H122 H 0.95777 0.75496 0.02964
 H123 H 1.02635 0.82303 0.17310
 H124 H 1.02913 0.73441 0.21399
 C125 C 1.00700 1.40042 -0.18322
 C126 C 1.00595 1.35866 -0.16061
 C127 C 1.00395 1.30669 -0.13841
 C128 C 0.95500 1.28649 -0.12088
 C129 C 0.95157 1.23359 -0.10548
 C130 C 0.99701 1.20088 -0.10801
 C131 C 1.04618 1.22130 -0.12457
 C132 C 1.04961 1.27418 -0.13997
 C133 C 0.99382 1.14707 -0.09111
 C134 C 0.99182 1.10292 -0.07401
 H135 H 0.91937 1.31126 -0.12019
 H136 H 0.91357 1.21812 -0.09198
 H137 H 1.08164 1.19629 -0.12593
 H138 H 1.08745 1.28939 -0.15413
 C139 C 1.00239 0.59173 -0.19863
 C140 C 1.00035 0.63645 -0.18153
 C141 C 0.99820 0.68965 -0.16064
 C142 C 1.01700 0.70027 -0.10884
 C143 C 1.01501 0.75189 -0.08831
 C144 C 0.99416 0.79308 -0.11947
 C145 C 0.97534 0.78257 -0.17131
 C146 C 0.97738 0.73086 -0.19190
 C147 C 0.99189 0.84577 -0.09754
 C148 C 0.99069 0.88893 -0.07682
 H149 H 1.03316 0.66870 -0.08436
 H150 H 1.02965 0.75970 -0.04815
 H151 H 0.95909 0.81421 -0.19564
 H152 H 0.96275 0.72300 -0.23203
 C153 C 1.18880 0.99814 0.39095
 C154 C 1.16628 0.99786 0.34816
 C155 C 1.14243 0.99796 0.29565
 C156 C 1.09316 0.97288 0.28578
 C157 C 1.07120 0.97208 0.23418
 C158 C 1.09846 0.99629 0.19236
 C159 C 1.14762 1.02146 0.20226
 C160 C 1.16957 1.02224 0.25380
 C161 C 1.07544 0.99604 0.13959
 C162 C 1.05463 0.99596 0.09606
 H163 H 1.07193 0.95385 0.31779
 H164 H 1.03306 0.95261 0.22688
 H165 H 1.16891 1.04041 0.17022
 H166 H 1.20779 1.04158 0.26098
 C167 C 1.19540 0.99893 -0.40962
 C168 C 1.17570 0.99823 -0.36582
 C169 C 1.15131 0.99737 -0.31386
 C170 C 1.09523 0.99697 -0.30958
 C171 C 1.07133 0.99627 -0.25935
 C172 C 1.10331 0.99594 -0.21301
 C173 C 1.15941 0.99629 -0.21720
 C174 C 1.18334 0.99700 -0.26750
 C175 C 1.07825 0.99553 -0.16145
 C176 C 1.05583 0.99537 -0.11905
 H177 H 1.06999 0.99726 -0.34504
 H178 H 1.02794 0.99610 -0.25665
 H179 H 1.18456 0.99609 -0.18167
 H180 H 1.22672 0.99731 -0.27023
 C181 C 0.79781 0.99424 0.38579
 C182 C 0.81946 0.99404 0.34334
 C183 C 0.84215 0.99386 0.29132
 C184 C 0.81114 0.97599 0.24788
 C185 C 0.83215 0.97705 0.19664
 C186 C 0.88409 0.99610 0.18897
 C187 C 0.91522 1.01384 0.23238
 C188 C 0.89421 1.01275 0.28366
 C189 C 0.90612 0.99660 0.13677
 C190 C 0.92656 0.99677 0.09383
 H191 H 0.77073 0.96148 0.25364
 H192 H 0.80803 0.96311 0.16314
 H193 H 0.95557 1.02849 0.22653
 H194 H 0.91829 1.02678 0.31713
 C195 C 0.79553 0.99343 -0.41571
 C196 C 0.81442 0.99329 -0.37139
 C197 C 0.83663 0.99323 -0.31839
 C198 C 0.81374 1.02517 -0.27863
 C199 C 0.83566 1.02546 -0.22711
 C200 C 0.88040 0.99374 -0.21533
 C201 C 0.90313 0.96163 -0.25501
 C202 C 0.88126 0.96137 -0.30651
 C203 C 0.90415 0.99502 -0.16308
 C204 C 0.92580 0.99580 -0.12007
 H205 H 0.77920 1.04993 -0.28753
 H206 H 0.81801 1.05055 -0.19664
 H207 H 0.93788 0.93711 -0.24619
 H208 H 0.89920 0.93657 -0.33703
 C209 C 1.39411 1.19205 0.00131
 C210 C 1.35160 1.16924 -0.00089
 C211 C 1.29927 1.14521 -0.00397
 C212 C 1.25757 1.17116 -0.03138
 C213 C 1.20604 1.14932 -0.03312
 C214 C 1.19593 1.10145 -0.00736
 C215 C 1.23764 1.07529 0.01984
 C216 C 1.28923 1.09715 0.02157
 C217 C 1.14300 1.07885 -0.00907
 C218 C 1.09932 1.05852 -0.01030
 H219 H 1.26484 1.20845 -0.05111
 H220 H 1.17412 1.16979 -0.05435
 H221 H 1.23021 1.03816 0.03983
 H222 H 1.32107 1.07683 0.04304
 C223 C 0.58893 1.20239 0.00127
 C224 C 0.63329 1.18282 -0.00113
 C225 C 0.68576 1.15816 -0.00400
 C226 C 0.69056 1.10282 -0.00146
 C227 C 0.74117 1.07860 -0.00410
 C228 C 0.78749 1.10947 -0.00932
 C229 C 0.78280 1.16482 -0.01196
 C230 C 0.73209 1.18909 -0.00932
 C231 C 0.83954 1.08405 -0.01134
 C232 C 0.88236 1.06140 -0.01246
 H233 H 0.65517 1.07838 0.00263
 H234 H 0.74419 1.03579 -0.00197
 H235 H 0.81826 1.18917 -0.01594
 H236 H 0.72903 1.23189 -0.01136
 C237 C 1.39397 0.80561 0.00734
 C238 C 1.35095 0.82707 0.00554
 C239 C 1.29821 0.84940 0.00288
 C240 C 1.29017 0.90038 -0.01730
 C241 C 1.23820 0.92087 -0.02150
 C242 C 1.19446 0.89029 -0.00565
 C243 C 1.20251 0.83942 0.01466
 C244 C 1.25444 0.81894 0.01885
 C245 C 1.14156 0.91194 -0.00881
 C246 C 1.09802 0.93215 -0.01075
 H247 H 1.32389 0.92402 -0.02993
 H248 H 1.23208 0.96042 -0.03704
 H249 H 1.16878 0.81575 0.02723
 H250 H 1.26047 0.77934 0.03427
 C251 C 0.59032 0.79806 0.00635
 C252 C 0.63428 0.81734 0.00344
 C253 C 0.68660 0.84059 -0.00001
 C254 C 0.69916 0.88561 0.03067
 C255 C 0.74992 0.90855 0.02714
 C256 C 0.78820 0.88655 -0.00712
 C257 C 0.77575 0.84147 -0.03776
 C258 C 0.72494 0.81848 -0.03419
 C259 C 0.83994 0.91078 -0.01082
 C260 C 0.88266 0.93257 -0.01279
 H261 H 0.66974 0.90298 0.05718
 H262 H 0.75930 0.94344 0.05098
 H263 H 0.80518 0.82427 -0.06436
 H264 H 0.71551 0.78367 -0.05809
 C265 C 0.90688 0.50977 0.30916
 C266 C 0.86441 0.51506 0.33148
 C267 C 0.81164 0.51633 0.35481
 C268 C 0.80490 0.52752 0.40917
 C269 C 0.75387 0.52394 0.43189
 C270 C 0.70941 0.50875 0.40049
 C271 C 0.71605 0.49830 0.34605
 C272 C 0.76695 0.50205 0.32333
 C273 C 0.65722 0.50356 0.42425
 C274 C 0.61402 0.50006 0.44525
 H275 H 0.83909 0.53813 0.43409
 H276 H 0.74916 0.53246 0.47398
 H277 H 0.68204 0.48666 0.32132
 H278 H 0.77164 0.49281 0.28137
 C279 C 0.10065 0.51034 0.30669
 C280 C 0.14365 0.51602 0.32886
 C281 C 0.19688 0.51809 0.35235
 C282 C 0.20436 0.52894 0.40685
 C283 C 0.25591 0.52621 0.42976
 C284 C 0.30022 0.51228 0.39842
 C285 C 0.29282 0.50216 0.34385
 C286 C 0.24138 0.50504 0.32094
 C287 C 0.35293 0.50750 0.42249
 C288 C 0.39647 0.50383 0.44386
 H289 H 0.17035 0.53858 0.43172
 H290 H 0.26114 0.53432 0.47198
 H291 H 0.32666 0.49137 0.31918
 H292 H 0.23614 0.49607 0.27888
 C293 C 0.91656 0.50555 0.68809
 C294 C 0.87364 0.51238 0.66669
 C295 C 0.82051 0.51512 0.64407
 C296 C 0.80789 0.48465 0.59872
 C297 C 0.75465 0.48062 0.58112
 C298 C 0.71384 0.50692 0.60888
 C299 C 0.72649 0.53833 0.65358
 C300 C 0.77979 0.54223 0.67130
 C301 C 0.65937 0.50252 0.59030
 C302 C 0.61472 0.49955 0.57187
 H303 H 0.83894 0.46284 0.57790
 H304 H 0.74522 0.45652 0.54628
 H305 H 0.69516 0.55910 0.67504
 H306 H 0.78904 0.56517 0.70695
 C307 C 0.10045 0.50766 0.69312
 C308 C 0.14260 0.51474 0.67135
 C309 C 0.19471 0.51810 0.64774
 C310 C 0.23632 0.54495 0.67455
 C311 C 0.28880 0.54184 0.65545
 C312 C 0.29976 0.51153 0.60977
 C313 C 0.25801 0.48557 0.58242
 C314 C 0.20559 0.48879 0.60139
 C315 C 0.35353 0.50719 0.59028
 C316 C 0.39757 0.50369 0.57142
 H317 H 0.22844 0.56704 0.71089
 H318 H 0.32085 0.56226 0.67669
 H319 H 0.26614 0.46219 0.54693
 H320 H 0.17388 0.46723 0.58083
 C321 C 0.51043 0.68460 0.10746
 C322 C 0.51853 0.66517 0.15040
 C323 C 0.52299 0.64501 0.20355
 C324 C 0.51211 0.67897 0.24667
 C325 C 0.50957 0.65889 0.29824
 C326 C 0.51790 0.60476 0.30678
 C327 C 0.53019 0.57097 0.26391
 C328 C 0.53252 0.59103 0.21224
 C329 C 0.51240 0.58335 0.35911
 C330 C 0.50833 0.56333 0.40211
 H331 H 0.50408 0.72070 0.24020
 H332 H 0.50008 0.68526 0.33119
 H333 H 0.53692 0.52903 0.27033
 H334 H 0.54035 0.56436 0.17910
 C335 C 0.51115 0.68098 0.91451
 C336 C 0.51988 0.66175 0.87142
 C337 C 0.52480 0.64232 0.81778
 C338 C 0.51294 0.67659 0.77553
 C339 C 0.51051 0.65711 0.72330
 C340 C 0.51998 0.60330 0.71322
 C341 C 0.53341 0.56927 0.75522
 C342 C 0.53558 0.58870 0.80756
 C343 C 0.51413 0.58237 0.66021
 C344 C 0.50963 0.56272 0.61661
 H345 H 0.50395 0.71802 0.78317
 H346 H 0.50013 0.68367 0.69103
 H347 H 0.54105 0.52759 0.74759
 H348 H 0.54418 0.56179 0.84000
 C349 C 0.50496 0.31369 0.09943
 C350 C 0.51155 0.33502 0.14244
 C351 C 0.51454 0.35839 0.19534
 C352 C 0.48414 0.40380 0.20735
 C353 C 0.48195 0.42322 0.25980
 C354 C 0.51006 0.39739 0.30084
 C355 C 0.54112 0.35244 0.28881
 C356 C 0.54319 0.33291 0.23630
 C357 C 0.50741 0.41773 0.35487
 C358 C 0.50549 0.43686 0.39920
 H359 H 0.46120 0.42355 0.17635
 H360 H 0.45792 0.45809 0.26844
 H361 H 0.56321 0.33218 0.32006
 H362 H 0.56627 0.29738 0.22785
 C363 C 0.50558 0.31714 0.91507
 C364 C 0.51287 0.33831 0.87269
 C365 C 0.51632 0.36126 0.82019
 C366 C 0.54501 0.33525 0.77976
 C367 C 0.54289 0.35408 0.72732
 C368 C 0.51173 0.39880 0.71487
 C369 C 0.48364 0.42516 0.75541
 C370 C 0.48589 0.40647 0.80779
 C371 C 0.50892 0.41840 0.66094
 C372 C 0.50671 0.43713 0.61679
 H373 H 0.56805 0.29981 0.78853
 H374 H 0.56497 0.33342 0.69643
 H375 H 0.45953 0.45987 0.74641
 H376 H 0.46288 0.42657 0.83837
 C377 C 0.67903 0.90366 0.50270
 C378 C 0.66256 0.86026 0.51299
 C379 C 0.64584 0.80651 0.52006
 C380 C 0.68096 0.76533 0.50581
 C381 C 0.66329 0.71288 0.50567
 C382 C 0.61047 0.70159 0.51986
 C383 C 0.57579 0.74255 0.53572
 C384 C 0.59339 0.79508 0.53561
 C385 C 0.59055 0.64858 0.51549
 C386 C 0.57096 0.60527 0.51190
 H387 H 0.72145 0.77395 0.49317
 H388 H 0.69026 0.68141 0.49323
 H389 H 0.53483 0.73397 0.54682
 H390 H 0.56579 0.82670 0.54611
 C391 C 0.67558 0.09181 0.50258
 C392 C 0.65538 0.13424 0.51159
 C393 C 0.63408 0.18681 0.51725
 C394 C 0.58774 0.20102 0.48861
 C395 C 0.57143 0.25396 0.48708
 C396 C 0.60145 0.29281 0.51411
 C397 C 0.64705 0.27854 0.54387
 C398 C 0.66350 0.22552 0.54525
 C399 C 0.58453 0.34702 0.51153
 C400 C 0.56719 0.39142 0.50939
 H401 H 0.56523 0.17149 0.46616
 H402 H 0.53592 0.26474 0.46420
 H403 H 0.67027 0.30839 0.56512
 H404 H 0.69989 0.21496 0.56680
 C405 C 0.31891 0.90521 0.50537
 C406 C 0.34128 0.86326 0.51278
 C407 C 0.36538 0.81128 0.51711
 C408 C 0.33983 0.77147 0.54604
 C409 C 0.35964 0.71938 0.54494
 C410 C 0.40492 0.70673 0.51461
 C411 C 0.43095 0.74667 0.48637
 C412 C 0.41124 0.79872 0.48757
 C413 C 0.42508 0.65305 0.51241
 C414 C 0.44394 0.60892 0.51051
 H415 H 0.30392 0.78043 0.56844
 H416 H 0.33925 0.68890 0.56707
 H417 H 0.46608 0.73744 0.46288
 H418 H 0.43100 0.82887 0.46446
 C419 C 0.31426 0.09774 0.50534
 C420 C 0.33430 0.14086 0.51233
 C421 C 0.35511 0.19420 0.51589
 C422 C 0.40747 0.20399 0.53446
 C423 C 0.42816 0.25560 0.53376
 C424 C 0.39678 0.29762 0.51415
 C425 C 0.34425 0.28792 0.49626
 C426 C 0.32351 0.23643 0.49715
 C427 C 0.41913 0.35021 0.51112
 C428 C 0.43971 0.39338 0.50890
 H429 H 0.43251 0.17174 0.54865
 H430 H 0.46882 0.26264 0.54785
 H431 H 0.31960 0.31997 0.48097
 H432 H 0.28312 0.22937 0.48228
   
