data_POSCAR
  _audit_creation_date              2014-09-24
  _audit_creation_method            'ToBaCCo'
  _symmetry_space_group_name_H-M    'P1'
  _symmetry_Int_Tables_number       1
  _symmetry_cell_setting            triclinic
  loop_
  _symmetry_equiv_pos_as_xyz
 x,y,z
_cell_length_a 44.8490
_cell_length_b 45.1936
_cell_length_c 7.4599
_cell_angle_alpha 89.892500
_cell_angle_beta 90.293100
_cell_angle_gamma 90.086000
loop_
  _atom_site_label
  _atom_site_type_symbol
  _atom_site_fract_x
  _atom_site_fract_y
  _atom_site_fract_z
C1 C 0.17016 0.24976 0.24067
 C2 C 0.18565 0.22384 0.28339
 C3 C 0.21687 0.22402 0.28959
 C4 C 0.23301 0.24995 0.24788
 C5 C 0.21699 0.27580 0.20312
 C6 C 0.18577 0.27577 0.20246
 C7 C 0.26634 0.24998 0.25077
 C8 C 0.28236 0.27583 0.29585
 C9 C 0.31358 0.27586 0.29701
 C10 C 0.32918 0.24992 0.25901
 C11 C 0.31370 0.22398 0.21641
 C12 C 0.28248 0.22411 0.20941
 H13 H 0.14597 0.24971 0.23661
 H14 H 0.22842 0.20391 0.32736
 H15 H 0.22858 0.29597 0.16709
 H16 H 0.27078 0.29592 0.33221
 H17 H 0.35337 0.24993 0.26341
 H18 H 0.27093 0.20401 0.17113
 C19 C 0.82921 0.25043 0.24007
 C20 C 0.81367 0.27646 0.20143
 C21 C 0.78244 0.27651 0.20156
 C22 C 0.76636 0.25066 0.24591
 C23 C 0.78248 0.22470 0.28736
 C24 C 0.81368 0.22454 0.28202
 C25 C 0.73303 0.25072 0.24860
 C26 C 0.71670 0.22487 0.20697
 C27 C 0.68547 0.22479 0.21388
 C28 C 0.67017 0.25076 0.25600
 C29 C 0.68595 0.27669 0.29409
 C30 C 0.71717 0.27661 0.29335
 H31 H 0.85339 0.25030 0.23682
 H32 H 0.77089 0.29668 0.16518
 H33 H 0.77100 0.20455 0.32458
 H34 H 0.72810 0.20474 0.16904
 H35 H 0.64598 0.25082 0.26034
 H36 H 0.72890 0.29667 0.33023
 C37 C 0.67091 0.75179 0.74143
 C38 C 0.68637 0.72578 0.78171
 C39 C 0.71757 0.72588 0.78798
 C40 C 0.73376 0.75184 0.74742
 C41 C 0.71776 0.77777 0.70365
 C42 C 0.68653 0.77782 0.70394
 C43 C 0.76708 0.75186 0.75106
 C44 C 0.78309 0.77769 0.79710
 C45 C 0.81435 0.77776 0.79759
 C46 C 0.82994 0.75177 0.75944
 C47 C 0.81442 0.72586 0.71699
 C48 C 0.78323 0.72601 0.70940
 H49 H 0.64672 0.75171 0.73772
 H50 H 0.72902 0.70568 0.82515
 H51 H 0.72939 0.79789 0.66695
 H52 H 0.77142 0.79772 0.83429
 H53 H 0.85415 0.75162 0.76339
 H54 H 0.77176 0.70592 0.67015
 C55 C 0.32939 0.75052 0.73943
 C56 C 0.31386 0.77657 0.70139
 C57 C 0.28262 0.77662 0.70126
 C58 C 0.26652 0.75075 0.74556
 C59 C 0.28265 0.72476 0.78626
 C60 C 0.31384 0.72459 0.78025
 C61 C 0.23316 0.75083 0.74911
 C62 C 0.21679 0.72486 0.71096
 C63 C 0.18558 0.72477 0.71926
 C64 C 0.17030 0.75084 0.75945
 C65 C 0.18610 0.77690 0.79392
 C66 C 0.21732 0.77682 0.79208
 H67 H 0.35358 0.75036 0.73631
 H68 H 0.27110 0.79680 0.66466
 H69 H 0.27119 0.70460 0.82377
 H70 H 0.22813 0.70465 0.67390
 H71 H 0.14612 0.75087 0.76521
 H72 H 0.22904 0.79699 0.82640
 O73 O 1.02920 -0.03613 0.24426
 O74 O 0.97111 0.01770 0.36673
 O75 O 0.97123 -0.03630 0.24346
 O76 O 1.02929 0.01795 0.36656
 O77 O 1.02895 0.03419 0.08675
 O78 O 0.97104 -0.01987 -0.03596
 O79 O 0.97107 0.03400 0.08709
 O80 O 1.02901 -0.01973 -0.03523
 Cu81 Cu 1.00023 -0.01100 0.33316
 Cu82 Cu 0.99999 0.00895 -0.00183
 C83 C 1.03882 -0.03715 0.08487
 C84 C 0.96136 0.03506 0.24615
 C85 C 0.96144 -0.03737 0.08379
 C86 C 1.03885 0.03536 0.24598
 O87 O 0.52935 0.46381 0.74748
 O88 O 0.47121 0.51752 0.87130
 O89 O 0.47138 0.46346 0.74833
 O90 O 0.52936 0.51802 0.86769
 O91 O 0.52865 0.53401 0.58738
 O92 O 0.47077 0.47969 0.46853
 O93 O 0.47080 0.53359 0.59118
 O94 O 0.52877 0.47994 0.46747
 Cu95 Cu 0.50040 0.48891 0.83648
 Cu96 Cu 0.49968 0.50859 0.50117
 C97 C 0.53877 0.46266 0.58770
 C98 C 0.46129 0.53479 0.75068
 C99 C 0.46138 0.46224 0.58921
 C100 C 0.53870 0.53537 0.74619
 O101 O 0.02936 0.51834 -0.36689
 O102 O -0.02899 0.46429 -0.24761
 O103 O -0.02879 0.51854 -0.36816
 O104 O 0.02901 0.46411 -0.24519
 O105 O 0.02911 0.48011 0.03469
 O106 O -0.02857 0.53432 -0.08774
 O107 O -0.02890 0.48026 0.03240
 O108 O 0.02924 0.53415 -0.08658
 Cu109 Cu 0.00015 0.48953 -0.33492
 Cu110 Cu 0.00024 0.50898 0.00065
 C111 C 0.03903 0.53554 -0.24536
 C112 C -0.03869 0.46302 -0.08845
 C113 C -0.03835 0.53576 -0.24713
 C114 C 0.03871 0.46278 -0.08545
 O115 O 0.47081 1.03502 0.40993
 O116 O 0.52895 0.98132 0.53397
 O117 O 0.52868 1.03514 0.40890
 O118 O 0.47094 0.98099 0.53212
 O119 O 0.47074 0.96465 0.25295
 O120 O 0.52864 1.01889 0.12954
 O121 O 0.52871 0.96493 0.25489
 O122 O 0.47047 1.01880 0.13049
 Cu123 Cu 0.49985 1.00992 0.49869
 Cu124 Cu 0.49962 0.99002 0.16429
 C125 C 0.46089 1.03615 0.25071
 C126 C 0.53858 0.96391 0.41437
 C127 C 0.53835 1.03631 0.24970
 C128 C 0.46119 0.96349 0.41249
 C129 C 1.17025 0.19828 0.31162
 C130 C 1.15606 0.17582 0.33057
 C131 C 1.13835 0.14937 0.34416
 C132 C 1.14600 0.12436 0.24376
 C133 C 1.12697 0.09984 0.23934
 C134 C 1.10025 0.10018 0.33584
 C135 C 1.09297 0.12489 0.43992
 C136 C 1.11200 0.14943 0.44429
 C137 C 1.07913 0.07643 0.31452
 C138 C 1.06095 0.05723 0.28832
 H139 H 1.16619 0.12419 0.16467
 H140 H 1.13264 0.08101 0.15652
 H141 H 1.07218 0.12555 0.51308
 H142 H 1.10575 0.16875 0.52115
 C143 C 0.67003 0.69872 0.80918
 C144 C 0.65571 0.67630 0.82572
 C145 C 0.63781 0.64992 0.83750
 C146 C 0.61132 0.65012 0.93620
 C147 C 0.59235 0.62553 0.93286
 C148 C 0.59982 0.60063 0.83095
 C149 C 0.62663 0.60018 0.73543
 C150 C 0.64560 0.62477 0.73882
 C151 C 0.57883 0.57673 0.81151
 C152 C 0.56074 0.55740 0.78692
 H153 H 0.60494 0.66955 1.01160
 H154 H 0.57150 0.62626 1.00533
 H155 H 0.63245 0.58119 0.65439
 H156 H 0.66590 0.62447 0.66074
 C157 C -0.16991 0.30308 0.16275
 C158 C -0.15530 0.32495 0.13328
 C159 C -0.13696 0.35053 0.10053
 C160 C -0.14072 0.36721 -0.05647
 C161 C -0.12184 0.39120 -0.09143
 C162 C -0.09915 0.39857 0.03054
 C163 C -0.09562 0.38207 0.18830
 C164 C -0.11447 0.35811 0.22319
 C165 C -0.07856 0.42208 -0.00969
 C166 C -0.06067 0.44115 -0.04446
 H167 H -0.15793 0.36142 -0.15272
 H168 H -0.12463 0.40368 -0.21452
 H169 H -0.07801 0.38744 0.28270
 H170 H -0.11124 0.34524 0.34436
 C171 C 0.33028 0.80327 0.66437
 C172 C 0.34492 0.82516 0.63601
 C173 C 0.36330 0.85073 0.60378
 C174 C 0.38666 0.85748 0.72221
 C175 C 0.40552 0.88143 0.68717
 C176 C 0.40112 0.89878 0.53359
 C177 C 0.37759 0.89221 0.41570
 C178 C 0.35870 0.86823 0.45081
 C179 C 0.42163 0.92236 0.49328
 C180 C 0.43941 0.94150 0.45804
 H181 H 0.39053 0.84399 0.84014
 H182 H 0.42380 0.88615 0.77828
 H183 H 0.37416 0.90534 0.29568
 H184 H 0.34079 0.86312 0.35771
 C185 C -0.16931 0.69886 -0.31133
 C186 C -0.15507 0.67646 -0.32835
 C187 C -0.13728 0.65010 -0.34055
 C188 C -0.11090 0.65032 -0.44025
 C189 C -0.09198 0.62575 -0.43696
 C190 C -0.09938 0.60087 -0.33404
 C191 C -0.12607 0.60042 -0.23720
 C192 C -0.14500 0.62497 -0.24061
 C193 C -0.07840 0.57702 -0.31430
 C194 C -0.06034 0.55773 -0.28895
 H195 H -0.10457 0.66976 -0.51639
 H196 H -0.07121 0.62649 -0.51034
 H197 H -0.13183 0.58144 -0.15541
 H198 H -0.16519 0.62469 -0.16150
 C199 C 0.32912 1.19847 0.18897
 C200 C 0.34338 1.17610 0.17069
 C201 C 0.36120 1.14977 0.15698
 C202 C 0.38747 1.15009 0.05621
 C203 C 0.40648 1.12558 0.05862
 C204 C 0.39928 1.10066 0.16179
 C205 C 0.37265 1.10008 0.25926
 C206 C 0.35364 1.12458 0.25670
 C207 C 0.42046 1.07699 0.18197
 C208 C 0.43871 1.05789 0.20807
 H209 H 0.39369 1.16957 -0.01987
 H210 H 0.42719 1.12641 -0.01533
 H211 H 0.36703 1.08108 0.34121
 H212 H 0.33354 1.12423 0.33663
 C213 C 1.17001 -0.19631 -0.16835
 C214 C 1.15580 -0.17429 -0.13764
 C215 C 1.13794 -0.14857 -0.10193
 C216 C 1.13236 -0.14013 0.07543
 C217 C 1.11332 -0.11639 0.11076
 C218 C 1.09983 -0.10097 -0.03115
 C219 C 1.10576 -0.10913 -0.20859
 C220 C 1.12480 -0.13289 -0.24389
 C221 C 1.07886 -0.07774 0.00582
 C222 C 1.06082 -0.05886 0.04013
 H223 H 1.14224 -0.15221 0.18651
 H224 H 1.10871 -0.11043 0.24860
 H225 H 1.09529 -0.09752 -0.31948
 H226 H 1.12881 -0.13935 -0.38153
 C227 C 0.66981 0.30338 0.33343
 C228 C 0.65553 0.32532 0.36464
 C229 C 0.63762 0.35097 0.40114
 C230 C 0.62546 0.36749 0.25951
 C231 C 0.60654 0.39133 0.29511
 C232 C 0.59970 0.39872 0.47246
 C233 C 0.61222 0.38247 0.61413
 C234 C 0.63113 0.35865 0.57852
 C235 C 0.57879 0.42201 0.50925
 C236 C 0.56076 0.44093 0.54293
 H237 H 0.63020 0.36163 0.12194
 H238 H 0.59689 0.40366 0.18457
 H239 H 0.60697 0.38791 0.75173
 H240 H 0.64028 0.34593 0.68903
 C241 C 0.82976 -0.19693 -0.16625
 C242 C 0.84406 -0.17488 -0.13633
 C243 C 0.86201 -0.14910 -0.10164
 C244 C 0.87459 -0.13324 -0.24423
 C245 C 0.89371 -0.10941 -0.20955
 C246 C 0.90029 -0.10138 -0.03230
 C247 C 0.88730 -0.11694 0.10992
 C248 C 0.86820 -0.14074 0.07532
 C249 C 0.92135 -0.07811 0.00444
 C250 C 0.93944 -0.05917 0.03839
 H251 H 0.87004 -0.13958 -0.38178
 H252 H 0.90371 -0.09763 -0.32086
 H253 H 0.89235 -0.11099 0.24733
 H254 H 0.85869 -0.15293 0.18653
 C255 C 0.32987 0.30254 0.33607
 C256 C 0.34428 0.32451 0.36654
 C257 C 0.36240 0.35020 0.40058
 C258 C 0.38123 0.36104 0.26626
 C259 C 0.40024 0.38488 0.30171
 C260 C 0.40050 0.39800 0.47167
 C261 C 0.38137 0.38744 0.60544
 C262 C 0.36234 0.36358 0.56990
 C263 C 0.42138 0.42133 0.51098
 C264 C 0.43940 0.44032 0.54536
 H265 H 0.38156 0.35076 0.13516
 H266 H 0.41510 0.39275 0.19792
 H267 H 0.38150 0.39732 0.73771
 H268 H 0.34794 0.35529 0.67487
 C269 C 0.17000 0.69917 -0.30509
 C270 C 0.15565 0.67673 -0.32110
 C271 C 0.13781 0.65030 -0.33293
 C272 C 0.11159 0.65020 -0.43583
 C273 C 0.09278 0.62548 -0.43397
 C274 C 0.10010 0.60079 -0.32887
 C275 C 0.12663 0.60065 -0.22884
 C276 C 0.14544 0.62535 -0.23080
 C277 C 0.07917 0.57684 -0.31022
 C278 C 0.06110 0.55750 -0.28590
 H279 H 0.10528 0.66952 -0.51330
 H280 H 0.07213 0.62597 -0.50999
 H281 H 0.13238 0.58175 -0.14616
 H282 H 0.16551 0.62529 -0.14931
 C283 C 0.66987 1.19927 0.18677
 C284 C 0.65548 1.17691 0.16860
 C285 C 0.63757 1.15056 0.15516
 C286 C 0.61102 1.15083 0.05525
 C287 C 0.59205 1.12623 0.05749
 C288 C 0.59955 1.10126 0.15984
 C289 C 0.62645 1.10073 0.25616
 C290 C 0.64542 1.12531 0.25377
 C291 C 0.57846 1.07748 0.18055
 C292 C 0.56036 1.05823 0.20686
 H293 H 0.60459 1.17035 -0.02006
 H294 H 0.57114 1.12703 -0.01570
 H295 H 0.63231 1.08169 0.33741
 H296 H 0.66572 1.12497 0.33313
 C297 C 0.16944 0.30245 0.16446
 C298 C 0.15492 0.32437 0.13522
 C299 C 0.13659 0.34996 0.10317
 C300 C 0.11313 0.35631 0.22013
 C301 C 0.09431 0.38030 0.18599
 C302 C 0.09887 0.39810 0.03472
 C303 C 0.12252 0.39196 -0.08151
 C304 C 0.14138 0.36793 -0.04728
 C305 C 0.07834 0.42166 -0.00551
 C306 C 0.06053 0.44080 -0.04039
 H307 H 0.10912 0.34244 0.33616
 H308 H 0.07590 0.38468 0.27550
 H309 H 0.12608 0.40542 -0.19995
 H310 H 0.15936 0.36312 -0.13916
 C311 C 0.67027 0.80457 0.66600
 C312 C 0.65592 0.82656 0.63569
 C313 C 0.63796 0.85228 0.60009
 C314 C 0.63178 0.86066 0.42295
 C315 C 0.61277 0.88451 0.38804
 C316 C 0.59987 0.90008 0.53008
 C317 C 0.60639 0.89198 0.70727
 C318 C 0.62540 0.86811 0.74216
 C319 C 0.57883 0.92335 0.49343
 C320 C 0.56069 0.94223 0.45955
 H321 H 0.64122 0.84844 0.31217
 H322 H 0.60772 0.89047 0.25051
 H323 H 0.59639 0.90376 0.81792
 H324 H 0.62988 0.86168 0.87955
 C325 C 0.82995 0.19755 0.31213
 C326 C 0.84421 0.17515 0.33059
 C327 C 0.86198 0.14874 0.34370
 C328 C 0.88850 0.14885 0.44376
 C329 C 0.90748 0.12432 0.43960
 C330 C 0.89996 0.09958 0.33578
 C331 C 0.87307 0.09918 0.23939
 C332 C 0.85411 0.12370 0.24351
 C333 C 0.92105 0.07588 0.31457
 C334 C 0.93922 0.05679 0.28836
 H335 H 0.89494 0.16819 0.52043
 H336 H 0.92839 0.12500 0.51279
 H337 H 0.86721 0.08033 0.15673
 H338 H 0.83378 0.12350 0.16444
 C339 C 0.33011 0.69757 0.80977
 C340 C 0.34440 0.67519 0.82823
 C341 C 0.36222 0.64883 0.84230
 C342 C 0.38882 0.64916 0.94162
 C343 C 0.40771 0.62456 0.93996
 C344 C 0.40007 0.59953 0.83893
 C345 C 0.37311 0.59894 0.74327
 C346 C 0.35423 0.62353 0.74491
 C347 C 0.42111 0.57576 0.81898
 C348 C 0.43923 0.55658 0.79318
 H349 H 0.39537 0.66873 1.01573
 H350 H 0.42867 0.62540 1.01273
 H351 H 0.36713 0.57984 0.66308
 H352 H 0.33387 0.62315 0.66606
   
