data_POSCAR
  _audit_creation_date              2014-09-24
  _audit_creation_method            'ToBaCCo'
  _symmetry_space_group_name_H-M    'P1'
  _symmetry_Int_Tables_number       1
  _symmetry_cell_setting            triclinic
  loop_
  _symmetry_equiv_pos_as_xyz
 x,y,z
_cell_length_a 14.9014
_cell_length_b 14.9048
_cell_length_c 32.6850
_cell_angle_alpha 90.010700
_cell_angle_beta 90.194500
_cell_angle_gamma 119.859600
loop_
  _atom_site_label
  _atom_site_type_symbol
  _atom_site_fract_x
  _atom_site_fract_y
  _atom_site_fract_z
C1 C -0.10718 -0.11164 0.47151
 C2 C -0.02750 -0.05776 0.50001
 C3 C -0.00251 -0.11208 0.52860
 C4 C -0.05667 -0.22037 0.52855
 C5 C -0.13689 -0.27422 0.50017
 C6 C -0.16246 -0.21992 0.47172
 C7 C 0.02963 0.05561 0.49998
 C8 C 0.00378 0.11033 0.52797
 C9 C 0.05765 0.21854 0.52776
 C10 C 0.13845 0.27202 0.49990
 C11 C 0.16488 0.21740 0.47206
 C12 C 0.10994 0.10918 0.47195
 H13 H -0.12581 -0.06914 0.44935
 H14 H 0.05888 -0.06990 0.55071
 H15 H -0.05806 0.06870 0.54974
 H16 H 0.12941 0.06667 0.45018
 H17 H -0.17932 -0.35823 0.50023
 H18 H 0.18061 0.35593 0.49986
 C19 C 1.11254 0.00203 0.13764
 C20 C 1.05875 0.02768 0.16611
 C21 C 1.11313 0.10734 0.19449
 C22 C 1.22131 0.16195 0.19428
 C23 C 1.27520 0.13583 0.16599
 C24 C 1.22084 0.05557 0.13771
 C25 C 0.94542 -0.02881 0.16620
 C26 C 0.89181 -0.10832 0.19455
 C27 C 0.78361 -0.16255 0.19460
 C28 C 0.72901 -0.13618 0.16659
 C29 C 0.78262 -0.05612 0.13840
 C30 C 0.89082 -0.00299 0.13805
 H31 H 1.06994 -0.05937 0.11561
 H32 H 1.07124 0.12664 0.21659
 H33 H 0.93431 -0.12772 0.21645
 H34 H 0.93254 0.05828 0.11604
 H35 H 1.35917 0.17798 0.16602
 H36 H 0.64508 -0.17782 0.16675
 C37 C 0.10575 0.99782 0.86308
 C38 C 0.02567 0.97202 0.83473
 C39 C 0.00105 0.89326 0.80599
 C40 C 0.05586 0.83970 0.80571
 C41 C 0.13647 0.86595 0.83386
 C42 C 0.16179 0.94533 0.86250
 C43 C -0.03172 1.02820 0.83478
 C44 C -0.00708 1.10735 0.80632
 C45 C -0.06165 1.16116 0.80618
 C46 C -0.14206 1.13477 0.83419
 C47 C -0.16740 1.05500 0.86255
 C48 C -0.11159 1.00226 0.86299
 H49 H 0.12424 1.05866 0.88533
 H50 H -0.06052 0.87396 0.78395
 H51 H 0.05436 1.12679 0.78439
 H52 H -0.13005 0.94116 0.88505
 H53 H 0.17925 0.82460 0.83344
 H54 H -0.18465 1.17631 0.83387
 O55 O 0.53734 -0.09499 0.03889
 O56 O 0.36430 -0.09489 -0.03971
 O57 O 0.54864 -0.07567 -0.04059
 O58 O 0.37270 -0.07526 0.03987
 O59 O 0.46024 0.09576 0.03909
 O60 O 0.63149 0.09534 -0.03971
 O61 O 0.44718 0.07612 -0.04043
 O62 O 0.62495 0.07604 0.03982
 Cu63 Cu 0.44744 -0.10176 -0.00042
 Cu64 Cu 0.54924 0.10238 -0.00031
 C65 C 0.61013 -0.01098 0.05276
 C66 C 0.37516 -0.01089 -0.05344
 C67 C 0.62038 0.01129 -0.05354
 C68 C 0.38784 0.01182 0.05295
 O69 O 0.09633 0.46480 0.62662
 O70 O 0.09621 0.63701 0.70500
 O71 O 0.06986 0.44760 0.70702
 O72 O 0.07208 0.62511 0.62649
 O73 O -0.09891 0.53791 0.62682
 O74 O -0.10104 0.36511 0.70558
 O75 O -0.07494 0.55233 0.70644
 O76 O -0.07478 0.37527 0.62622
 Cu77 Cu 0.09880 0.54998 0.66682
 Cu78 Cu -0.10386 0.44952 0.66620
 C79 C 0.01246 0.39125 0.61298
 C80 C 0.01223 0.62519 0.71910
 C81 C -0.01737 0.37599 0.71980
 C82 C -0.01478 0.61047 0.61321
 O83 O 0.54127 0.63358 0.29451
 O84 O 0.36998 0.46138 0.37303
 O85 O 0.55356 0.62653 0.37405
 O86 O 0.37712 0.44960 0.29348
 O87 O 0.46550 0.36657 0.29438
 O88 O 0.63740 0.53897 0.37329
 O89 O 0.45376 0.37376 0.37387
 O90 O 0.62960 0.55053 0.29369
 Cu91 Cu 0.45210 0.55102 0.33378
 Cu92 Cu 0.55498 0.44924 0.33384
 C93 C 0.61404 0.62229 0.28068
 C94 C 0.38158 0.38864 0.38680
 C95 C 0.62583 0.61167 0.38710
 C96 C 0.39255 0.37778 0.28046
 C97 C 0.03340 0.27516 0.55720
 C98 C 0.01888 0.32569 0.58238
 C99 C 0.72824 0.75771 0.22443
 C100 C 0.67876 0.69352 0.24990
 C101 C 0.23794 -0.03189 -0.10935
 C102 C 0.30301 -0.01716 -0.08405
 C103 C -0.03464 0.72634 0.55696
 C104 C -0.02056 0.67608 0.58245
 C105 C 0.27741 0.24195 0.22412
 C106 C 0.32739 0.30634 0.24961
 C107 C 0.75675 0.03216 -0.10940
 C108 C 0.69201 0.01745 -0.08414
 C109 C 0.27353 0.03295 0.10934
 C110 C 0.32305 0.01822 0.08381
 C111 C 0.76194 0.72717 0.44336
 C112 C 0.69738 0.67716 0.41788
 C113 C -0.03824 0.24064 0.77626
 C114 C -0.02395 0.30470 0.75070
 C115 C 0.72619 -0.03182 0.10877
 C116 C 0.67583 -0.01723 0.08344
 C117 C 0.24534 0.27297 0.44253
 C118 C 0.31003 0.32305 0.41733
 C119 C 0.03249 0.76053 0.77555
 C120 C 0.01840 0.69658 0.74992
   
