data_POSCAR
  _audit_creation_date              2014-09-24
  _audit_creation_method            'ToBaCCo'
  _symmetry_space_group_name_H-M    'P1'
  _symmetry_Int_Tables_number       1
  _symmetry_cell_setting            triclinic
  loop_
  _symmetry_equiv_pos_as_xyz
 x,y,z
_cell_length_a 27.4306
_cell_length_b 27.1933
_cell_length_c 47.2903
_cell_angle_alpha 93.700400
_cell_angle_beta 90.163500
_cell_angle_gamma 90.005000
loop_
  _atom_site_label
  _atom_site_type_symbol
  _atom_site_fract_x
  _atom_site_fract_y
  _atom_site_fract_z
C1 C -0.03448 0.35077 0.98872
 C2 C -0.03628 0.35666 1.01770
 C3 C -0.01614 0.40250 1.02530
 N4 N -0.00342 0.42534 1.00186
 C5 C -0.01448 0.39363 0.97955
 C6 C -0.00681 0.42157 1.05340
 C7 C 0.00302 0.47246 1.05941
 C8 C 0.02812 0.49198 1.08305
 C9 C 0.02871 0.54220 1.08142
 C10 C 0.00389 0.55226 1.05684
 N11 N -0.01106 0.50943 1.04329
 C12 C -0.00505 0.60022 1.04774
 C13 C -0.01520 0.60771 1.01893
 C14 C -0.03562 0.64998 1.00893
 C15 C -0.03523 0.64393 0.97993
 C16 C -0.01532 0.59791 0.97318
 N17 N -0.00330 0.57564 0.99701
 C18 C -0.00530 0.57851 0.94542
 C19 C 0.00518 0.52822 0.93920
 C20 C 0.02518 0.50849 0.91406
 C21 C 0.02574 0.45814 0.91569
 C22 C 0.00605 0.44872 0.94177
 N23 N -0.00634 0.49157 0.95595
 C24 C -0.00338 0.40149 0.95112
 H25 H -0.04665 0.31872 0.97584
 H26 H -0.05055 0.33002 1.03156
 H27 H -0.02662 0.49526 0.97454
 H28 H 0.04506 0.47207 1.09955
 H29 H 0.04619 0.56825 1.09646
 H30 H -0.04926 0.68196 1.02123
 H31 H -0.04816 0.67034 0.96547
 H32 H 0.03856 0.43152 0.89939
 H33 H -0.03342 0.50594 1.02541
 H34 H 0.03755 0.52825 0.89628
 C35 C 0.35193 -0.02177 0.48258
 C36 C 0.35245 -0.02927 0.51098
 C37 C 0.39861 -0.01622 0.52083
 N38 N 0.42630 -0.00116 0.49946
 C39 C 0.39787 -0.00464 0.47604
 C40 C 0.41332 -0.01435 0.54947
 C41 C 0.46203 -0.00569 0.55814
 C42 C 0.47598 0.01022 0.58538
 C43 C 0.52600 0.01188 0.58558
 C44 C 0.54141 -0.00395 0.55854
 N45 N 0.50203 -0.01411 0.54184
 C46 C 0.59085 -0.01007 0.55016
 C47 C 0.60456 -0.01186 0.52119
 C48 C 0.64925 -0.02813 0.51052
 C49 C 0.64866 -0.02134 0.48208
 C50 C 0.60335 -0.00205 0.47613
 N51 N 0.57635 0.00371 0.50001
 C52 C 0.58882 0.01264 0.44929
 C53 C 0.53987 0.02241 0.44229
 C54 C 0.52487 0.04564 0.41850
 C55 C 0.47471 0.04496 0.41848
 C56 C 0.46052 0.02130 0.44224
 N57 N 0.50048 0.00750 0.45656
 C58 C 0.41177 0.01078 0.44930
 H59 H 0.32115 -0.02783 0.46841
 H60 H 0.32210 -0.04219 0.52306
 H61 H 0.50107 -0.01543 0.47332
 H62 H 0.45251 0.01998 0.60323
 H63 H 0.54842 0.02359 0.60363
 H64 H 0.67917 -0.04362 0.52196
 H65 H 0.67807 -0.03001 0.46738
 H66 H 0.45137 0.05986 0.40264
 H67 H 0.50248 -0.03086 0.52141
 H68 H 0.54768 0.06111 0.40268
 C69 C 0.08742 0.06917 0.27550
 H70 H 0.08185 0.09871 0.26169
 C71 C 0.12820 0.07041 0.29331
 H72 H 0.15330 0.10111 0.29303
 C73 C 0.06314 -0.00752 0.29188
 H74 H 0.03840 -0.03840 0.29086
 C75 C 0.10356 -0.00791 0.30986
 H76 H 0.10857 -0.03855 0.32311
 N77 N 0.05533 0.03095 0.27540
 C78 C -0.04135 -0.04689 0.21569
 H79 H -0.07536 -0.02811 0.22056
 C80 C -0.04081 -0.08865 0.19686
 H81 H -0.07463 -0.10163 0.18717
 C82 C 0.04435 -0.05137 0.22157
 H83 H 0.07749 -0.03623 0.23101
 C84 C 0.04658 -0.09311 0.20282
 H85 H 0.08155 -0.11033 0.19836
 Zn86 Zn -0.00075 0.02930 0.25139
 N87 N 0.00086 -0.02914 0.22752
 C88 C 0.00128 0.07620 0.19985
 N89 N -0.00042 0.08447 0.22852
 C90 C -0.00162 0.13117 0.24077
 C91 C -0.00163 0.17170 0.22405
 C92 C 0.00156 0.11562 0.18237
 C93 C -0.06748 -0.01029 0.28919
 C94 C -0.10826 -0.01106 0.30678
 C95 C -0.13155 0.06846 0.29129
 C96 C -0.09044 0.06761 0.27392
 N97 N -0.05858 0.02919 0.27370
 H98 H 0.00234 0.03897 0.19043
 H99 H -0.00256 0.13691 0.26362
 H100 H -0.00228 0.20854 0.23420
 H101 H 0.00223 0.10814 0.15961
 H102 H -0.04306 -0.04143 0.28790
 H103 H -0.11385 -0.04227 0.31950
 H104 H -0.15619 0.09957 0.29131
 H105 H -0.08422 0.09785 0.26073
 C106 C 0.00366 -0.11208 0.19002
 C107 C 0.13654 0.03162 0.31090
 C108 C -0.14053 0.02906 0.30832
 C109 C 0.00003 0.16415 0.19442
 C110 C 0.00129 0.07117 0.76363
 H111 H 0.00244 0.07563 0.74108
 C112 C 0.00139 0.11264 0.78272
 H113 H 0.00335 0.14893 0.77465
 C114 C -0.00175 0.01827 0.80146
 H115 H -0.00384 -0.01845 0.80877
 C116 C -0.00202 0.05858 0.82123
 H117 H -0.00436 0.05215 0.84354
 N118 N 0.00100 0.02511 0.77328
 C119 C 0.06896 -0.06985 0.70653
 H120 H 0.04268 -0.09957 0.70483
 C121 C 0.11000 -0.07150 0.68911
 H122 H 0.11474 -0.10244 0.67378
 C123 C 0.09382 0.00710 0.72820
 H124 H 0.08787 0.03734 0.74372
 C125 C 0.13533 0.00700 0.71116
 H126 H 0.16084 0.03735 0.71377
 Zn127 Zn 0.00308 -0.03036 0.74686
 N128 N 0.06107 -0.03045 0.72515
 C129 C -0.04669 -0.02647 0.69438
 N130 N -0.05220 -0.02747 0.72291
 C131 C -0.09713 -0.02496 0.73500
 C132 C -0.13891 -0.02290 0.71815
 C133 C -0.08742 -0.02443 0.67675
 C134 C 0.04249 -0.09699 0.78289
 C135 C 0.04370 -0.13717 0.79977
 C136 C -0.03579 -0.16142 0.78168
 C137 C -0.03544 -0.12071 0.76509
 N138 N 0.00281 -0.08881 0.76655
 H139 H -0.01076 -0.02722 0.68514
 H140 H -0.10045 -0.02474 0.75780
 H141 H -0.17434 -0.02081 0.72818
 H142 H -0.08218 -0.02480 0.65406
 H143 H 0.07273 -0.07140 0.78331
 H144 H 0.07539 -0.14261 0.81290
 H145 H -0.06738 -0.18533 0.78105
 H146 H -0.06623 -0.11417 0.75156
 C147 C 0.14353 -0.03239 0.69105
 C148 C 0.00040 0.10658 0.81201
 C149 C 0.00377 -0.16951 0.79974
 C150 C -0.13435 -0.02285 0.68857
 C151 C 0.00523 -0.27699 0.10707
 C152 C 0.02658 -0.27483 0.08025
 C153 C 0.02331 -0.31534 0.06073
 C154 C -0.00141 -0.35835 0.06757
 C155 C -0.02225 -0.35883 0.09475
 N156 N -0.01878 -0.31870 0.11336
 C157 C 0.00672 -0.23462 0.12839
 N158 N -0.02892 -0.23013 0.14838
 C159 C -0.03049 -0.19177 0.16829
 C160 C 0.00551 -0.15498 0.16896
 C161 C 0.04309 -0.15940 0.14889
 C162 C 0.04393 -0.19908 0.12868
 H163 H 0.04106 -0.31330 0.04041
 H164 H -0.04247 -0.39058 0.10093
 H165 H -0.05967 -0.19024 0.18367
 H166 H 0.07147 -0.13178 0.14851
 H167 H 0.04496 -0.24205 0.07405
 H168 H 0.07371 -0.20188 0.11373
 C169 C -0.00307 0.32193 0.11856
 C170 C -0.02529 0.36825 0.12365
 C171 C -0.02611 0.40138 0.10226
 C172 C -0.00489 0.38888 0.07568
 C173 C 0.01840 0.34278 0.07198
 N174 N 0.01852 0.31118 0.09305
 C175 C -0.00213 0.28379 0.13967
 N176 N 0.02729 0.24390 0.13449
 C177 C 0.02915 0.20597 0.15179
 C178 C -0.00014 0.20645 0.17607
 C179 C -0.03046 0.24733 0.18209
 C180 C -0.03176 0.28591 0.16396
 H181 H -0.04472 0.43626 0.10626
 H182 H 0.03721 0.33204 0.05245
 H183 H 0.05355 0.17550 0.14652
 H184 H -0.05421 0.24883 0.20037
 H185 H -0.04192 0.37928 0.14373
 H186 H -0.05670 0.31599 0.16876
 C187 C 0.30368 -0.02774 0.61267
 C188 C 0.34164 -0.06251 0.61017
 C189 C 0.37747 -0.05805 0.58959
 C190 C 0.37565 -0.01912 0.57162
 C191 C 0.33789 0.01539 0.57513
 N192 N 0.30336 0.01029 0.59526
 C193 C 0.26408 -0.03057 0.63374
 N194 N 0.23818 0.01098 0.64110
 C195 C 0.20038 0.01141 0.65962
 C196 C 0.18608 -0.03210 0.67174
 C197 C 0.21214 -0.07546 0.66442
 C198 C 0.25104 -0.07491 0.64547
 H199 H 0.40657 -0.08496 0.58759
 H200 H 0.33585 0.04626 0.56181
 H201 H 0.18082 0.04551 0.66429
 H202 H 0.20246 -0.10980 0.67335
 H203 H 0.34430 -0.09243 0.62407
 H204 H 0.26961 -0.10913 0.63968
 C205 C -0.29959 -0.01897 0.61283
 C206 C -0.34272 -0.04653 0.61474
 C207 C -0.37891 -0.04343 0.59412
 C208 C -0.37262 -0.01326 0.57133
 C209 C -0.32899 0.01377 0.57033
 N210 N -0.29440 0.01025 0.59071
 C211 C -0.25884 -0.02059 0.63356
 N212 N -0.21777 0.00564 0.62863
 C213 C -0.17815 0.00597 0.64593
 C214 C -0.17810 -0.02150 0.67005
 C215 C -0.22017 -0.04838 0.67585
 C216 C -0.26051 -0.04805 0.65778
 H217 H -0.41141 -0.06575 0.59561
 H218 H -0.32277 0.03861 0.55372
 H219 H -0.14686 0.02795 0.64086
 H220 H -0.22157 -0.07050 0.69407
 H221 H -0.34895 -0.07074 0.63155
 H222 H -0.29201 -0.06937 0.66300
 C223 C -0.00293 -0.32171 0.87905
 C224 C -0.03552 -0.36176 0.87728
 C225 C -0.03609 -0.39455 0.89882
 C226 C -0.00453 -0.38748 0.92207
 C227 C 0.02745 -0.34724 0.92307
 N228 N 0.02727 -0.31573 0.90194
 C229 C -0.00154 -0.28437 0.85760
 N230 N 0.01824 -0.23951 0.86515
 C231 C 0.02075 -0.20283 0.84704
 C232 C 0.00260 -0.21011 0.81930
 C233 C -0.01744 -0.25628 0.81088
 C234 C -0.01943 -0.29351 0.82987
 H235 H -0.06155 -0.42507 0.89758
 H236 H 0.05234 -0.34078 0.94073
 H237 H 0.03599 -0.16769 0.85460
 H238 H -0.03103 -0.26380 0.78952
 H239 H -0.06117 -0.36726 0.85997
 H240 H -0.03413 -0.32901 0.82262
 C241 C 0.00571 0.27489 0.89285
 C242 C 0.03956 0.28115 0.91523
 C243 C 0.03651 0.32252 0.93413
 C244 C 0.00044 0.35801 0.93065
 C245 C -0.03189 0.35134 0.90775
 N246 N -0.02858 0.31045 0.88972
 C247 C 0.00609 0.23105 0.87245
 N248 N -0.01936 0.23277 0.84775
 C249 C -0.02154 0.19396 0.82814
 C250 C 0.00266 0.14974 0.83293
 C251 C 0.02898 0.14712 0.85828
 C252 C 0.03056 0.18731 0.87808
 H253 H 0.06238 0.32705 0.95145
 H254 H -0.06003 0.37829 0.90445
 H255 H -0.04287 0.19747 0.80909
 H256 H 0.04867 0.11401 0.86280
 H257 H 0.06852 0.25506 0.91818
 H258 H 0.05013 0.18331 0.89764
 C259 C -0.29887 0.02886 0.38809
 C260 C -0.30012 0.06069 0.41272
 C261 C -0.33716 0.05577 0.43247
 C262 C -0.37286 0.01934 0.42778
 C263 C -0.37064 -0.01159 0.40296
 N264 N -0.33398 -0.00639 0.38408
 C265 C -0.25912 0.03096 0.36708
 N266 N -0.24727 -0.01071 0.35107
 C267 C -0.21022 -0.01209 0.33199
 C268 C -0.18254 0.03038 0.32809
 C269 C -0.19490 0.07404 0.34388
 C270 C -0.23309 0.07453 0.36331
 H271 H -0.33775 0.07994 0.45160
 H272 H -0.39755 -0.04032 0.39886
 H273 H -0.20249 -0.04631 0.31988
 H274 H -0.17442 0.10760 0.34163
 H275 H -0.27216 0.08816 0.41721
 H276 H -0.24212 0.10878 0.37503
 C277 C 0.29773 0.02939 0.38916
 C278 C 0.30105 0.06183 0.41348
 C279 C 0.33870 0.05613 0.43288
 C280 C 0.37292 0.01834 0.42813
 C281 C 0.36874 -0.01309 0.40360
 N282 N 0.33152 -0.00711 0.38508
 C283 C 0.25715 0.03210 0.36861
 N284 N 0.24378 -0.00957 0.35300
 C285 C 0.20598 -0.01048 0.33433
 C286 C 0.17907 0.03248 0.33040
 C287 C 0.19294 0.07614 0.34576
 C288 C 0.23189 0.07615 0.36482
 H289 H 0.34086 0.08071 0.45180
 H290 H 0.39452 -0.04280 0.39947
 H291 H 0.19711 -0.04474 0.32251
 H292 H 0.17313 0.11009 0.34343
 H293 H 0.27421 0.09035 0.41804
 H294 H 0.24210 0.11039 0.37620
   
