data_POSCAR
  _audit_creation_date              2014-09-24
  _audit_creation_method            'ToBaCCo'
  _symmetry_space_group_name_H-M    'P1'
  _symmetry_Int_Tables_number       1
  _symmetry_cell_setting            triclinic
  loop_
  _symmetry_equiv_pos_as_xyz
 x,y,z
_cell_length_a 29.6741
_cell_length_b 29.9762
_cell_length_c 76.4582
_cell_angle_alpha 88.640300
_cell_angle_beta 95.623200
_cell_angle_gamma 120.248500
loop_
  _atom_site_label
  _atom_site_type_symbol
  _atom_site_fract_x
  _atom_site_fract_y
  _atom_site_fract_z
C1 C 0.04927 0.14826 0.52110
 H2 H 0.08783 0.15566 0.51886
 C3 C 0.04451 0.17895 0.53325
 H4 H 0.07974 0.21076 0.53986
 C5 C -0.04311 0.09656 0.51560
 H6 H -0.07699 0.06361 0.50895
 C7 C -0.04972 0.12623 0.52793
 H8 H -0.08887 0.11578 0.53072
 N9 N 0.00597 0.10762 0.51269
 C10 C 0.03071 -0.02223 0.50847
 H11 H 0.03191 -0.02606 0.49451
 C12 C 0.02504 -0.06226 0.51957
 H13 H 0.02248 -0.09659 0.51414
 C14 C 0.02741 0.02472 0.53235
 H15 H 0.02663 0.05769 0.53730
 C16 C 0.02144 -0.01425 0.54380
 H17 H 0.01690 -0.01039 0.55747
 Zn18 Zn 0.02093 0.06495 0.49934
 N19 N 0.03036 0.01953 0.51493
 C20 C 0.11737 0.09571 0.48424
 N21 N 0.08145 0.10882 0.48788
 C22 C 0.08252 0.15166 0.48113
 C23 C 0.11958 0.18246 0.46986
 C24 C 0.15510 0.12540 0.47277
 C25 C -0.07968 -0.01748 0.48598
 C26 C -0.11321 -0.05590 0.47327
 C27 C -0.05195 -0.00862 0.45205
 C28 C -0.02069 0.02910 0.46495
 N29 N -0.03353 0.02306 0.48174
 H30 H 0.11513 0.06091 0.48949
 H31 H 0.05281 0.16060 0.48385
 H32 H 0.11892 0.21584 0.46442
 H33 H 0.18178 0.11318 0.46925
 H34 H -0.08870 -0.02211 0.49950
 H35 H -0.14748 -0.08923 0.47760
 H36 H -0.03961 -0.00166 0.43892
 H37 H 0.01555 0.06178 0.46160
 C38 C 0.01834 -0.05916 0.53733
 C39 C -0.00535 0.16723 0.53726
 C40 C -0.09792 -0.05387 0.45613
 C41 C 0.15534 0.16855 0.46502
 C42 C 1.09439 -0.02606 0.14690
 H43 H 1.09813 0.01126 0.14903
 C44 C 1.12664 -0.03081 0.13594
 H45 H 1.15457 0.00306 0.12945
 C46 C 1.05199 -0.11562 0.15245
 H47 H 1.02288 -0.14842 0.15899
 C48 C 1.08359 -0.12216 0.14154
 H49 H 1.07866 -0.16016 0.13981
 N50 N 1.05751 -0.06818 0.15469
 C51 C 0.92796 -0.04409 0.16203
 H52 H 0.92546 -0.04960 0.17601
 C53 C 0.88857 -0.04050 0.15159
 H54 H 0.85597 -0.04269 0.15760
 C55 C 0.97230 -0.03673 0.13701
 H56 H 1.00399 -0.03683 0.13124
 C57 C 0.93440 -0.03199 0.12617
 H58 H 0.93750 -0.02826 0.11215
 Zn59 Zn 1.01590 -0.05614 0.16892
 N60 N 0.96844 -0.04276 0.15459
 C61 C 1.05701 0.04370 0.18489
 N62 N 1.06230 0.00136 0.18391
 C63 C 1.10240 -0.00086 0.19331
 C64 C 1.13834 0.03988 0.20469
 C65 C 1.09239 0.08562 0.19605
 C66 C 0.93302 -0.15626 0.17420
 C67 C 0.89751 -0.19648 0.18400
 C68 C 0.95119 -0.15057 0.21052
 C69 C 0.98509 -0.11097 0.20027
 N70 N 0.97537 -0.11421 0.18245
 H71 H 1.02538 0.04500 0.17703
 H72 H 1.10598 -0.03480 0.19210
 H73 H 1.16887 0.03639 0.21246
 H74 H 1.08774 0.11912 0.19660
 H75 H 0.92567 -0.15749 0.16002
 H76 H 0.86316 -0.22904 0.17730
 H77 H 0.95871 -0.14644 0.22471
 H78 H 1.01801 -0.07688 0.20668
 C79 C 0.89150 -0.03466 0.13340
 C80 C 1.12138 -0.07936 0.13304
 C81 C 0.90620 -0.19350 0.20242
 C82 C 1.13360 0.08391 0.20624
 C83 C 0.01393 0.98839 0.85924
 H84 H -0.02460 0.95448 0.85774
 C85 C 0.05181 0.98924 0.87175
 H86 H 0.04214 0.95545 0.87952
 C87 C 0.07166 1.07486 0.85207
 H88 H 0.07896 1.10878 0.84484
 C89 C 0.11082 1.07748 0.86453
 H90 H 0.14830 1.11297 0.86631
 N91 N 0.02478 1.03010 0.84924
 C92 C -0.13462 0.95658 0.84253
 H93 H -0.13945 0.92806 0.83299
 C94 C -0.17523 0.94592 0.85286
 H95 H -0.21133 0.90927 0.85071
 C96 C -0.08182 1.03921 0.85637
 H97 H -0.04477 1.07517 0.85786
 C98 C -0.12145 1.03083 0.86662
 H99 H -0.11300 1.06057 0.87626
 Zn100 Zn -0.03045 1.02141 0.83209
 N101 N -0.08907 1.00265 0.84453
 C102 C -0.05333 0.92176 0.81930
 N103 N -0.04327 0.97000 0.81484
 C104 C -0.03765 0.98486 0.79784
 C105 C -0.03791 0.95267 0.78495
 C106 C -0.05406 0.88812 0.80673
 C107 C 0.03211 1.11157 0.81306
 C108 C 0.04080 1.15303 0.80235
 C109 C -0.04684 1.13483 0.80571
 C110 C -0.05326 1.09477 0.81676
 N111 N -0.01424 1.08355 0.82015
 H112 H -0.05934 0.90960 0.83266
 H113 H -0.03134 1.02242 0.79424
 H114 H -0.03182 0.96600 0.77163
 H115 H -0.05969 0.85086 0.81068
 H116 H 0.06161 1.10040 0.81506
 H117 H 0.07827 1.17482 0.79707
 H118 H -0.07987 1.14054 0.80251
 H119 H -0.09070 1.07075 0.82182
 C120 C -0.16939 0.98353 0.86512
 C121 C 0.10134 1.03390 0.87434
 C122 C 0.00052 1.16447 0.79812
 C123 C -0.04448 0.90429 0.78944
 C124 C 0.57899 -0.02369 -0.01800
 C125 C 0.60885 -0.02258 -0.00255
 C126 C 0.59221 -0.02331 0.01401
 C127 C 0.54311 -0.02697 0.01521
 C128 C 0.51244 -0.02787 -0.00041
 C129 C 0.53071 -0.02567 -0.01706
 C130 C 0.50041 -0.02533 -0.03233
 C131 C 0.45333 -0.02640 -0.03129
 C132 C 0.43414 -0.02907 -0.01497
 C133 C 0.46387 -0.02992 0.00063
 C134 C 0.52433 -0.02859 0.03153
 C135 C 0.47596 -0.03228 0.03252
 C136 C 0.44539 -0.03233 0.01726
 C137 C 0.39668 -0.03493 0.01813
 C138 C 0.36824 -0.03341 0.00265
 C139 C 0.38640 -0.03004 -0.01378
 H140 H 0.51302 -0.02387 -0.04525
 H141 H 0.43213 -0.02513 -0.04345
 H142 H 0.54669 -0.02715 0.04376
 H143 H 0.46306 -0.03463 0.04543
 H144 H 0.64645 -0.01982 -0.00343
 H145 H 0.33138 -0.03449 0.00342
 C146 C -0.05092 0.42352 0.64931
 C147 C -0.04941 0.40248 0.66572
 C148 C -0.04572 0.42775 0.68139
 C149 C -0.04505 0.47534 0.68070
 C150 C -0.04706 0.49713 0.66412
 C151 C -0.04939 0.47147 0.64838
 C152 C -0.04846 0.49521 0.63224
 C153 C -0.04597 0.54282 0.63149
 C154 C -0.04364 0.56894 0.64687
 C155 C -0.04502 0.54554 0.66332
 C156 C -0.04043 0.50271 0.69608
 C157 C -0.04042 0.54912 0.69525
 C158 C -0.04352 0.57084 0.67901
 C159 C -0.04337 0.61812 0.67806
 C160 C -0.04116 0.64099 0.66177
 C161 C -0.04019 0.61779 0.64625
 H162 H -0.04909 0.47757 0.61998
 H163 H -0.04612 0.55883 0.61866
 H164 H -0.03640 0.48887 0.70899
 H165 H -0.03665 0.56843 0.70754
 H166 H -0.05029 0.36584 0.66632
 H167 H -0.03966 0.67791 0.66118
 C168 C 0.64380 0.58443 0.35284
 C169 C 0.66813 0.60026 0.33725
 C170 C 0.64761 0.56970 0.32181
 C171 C 0.59978 0.52229 0.32155
 C172 C 0.57510 0.50478 0.33729
 C173 C 0.59776 0.53531 0.35309
 C174 C 0.57433 0.51539 0.36871
 C175 C 0.52816 0.46796 0.36869
 C176 C 0.50406 0.43797 0.35312
 C177 C 0.52779 0.45643 0.33726
 C178 C 0.57633 0.49165 0.30606
 C179 C 0.52863 0.44566 0.30585
 C180 C 0.50381 0.42711 0.32130
 C181 C 0.45513 0.38055 0.32122
 C182 C 0.43240 0.36294 0.33696
 C183 C 0.45630 0.39042 0.35288
 H184 H 0.59163 0.53597 0.38119
 H185 H 0.51136 0.45530 0.38105
 H186 H 0.59418 0.50323 0.29385
 H187 H 0.51161 0.42470 0.29341
 H188 H 0.70367 0.63754 0.33700
 H189 H 0.39524 0.32700 0.33681
 C190 C 0.02467 0.23859 0.58074
 C191 C -0.01057 0.25747 0.57949
 C192 C -0.04807 0.24182 0.56456
 C193 C -0.04716 0.21171 0.55086
 C194 C -0.00973 0.19601 0.55193
 C195 C 0.02495 0.20857 0.56722
 C196 C -0.08589 0.25667 0.56335
 C197 C -0.08770 0.28631 0.57672
 C198 C -0.05046 0.30380 0.59165
 C199 C -0.01009 0.29073 0.59268
 C200 C 0.03040 0.31247 0.60659
 C201 C 0.03042 0.34407 0.61950
 C202 C -0.01014 0.35475 0.61928
 C203 C -0.05151 0.33464 0.60548
 C204 C -0.09256 0.34553 0.60638
 C205 C -0.09211 0.37504 0.62039
 C206 C -0.05050 0.39531 0.63370
 C207 C -0.00964 0.38515 0.63300
 H208 H 0.05198 0.24546 0.59213
 H209 H -0.07478 0.20150 0.53921
 H210 H 0.05265 0.19494 0.56879
 H211 H -0.11473 0.24491 0.55200
 H212 H -0.11805 0.29616 0.57472
 H213 H 0.06374 0.30700 0.60764
 H214 H 0.06241 0.35991 0.62991
 H215 H -0.12628 0.33056 0.59679
 H216 H -0.12472 0.38150 0.62099
 H217 H 0.02227 0.40028 0.64346
 C218 C 0.77794 0.72133 0.22172
 C219 C 0.79411 0.70456 0.23733
 C220 C 0.84733 0.71740 0.23999
 C221 C 0.88311 0.74869 0.22815
 C222 C 0.86700 0.76750 0.21338
 C223 C 0.81392 0.75232 0.21000
 C224 C 0.86511 0.70021 0.25469
 C225 C 0.83176 0.67178 0.26723
 C226 C 0.77906 0.66008 0.26575
 C227 C 0.75985 0.67670 0.25054
 C228 C 0.70774 0.66670 0.24940
 C229 C 0.67592 0.64269 0.26280
 C230 C 0.69418 0.62680 0.27776
 C231 C 0.74550 0.63395 0.27928
 C232 C 0.76138 0.61556 0.29452
 C233 C 0.72870 0.59350 0.30791
 C234 C 0.67903 0.58840 0.30657
 C235 C 0.66167 0.60467 0.29141
 H236 H 0.73799 0.71184 0.21823
 H237 H 0.92403 0.75950 0.23065
 H238 H 0.80049 0.76623 0.19861
 H239 H 0.90564 0.70948 0.25668
 H240 H 0.84928 0.66094 0.27825
 H241 H 0.69061 0.67839 0.23850
 H242 H 0.63663 0.63700 0.26151
 H243 H 0.79886 0.61778 0.29664
 H244 H 0.74258 0.58093 0.31957
 H245 H 0.62322 0.60098 0.29043
 C246 C 0.20973 0.07676 -0.08825
 C247 C 0.21632 0.03313 -0.08631
 C248 C 0.18553 -0.00932 -0.09828
 C249 C 0.14919 -0.00820 -0.11122
 C250 C 0.14222 0.03467 -0.11261
 C251 C 0.17331 0.07733 -0.10117
 C252 C 0.19059 -0.05307 -0.09719
 C253 C 0.22471 -0.05649 -0.08422
 C254 C 0.25535 -0.01607 -0.07164
 C255 C 0.25163 0.02982 -0.07285
 C256 C 0.28281 0.07053 -0.06041
 C257 C 0.31549 0.06635 -0.04704
 C258 C 0.31869 0.02162 -0.04546
 C259 C 0.28914 -0.02019 -0.05777
 C260 C 0.29416 -0.06468 -0.05544
 C261 C 0.32637 -0.06745 -0.04137
 C262 C 0.35479 -0.02610 -0.02930
 C263 C 0.35097 0.01833 -0.03141
 H264 H 0.23149 0.11092 -0.07989
 H265 H 0.12598 -0.04105 -0.12025
 H266 H 0.16853 0.11086 -0.10191
 H267 H 0.16744 -0.08542 -0.10641
 H268 H 0.22578 -0.09182 -0.08439
 H269 H 0.28272 0.10638 -0.06051
 H270 H 0.33825 0.09849 -0.03771
 H271 H 0.27339 -0.09832 -0.06407
 H272 H 0.32869 -0.10227 -0.03977
 H273 H 0.37292 0.05024 -0.02193
 C274 C -0.05559 0.83871 0.56963
 C275 C -0.02685 0.81272 0.57216
 C276 C 0.01740 0.82956 0.56260
 C277 C 0.03123 0.87019 0.55077
 C278 C 0.00273 0.89593 0.54879
 C279 C -0.04082 0.87957 0.55821
 C280 C 0.04824 0.80657 0.56518
 C281 C 0.03767 0.76880 0.57762
 C282 C -0.00515 0.75159 0.58777
 C283 C -0.03947 0.77199 0.58431
 C284 C -0.08518 0.75117 0.59316
 C285 C -0.09521 0.71446 0.60587
 C286 C -0.06005 0.69726 0.61042
 C287 C -0.01471 0.71501 0.60137
 C288 C 0.02012 0.69687 0.60687
 C289 C 0.01076 0.66383 0.62099
 C290 C -0.03382 0.64713 0.62989
 C291 C -0.06943 0.66336 0.62436
 H292 H -0.08874 0.82969 0.57667
 H293 H 0.06525 0.88303 0.54359
 H294 H -0.06361 0.89875 0.55678
 H295 H 0.08175 0.81879 0.55779
 H296 H 0.06369 0.75343 0.57887
 H297 H -0.11454 0.76212 0.59046
 H298 H -0.13042 0.70024 0.61251
 H299 H 0.05598 0.70904 0.60102
 H300 H 0.03930 0.65246 0.62534
 H301 H -0.10372 0.65083 0.63138
 C302 C 0.18644 0.19062 0.24128
 C303 C 0.23985 0.20458 0.24452
 C304 C 0.25784 0.17875 0.23439
 C305 C 0.22365 0.14105 0.22155
 C306 C 0.17061 0.12692 0.21879
 C307 C 0.15262 0.15243 0.22869
 C308 C 0.30966 0.18993 0.23731
 C309 C 0.34375 0.22469 0.25059
 C310 C 0.32754 0.25049 0.26138
 C311 C 0.27546 0.24203 0.25776
 C312 C 0.26073 0.27121 0.26752
 C313 C 0.29452 0.30546 0.28093
 C314 C 0.34405 0.31165 0.28536
 C315 C 0.36156 0.28444 0.27569
 C316 C 0.41179 0.29124 0.28117
 C317 C 0.44267 0.32328 0.29566
 C318 C 0.42494 0.35004 0.30496
 C319 C 0.37579 0.34430 0.29969
 H320 H 0.16892 0.20712 0.24862
 H321 H 0.23837 0.12221 0.21381
 H322 H 0.11171 0.14175 0.22712
 H323 H 0.32381 0.17078 0.22946
 H324 H 0.38298 0.23090 0.25195
 H325 H 0.22327 0.26893 0.26500
 H326 H 0.28127 0.32670 0.28815
 H327 H 0.42775 0.27115 0.27493
 H328 H 0.48018 0.32650 0.29984
 H329 H 0.36181 0.36455 0.30710
 C330 C 0.72079 -0.08390 -0.10628
 C331 C 0.71892 -0.04211 -0.09883
 C332 C 0.75111 0.00763 -0.10530
 C333 C 0.78642 0.01539 -0.11755
 C334 C 0.79082 -0.02579 -0.12396
 C335 C 0.75580 -0.07585 -0.11863
 C336 C 0.74881 0.04989 -0.09929
 C337 C 0.71655 0.04445 -0.08648
 C338 C 0.68581 -0.00364 -0.07882
 C339 C 0.68702 -0.04770 -0.08508
 C340 C 0.65809 -0.09530 -0.07688
 C341 C 0.63022 -0.09954 -0.06276
 C342 C 0.62913 -0.05695 -0.05640
 C343 C 0.65554 -0.00870 -0.06464
 C344 C 0.65146 0.03279 -0.05798
 C345 C 0.62499 0.02713 -0.04324
 C346 C 0.60136 -0.01990 -0.03478
 C347 C 0.60275 -0.06206 -0.04153
 H348 H 0.69611 -0.12336 -0.10274
 H349 H 0.81002 0.05400 -0.12228
 H350 H 0.75720 -0.10906 -0.12309
 H351 H 0.77289 0.08796 -0.10437
 H352 H 0.71812 0.07940 -0.08246
 H353 H 0.65759 -0.12992 -0.08067
 H354 H 0.60979 -0.13658 -0.05659
 H355 H 0.66855 0.07027 -0.06372
 H356 H 0.62394 0.05997 -0.03814
 H357 H 0.58415 -0.09856 -0.03493
 C358 C 0.16070 -0.12998 0.09588
 C359 C 0.21322 -0.09041 0.09451
 C360 C 0.23579 -0.04870 0.10699
 C361 C 0.20648 -0.04667 0.11998
 C362 C 0.15391 -0.08508 0.12067
 C363 C 0.13172 -0.12712 0.10871
 C364 C 0.28713 -0.00845 0.10624
 C365 C 0.31606 -0.00711 0.09283
 C366 C 0.29481 -0.04644 0.07961
 C367 C 0.24340 -0.08989 0.08089
 C368 C 0.22366 -0.13098 0.06839
 C369 C 0.25170 -0.12863 0.05456
 C370 C 0.30028 -0.08523 0.05250
 C371 C 0.32295 -0.04357 0.06502
 C372 C 0.37204 -0.00003 0.06202
 C373 C 0.39662 0.00209 0.04709
 C374 C 0.37363 -0.03915 0.03484
 C375 C 0.32574 -0.08284 0.03768
 H376 H 0.14008 -0.16287 0.08692
 H377 H 0.22442 -0.01439 0.12938
 H378 H 0.09105 -0.15709 0.10880
 H379 H 0.30485 0.02310 0.11593
 H380 H 0.35525 0.02554 0.09324
 H381 H 0.18640 -0.16584 0.06888
 H382 H 0.23457 -0.16084 0.04514
 H383 H 0.39178 0.03378 0.07060
 H384 H 0.43323 0.03658 0.04487
 H385 H 0.30767 -0.11453 0.02803
 C386 C 0.87793 0.85425 0.42019
 C387 C 0.82470 0.81688 0.42080
 C388 C 0.79626 0.82584 0.43269
 C389 C 0.82207 0.86822 0.44476
 C390 C 0.87586 0.90519 0.44435
 C391 C 0.90256 0.89752 0.43145
 C392 C 0.74206 0.79280 0.43225
 C393 C 0.71550 0.75219 0.41985
 C394 C 0.74275 0.74123 0.40809
 C395 C 0.79858 0.77190 0.40953
 C396 C 0.82669 0.75601 0.39998
 C397 C 0.80095 0.71328 0.38857
 C398 C 0.74641 0.68621 0.38563
 C399 C 0.71639 0.70024 0.39509
 C400 C 0.66150 0.67419 0.39055
 C401 C 0.63787 0.63619 0.37709
 C402 C 0.66768 0.62126 0.36828
 C403 C 0.72190 0.64607 0.37287
 H404 H 0.90141 0.85179 0.41075
 H405 H 0.79898 0.87370 0.45369
 H406 H 0.94405 0.92294 0.43059
 H407 H 0.71974 0.79918 0.44127
 H408 H 0.67365 0.72860 0.42020
 H409 H 0.86891 0.77496 0.40157
 H410 H 0.82409 0.70233 0.38155
 H411 H 0.63631 0.68440 0.39651
 H412 H 0.59623 0.61916 0.37328
 H413 H 0.74543 0.63539 0.36593
 C414 C 0.03928 0.24684 0.75767
 C415 C 0.01024 0.27245 0.75771
 C416 C -0.02144 0.26265 0.77164
 C417 C -0.02196 0.23012 0.78526
 C418 C 0.00610 0.20391 0.78484
 C419 C 0.03668 0.21288 0.77085
 C420 C -0.05354 0.28425 0.77166
 C421 C -0.05709 0.31312 0.75765
 C422 C -0.02688 0.32329 0.74336
 C423 C 0.00991 0.30561 0.74402
 C424 C 0.04537 0.32194 0.73106
 C425 C 0.04294 0.35191 0.71731
 C426 C 0.00416 0.36542 0.71561
 C427 C -0.03177 0.35093 0.72847
 C428 C -0.07235 0.36293 0.72548
 C429 C -0.07663 0.38833 0.71037
 C430 C -0.03992 0.40384 0.69807
 C431 C 0.00051 0.39247 0.70085
 H432 H 0.06225 0.25006 0.74712
 H433 H -0.04533 0.22449 0.79602
 H434 H 0.05739 0.19218 0.76960
 H435 H -0.07748 0.27741 0.78236
 H436 H -0.08307 0.32811 0.75857
 H437 H 0.07649 0.31317 0.73144
 H438 H 0.07095 0.36352 0.70764
 H439 H -0.10266 0.35121 0.73417
 H440 H -0.10919 0.39526 0.70814
 H441 H 0.02844 0.40358 0.69116
 C442 C 0.75708 -0.07515 0.11047
 C443 C 0.76867 -0.03913 0.09686
 C444 C 0.82138 0.00150 0.09674
 C445 C 0.86090 0.00341 0.10895
 C446 C 0.84899 -0.03399 0.12175
 C447 C 0.79670 -0.07242 0.12269
 C448 C 0.83472 0.03958 0.08426
 C449 C 0.79707 0.03818 0.07165
 C450 C 0.74436 -0.00237 0.07073
 C451 C 0.73012 -0.04227 0.08331
 C452 C 0.67845 -0.08490 0.08151
 C453 C 0.64207 -0.08881 0.06783
 C454 C 0.65506 -0.04988 0.05566
 C455 C 0.70589 -0.00533 0.05722
 C456 C 0.71616 0.03423 0.04504
 C457 C 0.67853 0.02842 0.03145
 C458 C 0.62938 -0.01657 0.02955
 C459 C 0.61766 -0.05556 0.04174
 H460 H 0.71787 -0.10587 0.11207
 H461 H 0.90128 0.03386 0.10840
 H462 H 0.78662 -0.10154 0.13259
 H463 H 0.87492 0.07081 0.08415
 H464 H 0.81118 0.06872 0.06237
 H465 H 0.66526 -0.11708 0.09015
 H466 H 0.60327 -0.12285 0.06675
 H467 H 0.75268 0.07034 0.04566
 H468 H 0.68803 0.05913 0.02219
 H469 H 0.57959 -0.09056 0.04023
 C470 C 0.19851 0.23834 0.42272
 C471 C 0.25204 0.25291 0.42363
 C472 C 0.27290 0.23674 0.43828
 C473 C 0.24156 0.20910 0.45176
 C474 C 0.18906 0.19667 0.45085
 C475 C 0.16789 0.21087 0.43607
 C476 C 0.32487 0.24821 0.43938
 C477 C 0.35652 0.27466 0.42613
 C478 C 0.33767 0.29174 0.41130
 C479 C 0.28507 0.28211 0.41035
 C480 C 0.26732 0.30254 0.39626
 C481 C 0.29871 0.32923 0.38310
 C482 C 0.34895 0.33660 0.38332
 C483 C 0.36954 0.31828 0.39740
 C484 C 0.42076 0.32645 0.39668
 C485 C 0.44947 0.35102 0.38249
 C486 C 0.42844 0.36869 0.36873
 C487 C 0.37840 0.36169 0.36929
 H488 H 0.17853 0.24655 0.41172
 H489 H 0.25821 0.19786 0.46307
 H490 H 0.12693 0.20008 0.43467
 H491 H 0.34120 0.23616 0.45055
 H492 H 0.39607 0.28179 0.42805
 H493 H 0.22934 0.29931 0.39510
 H494 H 0.28315 0.34383 0.37248
 H495 H 0.43927 0.31317 0.40659
 H496 H 0.48788 0.35541 0.38206
 H497 H 0.36198 0.37499 0.35850
 C498 C 0.01028 0.86792 0.75326
 C499 C -0.02425 0.81400 0.75088
 C500 C -0.06639 0.79017 0.76157
 C501 C -0.07259 0.81936 0.77429
 C502 C -0.03804 0.87273 0.77633
 C503 C 0.00334 0.89649 0.76573
 C504 C -0.10245 0.73746 0.75940
 C505 C -0.09861 0.70788 0.74655
 C506 C -0.05778 0.72978 0.73542
 C507 C -0.01893 0.78331 0.73807
 C508 C 0.02405 0.80437 0.72786
 C509 C 0.02792 0.77504 0.71498
 C510 C -0.01093 0.72370 0.71159
 C511 C -0.05438 0.70005 0.72173
 C512 C -0.09317 0.64797 0.71738
 C513 C -0.08891 0.62121 0.70351
 C514 C -0.04578 0.64503 0.69368
 C515 C -0.00682 0.69616 0.69785
 H516 H 0.04260 0.88963 0.74551
 H517 H -0.10505 0.80075 0.78233
 H518 H 0.03093 0.93761 0.76717
 H519 H -0.13452 0.71891 0.76760
 H520 H -0.12816 0.66755 0.74580
 H521 H 0.05603 0.84357 0.72959
 H522 H 0.06149 0.79308 0.70741
 H523 H -0.12801 0.62716 0.72408
 H524 H -0.11996 0.58194 0.70021
 H525 H 0.02639 0.71480 0.69011
   
