data_POSCAR
  _audit_creation_date              2014-09-24
  _audit_creation_method            'ToBaCCo'
  _symmetry_space_group_name_H-M    'P1'
  _symmetry_Int_Tables_number       1
  _symmetry_cell_setting            triclinic
  loop_
  _symmetry_equiv_pos_as_xyz
 x,y,z
_cell_length_a 31.1582
_cell_length_b 31.1938
_cell_length_c 21.5572
_cell_angle_alpha 89.913400
_cell_angle_beta 90.037000
_cell_angle_gamma 90.114100
loop_
  _atom_site_label
  _atom_site_type_symbol
  _atom_site_fract_x
  _atom_site_fract_y
  _atom_site_fract_z
C1 C -0.04016 0.27646 0.03581
 C2 C -0.03982 0.27522 -0.03055
 C3 C 0.00012 0.27854 -0.06098
 C4 C 0.03993 0.27824 -0.03000
 C5 C 0.03951 0.27429 0.03595
 C6 C -0.00032 0.27523 0.06668
 H7 H -0.00029 0.27406 0.11648
 H8 H 0.00027 0.28037 -0.11073
 C9 C 0.46015 0.78050 0.52961
 C10 C 0.45947 0.77715 0.46376
 C11 C 0.49891 0.77738 0.43231
 C12 C 0.53882 0.77663 0.46280
 C13 C 0.53955 0.77969 0.52869
 C14 C 0.50009 0.78118 0.56010
 H15 H 0.50045 0.78057 0.60999
 H16 H 0.49850 0.77831 0.38252
 C17 C 1.03911 0.72099 0.02970
 C18 C 1.03952 0.72396 -0.03636
 C19 C 1.00011 0.72230 -0.06822
 C20 C 0.95996 0.72170 -0.03831
 C21 C 0.95959 0.72378 0.02780
 C22 C 0.99896 0.72140 0.05958
 H23 H 0.99828 0.72095 0.10940
 H24 H 1.00076 0.72256 -0.11804
 C25 C 0.54055 0.22444 0.53555
 C26 C 0.53976 0.22107 0.46969
 C27 C 0.49962 0.21955 0.44003
 C28 C 0.46034 0.22035 0.47224
 C29 C 0.46117 0.22372 0.53810
 C30 C 0.50130 0.22376 0.56779
 H31 H 0.50199 0.22303 0.61758
 H32 H 0.49895 0.22001 0.39014
 C33 C 0.72081 -0.04077 0.03031
 C34 C 0.72308 -0.04034 -0.03584
 C35 C 0.72123 -0.00054 -0.06651
 C36 C 0.72131 0.03898 -0.03532
 C37 C 0.72378 0.03863 0.03059
 C38 C 0.72180 -0.00109 0.06137
 H39 H 0.72209 -0.00107 0.11121
 H40 H 0.72088 -0.00022 -0.11636
 C41 C 0.22407 0.46080 0.53704
 C42 C 0.22088 0.46008 0.47115
 C43 C 0.21963 0.49948 0.43948
 C44 C 0.22057 0.53942 0.46970
 C45 C 0.22398 0.54010 0.53556
 C46 C 0.22366 0.50072 0.56727
 H47 H 0.22285 0.50118 0.61706
 H48 H 0.22018 0.49907 0.38959
 C49 C 0.27604 1.04120 0.03770
 C50 C 0.27554 1.04156 -0.02870
 C51 C 0.27909 1.00198 -0.05976
 C52 C 0.27805 0.96211 -0.02937
 C53 C 0.27341 0.96172 0.03628
 C54 C 0.27400 1.00112 0.06785
 H55 H 0.27200 1.00058 0.11761
 H56 H 0.28163 1.00204 -0.10947
 C57 C 0.78107 0.53998 0.52842
 C58 C 0.77778 0.53922 0.46256
 C59 C 0.77821 0.49924 0.43274
 C60 C 0.77770 0.45997 0.46484
 C61 C 0.78105 0.46067 0.53070
 C62 C 0.78224 0.50069 0.56051
 H63 H 0.78174 0.50123 0.61041
 H64 H 0.77908 0.49868 0.38295
 O65 O 0.22042 0.27598 0.17561
 O66 O 0.31672 0.25759 0.27013
 O67 O 0.27981 0.21851 0.17770
 O68 O 0.25789 0.31606 0.26815
 O69 O 0.21980 0.27796 0.33496
 O70 O 0.24013 0.18063 0.24287
 O71 O 0.27837 0.21866 0.33566
 O72 O 0.18151 0.23914 0.24296
 Cu73 Cu 0.27255 0.27100 0.21628
 Cu74 Cu 0.22609 0.22531 0.29593
 C75 C 0.18482 0.26009 0.19273
 C76 C 0.31381 0.23510 0.31900
 C77 C 0.26300 0.18323 0.19427
 C78 C 0.23578 0.31342 0.31745
 O79 O 0.77757 0.72027 0.32400
 O80 O 0.75745 0.81760 0.23198
 O81 O 0.71946 0.77856 0.32440
 O82 O 0.81636 0.75905 0.23217
 O83 O 0.77778 0.72255 0.16414
 O84 O 0.68121 0.74033 0.25795
 O85 O 0.71823 0.77994 0.16607
 O86 O 0.74045 0.68207 0.25625
 Cu87 Cu 0.77164 0.77275 0.28479
 Cu88 Cu 0.72561 0.72728 0.20436
 C89 C 0.76184 0.68480 0.30623
 C90 C 0.73474 0.81520 0.18320
 C91 C 0.68415 0.76204 0.30746
 C92 C 0.81328 0.73828 0.18185
 O93 O 0.81790 0.23972 0.23838
 O94 O 0.71957 0.21805 0.32818
 O95 O 0.75912 0.18085 0.23625
 O96 O 0.77787 0.27706 0.33075
 O97 O 0.74106 0.31588 0.26336
 O98 O 0.72216 0.21969 0.16909
 O99 O 0.68215 0.25714 0.26187
 O100 O 0.78051 0.27867 0.17187
 Cu101 Cu 0.77244 0.22505 0.29009
 Cu102 Cu 0.72756 0.27164 0.20983
 C103 C 0.81575 0.26233 0.18944
 C104 C 0.68436 0.23461 0.31090
 C105 C 0.73809 0.18417 0.18609
 C106 C 0.76216 0.31262 0.31346
 O107 O 0.27383 0.77840 0.16935
 O108 O 0.25622 0.68127 0.26292
 O109 O 0.21695 0.71802 0.16998
 O110 O 0.31449 0.74073 0.26091
 O111 O 0.27568 0.77614 0.32958
 O112 O 0.17886 0.75739 0.23490
 O113 O 0.21600 0.71852 0.32781
 O114 O 0.23755 0.81639 0.23805
 Cu115 Cu 0.26932 0.72584 0.20910
 Cu116 Cu 0.22317 0.77095 0.28927
 C117 C 0.25831 0.81378 0.18763
 C118 C 0.23326 0.68356 0.31139
 C119 C 0.18159 0.73466 0.18624
 C120 C 0.31145 0.76127 0.31149
 O121 O 0.76086 0.18295 0.76163
 O122 O 0.78353 0.28100 0.67207
 O123 O 0.82040 0.24099 0.76402
 O124 O 0.72388 0.22338 0.66929
 O125 O 0.68537 0.26043 0.73656
 O126 O 0.78179 0.27813 0.83104
 O127 O 0.74472 0.31862 0.73827
 O128 O 0.72215 0.22056 0.82798
 Cu129 Cu 0.77603 0.22824 0.71003
 Cu130 Cu 0.72975 0.27339 0.79019
 C131 C 0.73816 0.18525 0.81040
 C132 C 0.76725 0.31626 0.68933
 C133 C 0.81720 0.26191 0.81419
 C134 C 0.68843 0.23936 0.68653
 O135 O 0.31884 0.74389 0.73587
 O136 O 0.22210 0.72512 0.82929
 O137 O 0.26002 0.68507 0.73783
 O138 O 0.28187 0.78253 0.82874
 O139 O 0.24197 0.82029 0.76384
 O140 O 0.22401 0.72357 0.66920
 O141 O 0.18354 0.76109 0.76067
 O142 O 0.28103 0.78378 0.67097
 Cu143 Cu 0.27454 0.73023 0.78963
 Cu144 Cu 0.22872 0.77600 0.70946
 C145 C 0.31621 0.76689 0.68744
 C146 C 0.18651 0.74029 0.81105
 C147 C 0.23930 0.68798 0.68730
 C148 C 0.26485 0.81770 0.81246
 O149 O 0.18219 0.24199 0.76869
 O150 O 0.27983 0.22229 0.67677
 O151 O 0.24080 0.18296 0.76823
 O152 O 0.22128 0.28019 0.67619
 O153 O 0.25951 0.31821 0.74288
 O154 O 0.27726 0.22130 0.83655
 O155 O 0.31800 0.25915 0.74483
 O156 O 0.21984 0.28100 0.83483
 Cu157 Cu 0.22715 0.22796 0.71584
 Cu158 Cu 0.27256 0.27367 0.79654
 C159 C 0.18453 0.26455 0.81757
 C160 C 0.31533 0.23801 0.69467
 C161 C 0.26155 0.18585 0.81868
 C162 C 0.23785 0.31543 0.69320
 O163 O 0.74255 0.68300 0.73047
 O164 O 0.72362 0.77906 0.82484
 O165 O 0.68377 0.74159 0.73216
 O166 O 0.78152 0.71986 0.82311
 O167 O 0.81934 0.75971 0.75810
 O168 O 0.72184 0.77991 0.66560
 O169 O 0.76044 0.81818 0.75775
 O170 O 0.78141 0.72157 0.66513
 Cu171 Cu 0.72893 0.72704 0.78426
 Cu172 Cu 0.77456 0.77372 0.70488
 C173 C 0.76509 0.68607 0.68170
 C174 C 0.73929 0.81475 0.80776
 C175 C 0.68636 0.76382 0.68293
 C176 C 0.81683 0.73669 0.80660
 C177 C 0.25588 0.14546 0.08529
 C178 C 0.29846 0.12234 0.06890
 C179 C 0.27545 0.07886 0.07704
 C180 C 0.23316 0.10157 0.09390
 C181 C 0.28844 0.07847 0.14675
 C182 C 0.31087 0.12233 0.13840
 C183 C 0.26852 0.14477 0.15401
 C184 C 0.24600 0.10141 0.16317
 H185 H 0.24228 0.17361 0.06062
 H186 H 0.32240 0.13216 0.03390
 H187 H 0.20074 0.09296 0.07650
 H188 H 0.30314 0.05217 0.17416
 H189 H 0.34282 0.13102 0.15749
 H190 H 0.22457 0.09279 0.20238
 C191 C 0.75885 0.64679 0.57317
 C192 C 0.80190 0.62413 0.55814
 C193 C 0.77975 0.58040 0.56802
 C194 C 0.73698 0.60268 0.58342
 C195 C 0.79236 0.58159 0.63770
 C196 C 0.81407 0.62564 0.62770
 C197 C 0.77124 0.64760 0.64195
 C198 C 0.74948 0.60403 0.65273
 H199 H 0.74481 0.67419 0.54732
 H200 H 0.82551 0.63349 0.52238
 H201 H 0.70485 0.59298 0.56608
 H202 H 0.80730 0.55605 0.66631
 H203 H 0.84576 0.63533 0.64667
 H204 H 0.72797 0.59581 0.69203
 C205 C 0.68638 0.87617 0.12821
 C206 C 0.70828 0.92012 0.13807
 C207 C 0.72148 0.92100 0.06851
 C208 C 0.69904 0.87740 0.05881
 C209 C 0.76398 0.89849 0.08499
 C210 C 0.75093 0.89743 0.15415
 C211 C 0.72894 0.85398 0.14355
 C212 C 0.74181 0.85449 0.07495
 H213 H 0.65448 0.86680 0.14675
 H214 H 0.69317 0.94571 0.16627
 H215 H 0.67547 0.86787 0.02312
 H216 H 0.79632 0.90775 0.06800
 H217 H 0.77217 0.90567 0.19375
 H218 H 0.75581 0.82683 0.04976
 C219 C 0.27075 0.38441 0.63852
 C220 C 0.25901 0.38312 0.56899
 C221 C 0.22820 0.42117 0.57810
 C222 C 0.24029 0.42277 0.64801
 C223 C 0.19088 0.39039 0.59316
 C224 C 0.22161 0.35185 0.58367
 C225 C 0.23343 0.35381 0.65265
 C226 C 0.20299 0.39168 0.66285
 H227 H 0.30370 0.38175 0.65777
 H228 H 0.28417 0.37892 0.53345
 H229 H 0.24938 0.45056 0.67728
 H230 H 0.15758 0.39312 0.57528
 H231 H 0.21389 0.32206 0.55783
 H232 H 0.18007 0.39496 0.70194
 C233 C 0.89810 0.24583 0.16004
 C234 C 0.89876 0.23322 0.09072
 C235 C 0.92169 0.27562 0.07449
 C236 C 0.92124 0.28836 0.14427
 C237 C 0.87822 0.29841 0.06546
 C238 C 0.85490 0.25573 0.08120
 C239 C 0.85476 0.26813 0.14998
 C240 C 0.87740 0.31059 0.13501
 H241 H 0.90631 0.22432 0.19934
 H242 H 0.90761 0.20091 0.07347
 H243 H 0.94714 0.30310 0.17249
 H244 H 0.86879 0.32239 0.03031
 H245 H 0.82701 0.24209 0.05586
 H246 H 0.86848 0.34241 0.15398
 C247 C 0.39791 0.75026 0.65679
 C248 C 0.39789 0.73743 0.58762
 C249 C 0.42055 0.77982 0.57083
 C250 C 0.42079 0.79277 0.64035
 C251 C 0.37703 0.80243 0.56222
 C252 C 0.35398 0.75979 0.57865
 C253 C 0.35453 0.77250 0.64728
 C254 C 0.37689 0.81495 0.63164
 H255 H 0.40641 0.72890 0.69613
 H256 H 0.40679 0.70517 0.57026
 H257 H 0.44713 0.80751 0.66770
 H258 H 0.36746 0.82586 0.52635
 H259 H 0.32586 0.74599 0.55404
 H260 H 0.36801 0.84679 0.65056
 C261 C 0.09960 0.75095 0.15521
 C262 C 0.09942 0.76407 0.08602
 C263 C 0.07689 0.72164 0.06899
 C264 C 0.07688 0.70838 0.13859
 C265 C 0.12056 0.69923 0.06038
 C266 C 0.14350 0.74192 0.07707
 C267 C 0.14313 0.72898 0.14569
 C268 C 0.12091 0.68650 0.12981
 H269 H 0.09095 0.77212 0.19459
 H270 H 0.09050 0.79641 0.06884
 H271 H 0.05092 0.69326 0.16629
 H272 H 0.13042 0.67576 0.02488
 H273 H 0.17156 0.75592 0.05256
 H274 H 0.12990 0.65460 0.14856
 C275 C 0.61927 0.27188 0.63258
 C276 C 0.61929 0.25950 0.56331
 C277 C 0.58112 0.22896 0.57459
 C278 C 0.58084 0.24172 0.64422
 C279 C 0.61194 0.19171 0.58934
 C280 C 0.65061 0.22216 0.57771
 C281 C 0.64987 0.23465 0.64643
 C282 C 0.61190 0.20451 0.65874
 H283 H 0.62250 0.30497 0.65093
 H284 H 0.62308 0.28438 0.52722
 H285 H 0.55362 0.25126 0.67431
 H286 H 0.60866 0.15830 0.57237
 H287 H 0.67992 0.21409 0.55098
 H288 H 0.60913 0.18199 0.69847
 C289 C 0.68889 0.12402 0.86337
 C290 C 0.71085 0.08007 0.85428
 C291 C 0.72286 0.07920 0.92423
 C292 C 0.70047 0.12280 0.93316
 C293 C 0.76568 0.10177 0.90925
 C294 C 0.75377 0.10285 0.83968
 C295 C 0.73175 0.14628 0.84955
 C296 C 0.74355 0.14572 0.91861
 H297 H 0.65731 0.13335 0.84375
 H298 H 0.69630 0.05426 0.82576
 H299 H 0.67657 0.13209 0.96847
 H300 H 0.79770 0.09242 0.92729
 H301 H 0.77563 0.09466 0.80084
 H302 H 0.75727 0.17330 0.94445
 C303 C 0.25064 0.60194 0.34229
 C304 C 0.26347 0.60198 0.41153
 C305 C 0.22121 0.57901 0.42824
 C306 C 0.20826 0.57873 0.35865
 C307 C 0.19825 0.62233 0.43665
 C308 C 0.24076 0.64569 0.42032
 C309 C 0.22805 0.64511 0.35163
 C310 C 0.18573 0.62242 0.36719
 H311 H 0.27210 0.59362 0.30305
 H312 H 0.29585 0.59333 0.42896
 H313 H 0.19373 0.55235 0.33124
 H314 H 0.17474 0.63169 0.47245
 H315 H 0.25437 0.67384 0.44495
 H316 H 0.15377 0.63104 0.34817
 C317 C 0.25746 0.85574 0.92151
 C318 C 0.30012 0.87879 0.93806
 C319 C 0.27758 0.92235 0.92927
 C320 C 0.23517 0.89966 0.91232
 C321 C 0.29068 0.92239 0.85972
 C322 C 0.31280 0.87850 0.86867
 C323 C 0.27033 0.85612 0.85289
 C324 C 0.24817 0.89951 0.84318
 H325 H 0.24351 0.82775 0.94624
 H326 H 0.32352 0.86922 0.97401
 H327 H 0.20279 0.90859 0.92934
 H328 H 0.30555 0.94847 0.83199
 H329 H 0.34476 0.86962 0.84997
 H330 H 0.22686 0.90804 0.80378
 C331 C 0.72998 0.38170 0.36758
 C332 C 0.74248 0.38145 0.43684
 C333 C 0.77315 0.41952 0.42569
 C334 C 0.76027 0.42002 0.35604
 C335 C 0.81032 0.38867 0.41085
 C336 C 0.77974 0.35010 0.42236
 C337 C 0.76714 0.35105 0.35364
 C338 C 0.79741 0.38892 0.34144
 H339 H 0.69681 0.37863 0.34922
 H340 H 0.71762 0.37766 0.47296
 H341 H 0.75077 0.44731 0.32600
 H342 H 0.84381 0.39178 0.42784
 H343 H 0.78776 0.32073 0.44905
 H344 H 0.81991 0.39174 0.30172
 C345 C 0.14497 0.25757 0.92582
 C346 C 0.12185 0.30025 0.94154
 C347 C 0.07825 0.27771 0.93174
 C348 C 0.10099 0.23529 0.91568
 C349 C 0.07926 0.29073 0.86203
 C350 C 0.12320 0.31275 0.87204
 C351 C 0.14559 0.27028 0.85711
 C352 C 0.10215 0.24818 0.84643
 H353 H 0.17268 0.24372 0.95125
 H354 H 0.13124 0.32386 0.97719
 H355 H 0.09178 0.20297 0.93277
 H356 H 0.05389 0.30573 0.83316
 H357 H 0.13249 0.34463 0.85337
 H358 H 0.09401 0.22685 0.80695
 C359 C 0.64786 0.77836 0.41679
 C360 C 0.60951 0.80933 0.40708
 C361 C 0.57844 0.77225 0.42200
 C362 C 0.61630 0.74119 0.43134
 C363 C 0.57679 0.76026 0.35210
 C364 C 0.60817 0.79731 0.33741
 C365 C 0.64583 0.76663 0.34784
 C366 C 0.61496 0.72956 0.36182
 H367 H 0.67774 0.78582 0.44271
 H368 H 0.60698 0.84259 0.42492
 H369 H 0.62029 0.71597 0.46688
 H370 H 0.54894 0.75138 0.32269
 H371 H 0.60511 0.82027 0.29827
 H372 H 0.61742 0.69665 0.34260
 C373 C 0.85545 0.74287 0.91550
 C374 C 0.87849 0.70010 0.93105
 C375 C 0.92211 0.72283 0.92257
 C376 C 0.89947 0.76535 0.90665
 C377 C 0.92186 0.71045 0.85269
 C378 C 0.87788 0.68823 0.86137
 C379 C 0.85553 0.73079 0.84661
 C380 C 0.89901 0.75310 0.83719
 H381 H 0.82746 0.75642 0.94052
 H382 H 0.86882 0.67618 0.96619
 H383 H 0.90845 0.79752 0.92445
 H384 H 0.94775 0.69584 0.82447
 H385 H 0.86884 0.65652 0.84201
 H386 H 0.90746 0.77480 0.79820
 C387 C 0.35317 0.24158 0.42754
 C388 C 0.37623 0.19877 0.44267
 C389 C 0.41980 0.22127 0.43272
 C390 C 0.39712 0.26381 0.41723
 C391 C 0.41861 0.20868 0.36308
 C392 C 0.37471 0.18663 0.37314
 C393 C 0.35237 0.22922 0.35879
 C394 C 0.39578 0.25132 0.34796
 H395 H 0.32564 0.25537 0.45334
 H396 H 0.36712 0.17510 0.47849
 H397 H 0.40658 0.29596 0.43453
 H398 H 0.44425 0.19396 0.33449
 H399 H 0.36524 0.15490 0.35425
 H400 H 0.40377 0.27289 0.30860
 C401 C 0.72173 0.85072 0.91708
 C402 C 0.75883 0.88213 0.93274
 C403 C 0.72790 0.92007 0.92309
 C404 C 0.69091 0.88916 0.90693
 C405 C 0.74075 0.92198 0.85347
 C406 C 0.77128 0.88372 0.86352
 C407 C 0.73429 0.85296 0.84841
 C408 C 0.70380 0.89076 0.83758
 H409 H 0.71387 0.82086 0.94279
 H410 H 0.78382 0.87795 0.96861
 H411 H 0.65736 0.89163 0.92378
 H412 H 0.75006 0.94996 0.82461
 H413 H 0.80445 0.88132 0.84507
 H414 H 0.68128 0.89409 0.79794
 C415 C 0.18737 0.37481 0.37111
 C416 C 0.19937 0.37615 0.44075
 C417 C 0.22207 0.41964 0.43116
 C418 C 0.20965 0.41863 0.36136
 C419 C 0.26461 0.39682 0.41589
 C420 C 0.24216 0.35296 0.42589
 C421 C 0.22994 0.35228 0.35698
 C422 C 0.25228 0.39562 0.34647
 H423 H 0.15558 0.36559 0.35200
 H424 H 0.17558 0.36703 0.47640
 H425 H 0.19516 0.44439 0.33270
 H426 H 0.29683 0.40606 0.43338
 H427 H 0.25579 0.32540 0.45187
 H428 H 0.27398 0.40365 0.30731
 C429 C 0.22855 0.11686 0.87337
 C430 C 0.25863 0.07833 0.86314
 C431 C 0.27129 0.07954 0.93298
 C432 C 0.24071 0.11773 0.94276
 C433 C 0.30870 0.11013 0.91754
 C434 C 0.29605 0.10921 0.84801
 C435 C 0.26596 0.14727 0.85897
 C436 C 0.27824 0.14885 0.92778
 H437 H 0.19550 0.11980 0.85458
 H438 H 0.24888 0.05080 0.83376
 H439 H 0.21540 0.12209 0.97801
 H440 H 0.34213 0.10724 0.93488
 H441 H 0.31867 0.10591 0.80855
 H442 H 0.28627 0.17849 0.95379
 C443 C 0.79786 0.60867 0.33621
 C444 C 0.81009 0.61012 0.40588
 C445 C 0.77323 0.57881 0.42117
 C446 C 0.76105 0.57703 0.35128
 C447 C 0.74190 0.61646 0.43027
 C448 C 0.77883 0.64824 0.41541
 C449 C 0.76689 0.64614 0.34643
 C450 C 0.73006 0.61499 0.36078
 H451 H 0.82077 0.60564 0.29706
 H452 H 0.84347 0.60791 0.42354
 H453 H 0.75236 0.54905 0.32211
 H454 H 0.71676 0.62037 0.46592
 H455 H 0.78618 0.67811 0.44128
 H456 H 0.69703 0.61712 0.34167
 C457 C 0.14913 0.72241 0.91945
 C458 C 0.11784 0.75958 0.93452
 C459 C 0.07971 0.72893 0.92372
 C460 C 0.11051 0.69188 0.90815
 C461 C 0.07880 0.74206 0.85413
 C462 C 0.11724 0.77229 0.86534
 C463 C 0.14785 0.73523 0.85082
 C464 C 0.10989 0.70503 0.83884
 H465 H 0.17863 0.71429 0.94583
 H466 H 0.12180 0.78443 0.97054
 H467 H 0.10749 0.65832 0.92479
 H468 H 0.05133 0.75170 0.82450
 H469 H 0.12021 0.80547 0.84712
 H470 H 0.10687 0.68272 0.79901
 C471 C 0.64616 0.24165 0.41973
 C472 C 0.60237 0.26438 0.41113
 C473 C 0.57935 0.22211 0.42775
 C474 C 0.62278 0.19914 0.43591
 C475 C 0.57899 0.20945 0.35805
 C476 C 0.60227 0.25182 0.34179
 C477 C 0.64556 0.22921 0.35093
 C478 C 0.62278 0.18690 0.36639
 H479 H 0.67435 0.25516 0.44452
 H480 H 0.59379 0.29669 0.42861
 H481 H 0.63225 0.17553 0.47160
 H482 H 0.55248 0.19512 0.33058
 H483 H 0.59383 0.27341 0.30268
 H484 H 0.63129 0.15501 0.34727
 C485 C 0.85323 0.27817 0.92404
 C486 C 0.88394 0.24053 0.93961
 C487 C 0.92251 0.27093 0.93048
 C488 C 0.89233 0.30844 0.91448
 C489 C 0.92425 0.25835 0.86066
 C490 C 0.88534 0.22847 0.87024
 C491 C 0.85537 0.26599 0.85529
 C492 C 0.89380 0.29589 0.84499
 H493 H 0.82336 0.28629 0.94945
 H494 H 0.87905 0.21518 0.97472
 H495 H 0.89534 0.34179 0.93186
 H496 H 0.95188 0.24844 0.83162
 H497 H 0.88228 0.19550 0.85140
 H498 H 0.89765 0.31851 0.80558
 C499 C 0.34934 0.77900 0.42027
 C500 C 0.38088 0.74191 0.43500
 C501 C 0.41893 0.77271 0.42406
 C502 C 0.38787 0.80971 0.40893
 C503 C 0.41950 0.75989 0.35440
 C504 C 0.38120 0.72946 0.36574
 C505 C 0.35031 0.76644 0.35151
 C506 C 0.38817 0.79685 0.33951
 H507 H 0.31995 0.78690 0.44694
 H508 H 0.37711 0.71710 0.47122
 H509 H 0.39079 0.84319 0.42577
 H510 H 0.44694 0.75062 0.32457
 H511 H 0.37833 0.69632 0.34747
 H512 H 0.39100 0.81938 0.29980
 C513 C 0.22565 0.88307 0.13378
 C514 C 0.25566 0.92162 0.14544
 C515 C 0.26865 0.92133 0.07585
 C516 C 0.23828 0.88305 0.06456
 C517 C 0.30601 0.89069 0.09098
 C518 C 0.29298 0.89072 0.16031
 C519 C 0.26300 0.85265 0.14797
 C520 C 0.27573 0.85195 0.07930
 H521 H 0.19247 0.87974 0.15195
 H522 H 0.24593 0.94873 0.17552
 H523 H 0.21355 0.87913 0.02825
 H524 H 0.33952 0.89408 0.07424
 H525 H 0.31539 0.89364 0.20013
 H526 H 0.28403 0.82267 0.05272
 C527 C 0.81533 0.37750 0.63381
 C528 C 0.80292 0.37764 0.56431
 C529 C 0.78013 0.42109 0.57251
 C530 C 0.79296 0.42133 0.64217
 C531 C 0.73774 0.39828 0.58917
 C532 C 0.76028 0.35446 0.58055
 C533 C 0.77289 0.35495 0.64932
 C534 C 0.75046 0.39827 0.65847
 H535 H 0.84724 0.36881 0.65291
 H536 H 0.82643 0.36812 0.52859
 H537 H 0.80750 0.44773 0.66954
 H538 H 0.70541 0.40701 0.57167
 H539 H 0.74659 0.32638 0.55582
 H540 H 0.72898 0.40674 0.69762
 C541 C 0.72200 0.14785 0.07616
 C542 C 0.75928 0.11647 0.06197
 C543 C 0.72824 0.07846 0.07118
 C544 C 0.69104 0.10935 0.08574
 C545 C 0.74009 0.07700 0.14119
 C546 C 0.77077 0.11530 0.13160
 C547 C 0.73358 0.14598 0.14524
 C548 C 0.70292 0.10815 0.15551
 H549 H 0.71453 0.17760 0.05002
 H550 H 0.78465 0.12056 0.02667
 H551 H 0.65779 0.10666 0.06767
 H552 H 0.74900 0.04933 0.17086
 H553 H 0.80367 0.11793 0.15104
 H554 H 0.67983 0.10496 0.19444
 C555 C 0.22171 0.65007 0.57860
 C556 C 0.25900 0.61877 0.56401
 C557 C 0.22840 0.58061 0.57506
 C558 C 0.19120 0.61143 0.59006
 C559 C 0.24131 0.58011 0.64473
 C560 C 0.27154 0.61853 0.63329
 C561 C 0.23436 0.64917 0.64737
 C562 C 0.20414 0.61119 0.65949
 H563 H 0.21360 0.67939 0.55186
 H564 H 0.28380 0.62268 0.52782
 H565 H 0.15768 0.60832 0.57319
 H566 H 0.25079 0.55274 0.67463
 H567 H 0.30472 0.62158 0.65158
 H568 H 0.18166 0.60825 0.69919
 C569 C 0.88970 0.70365 0.15275
 C570 C 0.88876 0.69113 0.08327
 C571 C 0.91951 0.72843 0.06796
 C572 C 0.92073 0.74092 0.13774
 C573 C 0.88136 0.75905 0.05797
 C574 C 0.85011 0.72164 0.07277
 C575 C 0.85172 0.73382 0.14158
 C576 C 0.88228 0.77112 0.12733
 H577 H 0.89289 0.68098 0.19222
 H578 H 0.89166 0.65775 0.06608
 H579 H 0.94833 0.75043 0.16723
 H580 H 0.87726 0.78427 0.02245
 H581 H 0.82049 0.71366 0.04653
 H582 H 0.87941 0.80412 0.14609
 C583 C 0.39198 0.20280 0.66461
 C584 C 0.39056 0.19064 0.59495
 C585 C 0.42151 0.22779 0.57958
 C586 C 0.42326 0.23991 0.64948
 C587 C 0.38345 0.25869 0.57049
 C588 C 0.35204 0.22146 0.58542
 C589 C 0.35409 0.23334 0.65441
 C590 C 0.38490 0.27047 0.63998
 H591 H 0.39535 0.17990 0.70377
 H592 H 0.39308 0.15733 0.57734
 H593 H 0.45124 0.24882 0.67861
 H594 H 0.37920 0.28378 0.53479
 H595 H 0.32218 0.21382 0.55954
 H596 H 0.38247 0.30342 0.65903
 C597 C 0.10821 0.29421 0.16259
 C598 C 0.10953 0.30719 0.09324
 C599 C 0.07925 0.26969 0.07702
 C600 C 0.07765 0.25673 0.14667
 C601 C 0.11781 0.23954 0.06742
 C602 C 0.14858 0.27716 0.08316
 C603 C 0.14659 0.26450 0.15182
 C604 C 0.11650 0.22699 0.13666
 H605 H 0.10448 0.31659 0.20219
 H606 H 0.10640 0.34067 0.07637
 H607 H 0.05000 0.24678 0.17574
 H608 H 0.12242 0.21465 0.03165
 H609 H 0.17832 0.28562 0.05756
 H610 H 0.11956 0.19390 0.15513
 C611 C 0.62507 0.81246 0.62914
 C612 C 0.62367 0.80062 0.55949
 C613 C 0.58001 0.77814 0.56890
 C614 C 0.58108 0.79041 0.63872
 C615 C 0.60265 0.73551 0.58423
 C616 C 0.64668 0.75773 0.57439
 C617 C 0.64742 0.76980 0.64332
 C618 C 0.60391 0.74769 0.65367
 H619 H 0.63444 0.84414 0.64830
 H620 H 0.63294 0.82440 0.52390
 H621 H 0.55535 0.80495 0.66731
 H622 H 0.59323 0.70340 0.56673
 H623 H 0.67419 0.74402 0.54849
 H624 H 0.59577 0.72598 0.69279
   
