data_POSCAR
  _audit_creation_date              2014-09-24
  _audit_creation_method            'ToBaCCo'
  _symmetry_space_group_name_H-M    'P1'
  _symmetry_Int_Tables_number       1
  _symmetry_cell_setting            triclinic
  loop_
  _symmetry_equiv_pos_as_xyz
 x,y,z
_cell_length_a 25.6296
_cell_length_b 25.7682
_cell_length_c 24.7236
_cell_angle_alpha 90.484600
_cell_angle_beta 89.714000
_cell_angle_gamma 89.960500
loop_
  _atom_site_label
  _atom_site_type_symbol
  _atom_site_fract_x
  _atom_site_fract_y
  _atom_site_fract_z
C1 C 0.18297 0.22463 0.25996
 C2 C 0.18406 0.26017 0.21687
 C3 C 0.22429 0.25808 0.17892
 C4 C 0.26373 0.22052 0.18355
 C5 C 0.26343 0.18715 0.22710
 C6 C 0.22330 0.18928 0.26515
 C7 C 0.14458 0.20989 0.29650
 N8 N 0.16175 0.16710 0.32289
 C9 C 0.20958 0.15442 0.30415
 C10 C 0.29927 0.14880 0.21701
 N11 N 0.32104 0.15759 0.16821
 C12 C 0.30005 0.20128 0.14710
 C13 C 0.21274 0.29324 0.13892
 N14 N 0.16722 0.31697 0.15210
 C15 C 0.14895 0.29677 0.19905
 H16 H 0.10584 0.22635 0.30038
 H17 H 0.23091 0.11967 0.31479
 H18 H 0.30477 0.11393 0.24053
 H19 H 0.30652 0.21476 0.10623
 H20 H 0.23500 0.30009 0.10233
 H21 H 0.11213 0.30699 0.21800
 C22 C -0.17450 0.78095 0.25004
 C23 C -0.17929 0.74115 0.21074
 C24 C -0.22366 0.73852 0.17861
 C25 C -0.26363 0.77533 0.18541
 C26 C -0.25958 0.81281 0.22553
 C27 C -0.21521 0.81567 0.25755
 C28 C -0.13313 0.79987 0.28046
 N29 N -0.14893 0.84457 0.30528
 C30 C -0.19875 0.85435 0.29163
 C31 C -0.29747 0.84923 0.21704
 N32 N -0.32402 0.83549 0.17225
 C33 C -0.30415 0.79032 0.15239
 C34 C -0.21584 0.69957 0.14079
 N35 N -0.16849 0.67809 0.14970
 C36 C -0.14549 0.70340 0.19168
 H37 H -0.09392 0.78425 0.28163
 H38 H -0.22034 0.88902 0.30286
 H39 H -0.30092 0.88638 0.23765
 H40 H -0.31404 0.77322 0.11360
 H41 H -0.24213 0.68836 0.10860
 H42 H -0.10656 0.69565 0.20641
 C43 C -0.19056 0.22001 -0.26589
 C44 C -0.18794 0.25488 -0.22138
 C45 C -0.22154 0.24866 -0.17754
 C46 C -0.25737 0.20750 -0.17715
 C47 C -0.26036 0.17434 -0.22129
 C48 C -0.22755 0.18085 -0.26572
 C49 C -0.15835 0.20999 -0.31010
 N50 N -0.17600 0.16653 -0.33594
 C51 C -0.21812 0.14865 -0.30906
 C52 C -0.29326 0.13450 -0.20812
 N53 N -0.31019 0.14256 -0.15702
 C54 C -0.28899 0.18700 -0.13729
 C55 C -0.20803 0.28477 -0.13862
 N56 N -0.16756 0.31310 -0.15764
 C57 C -0.15443 0.29499 -0.20773
 H58 H -0.12242 0.23003 -0.31981
 H59 H -0.23737 0.11201 -0.31732
 H60 H -0.30219 0.10076 -0.23284
 H61 H -0.29413 0.20175 -0.09646
 H62 H -0.22510 0.28891 -0.09866
 H63 H -0.12192 0.30886 -0.23169
 C64 C 0.16297 0.78810 -0.24100
 C65 C 0.16743 0.74829 -0.20233
 C66 C 0.20909 0.74832 -0.16630
 C67 C 0.24674 0.78794 -0.16857
 C68 C 0.24286 0.82557 -0.20783
 C69 C 0.20136 0.82568 -0.24360
 C70 C 0.12444 0.80312 -0.27710
 N71 N 0.13995 0.84834 -0.30030
 C72 C 0.18667 0.86212 -0.28020
 C73 C 0.28015 0.86229 -0.19831
 N74 N 0.30662 0.84838 -0.15385
 C75 C 0.28703 0.80305 -0.13484
 C76 C 0.20156 0.70765 -0.13115
 N77 N 0.15708 0.68277 -0.14535
 C78 C 0.13560 0.70739 -0.18819
 H79 H 0.08746 0.78401 -0.28415
 H80 H 0.20741 0.89756 -0.28978
 H81 H 0.28530 0.89839 -0.21988
 H82 H 0.29888 0.78441 -0.09777
 H83 H 0.22578 0.69774 -0.09699
 H84 H 0.09876 0.69715 -0.20667
 C85 C 0.24250 1.19239 0.73501
 C86 C 0.27610 1.19162 0.78002
 C87 C 0.27130 1.22924 0.82038
 C88 C 0.23288 1.26792 0.81620
 C89 C 0.20140 1.26948 0.77085
 C90 C 0.20621 1.23191 0.73038
 C91 C 0.22949 1.15535 0.69649
 N92 N 0.18676 1.17226 0.66940
 C93 C 0.17242 1.21887 0.68966
 C94 C 0.16139 1.30340 0.78128
 N95 N 0.16731 1.32218 0.83189
 C96 C 0.21077 1.30119 0.85396
 C97 C 0.30451 1.21563 0.86176
 N98 N 0.32967 1.17141 0.84711
 C99 C 0.31224 1.15597 0.79779
 H100 H 0.24642 1.11699 0.69233
 H101 H 0.13674 1.23912 0.67955
 H102 H 0.12738 1.30951 0.75624
 H103 H 0.22222 1.30551 0.89587
 H104 H 0.30885 1.23544 0.90027
 H105 H 0.32383 1.12054 0.77715
 C106 C 0.78981 0.82670 0.74703
 C107 C 0.74994 0.82134 0.78618
 C108 C 0.74902 0.77809 0.81937
 C109 C 0.78765 0.73973 0.81371
 C110 C 0.82597 0.74471 0.77444
 C111 C 0.82716 0.78815 0.74129
 C112 C 0.80532 0.86695 0.71383
 N113 N 0.85066 0.85290 0.68893
 C114 C 0.86436 0.80504 0.70541
 C115 C 0.86276 0.70708 0.78304
 N116 N 0.84796 0.67957 0.82670
 C117 C 0.80222 0.69889 0.84603
 C118 C 0.70949 0.78535 0.85683
 N119 N 0.68617 0.83142 0.84677
 C120 C 0.71065 0.85397 0.80417
 H121 H 0.78642 0.90433 0.70999
 H122 H 0.89998 0.78499 0.69401
 H123 H 0.90008 0.70344 0.76254
 H124 H 0.78374 0.68747 0.88359
 H125 H 0.69950 0.75987 0.88991
 H126 H 0.70167 0.89210 0.78865
 C127 C 0.20882 0.82510 1.24929
 C128 C 0.24726 0.82204 1.20821
 C129 C 0.24536 0.78226 1.16988
 C130 C 0.20520 0.74524 1.17222
 C131 C 0.16854 0.74796 1.21342
 C132 C 0.17024 0.78765 1.25170
 C133 C 0.19593 0.86212 1.28806
 N134 N 0.15098 0.84706 1.31290
 C135 C 0.13501 0.80176 1.29105
 C136 C 0.13099 0.71162 1.20335
 N137 N 0.14358 0.68693 1.15689
 C138 C 0.18876 0.70671 1.13706
 C139 C 0.28458 0.79112 1.13260
 N140 N 0.31040 0.83472 1.14764
 C141 C 0.28782 0.85422 1.19331
 H142 H 0.21616 0.89831 1.29572
 H143 H 0.09899 0.78198 1.30109
 H144 H 0.09533 0.70572 1.22620
 H145 H 0.20642 0.69604 1.09868
 H146 H 0.29265 0.76855 1.09638
 H147 H 0.29901 0.89012 1.21316
 C148 C 0.77660 1.17533 1.26427
 C149 C 0.74032 1.17437 1.22122
 C150 C 0.74502 1.20987 1.17943
 C151 C 0.78589 1.24594 1.17956
 C152 C 0.82070 1.24713 1.22208
 C153 C 0.81587 1.21229 1.26456
 C154 C 0.78736 1.14214 1.30673
 N155 N 0.83139 1.15907 1.33199
 C156 C 0.84904 1.20168 1.30642
 C157 C 0.85974 1.28120 1.20912
 N158 N 0.84948 1.30051 1.15976
 C159 C 0.80451 1.27966 1.14100
 C160 C 0.70798 1.19787 1.14116
 N161 N 0.68054 1.15637 1.15854
 C162 C 0.70005 1.14122 1.20700
 H163 H 0.76693 1.10651 1.31602
 H164 H 0.88559 1.22113 1.31497
 H165 H 0.89447 1.28937 1.23248
 H166 H 0.78820 1.28649 1.10137
 H167 H 0.70272 1.21662 1.10253
 H168 H 0.68718 1.10751 1.22924
 O169 O 0.55158 0.94357 0.90186
 O170 O 0.45345 0.94006 1.09403
 O171 O 0.62673 0.96600 1.05205
 O172 O 0.38919 0.98249 0.94354
 O173 O 0.54970 0.94269 1.08917
 O174 O 0.45333 0.94251 0.90308
 O175 O 0.40911 0.93634 1.02245
 O176 O 0.57907 0.91908 0.98137
 C177 C 0.57748 0.91261 0.93088
 C178 C 0.41817 0.91945 1.06768
 C179 C 0.59985 0.94066 1.08858
 C180 C 0.40559 0.94686 0.91280
 O181 O 0.45130 1.04645 0.90204
 O182 O 0.54210 1.04723 1.09755
 O183 O 0.61267 1.00842 0.94742
 O184 O 0.37070 1.02324 1.04841
 O185 O 0.44611 1.04485 1.08971
 O186 O 0.54917 1.04685 0.90518
 O187 O 0.42232 1.07097 0.98173
 O188 O 0.58932 1.05306 1.02763
 Co189 Co 0.50114 0.99476 0.91043
 Co190 Co 0.49802 0.99378 1.08344
 Co191 Co 0.57718 0.98616 1.00746
 Co192 Co 0.42236 1.00345 1.00536
 O193 O 0.49982 0.99454 0.99597
 C194 C 0.42598 1.07822 0.93155
 C195 C 0.57825 1.06874 1.07332
 C196 C 0.59670 1.04288 0.91571
 C197 C 0.39610 1.04800 1.08670
 O198 O 0.04648 0.44268 0.09714
 O199 O 0.05320 0.53790 -0.09485
 O200 O 0.02640 0.36594 -0.05285
 O201 O 0.00876 0.60379 0.05556
 O202 O 0.04964 0.44211 -0.09054
 O203 O 0.04728 0.54014 0.09651
 O204 O 0.05671 0.58208 -0.02269
 O205 O 0.07248 0.41459 0.01751
 C206 C 0.07853 0.41727 0.06798
 C207 C 0.07403 0.57285 -0.06807
 C208 C 0.05271 0.39230 -0.08906
 C209 C 0.04333 0.58755 0.08705
 O210 O -0.05701 0.54257 0.09650
 O211 O -0.05552 0.45044 -0.09836
 O212 O -0.01742 0.38141 0.05149
 O213 O -0.02909 0.62118 -0.04955
 O214 O -0.05208 0.54623 -0.09065
 O215 O -0.05751 0.44478 0.09330
 O216 O -0.07948 0.57113 0.01667
 O217 O -0.06159 0.40371 -0.02873
 Co218 Co -0.00512 0.49259 0.08848
 Co219 Co -0.00140 0.49400 -0.08449
 Co220 Co 0.00536 0.41601 -0.00861
 Co221 Co -0.01122 0.57002 -0.00632
 O222 O -0.00334 0.49302 0.00299
 C223 C -0.08739 0.56878 0.06691
 C224 C -0.07728 0.41461 -0.07413
 C225 C -0.05244 0.39734 0.08342
 C226 C -0.05293 0.59616 -0.08869
 O227 O 1.10237 0.06068 0.46320
 O228 O 0.89494 0.03006 0.55384
 O229 O 0.96698 0.07185 0.42186
 O230 O 1.04547 0.08809 0.58154
 O231 O 0.89882 0.03923 0.45577
 O232 O 1.11140 0.04226 0.56370
 O233 O 0.95583 0.08342 0.56978
 O234 O 1.05253 0.03714 0.39477
 C235 C 1.08747 0.06591 0.41500
 C236 C 0.90902 0.07395 0.57004
 C237 C 0.91936 0.07399 0.42863
 C238 C 1.09305 0.08234 0.58295
 O239 O 1.09616 -0.05312 0.55059
 O240 O 0.93362 -0.05809 0.44295
 O241 O 1.02531 -0.05846 0.41839
 O242 O 0.95323 -0.01555 0.61094
 O243 O 0.93564 -0.06589 0.54328
 O244 O 1.10119 -0.03866 0.44766
 O245 O 1.04815 -0.01527 0.61490
 O246 O 0.95757 -0.01465 0.36923
 Co247 Co 1.09310 0.00347 0.50587
 Co248 Co 0.92400 -0.01142 0.49977
 Co249 Co 0.99526 0.00680 0.42651
 Co250 Co 1.00090 0.03317 0.58769
 O251 O 1.00674 0.01038 0.50717
 C252 C 1.07793 -0.05191 0.59812
 C253 C 0.92869 -0.05110 0.39181
 C254 C 1.07317 -0.06564 0.41819
 C255 C 0.93586 -0.05782 0.59285
 C256 C 1.13420 0.13570 0.35418
 C257 C 1.11171 0.10468 0.38208
 C258 C 0.87976 -0.12202 0.33336
 C259 C 0.90315 -0.08980 0.35930
 C260 C 0.85058 0.13742 0.62889
 C261 C 0.87524 0.10878 0.59944
 C262 C 1.11415 -0.12150 0.66586
 C263 C 1.09498 -0.09089 0.63515
 C264 C 0.34717 1.12164 1.14087
 C265 C 0.36974 1.08779 1.11659
 C266 C 0.34030 0.87957 0.87031
 C267 C 0.37015 0.90999 0.89032
 C268 C 0.64855 0.86933 1.14434
 C269 C 0.62554 0.90178 1.11933
 C270 C 0.65996 1.10953 0.86956
 C271 C 0.63217 1.07870 0.89174
 C272 C 0.14060 0.35338 0.12044
 C273 C 0.11512 0.38385 0.09464
 C274 C -0.13978 0.35055 -0.12755
 C275 C -0.11393 0.38144 -0.10197
 C276 C 0.13337 0.64198 -0.11692
 C277 C 0.10976 0.60835 -0.09334
 C278 C -0.14510 0.63835 0.11864
 C279 C -0.12211 0.60508 0.09324
 C280 C 1.15572 0.14334 0.63882
 C281 C 1.12645 0.11691 0.61237
 C282 C 0.87987 -0.11774 0.65697
 C283 C 0.90664 -0.09129 0.62787
 C284 C 1.12332 -0.12555 0.34849
 C285 C 1.09834 -0.10011 0.38055
 C286 C 0.85979 0.13273 0.36726
 C287 C 0.88715 0.10809 0.39737
 C288 C 0.12949 0.34619 -0.14134
 C289 C 0.09408 0.36717 -0.11784
 C290 C -0.11687 0.33323 0.13153
 C291 C -0.08718 0.36174 0.10871
 C292 C -0.11983 0.64951 -0.14611
 C293 C -0.08934 0.62400 -0.12088
 C294 C 0.11011 0.65215 0.13106
 C295 C 0.07966 0.62277 0.11054
 C296 C 0.36454 1.14307 0.87927
 C297 C 0.39377 1.11617 0.90521
 C298 C 0.35001 0.85945 1.11782
 C299 C 0.38284 0.88363 1.09330
 C300 C 0.64289 1.12956 1.12786
 C301 C 0.61181 1.10457 1.10167
 C302 C 0.64661 0.85487 0.87821
 C303 C 0.61360 0.87798 0.90402
   
