data_POSCAR
  _audit_creation_date              2014-09-24
  _audit_creation_method            'ToBaCCo'
  _symmetry_space_group_name_H-M    'P1'
  _symmetry_Int_Tables_number       1
  _symmetry_cell_setting            triclinic
  loop_
  _symmetry_equiv_pos_as_xyz
 x,y,z
_cell_length_a 13.2330
_cell_length_b 13.1670
_cell_length_c 30.5265
_cell_angle_alpha 92.289900
_cell_angle_beta 74.777800
_cell_angle_gamma 119.832900
loop_
  _atom_site_label
  _atom_site_type_symbol
  _atom_site_fract_x
  _atom_site_fract_y
  _atom_site_fract_z
C1 C -0.08866 -0.09390 0.53285
 C2 C -0.18317 -0.17257 0.50750
 C3 C -0.14070 -0.22469 0.47374
 C4 C -0.00780 -0.18985 0.46746
 C5 C -0.04976 -0.17400 0.54898
 C6 C -0.00979 -0.22648 0.51510
 C7 C 0.02083 -0.00557 0.49542
 C8 C 0.06311 -0.05432 0.46092
 H9 H -0.27683 -0.19349 0.51793
 H10 H 0.02820 -0.22862 0.43914
 H11 H -0.06645 -0.19777 0.58483
 H12 H 0.05658 0.08859 0.49479
 C13 C 0.85472 0.10992 0.22364
 C14 C 0.94972 0.07728 0.19794
 C15 C 1.04082 0.16200 0.16413
 C16 C 1.02643 0.26979 0.15891
 C17 C 0.92405 0.22275 0.23958
 C18 C 1.02095 0.31089 0.20431
 C19 C 0.80948 0.13499 0.18671
 C20 C 0.89851 0.21803 0.15254
 H21 H 0.95560 0.00488 0.21027
 H22 H 1.09873 0.33576 0.13030
 H23 H 0.91713 0.23268 0.27551
 H24 H 0.71495 0.08708 0.18683
 C25 C 0.06652 0.91491 0.87991
 C26 C 0.13538 1.04258 0.85674
 C27 C 0.09381 1.05496 0.82193
 C28 C -0.00862 0.93976 0.81287
 C29 C -0.06712 0.88131 0.89416
 C30 C -0.10631 0.89788 0.85943
 C31 C 0.07807 0.84083 0.84144
 C32 C 0.04173 0.85552 0.80596
 H33 H 0.20210 1.11677 0.86935
 H34 H -0.03995 0.94808 0.78358
 H35 H -0.11751 0.86848 0.92973
 H36 H 0.12321 0.79060 0.84033
 O37 O 0.61509 0.11109 -0.05805
 O38 O 0.44825 0.19664 0.03752
 O39 O 0.66744 0.22583 0.01322
 O40 O 0.40228 0.08639 -0.03286
 O41 O 0.33686 -0.08362 0.00570
 O42 O 0.59162 0.05965 0.05631
 O43 O 0.37163 0.02448 0.07684
 O44 O 0.55496 -0.05275 -0.01634
 Cu45 Cu 0.54157 0.17257 -0.01403
 Cu46 Cu 0.45796 -0.02978 0.03471
 C47 C 0.61246 0.01430 -0.05368
 C48 C 0.37830 0.12326 0.07265
 C49 C 0.67289 0.16668 0.04348
 C50 C 0.32507 -0.02238 -0.02153
 O51 O 0.05322 0.28116 0.62452
 O52 O 0.15323 0.57504 0.66786
 O53 O 0.17185 0.38927 0.68724
 O54 O 0.10758 0.48484 0.59415
 O55 O -0.07417 0.43976 0.63830
 O56 O -0.01856 0.30854 0.72918
 O57 O -0.02895 0.49824 0.71709
 O58 O -0.13332 0.22489 0.66637
 Cu59 Cu 0.13968 0.43749 0.64044
 Cu60 Cu -0.08108 0.36167 0.69174
 C61 C -0.06024 0.20484 0.63698
 C62 C 0.07558 0.58521 0.70005
 C63 C 0.08999 0.33093 0.72332
 C64 C 0.00905 0.48366 0.60028
 O65 O 0.41844 0.49043 0.26857
 O66 O 0.59846 0.52490 0.34651
 O67 O 0.42976 0.34190 0.32081
 O68 O 0.59856 0.66382 0.28951
 O69 O 0.46073 0.68180 0.34324
 O70 O 0.30643 0.36575 0.37923
 O71 O 0.47921 0.56527 0.40035
 O72 O 0.28252 0.50456 0.32454
 Cu73 Cu 0.52290 0.50220 0.30110
 Cu74 Cu 0.36589 0.52596 0.36788
 C75 C 0.32120 0.49380 0.28290
 C76 C 0.57301 0.55591 0.38587
 C77 C 0.34106 0.29995 0.35671
 C78 C 0.55796 0.72692 0.31063
 C79 C -0.12585 -0.03325 0.57103
 C80 C -0.23871 -0.08105 0.60225
 C81 C -0.22869 0.00183 0.63178
 C82 C -0.10997 0.09303 0.61672
 O83 O -0.04736 0.07162 0.58013
 H84 H -0.31822 -0.16583 0.60335
 H85 H -0.29953 -0.00335 0.66077
 C86 C 0.75186 1.01807 0.26059
 C87 C 0.66717 1.03614 0.29182
 C88 C 0.58392 0.92905 0.31580
 C89 C 0.62341 0.85366 0.29697
 O90 O 0.72492 0.90710 0.26345
 H91 H 0.66535 1.11731 0.29574
 H92 H 0.50265 0.90774 0.34289
 C93 C 0.10932 -0.10386 -0.08187
 C94 C 0.05534 -0.21043 -0.05574
 C95 C 0.12849 -0.19372 -0.02878
 C96 C 0.22132 -0.07825 -0.04053
 O97 O 0.21010 -0.02344 -0.07268
 H98 H -0.02546 -0.29139 -0.05738
 H99 H 0.11693 -0.25842 -0.00420
 C100 C 0.00188 0.67207 0.52551
 C101 C 0.04090 0.61324 0.49330
 C102 C 0.03898 0.52773 0.51769
 C103 C -0.00248 0.53954 0.56287
 O104 O -0.02444 0.62741 0.56782
 H105 H 0.07083 0.63192 0.45658
 H106 H 0.06974 0.46738 0.50431
 C107 C 0.12244 0.40394 0.21491
 C108 C 0.22557 0.48825 0.18320
 C109 C 0.31154 0.53979 0.20603
 C110 C 0.25475 0.48521 0.25005
 O111 O 0.13987 0.40410 0.25579
 H112 H 0.24004 0.50515 0.14708
 H113 H 0.40656 0.60399 0.19165
 C114 C 0.79403 -0.07563 -0.13034
 C115 C 0.76995 -0.02522 -0.16222
 C116 C 0.69513 0.01216 -0.13753
 C117 C 0.67754 -0.01954 -0.09252
 O118 O 0.73660 -0.07317 -0.08795
 H119 H 0.80825 -0.00980 -0.19890
 H120 H 0.66077 0.06039 -0.15062
 C121 C 0.15978 0.17031 0.14798
 C122 C 0.25293 0.23371 0.16767
 C123 C 0.34777 0.22346 0.14198
 C124 C 0.30463 0.15375 0.10895
 O125 O 0.19050 0.12099 0.11232
 H126 H 0.25171 0.28135 0.19727
 H127 H 0.43756 0.26219 0.14658
 C128 C 0.78254 0.68031 0.44989
 C129 C 0.80629 0.59261 0.43389
 C130 C 0.72532 0.53053 0.41004
 C131 C 0.65696 0.58373 0.41352
 O132 O 0.69074 0.67472 0.43791
 H133 H 0.87632 0.57712 0.43802
 H134 H 0.71959 0.45779 0.39086
 C135 C 0.12835 0.16802 0.79877
 C136 C 0.23487 0.27268 0.79552
 C137 C 0.23203 0.35002 0.76808
 C138 C 0.12298 0.28722 0.75753
 O139 O 0.06031 0.17677 0.77586
 H140 H 0.30792 0.28918 0.80967
 H141 H 0.30253 0.44039 0.75597
 C142 C 0.87087 0.24313 0.11185
 C143 C 0.94407 0.34101 0.08010
 C144 C 0.87930 0.32725 0.04969
 C145 C 0.77258 0.22124 0.06499
 O146 O 0.76740 0.17063 0.10258
 H147 H 1.03262 0.41428 0.07954
 H148 H 0.90669 0.38679 0.01996
 C149 C 0.15784 0.02122 0.41956
 C150 C 0.21555 -0.01314 0.38267
 C151 C 0.29418 0.08754 0.35306
 C152 C 0.27726 0.17479 0.37415
 O153 O 0.19525 0.13466 0.41420
 H154 H 0.20274 -0.10019 0.37789
 H155 H 0.35581 0.09611 0.32020
 C156 C 0.07010 0.80980 0.76255
 C157 C 0.11837 0.87207 0.71987
 C158 C 0.13861 0.79908 0.69021
 C159 C 0.10034 0.69807 0.71724
 O160 O 0.05874 0.70448 0.76099
 H161 H 0.13716 0.96005 0.71149
 H162 H 0.17046 0.81475 0.65329
   
