data_POSCAR
  _audit_creation_date              2014-09-24
  _audit_creation_method            'ToBaCCo'
  _symmetry_space_group_name_H-M    'P1'
  _symmetry_Int_Tables_number       1
  _symmetry_cell_setting            triclinic
  loop_
  _symmetry_equiv_pos_as_xyz
 x,y,z
_cell_length_a 14.5174
_cell_length_b 13.9062
_cell_length_c 14.7212
_cell_angle_alpha 90.951600
_cell_angle_beta 92.509400
_cell_angle_gamma 86.471400
loop_
  _atom_site_label
  _atom_site_type_symbol
  _atom_site_fract_x
  _atom_site_fract_y
  _atom_site_fract_z
O1 O 0.62176 0.17030 0.05921
 O2 O 0.42899 -0.03169 -0.18502
 O3 O 0.64100 0.06386 -0.06878
 O4 O 0.32757 0.16322 0.00537
 O5 O 0.60109 -0.06007 -0.14595
 O6 O 0.46537 0.21579 0.00896
 O7 O 0.31239 0.02514 -0.10356
 O8 O 0.72689 0.05220 0.08073
 C9 C 0.70488 0.14444 0.08340
 C10 C 0.34814 0.00693 -0.17985
 C11 C 0.64868 0.01224 -0.13798
 C12 C 0.38343 0.22339 -0.01982
 O13 O 0.40013 0.15487 0.16016
 O14 O 0.55575 -0.18789 -0.01923
 O15 O 0.61166 -0.05193 0.14641
 O16 O 0.31693 -0.09882 0.03256
 O17 O 0.39638 -0.16655 -0.07348
 O18 O 0.55946 0.08087 0.20377
 O19 O 0.34584 0.02005 0.14165
 O20 O 0.67334 -0.10541 0.00292
 Co21 Co 0.50866 0.14072 0.10008
 Co22 Co 0.49595 -0.09943 -0.09473
 Co23 Co 0.61953 0.00741 0.03977
 Co24 Co 0.33888 0.02801 0.01951
 O25 O 0.48409 0.01159 0.01312
 C26 C 0.35865 0.08889 0.19220
 C27 C 0.63707 -0.18318 0.00846
 C28 C 0.60501 0.00186 0.21374
 C29 C 0.33519 -0.17005 -0.01746
 O30 O -0.15932 0.37469 -0.08551
 O31 O 0.05614 0.56597 0.17181
 O32 O 0.09705 0.29312 0.05020
 O33 O -0.15115 0.66167 -0.03175
 O34 O 0.06944 0.39404 0.15281
 O35 O -0.19755 0.52318 -0.02951
 O36 O -0.07740 0.62505 0.11738
 O37 O -0.07062 0.30189 0.01423
 C38 C -0.14956 0.32222 -0.01746
 C39 C -0.02349 0.60759 0.18445
 C40 C 0.07735 0.30844 0.12932
 C41 C -0.21400 0.60909 -0.01641
 O42 O -0.09904 0.60460 -0.16704
 O43 O 0.19927 0.40872 0.01438
 O44 O -0.03121 0.31585 -0.15973
 O45 O 0.07353 0.68347 0.06147
 O46 O 0.17717 0.58167 0.02499
 O47 O -0.03896 0.45720 -0.20408
 O48 O 0.01362 0.67576 -0.10245
 O49 O 0.12841 0.35276 -0.10837
 Co50 Co -0.11304 0.48975 -0.11273
 Co51 Co 0.11467 0.48741 0.08173
 Co52 Co 0.02690 0.33351 -0.04777
 Co53 Co -0.03159 0.64347 0.00703
 O54 O -0.00028 0.48857 -0.01726
 C55 C -0.03231 0.65626 -0.17357
 C56 C 0.20167 0.37088 -0.06518
 C57 C -0.03442 0.37222 -0.22401
 C58 C 0.15303 0.66748 0.03827
 O59 O -0.07482 -0.20439 0.42554
 O60 O 0.16773 0.06496 0.59243
 O61 O 0.16362 -0.05921 0.37630
 O62 O 0.05113 -0.09189 0.66055
 O63 O 0.18128 0.08444 0.42293
 O64 O -0.04393 -0.18578 0.59710
 O65 O 0.06034 0.07768 0.68750
 O66 O 0.06140 -0.17841 0.39631
 C67 C -0.00027 -0.23407 0.39305
 C68 C 0.14451 0.07048 0.67318
 C69 C 0.20917 0.01255 0.37853
 C70 C 0.01865 -0.17166 0.65691
 O71 O -0.17402 -0.03647 0.59351
 O72 O 0.02822 0.18400 0.41140
 O73 O -0.08353 -0.06477 0.31846
 O74 O -0.10057 0.11497 0.59701
 O75 O 0.01850 0.19255 0.57588
 O76 O -0.17917 -0.04357 0.42858
 O77 O -0.09499 -0.00540 0.71994
 O78 O 0.03116 0.06732 0.30665
 Co79 Co -0.10404 -0.10755 0.51054
 Co80 Co 0.09067 0.11804 0.50196
 Co81 Co 0.03880 -0.05504 0.36111
 Co82 Co -0.02443 0.00863 0.62358
 O83 O 0.00779 -0.00734 0.49420
 C84 C -0.17229 -0.03127 0.68004
 C85 C 0.02389 0.15677 0.32973
 C86 C -0.16521 -0.05030 0.34572
 C87 C -0.06291 0.19230 0.60000
 C88 C -0.22114 0.20931 0.07759
 C89 C -0.22943 0.27780 0.01537
 H90 H -0.15436 0.18839 0.10952
 H91 H -0.29532 0.29448 -0.02029
 C92 C 0.28967 0.74843 -0.01243
 C93 C 0.20933 0.74543 0.03579
 H94 H 0.31157 0.68583 -0.05277
 H95 H 0.18150 0.81239 0.06568
 C96 C 0.36255 0.29611 -0.09190
 C97 C 0.28824 0.35553 -0.11211
 H98 H 0.41982 0.30331 -0.13571
 H99 H 0.29122 0.39778 -0.17301
 C100 C -0.30768 0.73549 0.04550
 C101 C -0.30542 0.65104 0.00235
 H102 H -0.24758 0.75415 0.08720
 H103 H -0.36340 0.62966 -0.04059
 C104 C -0.04963 -0.34783 0.27309
 C105 C 0.01356 -0.32300 0.33678
 H106 H -0.11900 -0.31451 0.27601
 H107 H 0.08447 -0.35032 0.32964
 C108 C -0.04177 0.33988 0.68210
 C109 C -0.09778 0.27021 0.65866
 H110 H 0.01262 0.35843 0.63859
 H111 H -0.15332 0.25498 0.70224
 C112 C 0.06759 0.22671 0.18919
 C113 C 0.01702 0.23348 0.26229
 H114 H 0.10326 0.15849 0.17187
 H115 H -0.01693 0.30230 0.28051
 C116 C -0.02036 -0.30619 0.74489
 C117 C 0.04065 -0.23609 0.72756
 H118 H -0.06891 -0.32547 0.69032
 H119 H 0.09162 -0.21711 0.77986
 C120 C 0.29849 0.02933 0.74356
 C121 C 0.20627 0.06412 0.74742
 H122 H 0.32806 0.01374 0.67815
 H123 H 0.17627 0.07656 0.81317
 C124 C -0.33071 -0.01488 0.29357
 C125 C -0.24361 -0.04953 0.27877
 H126 H -0.34749 0.01732 0.35873
 H127 H -0.22651 -0.07656 0.21209
 C128 C 0.31409 0.09503 0.28090
 C129 C 0.28793 0.01413 0.31878
 H130 H 0.29149 0.16526 0.30746
 H131 H 0.31143 -0.05495 0.29006
 C132 C -0.27560 0.02609 0.80056
 C133 C -0.25812 -0.03321 0.72983
 H134 H -0.22795 0.08091 0.81908
 H135 H -0.30724 -0.08542 0.70817
   
