data_POSCAR
  _audit_creation_date              2014-09-24
  _audit_creation_method            'ToBaCCo'
  _symmetry_space_group_name_H-M    'P1'
  _symmetry_Int_Tables_number       1
  _symmetry_cell_setting            triclinic
  loop_
  _symmetry_equiv_pos_as_xyz
 x,y,z
_cell_length_a 39.8940
_cell_length_b 38.7165
_cell_length_c 39.7435
_cell_angle_alpha 87.313700
_cell_angle_beta 89.663800
_cell_angle_gamma 92.623500
loop_
  _atom_site_label
  _atom_site_type_symbol
  _atom_site_fract_x
  _atom_site_fract_y
  _atom_site_fract_z
C1 C 0.59863 0.67520 0.63595
 C2 C 0.62751 0.66314 0.62098
 C3 C 0.64134 0.63317 0.63380
 C4 C 0.62681 0.61519 0.66209
 C5 C 0.59828 0.62704 0.67677
 C6 C 0.58420 0.65734 0.66375
 C7 C 0.57961 0.70336 0.62876
 N8 N 0.55416 0.70303 0.65169
 C9 C 0.55692 0.67517 0.67330
 C10 C 0.58931 0.60420 0.70319
 N11 N 0.61197 0.57907 0.70531
 C12 C 0.63508 0.58563 0.68016
 C13 C 0.66877 0.62734 0.61403
 N14 N 0.67195 0.65318 0.58972
 C15 C 0.64707 0.67534 0.59394
 H16 H 0.58433 0.72293 0.60873
 H17 H 0.54018 0.66837 0.69436
 H18 H 0.56792 0.60587 0.71986
 H19 H 0.65599 0.56992 0.67469
 H20 H 0.68543 0.60617 0.61739
 H21 H 0.64333 0.69844 0.57825
 C22 C 0.90138 0.35855 0.12148
 C23 C 0.87474 0.37539 0.10596
 C24 C 0.86201 0.40412 0.12008
 C25 C 0.87544 0.41610 0.15016
 C26 C 0.90163 0.39939 0.16549
 C27 C 0.91451 0.37030 0.15119
 C28 C 0.91915 0.33048 0.11313
 N29 N 0.94256 0.32471 0.13735
 C30 C 0.93965 0.34886 0.16076
 C31 C 0.91033 0.41718 0.19355
 N32 N 0.88974 0.44389 0.19588
 C33 C 0.86830 0.44353 0.16943
 C34 C 0.83697 0.41559 0.09928
 N35 N 0.83385 0.39421 0.07330
 C36 C 0.85692 0.36958 0.07706
 H37 H 0.91470 0.31523 0.09134
 H38 H 0.95501 0.35091 0.18303
 H39 H 0.93026 0.41127 0.21097
 H40 H 0.84952 0.46230 0.16410
 H41 H 0.82196 0.43776 0.10282
 H42 H 0.86092 0.34935 0.05977
 C43 C 0.40979 0.12664 -0.09529
 C44 C 0.37865 0.11085 -0.08568
 C45 C 0.36459 0.08460 -0.10426
 C46 C 0.38127 0.07414 -0.13295
 C47 C 0.41200 0.08967 -0.14241
 C48 C 0.42625 0.11630 -0.12361
 C49 C 0.42948 0.15262 -0.08190
 N50 N 0.45707 0.15869 -0.10176
 C51 C 0.45542 0.13656 -0.12730
 C52 C 0.42245 0.07413 -0.17084
 N53 N 0.39858 0.04997 -0.17926
 C54 C 0.37323 0.04981 -0.15610
 C55 C 0.33461 0.07386 -0.08896
 N56 N 0.32992 0.09336 -0.06202
 C57 C 0.35675 0.11603 -0.05971
 H58 H 0.42399 0.16644 -0.05960
 H59 H 0.47421 0.13504 -0.14688
 H60 H 0.44560 0.08026 -0.18468
 H61 H 0.35080 0.03301 -0.15547
 H62 H 0.31728 0.05359 -0.09699
 H63 H 0.36030 0.13455 -0.04032
 C64 C 0.10551 0.83532 0.36734
 C65 C 0.13583 0.84635 0.38196
 C66 C 0.15424 0.87457 0.36777
 C67 C 0.14283 0.89181 0.33852
 C68 C 0.11292 0.88097 0.32413
 C69 C 0.09429 0.85232 0.33847
 C70 C 0.08230 0.80890 0.37582
 N71 N 0.05741 0.80921 0.35248
 C72 C 0.06475 0.83557 0.32948
 C73 C 0.10781 0.90277 0.29646
 N74 N 0.13416 0.92642 0.29353
 C75 C 0.15576 0.91964 0.31903
 C76 C 0.18214 0.87973 0.38743
 N77 N 0.18114 0.85514 0.41299
 C78 C 0.15313 0.83443 0.40971
 H79 H 0.08414 0.79049 0.39697
 H80 H 0.04954 0.84223 0.30785
 H81 H 0.08672 0.90086 0.27957
 H82 H 0.17905 0.93420 0.32334
 H83 H 0.20192 0.89956 0.38316
 H84 H 0.14578 0.81252 0.42649
 N85 N 0.08198 0.18448 0.08457
 N86 N 0.06827 0.17178 0.11294
 C87 C 0.04106 0.18957 0.11988
 C88 C 0.03744 0.21454 0.09426
 C89 C 0.06364 0.21043 0.07218
 H90 H 0.02490 0.18450 0.14166
 H91 H 0.06935 0.22580 0.04926
 Cu92 Cu 0.08684 0.13296 0.13800
 Cu93 Cu 0.12377 0.16793 0.06725
 Cu94 Cu 0.15335 0.09393 0.10680
 N95 N 0.09989 0.08798 0.15569
 N96 N 0.12671 0.07353 0.14449
 C97 C 0.13077 0.04356 0.16224
 C98 C 0.10482 0.03888 0.18548
 C99 C 0.08556 0.06735 0.18048
 H100 H 0.15064 0.02612 0.15808
 H101 H 0.06306 0.07283 0.19420
 N102 N 0.17654 0.11856 0.06821
 N103 N 0.16566 0.14724 0.05364
 C104 C 0.18759 0.15876 0.02929
 C105 C 0.21308 0.13595 0.02812
 C106 C 0.20536 0.11074 0.05310
 H107 H 0.18527 0.18201 0.01348
 H108 H 0.22010 0.08887 0.06027
 H109 H 0.11268 0.11772 0.08556
 H110 H 0.14165 0.14502 0.11130
 N111 N 0.40442 0.83807 0.59342
 N112 N 0.41577 0.84814 0.62255
 C113 C 0.44281 0.83011 0.63102
 C114 C 0.44878 0.80782 0.60565
 C115 C 0.42412 0.81370 0.58214
 H116 H 0.45731 0.83324 0.65365
 H117 H 0.42057 0.80083 0.55877
 Cu118 Cu 0.39429 0.88414 0.64625
 Cu119 Cu 0.36448 0.85658 0.57272
 Cu120 Cu 0.32534 0.92018 0.61494
 N121 N 0.37234 0.92018 0.66946
 N122 N 0.34464 0.93318 0.65767
 C123 C 0.33356 0.95596 0.67926
 C124 C 0.35577 0.95775 0.70565
 C125 C 0.38014 0.93474 0.69871
 H126 H 0.31111 0.97034 0.67597
 H127 H 0.40137 0.92847 0.71427
 N128 N 0.30962 0.90358 0.57141
 N129 N 0.32382 0.87854 0.55588
 C130 C 0.30679 0.87238 0.52744
 C131 C 0.28095 0.89493 0.52486
 C132 C 0.28360 0.91445 0.55293
 H133 H 0.31315 0.85354 0.50950
 H134 H 0.26752 0.93491 0.55941
 H135 H 0.36917 0.90442 0.59359
 H136 H 0.34223 0.87043 0.61686
 N137 N 0.89804 0.67202 0.40872
 N138 N 0.90932 0.66205 0.37960
 C139 C 0.93783 0.68060 0.37135
 C140 C 0.94495 0.70295 0.39673
 C141 C 0.91944 0.69670 0.42009
 H142 H 0.95284 0.67744 0.34907
 H143 H 0.91671 0.70939 0.44355
 Cu144 Cu 0.88746 0.62423 0.35513
 Cu145 Cu 0.85603 0.65276 0.42986
 Cu146 Cu 0.81509 0.58972 0.38866
 N147 N 0.86232 0.58652 0.33466
 N148 N 0.83358 0.57356 0.34711
 C149 C 0.82182 0.54841 0.32740
 C150 C 0.84465 0.54516 0.30164
 C151 C 0.87006 0.56977 0.30694
 H152 H 0.79875 0.53305 0.33174
 H153 H 0.89235 0.57526 0.29166
 N154 N 0.79857 0.60522 0.43132
 N155 N 0.81411 0.63057 0.44675
 C156 C 0.79701 0.63664 0.47502
 C157 C 0.76949 0.61360 0.47753
 C158 C 0.77135 0.59390 0.44958
 H159 H 0.80446 0.65582 0.49278
 H160 H 0.75400 0.57305 0.44305
 H161 H 0.87116 0.61109 0.40379
 H162 H 0.84744 0.64444 0.37962
 N163 N 0.60639 0.30806 -0.11305
 N164 N 0.59348 0.32708 -0.13753
 C165 C 0.56694 0.30956 -0.15032
 C166 C 0.56268 0.27819 -0.13250
 C167 C 0.58814 0.27801 -0.10901
 H168 H 0.55168 0.31901 -0.17088
 H169 H 0.59345 0.25729 -0.09090
 Cu170 Cu 0.61184 0.37325 -0.14996
 Cu171 Cu 0.64671 0.32309 -0.08939
 Cu172 Cu 0.68681 0.39958 -0.11961
 N173 N 0.63707 0.41324 -0.16980
 N174 N 0.66695 0.42267 -0.15875
 C175 C 0.67918 0.45018 -0.17771
 C176 C 0.65547 0.45869 -0.20149
 C177 C 0.62903 0.43471 -0.19582
 H178 H 0.70329 0.46340 -0.17417
 H179 H 0.60599 0.43264 -0.20995
 N180 N 0.70270 0.37242 -0.08017
 N181 N 0.68781 0.34287 -0.06909
 C182 C 0.70480 0.33024 -0.04240
 C183 C 0.73125 0.35317 -0.03610
 C184 C 0.72925 0.37964 -0.06050
 H185 H 0.69823 0.30637 -0.02819
 H186 H 0.74608 0.40225 -0.06387
 H187 H 0.64377 0.37602 -0.09792
 H188 H 0.66519 0.35199 -0.13106
 C189 C -0.03480 0.29941 0.13933
 C190 C -0.02854 0.27905 0.11389
 C191 C -0.00362 0.25230 0.11769
 C192 C 0.01169 0.24047 0.09087
 H193 H -0.04054 0.28276 0.08973
 H194 H 0.00325 0.24323 0.14283
 H195 H -0.02025 0.29641 0.16219
 H196 H 0.00657 0.25139 0.06592
 C197 C 0.52897 0.72810 0.65415
 C198 C 0.51843 0.74632 0.62716
 C199 C 0.49210 0.77141 0.63031
 C200 C 0.47559 0.78313 0.60328
 H201 H 0.52851 0.74192 0.60244
 H202 H 0.48556 0.77957 0.65512
 H203 H 0.51711 0.73100 0.67841
 H204 H 0.48096 0.77337 0.57879
 C205 C 1.02992 0.78714 0.35081
 C206 C 1.02023 0.76470 0.37608
 C207 C 0.99073 0.74096 0.37253
 C208 C 0.97419 0.72716 0.39960
 H209 H 1.03321 0.76426 0.39990
 H210 H 0.98202 0.73536 0.34750
 H211 H 1.01456 0.78854 0.32838
 H212 H 0.98155 0.73469 0.42452
 C213 C 0.48347 0.18399 -0.09574
 C214 C 0.50063 0.20059 -0.12105
 C215 C 0.52697 0.22720 -0.11447
 C216 C 0.53680 0.25089 -0.13844
 H217 H 0.49431 0.19544 -0.14688
 H218 H 0.53758 0.22809 -0.08947
 H219 H 0.48814 0.19113 -0.07007
 H220 H 0.52455 0.25123 -0.16272
 C221 C 0.13942 -0.04746 0.26963
 C222 C 0.11573 -0.03740 0.24801
 C223 C 0.12289 -0.00885 0.22289
 C224 C 0.09822 0.00977 0.21010
 H225 H 0.09053 -0.04897 0.24950
 H226 H 0.14874 -0.00218 0.21577
 H227 H 0.16353 -0.03323 0.26892
 H228 H 0.07270 0.00466 0.21913
 C229 C 0.61026 0.55219 -0.27125
 C230 C 0.63511 0.53043 -0.26618
 C231 C 0.63156 0.50174 -0.24059
 C232 C 0.65848 0.48714 -0.22736
 H233 H 0.65861 0.53417 -0.27985
 H234 H 0.60665 0.49324 -0.23173
 H235 H 0.58814 0.54891 -0.25516
 H236 H 0.68340 0.49727 -0.23457
 C237 C 0.40100 1.02987 0.79366
 C238 C 0.37528 1.01012 0.78261
 C239 C 0.37929 0.98895 0.75317
 C240 C 0.35269 0.97880 0.73527
 H241 H 0.35071 1.01032 0.79422
 H242 H 0.40428 0.98252 0.74550
 H243 H 0.42449 1.03085 0.77965
 H244 H 0.32803 0.98731 0.74167
 C245 C 0.89217 0.46895 0.22131
 C246 C 0.86553 0.48555 0.23143
 C247 C 0.86878 0.51082 0.25787
 C248 C 0.84190 0.52041 0.27466
 H249 H 0.84105 0.47970 0.22091
 H250 H 0.89360 0.52084 0.26436
 H251 H 0.91606 0.47321 0.23368
 H252 H 0.81737 0.50873 0.26951
 C253 C 0.30154 0.08948 -0.03963
 C254 C 0.28973 0.11643 -0.02426
 C255 C 0.26029 0.11214 -0.00175
 C256 C 0.24265 0.13930 0.00571
 H257 H 0.30124 0.14208 -0.02917
 H258 H 0.25249 0.08641 0.00807
 H259 H 0.28842 0.06436 -0.03661
 H260 H 0.24933 0.16460 -0.00588
 C261 C 0.69753 0.65750 0.56417
 C262 C 0.71131 0.63037 0.55090
 C263 C 0.73714 0.63524 0.52432
 C264 C 0.74393 0.60953 0.50445
 H265 H 0.70269 0.60433 0.55895
 H266 H 0.75003 0.66038 0.52040
 H267 H 0.70446 0.68344 0.55426
 H268 H 0.72948 0.58514 0.50712
 C269 C 0.81056 0.39834 0.04618
 C270 C 0.79863 0.37143 0.02931
 C271 C 0.77432 0.37618 0.00196
 C272 C 0.75609 0.34928 -0.00909
 H273 H 0.80602 0.34552 0.03640
 H274 H 0.77069 0.40207 -0.00854
 H275 H 0.80127 0.42382 0.04045
 H276 H 0.75848 0.32377 0.00284
 C277 C 0.20568 0.85068 0.43886
 C278 C 0.22265 0.87772 0.45126
 C279 C 0.24740 0.87289 0.47816
 C280 C 0.25636 0.89885 0.49767
 H281 H 0.21741 0.90376 0.44227
 H282 H 0.25761 0.84763 0.48264
 H283 H 0.20909 0.82488 0.44974
 H284 H 0.24437 0.92335 0.49453
   
