data_POSCAR
  _audit_creation_date              2014-09-24
  _audit_creation_method            'ToBaCCo'
  _symmetry_space_group_name_H-M    'P1'
  _symmetry_Int_Tables_number       1
  _symmetry_cell_setting            triclinic
  loop_
  _symmetry_equiv_pos_as_xyz
 x,y,z
_cell_length_a 39.7777
_cell_length_b 39.4829
_cell_length_c 39.8073
_cell_angle_alpha 89.944800
_cell_angle_beta 90.442900
_cell_angle_gamma 90.410600
loop_
  _atom_site_label
  _atom_site_type_symbol
  _atom_site_fract_x
  _atom_site_fract_y
  _atom_site_fract_z
C1 C 0.16567 1.21091 0.19452
 C2 C 0.19565 1.19487 0.18492
 C3 C 0.20748 1.16640 0.20252
 C4 C 0.18910 1.15373 0.22976
 C5 C 0.15918 1.16940 0.24008
 C6 C 0.14789 1.19789 0.22215
 H7 H 0.20905 1.20308 0.16290
 H8 H 0.19828 1.13120 0.24207
 H9 H 0.12466 1.20993 0.22960
 C10 C 0.82854 0.75862 0.15897
 C11 C 0.83978 0.76687 0.19168
 C12 C 0.82561 0.79386 0.20951
 C13 C 0.79907 0.81221 0.19486
 C14 C 0.78740 0.80432 0.16238
 C15 C 0.80243 0.77781 0.14471
 H16 H 0.86031 0.75344 0.20339
 H17 H 0.78782 0.83279 0.20846
 H18 H 0.79363 0.77214 0.11945
 C19 C 0.79641 1.25053 -0.20423
 C20 C 0.76797 1.23494 -0.18994
 C21 C 0.75276 1.20636 -0.20483
 C22 C 0.76576 1.19370 -0.23489
 C23 C 0.79439 1.20846 -0.24948
 C24 C 0.80920 1.23706 -0.23435
 H25 H 0.75744 1.24548 -0.16726
 H26 H 0.75340 1.17226 -0.24668
 H27 H 0.83114 1.24780 -0.24618
 C28 C 0.20381 0.79021 -0.17462
 C29 C 0.23342 0.80730 -0.16456
 C30 C 0.24237 0.83872 -0.17865
 C31 C 0.22210 0.85253 -0.20400
 C32 C 0.19261 0.83607 -0.21470
 C33 C 0.18331 0.80518 -0.19963
 H34 H 0.24958 0.79591 -0.14576
 H35 H 0.22900 0.87669 -0.21506
 H36 H 0.15961 0.79388 -0.20675
 C37 C 0.55714 1.07361 0.01480
 H38 H 0.55786 1.07336 0.04198
 C39 C 0.57889 1.09479 -0.00292
 H40 H 0.59627 1.11093 0.01087
 C41 C 0.53413 1.05211 -0.03599
 H42 H 0.51700 1.03501 -0.04876
 C43 C 0.55556 1.07287 -0.05478
 H44 H 0.55385 1.07166 -0.08183
 N45 N 0.53528 1.05291 -0.00185
 C46 C 0.45879 1.03109 0.07318
 H47 H 0.46049 1.00379 0.07464
 C48 C 0.43478 1.04811 0.09208
 H49 H 0.41888 1.03348 0.10862
 C50 C 0.47796 1.08282 0.04972
 H51 H 0.49427 1.09621 0.03260
 C52 C 0.45423 1.10083 0.06803
 H53 H 0.45282 1.12806 0.06506
 Zn54 Zn 0.50891 1.02347 0.02483
 N55 N 0.47973 1.04855 0.05251
 C56 C 0.53950 0.99712 0.08471
 N57 N 0.53938 0.99737 0.05056
 C58 C 0.56253 0.97983 0.03289
 C59 C 0.58686 0.96063 0.04940
 C60 C 0.56346 0.97825 0.10236
 C61 C 0.45765 1.00976 -0.02176
 C62 C 0.43531 0.99001 -0.04077
 C63 C 0.46242 0.93993 -0.01900
 C64 C 0.48420 0.96068 -0.00046
 N65 N 0.48156 0.99494 -0.00226
 H66 H 0.52132 1.01181 0.09834
 H67 H 0.56201 0.98079 0.00572
 H68 H 0.60417 0.94680 0.03397
 H69 H 0.56310 0.97849 0.12958
 H70 H 0.45565 1.03708 -0.02215
 H71 H 0.41643 1.00304 -0.05536
 H72 H 0.46491 0.91269 -0.01689
 H73 H 0.50273 0.94929 0.01589
 C74 C 0.43183 1.08349 0.08909
 C75 C 0.57860 1.09443 -0.03815
 C76 C 0.43740 0.95436 -0.03953
 C77 C 0.58784 0.95974 0.08485
 C78 C 0.00096 0.51297 1.04149
 H79 H 0.01642 0.49348 1.05252
 C80 C -0.01765 0.53403 1.06236
 H81 H -0.01657 0.53028 1.08931
 C82 C -0.01852 0.54235 0.99329
 H83 H -0.01852 0.54547 0.96628
 C84 C -0.03743 0.56406 1.01323
 H85 H -0.05250 0.58323 1.00106
 N86 N 0.00009 0.51735 1.00760
 C87 C 0.08731 0.46193 1.00532
 H88 H 0.10022 0.48146 0.99132
 C89 C 0.10586 0.43836 1.02387
 H90 H 0.13305 0.44005 1.02415
 C91 C 0.03632 0.43549 1.02163
 H92 H 0.00914 0.43462 1.02055
 C93 C 0.05380 0.41152 1.04050
 H94 H 0.03951 0.39293 1.05443
 Zn95 Zn 0.02674 0.49039 0.97902
 N96 N 0.05315 0.46014 1.00468
 C97 C 0.07222 0.54403 0.97080
 N98 N 0.05406 0.52028 0.95377
 C99 C 0.05333 0.51975 0.91964
 C100 C 0.07121 0.54394 0.90130
 C101 C 0.09025 0.56894 0.95350
 C102 C -0.03466 0.46676 0.94952
 C103 C -0.05429 0.44598 0.92867
 C104 C -0.00351 0.41891 0.90991
 C105 C 0.01506 0.44031 0.93096
 N106 N -0.00064 0.46376 0.95010
 H107 H 0.07198 0.54411 0.99798
 H108 H 0.03826 0.50109 0.90649
 H109 H 0.06980 0.54319 0.87411
 H110 H 0.10377 0.58752 0.96827
 H111 H -0.04675 0.48510 0.96541
 H112 H -0.08116 0.44946 0.92906
 H113 H 0.00971 0.40041 0.89498
 H114 H 0.04214 0.43815 0.93226
 C115 C 0.08915 0.41250 1.04147
 C116 C -0.03681 0.56023 1.04837
 C117 C -0.03875 0.42136 0.90845
 C118 C 0.08963 0.56945 0.91804
 C119 C 1.01480 -0.03268 0.56419
 H120 H 1.01424 -0.00531 0.56510
 C121 C 1.03351 -0.05062 0.58795
 H122 H 1.04783 -0.03653 0.60649
 C123 C 0.99747 -0.08373 0.53781
 H124 H 0.98310 -0.09653 0.51843
 C125 C 1.01591 -0.10271 0.56109
 H126 H 1.01579 -0.13009 0.55929
 N127 N 0.99748 -0.04933 0.53963
 C128 C 0.98801 0.02455 0.45886
 H129 H 0.96096 0.02523 0.45594
 C130 C 1.00840 0.04350 0.43737
 H131 H 0.99652 0.05927 0.41859
 C132 C 1.03585 0.00319 0.48743
 H133 H 1.04652 -0.01307 0.50647
 C134 C 1.05717 0.02176 0.46653
 H135 H 1.08413 0.01984 0.46996
 Zn136 Zn 0.97259 -0.02222 0.50930
 N137 N 1.00193 0.00493 0.48328
 C138 C 0.94529 0.03936 0.53406
 N139 N 0.94380 0.00499 0.53536
 C140 C 0.92282 -0.01125 0.55690
 C141 C 0.90211 0.00716 0.57817
 C142 C 0.92498 0.05886 0.55489
 C143 C 0.96477 -0.06861 0.45687
 C144 C 0.94794 -0.08670 0.43166
 C145 C 0.89550 -0.06442 0.45203
 C146 C 0.91338 -0.04681 0.47685
 N147 N 0.94741 -0.04916 0.47879
 H148 H 0.96258 0.05181 0.51720
 H149 H 0.92247 -0.03864 0.55773
 H150 H 0.88576 -0.00649 0.59522
 H151 H 0.92703 0.08604 0.55280
 H152 H 0.99192 -0.06939 0.45853
 H153 H 0.96301 -0.10107 0.41441
 H154 H 0.86842 -0.06171 0.45072
 H155 H 0.90007 -0.03056 0.49394
 C156 C 1.04357 0.04181 0.44077
 C157 C 1.03398 -0.08620 0.58675
 C158 C 0.91264 -0.08456 0.42870
 C159 C 0.90308 0.04277 0.57774
 C160 C 0.15168 0.23843 1.17683
 C161 C 0.16677 0.25552 1.14994
 C162 C 0.14874 0.28157 1.13011
 C163 C 0.16713 0.30709 1.11376
 C164 C 0.15072 0.33163 1.09436
 C165 C 0.11548 0.33086 1.09076
 C166 C 0.09726 0.30484 1.10651
 C167 C 0.11361 0.28049 1.12597
 C168 C 0.09671 0.35575 1.07015
 C169 C 0.10916 0.38763 1.06097
 H170 H 0.19275 0.25113 1.14371
 H171 H 0.19427 0.30807 1.11604
 H172 H 0.16584 0.35056 1.08181
 H173 H 0.07017 0.30332 1.10373
 H174 H 0.09869 0.26045 1.13708
 H175 H 0.07151 0.34855 1.06253
 H176 H 0.12729 0.24728 1.18480
 H177 H 0.13457 0.39482 1.06786
 C178 C -0.15711 0.73285 1.13934
 C179 C -0.13167 0.71082 1.14998
 C180 C -0.11564 0.68614 1.12720
 C181 C -0.09982 0.65765 1.14104
 C182 C -0.08363 0.63429 1.12045
 C183 C -0.08286 0.63903 1.08540
 C184 C -0.09819 0.66785 1.07166
 C185 C -0.11437 0.69118 1.09224
 C186 C -0.06527 0.61560 1.06244
 C187 C -0.05574 0.58269 1.07112
 H188 H -0.12370 0.71026 1.17595
 H189 H -0.09990 0.65350 1.16795
 H190 H -0.07123 0.61314 1.13236
 H191 H -0.09749 0.67246 1.04484
 H192 H -0.12505 0.71347 1.08065
 H193 H -0.05956 0.62504 1.03761
 H194 H -0.16678 0.72964 1.11403
 H195 H -0.06110 0.57307 1.09594
 C196 C -0.18882 0.27830 0.81283
 C197 C -0.16043 0.29655 0.80218
 C198 C -0.14384 0.32348 0.82251
 C199 C -0.11037 0.33216 0.81536
 C200 C -0.09320 0.35647 0.83450
 C201 C -0.10917 0.37264 0.86145
 C202 C -0.14306 0.36502 0.86772
 C203 C -0.16029 0.34077 0.84850
 C204 C -0.09163 0.39777 0.88320
 C205 C -0.05658 0.39891 0.88720
 H206 H -0.14816 0.29006 0.77902
 H207 H -0.09727 0.31980 0.79506
 H208 H -0.06760 0.36262 0.82775
 H209 H -0.15621 0.37763 0.88784
 H210 H -0.18645 0.33605 0.85405
 H211 H -0.10744 0.41429 0.89766
 H212 H -0.19976 0.28523 0.83661
 H213 H -0.04192 0.38056 0.87360
 C214 C 0.19557 0.75947 0.84162
 C215 C 0.16763 0.73894 0.83397
 C216 C 0.15797 0.70846 0.85365
 C217 C 0.13468 0.68559 0.83955
 C218 C 0.12343 0.65744 0.85769
 C219 C 0.13545 0.65134 0.89049
 C220 C 0.15866 0.67429 0.90464
 C221 C 0.16975 0.70257 0.88657
 C222 C 0.12297 0.62286 0.91150
 C223 C 0.10536 0.59479 0.89858
 H224 H 0.15215 0.74443 0.81229
 H225 H 0.12472 0.68977 0.81449
 H226 H 0.10465 0.64130 0.84607
 H227 H 0.16791 0.67061 0.93004
 H228 H 0.18674 0.72004 0.89901
 H229 H 0.12805 0.62474 0.93810
 H230 H 0.21240 0.75104 0.86134
 H231 H 0.10305 0.59253 0.87160
 C232 C 1.13930 0.15718 0.26673
 C233 C 1.14780 0.13027 0.28807
 C234 C 1.12451 0.11644 0.31363
 C235 C 1.13780 0.09857 0.34111
 C236 C 1.11659 0.08402 0.36505
 C237 C 1.08145 0.08699 0.36191
 C238 C 1.06819 0.10449 0.33418
 C239 C 1.08940 0.11906 0.31028
 C240 C 1.05780 0.07082 0.38577
 C241 C 1.06680 0.06020 0.41812
 H242 H 1.17261 0.11940 0.28740
 H243 H 1.16474 0.09565 0.34394
 H244 H 1.12794 0.06979 0.38531
 H245 H 1.04123 0.10667 0.33082
 H246 H 1.07807 0.13148 0.28882
 H247 H 1.03226 0.06694 0.37702
 H248 H 1.11575 0.16991 0.27131
 H249 H 1.09229 0.06410 0.42699
 C250 C 1.17120 -0.14697 0.75981
 C251 C 1.14752 -0.16388 0.73971
 C252 C 1.12573 -0.14610 0.71513
 C253 C 1.11227 -0.16414 0.68775
 C254 C 1.09167 -0.14806 0.66406
 C255 C 1.08396 -0.11347 0.66745
 C256 C 1.09674 -0.09575 0.69536
 C257 C 1.11733 -0.11180 0.71896
 C258 C 1.06257 -0.09482 0.64308
 C259 C 1.05373 -0.10660 0.61106
 H260 H 1.14606 -0.19125 0.74050
 H261 H 1.11790 -0.19074 0.68456
 H262 H 1.08172 -0.16304 0.64354
 H263 H 1.09084 -0.06925 0.69892
 H264 H 1.12612 -0.09732 0.74038
 H265 H 1.05390 -0.07014 0.65080
 H266 H 1.17554 -0.12020 0.75569
 H267 H 1.06098 -0.13169 0.60325
 C268 C 0.83965 -0.19773 0.24315
 C269 C 0.83784 -0.16551 0.25756
 C270 C 0.85474 -0.15603 0.28956
 C271 C 0.84403 -0.12688 0.30641
 C272 C 0.86038 -0.11587 0.33567
 C273 C 0.88796 -0.13386 0.34873
 C274 C 0.89880 -0.16290 0.33179
 C275 C 0.88241 -0.17396 0.30256
 C276 C 0.90740 -0.12176 0.37834
 C277 C 0.89399 -0.10026 0.40273
 H278 H 0.82399 -0.14581 0.24476
 H279 H 0.82316 -0.11228 0.29665
 H280 H 0.85197 -0.09268 0.34722
 H281 H 0.92035 -0.17686 0.34097
 H282 H 0.89229 -0.19585 0.28982
 H283 H 0.93280 -0.13093 0.38083
 H284 H 0.85338 -0.21742 0.25609
 H285 H 0.86729 -0.09520 0.40152
 C286 C 0.80992 0.19457 0.71976
 C287 C 0.80706 0.16058 0.71022
 C288 C 0.82556 0.14547 0.68178
 C289 C 0.81439 0.11428 0.66883
 C290 C 0.83210 0.09809 0.64333
 C291 C 0.86177 0.11260 0.63054
 C292 C 0.87253 0.14414 0.64295
 C293 C 0.85483 0.16034 0.66845
 C294 C 0.88214 0.09567 0.60453
 C295 C 0.88259 0.06041 0.60044
 H296 H 0.79117 0.14370 0.72457
 H297 H 0.79187 0.10232 0.67854
 H298 H 0.82228 0.07439 0.63366
 H299 H 0.89526 0.15590 0.63348
 H300 H 0.86489 0.18389 0.67817
 H301 H 0.89898 0.11168 0.59039
 H302 H 0.82569 0.21151 0.70535
 H303 H 0.86698 0.04532 0.61694
 C304 C 0.23764 1.14774 0.19155
 C305 C 0.26412 1.16285 0.17409
 C306 C 0.29307 1.14342 0.16141
 C307 C 0.32387 1.16008 0.15637
 C308 C 0.35142 1.14266 0.14349
 C309 C 0.34846 1.10820 0.13471
 C310 C 0.31761 1.09158 0.13994
 C311 C 0.29018 1.10894 0.15300
 C312 C 0.37641 1.08859 0.11990
 C313 C 0.40571 1.10313 0.10681
 H314 H 0.26448 1.19007 0.17078
 H315 H 0.32669 1.18665 0.16264
 H316 H 0.37480 1.15642 0.14073
 H317 H 0.31451 1.06511 0.13338
 H318 H 0.26658 1.09545 0.15566
 H319 H 0.37236 1.06163 0.11716
 H320 H 0.23961 1.12138 0.19880
 H321 H 0.40870 1.13034 0.10696
 C322 C 0.72327 1.18914 -0.18972
 C323 C 0.71665 1.18989 -0.15529
 C324 C 0.68874 1.17092 -0.13931
 C325 C 0.69067 1.16448 -0.10469
 C326 C 0.66522 1.14640 -0.08847
 C327 C 0.63689 1.13473 -0.10653
 C328 C 0.63486 1.14125 -0.14114
 C329 C 0.66035 1.15938 -0.15739
 C330 C 0.60987 1.11460 -0.09037
 C331 C 0.60311 1.11638 -0.05599
 H332 H 0.73417 1.20285 -0.13872
 H333 H 0.71227 1.17299 -0.09017
 H334 H 0.66836 1.14098 -0.06201
 H335 H 0.61335 1.13248 -0.15564
 H336 H 0.65742 1.16454 -0.18392
 H337 H 0.59500 1.09822 -0.10644
 H338 H 0.70818 1.17303 -0.20591
 H339 H 0.61715 1.13436 -0.04082
 C340 C 0.27249 0.85806 -0.16747
 C341 C 0.28603 0.85569 -0.13504
 C342 C 0.31369 0.87764 -0.12221
 C343 C 0.33071 0.86790 -0.09278
 C344 C 0.35580 0.88856 -0.07875
 C345 C 0.36448 0.91955 -0.09398
 C346 C 0.34731 0.92943 -0.12326
 C347 C 0.32222 0.90878 -0.13730
 C348 C 0.38963 0.94308 -0.07899
 C349 C 0.41503 0.93256 -0.05682
 H350 H 0.27552 0.83746 -0.11767
 H351 H 0.32427 0.84435 -0.08031
 H352 H 0.36750 0.88053 -0.05550
 H353 H 0.35309 0.95344 -0.13517
 H354 H 0.30908 0.91795 -0.15930
 H355 H 0.38818 0.96923 -0.08677
 H356 H 0.28285 0.87622 -0.18496
 H357 H 0.41791 0.90561 -0.05278
 C358 C 0.76100 0.82431 0.14514
 C359 C 0.73763 0.84450 0.16167
 C360 C 0.71261 0.86519 0.14325
 C361 C 0.68211 0.87324 0.15872
 C362 C 0.65787 0.89239 0.14170
 C363 C 0.66401 0.90436 0.10896
 C364 C 0.69474 0.89666 0.09378
 C365 C 0.71887 0.87751 0.11073
 C366 C 0.63895 0.92383 0.08924
 C367 C 0.61196 0.94132 0.10338
 H368 H 0.73618 0.84377 0.18878
 H369 H 0.67677 0.86413 0.18381
 H370 H 0.63425 0.89702 0.15406
 H371 H 0.70022 0.90563 0.06867
 H372 H 0.74252 0.87283 0.09840
 H373 H 0.64348 0.92536 0.06260
 H374 H 0.75916 0.82187 0.11810
 H375 H 0.60993 0.94161 0.13047
   
