data_POSCAR
  _audit_creation_date              2014-09-24
  _audit_creation_method            'ToBaCCo'
  _symmetry_space_group_name_H-M    'P1'
  _symmetry_Int_Tables_number       1
  _symmetry_cell_setting            triclinic
  loop_
  _symmetry_equiv_pos_as_xyz
 x,y,z
_cell_length_a 49.0303
_cell_length_b 46.7960
_cell_length_c 47.1232
_cell_angle_alpha 89.030100
_cell_angle_beta 88.943700
_cell_angle_gamma 90.366700
loop_
  _atom_site_label
  _atom_site_type_symbol
  _atom_site_fract_x
  _atom_site_fract_y
  _atom_site_fract_z
N1 N 0.58492 0.66977 0.61433
 N2 N 0.57550 0.65884 0.63846
 C3 C 0.55358 0.67389 0.64698
 C4 C 0.54900 0.69542 0.62711
 C5 C 0.56932 0.69205 0.60664
 H6 H 0.54189 0.66955 0.66625
 H7 H 0.57300 0.70529 0.58794
 Cu8 Cu 0.59320 0.62643 0.65663
 Cu9 Cu 0.61758 0.65541 0.59543
 Cu10 Cu 0.65036 0.59866 0.62822
 N11 N 0.61074 0.59331 0.67371
 N12 N 0.63343 0.58303 0.66288
 C13 C 0.64121 0.56034 0.67859
 C14 C 0.62224 0.55584 0.70053
 C15 C 0.60318 0.57737 0.69661
 H16 H 0.65903 0.54774 0.67379
 H17 H 0.58509 0.58124 0.70935
 N18 N 0.66409 0.61722 0.59287
 N19 N 0.65101 0.63804 0.57980
 C20 C 0.66474 0.64523 0.55567
 C21 C 0.68767 0.62829 0.55358
 C22 C 0.68663 0.61083 0.57755
 H23 H 0.65880 0.66188 0.54091
 H24 H 0.70100 0.59431 0.58309
 H25 H 0.61457 0.61401 0.61143
 H26 H 0.63558 0.63977 0.63174
 N27 N 0.90267 0.32893 0.12014
 N28 N 0.91642 0.34372 0.13856
 C29 C 0.94026 0.33067 0.14355
 C30 C 0.94149 0.30594 0.12763
 C31 C 0.91701 0.30557 0.11316
 H32 H 0.95519 0.33844 0.15818
 H33 H 0.91022 0.28999 0.09810
 Cu34 Cu 0.90109 0.37772 0.15553
 Cu35 Cu 0.86751 0.34185 0.10622
 Cu36 Cu 0.85785 0.41466 0.11525
 N37 N 0.88682 0.41424 0.16758
 N38 N 0.87035 0.42903 0.15138
 C39 C 0.86443 0.45388 0.16399
 C40 C 0.87761 0.45449 0.18974
 C41 C 0.89164 0.42893 0.19129
 H42 H 0.85110 0.47000 0.15529
 H43 H 0.90470 0.42177 0.20818
 N44 N 0.83802 0.39211 0.08722
 N45 N 0.84094 0.36428 0.08451
 C46 C 0.82394 0.35506 0.06446
 C47 C 0.80945 0.37823 0.05403
 C48 C 0.81899 0.40134 0.06909
 H49 H 0.82256 0.33313 0.05781
 H50 H 0.81234 0.42326 0.06742
 H51 H 0.88464 0.38100 0.10709
 H52 H 0.85636 0.37516 0.13362
 N53 N 0.41202 0.16479 -0.10424
 N54 N 0.42146 0.15521 -0.12853
 C55 C 0.44501 0.16890 -0.13529
 C56 C 0.45065 0.18811 -0.11408
 C57 C 0.42923 0.18481 -0.09469
 H58 H 0.45711 0.16521 -0.15425
 H59 H 0.42596 0.19665 -0.07544
 Cu60 Cu 0.40184 0.12613 -0.14920
 Cu61 Cu 0.37742 0.15176 -0.08753
 Cu62 Cu 0.34158 0.10060 -0.12428
 N63 N 0.38231 0.09604 -0.16855
 N64 N 0.35857 0.08651 -0.15893
 C65 C 0.34967 0.06577 -0.17596
 C66 C 0.36889 0.06194 -0.19745
 C67 C 0.38935 0.08157 -0.19202
 H68 H 0.33090 0.05387 -0.17248
 H69 H 0.40799 0.08504 -0.20422
 N70 N 0.32789 0.11732 -0.08873
 N71 N 0.34196 0.13605 -0.07422
 C72 C 0.32773 0.14249 -0.05047
 C73 C 0.30345 0.12725 -0.05013
 C74 C 0.30424 0.11157 -0.07474
 H75 H 0.33430 0.15749 -0.03476
 H76 H 0.28890 0.09665 -0.08162
 H77 H 0.37781 0.11171 -0.10548
 H78 H 0.35975 0.14065 -0.12525
 N79 N 0.09935 0.82069 0.38647
 N80 N 0.08615 0.83427 0.36641
 C81 C 0.06371 0.81912 0.36006
 C82 C 0.06285 0.79443 0.37686
 C83 C 0.08604 0.79623 0.39327
 H84 H 0.04926 0.82559 0.34420
 H85 H 0.09234 0.78148 0.40973
 Cu86 Cu 0.09969 0.87036 0.35046
 Cu87 Cu 0.13154 0.83686 0.40394
 Cu88 Cu 0.15382 0.90319 0.37857
 N89 N 0.11305 0.90699 0.33569
 N90 N 0.13366 0.92016 0.34736
 C91 C 0.13862 0.94495 0.33324
 C92 C 0.12033 0.94729 0.31132
 C93 C 0.10441 0.92280 0.31351
 H94 H 0.15492 0.95971 0.33792
 H95 H 0.08781 0.91700 0.29992
 N96 N 0.17162 0.88239 0.40981
 N97 N 0.16352 0.85687 0.41900
 C98 C 0.17998 0.84815 0.43996
 C99 C 0.19941 0.86916 0.44425
 C100 C 0.19343 0.89056 0.42471
 H101 H 0.17771 0.82814 0.45156
 H102 H 0.20436 0.91049 0.42136
 H103 H 0.12178 0.87900 0.39545
 H104 H 0.14487 0.86125 0.36930
 N105 N 0.11058 0.11934 0.11583
 N106 N 0.38192 0.88640 0.61503
 N107 N 0.87437 0.62651 0.38027
 N108 N 0.63715 0.36106 -0.12807
 C109 C -0.01202 0.29136 0.13941
 C110 C 0.00912 0.27151 0.13814
 C111 C 0.00548 0.24547 0.12463
 C112 C -0.01949 0.23960 0.11178
 C113 C -0.04051 0.25966 0.11246
 C114 C -0.03722 0.28583 0.12650
 N115 N 0.02746 0.22549 0.12411
 N116 N 0.02387 0.19935 0.11805
 C117 C 0.04602 0.17958 0.11716
 C118 C 0.04029 0.15023 0.11779
 C119 C 0.06149 0.13042 0.11755
 C120 C 0.08874 0.13975 0.11599
 C121 C 0.09451 0.16916 0.11481
 C122 C 0.07332 0.18898 0.11564
 H123 H -0.00819 0.31117 0.15014
 H124 H 0.02835 0.27632 0.14800
 H125 H -0.02269 0.21962 0.10104
 H126 H -0.05942 0.25421 0.10235
 H127 H 0.01934 0.14274 0.11887
 H128 H 0.05673 0.10779 0.11832
 H129 H 0.11544 0.17667 0.11368
 H130 H 0.07822 0.21157 0.11493
 C131 C 0.51345 0.72349 0.65347
 C132 C 0.49385 0.74504 0.65443
 C133 C 0.48807 0.76123 0.63009
 C134 C 0.50212 0.75558 0.60457
 C135 C 0.52180 0.73412 0.60358
 C136 C 0.52776 0.71784 0.62805
 N137 N 0.46806 0.78333 0.63190
 N138 N 0.46124 0.79821 0.61035
 C139 C 0.44137 0.82044 0.61212
 C140 C 0.43379 0.83477 0.58722
 C141 C 0.41434 0.85645 0.58815
 C142 C 0.40225 0.86424 0.61413
 C143 C 0.41001 0.84998 0.63915
 C144 C 0.42938 0.82820 0.63819
 H145 H 0.51761 0.71161 0.67278
 H146 H 0.48319 0.74922 0.67425
 H147 H 0.49799 0.76778 0.58542
 H148 H 0.53219 0.73022 0.58358
 H149 H 0.44293 0.82904 0.56703
 H150 H 0.40878 0.86729 0.56864
 H151 H 0.40081 0.85552 0.65937
 H152 H 0.43493 0.81746 0.65775
 C153 C 1.04648 0.74713 0.39316
 C154 C 1.02637 0.72581 0.39401
 C155 C 1.00176 0.72985 0.38007
 C156 C 0.99766 0.75525 0.36454
 C157 C 1.01796 0.77635 0.36308
 C158 C 1.04264 0.77280 0.37763
 N159 N 0.98134 0.70785 0.38183
 N160 N 0.95657 0.71270 0.37591
 C161 C 0.93621 0.69063 0.37707
 C162 C 0.90865 0.69827 0.37779
 C163 C 0.88831 0.67721 0.37917
 C164 C 0.89532 0.64819 0.37914
 C165 C 0.92292 0.64050 0.37800
 C166 C 0.94328 0.66156 0.37723
 H167 H 1.06513 0.74307 0.40438
 H168 H 1.02982 0.70621 0.40592
 H169 H 0.97883 0.75872 0.35339
 H170 H 1.01382 0.79562 0.35099
 H171 H 0.90297 0.72059 0.37758
 H172 H 0.86708 0.68344 0.37990
 H173 H 0.92862 0.61818 0.37803
 H174 H 0.96446 0.65517 0.37648
 C175 C 0.48035 0.22184 -0.08733
 C176 C 0.50187 0.24152 -0.08638
 C177 C 0.51719 0.24841 -0.11091
 C178 C 0.51093 0.23508 -0.13650
 C179 C 0.48951 0.21529 -0.13746
 C180 C 0.47385 0.20854 -0.11291
 N181 N 0.53872 0.26914 -0.10932
 N182 N 0.55250 0.27736 -0.13114
 C183 C 0.57394 0.29820 -0.12972
 C184 C 0.58170 0.31003 -0.10383
 C185 C 0.60254 0.33055 -0.10327
 C186 C 0.61589 0.33959 -0.12853
 C187 C 0.60807 0.32767 -0.15433
 C188 C 0.58731 0.30710 -0.15486
 H189 H 0.46895 0.21697 -0.06795
 H190 H 0.50654 0.25159 -0.06651
 H191 H 0.52249 0.24004 -0.15577
 H192 H 0.48500 0.20568 -0.15757
 H193 H 0.57165 0.30352 -0.08410
 H194 H 0.60808 0.33963 -0.08318
 H195 H 0.61817 0.33421 -0.17403
 H196 H 0.58153 0.29813 -0.17493
 C197 C 0.12773 -0.00186 0.29550
 C198 C 0.12654 0.01982 0.27478
 C199 C 0.11715 0.01390 0.24763
 C200 C 0.10837 -0.01393 0.24152
 C201 C 0.10905 -0.03549 0.26238
 C202 C 0.11893 -0.02971 0.28951
 N203 N 0.11665 0.03643 0.22670
 N204 N 0.11378 0.03143 0.20045
 C205 C 0.11281 0.05391 0.17951
 C206 C 0.11581 0.04712 0.15081
 C207 C 0.11528 0.06861 0.12988
 C208 C 0.11117 0.09718 0.13739
 C209 C 0.10773 0.10395 0.16614
 C210 C 0.10877 0.08252 0.18710
 H211 H 0.13522 0.00325 0.31630
 H212 H 0.13326 0.04121 0.27976
 H213 H 0.10088 -0.01897 0.22071
 H214 H 0.10233 -0.05680 0.25710
 H215 H 0.11884 0.02514 0.14471
 H216 H 0.11779 0.06301 0.10779
 H217 H 0.10462 0.12590 0.17229
 H218 H 0.10622 0.08824 0.20915
 C219 C 0.60007 0.53093 -0.25881
 C220 C 0.59974 0.50898 -0.23832
 C221 C 0.62136 0.48979 -0.23661
 C222 C 0.64349 0.49270 -0.25577
 C223 C 0.64381 0.51446 -0.27647
 C224 C 0.62207 0.53400 -0.27840
 N225 N 0.62023 0.46744 -0.21545
 N226 N 0.64022 0.45082 -0.21109
 C227 C 0.63893 0.42826 -0.19018
 C228 C 0.66263 0.41294 -0.18420
 C229 C 0.66210 0.39091 -0.16379
 C230 C 0.63770 0.38369 -0.14925
 C231 C 0.61386 0.39887 -0.15544
 C232 C 0.61446 0.42107 -0.17566
 H233 H 0.58280 0.54515 -0.25927
 H234 H 0.58253 0.50693 -0.22367
 H235 H 0.66048 0.47806 -0.25488
 H236 H 0.66130 0.51581 -0.29073
 H237 H 0.68159 0.41822 -0.19530
 H238 H 0.68064 0.37933 -0.15942
 H239 H 0.59489 0.39367 -0.14435
 H240 H 0.59584 0.43253 -0.17998
 C241 C 0.34347 1.02701 0.77283
 C242 C 0.34276 1.00679 0.75136
 C243 C 0.36651 0.99989 0.73617
 C244 C 0.39113 1.01370 0.74252
 C245 C 0.39187 1.03402 0.76392
 C246 C 0.36807 1.04083 0.77943
 N247 N 0.36506 0.97876 0.71460
 N248 N 0.38604 0.97065 0.70070
 C249 C 0.38449 0.94946 0.67918
 C250 C 0.40850 0.94091 0.66534
 C251 C 0.40770 0.92020 0.64433
 C252 C 0.38277 0.90776 0.63677
 C253 C 0.35867 0.91638 0.65068
 C254 C 0.35949 0.93704 0.67172
 H255 H 0.32469 1.03188 0.78408
 H256 H 0.32364 0.99636 0.74660
 H257 H 0.40979 1.00873 0.73105
 H258 H 0.41120 1.04403 0.76852
 H259 H 0.42788 0.95034 0.67087
 H260 H 0.42650 0.91403 0.63377
 H261 H 0.33925 0.90692 0.64536
 H262 H 0.34064 0.94325 0.68214
 C263 C 0.87084 0.50564 0.20296
 C264 C 0.87027 0.52722 0.22312
 C265 C 0.87512 0.52084 0.25169
 C266 C 0.88089 0.49255 0.25992
 C267 C 0.88187 0.47103 0.23973
 C268 C 0.87676 0.47733 0.21105
 N269 N 0.87435 0.54341 0.27182
 N270 N 0.87447 0.53849 0.29847
 C271 C 0.87428 0.56104 0.31864
 C272 C 0.86986 0.55424 0.34740
 C273 C 0.86962 0.57574 0.36763
 C274 C 0.87423 0.60436 0.35938
 C275 C 0.87889 0.61114 0.33054
 C276 C 0.87875 0.58969 0.31027
 H277 H 0.86705 0.51120 0.18100
 H278 H 0.86590 0.54896 0.21650
 H279 H 0.88483 0.48711 0.28188
 H280 H 0.88628 0.44940 0.24666
 H281 H 0.86650 0.53223 0.35411
 H282 H 0.86621 0.57005 0.38978
 H283 H 0.88238 0.63310 0.32375
 H284 H 0.88234 0.59544 0.28817
 C285 C 0.28734 0.13456 -0.00003
 C286 C 0.26667 0.13425 0.02082
 C287 C 0.23983 0.12737 0.01387
 C288 C 0.23385 0.12050 -0.01427
 C289 C 0.25456 0.12037 -0.03505
 C290 C 0.28151 0.12746 -0.02815
 N291 N 0.21919 0.12701 0.03577
 N292 N 0.19392 0.12529 0.03028
 C293 C 0.17332 0.12419 0.05223
 C294 C 0.14596 0.12729 0.04487
 C295 C 0.12536 0.12606 0.06577
 C296 C 0.13184 0.12118 0.09434
 C297 C 0.15929 0.11791 0.10169
 C298 C 0.17991 0.11957 0.08084
 H299 H 0.30794 0.13986 0.00599
 H300 H 0.27156 0.13946 0.04245
 H301 H 0.21325 0.11498 -0.02013
 H302 H 0.24941 0.11502 -0.05656
 H303 H 0.14062 0.13075 0.02289
 H304 H 0.10431 0.12844 0.05965
 H305 H 0.16471 0.11428 0.12362
 H306 H 0.20091 0.11697 0.08703
 C307 C 0.70216 0.63786 0.50306
 C308 C 0.72197 0.63797 0.48134
 C309 C 0.74868 0.62950 0.48692
 C310 C 0.75535 0.62047 0.51451
 C311 C 0.73544 0.61987 0.53614
 C312 C 0.70868 0.62869 0.53065
 N313 N 0.76853 0.62998 0.46423
 N314 N 0.79394 0.62766 0.46874
 C315 C 0.81379 0.62752 0.44608
 C316 C 0.84139 0.63074 0.45245
 C317 C 0.86128 0.63072 0.43082
 C318 C 0.85382 0.62691 0.40251
 C319 C 0.82616 0.62340 0.39613
 C320 C 0.80623 0.62391 0.41772
 H321 H 0.68165 0.64451 0.49814
 H322 H 0.71656 0.64485 0.46013
 H323 H 0.77585 0.61368 0.51929
 H324 H 0.74110 0.61288 0.55723
 H325 H 0.84746 0.63344 0.47423
 H326 H 0.88253 0.63328 0.43615
 H327 H 0.82005 0.62054 0.37439
 H328 H 0.78502 0.62122 0.41230
 C329 C 0.77766 0.40427 0.02145
 C330 C 0.75776 0.40440 0.00061
 C331 C 0.74815 0.37876 -0.01039
 C332 C 0.75870 0.35276 -0.00028
 C333 C 0.77860 0.35256 0.02061
 C334 C 0.78835 0.37833 0.03178
 N335 N 0.72772 0.37981 -0.03171
 N336 N 0.71823 0.35742 -0.04302
 C337 C 0.69776 0.35880 -0.06431
 C338 C 0.68859 0.33344 -0.07637
 C339 C 0.66870 0.33412 -0.09726
 C340 C 0.65762 0.36026 -0.10639
 C341 C 0.66683 0.38569 -0.09419
 C342 C 0.68673 0.38500 -0.07335
 H343 H 0.78465 0.42457 0.02926
 H344 H 0.74980 0.42458 -0.00706
 H345 H 0.75155 0.33262 -0.00844
 H346 H 0.78615 0.33216 0.02803
 H347 H 0.69695 0.31313 -0.06961
 H348 H 0.66212 0.31426 -0.10650
 H349 H 0.65846 0.40607 -0.10067
 H350 H 0.69343 0.40490 -0.06432
 C351 C 0.22900 0.84321 0.47901
 C352 C 0.24983 0.84293 0.49886
 C353 C 0.26360 0.86816 0.50541
 C354 C 0.25637 0.89385 0.49175
 C355 C 0.23558 0.89417 0.47183
 C356 C 0.22160 0.86885 0.46525
 N357 N 0.28475 0.86706 0.52596
 N358 N 0.29771 0.88927 0.53342
 C359 C 0.31885 0.88803 0.55397
 C360 C 0.33187 0.91337 0.56165
 C361 C 0.35254 0.91289 0.58169
 C362 C 0.36055 0.88694 0.59434
 C363 C 0.34749 0.86151 0.58658
 C364 C 0.32680 0.86201 0.56658
 H365 H 0.21894 0.82325 0.47433
 H366 H 0.25528 0.82298 0.50919
 H367 H 0.26671 0.91367 0.49648
 H368 H 0.23034 0.91434 0.46188
 H369 H 0.32596 0.93354 0.55205
 H370 H 0.36246 0.93272 0.58719
 H371 H 0.35319 0.84130 0.59621
 H372 H 0.31703 0.84212 0.56102
   
