data_POSCAR
  _audit_creation_date              2014-09-24
  _audit_creation_method            'ToBaCCo'
  _symmetry_space_group_name_H-M    'P1'
  _symmetry_Int_Tables_number       1
  _symmetry_cell_setting            triclinic
  loop_
  _symmetry_equiv_pos_as_xyz
 x,y,z
_cell_length_a 31.0742
_cell_length_b 35.0877
_cell_length_c 9.1050
_cell_angle_alpha 90.817600
_cell_angle_beta 89.659800
_cell_angle_gamma 89.569500
loop_
  _atom_site_label
  _atom_site_type_symbol
  _atom_site_fract_x
  _atom_site_fract_y
  _atom_site_fract_z
O1 O 0.21970 0.29945 0.14483
 O2 O 0.30203 0.22414 0.09722
 O3 O 0.22167 0.23243 0.02102
 O4 O 0.29969 0.29153 0.22323
 O5 O 0.27977 0.26465 0.43055
 O6 O 0.20079 0.20673 0.22932
 O7 O 0.28076 0.19792 0.30422
 O8 O 0.19997 0.27435 0.35578
 Cu9 Cu 0.26292 0.26444 0.10055
 Cu10 Cu 0.23811 0.23332 0.35058
 C11 C 0.19615 0.29990 0.25920
 C12 C 0.30533 0.19818 0.19238
 C13 C 0.19794 0.20948 0.09080
 C14 C 0.30300 0.28807 0.36144
 O15 O 0.71002 0.29946 0.27000
 O16 O 0.77643 0.23251 0.05042
 O17 O 0.69692 0.23383 0.14875
 O18 O 0.78899 0.29890 0.17501
 O19 O 0.80971 0.27118 0.37922
 O20 O 0.71957 0.20416 0.34659
 O21 O 0.79869 0.20480 0.25283
 O22 O 0.73021 0.27039 0.47221
 Cu23 Cu 0.74121 0.26889 0.14048
 Cu24 Cu 0.76672 0.23480 0.38258
 C25 C 0.70841 0.29599 0.40839
 C26 C 0.79896 0.20740 0.11403
 C27 C 0.69246 0.20811 0.24415
 C28 C 0.81472 0.29649 0.28242
 O29 O 0.70818 0.78968 0.63240
 O30 O 0.78353 0.70857 0.58641
 O31 O 0.70167 0.71525 0.64075
 O32 O 0.79043 0.78234 0.57875
 O33 O 0.80278 0.78489 0.81720
 O34 O 0.71420 0.71780 0.87924
 O35 O 0.79637 0.71024 0.82476
 O36 O 0.72147 0.79137 0.87052
 Cu37 Cu 0.74457 0.74881 0.58587
 Cu38 Cu 0.76016 0.75109 0.87170
 C39 C 0.70234 0.80451 0.75917
 C40 C 0.80255 0.69548 0.69811
 C41 C 0.69295 0.70506 0.77077
 C42 C 0.81137 0.79545 0.68751
 O43 O 0.30715 0.77443 0.88583
 O44 O 0.21810 0.70600 0.86341
 O45 O 0.29785 0.70564 0.77791
 O46 O 0.22645 0.77465 0.96871
 O47 O 0.20927 0.79968 0.75552
 O48 O 0.27809 0.72901 0.56442
 O49 O 0.19748 0.73148 0.65445
 O50 O 0.28875 0.79759 0.67057
 Cu51 Cu 0.26445 0.73780 0.89530
 Cu52 Cu 0.24160 0.76665 0.63919
 C53 C 0.31310 0.79761 0.78199
 C54 C 0.19213 0.70770 0.75665
 C55 C 0.29993 0.70550 0.63865
 C56 C 0.20567 0.79894 0.89442
 C57 C 0.97880 0.00126 -0.07903
 C58 C 1.02173 0.00373 -0.05333
 C59 C 1.04409 0.04100 -0.04427
 C60 C 1.04890 -0.03095 -0.04039
 C61 C 0.95897 -0.03516 -0.12745
 C62 C 0.95025 0.03533 -0.06993
 C63 C 1.04033 0.06736 -0.15808
 C64 C 1.06457 0.10074 -0.15628
 C65 C 1.09341 0.10828 -0.04121
 C66 C 1.09640 0.08220 0.07434
 C67 C 1.07214 0.04882 0.07229
 C68 C 1.08465 -0.03630 -0.13321
 C69 C 1.11120 -0.06827 -0.11854
 C70 C 1.10291 -0.09502 -0.00874
 C71 C 1.06715 -0.08956 0.08446
 C72 C 1.04019 -0.05785 0.06820
 C73 C 0.92339 -0.04969 -0.05183
 C74 C 0.90225 -0.08204 -0.10522
 C75 C 0.91583 -0.09991 -0.23698
 C76 C 0.95197 -0.08567 -0.31096
 C77 C 0.97337 -0.05363 -0.25656
 C78 C 0.94884 0.05833 0.05747
 C79 C 0.92178 0.09031 0.06503
 C80 C 0.89584 0.09994 -0.05507
 C81 C 0.89710 0.07668 -0.18191
 C82 C 0.92385 0.04455 -0.18891
 H83 H 1.01945 0.06161 -0.25038
 H84 H 1.06093 0.12037 -0.24601
 H85 H 1.11849 0.08688 0.16412
 H86 H 1.07575 0.02873 0.16073
 H87 H 1.09191 -0.01573 -0.21726
 H88 H 1.13872 -0.07162 -0.19115
 H89 H 1.01289 -0.05395 0.14151
 H90 H 0.91160 -0.03560 0.04730
 H91 H 0.87426 -0.09207 -0.04646
 H92 H 0.96345 -0.09898 -0.41193
 H93 H 1.00036 -0.04247 -0.31765
 H94 H 0.96860 0.05140 0.15105
 H95 H 0.92163 0.10773 0.16407
 H96 H 0.87700 0.08295 -0.27519
 H97 H 0.92432 0.02707 -0.28796
 H98 H 1.05977 -0.10995 0.16890
 C99 C 0.47802 0.49506 0.55006
 C100 C 0.52088 0.49718 0.57850
 C101 C 0.54147 0.53378 0.62037
 C102 C 0.54916 0.46292 0.57549
 C103 C 0.45540 0.45803 0.53498
 C104 C 0.45111 0.52996 0.53962
 C105 C 0.57755 0.54644 0.54235
 C106 C 0.59933 0.57915 0.58846
 C107 C 0.58578 0.59945 0.71491
 C108 C 0.54914 0.58705 0.79132
 C109 C 0.52724 0.55448 0.74462
 C110 C 0.55208 0.43945 0.44969
 C111 C 0.58006 0.40806 0.44660
 C112 C 0.60546 0.39957 0.56936
 C113 C 0.60232 0.42309 0.69511
 C114 C 0.57464 0.45459 0.69779
 C115 C 0.45847 0.43047 0.64471
 C116 C 0.43457 0.39696 0.63509
 C117 C 0.40664 0.39050 0.51642
 C118 C 0.40407 0.41799 0.40579
 C119 C 0.42807 0.45145 0.41533
 C120 C 0.41579 0.53521 0.63444
 C121 C 0.39027 0.56801 0.62605
 C122 C 0.39917 0.59578 0.52064
 C123 C 0.43425 0.59023 0.42441
 C124 C 0.46012 0.55762 0.43418
 H125 H 0.58921 0.53063 0.44690
 H126 H 0.62768 0.58768 0.52808
 H127 H 0.53757 0.60225 0.88815
 H128 H 0.49986 0.54479 0.80765
 H129 H 0.53309 0.44573 0.35353
 H130 H 0.58167 0.39043 0.34820
 H131 H 0.57302 0.47252 0.79552
 H132 H 0.47871 0.43523 0.73950
 H133 H 0.43792 0.37636 0.72150
 H134 H 0.38272 0.41426 0.31339
 H135 H 0.42496 0.47248 0.33000
 H136 H 0.40825 0.51402 0.71587
 H137 H 0.36313 0.57131 0.70042
 H138 H 0.44204 0.61129 0.34289
 H139 H 0.48705 0.55381 0.35921
 H140 H 0.62188 0.41769 0.79059
 C141 C 0.02233 0.50388 0.01384
 C142 C -0.02113 0.49957 0.00337
 C143 C -0.04304 0.46629 0.06839
 C144 C -0.04892 0.52758 -0.07243
 C145 C 0.04500 0.53887 -0.03499
 C146 C 0.04934 0.47267 0.07253
 C147 C -0.06802 0.44223 -0.02029
 C148 C -0.08863 0.41079 0.04007
 C149 C -0.08467 0.40289 0.19043
 C150 C -0.06006 0.42738 0.27926
 C151 C -0.03974 0.45895 0.21908
 C152 C -0.04104 0.53729 -0.21907
 C153 C -0.06631 0.56501 -0.28683
 C154 C -0.09993 0.58344 -0.20911
 C155 C -0.10829 0.57297 -0.06330
 C156 C -0.08324 0.54507 0.00388
 C157 C 0.02870 0.57553 -0.00130
 C158 C 0.04897 0.60788 -0.05543
 C159 C 0.08722 0.60427 -0.13669
 C160 C 0.10504 0.56803 -0.16334
 C161 C 0.08386 0.53556 -0.11437
 C162 C 0.06829 0.47648 0.21119
 C163 C 0.09199 0.44631 0.26960
 C164 C 0.09819 0.41242 0.18801
 C165 C 0.08027 0.40913 0.04714
 C166 C 0.05552 0.43888 -0.00933
 H167 H -0.07114 0.44759 -0.13663
 H168 H -0.10716 0.39242 -0.03159
 H169 H -0.05708 0.42266 0.39588
 H170 H -0.02168 0.47784 0.29037
 H171 H -0.01494 0.52377 -0.28019
 H172 H -0.05881 0.57253 -0.39888
 H173 H -0.08999 0.53771 0.11682
 H174 H 0.00008 0.57920 0.06584
 H175 H 0.03520 0.63578 -0.03197
 H176 H 0.13464 0.56484 -0.22590
 H177 H 0.09755 0.50780 -0.14071
 H178 H 0.06370 0.50240 0.27565
 H179 H 0.10579 0.44960 0.37793
 H180 H 0.08443 0.38319 -0.01743
 H181 H 0.04101 0.43559 -0.11657
 H182 H -0.13432 0.58616 -0.00112
 C183 C 0.52331 1.00354 0.49055
 C184 C 0.47985 0.99900 0.48039
 C185 C 0.45783 0.96631 0.54922
 C186 C 0.45205 1.02708 0.40473
 C187 C 0.54542 1.03866 0.44019
 C188 C 0.55101 0.97335 0.55380
 C189 C 0.43151 0.94256 0.46421
 C190 C 0.41064 0.91173 0.52782
 C191 C 0.41536 0.90427 0.67835
 C192 C 0.44132 0.92852 0.76371
 C193 C 0.46221 0.95933 0.69980
 C194 C 0.46017 1.03715 0.25875
 C195 C 0.43656 1.06643 0.19386
 C196 C 0.40418 1.08615 0.27346
 C197 C 0.39485 1.07460 0.41764
 C198 C 0.41838 1.04523 0.48207
 C199 C 0.52945 1.07523 0.47720
 C200 C 0.54950 1.10772 0.42352
 C201 C 0.58720 1.10431 0.33916
 C202 C 0.60460 1.06810 0.30849
 C203 C 0.58360 1.03551 0.35712
 C204 C 0.57661 0.98177 0.67601
 C205 C 0.60265 0.95363 0.73713
 C206 C 0.60407 0.91668 0.67567
 C207 C 0.57907 0.90848 0.55118
 C208 C 0.55260 0.93657 0.49105
 H209 H 0.42756 0.94765 0.34805
 H210 H 0.39118 0.89358 0.45833
 H211 H 0.44507 0.92420 0.88033
 H212 H 0.48160 0.97793 0.76795
 H213 H 0.48554 1.02296 0.19628
 H214 H 0.44424 1.07368 0.08184
 H215 H 0.41142 1.03767 0.59466
 H216 H 0.50133 1.07869 0.54692
 H217 H 0.53615 1.13558 0.45043
 H218 H 0.63387 1.06505 0.24410
 H219 H 0.59694 1.00775 0.32862
 H220 H 0.57607 1.01009 0.72493
 H221 H 0.62216 0.96105 0.83122
 H222 H 0.57951 0.88026 0.50167
 H223 H 0.53345 0.92972 0.39543
 H224 H 0.37021 1.08879 0.48305
 N225 N 1.13283 0.16039 -0.16933
 N226 N 1.16260 0.18839 -0.13187
 C227 C 1.16884 0.18681 0.01406
 C228 C 1.14342 0.15838 0.07286
 C229 C 1.12161 0.14221 -0.04534
 H230 H 1.14199 0.14997 0.18665
 H231 H 1.12354 0.15383 -0.27662
 H232 H 1.17760 0.20649 -0.20607
 N233 N 0.61272 0.64284 0.91425
 N234 N 0.64132 0.67027 0.92931
 C235 C 0.65824 0.67775 0.79648
 C236 C 0.63971 0.65405 0.69223
 C237 C 0.61108 0.63207 0.77154
 H238 H 0.64718 0.65230 0.57612
 H239 H 0.59604 0.63084 1.00180
 H240 H 0.64955 0.68303 1.02953
 N241 N -0.09432 0.35233 0.37955
 N242 N -0.12257 0.32233 0.40434
 C243 C -0.15135 0.32203 0.29435
 C244 C -0.14224 0.35116 0.19778
 C245 C -0.10643 0.36953 0.25466
 H246 H -0.15994 0.35834 0.09984
 H247 H -0.06812 0.35901 0.44605
 H248 H -0.12105 0.30387 0.49314
 N249 N 0.40358 0.85570 0.87484
 N250 N 0.37672 0.82757 0.90180
 C251 C 0.34845 0.82506 0.79075
 C252 C 0.35766 0.85265 0.68864
 C253 C 0.39290 0.87166 0.74584
 H254 H 0.34052 0.85829 0.58805
 H255 H 0.42903 0.86321 0.94344
 H256 H 0.37792 0.81045 0.99461
 N257 N -0.13146 0.61704 -0.42537
 N258 N -0.15711 0.64648 -0.44945
 C259 C -0.16832 0.66252 -0.31946
 C260 C -0.14915 0.64237 -0.20752
 C261 C -0.12602 0.61359 -0.27923
 H262 H -0.15183 0.64794 -0.09059
 H263 H -0.11884 0.59928 -0.50817
 H264 H -0.16693 0.65517 -0.55337
 N265 N 0.39313 1.13700 0.08429
 N266 N 0.36722 1.16647 0.06347
 C267 C 0.33824 1.16818 0.17373
 C268 C 0.34586 1.13850 0.26865
 C269 C 0.38115 1.11920 0.20852
 H270 H 0.32846 1.13259 0.36893
 H271 H 0.41923 1.13030 0.01594
 H272 H 0.37011 1.18551 -0.02310
 N273 N 1.13975 -0.14542 0.13761
 N274 N 1.16940 -0.17479 0.11021
 C275 C 1.17828 -0.17508 -0.03479
 C276 C 1.15530 -0.14625 -0.10218
 C277 C 1.13171 -0.12831 0.00889
 H278 H 1.15550 -0.13938 -0.21769
 H279 H 1.12747 -0.13788 0.24104
 H280 H 1.18154 -0.19320 0.18928
 N281 N 0.64935 0.34794 0.68521
 N282 N 0.67640 0.32071 0.64241
 C283 C 0.68072 0.32181 0.49554
 C284 C 0.65502 0.35073 0.44177
 C285 C 0.63566 0.36677 0.56578
 H286 H 0.65156 0.35924 0.32871
 H287 H 0.64016 0.35298 0.79439
 H288 H 0.69139 0.30156 0.71265
 N289 N 0.88683 -0.13769 -0.44825
 N290 N 0.85676 -0.16651 -0.46923
 C291 C 0.84347 -0.17775 -0.33574
 C292 C 0.86444 -0.15668 -0.22775
 C293 C 0.89086 -0.13159 -0.30244
 H294 H 0.85956 -0.15824 -0.11019
 H295 H 0.90077 -0.12203 -0.53255
 H296 H 0.84605 -0.17637 -0.57140
 N297 N 0.36938 0.33458 0.62830
 N298 N 0.34199 0.30788 0.58754
 C299 C 0.33374 0.31165 0.44358
 C300 C 0.35692 0.34203 0.38994
 C301 C 0.37913 0.35607 0.51101
 H302 H 0.35675 0.35273 0.27910
 H303 H 0.37987 0.33842 0.73613
 H304 H 0.32878 0.28785 0.65820
 N305 N 0.08848 0.66504 -0.27490
 N306 N 0.11663 0.69174 -0.30715
 C307 C 0.15463 0.68262 -0.24596
 C308 C 0.15080 0.64840 -0.17347
 C309 C 0.10834 0.63827 -0.19465
 H310 H 0.17497 0.63364 -0.11027
 H311 H 0.05624 0.66534 -0.30671
 H312 H 0.10939 0.71643 -0.36510
 N313 N 0.58844 1.16632 0.20934
 N314 N 0.61662 1.19328 0.18075
 C315 C 0.65476 1.18330 0.23894
 C316 C 0.65099 1.14829 0.30569
 C317 C 0.60843 1.13856 0.28410
 H318 H 0.67523 1.13281 0.36597
 H319 H 0.55609 1.16713 0.17902
 H320 H 0.60933 1.21861 0.12708
 N321 N 0.12145 0.37058 0.39326
 N322 N 0.14647 0.34039 0.41121
 C323 C 0.16447 0.33075 0.28093
 C324 C 0.14997 0.35556 0.17483
 C325 C 0.12269 0.38040 0.25072
 H326 H 0.15849 0.35581 0.05939
 H327 H 0.10360 0.38385 0.47725
 H328 H 0.15157 0.32710 0.51156
 N329 N 0.64286 0.88652 0.88468
 N330 N 0.66830 0.85686 0.90645
 C331 C 0.67383 0.83783 0.77824
 C332 C 0.65065 0.85601 0.66982
 C333 C 0.63153 0.88696 0.74195
 H334 H 0.64907 0.84843 0.55429
 H335 H 0.63342 0.90586 0.96715
 H336 H 0.68208 0.85019 1.00732
 N337 N 0.85405 0.15348 -0.16670
 N338 N 0.82880 0.18182 -0.12168
 C339 C 0.82547 0.18089 0.02549
 C340 C 0.84993 0.15087 0.07713
 C341 C 0.86748 0.13401 -0.04853
 H342 H 0.85357 0.14211 0.18987
 H343 H 0.86217 0.14813 -0.27654
 H344 H 0.81425 0.20149 -0.19068
 N345 N 0.36480 0.65009 0.38772
 N346 N 0.33826 0.67872 0.41875
 C347 C 0.32817 0.67785 0.56264
 C348 C 0.34893 0.64731 0.62611
 C349 C 0.37185 0.63031 0.51140
 H350 H 0.34773 0.63888 0.73993
 H351 H 0.37713 0.64401 0.28296
 H352 H 0.32745 0.69855 0.34259
   
