data_POSCAR
  _audit_creation_date              2014-09-24
  _audit_creation_method            'ToBaCCo'
  _symmetry_space_group_name_H-M    'P1'
  _symmetry_Int_Tables_number       1
  _symmetry_cell_setting            triclinic
  loop_
  _symmetry_equiv_pos_as_xyz
 x,y,z
_cell_length_a 45.1338
_cell_length_b 60.4580
_cell_length_c 41.5362
_cell_angle_alpha 89.991300
_cell_angle_beta 89.975500
_cell_angle_gamma 90.050100
loop_
  _atom_site_label
  _atom_site_type_symbol
  _atom_site_fract_x
  _atom_site_fract_y
  _atom_site_fract_z
O1 O 0.24850 0.27126 0.20624
 O2 O 0.28940 0.22764 0.24933
 O3 O 0.24839 0.22825 0.20499
 O4 O 0.28952 0.27069 0.25016
 O5 O 0.25478 0.27064 0.28752
 O6 O 0.21447 0.22733 0.24313
 O7 O 0.25518 0.22747 0.28724
 O8 O 0.21373 0.27040 0.24355
 Cu9 Cu 0.27241 0.24947 0.22391
 Cu10 Cu 0.23111 0.24892 0.26915
 C11 C 0.22406 0.27826 0.21750
 C12 C 0.27931 0.22011 0.27572
 C13 C 0.22440 0.22041 0.21631
 C14 C 0.27908 0.27807 0.27645
 O15 O 0.71514 0.27081 0.25523
 O16 O 0.75635 0.22711 0.21279
 O17 O 0.71521 0.22767 0.25648
 O18 O 0.75638 0.27012 0.21131
 O19 O 0.79003 0.27125 0.24969
 O20 O 0.74950 0.22813 0.29431
 O21 O 0.79085 0.22806 0.25036
 O22 O 0.74892 0.27101 0.29361
 Cu23 Cu 0.73235 0.24888 0.23016
 Cu24 Cu 0.77330 0.24966 0.27574
 C25 C 0.72488 0.27830 0.28179
 C26 C 0.78070 0.22012 0.22427
 C27 C 0.72533 0.22060 0.28310
 C28 C 0.78022 0.27809 0.22279
 O29 O 0.75275 0.77095 0.79062
 O30 O 0.71283 0.72771 0.74562
 O31 O 0.75285 0.72776 0.79057
 O32 O 0.71256 0.77082 0.74582
 O33 O 0.74739 0.77075 0.70854
 O34 O 0.78820 0.72825 0.75397
 O35 O 0.74798 0.72783 0.70870
 O36 O 0.78767 0.77122 0.75346
 Cu37 Cu 0.72925 0.74929 0.77188
 Cu38 Cu 0.77134 0.74951 0.72748
 C39 C 0.77702 0.77853 0.77969
 C40 C 0.72355 0.72040 0.71941
 C41 C 0.77753 0.72065 0.78006
 C42 C 0.72301 0.77809 0.71945
 O43 O 0.28573 0.77066 0.74751
 O44 O 0.24491 0.72601 0.78859
 O45 O 0.28601 0.72768 0.74491
 O46 O 0.24470 0.76904 0.79185
 O47 O 0.21090 0.77077 0.75366
 O48 O 0.25123 0.72826 0.70763
 O49 O 0.21000 0.72774 0.75151
 O50 O 0.25164 0.77142 0.70950
 Cu51 Cu 0.26877 0.74828 0.77200
 Cu52 Cu 0.22752 0.74965 0.72678
 C53 C 0.27573 0.77861 0.72136
 C54 C 0.22041 0.71928 0.77711
 C55 C 0.27559 0.72074 0.71837
 C56 C 0.22077 0.77712 0.78080
 C57 C 0.98557 -0.00204 0.00295
 C58 C 1.01570 -0.00214 0.00240
 C59 C 1.03319 0.01582 0.01748
 C60 C 1.03255 -0.02012 -0.01344
 C61 C 0.96801 -0.01874 -0.01493
 C62 C 0.96885 0.01493 0.02124
 C63 C 1.03067 0.03767 0.00653
 C64 C 1.04683 0.05458 0.02130
 C65 C 1.06567 0.04997 0.04746
 C66 C 1.06824 0.02794 0.05810
 C67 C 1.05236 0.01101 0.04304
 C68 C 1.05149 -0.01522 -0.03920
 C69 C 1.06693 -0.03210 -0.05485
 C70 C 1.06414 -0.05421 -0.04465
 C71 C 1.04548 -0.05896 -0.01835
 C72 C 1.02978 -0.04208 -0.00297
 C73 C 0.94793 -0.03232 0.00160
 C74 C 0.93181 -0.04848 -0.01491
 C75 C 0.93522 -0.05110 -0.04834
 C76 C 0.95493 -0.03715 -0.06493
 C77 C 0.97117 -0.02110 -0.04837
 C78 C 0.97292 0.01739 0.05455
 C79 C 0.95768 0.03383 0.07141
 C80 C 0.93809 0.04808 0.05523
 C81 C 0.93372 0.04531 0.02196
 C82 C 0.94883 0.02878 0.00517
 H83 H 1.01623 0.04158 -0.01350
 H84 H 1.04474 0.07123 0.01200
 H85 H 1.08210 0.02378 0.07848
 H86 H 1.05449 -0.00579 0.05180
 H87 H 1.05381 0.00165 -0.04762
 H88 H 1.08064 -0.02783 -0.07532
 H89 H 1.01553 -0.04609 0.01720
 H90 H 0.94507 -0.03062 0.02738
 H91 H 0.91649 -0.05881 -0.00160
 H92 H 0.95812 -0.03889 -0.09065
 H93 H 0.98630 -0.01055 -0.06158
 H94 H 0.98803 0.00666 0.06741
 H95 H 0.96159 0.03567 0.09699
 H96 H 0.91845 0.05586 0.00899
 H97 H 0.94529 0.02701 -0.02050
 H98 H 1.04323 -0.07570 -0.00941
 C99 C 0.48415 0.50119 0.49572
 C100 C 0.51429 0.50109 0.49597
 C101 C 0.53154 0.51884 0.51195
 C102 C 0.53148 0.48316 0.48037
 C103 C 0.46699 0.48429 0.47776
 C104 C 0.46692 0.51808 0.51359
 C105 C 0.52862 0.54098 0.50233
 C106 C 0.54466 0.55760 0.51794
 C107 C 0.56390 0.55239 0.54350
 C108 C 0.56692 0.53011 0.55278
 C109 C 0.55106 0.51351 0.53698
 C110 C 0.55129 0.48823 0.45547
 C111 C 0.56705 0.47143 0.44001
 C112 C 0.56362 0.44923 0.44952
 C113 C 0.54409 0.44429 0.47496
 C114 C 0.52816 0.46110 0.49023
 C115 C 0.44690 0.47067 0.49423
 C116 C 0.43136 0.45418 0.47781
 C117 C 0.43535 0.45122 0.44453
 C118 C 0.45498 0.46525 0.42794
 C119 C 0.47067 0.48165 0.44443
 C120 C 0.47021 0.52054 0.54699
 C121 C 0.45417 0.53673 0.56350
 C122 C 0.43457 0.55071 0.54687
 C123 C 0.43105 0.54799 0.51348
 C124 C 0.44694 0.53170 0.49704
 H125 H 0.51396 0.54534 0.48269
 H126 H 0.54221 0.57450 0.50975
 H127 H 0.58114 0.52552 0.57266
 H128 H 0.55355 0.49650 0.54472
 H129 H 0.55408 0.50518 0.44756
 H130 H 0.58152 0.47582 0.42023
 H131 H 0.51328 0.45694 0.50978
 H132 H 0.44367 0.47258 0.51992
 H133 H 0.41607 0.44381 0.49110
 H134 H 0.45860 0.46326 0.40233
 H135 H 0.48583 0.49220 0.43127
 H136 H 0.48525 0.50996 0.56022
 H137 H 0.45744 0.53855 0.58919
 H138 H 0.41580 0.55833 0.50015
 H139 H 0.44399 0.52991 0.47129
 H140 H 0.54134 0.42745 0.48332
 C141 C 0.01410 0.49930 -0.00037
 C142 C -0.01605 0.50001 0.00126
 C143 C -0.03293 0.48233 0.01791
 C144 C -0.03358 0.51801 -0.01405
 C145 C 0.03130 0.51542 -0.01972
 C146 C 0.03135 0.48232 0.01730
 C147 C -0.03132 0.46035 0.00727
 C148 C -0.04686 0.44371 0.02340
 C149 C -0.06424 0.44872 0.05059
 C150 C -0.06599 0.47086 0.06091
 C151 C -0.05067 0.48752 0.04454
 C152 C -0.05770 0.51268 -0.03388
 C153 C -0.07383 0.52932 -0.04925
 C154 C -0.06608 0.55171 -0.04532
 C155 C -0.04237 0.55702 -0.02471
 C156 C -0.02659 0.54037 -0.00890
 C157 C 0.05228 0.52899 -0.00456
 C158 C 0.06759 0.54503 -0.02214
 C159 C 0.06257 0.54748 -0.05533
 C160 C 0.04223 0.53339 -0.07069
 C161 C 0.02664 0.51751 -0.05300
 C162 C 0.02908 0.48037 0.05089
 C163 C 0.04500 0.46405 0.06724
 C164 C 0.06352 0.44943 0.05028
 C165 C 0.06606 0.45166 0.01670
 C166 C 0.05025 0.46805 0.00040
 H167 H -0.01805 0.45613 -0.01357
 H168 H -0.04549 0.42695 0.01434
 H169 H -0.07876 0.47530 0.08199
 H170 H -0.05212 0.50442 0.05304
 H171 H -0.06382 0.49557 -0.03786
 H172 H -0.09243 0.52459 -0.06419
 H173 H -0.00866 0.54497 0.00707
 H174 H 0.05627 0.52750 0.02107
 H175 H 0.08343 0.55551 -0.00984
 H176 H 0.03792 0.53502 -0.09623
 H177 H 0.01073 0.50700 -0.06513
 H178 H 0.01490 0.49144 0.06438
 H179 H 0.04248 0.46264 0.09309
 H180 H 0.08049 0.44083 0.00309
 H181 H 0.05242 0.46943 -0.02550
 H182 H -0.03557 0.57402 -0.02120
 C183 C 0.51413 0.99964 0.50097
 C184 C 0.48398 0.99967 0.50078
 C185 C 0.46668 0.98300 0.51907
 C186 C 0.46700 1.01636 0.48225
 C187 C 0.53148 1.01753 0.48541
 C188 C 0.53120 0.98170 0.51668
 C189 C 0.44654 0.96927 0.50291
 C190 C 0.43094 0.95296 0.51971
 C191 C 0.43493 0.95031 0.55305
 C192 C 0.45460 0.96447 0.56931
 C193 C 0.47033 0.98068 0.55246
 C194 C 0.47097 1.01857 0.44888
 C195 C 0.45554 1.03479 0.43178
 C196 C 0.43587 1.04907 0.44777
 C197 C 0.43157 1.04654 0.48109
 C198 C 0.44685 1.03022 0.49813
 C199 C 0.52816 1.03960 0.49514
 C200 C 0.54428 1.05638 0.47999
 C201 C 0.56403 1.05139 0.45478
 C202 C 0.56746 1.02917 0.44539
 C203 C 0.55150 1.01240 0.46074
 C204 C 0.55101 0.98676 0.54159
 C205 C 0.56675 0.96995 0.55703
 C206 C 0.56333 0.94775 0.54749
 C207 C 0.54380 0.94283 0.52206
 C208 C 0.52788 0.95965 0.50683
 H209 H 0.44331 0.97093 0.47719
 H210 H 0.41562 0.94249 0.50666
 H211 H 0.45822 0.96273 0.59496
 H212 H 0.48552 0.99134 0.56539
 H213 H 0.48618 1.00782 0.43616
 H214 H 0.45940 1.03644 0.40616
 H215 H 0.44338 1.02864 0.52383
 H216 H 0.51312 1.04380 0.51453
 H217 H 0.54152 1.07323 0.48827
 H218 H 0.58209 1.02474 0.42577
 H219 H 0.55431 0.99544 0.45293
 H220 H 0.55381 1.00371 0.54949
 H221 H 0.58121 0.97432 0.57681
 H222 H 0.54105 0.92600 0.51368
 H223 H 0.51302 0.95550 0.48727
 H224 H 0.41624 1.05712 0.49392
 C225 C 1.17751 0.17099 0.16472
 C226 C 1.20284 0.18101 0.15142
 C227 C 1.21841 0.19720 0.16848
 C228 C 1.20884 0.20405 0.19918
 C229 C 1.18332 0.19412 0.21234
 C230 C 1.16803 0.17772 0.19544
 C231 C 1.16113 0.15353 0.14672
 C232 C 1.13011 0.15187 0.14897
 C233 C 1.11479 0.13525 0.13254
 C234 C 1.13002 0.12000 0.11307
 C235 C 1.16100 0.12181 0.11051
 C236 C 1.17636 0.13826 0.12727
 C237 C 1.11371 0.10217 0.09578
 C238 C 1.12633 0.08107 0.09200
 C239 C 1.11095 0.06428 0.07603
 C240 C 1.08235 0.06803 0.06377
 C241 C 1.06972 0.08913 0.06754
 C242 C 1.08526 0.10600 0.08316
 H243 H 1.21050 0.17657 0.12759
 H244 H 1.23781 0.20448 0.15735
 H245 H 1.17526 0.19879 0.23595
 H246 H 1.14897 0.17009 0.20675
 H247 H 1.11754 0.16352 0.16329
 H248 H 1.09100 0.13421 0.13549
 H249 H 1.17347 0.11060 0.09539
 H250 H 1.20026 0.13879 0.12527
 H251 H 1.14799 0.07737 0.10178
 H252 H 1.12160 0.04836 0.07317
 H253 H 1.04760 0.09257 0.05883
 H254 H 1.07498 0.12211 0.08515
 C255 C 0.67616 0.67061 0.66593
 C256 C 0.69988 0.68221 0.65181
 C257 C 0.71540 0.69823 0.66925
 C258 C 0.70739 0.70320 0.70112
 C259 C 0.68365 0.69171 0.71525
 C260 C 0.66832 0.67553 0.69792
 C261 C 0.65969 0.65349 0.64739
 C262 C 0.62893 0.65092 0.65126
 C263 C 0.61351 0.63472 0.63407
 C264 C 0.62841 0.62078 0.61234
 C265 C 0.65913 0.62347 0.60828
 C266 C 0.67459 0.63954 0.62568
 C267 C 0.61202 0.60340 0.59423
 C268 C 0.62509 0.58270 0.58827
 C269 C 0.60964 0.56629 0.57154
 C270 C 0.58061 0.57007 0.56060
 C271 C 0.56755 0.59079 0.56648
 C272 C 0.58310 0.60727 0.58297
 H273 H 0.70621 0.67915 0.62707
 H274 H 0.73345 0.70692 0.65761
 H275 H 0.67708 0.69507 0.73985
 H276 H 0.65055 0.66666 0.70978
 H277 H 0.61664 0.66157 0.66741
 H278 H 0.58994 0.63295 0.63815
 H279 H 0.67128 0.61325 0.59144
 H280 H 0.69832 0.64084 0.62236
 H281 H 0.64716 0.57901 0.59692
 H282 H 0.62056 0.55066 0.56705
 H283 H 0.54511 0.59420 0.55876
 H284 H 0.57249 0.62311 0.58672
 C285 C -0.17344 0.32798 0.17148
 C286 C -0.19868 0.31786 0.15818
 C287 C -0.21401 0.30148 0.17511
 C288 C -0.20432 0.29455 0.20572
 C289 C -0.17886 0.30455 0.21888
 C290 C -0.16376 0.32112 0.20207
 C291 C -0.15737 0.34566 0.15359
 C292 C -0.12633 0.34737 0.15535
 C293 C -0.11130 0.36407 0.13875
 C294 C -0.12686 0.37937 0.11967
 C295 C -0.15788 0.37757 0.11776
 C296 C -0.17294 0.36102 0.13463
 C297 C -0.11084 0.39712 0.10190
 C298 C -0.12338 0.41828 0.09848
 C299 C -0.10840 0.43492 0.08169
 C300 C -0.08034 0.43093 0.06818
 C301 C -0.06774 0.40980 0.07173
 C302 C -0.08285 0.39309 0.08822
 H303 H -0.20646 0.32240 0.13443
 H304 H -0.23337 0.29415 0.16397
 H305 H -0.17070 0.29982 0.24241
 H306 H -0.14473 0.32880 0.21333
 H307 H -0.11355 0.33567 0.16934
 H308 H -0.08746 0.36510 0.14118
 H309 H -0.17058 0.38884 0.10297
 H310 H -0.19686 0.36044 0.13305
 H311 H -0.14468 0.42211 0.10906
 H312 H -0.11899 0.45088 0.07909
 H313 H -0.04600 0.40620 0.06207
 H314 H -0.07267 0.37693 0.08996
 C315 C 0.32368 0.83013 0.67202
 C316 C 0.29516 0.82389 0.66187
 C317 C 0.27965 0.80716 0.67787
 C318 C 0.29220 0.79637 0.70453
 C319 C 0.32063 0.80268 0.71486
 C320 C 0.33622 0.81933 0.69873
 C321 C 0.34028 0.84777 0.65471
 C322 C 0.35779 0.86306 0.67169
 C323 C 0.37333 0.87964 0.65536
 C324 C 0.37164 0.88139 0.62165
 C325 C 0.35410 0.86610 0.60469
 C326 C 0.33869 0.84947 0.62099
 C327 C 0.38806 0.89906 0.60421
 C328 C 0.40138 0.89469 0.57427
 C329 C 0.41651 0.91134 0.55768
 C330 C 0.41883 0.93270 0.57072
 C331 C 0.40573 0.93707 0.60073
 C332 C 0.39043 0.92046 0.61725
 H333 H 0.28463 0.83211 0.64175
 H334 H 0.25771 0.80279 0.66943
 H335 H 0.33097 0.79462 0.73523
 H336 H 0.35830 0.82351 0.70690
 H337 H 0.35925 0.86239 0.69769
 H338 H 0.38690 0.89097 0.66914
 H339 H 0.35199 0.86712 0.57877
 H340 H 0.32572 0.83780 0.60711
 H341 H 0.40048 0.87830 0.56381
 H342 H 0.42680 0.90741 0.53483
 H343 H 0.40689 0.95346 0.61117
 H344 H 0.38003 0.92449 0.63999
 C345 C -0.17575 0.67144 -0.16779
 C346 C -0.16313 0.68137 -0.19519
 C347 C -0.17859 0.69745 -0.21253
 C348 C -0.20697 0.70435 -0.20265
 C349 C -0.21946 0.69455 -0.17503
 C350 C -0.20417 0.67821 -0.15802
 C351 C -0.15943 0.65403 -0.14960
 C352 C -0.16218 0.65233 -0.11595
 C353 C -0.14723 0.63579 -0.09897
 C354 C -0.12878 0.62068 -0.11512
 C355 C -0.12577 0.62255 -0.14872
 C356 C -0.14105 0.63888 -0.16574
 C357 C -0.11286 0.60300 -0.09707
 C358 C -0.10837 0.58206 -0.11096
 C359 C -0.09316 0.56554 -0.09426
 C360 C -0.08240 0.56937 -0.06298
 C361 C -0.08713 0.59024 -0.04894
 C362 C -0.10198 0.60688 -0.06584
 H363 H -0.14107 0.67693 -0.20311
 H364 H -0.16805 0.70465 -0.23350
 H365 H -0.24131 0.69925 -0.16667
 H366 H -0.21488 0.67066 -0.13745
 H367 H -0.17573 0.66388 -0.10258
 H368 H -0.15046 0.63472 -0.07320
 H369 H -0.11140 0.61149 -0.16197
 H370 H -0.13868 0.63942 -0.19166
 H371 H -0.11682 0.57829 -0.13472
 H372 H -0.08955 0.54984 -0.10613
 H373 H -0.07956 0.59374 -0.02475
 H374 H -0.10461 0.62287 -0.05449
 C375 C 0.32682 1.16916 0.32662
 C376 C 0.33957 1.17967 0.29975
 C377 C 0.32414 1.19616 0.28316
 C378 C 0.29569 1.20262 0.29317
 C379 C 0.28295 1.19215 0.32003
 C380 C 0.29829 1.17557 0.33649
 C381 C 0.34317 1.15160 0.34430
 C382 C 0.34135 1.15012 0.37802
 C383 C 0.35646 1.13351 0.39466
 C384 C 0.37392 1.11802 0.37801
 C385 C 0.37586 1.11955 0.34430
 C386 C 0.36063 1.13611 0.32764
 C387 C 0.38997 1.10034 0.39577
 C388 C 0.39218 1.07887 0.38296
 C389 C 0.40716 1.06225 0.39976
 C390 C 0.42009 1.06669 0.42983
 C391 C 0.41791 1.08812 0.44266
 C392 C 0.40311 1.10477 0.42579
 H393 H 0.36167 1.17537 0.29179
 H394 H 0.33462 1.20398 0.26264
 H395 H 0.26099 1.19663 0.32823
 H396 H 0.28760 1.16757 0.35672
 H397 H 0.32843 1.16193 0.39166
 H398 H 0.35416 1.13266 0.42057
 H399 H 0.38939 1.10807 0.33075
 H400 H 0.36225 1.13660 0.30165
 H401 H 0.38191 1.07479 0.36018
 H402 H 0.40821 1.04581 0.38948
 H403 H 0.42807 1.09209 0.46556
 H404 H 0.40232 1.12121 0.43608
 C405 C 1.17411 -0.17434 -0.16567
 C406 C 1.19935 -0.18468 -0.15277
 C407 C 1.21482 -0.20059 -0.17044
 C408 C 1.20523 -0.20686 -0.20140
 C409 C 1.17976 -0.19665 -0.21414
 C410 C 1.16456 -0.18052 -0.19661
 C411 C 1.15795 -0.15709 -0.14705
 C412 C 1.12694 -0.15525 -0.14912
 C413 C 1.11185 -0.13878 -0.13214
 C414 C 1.12731 -0.12387 -0.11232
 C415 C 1.15828 -0.12588 -0.10993
 C416 C 1.17340 -0.14217 -0.12721
 C417 C 1.11127 -0.10615 -0.09451
 C418 C 1.12417 -0.08516 -0.09033
 C419 C 1.10908 -0.06847 -0.07386
 C420 C 1.08050 -0.07220 -0.06149
 C421 C 1.06759 -0.09318 -0.06566
 C422 C 1.08284 -0.10997 -0.08179
 H423 H 1.20705 -0.18067 -0.12879
 H424 H 1.23418 -0.20811 -0.15960
 H425 H 1.17168 -0.20087 -0.23792
 H426 H 1.14556 -0.17265 -0.20759
 H427 H 1.11422 -0.16663 -0.16375
 H428 H 1.08807 -0.13758 -0.13496
 H429 H 1.17091 -0.11493 -0.09454
 H430 H 1.19730 -0.14285 -0.12532
 H431 H 1.14583 -0.08147 -0.10016
 H432 H 1.11994 -0.05265 -0.07071
 H433 H 1.04547 -0.09659 -0.05685
 H434 H 1.07235 -0.12600 -0.08411
 C435 C 0.67627 0.32878 0.33243
 C436 C 0.69940 0.31724 0.34765
 C437 C 0.71523 0.30093 0.33116
 C438 C 0.70812 0.29561 0.29916
 C439 C 0.68488 0.30700 0.28397
 C440 C 0.66923 0.32346 0.30036
 C441 C 0.65966 0.34633 0.34992
 C442 C 0.62904 0.34910 0.34512
 C443 C 0.61352 0.36567 0.36140
 C444 C 0.62816 0.37980 0.38310
 C445 C 0.65873 0.37693 0.38804
 C446 C 0.67430 0.36049 0.37156
 C447 C 0.61167 0.39751 0.40037
 C448 C 0.62493 0.41818 0.40612
 C449 C 0.60948 0.43484 0.42227
 C450 C 0.58025 0.43134 0.43284
 C451 C 0.56696 0.41067 0.42708
 C452 C 0.58251 0.39394 0.41116
 H453 H 0.70508 0.32059 0.37249
 H454 H 0.73287 0.29233 0.34362
 H455 H 0.67900 0.30336 0.25925
 H456 H 0.65190 0.33225 0.28770
 H457 H 0.61696 0.33832 0.32897
 H458 H 0.59007 0.36757 0.35667
 H459 H 0.67067 0.38729 0.40488
 H460 H 0.69792 0.35905 0.37554
 H461 H 0.64719 0.42164 0.39780
 H462 H 0.62056 0.45044 0.42667
 H463 H 0.54437 0.40747 0.43450
 H464 H 0.57173 0.37813 0.40754
 C465 C 0.82351 -0.17038 -0.16851
 C466 C 0.83661 -0.18077 -0.19524
 C467 C 0.82151 -0.19732 -0.21204
 C468 C 0.79301 -0.20397 -0.20241
 C469 C 0.77994 -0.19368 -0.17560
 C470 C 0.79498 -0.17704 -0.15890
 C471 C 0.83956 -0.15268 -0.15076
 C472 C 0.83770 -0.15122 -0.11704
 C473 C 0.85289 -0.13463 -0.10038
 C474 C 0.87042 -0.11915 -0.11702
 C475 C 0.87226 -0.12061 -0.15074
 C476 C 0.85696 -0.13713 -0.16740
 C477 C 0.88683 -0.10163 -0.09928
 C478 C 0.88933 -0.08016 -0.11206
 C479 C 0.90504 -0.06378 -0.09555
 C480 C 0.91842 -0.06844 -0.06580
 C481 C 0.91581 -0.08983 -0.05290
 C482 C 0.90027 -0.10626 -0.06950
 H483 H 0.85874 -0.17632 -0.20296
 H484 H 0.83227 -0.20500 -0.23248
 H485 H 0.75795 -0.19835 -0.16768
 H486 H 0.78407 -0.16916 -0.13873
 H487 H 0.82477 -0.16307 -0.10343
 H488 H 0.85068 -0.13383 -0.07445
 H489 H 0.88583 -0.10913 -0.16428
 H490 H 0.85859 -0.13759 -0.19340
 H491 H 0.87882 -0.07593 -0.13465
 H492 H 0.90637 -0.04735 -0.10584
 H493 H 0.92628 -0.09397 -0.03023
 H494 H 0.89924 -0.12271 -0.05924
 C495 C 0.32590 0.32943 0.32729
 C496 C 0.33896 0.31873 0.30080
 C497 C 0.32379 0.30204 0.28437
 C498 C 0.29528 0.29555 0.29416
 C499 C 0.28229 0.30609 0.32079
 C500 C 0.29739 0.32289 0.33711
 C501 C 0.34192 0.34739 0.34451
 C502 C 0.34002 0.34933 0.37818
 C503 C 0.35504 0.36623 0.39433
 C504 C 0.37245 0.38155 0.37724
 C505 C 0.37436 0.37960 0.34358
 C506 C 0.35923 0.36277 0.32741
 C507 C 0.38859 0.39945 0.39447
 C508 C 0.39082 0.42075 0.38105
 C509 C 0.40608 0.43753 0.39722
 C510 C 0.41925 0.43343 0.42726
 C511 C 0.41700 0.41218 0.44072
 C512 C 0.40193 0.39536 0.42447
 H513 H 0.36108 0.32309 0.29294
 H514 H 0.33449 0.29415 0.26405
 H515 H 0.26027 0.30156 0.32883
 H516 H 0.28650 0.33100 0.35711
 H517 H 0.32717 0.33762 0.39214
 H518 H 0.35278 0.36741 0.42023
 H519 H 0.38784 0.39095 0.32971
 H520 H 0.36087 0.36194 0.30144
 H521 H 0.38040 0.42456 0.35825
 H522 H 0.40716 0.45384 0.38648
 H523 H 0.42734 0.40848 0.46362
 H524 H 0.40111 0.37906 0.43521
 C525 C 0.17242 0.66729 -0.17499
 C526 C 0.20216 0.67153 -0.16718
 C527 C 0.21770 0.68853 -0.18256
 C528 C 0.20390 0.70143 -0.20637
 C529 C 0.17420 0.69707 -0.21433
 C530 C 0.15856 0.68026 -0.19864
 C531 C 0.15584 0.64949 -0.15835
 C532 C 0.12723 0.65344 -0.14635
 C533 C 0.11181 0.63680 -0.13006
 C534 C 0.12456 0.61581 -0.12582
 C535 C 0.15301 0.61177 -0.13819
 C536 C 0.16859 0.62850 -0.15411
 C537 C 0.10841 0.59830 -0.10805
 C538 C 0.10690 0.57665 -0.12024
 C539 C 0.09173 0.56016 -0.10330
 C540 C 0.07821 0.56495 -0.07366
 C541 C 0.07979 0.58659 -0.06146
 C542 C 0.09459 0.60313 -0.07859
 H543 H 0.21326 0.66188 -0.14883
 H544 H 0.24058 0.69146 -0.17596
 H545 H 0.16296 0.70675 -0.23254
 H546 H 0.13571 0.67721 -0.20525
 H547 H 0.11700 0.66952 -0.14913
 H548 H 0.08982 0.64027 -0.12093
 H549 H 0.16340 0.59577 -0.13503
 H550 H 0.19054 0.62501 -0.16335
 H551 H 0.11722 0.57256 -0.14301
 H552 H 0.09094 0.54357 -0.11311
 H553 H 0.06933 0.59074 -0.03878
 H554 H 0.09562 0.61966 -0.06857
 C555 C 0.67714 1.17083 0.33580
 C556 C 0.70043 1.18258 0.35044
 C557 C 0.71617 1.19864 0.33328
 C558 C 0.70881 1.20348 0.30119
 C559 C 0.68547 1.19185 0.28656
 C560 C 0.66992 1.17563 0.30361
 C561 C 0.66051 1.15360 0.35396
 C562 C 0.62987 1.15082 0.34936
 C563 C 0.61433 1.13444 0.36608
 C564 C 0.62897 1.12054 0.38806
 C565 C 0.65956 1.12346 0.39288
 C566 C 0.67515 1.13971 0.37596
 C567 C 0.61247 1.10296 0.40562
 C568 C 0.62568 1.08232 0.41166
 C569 C 0.61011 1.06572 0.42786
 C570 C 0.58082 1.06924 0.43819
 C571 C 0.56762 1.08990 0.43220
 C572 C 0.58328 1.10657 0.41624
 H573 H 0.70627 1.17960 0.37534
 H574 H 0.73391 1.20744 0.34529
 H575 H 0.67940 1.19510 0.26179
 H576 H 0.65250 1.16665 0.29137
 H577 H 0.61778 1.16141 0.33297
 H578 H 0.59087 1.13249 0.36143
 H579 H 0.67150 1.11327 0.40993
 H580 H 0.69879 1.14118 0.37983
 H581 H 0.64797 1.07883 0.40348
 H582 H 0.62114 1.05014 0.43244
 H583 H 0.54498 1.09311 0.43944
 H584 H 0.57254 1.12235 0.41241
 C585 C 0.17608 0.32932 0.16737
 C586 C 0.16367 0.31881 0.19441
 C587 C 0.17924 0.30225 0.21066
 C588 C 0.20753 0.29575 0.20019
 C589 C 0.21991 0.30618 0.17309
 C590 C 0.20439 0.32280 0.15692
 C591 C 0.15957 0.34701 0.15019
 C592 C 0.16048 0.34845 0.11642
 C593 C 0.14498 0.36509 0.10027
 C594 C 0.12811 0.38065 0.11748
 C595 C 0.12718 0.37920 0.15125
 C596 C 0.14276 0.36260 0.16740
 C597 C 0.11153 0.39830 0.10028
 C598 C 0.11000 0.41984 0.11296
 C599 C 0.09437 0.43641 0.09680
 C600 C 0.08005 0.43185 0.06752
 C601 C 0.08158 0.41035 0.05481
 C602 C 0.09708 0.39375 0.07103
 H603 H 0.14173 0.32318 0.20279
 H604 H 0.16902 0.29447 0.23136
 H605 H 0.24173 0.30163 0.16450
 H606 H 0.21478 0.33078 0.13648
 H607 H 0.17293 0.33656 0.10240
 H608 H 0.14645 0.36589 0.07428
 H609 H 0.11414 0.39076 0.16521
 H610 H 0.14187 0.36212 0.19344
 H611 H 0.12128 0.42400 0.13515
 H612 H 0.09389 0.45291 0.10694
 H613 H 0.07036 0.40628 0.03253
 H614 H 0.09736 0.37726 0.06090
 C615 C 0.67525 0.82795 0.66664
 C616 C 0.66769 0.82297 0.69869
 C617 C 0.68309 0.80673 0.71577
 C618 C 0.70663 0.79523 0.70132
 C619 C 0.71433 0.80023 0.66936
 C620 C 0.69873 0.81632 0.65217
 C621 C 0.65879 0.84522 0.64845
 C622 C 0.67364 0.85923 0.62675
 C623 C 0.65822 0.87553 0.60980
 C624 C 0.62758 0.87839 0.61433
 C625 C 0.61272 0.86437 0.63601
 C626 C 0.62810 0.84794 0.65274
 C627 C 0.61125 0.89603 0.59676
 C628 C 0.58215 0.89245 0.58582
 C629 C 0.56666 0.90917 0.56984
 C630 C 0.57994 0.92985 0.56414
 C631 C 0.60914 0.93335 0.57479
 C632 C 0.62454 0.91670 0.59101
 H633 H 0.65011 0.83186 0.71081
 H634 H 0.67677 0.80335 0.74044
 H635 H 0.73223 0.79154 0.65749
 H636 H 0.70484 0.81943 0.62737
 H637 H 0.69732 0.85782 0.62312
 H638 H 0.67032 0.88581 0.59298
 H639 H 0.58922 0.86626 0.64043
 H640 H 0.61585 0.83726 0.66889
 H641 H 0.57136 0.87664 0.58942
 H642 H 0.54408 0.90597 0.56235
 H643 H 0.62023 0.94895 0.57043
 H644 H 0.64675 0.92017 0.59944
 C645 C 0.82873 0.16902 0.17424
 C646 C 0.84140 0.17987 0.20085
 C647 C 0.82581 0.19642 0.21714
 C648 C 0.79726 0.20259 0.20710
 C649 C 0.78461 0.19179 0.18048
 C650 C 0.80011 0.17517 0.16431
 C651 C 0.84523 0.15139 0.15689
 C652 C 0.84342 0.14959 0.12320
 C653 C 0.85864 0.13289 0.10689
 C654 C 0.87621 0.11762 0.12382
 C655 C 0.87815 0.11948 0.15750
 C656 C 0.86281 0.13613 0.17384
 C657 C 0.89232 0.09982 0.10641
 C658 C 0.89456 0.07846 0.11962
 C659 C 0.90952 0.06170 0.10310
 C660 C 0.92241 0.06588 0.07292
 C661 C 0.92024 0.08720 0.05971
 C662 C 0.90545 0.10399 0.07629
 H663 H 0.86356 0.17578 0.20884
 H664 H 0.83623 0.20449 0.23748
 H665 H 0.76257 0.19605 0.17226
 H666 H 0.78949 0.16691 0.14427
 H667 H 0.83040 0.16123 0.10935
 H668 H 0.85635 0.13179 0.08099
 H669 H 0.89175 0.10817 0.17126
 H670 H 0.86443 0.13688 0.19982
 H671 H 0.88429 0.07457 0.14249
 H672 H 0.91056 0.04534 0.11367
 H673 H 0.93037 0.09097 0.03671
 H674 H 0.90464 0.12034 0.06570
 C675 C 0.32277 0.67036 0.66594
 C676 C 0.29424 0.67693 0.65627
 C677 C 0.27901 0.69342 0.67307
 C678 C 0.29190 0.70364 0.70004
 C679 C 0.32046 0.69716 0.70962
 C680 C 0.33575 0.68078 0.69272
 C681 C 0.33890 0.65265 0.64833
 C682 C 0.35623 0.63717 0.66514
 C683 C 0.37159 0.62062 0.64864
 C684 C 0.36988 0.61905 0.61493
 C685 C 0.35242 0.63446 0.59812
 C686 C 0.33717 0.65108 0.61461
 C687 C 0.38633 0.60148 0.59739
 C688 C 0.39988 0.60600 0.56761
 C689 C 0.41542 0.58950 0.55119
 C690 C 0.41791 0.56815 0.56424
 C691 C 0.40445 0.56361 0.59401
 C692 C 0.38875 0.58006 0.61035
 H693 H 0.28343 0.66904 0.63603
 H694 H 0.25698 0.69797 0.66518
 H695 H 0.33110 0.70481 0.73017
 H696 H 0.35788 0.67642 0.70047
 H697 H 0.35775 0.63771 0.69114
 H698 H 0.38510 0.60920 0.66232
 H699 H 0.35031 0.63357 0.57219
 H700 H 0.32429 0.66288 0.60089
 H701 H 0.39891 0.62240 0.55722
 H702 H 0.42594 0.59355 0.52850
 H703 H 0.40569 0.54721 0.60442
 H704 H 0.37815 0.57590 0.63295
   
