data_POSCAR
  _audit_creation_date              2014-09-24
  _audit_creation_method            'ToBaCCo'
  _symmetry_space_group_name_H-M    'P1'
  _symmetry_Int_Tables_number       1
  _symmetry_cell_setting            triclinic
  loop_
  _symmetry_equiv_pos_as_xyz
 x,y,z
_cell_length_a 38.1442
_cell_length_b 39.5174
_cell_length_c 37.8242
_cell_angle_alpha 90.215400
_cell_angle_beta 89.477900
_cell_angle_gamma 88.684700
loop_
  _atom_site_label
  _atom_site_type_symbol
  _atom_site_fract_x
  _atom_site_fract_y
  _atom_site_fract_z
C1 C 0.23089 0.19508 0.22513
 C2 C 0.21526 0.17730 0.25292
 C3 C 0.17962 0.18288 0.26221
 C4 C 0.16011 0.20749 0.24314
 C5 C 0.17569 0.22601 0.21580
 C6 C 0.21123 0.21979 0.20685
 C7 C 0.26531 0.18696 0.21410
 C8 C 0.28073 0.20315 0.18466
 C9 C 0.26148 0.22985 0.16863
 C10 C 0.22688 0.23768 0.17896
 C11 C 0.20722 0.26214 0.16061
 C12 C 0.17172 0.26822 0.16897
 C13 C 0.15609 0.25015 0.19669
 H14 H 0.23056 0.15750 0.26569
 H15 H 0.13299 0.21314 0.25008
 H16 H 0.27856 0.16597 0.22698
 H17 H 0.27302 0.24462 0.14769
 H18 H 0.21912 0.27548 0.13874
 H19 H 0.12867 0.25486 0.20324
 C20 C -0.23023 0.80634 0.23854
 C21 C -0.20955 0.82625 0.26040
 C22 C -0.17672 0.81426 0.27269
 C23 C -0.16516 0.78132 0.26258
 C24 C -0.18530 0.76138 0.23995
 C25 C -0.21816 0.77383 0.22834
 C26 C -0.26211 0.81926 0.22545
 C27 C -0.28179 0.80064 0.20095
 C28 C -0.27002 0.76756 0.19214
 C29 C -0.23850 0.75418 0.20561
 C30 C -0.22614 0.72214 0.19492
 C31 C -0.19209 0.71050 0.20361
 C32 C -0.17222 0.73005 0.22708
 H33 H -0.21972 0.85092 0.26855
 H34 H -0.13955 0.77183 0.27049
 H35 H -0.26980 0.84505 0.23221
 H36 H -0.28522 0.75209 0.17450
 H37 H -0.24271 0.70695 0.17840
 H38 H -0.14588 0.72194 0.23400
 C39 C -0.23621 0.18113 -0.23131
 C40 C -0.21979 0.16421 -0.25995
 C41 C -0.19141 0.17869 -0.27811
 C42 C -0.18035 0.21099 -0.26751
 C43 C -0.19570 0.22766 -0.23827
 C44 C -0.22383 0.21276 -0.22022
 C45 C -0.26372 0.16613 -0.21253
 C46 C -0.27805 0.18152 -0.18167
 C47 C -0.26557 0.21333 -0.17128
 C48 C -0.23899 0.22913 -0.19054
 C49 C -0.22654 0.26056 -0.17965
 C50 C -0.19700 0.27493 -0.19605
 C51 C -0.18217 0.25825 -0.22586
 H52 H -0.22831 0.13916 -0.26705
 H53 H -0.15934 0.22316 -0.28166
 H54 H -0.27219 0.14132 -0.22067
 H55 H -0.27689 0.22618 -0.14836
 H56 H -0.23976 0.27331 -0.15779
 H57 H -0.15908 0.26799 -0.23872
 C58 C 0.22891 0.82596 -0.19257
 C59 C 0.21461 0.84330 -0.22160
 C60 C 0.18405 0.83194 -0.23843
 C61 C 0.16847 0.80227 -0.22557
 C62 C 0.18195 0.78527 -0.19596
 C63 C 0.21233 0.79703 -0.17942
 C64 C 0.25903 0.83767 -0.17586
 C65 C 0.27215 0.82146 -0.14558
 C66 C 0.25534 0.79283 -0.13234
 C67 C 0.22561 0.78035 -0.14917
 C68 C 0.20818 0.75224 -0.13555
 C69 C 0.17732 0.74114 -0.15136
 C70 C 0.16463 0.75746 -0.18175
 H71 H 0.22801 0.86525 -0.23152
 H72 H 0.14438 0.79343 -0.23699
 H73 H 0.27164 0.86015 -0.18563
 H74 H 0.26532 0.78050 -0.10880
 H75 H 0.21774 0.73983 -0.11188
 H76 H 0.14079 0.74879 -0.19390
 C77 C 0.19852 1.23642 0.76823
 C78 C 0.18465 1.22260 0.73739
 C79 C 0.19973 1.19326 0.72142
 C80 C 0.23084 1.17959 0.73633
 C81 C 0.24571 1.19411 0.76649
 C82 C 0.22954 1.22270 0.78249
 C83 C 0.18049 1.26263 0.78600
 C84 C 0.19251 1.27537 0.81848
 C85 C 0.22548 1.26368 0.83083
 C86 C 0.24363 1.23682 0.81343
 C87 C 0.27436 1.22237 0.82773
 C88 C 0.28990 1.19262 0.81299
 C89 C 0.27527 1.17901 0.78210
 H90 H 0.16191 1.23516 0.72611
 H91 H 0.24268 1.15637 0.72617
 H92 H 0.15645 1.27272 0.77467
 H93 H 0.23549 1.27301 0.85565
 H94 H 0.28539 1.23386 0.85101
 H95 H 0.28576 1.15565 0.77083
 C96 C 0.82068 0.76763 0.76203
 C97 C 0.84221 0.78560 0.73875
 C98 C 0.83173 0.81779 0.72619
 C99 C 0.79981 0.83228 0.73880
 C100 C 0.77889 0.81522 0.76323
 C101 C 0.78895 0.78245 0.77430
 C102 C 0.83093 0.73528 0.77367
 C103 C 0.80976 0.71668 0.79728
 C104 C 0.77758 0.73199 0.80870
 C105 C 0.76763 0.76484 0.79820
 C106 C 0.73718 0.78078 0.81216
 C107 C 0.72813 0.81434 0.80294
 C108 C 0.74869 0.83098 0.77765
 H109 H 0.86628 0.77361 0.72906
 H110 H 0.79190 0.85767 0.73098
 H111 H 0.85652 0.72582 0.76539
 H112 H 0.75957 0.71858 0.82550
 H113 H 0.72110 0.76744 0.83105
 H114 H 0.74220 0.85687 0.77044
 C115 C 0.16498 0.77483 1.20153
 C116 C 0.15246 0.78347 1.23542
 C117 C 0.16654 0.81073 1.25401
 C118 C 0.19466 0.82829 1.23904
 C119 C 0.20740 0.81987 1.20515
 C120 C 0.19188 0.79360 1.18588
 C121 C 0.15043 0.74808 1.18286
 C122 C 0.16120 0.74032 1.14790
 C123 C 0.18703 0.76034 1.13183
 C124 C 0.20299 0.78635 1.15088
 C125 C 0.23008 0.80510 1.13570
 C126 C 0.24639 0.83038 1.15539
 C127 C 0.23492 0.83777 1.18993
 H128 H 0.13129 0.76936 1.24714
 H129 H 0.20564 0.84946 1.25310
 H130 H 0.12936 0.73432 1.19521
 H131 H 0.19614 0.75464 1.10520
 H132 H 0.23898 0.79971 1.10892
 H133 H 0.24726 0.85775 1.20472
 C134 C 0.82717 1.22851 1.23726
 C135 C 0.84471 1.21504 1.26666
 C136 C 0.83291 1.18553 1.28362
 C137 C 0.80292 1.16973 1.27007
 C138 C 0.78572 1.18241 1.24014
 C139 C 0.79760 1.21216 1.22397
 C140 C 0.83943 1.25758 1.22031
 C141 C 0.82201 1.27116 1.19066
 C142 C 0.79186 1.25499 1.17836
 C143 C 0.78039 1.22509 1.19394
 C144 C 0.75276 1.20724 1.17907
 C145 C 0.74195 1.17673 1.19403
 C146 C 0.75776 1.16496 1.22518
 H147 H 0.86697 1.22837 1.27687
 H148 H 0.79406 1.14618 1.28123
 H149 H 0.86320 1.26889 1.22973
 H150 H 0.77733 1.26527 1.15627
 H151 H 0.74021 1.21654 1.15528
 H152 H 0.74934 1.14141 1.23678
 O153 O 0.53411 0.98303 0.92402
 O154 O 0.47175 0.96953 1.07685
 O155 O 0.55517 0.94721 1.03347
 O156 O 0.44064 0.98505 0.98278
 O157 O 0.53760 0.96999 1.08217
 O158 O 0.48729 0.95821 0.96278
 O159 O 0.43391 0.99798 1.04520
 O160 O 0.55217 0.95804 0.97159
 C161 C 0.55646 0.96234 0.93861
 C162 C 0.44108 0.97396 1.06606
 C163 C 0.55282 0.94621 1.06613
 C164 C 0.45492 0.95892 0.96873
 O165 O 0.47292 1.01515 0.93383
 O166 O 0.53646 1.03505 1.07967
 O167 O 0.57534 1.02233 0.98279
 O168 O 0.46293 1.05999 1.03368
 O169 O 0.47060 1.03509 1.08255
 O170 O 0.52902 1.03919 0.95613
 O171 O 0.46765 1.04972 0.97473
 O172 O 0.57803 1.01074 1.04687
 Co173 Co 0.50907 0.99857 0.96182
 Co174 Co 0.50424 1.00254 1.07405
 Co175 Co 0.56018 0.98637 1.00911
 Co176 Co 0.45529 1.02159 1.00938
 O177 O 0.50614 1.00330 1.01586
 C178 C 0.46012 1.04264 0.94398
 C179 C 0.56814 1.03189 1.07058
 C180 C 0.56045 1.04287 0.96249
 C181 C 0.46116 1.06085 1.06617
 O182 O 0.03448 0.46420 0.03355
 O183 O 0.03343 0.52666 -0.06089
 O184 O -0.00171 0.42756 -0.04716
 O185 O 0.00130 0.56738 0.01310
 O186 O 0.03492 0.46623 -0.05672
 O187 O 0.03034 0.52845 0.04333
 O188 O -0.00564 0.56433 -0.05173
 O189 O -0.00099 0.42562 0.01626
 C190 C 0.02819 0.43372 0.02881
 C191 C 0.02536 0.55708 -0.05916
 C192 C 0.02868 0.43572 -0.05554
 C193 C 0.02579 0.55855 0.03366
 O194 O -0.03523 0.52355 0.06230
 O195 O -0.03061 0.46337 -0.08661
 O196 O -0.06701 0.45299 0.01819
 O197 O -0.06907 0.53993 -0.04427
 O198 O -0.03420 0.52467 -0.08718
 O199 O -0.03071 0.46060 0.05957
 O200 O -0.06451 0.55142 0.02168
 O201 O -0.06633 0.45912 -0.04407
 Co202 Co -0.00155 0.49410 0.04344
 Co203 Co -0.00063 0.49536 -0.06784
 Co204 Co -0.03253 0.44578 -0.01429
 Co205 Co -0.03282 0.54997 -0.01536
 O206 O -0.01629 0.49662 -0.01283
 C207 C -0.06006 0.54333 0.05325
 C208 C -0.06038 0.45519 -0.07582
 C209 C -0.05994 0.45047 0.04978
 C210 C -0.06373 0.53616 -0.07655
 O211 O 1.08277 0.02750 0.47080
 O212 O 0.94176 0.01065 0.53639
 O213 O 0.99618 0.03880 0.44765
 O214 O 1.04012 0.05144 0.55252
 O215 O 0.94870 0.02392 0.47260
 O216 O 1.08747 0.02508 0.53658
 O217 O 0.98082 0.04566 0.54236
 O218 O 1.05041 0.00822 0.42887
 C219 C 1.07347 0.02790 0.43917
 C220 C 0.95005 0.03903 0.54689
 C221 C 0.96488 0.04498 0.45438
 C222 C 1.07251 0.05000 0.55115
 O223 O 1.08017 -0.03982 0.53687
 O224 O 0.96644 -0.04209 0.46075
 O225 O 1.02742 -0.04913 0.45023
 O226 O 0.98434 -0.02008 0.57066
 O227 O 0.96911 -0.05012 0.52510
 O228 O 1.07968 -0.03963 0.46887
 O229 O 1.04739 -0.01242 0.57656
 O230 O 0.98600 -0.01573 0.41372
 Co231 Co 1.07648 -0.00647 0.50298
 Co232 Co 0.96248 -0.01287 0.49896
 Co233 Co 1.01113 -0.00492 0.45212
 Co234 Co 1.01296 0.01475 0.55631
 O235 O 1.01886 -0.00134 0.50447
 C236 C 1.06991 -0.03536 0.56831
 C237 C 0.96317 -0.03629 0.42773
 C238 C 1.05908 -0.05749 0.45156
 C239 C 0.97218 -0.04694 0.55775
 C240 C 1.13346 0.12051 0.33987
 C241 C 1.16861 0.12948 0.34322
 C242 C 1.18361 0.15057 0.31778
 C243 C 1.16371 0.16322 0.28905
 C244 C 1.12791 0.15468 0.28710
 C245 C 1.11291 0.13301 0.31204
 C246 C 1.11802 0.09714 0.36572
 C247 C 1.08324 0.08710 0.36152
 C248 C 1.06905 0.06405 0.38547
 C249 C 1.08912 0.05170 0.41393
 C250 C 1.12368 0.06260 0.41827
 C251 C 1.13846 0.08498 0.39388
 C252 C 1.07793 0.12293 0.30919
 C253 C 1.06340 0.10024 0.33341
 C254 C 1.18821 0.11694 0.37183
 C255 C 1.17333 0.09521 0.39683
 H256 H 1.06176 0.13236 0.28781
 H257 H 1.03644 0.09286 0.33005
 H258 H 1.21535 0.12384 0.37483
 H259 H 1.18939 0.08605 0.41841
 H260 H 1.21062 0.15775 0.32109
 H261 H 1.11206 0.16299 0.26502
 H262 H 1.04225 0.05609 0.38230
 H263 H 1.13919 0.05313 0.44015
 C264 C 0.88406 -0.12263 0.33759
 C265 C 0.88537 -0.15777 0.34283
 C266 C 0.86601 -0.17877 0.32063
 C267 C 0.84422 -0.16481 0.29407
 C268 C 0.84348 -0.12924 0.28945
 C269 C 0.86359 -0.10821 0.31074
 C270 C 0.90437 -0.10044 0.36078
 C271 C 0.90394 -0.06535 0.35475
 C272 C 0.92363 -0.04442 0.37663
 C273 C 0.94248 -0.05831 0.40502
 C274 C 0.94231 -0.09340 0.41109
 C275 C 0.92374 -0.11472 0.38861
 C276 C 0.86364 -0.07299 0.30563
 C277 C 0.88369 -0.05195 0.32709
 C278 C 0.90559 -0.17117 0.37058
 C279 C 0.92424 -0.14999 0.39324
 H280 H 0.84808 -0.06158 0.28482
 H281 H 0.88307 -0.02495 0.32219
 H282 H 0.90676 -0.19823 0.37503
 H283 H 0.93927 -0.16133 0.41447
 H284 H 0.86655 -0.20578 0.32547
 H285 H 0.82835 -0.11777 0.26836
 H286 H 0.92383 -0.01735 0.37206
 H287 H 0.95730 -0.10411 0.43273
 C288 C 0.86667 0.12191 0.64234
 C289 C 0.83065 0.11649 0.64648
 C290 C 0.81139 0.13571 0.67169
 C291 C 0.82821 0.15942 0.69353
 C292 C 0.86459 0.16394 0.68901
 C293 C 0.88371 0.14581 0.66320
 C294 C 0.88718 0.10169 0.61621
 C295 C 0.92310 0.10752 0.61207
 C296 C 0.94269 0.08792 0.58791
 C297 C 0.92713 0.06159 0.56880
 C298 C 0.89095 0.05611 0.57296
 C299 C 0.87071 0.07645 0.59650
 C300 C 0.91973 0.15085 0.65821
 C301 C 0.93905 0.13223 0.63285
 C302 C 0.81482 0.09165 0.62563
 C303 C 0.83454 0.07179 0.60130
 H304 H 0.93313 0.16932 0.67409
 H305 H 0.96682 0.13681 0.62990
 H306 H 0.78703 0.08714 0.62852
 H307 H 0.82138 0.05256 0.58624
 H308 H 0.78344 0.13206 0.67426
 H309 H 0.87848 0.18100 0.70609
 H310 H 0.97052 0.09237 0.58507
 H311 H 0.87879 0.03594 0.55833
 C312 C 1.13602 -0.11223 0.67880
 C313 C 1.13426 -0.14762 0.67874
 C314 C 1.15012 -0.16607 0.70621
 C315 C 1.16865 -0.14951 0.73333
 C316 C 1.17061 -0.11378 0.73217
 C317 C 1.15392 -0.09511 0.70544
 C318 C 1.11868 -0.09265 0.65047
 C319 C 1.11939 -0.05714 0.65132
 C320 C 1.10252 -0.03864 0.62461
 C321 C 1.08613 -0.05544 0.59665
 C322 C 1.08597 -0.09101 0.59577
 C323 C 1.10176 -0.10980 0.62307
 C324 C 1.15436 -0.05955 0.70514
 C325 C 1.13717 -0.04089 0.67869
 C326 C 1.11673 -0.16389 0.65112
 C327 C 1.10100 -0.14533 0.62364
 H328 H 1.16793 -0.04601 0.72567
 H329 H 1.13801 -0.01351 0.67955
 H330 H 1.11529 -0.19124 0.65066
 H331 H 1.08794 -0.15889 0.60278
 H332 H 1.14908 -0.19343 0.70552
 H333 H 1.18342 -0.10010 0.75309
 H334 H 1.10284 -0.01120 0.62501
 H335 H 1.07314 -0.10386 0.57425
 C336 C 0.37029 1.15650 1.13689
 C337 C 0.34824 1.17734 1.11656
 C338 C 0.31996 1.19454 1.13293
 C339 C 0.31295 1.19075 1.16961
 C340 C 0.33726 1.17147 1.18982
 C341 C 0.36540 1.15385 1.17354
 C342 C 0.39753 1.13533 1.11914
 C343 C 0.41793 1.11262 1.13921
 C344 C 0.44092 1.08980 1.12180
 C345 C 0.44316 1.08938 1.08461
 C346 C 0.42422 1.11380 1.06505
 C347 C 0.40096 1.13652 1.08217
 C348 C 0.38773 1.13229 1.19301
 C349 C 0.41347 1.11191 1.17611
 C350 C 0.35357 1.17903 1.07978
 C351 C 0.37955 1.15900 1.06288
 H352 H 0.38443 1.13021 1.22140
 H353 H 0.42926 1.09470 1.19193
 H354 H 0.33682 1.19520 1.06379
 H355 H 0.38209 1.16030 1.03437
 H356 H 0.30192 1.20821 1.11601
 H357 H 0.33431 1.16953 1.21821
 H358 H 0.45557 1.07120 1.13705
 H359 H 0.42578 1.11369 1.03642
 C360 C 0.35612 0.86947 0.90769
 C361 C 0.36074 0.85931 0.87229
 C362 C 0.33349 0.84272 0.85516
 C363 C 0.30210 0.83593 0.87338
 C364 C 0.29840 0.84516 0.90922
 C365 C 0.32514 0.86242 0.92638
 C366 C 0.38352 0.88925 0.92498
 C367 C 0.37775 0.90154 0.95948
 C368 C 0.40233 0.92300 0.97454
 C369 C 0.43270 0.93167 0.95562
 C370 C 0.43910 0.91765 0.92184
 C371 C 0.41418 0.89694 0.90606
 C372 C 0.32105 0.87386 0.96143
 C373 C 0.34684 0.89324 0.97763
 C374 C 0.39209 0.86682 0.85449
 C375 C 0.41844 0.88515 0.87115
 H376 H 0.29735 0.86851 0.97618
 H377 H 0.34230 0.90224 1.00437
 H378 H 0.39607 0.85894 0.82725
 H379 H 0.44195 0.89091 0.85626
 H380 H 0.33636 0.83553 0.82757
 H381 H 0.27408 0.84028 0.92316
 H382 H 0.39742 0.93382 1.00045
 H383 H 0.46222 0.92474 0.90698
 C384 C 0.63775 0.85306 1.14618
 C385 C 0.65726 0.82745 1.12872
 C386 C 0.68230 0.80849 1.14766
 C387 C 0.68916 0.81598 1.18359
 C388 C 0.66818 0.84114 1.20076
 C389 C 0.64253 0.85959 1.18228
 C390 C 0.61311 0.87458 1.12591
 C391 C 0.59428 0.90068 1.14335
 C392 C 0.57277 0.92254 1.12370
 C393 C 0.57080 0.91923 1.08664
 C394 C 0.58896 0.89222 1.06963
 C395 C 0.61017 0.86974 1.08923
 C396 C 0.62237 0.88529 1.19899
 C397 C 0.59852 0.90540 1.17987
 C398 C 0.65255 0.82242 1.09225
 C399 C 0.62956 0.84332 1.07280
 H400 H 0.62559 0.89038 1.22693
 H401 H 0.58402 0.92543 1.19360
 H402 H 0.66746 0.80273 1.07841
 H403 H 0.62745 0.83917 1.04458
 H404 H 0.69836 0.78999 1.13335
 H405 H 0.67166 0.84645 1.22862
 H406 H 0.55900 0.94323 1.13714
 H407 H 0.58762 0.88944 1.04115
 C408 C 0.64866 1.12885 0.88076
 C409 C 0.64652 1.12743 0.84376
 C410 C 0.67097 1.14476 0.82314
 C411 C 0.69668 1.16478 0.83916
 C412 C 0.69737 1.16687 0.87656
 C413 C 0.67412 1.14821 0.89739
 C414 C 0.62435 1.10895 0.90249
 C415 C 0.62825 1.10812 0.93942
 C416 C 0.60661 1.08714 0.95966
 C417 C 0.58049 1.06832 0.94313
 C418 C 0.57596 1.07067 0.90634
 C419 C 0.59839 1.09024 0.88577
 C420 C 0.67646 1.14774 0.93449
 C421 C 0.65422 1.12771 0.95511
 C422 C 0.62010 1.10845 0.82804
 C423 C 0.59619 1.09046 0.84871
 H424 H 0.69613 1.16243 0.94768
 H425 H 0.65745 1.12748 0.98355
 H426 H 0.61796 1.10737 0.79952
 H427 H 0.57633 1.07599 0.83554
 H428 H 0.66915 1.14352 0.79459
 H429 H 0.71743 1.18118 0.88962
 H430 H 0.61019 1.08519 0.98798
 H431 H 0.55631 1.05560 0.89351
 C432 C 0.11293 0.33709 0.10415
 C433 C 0.14538 0.34686 0.11759
 C434 C 0.16432 0.32435 0.13913
 C435 C 0.15085 0.29244 0.14750
 C436 C 0.11816 0.28314 0.13400
 C437 C 0.09914 0.30534 0.11215
 C438 C 0.09272 0.36081 0.08178
 C439 C 0.06006 0.35122 0.06871
 C440 C 0.04010 0.37452 0.04906
 C441 C 0.05220 0.40749 0.04326
 C442 C 0.08559 0.41625 0.05545
 C443 C 0.10594 0.39301 0.07481
 C444 C 0.06662 0.29645 0.09813
 C445 C 0.04743 0.31899 0.07673
 C446 C 0.15814 0.37898 0.10935
 C447 C 0.13869 0.40172 0.08841
 H448 H 0.05578 0.27197 0.10396
 H449 H 0.02225 0.31131 0.06681
 H450 H 0.18318 0.38676 0.11951
 H451 H 0.14920 0.42646 0.08316
 H452 H 0.18941 0.33167 0.14962
 H453 H 0.10793 0.25841 0.13995
 H454 H 0.01435 0.36758 0.03997
 H455 H 0.09513 0.44154 0.05105
 C456 C -0.14539 0.35982 -0.14859
 C457 C -0.14028 0.35331 -0.18473
 C458 C -0.15852 0.32680 -0.20073
 C459 C -0.18028 0.30557 -0.18035
 C460 C -0.18448 0.31272 -0.14389
 C461 C -0.16793 0.34008 -0.12820
 C462 C -0.12577 0.38698 -0.13134
 C463 C -0.13130 0.39336 -0.09523
 C464 C -0.11166 0.41793 -0.07849
 C465 C -0.08497 0.43493 -0.09684
 C466 C -0.08010 0.42886 -0.13333
 C467 C -0.10090 0.40506 -0.15086
 C468 C -0.17288 0.34747 -0.09214
 C469 C -0.15519 0.37396 -0.07602
 C470 C -0.11633 0.37291 -0.20387
 C471 C -0.09668 0.39803 -0.18715
 H472 H -0.19040 0.33251 -0.07618
 H473 H -0.15948 0.37865 -0.04804
 H474 H -0.11206 0.36820 -0.23183
 H475 H -0.07782 0.41184 -0.20270
 H476 H -0.15521 0.32264 -0.22885
 H477 H -0.19963 0.29648 -0.12697
 H478 H -0.11576 0.42220 -0.05041
 H479 H -0.05969 0.44181 -0.14767
 C480 C 0.11524 0.66319 -0.10637
 C481 C 0.10043 0.69561 -0.11178
 C482 C 0.12118 0.72093 -0.12616
 C483 C 0.15657 0.71420 -0.13483
 C484 C 0.17145 0.68188 -0.12836
 C485 C 0.15066 0.65605 -0.11447
 C486 C 0.09295 0.63604 -0.09278
 C487 C 0.10722 0.60321 -0.08856
 C488 C 0.08534 0.57715 -0.07703
 C489 C 0.04958 0.58405 -0.06973
 C490 C 0.03612 0.61736 -0.07338
 C491 C 0.05753 0.64332 -0.08509
 C492 C 0.16426 0.62310 -0.10915
 C493 C 0.14290 0.59712 -0.09653
 C494 C 0.06500 0.70197 -0.10321
 C495 C 0.04393 0.67627 -0.08995
 H496 H 0.19154 0.61722 -0.11524
 H497 H 0.15434 0.57199 -0.09328
 H498 H 0.05338 0.72695 -0.10709
 H499 H 0.01662 0.68213 -0.08398
 H500 H 0.10985 0.74593 -0.13078
 H501 H 0.19873 0.67670 -0.13510
 H502 H 0.09594 0.55165 -0.07412
 H503 H 0.00869 0.62304 -0.06777
 C504 C -0.14332 0.62764 0.14573
 C505 C -0.13199 0.63441 0.18018
 C506 C -0.14906 0.66027 0.20000
 C507 C -0.17633 0.68021 0.18493
 C508 C -0.18709 0.67261 0.15022
 C509 C -0.17121 0.64621 0.13087
 C510 C -0.12441 0.60197 0.12398
 C511 C -0.13534 0.59621 0.08921
 C512 C -0.11569 0.57419 0.06755
 C513 C -0.08432 0.55896 0.07968
 C514 C -0.07454 0.56345 0.11523
 C515 C -0.09459 0.58518 0.13755
 C516 C -0.18198 0.63895 0.09633
 C517 C -0.16451 0.61414 0.07593
 C518 C -0.10308 0.61593 0.19355
 C519 C -0.08456 0.59193 0.17253
 H520 H -0.20370 0.65300 0.08473
 H521 H -0.17313 0.60981 0.04910
 H522 H -0.09405 0.62075 0.22013
 H523 H -0.06176 0.57910 0.18350
 H524 H -0.14055 0.66521 0.22672
 H525 H -0.20681 0.68811 0.13722
 H526 H -0.12370 0.57064 0.04037
 H527 H -0.05039 0.55190 0.12475
 C528 C 1.14782 0.14006 0.64025
 C529 C 1.18420 0.13585 0.64372
 C530 C 1.20162 0.15455 0.66956
 C531 C 1.18285 0.17680 0.69283
 C532 C 1.14616 0.18089 0.68797
 C533 C 1.12874 0.16282 0.66187
 C534 C 1.12909 0.11920 0.61450
 C535 C 1.09252 0.12275 0.61196
 C536 C 1.07452 0.10139 0.58929
 C537 C 1.09266 0.07591 0.56987
 C538 C 1.12951 0.07343 0.57168
 C539 C 1.14788 0.09505 0.59410
 C540 C 1.09223 0.16624 0.65793
 C541 C 1.07443 0.14662 0.63328
 C542 C 1.20235 0.11237 0.62186
 C543 C 1.18447 0.09219 0.59759
 H544 H 1.07721 0.18384 0.67444
 H545 H 1.04618 0.14958 0.63151
 H546 H 1.23050 0.10896 0.62413
 H547 H 1.19934 0.07380 0.58190
 H548 H 1.22984 0.15172 0.67098
 H549 H 1.13018 0.19627 0.70579
 H550 H 1.04616 0.10356 0.58814
 H551 H 1.14369 0.05390 0.55684
 C552 C 0.89305 -0.12874 0.65247
 C553 C 0.85634 -0.12699 0.65050
 C554 C 0.83630 -0.14451 0.67522
 C555 C 0.85251 -0.16478 0.70136
 C556 C 0.88962 -0.16704 0.70212
 C557 C 0.90995 -0.14843 0.67825
 C558 C 0.91413 -0.10916 0.62731
 C559 C 0.95087 -0.10918 0.63040
 C560 C 0.97059 -0.08905 0.60729
 C561 C 0.95352 -0.07030 0.58076
 C562 C 0.91693 -0.07134 0.57750
 C563 C 0.89702 -0.09021 0.60105
 C564 C 0.94679 -0.14856 0.68004
 C565 C 0.96688 -0.12901 0.65675
 C566 C 0.84024 -0.10769 0.62384
 C567 C 0.86028 -0.08981 0.59933
 H568 H 0.96019 -0.16353 0.69992
 H569 H 0.99515 -0.12944 0.65939
 H570 H 0.81192 -0.10635 0.62194
 H571 H 0.84688 -0.07513 0.57919
 H572 H 0.80799 -0.14334 0.67306
 H573 H 0.90279 -0.18169 0.72241
 H574 H 0.99883 -0.08792 0.60984
 H575 H 0.90385 -0.05626 0.55745
 C576 C 1.11898 -0.14717 0.34765
 C577 C 1.09763 -0.15901 0.32044
 C578 C 1.11336 -0.17433 0.29063
 C579 C 1.15017 -0.17741 0.28770
 C580 C 1.17110 -0.16654 0.31585
 C581 C 1.15564 -0.15119 0.34580
 C582 C 1.10280 -0.12834 0.37755
 C583 C 1.12435 -0.11471 0.40364
 C584 C 1.10928 -0.09382 0.42992
 C585 C 1.07307 -0.08589 0.42972
 C586 C 1.05153 -0.10144 0.40464
 C587 C 1.06633 -0.12241 0.37822
 C588 C 1.17618 -0.13853 0.37327
 C589 C 1.16079 -0.12058 0.40172
 C590 C 1.06109 -0.15391 0.32284
 C591 C 1.04570 -0.13590 0.35126
 H592 H 1.20446 -0.14167 0.37227
 H593 H 1.17766 -0.11032 0.42180
 H594 H 1.04434 -0.16310 0.30209
 H595 H 1.01752 -0.13165 0.35158
 H596 H 1.09705 -0.18220 0.26891
 H597 H 1.19941 -0.16917 0.31395
 H598 H 1.12609 -0.08204 0.44914
 H599 H 1.02366 -0.09545 0.40417
 C600 C 0.88884 0.13731 0.36627
 C601 C 0.85219 0.13548 0.36544
 C602 C 0.83370 0.15233 0.33866
 C603 C 0.85143 0.17114 0.31252
 C604 C 0.88832 0.17386 0.31503
 C605 C 0.90709 0.15655 0.34139
 C606 C 0.90859 0.11728 0.39259
 C607 C 0.94541 0.11716 0.39181
 C608 C 0.96408 0.09538 0.41445
 C609 C 0.94606 0.07360 0.43739
 C610 C 0.90918 0.07570 0.43940
 C611 C 0.89030 0.09708 0.41665
 C612 C 0.94393 0.15693 0.34242
 C613 C 0.96277 0.13745 0.36710
 C614 C 0.83475 0.11599 0.39083
 C615 C 0.85348 0.09718 0.41606
 H616 H 0.95838 0.17170 0.32338
 H617 H 0.99117 0.13769 0.36629
 H618 H 0.80641 0.11463 0.39066
 H619 H 0.83907 0.08177 0.43456
 H620 H 0.80537 0.15098 0.33861
 H621 H 0.90300 0.18722 0.29506
 H622 H 0.99245 0.09396 0.41271
 H623 H 0.89507 0.05900 0.45688
 C624 C 0.12473 0.34071 -0.12213
 C625 C 0.11094 0.31426 -0.14204
 C626 C 0.13366 0.29308 -0.16160
 C627 C 0.17041 0.29733 -0.16106
 C628 C 0.18390 0.32327 -0.13951
 C629 C 0.16105 0.34556 -0.12075
 C630 C 0.10053 0.36411 -0.10294
 C631 C 0.11396 0.39191 -0.08467
 C632 C 0.09049 0.41525 -0.06831
 C633 C 0.05406 0.41020 -0.06954
 C634 C 0.04129 0.38143 -0.08672
 C635 C 0.06429 0.35870 -0.10403
 C636 C 0.17361 0.37307 -0.10124
 C637 C 0.15048 0.39601 -0.08381
 C638 C 0.07456 0.30951 -0.14223
 C639 C 0.05163 0.33123 -0.12333
 H640 H 0.20154 0.37726 -0.09994
 H641 H 0.16127 0.41720 -0.06966
 H642 H 0.06368 0.28895 -0.15731
 H643 H 0.02372 0.32685 -0.12439
 H644 H 0.12253 0.27236 -0.17625
 H645 H 0.21187 0.32740 -0.13884
 H646 H 0.10041 0.43733 -0.05496
 H647 H 0.01326 0.37761 -0.08808
 C648 C -0.13442 0.35440 0.13313
 C649 C -0.12862 0.35200 0.16960
 C650 C -0.14397 0.32562 0.18868
 C651 C -0.16370 0.30081 0.17121
 C652 C -0.16874 0.30376 0.13440
 C653 C -0.15485 0.33072 0.11547
 C654 C -0.11779 0.38151 0.11273
 C655 C -0.12378 0.38372 0.07628
 C656 C -0.10675 0.40836 0.05665
 C657 C -0.08240 0.42972 0.07272
 C658 C -0.07716 0.42778 0.10949
 C659 C -0.09518 0.40381 0.12974
 C660 C -0.16045 0.33400 0.07900
 C661 C -0.14546 0.36029 0.05977
 C662 C -0.10698 0.37561 0.18605
 C663 C -0.09025 0.40085 0.16640
 H664 H -0.17636 0.31596 0.06514
 H665 H -0.15014 0.36176 0.03159
 H666 H -0.10226 0.37409 0.21420
 H667 H -0.07307 0.41796 0.17997
 H668 H -0.14021 0.32438 0.21698
 H669 H -0.18262 0.28462 0.11996
 H670 H -0.11091 0.40944 0.02835
 H671 H -0.05849 0.44413 0.12203
 C672 C -0.14834 0.62600 -0.15825
 C673 C -0.13612 0.63660 -0.19131
 C674 C -0.15175 0.66517 -0.20712
 C675 C -0.17836 0.68464 -0.18936
 C676 C -0.19114 0.67218 -0.15666
 C677 C -0.17635 0.64309 -0.14119
 C678 C -0.13000 0.59787 -0.14006
 C679 C -0.14128 0.58850 -0.10617
 C680 C -0.12139 0.56475 -0.08719
 C681 C -0.08943 0.55162 -0.10108
 C682 C -0.07978 0.55931 -0.13613
 C683 C -0.09997 0.58270 -0.15571
 C684 C -0.18786 0.63187 -0.10794
 C685 C -0.17073 0.60489 -0.09080
 C686 C -0.10742 0.61930 -0.20725
 C687 C -0.08947 0.59299 -0.18963
 H688 H -0.20966 0.64467 -0.09457
 H689 H -0.17973 0.59776 -0.06467
 H690 H -0.09785 0.62707 -0.23296
 H691 H -0.06655 0.58135 -0.20220
 H692 H -0.14263 0.67202 -0.23322
 H693 H -0.21071 0.68611 -0.14135
 H694 H -0.12927 0.55877 -0.06035
 H695 H -0.05530 0.54931 -0.14708
 C696 C 0.11056 0.66049 0.09606
 C697 C 0.11902 0.65752 0.13193
 C698 C 0.13634 0.68382 0.14861
 C699 C 0.14600 0.71302 0.12976
 C700 C 0.13893 0.71468 0.09311
 C701 C 0.12038 0.68885 0.07639
 C702 C 0.09021 0.63376 0.07910
 C703 C 0.07970 0.63755 0.04379
 C704 C 0.05856 0.61283 0.02853
 C705 C 0.04911 0.58419 0.04817
 C706 C 0.06085 0.58038 0.08308
 C707 C 0.08084 0.60532 0.09889
 C708 C 0.11041 0.69124 0.04073
 C709 C 0.09018 0.66617 0.02479
 C710 C 0.10948 0.62852 0.15072
 C711 C 0.09090 0.60272 0.13438
 H712 H 0.11774 0.71299 0.02520
 H713 H 0.08253 0.66930 -0.00256
 H714 H 0.11614 0.62589 0.17837
 H715 H 0.08378 0.58085 0.14985
 H716 H 0.14292 0.68110 0.17629
 H717 H 0.14554 0.73698 0.07811
 H718 H 0.04955 0.61579 0.00164
 H719 H 0.05323 0.55857 0.09843
 C720 C 0.36850 1.13292 0.86706
 C721 C 0.36661 1.13092 0.83015
 C722 C 0.34263 1.15214 0.81233
 C723 C 0.31911 1.17390 0.83132
 C724 C 0.32189 1.17554 0.86848
 C725 C 0.34683 1.15565 0.88632
 C726 C 0.39302 1.11020 0.88607
 C727 C 0.39527 1.11291 0.92291
 C728 C 0.41828 1.09133 0.94094
 C729 C 0.43782 1.06585 0.92287
 C730 C 0.43535 1.06325 0.88584
 C731 C 0.41327 1.08590 0.86719
 C732 C 0.34987 1.15747 0.92323
 C733 C 0.37401 1.13673 0.94119
 C734 C 0.38810 1.10710 0.81193
 C735 C 0.41073 1.08474 0.83015
 H736 H 0.33341 1.17502 0.93839
 H737 H 0.37554 1.13887 0.96970
 H738 H 0.38687 1.10524 0.78339
 H739 H 0.42631 1.06638 0.81512
 H740 H 0.34196 1.15104 0.78375
 H741 H 0.30387 1.19122 0.88396
 H742 H 0.42032 1.09398 0.96935
 H743 H 0.45066 1.04401 0.87174
 C744 C 0.32997 0.88923 1.11506
 C745 C 0.29614 0.89374 1.10112
 C746 C 0.26901 0.87341 1.11349
 C747 C 0.27551 0.84945 1.14012
 C748 C 0.30945 0.84514 1.15380
 C749 C 0.33694 0.86481 1.14110
 C750 C 0.35848 0.91086 1.10256
 C751 C 0.39236 0.90615 1.11622
 C752 C 0.41942 0.92675 1.10414
 C753 C 0.41261 0.95223 1.07900
 C754 C 0.37828 0.95689 1.06607
 C755 C 0.35123 0.93606 1.07747
 C756 C 0.37114 0.86087 1.15420
 C757 C 0.39843 0.88107 1.14182
 C758 C 0.29004 0.91892 1.07566
 C759 C 0.31707 0.93989 1.06422
 H760 H 0.37685 0.84206 1.17423
 H761 H 0.42443 0.87720 1.15260
 H762 H 0.26409 0.92269 1.06475
 H763 H 0.31121 0.95916 1.04470
 H764 H 0.24268 0.87685 1.10333
 H765 H 0.31424 0.82667 1.17443
 H766 H 0.44566 0.92305 1.11444
 H767 H 0.37266 0.97644 1.04677
 C768 C 0.66754 1.11545 1.14110
 C769 C 0.69739 1.12619 1.12270
 C770 C 0.72127 1.14681 1.14008
 C771 C 0.71579 1.15606 1.17574
 C772 C 0.68591 1.14488 1.19390
 C773 C 0.66144 1.12484 1.17655
 C774 C 0.64225 1.09387 1.12293
 C775 C 0.61201 1.08379 1.14109
 C776 C 0.58781 1.06367 1.12360
 C777 C 0.59409 1.05295 1.08850
 C778 C 0.62483 1.06277 1.07081
 C779 C 0.64879 1.08370 1.08778
 C780 C 0.63101 1.11398 1.19390
 C781 C 0.60660 1.09398 1.17640
 C782 C 0.70285 1.11587 1.08743
 C783 C 0.67906 1.09484 1.07032
 H784 H 0.62594 1.12111 1.22119
 H785 H 0.58338 1.08628 1.19069
 H786 H 0.72582 1.12396 1.07298
 H787 H 0.68433 1.08737 1.04316
 H788 H 0.74451 1.15512 1.12619
 H789 H 0.68164 1.15209 1.22132
 H790 H 0.56431 1.05595 1.13743
 H791 H 0.62969 1.05468 1.04376
 C792 C 0.65032 0.87382 0.85942
 C793 C 0.65333 0.87737 0.82262
 C794 C 0.67771 0.85682 0.80392
 C795 C 0.69932 0.83317 0.82187
 C796 C 0.69530 0.82958 0.85875
 C797 C 0.67092 0.84982 0.87763
 C798 C 0.62573 0.89621 0.87942
 C799 C 0.62321 0.89295 0.91628
 C800 C 0.60032 0.91460 0.93526
 C801 C 0.58010 0.93958 0.91775
 C802 C 0.58281 0.94248 0.88072
 C803 C 0.60564 0.92078 0.86139
 C804 C 0.66737 0.84713 0.91451
 C805 C 0.64387 0.86829 0.93350
 C806 C 0.63245 0.90191 0.80541
 C807 C 0.60905 0.92326 0.82446
 H808 H 0.68310 0.82870 0.92885
 H809 H 0.64208 0.86552 0.96195
 H810 H 0.63449 0.90491 0.77701
 H811 H 0.59368 0.94202 0.81018
 H812 H 0.68025 0.85959 0.77553
 H813 H 0.71215 0.81201 0.87302
 H814 H 0.59838 0.91205 0.96373
 H815 H 0.56738 0.96163 0.86705
   
