data_POSCAR
  _audit_creation_date              2014-09-24
  _audit_creation_method            'ToBaCCo'
  _symmetry_space_group_name_H-M    'P1'
  _symmetry_Int_Tables_number       1
  _symmetry_cell_setting            triclinic
  loop_
  _symmetry_equiv_pos_as_xyz
 x,y,z
_cell_length_a 35.2296
_cell_length_b 20.5757
_cell_length_c 13.9988
_cell_angle_alpha 89.977000
_cell_angle_beta 89.925000
_cell_angle_gamma 90.053800
loop_
  _atom_site_label
  _atom_site_type_symbol
  _atom_site_fract_x
  _atom_site_fract_y
  _atom_site_fract_z
O1 O 0.73170 0.32658 0.59093
 O2 O 0.79874 0.26859 0.40789
 O3 O 0.73213 0.32610 0.40421
 O4 O 0.79761 0.26817 0.59056
 O5 O 0.76915 0.17254 0.58927
 O6 O 0.70267 0.23143 0.40634
 O7 O 0.76873 0.17459 0.40308
 O8 O 0.70318 0.23107 0.59049
 Cu9 Cu 0.76772 0.30715 0.49834
 Cu10 Cu 0.73313 0.19281 0.49733
 C11 C 0.70579 0.28891 0.62151
 C12 C 0.79567 0.21122 0.37519
 C13 C 0.70576 0.28901 0.37464
 C14 C 0.79514 0.20991 0.61996
 O15 O 0.20143 0.72808 0.41039
 O16 O 0.26771 0.66890 0.59379
 O17 O 0.20186 0.72753 0.59478
 O18 O 0.26737 0.66981 0.40786
 O19 O 0.29643 0.76492 0.40954
 O20 O 0.23123 0.82229 0.59649
 O21 O 0.29721 0.76341 0.59245
 O22 O 0.23054 0.82308 0.40987
 Cu23 Cu 0.23172 0.68902 0.50170
 Cu24 Cu 0.26657 0.80315 0.50223
 C25 C 0.20434 0.78593 0.37962
 C26 C 0.29444 0.70540 0.62302
 C27 C 0.20503 0.78507 0.62667
 C28 C 0.29359 0.70721 0.37828
 O29 O 0.23147 0.17565 -0.59769
 O30 O 0.29688 0.23339 -0.41171
 O31 O 0.23120 0.17439 -0.41094
 O32 O 0.29748 0.23458 -0.59454
 O33 O 0.26754 0.32856 -0.59637
 O34 O 0.20228 0.26945 -0.40987
 O35 O 0.26788 0.32847 -0.41034
 O36 O 0.20142 0.26948 -0.59411
 Cu37 Cu 0.26697 0.19481 -0.50397
 Cu38 Cu 0.23190 0.30852 -0.50281
 C39 C 0.20468 0.21206 -0.62657
 C40 C 0.29410 0.29120 -0.38081
 C41 C 0.20526 0.21154 -0.37938
 C42 C 0.29445 0.29242 -0.62551
 O43 O -0.20316 0.73444 -0.40908
 O44 O -0.26844 0.67611 -0.59555
 O45 O -0.20212 0.73465 -0.59177
 O46 O -0.26896 0.67577 -0.40890
 O47 O -0.29765 0.77104 -0.40912
 O48 O -0.23225 0.82845 -0.59628
 O49 O -0.29811 0.77049 -0.59338
 O50 O -0.23173 0.82987 -0.41017
 Cu51 Cu -0.23297 0.69549 -0.50143
 Cu52 Cu -0.26778 0.80953 -0.50223
 C53 C -0.20570 0.79261 -0.37950
 C54 C -0.29487 0.71297 -0.62515
 C55 C -0.20526 0.79208 -0.62425
 C56 C -0.29490 0.71320 -0.37819
 O57 O -0.05324 0.88705 0.17488
 O58 O -0.09500 0.94693 0.08513
 C59 C -0.08735 0.90405 0.15043
 O60 O 0.05379 1.12016 0.16584
 O61 O 0.09560 1.05615 0.08252
 C62 C 0.08792 1.10188 0.14332
 O63 O -0.05240 1.11659 0.17267
 O64 O -0.09456 1.05645 0.08433
 C65 C -0.08664 1.09972 0.14883
 O66 O 0.05267 0.88123 0.16798
 O67 O 0.09513 0.94316 0.08314
 C68 C 0.08701 0.89818 0.14498
 Zr69 Zr -0.00005 0.91881 0.12197
 O70 O 0.00312 0.91751 0.27297
 O71 O -0.00191 0.81627 0.11375
 Zr72 Zr 0.00061 1.08297 0.12118
 O73 O 0.00435 1.08096 0.27214
 O74 O -0.00293 1.18566 0.12256
 O75 O -0.03375 1.00128 0.14036
 O76 O 0.03327 1.00060 0.13950
 O77 O 0.05347 0.87997 -0.16117
 O78 O 0.09570 0.94365 -0.07844
 C79 C 0.08775 0.89771 -0.13883
 O80 O -0.05184 1.11429 -0.17351
 O81 O -0.09429 1.05583 -0.08353
 C82 C -0.08616 1.09790 -0.14960
 O83 O 0.05411 1.11853 -0.16470
 O84 O 0.09588 1.05591 -0.07928
 C85 C 0.08824 1.10093 -0.14135
 O86 O -0.05260 0.88640 -0.17156
 O87 O -0.09468 0.94664 -0.08317
 C88 C -0.08681 0.90383 -0.14837
 Zr89 Zr 0.00036 0.91815 -0.11812
 O90 O 0.00475 0.91870 -0.26901
 O91 O -0.00334 0.81549 -0.11780
 Zr92 Zr 0.00091 1.08208 -0.11949
 O93 O 0.00524 1.08044 -0.27037
 O94 O -0.00286 1.18478 -0.12089
 Zr95 Zr -0.05649 1.00109 0.00109
 Zr96 Zr 0.05722 1.00003 0.00175
 O97 O 0.03369 0.99974 -0.13635
 O98 O -0.03333 1.00035 -0.13794
 O99 O 0.03415 0.90559 0.00235
 O100 O -0.03229 1.09469 0.00051
 O101 O -0.03314 0.90701 0.00181
 O102 O 0.03480 1.09504 0.00090
 H103 H 0.05024 1.00050 0.19589
 H104 H -0.04908 1.13330 -0.00015
 H105 H 0.05086 0.99932 -0.19247
 H106 H -0.05027 0.86878 0.00175
 H107 H 0.01732 1.20247 0.08025
 H108 H 0.01824 1.20189 -0.08175
 H109 H -0.01656 1.05523 -0.29506
 H110 H -0.01695 0.94389 -0.29416
 H111 H 0.01356 0.79960 -0.06646
 H112 H -0.00192 0.80026 0.18054
 H113 H -0.01701 0.94660 0.29729
 H114 H -0.01846 1.05829 0.29660
 O115 O 0.44672 0.38559 0.17147
 O116 O 0.40486 0.44581 0.08227
 C117 C 0.41257 0.40304 0.14764
 O118 O 0.55311 0.61893 0.16390
 O119 O 0.59513 0.55633 0.07901
 C120 C 0.58733 0.60150 0.14068
 O121 O 0.44675 0.61300 0.17174
 O122 O 0.40481 0.55399 0.08129
 C123 C 0.41256 0.59635 0.14722
 O124 O 0.55336 0.38112 0.16383
 O125 O 0.59524 0.44433 0.07907
 C126 C 0.58754 0.39902 0.14068
 Zr127 Zr 0.50007 0.41761 0.11920
 O128 O 0.50398 0.41877 0.27011
 O129 O 0.49616 0.31493 0.12027
 Zr130 Zr 0.49997 0.58190 0.11906
 O131 O 0.50397 0.58111 0.26996
 O132 O 0.49575 0.68454 0.11977
 O133 O 0.46613 0.49964 0.13808
 O134 O 0.53297 0.49990 0.13666
 O135 O 0.55347 0.38119 -0.16677
 O136 O 0.59530 0.44430 -0.08215
 C137 C 0.58764 0.39898 -0.14370
 O138 O 0.44659 0.61364 -0.17404
 O139 O 0.40481 0.55299 -0.08480
 C140 C 0.41247 0.59585 -0.15014
 O141 O 0.55315 0.61927 -0.16645
 O142 O 0.59516 0.55633 -0.08215
 C143 C 0.58736 0.60172 -0.14349
 O144 O 0.44710 0.38623 -0.17449
 O145 O 0.40497 0.44480 -0.08386
 C146 C 0.41285 0.40258 -0.14991
 Zr147 Zr 0.50023 0.41777 -0.12186
 O148 O 0.50434 0.41856 -0.27277
 O149 O 0.49621 0.31510 -0.12255
 Zr150 Zr 0.49995 0.58203 -0.12201
 O151 O 0.50401 0.58058 -0.27294
 O152 O 0.49580 0.68466 -0.12364
 Zr153 Zr 0.44357 0.49956 -0.00133
 Zr154 Zr 0.55664 0.50012 -0.00149
 O155 O 0.53306 0.50009 -0.13958
 O156 O 0.46620 0.49969 -0.14079
 O157 O 0.53412 0.40510 -0.00136
 O158 O 0.46697 0.59370 -0.00139
 O159 O 0.46717 0.40565 -0.00133
 O160 O 0.53390 0.59491 -0.00154
 H161 H 0.55005 0.50001 0.19283
 H162 H 0.44985 0.63187 -0.00141
 H163 H 0.55020 0.50017 -0.19576
 H164 H 0.45011 0.36734 -0.00127
 H165 H 0.51675 0.70175 0.08019
 H166 H 0.51622 0.70185 -0.08235
 H167 H 0.48187 0.55619 -0.29746
 H168 H 0.48280 0.44436 -0.29743
 H169 H 0.51714 0.29810 -0.08273
 H170 H 0.51698 0.29799 0.07994
 H171 H 0.48196 0.44344 0.29470
 H172 H 0.48241 0.55523 0.29467
 C173 C 0.31782 0.37966 0.27077
 C174 C 0.32181 0.31724 0.31093
 C175 C 0.35509 0.28175 0.29073
 C176 C 0.38433 0.30937 0.23669
 C177 C 0.38060 0.37225 0.19902
 C178 C 0.34669 0.40637 0.21442
 H179 H 0.29261 0.40846 0.28380
 H180 H 0.35935 0.23353 0.31987
 H181 H 0.41006 0.28169 0.22500
 H182 H 0.34306 0.45468 0.18577
 C183 C -0.18334 0.87628 0.26525
 C184 C -0.17794 0.81634 0.31187
 C185 C -0.14345 0.78308 0.29770
 C186 C -0.11422 0.81129 0.24429
 C187 C -0.11928 0.87211 0.20061
 C188 C -0.15462 0.90294 0.20848
 H189 H -0.20969 0.90289 0.27282
 H190 H -0.13816 0.73670 0.33180
 H191 H -0.08748 0.78571 0.23798
 H192 H -0.15970 0.94862 0.17308
 C193 C 0.68341 0.63051 0.25454
 C194 C 0.67680 0.68799 0.30610
 C195 C 0.64165 0.71948 0.29626
 C196 C 0.61304 0.69239 0.24000
 C197 C 0.61911 0.63369 0.19105
 C198 C 0.65496 0.60400 0.19671
 H199 H 0.71031 0.60539 0.26029
 H200 H 0.63568 0.76383 0.33510
 H201 H 0.58585 0.71678 0.23646
 H202 H 0.66056 0.55902 0.15935
 C203 C 0.18223 1.12592 0.26697
 C204 C 0.17782 1.18792 0.30822
 C205 C 0.14472 1.22356 0.28708
 C206 C 0.11588 1.19624 0.23148
 C207 C 0.11989 1.13353 0.19337
 C208 C 0.15379 1.09947 0.20932
 H209 H 0.20738 1.09709 0.28050
 H210 H 0.14021 1.27153 0.31684
 H211 H 0.09014 1.22382 0.21956
 H212 H 0.15766 1.05118 0.18055
 C213 C 0.64237 0.28138 -0.29924
 C214 C 0.67738 0.31336 -0.30944
 C215 C 0.68379 0.37101 -0.25807
 C216 C 0.65526 0.39721 -0.20013
 C217 C 0.61952 0.36705 -0.19413
 C218 C 0.61366 0.30819 -0.24285
 H219 H 0.63656 0.23691 -0.33796
 H220 H 0.71059 0.39650 -0.26411
 H221 H 0.66070 0.44234 -0.16299
 H222 H 0.58655 0.28345 -0.23905
 C223 C 0.14168 0.77861 -0.29360
 C224 C 0.17691 0.80986 -0.30385
 C225 C 0.18376 0.86733 -0.25243
 C226 C 0.15541 0.89421 -0.19461
 C227 C 0.11944 0.86489 -0.18876
 C228 C 0.11316 0.80607 -0.23728
 H229 H 0.13554 0.73428 -0.33234
 H230 H 0.21075 0.89225 -0.25848
 H231 H 0.16120 0.93924 -0.15753
 H232 H 0.08587 0.78194 -0.23356
 C233 C 0.31794 0.61826 -0.27368
 C234 C 0.32182 0.68081 -0.31359
 C235 C 0.35493 0.71670 -0.29309
 C236 C 0.38414 0.68935 -0.23893
 C237 C 0.38052 0.62637 -0.20148
 C238 C 0.34677 0.59184 -0.21723
 H239 H 0.29285 0.58917 -0.28693
 H240 H 0.35908 0.76502 -0.32202
 H241 H 0.40976 0.71733 -0.22697
 H242 H 0.34324 0.54342 -0.18881
 C243 C -0.18302 1.12871 -0.25838
 C244 C -0.17601 1.18460 -0.31332
 C245 C -0.14004 1.21388 -0.30925
 C246 C -0.11112 1.18625 -0.25473
 C247 C -0.11772 1.12937 -0.20163
 C248 C -0.15426 1.10188 -0.20196
 H249 H -0.21058 1.10537 -0.25989
 H250 H -0.13379 1.25685 -0.35116
 H251 H -0.08341 1.20909 -0.25518
 H252 H -0.16034 1.05867 -0.16074
 C253 C 0.68337 0.63079 -0.25786
 C254 C 0.67681 0.68845 -0.30906
 C255 C 0.64175 0.72014 -0.29865
 C256 C 0.61313 0.69299 -0.24224
 C257 C 0.61914 0.63407 -0.19378
 C258 C 0.65493 0.60424 -0.19992
 H259 H 0.71022 0.60554 -0.26407
 H260 H 0.63585 0.76463 -0.33723
 H261 H 0.58598 0.71747 -0.23828
 H262 H 0.66048 0.55908 -0.16295
 C263 C 0.18364 1.12815 -0.26006
 C264 C 0.17726 1.18657 -0.30959
 C265 C 0.14264 1.21920 -0.29645
 C266 C 0.11425 1.19237 -0.23903
 C267 C 0.12003 1.13279 -0.19222
 C268 C 0.15541 1.10186 -0.20110
 H269 H 0.21015 1.10214 -0.26836
 H270 H 0.13686 1.26431 -0.33356
 H271 H 0.08740 1.21766 -0.23298
 H272 H 0.16072 1.05607 -0.16561
 C273 C 0.31520 0.36857 -0.25291
 C274 C 0.32297 0.31605 -0.31392
 C275 C 0.35963 0.28954 -0.31535
 C276 C 0.38850 0.31695 -0.26054
 C277 C 0.38122 0.37078 -0.20149
 C278 C 0.34396 0.39494 -0.19581
 H279 H 0.28702 0.38945 -0.24991
 H280 H 0.36643 0.24914 -0.36192
 H281 H 0.41673 0.29644 -0.26570
 H282 H 0.33720 0.43510 -0.14903
 C283 C -0.18358 0.87443 -0.25884
 C284 C -0.17689 0.81790 -0.31253
 C285 C -0.14122 0.78778 -0.30687
 C286 C -0.11227 0.81514 -0.25209
 C287 C -0.11853 0.87265 -0.20031
 C288 C -0.15479 0.90105 -0.20218
 H289 H -0.21090 0.89844 -0.26154
 H290 H -0.13518 0.74429 -0.34772
 H291 H -0.08479 0.79160 -0.25135
 H292 H -0.16060 0.94480 -0.16207
 C293 C 0.31480 0.62979 0.25044
 C294 C 0.32245 0.68257 0.31105
 C295 C 0.35905 0.70946 0.31202
 C296 C 0.38798 0.68214 0.25723
 C297 C 0.38083 0.62802 0.19868
 C298 C 0.34362 0.60349 0.19338
 H299 H 0.28667 0.60859 0.24782
 H300 H 0.36577 0.75006 0.35826
 H301 H 0.41616 0.70295 0.26206
 H302 H 0.33697 0.56310 0.14695
 C303 C -0.18261 1.12779 0.26343
 C304 C -0.17702 1.18728 0.31106
 C305 C -0.14238 1.22038 0.29752
 C306 C -0.11320 1.19232 0.24381
 C307 C -0.11847 1.13190 0.19910
 C308 C -0.15398 1.10139 0.20627
 H309 H -0.20908 1.10136 0.27040
 H310 H -0.13695 1.26643 0.33243
 H311 H -0.08633 1.21766 0.23814
 H312 H -0.15926 1.05611 0.16996
 C313 C 0.64228 0.28175 0.29628
 C314 C 0.67733 0.31370 0.30603
 C315 C 0.68373 0.37129 0.25446
 C316 C 0.65517 0.39743 0.19668
 C317 C 0.61942 0.36724 0.19108
 C318 C 0.61356 0.30847 0.24007
 H319 H 0.63647 0.23730 0.33513
 H320 H 0.71055 0.39676 0.26016
 H321 H 0.66061 0.44250 0.15929
 H322 H 0.58645 0.28372 0.23658
 C323 C 0.14029 0.78091 0.30405
 C324 C 0.17598 0.81094 0.31114
 C325 C 0.18326 0.86700 0.25674
 C326 C 0.15495 0.89357 0.19860
 C327 C 0.11855 0.86557 0.19576
 C328 C 0.11180 0.80820 0.24766
 H329 H 0.13384 0.73767 0.34516
 H330 H 0.21064 0.89084 0.26025
 H331 H 0.16118 0.93724 0.15852
 H332 H 0.08419 0.78503 0.24635
   
