data_POSCAR
  _audit_creation_date              2014-09-24
  _audit_creation_method            'ToBaCCo'
  _symmetry_space_group_name_H-M    'P1'
  _symmetry_Int_Tables_number       1
  _symmetry_cell_setting            triclinic
  loop_
  _symmetry_equiv_pos_as_xyz
 x,y,z
_cell_length_a 36.0972
_cell_length_b 35.5963
_cell_length_c 35.7471
_cell_angle_alpha 89.989000
_cell_angle_beta 90.320200
_cell_angle_gamma 90.119100
loop_
  _atom_site_label
  _atom_site_type_symbol
  _atom_site_fract_x
  _atom_site_fract_y
  _atom_site_fract_z
N1 N 0.13813 0.16244 0.23954
 N2 N 0.16233 0.13496 0.23838
 C3 C 0.15586 0.11132 0.26712
 C4 C 0.12645 0.12522 0.28783
 C5 C 0.11598 0.15775 0.26931
 H6 H 0.17230 0.08677 0.27351
 H7 H 0.09380 0.17663 0.27670
 Cu8 Cu 0.20149 0.13481 0.20093
 Cu9 Cu 0.13694 0.20242 0.20253
 Cu10 Cu 0.20517 0.20220 0.13472
 N11 N 0.24027 0.13545 0.16314
 N12 N 0.24083 0.16115 0.13676
 C13 C 0.26899 0.15398 0.11331
 C14 C 0.28762 0.12226 0.12582
 C15 C 0.26852 0.11142 0.15772
 H16 H 0.27507 0.17053 0.08877
 H17 H 0.27399 0.08726 0.17517
 N18 N 0.16652 0.24126 0.13755
 N19 N 0.14007 0.24054 0.16287
 C20 C 0.11753 0.27005 0.15737
 C21 C 0.13042 0.29066 0.12737
 C22 C 0.16174 0.27172 0.11559
 H23 H 0.09393 0.27671 0.17459
 H24 H 0.17959 0.27940 0.09267
 H25 H 0.16277 0.17304 0.15987
 H26 H 0.19320 0.20203 0.19095
 N27 N -0.13778 0.84161 0.23508
 N28 N -0.15221 0.87472 0.22781
 C29 C -0.14250 0.89895 0.25499
 C30 C -0.12123 0.87986 0.28102
 C31 C -0.11895 0.84344 0.26767
 H32 H -0.15105 0.92800 0.25621
 H33 H -0.10416 0.82023 0.28028
 Cu34 Cu -0.18434 0.88261 0.18501
 Cu35 Cu -0.14425 0.79908 0.20116
 Cu36 Cu -0.18151 0.82148 0.11442
 N37 N -0.22329 0.88116 0.14735
 N38 N -0.22202 0.85730 0.11938
 C39 C -0.25272 0.86116 0.09825
 C40 C -0.27475 0.88886 0.11404
 C41 C -0.25487 0.90104 0.14514
 H42 H -0.25866 0.84428 0.07381
 H43 H -0.26326 0.92173 0.16551
 N44 N -0.15275 0.77568 0.12347
 N45 N -0.14040 0.76594 0.15691
 C46 C -0.12393 0.73210 0.15440
 C47 C -0.12589 0.72021 0.11755
 C48 C -0.14428 0.74861 0.09875
 H49 H -0.11092 0.71752 0.17752
 H50 H -0.15185 0.74910 0.06944
 H51 H -0.14341 0.83563 0.15760
 H52 H -0.18979 0.81602 0.16977
 N53 N -0.13928 0.15779 -0.23651
 N54 N -0.16542 0.13199 -0.23633
 C55 C -0.16044 0.10876 -0.26560
 C56 C -0.13005 0.12112 -0.28545
 C57 C -0.11730 0.15235 -0.26636
 H58 H -0.17776 0.08486 -0.27236
 H59 H -0.09329 0.16919 -0.27302
 Cu60 Cu -0.20382 0.13173 -0.19829
 Cu61 Cu -0.13445 0.19523 -0.19695
 Cu62 Cu -0.20183 0.19425 -0.12821
 N63 N -0.24260 0.13285 -0.16058
 N64 N -0.24014 0.15594 -0.13204
 C65 C -0.26894 0.15017 -0.10910
 C66 C -0.29140 0.12233 -0.12429
 C67 C -0.27379 0.11220 -0.15727
 H68 H -0.27379 0.16630 -0.08402
 H69 H -0.28275 0.09132 -0.17727
 N70 N -0.16103 0.23095 -0.12909
 N71 N -0.13461 0.23068 -0.15447
 C72 C -0.11027 0.25842 -0.14662
 C73 C -0.12251 0.27744 -0.11531
 C74 C -0.15472 0.25934 -0.10503
 H75 H -0.08595 0.26479 -0.16291
 H76 H -0.17190 0.26613 -0.08132
 H77 H -0.16121 0.16464 -0.15638
 H78 H -0.19016 0.19745 -0.18487
 N79 N 0.13496 0.84710 -0.22926
 N80 N 0.16588 0.86523 -0.23620
 C81 C 0.16146 0.88601 -0.26735
 C82 C 0.12574 0.88052 -0.28073
 C83 C 0.10970 0.85577 -0.25559
 H84 H 0.18246 0.90420 -0.27898
 H85 H 0.08172 0.84490 -0.25601
 Cu86 Cu 0.20823 0.86057 -0.20293
 Cu87 Cu 0.12975 0.81461 -0.18581
 Cu88 Cu 0.21363 0.78355 -0.14945
 N89 N 0.24517 0.85613 -0.16362
 N90 N 0.24881 0.82513 -0.14398
 C91 C 0.27823 0.82869 -0.12087
 C92 C 0.29332 0.86429 -0.12580
 C93 C 0.27142 0.88081 -0.15318
 H94 H 0.28729 0.80721 -0.10149
 H95 H 0.27500 0.90828 -0.16557
 N96 N 0.16671 0.75578 -0.14333
 N97 N 0.13455 0.76940 -0.15459
 C98 C 0.10744 0.74551 -0.14476
 C99 C 0.12324 0.71508 -0.12680
 C100 C 0.16096 0.72242 -0.12649
 H101 H 0.07848 0.74915 -0.15175
 H102 H 0.18262 0.70516 -0.11463
 H103 H 0.17690 0.82566 -0.15354
 H104 H 0.18196 0.79750 -0.19718
 N105 N 0.17168 1.14920 0.75594
 N106 N 0.14056 1.16731 0.76179
 C107 C 0.11524 1.15670 0.73616
 C108 C 0.13159 1.13102 0.71238
 C109 C 0.16754 1.12711 0.72562
 H110 H 0.08710 1.16689 0.73517
 H111 H 0.18844 1.10808 0.71527
 Cu112 Cu 0.13624 1.20322 0.80224
 Cu113 Cu 0.21322 1.15283 0.79118
 Cu114 Cu 0.18460 1.18200 0.87917
 N115 N 0.13439 1.23493 0.84617
 N116 N 0.15182 1.22557 0.87718
 C117 C 0.14539 1.25189 0.90339
 C118 C 0.12359 1.27962 0.88749
 C119 C 0.11712 1.26796 0.85115
 H120 H 0.15732 1.25188 0.93123
 H121 H 0.10133 1.28255 0.82987
 N122 N 0.22948 1.15172 0.87095
 N123 N 0.24182 1.14314 0.83731
 C124 C 0.27401 1.12443 0.84085
 C125 C 0.28209 1.12071 0.87854
 C126 C 0.25325 1.13832 0.89682
 H127 H 0.28963 1.11299 0.81777
 H128 H 0.25000 1.14155 0.92671
 H129 H 0.17278 1.15261 0.82975
 H130 H 0.19921 1.19758 0.82684
 N131 N 0.83386 0.86182 0.75799
 N132 N 0.86249 0.83949 0.76244
 C133 C 0.88708 0.84626 0.73510
 C134 C 0.87272 0.87384 0.71202
 C135 C 0.83887 0.88307 0.72725
 H136 H 0.91332 0.83201 0.73197
 H137 H 0.81995 0.90449 0.71755
 Cu138 Cu 0.86497 0.80308 0.80293
 Cu139 Cu 0.79413 0.86372 0.79425
 Cu140 Cu 0.78983 0.79065 0.85767
 N141 N 0.85869 0.75860 0.83381
 N142 N 0.82923 0.75337 0.85465
 C143 C 0.83357 0.72154 0.87459
 C144 C 0.86764 0.70605 0.86588
 C145 C 0.88268 0.73033 0.83972
 H146 H 0.81433 0.71151 0.89542
 H147 H 0.90959 0.72834 0.82678
 N148 N 0.75321 0.83175 0.85623
 N149 N 0.75615 0.86055 0.83315
 C150 C 0.72976 0.88585 0.84117
 C151 C 0.70885 0.87204 0.87023
 C152 C 0.72419 0.83762 0.87908
 H153 H 0.72586 0.91237 0.82694
 H154 H 0.71575 0.81903 0.90138
 H155 H 0.81938 0.83671 0.83972
 H156 H 0.79796 0.80589 0.80280
 N157 N 0.15714 0.87213 1.23456
 N158 N 0.12940 0.84845 1.23062
 C159 C 0.10651 0.85191 1.25994
 C160 C 0.12103 0.87885 1.28374
 C161 C 0.15318 0.89118 1.26681
 H162 H 0.08158 0.83554 1.26408
 H163 H 0.17197 0.91268 1.27687
 Cu164 Cu 0.12642 0.81438 1.18824
 Cu165 Cu 0.19496 0.87686 1.19632
 Cu166 Cu 0.20912 0.79237 1.15086
 N167 N 0.13184 0.77301 1.15351
 N168 N 0.16442 0.76328 1.14043
 C169 C 0.16047 0.73238 1.11910
 C170 C 0.12332 0.72274 1.11828
 C171 C 0.10592 0.74915 1.14038
 H172 H 0.18280 0.71855 1.10451
 H173 H 0.07675 0.75048 1.14696
 N174 N 0.24583 0.83371 1.15112
 N175 N 0.23933 0.86645 1.16704
 C176 C 0.26702 0.89027 1.15903
 C177 C 0.29240 0.87179 1.13685
 C178 C 0.27826 0.83578 1.13267
 H179 H 0.26835 0.91910 1.16847
 H180 H 0.28960 0.81334 1.11595
 H181 H 0.17794 0.84000 1.15275
 H182 H 0.19301 0.82050 1.19898
 N183 N 0.83683 1.13708 1.23777
 N184 N 0.86916 1.14965 1.22649
 C185 C 0.89542 1.13959 1.25127
 C186 C 0.87876 1.11998 1.28007
 C187 C 0.84141 1.11903 1.27062
 H188 H 0.92416 1.14802 1.24960
 H189 H 0.81913 1.10671 1.28656
 Cu190 Cu 0.87401 1.18270 1.18377
 Cu191 Cu 0.79146 1.14614 1.20902
 Cu192 Cu 0.80135 1.19724 1.12747
 N193 N 0.87079 1.22693 1.15211
 N194 N 0.84122 1.23400 1.13168
 C195 C 0.84558 1.26736 1.11440
 C196 C 0.87997 1.28150 1.12435
 C197 C 0.89531 1.25508 1.14805
 H198 H 0.82572 1.27986 1.09538
 H199 H 0.92202 1.25660 1.16186
 N200 N 0.75771 1.16608 1.13746
 N201 N 0.75298 1.14770 1.16918
 C202 C 0.72193 1.12673 1.16635
 C203 C 0.70698 1.13177 1.13095
 C204 C 0.73035 1.15692 1.11347
 H205 H 0.71268 1.10679 1.18716
 H206 H 0.72858 1.16641 1.08477
 H207 H 0.81963 1.15048 1.15970
 H208 H 0.80793 1.19579 1.18365
 O209 O 0.55205 0.93188 0.93449
 O210 O 0.59231 0.96955 0.96739
 C211 C 0.58512 0.94381 0.94272
 O212 O 0.44248 1.06122 0.93595
 O213 O 0.40462 1.02544 0.97307
 C214 C 0.41000 1.05056 0.94746
 O215 O 0.54644 1.06260 0.93003
 O216 O 0.58949 1.03231 0.96669
 C217 C 0.58025 1.05534 0.94017
 O218 O 0.44860 0.92417 0.94030
 O219 O 0.40736 0.96049 0.97292
 C220 C 0.41529 0.93390 0.94954
 Zr221 Zr 0.49995 0.94854 0.95572
 O222 O 0.49409 0.94809 0.89674
 O223 O 0.50638 0.88945 0.95608
 Zr224 Zr 0.49602 1.04359 0.95356
 O225 O 0.49035 1.04339 0.89461
 O226 O 0.49759 1.10306 0.95381
 O227 O 0.53072 0.99730 0.94639
 O228 O 0.46575 0.99452 0.94854
 O229 O 0.45186 0.92799 1.06981
 O230 O 0.40912 0.96222 1.03647
 C231 C 0.41808 0.93736 1.06135
 O232 O 0.55119 1.06412 1.06914
 O233 O 0.59173 1.03273 1.03110
 C234 C 0.58444 1.05596 1.05795
 O235 O 0.44634 1.06455 1.06710
 O236 O 0.40646 1.02572 1.03491
 C237 C 0.41337 1.05263 1.05826
 O238 O 0.55593 0.93518 1.06985
 O239 O 0.59411 0.97039 1.03234
 C240 C 0.58835 0.94610 1.05865
 Zr241 Zr 0.50260 0.95063 1.05008
 O242 O 0.50050 0.95182 1.10925
 O243 O 0.50885 0.89150 1.05078
 Zr244 Zr 0.49896 1.04577 1.04810
 O245 O 0.49633 1.04926 1.10710
 O246 O 0.50119 1.10515 1.04476
 Zr247 Zr 0.55435 0.99949 1.00040
 Zr248 Zr 0.44447 0.99486 1.00321
 O249 O 0.46906 0.99705 1.05675
 O250 O 0.53388 0.99968 1.05557
 O251 O 0.46843 0.94089 1.00389
 O252 O 0.52943 1.05291 0.99990
 O253 O 0.53371 0.94418 1.00222
 O254 O 0.46417 1.05063 1.00153
 H255 H 0.44839 0.99329 0.92700
 H256 H 0.54556 1.07547 0.99925
 H257 H 0.45323 0.99692 1.07930
 H258 H 0.55123 0.92280 1.00221
 H259 H 0.47546 1.11196 0.96740
 H260 H 0.47811 1.11367 1.03239
 H261 H 0.51414 1.03076 1.11723
 H262 H 0.52150 0.96737 1.11816
 H263 H 0.48723 0.88047 1.03761
 H264 H 0.48818 0.87913 0.97392
 H265 H 0.51545 0.96183 0.88617
 H266 H 0.50907 1.02583 0.88472
 O267 O 0.06802 0.44688 -0.06203
 O268 O 0.03642 0.40657 -0.02354
 C269 C 0.06079 0.41358 -0.04900
 O270 O 0.06466 0.56093 0.06285
 O271 O 0.02642 0.59777 0.02691
 C272 C 0.05259 0.59333 0.05145
 O273 O 0.07260 0.45586 0.06702
 O274 O 0.03703 0.41103 0.03778
 C275 C 0.06317 0.42127 0.06049
 O276 O 0.06073 0.55214 -0.07121
 O277 O 0.02513 0.59352 -0.03787
 C278 C 0.04949 0.58585 -0.06324
 Zr279 Zr 0.04528 0.49983 -0.04740
 O280 O 0.10352 0.50640 -0.04992
 O281 O 0.04273 0.49226 -0.10610
 Zr282 Zr 0.04772 0.50604 0.04719
 O283 O 0.10597 0.51289 0.04772
 O284 O 0.04699 0.50596 0.10643
 O285 O 0.05549 0.47009 0.00184
 O286 O 0.05165 0.53562 -0.00234
 O287 O -0.06981 0.54580 -0.06825
 O288 O -0.03579 0.59049 -0.03681
 C289 C -0.06059 0.58040 -0.06109
 O290 O -0.06441 0.44809 0.06965
 O291 O -0.02670 0.40727 0.03818
 C292 C -0.05271 0.41447 0.06184
 O293 O -0.06526 0.55418 0.06764
 O294 O -0.03551 0.59443 0.02758
 C295 C -0.05828 0.58753 0.05462
 O296 O -0.06773 0.44013 -0.05758
 O297 O -0.02741 0.40327 -0.02392
 C298 C -0.05496 0.40774 -0.04680
 Zr299 Zr -0.04821 0.49514 -0.04520
 O300 O -0.10682 0.49612 -0.04604
 O301 O -0.04758 0.48716 -0.10389
 Zr302 Zr -0.04580 0.50106 0.04940
 O303 O -0.10438 0.50265 0.05130
 O304 O -0.04334 0.50028 0.10858
 Zr305 Zr 0.00261 0.44504 0.00454
 Zr306 Zr -0.00303 0.55608 -0.00250
 O307 O -0.05542 0.53014 0.00025
 O308 O -0.05256 0.46447 0.00433
 O309 O -0.00328 0.53047 -0.05567
 O310 O 0.00276 0.47145 0.05718
 O311 O -0.00001 0.46448 -0.05102
 O312 O -0.00052 0.53751 0.05347
 H313 H 0.07273 0.55340 -0.00398
 H314 H 0.00402 0.45571 0.08003
 H315 H -0.07804 0.54584 -0.00032
 H316 H 0.00033 0.44587 -0.07163
 H317 H 0.03492 0.52947 0.11462
 H318 H -0.02910 0.52267 0.11660
 H319 H -0.11375 0.48114 0.03650
 H320 H -0.11542 0.47824 -0.02676
 H321 H -0.03661 0.50994 -0.11521
 H322 H 0.02769 0.51298 -0.11658
 H323 H 0.11465 0.48727 -0.03326
 H324 H 0.11623 0.49455 0.02981
 O325 O 1.06692 -0.06594 0.44962
 O326 O 1.03271 -0.03092 0.40803
 C327 C 1.05680 -0.05666 0.41594
 O328 O 0.93271 -0.06297 0.55213
 O329 O 0.96849 -0.02969 0.59380
 C330 C 0.94282 -0.05392 0.58592
 O331 O 0.93774 -0.06635 0.44692
 O332 O 0.97121 -0.02911 0.40695
 C333 C 0.94722 -0.05533 0.41368
 O334 O 1.06877 -0.06256 0.55520
 O335 O 1.03155 -0.02920 0.59507
 C336 C 1.05775 -0.05296 0.58837
 Zr337 Zr 1.04822 -0.04547 0.50200
 O338 O 1.04695 -0.10480 0.50611
 O339 O 1.10678 -0.04642 0.49904
 Zr340 Zr 0.95427 -0.04500 0.49987
 O341 O 0.95324 -0.10432 0.50383
 O342 O 0.89584 -0.04396 0.49434
 O343 O 1.00176 -0.05259 0.46765
 O344 O 1.00069 -0.05228 0.53323
 O345 O 1.07036 0.06507 0.55532
 O346 O 1.03145 0.03370 0.59518
 C347 C 1.05899 0.05609 0.58855
 O348 O 0.93774 0.07040 0.44679
 O349 O 0.97336 0.03545 0.40676
 C350 C 0.94877 0.06097 0.41353
 O351 O 0.93290 0.06715 0.55223
 O352 O 0.96682 0.03187 0.59390
 C353 C 0.94125 0.05614 0.58592
 O354 O 1.06737 0.07081 0.45032
 O355 O 1.03475 0.03452 0.40848
 C356 C 1.05869 0.06042 0.41661
 Zr357 Zr 1.04849 0.04968 0.50230
 O358 O 1.04663 0.10892 0.50744
 O359 O 1.10696 0.05179 0.49901
 Zr360 Zr 0.95500 0.05011 0.50001
 O361 O 0.95705 0.10941 0.50422
 O362 O 0.89662 0.05197 0.49480
 Zr363 Zr 1.00251 0.00231 0.44552
 Zr364 Zr 1.00045 0.00204 0.55645
 O365 O 1.00119 0.05661 0.53386
 O366 O 1.00241 0.05722 0.46771
 O367 O 1.05498 0.00196 0.53553
 O368 O 0.94847 0.00263 0.46739
 O369 O 1.05573 0.00214 0.46989
 O370 O 0.94675 0.00244 0.53299
 H371 H 1.00045 -0.07436 0.55010
 H372 H 0.92694 0.00279 0.45007
 H373 H 1.00097 0.07825 0.55130
 H374 H 1.07778 0.00204 0.45351
 H375 H 0.88585 -0.03027 0.51614
 H376 H 0.88639 0.03392 0.51308
 H377 H 0.97006 0.11899 0.48188
 H378 H 1.03422 0.11889 0.48479
 H379 H 1.11673 0.03254 0.51636
 H380 H 1.11646 -0.03075 0.51977
 H381 H 1.03376 -0.11446 0.48375
 H382 H 0.97016 -0.11416 0.48452
 C383 C 1.12153 0.07466 0.33405
 C384 C 1.11187 0.11066 0.32125
 C385 C 1.08764 0.13192 0.34400
 C386 C 1.07141 0.11610 0.37614
 C387 C 1.07818 0.07846 0.38563
 C388 C 1.10474 0.05889 0.36521
 C389 C 1.10298 0.02073 0.34813
 C390 C 1.12123 0.03780 0.31387
 H391 H 1.08052 0.16055 0.33689
 H392 H 1.05209 0.13261 0.39234
 H393 H 1.07413 0.01100 0.34286
 H394 H 1.12101 0.00034 0.36311
 H395 H 1.10295 0.03800 0.28873
 H396 H 1.14965 0.02693 0.30905
 C397 C 0.90553 -0.06704 0.31808
 C398 C 0.89533 -0.10466 0.31546
 C399 C 0.90184 -0.12689 0.34776
 C400 C 0.91798 -0.11093 0.38054
 C401 C 0.92887 -0.07270 0.38128
 C402 C 0.92183 -0.05212 0.34897
 C403 C 0.92688 -0.01446 0.33162
 C404 C 0.90859 -0.03139 0.29642
 H405 H 0.89428 -0.15633 0.34786
 H406 H 0.92268 -0.12861 0.40475
 H407 H 0.95656 -0.00713 0.32779
 H408 H 0.90978 0.00741 0.34536
 H409 H 0.92784 -0.03397 0.27240
 H410 H 0.88111 -0.01895 0.28981
 C411 C 0.89123 0.12468 0.64808
 C412 C 0.88540 0.10382 0.68071
 C413 C 0.89278 0.06500 0.67947
 C414 C 0.91046 0.04912 0.64821
 C415 C 0.91972 0.07156 0.61710
 C416 C 0.90728 0.10873 0.61671
 C417 C 0.92748 0.14406 0.60726
 C418 C 0.91019 0.16144 0.64189
 H419 H 0.88696 0.04744 0.70349
 H420 H 0.91784 0.01964 0.64882
 H421 H 0.91726 0.15670 0.58072
 H422 H 0.95805 0.14100 0.60930
 H423 H 0.89026 0.18429 0.63528
 H424 H 0.93093 0.16816 0.66400
 C425 C 1.12738 -0.07617 0.66366
 C426 C 1.10789 -0.10129 0.68659
 C427 C 1.07018 -0.10768 0.67797
 C428 C 1.05412 -0.09228 0.64555
 C429 C 1.07527 -0.07026 0.62101
 C430 C 1.11134 -0.06084 0.63170
 C431 C 1.14643 -0.06340 0.61010
 C432 C 1.16408 -0.08022 0.64498
 H433 H 1.05320 -0.12551 0.69538
 H434 H 1.02561 -0.09889 0.63880
 H435 H 1.15763 -0.03521 0.60292
 H436 H 1.14449 -0.08345 0.58632
 H437 H 1.18554 -0.06170 0.65770
 H438 H 1.17240 -0.11007 0.64148
 C439 C 0.33143 1.11560 1.07387
 C440 C 0.31776 1.10397 1.10880
 C441 C 0.33469 1.07197 1.12513
 C442 C 0.36617 1.05540 1.10888
 C443 C 0.38131 1.07017 1.07588
 C444 C 0.36198 1.09866 1.05759
 C445 C 0.37594 1.13471 1.04183
 C446 C 0.34272 1.15350 1.05981
 H447 H 0.32480 1.06031 1.15116
 H448 H 0.37924 1.03172 1.12261
 H449 H 0.37480 1.13492 1.01074
 H450 H 0.40291 1.14347 1.05426
 H451 H 0.32276 1.16487 1.03892
 H452 H 0.35039 1.17312 1.08280
 C453 C 0.33310 0.91837 0.88671
 C454 C 0.32455 0.88021 0.89169
 C455 C 0.34939 0.85868 0.91372
 C456 C 0.37960 0.87589 0.93224
 C457 C 0.38468 0.91502 0.93024
 C458 C 0.36222 0.93528 0.90570
 C459 C 0.34143 0.97087 0.91167
 C460 C 0.30929 0.95248 0.89102
 H461 H 0.34548 0.82873 0.91711
 H462 H 0.39794 0.85894 0.94936
 H463 H 0.35381 0.99472 0.89603
 H464 H 0.33560 0.97647 0.94166
 H465 H 0.30308 0.96615 0.86375
 H466 H 0.28478 0.94731 0.90904
 C467 C 0.67130 0.93002 1.12074
 C468 C 0.68971 0.90044 1.10261
 C469 C 0.67054 0.88237 1.07295
 C470 C 0.63643 0.89630 1.05976
 C471 C 0.62073 0.92849 1.07582
 C472 C 0.63765 0.94374 1.10753
 C473 C 0.64783 0.98349 1.11568
 C474 C 0.68463 0.96874 1.13022
 H475 H 0.68220 0.85834 1.05881
 H476 H 0.62331 0.88310 1.03579
 H477 H 0.63027 0.99594 1.13788
 H478 H 0.65059 1.00068 1.08989
 H479 H 0.68820 0.97280 1.16086
 H480 H 0.70868 0.97764 1.11301
 C481 C 0.65078 1.08589 0.86909
 C482 C 0.67485 1.10885 0.89016
 C483 C 0.66299 1.11875 0.92658
 C484 C 0.63136 1.10209 0.94239
 C485 C 0.61004 1.07620 0.92187
 C486 C 0.61867 1.07077 0.88426
 C487 C 0.62200 1.03534 0.86240
 C488 C 0.65750 1.05146 0.84616
 H489 H 0.67919 1.13730 0.94417
 H490 H 0.62443 1.10828 0.97119
 H491 H 0.59940 1.03234 0.84136
 H492 H 0.62651 1.01036 0.88038
 H493 H 0.65538 1.05714 0.81565
 H494 H 0.68274 1.03595 0.85516
 C495 C 0.13568 0.35310 0.09435
 C496 C 0.11426 0.32594 0.11279
 C497 C 0.07662 0.33439 0.11907
 C498 C 0.06045 0.36663 0.10337
 C499 C 0.08166 0.39153 0.08172
 C500 C 0.11983 0.38558 0.07972
 C501 C 0.14455 0.38546 0.04647
 C502 C 0.16148 0.34959 0.06199
 H503 H 0.05899 0.31506 0.13414
 H504 H 0.03101 0.37126 0.10676
 H505 H 0.16407 0.40965 0.04669
 H506 H 0.12922 0.38136 0.01976
 H507 H 0.19094 0.35301 0.07055
 H508 H 0.15546 0.32454 0.04435
 C509 C -0.06712 0.31203 -0.09005
 C510 C -0.10542 0.30982 -0.09608
 C511 C -0.12767 0.33833 -0.08058
 C512 C -0.11139 0.37030 -0.06403
 C513 C -0.07261 0.37359 -0.06144
 C514 C -0.05115 0.34289 -0.07245
 C515 C -0.01793 0.34194 -0.09710
 C516 C -0.03552 0.30837 -0.11660
 H517 H -0.15755 0.33692 -0.08306
 H518 H -0.12900 0.39276 -0.05412
 H519 H 0.00775 0.33465 -0.08147
 H520 H -0.01567 0.36721 -0.11527
 H521 H -0.01985 0.28186 -0.11230
 H522 H -0.04352 0.31444 -0.14606
 C523 C 0.11915 0.64563 -0.11466
 C524 C 0.10339 0.68151 -0.11318
 C525 C 0.06663 0.68434 -0.10033
 C526 C 0.04843 0.65294 -0.08510
 C527 C 0.06601 0.61762 -0.08372
 C528 C 0.10066 0.61435 -0.10078
 C529 C 0.13553 0.59737 -0.08598
 C530 C 0.15575 0.63171 -0.10082
 H531 H 0.05276 0.71127 -0.09982
 H532 H 0.02139 0.65681 -0.07279
 H533 H 0.14285 0.57104 -0.10091
 H534 H 0.13591 0.59532 -0.05492
 H535 H 0.17495 0.62512 -0.12410
 H536 H 0.16764 0.64954 -0.07820
 C537 C -0.10582 0.68145 0.06302
 C538 C -0.11229 0.68464 0.10144
 C539 C -0.10598 0.65252 0.12375
 C540 C -0.08972 0.62003 0.10830
 C541 C -0.07863 0.61951 0.07054
 C542 C -0.08906 0.64993 0.04808
 C543 C -0.06775 0.67247 0.02029
 C544 C -0.08608 0.70714 0.03674
 H545 H -0.11243 0.65285 0.15329
 H546 H -0.08388 0.59632 0.12636
 H547 H -0.07664 0.66651 -0.00895
 H548 H -0.03734 0.67158 0.02527
 H549 H -0.10541 0.72115 0.01687
 H550 H -0.06631 0.72624 0.05132
 C551 C 1.07676 0.09832 0.68355
 C552 C 1.11393 0.10961 0.68170
 C553 C 1.13456 0.09776 0.65045
 C554 C 1.11696 0.07966 0.62009
 C555 C 1.07867 0.07195 0.62102
 C556 C 1.05980 0.07926 0.65425
 C557 C 1.02373 0.09872 0.65996
 C558 C 1.04232 0.11998 0.69180
 H559 H 1.16378 0.10437 0.64851
 H560 H 1.13303 0.07270 0.59555
 H561 H 1.00167 0.07913 0.66947
 H562 H 1.01597 0.11692 0.63591
 H563 H 1.03073 0.11292 0.71968
 H564 H 1.04520 0.15051 0.68589
 C565 C 0.87303 -0.10661 0.64465
 C566 C 0.89093 -0.10929 0.67939
 C567 C 0.92794 -0.09711 0.68186
 C568 C 0.94469 -0.07871 0.65153
 C569 C 0.92542 -0.07377 0.61745
 C570 C 0.89018 -0.08988 0.61412
 C571 C 0.85491 -0.07236 0.60101
 C572 C 0.83620 -0.09045 0.63450
 H573 H 0.94320 -0.09988 0.70789
 H574 H 0.97231 -0.06744 0.65515
 H575 H 0.84542 -0.08413 0.57379
 H576 H 0.85566 -0.04114 0.60239
 H577 H 0.81580 -0.11251 0.62656
 H578 H 0.82620 -0.06955 0.65520
 C579 C 1.06693 -0.10770 0.32431
 C580 C 1.10528 -0.10866 0.31947
 C581 C 1.12792 -0.09762 0.34983
 C582 C 1.11205 -0.08249 0.38249
 C583 C 1.07348 -0.07696 0.38458
 C584 C 1.05141 -0.09170 0.35583
 C585 C 1.02040 -0.07470 0.33390
 C586 C 1.03748 -0.09217 0.29927
 H587 H 1.15778 -0.09952 0.34785
 H588 H 1.13001 -0.07276 0.40486
 H589 H 1.02112 -0.04348 0.33371
 H590 H 0.99331 -0.08745 0.34110
 H591 H 1.04837 -0.07108 0.27915
 H592 H 1.02001 -0.11464 0.28666
 C593 C 0.87768 0.10365 0.34858
 C594 C 0.89710 0.10707 0.31490
 C595 C 0.93565 0.10050 0.31594
 C596 C 0.95292 0.08683 0.34857
 C597 C 0.93220 0.08028 0.38119
 C598 C 0.89496 0.09103 0.38109
 C599 C 0.86172 0.06925 0.39299
 C600 C 0.84290 0.08266 0.35730
 H601 H 0.95224 0.10395 0.29105
 H602 H 0.98215 0.08003 0.34784
 H603 H 0.84912 0.08099 0.41876
 H604 H 0.86667 0.03843 0.39361
 H605 H 0.81922 0.10181 0.36256
 H606 H 0.83720 0.05955 0.33711
 C607 C 0.10578 0.31826 -0.05709
 C608 C 0.11239 0.31545 -0.09547
 C609 C 0.10806 0.34817 -0.11733
 C610 C 0.09326 0.38114 -0.10164
 C611 C 0.08158 0.38158 -0.06410
 C612 C 0.09016 0.35029 -0.04192
 C613 C 0.06754 0.32828 -0.01472
 C614 C 0.08458 0.29308 -0.03151
 H615 H 0.11469 0.34786 -0.14683
 H616 H 0.08852 0.40523 -0.11953
 H617 H 0.03724 0.33053 -0.01990
 H618 H 0.07631 0.33328 0.01473
 H619 H 0.06418 0.27514 -0.04667
 H620 H 0.10302 0.27789 -0.01165
 C621 C -0.06552 0.31666 0.10071
 C622 C -0.10249 0.31661 0.11198
 C623 C -0.12176 0.35099 0.11169
 C624 C -0.10502 0.38371 0.09712
 C625 C -0.06925 0.38213 0.08147
 C626 C -0.04956 0.34842 0.08513
 C627 C -0.02925 0.32591 0.05652
 C628 C -0.04652 0.29112 0.07385
 H629 H -0.14998 0.35231 0.12172
 H630 H -0.12086 0.40949 0.09605
 H631 H 0.00128 0.32724 0.06035
 H632 H -0.03915 0.33137 0.02750
 H633 H -0.02596 0.27270 0.08803
 H634 H -0.06620 0.27636 0.05482
 C635 C -0.13330 0.65008 -0.09125
 C636 C -0.11389 0.67386 -0.11556
 C637 C -0.07553 0.66748 -0.11966
 C638 C -0.05844 0.63642 -0.10252
 C639 C -0.07925 0.61081 -0.08128
 C640 C -0.11634 0.61930 -0.07442
 C641 C -0.14994 0.59530 -0.07911
 C642 C -0.16854 0.62891 -0.09747
 H643 H -0.05865 0.68598 -0.13648
 H644 H -0.02918 0.63172 -0.10680
 H645 H -0.16238 0.58758 -0.05178
 H646 H -0.14544 0.57142 -0.09860
 H647 H -0.19171 0.64047 -0.08069
 H648 H -0.17489 0.62457 -0.12764
 C649 C 0.12594 0.65880 0.08979
 C650 C 0.10600 0.69145 0.09763
 C651 C 0.06892 0.69330 0.08512
 C652 C 0.05166 0.66166 0.06891
 C653 C 0.07087 0.62735 0.06594
 C654 C 0.10868 0.62738 0.07477
 C655 C 0.13102 0.60114 0.09833
 C656 C 0.15003 0.63560 0.11474
 H657 H 0.05293 0.71869 0.08892
 H658 H 0.02279 0.66345 0.06076
 H659 H 0.14982 0.58347 0.08126
 H660 H 0.11395 0.58557 0.11901
 H661 H 0.17975 0.63774 0.10706
 H662 H 0.14404 0.63997 0.14491
 C663 C 0.34662 1.09543 0.87571
 C664 C 0.31360 1.10036 0.89541
 C665 C 0.31129 1.08446 0.93146
 C666 C 0.34248 1.06754 0.94821
 C667 C 0.37685 1.06692 0.92959
 C668 C 0.37757 1.07949 0.89252
 C669 C 0.40337 1.10610 0.87358
 C670 C 0.36949 1.12351 0.85506
 H671 H 0.28574 1.08589 0.94709
 H672 H 0.34007 1.05649 0.97633
 H673 H 0.42184 1.09155 0.85349
 H674 H 0.41763 1.12532 0.89354
 H675 H 0.36845 1.11894 0.82431
 H676 H 0.36413 1.15286 0.86419
 C677 C 0.35695 0.86680 1.11053
 C678 C 0.32594 0.88845 1.11999
 C679 C 0.32810 0.92755 1.11396
 C680 C 0.35842 0.94337 1.09524
 C681 C 0.38785 0.92071 1.08306
 C682 C 0.38761 0.88277 1.09311
 C683 C 0.39343 0.84914 1.06900
 C684 C 0.35978 0.83180 1.08769
 H685 H 0.30544 0.94579 1.12163
 H686 H 0.35831 0.97319 1.08927
 H687 H 0.41970 0.83441 1.07593
 H688 H 0.38911 0.85522 1.03877
 H689 H 0.36664 0.80685 1.10507
 H690 H 0.33598 0.82804 1.06814
 C691 C 0.64558 1.09884 1.13322
 C692 C 0.67704 1.10972 1.11325
 C693 C 0.67967 1.09812 1.07566
 C694 C 0.64984 1.07972 1.05793
 C695 C 0.61634 1.07350 1.07710
 C696 C 0.61572 1.08163 1.11541
 C697 C 0.58816 1.10279 1.13805
 C698 C 0.62083 1.12160 1.15762
 H699 H 0.70438 1.10411 1.05966
 H700 H 0.65240 1.07204 1.02874
 H701 H 0.57204 1.08401 1.15675
 H702 H 0.57131 1.12253 1.12090
 H703 H 0.62350 1.11361 1.18757
 H704 H 0.62288 1.15224 1.15188
 C705 C 0.64249 0.87385 0.88904
 C706 C 0.67732 0.89093 0.88780
 C707 C 0.68049 0.92820 0.90068
 C708 C 0.65052 0.94571 0.91869
 C709 C 0.61635 0.92685 0.92254
 C710 C 0.61258 0.89160 0.90556
 C711 C 0.59825 0.85565 0.92146
 C712 C 0.63114 0.83625 0.90349
 H713 H 0.70661 0.94304 0.89852
 H714 H 0.65436 0.97357 0.93025
 H715 H 0.57123 0.84740 0.90879
 H716 H 0.59911 0.85519 0.95257
 H717 H 0.62306 0.81674 0.88057
 H718 H 0.65106 0.82462 0.92428
   
