data_POSCAR
  _audit_creation_date              2014-09-24
  _audit_creation_method            'ToBaCCo'
  _symmetry_space_group_name_H-M    'P1'
  _symmetry_Int_Tables_number       1
  _symmetry_cell_setting            triclinic
  loop_
  _symmetry_equiv_pos_as_xyz
 x,y,z
_cell_length_a 34.0992
_cell_length_b 34.3926
_cell_length_c 44.0108
_cell_angle_alpha 90.911900
_cell_angle_beta 90.409700
_cell_angle_gamma 87.434100
loop_
  _atom_site_label
  _atom_site_type_symbol
  _atom_site_fract_x
  _atom_site_fract_y
  _atom_site_fract_z
C1 C 0.00776 0.53227 1.01530
 C2 C 0.00868 0.53131 0.98278
 C3 C 0.00864 0.49481 0.96772
 C4 C 0.00891 0.45970 0.98342
 C5 C 0.00908 0.46027 1.01567
 C6 C 0.00833 0.49664 1.03085
 H7 H 0.00767 0.49720 1.05546
 H8 H 0.00978 0.49325 0.94312
 C9 C 0.46122 0.01384 0.51505
 C10 C 0.46118 0.01008 0.48305
 C11 C 0.49700 0.00790 0.46753
 C12 C 0.53338 0.00992 0.48288
 C13 C 0.53295 0.01391 0.51518
 C14 C 0.49702 0.01633 0.53059
 H15 H 0.49703 0.01813 0.55523
 H16 H 0.49607 0.00673 0.44291
 C17 C 0.07503 0.00261 0.25699
 H18 H 0.07623 0.00103 0.23244
 C19 C 0.10971 0.00372 0.27396
 H20 H 0.13758 0.00315 0.26228
 C21 C 0.03707 0.00639 0.30191
 H22 H 0.00874 0.00810 0.31274
 C23 C 0.07103 0.00780 0.31976
 H24 H 0.06842 0.00965 0.34425
 N25 N 0.03967 0.00316 0.27112
 C26 C -0.03657 -0.05138 0.20423
 H27 H -0.06031 -0.02950 0.20301
 C28 C -0.03844 -0.08580 0.18710
 H29 H -0.06392 -0.09028 0.17287
 C30 C 0.02468 -0.07259 0.22530
 H31 H 0.04891 -0.06775 0.24060
 C32 C 0.02408 -0.10733 0.20852
 H33 H 0.04850 -0.12836 0.21061
 Zn34 Zn -0.00572 0.00142 0.24610
 N35 N -0.00520 -0.04528 0.22267
 C36 C -0.00461 0.04194 0.18999
 N37 N -0.00553 0.04533 0.22082
 C38 C -0.00468 0.08066 0.23503
 C39 C -0.00365 0.11456 0.21814
 C40 C -0.00349 0.07516 0.17218
 C41 C -0.05588 -0.02545 0.29063
 C42 C -0.08942 -0.02569 0.30863
 C43 C -0.11520 0.03113 0.28228
 C44 C -0.08085 0.03072 0.26518
 N45 N -0.05186 0.00293 0.26985
 H46 H -0.00449 0.01354 0.17915
 H47 H -0.00474 0.08241 0.25959
 H48 H -0.00264 0.14238 0.22993
 H49 H -0.00328 0.07201 0.14767
 H50 H -0.03279 -0.04776 0.29336
 H51 H -0.09210 -0.04826 0.32527
 H52 H -0.13796 0.05354 0.27846
 H53 H -0.07762 0.05237 0.24797
 C54 C -0.00782 -0.11439 0.18913
 C55 C 0.10797 0.00613 0.30579
 C56 C -0.11956 0.00287 0.30449
 C57 C -0.00312 0.11211 0.18626
 C58 C -0.03489 0.05695 0.78170
 H59 H -0.06161 0.04918 0.77035
 C60 C -0.03502 0.09067 0.79981
 H61 H -0.06192 0.10840 0.80206
 C62 C 0.03293 0.04477 0.79133
 H63 H 0.05962 0.02739 0.78723
 C64 C 0.03415 0.07831 0.80955
 H65 H 0.06167 0.08581 0.82004
 N66 N -0.00127 0.03461 0.77791
 C67 C 0.06844 -0.03932 0.72188
 H68 H 0.06160 -0.06646 0.73224
 C69 C 0.10187 -0.03759 0.70392
 H70 H 0.12081 -0.06346 0.70093
 C71 C 0.05243 0.02748 0.71365
 H72 H 0.03290 0.05268 0.71763
 C73 C 0.08562 0.03054 0.69558
 H74 H 0.09124 0.05819 0.68541
 Zn75 Zn -0.00004 -0.00961 0.75143
 N76 N 0.04453 -0.00706 0.72637
 C77 C -0.04422 -0.00200 0.69676
 N78 N -0.04637 -0.00898 0.72704
 C79 C -0.08136 -0.01529 0.74041
 C80 C -0.11591 -0.01489 0.72319
 C81 C -0.07819 -0.00056 0.67881
 C82 C 0.03241 -0.05991 0.79621
 C83 C 0.03661 -0.09395 0.81306
 C84 C -0.01682 -0.12020 0.78421
 C85 C -0.01980 -0.08580 0.76778
 N86 N 0.00428 -0.05623 0.77423
 H87 H -0.01623 0.00275 0.68646
 H88 H -0.08237 -0.02071 0.76453
 H89 H -0.14354 -0.01987 0.73415
 H90 H -0.07609 0.00524 0.65477
 H91 H 0.05192 -0.03660 0.80057
 H92 H 0.05955 -0.09636 0.83014
 H93 H -0.03692 -0.14291 0.77904
 H94 H -0.04117 -0.08306 0.74964
 C95 C 0.11087 -0.00229 0.69053
 C96 C -0.00012 0.10186 0.81388
 C97 C 0.01167 -0.12466 0.80726
 C98 C -0.11452 -0.00716 0.69205
 C99 C -0.00393 -0.36324 0.06834
 C100 C 0.02093 -0.39446 0.07775
 C101 C 0.02453 -0.42870 0.06038
 C102 C 0.00348 -0.43282 0.03291
 C103 C -0.02238 -0.40181 0.02403
 C104 C -0.02573 -0.36737 0.04136
 C105 C -0.00659 -0.32658 0.08655
 N106 N -0.02544 -0.29404 0.07558
 N107 N -0.02684 -0.26093 0.09179
 C108 C -0.00955 -0.25901 0.11967
 N109 N 0.00908 -0.29161 0.13065
 N110 N 0.01057 -0.32464 0.11443
 C111 C -0.01025 -0.22209 0.13758
 C112 C 0.00408 -0.22154 0.16760
 C113 C 0.00448 -0.18673 0.18434
 C114 C -0.00924 -0.15151 0.17145
 C115 C -0.02396 -0.15208 0.14152
 C116 C -0.02453 -0.18698 0.12479
 H117 H 0.03828 -0.39229 0.09836
 H118 H 0.04518 -0.45141 0.06798
 H119 H -0.04057 -0.40433 0.00389
 H120 H -0.04563 -0.34408 0.03369
 H121 H 0.01501 -0.24806 0.17828
 H122 H 0.01529 -0.18748 0.20752
 H123 H -0.03434 -0.12540 0.13079
 H124 H -0.03564 -0.18632 0.10169
 C125 C 0.00875 0.35671 0.06741
 C126 C 0.03317 0.35880 0.04197
 C127 C 0.03382 0.39292 0.02518
 C128 C 0.00969 0.42585 0.03310
 C129 C -0.01380 0.42390 0.05923
 C130 C -0.01442 0.38981 0.07599
 C131 C 0.00718 0.32026 0.08484
 N132 N -0.01628 0.31851 0.10954
 N133 N -0.01807 0.28576 0.12510
 C134 C 0.00349 0.25328 0.11663
 N135 N 0.02699 0.25500 0.09192
 N136 N 0.02879 0.28779 0.07636
 C137 C 0.00143 0.21688 0.13407
 C138 C 0.02363 0.18313 0.12537
 C139 C 0.02192 0.14903 0.14212
 C140 C -0.00195 0.14793 0.16796
 C141 C -0.02436 0.18156 0.17651
 C142 C -0.02270 0.21561 0.15978
 H143 H 0.05194 0.33408 0.03500
 H144 H 0.05410 0.39371 0.00642
 H145 H -0.03323 0.44819 0.06608
 H146 H -0.03353 0.38932 0.09550
 H147 H 0.04255 0.18307 0.10572
 H148 H 0.03986 0.12372 0.13516
 H149 H -0.04347 0.18147 0.19605
 H150 H -0.04035 0.24095 0.16708
 C151 C 0.35499 0.01034 0.56710
 C152 C 0.36534 -0.01970 0.54620
 C153 C 0.39986 -0.01858 0.52941
 C154 C 0.42463 0.01269 0.53298
 C155 C 0.41465 0.04254 0.55398
 C156 C 0.38010 0.04147 0.57081
 C157 C 0.31838 0.00901 0.58499
 N158 N 0.30783 0.03817 0.60487
 N159 N 0.27506 0.03678 0.62105
 C160 C 0.25142 0.00616 0.61804
 N161 N 0.26195 -0.02296 0.59812
 N162 N 0.29470 -0.02156 0.58194
 C163 C 0.21513 0.00434 0.63626
 C164 C 0.19150 -0.02805 0.63375
 C165 C 0.15763 -0.03009 0.65123
 C166 C 0.14652 0.00023 0.67160
 C167 C 0.16993 0.03276 0.67396
 C168 C 0.20387 0.03478 0.65653
 H169 H 0.34683 -0.04419 0.54282
 H170 H 0.40733 -0.04223 0.51366
 H171 H 0.43345 0.06687 0.55711
 H172 H 0.37312 0.06504 0.58674
 H173 H 0.19917 -0.05197 0.61832
 H174 H 0.13991 -0.05529 0.64860
 H175 H 0.16239 0.05638 0.68972
 H176 H 0.22137 0.06014 0.65908
 C177 C -0.36175 0.00602 0.56942
 C178 C -0.38647 0.03983 0.57042
 C179 C -0.42106 0.04206 0.55321
 C180 C -0.43097 0.01094 0.53409
 C181 C -0.40654 -0.02297 0.53318
 C182 C -0.37232 -0.02552 0.55085
 C183 C -0.32503 0.00381 0.58751
 N184 N -0.30841 -0.03112 0.59570
 N185 N -0.27536 -0.03303 0.61206
 C186 C -0.25741 -0.00008 0.62062
 N187 N -0.27395 0.03483 0.61230
 N188 N -0.30717 0.03675 0.59619
 C189 C -0.22067 -0.00213 0.63868
 C190 C -0.19468 0.02843 0.63804
 C191 C -0.15991 0.02651 0.65507
 C192 C -0.15088 -0.00561 0.67352
 C193 C -0.17692 -0.03605 0.67437
 C194 C -0.21131 -0.03452 0.65686
 H195 H -0.37922 0.06445 0.58471
 H196 H -0.43973 0.06836 0.55427
 H197 H -0.41398 -0.04738 0.51873
 H198 H -0.35380 -0.05190 0.54960
 H199 H -0.20105 0.05367 0.62415
 H200 H -0.14033 0.05041 0.65422
 H201 H -0.17041 -0.06118 0.68836
 H202 H -0.23086 -0.05842 0.65788
 C203 C 0.01837 -0.36797 0.92872
 C204 C -0.00526 -0.39835 0.91928
 C205 C -0.00820 -0.43138 0.93698
 C206 C 0.01238 -0.43511 0.96478
 C207 C 0.03723 -0.40512 0.97356
 C208 C 0.03979 -0.37182 0.95597
 C209 C 0.02005 -0.33237 0.91035
 N210 N 0.03500 -0.29938 0.92216
 N211 N 0.03524 -0.26706 0.90585
 C212 C 0.02072 -0.26644 0.87702
 N213 N 0.00608 -0.29952 0.86517
 N214 N 0.00567 -0.33174 0.88150
 C215 C 0.01991 -0.23032 0.85906
 C216 C 0.01130 -0.23150 0.82779
 C217 C 0.00919 -0.19737 0.81096
 C218 C 0.01530 -0.16112 0.82502
 C219 C 0.02435 -0.16000 0.85625
 C220 C 0.02678 -0.19421 0.87305
 H221 H -0.02228 -0.39629 0.89846
 H222 H -0.02805 -0.45330 0.92938
 H223 H 0.05524 -0.40755 0.99386
 H224 H 0.05883 -0.34922 0.96361
 H225 H 0.00620 -0.25886 0.81623
 H226 H 0.00299 -0.19946 0.78685
 H227 H 0.02871 -0.13256 0.86791
 H228 H 0.03327 -0.19224 0.89712
 C229 C 0.00353 0.35312 0.93119
 C230 C 0.03426 0.37844 0.92700
 C231 C 0.03558 0.41324 0.94367
 C232 C 0.00639 0.42335 0.96502
 C233 C -0.02481 0.39865 0.96883
 C234 C -0.02617 0.36378 0.95216
 C235 C 0.00280 0.31573 0.91398
 N236 N -0.02705 0.29133 0.91744
 N237 N -0.02744 0.25763 0.90210
 C238 C 0.00204 0.24686 0.88268
 N239 N 0.03186 0.27127 0.87925
 N240 N 0.03223 0.30495 0.89456
 C241 C 0.00168 0.20941 0.86550
 C242 C 0.03281 0.19812 0.84603
 C243 C 0.03236 0.16310 0.82954
 C244 C 0.00076 0.13853 0.83208
 C245 C -0.03028 0.14966 0.85165
 C246 C -0.02981 0.18468 0.86822
 H247 H 0.05753 0.37128 0.91099
 H248 H 0.05983 0.43200 0.94036
 H249 H -0.04785 0.40621 0.98497
 H250 H -0.05034 0.34509 0.95587
 H251 H 0.05751 0.21644 0.84333
 H252 H 0.05644 0.15562 0.81432
 H253 H -0.05483 0.13113 0.85434
 H254 H -0.05422 0.19238 0.88306
 C255 C -0.36215 0.00692 0.43011
 C256 C -0.39397 -0.01529 0.42142
 C257 C -0.42805 -0.01449 0.43888
 C258 C -0.43149 0.00880 0.46555
 C259 C -0.39962 0.03176 0.47361
 C260 C -0.36528 0.03037 0.45642
 C261 C -0.32609 0.00599 0.41159
 N262 N -0.29136 0.01632 0.42391
 N263 N -0.25890 0.01547 0.40720
 C264 C -0.25992 0.00456 0.37741
 N265 N -0.29467 -0.00564 0.36507
 N266 N -0.32705 -0.00509 0.38184
 C267 C -0.22398 0.00395 0.35876
 C268 C -0.22663 0.00608 0.32694
 C269 C -0.19269 0.00602 0.30932
 C270 C -0.15547 0.00309 0.32315
 C271 C -0.15275 0.00052 0.35490
 C272 C -0.18668 0.00132 0.37257
 H273 H -0.39233 -0.03386 0.40132
 H274 H -0.45121 -0.03327 0.43187
 H275 H -0.40157 0.05228 0.49244
 H276 H -0.34154 0.04853 0.46329
 H277 H -0.25496 0.00828 0.31566
 H278 H -0.19548 0.00780 0.28485
 H279 H -0.12432 -0.00154 0.36604
 H280 H -0.18372 -0.00052 0.39703
 C281 C 0.35427 0.00888 0.43032
 C282 C 0.38389 -0.02052 0.42633
 C283 C 0.41849 -0.02010 0.44350
 C284 C 0.42421 0.00968 0.46503
 C285 C 0.39488 0.03927 0.46889
 C286 C 0.36016 0.03877 0.45185
 C287 C 0.31762 0.00848 0.41200
 N288 N 0.28753 0.03482 0.41749
 N289 N 0.25467 0.03449 0.40095
 C290 C 0.25053 0.00786 0.37815
 N291 N 0.28063 -0.01847 0.37267
 N292 N 0.31344 -0.01819 0.38924
 C293 C 0.21403 0.00753 0.35964
 C294 C 0.21130 -0.01775 0.33435
 C295 C 0.17697 -0.01805 0.31685
 C296 C 0.14449 0.00675 0.32430
 C297 C 0.14713 0.03197 0.34959
 C298 C 0.18155 0.03244 0.36702
 H299 H 0.38035 -0.04399 0.41000
 H300 H 0.44075 -0.04321 0.44016
 H301 H 0.39895 0.06289 0.48501
 H302 H 0.33810 0.06199 0.45539
 H303 H 0.23572 -0.03734 0.32801
 H304 H 0.17563 -0.03813 0.29771
 H305 H 0.12271 0.05171 0.35568
 H306 H 0.18262 0.05230 0.38631
   
