data_POSCAR
  _audit_creation_date              2014-09-24
  _audit_creation_method            'ToBaCCo'
  _symmetry_space_group_name_H-M    'P1'
  _symmetry_Int_Tables_number       1
  _symmetry_cell_setting            triclinic
  loop_
  _symmetry_equiv_pos_as_xyz
 x,y,z
_cell_length_a 42.3995
_cell_length_b 42.3590
_cell_length_c 42.4460
_cell_angle_alpha 89.906400
_cell_angle_beta 90.185900
_cell_angle_gamma 89.897200
loop_
  _atom_site_label
  _atom_site_type_symbol
  _atom_site_fract_x
  _atom_site_fract_y
  _atom_site_fract_z
C1 C 0.33255 0.36856 1.36927
 N2 N 0.34449 0.38290 1.34322
 C3 C 0.37051 0.37128 1.32865
 N4 N 0.38465 0.34490 1.34034
 C5 C 0.37314 0.33016 1.36635
 N6 N 0.34710 0.34224 1.38059
 C7 C 1.17004 0.63448 0.87400
 N8 N 1.15791 0.62012 0.84803
 C9 C 1.13160 0.63147 0.83360
 N10 N 1.11731 0.65762 0.84538
 C11 C 1.12896 0.67240 0.87134
 N12 N 1.15536 0.66062 0.88544
 C13 C 0.66683 -0.12924 0.12655
 N14 N 0.65247 -0.15543 0.11498
 C15 C 0.62639 -0.16756 0.12908
 N16 N 0.61478 -0.15303 0.15514
 C17 C 0.62883 -0.12680 0.16705
 N18 N 0.65488 -0.11510 0.15263
 C19 C -0.17254 1.12946 -0.37197
 N20 N -0.16065 1.11525 -0.34571
 C21 C -0.13446 1.12668 -0.33120
 N22 N -0.12012 1.15269 -0.34318
 C23 C -0.13156 1.16732 -0.36937
 N24 N -0.15779 1.15548 -0.38357
 C25 C 0.67203 0.63093 0.62684
 N26 N 0.65774 0.65709 0.61484
 C27 C 0.63151 0.66936 0.62860
 N28 N 0.61971 0.65504 0.65471
 C29 C 0.63368 0.62890 0.66704
 N30 N 0.65986 0.61703 0.65297
 C31 C 0.83059 0.37087 0.13114
 N32 N 0.84488 0.34472 0.11929
 C33 C 0.87103 0.33226 0.13318
 N34 N 0.88290 0.34642 0.15937
 C35 C 0.86903 0.37259 0.17160
 N36 N 0.84288 0.38463 0.15737
 C37 C 0.32871 0.13305 0.86906
 N38 N 0.34062 0.11895 0.84293
 C39 C 0.36671 0.13063 0.82854
 N40 N 0.38085 0.15676 0.84053
 C41 C 0.36925 0.17116 0.86664
 N42 N 0.34315 0.15916 0.88072
 C43 C 0.16784 0.86547 0.37176
 N44 N 0.15527 0.87949 0.34576
 C45 C 0.12912 0.86760 0.33157
 N46 N 0.11545 0.84125 0.34364
 C47 C 0.12757 0.82681 0.36965
 N48 N 0.15377 0.83915 0.38349
 Zn49 Zn 0.00548 1.04005 -0.01806
 Zn50 Zn -0.02577 0.97688 -0.02346
 Zn51 Zn 0.03702 0.98309 0.00846
 Zn52 Zn -0.02035 1.00898 0.03917
 O53 O -0.00096 1.00220 0.00147
 O54 O -0.01381 1.04233 -0.05542
 O55 O -0.00645 0.94053 -0.03413
 O56 O 0.06972 1.00562 -0.00578
 O57 O -0.03685 0.99574 -0.05990
 O58 O 0.04624 1.04783 -0.02565
 O59 O 0.03981 0.94569 -0.01050
 O60 O 0.00186 0.99443 0.07209
 O61 O -0.06212 0.96593 -0.00456
 O62 O 0.04462 0.97544 0.04927
 O63 O -0.05777 0.99002 0.04144
 O64 O -0.02775 1.04985 0.04682
 O65 O -0.00879 1.07297 0.00422
 C66 C -0.03067 1.02298 -0.07082
 C67 C 0.02085 0.92995 -0.02749
 C68 C 0.07108 1.03208 -0.01979
 C69 C 0.02846 0.98075 0.07382
 C70 C -0.07312 0.97278 0.02241
 C71 C -0.02225 1.07458 0.03084
 Zn72 Zn 0.49094 -0.03929 0.47965
 Zn73 Zn 0.52279 0.02354 0.47419
 Zn74 Zn 0.45975 0.01801 0.50543
 Zn75 Zn 0.51681 -0.00829 0.53694
 O76 O 0.49762 -0.00145 0.49900
 O77 O 0.50983 -0.04160 0.44226
 O78 O 0.50382 0.05996 0.46310
 O79 O 0.42691 -0.00446 0.49121
 O80 O 0.53373 0.00455 0.43790
 O81 O 0.45012 -0.04711 0.47229
 O82 O 0.45733 0.05540 0.48614
 O83 O 0.49429 0.00596 0.56960
 O84 O 0.55910 0.03439 0.49346
 O85 O 0.45201 0.02566 0.54614
 O86 O 0.55412 0.01083 0.53970
 O87 O 0.52457 -0.04915 0.54455
 O88 O 0.50560 -0.07217 0.50187
 C89 C 0.52698 -0.02251 0.42692
 C90 C 0.47658 0.07085 0.46928
 C91 C 0.42537 -0.03118 0.47780
 C92 C 0.46780 0.01989 0.57095
 C93 C 0.56974 0.02785 0.52073
 C94 C 0.51931 -0.07381 0.52845
 Zn95 Zn 1.01075 0.45821 0.48417
 Zn96 Zn 1.04174 0.51540 0.51051
 Zn97 Zn 0.97895 0.52116 0.47850
 Zn98 Zn 0.98451 0.48917 0.54125
 O99 O 1.00394 0.49603 0.50356
 O100 O 1.05160 0.45059 0.47673
 O101 O 1.04420 0.55288 0.49144
 O102 O 0.96800 0.50224 0.44218
 O103 O 1.07464 0.49307 0.49626
 O104 O 0.99166 0.45588 0.44672
 O105 O 0.99795 0.55750 0.46763
 O106 O 0.94710 0.50835 0.54356
 O107 O 1.04928 0.52290 0.55134
 O108 O 0.94262 0.53215 0.49735
 O109 O 1.00677 0.50346 0.57420
 O110 O 0.97691 0.44828 0.54875
 O111 O 0.99635 0.42525 0.50635
 C112 C 1.07627 0.46658 0.48240
 C113 C 1.02508 0.56836 0.47427
 C114 C 0.97455 0.47510 0.43129
 C115 C 0.93170 0.52555 0.52441
 C116 C 1.03325 0.51729 0.57592
 C117 C 0.98248 0.42361 0.53276
 Zn118 Zn 0.48188 0.49481 0.96031
 Zn119 Zn 0.53925 0.52060 0.99142
 Zn120 Zn 0.47656 0.52612 1.02332
 Zn121 Zn 0.50833 0.46321 1.01720
 O122 O 0.50145 0.50124 0.99811
 O123 O 0.50423 0.50906 0.92751
 O124 O 0.54164 0.55806 1.01036
 O125 O 0.44012 0.53727 1.00444
 O126 O 0.54693 0.52799 0.95064
 O127 O 0.44452 0.51417 0.95796
 O128 O 0.49558 0.56246 1.03429
 O129 O 0.48932 0.46046 1.05449
 O130 O 0.57214 0.49830 1.00596
 O131 O 0.46582 0.50681 1.05957
 O132 O 0.54916 0.45555 1.02488
 O133 O 0.49401 0.43050 0.99467
 O134 O 0.47420 0.45403 0.95252
 C135 C 0.53092 0.52248 0.92594
 C136 C 0.52261 0.57344 1.02754
 C137 C 0.42916 0.53109 0.97724
 C138 C 0.47238 0.47948 1.07015
 C139 C 0.57380 0.47166 1.01960
 C140 C 0.48002 0.42916 0.96822
 C141 C 1.24930 0.40275 0.41214
 C142 C 1.26185 0.41831 0.38596
 C143 C 1.28954 0.40727 0.37194
 C144 C 1.30517 0.38032 0.38389
 C145 C 1.29239 0.36512 0.41058
 C146 C 1.26470 0.37626 0.42450
 C147 C 1.22020 0.41350 0.42583
 C148 C 1.19558 0.42236 0.43691
 C149 C 1.16593 0.43284 0.44958
 C150 C 1.16401 0.46150 0.46581
 C151 C 1.13493 0.47226 0.47701
 C152 C 1.10735 0.45446 0.47205
 C153 C 1.10964 0.42544 0.45610
 C154 C 1.13873 0.41475 0.44494
 H155 H 1.25007 0.43884 0.37619
 H156 H 1.29844 0.41979 0.35156
 H157 H 1.30354 0.34440 0.42068
 H158 H 1.25515 0.36402 0.44476
 H159 H 1.18491 0.47571 0.46950
 H160 H 1.13400 0.49469 0.48917
 H161 H 1.08889 0.41116 0.45187
 H162 H 1.13996 0.39253 0.43238
 C163 C 0.25433 0.60040 0.91564
 C164 C 0.23917 0.62683 0.92829
 C165 C 0.21109 0.63797 0.91481
 C166 C 0.19776 0.62283 0.88832
 C167 C 0.21319 0.59597 0.87612
 C168 C 0.24119 0.58494 0.88967
 C169 C 0.28383 0.58944 0.92855
 C170 C 0.30879 0.57977 0.93829
 C171 C 0.33886 0.56761 0.94853
 C172 C 0.35075 0.57471 0.97851
 C173 C 0.38014 0.56284 0.98801
 C174 C 0.39796 0.54372 0.96758
 C175 C 0.38570 0.53674 0.93754
 C176 C 0.35640 0.54860 0.92814
 H177 H 0.24918 0.63900 0.94839
 H178 H 0.20010 0.65862 0.92506
 H179 H 0.20390 0.58347 0.85589
 H180 H 0.25276 0.56446 0.87967
 H181 H 0.33735 0.58943 0.99448
 H182 H 0.38890 0.56865 1.01128
 H183 H 0.39874 0.52212 0.92121
 H184 H 0.34743 0.54297 0.90488
 C185 C -0.24799 0.90562 0.08432
 C186 C -0.26120 0.92122 0.11014
 C187 C -0.28910 0.91015 0.12363
 C188 C -0.30421 0.88320 0.11148
 C189 C -0.29092 0.86790 0.08522
 C190 C -0.26298 0.87904 0.07178
 C191 C -0.21856 0.91647 0.07147
 C192 C -0.19362 0.92588 0.06168
 C193 C -0.16356 0.93764 0.05132
 C194 C -0.14596 0.95699 0.07137
 C195 C -0.11661 0.96838 0.06190
 C196 C -0.10436 0.96058 0.03212
 C197 C -0.12225 0.94112 0.01202
 C198 C -0.15169 0.92972 0.02160
 H199 H -0.24975 0.94180 0.12007
 H200 H -0.29862 0.92255 0.14377
 H201 H -0.30189 0.84711 0.07523
 H202 H -0.25291 0.86674 0.05182
 H203 H -0.15490 0.96324 0.09443
 H204 H -0.10352 0.98330 0.07797
 H205 H -0.11350 0.93469 -0.01103
 H206 H -0.16514 0.91471 0.00590
 C207 C 0.74380 0.09542 0.58544
 C208 C 0.75919 0.12168 0.57278
 C209 C 0.78704 0.13279 0.58660
 C210 C 0.79993 0.11780 0.61347
 C211 C 0.78428 0.09110 0.62571
 C212 C 0.75649 0.08009 0.61180
 C213 C 0.71453 0.08455 0.57209
 C214 C 0.68972 0.07509 0.56188
 C215 C 0.65980 0.06325 0.55103
 C216 C 0.64835 0.07089 0.52098
 C217 C 0.61904 0.05938 0.51093
 C218 C 0.60087 0.04012 0.53090
 C219 C 0.61271 0.03259 0.56102
 C220 C 0.64192 0.04407 0.57096
 H221 H 0.74954 0.13375 0.55239
 H222 H 0.79820 0.15332 0.57630
 H223 H 0.79325 0.07873 0.64622
 H224 H 0.74473 0.05975 0.62182
 H225 H 0.66202 0.08575 0.50537
 H226 H 0.61061 0.06561 0.48763
 H227 H 0.59939 0.01782 0.57700
 H228 H 0.65053 0.03803 0.59427
 C229 C 0.41478 0.24583 0.40039
 C230 C 0.42750 0.26107 0.37410
 C231 C 0.41403 0.28916 0.36298
 C232 C 0.38745 0.30243 0.37799
 C233 C 0.37519 0.28692 0.40473
 C234 C 0.38874 0.25891 0.41574
 C235 C 0.42769 0.21631 0.41132
 C236 C 0.43744 0.19132 0.42093
 C237 C 0.44773 0.16123 0.43301
 C238 C 0.47774 0.14941 0.42591
 C239 C 0.48729 0.11999 0.43770
 C240 C 0.46687 0.10207 0.45672
 C241 C 0.43678 0.11426 0.46369
 C242 C 0.42734 0.14359 0.45192
 H243 H 0.44765 0.25110 0.36201
 H244 H 0.42433 0.30021 0.34242
 H245 H 0.35490 0.29617 0.41713
 H246 H 0.37869 0.24727 0.43611
 H247 H 0.49371 0.16289 0.41127
 H248 H 0.51058 0.11129 0.43190
 H249 H 0.42047 0.10113 0.47825
 H250 H 0.40406 0.15250 0.45754
 C251 C 0.91157 0.25053 0.59636
 C252 C 0.88518 0.23808 0.58096
 C253 C 0.87108 0.21040 0.59202
 C254 C 0.88314 0.19469 0.61884
 C255 C 0.91003 0.20737 0.63388
 C256 C 0.92404 0.23505 0.62272
 C257 C 0.92535 0.27962 0.58559
 C258 C 0.93651 0.30423 0.57674
 C259 C 0.94928 0.33390 0.56629
 C260 C 0.96548 0.33582 0.53768
 C261 C 0.97680 0.36491 0.52699
 C262 C 0.97199 0.39251 0.54480
 C263 C 0.95607 0.39022 0.57376
 C264 C 0.94479 0.36111 0.58439
 H265 H 0.87532 0.24992 0.56053
 H266 H 0.85055 0.20158 0.57963
 H267 H 0.92022 0.19616 0.65450
 H268 H 0.94446 0.24452 0.63484
 H269 H 0.96906 0.31490 0.52347
 H270 H 0.98893 0.36584 0.50460
 H271 H 0.95195 0.41097 0.58804
 H272 H 0.93226 0.35989 0.60656
 C273 C 0.08612 0.75588 -0.09454
 C274 C 0.07341 0.74042 -0.12072
 C275 C 0.08731 0.71263 -0.13186
 C276 C 0.11432 0.69987 -0.11696
 C277 C 0.12660 0.71558 -0.09033
 C278 C 0.11261 0.74332 -0.07930
 C279 C 0.07267 0.78512 -0.08368
 C280 C 0.06236 0.80990 -0.07426
 C281 C 0.05140 0.83981 -0.06250
 C282 C 0.02132 0.85118 -0.07029
 C283 C 0.01119 0.88051 -0.05890
 C284 C 0.03109 0.89879 -0.03960
 C285 C 0.06123 0.88702 -0.03191
 C286 C 0.07125 0.85780 -0.04328
 H287 H 0.05291 0.74998 -0.13273
 H288 H 0.07697 0.70141 -0.15233
 H289 H 0.14723 0.70671 -0.07804
 H290 H 0.12267 0.75515 -0.05901
 H291 H 0.00577 0.83744 -0.08519
 H292 H -0.01213 0.88888 -0.06525
 H293 H 0.07716 0.90042 -0.01712
 H294 H 0.09458 0.84925 -0.03712
 C295 C 0.58483 0.74841 1.09487
 C296 C 0.61090 0.76145 1.07957
 C297 C 0.62443 0.78939 1.09061
 C298 C 0.61211 0.80483 1.11732
 C299 C 0.58549 0.79161 1.13226
 C300 C 0.57205 0.76362 1.12112
 C301 C 0.57193 0.71895 1.08401
 C302 C 0.56211 0.69399 1.07457
 C303 C 0.55170 0.66391 1.06279
 C304 C 0.52192 0.65205 1.07058
 C305 C 0.51228 0.62259 1.05914
 C306 C 0.53240 0.60469 1.03977
 C307 C 0.56225 0.61693 1.03210
 C308 C 0.57178 0.64629 1.04353
 H309 H 0.62101 0.74983 1.05922
 H310 H 0.64476 0.79861 1.07827
 H311 H 0.57513 0.80261 1.15280
 H312 H 0.55187 0.75368 1.13316
 H313 H 0.50620 0.66551 1.08552
 H314 H 0.48917 0.61385 1.06547
 H315 H 0.57833 0.60382 1.01726
 H316 H 0.59489 0.65523 1.03737
 C317 C 0.40519 0.41471 1.24395
 C318 C 0.42068 0.38846 1.25678
 C319 C 0.40964 0.37455 1.28450
 C320 C 0.38285 0.38670 1.29981
 C321 C 0.36764 0.41337 1.28689
 C322 C 0.37874 0.42723 1.25913
 C323 C 0.41604 0.42806 1.21473
 C324 C 0.42547 0.43828 1.18997
 C325 C 0.43724 0.44915 1.16010
 C326 C 0.45636 0.42918 1.14219
 C327 C 0.46777 0.43912 1.11302
 C328 C 0.46021 0.46930 1.10124
 C329 C 0.44100 0.48931 1.11943
 C330 C 0.42958 0.47926 1.14871
 H331 H 0.44115 0.37854 1.24518
 H332 H 0.42196 0.35411 1.29374
 H333 H 0.34697 0.42336 1.29802
 H334 H 0.36653 0.44751 1.24936
 H335 H 0.46243 0.40582 1.15076
 H336 H 0.48249 0.42310 1.09968
 H337 H 0.43475 0.51266 1.11105
 H338 H 0.41475 0.49490 1.16239
 C339 C 0.59409 -0.08457 0.25224
 C340 C 0.57858 -0.11052 0.23904
 C341 C 0.58962 -0.12401 0.21115
 C342 C 0.61644 -0.11173 0.19603
 C343 C 0.63166 -0.08534 0.20930
 C344 C 0.62055 -0.07190 0.23724
 C345 C 0.58326 -0.07170 0.28165
 C346 C 0.57385 -0.06190 0.30656
 C347 C 0.56210 -0.05152 0.33659
 C348 C 0.54287 -0.07166 0.35418
 C349 C 0.53148 -0.06216 0.38349
 C350 C 0.53917 -0.03226 0.39572
 C351 C 0.55850 -0.01208 0.37785
 C352 C 0.56991 -0.02169 0.34845
 H353 H 0.55810 -0.12055 0.25050
 H354 H 0.57729 -0.14425 0.20164
 H355 H 0.65234 -0.07526 0.19832
 H356 H 0.63277 -0.05184 0.24729
 H357 H 0.53671 -0.09480 0.34524
 H358 H 0.51666 -0.07829 0.39656
 H359 H 0.56484 0.01106 0.38659
 H360 H 0.58482 -0.00592 0.33502
 C361 C -0.09968 1.08438 -0.24568
 C362 C -0.08386 1.10997 -0.25918
 C363 C -0.09495 1.12347 -0.28717
 C364 C -0.12212 1.11156 -0.30210
 C365 C -0.13767 1.08553 -0.28852
 C366 C -0.12651 1.07208 -0.26047
 C367 C -0.08871 1.07154 -0.21618
 C368 C -0.07907 1.06184 -0.19122
 C369 C -0.06697 1.05162 -0.16115
 C370 C -0.04802 1.07208 -0.14356
 C371 C -0.03623 1.06270 -0.11425
 C372 C -0.04323 1.03261 -0.10203
 C373 C -0.06229 1.01212 -0.11991
 C374 C -0.07409 1.02160 -0.14930
 H375 H -0.06310 1.11972 -0.24790
 H376 H -0.08235 1.14341 -0.29691
 H377 H -0.15863 1.07575 -0.29935
 H378 H -0.13898 1.05230 -0.25018
 H379 H -0.04237 1.09537 -0.15249
 H380 H -0.02165 1.07908 -0.10117
 H381 H -0.06811 0.98882 -0.11118
 H382 H -0.08876 1.00558 -0.16274
 C383 C 1.09689 0.58775 0.74900
 C384 C 1.08137 0.61405 0.76151
 C385 C 1.09240 0.62809 0.78921
 C386 C 1.11920 0.61600 0.80479
 C387 C 1.13442 0.58930 0.79217
 C388 C 1.12333 0.57532 0.76446
 C389 C 1.08616 0.57402 0.71989
 C390 C 1.07733 0.56292 0.69527
 C391 C 1.06687 0.55022 0.66561
 C392 C 1.03820 0.53402 0.66359
 C393 C 1.02748 0.52279 0.63450
 C394 C 1.04533 0.52768 0.60701
 C395 C 1.07435 0.54359 0.60940
 C396 C 1.08500 0.55478 0.63851
 H397 H 1.06090 0.62389 0.74969
 H398 H 1.08009 0.64857 0.79823
 H399 H 1.15508 0.57933 0.80350
 H400 H 1.13555 0.55499 0.75496
 H401 H 1.02396 0.53038 0.68443
 H402 H 1.00504 0.51066 0.63350
 H403 H 1.08866 0.54777 0.58873
 H404 H 1.10722 0.56732 0.63980
 C405 C 0.75732 0.59504 0.58557
 C406 C 0.74258 0.62168 0.57266
 C407 C 0.71462 0.63320 0.58581
 C408 C 0.70107 0.61820 0.61213
 C409 C 0.71595 0.59121 0.62467
 C410 C 0.74386 0.57977 0.61148
 C411 C 0.78670 0.58373 0.57297
 C412 C 0.81157 0.57392 0.56335
 C413 C 0.84152 0.56173 0.55310
 C414 C 0.85339 0.56930 0.52328
 C415 C 0.88273 0.55752 0.51378
 C416 C 0.90053 0.53803 0.53405
 C417 C 0.88827 0.53055 0.56392
 C418 C 0.85902 0.54233 0.57333
 H419 H 0.75284 0.63373 0.55264
 H420 H 0.70383 0.65401 0.57554
 H421 H 0.70622 0.57904 0.64487
 H422 H 0.75511 0.55915 0.62169
 H423 H 0.84003 0.58435 0.50745
 H424 H 0.89149 0.56372 0.49065
 H425 H 0.90130 0.51562 0.58012
 H426 H 0.85006 0.53634 0.59646
 C427 C 0.74706 0.40634 1.08922
 C428 C 0.75995 0.42129 1.11562
 C429 C 0.78773 0.40983 1.12934
 C430 C 0.80310 0.38306 1.11685
 C431 C 0.78998 0.36848 1.08995
 C432 C 0.76220 0.38004 1.07634
 C433 C 0.71789 0.41751 1.07582
 C434 C 0.69322 0.42667 1.06493
 C435 C 0.66351 0.43745 1.05244
 C436 C 0.66156 0.46637 1.03657
 C437 C 0.63245 0.47731 1.02541
 C438 C 0.60488 0.45945 1.03006
 C439 C 0.60719 0.43020 1.04570
 C440 C 0.63632 0.41932 1.05681
 H441 H 0.74838 0.44168 1.12579
 H442 H 0.79691 0.42188 1.14990
 H443 H 0.80091 0.34793 1.07945
 H444 H 0.75238 0.36827 1.05590
 H445 H 0.68247 0.48060 1.03308
 H446 H 0.63150 0.49992 1.01350
 H447 H 0.58645 0.41587 1.04968
 H448 H 0.63757 0.39691 1.06910
 C449 C 0.24390 1.09797 -0.08821
 C450 C 0.25668 1.08267 -0.11443
 C451 C 0.28444 1.09385 -0.12815
 C452 C 0.29979 1.12058 -0.11582
 C453 C 0.28688 1.13560 -0.08923
 C454 C 0.25912 1.12436 -0.07556
 C455 C 0.21478 1.08699 -0.07480
 C456 C 0.19017 1.07785 -0.06402
 C457 C 0.16053 1.06695 -0.05173
 C458 C 0.15889 1.03822 -0.03551
 C459 C 0.12985 1.02706 -0.02466
 C460 C 0.10205 1.04452 -0.02998
 C461 C 0.10405 1.07358 -0.04596
 C462 C 0.13310 1.08468 -0.05676
 H463 H 0.24506 1.06223 -0.12443
 H464 H 0.29368 1.08168 -0.14856
 H465 H 0.29805 1.15621 -0.07910
 H466 H 0.24939 1.13641 -0.05529
 H467 H 0.17998 1.02428 -0.03153
 H468 H 0.12915 1.00460 -0.01246
 H469 H 0.08312 1.08760 -0.05045
 H470 H 0.13411 1.10693 -0.06934
 C471 C 0.25160 -0.09903 0.41282
 C472 C 0.23692 -0.12559 0.42572
 C473 C 0.20904 -0.13718 0.41242
 C474 C 0.19538 -0.12238 0.38584
 C475 C 0.21030 -0.09536 0.37336
 C476 C 0.23815 -0.08388 0.38675
 C477 C 0.28089 -0.08773 0.42574
 C478 C 0.30566 -0.07826 0.43601
 C479 C 0.33548 -0.06693 0.44760
 C480 C 0.33733 -0.03778 0.46295
 C481 C 0.36652 -0.02627 0.47314
 C482 C 0.39428 -0.04380 0.46803
 C483 C 0.39209 -0.07325 0.45288
 C484 C 0.36288 -0.08469 0.44273
 H485 H 0.24718 -0.13752 0.44590
 H486 H 0.19845 -0.15793 0.42289
 H487 H 0.20072 -0.08312 0.35305
 H488 H 0.24936 -0.06330 0.37656
 H489 H 0.31626 -0.02381 0.46677
 H490 H 0.36738 -0.00353 0.48472
 H491 H 0.41297 -0.08734 0.44858
 H492 H 0.36172 -0.10727 0.43081
 C493 C 0.58945 -0.24709 0.59330
 C494 C 0.57662 -0.26228 0.61955
 C495 C 0.59029 -0.29006 0.63105
 C496 C 0.61718 -0.30315 0.61646
 C497 C 0.62961 -0.28773 0.58974
 C498 C 0.61584 -0.25994 0.57834
 C499 C 0.57599 -0.21792 0.58220
 C500 C 0.56504 -0.19324 0.57311
 C501 C 0.55246 -0.16353 0.56241
 C502 C 0.53648 -0.16159 0.53358
 C503 C 0.52522 -0.13248 0.52272
 C504 C 0.52986 -0.10490 0.54058
 C505 C 0.54561 -0.10719 0.56974
 C506 C 0.55683 -0.13632 0.58054
 H507 H 0.55619 -0.25249 0.63132
 H508 H 0.57983 -0.30104 0.65156
 H509 H 0.65016 -0.29688 0.57770
 H510 H 0.62597 -0.24833 0.55800
 H511 H 0.53299 -0.18252 0.51935
 H512 H 0.51322 -0.13154 0.50017
 H513 H 0.54959 -0.08644 0.58407
 H514 H 0.56919 -0.13757 0.60289
 C515 C 1.08695 0.74275 0.40491
 C516 C 1.07370 0.75775 0.37864
 C517 C 1.08686 0.78573 0.36711
 C518 C 1.11365 0.79915 0.38170
 C519 C 1.12648 0.78388 0.40841
 C520 C 1.11324 0.75595 0.41983
 C521 C 1.07426 0.71337 0.41623
 C522 C 1.06454 0.68851 0.42605
 C523 C 1.05416 0.65856 0.43822
 C524 C 1.02427 0.64676 0.43062
 C525 C 1.01463 0.61742 0.44237
 C526 C 1.03485 0.59955 0.46186
 C527 C 1.06481 0.61175 0.46937
 C528 C 1.07434 0.64101 0.45763
 H529 H 1.05336 0.74769 0.36689
 H530 H 1.07613 0.79659 0.34659
 H531 H 1.14697 0.79325 0.42048
 H532 H 1.12370 0.74449 0.44018
 H533 H 1.00847 0.66016 0.41558
 H534 H 0.99144 0.60871 0.43615
 H535 H 1.08097 0.59867 0.48430
 H536 H 1.09753 0.64991 0.46364
 C537 C -0.08784 1.24851 0.09778
 C538 C -0.07481 1.26333 0.12418
 C539 C -0.08813 1.29121 0.13573
 C540 C -0.11487 1.30472 0.12105
 C541 C -0.12749 1.28966 0.09418
 C542 C -0.11407 1.26180 0.08273
 C543 C -0.07487 1.21921 0.08655
 C544 C -0.06453 1.19443 0.07718
 C545 C -0.05283 1.16458 0.06603
 C546 C -0.05763 1.13721 0.08386
 C547 C -0.04735 1.10797 0.07261
 C548 C -0.03212 1.10572 0.04328
 C549 C -0.02707 1.13344 0.02568
 C550 C -0.03740 1.16266 0.03700
 H551 H -0.05449 1.25319 0.13602
 H552 H -0.07755 1.30192 0.15636
 H553 H -0.14793 1.29912 0.08204
 H554 H -0.12436 1.25048 0.06227
 H555 H -0.06960 1.13842 0.10635
 H556 H -0.05160 1.08712 0.08675
 H557 H -0.01544 1.13254 0.00302
 H558 H -0.03362 1.18371 0.02298
 C559 C 0.41200 0.25609 0.90180
 C560 C 0.42457 0.24101 0.87536
 C561 C 0.41091 0.21319 0.86408
 C562 C 0.38440 0.20011 0.87912
 C563 C 0.37215 0.21534 0.90590
 C564 C 0.38587 0.24313 0.91712
 C565 C 0.42538 0.28525 0.91283
 C566 C 0.43611 0.30991 0.92205
 C567 C 0.44829 0.33960 0.93307
 C568 C 0.44324 0.36708 0.91543
 C569 C 0.45395 0.39618 0.92663
 C570 C 0.46986 0.39816 0.95572
 C571 C 0.47519 0.37030 0.97310
 C572 C 0.46443 0.34123 0.96183
 H573 H 0.44478 0.25088 0.86331
 H574 H 0.42097 0.20213 0.84344
 H575 H 0.35181 0.20597 0.91808
 H576 H 0.37593 0.25465 0.93759
 H577 H 0.43072 0.36608 0.89316
 H578 H 0.44946 0.41714 0.91267
 H579 H 0.48733 0.37100 0.99556
 H580 H 0.46842 0.32009 0.97569
 C581 C 0.59801 0.58737 0.75222
 C582 C 0.62459 0.57446 0.73758
 C583 C 0.63602 0.58770 0.70966
 C584 C 0.62101 0.61411 0.69604
 C585 C 0.59408 0.62666 0.71081
 C586 C 0.58271 0.61337 0.73870
 C587 C 0.58685 0.57451 0.78152
 C588 C 0.57749 0.56428 0.80629
 C589 C 0.56629 0.55271 0.83611
 C590 C 0.53718 0.53731 0.83801
 C591 C 0.52580 0.52712 0.86718
 C592 C 0.54341 0.53226 0.89487
 C593 C 0.57281 0.54747 0.89263
 C594 C 0.58413 0.55762 0.86344
 H595 H 0.63664 0.55435 0.74788
 H596 H 0.65677 0.57742 0.69895
 H597 H 0.58191 0.64693 0.70102
 H598 H 0.56214 0.62357 0.74987
 H599 H 0.52316 0.53345 0.81699
 H600 H 0.50309 0.51550 0.86807
 H601 H 0.58696 0.55179 0.91346
 H602 H 0.60667 0.56957 0.86223
 C603 C 0.40168 0.08795 0.74370
 C604 C 0.37526 0.07531 0.75878
 C605 C 0.36405 0.08895 0.78656
 C606 C 0.37912 0.11552 0.79961
 C607 C 0.40587 0.12784 0.78438
 C608 C 0.41703 0.11414 0.75662
 C609 C 0.41265 0.07457 0.71458
 C610 C 0.42182 0.06384 0.68997
 C611 C 0.43279 0.05163 0.66034
 C612 C 0.46159 0.03554 0.65870
 C613 C 0.47280 0.02477 0.62968
 C614 C 0.45534 0.03004 0.60190
 C615 C 0.42621 0.04590 0.60389
 C616 C 0.41506 0.05663 0.63292
 H617 H 0.36318 0.05506 0.74894
 H618 H 0.34342 0.07883 0.79763
 H619 H 0.41808 0.14822 0.79373
 H620 H 0.43748 0.12414 0.74510
 H621 H 0.47552 0.03160 0.67979
 H622 H 0.49530 0.01266 0.62898
 H623 H 0.41218 0.05035 0.58298
 H624 H 0.39276 0.06911 0.63393
 C625 C 0.09309 0.91048 0.24691
 C626 C 0.07824 0.88387 0.25957
 C627 C 0.08969 0.87009 0.28731
 C628 C 0.11624 0.88276 0.30274
 C629 C 0.13077 0.90975 0.28996
 C630 C 0.11926 0.92347 0.26224
 C631 C 0.08198 0.92397 0.21779
 C632 C 0.07292 0.93495 0.19315
 C633 C 0.06228 0.94757 0.16347
 C634 C 0.03343 0.96355 0.16145
 C635 C 0.02262 0.97484 0.13236
 C636 C 0.04057 0.97022 0.10490
 C637 C 0.06975 0.95449 0.10729
 C638 C 0.08049 0.94325 0.13639
 H639 H 0.05798 0.87360 0.24785
 H640 H 0.07792 0.84937 0.29645
 H641 H 0.15121 0.92016 0.30119
 H642 H 0.13096 0.94404 0.25261
 H643 H 0.01914 0.96701 0.18228
 H644 H 0.00006 0.98681 0.13135
 H645 H 0.08413 0.95053 0.08663
 H646 H 0.10285 0.93089 0.13770
 C647 C 0.90505 0.41383 0.25690
 C648 C 0.92028 0.38789 0.24338
 C649 C 0.90880 0.37471 0.21546
 C650 C 0.88180 0.38730 0.20065
 C651 C 0.86685 0.41365 0.21427
 C652 C 0.87840 0.42679 0.24223
 C653 C 0.91640 0.42643 0.28629
 C654 C 0.92623 0.43605 0.31116
 C655 C 0.93842 0.44633 0.34110
 C656 C 0.95775 0.42603 0.35862
 C657 C 0.96951 0.43546 0.38787
 C658 C 0.96210 0.46542 0.40011
 C659 C 0.94270 0.48577 0.38229
 C660 C 0.93093 0.47623 0.35295
 H661 H 0.94091 0.37764 0.25458
 H662 H 0.92094 0.35448 0.20568
 H663 H 0.84604 0.42396 0.20353
 H664 H 0.86639 0.44685 0.25254
 H665 H 0.96368 0.40282 0.34968
 H666 H 0.98438 0.41921 0.40092
 H667 H 0.93655 0.50897 0.39103
 H668 H 0.91595 0.49213 0.33958
   
