data_POSCAR
  _audit_creation_date              2014-09-24
  _audit_creation_method            'ToBaCCo'
  _symmetry_space_group_name_H-M    'P1'
  _symmetry_Int_Tables_number       1
  _symmetry_cell_setting            triclinic
  loop_
  _symmetry_equiv_pos_as_xyz
 x,y,z
_cell_length_a 27.4949
_cell_length_b 27.5423
_cell_length_c 27.6157
_cell_angle_alpha 91.035000
_cell_angle_beta 91.172200
_cell_angle_gamma 91.082000
loop_
  _atom_site_label
  _atom_site_type_symbol
  _atom_site_fract_x
  _atom_site_fract_y
  _atom_site_fract_z
C1 C -0.06832 0.51388 0.26756
 C2 C -0.02277 0.52565 0.24824
 C3 C -0.01475 0.57198 0.22931
 C4 C -0.05168 0.60618 0.22952
 C5 C -0.09689 0.59448 0.24913
 C6 C -0.10522 0.54836 0.26831
 C7 C 0.01662 0.48990 0.24761
 C8 C 0.00756 0.44233 0.23002
 C9 C 0.04549 0.40920 0.22773
 C10 C 0.09241 0.42320 0.24354
 C11 C 0.10163 0.47037 0.26143
 C12 C 0.06394 0.50369 0.26334
 H13 H -0.07462 0.47832 0.28277
 H14 H 0.02008 0.58108 0.21369
 H15 H -0.02859 0.43151 0.21706
 H16 H 0.07125 0.54010 0.27758
 H17 H -0.12544 0.62118 0.24954
 H18 H 0.12170 0.39741 0.24194
 C19 C -0.06148 0.48758 0.73569
 C20 C -0.01430 0.47890 0.75363
 C21 C -0.00384 0.43341 0.77313
 C22 C -0.04012 0.39711 0.77494
 C23 C -0.08700 0.40595 0.75662
 C24 C -0.09764 0.45112 0.73685
 C25 C 0.02413 0.51715 0.75182
 C26 C 0.01518 0.56461 0.76849
 C27 C 0.05184 0.60063 0.76721
 C28 C 0.09739 0.58949 0.74860
 C29 C 0.10644 0.54239 0.73160
 C30 C 0.07005 0.50628 0.73349
 H31 H -0.06978 0.52234 0.72000
 H32 H 0.03233 0.42664 0.78760
 H33 H -0.01998 0.57317 0.78324
 H34 H 0.07716 0.46997 0.71991
 H35 H -0.11513 0.37785 0.75771
 H36 H 0.12576 0.61734 0.74725
 C37 C 0.26770 -0.07114 0.51258
 C38 C 0.24799 -0.02557 0.52350
 C39 C 0.22789 -0.01733 0.56918
 C40 C 0.22708 -0.05416 0.60341
 C41 C 0.24710 -0.09933 0.59251
 C42 C 0.26763 -0.10787 0.54715
 C43 C 0.24746 0.01323 0.48711
 C44 C 0.22920 0.00340 0.43999
 C45 C 0.22698 0.04046 0.40595
 C46 C 0.24383 0.08741 0.41869
 C47 C 0.26249 0.09747 0.46546
 C48 C 0.26399 0.06054 0.49967
 H49 H 0.28367 -0.07765 0.47751
 H50 H 0.21194 0.01743 0.57771
 H51 H 0.21562 -0.03280 0.43031
 H52 H 0.27859 0.06840 0.53579
 H53 H 0.24665 -0.12769 0.61928
 H54 H 0.24240 0.11614 0.39234
 C55 C 0.73067 -0.06423 0.48640
 C56 C 0.74860 -0.01740 0.47652
 C57 C 0.76596 -0.00751 0.43017
 C58 C 0.76589 -0.04413 0.39435
 C59 C 0.74779 -0.09064 0.40437
 C60 C 0.73006 -0.10070 0.45037
 C61 C 0.75031 0.02073 0.51492
 C62 C 0.76986 0.01063 0.56094
 C63 C 0.77201 0.04666 0.59737
 C64 C 0.75404 0.09296 0.58813
 C65 C 0.73426 0.10325 0.54236
 C66 C 0.73272 0.06731 0.50579
 H67 H 0.71684 -0.07205 0.52199
 H68 H 0.78071 0.02823 0.42242
 H69 H 0.78415 -0.02505 0.56805
 H70 H 0.71704 0.07529 0.47054
 H71 H 0.74789 -0.11894 0.37652
 H72 H 0.75534 0.12089 0.61637
 C73 C 0.50106 0.26152 1.06428
 C74 C 0.48765 0.24550 1.01716
 C75 C 0.44044 0.22659 1.00810
 C76 C 0.40721 0.22338 1.04576
 C77 C 0.42087 0.23958 1.09255
 C78 C 0.46772 0.25874 1.10180
 C79 C 0.52325 0.24763 0.97775
 C80 C 0.57062 0.23079 0.98554
 C81 C 0.60442 0.23219 0.94837
 C82 C 0.59127 0.25085 0.90329
 C83 C 0.54424 0.26789 0.89522
 C84 C 0.51017 0.26609 0.93223
 H85 H 0.53713 0.27685 1.07157
 H86 H 0.42999 0.21351 0.97201
 H87 H 0.58080 0.21573 1.02025
 H88 H 0.47391 0.27974 0.92591
 H89 H 0.39509 0.23748 1.12172
 H90 H 0.61750 0.25209 0.87448
 C91 C 0.50274 0.73305 1.06888
 C92 C 0.51193 0.75094 1.02252
 C93 C 0.55826 0.77040 1.01274
 C94 C 0.59489 0.77221 1.04883
 C95 C 0.58549 0.75390 1.09483
 C96 C 0.53950 0.73416 1.10484
 C97 C 0.47334 0.74923 0.98422
 C98 C 0.42664 0.76653 0.99376
 C99 C 0.39052 0.76599 0.95711
 C100 C 0.40079 0.74736 0.91093
 C101 C 0.44709 0.72968 0.90124
 C102 C 0.48330 0.73090 0.93769
 H103 H 0.46734 0.71737 1.07664
 H104 H 0.56548 0.78483 0.97725
 H105 H 0.41887 0.78145 1.02934
 H106 H 0.51904 0.71706 0.93003
 H107 H 0.61385 0.75486 1.12277
 H108 H 0.37296 0.74684 0.88248
 B109 B 1.00060 1.05094 0.03323
 B110 B 1.00147 1.05180 -0.02923
 B111 B 1.05047 1.03059 0.00304
 B112 B 1.02903 0.99873 0.05187
 B113 B 0.96628 1.00072 0.04967
 B114 B 0.94901 1.03372 -0.00075
 B115 B 0.99663 0.95002 -0.03369
 B116 B 0.99572 0.94931 0.02992
 B117 B 0.94604 0.97038 -0.00227
 B118 B 0.96721 1.00239 -0.05111
 B119 B 1.03007 1.00039 -0.04948
 B120 B 1.04772 0.96774 0.00060
 B121 B 0.55255 0.49800 0.46983
 B122 B 0.50287 0.52969 0.44905
 B123 B 0.50132 0.46662 0.44908
 B124 B 0.53165 0.44822 0.50061
 B125 B 0.55170 0.49916 0.53301
 B126 B 0.53467 0.54945 0.50039
 B127 B 0.45037 0.49997 0.52933
 B128 B 0.49987 0.46854 0.55006
 B129 B 0.50145 0.53194 0.55001
 B130 B 0.47124 0.55002 0.49845
 B131 B 0.45112 0.49903 0.46649
 B132 B 0.46848 0.44863 0.49862
 C133 C 0.98406 1.15497 0.13480
 C134 C 1.01684 1.19083 0.12073
 C135 C 1.04407 1.18339 0.07950
 C136 C 1.03864 1.14027 0.05258
 C137 C 1.03695 1.36133 0.20745
 C138 C 0.97880 1.11178 0.10773
 C139 C 1.02099 1.23639 0.14675
 C140 C 1.02513 1.27529 0.16714
 C141 C 1.03096 1.32147 0.18947
 C142 C 1.00639 1.10222 0.06597
 H143 H 0.96177 1.16065 0.16624
 H144 H 1.06874 1.21154 0.06724
 H145 H 1.05813 1.13919 0.01940
 H146 H 0.95148 1.08694 0.11948
 C147 C 1.02906 0.83441 0.11044
 C148 C 0.98342 0.81571 0.12187
 C149 C 0.94223 0.84120 0.10903
 C150 C 0.94662 0.88337 0.08230
 C151 C 0.95634 0.65035 0.20963
 C152 C 1.03288 0.87686 0.08358
 C153 C 0.97827 0.77119 0.14768
 C154 C 0.97219 0.73350 0.16826
 C155 C 0.96380 0.68893 0.19112
 C156 C 0.99169 0.90018 0.06414
 H157 H 1.06176 0.81660 0.12270
 H158 H 0.90660 0.82916 0.12054
 H159 H 0.91410 0.90408 0.07917
 H160 H 1.06867 0.89094 0.07945
 C161 C 0.98011 1.18879 -0.06646
 C162 C 1.00039 1.19154 -0.11200
 C163 C 1.02415 1.15143 -0.13091
 C164 C 1.02645 1.10845 -0.10468
 C165 C 0.96993 1.35379 -0.20433
 C166 C 0.98249 1.14597 -0.04050
 C167 C 0.99460 1.23501 -0.13956
 C168 C 0.98793 1.27199 -0.16122
 C169 C 0.97860 1.31587 -0.18507
 C170 C 1.00535 1.10398 -0.05832
 H171 H 0.96169 1.21970 -0.05102
 H172 H 1.03970 1.15278 -0.16661
 H173 H 1.04274 1.07878 -0.12300
 H174 H 0.96668 1.14718 -0.00588
 C175 C 0.96886 0.82885 -0.11796
 C176 C 1.01485 0.81677 -0.13321
 C177 C 1.05354 0.84834 -0.12247
 C178 C 1.04650 0.89000 -0.09408
 C179 C 1.04364 0.64608 -0.21483
 C180 C 0.96220 0.87074 -0.08970
 C181 C 1.02251 0.77125 -0.15804
 C182 C 1.02899 0.73233 -0.17724
 C183 C 1.03674 0.68604 -0.19811
 C184 C 1.00116 0.90160 -0.07277
 H185 H 0.93777 0.80559 -0.12760
 H186 H 1.08965 0.84041 -0.13513
 H187 H 1.07885 0.91143 -0.08787
 H188 H 0.92539 0.87630 -0.08282
 C189 C 1.13121 0.97655 0.15519
 C190 C 1.11493 1.00489 0.19358
 C191 C 1.07110 1.02863 0.18853
 C192 C 1.04430 1.02475 0.14522
 C193 C 1.20676 1.03130 0.36114
 C194 C 1.10401 0.97286 0.11178
 C195 C 1.14255 1.00998 0.23831
 C196 C 1.16415 1.01569 0.27649
 C197 C 1.18781 1.02368 0.32189
 C198 C 1.05944 0.99716 0.10477
 H199 H 1.16520 0.95749 0.15854
 H200 H 1.05727 1.05018 0.21827
 H201 H 1.01039 1.04191 0.14537
 H202 H 1.11955 0.95082 0.08480
 C203 C 1.06245 0.97976 -0.18845
 C204 C 1.11291 0.98451 -0.18794
 C205 C 1.13762 0.99438 -0.14430
 C206 C 1.11187 0.99978 -0.10151
 C207 C 1.20443 0.95420 -0.35074
 C208 C 1.03685 0.98511 -0.14561
 C209 C 1.13922 0.97684 -0.23183
 C210 C 1.16054 0.96989 -0.26894
 C211 C 1.18464 0.96143 -0.31282
 C212 C 1.06050 0.99679 -0.10056
 H213 H 1.04280 0.97031 -0.22182
 H214 H 1.17700 0.99712 -0.14307
 H215 H 1.13330 1.00579 -0.06953
 H216 H 0.99910 0.97614 -0.14871
 C217 C 0.92308 0.96708 0.18203
 C218 C 0.87849 0.98973 0.18525
 C219 C 0.86161 1.01706 0.14668
 C220 C 0.88912 1.02116 0.10486
 C221 C 0.78675 0.96527 0.34806
 C222 C 0.95033 0.97122 0.14029
 C223 C 0.85080 0.98494 0.22853
 C224 C 0.82914 0.97973 0.26559
 C225 C 0.80553 0.97241 0.30976
 C226 C 0.93415 0.99786 0.09973
 H227 H 0.93692 0.94591 0.21182
 H228 H 0.82732 1.03562 0.14898
 H229 H 0.87496 1.04427 0.07793
 H230 H 0.98421 0.95239 0.14047
 C231 C 0.87984 0.96850 -0.16413
 C232 C 0.88227 1.01025 -0.19185
 C233 C 0.90659 1.05122 -0.17297
 C234 C 0.93051 1.04958 -0.12812
 C235 C 0.79265 1.03681 -0.35872
 C236 C 0.90441 0.96738 -0.11922
 C237 C 0.85616 1.01365 -0.23728
 C238 C 0.83519 1.01931 -0.27544
 C239 C 0.81175 1.02823 -0.32023
 C240 C 0.93451 1.00616 -0.10186
 H241 H 0.85721 0.93775 -0.17602
 H242 H 0.90514 1.08536 -0.19185
 H243 H 0.94009 1.08407 -0.11292
 H244 H 0.89427 0.93920 -0.09577
 C245 C 1.16570 1.11308 -0.02946
 C246 C 1.19016 1.11850 0.01501
 C247 C 1.16916 1.09979 0.05624
 C248 C 1.12512 1.07390 0.05267
 C249 C 1.36203 1.20354 0.03724
 C250 C 1.12153 1.08710 -0.03276
 C251 C 1.23658 1.14336 0.01889
 C252 C 1.27587 1.16320 0.02355
 C253 C 1.32221 1.18537 0.03041
 C254 C 1.10128 1.06371 0.00750
 H255 H 1.18079 1.12871 -0.06173
 H256 H 1.18646 1.10580 0.09151
 H257 H 1.10940 1.06536 0.08634
 H258 H 1.10458 1.08474 -0.06769
 C259 C 0.82120 1.08403 -0.04846
 C260 C 0.81553 1.12599 -0.02076
 C261 C 0.85063 1.13898 0.01426
 C262 C 0.89146 1.11020 0.02100
 C263 C 0.64948 1.21381 -0.04442
 C264 C 0.86189 1.05547 -0.04137
 C265 C 0.77185 1.15325 -0.02627
 C266 C 0.73411 1.17410 -0.03152
 C267 C 0.68887 1.19635 -0.03827
 C268 C 0.89954 1.06775 -0.00712
 H269 H 0.79319 1.07220 -0.07448
 H270 H 0.84621 1.17102 0.03699
 H271 H 0.91578 1.12203 0.04899
 H272 H 0.86022 1.02124 -0.06005
 C273 C 1.13614 0.85443 -0.00742
 C274 C 1.18215 0.87657 -0.00750
 C275 C 1.18635 0.92681 -0.00227
 C276 C 1.14492 0.95495 0.00163
 C277 C 1.34618 0.78545 -0.03428
 C278 C 1.09461 0.88277 -0.00350
 C279 C 1.22537 0.84850 -0.01372
 C280 C 1.26268 0.82699 -0.01960
 C281 C 1.30738 0.80380 -0.02721
 C282 C 1.09736 0.93428 -0.00041
 H283 H 1.13217 0.81532 -0.01106
 H284 H 1.22191 0.94453 -0.00120
 H285 H 1.15158 0.99282 0.00760
 H286 H 1.05984 0.86382 -0.00446
 C287 C 0.84845 0.86081 -0.00248
 C288 C 0.80520 0.88395 0.00792
 C289 C 0.80593 0.93400 0.01543
 C290 C 0.84934 0.96069 0.01201
 C291 C 0.63920 0.79271 0.03943
 C292 C 0.89175 0.88801 -0.00591
 C293 C 0.76079 0.85657 0.01498
 C294 C 0.72296 0.83519 0.02203
 C295 C 0.67801 0.81169 0.03120
 C296 C 0.89361 0.93928 -0.00104
 H297 H 0.84929 0.82158 -0.00578
 H298 H 0.77310 0.95246 0.02560
 H299 H 0.84698 0.99779 0.02197
 H300 H 0.92482 0.86773 -0.00751
 C301 C 0.69119 0.51353 0.43144
 C302 C 0.68865 0.50769 0.38138
 C303 C 0.64384 0.49731 0.35884
 C304 C 0.60194 0.49304 0.38649
 C305 C 0.85140 0.53776 0.28903
 C306 C 0.64921 0.50927 0.45863
 C307 C 0.73196 0.51410 0.35364
 C308 C 0.76907 0.52055 0.33197
 C309 C 0.81324 0.52929 0.30821
 C310 C 0.60300 0.49819 0.43763
 H311 H 0.72566 0.52211 0.44965
 H312 H 0.64102 0.49312 0.31979
 H313 H 0.56915 0.48587 0.36659
 H314 H 0.65426 0.51492 0.49610
 C315 C 0.35139 0.54189 0.37007
 C316 C 0.31889 0.50244 0.36768
 C317 C 0.32760 0.46217 0.39587
 C318 C 0.36809 0.46129 0.42678
 C319 C 0.14946 0.48362 0.27970
 C320 C 0.39236 0.54087 0.40101
 C321 C 0.27449 0.50324 0.33941
 C322 C 0.23577 0.50012 0.31835
 C323 C 0.18944 0.49264 0.29647
 C324 C 0.40193 0.50066 0.43103
 H325 H 0.34458 0.57391 0.34895
 H326 H 0.30210 0.43164 0.39515
 H327 H 0.36945 0.43063 0.44929
 H328 H 0.41440 0.57341 0.40305
 C329 C 0.67661 0.53009 0.60580
 C330 C 0.68548 0.48699 0.62971
 C331 C 0.65174 0.44881 0.62523
 C332 C 0.61009 0.45326 0.59597
 C333 C 0.85470 0.45967 0.71644
 C334 C 0.63485 0.53448 0.57659
 C335 C 0.73080 0.48055 0.65569
 C336 C 0.76938 0.47443 0.67602
 C337 C 0.81517 0.46665 0.69840
 C338 C 0.60046 0.49587 0.56951
 H339 H 0.70274 0.56001 0.60848
 H340 H 0.65829 0.41479 0.64315
 H341 H 0.58742 0.42123 0.59241
 H342 H 0.63207 0.56753 0.55767
 C343 C 0.31134 0.49714 0.56916
 C344 C 0.31523 0.50162 0.61929
 C345 C 0.36113 0.50265 0.64151
 C346 C 0.40276 0.50094 0.61332
 C347 C 0.15258 0.53156 0.71068
 C348 C 0.35306 0.49561 0.54134
 C349 C 0.27204 0.50772 0.64710
 C350 C 0.23498 0.51421 0.66865
 C351 C 0.19082 0.52311 0.69203
 C352 C 0.40036 0.49978 0.56199
 H353 H 0.27588 0.49571 0.55125
 H354 H 0.36492 0.50587 0.68057
 H355 H 0.43661 0.50337 0.63267
 H356 H 0.34655 0.49253 0.50372
 C357 C 0.50666 0.64320 0.36072
 C358 C 0.50572 0.62139 0.31481
 C359 C 0.50151 0.57112 0.31070
 C360 C 0.49984 0.54284 0.35206
 C361 C 0.53062 0.71335 0.15148
 C362 C 0.50480 0.61451 0.40203
 C363 C 0.51100 0.64967 0.27173
 C364 C 0.51642 0.67135 0.23456
 C365 C 0.52373 0.69476 0.19006
 C366 C 0.50343 0.56304 0.39937
 H367 H 0.50971 0.68235 0.36477
 H368 H 0.50021 0.55344 0.27529
 H369 H 0.49703 0.50522 0.34518
 H370 H 0.50702 0.63356 0.43587
 C371 C 0.53180 0.60318 0.67554
 C372 C 0.48842 0.62664 0.68456
 C373 C 0.45045 0.62276 0.65057
 C374 C 0.45527 0.59433 0.60863
 C375 C 0.45729 0.70969 0.85401
 C376 C 0.53656 0.57481 0.63345
 C377 C 0.48138 0.65146 0.73020
 C378 C 0.47447 0.67086 0.76891
 C379 C 0.46548 0.69228 0.81467
 C380 C 0.49801 0.56799 0.59895
 H381 H 0.56164 0.60551 0.70178
 H382 H 0.41625 0.64040 0.65716
 H383 H 0.42329 0.59105 0.58588
 H384 H 0.56984 0.55622 0.63046
 C385 C 0.54177 0.36911 0.34956
 C386 C 0.50227 0.36792 0.31704
 C387 C 0.46309 0.39779 0.32537
 C388 C 0.46319 0.42888 0.36559
 C389 C 0.48066 0.27763 0.14938
 C390 C 0.54174 0.40027 0.39028
 C391 C 0.50192 0.33905 0.27309
 C392 C 0.49797 0.31748 0.23481
 C393 C 0.48984 0.29496 0.18898
 C394 C 0.50244 0.43162 0.39969
 H395 H 0.57306 0.34677 0.34301
 H396 H 0.43267 0.39823 0.29977
 H397 H 0.43368 0.45301 0.36637
 H398 H 0.57432 0.40133 0.41236
 C399 C 0.51324 0.42894 0.68794
 C400 C 0.50568 0.37898 0.68537
 C401 C 0.49576 0.35665 0.64054
 C402 C 0.49322 0.38455 0.59873
 C403 C 0.53190 0.28864 0.84926
 C404 C 0.51070 0.45633 0.64609
 C405 C 0.51021 0.35119 0.72875
 C406 C 0.51545 0.32991 0.76616
 C407 C 0.52340 0.30696 0.81079
 C408 C 0.49947 0.43572 0.59998
 H409 H 0.52182 0.44693 0.72238
 H410 H 0.49055 0.31761 0.63768
 H411 H 0.48634 0.36483 0.56591
 H412 H 0.51776 0.49363 0.65114
 C413 C 0.60610 0.67449 0.53254
 C414 C 0.63027 0.68374 0.48980
 C415 C 0.62668 0.65013 0.45167
 C416 C 0.59783 0.60826 0.45570
 C417 C 0.71180 0.85427 0.45991
 C418 C 0.57731 0.63247 0.53652
 C419 C 0.65501 0.72954 0.48332
 C420 C 0.67414 0.76850 0.47674
 C421 C 0.69499 0.81459 0.46799
 C422 C 0.57095 0.59828 0.49782
 H423 H 0.60805 0.70062 0.56236
 H424 H 0.64478 0.65706 0.41791
 H425 H 0.59472 0.58582 0.42361
 H426 H 0.55783 0.62953 0.56911
 C427 C 0.64488 0.35949 0.50530
 C428 C 0.62282 0.31357 0.50468
 C429 C 0.57250 0.30952 0.49985
 C430 C 0.54434 0.35104 0.49752
 C431 C 0.71391 0.15012 0.53330
 C432 C 0.61633 0.40095 0.50277
 C433 C 0.65091 0.27046 0.51109
 C434 C 0.67244 0.23330 0.51750
 C435 C 0.69561 0.18880 0.52582
 C436 C 0.56478 0.39838 0.50108
 H437 H 0.68408 0.36345 0.50878
 H438 H 0.55467 0.27406 0.49871
 H439 H 0.50663 0.34428 0.49427
 H440 H 0.63554 0.43483 0.50503
 C441 C 0.35902 0.64067 0.49844
 C442 C 0.38142 0.68557 0.50860
 C443 C 0.43174 0.68832 0.51404
 C444 C 0.45933 0.64656 0.50961
 C445 C 0.28851 0.84860 0.53728
 C446 C 0.38708 0.59896 0.49400
 C447 C 0.35338 0.72884 0.51487
 C448 C 0.33161 0.76601 0.52106
 C449 C 0.30777 0.81033 0.52934
 C450 C 0.43851 0.60029 0.49877
 H451 H 0.31979 0.63765 0.49447
 H452 H 0.44989 0.72284 0.52233
 H453 H 0.49698 0.65192 0.51475
 H454 H 0.36732 0.56607 0.48683
 C455 C 0.37069 0.34765 0.53725
 C456 C 0.37013 0.31519 0.49786
 C457 C 0.39999 0.32439 0.45901
 C458 C 0.43064 0.36517 0.45947
 C459 C 0.28161 0.14538 0.47760
 C460 C 0.40139 0.38896 0.53756
 C461 C 0.34202 0.27046 0.49741
 C462 C 0.32099 0.23167 0.49368
 C463 C 0.29885 0.18533 0.48613
 C464 C 0.43304 0.39905 0.49880
 H465 H 0.34833 0.34054 0.56828
 H466 H 0.40086 0.29898 0.42860
 H467 H 0.45478 0.36646 0.43013
 H468 H 0.40207 0.41074 0.57016
   
