data_POSCAR
  _audit_creation_date              2014-09-24
  _audit_creation_method            'ToBaCCo'
  _symmetry_space_group_name_H-M    'P1'
  _symmetry_Int_Tables_number       1
  _symmetry_cell_setting            triclinic
  loop_
  _symmetry_equiv_pos_as_xyz
 x,y,z
_cell_length_a 29.4287
_cell_length_b 30.7555
_cell_length_c 30.8550
_cell_angle_alpha 89.387100
_cell_angle_beta 90.576000
_cell_angle_gamma 91.879200
loop_
  _atom_site_label
  _atom_site_type_symbol
  _atom_site_fract_x
  _atom_site_fract_y
  _atom_site_fract_z
C1 C 1.17546 0.27439 0.31664
 H2 H 1.17620 0.23998 0.32414
 C3 C 1.14834 0.30138 0.34105
 H4 H 1.12776 0.28745 0.36689
 C5 C 1.20255 0.33471 0.27485
 H6 H 1.22457 0.34799 0.24993
 C7 C 1.17520 0.36264 0.29780
 H8 H 1.17585 0.39705 0.28996
 N9 N 1.20226 0.29139 0.28453
 C10 C 1.23869 0.18324 0.20093
 H11 H 1.27445 0.18148 0.20897
 C12 C 1.21855 0.15306 0.17257
 H13 H 1.23853 0.12758 0.15918
 C14 C 1.16875 0.21838 0.20865
 H15 H 1.14957 0.24389 0.22293
 C16 C 1.14773 0.18992 0.17891
 H17 H 1.11211 0.19306 0.17075
 Zn18 Zn 1.24364 0.25370 0.25769
 N19 N 1.21341 0.21430 0.21930
 C20 C 1.27063 0.17899 0.30650
 N21 N 1.27356 0.22320 0.30298
 C22 C 1.29629 0.24760 0.33324
 C23 C 1.31827 0.22762 0.36804
 C24 C 1.29209 0.15769 0.34089
 C25 C 1.27043 0.30672 0.18802
 C26 C 1.29956 0.33250 0.16234
 C27 C 1.36159 0.31516 0.21070
 C28 C 1.33134 0.28942 0.23532
 N29 N 1.28644 0.28654 0.22424
 H30 H 1.25084 0.16011 0.28340
 H31 H 1.29703 0.28271 0.33041
 H32 H 1.33584 0.24737 0.39223
 H33 H 1.28899 0.12258 0.34386
 H34 H 1.23475 0.30325 0.17950
 H35 H 1.28603 0.34904 0.13413
 H36 H 1.39706 0.31810 0.22021
 H37 H 1.34386 0.27213 0.26335
 C38 C 1.17279 0.15659 0.16108
 C39 C 1.14840 0.34620 0.33177
 C40 C 1.34567 0.33726 0.17408
 C41 C 1.31618 0.18226 0.37186
 C42 C 0.68270 -0.21231 0.31374
 H43 H 0.67461 -0.24680 0.31628
 C44 C 0.65755 -0.18288 0.33687
 H45 H 0.62998 -0.19495 0.35712
 C46 C 0.72930 -0.15477 0.28531
 H47 H 0.75794 -0.14393 0.26600
 C48 C 0.70558 -0.12426 0.30860
 H49 H 0.71549 -0.09009 0.30658
 N50 N 0.71664 -0.19777 0.28722
 C51 C 0.72507 -0.30068 0.19158
 H52 H 0.76172 -0.30122 0.18943
 C53 C 0.69814 -0.32904 0.16657
 H54 H 0.71431 -0.35140 0.14520
 C55 C 0.65961 -0.27120 0.22259
 H56 H 0.64455 -0.24821 0.24383
 C57 C 0.63136 -0.29953 0.19856
 H58 H 0.59480 -0.29866 0.20187
 Zn59 Zn 0.74684 -0.23939 0.25398
 N60 N 0.70564 -0.27321 0.21965
 C61 C 0.77357 -0.32009 0.29140
 N62 N 0.77879 -0.27595 0.29264
 C63 C 0.80789 -0.25621 0.32135
 C64 C 0.83404 -0.28108 0.34962
 C65 C 0.79968 -0.34620 0.31863
 C66 C 0.77307 -0.17906 0.18921
 C67 C 0.80302 -0.15695 0.16125
 C68 C 0.86220 -0.20480 0.18470
 C69 C 0.83164 -0.22487 0.21349
 N70 N 0.78817 -0.21134 0.21562
 H71 H 0.74968 -0.33522 0.26899
 H72 H 0.81118 -0.22108 0.32182
 H73 H 0.85760 -0.26515 0.37199
 H74 H 0.79586 -0.38126 0.31677
 H75 H 0.73793 -0.16992 0.19058
 H76 H 0.79110 -0.13055 0.14111
 H77 H 0.89680 -0.21558 0.18312
 H78 H 0.84253 -0.25151 0.23378
 C79 C 0.65067 -0.32905 0.17058
 C80 C 0.66863 -0.13817 0.33379
 C81 C 0.84814 -0.16990 0.15911
 C82 C 0.83060 -0.32648 0.34787
 C83 C 0.66786 0.27704 -0.19823
 H84 H 0.64773 0.25733 -0.22041
 C85 C 0.64610 0.30218 -0.16775
 H86 H 0.60932 0.30213 -0.16732
 C87 C 0.73997 0.30113 -0.17130
 H88 H 0.77664 0.30087 -0.17325
 C89 C 0.71959 0.32609 -0.13983
 H90 H 0.74051 0.34535 -0.11770
 N91 N 0.71405 0.27804 -0.20036
 C92 C 0.71463 0.17193 -0.28779
 H93 H 0.74319 0.15633 -0.27280
 C94 C 0.68659 0.14838 -0.31647
 H95 H 0.69323 0.11456 -0.32245
 C96 C 0.67299 0.23550 -0.30088
 H97 H 0.66872 0.26981 -0.29552
 C98 C 0.64379 0.21301 -0.32937
 H99 H 0.61665 0.22984 -0.34569
 Zn100 Zn 0.74613 0.24764 -0.24297
 N101 N 0.70692 0.21453 -0.27994
 C102 C 0.77207 0.17491 -0.19231
 N103 N 0.78724 0.21212 -0.21250
 C104 C 0.83115 0.22680 -0.20806
 C105 C 0.86195 0.20328 -0.18338
 C106 C 0.80225 0.14951 -0.16861
 C107 C 0.77649 0.33103 -0.27363
 C108 C 0.80618 0.35961 -0.29574
 C109 C 0.83920 0.29804 -0.33011
 C110 C 0.80869 0.27059 -0.30755
 N111 N 0.77953 0.28734 -0.27862
 H112 H 0.73655 0.16494 -0.19464
 H113 H 0.84208 0.25740 -0.22270
 H114 H 0.89672 0.21537 -0.17960
 H115 H 0.79009 0.11970 -0.15304
 H116 H 0.75252 0.34370 -0.25108
 H117 H 0.80561 0.39417 -0.28936
 H118 H 0.86459 0.28422 -0.35059
 H119 H 0.81013 0.23570 -0.31104
 C120 C 0.65056 0.16908 -0.33740
 C121 C 0.67225 0.32761 -0.13857
 C122 C 0.83876 0.34289 -0.32319
 C123 C 0.84770 0.16399 -0.16404
 C124 C 1.18769 -0.19337 -0.24163
 H125 H 1.18439 -0.19759 -0.27620
 C126 C 1.15977 -0.16456 -0.22067
 H127 H 1.13462 -0.14694 -0.23900
 C128 C 1.22453 -0.21034 -0.17517
 H129 H 1.25069 -0.22705 -0.15758
 C130 C 1.19688 -0.18255 -0.15293
 H131 H 1.20143 -0.17885 -0.11829
 N132 N 1.21882 -0.21612 -0.21858
 C133 C 1.21430 -0.33654 -0.27138
 H134 H 1.22902 -0.34949 -0.24206
 C135 C 1.18829 -0.36410 -0.29807
 H136 H 1.18239 -0.39785 -0.28879
 C137 C 1.20395 -0.27743 -0.32004
 H138 H 1.21099 -0.24379 -0.32882
 C139 C 1.17806 -0.30400 -0.34788
 H140 H 1.16429 -0.29040 -0.37753
 Zn141 Zn 1.25607 -0.25583 -0.24668
 N142 N 1.22083 -0.29381 -0.28225
 C143 C 1.26466 -0.31027 -0.17349
 N144 N 1.28813 -0.28736 -0.20446
 C145 C 1.33433 -0.28565 -0.20480
 C146 C 1.35876 -0.30906 -0.17423
 C147 C 1.28784 -0.33376 -0.14192
 C148 C 1.30117 -0.18138 -0.27969
 C149 C 1.33024 -0.15810 -0.30729
 C150 C 1.35256 -0.22591 -0.33852
 C151 C 1.32260 -0.24797 -0.31055
 N152 N 1.29749 -0.22539 -0.28223
 H153 H 1.22790 -0.31026 -0.17345
 H154 H 1.35242 -0.26640 -0.22888
 H155 H 1.39553 -0.30818 -0.17548
 H156 H 1.26910 -0.35269 -0.11786
 H157 H 1.28119 -0.16427 -0.25659
 H158 H 1.33213 -0.12295 -0.30551
 H159 H 1.37177 -0.24381 -0.36173
 H160 H 1.31885 -0.28305 -0.31166
 C161 C 1.16977 -0.34780 -0.33651
 C162 C 1.16375 -0.15971 -0.17581
 C163 C 1.35580 -0.18053 -0.33754
 C164 C 1.33524 -0.33383 -0.14273
 C165 C 0.28878 0.17721 0.71537
 H166 H 0.27042 0.16006 0.74078
 C167 C 0.31833 0.15468 0.68943
 H168 H 0.32217 0.12017 0.69495
 C169 C 0.30608 0.24282 0.67701
 H170 H 0.30130 0.27734 0.67278
 C171 C 0.33655 0.22165 0.65073
 H172 H 0.35474 0.23959 0.62559
 N173 N 0.28391 0.22066 0.70931
 C174 C 0.17338 0.20209 0.78292
 H175 H 0.15300 0.21732 0.75810
 C176 C 0.15401 0.16888 0.80892
 H177 H 0.11892 0.15832 0.80363
 C178 C 0.24460 0.19483 0.81841
 H179 H 0.28023 0.20432 0.82112
 C180 C 0.22658 0.16178 0.84513
 H181 H 0.24854 0.14565 0.86820
 Zn182 Zn 0.24876 0.25241 0.74802
 N183 N 0.21832 0.21343 0.78724
 C184 C 0.18192 0.26416 0.68379
 N185 N 0.20747 0.28537 0.71444
 C186 C 0.20621 0.32936 0.71854
 C187 C 0.17806 0.35366 0.69148
 C188 C 0.15358 0.28727 0.65586
 C189 C 0.33423 0.29011 0.77178
 C190 C 0.36424 0.31694 0.79528
 C191 C 0.30097 0.33991 0.83773
 C192 C 0.27197 0.31299 0.81302
 N193 N 0.28888 0.28918 0.78037
 H194 H 0.18424 0.22932 0.68055
 H195 H 0.22749 0.34585 0.74230
 H196 H 0.17754 0.38860 0.69511
 H197 H 0.13358 0.27015 0.63141
 H198 H 0.34761 0.26991 0.74698
 H199 H 0.40016 0.31780 0.78793
 H200 H 0.28701 0.35896 0.86340
 H201 H 0.23595 0.31102 0.81976
 C202 C 0.18115 0.14793 0.83975
 C203 C 0.34308 0.17724 0.65707
 C204 C 0.34770 0.34208 0.82854
 C205 C 0.15151 0.33244 0.65954
 C206 C 0.77050 0.66391 0.72039
 H207 H 0.74815 0.65018 0.74483
 C208 C 0.79786 0.63635 0.69699
 H209 H 0.79684 0.60175 0.70397
 C210 C 0.79905 0.72515 0.68083
 H211 H 0.79947 0.75989 0.67490
 C212 C 0.82631 0.69858 0.65607
 H213 H 0.84783 0.71312 0.63125
 N214 N 0.77199 0.70759 0.71247
 C215 C 0.65456 0.71507 0.78885
 H216 H 0.63577 0.73385 0.76545
 C217 C 0.63124 0.69336 0.82249
 H218 H 0.59464 0.69536 0.82462
 C219 C 0.72512 0.69215 0.81720
 H220 H 0.76183 0.69263 0.81549
 C221 C 0.70321 0.66994 0.85112
 H222 H 0.72313 0.65347 0.87563
 Zn223 Zn 0.73568 0.74598 0.74479
 N224 N 0.70076 0.71400 0.78676
 C225 C 0.66321 0.75388 0.68367
 N226 N 0.69741 0.77631 0.70462
 C227 C 0.70547 0.81942 0.69620
 C228 C 0.67757 0.84191 0.66731
 C229 C 0.63416 0.77526 0.65478
 C230 C 0.81796 0.77641 0.78583
 C231 C 0.84474 0.80330 0.81303
 C232 C 0.78076 0.84952 0.82120
 C233 C 0.75466 0.82084 0.79544
 N234 N 0.77376 0.78568 0.77734
 H235 H 0.65818 0.71935 0.68972
 H236 H 0.73395 0.83647 0.71137
 H237 H 0.68457 0.87621 0.66135
 H238 H 0.60674 0.75719 0.63877
 H239 H 0.83219 0.74763 0.77229
 H240 H 0.87982 0.79566 0.81959
 H241 H 0.76551 0.87796 0.83451
 H242 H 0.71905 0.82673 0.78973
 C243 C 0.65588 0.67073 0.85402
 C244 C 0.82601 0.65356 0.66438
 C245 C 0.82606 0.84049 0.83070
 C246 C 0.64107 0.81981 0.64647
 C247 C 0.79105 0.19817 0.16313
 H248 H 0.76240 0.21237 0.14688
 C249 C 0.82017 0.17286 0.13943
 H250 H 0.81416 0.16858 0.10504
 C251 C 0.83251 0.18435 0.22780
 H252 H 0.83694 0.18870 0.26229
 C253 C 0.86188 0.15791 0.20541
 H254 H 0.88914 0.14213 0.22262
 N255 N 0.79805 0.20414 0.20640
 C256 C 0.69168 0.22023 0.30134
 H257 H 0.69073 0.25528 0.30340
 C258 C 0.66404 0.19403 0.32810
 H259 H 0.64182 0.20908 0.35087
 C260 C 0.72251 0.15790 0.26965
 H261 H 0.74522 0.14395 0.24670
 C262 C 0.69603 0.13053 0.29634
 H263 H 0.69854 0.09558 0.29411
 Zn264 Zn 0.75720 0.23863 0.23750
 N265 N 0.71990 0.20187 0.27262
 C266 C 0.67503 0.26998 0.20077
 N267 N 0.72112 0.27004 0.19737
 C268 C 0.74304 0.29388 0.16605
 C269 C 0.71872 0.31998 0.13754
 C270 C 0.64948 0.29640 0.17343
 C271 C 0.80789 0.26429 0.31209
 C272 C 0.82964 0.29348 0.34069
 C273 C 0.81288 0.35206 0.29101
 C274 C 0.79096 0.32201 0.26375
 N275 N 0.78929 0.27886 0.27425
 H276 H 0.65804 0.25039 0.22530
 H277 H 0.77969 0.29331 0.16390
 H278 H 0.73655 0.33964 0.11341
 H279 H 0.61299 0.29715 0.17731
 H280 H 0.80521 0.23006 0.32043
 H281 H 0.84445 0.28143 0.37056
 H282 H 0.81449 0.38620 0.28200
 H283 H 0.77522 0.33356 0.23435
 C284 C 0.66630 0.14857 0.32569
 C285 C 0.85609 0.15246 0.16072
 C286 C 0.83229 0.33797 0.32991
 C287 C 0.67171 0.32219 0.14183
 C288 C 0.28534 0.68140 0.19525
 H289 H 0.24919 0.67751 0.18910
 C290 C 0.31553 0.65563 0.17333
 H291 H 0.30237 0.63216 0.15011
 C292 C 0.34642 0.71611 0.23340
 H293 H 0.35842 0.73962 0.25699
 C294 C 0.37776 0.69027 0.21285
 H295 H 0.41369 0.69425 0.22027
 N296 N 0.30120 0.71192 0.22368
 C297 C 0.19072 0.73789 0.31354
 H298 H 0.19073 0.77299 0.31292
 C299 C 0.16069 0.71476 0.34080
 H300 H 0.13749 0.73214 0.36080
 C301 C 0.22115 0.67220 0.28929
 H302 H 0.24507 0.65551 0.26969
 C303 C 0.19101 0.64779 0.31545
 H304 H 0.19196 0.61263 0.31555
 Zn305 Zn 0.25971 0.74941 0.25036
 N306 N 0.22017 0.71649 0.28827
 C307 C 0.19976 0.81352 0.22202
 N308 N 0.22450 0.77994 0.20776
 C309 C 0.22548 0.77038 0.16473
 C310 C 0.19967 0.79376 0.13471
 C311 C 0.17420 0.83826 0.19297
 C312 C 0.29429 0.79516 0.32518
 C313 C 0.31825 0.82950 0.34548
 C314 C 0.34249 0.85581 0.27502
 C315 C 0.31801 0.82130 0.25611
 N316 N 0.29406 0.79221 0.28117
 H317 H 0.20050 0.82174 0.25597
 H318 H 0.24643 0.74497 0.15321
 H319 H 0.20030 0.78549 0.10070
 H320 H 0.15471 0.86472 0.20505
 H321 H 0.27533 0.77146 0.34447
 H322 H 0.31705 0.83267 0.38039
 H323 H 0.36019 0.87960 0.25463
 H324 H 0.31719 0.81810 0.22123
 C325 C 0.16024 0.66928 0.34149
 C326 C 0.36244 0.66050 0.18169
 C327 C 0.34217 0.86032 0.32003
 C328 C 0.17384 0.82816 0.14870
 N329 N 0.95773 0.03256 -0.08880
 N330 N 0.92532 0.03761 -0.11819
 N331 N 1.05684 0.06551 -0.06657
 N332 N 1.09347 0.08979 -0.07614
 N333 N 1.05352 0.03144 -0.09193
 N334 N 1.08806 0.03105 -0.11876
 N335 N 0.96163 0.06681 -0.06380
 N336 N 0.93252 0.09644 -0.07582
 C337 C 0.90979 0.07735 -0.10921
 C338 C 1.11195 0.06797 -0.10925
 N339 N 1.06098 0.05046 0.06049
 N340 N 1.08794 0.06596 0.09156
 N341 N 0.96529 0.07772 0.02876
 N342 N 0.93691 0.10944 0.03490
 N343 N 0.96579 0.05131 0.06255
 N344 N 0.93831 0.06464 0.09286
 N345 N 1.06049 0.07759 0.02717
 N346 N 1.08650 0.11249 0.03529
 Mn347 Mn 1.01119 0.07225 -0.01874
 C348 C 1.10430 0.10406 0.07489
 C349 C 0.92017 0.10039 0.07474
 N350 N 1.04948 -0.06131 -0.08035
 N351 N 1.07770 -0.07381 -0.11037
 N352 N 0.95588 -0.08823 -0.04430
 N353 N 0.92803 -0.12216 -0.05126
 N354 N 0.95421 -0.06069 -0.07717
 N355 N 0.92478 -0.07484 -0.10689
 N356 N 1.05123 -0.08709 -0.04618
 N357 N 1.08095 -0.11767 -0.05174
 Mn358 Mn 1.00359 -0.01442 -0.08489
 C359 C 1.09732 -0.10848 -0.09162
 C360 C 0.90815 -0.11270 -0.08982
 N361 N 0.96166 -0.04205 0.07400
 N362 N 0.93152 -0.04661 0.10526
 N363 N 1.05554 -0.07653 0.04672
 N364 N 1.08303 -0.10688 0.06092
 N365 N 1.05728 -0.04289 0.07271
 N366 N 1.08586 -0.04949 0.10521
 N367 N 0.96037 -0.07639 0.04892
 N368 N 0.92997 -0.10562 0.06285
 Mn369 Mn 1.01139 0.00418 0.06767
 Mn370 Mn 1.00581 -0.08237 0.00134
 Cl371 Cl 1.00804 -0.00509 -0.00860
 C372 C 0.91190 -0.08610 0.09743
 C373 C 1.10222 -0.08901 0.09690
 N374 N 0.94192 0.53963 0.41978
 N375 N 0.91125 0.54568 0.38886
 N376 N 1.03967 0.57324 0.44262
 N377 N 1.06991 0.60268 0.42870
 N378 N 1.03781 0.53936 0.41697
 N379 N 1.06717 0.54471 0.38500
 N380 N 0.94463 0.57341 0.44556
 N381 N 0.91626 0.60341 0.43279
 C382 C 0.89524 0.58526 0.39798
 C383 C 1.08714 0.58408 0.39321
 N384 N 1.04473 0.55776 0.56845
 N385 N 1.07564 0.57058 0.59715
 N386 N 0.94891 0.58523 0.53816
 N387 N 0.92097 0.61730 0.54440
 N388 N 0.94912 0.55872 0.57184
 N389 N 0.92101 0.57187 0.60185
 N390 N 1.04417 0.58465 0.53510
 N391 N 1.07463 0.61674 0.54031
 Mn392 Mn 0.99433 0.57938 0.49030
 C393 C 1.09439 0.60684 0.57873
 C394 C 0.90336 0.60805 0.58385
 N395 N 1.03439 0.44569 0.42924
 N396 N 1.06090 0.43147 0.39845
 N397 N 0.93924 0.41956 0.46602
 N398 N 0.91224 0.38509 0.45903
 N399 N 0.93909 0.44596 0.43208
 N400 N 0.91181 0.43011 0.40147
 N401 N 1.03439 0.41905 0.46291
 N402 N 1.06078 0.38594 0.45576
 Mn403 Mn 0.98829 0.49267 0.42421
 C404 C 1.07758 0.39465 0.41587
 C405 C 0.89467 0.39276 0.41918
 N406 N 0.94649 0.46565 0.58484
 N407 N 0.92758 0.45712 0.62262
 N408 N 1.03906 0.43080 0.55607
 N409 N 1.06630 0.40031 0.57025
 N410 N 1.04181 0.46493 0.58138
 N411 N 1.07134 0.45873 0.61322
 N412 N 0.94405 0.43092 0.56016
 N413 N 0.92363 0.39823 0.58146
 Mn414 Mn 0.99555 0.51185 0.57669
 Mn415 Mn 0.98909 0.42492 0.51125
 Cl416 Cl 0.99167 0.50206 0.50060
 C417 C 0.91201 0.41566 0.61977
 C418 C 1.08670 0.41869 0.60534
 N419 N 0.41746 0.04620 0.55258
 N420 N 0.38664 0.05310 0.58213
 N421 N 0.44003 0.08681 0.46219
 N422 N 0.42396 0.12416 0.44833
 N423 N 0.40730 0.05657 0.46256
 N424 N 0.36879 0.07314 0.44888
 N425 N 0.44865 0.07776 0.55203
 N426 N 0.43889 0.10784 0.58055
 C427 C 0.40086 0.09104 0.59969
 C428 C 0.37997 0.11479 0.43848
 N429 N 0.56764 0.05472 0.44807
 N430 N 0.59707 0.06647 0.41775
 N431 N 0.54676 0.07674 0.54373
 N432 N 0.56024 0.10417 0.57422
 N433 N 0.57678 0.04654 0.53858
 N434 N 0.61134 0.05230 0.56578
 N435 N 0.53799 0.08527 0.45361
 N436 N 0.54652 0.11862 0.42732
 Mn437 Mn 0.49357 0.08184 0.50290
 C438 C 0.58285 0.10599 0.40484
 C439 C 0.60013 0.08800 0.58790
 N440 N 0.40441 -0.03663 0.45387
 N441 N 0.37702 -0.03366 0.42003
 N442 N 0.44233 -0.07658 0.53947
 N443 N 0.43489 -0.10815 0.56815
 N444 N 0.41332 -0.04557 0.54432
 N445 N 0.38577 -0.05451 0.57676
 N446 N 0.43315 -0.06797 0.44888
 N447 N 0.42554 -0.08764 0.41140
 Mn448 Mn 0.41053 0.00490 0.50325
 C449 C 0.38972 -0.06632 0.39454
 C450 C 0.39989 -0.09324 0.59129
 N451 N 0.57261 -0.04675 0.53147
 N452 N 0.60611 -0.05654 0.55815
 N453 N 0.53067 -0.06929 0.44146
 N454 N 0.53871 -0.10076 0.41421
 N455 N 0.56397 -0.03965 0.44098
 N456 N 0.59571 -0.05068 0.41346
 N457 N 0.54047 -0.07749 0.53183
 N458 N 0.55163 -0.10947 0.55868
 Mn459 Mn 0.57061 0.00379 0.48963
 Mn460 Mn 0.48654 -0.07331 0.49045
 Cl461 Cl 0.49039 0.00438 0.49638
 C462 C 0.59249 -0.09540 0.57498
 C463 C 0.57863 -0.08823 0.39639
 N464 N 0.59004 0.53603 0.05302
 N465 N 0.62392 0.56408 0.06076
 N466 N 0.54570 0.44828 0.08163
 N467 N 0.55015 0.41789 0.11179
 N468 N 0.57751 0.44547 0.05221
 N469 N 0.60480 0.41352 0.06184
 N470 N 0.55784 0.53951 0.08190
 N471 N 0.56880 0.57030 0.11003
 C472 C 0.60990 0.58529 0.09599
 C473 C 0.58668 0.39632 0.09855
 N474 N 0.41804 0.46058 0.04839
 N475 N 0.38286 0.43386 0.05555
 N476 N 0.45989 0.54835 0.08005
 N477 N 0.44945 0.57456 0.11200
 N478 N 0.43009 0.55135 0.04820
 N479 N 0.39900 0.57955 0.05736
 N480 N 0.44858 0.45725 0.07948
 N481 N 0.43512 0.42806 0.10875
 Mn482 Mn 0.50313 0.49840 0.08127
 C483 C 0.39440 0.41356 0.09287
 C484 C 0.41201 0.59436 0.09656
 N485 N 0.57991 0.44673 -0.04186
 N486 N 0.60795 0.41558 -0.05161
 N487 N 0.56150 0.54137 -0.07132
 N488 N 0.56807 0.57839 -0.09299
 N489 N 0.59181 0.53804 -0.04000
 N490 N 0.61932 0.57278 -0.03923
 N491 N 0.54820 0.44999 -0.07188
 N492 N 0.55308 0.42087 -0.10234
 Mn493 Mn 0.58529 0.49138 0.00583
 C494 C 0.58996 0.39943 -0.08899
 C495 C 0.60510 0.59685 -0.07327
 N496 N 0.43234 0.55221 -0.04465
 N497 N 0.40409 0.58305 -0.05526
 N498 N 0.45135 0.45918 -0.07421
 N499 N 0.43812 0.43108 -0.10430
 N500 N 0.42007 0.46178 -0.04438
 N501 N 0.38474 0.43587 -0.05312
 N502 N 0.46473 0.55005 -0.07344
 N503 N 0.45985 0.57964 -0.10416
 Mn504 Mn 0.42492 0.50649 0.00187
 Mn505 Mn 0.50653 0.50011 -0.07315
 Cl506 Cl 0.50499 0.49906 0.00403
 C507 C 0.42247 0.60024 -0.09184
 C508 C 0.39681 0.41669 -0.09007
 N509 N 1.15149 0.12483 0.13338
 N510 N 1.12877 0.13593 0.10002
 N511 N 1.14094 0.62419 0.63790
 N512 N 1.12558 0.63531 0.60091
 N513 N 0.62139 0.14675 0.63220
 N514 N 0.62962 0.10891 0.61871
 N515 N 0.62191 0.64032 0.14775
 N516 N 0.63740 0.61745 0.11753
 N517 N 0.88004 -0.14804 0.13123
 N518 N 0.88008 -0.10701 0.12586
 N519 N 0.87199 0.36674 0.66547
 N520 N 0.90580 0.39015 0.65818
 N521 N 0.38218 -0.15754 0.63053
 N522 N 0.37635 -0.11729 0.62397
 N523 N 0.37636 0.36542 0.15034
 N524 N 0.36440 0.38393 0.11519
 N525 N 0.87957 0.14028 -0.13877
 N526 N 0.87744 0.09902 -0.13560
 N527 N 0.85963 0.64854 0.37526
 N528 N 0.86483 0.60800 0.37023
 N529 N 0.33232 0.16421 0.40492
 N530 N 0.34681 0.14750 0.43849
 N531 N 0.35866 0.63842 -0.11345
 N532 N 0.40007 0.63004 -0.11934
 N533 N 1.13329 -0.13242 -0.15391
 N534 N 1.12801 -0.13543 -0.11315
 N535 N 1.12176 0.37552 0.35609
 N536 N 1.10512 0.36530 0.39289
 N537 N 0.64336 -0.10693 0.35675
 N538 N 0.60395 -0.11696 0.37088
 N539 N 0.65168 0.35727 -0.10975
 N540 N 0.61073 0.36812 -0.11542
 N541 N 1.16729 0.11315 -0.14237
 N542 N 1.15590 0.07746 -0.12673
 N543 N 1.12841 0.64603 0.36881
 N544 N 1.11924 0.60548 0.36503
 N545 N 0.64008 0.12032 0.35367
 N546 N 0.60702 0.13396 0.37535
 N547 N 0.63656 0.65515 -0.11293
 N548 N 0.61922 0.64131 -0.07912
 N549 N 0.85307 -0.12973 -0.14350
 N550 N 0.87910 -0.14274 -0.11314
 N551 N 0.85579 0.36929 0.35670
 N552 N 0.86892 0.36088 0.39519
 N553 N 0.35888 -0.10564 0.33658
 N554 N 0.37349 -0.07076 0.35114
 N555 N 0.37880 0.36964 -0.14771
 N556 N 0.36673 0.38811 -0.11329
 N557 N 1.14711 -0.14823 0.11778
 N558 N 1.13072 -0.11164 0.12674
 N559 N 1.12249 0.35582 0.63054
 N560 N 1.11629 0.39636 0.63433
 N561 N 0.61160 -0.15824 0.61644
 N562 N 0.62011 -0.11896 0.60493
 N563 N 0.64800 0.35274 0.11558
 N564 N 0.60801 0.36407 0.12435
 N565 N 0.88643 0.12570 0.13779
 N566 N 0.89027 0.12800 0.09679
 N567 N 0.85451 0.62498 0.64111
 N568 N 0.87361 0.63628 0.60571
 N569 N 0.37334 0.15527 0.62936
 N570 N 0.37304 0.11399 0.62843
 N571 N 0.39447 0.63594 0.15828
 N572 N 0.38345 0.62084 0.12135
   
