data_POSCAR
  _audit_creation_date              2014-09-24
  _audit_creation_method            'ToBaCCo'
  _symmetry_space_group_name_H-M    'P1'
  _symmetry_Int_Tables_number       1
  _symmetry_cell_setting            triclinic
  loop_
  _symmetry_equiv_pos_as_xyz
 x,y,z
_cell_length_a 44.6877
_cell_length_b 32.3106
_cell_length_c 6.9563
_cell_angle_alpha 90.540900
_cell_angle_beta 90.138700
_cell_angle_gamma 90.233400
loop_
  _atom_site_label
  _atom_site_type_symbol
  _atom_site_fract_x
  _atom_site_fract_y
  _atom_site_fract_z
C1 C 0.22328 0.22433 0.18954
 C2 C 0.22444 0.26808 0.20748
 C3 C 0.25200 0.28796 0.23412
 C4 C 0.27876 0.26573 0.24152
 C5 C 0.27823 0.22203 0.21848
 C6 C 0.25035 0.20208 0.19385
 H7 H 0.24966 0.16864 0.17877
 H8 H 0.25262 0.32141 0.24963
 C9 C 0.78040 0.26694 0.26070
 C10 C 0.77800 0.22438 0.20807
 C11 C 0.74977 0.20552 0.19625
 C12 C 0.72363 0.22767 0.23439
 C13 C 0.72569 0.26993 0.28630
 C14 C 0.75397 0.28871 0.30543
 H15 H 0.75506 0.32150 0.33935
 H16 H 0.74820 0.17276 0.16178
 C17 C 0.72233 0.72830 0.79121
 C18 C 0.72394 0.77006 0.73402
 C19 C 0.75201 0.78879 0.70866
 C20 C 0.77876 0.76764 0.75014
 C21 C 0.77689 0.72583 0.81163
 C22 C 0.74877 0.70693 0.83120
 H23 H 0.74752 0.67451 0.86966
 H24 H 0.75280 0.82116 0.66908
 C25 C 0.27739 0.76810 0.70127
 C26 C 0.27870 0.72614 0.75622
 C27 C 0.25203 0.70474 0.79540
 C28 C 0.22390 0.72334 0.76699
 C29 C 0.22283 0.76542 0.70990
 C30 C 0.24954 0.78710 0.67873
 H31 H 0.24869 0.81963 0.64194
 H32 H 0.25318 0.67222 0.83198
 O33 O 1.03051 -0.04980 0.00211
 O34 O 0.97086 0.02327 0.13368
 O35 O 0.97274 -0.05176 0.00145
 O36 O 1.03006 0.02494 0.13669
 O37 O 1.02866 0.04740 -0.16134
 O38 O 0.97259 -0.03147 -0.30009
 O39 O 0.97024 0.04288 -0.16914
 O40 O 1.03138 -0.02790 -0.29672
 Cu41 Cu 1.00112 -0.01572 0.09736
 Cu42 Cu 1.00084 0.01048 -0.26041
 C43 C 1.04129 -0.05149 -0.16615
 C44 C 0.95963 0.04470 -0.00055
 C45 C 0.96274 -0.05497 -0.16874
 C46 C 1.03936 0.04934 0.00760
 O47 O 0.47242 0.46784 0.32877
 O48 O 0.53033 0.54329 0.47141
 O49 O 0.53124 0.46842 0.33677
 O50 O 0.47258 0.54288 0.46119
 O51 O 0.47073 0.52237 0.76203
 O52 O 0.53046 0.44799 0.63839
 O53 O 0.52950 0.52257 0.77209
 O54 O 0.47137 0.44718 0.62976
 Cu55 Cu 0.50172 0.50800 0.37101
 Cu56 Cu 0.50038 0.48216 0.72899
 C57 C 0.46150 0.44505 0.45891
 C58 C 0.53996 0.54602 0.64272
 C59 C 0.54149 0.44607 0.47064
 C60 C 0.46149 0.54570 0.62825
 O61 O -0.02877 0.54517 0.15531
 O62 O 0.03138 0.47213 0.27450
 O63 O 0.03040 0.54691 0.14826
 O64 O -0.02753 0.47011 0.27721
 O65 O -0.02660 0.44935 -0.02512
 O66 O 0.02882 0.52814 -0.15714
 O67 O 0.03155 0.45397 -0.03197
 O68 O -0.03005 0.52480 -0.14804
 Cu69 Cu 0.00135 0.51141 0.24243
 Cu70 Cu 0.00076 0.48656 -0.11926
 C71 C -0.04032 0.54678 -0.01102
 C72 C 0.04234 0.45120 0.13616
 C73 C 0.04000 0.55009 -0.02255
 C74 C -0.03690 0.44620 0.14372
 O75 O 0.47148 1.04349 0.50679
 O76 O 0.53005 0.96962 0.64199
 O77 O 0.52945 1.04456 0.51219
 O78 O 0.47100 0.96844 0.63407
 O79 O 0.47242 0.94715 0.33204
 O80 O 0.53049 1.02332 0.21035
 O81 O 0.53140 0.94868 0.33959
 O82 O 0.47176 1.02158 0.20588
 Cu83 Cu 0.50045 1.00892 0.60276
 Cu84 Cu 0.50166 0.98234 0.24347
 C85 C 0.46134 1.04515 0.33666
 C86 C 0.54130 0.94710 0.51040
 C87 C 0.54004 1.04712 0.34363
 C88 C 0.46109 0.94549 0.49865
 C89 C 1.14182 0.15747 0.12023
 C90 C 1.16301 0.14550 0.26020
 C91 C 1.19014 0.16729 0.27934
 C92 C 1.19605 0.20242 0.16733
 C93 C 1.17457 0.21465 0.03169
 C94 C 1.14793 0.19255 0.00793
 C95 C 1.11396 0.13190 0.09634
 C96 C 1.09297 0.13885 -0.05108
 C97 C 1.06830 0.11275 -0.07475
 C98 C 1.06361 0.07934 0.04900
 C99 C 1.08381 0.07287 0.20037
 C100 C 1.10921 0.09834 0.22247
 C101 C 1.15694 0.11208 0.38116
 C102 C 1.13042 0.08939 0.36454
 H103 H 1.17295 0.10329 0.49055
 H104 H 1.12684 0.06373 0.46118
 H105 H 1.20623 0.15778 0.38707
 H106 H 1.17888 0.24030 -0.06326
 H107 H 1.05307 0.11836 -0.19295
 H108 H 1.08061 0.04673 0.29494
 H109 H 1.13254 0.20346 -0.09969
 H110 H 1.09555 0.16347 -0.15323
 C111 C 0.64100 0.65630 0.77243
 C112 C 0.64976 0.68073 0.61392
 C113 C 0.67594 0.70457 0.62352
 C114 C 0.69369 0.70499 0.78962
 C115 C 0.68491 0.68141 0.94803
 C116 C 0.65884 0.65735 0.94007
 C117 C 0.61369 0.62941 0.75123
 C118 C 0.60330 0.60295 0.89731
 C119 C 0.57878 0.57667 0.86500
 C120 C 0.56408 0.57618 0.68661
 C121 C 0.57360 0.60352 0.54339
 C122 C 0.59816 0.62980 0.57367
 C123 C 0.63279 0.68061 0.44475
 C124 C 0.60754 0.65567 0.42499
 H125 H 0.63940 0.69965 0.32446
 H126 H 0.59543 0.65618 0.28982
 H127 H 0.68302 0.72208 0.49923
 H128 H 0.69839 0.68141 1.07767
 H129 H 0.57179 0.55602 0.97828
 H130 H 0.56232 0.60374 0.40518
 H131 H 0.65331 0.63946 1.06522
 H132 H 0.61408 0.60152 1.03594
 C133 C -0.13807 0.33483 0.22200
 C134 C -0.15717 0.34079 0.38165
 C135 C -0.18416 0.31834 0.39428
 C136 C -0.19211 0.28883 0.25235
 C137 C -0.17279 0.28310 0.09526
 C138 C -0.14628 0.30554 0.08017
 C139 C -0.11036 0.36089 0.20764
 C140 C -0.09085 0.35837 0.04959
 C141 C -0.06652 0.38509 0.03507
 C142 C -0.06067 0.41506 0.17769
 C143 C -0.07913 0.41671 0.34079
 C144 C -0.10408 0.39009 0.35575
 C145 C -0.14930 0.36933 0.52652
 C146 C -0.12329 0.39333 0.51421
 H147 H -0.16366 0.37354 0.65048
 H148 H -0.11845 0.41533 0.62881
 H149 H -0.19863 0.32312 0.51739
 H150 H -0.17881 0.26262 -0.02273
 H151 H -0.05257 0.38278 -0.09170
 H152 H -0.07486 0.43980 0.45174
 H153 H -0.13291 0.29980 -0.04586
 H154 H -0.09420 0.33669 -0.06718
 C155 C 0.35597 0.84217 0.59833
 C156 C 0.35221 0.82228 0.77720
 C157 C 0.32674 0.79763 0.80961
 C158 C 0.30472 0.79306 0.66677
 C159 C 0.30838 0.81297 0.49065
 C160 C 0.33367 0.83707 0.45605
 C161 C 0.38330 0.86837 0.56937
 C162 C 0.38950 0.88797 0.39417
 C163 C 0.41508 0.91212 0.37328
 C164 C 0.43494 0.91827 0.52717
 C165 C 0.42911 0.89911 0.70333
 C166 C 0.40371 0.87352 0.72413
 C167 C 0.37364 0.82759 0.92292
 C168 C 0.39871 0.85289 0.89740
 H169 H 0.37083 0.81229 1.05973
 H170 H 0.41454 0.85617 1.01485
 H171 H 0.32374 0.78254 0.94687
 H172 H 0.29160 0.80962 0.37881
 H173 H 0.41901 0.92688 0.23629
 H174 H 0.44452 0.90357 0.82247
 H175 H 0.33506 0.85167 0.31772
 H176 H 0.37498 0.88512 0.27094
 C177 C -0.14579 0.64898 -0.09977
 C178 C -0.14994 0.66914 -0.27765
 C179 C -0.17513 0.69430 -0.30618
 C180 C -0.19633 0.69958 -0.15951
 C181 C -0.19235 0.67928 0.01539
 C182 C -0.16743 0.65439 0.04558
 C183 C -0.11864 0.62249 -0.07452
 C184 C -0.11213 0.60242 0.09911
 C185 C -0.08650 0.57851 0.11742
 C186 C -0.06691 0.57303 -0.03769
 C187 C -0.07319 0.59238 -0.21278
 C188 C -0.09864 0.61770 -0.23097
 C189 C -0.12904 0.66386 -0.42575
 C190 C -0.10403 0.63855 -0.40319
 H191 H -0.13212 0.67941 -0.56171
 H192 H -0.08855 0.63549 -0.52200
 H193 H -0.17841 0.70958 -0.44272
 H194 H -0.20853 0.68305 0.12994
 H195 H -0.08223 0.56359 0.25362
 H196 H -0.05802 0.58842 -0.33290
 H197 H -0.16574 0.63963 0.18338
 H198 H -0.12640 0.60480 0.22320
 C199 C 0.35725 1.14925 0.23186
 C200 C 0.35186 1.17949 0.37613
 C201 C 0.32600 1.20385 0.36907
 C202 C 0.30454 1.19792 0.22334
 C203 C 0.30927 1.16642 0.08594
 C204 C 0.33544 1.14288 0.08801
 C205 C 0.38527 1.12397 0.24484
 C206 C 0.39390 1.09496 0.10260
 C207 C 0.41926 1.07031 0.12835
 C208 C 0.43656 1.07406 0.29614
 C209 C 0.42896 1.10434 0.43344
 C210 C 0.40375 1.12934 0.40868
 C211 C 0.37177 1.18439 0.53043
 C212 C 0.39688 1.15936 0.54808
 H213 H 0.36749 1.20729 0.64183
 H214 H 0.41118 1.16363 0.67288
 H215 H 0.32185 1.22597 0.48387
 H216 H 0.29313 1.16085 -0.02798
 H217 H 0.42484 1.04748 0.01929
 H218 H 0.44247 1.10811 0.56217
 H219 H 0.33793 1.11948 -0.02235
 H220 H 0.38126 1.09063 -0.02843
 C221 C 1.14272 -0.16083 -0.27826
 C222 C 1.15090 -0.18525 -0.11843
 C223 C 1.17671 -0.20962 -0.12538
 C224 C 1.19462 -0.21053 -0.29014
 C225 C 1.18646 -0.18684 -0.44949
 C226 C 1.16078 -0.16230 -0.44419
 C227 C 1.11565 -0.13371 -0.26073
 C228 C 1.10577 -0.10737 -0.40870
 C229 C 1.08120 -0.08127 -0.38065
 C230 C 1.06595 -0.08083 -0.20472
 C231 C 1.07514 -0.10780 -0.05915
 C232 C 1.09971 -0.13391 -0.08520
 C233 C 1.13367 -0.18471 0.04908
 C234 C 1.10862 -0.15958 0.06538
 H235 H 1.13985 -0.20367 0.17052
 H236 H 1.09622 -0.15988 0.19914
 H237 H 1.18330 -0.22733 -0.00060
 H238 H 1.20012 -0.18721 -0.57796
 H239 H 1.07450 -0.06088 -0.49557
 H240 H 1.06347 -0.10802 0.07737
 H241 H 1.15570 -0.14443 -0.57018
 H242 H 1.11692 -0.10601 -0.54580
 C243 C 0.64586 0.34322 0.34348
 C244 C 0.66639 0.34026 0.49849
 C245 C 0.69264 0.31692 0.47794
 C246 C 0.69853 0.29571 0.30596
 C247 C 0.67818 0.29836 0.15300
 C248 C 0.65211 0.32167 0.17127
 C249 C 0.61831 0.36901 0.37045
 C250 C 0.59741 0.37618 0.22194
 C251 C 0.57247 0.40131 0.25374
 C252 C 0.56733 0.41881 0.43549
 C253 C 0.58780 0.41160 0.58455
 C254 C 0.61344 0.38768 0.55253
 C255 C 0.66048 0.36026 0.67352
 C256 C 0.63446 0.38314 0.70050
 H257 H 0.67617 0.35802 0.79199
 H258 H 0.63097 0.39807 0.83870
 H259 H 0.70826 0.31450 0.59688
 H260 H 0.68249 0.28219 0.01877
 H261 H 0.55701 0.40673 0.13653
 H262 H 0.58423 0.42576 0.72463
 H263 H 0.63713 0.32213 0.04968
 H264 H 0.60002 0.36310 0.07995
 C265 C 0.85995 -0.16327 -0.26313
 C266 C 0.85353 -0.18989 -0.10784
 C267 C 0.82715 -0.21343 -0.10752
 C268 C 0.80619 -0.21044 -0.25770
 C269 C 0.81233 -0.18323 -0.40952
 C270 C 0.83897 -0.16047 -0.41395
 C271 C 0.88799 -0.13758 -0.25405
 C272 C 0.89699 -0.11070 -0.40226
 C273 C 0.92202 -0.08491 -0.37883
 C274 C 0.93867 -0.08552 -0.20778
 C275 C 0.93084 -0.11391 -0.06469
 C276 C 0.90582 -0.13972 -0.08614
 C277 C 0.87288 -0.19176 0.05034
 C278 C 0.89829 -0.16689 0.06189
 H279 H 0.86788 -0.21201 0.16957
 H280 H 0.91211 -0.16864 0.18986
 H281 H 0.82211 -0.23219 0.01675
 H282 H 0.79676 -0.18023 -0.52817
 H283 H 0.92778 -0.06358 -0.49225
 H284 H 0.94381 -0.11522 0.06712
 H285 H 0.84243 -0.14033 -0.53473
 H286 H 0.88475 -0.10863 -0.53565
 C287 C 0.35922 0.33801 0.31109
 C288 C 0.33817 0.33476 0.46239
 C289 C 0.31200 0.31137 0.43679
 C290 C 0.30675 0.28986 0.26460
 C291 C 0.32783 0.29188 0.11630
 C292 C 0.35382 0.31575 0.13880
 C293 C 0.38630 0.36490 0.34245
 C294 C 0.40733 0.37349 0.19675
 C295 C 0.43175 0.39973 0.23310
 C296 C 0.43617 0.41697 0.41662
 C297 C 0.41550 0.40842 0.56234
 C298 C 0.39041 0.38347 0.52585
 C299 C 0.34337 0.35462 0.63890
 C300 C 0.36913 0.37799 0.67080
 H301 H 0.32732 0.35188 0.75476
 H302 H 0.37210 0.39275 0.81010
 H303 H 0.29576 0.30928 0.55204
 H304 H 0.32401 0.27523 -0.01752
 H305 H 0.44737 0.40620 0.11826
 H306 H 0.41845 0.42237 0.70365
 H307 H 0.36939 0.31624 0.02062
 H308 H 0.40510 0.36073 0.05362
 C309 C 0.14450 0.65231 -0.16561
 C310 C 0.16687 0.65267 -0.02105
 C311 C 0.19366 0.67463 -0.04867
 C312 C 0.19768 0.69928 -0.21194
 C313 C 0.17489 0.70007 -0.35175
 C314 C 0.14885 0.67656 -0.33036
 C315 C 0.11681 0.62690 -0.13414
 C316 C 0.09505 0.61988 -0.27841
 C317 C 0.06992 0.59520 -0.24239
 C318 C 0.06556 0.57787 -0.06066
 C319 C 0.08703 0.58478 0.08377
 C320 C 0.11290 0.60805 0.04692
 C321 C 0.16198 0.63223 0.15278
 C322 C 0.13527 0.61126 0.18782
 H323 H 0.17884 0.63313 0.26510
 H324 H 0.13240 0.59646 0.32577
 H325 H 0.21068 0.67456 0.06286
 H326 H 0.17756 0.71808 -0.48125
 H327 H 0.05384 0.58970 -0.35669
 H328 H 0.08423 0.57045 0.22306
 H329 H 0.13223 0.67834 -0.44265
 H330 H 0.09739 0.63235 -0.42093
 C331 C 0.64164 1.15710 0.23863
 C332 C 0.65021 1.18145 0.40033
 C333 C 0.67654 1.20512 0.39561
 C334 C 0.69470 1.20505 0.23189
 C335 C 0.68606 1.18159 0.07052
 C336 C 0.65981 1.15796 0.07318
 C337 C 0.61420 1.13040 0.25408
 C338 C 0.60398 1.10423 0.10384
 C339 C 0.57935 1.07806 0.13040
 C340 C 0.56431 1.07735 0.30705
 C341 C 0.57365 1.10442 0.45468
 C342 C 0.59835 1.13066 0.43001
 C343 C 0.63292 1.18127 0.56769
 C344 C 0.60757 1.15637 0.58235
 H345 H 0.63937 1.20018 0.69065
 H346 H 0.59523 1.15681 0.71633
 H347 H 0.68344 1.22274 0.52175
 H348 H 0.69983 1.18132 -0.05745
 H349 H 0.57252 1.05765 0.01375
 H350 H 0.56212 1.10444 0.59170
 H351 H 0.65446 1.14016 -0.05428
 H352 H 0.61497 1.10293 -0.03388
 C353 C 0.14626 0.34528 0.20907
 C354 C 0.16590 0.34441 0.04927
 C355 C 0.19158 0.31976 0.05284
 C356 C 0.19742 0.29426 0.20947
 C357 C 0.17782 0.29415 0.36626
 C358 C 0.15255 0.31960 0.36703
 C359 C 0.11937 0.37292 0.20010
 C360 C 0.09951 0.37888 0.35570
 C361 C 0.07465 0.40492 0.33797
 C362 C 0.06876 0.42467 0.16356
 C363 C 0.08860 0.41936 0.00962
 C364 C 0.11394 0.39446 0.02734
 C365 C 0.15961 0.36752 -0.11483
 C366 C 0.13396 0.39154 -0.12658
 H367 H 0.17454 0.36653 -0.23741
 H368 H 0.12992 0.40855 -0.25762
 H369 H 0.20674 0.31942 -0.06879
 H370 H 0.18222 0.27452 0.48844
 H371 H 0.05973 0.40897 0.45914
 H372 H 0.08456 0.43536 -0.12437
 H373 H 0.13811 0.31839 0.49088
 H374 H 0.10289 0.36392 0.49194
 C375 C 0.64435 0.84327 0.66034
 C376 C 0.66546 0.83939 0.50955
 C377 C 0.69148 0.81588 0.53545
 C378 C 0.69661 0.79534 0.70861
 C379 C 0.67555 0.79861 0.85699
 C380 C 0.64968 0.82213 0.83335
 C381 C 0.61719 0.86952 0.62797
 C382 C 0.59588 0.87798 0.77258
 C383 C 0.57127 0.90334 0.73537
 C384 C 0.56691 0.91989 0.55207
 C385 C 0.58789 0.91154 0.40725
 C386 C 0.61317 0.88736 0.44468
 C387 C 0.66042 0.85869 0.33327
 C388 C 0.63469 0.88177 0.30084
 H389 H 0.67657 0.85573 0.21802
 H390 H 0.63185 0.89605 0.16172
 H391 H 0.70757 0.81291 0.41971
 H392 H 0.67922 0.78294 0.99201
 H393 H 0.55544 0.90966 0.84955
 H394 H 0.58498 0.92496 0.26608
 H395 H 0.63412 0.82315 0.95146
 H396 H 0.59794 0.86574 0.91558
 C397 C 0.85443 0.14650 0.10896
 C398 C 0.85104 0.16713 0.28803
 C399 C 0.82617 0.19278 0.31995
 C400 C 0.80441 0.19765 0.17623
 C401 C 0.80747 0.17651 0.00104
 C402 C 0.83218 0.15143 -0.03307
 C403 C 0.88144 0.11999 0.07885
 C404 C 0.88745 0.10013 -0.09756
 C405 C 0.91298 0.07622 -0.12058
 C406 C 0.93304 0.07066 0.03208
 C407 C 0.92729 0.08985 0.20981
 C408 C 0.90191 0.11515 0.23296
 C409 C 0.87233 0.16175 0.43391
 C410 C 0.89709 0.13608 0.40742
 H411 H 0.86973 0.17744 0.57125
 H412 H 0.91288 0.13290 0.52470
 H413 H 0.82352 0.20871 0.45677
 H414 H 0.79079 0.17992 -0.11095
 H415 H 0.91684 0.06146 -0.25885
 H416 H 0.94286 0.08589 0.32796
 H417 H 0.83320 0.13611 -0.17115
 H418 H 0.87293 0.10280 -0.22055
 C419 C 0.36013 0.65600 0.70705
 C420 C 0.34359 0.65502 0.88033
 C421 C 0.31726 0.67855 0.89845
 C422 C 0.30707 0.70260 0.74464
 C423 C 0.32323 0.70272 0.57251
 C424 C 0.34949 0.68016 0.55405
 C425 C 0.38765 0.62996 0.69074
 C426 C 0.40569 0.62979 0.52546
 C427 C 0.42991 0.60320 0.51033
 C428 C 0.43720 0.57608 0.65963
 C429 C 0.42028 0.57731 0.82968
 C430 C 0.39554 0.60410 0.84604
 C431 C 0.35312 0.62992 1.03189
 C432 C 0.37839 0.60478 1.01462
 H433 H 0.34049 0.62903 1.16460
 H434 H 0.38447 0.58534 1.13459
 H435 H 0.30455 0.67794 1.03100
 H436 H 0.31524 0.72001 0.45008
 H437 H 0.44272 0.60355 0.37833
 H438 H 0.42585 0.55679 0.94677
 H439 H 0.36066 0.68161 0.41724
 H440 H 0.40143 0.64955 0.40463
   
