data_POSCAR
  _audit_creation_date              2014-09-24
  _audit_creation_method            'ToBaCCo'
  _symmetry_space_group_name_H-M    'P1'
  _symmetry_Int_Tables_number       1
  _symmetry_cell_setting            triclinic
  loop_
  _symmetry_equiv_pos_as_xyz
 x,y,z
_cell_length_a 83.5954
_cell_length_b 83.6078
_cell_length_c 24.0888
_cell_angle_alpha 89.991200
_cell_angle_beta 90.023200
_cell_angle_gamma 120.007300
loop_
  _atom_site_label
  _atom_site_type_symbol
  _atom_site_fract_x
  _atom_site_fract_y
  _atom_site_fract_z
C1 C 0.24937 0.49831 0.52639
 C2 C 0.24916 0.49797 0.46976
 C3 C 0.23435 0.49859 0.43732
 C4 C 0.26378 0.49695 0.43757
 C5 C 0.26528 0.49985 0.55845
 C6 C 0.23366 0.49699 0.55893
 C7 C 0.22452 0.48511 0.39720
 C8 C 0.21028 0.48524 0.36727
 C9 C 0.20535 0.49902 0.37623
 C10 C 0.21586 0.51282 0.41628
 C11 C 0.23013 0.51262 0.44591
 C12 C 0.26781 0.48279 0.44732
 C13 C 0.28219 0.48247 0.41875
 C14 C 0.29266 0.49620 0.37940
 C15 C 0.28820 0.51004 0.36852
 C16 C 0.27385 0.51037 0.39724
 C17 C 0.28331 0.51435 0.54847
 C18 C 0.29827 0.51513 0.57682
 C19 C 0.29546 0.50155 0.61619
 C20 C 0.27732 0.48737 0.62731
 C21 C 0.26238 0.48658 0.59881
 C22 C 0.23683 0.51047 0.59884
 C23 C 0.22210 0.50969 0.62853
 C24 C 0.20393 0.49532 0.61910
 C25 C 0.20086 0.48158 0.58000
 C26 C 0.21560 0.48235 0.55043
 H27 H 0.22756 0.47411 0.39005
 H28 H 0.20264 0.47372 0.33961
 H29 H 0.21394 0.52448 0.42368
 H30 H 0.23798 0.52353 0.47553
 H31 H 0.25993 0.47207 0.47744
 H32 H 0.28507 0.47144 0.42724
 H33 H 0.27089 0.52136 0.38901
 H34 H 0.28580 0.52496 0.51832
 H35 H 0.31204 0.52640 0.56811
 H36 H 0.27472 0.47662 0.65703
 H37 H 0.24856 0.47532 0.60722
 H38 H 0.25068 0.52183 0.60614
 H39 H 0.22489 0.52056 0.65799
 H40 H 0.18706 0.47016 0.57258
 H41 H 0.21292 0.47158 0.52070
 H42 H 0.29611 0.52088 0.33879
 C43 C 0.49962 -0.25024 0.52837
 C44 C 0.49966 -0.25022 0.47173
 C45 C 0.49847 -0.26593 0.43945
 C46 C 0.50099 -0.23445 0.43954
 C47 C 0.49849 -0.23569 0.56065
 C48 C 0.50084 -0.26473 0.56064
 C49 C 0.51195 -0.26274 0.39948
 C50 C 0.51148 -0.27750 0.37087
 C51 C 0.49745 -0.29574 0.38147
 C52 C 0.48366 -0.29884 0.42041
 C53 C 0.48411 -0.28407 0.44888
 C54 C 0.51546 -0.21637 0.44911
 C55 C 0.51604 -0.20151 0.42082
 C56 C 0.50228 -0.20446 0.38191
 C57 C 0.48816 -0.22264 0.37110
 C58 C 0.48756 -0.23750 0.39955
 C59 C 0.48419 -0.23182 0.55111
 C60 C 0.48375 -0.21752 0.57978
 C61 C 0.49748 -0.20696 0.61905
 C62 C 0.51146 -0.21124 0.62969
 C63 C 0.51192 -0.22551 0.60087
 C64 C 0.48748 -0.27495 0.60075
 C65 C 0.48804 -0.28914 0.62972
 C66 C 0.50211 -0.29349 0.61951
 C67 C 0.51581 -0.28264 0.58000
 C68 C 0.51522 -0.26843 0.55132
 H69 H 0.52310 -0.24884 0.39150
 H70 H 0.52238 -0.27468 0.34148
 H71 H 0.47249 -0.31270 0.42869
 H72 H 0.47335 -0.28678 0.47870
 H73 H 0.52619 -0.21378 0.47895
 H74 H 0.52729 -0.18770 0.42923
 H75 H 0.47633 -0.25136 0.39145
 H76 H 0.47346 -0.23979 0.52109
 H77 H 0.47262 -0.21478 0.57145
 H78 H 0.52232 -0.20326 0.65932
 H79 H 0.52302 -0.22832 0.60894
 H80 H 0.47626 -0.27229 0.60852
 H81 H 0.47679 -0.29718 0.65797
 H82 H 0.52747 -0.28455 0.57207
 H83 H 0.52600 -0.26031 0.52163
 H84 H 0.47729 -0.22535 0.34170
 C85 C 1.24970 0.75091 0.52904
 C86 C 1.24947 0.75118 0.47242
 C87 C 1.26406 0.76689 0.44032
 C88 C 1.23467 0.73581 0.43989
 C89 C 1.23405 0.73638 0.56151
 C90 C 1.26559 0.76523 0.56122
 C91 C 1.26813 0.78504 0.45043
 C92 C 1.28240 0.79980 0.42174
 C93 C 1.29294 0.79682 0.38142
 C94 C 1.28824 0.77834 0.37050
 C95 C 1.27400 0.76364 0.39948
 C96 C 1.22462 0.73954 0.40045
 C97 C 1.21034 0.72516 0.37061
 C98 C 1.20594 0.70677 0.37933
 C99 C 1.21633 0.70312 0.41796
 C100 C 1.23061 0.71752 0.44778
 C101 C 1.23732 0.72608 0.60102
 C102 C 1.22272 0.71212 0.63102
 C103 C 1.20431 0.70810 0.62270
 C104 C 1.20132 0.71897 0.58356
 C105 C 1.21599 0.73292 0.55366
 C106 C 1.28360 0.76884 0.55113
 C107 C 1.29855 0.78294 0.57969
 C108 C 1.29590 0.79376 0.61984
 C109 C 1.27755 0.78949 0.63081
 C110 C 1.26266 0.77542 0.60196
 H111 H 1.26024 0.78780 0.48074
 H112 H 1.28459 0.81344 0.43031
 H113 H 1.29604 0.77502 0.34164
 H114 H 1.27106 0.74970 0.39110
 H115 H 1.22766 0.75358 0.39339
 H116 H 1.20280 0.72844 0.34046
 H117 H 1.23842 0.71439 0.47735
 H118 H 1.25124 0.72876 0.60837
 H119 H 1.22618 0.70500 0.66205
 H120 H 1.18761 0.71636 0.57370
 H121 H 1.21320 0.74091 0.52381
 H122 H 1.28609 0.76074 0.52088
 H123 H 1.31207 0.78480 0.57111
 H124 H 1.27450 0.79752 0.65955
 H125 H 1.24884 0.77284 0.61031
 H126 H 1.21320 0.68910 0.42587
 C127 C 0.75138 0.50209 0.52807
 C128 C 0.75132 0.50180 0.47144
 C129 C 0.76572 0.50026 0.43965
 C130 C 0.73697 0.50313 0.43863
 C131 C 0.73589 0.50143 0.56020
 C132 C 0.76696 0.50307 0.56058
 C133 C 0.77621 0.51359 0.39955
 C134 C 0.79041 0.51281 0.37139
 C135 C 0.79431 0.49860 0.38258
 C136 C 0.78341 0.48496 0.42165
 C137 C 0.76918 0.48572 0.44966
 C138 C 0.73351 0.51774 0.44707
 C139 C 0.71959 0.51854 0.41720
 C140 C 0.70902 0.50485 0.37783
 C141 C 0.71286 0.49051 0.36848
 C142 C 0.72675 0.48970 0.39848
 C143 C 0.71763 0.48736 0.55129
 C144 C 0.70311 0.48718 0.58052
 C145 C 0.70644 0.50099 0.62019
 C146 C 0.72501 0.51479 0.62971
 C147 C 0.73947 0.51495 0.60021
 C148 C 0.76354 0.48974 0.60111
 C149 C 0.77813 0.49006 0.63040
 C150 C 0.79666 0.50384 0.62012
 C151 C 0.79980 0.51751 0.58013
 C152 C 0.78516 0.51716 0.55113
 H153 H 0.77370 0.52488 0.39113
 H154 H 0.79865 0.52361 0.34190
 H155 H 0.78586 0.47366 0.43038
 H156 H 0.76097 0.47508 0.47962
 H157 H 0.74154 0.52849 0.47698
 H158 H 0.71720 0.52995 0.42457
 H159 H 0.72926 0.47836 0.39121
 H160 H 0.71462 0.47646 0.52167
 H161 H 0.68939 0.47571 0.57298
 H162 H 0.72858 0.52613 0.65794
 H163 H 0.75349 0.52595 0.60765
 H164 H 0.74956 0.47873 0.60898
 H165 H 0.77469 0.47884 0.65899
 H166 H 0.81348 0.52897 0.57207
 H167 H 0.78803 0.52792 0.52109
 H168 H 0.70485 0.47967 0.33884
 C169 C 0.49604 0.24799 0.52862
 C170 C 0.49607 0.24812 0.47199
 C171 C 0.49713 0.26380 0.43995
 C172 C 0.49503 0.23256 0.43924
 C173 C 0.49700 0.23330 0.56063
 C174 C 0.49501 0.26253 0.56133
 C175 C 0.48371 0.26049 0.39962
 C176 C 0.48428 0.27514 0.37009
 C177 C 0.49837 0.29340 0.38009
 C178 C 0.51202 0.29664 0.41973
 C179 C 0.51147 0.28197 0.44915
 C180 C 0.48065 0.21436 0.44774
 C181 C 0.48009 0.19981 0.41762
 C182 C 0.49378 0.20320 0.37797
 C183 C 0.50790 0.22149 0.36868
 C184 C 0.50848 0.23602 0.39891
 C185 C 0.51124 0.22939 0.55150
 C186 C 0.51168 0.21515 0.58054
 C187 C 0.49795 0.20449 0.62025
 C188 C 0.48398 0.20900 0.63001
 C189 C 0.48357 0.22320 0.60069
 C190 C 0.50835 0.27242 0.60185
 C191 C 0.50786 0.28644 0.63196
 C192 C 0.49388 0.29097 0.62256
 C193 C 0.48024 0.28052 0.58237
 C194 C 0.48077 0.26646 0.55253
 H195 H 0.47258 0.24656 0.39180
 H196 H 0.47347 0.27222 0.34024
 H197 H 0.52323 0.31052 0.42763
 H198 H 0.52219 0.28477 0.47923
 H199 H 0.46990 0.21145 0.47780
 H200 H 0.46885 0.18591 0.42499
 H201 H 0.51963 0.24998 0.39160
 H202 H 0.52207 0.23741 0.52183
 H203 H 0.52326 0.21309 0.57283
 H204 H 0.47269 0.20108 0.65827
 H205 H 0.47244 0.22601 0.60830
 H206 H 0.51948 0.26959 0.60924
 H207 H 0.51909 0.29421 0.66058
 H208 H 0.46866 0.28259 0.57486
 H209 H 0.47000 0.25860 0.52251
 H210 H 0.51874 0.22453 0.33883
 C211 C 0.75112 0.24946 0.52903
 C212 C 0.75124 0.24938 0.47240
 C213 C 0.73572 0.23471 0.43993
 C214 C 0.76692 0.26400 0.44027
 C215 C 0.76549 0.26532 0.56124
 C216 C 0.73672 0.23370 0.56144
 C217 C 0.73924 0.22477 0.39961
 C218 C 0.72471 0.21057 0.36997
 C219 C 0.70637 0.20613 0.37986
 C220 C 0.70292 0.21641 0.41939
 C221 C 0.71746 0.23064 0.44891
 C222 C 0.78510 0.26794 0.44998
 C223 C 0.79982 0.28226 0.42132
 C224 C 0.79663 0.29276 0.38190
 C225 C 0.77835 0.28841 0.37112
 C226 C 0.76364 0.27412 0.39993
 C227 C 0.76903 0.28332 0.55154
 C228 C 0.78317 0.29825 0.58003
 C229 C 0.79411 0.29559 0.61975
 C230 C 0.78990 0.27724 0.63037
 C231 C 0.77579 0.26237 0.60157
 C232 C 0.72653 0.23682 0.60190
 C233 C 0.71265 0.22206 0.63168
 C234 C 0.70878 0.20389 0.62181
 C235 C 0.71930 0.20085 0.58207
 C236 C 0.73321 0.21563 0.55242
 H237 H 0.75324 0.22775 0.39194
 H238 H 0.72780 0.20280 0.34017
 H239 H 0.68897 0.21355 0.42718
 H240 H 0.71449 0.23843 0.47896
 H241 H 0.78788 0.26002 0.48009
 H242 H 0.81371 0.28505 0.42976
 H243 H 0.74970 0.27123 0.39171
 H244 H 0.76085 0.28582 0.52163
 H245 H 0.78498 0.31176 0.57177
 H246 H 0.79802 0.27417 0.65877
 H247 H 0.77326 0.24855 0.60963
 H248 H 0.72908 0.25066 0.60962
 H249 H 0.70468 0.22482 0.66162
 H250 H 0.71688 0.18706 0.57428
 H251 H 0.74121 0.21298 0.52227
 H252 H 0.77546 0.29634 0.34137
 O253 O 0.97475 0.45930 0.10029
 O254 O 0.95442 0.46379 0.04795
 C255 C 0.95811 0.45521 0.08625
 O256 O 1.02676 0.54224 0.09615
 O257 O 1.04683 0.53696 0.04518
 C258 C 1.04333 0.54627 0.08141
 O259 O 0.97479 0.51456 0.10307
 O260 O 0.95446 0.49019 0.04924
 C261 C 0.95815 0.50210 0.08864
 O262 O 1.02670 0.48373 0.09407
 O263 O 1.04679 0.50922 0.04374
 C264 C 1.04327 0.49625 0.07941
 Zr265 Zr 1.00067 0.47979 0.06863
 O266 O 1.00296 0.48052 0.15624
 O267 O 0.99853 0.45346 0.06697
 Zr268 Zr 1.00071 0.52034 0.07015
 O269 O 1.00279 0.52198 0.15776
 O270 O 0.99974 0.54508 0.06540
 O271 O 0.98432 0.49185 0.08070
 O272 O 1.01671 0.50803 0.07933
 O273 O 1.02615 0.48411 -0.09887
 O274 O 1.04652 0.50965 -0.04918
 C275 C 1.04280 0.49667 -0.08500
 O276 O 0.97432 0.51527 -0.10023
 O277 O 0.95421 0.49051 -0.04731
 C278 C 0.95774 0.50274 -0.08564
 O279 O 1.02629 0.54285 -0.09530
 O280 O 1.04664 0.53728 -0.04682
 C281 C 1.04294 0.54683 -0.08165
 O282 O 0.97417 0.45982 -0.10301
 O283 O 0.95416 0.46408 -0.04839
 C284 C 0.95762 0.45571 -0.08785
 Zr285 Zr 1.00029 0.48012 -0.07174
 O286 O 1.00218 0.48136 -0.15943
 O287 O 0.99810 0.45378 -0.07246
 Zr288 Zr 1.00036 0.52063 -0.06984
 O289 O 1.00227 0.52187 -0.15754
 O290 O 0.99862 0.54502 -0.06847
 Zr291 Zr 0.97311 0.48653 -0.00006
 Zr292 Zr 1.02793 0.51386 -0.00118
 O293 O 1.01633 0.50841 -0.08129
 O294 O 0.98386 0.49221 -0.08136
 O295 O 1.01695 0.48502 -0.00205
 O296 O 0.98441 0.51535 0.00069
 O297 O 0.98442 0.46902 -0.00133
 O298 O 1.01704 0.53177 0.00001
 H299 H 1.02515 0.51214 0.11174
 H300 H 0.97597 0.52045 0.00135
 H301 H 1.02464 0.51273 -0.11397
 H302 H 0.97597 0.45547 -0.00160
 H303 H 0.99984 0.54902 0.10426
 H304 H 1.00730 0.55317 -0.03960
 H305 H 0.99185 0.51028 -0.17220
 H306 H 0.99198 0.48300 -0.17349
 H307 H 1.00851 0.45470 -0.05045
 H308 H 1.00898 0.45458 0.04469
 H309 H 0.99275 0.48195 0.17136
 H310 H 0.99377 0.50967 0.17245
 O311 O 0.45979 0.48540 0.10030
 O312 O 0.46410 0.50996 0.04693
 C313 C 0.45563 0.49786 0.08574
 O314 O 0.54267 0.51641 0.09531
 O315 O 0.53751 0.49101 0.04488
 C316 C 0.54682 0.50395 0.08078
 O317 O 0.51499 0.54072 0.10089
 O318 O 0.49047 0.53635 0.04726
 C319 C 0.50247 0.54479 0.08630
 O320 O 0.48413 0.45782 0.09465
 O321 O 0.50974 0.46325 0.04487
 C322 C 0.49674 0.45384 0.08050
 Zr323 Zr 0.48014 0.47979 0.06848
 O324 O 0.48010 0.47790 0.15609
 O325 O 0.45447 0.45506 0.06230
 Zr326 Zr 0.52066 0.52036 0.06925
 O327 O 0.52168 0.51923 0.15690
 O328 O 0.54482 0.54671 0.06929
 O329 O 0.49217 0.50825 0.07983
 O330 O 0.50841 0.49208 0.07914
 O331 O 0.48413 0.45786 -0.09689
 O332 O 0.50977 0.46325 -0.04719
 C333 C 0.49670 0.45381 -0.08268
 O334 O 0.51521 0.54093 -0.10245
 O335 O 0.49063 0.53653 -0.04909
 C336 C 0.50273 0.54505 -0.08782
 O337 O 0.54271 0.51646 -0.09757
 O338 O 0.53729 0.49084 -0.04790
 C339 C 0.54669 0.50384 -0.08351
 O340 O 0.45983 0.48555 -0.10308
 O341 O 0.46424 0.51013 -0.04964
 C342 C 0.45577 0.49809 -0.08859
 Zr343 Zr 0.48028 0.47999 -0.07154
 O344 O 0.48142 0.47900 -0.15919
 O345 O 0.45411 0.45563 -0.07151
 Zr346 Zr 0.52077 0.52049 -0.07114
 O347 O 0.52199 0.51966 -0.15880
 O348 O 0.54498 0.54681 -0.07015
 Zr349 Zr 0.48676 0.51385 -0.00117
 Zr350 Zr 0.51423 0.48651 -0.00115
 O351 O 0.50854 0.49223 -0.08151
 O352 O 0.49232 0.50846 -0.08226
 O353 O 0.48542 0.46861 -0.00151
 O354 O 0.51560 0.53136 -0.00089
 O355 O 0.46923 0.48504 -0.00149
 O356 O 0.53211 0.51535 -0.00092
 H357 H 0.51257 0.48787 0.11168
 H358 H 0.52070 0.54491 -0.00072
 H359 H 0.51268 0.48801 -0.11405
 H360 H 0.45568 0.47994 -0.00162
 H361 H 0.55419 0.54578 0.04665
 H362 H 0.55443 0.54568 -0.04852
 H363 H 0.51019 0.51799 -0.17343
 H364 H 0.48281 0.49069 -0.17374
 H365 H 0.45450 0.44736 -0.04281
 H366 H 0.45041 0.45098 0.10093
 H367 H 0.48322 0.49014 0.17100
 H368 H 0.50999 0.51783 0.17148
 O369 O 0.51459 -0.02543 0.10421
 O370 O 0.49022 -0.04582 0.05047
 C371 C 0.50219 -0.04208 0.08976
 O372 O 0.48358 0.02638 0.09425
 O373 O 0.50920 0.04651 0.04442
 C374 C 0.49612 0.04296 0.07969
 O375 O 0.45920 -0.02552 0.10103
 O376 O 0.46374 -0.04586 0.04904
 C377 C 0.45512 -0.04216 0.08715
 O378 O 0.54218 0.02649 0.09725
 O379 O 0.53697 0.04653 0.04587
 C380 C 0.54625 0.04305 0.08229
 Zr381 Zr 0.52028 0.00044 0.07136
 O382 O 0.52176 0.00256 0.15898
 O383 O 0.54504 -0.00050 0.06709
 Zr384 Zr 0.47974 0.00037 0.06939
 O385 O 0.48058 0.00275 0.15698
 O386 O 0.45341 -0.00178 0.06795
 O387 O 0.49178 -0.01598 0.08175
 O388 O 0.50797 0.01646 0.08018
 O389 O 0.54286 0.02591 -0.09431
 O390 O 0.53725 0.04628 -0.04621
 C391 C 0.54682 0.04256 -0.08088
 O392 O 0.45985 -0.02616 -0.10224
 O393 O 0.46406 -0.04616 -0.04731
 C394 C 0.45572 -0.04271 -0.08694
 O395 O 0.48416 0.02586 -0.09830
 O396 O 0.50944 0.04621 -0.04759
 C397 C 0.49662 0.04250 -0.08397
 O398 O 0.51518 -0.02608 -0.09913
 O399 O 0.49042 -0.04612 -0.04605
 C400 C 0.50259 -0.04264 -0.08450
 Zr401 Zr 0.52063 0.00001 -0.06875
 O402 O 0.52194 0.00190 -0.15644
 O403 O 0.54500 -0.00177 -0.06703
 Zr404 Zr 0.48013 -0.00004 -0.07101
 O405 O 0.48139 0.00183 -0.15870
 O406 O 0.45378 -0.00222 -0.07193
 Zr407 Zr 0.48650 -0.02720 0.00103
 Zr408 Zr 0.51385 0.02761 -0.00042
 O409 O 0.50843 0.01600 -0.08048
 O410 O 0.49221 -0.01647 -0.08033
 O411 O 0.53175 0.01671 0.00109
 O412 O 0.46899 -0.01588 -0.00054
 O413 O 0.51532 -0.01589 0.00193
 O414 O 0.48500 0.01662 -0.00140
 H415 H 0.51208 0.02492 0.11250
 H416 H 0.45544 -0.02432 -0.00086
 H417 H 0.51275 0.02432 -0.11312
 H418 H 0.52043 -0.02432 0.00261
 H419 H 0.45442 0.00845 0.04476
 H420 H 0.45472 0.00826 -0.05025
 H421 H 0.48302 -0.00838 -0.17268
 H422 H 0.51031 -0.00846 -0.17114
 H423 H 0.55313 0.00691 -0.03815
 H424 H 0.54895 -0.00034 0.10601
 H425 H 0.50951 -0.00667 0.17357
 H426 H 0.48180 -0.00758 0.17220
 C427 C 1.16940 0.48870 0.26903
 C428 C 1.16110 0.49836 0.28975
 C429 C 1.16762 0.50839 0.33888
 C430 C 1.18235 0.50875 0.36749
 C431 C 1.19104 0.49895 0.34775
 C432 C 1.18412 0.48895 0.29737
 C433 C 1.14579 0.49786 0.26079
 C434 C 1.13292 0.49742 0.23675
 C435 C 1.11781 0.49690 0.20888
 C436 C 1.10488 0.49650 0.18538
 C437 C 1.08942 0.49612 0.15772
 C438 C 1.09241 0.50926 0.11702
 C439 C 1.07741 0.50920 0.09111
 C440 C 1.05917 0.49596 0.10565
 C441 C 1.05633 0.48268 0.14627
 C442 C 1.07137 0.48279 0.17211
 H443 H 1.16458 0.48104 0.23054
 H444 H 1.16114 0.51579 0.35564
 H445 H 1.18597 0.51599 0.40666
 H446 H 1.19040 0.48190 0.27740
 H447 H 1.10633 0.51965 0.10556
 H448 H 1.08012 0.51961 0.06000
 H449 H 1.04251 0.47230 0.15848
 H450 H 1.06890 0.47255 0.20359
 C451 C 0.50225 0.67497 0.26946
 C452 C 0.49800 0.65891 0.29903
 C453 C 0.49337 0.65758 0.35532
 C454 C 0.49306 0.67227 0.38204
 C455 C 0.49740 0.68851 0.35275
 C456 C 0.50196 0.68968 0.29610
 C457 C 0.49853 0.64387 0.27173
 C458 C 0.49902 0.63129 0.24886
 C459 C 0.49962 0.61660 0.22198
 C460 C 0.50012 0.60407 0.19886
 C461 C 0.50068 0.58913 0.17097
 C462 C 0.48767 0.57907 0.12982
 C463 C 0.48823 0.56464 0.10235
 C464 C 0.50186 0.56006 0.11568
 C465 C 0.51485 0.57023 0.15728
 C466 C 0.51425 0.58467 0.18467
 H467 H 0.50581 0.67613 0.22583
 H468 H 0.49011 0.64524 0.37866
 H469 H 0.48975 0.67105 0.42585
 H470 H 0.50516 0.70191 0.27229
 H471 H 0.47709 0.58240 0.11889
 H472 H 0.47799 0.55710 0.07067
 H473 H 0.52551 0.56708 0.16861
 H474 H 0.52439 0.59237 0.21648
 C475 C 0.32873 -0.17574 0.27348
 C476 C 0.33795 -0.15831 0.29823
 C477 C 0.33221 -0.15562 0.35008
 C478 C 0.31736 -0.17029 0.37731
 C479 C 0.30786 -0.18813 0.35327
 C480 C 0.31388 -0.19048 0.30053
 C481 C 0.35336 -0.14321 0.27055
 C482 C 0.36629 -0.13055 0.24750
 C483 C 0.38144 -0.11570 0.22060
 C484 C 0.39436 -0.10298 0.19768
 C485 C 0.40973 -0.08774 0.17035
 C486 C 0.41990 -0.09101 0.13035
 C487 C 0.43472 -0.07620 0.10342
 C488 C 0.43957 -0.05787 0.11617
 C489 C 0.42930 -0.05475 0.15668
 C490 C 0.41449 -0.06959 0.18352
 H491 H 0.33296 -0.17794 0.23302
 H492 H 0.33936 -0.14218 0.36985
 H493 H 0.31402 -0.16761 0.41835
 H494 H 0.30684 -0.20349 0.27860
 H495 H 0.41634 -0.10501 0.11986
 H496 H 0.44232 -0.07912 0.07255
 H497 H 0.43264 -0.04085 0.16756
 H498 H 0.40671 -0.06691 0.21444
 C499 C 0.82835 0.50269 0.27150
 C500 C 0.83999 0.49834 0.30162
 C501 C 0.83657 0.49383 0.35796
 C502 C 0.82162 0.49376 0.38419
 C503 C 0.80990 0.49823 0.35436
 C504 C 0.81341 0.50265 0.29766
 C505 C 0.85554 0.49867 0.27481
 C506 C 0.86857 0.49903 0.25225
 C507 C 0.88383 0.49949 0.22560
 C508 C 0.89682 0.49990 0.20255
 C509 C 0.91225 0.50035 0.17457
 C510 C 0.90919 0.48731 0.13346
 C511 C 0.92411 0.48784 0.10566
 C512 C 0.94236 0.50147 0.11861
 C513 C 0.94530 0.51448 0.16024
 C514 C 0.93033 0.51391 0.18797
 H515 H 0.83086 0.50616 0.22783
 H516 H 0.84552 0.49050 0.38170
 H517 H 0.81943 0.49056 0.42806
 H518 H 0.80451 0.50593 0.27346
 H519 H 0.89525 0.47675 0.12276
 H520 H 0.92132 0.47758 0.07397
 H521 H 0.95914 0.52514 0.17127
 H522 H 0.93285 0.52409 0.21973
 C523 C 0.49426 0.32199 0.26447
 C524 C 0.49852 0.33829 0.29261
 C525 C 0.50296 0.34003 0.34913
 C526 C 0.50306 0.32549 0.37752
 C527 C 0.49868 0.30900 0.34968
 C528 C 0.49433 0.30743 0.29277
 C529 C 0.49817 0.35317 0.26364
 C530 C 0.49781 0.36562 0.23953
 C531 C 0.49737 0.38022 0.21154
 C532 C 0.49702 0.39274 0.18789
 C533 C 0.49666 0.40778 0.16000
 C534 C 0.50980 0.41786 0.11920
 C535 C 0.50973 0.43273 0.09295
 C536 C 0.49649 0.43775 0.10724
 C537 C 0.48323 0.42741 0.14799
 C538 C 0.48334 0.41254 0.17417
 H539 H 0.49085 0.32053 0.22068
 H540 H 0.50623 0.35257 0.37136
 H541 H 0.50622 0.32702 0.42146
 H542 H 0.49113 0.29500 0.27006
 H543 H 0.52018 0.41429 0.10791
 H544 H 0.52013 0.44035 0.06174
 H545 H 0.47285 0.43087 0.16001
 H546 H 0.47311 0.40483 0.20573
 C547 C 0.66000 0.16369 0.34917
 C548 C 0.66175 0.16100 0.29267
 C549 C 0.67800 0.17314 0.26446
 C550 C 0.69248 0.18789 0.29267
 C551 C 0.69089 0.19068 0.34955
 C552 C 0.67446 0.17844 0.37746
 C553 C 0.64693 0.14568 0.26379
 C554 C 0.63449 0.13281 0.23985
 C555 C 0.61989 0.11768 0.21212
 C556 C 0.60735 0.10474 0.18873
 C557 C 0.59228 0.08926 0.16117
 C558 C 0.58231 0.09220 0.11973
 C559 C 0.56743 0.07718 0.09374
 C560 C 0.56230 0.05897 0.10893
 C561 C 0.57254 0.05617 0.15036
 C562 C 0.58741 0.07122 0.17628
 H563 H 0.64751 0.15433 0.37145
 H564 H 0.67947 0.17121 0.22067
 H565 H 0.70486 0.19721 0.26991
 H566 H 0.67292 0.18007 0.42139
 H567 H 0.58596 0.10611 0.10771
 H568 H 0.55989 0.07986 0.06198
 H569 H 0.56899 0.04236 0.16308
 H570 H 0.59504 0.06879 0.20834
 C571 C 0.50658 0.16558 -0.34618
 C572 C 0.49786 0.15981 -0.29472
 C573 C 0.48936 0.16889 -0.27097
 C574 C 0.48945 0.18363 -0.29862
 C575 C 0.49810 0.18968 -0.35100
 C576 C 0.50675 0.18034 -0.37403
 C577 C 0.49753 0.14448 -0.26644
 C578 C 0.49722 0.13161 -0.24286
 C579 C 0.49685 0.11653 -0.21537
 C580 C 0.49658 0.10364 -0.19201
 C581 C 0.49636 0.08829 -0.16427
 C582 C 0.48328 0.07017 -0.17897
 C583 C 0.48325 0.05525 -0.15264
 C584 C 0.49635 0.05827 -0.11122
 C585 C 0.50938 0.07656 -0.09652
 C586 C 0.50937 0.09144 -0.12290
 H587 H 0.51310 0.15854 -0.36518
 H588 H 0.48270 0.16462 -0.23081
 H589 H 0.48325 0.19057 -0.27742
 H590 H 0.51301 0.18372 -0.41475
 H591 H 0.47315 0.06758 -0.21096
 H592 H 0.47303 0.04138 -0.16498
 H593 H 0.51965 0.07941 -0.06478
 H594 H 0.51956 0.10541 -0.11119
 C595 C 0.67994 0.51008 -0.27052
 C596 C 0.66231 0.50174 -0.29400
 C597 C 0.65918 0.49299 -0.34547
 C598 C 0.67361 0.49261 -0.37359
 C599 C 0.69164 0.50108 -0.35082
 C600 C 0.69444 0.50978 -0.29844
 C601 C 0.64746 0.50225 -0.26543
 C602 C 0.63500 0.50270 -0.24166
 C603 C 0.62038 0.50321 -0.21404
 C604 C 0.60783 0.50358 -0.19063
 C605 C 0.59275 0.50391 -0.16294
 C606 C 0.58802 0.51726 -0.17708
 C607 C 0.57314 0.51736 -0.15098
 C608 C 0.56275 0.50407 -0.11035
 C609 C 0.56773 0.49079 -0.09614
 C610 C 0.58262 0.49073 -0.12230
 H611 H 0.68248 0.51676 -0.23035
 H612 H 0.64558 0.48660 -0.36426
 H613 H 0.67059 0.48634 -0.41430
 H614 H 0.70762 0.51585 -0.27745
 H615 H 0.59578 0.52752 -0.20852
 H616 H 0.56971 0.52777 -0.16292
 H617 H 0.56008 0.48037 -0.06502
 H618 H 0.58617 0.48034 -0.11104
 C619 C 0.83286 0.34351 -0.34992
 C620 C 0.83899 0.34099 -0.29850
 C621 C 0.83017 0.32358 -0.27362
 C622 C 0.81534 0.30866 -0.30014
 C623 C 0.80894 0.31083 -0.35250
 C624 C 0.81802 0.32866 -0.37664
 C625 C 0.85447 0.35623 -0.27148
 C626 C 0.86747 0.36893 -0.24884
 C627 C 0.88273 0.38375 -0.22225
 C628 C 0.89577 0.39636 -0.19939
 C629 C 0.91131 0.41136 -0.17184
 C630 C 0.90843 0.42135 -0.13035
 C631 C 0.92349 0.43580 -0.10312
 C632 C 0.94168 0.44046 -0.11705
 C633 C 0.94441 0.43036 -0.15902
 C634 C 0.92931 0.41590 -0.18617
 H635 H 0.83971 0.35694 -0.36980
 H636 H 0.83471 0.32151 -0.23348
 H637 H 0.80861 0.29566 -0.27814
 H638 H 0.81437 0.33122 -0.41743
 H639 H 0.89454 0.41795 -0.11894
 H640 H 0.92085 0.44329 -0.07113
 H641 H 0.95820 0.43356 -0.17082
 H642 H 0.93169 0.40824 -0.21825
 C643 C 0.49348 -0.16438 -0.35376
 C644 C 0.49798 -0.16128 -0.29734
 C645 C 0.50212 -0.17322 -0.26803
 C646 C 0.50184 -0.18815 -0.29506
 C647 C 0.49741 -0.19134 -0.35184
 C648 C 0.49318 -0.17931 -0.38087
 C649 C 0.49852 -0.14576 -0.26964
 C650 C 0.49903 -0.13273 -0.24646
 C651 C 0.49967 -0.11747 -0.21929
 C652 C 0.50022 -0.10444 -0.19601
 C653 C 0.50084 -0.08892 -0.16809
 C654 C 0.48774 -0.09180 -0.12735
 C655 C 0.48832 -0.07676 -0.10011
 C656 C 0.50205 -0.05858 -0.11327
 C657 C 0.51516 -0.05583 -0.15436
 C658 C 0.51454 -0.07091 -0.18153
 H659 H 0.49032 -0.15519 -0.37690
 H660 H 0.50558 -0.17097 -0.22431
 H661 H 0.50495 -0.19729 -0.27146
 H662 H 0.48997 -0.18125 -0.42477
 H663 H 0.47707 -0.10568 -0.11664
 H664 H 0.47799 -0.07941 -0.06882
 H665 H 0.52590 -0.04204 -0.16557
 H666 H 0.52475 -0.06852 -0.21302
 C667 C 0.34245 0.50633 -0.35796
 C668 C 0.34129 0.50190 -0.30153
 C669 C 0.32526 0.49760 -0.27176
 C670 C 0.31039 0.49761 -0.29835
 C671 C 0.31138 0.50195 -0.35514
 C672 C 0.32761 0.50637 -0.38463
 C673 C 0.35646 0.50158 -0.27429
 C674 C 0.36911 0.50123 -0.25142
 C675 C 0.38387 0.50075 -0.22450
 C676 C 0.39643 0.50032 -0.20134
 C677 C 0.41140 0.49981 -0.17341
 C678 C 0.41585 0.48622 -0.18694
 C679 C 0.43030 0.48564 -0.15948
 C680 C 0.44049 0.49867 -0.11800
 C681 C 0.43592 0.51232 -0.10485
 C682 C 0.42148 0.51286 -0.13238
 H683 H 0.35478 0.50962 -0.38145
 H684 H 0.32422 0.49419 -0.22802
 H685 H 0.29818 0.49437 -0.27440
 H686 H 0.32870 0.50951 -0.42855
 H687 H 0.40813 0.47605 -0.21864
 H688 H 0.43344 0.47497 -0.17068
 H689 H 0.44347 0.52259 -0.07327
 H690 H 0.41815 0.52344 -0.12158
 C691 C 1.17589 0.66416 -0.29753
 C692 C 1.15951 0.66448 -0.28955
 C693 C 1.15793 0.67924 -0.31014
 C694 C 1.17262 0.69362 -0.33884
 C695 C 1.18936 0.69358 -0.34761
 C696 C 1.19064 0.67849 -0.32610
 C697 C 1.14428 0.64954 -0.26072
 C698 C 1.13154 0.63693 -0.23688
 C699 C 1.11662 0.62204 -0.20933
 C700 C 1.10386 0.60923 -0.18618
 C701 C 1.08859 0.59382 -0.15905
 C702 C 1.07045 0.58895 -0.17274
 C703 C 1.05558 0.57374 -0.14733
 C704 C 1.05868 0.56317 -0.10783
 C705 C 1.07701 0.56828 -0.09407
 C706 C 1.09184 0.58349 -0.11955
 H707 H 1.17720 0.65268 -0.28219
 H708 H 1.14533 0.67969 -0.30381
 H709 H 1.17089 0.70501 -0.35208
 H710 H 1.20267 0.67713 -0.33307
 H711 H 1.06778 0.59684 -0.20330
 H712 H 1.04169 0.57023 -0.15892
 H713 H 1.07992 0.56049 -0.06381
 H714 H 1.10584 0.58714 -0.10866
 C715 C 0.84409 0.51194 -0.34746
 C716 C 0.84123 0.50337 -0.29579
 C717 C 0.82372 0.49510 -0.27154
 C718 C 0.80907 0.49530 -0.29890
 C719 C 0.81160 0.50384 -0.35144
 C720 C 0.82951 0.51223 -0.37500
 C721 C 0.85625 0.50299 -0.26780
 C722 C 0.86888 0.50270 -0.24456
 C723 C 0.88373 0.50243 -0.21758
 C724 C 0.89648 0.50229 -0.19470
 C725 C 0.91182 0.50227 -0.16759
 C726 C 0.90871 0.48893 -0.12739
 C727 C 0.92363 0.48902 -0.10080
 C728 C 0.94190 0.50250 -0.11411
 C729 C 0.94486 0.51580 -0.15479
 C730 C 0.92992 0.51567 -0.18127
 H731 H 0.85758 0.51828 -0.36686
 H732 H 0.82139 0.48855 -0.23122
 H733 H 0.79599 0.48929 -0.27734
 H734 H 0.83233 0.51837 -0.41589
 H735 H 0.89475 0.47848 -0.11651
 H736 H 0.92083 0.47856 -0.06980
 H737 H 0.95871 0.52636 -0.16610
 H738 H 0.93248 0.52605 -0.21234
 C739 C 0.48509 0.32963 -0.34167
 C740 C 0.49374 0.33516 -0.29001
 C741 C 0.50223 0.32599 -0.26683
 C742 C 0.50221 0.31140 -0.29526
 C743 C 0.49364 0.30560 -0.34786
 C744 C 0.48499 0.31504 -0.37028
 C745 C 0.49405 0.35039 -0.26110
 C746 C 0.49436 0.36321 -0.23724
 C747 C 0.49473 0.37831 -0.20975
 C748 C 0.49503 0.39126 -0.18674
 C749 C 0.49532 0.40678 -0.15989
 C750 C 0.50885 0.41705 -0.12019
 C751 C 0.50927 0.43231 -0.09482
 C752 C 0.49615 0.43751 -0.10892
 C753 C 0.48255 0.42701 -0.14871
 C754 C 0.48217 0.41177 -0.17398
 H755 H 0.47859 0.33676 -0.36025
 H756 H 0.50884 0.33006 -0.22655
 H757 H 0.50841 0.30438 -0.27450
 H758 H 0.47879 0.31186 -0.41111
 H759 H 0.51911 0.41332 -0.10898
 H760 H 0.51991 0.44005 -0.06434
 H761 H 0.47224 0.43058 -0.16057
 H762 H 0.47164 0.40392 -0.20469
 C763 C 0.67648 0.17495 -0.26219
 C764 C 0.66467 0.15853 -0.29016
 C765 C 0.66738 0.15684 -0.34671
 C766 C 0.68179 0.17154 -0.37526
 C767 C 0.69369 0.18815 -0.34759
 C768 C 0.69090 0.18968 -0.29067
 C769 C 0.64964 0.14347 -0.26106
 C770 C 0.63698 0.13085 -0.23699
 C771 C 0.62205 0.11604 -0.20923
 C772 C 0.60922 0.10334 -0.18593
 C773 C 0.59380 0.08812 -0.15866
 C774 C 0.58345 0.09141 -0.11940
 C775 C 0.56824 0.07661 -0.09378
 C776 C 0.56316 0.05828 -0.10718
 C777 C 0.57376 0.05513 -0.14644
 C778 C 0.58895 0.06996 -0.17198
 H779 H 0.67453 0.17639 -0.21839
 H780 H 0.65827 0.14421 -0.36882
 H781 H 0.68342 0.17003 -0.41921
 H782 H 0.69996 0.20220 -0.26808
 H783 H 0.58707 0.10542 -0.10878
 H784 H 0.56042 0.07956 -0.06370
 H785 H 0.57027 0.04122 -0.15776
 H786 H 0.59687 0.06726 -0.20236
 C787 C 1.17508 0.49927 -0.26578
 C788 C 1.15866 0.49455 -0.29392
 C789 C 1.15694 0.48988 -0.35025
 C790 C 1.17160 0.49000 -0.37845
 C791 C 1.18822 0.49482 -0.35062
 C792 C 1.18978 0.49941 -0.29391
 C793 C 1.14363 0.49468 -0.26521
 C794 C 1.13102 0.49485 -0.24148
 C795 C 1.11623 0.49509 -0.21408
 C796 C 1.10354 0.49530 -0.19103
 C797 C 1.08833 0.49555 -0.16394
 C798 C 1.07017 0.48244 -0.17803
 C799 C 1.05534 0.48276 -0.15229
 C800 C 1.05850 0.49624 -0.11205
 C801 C 1.07685 0.50933 -0.09804
 C802 C 1.09164 0.50897 -0.12386
 H803 H 1.17654 0.50287 -0.22214
 H804 H 1.14430 0.48627 -0.37247
 H805 H 1.17007 0.48665 -0.42226
 H806 H 1.20231 0.50296 -0.27122
 H807 H 1.06745 0.47199 -0.20903
 H808 H 1.04143 0.47247 -0.16407
 H809 H 1.07980 0.51988 -0.06721
 H810 H 1.10565 0.51919 -0.11266
 C811 C 0.51104 0.66768 -0.34911
 C812 C 0.50237 0.66167 -0.29769
 C813 C 0.49377 0.67054 -0.27325
 C814 C 0.49372 0.68533 -0.30018
 C815 C 0.50236 0.69164 -0.35247
 C816 C 0.51108 0.68248 -0.37623
 C817 C 0.50224 0.64633 -0.27015
 C818 C 0.50212 0.63345 -0.24724
 C819 C 0.50202 0.61838 -0.22055
 C820 C 0.50198 0.60553 -0.19780
 C821 C 0.50203 0.59022 -0.17063
 C822 C 0.51539 0.58549 -0.18450
 C823 C 0.51558 0.57075 -0.15779
 C824 C 0.50240 0.56053 -0.11672
 C825 C 0.48896 0.56536 -0.10328
 C826 C 0.48880 0.58011 -0.13008
 H827 H 0.51764 0.66079 -0.36865
 H828 H 0.48714 0.66609 -0.23311
 H829 H 0.48744 0.69211 -0.27849
 H830 H 0.51731 0.68604 -0.41697
 H831 H 0.52569 0.59323 -0.21585
 H832 H 0.52611 0.56742 -0.16919
 H833 H 0.47858 0.55779 -0.07197
 H834 H 0.47839 0.58365 -0.11907
 C835 C 0.34381 -0.16744 -0.34988
 C836 C 0.34132 -0.16142 -0.29824
 C837 C 0.32394 -0.17036 -0.27317
 C838 C 0.30903 -0.18517 -0.29973
 C839 C 0.31116 -0.19144 -0.35233
 C840 C 0.32897 -0.18227 -0.37665
 C841 C 0.35655 -0.14594 -0.27121
 C842 C 0.36923 -0.13293 -0.24853
 C843 C 0.38400 -0.11765 -0.22187
 C844 C 0.39657 -0.10461 -0.19892
 C845 C 0.41151 -0.08906 -0.17125
 C846 C 0.42148 -0.09191 -0.12959
 C847 C 0.43588 -0.07684 -0.10223
 C848 C 0.44051 -0.05866 -0.11621
 C849 C 0.43043 -0.05595 -0.15836
 C850 C 0.41603 -0.07106 -0.18563
 H851 H 0.35721 -0.16051 -0.36990
 H852 H 0.32190 -0.16591 -0.23285
 H853 H 0.29605 -0.19199 -0.27759
 H854 H 0.33149 -0.18582 -0.41760
 H855 H 0.41810 -0.10578 -0.11814
 H856 H 0.44335 -0.07946 -0.07012
 H857 H 0.43362 -0.04217 -0.17020
 H858 H 0.40839 -0.06870 -0.21783
 C859 C 0.49795 -0.17477 0.27035
 C860 C 0.50232 -0.15873 0.30020
 C861 C 0.50683 -0.15757 0.35656
 C862 C 0.50693 -0.17240 0.38306
 C863 C 0.50249 -0.18861 0.35346
 C864 C 0.49801 -0.18963 0.29677
 C865 C 0.50211 -0.14350 0.27311
 C866 C 0.50193 -0.13073 0.25050
 C867 C 0.50174 -0.11577 0.22405
 C868 C 0.50161 -0.10298 0.20137
 C869 C 0.50154 -0.08770 0.17411
 C870 C 0.51480 -0.06956 0.18792
 C871 C 0.51495 -0.05470 0.16083
 C872 C 0.50182 -0.05780 0.11942
 C873 C 0.48845 -0.07611 0.10613
 C874 C 0.48834 -0.09094 0.13331
 H875 H 0.49448 -0.17580 0.22666
 H876 H 0.51019 -0.14524 0.38010
 H877 H 0.51016 -0.17130 0.42691
 H878 H 0.49474 -0.20184 0.27276
 H879 H 0.52509 -0.06690 0.21945
 H880 H 0.52543 -0.04080 0.17211
 H881 H 0.47812 -0.07902 0.07457
 H882 H 0.47801 -0.10493 0.12232
 C883 C 0.33547 0.49258 0.35274
 C884 C 0.33850 0.49693 0.29623
 C885 C 0.32647 0.50089 0.26670
 C886 C 0.31150 0.50057 0.29362
 C887 C 0.30836 0.49626 0.35047
 C888 C 0.32050 0.49224 0.37973
 C889 C 0.35397 0.49737 0.26862
 C890 C 0.36694 0.49772 0.24564
 C891 C 0.38212 0.49806 0.21887
 C892 C 0.39505 0.49826 0.19607
 C893 C 0.41042 0.49835 0.16889
 C894 C 0.42051 0.51165 0.12848
 C895 C 0.43529 0.51157 0.10158
 C896 C 0.44016 0.49815 0.11480
 C897 C 0.42998 0.48491 0.15577
 C898 C 0.41521 0.48502 0.18256
 H899 H 0.34472 0.48954 0.37602
 H900 H 0.32867 0.50423 0.22289
 H901 H 0.30228 0.50353 0.26986
 H902 H 0.31860 0.48913 0.42369
 H903 H 0.41692 0.52204 0.11761
 H904 H 0.44284 0.52199 0.07036
 H905 H 0.43333 0.47439 0.16700
 H906 H 0.40748 0.47467 0.21380
 C907 C 1.15916 0.67705 0.31167
 C908 C 1.16089 0.66232 0.29132
 C909 C 1.17737 0.66212 0.29947
 C910 C 1.19205 0.67658 0.32798
 C911 C 1.19044 0.69145 0.34866
 C912 C 1.17382 0.69153 0.34013
 C913 C 1.14570 0.64736 0.26248
 C914 C 1.13290 0.63482 0.23860
 C915 C 1.11785 0.62011 0.21096
 C916 C 1.10494 0.60750 0.18766
 C917 C 1.08949 0.59237 0.16022
 C918 C 1.09246 0.58232 0.11914
 C919 C 1.07746 0.56741 0.09320
 C920 C 1.05923 0.56233 0.10807
 C921 C 1.05640 0.57263 0.14916
 C922 C 1.07144 0.58754 0.17504
 H923 H 1.14643 0.67731 0.30578
 H924 H 1.17887 0.65079 0.28380
 H925 H 1.20474 0.67624 0.33330
 H926 H 1.17205 0.70264 0.35623
 H927 H 1.10638 0.58595 0.10736
 H928 H 1.08017 0.55982 0.06171
 H929 H 1.04258 0.56913 0.16162
 H930 H 1.06898 0.59523 0.20681
 C931 C 0.48903 0.15663 0.34491
 C932 C 0.49353 0.15859 0.28843
 C933 C 0.49792 0.17504 0.26100
 C934 C 0.49789 0.18952 0.28997
 C935 C 0.49346 0.18771 0.34684
 C936 C 0.48897 0.17108 0.37396
 C937 C 0.49381 0.14377 0.25884
 C938 C 0.49408 0.13132 0.23447
 C939 C 0.49439 0.11664 0.20650
 C940 C 0.49462 0.10400 0.18320
 C941 C 0.49482 0.08874 0.15619
 C942 C 0.50838 0.09194 0.11671
 C943 C 0.50875 0.07706 0.09146
 C944 C 0.49555 0.05877 0.10548
 C945 C 0.48190 0.05573 0.14495
 C946 C 0.48156 0.07062 0.17009
 H947 H 0.48567 0.14397 0.36660
 H948 H 0.50139 0.17669 0.21725
 H949 H 0.50118 0.20206 0.26780
 H950 H 0.48575 0.16936 0.41785
 H951 H 0.51872 0.10592 0.10566
 H952 H 0.51944 0.07992 0.06122
 H953 H 0.47152 0.04186 0.15673
 H954 H 0.47101 0.06799 0.20063
 C955 C 0.67649 0.50104 0.26187
 C956 C 0.66473 0.50575 0.28966
 C957 C 0.66755 0.51036 0.34606
 C958 C 0.68203 0.51020 0.37464
 C959 C 0.69388 0.50539 0.34715
 C960 C 0.69097 0.50085 0.29038
 C961 C 0.64965 0.50568 0.26056
 C962 C 0.63694 0.50557 0.23654
 C963 C 0.62196 0.50540 0.20888
 C964 C 0.60910 0.50525 0.18570
 C965 C 0.59367 0.50508 0.15861
 C966 C 0.58351 0.49171 0.11843
 C967 C 0.56832 0.49137 0.09285
 C968 C 0.56308 0.50444 0.10722
 C969 C 0.57347 0.51789 0.14747
 C970 C 0.58864 0.51819 0.17296
 H971 H 0.67446 0.49749 0.21818
 H972 H 0.65849 0.51397 0.36804
 H973 H 0.68374 0.51350 0.41848
 H974 H 0.69999 0.49731 0.26793
 H975 H 0.58728 0.48149 0.10702
 H976 H 0.56067 0.48084 0.06202
 H977 H 0.56985 0.52816 0.15954
 H978 H 0.59640 0.52859 0.20404
 C979 C 0.82581 0.32639 0.26879
 C980 C 0.84189 0.33833 0.29808
 C981 C 0.84324 0.33530 0.35459
 C982 C 0.82857 0.32043 0.38178
 C983 C 0.81232 0.30838 0.35276
 C984 C 0.81111 0.31151 0.29591
 C985 C 0.85697 0.35372 0.27026
 C986 C 0.86962 0.36662 0.24710
 C987 C 0.88448 0.38173 0.22010
 C988 C 0.89721 0.39462 0.19710
 C989 C 0.91247 0.40995 0.16969
 C990 C 0.90923 0.42010 0.12955
 C991 C 0.92406 0.43487 0.10253
 C992 C 0.94238 0.43970 0.11534
 C993 C 0.94547 0.42944 0.15599
 C994 C 0.93061 0.41468 0.18291
 H995 H 0.82463 0.32857 0.22500
 H996 H 0.85561 0.34449 0.37771
 H997 H 0.82982 0.31854 0.42573
 H998 H 0.79887 0.30235 0.27231
 H999 H 0.89524 0.41656 0.11901
 H1000 H 0.92115 0.44247 0.07155
 H1001 H 0.95936 0.43276 0.16692
 H1002 H 0.93328 0.40691 0.21394
   
