data_POSCAR
  _audit_creation_date              2014-09-24
  _audit_creation_method            'ToBaCCo'
  _symmetry_space_group_name_H-M    'P1'
  _symmetry_Int_Tables_number       1
  _symmetry_cell_setting            triclinic
  loop_
  _symmetry_equiv_pos_as_xyz
 x,y,z
_cell_length_a 29.5598
_cell_length_b 28.8572
_cell_length_c 28.5233
_cell_angle_alpha 89.417900
_cell_angle_beta 90.816600
_cell_angle_gamma 91.088900
loop_
  _atom_site_label
  _atom_site_type_symbol
  _atom_site_fract_x
  _atom_site_fract_y
  _atom_site_fract_z
C1 C 0.18475 0.20379 0.24634
 C2 C 0.18640 0.24170 0.21548
 C3 C 0.21821 0.24376 0.18033
 C4 C 0.25059 0.20894 0.17739
 C5 C 0.24987 0.17215 0.20902
 C6 C 0.21570 0.16875 0.24274
 C7 C 0.15291 0.18978 0.27837
 N8 N 0.16287 0.14638 0.29353
 C9 C 0.20152 0.13332 0.27227
 C10 C 0.28452 0.14340 0.19741
 N11 N 0.30591 0.16143 0.15923
 C12 C 0.28495 0.20124 0.14637
 C13 C 0.20724 0.28072 0.15156
 N14 N 0.17026 0.30116 0.16923
 C15 C 0.15739 0.27771 0.20829
 H16 H 0.12294 0.20856 0.28744
 H17 H 0.21700 0.09977 0.27626
 H18 H 0.29271 0.11100 0.21476
 H19 H 0.29407 0.22309 0.11676
 H20 H 0.22359 0.29078 0.11920
 H21 H 0.12718 0.28440 0.22797
 C22 C -0.20212 0.78809 0.25059
 C23 C -0.19402 0.75995 0.21219
 C24 C -0.21687 0.76689 0.17016
 C25 C -0.24986 0.80114 0.16681
 C26 C -0.25824 0.82889 0.20509
 C27 C -0.23345 0.82293 0.24722
 C28 C -0.17893 0.79325 0.29220
 N29 N -0.19427 0.83125 0.31418
 C30 C -0.22836 0.84925 0.28737
 C31 C -0.29072 0.85990 0.19107
 N32 N -0.30250 0.85143 0.14557
 C33 C -0.27728 0.81584 0.13034
 C34 C -0.19778 0.73818 0.13772
 N35 N -0.16460 0.71396 0.15973
 C36 C -0.16222 0.72689 0.20517
 H37 H -0.15004 0.77321 0.30343
 H38 H -0.24541 0.88128 0.29440
 H39 H -0.30473 0.88669 0.21254
 H40 H -0.27883 0.80151 0.09540
 H41 H -0.20658 0.73579 0.10084
 H42 H -0.13762 0.71462 0.23069
 C43 C -0.17476 0.21610 -0.25916
 C44 C -0.17451 0.25290 -0.22765
 C45 C -0.21114 0.25947 -0.19886
 C46 C -0.24852 0.22882 -0.20112
 C47 C -0.24884 0.19254 -0.23256
 C48 C -0.21138 0.18568 -0.26119
 C49 C -0.14140 0.19856 -0.28661
 N50 N -0.15643 0.15754 -0.30438
 C51 C -0.19923 0.14935 -0.28902
 C52 C -0.28667 0.16563 -0.22373
 N53 N -0.30875 0.18387 -0.18693
 C54 C -0.28564 0.22258 -0.17285
 C55 C -0.19869 0.29352 -0.16744
 N56 N -0.15534 0.30680 -0.17619
 C57 C -0.14028 0.28222 -0.21281
 H58 H -0.10766 0.21316 -0.29087
 H59 H -0.21947 0.11847 -0.29616
 H60 H -0.29558 0.13323 -0.24068
 H61 H -0.29396 0.24342 -0.14292
 H62 H -0.21821 0.30491 -0.13801
 H63 H -0.10598 0.28351 -0.22568
 C64 C 0.20134 0.76398 -0.27122
 C65 C 0.19772 0.73126 -0.23481
 C66 C 0.22711 0.73350 -0.19658
 C67 C 0.26070 0.76857 -0.19433
 C68 C 0.26488 0.80003 -0.23107
 C69 C 0.23473 0.79813 -0.26949
 C70 C 0.17231 0.77503 -0.30755
 N71 N 0.18669 0.81560 -0.32746
 C72 C 0.22536 0.82957 -0.30490
 C73 C 0.29713 0.83240 -0.21803
 N74 N 0.31226 0.82220 -0.17393
 C75 C 0.29003 0.78320 -0.15896
 C76 C 0.21209 0.70104 -0.16443
 N77 N 0.17436 0.67952 -0.18212
 C78 C 0.16524 0.69788 -0.22508
 H79 H 0.14080 0.75703 -0.31599
 H80 H 0.24302 0.86228 -0.31084
 H81 H 0.30704 0.86274 -0.23837
 H82 H 0.29387 0.76742 -0.12457
 H83 H 0.22614 0.69530 -0.12963
 H84 H 0.13591 0.68920 -0.24664
 C85 C 0.19122 1.18914 0.75793
 C86 C 0.22777 1.19188 0.78916
 C87 C 0.23089 1.22719 0.82133
 C88 C 0.19803 1.26164 0.82096
 C89 C 0.16253 1.26023 0.78843
 C90 C 0.15864 1.22291 0.75675
 C91 C 0.17726 1.15410 0.72908
 N92 N 0.13683 1.16509 0.70941
 C93 C 0.12524 1.20765 0.72536
 C94 C 0.13510 1.29702 0.79835
 N95 N 0.15273 1.31990 0.83624
 C96 C 0.19111 1.29830 0.85022
 C97 C 0.26715 1.21752 0.85071
 N98 N 0.28617 1.17796 0.83573
 C99 C 0.26230 1.16200 0.79833
 H100 H 0.19479 1.12192 0.72407
 H101 H 0.09371 1.22470 0.71731
 H102 H 0.10351 1.30512 0.78067
 H103 H 0.21206 1.30791 0.88017
 H104 H 0.27822 1.23698 0.88116
 H105 H 0.26839 1.12972 0.78064
 C106 C 0.77563 0.81181 0.74870
 C107 C 0.74744 0.81907 0.78674
 C108 C 0.75428 0.79546 0.82868
 C109 C 0.78868 0.76263 0.83236
 C110 C 0.81631 0.75505 0.79441
 C111 C 0.81014 0.78032 0.75242
 C112 C 0.78082 0.83576 0.70718
 N113 N 0.81830 0.82037 0.68571
 C114 C 0.83601 0.78577 0.71272
 C115 C 0.84786 0.72318 0.80860
 N116 N 0.83997 0.71084 0.85399
 C117 C 0.80397 0.73510 0.86893
 C118 C 0.72509 0.81378 0.86072
 N119 N 0.70065 0.84710 0.83862
 C120 C 0.71398 0.85045 0.79350
 H121 H 0.76101 0.86504 0.69559
 H122 H 0.86750 0.76858 0.70610
 H123 H 0.87482 0.71016 0.78736
 H124 H 0.79006 0.73312 0.90382
 H125 H 0.72240 0.80430 0.89741
 H126 H 0.70153 0.87540 0.76803
 C127 C 0.24393 0.81064 1.28172
 C128 C 0.27308 0.81498 1.24351
 C129 C 0.27431 0.78018 1.21048
 C130 C 0.24534 0.74140 1.21429
 C131 C 0.21587 0.73748 1.25147
 C132 C 0.21529 0.77229 1.28552
 C133 C 0.23156 0.84176 1.31528
 N134 N 0.19557 0.82368 1.33879
 C135 C 0.18554 0.78112 1.32090
 C136 C 0.18617 0.70141 1.24145
 N137 N 0.19662 0.68390 1.19899
 C138 C 0.23292 0.70797 1.18231
 C139 C 0.30064 0.79624 1.17422
 N140 N 0.31454 0.84010 1.18403
 C141 C 0.29781 0.85210 1.22612
 H142 H 0.24542 0.87650 1.31959
 H143 H 0.15687 0.75940 1.33076
 H144 H 0.15663 0.69153 1.26151
 H145 H 0.24679 0.70412 1.14766
 H146 H 0.30633 0.77878 1.14145
 H147 H 0.30146 0.88606 1.24167
 C148 C 0.78592 1.17479 1.24481
 C149 C 0.74842 1.17791 1.21467
 C150 C 0.74564 1.21385 1.18235
 C151 C 0.78059 1.24751 1.18012
 C152 C 0.81686 1.24525 1.21143
 C153 C 0.81967 1.20852 1.24395
 C154 C 0.79954 1.14054 1.27522
 N155 N 0.84073 1.15267 1.29342
 C156 C 0.85318 1.19459 1.27497
 C157 C 0.84652 1.28061 1.19999
 N158 N 0.82973 1.30385 1.16218
 C159 C 0.78949 1.28387 1.14950
 C160 C 0.70705 1.20576 1.15573
 N161 N 0.68664 1.16602 1.17145
 C162 C 0.71184 1.14874 1.20736
 H163 H 0.78126 1.10846 1.28257
 H164 H 0.88523 1.21232 1.28152
 H165 H 0.87902 1.28773 1.21667
 H166 H 0.76876 1.29448 1.11985
 H167 H 0.69553 1.22636 1.12611
 H168 H 0.70492 1.11642 1.22575
 O169 O 0.53561 0.96665 0.89761
 O170 O 0.44689 0.94979 1.04835
 O171 O 0.58571 0.98969 1.02775
 O172 O 0.42751 0.94686 0.96719
 O173 O 0.53005 0.94314 1.04506
 O174 O 0.44905 0.96983 0.89895
 O175 O 0.38412 0.98555 1.02867
 O176 O 0.58877 0.99886 0.94321
 C177 C 0.57587 0.96902 0.91287
 C178 C 0.40513 0.95619 1.05669
 C179 C 0.57154 0.95095 1.04273
 C180 C 0.42765 0.94154 0.92387
 O181 O 0.45480 1.06045 0.90052
 O182 O 0.54047 1.02597 1.08441
 O183 O 0.55878 1.08833 0.95272
 O184 O 0.42572 1.06321 1.01819
 O185 O 0.45788 1.03683 1.07965
 O186 O 0.53927 1.05361 0.89035
 O187 O 0.40104 1.03024 0.94354
 O188 O 0.54861 1.07730 1.03261
 Co189 Co 0.49445 1.01259 0.90525
 Co190 Co 0.49410 0.99134 1.05698
 Co191 Co 0.56497 1.03655 0.98903
 Co192 Co 0.43127 1.00554 0.99377
 O193 O 0.49828 1.01345 0.98267
 C194 C 0.41453 1.05982 0.91395
 C195 C 0.55331 1.06591 1.07375
 C196 C 0.55944 1.08631 0.90970
 C197 C 0.43308 1.06640 1.06072
 O198 O 0.05174 0.47002 0.10041
 O199 O 0.01859 0.55715 -0.08455
 O200 O 0.05923 0.44274 -0.02046
 O201 O 0.07746 0.57714 0.04810
 O202 O 0.03019 0.47301 -0.08150
 O203 O 0.04329 0.55623 0.11003
 O204 O 0.06795 0.56681 -0.03171
 O205 O 0.02753 0.41466 0.05400
 C206 C 0.05354 0.42908 0.08617
 C207 C 0.05781 0.56944 -0.07336
 C208 C 0.06079 0.44945 -0.06319
 C209 C 0.07629 0.57534 0.09122
 O210 O -0.04180 0.55037 0.10051
 O211 O -0.05409 0.45889 -0.05081
 O212 O -0.05449 0.43768 0.03003
 O213 O -0.01853 0.60252 -0.02848
 O214 O -0.06268 0.54439 -0.04575
 O215 O -0.03647 0.46177 0.09914
 O216 O -0.01069 0.60574 0.05633
 O217 O -0.01499 0.39668 -0.03147
 Co218 Co 0.00423 0.50951 0.09406
 Co219 Co -0.01474 0.50886 -0.05807
 Co220 Co 0.00252 0.44515 0.00401
 Co221 Co 0.02720 0.58240 0.01105
 O222 O 0.00659 0.51356 0.01658
 C223 C -0.04020 0.59161 0.08566
 C224 C -0.04576 0.41624 -0.05863
 C225 C -0.06132 0.43767 0.07302
 C226 C -0.05614 0.58706 -0.04335
 O227 O 1.06744 0.04959 0.45747
 O228 O 0.94269 0.05021 0.54302
 O229 O 0.95122 0.00306 0.40495
 O230 O 1.03380 0.00526 0.60011
 O231 O 0.93592 0.05177 0.45862
 O232 O 1.05369 0.05368 0.54539
 O233 O 0.95180 0.00040 0.59746
 O234 O 1.03558 0.00529 0.40393
 C235 C 1.06001 0.03982 0.41550
 C236 C 0.94085 0.04026 0.58508
 C237 C 0.93756 0.04210 0.41651
 C238 C 1.04790 0.04500 0.58772
 O239 O 1.08826 -0.03126 0.55358
 O240 O 0.90042 -0.03511 0.45905
 O241 O 1.03909 -0.08110 0.43116
 O242 O 0.95580 -0.08392 0.55638
 O243 O 0.90237 -0.03658 0.54446
 O244 O 1.09106 -0.03779 0.46684
 O245 O 1.03630 -0.08197 0.56325
 O246 O 0.95210 -0.08322 0.44000
 Co247 Co 1.06736 0.00650 0.50596
 Co248 Co 0.92666 0.00558 0.50172
 Co249 Co 0.99406 -0.03700 0.42801
 Co250 Co 0.99456 -0.03786 0.57306
 O251 O 0.99589 -0.01532 0.50175
 C252 C 1.07688 -0.07159 0.56497
 C253 C 0.91139 -0.07345 0.44228
 C254 C 1.07953 -0.07275 0.44242
 C255 C 0.91498 -0.07604 0.55735
 N256 N 1.10087 0.13831 0.34461
 C257 C 1.13665 0.11978 0.32242
 N258 N 1.14529 0.07413 0.32939
 N259 N 1.11934 0.04820 0.35750
 C260 C 1.08387 0.06690 0.37978
 N261 N 1.07536 0.11252 0.37329
 N262 N 0.81398 -0.10666 0.36776
 C263 C 0.82697 -0.14852 0.35167
 N264 N 0.86493 -0.16758 0.37041
 N265 N 0.89015 -0.14491 0.40197
 C266 C 0.87816 -0.10243 0.41672
 N267 N 0.83917 -0.08403 0.39964
 N268 N 0.90855 0.14269 0.65116
 C269 C 0.86820 0.12850 0.66930
 N270 N 0.85308 0.08462 0.66076
 N271 N 0.87731 0.05609 0.63521
 C272 C 0.91729 0.07048 0.61684
 N273 N 0.93238 0.11439 0.62483
 N274 N 1.12095 -0.17397 0.62605
 C275 C 1.16239 -0.15878 0.64114
 N276 N 1.17706 -0.11581 0.62750
 N277 N 1.15072 -0.08865 0.60117
 C278 C 1.10877 -0.10348 0.58746
 N279 N 1.09462 -0.14681 0.59991
 N280 N 0.36237 1.10481 1.15628
 C281 C 0.34090 1.14163 1.13677
 N282 N 0.35371 1.15671 1.09349
 N283 N 0.38522 1.13449 1.06989
 C284 C 0.40617 1.09730 1.08931
 N285 N 0.39442 1.08322 1.13308
 N286 N 0.36463 0.88435 0.82896
 C287 C 0.34248 0.84891 0.85081
 N288 N 0.34995 0.84229 0.89770
 N289 N 0.37770 0.87088 0.92175
 C290 C 0.39953 0.90648 0.89943
 N291 N 0.39262 0.91226 0.85267
 N292 N 0.65749 0.86462 1.07403
 C293 C 0.66577 0.87466 1.11999
 N294 N 0.64172 0.90866 1.13998
 N295 N 0.61097 0.93180 1.11516
 C296 C 0.60279 0.92183 1.06944
 N297 N 0.62672 0.88800 1.04906
 N298 N 0.64177 1.17819 0.87760
 C299 C 0.65528 1.16352 0.83489
 N300 N 0.63415 1.12589 0.81582
 N301 N 0.60171 1.10314 0.83886
 C302 C 0.58924 1.11682 0.88207
 N303 N 0.60967 1.15495 0.90101
 N304 N 0.12617 0.37061 0.17292
 C305 C 0.14410 0.33643 0.14705
 N306 N 0.13269 0.33333 0.10094
 N307 N 0.10398 0.36316 0.08148
 C308 C 0.08610 0.39736 0.10734
 N309 N 0.09810 0.40094 0.15326
 N310 N -0.14444 0.37343 -0.12605
 C311 C -0.12745 0.33553 -0.14683
 N312 N -0.08363 0.32449 -0.13850
 N313 N -0.05770 0.35022 -0.11007
 C314 C -0.07453 0.38825 -0.08958
 N315 N -0.11823 0.39964 -0.09821
 N316 N 0.10457 0.63411 -0.17421
 C317 C 0.14601 0.64725 -0.15700
 N318 N 0.15893 0.63182 -0.11393
 N319 N 0.13120 0.60524 -0.08857
 C320 C 0.08950 0.59287 -0.10519
 N321 N 0.07669 0.60745 -0.14870
 N322 N -0.12041 0.64479 0.16462
 C323 C -0.13473 0.68180 0.13920
 N324 N -0.11762 0.68945 0.09578
 N325 N -0.08702 0.66103 0.07858
 C326 C -0.07289 0.62390 0.10412
 N327 N -0.09046 0.61608 0.14719
 N328 N 1.12494 0.09098 0.67748
 C329 C 1.11248 0.13588 0.68105
 N330 N 1.07641 0.15054 0.65506
 N331 N 1.05475 0.12151 0.62575
 C332 C 1.06751 0.07660 0.62262
 N333 N 1.10278 0.06191 0.64916
 N334 N 0.87947 -0.17260 0.63350
 C335 C 0.83857 -0.15849 0.64837
 N336 N 0.82062 -0.11977 0.62842
 N337 N 0.84354 -0.09500 0.59665
 C338 C 0.88518 -0.10821 0.58326
 N339 N 0.90234 -0.14786 0.60174
 N340 N 1.12964 -0.17128 0.38392
 C341 C 1.17004 -0.15320 0.36988
 N342 N 1.18243 -0.10993 0.38439
 N343 N 1.15485 -0.08521 0.41049
 C344 C 1.11379 -0.10278 0.42291
 N345 N 1.10191 -0.14638 0.40950
 N346 N 0.90378 0.14259 0.34459
 C347 C 0.86563 0.12575 0.32300
 N348 N 0.85260 0.08111 0.33155
 N349 N 0.87661 0.05432 0.36033
 C350 C 0.91428 0.07125 0.38220
 N351 N 0.92738 0.11595 0.37421
 N352 N 0.09693 0.37736 -0.15998
 C353 C 0.13354 0.35586 -0.14123
 N354 N 0.14905 0.36932 -0.09819
 N355 N 0.12761 0.40137 -0.07403
 C356 C 0.09063 0.42228 -0.09260
 N357 N 0.07604 0.40997 -0.13618
 N358 N -0.11881 0.36954 0.16394
 C359 C -0.14706 0.34140 0.13894
 N360 N -0.14951 0.34697 0.09151
 N361 N -0.12361 0.37887 0.06992
 C362 C -0.09493 0.40664 0.09518
 N363 N -0.09348 0.40159 0.14252
 N364 N -0.10050 0.65774 -0.14005
 C365 C -0.13556 0.67977 -0.12034
 N366 N -0.14530 0.67021 -0.07464
 N367 N -0.12071 0.64006 -0.04973
 C368 C -0.08575 0.61821 -0.06983
 N369 N -0.07609 0.62770 -0.11527
 N370 N 0.17538 0.64687 0.12569
 C371 C 0.16879 0.65214 0.17239
 N372 N 0.13304 0.62988 0.19251
 N373 N 0.10460 0.60396 0.16680
 C374 C 0.11070 0.59944 0.11998
 N375 N 0.14680 0.62110 0.09992
 N376 N 0.31605 1.13486 0.90163
 C377 C 0.32170 1.15293 0.85799
 N378 N 0.35833 1.14079 0.83306
 N379 N 0.38865 1.11198 0.85135
 C380 C 0.38264 1.09332 0.89470
 N381 N 0.34599 1.10546 0.91964
 N382 N 0.37328 0.85430 1.12747
 C383 C 0.33807 0.87018 1.15225
 N384 N 0.32438 0.91437 1.14492
 N385 N 0.34520 0.94172 1.11372
 C386 C 0.38069 0.92589 1.08928
 N387 N 0.39459 0.88189 1.09694
 N388 N 0.63339 1.10108 1.16674
 C389 C 0.64813 1.14308 1.15038
 N390 N 0.62811 1.16115 1.11143
 N391 N 0.59569 1.13744 1.08882
 C392 C 0.58177 1.09496 1.10440
 N393 N 0.60087 1.07733 1.14408
 N394 N 0.67396 0.89314 0.90295
 C395 C 0.66788 0.87629 0.85897
 N396 N 0.63165 0.89014 0.83307
 N397 N 0.60223 0.91942 0.85059
 C398 C 0.60851 0.93676 0.89425
 N399 N 0.64484 0.92308 0.92023
   
