data_POSCAR
  _audit_creation_date              2014-09-24
  _audit_creation_method            'ToBaCCo'
  _symmetry_space_group_name_H-M    'P1'
  _symmetry_Int_Tables_number       1
  _symmetry_cell_setting            triclinic
  loop_
  _symmetry_equiv_pos_as_xyz
 x,y,z
_cell_length_a 18.9783
_cell_length_b 18.9781
_cell_length_c 19.0268
_cell_angle_alpha 90.162200
_cell_angle_beta 90.162300
_cell_angle_gamma 90.000100
loop_
  _atom_site_label
  _atom_site_type_symbol
  _atom_site_fract_x
  _atom_site_fract_y
  _atom_site_fract_z
O1 O 0.43282 0.94256 -0.56782
 O2 O 0.57034 0.94243 -0.43054
 O3 O 0.43308 0.94059 -0.43099
 O4 O 0.56995 0.94077 -0.56752
 O5 O 0.57008 1.05731 -0.56723
 O6 O 0.43290 1.05712 -0.43038
 O7 O 0.57017 1.05894 -0.43024
 O8 O 0.43296 1.05910 -0.56720
 Cu9 Cu 0.50158 0.92984 -0.49923
 Cu10 Cu 0.50156 1.06987 -0.49868
 C11 C 0.40973 1.00096 -0.59068
 C12 C 0.59344 1.00077 -0.40720
 C13 C 0.40981 0.99872 -0.40767
 C14 C 0.59304 0.99896 -0.59055
 O15 O -0.57087 1.43144 0.05882
 O16 O -0.43379 1.56853 0.05851
 O17 O -0.57103 1.56883 0.05685
 O18 O -0.43362 1.43142 0.05688
 O19 O -0.43425 1.43109 -0.05936
 O20 O -0.57133 1.56818 -0.05937
 O21 O -0.43407 1.56821 -0.05773
 O22 O -0.57147 1.43080 -0.05740
 Cu23 Cu -0.50235 1.50010 0.06948
 Cu24 Cu -0.50289 1.49953 -0.07018
 C25 C -0.59428 1.40786 0.00087
 C26 C -0.41069 1.59145 0.00045
 C27 C -0.59428 1.59177 -0.00137
 C28 C -0.41069 1.40817 -0.00135
 O29 O -0.05709 0.43247 0.43217
 O30 O -0.05722 0.56998 0.56947
 O31 O -0.05888 0.56961 0.43250
 O32 O -0.05905 0.43272 0.56900
 O33 O 0.05748 0.43253 0.56961
 O34 O 0.05766 0.56973 0.43277
 O35 O 0.05930 0.56980 0.56977
 O36 O 0.05945 0.43261 0.43278
 Cu37 Cu -0.06981 0.50122 0.50077
 Cu38 Cu 0.07022 0.50120 0.50131
 C39 C 0.00131 0.40939 0.40931
 C40 C 0.00113 0.59306 0.59281
 C41 C -0.00069 0.59269 0.40946
 C42 C -0.00092 0.40944 0.59232
 O43 O -0.18140 1.00182 -0.09574
 O44 O 0.18150 0.99754 -0.09520
 O45 O -0.00222 1.09493 -0.18119
 O46 O 0.00207 0.90418 -0.18143
 O47 O 0.00215 0.81822 -0.09571
 O48 O -0.00213 1.18112 -0.09523
 O49 O 0.09531 0.99741 -0.18117
 O50 O -0.09544 1.00169 -0.18145
 Zr51 Zr 0.00000 0.99963 -0.12409
 O52 O 0.06407 0.93572 -0.06414
 O53 O -0.06393 1.06371 -0.06418
 C54 C -0.16039 1.00261 -0.16052
 C55 C 0.16032 0.99657 -0.16004
 C56 C -0.00307 1.15993 -0.16006
 C57 C 0.00297 0.83923 -0.16049
 H58 H 0.09367 1.09331 -0.09349
 O59 O 0.06365 1.06329 -0.06357
 H60 H -0.09362 0.90603 -0.09398
 O61 O -0.06350 0.93614 -0.06391
 O62 O 0.18178 1.00210 0.09504
 O63 O -0.18109 0.99781 0.09462
 O64 O 0.09550 1.18130 0.00212
 O65 O 0.09549 0.81833 -0.00255
 O66 O -0.09527 0.81839 0.00147
 O67 O -0.09528 1.18124 -0.00238
 O68 O 0.00260 1.09547 0.18073
 O69 O -0.00169 0.90483 0.18052
 O70 O 0.00243 1.18143 0.09502
 O71 O -0.00187 0.81856 0.09464
 O72 O 0.18161 1.09527 0.00214
 O73 O -0.18131 1.09514 -0.00259
 O74 O -0.18130 0.90449 0.00145
 O75 O 0.18160 0.90437 -0.00235
 O76 O 0.09581 1.00226 0.18074
 O77 O -0.09483 0.99797 0.18051
 Zr78 Zr 0.12427 0.99982 -0.00017
 Zr79 Zr -0.12391 0.99982 -0.00050
 Zr80 Zr 0.00014 1.12391 -0.00018
 Zr81 Zr 0.00014 0.87572 -0.00048
 Zr82 Zr 0.00038 1.00004 0.12338
 O83 O -0.06373 0.93593 0.06333
 O84 O 0.06428 1.06394 0.06364
 C85 C 0.16075 1.00308 0.15982
 C86 C -0.15985 0.99703 0.15944
 C87 C 0.16049 1.16025 0.00304
 C88 C 0.16047 0.83939 -0.00332
 C89 C -0.16024 0.83952 0.00230
 C90 C -0.16025 1.16012 -0.00336
 C91 C 0.00341 1.16041 0.15980
 C92 C -0.00264 0.83981 0.15946
 H93 H -0.09334 1.09362 0.09306
 O94 O -0.06332 1.06351 0.06306
 H95 H 0.09395 0.90632 0.09307
 O96 O 0.06384 0.93634 0.06306
 C97 C 0.35635 1.00140 0.35582
 C98 C 0.31153 1.00215 0.31084
 C99 C 0.25905 1.00306 0.25817
 C100 C 0.21420 1.00347 0.21322
 C101 C -0.35399 0.99864 0.35583
 C102 C -0.30958 0.99796 0.31069
 C103 C -0.25757 0.99710 0.25783
 C104 C -0.21305 0.99669 0.21279
 C105 C -0.35605 1.00107 -0.35657
 C106 C -0.31121 1.00172 -0.31157
 C107 C -0.25871 1.00256 -0.25888
 C108 C -0.21385 1.00295 -0.21393
 C109 C 0.35629 0.99826 -0.35460
 C110 C 0.31129 0.99749 -0.31004
 C111 C 0.25863 0.99658 -0.25784
 C112 C 0.21370 0.99618 -0.21322
 C113 C 0.35541 1.35702 0.00133
 C114 C 0.31079 1.31182 0.00209
 C115 C 0.25853 1.25890 0.00302
 C116 C 0.21384 1.21378 0.00343
 C117 C 0.35540 0.64261 -0.00173
 C118 C 0.31078 0.68781 -0.00242
 C119 C 0.25852 0.74074 -0.00328
 C120 C 0.21382 0.78586 -0.00368
 C121 C -0.35697 0.64462 0.00072
 C122 C -0.31178 0.68924 0.00136
 C123 C -0.25887 0.74149 0.00220
 C124 C -0.21375 0.78618 0.00261
 C125 C -0.35698 1.35501 -0.00173
 C126 C -0.31179 1.31039 -0.00244
 C127 C -0.25888 1.25815 -0.00333
 C128 C -0.21376 1.21346 -0.00373
 C129 C 0.00175 1.35602 0.35580
 C130 C 0.00249 1.31120 0.31081
 C131 C 0.00340 1.25872 0.25814
 C132 C 0.00381 1.21387 0.21319
 C133 C -0.00138 1.35591 -0.35462
 C134 C -0.00215 1.31091 -0.31007
 C135 C -0.00306 1.25825 -0.25787
 C136 C -0.00346 1.21331 -0.21324
 C137 C 0.00143 0.64357 -0.35655
 C138 C 0.00208 0.68841 -0.31154
 C139 C 0.00292 0.74090 -0.25885
 C140 C 0.00331 0.78576 -0.21390
 C141 C -0.00102 0.64567 0.35585
 C142 C -0.00170 0.69009 0.31071
 C143 C -0.00256 0.74210 0.25785
 C144 C -0.00297 0.78661 0.21282
   
