data_POSCAR
  _audit_creation_date              2014-09-24
  _audit_creation_method            'ToBaCCo'
  _symmetry_space_group_name_H-M    'P1'
  _symmetry_Int_Tables_number       1
  _symmetry_cell_setting            triclinic
  loop_
  _symmetry_equiv_pos_as_xyz
 x,y,z
_cell_length_a 37.9972
_cell_length_b 36.1326
_cell_length_c 37.4839
_cell_angle_alpha 84.487900
_cell_angle_beta 94.847300
_cell_angle_gamma 94.686500
loop_
  _atom_site_label
  _atom_site_type_symbol
  _atom_site_fract_x
  _atom_site_fract_y
  _atom_site_fract_z
C1 C 0.30661 0.31460 0.23737
 H2 H 0.30893 0.31631 0.26615
 C3 C 0.32999 0.33644 0.21577
 H4 H 0.35033 0.35491 0.22814
 C5 C 0.27818 0.28721 0.18656
 H6 H 0.25845 0.26750 0.17529
 C7 C 0.30112 0.30833 0.16402
 H8 H 0.29818 0.30522 0.13545
 N9 N 0.28113 0.29084 0.22250
 C10 C 0.20097 0.27059 0.30064
 H11 H 0.19843 0.24043 0.30302
 C12 C 0.18055 0.29018 0.32056
 H13 H 0.16267 0.27479 0.33859
 C14 C 0.22799 0.32706 0.27463
 H15 H 0.24612 0.34136 0.25634
 C16 C 0.20808 0.34777 0.29403
 H17 H 0.21113 0.37792 0.29036
 Zn18 Zn 0.25183 0.26019 0.25359
 N19 N 0.22456 0.28915 0.27873
 C20 C 0.28121 0.23166 0.32237
 N21 N 0.28209 0.23169 0.28616
 C22 C 0.30527 0.21165 0.27181
 C23 C 0.32798 0.18946 0.29409
 C24 C 0.30336 0.20972 0.34566
 C25 C 0.19561 0.24400 0.20264
 C26 C 0.17258 0.22176 0.18113
 C27 C 0.19918 0.16737 0.21082
 C28 C 0.22167 0.19063 0.23173
 N29 N 0.22005 0.22826 0.22677
 H30 H 0.26333 0.24854 0.33333
 H31 H 0.30572 0.21255 0.24291
 H32 H 0.34558 0.17296 0.28210
 H33 H 0.30223 0.20992 0.37441
 H34 H 0.19459 0.27398 0.19957
 H35 H 0.15411 0.23492 0.16124
 H36 H 0.20100 0.13751 0.21507
 H37 H 0.24052 0.17851 0.25175
 C38 C 0.18418 0.32933 0.31762
 C39 C 0.32749 0.33331 0.17857
 C40 C 0.17454 0.18291 0.18474
 C41 C 0.32695 0.18803 0.33156
 C42 C 0.79816 0.81562 0.24227
 H43 H 0.80205 0.81517 0.27124
 C44 C 0.82139 0.83775 0.22076
 H45 H 0.84327 0.85324 0.23424
 C46 C 0.76625 0.79291 0.19099
 H47 H 0.74516 0.77493 0.17939
 C48 C 0.78876 0.81458 0.16841
 H49 H 0.78286 0.81371 0.13978
 N50 N 0.77118 0.79389 0.22720
 C51 C 0.69637 0.77141 0.31032
 H52 H 0.69415 0.74125 0.31260
 C53 C 0.67683 0.79064 0.33142
 H54 H 0.65999 0.77500 0.35033
 C55 C 0.72130 0.82829 0.28291
 H56 H 0.73813 0.84285 0.26349
 C57 C 0.70222 0.84864 0.30346
 H58 H 0.70462 0.87879 0.29956
 Zn59 Zn 0.74294 0.76229 0.25857
 N60 N 0.71829 0.79038 0.28691
 C61 C 0.77712 0.73005 0.32414
 N62 N 0.77420 0.73168 0.28759
 C63 C 0.79420 0.71127 0.26964
 C64 C 0.81695 0.68661 0.28843
 C65 C 0.79991 0.70591 0.34409
 C66 C 0.68492 0.74874 0.20806
 C67 C 0.66168 0.72728 0.18593
 C68 C 0.68649 0.67191 0.21561
 C69 C 0.70928 0.69437 0.23697
 N70 N 0.70900 0.73212 0.23202
 H71 H 0.76161 0.74715 0.33790
 H72 H 0.79184 0.71366 0.24055
 H73 H 0.83228 0.67022 0.27362
 H74 H 0.80140 0.70420 0.37317
 H75 H 0.68471 0.77880 0.20519
 H76 H 0.64392 0.74111 0.16578
 H77 H 0.68758 0.64194 0.21963
 H78 H 0.72747 0.68148 0.25718
 C79 C 0.67963 0.82981 0.32814
 C80 C 0.81734 0.83745 0.18294
 C81 C 0.66297 0.68836 0.18896
 C82 C 0.81968 0.68335 0.32615
 C83 C 0.79647 0.31144 0.73311
 H84 H 0.79988 0.31522 0.76151
 C85 C 0.81769 0.33316 0.70921
 H86 H 0.83667 0.35422 0.71957
 C87 C 0.76723 0.27942 0.68553
 H88 H 0.74804 0.25792 0.67647
 C89 C 0.78838 0.29992 0.66083
 H90 H 0.78514 0.29349 0.63309
 N91 N 0.77151 0.28554 0.72091
 C92 C 0.69633 0.26589 0.80428
 H93 H 0.69415 0.23573 0.80738
 C94 C 0.67688 0.28582 0.82490
 H95 H 0.66003 0.27081 0.84418
 C96 C 0.72131 0.32206 0.77561
 H97 H 0.73805 0.33617 0.75591
 C98 C 0.70257 0.34306 0.79584
 H99 H 0.70530 0.37319 0.79158
 Zn100 Zn 0.74477 0.25511 0.75448
 N101 N 0.71853 0.28418 0.78071
 C102 C 0.77843 0.22867 0.82195
 N103 N 0.77727 0.22802 0.78574
 C104 C 0.80014 0.20856 0.77047
 C105 C 0.82443 0.18739 0.79173
 C106 C 0.80232 0.20798 0.84439
 C107 C 0.68438 0.23709 0.70980
 C108 C 0.66017 0.21464 0.68971
 C109 C 0.69331 0.16166 0.71137
 C110 C 0.71650 0.18502 0.73153
 N111 N 0.71213 0.22214 0.72979
 H112 H 0.76099 0.24547 0.83364
 H113 H 0.79898 0.20889 0.74149
 H114 H 0.84014 0.17088 0.77764
 H115 H 0.80266 0.21095 0.87279
 H116 H 0.68128 0.26665 0.70924
 H117 H 0.63817 0.22722 0.67425
 H118 H 0.69839 0.13257 0.71204
 H119 H 0.73836 0.17345 0.74794
 C120 C 0.68028 0.32494 0.82113
 C121 C 0.81406 0.32740 0.67244
 C122 C 0.66475 0.17639 0.68977
 C123 C 0.82600 0.18609 0.82980
 C124 C 0.28669 0.80561 0.73747
 H125 H 0.28888 0.80929 0.76589
 C126 C 0.30844 0.82789 0.71450
 H127 H 0.32666 0.84921 0.72555
 C128 C 0.25988 0.77339 0.68891
 H129 H 0.24162 0.75146 0.67916
 C130 C 0.28154 0.79454 0.66511
 H131 H 0.27952 0.78837 0.63730
 N132 N 0.26256 0.77946 0.72431
 C133 C 0.19026 0.76132 0.81027
 H134 H 0.18937 0.73129 0.81536
 C135 C 0.17153 0.78204 0.83085
 H136 H 0.15665 0.76774 0.85213
 C137 C 0.21097 0.81636 0.77643
 H138 H 0.22557 0.82964 0.75461
 C139 C 0.19270 0.83812 0.79634
 H140 H 0.19369 0.86800 0.78966
 Zn141 Zn 0.23496 0.74914 0.75722
 N142 N 0.21001 0.77874 0.78410
 C143 C 0.27136 0.72125 0.82355
 N144 N 0.26699 0.72027 0.78722
 C145 C 0.28640 0.69863 0.76995
 C146 C 0.31017 0.67547 0.78933
 C147 C 0.29522 0.69868 0.84406
 C148 C 0.17774 0.73322 0.70707
 C149 C 0.15453 0.71094 0.68574
 C150 C 0.17869 0.65640 0.71794
 C151 C 0.20142 0.67970 0.73859
 N152 N 0.20133 0.71738 0.73211
 H153 H 0.25637 0.73937 0.83671
 H154 H 0.28292 0.69900 0.74097
 H155 H 0.32512 0.65819 0.77505
 H156 H 0.29801 0.69917 0.87300
 H157 H 0.17788 0.76327 0.70280
 H158 H 0.13708 0.72412 0.66484
 H159 H 0.17956 0.62648 0.72318
 H160 H 0.21942 0.66753 0.75946
 C161 C 0.17286 0.82104 0.82417
 C162 C 0.30619 0.82245 0.67770
 C163 C 0.15539 0.67197 0.69052
 C164 C 0.31456 0.67501 0.82691
 C165 C 0.03398 -0.03241 -0.02762
 C166 C 0.05715 -0.00797 -0.00218
 C167 C 0.03872 0.01348 0.01646
 C168 C -0.00159 0.00820 0.00828
 C169 C 0.00809 -0.05512 -0.00291
 C170 C -0.01061 -0.03390 0.01577
 C171 C 0.01104 -0.00523 -0.05126
 C172 C -0.00765 0.01596 -0.03267
 H173 H 0.08578 -0.00744 0.00033
 H174 H -0.01668 0.02558 0.02343
 H175 H 0.00644 -0.08510 0.00198
 H176 H 0.00873 -0.00420 -0.08034
 C177 C 0.03361 0.46320 0.46550
 C178 C 0.05354 0.48728 0.49337
 C179 C 0.03243 0.50707 0.51085
 C180 C -0.00721 0.50071 0.49898
 C181 C 0.00626 0.43864 0.48706
 C182 C -0.01498 0.45829 0.50447
 C183 C 0.01161 0.49023 0.44078
 C184 C -0.01019 0.50958 0.45787
 H185 H 0.08205 0.48842 0.49865
 H186 H -0.02486 0.51604 0.51344
 H187 H 0.00512 0.40856 0.49079
 H188 H 0.01296 0.49302 0.41190
 C189 C 0.52917 -0.03768 0.47713
 C190 C 0.55045 -0.01595 0.50608
 C191 C 0.53051 0.00392 0.52468
 C192 C 0.49075 -0.00037 0.51341
 C193 C 0.50113 -0.06210 0.49789
 C194 C 0.48113 -0.04255 0.51676
 C195 C 0.50798 -0.00851 0.45400
 C196 C 0.48772 0.01096 0.47276
 H197 H 0.57905 -0.01508 0.51032
 H198 H 0.47465 0.01535 0.52923
 H199 H 0.49815 -0.09217 0.49959
 H200 H 0.50764 -0.00528 0.42495
 C201 C 0.54346 0.47344 -0.03101
 C202 C 0.56309 0.50160 -0.00662
 C203 C 0.54155 0.52071 0.01098
 C204 C 0.50193 0.51082 0.00177
 C205 C 0.51879 0.44901 -0.00653
 C206 C 0.49719 0.46841 0.01076
 C207 C 0.51873 0.49721 -0.05639
 C208 C 0.49655 0.51638 -0.03955
 H209 H 0.59144 0.50755 -0.00434
 H210 H 0.48406 0.52634 0.01573
 H211 H 0.51953 0.41900 -0.00225
 H212 H 0.51911 0.49876 -0.08534
 C213 C 0.11694 -0.11298 -0.11362
 C214 C 0.15106 -0.10027 -0.12335
 C215 C 0.16923 -0.12179 -0.14358
 C216 C 0.15377 -0.15609 -0.15401
 C217 C 0.11988 -0.16809 -0.14325
 N218 N 0.10263 -0.14657 -0.12365
 C219 C 0.09629 -0.09152 -0.09206
 N220 N 0.06936 -0.10975 -0.07417
 C221 C 0.04914 -0.09231 -0.05370
 C222 C 0.05561 -0.05386 -0.05005
 C223 C 0.08252 -0.03436 -0.06941
 C224 C 0.10287 -0.05292 -0.09023
 H225 H 0.19565 -0.11186 -0.15055
 H226 H 0.10686 -0.19424 -0.15086
 H227 H 0.02795 -0.10879 -0.04105
 H228 H 0.08772 -0.00454 -0.06846
 H229 H 0.16407 -0.07445 -0.11497
 H230 H 0.12296 -0.03686 -0.10513
 C231 C 0.12403 0.39016 0.38072
 C232 C 0.15940 0.40244 0.37535
 C233 C 0.17890 0.38278 0.35460
 C234 C 0.16346 0.35077 0.33930
 C235 C 0.12814 0.33926 0.34557
 N236 N 0.10967 0.35890 0.36583
 C237 C 0.10197 0.40956 0.40271
 N238 N 0.07304 0.39046 0.41642
 C239 C 0.05121 0.40614 0.43662
 C240 C 0.05796 0.44355 0.44436
 C241 C 0.08706 0.46403 0.42936
 C242 C 0.10913 0.44725 0.40882
 H243 H 0.20630 0.39218 0.35118
 H244 H 0.11505 0.31492 0.33409
 H245 H 0.02835 0.38930 0.44562
 H246 H 0.09252 0.49332 0.43323
 H247 H 0.17233 0.42638 0.38758
 H248 H 0.13089 0.46406 0.39724
 C249 C 0.61904 -0.10975 0.39105
 C250 C 0.65406 -0.09668 0.38494
 C251 C 0.67379 -0.11633 0.36441
 C252 C 0.65892 -0.14908 0.35009
 C253 C 0.62397 -0.16140 0.35714
 N254 N 0.60527 -0.14176 0.37716
 C255 C 0.59677 -0.09046 0.41287
 N256 N 0.56868 -0.11013 0.42762
 C257 C 0.54682 -0.09472 0.44799
 C258 C 0.55268 -0.05695 0.45475
 C259 C 0.58092 -0.03594 0.43871
 C260 C 0.60299 -0.05245 0.41798
 H261 H 0.70091 -0.10626 0.36032
 H262 H 0.61131 -0.18631 0.34638
 H263 H 0.52489 -0.11223 0.45809
 H264 H 0.58583 -0.00650 0.44218
 H265 H 0.66654 -0.07209 0.39640
 H266 H 0.62411 -0.03528 0.40564
 C267 C 0.62560 0.38749 -0.11257
 C268 C 0.66103 0.39826 -0.11900
 C269 C 0.67875 0.37792 -0.14068
 C270 C 0.66139 0.34683 -0.15604
 C271 C 0.62590 0.33708 -0.14915
 N272 N 0.60907 0.35751 -0.12810
 C273 C 0.60558 0.40861 -0.09020
 N274 N 0.56986 0.40913 -0.09687
 C275 C 0.55006 0.42891 -0.07803
 C276 C 0.56612 0.45029 -0.05076
 C277 C 0.60277 0.44830 -0.04227
 C278 C 0.62247 0.42784 -0.06200
 H279 H 0.70616 0.38629 -0.14518
 H280 H 0.61143 0.31358 -0.16088
 H281 H 0.52175 0.42834 -0.08464
 H282 H 0.61666 0.46181 -0.02022
 H283 H 0.67484 0.42250 -0.10798
 H284 H 0.65055 0.42665 -0.05473
 C285 C -0.10491 0.11759 -0.10572
 C286 C -0.13284 0.13170 -0.09044
 C287 C -0.15559 0.15473 -0.11167
 C288 C -0.15103 0.16447 -0.14866
 C289 C -0.12161 0.15021 -0.16223
 N290 N -0.10002 0.12779 -0.14086
 C291 C -0.08025 0.09209 -0.08515
 N292 N -0.04940 0.08689 -0.09937
 C293 C -0.02578 0.06316 -0.08307
 C294 C -0.03266 0.04266 -0.05036
 C295 C -0.06422 0.04751 -0.03511
 C296 C -0.08812 0.07200 -0.05239
 H297 H -0.17765 0.16295 -0.09870
 H298 H -0.11435 0.15765 -0.18931
 H299 H -0.00159 0.06054 -0.09562
 H300 H -0.07099 0.03160 -0.01035
 H301 H -0.13744 0.12524 -0.06240
 H302 H -0.11271 0.07411 -0.04049
 C303 C -0.11198 0.60497 0.38216
 C304 C -0.13539 0.59428 0.35325
 C305 C -0.15777 0.61980 0.33531
 C306 C -0.15750 0.65583 0.34628
 C307 C -0.13483 0.66505 0.37617
 N308 N -0.11280 0.63983 0.39297
 C309 C -0.08631 0.57954 0.40106
 N310 N -0.07188 0.58634 0.43453
 C311 C -0.04777 0.56454 0.45320
 C312 C -0.03646 0.53389 0.43808
 C313 C -0.05101 0.52647 0.40357
 C314 C -0.07555 0.54922 0.38497
 H315 H -0.17556 0.61128 0.31296
 H316 H -0.13394 0.69255 0.38553
 H317 H -0.03719 0.57161 0.47952
 H318 H -0.04379 0.50281 0.39088
 H319 H -0.13688 0.56650 0.34454
 H320 H -0.08531 0.54319 0.35807
 C321 C 0.39281 0.11504 0.39923
 C322 C 0.35774 0.11814 0.40739
 C323 C 0.33652 0.14237 0.38567
 C324 C 0.34983 0.16344 0.35569
 C325 C 0.38498 0.15979 0.34858
 N326 N 0.40517 0.13606 0.37013
 C327 C 0.41671 0.08884 0.42010
 N328 N 0.44830 0.08430 0.40699
 C329 C 0.47150 0.06023 0.42347
 C330 C 0.46343 0.03855 0.45524
 C331 C 0.43134 0.04311 0.46965
 C332 C 0.40804 0.06822 0.45237
 H333 H 0.30935 0.14389 0.39179
 H334 H 0.39646 0.17582 0.32596
 H335 H 0.49623 0.05818 0.41171
 H336 H 0.42372 0.02666 0.49382
 H337 H 0.34614 0.10176 0.42963
 H338 H 0.38370 0.07093 0.46445
 C339 C 0.38789 0.60269 -0.11570
 C340 C 0.36349 0.58914 -0.14256
 C341 C 0.33940 0.61266 -0.16087
 C342 C 0.33899 0.64952 -0.15228
 C343 C 0.36273 0.66162 -0.12428
 N344 N 0.38638 0.63831 -0.10710
 C345 C 0.41534 0.57949 -0.09663
 N346 N 0.43121 0.58931 -0.06459
 C347 C 0.45698 0.56973 -0.04588
 C348 C 0.46854 0.53831 -0.05948
 C349 C 0.45262 0.52784 -0.09253
 C350 C 0.42635 0.54835 -0.11122
 H351 H 0.32089 0.60196 -0.18168
 H352 H 0.36318 0.68985 -0.11678
 H353 H 0.46869 0.57917 -0.02078
 H354 H 0.46015 0.50352 -0.10396
 H355 H 0.36256 0.56068 -0.14941
 H356 H 0.41547 0.54000 -0.13704
 C357 C -0.10980 -0.10110 0.11573
 C358 C -0.11354 -0.08992 0.14997
 C359 C -0.13770 -0.10988 0.17199
 C360 C -0.15850 -0.14136 0.16045
 C361 C -0.15377 -0.15129 0.12571
 N362 N -0.12999 -0.13143 0.10496
 C363 C -0.08416 -0.08209 0.09090
 N364 N -0.07954 -0.09836 0.06049
 C365 C -0.05649 -0.08354 0.03625
 C366 C -0.03613 -0.05015 0.04186
 C367 C -0.04059 -0.03257 0.07277
 C368 C -0.06454 -0.04829 0.09726
 H369 H -0.14053 -0.09953 0.19762
 H370 H -0.16752 -0.17577 0.11525
 H371 H -0.05442 -0.09775 0.01247
 H372 H -0.02514 -0.00700 0.07844
 H373 H -0.09809 -0.06627 0.16021
 H374 H -0.06735 -0.03377 0.12059
 C375 C -0.11718 0.38666 0.59771
 C376 C -0.15199 0.37533 0.58580
 C377 C -0.17463 0.35686 0.61023
 C378 C -0.16259 0.34900 0.64649
 C379 C -0.12756 0.36143 0.65727
 N380 N -0.10616 0.37978 0.63302
 C381 C -0.09209 0.40546 0.57266
 N382 N -0.06874 0.43346 0.58375
 C383 C -0.04443 0.45121 0.56215
 C384 C -0.04206 0.44016 0.52765
 C385 C -0.06558 0.41116 0.51580
 C386 C -0.09087 0.39397 0.53809
 H387 H -0.20161 0.34897 0.60065
 H388 H -0.11674 0.35578 0.68469
 H389 H -0.02642 0.47328 0.57223
 H390 H -0.06447 0.40200 0.48927
 H391 H -0.16174 0.38110 0.55799
 H392 H -0.10864 0.37133 0.52877
 C393 C 0.37599 -0.11553 0.60580
 C394 C 0.34147 -0.12691 0.59293
 C395 C 0.31850 -0.14640 0.61646
 C396 C 0.32989 -0.15506 0.65275
 C397 C 0.36457 -0.14248 0.66457
 N398 N 0.38634 -0.12325 0.64117
 C399 C 0.40160 -0.09598 0.58169
 N400 N 0.42544 -0.06918 0.59431
 C401 C 0.45047 -0.05111 0.57375
 C402 C 0.45307 -0.06063 0.53875
 C403 C 0.42893 -0.08827 0.52527
 C404 C 0.40297 -0.10581 0.54654
 H405 H 0.29178 -0.15444 0.60618
 H406 H 0.37482 -0.14870 0.69210
 H407 H 0.46891 -0.03010 0.58508
 H408 H 0.43014 -0.09622 0.49829
 H409 H 0.33220 -0.12048 0.56509
 H410 H 0.38488 -0.12755 0.53596
 C411 C 0.40025 0.39621 0.11049
 C412 C 0.38618 0.41350 0.13764
 C413 C 0.36261 0.39297 0.15995
 C414 C 0.35262 0.35543 0.15516
 C415 C 0.36695 0.33932 0.12754
 N416 N 0.39000 0.35977 0.10632
 C417 C 0.42536 0.41614 0.08564
 N418 N 0.43155 0.39984 0.05569
 C419 C 0.45428 0.41580 0.03156
 C420 C 0.47247 0.45045 0.03682
 C421 C 0.46680 0.46771 0.06756
 C422 C 0.44350 0.45067 0.09208
 H423 H 0.35167 0.40664 0.18053
 H424 H 0.36023 0.31035 0.12310
 H425 H 0.45772 0.40162 0.00809
 H426 H 0.48097 0.49403 0.07311
 H427 H 0.39253 0.44258 0.14152
 H428 H 0.44052 0.46433 0.11592
 C429 C 0.11036 0.11337 0.11452
 C430 C 0.09546 0.14304 0.12802
 C431 C 0.11629 0.16571 0.15099
 C432 C 0.15178 0.15879 0.16084
 C433 C 0.16545 0.12858 0.14715
 N434 N 0.14474 0.10705 0.12474
 C435 C 0.09015 0.08826 0.08979
 N436 N 0.10328 0.05510 0.08572
 C437 C 0.08726 0.03078 0.06289
 C438 C 0.05603 0.03935 0.04210
 C439 C 0.04189 0.07330 0.04582
 C440 C 0.05886 0.09788 0.06948
 H441 H 0.10449 0.18830 0.16146
 H442 H 0.19276 0.12242 0.15369
 H443 H 0.09887 0.00469 0.06126
 H444 H 0.01827 0.08139 0.02973
 H445 H 0.06802 0.14857 0.12158
 H446 H 0.04793 0.12434 0.07088
 C447 C 0.09459 0.60286 0.61740
 C448 C 0.07910 0.63295 0.62954
 C449 C 0.09871 0.65536 0.65364
 C450 C 0.13352 0.64775 0.66600
 C451 C 0.14769 0.61703 0.65376
 N452 N 0.12823 0.59585 0.63015
 C453 C 0.07613 0.57838 0.59100
 N454 N 0.09037 0.54588 0.58669
 C455 C 0.07656 0.52249 0.56197
 C456 C 0.04662 0.53144 0.53921
 C457 C 0.03108 0.56447 0.54345
 C458 C 0.04575 0.58808 0.56912
 H459 H 0.08655 0.67841 0.66286
 H460 H 0.17455 0.61034 0.66219
 H461 H 0.08907 0.49696 0.56022
 H462 H 0.00829 0.57274 0.52621
 H463 H 0.05219 0.63917 0.62102
 H464 H 0.03387 0.61397 0.57075
 C465 C 0.59897 0.10559 0.62181
 C466 C 0.60491 0.14361 0.61073
 C467 C 0.62593 0.16674 0.63301
 C468 C 0.64077 0.15230 0.66659
 C469 C 0.63345 0.11414 0.67689
 N470 N 0.61345 0.09204 0.65440
 C471 C 0.57938 0.07953 0.59790
 N472 N 0.59005 0.04442 0.59830
 C473 C 0.57445 0.01958 0.57571
 C474 C 0.54620 0.02959 0.55107
 C475 C 0.53401 0.06517 0.55099
 C476 C 0.55064 0.09031 0.57422
 H477 H 0.63143 0.19564 0.62330
 H478 H 0.64366 0.10173 0.70270
 H479 H 0.58422 -0.00785 0.57688
 H480 H 0.51236 0.07393 0.53225
 H481 H 0.59464 0.15511 0.58454
 H482 H 0.54113 0.11781 0.57364
 C483 C 0.60304 0.62048 0.11421
 C484 C 0.58707 0.64991 0.12697
 C485 C 0.60645 0.67216 0.15143
 C486 C 0.64149 0.66502 0.16339
 C487 C 0.65627 0.63530 0.15008
 N488 N 0.63700 0.61422 0.12632
 C489 C 0.58477 0.59541 0.08828
 N490 N 0.60031 0.56380 0.08358
 C491 C 0.58676 0.53962 0.05958
 C492 C 0.55563 0.54667 0.03797
 C493 C 0.53865 0.57873 0.04261
 C494 C 0.55317 0.60329 0.06758
 H495 H 0.59390 0.69456 0.16136
 H496 H 0.68335 0.62911 0.15802
 H497 H 0.60035 0.51480 0.05762
 H498 H 0.51475 0.58538 0.02635
 H499 H 0.55995 0.65560 0.11881
 H500 H 0.54011 0.62834 0.06974
   
