data_POSCAR
  _audit_creation_date              2014-09-24
  _audit_creation_method            'ToBaCCo'
  _symmetry_space_group_name_H-M    'P1'
  _symmetry_Int_Tables_number       1
  _symmetry_cell_setting            triclinic
  loop_
  _symmetry_equiv_pos_as_xyz
 x,y,z
_cell_length_a 22.6895
_cell_length_b 23.0635
_cell_length_c 37.3353
_cell_angle_alpha 85.560000
_cell_angle_beta 90.906700
_cell_angle_gamma 90.445000
loop_
  _atom_site_label
  _atom_site_type_symbol
  _atom_site_fract_x
  _atom_site_fract_y
  _atom_site_fract_z
O1 O -0.04938 0.55266 0.95877
 O2 O -0.06001 0.44221 1.03463
 O3 O -0.05792 0.55629 1.02808
 O4 O -0.04580 0.44014 0.96553
 O5 O 0.05100 0.44380 0.97147
 O6 O 0.03900 0.55591 1.03512
 O7 O 0.03675 0.44097 1.04038
 O8 O 0.04728 0.55671 0.96662
 Cu9 Cu -0.06302 0.49755 0.99633
 Cu10 Cu 0.05318 0.49924 1.00435
 C11 C 0.00051 0.57410 0.95007
 C12 C -0.01365 0.42122 1.04989
 C13 C -0.01098 0.57667 1.04145
 C14 C 0.00505 0.42273 0.95749
 O15 O 0.55707 -0.05189 0.53848
 O16 O 0.44593 -0.04534 0.46501
 O17 O 0.56134 -0.04620 0.46798
 O18 O 0.44311 -0.05158 0.53457
 O19 O 0.44523 0.04411 0.53397
 O20 O 0.56240 0.04975 0.46664
 O21 O 0.44668 0.05037 0.46405
 O22 O 0.56040 0.04392 0.53527
 Cu23 Cu 0.50191 -0.05838 0.50149
 Cu24 Cu 0.50349 0.05665 0.49972
 C25 C 0.57837 -0.00492 0.54917
 C26 C 0.42641 0.00372 0.45249
 C27 C 0.58266 0.00269 0.45646
 C28 C 0.42400 -0.00473 0.54576
 C29 C -0.00431 -0.02980 0.24754
 C30 C 0.00578 0.02701 0.75219
 C31 C 0.01517 -0.27179 0.06817
 C32 C -0.01040 -0.27279 0.10256
 C33 C -0.03637 -0.32572 0.11675
 C34 C -0.03894 -0.37450 0.09625
 C35 C -0.01322 -0.37217 0.06238
 C36 C 0.01410 -0.32091 0.04870
 C37 C -0.05846 -0.32993 0.15152
 C38 C -0.05371 -0.28341 0.17303
 C39 C -0.02841 -0.22981 0.16008
 C40 C -0.00936 -0.22361 0.12364
 C41 C 0.00923 -0.16822 0.10925
 C42 C 0.01173 -0.12109 0.13012
 C43 C -0.00276 -0.12732 0.16637
 C44 C -0.02236 -0.18177 0.18206
 C45 C -0.03398 -0.18593 0.21924
 C46 C -0.02728 -0.13784 0.23954
 C47 C -0.00905 -0.08298 0.22398
 C48 C 0.00248 -0.07892 0.18683
 H49 H 0.03831 -0.23447 0.05608
 H50 H -0.05897 -0.41482 0.10709
 H51 H 0.03497 -0.31894 0.02271
 H52 H -0.07859 -0.37007 0.16252
 H53 H -0.07173 -0.29033 0.19956
 H54 H 0.02065 -0.15935 0.08146
 H55 H 0.02603 -0.07935 0.11777
 H56 H -0.04698 -0.22612 0.23370
 H57 H -0.03626 -0.14357 0.26802
 H58 H 0.01581 -0.03835 0.17297
 C59 C -0.07978 0.30619 0.11247
 C60 C -0.02982 0.27457 0.12573
 C61 C 0.02634 0.29464 0.11385
 C62 C 0.03174 0.34486 0.09022
 C63 C -0.01844 0.37476 0.07645
 C64 C -0.07409 0.35492 0.08819
 C65 C 0.07684 0.26374 0.12492
 C66 C 0.07285 0.21194 0.14637
 C67 C 0.01792 0.18949 0.15837
 C68 C -0.03387 0.22287 0.14943
 C69 C -0.08784 0.20363 0.16466
 C70 C -0.09157 0.15253 0.18675
 C71 C -0.04217 0.11771 0.19395
 C72 C 0.01308 0.13516 0.17948
 C73 C 0.06087 0.09671 0.18600
 C74 C 0.05433 0.04446 0.20699
 C75 C 0.00015 0.02791 0.22295
 C76 C -0.04812 0.06536 0.21554
 H77 H -0.12420 0.29328 0.11921
 H78 H 0.07519 0.35905 0.08137
 H79 H -0.11394 0.37664 0.07825
 H80 H 0.12000 0.27913 0.11630
 H81 H 0.11403 0.19098 0.15373
 H82 H -0.12810 0.22787 0.16070
 H83 H -0.13394 0.13976 0.19797
 H84 H 0.10368 0.10494 0.17453
 H85 H 0.09222 0.01623 0.21068
 H86 H -0.09107 0.05438 0.22620
 C87 C 0.30646 -0.06430 0.60958
 C88 C 0.28227 -0.01343 0.62229
 C89 C 0.30684 0.04085 0.60946
 C90 C 0.35332 0.04350 0.58490
 C91 C 0.37622 -0.00737 0.57243
 C92 C 0.35245 -0.06111 0.58517
 C93 C 0.28477 0.09235 0.62099
 C94 C 0.23804 0.09157 0.64459
 C95 C 0.21119 0.03887 0.65774
 C96 C 0.23435 -0.01456 0.64687
 C97 C 0.20867 -0.06733 0.66084
 C98 C 0.16147 -0.06807 0.68397
 C99 C 0.13759 -0.01648 0.69419
 C100 C 0.16188 0.03768 0.68136
 C101 C 0.13473 0.08828 0.69214
 C102 C 0.08623 0.08488 0.71478
 C103 C 0.06248 0.03102 0.72859
 C104 C 0.08882 -0.01933 0.71694
 H105 H 0.29073 -0.10742 0.61759
 H106 H 0.37133 0.08542 0.57527
 H107 H 0.36918 -0.10120 0.57605
 H108 H 0.30366 0.13394 0.61150
 H109 H 0.22415 0.13340 0.65212
 H110 H 0.22396 -0.10933 0.65453
 H111 H 0.14320 -0.10978 0.69382
 H112 H 0.14891 0.13149 0.68300
 H113 H 0.06656 0.12553 0.72068
 H114 H 0.07158 -0.06183 0.72483
 C115 C -0.32197 -0.05851 0.62470
 C116 C -0.28657 -0.00887 0.62954
 C117 C -0.29622 0.04138 0.60594
 C118 C -0.34278 0.04309 0.58077
 C119 C -0.37746 -0.00653 0.57600
 C120 C -0.36568 -0.05764 0.59780
 C121 C -0.25860 0.08933 0.60704
 C122 C -0.20988 0.08757 0.63003
 C123 C -0.19902 0.03884 0.65440
 C124 C -0.24058 -0.00803 0.65607
 C125 C -0.23576 -0.05136 0.68478
 C126 C -0.19052 -0.04966 0.71034
 C127 C -0.14615 -0.00734 0.70672
 C128 C -0.14882 0.03615 0.67794
 C129 C -0.10078 0.07491 0.67359
 C130 C -0.05216 0.07043 0.69682
 C131 C -0.04856 0.02744 0.72581
 C132 C -0.09894 -0.00846 0.73163
 H133 H -0.31504 -0.09929 0.64033
 H134 H -0.34990 0.08256 0.56353
 H135 H -0.39108 -0.09694 0.59462
 H136 H -0.26587 0.12804 0.58918
 H137 H -0.18271 0.12621 0.62923
 H138 H -0.26806 -0.08571 0.68896
 H139 H -0.18910 -0.08307 0.73242
 H140 H -0.09852 0.10808 0.65164
 H141 H -0.01794 0.10243 0.69200
 H142 H -0.10292 -0.03688 0.75585
 C143 C -0.03172 -0.33425 0.86391
 C144 C 0.00338 -0.28409 0.86803
 C145 C 0.03815 -0.28246 0.89988
 C146 C 0.03946 -0.33031 0.92549
 C147 C 0.00369 -0.37895 0.92117
 C148 C -0.03208 -0.38047 0.89040
 C149 C 0.07019 -0.23252 0.90650
 C150 C 0.06637 -0.18294 0.88306
 C151 C 0.03191 -0.18214 0.85120
 C152 C 0.00332 -0.23470 0.84239
 C153 C -0.02358 -0.23626 0.80811
 C154 C -0.02475 -0.18728 0.78392
 C155 C -0.00173 -0.13427 0.79354
 C156 C 0.02584 -0.13075 0.82752
 C157 C 0.04534 -0.07563 0.83670
 C158 C 0.03802 -0.02634 0.81311
 C159 C 0.01058 -0.02876 0.77900
 C160 C -0.00646 -0.08468 0.76931
 H161 H -0.06132 -0.33793 0.84131
 H162 H 0.06610 -0.32853 0.94978
 H163 H -0.06063 -0.41756 0.88691
 H164 H 0.09731 -0.23119 0.93060
 H165 H 0.09242 -0.14618 0.89018
 H166 H -0.04257 -0.27546 0.79879
 H167 H -0.04542 -0.19058 0.75777
 H168 H 0.06504 -0.06866 0.86248
 H169 H 0.05494 0.01355 0.82244
 H170 H -0.02313 -0.09021 0.74245
 C171 C 0.07473 0.31645 0.89884
 C172 C 0.02543 0.29014 0.88277
 C173 C -0.03144 0.30859 0.89214
 C174 C -0.03801 0.35196 0.91624
 C175 C 0.01144 0.37747 0.93179
 C176 C 0.06766 0.35920 0.92279
 C177 C -0.08155 0.28362 0.87752
 C178 C -0.07681 0.23975 0.85430
 C179 C -0.02134 0.21907 0.84452
 C180 C 0.03063 0.24582 0.85820
 C181 C 0.08604 0.22748 0.84675
 C182 C 0.09073 0.18365 0.82357
 C183 C 0.04068 0.15586 0.81099
 C184 C -0.01601 0.17270 0.82137
 C185 C -0.06483 0.14095 0.80909
 C186 C -0.05750 0.09560 0.78694
 C187 C -0.00145 0.08035 0.77502
 C188 C 0.04749 0.11040 0.78853
 H189 H 0.11953 0.30466 0.89395
 H190 H -0.08180 0.36558 0.92306
 H191 H 0.10677 0.37790 0.93445
 H192 H -0.12512 0.29791 0.88428
 H193 H -0.11782 0.22344 0.84406
 H194 H 0.12708 0.24648 0.85492
 H195 H 0.13428 0.17108 0.81561
 H196 H -0.10937 0.14876 0.81692
 H197 H -0.09657 0.07182 0.77973
 H198 H 0.09170 0.09656 0.78301
 C199 C -0.26882 0.04187 0.41786
 C200 C -0.26496 0.00552 0.38915
 C201 C -0.31503 -0.02864 0.38116
 C202 C -0.36463 -0.03010 0.40337
 C203 C -0.36668 0.00497 0.43228
 C204 C -0.31918 0.04184 0.43878
 C205 C -0.31523 -0.06105 0.35110
 C206 C -0.26710 -0.05962 0.32841
 C207 C -0.21556 -0.02780 0.33597
 C208 C -0.21343 0.00261 0.36790
 C209 C -0.15927 0.02719 0.37831
 C210 C -0.10916 0.02315 0.35785
 C211 C -0.11153 -0.00317 0.32543
 C212 C -0.16516 -0.02712 0.31340
 C213 C -0.16644 -0.04798 0.27885
 C214 C -0.11577 -0.04747 0.25806
 C215 C -0.06060 -0.02866 0.27119
 C216 C -0.06025 -0.00525 0.30503
 H217 H -0.23420 0.07182 0.42426
 H218 H -0.40206 -0.05773 0.39784
 H219 H -0.32042 0.06979 0.46079
 H220 H -0.35331 -0.08725 0.34478
 H221 H -0.27042 -0.08611 0.30589
 H222 H -0.15356 0.04764 0.40315
 H223 H -0.06821 0.04157 0.36733
 H224 H -0.20658 -0.06285 0.26658
 H225 H -0.12018 -0.06166 0.23118
 H226 H -0.02068 0.01242 0.31614
 C227 C 0.30521 0.06314 0.38949
 C228 C 0.28007 0.01220 0.37658
 C229 C 0.30721 -0.04164 0.38746
 C230 C 0.35560 -0.04406 0.41151
 C231 C 0.37840 0.00666 0.42505
 C232 C 0.35329 0.06020 0.41331
 C233 C 0.28552 -0.09299 0.37472
 C234 C 0.23711 -0.09248 0.35149
 C235 C 0.20765 -0.04030 0.34032
 C236 C 0.22898 0.01280 0.35350
 C237 C 0.19768 0.06451 0.34388
 C238 C 0.14754 0.06454 0.32217
 C239 C 0.12680 0.01342 0.30868
 C240 C 0.15681 -0.03951 0.31699
 C241 C 0.13467 -0.08931 0.30135
 C242 C 0.08414 -0.08683 0.27941
 C243 C 0.05239 -0.03473 0.27215
 C244 C 0.07585 0.01535 0.28689
 H245 H 0.28897 0.10611 0.38179
 H246 H 0.37497 -0.08577 0.42008
 H247 H 0.37030 0.10023 0.42298
 H248 H 0.30609 -0.13427 0.38293
 H249 H 0.22304 -0.13427 0.34343
 H250 H 0.20997 0.10590 0.35331
 H251 H 0.12469 0.10527 0.31586
 H252 H 0.15586 -0.13101 0.30499
 H253 H 0.07142 -0.12670 0.26820
 H254 H 0.05374 0.05669 0.28151
   
