data_POSCAR
  _audit_creation_date              2014-09-24
  _audit_creation_method            'ToBaCCo'
  _symmetry_space_group_name_H-M    'P1'
  _symmetry_Int_Tables_number       1
  _symmetry_cell_setting            triclinic
  loop_
  _symmetry_equiv_pos_as_xyz
 x,y,z
_cell_length_a 41.5634
_cell_length_b 40.4921
_cell_length_c 16.6108
_cell_angle_alpha 90.197200
_cell_angle_beta 89.606300
_cell_angle_gamma 120.797800
loop_
  _atom_site_label
  _atom_site_type_symbol
  _atom_site_fract_x
  _atom_site_fract_y
  _atom_site_fract_z
C1 C 0.48206 0.96458 0.54184
 C2 C 0.49100 0.96482 0.45920
 C3 C 0.51300 0.99991 0.41927
 C4 C 0.52523 1.03543 0.45770
 C5 C 0.51651 1.03550 0.54100
 C6 C 0.49409 1.00001 0.58041
 H7 H 0.48928 1.00002 0.64463
 H8 H 0.51758 0.99922 0.35508
 C9 C 0.03287 0.52615 0.54457
 C10 C 0.03552 0.51902 0.46313
 C11 C 0.00304 0.50060 0.41605
 C12 C -0.03236 0.48996 0.44910
 C13 C -0.03468 0.49714 0.53229
 C14 C -0.00201 0.51544 0.57865
 H15 H -0.00397 0.51991 0.64247
 H16 H 0.00574 0.49632 0.35248
 C17 C 0.47283 0.50771 0.53772
 C18 C 0.48224 0.51424 0.45460
 C19 C 0.50456 0.50113 0.41990
 C20 C 0.51771 0.48154 0.46601
 C21 C 0.50870 0.47501 0.54831
 C22 C 0.48599 0.48773 0.58302
 H23 H 0.47939 0.48297 0.64673
 H24 H 0.51099 0.50543 0.35607
 O25 O 0.38072 0.64898 -0.08508
 O26 O 0.37952 0.71225 -0.10311
 C27 C 0.36344 0.73158 -0.10806
 O28 O 0.33675 0.72599 -0.06151
 O29 O 0.27339 0.66100 -0.07969
 C30 C 0.25476 0.62510 -0.09317
 O31 O 0.26072 0.60108 -0.05696
 O32 O 0.32165 0.60050 -0.09538
 C33 C 0.35564 0.61806 -0.11755
 O34 O 0.38716 0.66054 0.07477
 O35 O 0.38870 0.72566 0.05674
 C36 C 0.36796 0.73212 0.10299
 O37 O 0.33252 0.71379 0.09774
 O38 O 0.26712 0.65109 0.08183
 C39 C 0.26177 0.62127 0.11880
 O40 O 0.27819 0.60333 0.09955
 O41 O 0.33788 0.60110 0.06123
 C42 C 0.36922 0.62505 0.09243
 Cr43 Cr 0.38191 0.68579 -0.01362
 Cr44 Cr 0.30338 0.68679 0.00916
 Cr45 Cr 0.30073 0.60373 0.00194
 O46 O 0.32870 0.65867 -0.00069
 O47 O 0.61224 0.33825 -0.07827
 O48 O 0.61095 0.27336 -0.05984
 C49 C 0.63201 0.26785 -0.10677
 O50 O 0.66738 0.28732 -0.10232
 O51 O 0.73178 0.35052 -0.08398
 C52 C 0.73741 0.38124 -0.11720
 O53 O 0.72084 0.39874 -0.09529
 O54 O 0.65940 0.39824 -0.05629
 C55 C 0.62934 0.37413 -0.09190
 O56 O 0.61620 0.34847 0.08312
 O57 O 0.61917 0.28583 0.09942
 C58 C 0.63607 0.26723 0.10377
 O59 O 0.66317 0.27369 0.05725
 O60 O 0.72672 0.33891 0.07542
 C61 C 0.74413 0.37443 0.09278
 O62 O 0.73669 0.39840 0.06162
 O63 O 0.67491 0.39636 0.10005
 C64 C 0.64064 0.37844 0.11961
 Cr65 Cr 0.61674 0.31266 0.01066
 Cr66 Cr 0.69620 0.31367 -0.01282
 Cr67 Cr 0.69689 0.39573 0.00236
 O68 O 0.67007 0.34080 0.00032
 C69 C 0.42749 0.86281 -0.31875
 C70 C 0.45405 0.86719 -0.37677
 C71 C 0.47185 0.90080 -0.42322
 C72 C 0.46334 0.93018 -0.41235
 C73 C 0.43668 0.92516 -0.35293
 C74 C 0.41854 0.89151 -0.30660
 C75 C 0.40939 0.82793 -0.26828
 C76 C 0.38313 0.82380 -0.20960
 C77 C 0.36700 0.79130 -0.15981
 C78 C 0.37750 0.76337 -0.16718
 C79 C 0.40342 0.76764 -0.22743
 C80 C 0.41941 0.79988 -0.27825
 C81 C 0.39174 0.88609 -0.24795
 C82 C 0.37427 0.85276 -0.20040
 C83 C 0.46283 0.83816 -0.38617
 C84 C 0.44586 0.80511 -0.33762
 H85 H 0.38444 0.90793 -0.23827
 H86 H 0.35403 0.84988 -0.15530
 H87 H 0.48328 0.84120 -0.43088
 H88 H 0.45378 0.78366 -0.34612
 H89 H 0.49354 0.90470 -0.46533
 H90 H 0.42920 0.94695 -0.34419
 H91 H 0.34729 0.78852 -0.11341
 H92 H 0.41166 0.74632 -0.23378
 C93 C 0.13057 0.56628 -0.31197
 C94 C 0.09690 0.53341 -0.28881
 C95 C 0.06495 0.52173 -0.33452
 C96 C 0.06671 0.54123 -0.40539
 C97 C 0.10197 0.57134 -0.43714
 C98 C 0.13325 0.58638 -0.38352
 C99 C 0.16304 0.58104 -0.25741
 C100 C 0.19556 0.61630 -0.27443
 C101 C 0.22574 0.63101 -0.22044
 C102 C 0.22366 0.61000 -0.15114
 C103 C 0.19107 0.57443 -0.13576
 C104 C 0.16042 0.56023 -0.18763
 C105 C 0.16631 0.62186 -0.39705
 C106 C 0.19680 0.63647 -0.34400
 C107 C 0.09538 0.51336 -0.21870
 C108 C 0.12680 0.52621 -0.16963
 H109 H 0.16841 0.63967 -0.44669
 H110 H 0.22144 0.66412 -0.35716
 H111 H 0.06952 0.48767 -0.20120
 H112 H 0.12442 0.51000 -0.11586
 H113 H 0.03862 0.49690 -0.31576
 H114 H 0.10116 0.59041 -0.50166
 H115 H 0.25084 0.65847 -0.23246
 H116 H 0.18910 0.55848 -0.08178
 C117 C 0.41533 0.55215 -0.33376
 C118 C 0.44351 0.57582 -0.38883
 C119 C 0.46149 0.56052 -0.43391
 C120 C 0.45235 0.52209 -0.42243
 C121 C 0.42394 0.49890 -0.36651
 C122 C 0.40500 0.51358 -0.32306
 C123 C 0.39744 0.56850 -0.28373
 C124 C 0.36941 0.54483 -0.22823
 C125 C 0.35385 0.56093 -0.17789
 C126 C 0.36733 0.60064 -0.18044
 C127 C 0.39502 0.62393 -0.23713
 C128 C 0.40988 0.60786 -0.28974
 C129 C 0.37643 0.49065 -0.26789
 C130 C 0.35872 0.50594 -0.22172
 C131 C 0.45412 0.61470 -0.39555
 C132 C 0.43781 0.63054 -0.34635
 H133 H 0.36799 0.46074 -0.25962
 H134 H 0.33717 0.48741 -0.17907
 H135 H 0.47584 0.63327 -0.43785
 H136 H 0.44748 0.66087 -0.35197
 H137 H 0.48430 0.57931 -0.47383
 H138 H 0.41615 0.46917 -0.35776
 H139 H 0.33297 0.54310 -0.13329
 H140 H 0.40544 0.65455 -0.23896
 C141 C 0.56462 0.13649 -0.31709
 C142 C 0.52688 0.10813 -0.30540
 C143 C 0.51116 0.07465 -0.35226
 C144 C 0.53265 0.06951 -0.41184
 C145 C 0.57070 0.09843 -0.42200
 C146 C 0.58673 0.13189 -0.37501
 C147 C 0.58151 0.17133 -0.26653
 C148 C 0.61960 0.19914 -0.27629
 C149 C 0.63590 0.23142 -0.22559
 C150 C 0.61429 0.23598 -0.16568
 C151 C 0.57585 0.20825 -0.15846
 C152 C 0.55943 0.17573 -0.20814
 C153 C 0.62458 0.16064 -0.38408
 C154 C 0.64077 0.19366 -0.33542
 C155 C 0.50559 0.11377 -0.24692
 C156 C 0.52156 0.14705 -0.19922
 H157 H 0.64193 0.15744 -0.42870
 H158 H 0.67016 0.21491 -0.34375
 H159 H 0.47637 0.09217 -0.23759
 H160 H 0.50424 0.15013 -0.15432
 H161 H 0.48181 0.05315 -0.34408
 H162 H 0.58823 0.09444 -0.46479
 H163 H 0.66547 0.25257 -0.23182
 H164 H 0.55893 0.21124 -0.11233
 C165 C 0.86234 0.44802 -0.33550
 C166 C 0.87153 0.42390 -0.37801
 C167 C 0.90485 0.44030 -0.42287
 C168 C 0.92907 0.48042 -0.42425
 C169 C 0.91950 0.50428 -0.38164
 C170 C 0.88591 0.48819 -0.33753
 C171 C 0.82811 0.43083 -0.28543
 C172 C 0.81927 0.45490 -0.24159
 C173 C 0.78785 0.43836 -0.19046
 C174 C 0.76618 0.39815 -0.18122
 C175 C 0.77487 0.37445 -0.22726
 C176 C 0.80575 0.39064 -0.27972
 C177 C 0.87575 0.51135 -0.29414
 C178 C 0.84290 0.49498 -0.24723
 C179 C 0.84773 0.38384 -0.37308
 C180 C 0.81547 0.36748 -0.32443
 H181 H 0.89358 0.54236 -0.29560
 H182 H 0.83639 0.51385 -0.21373
 H183 H 0.85450 0.36497 -0.40581
 H184 H 0.79831 0.33644 -0.32083
 H185 H 0.91253 0.42198 -0.45508
 H186 H 0.93827 0.53518 -0.38283
 H187 H 0.78155 0.45676 -0.15447
 H188 H 0.75820 0.34347 -0.22054
 C189 C 0.56324 0.43318 -0.30847
 C190 C 0.56087 0.46489 -0.28321
 C191 C 0.54099 0.47689 -0.32933
 C192 C 0.52571 0.45957 -0.40388
 C193 C 0.53164 0.42981 -0.43587
 C194 C 0.54744 0.41431 -0.38197
 C195 C 0.58090 0.41822 -0.25411
 C196 C 0.57963 0.38383 -0.27337
 C197 C 0.59526 0.36901 -0.21997
 C198 C 0.61295 0.38915 -0.14906
 C199 C 0.61437 0.42381 -0.13121
 C200 C 0.59767 0.43799 -0.18247
 C201 C 0.54622 0.37949 -0.39741
 C202 C 0.56202 0.36463 -0.34469
 C203 C 0.57779 0.48379 -0.21099
 C204 C 0.59647 0.47096 -0.16215
 H205 H 0.53170 0.36241 -0.44866
 H206 H 0.56008 0.33760 -0.35964
 H207 H 0.57643 0.50866 -0.19183
 H208 H 0.60914 0.48633 -0.10689
 H209 H 0.53906 0.50127 -0.30873
 H210 H 0.51187 0.41050 -0.50031
 H211 H 0.59407 0.34221 -0.23376
 H212 H 0.62735 0.43900 -0.07590
 C213 C 0.87174 0.43929 0.30130
 C214 C 0.87719 0.46818 0.35592
 C215 C 0.90903 0.48488 0.40468
 C216 C 0.93578 0.47330 0.39884
 C217 C 0.93027 0.44501 0.34156
 C218 C 0.89798 0.42742 0.29385
 C219 C 0.83813 0.42148 0.25016
 C220 C 0.83229 0.39208 0.19642
 C221 C 0.80046 0.37552 0.14732
 C222 C 0.77540 0.38918 0.14996
 C223 C 0.78166 0.41868 0.20405
 C224 C 0.81277 0.43462 0.25509
 C225 C 0.89123 0.39800 0.23923
 C226 C 0.85882 0.38044 0.19174
 C227 C 0.85085 0.48008 0.36022
 C228 C 0.81930 0.46375 0.31026
 H229 H 0.91115 0.38840 0.23323
 H230 H 0.85471 0.35788 0.15035
 H231 H 0.85481 0.50241 0.40213
 H232 H 0.79987 0.47403 0.31483
 H233 H 0.91364 0.50792 0.44517
 H234 H 0.95023 0.43539 0.33662
 H235 H 0.79591 0.35314 0.10489
 H236 H 0.76231 0.42914 0.20623
 C237 C 0.57508 0.13586 0.31391
 C238 C 0.58538 0.10815 0.30221
 C239 C 0.56857 0.07479 0.34958
 C240 C 0.54200 0.06919 0.40968
 C241 C 0.53182 0.09738 0.41958
 C242 C 0.54833 0.13071 0.37218
 C243 C 0.59215 0.17062 0.26310
 C244 C 0.58100 0.19780 0.27307
 C245 C 0.59624 0.23006 0.22239
 C246 C 0.62254 0.23524 0.16228
 C247 C 0.63407 0.20812 0.15470
 C248 C 0.61872 0.17561 0.20442
 C249 C 0.53829 0.15880 0.38132
 C250 C 0.55429 0.19175 0.33249
 C251 C 0.61234 0.11434 0.24333
 C252 C 0.62879 0.14755 0.19536
 H253 H 0.51768 0.15516 0.42622
 H254 H 0.54550 0.21252 0.34095
 H255 H 0.62066 0.09325 0.23396
 H256 H 0.64926 0.15108 0.15023
 H257 H 0.57717 0.05384 0.34144
 H258 H 0.51024 0.09294 0.46260
 H259 H 0.58720 0.25074 0.22891
 H260 H 0.65407 0.21158 0.10838
 C261 C 0.58298 0.44174 0.34959
 C262 C 0.55428 0.41746 0.40372
 C263 C 0.53813 0.43312 0.45604
 C264 C 0.54247 0.46914 0.43010
 C265 C 0.57184 0.49349 0.37801
 C266 C 0.59322 0.48032 0.33993
 C267 C 0.59985 0.42559 0.29547
 C268 C 0.62889 0.45011 0.24272
 C269 C 0.64375 0.43449 0.18909
 C270 C 0.62823 0.39446 0.18442
 C271 C 0.59878 0.37013 0.23683
 C272 C 0.58476 0.38566 0.29320
 C273 C 0.62268 0.50410 0.28738
 C274 C 0.64086 0.48942 0.24102
 C275 C 0.53939 0.37754 0.39745
 C276 C 0.55453 0.36198 0.34408
 H277 H 0.63116 0.53409 0.28060
 H278 H 0.66310 0.50860 0.20032
 H279 H 0.51408 0.35779 0.42974
 H280 H 0.54171 0.33102 0.34097
 H281 H 0.57748 0.52229 0.36609
 H282 H 0.66574 0.45322 0.14734
 H283 H 0.58652 0.33924 0.23275
 C284 C 0.14096 0.55857 0.34871
 C285 C 0.13663 0.58295 0.40287
 C286 C 0.10464 0.56753 0.45460
 C287 C 0.07292 0.53145 0.42849
 C288 C 0.07798 0.50707 0.37652
 C289 C 0.11252 0.52008 0.33877
 C290 C 0.17402 0.57454 0.29482
 C291 C 0.17838 0.54994 0.24188
 C292 C 0.20881 0.56541 0.18826
 C293 C 0.23344 0.60540 0.18374
 C294 C 0.22856 0.62982 0.23645
 C295 C 0.19906 0.61442 0.29288
 C296 C 0.11810 0.49620 0.28619
 C297 C 0.15093 0.51070 0.23995
 C298 C 0.16204 0.62279 0.39739
 C299 C 0.19277 0.63819 0.34418
 H300 H 0.09650 0.46628 0.27922
 H301 H 0.15389 0.49147 0.19915
 H302 H 0.15672 0.64266 0.42993
 H303 H 0.21112 0.66912 0.34147
 H304 H 0.05478 0.47836 0.36429
 H305 H 0.21192 0.54662 0.14633
 H306 H 0.24732 0.66068 0.23254
 C307 C 0.43886 0.86261 0.31539
 C308 C 0.47805 0.88642 0.31374
 C309 C 0.49504 0.91985 0.36092
 C310 C 0.47307 0.92930 0.40957
 C311 C 0.43382 0.90521 0.41023
 C312 C 0.41656 0.87172 0.36347
 C313 C 0.42076 0.82788 0.26456
 C314 C 0.38155 0.80455 0.26486
 C315 C 0.36439 0.77241 0.21398
 C316 C 0.38618 0.76368 0.16261
 C317 C 0.42558 0.78693 0.16476
 C318 C 0.44299 0.81916 0.21527
 C319 C 0.37746 0.84736 0.36321
 C320 C 0.36023 0.81434 0.31469
 C321 C 0.49937 0.87642 0.26451
 C322 C 0.48213 0.84335 0.21611
 H323 H 0.35999 0.85405 0.40030
 H324 H 0.32996 0.79654 0.31560
 H325 H 0.52962 0.89447 0.26289
 H326 H 0.49958 0.83689 0.17838
 H327 H 0.52526 0.93842 0.36038
 H328 H 0.41684 0.91276 0.44683
 H329 H 0.33410 0.75481 0.21305
 H330 H 0.44272 0.78062 0.12560
 C331 C 0.43419 0.56270 0.30307
 C332 C 0.41066 0.52828 0.34443
 C333 C 0.42662 0.51247 0.39352
 C334 C 0.46576 0.53070 0.40078
 C335 C 0.48905 0.56482 0.35800
 C336 C 0.47335 0.58122 0.30959
 C337 C 0.41751 0.57952 0.25149
 C338 C 0.44098 0.61409 0.21058
 C339 C 0.42496 0.62965 0.16063
 C340 C 0.38585 0.61036 0.15016
 C341 C 0.36276 0.57584 0.19214
 C342 C 0.37843 0.56042 0.24328
 C343 C 0.49592 0.61580 0.26783
 C344 C 0.48000 0.63203 0.21939
 C345 C 0.37166 0.51034 0.33571
 C346 C 0.35582 0.52606 0.28568
 H347 H 0.52613 0.63043 0.27261
 H348 H 0.49842 0.65868 0.18807
 H349 H 0.35324 0.48380 0.36739
 H350 H 0.32562 0.51113 0.28001
 H351 H 0.40877 0.48602 0.42614
 H352 H 0.51920 0.57884 0.36397
 H353 H 0.44295 0.65605 0.12800
 H354 H 0.33262 0.56094 0.18475
   
