data_POSCAR
  _audit_creation_date              2014-09-24
  _audit_creation_method            'ToBaCCo'
  _symmetry_space_group_name_H-M    'P1'
  _symmetry_Int_Tables_number       1
  _symmetry_cell_setting            triclinic
  loop_
  _symmetry_equiv_pos_as_xyz
 x,y,z
_cell_length_a 26.2114
_cell_length_b 26.3117
_cell_length_c 26.3388
_cell_angle_alpha 92.143200
_cell_angle_beta 91.930200
_cell_angle_gamma 88.398300
loop_
  _atom_site_label
  _atom_site_type_symbol
  _atom_site_fract_x
  _atom_site_fract_y
  _atom_site_fract_z
C1 C 0.03093 0.43415 0.17880
 H2 H 0.06275 0.45930 0.17723
 C3 C 0.03316 0.38605 0.15412
 H4 H 0.06636 0.37627 0.13215
 C5 C -0.05039 0.41760 0.20955
 H6 H -0.08220 0.42873 0.23277
 C7 C -0.05007 0.36968 0.18530
 H8 H -0.08182 0.34566 0.19174
 N9 N -0.01028 0.44879 0.20625
 C10 C -0.02285 0.61285 0.23631
 H11 H -0.03144 0.61107 0.27608
 C12 C -0.02163 0.65984 0.21391
 H13 H -0.03038 0.69398 0.23653
 C14 C -0.00100 0.57004 0.15896
 H15 H 0.00759 0.53488 0.13805
 C16 C 0.00074 0.61655 0.13489
 H17 H 0.01092 0.61681 0.09541
 Zn18 Zn -0.00978 0.50975 0.24740
 N19 N -0.01183 0.56926 0.20907
 C20 C 0.08353 0.54877 0.28486
 N21 N 0.05144 0.50935 0.28826
 C22 C 0.06516 0.46819 0.31592
 C23 C 0.11312 0.46548 0.34101
 C24 C 0.13141 0.54776 0.30945
 C25 C -0.11333 0.52328 0.25939
 C26 C -0.16033 0.52221 0.28234
 C27 C -0.11625 0.50089 0.36109
 C28 C -0.06979 0.50230 0.33645
 N29 N -0.06938 0.51247 0.28622
 H30 H 0.07298 0.58057 0.26171
 H31 H 0.03946 0.43683 0.31726
 H32 H 0.12367 0.43229 0.36249
 H33 H 0.15670 0.57899 0.30484
 H34 H -0.11183 0.53143 0.21953
 H35 H -0.19481 0.53057 0.26006
 H36 H -0.11623 0.49127 0.40069
 H37 H -0.03436 0.49398 0.35705
 C38 C -0.00883 0.66230 0.16280
 C39 C -0.00757 0.35225 0.15743
 C40 C -0.16237 0.51006 0.33361
 C41 C 0.14709 0.50556 0.33758
 C42 C 0.04929 0.56636 0.81921
 H43 H 0.08325 0.54206 0.81800
 C44 C 0.05093 0.61415 0.84435
 H45 H 0.08612 0.62614 0.86328
 C46 C -0.03734 0.58137 0.79416
 H47 H -0.07135 0.56946 0.77335
 C48 C -0.03751 0.62897 0.81902
 H49 H -0.07176 0.65290 0.81689
 N50 N 0.00574 0.55132 0.79415
 C51 C 0.00111 0.38864 0.75991
 H52 H -0.00599 0.39105 0.71936
 C53 C 0.00145 0.34161 0.78218
 H54 H -0.00603 0.30793 0.75850
 C55 C 0.01775 0.43043 0.83986
 H56 H 0.02380 0.46536 0.86191
 C57 C 0.01840 0.38381 0.86390
 H58 H 0.02554 0.38301 0.90459
 Zn59 Zn 0.00629 0.49174 0.75167
 N60 N 0.00958 0.43172 0.78867
 C61 C 0.09879 0.45333 0.71303
 N62 N 0.06413 0.49269 0.71028
 C63 C 0.07322 0.53415 0.68289
 C64 C 0.11892 0.53711 0.65719
 C65 C 0.14448 0.45454 0.68776
 C66 C -0.09588 0.47360 0.74018
 C67 C -0.14492 0.47309 0.71851
 C68 C -0.11186 0.50650 0.64242
 C69 C -0.06302 0.50566 0.66567
 N70 N -0.05621 0.48990 0.71393
 H71 H 0.09214 0.42145 0.73625
 H72 H 0.04571 0.56556 0.68229
 H73 H 0.12591 0.57054 0.63596
 H74 H 0.17197 0.42334 0.69177
 H75 H -0.08961 0.46236 0.77903
 H76 H -0.17491 0.46253 0.74287
 H77 H -0.11485 0.51797 0.60346
 H78 H -0.03078 0.51815 0.64533
 C79 C 0.01043 0.33864 0.83476
 C80 C 0.00721 0.64635 0.84379
 C81 C -0.15461 0.49026 0.66873
 C82 C 0.15533 0.49696 0.65976
 C83 C 0.17705 0.04584 0.43448
 H84 H 0.17452 0.07818 0.46096
 C85 C 0.15126 0.04724 0.38707
 H86 H 0.12813 0.08050 0.37755
 C87 C 0.21196 -0.03601 0.41356
 H88 H 0.23708 -0.06772 0.42276
 C89 C 0.18667 -0.03638 0.36628
 H90 H 0.19260 -0.06858 0.34012
 N91 N 0.20703 0.00471 0.44659
 C92 C 0.24136 0.00051 0.60927
 H93 H 0.28223 -0.00503 0.60638
 C94 C 0.21942 0.00011 0.65653
 H95 H 0.24370 -0.00640 0.68986
 C96 C 0.16034 0.01404 0.56849
 H97 H 0.13771 0.01916 0.53389
 C98 C 0.13661 0.01393 0.61537
 H99 H 0.09560 0.01962 0.61664
 Zn100 Zn 0.24921 0.00608 0.50652
 N101 N 0.21192 0.00783 0.56658
 C102 C 0.28341 0.10057 0.54463
 N103 N 0.28926 0.06498 0.50630
 C104 C 0.31837 0.07391 0.46592
 C105 C 0.34223 0.12062 0.46272
 C106 C 0.30652 0.14743 0.54302
 C107 C 0.26013 -0.09621 0.51753
 C108 C 0.28235 -0.14475 0.51702
 C109 C 0.36300 -0.10835 0.49835
 C110 C 0.33901 -0.06006 0.49921
 N111 N 0.28821 -0.05523 0.50786
 H112 H 0.25929 0.09363 0.57587
 H113 H 0.32150 0.04550 0.43534
 H114 H 0.36395 0.12778 0.42961
 H115 H 0.30102 0.17515 0.57392
 H116 H 0.21987 -0.09111 0.52462
 H117 H 0.25908 -0.17677 0.52469
 H118 H 0.40316 -0.11209 0.49014
 H119 H 0.36061 -0.02682 0.49201
 C120 C 0.16644 0.00719 0.66018
 C121 C 0.15637 0.00581 0.35215
 C122 C 0.33420 -0.15148 0.50653
 C123 C 0.33555 0.15844 0.50126
 C124 C 0.82159 0.03297 0.56363
 H125 H 0.82218 0.06488 0.53894
 C126 C 0.84716 0.03545 0.61124
 H127 H 0.86819 0.06908 0.62257
 C128 C 0.79175 -0.04877 0.57998
 H129 H 0.76885 -0.08097 0.56885
 C130 C 0.81696 -0.04807 0.62740
 H131 H 0.81306 -0.07990 0.65175
 N132 N 0.79410 -0.00856 0.54918
 C133 C 0.76066 -0.02101 0.38566
 H134 H 0.72020 -0.02723 0.38808
 C135 C 0.78264 -0.02114 0.33828
 H136 H 0.75743 -0.02626 0.30530
 C137 C 0.83976 -0.00268 0.42717
 H138 H 0.86170 0.00449 0.46208
 C139 C 0.86356 -0.00235 0.38032
 H140 H 0.90421 0.00356 0.38084
 Zn141 Zn 0.75153 -0.00821 0.48919
 N142 N 0.78900 -0.01118 0.42880
 C143 C 0.71559 0.08527 0.45151
 N144 N 0.71152 0.05336 0.49059
 C145 C 0.68433 0.06766 0.53213
 C146 C 0.66079 0.11613 0.53574
 C147 C 0.69271 0.13367 0.45350
 C148 C 0.73796 -0.11109 0.47441
 C149 C 0.71500 -0.15801 0.47622
 C150 C 0.63751 -0.11456 0.50303
 C151 C 0.66213 -0.06811 0.50069
 N152 N 0.71181 -0.06744 0.48741
 H153 H 0.73802 0.07414 0.41918
 H154 H 0.68255 0.04218 0.56328
 H155 H 0.64068 0.12749 0.56974
 H156 H 0.69677 0.15826 0.42190
 H157 H 0.77743 -0.10947 0.46398
 H158 H 0.73682 -0.19221 0.46602
 H159 H 0.59847 -0.11475 0.51519
 H160 H 0.64207 -0.03294 0.51085
 C161 C 0.83501 -0.01120 0.33435
 C162 C 0.84454 -0.00533 0.64401
 C163 C 0.66444 -0.16038 0.49162
 C164 C 0.66571 0.15019 0.49639
 C165 C 0.56673 0.18097 0.95431
 H166 H 0.53974 0.17666 0.92255
 C167 C 0.61504 0.15693 0.95240
 H168 H 0.62491 0.13390 0.91906
 C169 C 0.58807 0.21900 1.03492
 H170 H 0.57842 0.24431 1.06649
 C171 C 0.63640 0.19577 1.03462
 H172 H 0.66254 0.20246 1.06674
 N173 N 0.55447 0.21181 0.99495
 C174 C 0.39074 0.24354 0.99888
 H175 H 0.39336 0.28450 1.00227
 C176 C 0.34347 0.22130 1.00107
 H177 H 0.31037 0.24651 1.00422
 C178 C 0.43204 0.16297 0.98777
 H179 H 0.46697 0.14060 0.98350
 C180 C 0.38518 0.13884 0.98952
 H181 H 0.38557 0.09772 0.98747
 Zn182 Zn 0.49370 0.25254 0.99357
 N183 N 0.43373 0.21446 0.99227
 C184 C 0.45589 0.28380 0.89856
 N185 N 0.49353 0.29170 0.93460
 C186 C 0.53310 0.32236 0.92616
 C187 C 0.53604 0.34601 0.87961
 C188 C 0.45735 0.30652 0.85178
 C189 C 0.48162 0.26434 1.09552
 C190 C 0.48028 0.28711 1.14388
 C191 C 0.49924 0.36736 1.10784
 C192 C 0.49980 0.34291 1.05964
 N193 N 0.49166 0.29211 1.05471
 H194 H 0.42541 0.25838 0.90511
 H195 H 0.56324 0.32705 0.95489
 H196 H 0.56847 0.36916 0.87288
 H197 H 0.42706 0.29939 0.82365
 H198 H 0.47555 0.22395 1.09043
 H199 H 0.47341 0.26389 1.17592
 H200 H 0.50615 0.40772 1.11165
 H201 H 0.50735 0.36426 1.02656
 C202 C 0.33954 0.16795 0.99675
 C203 C 0.65093 0.16520 0.99255
 C204 C 0.48941 0.33915 1.15062
 C205 C 0.49821 0.33735 0.84139
 C206 C 0.43206 0.81336 0.96872
 H207 H 0.45608 0.81253 0.93607
 C208 C 0.38354 0.83705 0.96602
 H209 H 0.37149 0.85353 0.93047
 C210 C 0.41813 0.78814 1.05219
 H211 H 0.43103 0.76851 1.08565
 C212 C 0.36974 0.81134 1.05132
 H213 H 0.34834 0.81072 1.08563
 N214 N 0.44804 0.78885 1.01112
 C215 C 0.61249 0.76068 1.02513
 H216 H 0.61089 0.72135 1.03539
 C217 C 0.65953 0.78360 1.02313
 H218 H 0.69392 0.76190 1.03297
 C219 C 0.56920 0.83627 0.99951
 H220 H 0.53382 0.85620 0.98966
 C221 C 0.61573 0.86084 0.99701
 H222 H 0.61586 0.89976 0.98507
 Zn223 Zn 0.50892 0.74795 1.01123
 N224 N 0.56864 0.78678 1.01261
 C225 C 0.54895 0.70669 0.92043
 N226 N 0.50811 0.70597 0.95093
 C227 C 0.46531 0.68057 0.93597
 C228 C 0.46220 0.65551 0.88812
 C229 C 0.54765 0.68190 0.87279
 C230 C 0.52557 0.73667 1.11418
 C231 C 0.52454 0.71438 1.16120
 C232 C 0.49603 0.63679 1.11863
 C233 C 0.49770 0.66070 1.07210
 N234 N 0.51155 0.71006 1.07095
 H235 H 0.58220 0.72793 0.93200
 H236 H 0.43294 0.68134 0.96042
 H237 H 0.42761 0.63617 0.87634
 H238 H 0.58006 0.68446 0.84868
 H239 H 0.53631 0.77592 1.11216
 H240 H 0.53566 0.73647 1.19508
 H241 H 0.48342 0.59799 1.11921
 H242 H 0.48658 0.64036 1.03723
 C243 C 0.66173 0.83402 1.00805
 C244 C 0.35051 0.83533 1.00734
 C245 C 0.50874 0.66410 1.16404
 C246 C 0.50367 0.65648 0.85569
 B247 B 1.00046 1.05336 0.03074
 B248 B 1.03338 1.00175 0.05120
 B249 B 0.96907 1.00238 0.04875
 B250 B 0.94888 1.03321 -0.00347
 B251 B 1.00077 1.05153 -0.03314
 B252 B 1.05292 1.03207 0.00051
 B253 B 1.00250 0.94800 -0.03436
 B254 B 0.96955 0.99963 -0.05486
 B255 B 1.03380 0.99895 -0.05229
 B256 B 1.05407 0.96810 -0.00021
 B257 B 1.00221 0.94972 0.02960
 B258 B 0.94998 0.96918 -0.00414
 B259 B 0.55074 0.49874 0.47117
 B260 B 0.49794 0.53101 0.45105
 B261 B 0.49906 0.46701 0.44945
 B262 B 0.53211 0.44743 0.50145
 B263 B 0.55140 0.49957 0.53511
 B264 B 0.53030 0.55119 0.50399
 B265 B 0.44738 0.50059 0.53280
 B266 B 0.50017 0.46827 0.55294
 B267 B 0.49903 0.53233 0.55458
 B268 B 0.46607 0.55180 0.50255
 B269 B 0.44666 0.49978 0.46884
 B270 B 0.46780 0.44813 0.49996
 C271 C 0.99797 1.19960 0.09786
 C272 C 1.04322 1.22545 0.10821
 C273 C 1.04163 1.27605 0.12667
 C274 C 0.99447 1.30191 0.13552
 C275 C 0.94920 1.27519 0.12341
 C276 C 0.95107 1.22477 0.10491
 C277 C 0.99934 1.14793 0.07799
 C278 C 0.99987 1.10542 0.05937
 H279 H 1.07984 1.20635 0.10242
 H280 H 1.07770 1.29355 0.13614
 H281 H 0.91185 1.29326 0.12654
 H282 H 0.91575 1.20548 0.09576
 C283 C 1.00011 0.80917 0.09782
 C284 C 0.97911 0.76860 0.06901
 C285 C 0.97675 0.72054 0.08971
 C286 C 0.99530 0.71258 0.13959
 C287 C 1.01706 0.75352 0.16787
 C288 C 1.01936 0.80146 0.14713
 C289 C 1.00165 0.85868 0.07673
 C290 C 1.00239 0.89952 0.05769
 H291 H 0.96415 0.77424 0.03071
 H292 H 0.95945 0.68997 0.06715
 H293 H 1.03254 0.74841 0.20602
 H294 H 1.03599 0.83252 0.16959
 C295 C 1.00528 1.19171 -0.10074
 C296 C 0.98368 1.23423 -0.07516
 C297 C 0.98628 1.28241 -0.09544
 C298 C 1.01057 1.28843 -0.14154
 C299 C 1.03310 1.24551 -0.16630
 C300 C 1.03040 1.19747 -0.14602
 C301 C 1.00258 1.14234 -0.07994
 C302 C 1.00104 1.10156 -0.06110
 H303 H 0.96450 1.23007 -0.03979
 H304 H 0.96823 1.31464 -0.07579
 H305 H 1.05280 1.24912 -0.20142
 H306 H 1.04777 1.16482 -0.16570
 C307 C 1.00635 0.80135 -0.09942
 C308 C 0.96544 0.77031 -0.09032
 C309 C 0.96639 0.71945 -0.10749
 C310 C 1.00838 0.69894 -0.13397
 C311 C 1.04986 0.73016 -0.14199
 C312 C 1.04881 0.78112 -0.12479
 C313 C 1.00525 0.85336 -0.08088
 C314 C 1.00395 0.89604 -0.06287
 H315 H 0.93273 0.78546 -0.07005
 H316 H 0.93419 0.69617 -0.10023
 H317 H 1.08241 0.71559 -0.16278
 H318 H 1.08087 0.80479 -0.13157
 C319 C 1.09747 1.00569 0.19815
 C320 C 1.11777 1.05010 0.22058
 C321 C 1.13544 1.05081 0.27133
 C322 C 1.13300 1.00701 0.30011
 C323 C 1.11135 0.96300 0.27748
 C324 C 1.09368 0.96240 0.22687
 C325 C 1.07898 1.00465 0.14618
 C326 C 1.06127 1.00330 0.10343
 H327 H 1.12038 1.08396 0.19874
 H328 H 1.15241 1.08503 0.28757
 H329 H 1.10840 0.92892 0.29889
 H330 H 1.07732 0.92808 0.21004
 C331 C 1.10268 1.00155 -0.19225
 C332 C 1.14775 1.02743 -0.19838
 C333 C 1.16783 1.03015 -0.24658
 C334 C 1.14311 1.00686 -0.28931
 C335 C 1.09728 0.98166 -0.28287
 C336 C 1.07719 0.97906 -0.23455
 C337 C 1.08175 0.99932 -0.14280
 C338 C 1.06258 0.99833 -0.10205
 H339 H 1.16735 1.04551 -0.16592
 H340 H 1.20269 1.05059 -0.25045
 H341 H 1.07765 0.96301 -0.31493
 H342 H 1.04196 0.95931 -0.23013
 C343 C 0.89895 0.99847 0.18852
 C344 C 0.92229 1.02256 0.23104
 C345 C 0.90190 1.01887 0.27915
 C346 C 0.85738 0.99091 0.28586
 C347 C 0.83513 0.96601 0.24222
 C348 C 0.85564 0.96991 0.19430
 C349 C 0.92055 1.00146 0.13927
 C350 C 0.94011 1.00286 0.09864
 H351 H 0.95616 1.04456 0.22697
 H352 H 0.92023 1.04002 0.31030
 H353 H 0.80274 0.94180 0.24464
 H354 H 0.83790 0.95016 0.16174
 C355 C 0.90442 0.99861 -0.20187
 C356 C 0.91028 0.95452 -0.23270
 C357 C 0.89208 0.95369 -0.28321
 C358 C 0.86783 0.99709 -0.30373
 C359 C 0.86319 1.04165 -0.27279
 C360 C 0.88135 1.04235 -0.22215
 C361 C 0.92352 0.99911 -0.14996
 C362 C 0.94156 0.99920 -0.10726
 H363 H 0.92875 0.92067 -0.21763
 H364 H 0.89681 0.91903 -0.30624
 H365 H 0.84422 1.07546 -0.28729
 H366 H 0.87702 1.07684 -0.19873
 C367 C 1.19394 1.10151 0.00164
 C368 C 1.20251 1.14860 0.02594
 C369 C 1.25051 1.17011 0.02495
 C370 C 1.29127 1.14496 -0.00065
 C371 C 1.28193 1.09672 -0.02409
 C372 C 1.23370 1.07547 -0.02309
 C373 C 1.14438 1.07976 0.00210
 C374 C 1.10341 1.06031 0.00197
 H375 H 1.17209 1.16871 0.04586
 H376 H 1.25554 1.20580 0.04594
 H377 H 1.31081 1.07600 -0.04544
 H378 H 1.22724 1.03895 -0.04221
 C379 C 0.80434 1.10346 -0.00982
 C380 C 0.79513 1.15354 0.00766
 C381 C 0.74529 1.17373 0.00764
 C382 C 0.70391 1.14398 -0.00968
 C383 C 0.71366 1.09391 -0.02806
 C384 C 0.76364 1.07377 -0.02803
 C385 C 0.85529 1.08193 -0.00767
 C386 C 0.89728 1.06230 -0.00563
 H387 H 0.82638 1.17685 0.02169
 H388 H 0.73913 1.21273 0.02113
 H389 H 0.68261 1.07001 -0.04129
 H390 H 0.77047 1.03487 -0.04160
 C391 C 1.19829 0.89645 0.00087
 C392 C 1.23478 0.91431 -0.03109
 C393 C 1.28480 0.89426 -0.02933
 C394 C 1.29956 0.85576 0.00475
 C395 C 1.26154 0.83784 0.03617
 C396 C 1.21172 0.85809 0.03427
 C397 C 1.14753 0.91868 0.00059
 C398 C 1.10570 0.93880 0.00054
 H399 H 1.22474 0.94427 -0.05701
 H400 H 1.31196 0.91085 -0.05341
 H401 H 1.26908 0.80678 0.06129
 H402 H 1.18360 0.84366 0.05891
 C403 C 0.80872 0.90021 -0.00311
 C404 C 0.76813 0.92922 0.01716
 C405 C 0.71997 0.90813 0.02010
 C406 C 0.71201 0.85761 0.00306
 C407 C 0.75297 0.82905 -0.01789
 C408 C 0.80099 0.85023 -0.02089
 C409 C 0.85839 0.92164 -0.00489
 C410 C 0.89943 0.94094 -0.00542
 H411 H 0.77387 0.96795 0.03118
 H412 H 0.68935 0.93087 0.03677
 H413 H 0.74780 0.79033 -0.03211
 H414 H 0.83212 0.82756 -0.03680
 C415 C 0.69124 0.50123 0.40113
 C416 C 0.73191 0.52367 0.42862
 C417 C 0.77979 0.52603 0.40707
 C418 C 0.78745 0.50620 0.35752
 C419 C 0.74637 0.48333 0.33037
 C420 C 0.69860 0.48088 0.35206
 C421 C 0.64199 0.49942 0.42334
 C422 C 0.60128 0.49853 0.44309
 H423 H 0.72648 0.53973 0.46653
 H424 H 0.81048 0.54428 0.42870
 H425 H 0.75127 0.46702 0.29244
 H426 H 0.66743 0.46326 0.33053
 C427 C 0.30103 0.50081 0.39950
 C428 C 0.27142 0.54576 0.40323
 C429 C 0.22102 0.54695 0.38416
 C430 C 0.19942 0.50309 0.36109
 C431 C 0.22922 0.45779 0.35834
 C432 C 0.27973 0.45670 0.37743
 C433 C 0.35260 0.49986 0.42006
 C434 C 0.39491 0.49970 0.43938
 H435 H 0.28730 0.57994 0.42087
 H436 H 0.19889 0.58221 0.38750
 H437 H 0.21390 0.42358 0.34031
 H438 H 0.30223 0.42158 0.37475
 C439 C 0.69533 0.49744 0.60692
 C440 C 0.73292 0.52703 0.58752
 C441 C 0.78305 0.52412 0.60721
 C442 C 0.79677 0.49191 0.64779
 C443 C 0.75754 0.46208 0.66646
 C444 C 0.70773 0.46487 0.64617
 C445 C 0.64452 0.49887 0.58498
 C446 C 0.60269 0.49945 0.56482
 H447 H 0.72340 0.55282 0.55732
 H448 H 0.80970 0.54966 0.59194
 H449 H 0.76496 0.43421 0.69505
 H450 H 0.67897 0.44097 0.66075
 C451 C 0.30447 0.50158 0.59784
 C452 C 0.28276 0.54549 0.62086
 C453 C 0.23351 0.54457 0.63970
 C454 C 0.20555 0.49964 0.63577
 C455 C 0.22739 0.45609 0.61156
 C456 C 0.27649 0.45711 0.59272
 C457 C 0.35497 0.50207 0.57835
 C458 C 0.39651 0.50165 0.56021
 H459 H 0.30405 0.58021 0.62466
 H460 H 0.21792 0.57849 0.65864
 H461 H 0.20654 0.42114 0.60742
 H462 H 0.29274 0.42312 0.57440
 C463 C 0.49965 0.59950 0.31083
 C464 C 0.51796 0.56976 0.26980
 C465 C 0.52041 0.59040 0.22181
 C466 C 0.50466 0.64118 0.21437
 C467 C 0.48566 0.67050 0.25579
 C468 C 0.48326 0.64979 0.30368
 C469 C 0.49809 0.57834 0.36022
 C470 C 0.49745 0.55918 0.40096
 H471 H 0.53076 0.53076 0.27504
 H472 H 0.53558 0.56702 0.19084
 H473 H 0.47238 0.70943 0.25109
 H474 H 0.46877 0.67302 0.33513
 C475 C 0.49907 0.59799 0.70117
 C476 C 0.54256 0.58977 0.73233
 C477 C 0.54349 0.60751 0.78298
 C478 C 0.50082 0.63368 0.80327
 C479 C 0.45678 0.64073 0.77200
 C480 C 0.45597 0.62298 0.72120
 C481 C 0.49850 0.57911 0.64922
 C482 C 0.49866 0.56094 0.60658
 H483 H 0.57584 0.56977 0.71740
 H484 H 0.57769 0.60095 0.80630
 H485 H 0.42357 0.66120 0.78638
 H486 H 0.42192 0.62909 0.69749
 C487 C 0.49540 0.40013 0.30377
 C488 C 0.45554 0.36877 0.28728
 C489 C 0.45285 0.35010 0.23700
 C490 C 0.48996 0.36274 0.20254
 C491 C 0.52928 0.39523 0.21915
 C492 C 0.53205 0.41369 0.26962
 C493 C 0.49759 0.41989 0.35526
 C494 C 0.49870 0.43840 0.39767
 H495 H 0.42665 0.35864 0.31330
 H496 H 0.42183 0.32560 0.22503
 H497 H 0.55862 0.40511 0.19356
 H498 H 0.56291 0.43821 0.28209
 C499 C 0.50396 0.39930 0.69315
 C500 C 0.49024 0.34886 0.69827
 C501 C 0.48916 0.32862 0.74646
 C502 C 0.50171 0.35863 0.79027
 C503 C 0.51641 0.40906 0.78469
 C504 C 0.51736 0.42930 0.73635
 C505 C 0.50289 0.42075 0.64376
 C506 C 0.50162 0.44006 0.60303
 H507 H 0.47996 0.32532 0.66506
 H508 H 0.47856 0.28939 0.74947
 H509 H 0.52591 0.43313 0.81770
 H510 H 0.52790 0.46850 0.73272
 C511 C 0.59857 0.69269 0.50271
 C512 C 0.56909 0.73317 0.48322
 C513 C 0.59005 0.78129 0.48032
 C514 C 0.64093 0.78937 0.49662
 C515 C 0.66992 0.74852 0.51683
 C516 C 0.64888 0.70055 0.51978
 C517 C 0.57732 0.64300 0.50443
 C518 C 0.55827 0.60190 0.50502
 H519 H 0.53009 0.72740 0.46975
 H520 H 0.56691 0.81180 0.46423
 H521 H 0.70891 0.75371 0.53053
 H522 H 0.67195 0.66955 0.53511
 C523 C 0.60356 0.30342 0.50305
 C524 C 0.57583 0.26370 0.52160
 C525 C 0.59616 0.21389 0.52023
 C526 C 0.64451 0.20321 0.50015
 C527 C 0.67242 0.24368 0.48256
 C528 C 0.65202 0.29334 0.48391
 C529 C 0.58161 0.35418 0.50238
 C530 C 0.56165 0.39598 0.50165
 H531 H 0.53823 0.27113 0.53654
 H532 H 0.57359 0.18361 0.53372
 H533 H 0.71016 0.23696 0.46780
 H534 H 0.67390 0.32378 0.46965
 C535 C 0.39743 0.69635 0.50314
 C536 C 0.42554 0.73608 0.52591
 C537 C 0.40562 0.78594 0.52616
 C538 C 0.35722 0.79644 0.50379
 C539 C 0.32975 0.75628 0.48021
 C540 C 0.34975 0.70656 0.47993
 C541 C 0.41797 0.64526 0.50306
 C542 C 0.43701 0.60318 0.50292
 H543 H 0.46266 0.72844 0.54380
 H544 H 0.42743 0.81600 0.54487
 H545 H 0.29275 0.76336 0.46191
 H546 H 0.32798 0.67611 0.46178
 C547 C 0.39808 0.30727 0.49505
 C548 C 0.42690 0.26436 0.47899
 C549 C 0.40646 0.21586 0.48018
 C550 C 0.35694 0.20981 0.49763
 C551 C 0.32800 0.25338 0.51271
 C552 C 0.34850 0.30171 0.51152
 C553 C 0.42000 0.35675 0.49622
 C554 C 0.43957 0.39764 0.49778
 H555 H 0.46538 0.26833 0.46616
 H556 H 0.42975 0.18308 0.46867
 H557 H 0.28941 0.25008 0.52540
 H558 H 0.32585 0.33469 0.52388
   
