data_POSCAR
  _audit_creation_date              2014-09-24
  _audit_creation_method            'ToBaCCo'
  _symmetry_space_group_name_H-M    'P1'
  _symmetry_Int_Tables_number       1
  _symmetry_cell_setting            triclinic
  loop_
  _symmetry_equiv_pos_as_xyz
 x,y,z
_cell_length_a 25.7669
_cell_length_b 25.9052
_cell_length_c 34.5082
_cell_angle_alpha 88.512700
_cell_angle_beta 88.410000
_cell_angle_gamma 89.707700
loop_
  _atom_site_label
  _atom_site_type_symbol
  _atom_site_fract_x
  _atom_site_fract_y
  _atom_site_fract_z
C1 C 0.00225 0.52839 1.03083
 C2 C 0.00453 0.54611 0.99123
 C3 C 0.00770 0.50921 0.96194
 C4 C 0.00381 0.45600 0.97023
 C5 C 0.00153 0.43819 1.00948
 C6 C 0.00267 0.47475 1.03886
 H7 H 0.00191 0.46108 1.06883
 H8 H 0.00859 0.52197 0.93174
 C9 C 0.45637 -0.01098 0.51328
 C10 C 0.46351 0.00061 0.47329
 C11 C 0.51382 0.00805 0.45766
 C12 C 0.55693 0.01179 0.48187
 C13 C 0.54825 0.00595 0.52273
 C14 C 0.49888 -0.00792 0.53742
 H15 H 0.49338 -0.01519 0.56835
 H16 H 0.51848 0.01673 0.42684
 C17 C 0.12271 -0.00541 0.25598
 H18 H 0.12656 -0.00984 0.22494
 C19 C 0.16682 0.00292 0.27775
 H20 H 0.20470 0.00494 0.26341
 C21 C 0.06854 -0.00091 0.31247
 H22 H 0.03026 -0.00246 0.32600
 C23 C 0.11129 0.00821 0.33511
 H24 H 0.10552 0.01355 0.36596
 N25 N 0.07478 -0.00704 0.27360
 C26 C -0.03384 -0.09686 0.20830
 H27 H -0.06674 -0.07074 0.20841
 C28 C -0.03853 -0.14590 0.19307
 H29 H -0.07516 -0.15765 0.18149
 C30 C 0.05393 -0.11368 0.22350
 H31 H 0.08972 -0.10125 0.23575
 C32 C 0.05128 -0.16268 0.20764
 H33 H 0.08502 -0.18779 0.20777
 Zn34 Zn 0.01449 -0.01476 0.24413
 N35 N 0.01175 -0.08180 0.22338
 C36 C 0.00337 0.02306 0.16655
 N37 N 0.01573 0.03561 0.20319
 C38 C 0.02819 0.08485 0.21175
 C39 C 0.02472 0.12443 0.18375
 C40 C 0.00035 0.06133 0.13739
 C41 C -0.07203 -0.04473 0.29276
 C42 C -0.11418 -0.03687 0.31841
 C43 C -0.10007 0.05499 0.31172
 C44 C -0.05853 0.04544 0.28613
 N45 N -0.04517 -0.00378 0.27705
 H46 H -0.00503 -0.01646 0.15990
 H47 H 0.03985 0.09367 0.24069
 H48 H 0.03211 0.16360 0.19213
 H49 H -0.00970 0.05036 0.10851
 H50 H -0.06009 -0.08365 0.28617
 H51 H -0.13452 -0.06990 0.33115
 H52 H -0.10998 0.09451 0.31840
 H53 H -0.03668 0.07758 0.27402
 C54 C 0.00447 -0.17917 0.19254
 C55 C 0.16107 0.01065 0.31773
 C56 C -0.12831 0.01358 0.32842
 C57 C 0.00979 0.11316 0.14601
 C58 C -0.00087 0.10467 0.75283
 H59 H -0.00612 0.09963 0.72216
 C60 C -0.00162 0.15413 0.76778
 H61 H -0.00665 0.18705 0.74825
 C62 C 0.01109 0.06747 0.81543
 H63 H 0.01492 0.03346 0.83394
 C64 C 0.01048 0.11641 0.83168
 H65 H 0.01362 0.11957 0.86275
 N66 N 0.00527 0.06258 0.77663
 C67 C 0.06314 -0.06159 0.70389
 H68 H 0.03563 -0.09185 0.71149
 C69 C 0.10446 -0.07118 0.67792
 H70 H 0.10879 -0.10935 0.66619
 C71 C 0.09142 0.02438 0.71107
 H72 H 0.08658 0.06152 0.72414
 C73 C 0.13266 0.01678 0.68480
 H74 H 0.15807 0.04891 0.67748
 Zn75 Zn -0.00047 -0.00253 0.75349
 N76 N 0.05715 -0.01427 0.71959
 C77 C -0.06310 -0.00905 0.68669
 N78 N -0.06245 0.00013 0.72532
 C79 C -0.10601 0.01535 0.74505
 C80 C -0.15277 0.02134 0.72612
 C81 C -0.10913 -0.00302 0.66644
 C82 C 0.03922 -0.06893 0.81193
 C83 C 0.03752 -0.10840 0.84042
 C84 C -0.05310 -0.12086 0.82731
 C85 C -0.04942 -0.08210 0.79861
 N86 N -0.00403 -0.05634 0.79189
 H87 H -0.02779 -0.02000 0.67134
 H88 H -0.10421 0.02317 0.77563
 H89 H -0.18703 0.03275 0.74270
 H90 H -0.10865 -0.00922 0.63553
 H91 H 0.07500 -0.04827 0.80574
 H92 H 0.07205 -0.11803 0.85632
 H93 H -0.08963 -0.14071 0.83250
 H94 H -0.08305 -0.07275 0.78186
 C95 C 0.13971 -0.03149 0.66767
 C96 C 0.00329 0.16049 0.80778
 C97 C -0.00935 -0.13428 0.84861
 C98 C -0.15472 0.01284 0.68614
 C99 C 0.02187 -0.35798 0.09327
 C100 C -0.01299 -0.36948 0.12307
 C101 C -0.04143 -0.41483 0.12514
 C102 C -0.03449 -0.44943 0.09487
 C103 C -0.00019 -0.43797 0.06267
 C104 C 0.02940 -0.39179 0.06274
 O105 O 0.04379 -0.31202 0.09631
 C106 C 0.02190 -0.29402 0.12857
 C107 C -0.01332 -0.32765 0.14594
 C108 C -0.04308 -0.31543 0.17872
 C109 C -0.03645 -0.26638 0.19410
 C110 C -0.00013 -0.23124 0.17688
 C111 C 0.02985 -0.24542 0.14387
 H112 H -0.06896 -0.42277 0.14877
 H113 H -0.05842 -0.48370 0.09554
 H114 H 0.05700 -0.38204 0.03951
 H115 H -0.07114 -0.34226 0.19148
 H116 H -0.05966 -0.25553 0.21927
 H117 H 0.05708 -0.21874 0.12985
 C118 C 0.01864 0.31258 0.06209
 C119 C -0.01874 0.28339 0.04549
 C120 C -0.05025 0.30282 0.01643
 C121 C -0.04288 0.35441 0.00400
 C122 C -0.00437 0.38557 0.02063
 C123 C 0.02632 0.36390 0.05049
 O124 O 0.04365 0.28742 0.08989
 C125 C 0.02131 0.24140 0.09113
 C126 C -0.01723 0.23689 0.06468
 C127 C -0.04720 0.19268 0.06241
 C128 C -0.03742 0.15174 0.08876
 C129 C 0.00219 0.15538 0.11650
 C130 C 0.03237 0.20096 0.11702
 H131 H -0.08004 0.27940 0.00420
 H132 H -0.06862 0.37051 -0.01747
 H133 H 0.05603 0.38614 0.06400
 H134 H -0.07791 0.19025 0.04177
 H135 H -0.06195 0.11801 0.08823
 H136 H 0.06321 0.20538 0.13730
 C137 C 0.33765 -0.01498 0.58038
 C138 C 0.30703 -0.04936 0.56178
 C139 C 0.32304 -0.07307 0.52777
 C140 C 0.37256 -0.06074 0.51231
 C141 C 0.40448 -0.02453 0.53053
 C142 C 0.38659 -0.00162 0.56524
 O143 O 0.31537 0.00313 0.61238
 C144 C 0.26960 -0.02014 0.61397
 C145 C 0.26240 -0.05251 0.58367
 C146 C 0.21662 -0.07967 0.57932
 C147 C 0.17655 -0.07291 0.60721
 C148 C 0.18302 -0.03981 0.63897
 C149 C 0.23076 -0.01352 0.64230
 H150 H 0.29846 -0.10028 0.51375
 H151 H 0.38615 -0.07947 0.48623
 H152 H 0.40975 0.02637 0.57975
 H153 H 0.21158 -0.10452 0.55498
 H154 H 0.14017 -0.09259 0.60343
 H155 H 0.23778 0.01147 0.66623
 C156 C -0.32977 -0.00208 0.58154
 C157 C -0.33863 0.03871 0.60566
 C158 C -0.38324 0.06893 0.60460
 C159 C -0.42024 0.05688 0.57736
 C160 C -0.41181 0.01567 0.55163
 C161 C -0.36604 -0.01458 0.55388
 O162 O -0.28499 -0.02612 0.58793
 C163 C -0.26528 0.00022 0.61660
 C164 C -0.29660 0.04032 0.62831
 C165 C -0.28367 0.07312 0.65768
 C166 C -0.23660 0.06405 0.67606
 C167 C -0.20367 0.02233 0.66524
 C168 C -0.21830 -0.00980 0.63471
 H169 H -0.38934 0.10064 0.62405
 H170 H -0.45523 0.08011 0.57575
 H171 H -0.35899 -0.04640 0.53466
 H172 H -0.30887 0.10471 0.66607
 H173 H -0.22570 0.08992 0.69855
 H174 H -0.19444 -0.04213 0.62582
 C175 C 0.01495 -0.32885 0.93581
 C176 C -0.02461 -0.30136 0.95323
 C177 C -0.05526 -0.32158 0.98365
 C178 C -0.04473 -0.37222 0.99669
 C179 C -0.00379 -0.40174 0.97945
 C180 C 0.02598 -0.37930 0.94815
 O181 O 0.03829 -0.30322 0.90647
 C182 C 0.01269 -0.25865 0.90519
 C183 C -0.02632 -0.25562 0.93310
 C184 C -0.05980 -0.21349 0.93567
 C185 C -0.05312 -0.17312 0.90810
 C186 C -0.01319 -0.17538 0.87903
 C187 C 0.02061 -0.21851 0.87792
 H188 H -0.08688 -0.29954 0.99640
 H189 H -0.06992 -0.38901 1.01921
 H190 H 0.05727 -0.40033 0.93399
 H191 H -0.09063 -0.21225 0.95758
 H192 H -0.07926 -0.14027 0.90907
 H193 H 0.05068 -0.22163 0.85553
 C194 C 0.02300 0.34151 0.90498
 C195 C -0.01532 0.35131 0.87878
 C196 C -0.04620 0.39540 0.87954
 C197 C -0.03805 0.43038 0.90904
 C198 C 0.00051 0.42085 0.93697
 C199 C 0.03250 0.37635 0.93416
 O200 O 0.04589 0.29591 0.90039
 C201 C 0.02137 0.27655 0.87070
 C202 C -0.01626 0.30907 0.85639
 C203 C -0.04800 0.29589 0.82634
 C204 C -0.04069 0.24714 0.81031
 C205 C -0.00224 0.21255 0.82450
 C206 C 0.02930 0.22775 0.85520
 H207 H -0.07655 0.40188 0.85887
 H208 H -0.06309 0.46396 0.91107
 H209 H 0.06211 0.36801 0.95510
 H210 H -0.07786 0.32191 0.81599
 H211 H -0.06595 0.23590 0.78747
 H212 H 0.05888 0.20234 0.86678
 C213 C -0.32682 0.00732 0.41565
 C214 C -0.29580 0.04342 0.43190
 C215 C -0.31171 0.07172 0.46376
 C216 C -0.36129 0.06179 0.47999
 C217 C -0.39385 0.02345 0.46468
 C218 C -0.37642 -0.00290 0.43111
 O219 O -0.30415 -0.01568 0.38564
 C220 C -0.25779 0.00648 0.38288
 C221 C -0.25082 0.04303 0.41044
 C222 C -0.20513 0.07087 0.41293
 C223 C -0.16503 0.06077 0.38580
 C224 C -0.17115 0.02325 0.35697
 C225 C -0.21833 -0.00440 0.35572
 H226 H -0.28693 0.10063 0.47563
 H227 H -0.37465 0.08531 0.50372
 H228 H -0.39982 -0.03230 0.41838
 H229 H -0.20046 0.09927 0.43501
 H230 H -0.12897 0.08174 0.38754
 H231 H -0.22438 -0.03298 0.33397
 C232 C 0.35713 0.00182 0.39968
 C233 C 0.32900 0.04394 0.41198
 C234 C 0.34379 0.07405 0.44245
 C235 C 0.38917 0.05985 0.46143
 C236 C 0.41855 0.01617 0.44986
 C237 C 0.40295 -0.01278 0.41802
 O238 O 0.33441 -0.02296 0.37149
 C239 C 0.29107 0.00408 0.36607
 C240 C 0.28609 0.04538 0.39017
 C241 C 0.24266 0.07736 0.39106
 C242 C 0.20229 0.06605 0.36634
 C243 C 0.20601 0.02346 0.34137
 C244 C 0.25148 -0.00754 0.34081
 H245 H 0.32063 0.10662 0.45183
 H246 H 0.40101 0.08214 0.48577
 H247 H 0.42443 -0.04668 0.40909
 H248 H 0.23952 0.10926 0.41064
 H249 H 0.16782 0.09016 0.36687
 H250 H 0.25489 -0.04078 0.32251
   
