data_POSCAR
  _audit_creation_date              2014-09-24
  _audit_creation_method            'ToBaCCo'
  _symmetry_space_group_name_H-M    'P1'
  _symmetry_Int_Tables_number       1
  _symmetry_cell_setting            triclinic
  loop_
  _symmetry_equiv_pos_as_xyz
 x,y,z
_cell_length_a 11.4781
_cell_length_b 34.3326
_cell_length_c 11.4981
_cell_angle_alpha 90.252700
_cell_angle_beta 102.052700
_cell_angle_gamma 89.816800
loop_
  _atom_site_label
  _atom_site_type_symbol
  _atom_site_fract_x
  _atom_site_fract_y
  _atom_site_fract_z
N1 N 0.22054 0.04099 0.14897
 N2 N 0.28160 0.07373 0.15785
 N3 N 0.14617 -0.04033 0.22343
 N4 N 0.15379 -0.07319 0.28365
 N5 N 0.22057 -0.04071 0.15064
 N6 N 0.28033 -0.07383 0.15985
 N7 N 0.14641 0.04140 0.22190
 N8 N 0.15544 0.07446 0.28202
 C9 C 0.24182 0.09384 0.24289
 C10 C 0.23958 -0.09330 0.24490
 N11 N -0.19984 -0.04071 0.10317
 N12 N -0.25697 -0.07427 0.09708
 N13 N -0.10892 0.04240 0.19258
 N14 N -0.10045 0.07676 0.24629
 N15 N -0.20066 0.04169 0.10244
 N16 N -0.25888 0.07766 0.09394
 N17 N -0.10938 -0.04040 0.19467
 N18 N -0.10315 -0.07377 0.25260
 Mn19 Mn 0.01845 0.00077 0.20957
 C20 C -0.19697 -0.09421 0.19203
 C21 C -0.19362 0.09770 0.18617
 N22 N 0.19687 -0.04180 -0.10421
 N23 N 0.25596 -0.07761 -0.09571
 N24 N 0.10473 0.04018 -0.19703
 N25 N 0.09844 0.07356 -0.25501
 N26 N 0.19514 0.04056 -0.10548
 N27 N 0.25214 0.07414 -0.09937
 N28 N 0.10510 -0.04269 -0.19430
 N29 N 0.09756 -0.07701 -0.24813
 Mn30 Mn 0.20947 -0.00026 0.02255
 C31 C 0.19122 -0.09775 -0.18798
 C32 C 0.19218 0.09406 -0.19436
 N33 N -0.22479 0.04059 -0.15262
 N34 N -0.28365 0.07387 -0.16139
 N35 N -0.15062 -0.04204 -0.22312
 N36 N -0.15552 -0.07602 -0.27824
 N37 N -0.22644 -0.04095 -0.15192
 N38 N -0.28720 -0.07622 -0.15860
 N39 N -0.15079 0.03996 -0.22580
 N40 N -0.15774 0.07286 -0.28576
 Mn41 Mn -0.21398 0.00017 -0.02469
 Mn42 Mn -0.02288 -0.00117 -0.21155
 Cl43 Cl -0.00223 -0.00014 -0.00109
 C44 C -0.24276 0.09324 -0.24655
 C45 C -0.24091 -0.09620 -0.23967
 N46 N 0.72472 0.54108 0.64997
 N47 N 0.78310 0.57435 0.65715
 N48 N 0.65240 0.45921 0.72313
 N49 N 0.66060 0.42606 0.78190
 N50 N 0.72556 0.45922 0.64915
 N51 N 0.78502 0.42607 0.65606
 N52 N 0.65154 0.54107 0.72395
 N53 N 0.65867 0.57432 0.78297
 C54 C 0.74288 0.59432 0.74223
 C55 C 0.74545 0.40615 0.74100
 N56 N 0.30589 0.45867 0.60667
 N57 N 0.24905 0.42503 0.59995
 N58 N 0.39646 0.54133 0.69828
 N59 N 0.40301 0.57494 0.75578
 N60 N 0.30508 0.54132 0.60772
 N61 N 0.24767 0.57493 0.60180
 N62 N 0.39729 0.45868 0.69724
 N63 N 0.40442 0.42505 0.75393
 Mn64 Mn 0.52442 0.50007 0.71208
 C65 C 0.31020 0.40473 0.69356
 C66 C 0.30847 0.59523 0.69589
 N67 N 0.69708 0.45876 0.39419
 N68 N 0.75445 0.42514 0.40009
 N69 N 0.60503 0.54137 0.30453
 N70 N 0.59812 0.57491 0.24744
 N71 N 0.69644 0.54140 0.39505
 N72 N 0.75356 0.57497 0.40136
 N73 N 0.60566 0.45876 0.30365
 N74 N 0.59900 0.42513 0.24619
 Mn75 Mn 0.71237 0.50012 0.52208
 C76 C 0.69355 0.40484 0.30604
 C77 C 0.69250 0.59519 0.30754
 N78 N 0.27679 0.54095 0.35280
 N79 N 0.21701 0.57405 0.34562
 N80 N 0.35058 0.45923 0.27773
 N81 N 0.34229 0.42623 0.21741
 N82 N 0.27745 0.45918 0.35172
 N83 N 0.21787 0.42614 0.34331
 N84 N 0.34998 0.54098 0.27885
 N85 N 0.34151 0.57408 0.21981
 Mn86 Mn 0.28990 0.50003 0.47978
 Mn87 Mn 0.47785 0.50008 0.28979
 Cl88 Cl 0.50113 0.50007 0.50094
 C89 C 0.25645 0.59394 0.26054
 C90 C 0.25739 0.40636 0.25743
 C91 C 0.16078 0.25938 0.15933
 C92 C 0.27191 0.23520 0.14760
 C93 C 0.26069 0.21209 0.25868
 C94 C 0.14972 0.23555 0.27052
 C95 C 0.24255 0.28802 0.24054
 C96 C 0.23134 0.26488 0.35161
 C97 C 0.35357 0.26456 0.22868
 C98 C 0.34246 0.24071 0.33987
 C99 C 0.26413 0.16971 0.26305
 C100 C 0.25874 0.13482 0.25874
 C101 C 0.23812 0.33041 0.23663
 C102 C 0.24217 0.36532 0.24135
 H103 H 0.08653 0.26781 0.08547
 H104 H 0.29045 0.22158 0.06572
 H105 H 0.06808 0.22209 0.28960
 H106 H 0.21278 0.27845 0.43355
 H107 H 0.43544 0.27786 0.20959
 H108 H 0.41673 0.23224 0.41361
 C109 C 0.85430 0.73461 0.29601
 C110 C 0.82191 0.75682 0.17654
 C111 C 0.75993 0.78830 0.23763
 C112 C 0.79266 0.76674 0.35682
 C113 C 0.73531 0.71277 0.26332
 C114 C 0.67337 0.74425 0.32448
 C115 C 0.70260 0.73434 0.14414
 C116 C 0.64092 0.76646 0.20498
 C117 C 0.77331 0.83045 0.22343
 C118 C 0.78547 0.86498 0.21050
 C119 C 0.72201 0.67060 0.27726
 C120 C 0.70996 0.63605 0.28977
 H121 H 0.94142 0.72079 0.33400
 H122 H 0.88323 0.76255 0.11573
 H123 H 0.83022 0.78075 0.44370
 H124 H 0.61236 0.73854 0.38561
 H125 H 0.66509 0.72040 0.05712
 H126 H 0.55365 0.78020 0.16703
 C127 C 0.65009 0.26442 0.76645
 C128 C 0.66179 0.24022 0.65547
 C129 C 0.74337 0.21168 0.73697
 C130 C 0.73155 0.23517 0.84783
 C131 C 0.76117 0.28766 0.75506
 C132 C 0.84275 0.25912 0.83658
 C133 C 0.77300 0.26417 0.64420
 C134 C 0.85445 0.23490 0.72559
 C135 C 0.73906 0.16925 0.73294
 C136 C 0.74286 0.13432 0.73750
 C137 C 0.76521 0.33010 0.75939
 C138 C 0.76087 0.36504 0.75553
 H139 H 0.56795 0.27788 0.78513
 H140 H 0.58784 0.23168 0.58142
 H141 H 0.71265 0.22182 0.92954
 H142 H 0.91675 0.26762 0.91068
 H143 H 0.79186 0.27748 0.56242
 H144 H 0.93646 0.22135 0.70695
 C145 C 0.14276 0.73423 0.70928
 C146 C 0.17473 0.75671 0.82880
 C147 C 0.23449 0.78836 0.76729
 C148 C 0.20222 0.76651 0.64808
 C149 C 0.26292 0.71288 0.74112
 C150 C 0.32273 0.74451 0.67961
 C151 C 0.29523 0.73472 0.86032
 C152 C 0.35471 0.76701 0.79913
 C153 C 0.21912 0.83051 0.78175
 C154 C 0.20622 0.86507 0.79503
 C155 C 0.27771 0.67071 0.72690
 C156 C 0.29053 0.63614 0.71412
 H157 H 0.05626 0.72002 0.67174
 H158 H 0.11374 0.76230 0.89023
 H159 H 0.16335 0.78023 0.56136
 H160 H 0.38383 0.73896 0.61824
 H161 H 0.33410 0.72099 0.94703
 H162 H 0.44139 0.78112 0.83661
 C163 C 0.32583 0.25548 0.67425
 C164 C 0.35828 0.23295 0.79318
 C165 C 0.23842 0.21156 0.76084
 C166 C 0.20569 0.23345 0.64220
 C167 C 0.26555 0.28708 0.73659
 C168 C 0.14573 0.26569 0.70427
 C169 C 0.29830 0.26520 0.85523
 C170 C 0.17816 0.24317 0.82319
 C171 C 0.22345 0.16940 0.77436
 C172 C 0.21026 0.13488 0.78699
 C173 C 0.27998 0.32926 0.72326
 C174 C 0.29259 0.36383 0.71110
 H175 H 0.38674 0.26109 0.61297
 H176 H 0.44530 0.21890 0.83019
 H177 H 0.16708 0.21979 0.55504
 H178 H 0.05886 0.27982 0.66720
 H179 H 0.33695 0.27889 0.94234
 H180 H 0.11725 0.23757 0.88450
 C181 C 0.64846 0.73671 0.77161
 C182 C 0.73118 0.76555 0.85369
 C183 C 0.74343 0.78898 0.74348
 C184 C 0.66056 0.76086 0.66127
 C185 C 0.75859 0.71289 0.75902
 C186 C 0.77077 0.73631 0.64878
 C187 C 0.84139 0.74102 0.84121
 C188 C 0.85347 0.76515 0.73087
 C189 C 0.74141 0.83145 0.74093
 C190 C 0.74675 0.86638 0.74649
 C191 C 0.76184 0.67042 0.76216
 C192 C 0.75755 0.63547 0.75752
 H193 H 0.56612 0.72362 0.79021
 H194 H 0.71293 0.77897 0.93596
 H195 H 0.58659 0.76973 0.58771
 H196 H 0.78888 0.72288 0.56647
 H197 H 0.91526 0.73213 0.91483
 H198 H 0.93552 0.77840 0.71216
 C199 C 0.22742 0.73588 0.35616
 C200 C 0.33837 0.75992 0.34457
 C201 C 0.25641 0.78835 0.26299
 C202 C 0.14560 0.76504 0.27469
 C203 C 0.23922 0.71235 0.24536
 C204 C 0.15729 0.74079 0.16378
 C205 C 0.35004 0.73567 0.23364
 C206 C 0.26822 0.76482 0.15221
 C207 C 0.25997 0.83078 0.26653
 C208 C 0.25526 0.86568 0.26145
 C209 C 0.23567 0.66992 0.24134
 C210 C 0.24048 0.63500 0.24554
 H211 H 0.20878 0.72255 0.43799
 H212 H 0.41240 0.76852 0.41849
 H213 H 0.06360 0.77857 0.29341
 H214 H 0.08329 0.73218 0.08984
 H215 H 0.43205 0.72218 0.21479
 H216 H 0.28691 0.77819 0.07045
 C217 C 0.70642 0.26558 0.14007
 C218 C 0.82643 0.24330 0.17168
 C219 C 0.76566 0.21169 0.23232
 C220 C 0.64593 0.23333 0.20040
 C221 C 0.73872 0.28719 0.25967
 C222 C 0.67794 0.25559 0.32033
 C223 C 0.85840 0.26556 0.29161
 C224 C 0.79795 0.23330 0.35194
 C225 C 0.78004 0.16951 0.21714
 C226 C 0.79214 0.13493 0.20341
 C227 C 0.72433 0.32937 0.27447
 C228 C 0.71158 0.36393 0.28760
 H229 H 0.66823 0.27950 0.05349
 H230 H 0.88762 0.23768 0.11047
 H231 H 0.55898 0.21947 0.16239
 H232 H 0.61680 0.26120 0.38160
 H233 H 0.94509 0.27956 0.32975
 H234 H 0.83614 0.21940 0.43856
   
