data_POSCAR
  _audit_creation_date              2014-09-24
  _audit_creation_method            'ToBaCCo'
  _symmetry_space_group_name_H-M    'P1'
  _symmetry_Int_Tables_number       1
  _symmetry_cell_setting            triclinic
  loop_
  _symmetry_equiv_pos_as_xyz
 x,y,z
_cell_length_a 32.1591
_cell_length_b 32.1556
_cell_length_c 32.1935
_cell_angle_alpha 80.885800
_cell_angle_beta 99.826100
_cell_angle_gamma 99.337100
loop_
  _atom_site_label
  _atom_site_type_symbol
  _atom_site_fract_x
  _atom_site_fract_y
  _atom_site_fract_z
C1 C 0.59655 0.59644 -0.00033
 C2 C 0.60488 0.55454 0.00353
 C3 C 0.57132 0.52080 0.00488
 C4 C 0.52861 0.52852 0.00013
 C5 C 0.52087 0.57119 -0.00486
 C6 C 0.55463 0.60477 -0.00397
 C7 C 0.49251 0.49243 0.00037
 C8 C 0.45309 0.49717 0.01171
 C9 C 0.41918 0.46379 0.01087
 C10 C 0.42463 0.42459 0.00078
 C11 C 0.46354 0.41885 -0.00951
 C12 C 0.49691 0.45271 -0.01075
 H13 H 0.62263 0.62253 -0.00050
 H14 H 0.57898 0.48867 0.00993
 H15 H 0.48868 0.57880 -0.00973
 H16 H 0.44829 0.52650 0.02144
 H17 H 0.39856 0.39853 0.00093
 H18 H 0.52597 0.44763 -0.02064
 C19 C -0.00045 0.57635 0.42350
 C20 C -0.01038 0.58232 0.46250
 C21 C -0.01136 0.54860 0.49591
 C22 C -0.00028 0.50889 0.49145
 C23 C 0.01071 0.50394 0.45196
 C24 C 0.00956 0.53712 0.41798
 C25 C -0.00023 0.47301 0.52759
 C26 C -0.00510 0.43026 0.51998
 C27 C -0.00399 0.39693 0.55374
 C28 C -0.00023 0.40549 0.59553
 C29 C 0.00353 0.44742 0.60377
 C30 C 0.00465 0.48098 0.57024
 H31 H -0.00051 0.60229 0.39739
 H32 H -0.02102 0.55369 0.52508
 H33 H 0.02043 0.47458 0.44723
 H34 H -0.01006 0.42229 0.48794
 H35 H -0.00023 0.37958 0.62159
 H36 H 0.00959 0.51310 0.57796
 C37 C 0.57735 -0.00016 0.57562
 C38 C 0.53828 0.00992 0.58124
 C39 C 0.50460 0.01080 0.54738
 C40 C 0.50886 -0.00048 0.50776
 C41 C 0.54845 -0.01162 0.50310
 C42 C 0.58269 -0.01040 0.53649
 C43 C 0.47242 -0.00060 0.47169
 C44 C 0.47974 0.00417 0.42903
 C45 C 0.44569 0.00301 0.39551
 C46 C 0.40390 -0.00073 0.40380
 C47 C 0.39597 -0.00440 0.44566
 C48 C 0.42981 -0.00544 0.47940
 H49 H 0.60359 -0.00001 0.60178
 H50 H 0.47539 0.02053 0.55238
 H51 H 0.55304 -0.02149 0.47380
 H52 H 0.51174 0.00909 0.42128
 H53 H 0.37761 -0.00077 0.37774
 H54 H 0.42235 -0.01028 0.51146
 O55 O 0.47020 0.00827 -0.07558
 O56 O 0.45999 -0.00314 0.03771
 O57 O 0.46121 0.05953 -0.02414
 O58 O 0.47113 -0.05449 -0.01393
 O59 O 0.54081 -0.03924 0.00243
 O60 O 0.53102 0.07436 -0.00832
 O61 O 0.52967 0.01225 0.05394
 O62 O 0.54001 0.02311 -0.05977
 Cu63 Cu 0.45864 0.00089 -0.02042
 Cu64 Cu 0.54237 0.01895 -0.00118
 C65 C 0.50677 0.01771 -0.08715
 C66 C 0.49289 0.00328 0.06519
 C67 C 0.49452 0.08647 -0.01813
 C68 C 0.50785 -0.06628 -0.00456
 O69 O -0.03897 0.54097 0.99841
 O70 O 0.07489 0.53136 1.01035
 O71 O 0.01271 0.53040 0.94721
 O72 O 0.02341 0.53968 1.06148
 O73 O 0.00859 0.46996 1.07565
 O74 O -0.00269 0.46079 0.96180
 O75 O 0.06007 0.46163 1.02452
 O76 O -0.05422 0.47136 1.01316
 Cu77 Cu 0.01934 0.54258 1.00279
 Cu78 Cu 0.00129 0.45896 1.02005
 C79 C -0.06605 0.50801 1.00442
 C80 C 0.08705 0.49493 1.01950
 C81 C 0.00375 0.49382 0.93505
 C82 C 0.01795 0.50631 1.08814
 O83 O -0.02440 -0.06069 0.46036
 O84 O -0.01378 0.05344 0.47028
 O85 O 0.03782 0.00197 0.45944
 O86 O -0.07580 -0.00931 0.46903
 O87 O -0.06033 -0.02389 0.53875
 O88 O 0.05371 -0.01316 0.52903
 O89 O 0.00225 0.03846 0.53988
 O90 O -0.00892 -0.07526 0.53008
 Cu91 Cu -0.02044 -0.00203 0.45780
 Cu92 Cu -0.00161 -0.01977 0.54142
 C93 C -0.01861 -0.08752 0.49362
 C94 C -0.00452 0.06539 0.50695
 C95 C 0.06518 -0.00434 0.49240
 C96 C -0.08760 -0.01858 0.50545
 C97 C -0.16708 0.55795 0.99312
 C98 C -0.19693 0.52237 1.00260
 C99 C -0.18433 0.48181 1.01135
 C100 C -0.14189 0.47693 1.01118
 C101 C -0.35445 0.54668 1.00490
 C102 C -0.12469 0.55317 0.99294
 C103 C -0.24029 0.52778 1.00379
 C104 C -0.27638 0.53311 1.00465
 C105 C -0.31851 0.54014 1.00518
 C106 C -0.11151 0.51262 1.00226
 H107 H -0.17647 0.58949 0.98624
 H108 H -0.20719 0.45403 1.01869
 H109 H -0.13278 0.44531 1.01857
 H110 H -0.10215 0.58131 0.98598
 C111 C 0.20614 0.52476 1.02061
 C112 C 0.21990 0.48477 1.02883
 C113 C 0.19040 0.44809 1.03515
 C114 C 0.14719 0.45133 1.03273
 C115 C 0.37795 0.46989 1.01858
 C116 C 0.16298 0.52809 1.01815
 C117 C 0.26388 0.48128 1.02855
 C118 C 0.30038 0.47819 1.02693
 C119 C 0.34257 0.47408 1.02329
 C120 C 0.13295 0.49138 1.02382
 H121 H 0.22869 0.55334 1.01546
 H122 H 0.20071 0.41695 1.04133
 H123 H 0.12490 0.42248 1.03726
 H124 H 0.15310 0.55940 1.01130
 C125 C -0.01860 -0.20638 0.52324
 C126 C -0.02754 -0.22026 0.48321
 C127 C -0.03464 -0.19090 0.44658
 C128 C -0.03231 -0.14772 0.44990
 C129 C -0.01742 -0.37844 0.46813
 C130 C -0.01624 -0.16325 0.52665
 C131 C -0.02725 -0.26423 0.47963
 C132 C -0.02565 -0.30075 0.47648
 C133 C -0.02207 -0.34298 0.47233
 C134 C -0.02272 -0.13337 0.48999
 H135 H -0.01285 -0.22881 0.55178
 H136 H -0.04139 -0.20131 0.41541
 H137 H -0.03749 -0.12555 0.42109
 H138 H -0.00884 -0.15328 0.55798
 C139 C -0.01248 0.18346 0.48088
 C140 C -0.00315 0.19621 0.52145
 C141 C 0.00698 0.16650 0.55702
 C142 C 0.00729 0.12412 0.55219
 C143 C -0.00554 0.35388 0.54557
 C144 C -0.01218 0.14103 0.47595
 C145 C -0.00440 0.23958 0.52689
 C146 C -0.00528 0.27570 0.53219
 C147 C -0.00582 0.31788 0.53913
 C148 C -0.00258 0.11080 0.51163
 H149 H -0.02033 0.20620 0.45311
 H150 H 0.01431 0.17601 0.58857
 H151 H 0.01477 0.10170 0.58032
 H152 H -0.02000 0.13181 0.44431
 C153 C 0.47743 0.01864 -0.20635
 C154 C 0.51757 0.02728 -0.21949
 C155 C 0.55420 0.03386 -0.18953
 C156 C 0.55075 0.03131 -0.14646
 C157 C 0.53254 0.01754 -0.37741
 C158 C 0.47388 0.01606 -0.16334
 C159 C 0.52126 0.02717 -0.26335
 C160 C 0.52443 0.02568 -0.29981
 C161 C 0.52850 0.02217 -0.34198
 C162 C 0.51055 0.02201 -0.13285
 H163 H 0.44889 0.01329 -0.22927
 H164 H 0.58546 0.04036 -0.19937
 H165 H 0.57956 0.03608 -0.12380
 H166 H 0.44246 0.00891 -0.15394
 C167 C 0.51860 0.01083 0.18352
 C168 C 0.47789 0.00186 0.19550
 C169 C 0.44236 -0.00794 0.16520
 C170 C 0.44735 -0.00825 0.12298
 C171 C 0.45362 0.00447 0.35256
 C172 C 0.52369 0.01054 0.14125
 C173 C 0.47230 0.00314 0.23869
 C174 C 0.46693 0.00407 0.27467
 C175 C 0.45997 0.00468 0.31668
 C176 C 0.48805 0.00129 0.11043
 H177 H 0.54634 0.01842 0.20674
 H178 H 0.41071 -0.01499 0.17413
 H179 H 0.41925 -0.01546 0.10008
 H180 H 0.55542 0.01809 0.13263
 C181 C 0.55800 -0.16714 0.00693
 C182 C 0.52241 -0.19699 -0.00340
 C183 C 0.48178 -0.18441 -0.01289
 C184 C 0.47682 -0.14202 -0.01255
 C185 C 0.54681 -0.35454 -0.00551
 C186 C 0.55315 -0.12479 0.00727
 C187 C 0.52788 -0.24033 -0.00463
 C188 C 0.53323 -0.27644 -0.00546
 C189 C 0.54027 -0.31858 -0.00590
 C190 C 0.51253 -0.11166 -0.00274
 H191 H 0.58960 -0.17652 0.01438
 H192 H 0.45398 -0.20727 -0.02089
 H193 H 0.44514 -0.13294 -0.02049
 H194 H 0.58131 -0.10227 0.01492
 C195 C 0.44747 0.18964 -0.03422
 C196 C 0.48417 0.21913 -0.02695
 C197 C 0.52424 0.20540 -0.01783
 C198 C 0.52763 0.16229 -0.01547
 C199 C 0.46939 0.37741 -0.01705
 C200 C 0.45077 0.14648 -0.03189
 C201 C 0.48061 0.26309 -0.02671
 C202 C 0.47751 0.29963 -0.02516
 C203 C 0.47346 0.34190 -0.02164
 C204 C 0.49090 0.13228 -0.02214
 H205 H 0.41627 0.19994 -0.04110
 H206 H 0.55283 0.22793 -0.01195
 H207 H 0.55900 0.15243 -0.00796
 H208 H 0.42191 0.12421 -0.03722
 C209 C -0.20688 -0.01919 0.47565
 C210 C -0.22024 -0.02769 0.51564
 C211 C -0.19040 -0.03429 0.55231
 C212 C -0.14725 -0.03190 0.54905
 C213 C -0.37820 -0.01751 0.53074
 C214 C -0.16378 -0.01677 0.47230
 C215 C -0.26417 -0.02742 0.51917
 C216 C -0.30066 -0.02581 0.52231
 C217 C -0.34282 -0.02221 0.52648
 C218 C -0.13341 -0.02275 0.50901
 H219 H -0.22969 -0.01382 0.44709
 H220 H -0.20041 -0.04068 0.58344
 H221 H -0.12470 -0.03668 0.57789
 H222 H -0.15420 -0.00973 0.44100
 C223 C 0.16565 0.00662 0.44249
 C224 C 0.19582 -0.00311 0.47807
 C225 C 0.18360 -0.01195 0.51861
 C226 C 0.14124 -0.01159 0.52349
 C227 C 0.35308 -0.00587 0.45392
 C228 C 0.12334 0.00698 0.44726
 C229 C 0.23911 -0.00446 0.47267
 C230 C 0.27515 -0.00543 0.46738
 C231 C 0.31720 -0.00607 0.46040
 C232 C 0.11055 -0.00242 0.48780
 H233 H 0.17476 0.01356 0.41096
 H234 H 0.20671 -0.01948 0.54640
 H235 H 0.13242 -0.01904 0.55510
 H236 H 0.10055 0.01413 0.41912
 C237 C 0.01808 0.47612 1.20685
 C238 C 0.02670 0.51604 1.22095
 C239 C 0.03354 0.55278 1.19180
 C240 C 0.03128 0.54967 1.14861
 C241 C 0.01655 0.53111 1.37892
 C242 C 0.01579 0.47293 1.16371
 C243 C 0.02635 0.51943 1.26492
 C244 C 0.02474 0.52252 1.30141
 C245 C 0.02117 0.52673 1.34357
 C246 C 0.02202 0.50970 1.13403
 H247 H 0.01253 0.44750 1.22912
 H248 H 0.04004 0.58386 1.20237
 H249 H 0.03625 0.57857 1.12661
 H250 H 0.00864 0.44168 1.15356
 C251 C 0.01148 0.52043 0.81715
 C252 C 0.00246 0.47996 0.80418
 C253 C -0.00742 0.44430 0.83368
 C254 C -0.00775 0.44892 0.87606
 C255 C 0.00505 0.45591 0.64669
 C256 C 0.01115 0.52516 0.85958
 C257 C 0.00377 0.47470 0.76082
 C258 C 0.00470 0.46946 0.72472
 C259 C 0.00529 0.46248 0.68260
 C260 C 0.00182 0.48938 0.88960
 H261 H 0.01913 0.54827 0.79458
 H262 H -0.01451 0.41282 0.82401
 H263 H -0.01503 0.42072 0.89830
 H264 H 0.01874 0.55672 0.86897
   
