data_POSCAR
  _audit_creation_date              2014-09-24
  _audit_creation_method            'ToBaCCo'
  _symmetry_space_group_name_H-M    'P1'
  _symmetry_Int_Tables_number       1
  _symmetry_cell_setting            triclinic
  loop_
  _symmetry_equiv_pos_as_xyz
 x,y,z
_cell_length_a 18.4612
_cell_length_b 18.4611
_cell_length_c 20.6642
_cell_angle_alpha 89.873300
_cell_angle_beta 89.934900
_cell_angle_gamma 89.999800
loop_
  _atom_site_label
  _atom_site_type_symbol
  _atom_site_fract_x
  _atom_site_fract_y
  _atom_site_fract_z
O1 O -0.07033 0.43535 1.06415
 O2 O -0.07079 0.56560 0.93389
 O3 O -0.04993 0.42418 0.93989
 O4 O -0.05015 0.57666 1.05830
 O5 O 0.06884 0.56563 1.06387
 O6 O 0.06894 0.43604 0.93357
 O7 O 0.04807 0.57746 0.93971
 O8 O 0.04865 0.42434 1.05807
 Cu9 Cu -0.07139 0.50046 0.99903
 Cu10 Cu 0.06972 0.50085 0.99873
 C11 C -0.01253 0.40408 1.08078
 C12 C -0.01327 0.59752 0.91730
 C13 C 0.01134 0.40432 0.91720
 C14 C 0.01109 0.59680 1.08074
 O15 O 0.56594 0.07057 0.43393
 O16 O 0.43581 0.06957 0.56416
 O17 O 0.57713 0.04942 0.55832
 O18 O 0.42454 0.04969 0.43988
 O19 O 0.43639 -0.06916 0.43353
 O20 O 0.56610 -0.06960 0.56386
 O21 O 0.42481 -0.04939 0.55805
 O22 O 0.57782 -0.04831 0.43972
 Cu23 Cu 0.50086 0.07090 0.49905
 Cu24 Cu 0.50126 -0.07021 0.49871
 C25 C 0.59785 0.01312 0.41733
 C26 C 0.40457 0.01170 0.58076
 C27 C 0.59729 -0.01192 0.58075
 C28 C 0.40466 -0.01149 0.41717
 C29 C -0.09752 0.01322 0.27629
 C30 C -0.02886 0.02812 0.25079
 C31 C -0.01389 0.09671 0.22515
 C32 C -0.06757 0.15004 0.22339
 C33 C -0.13601 0.13537 0.25054
 C34 C -0.15082 0.06698 0.27782
 C35 C 0.02735 -0.02814 0.25074
 C36 C 0.01241 -0.09666 0.22525
 C37 C 0.06623 -0.14985 0.22319
 C38 C 0.13479 -0.13511 0.24991
 C39 C 0.14955 -0.06679 0.27704
 C40 C 0.09609 -0.01320 0.27585
 H41 H -0.10870 -0.03960 0.29706
 H42 H 0.03895 0.10779 0.20441
 H43 H -0.04049 -0.10777 0.20480
 H44 H 0.10725 0.03957 0.29649
 H45 H -0.17737 0.17677 0.25040
 H46 H 0.17628 -0.17639 0.24954
 C47 C -0.01266 -0.09774 0.77621
 C48 C -0.02742 -0.02902 0.75074
 C49 C -0.09590 -0.01398 0.72509
 C50 C -0.14924 -0.06763 0.72327
 C51 C -0.13471 -0.13614 0.75038
 C52 C -0.06644 -0.15101 0.77769
 C53 C 0.02883 0.02719 0.75078
 C54 C 0.09747 0.01232 0.72531
 C55 C 0.15065 0.06616 0.72331
 C56 C 0.13577 0.13467 0.75006
 C57 C 0.06733 0.14935 0.77717
 C58 C 0.01377 0.09587 0.77593
 H59 H 0.04007 -0.10897 0.79700
 H60 H -0.10688 0.03891 0.70439
 H61 H 0.10868 -0.04053 0.70482
 H62 H -0.03910 0.10698 0.79655
 H63 H -0.17613 -0.17747 0.75022
 H64 H 0.17702 0.17617 0.74973
 C65 C 0.10527 -0.27882 0.17081
 C66 C 0.05008 -0.33754 0.19171
 C67 C 0.01882 -0.33806 0.12278
 C68 C 0.07386 -0.27983 0.10163
 C69 C -0.03654 -0.27925 0.14051
 C70 C -0.00521 -0.27760 0.21025
 C71 C 0.05015 -0.21979 0.18887
 C72 C 0.01880 -0.22055 0.11978
 H73 H 0.16394 -0.27961 0.18239
 H74 H 0.06233 -0.38637 0.22117
 H75 H 0.10616 -0.28076 0.05626
 H76 H -0.09495 -0.27997 0.12784
 H77 H -0.03740 -0.27602 0.25562
 H78 H 0.00655 -0.17199 0.08996
 C79 C -0.10656 0.27933 0.17123
 C80 C -0.05122 0.33787 0.19190
 C81 C -0.02018 0.33872 0.12283
 C82 C -0.07536 0.28069 0.10191
 C83 C 0.03516 0.27974 0.14028
 C84 C 0.00405 0.27774 0.21016
 C85 C -0.05146 0.22014 0.18901
 C86 C -0.02033 0.22123 0.11978
 H87 H -0.16518 0.28015 0.18306
 H88 H -0.06331 0.38655 0.22144
 H89 H -0.10781 0.28190 0.05669
 H90 H 0.09353 0.28045 0.12735
 H91 H 0.03638 0.27587 0.25539
 H92 H -0.00823 0.17281 0.08988
 C93 C 0.22176 0.01916 0.61980
 C94 C 0.28111 0.07430 0.60180
 C95 C 0.33926 0.01917 0.62282
 C96 C 0.28039 -0.03628 0.64039
 C97 C 0.33847 0.05013 0.69183
 C98 C 0.27982 0.10540 0.67106
 C99 C 0.22073 0.05020 0.68898
 C100 C 0.27845 -0.00525 0.71021
 H101 H 0.17331 0.00703 0.58995
 H102 H 0.28220 0.10681 0.55652
 H103 H 0.28116 -0.09462 0.62758
 H104 H 0.38718 0.06225 0.72132
 H105 H 0.28058 0.16402 0.68279
 H106 H 0.27670 -0.03764 0.75551
 C107 C -0.27833 -0.10642 0.67098
 C108 C -0.33694 -0.05117 0.69179
 C109 C -0.33752 -0.01982 0.62280
 C110 C -0.27941 -0.07492 0.60173
 C111 C -0.27861 0.03543 0.64039
 C112 C -0.27689 0.00401 0.71019
 C113 C -0.21920 -0.05140 0.68891
 C114 C -0.22002 -0.01997 0.61976
 H115 H -0.27918 -0.16510 0.68267
 H116 H -0.38574 -0.06338 0.72128
 H117 H -0.28046 -0.10717 0.55643
 H118 H -0.27926 0.09385 0.62761
 H119 H -0.27519 0.03614 0.75550
 H120 H -0.17149 -0.00775 0.58989
 C121 C -0.01931 -0.22275 0.88102
 C122 C -0.07501 -0.28154 0.89924
 C123 C -0.02062 -0.34017 0.87791
 C124 C 0.03543 -0.28193 0.86021
 C125 C -0.05191 -0.33905 0.80902
 C126 C -0.10646 -0.27983 0.83005
 C127 C -0.05074 -0.22127 0.81195
 C128 C 0.00400 -0.27954 0.79048
 H129 H -0.00650 -0.17447 0.91085
 H130 H -0.10731 -0.28228 0.94462
 H131 H 0.09385 -0.28330 0.87281
 H132 H -0.06473 -0.38756 0.77953
 H133 H -0.16515 -0.27996 0.81855
 H134 H 0.03615 -0.27802 0.74508
 C135 C 0.02002 0.22129 0.88004
 C136 C 0.07482 0.28115 0.89717
 C137 C 0.01935 0.33876 0.87568
 C138 C -0.03575 0.27937 0.85897
 C139 C 0.05029 0.33743 0.80658
 C140 C 0.10591 0.27931 0.82783
 C141 C 0.05104 0.21970 0.81078
 C142 C -0.00475 0.27689 0.78907
 H143 H 0.00819 0.17309 0.91050
 H144 H 0.10735 0.28290 0.94232
 H145 H -0.09410 0.27994 0.87196
 H146 H 0.06211 0.38589 0.77649
 H147 H 0.16451 0.28025 0.81590
 H148 H -0.03715 0.27447 0.74392
 C149 C -0.27931 -0.00356 0.29054
 C150 C -0.28164 -0.03532 0.36024
 C151 C -0.33986 0.02065 0.37797
 C152 C -0.33881 0.05226 0.30911
 C153 C -0.28122 0.07494 0.39935
 C154 C -0.22243 0.01933 0.38111
 C155 C -0.22103 0.05109 0.31206
 C156 C -0.27958 0.10672 0.33019
 H157 H -0.27782 -0.03548 0.24511
 H158 H -0.28298 -0.09379 0.37279
 H159 H -0.38735 0.06522 0.27961
 H160 H -0.28192 0.10702 0.44476
 H161 H -0.17413 0.00639 0.41094
 H162 H -0.27973 0.16546 0.31874
 C163 C 0.22160 -0.02000 0.37995
 C164 C 0.28147 -0.07489 0.39706
 C165 C 0.33907 -0.01932 0.37562
 C166 C 0.27967 0.03587 0.35894
 C167 C 0.33767 -0.04993 0.30650
 C168 C 0.27956 -0.10564 0.32768
 C169 C 0.21995 -0.05068 0.31067
 C170 C 0.27712 0.00520 0.28902
 H171 H 0.17344 -0.00830 0.41041
 H172 H 0.28326 -0.10763 0.44218
 H173 H 0.28026 0.09416 0.37197
 H174 H 0.38610 -0.06161 0.27641
 H175 H 0.28048 -0.16419 0.31570
 H176 H 0.27466 0.03782 0.24389
   
