data_POSCAR
  _audit_creation_date              2014-09-24
  _audit_creation_method            'ToBaCCo'
  _symmetry_space_group_name_H-M    'P1'
  _symmetry_Int_Tables_number       1
  _symmetry_cell_setting            triclinic
  loop_
  _symmetry_equiv_pos_as_xyz
 x,y,z
_cell_length_a 38.7433
_cell_length_b 38.2331
_cell_length_c 38.6910
_cell_angle_alpha 91.894900
_cell_angle_beta 90.631100
_cell_angle_gamma 91.382600
loop_
  _atom_site_label
  _atom_site_type_symbol
  _atom_site_fract_x
  _atom_site_fract_y
  _atom_site_fract_z
N1 N 0.58297 0.67686 0.61316
 N2 N 0.56980 0.66350 0.64111
 C3 C 0.54176 0.68161 0.65032
 C4 C 0.53717 0.70776 0.62687
 C5 C 0.56379 0.70386 0.60365
 H6 H 0.52586 0.67598 0.67230
 H7 H 0.56870 0.71961 0.58144
 Cu8 Cu 0.59040 0.62354 0.66255
 Cu9 Cu 0.62392 0.65834 0.59118
 Cu10 Cu 0.66034 0.58620 0.62782
 N11 N 0.61067 0.58248 0.68226
 N12 N 0.63803 0.56810 0.66860
 C13 C 0.64693 0.54064 0.68735
 C14 C 0.62385 0.53744 0.71422
 C15 C 0.60115 0.56457 0.71016
 H16 H 0.66871 0.52420 0.68207
 H17 H 0.57958 0.57116 0.72635
 N18 N 0.67915 0.60830 0.58654
 N19 N 0.66536 0.63587 0.57271
 C20 C 0.68429 0.64512 0.54535
 C21 C 0.71121 0.62228 0.54166
 C22 C 0.70716 0.59926 0.56828
 H23 H 0.67915 0.66701 0.52923
 H24 H 0.72354 0.57776 0.57423
 H25 H 0.61647 0.60772 0.60734
 H26 H 0.64514 0.63735 0.63491
 N27 N 0.91818 0.31669 0.11139
 N28 N 0.93196 0.33196 0.13935
 C29 C 0.95983 0.31412 0.14904
 C30 C 0.96375 0.28608 0.12583
 C31 C 0.93684 0.28870 0.10226
 H32 H 0.97604 0.32132 0.17113
 H33 H 0.93140 0.27146 0.08004
 Cu34 Cu 0.91240 0.37391 0.16026
 Cu35 Cu 0.87728 0.33431 0.08877
 Cu36 Cu 0.84079 0.40795 0.12637
 N37 N 0.89100 0.41472 0.18149
 N38 N 0.86292 0.42774 0.16820
 C39 C 0.85344 0.45544 0.18791
 C40 C 0.87684 0.46018 0.21500
 C41 C 0.90035 0.43378 0.21014
 H42 H 0.83114 0.47110 0.18303
 H43 H 0.92244 0.42860 0.22627
 N44 N 0.82213 0.38422 0.08401
 N45 N 0.83588 0.35607 0.06974
 C46 C 0.81758 0.34635 0.04105
 C47 C 0.79104 0.36954 0.03706
 C48 C 0.79481 0.39318 0.06472
 H49 H 0.82354 0.32438 0.02409
 H50 H 0.77884 0.41548 0.07005
 H51 H 0.88437 0.38594 0.10528
 H52 H 0.85714 0.35744 0.13291
 N53 N 0.41504 0.18192 -0.10750
 N54 N 0.42810 0.16717 -0.13543
 C55 C 0.45603 0.18603 -0.14486
 C56 C 0.46083 0.21400 -0.12157
 C57 C 0.43425 0.21057 -0.09818
 H58 H 0.47181 0.18012 -0.16708
 H59 H 0.42894 0.22767 -0.07620
 Cu60 Cu 0.40718 0.12492 -0.15676
 Cu61 Cu 0.37384 0.16316 -0.08558
 Cu62 Cu 0.33602 0.08788 -0.12338
 N63 N 0.38582 0.08267 -0.17765
 N64 N 0.35788 0.06841 -0.16458
 C65 C 0.34852 0.03964 -0.18376
 C66 C 0.37190 0.03562 -0.21034
 C67 C 0.39523 0.06337 -0.20557
 H68 H 0.32653 0.02286 -0.17843
 H69 H 0.41745 0.06884 -0.22136
 N70 N 0.31777 0.11149 -0.08162
 N71 N 0.33206 0.14020 -0.06730
 C72 C 0.31370 0.14989 -0.03936
 C73 C 0.28654 0.12611 -0.03590
 C74 C 0.29003 0.10214 -0.06309
 H75 H 0.31987 0.17244 -0.02270
 H76 H 0.27341 0.07951 -0.06876
 H77 H 0.38007 0.11172 -0.10198
 H78 H 0.35251 0.13907 -0.12968
 N79 N 0.08311 0.82409 0.38552
 N80 N 0.06944 0.83800 0.35811
 C81 C 0.04060 0.81957 0.34859
 C82 C 0.03599 0.79255 0.37132
 C83 C 0.06347 0.79642 0.39444
 H84 H 0.02410 0.82578 0.32710
 H85 H 0.06855 0.78031 0.41630
 Cu86 Cu 0.09040 0.87931 0.33808
 Cu87 Cu 0.12511 0.84300 0.40786
 Cu88 Cu 0.16296 0.91658 0.37258
 N89 N 0.11185 0.92061 0.31853
 N90 N 0.14026 0.93499 0.33209
 C91 C 0.14962 0.96293 0.31376
 C92 C 0.12576 0.96629 0.28723
 C93 C 0.10216 0.93901 0.29113
 H94 H 0.17204 0.97951 0.31954
 H95 H 0.07962 0.93319 0.27505
 N96 N 0.18198 0.89403 0.41350
 N97 N 0.16763 0.86592 0.42678
 C98 C 0.18682 0.85650 0.45399
 C99 C 0.21450 0.87979 0.45818
 C100 C 0.21062 0.90326 0.43200
 H101 H 0.18136 0.83420 0.46968
 H102 H 0.22755 0.92517 0.42650
 H103 H 0.11913 0.89406 0.39321
 H104 H 0.14562 0.86544 0.36447
 C105 C 0.10711 0.15172 0.10653
 C106 C 0.13661 0.13618 0.09277
 C107 C 0.15033 0.10743 0.10813
 C108 C 0.13482 0.09385 0.13758
 C109 C 0.10578 0.10914 0.15115
 C110 C 0.09185 0.13832 0.13553
 C111 C 0.08851 0.18022 0.09728
 N112 N 0.06216 0.18444 0.11992
 C113 C 0.06426 0.15892 0.14347
 C114 C 0.09664 0.09092 0.17987
 N115 N 0.11940 0.06477 0.18406
 C116 C 0.14291 0.06662 0.15829
 C117 C 0.17904 0.09818 0.08967
 N118 N 0.18309 0.12057 0.06330
 C119 C 0.15726 0.14400 0.06527
 H120 H 0.09443 0.19676 0.07593
 H121 H 0.04700 0.15583 0.16504
 H122 H 0.07525 0.09695 0.19653
 H123 H 0.16453 0.04943 0.15508
 H124 H 0.19586 0.07705 0.09572
 H125 H 0.15396 0.16538 0.04797
 C126 C 0.39178 0.84166 0.60593
 C127 C 0.36272 0.85677 0.59119
 C128 C 0.34887 0.88630 0.60658
 C129 C 0.36384 0.90111 0.63700
 C130 C 0.39245 0.88617 0.65156
 C131 C 0.40648 0.85620 0.63592
 C132 C 0.41055 0.81280 0.59667
 N133 N 0.43644 0.80944 0.62032
 C134 C 0.43391 0.83590 0.64447
 C135 C 0.40125 0.90573 0.68096
 N136 N 0.37873 0.93235 0.68462
 C137 C 0.35568 0.92947 0.65785
 C138 C 0.32104 0.89521 0.58663
 N139 N 0.31743 0.87171 0.55959
 C140 C 0.34305 0.84816 0.56221
 H141 H 0.40515 0.79556 0.57451
 H142 H 0.45087 0.83994 0.66675
 H143 H 0.42222 0.90027 0.69843
 H144 H 0.33433 0.94675 0.65401
 H145 H 0.30453 0.91727 0.59133
 H146 H 0.34768 0.82650 0.54437
 C147 C 0.88683 0.65950 0.39337
 C148 C 0.85741 0.64450 0.40829
 C149 C 0.84250 0.61418 0.39383
 C150 C 0.85667 0.59849 0.36412
 C151 C 0.88562 0.61332 0.34938
 C152 C 0.90080 0.64406 0.36411
 C153 C 0.90678 0.68880 0.40199
 N154 N 0.93270 0.69156 0.37869
 C155 C 0.92900 0.66429 0.35536
 C156 C 0.89382 0.59238 0.32123
 N157 N 0.87047 0.56528 0.31829
 C158 C 0.84771 0.56883 0.34466
 C159 C 0.81476 0.60540 0.41393
 N160 N 0.81224 0.62973 0.44017
 C161 C 0.83846 0.65371 0.43689
 H162 H 0.90217 0.70672 0.42351
 H163 H 0.94572 0.65961 0.33353
 H164 H 0.91536 0.59641 0.30409
 H165 H 0.82640 0.55115 0.34995
 H166 H 0.79763 0.58280 0.40993
 H167 H 0.84402 0.67600 0.45410
 C168 C 0.61354 0.34687 -0.11373
 C169 C 0.64385 0.36163 -0.09866
 C170 C 0.65925 0.39083 -0.11260
 C171 C 0.64467 0.40567 -0.14185
 C172 C 0.61479 0.39118 -0.15665
 C173 C 0.59913 0.36154 -0.14251
 C174 C 0.59265 0.31887 -0.10545
 N175 N 0.56598 0.31594 -0.12862
 C176 C 0.56977 0.34219 -0.15131
 C177 C 0.60630 0.41125 -0.18418
 N178 N 0.63037 0.43751 -0.18668
 C179 C 0.65391 0.43426 -0.16066
 C180 C 0.68804 0.39955 -0.09275
 N181 N 0.69053 0.37639 -0.06691
 C182 C 0.66360 0.35301 -0.07058
 H183 H 0.59636 0.30188 -0.08395
 H184 H 0.55239 0.34754 -0.17240
 H185 H 0.58407 0.40723 -0.20118
 H186 H 0.67594 0.45146 -0.15515
 H187 H 0.70582 0.42103 -0.09738
 H188 H 0.65881 0.33126 -0.05392
 C189 C -0.01017 0.26015 0.12492
 C190 C -0.02519 0.22249 0.12447
 C191 C -0.00093 0.19738 0.12213
 C192 C 0.03629 0.21204 0.12080
 C193 C 0.03631 0.23658 0.08997
 C194 C 0.01205 0.26171 0.09227
 C195 C 0.01615 0.26163 0.15521
 C196 C 0.04037 0.23648 0.15292
 H197 H -0.05259 0.21608 0.12579
 H198 H -0.00760 0.16963 0.12128
 H199 H 0.05304 0.23444 0.06781
 H200 H 0.00875 0.28079 0.07239
 H201 H 0.01602 0.28034 0.17685
 H202 H 0.06060 0.23410 0.17227
 C203 C 0.50945 0.73474 0.62564
 C204 C 0.52412 0.77247 0.62599
 C205 C 0.49963 0.79723 0.62360
 C206 C 0.46253 0.78211 0.62132
 C207 C 0.46264 0.75595 0.59011
 C208 C 0.48718 0.73122 0.59253
 C209 C 0.48331 0.73449 0.65536
 C210 C 0.45881 0.75926 0.65302
 H211 H 0.55149 0.77914 0.62785
 H212 H 0.50604 0.82501 0.62325
 H213 H 0.44572 0.75664 0.56771
 H214 H 0.49063 0.71108 0.57251
 H215 H 0.48374 0.71664 0.67653
 H216 H 0.43855 0.76231 0.67195
 C217 C 1.00867 0.76674 0.37251
 C218 C 1.02182 0.72908 0.37293
 C219 C 0.99636 0.70420 0.37564
 C220 C 0.95990 0.71905 0.37734
 C221 C 0.96149 0.74580 0.40806
 C222 C 0.98695 0.77068 0.40539
 C223 C 0.98206 0.76613 0.34250
 C224 C 0.95662 0.74121 0.34515
 H225 H 1.04888 0.72250 0.37128
 H226 H 1.00166 0.67650 0.37650
 H227 H 0.94492 0.74535 0.43039
 H228 H 0.99142 0.79118 0.42515
 H229 H 0.98296 0.78324 0.32074
 H230 H 0.93607 0.73744 0.32600
 C231 C 0.48883 0.24203 -0.12289
 C232 C 0.48963 0.26958 -0.09290
 C233 C 0.51527 0.29432 -0.09536
 C234 C 0.53784 0.28944 -0.12744
 C235 C 0.55097 0.25192 -0.12574
 C236 C 0.52535 0.22716 -0.12321
 C237 C 0.48665 0.26340 -0.15575
 C238 C 0.51225 0.28818 -0.15830
 H239 H 0.47191 0.26982 -0.07142
 H240 H 0.51918 0.31549 -0.07622
 H241 H 0.57807 0.24540 -0.12659
 H242 H 0.53060 0.19949 -0.12172
 H243 H 0.46687 0.25906 -0.17563
 H244 H 0.51409 0.30431 -0.18071
 C245 C 0.12456 -0.00658 0.25983
 C246 C 0.09200 0.01554 0.26187
 C247 C 0.08962 0.03950 0.23674
 C248 C 0.12034 0.03926 0.21172
 C249 C 0.15248 0.04432 0.23508
 C250 C 0.15477 0.02039 0.26023
 C251 C 0.12395 -0.02270 0.22289
 C252 C 0.12160 0.00122 0.19774
 H253 H 0.07224 0.01233 0.28127
 H254 H 0.06752 0.05615 0.23494
 H255 H 0.17175 0.06504 0.23207
 H256 H 0.17622 0.02092 0.27847
 H257 H 0.12513 -0.05061 0.21702
 H258 H 0.12061 -0.00621 0.17043
 C259 C 0.62489 0.51194 -0.25953
 C260 C 0.65804 0.51518 -0.23728
 C261 C 0.66050 0.49052 -0.21285
 C262 C 0.62931 0.46470 -0.21272
 C263 C 0.59772 0.48790 -0.20876
 C264 C 0.59528 0.51259 -0.23316
 C265 C 0.62437 0.47407 -0.27436
 C266 C 0.62685 0.44942 -0.24992
 H267 H 0.67811 0.53507 -0.24065
 H268 H 0.68294 0.48964 -0.19602
 H269 H 0.57884 0.48504 -0.18847
 H270 H 0.57397 0.53042 -0.23340
 H271 H 0.62228 0.46719 -0.30177
 H272 H 0.62706 0.42160 -0.25643
 C273 C 0.37317 1.00725 0.76169
 C274 C 0.40586 0.98544 0.76401
 C275 C 0.40835 0.96033 0.73845
 C276 C 0.37761 0.95920 0.71274
 C277 C 0.34550 0.95503 0.73527
 C278 C 0.34310 0.98011 0.76087
 C279 C 0.37366 1.02168 0.72507
 C280 C 0.37614 0.99659 0.69948
 H281 H 0.42567 0.98974 0.78387
 H282 H 0.43065 0.94385 0.73670
 H283 H 0.32630 0.93409 0.73135
 H284 H 0.32160 0.98039 0.77855
 H285 H 0.37232 1.04932 0.71973
 H286 H 0.37710 1.00278 0.67233
 C287 C 0.87568 0.48812 0.24339
 C288 C 0.84303 0.48517 0.26540
 C289 C 0.84065 0.51074 0.29054
 C290 C 0.87145 0.53709 0.29148
 C291 C 0.90351 0.51457 0.29487
 C292 C 0.90580 0.48896 0.26977
 C293 C 0.87525 0.52535 0.22957
 C294 C 0.87288 0.55094 0.25467
 H295 H 0.82320 0.46486 0.26127
 H296 H 0.81845 0.51201 0.30725
 H297 H 0.92273 0.51848 0.31534
 H298 H 0.92723 0.47126 0.26901
 H299 H 0.87656 0.53108 0.20231
 H300 H 0.87200 0.57849 0.24889
 C301 C 0.25905 0.12518 -0.00861
 C302 C 0.22222 0.12445 -0.02389
 C303 C 0.19699 0.12227 0.00020
 C304 C 0.21078 0.12132 0.03755
 C305 C 0.23534 0.09017 0.03732
 C306 C 0.26056 0.09236 0.01319
 C307 C 0.25972 0.15604 0.01805
 C308 C 0.23448 0.15394 0.04214
 H309 H 0.21649 0.12540 -0.05137
 H310 H 0.16974 0.12118 -0.00667
 H311 H 0.23308 0.06783 0.05368
 H312 H 0.27962 0.07225 0.00960
 H313 H 0.27814 0.17783 0.01820
 H314 H 0.23159 0.17368 0.06265
 C315 C 0.73897 0.62374 0.51468
 C316 C 0.72441 0.62264 0.47752
 C317 C 0.74898 0.62528 0.45280
 C318 C 0.78601 0.62850 0.46738
 C319 C 0.78558 0.66037 0.49286
 C320 C 0.76098 0.65771 0.51756
 C321 C 0.76532 0.59420 0.51504
 C322 C 0.78988 0.59678 0.49030
 H323 H 0.69707 0.62013 0.47121
 H324 H 0.74265 0.62520 0.42540
 H325 H 0.80221 0.68344 0.49163
 H326 H 0.75724 0.67818 0.53718
 H327 H 0.76492 0.57293 0.53286
 H328 H 0.81025 0.57796 0.48726
 C329 C 0.76429 0.37072 0.00853
 C330 C 0.76415 0.34017 -0.01847
 C331 C 0.73966 0.34260 -0.04374
 C332 C 0.71748 0.37521 -0.03987
 C333 C 0.70266 0.37380 -0.00325
 C334 C 0.72712 0.37129 0.02202
 C335 C 0.76802 0.40381 -0.01273
 C336 C 0.74359 0.40633 -0.03802
 H337 H 0.78141 0.31831 -0.01792
 H338 H 0.73630 0.32308 -0.06459
 H339 H 0.67529 0.37480 0.00230
 H340 H 0.72061 0.36997 0.04917
 H341 H 0.78800 0.42384 -0.00798
 H342 H 0.74297 0.42887 -0.05420
 C343 C 0.24278 0.87825 0.48516
 C344 C 0.26992 0.90839 0.48568
 C345 C 0.29492 0.90566 0.51038
 C346 C 0.29067 0.87318 0.53238
 C347 C 0.25400 0.87519 0.54695
 C348 C 0.22900 0.87799 0.52227
 C349 C 0.26383 0.84481 0.48140
 C350 C 0.28886 0.84199 0.50605
 H351 H 0.26968 0.93019 0.46848
 H352 H 0.31585 0.92487 0.51400
 H353 H 0.24823 0.87436 0.57430
 H354 H 0.20185 0.87975 0.52858
 H355 H 0.25914 0.82478 0.46124
 H356 H 0.30488 0.81921 0.50668
   
