data_POSCAR
  _audit_creation_date              2014-09-24
  _audit_creation_method            'ToBaCCo'
  _symmetry_space_group_name_H-M    'P1'
  _symmetry_Int_Tables_number       1
  _symmetry_cell_setting            triclinic
  loop_
  _symmetry_equiv_pos_as_xyz
 x,y,z
_cell_length_a 68.9962
_cell_length_b 40.4055
_cell_length_c 23.2542
_cell_angle_alpha 89.920100
_cell_angle_beta 90.047500
_cell_angle_gamma 90.089800
loop_
  _atom_site_label
  _atom_site_type_symbol
  _atom_site_fract_x
  _atom_site_fract_y
  _atom_site_fract_z
C1 C 0.74820 0.24359 0.52910
 C2 C 0.74894 0.24496 0.47046
 C3 C 0.76572 0.23154 0.43785
 C4 C 0.73292 0.25960 0.43602
 C5 C 0.73263 0.26048 0.56187
 C6 C 0.76302 0.22552 0.56341
 C7 C 0.78469 0.24141 0.45046
 C8 C 0.80041 0.22722 0.42183
 C9 C 0.79771 0.20275 0.37869
 C10 C 0.77824 0.19432 0.36502
 C11 C 0.76262 0.20847 0.39408
 C12 C 0.73701 0.28369 0.39426
 C13 C 0.72207 0.29797 0.36218
 C14 C 0.70268 0.28842 0.37118
 C15 C 0.69868 0.26376 0.41229
 C16 C 0.71366 0.24928 0.44395
 C17 C 0.72108 0.24232 0.60021
 C18 C 0.70606 0.25773 0.63012
 C19 C 0.70247 0.29171 0.62277
 C20 C 0.71437 0.31003 0.58536
 C21 C 0.72934 0.29456 0.55523
 C22 C 0.76794 0.19261 0.55059
 C23 C 0.78273 0.17669 0.58088
 C24 C 0.79250 0.19307 0.62560
 C25 C 0.78698 0.22544 0.64010
 C26 C 0.77239 0.24153 0.60921
 H27 H 0.78739 0.25962 0.48367
 H28 H 0.81458 0.23456 0.43686
 H29 H 0.77457 0.17770 0.33036
 H30 H 0.74802 0.20104 0.38276
 H31 H 0.75179 0.29170 0.38692
 H32 H 0.72572 0.31636 0.33006
 H33 H 0.71020 0.23016 0.47497
 H34 H 0.72352 0.21606 0.60623
 H35 H 0.69730 0.24312 0.65931
 H36 H 0.71188 0.33620 0.57862
 H37 H 0.73830 0.30908 0.52643
 H38 H 0.76052 0.17942 0.51653
 H39 H 0.78654 0.15154 0.56952
 H40 H 0.79434 0.23863 0.67426
 H41 H 0.76874 0.26681 0.62014
 H42 H 0.68393 0.25598 0.42072
 C43 C 0.24920 0.74655 0.47130
 C44 C 0.24843 0.74488 0.52993
 C45 C 0.23293 0.76188 0.56285
 C46 C 0.26316 0.72645 0.56403
 C47 C 0.26590 0.73311 0.43838
 C48 C 0.23321 0.76152 0.43708
 C49 C 0.22982 0.79603 0.55656
 C50 C 0.21483 0.81159 0.58645
 C51 C 0.20272 0.79329 0.62331
 C52 C 0.20614 0.75923 0.63041
 C53 C 0.22119 0.74373 0.60072
 C54 C 0.27261 0.74212 0.61005
 C55 C 0.28721 0.72576 0.64048
 C56 C 0.29267 0.69346 0.62531
 C57 C 0.28280 0.67739 0.58044
 C58 C 0.26799 0.69357 0.55060
 C59 C 0.26260 0.71081 0.39324
 C60 C 0.27815 0.69685 0.36355
 C61 C 0.29736 0.70489 0.37840
 C62 C 0.30060 0.72803 0.42256
 C63 C 0.28502 0.74225 0.45184
 C64 C 0.21393 0.75123 0.44464
 C65 C 0.19903 0.76577 0.41279
 C66 C 0.20312 0.79048 0.37185
 C67 C 0.22251 0.80011 0.36337
 C68 C 0.23739 0.78576 0.39563
 H69 H 0.23891 0.81053 0.52811
 H70 H 0.21247 0.83781 0.57990
 H71 H 0.19723 0.74463 0.65918
 H72 H 0.22348 0.71742 0.60647
 H73 H 0.26903 0.76736 0.62144
 H74 H 0.29465 0.73872 0.67477
 H75 H 0.26052 0.68065 0.51634
 H76 H 0.24796 0.70374 0.38166
 H77 H 0.27511 0.67973 0.32891
 H78 H 0.31518 0.73464 0.43540
 H79 H 0.28789 0.75995 0.48574
 H80 H 0.21041 0.73201 0.47543
 H81 H 0.18426 0.75795 0.42083
 H82 H 0.22624 0.81856 0.33142
 H83 H 0.25219 0.79376 0.38859
 H84 H 0.28655 0.65230 0.56857
 C85 C 0.24875 0.25523 -0.46962
 C86 C 0.24962 0.25205 -0.52784
 C87 C 0.26568 0.26753 -0.56060
 C88 C 0.23472 0.23368 -0.56139
 C89 C 0.23210 0.24304 -0.43525
 C90 C 0.26485 0.27083 -0.43753
 C91 C 0.26728 0.30200 -0.56381
 C92 C 0.28261 0.31666 -0.59363
 C93 C 0.29687 0.29715 -0.62110
 C94 C 0.29489 0.26232 -0.61783
 C95 C 0.27941 0.24779 -0.58831
 C96 C 0.22661 0.24806 -0.61070
 C97 C 0.21220 0.23163 -0.64177
 C98 C 0.20527 0.20030 -0.62404
 C99 C 0.21395 0.18566 -0.57518
 C100 C 0.22866 0.20189 -0.54497
 C101 C 0.23523 0.22061 -0.39034
 C102 C 0.21967 0.20780 -0.35910
 C103 C 0.20037 0.21732 -0.37147
 C104 C 0.19753 0.24077 -0.41601
 C105 C 0.21318 0.25344 -0.44725
 C106 C 0.28212 0.25340 -0.42808
 C107 C 0.29743 0.26832 -0.39842
 C108 C 0.29577 0.30107 -0.37900
 C109 C 0.27850 0.31852 -0.38877
 C110 C 0.26302 0.30331 -0.41721
 H111 H 0.25670 0.31759 -0.54272
 H112 H 0.28357 0.34336 -0.59260
 H113 H 0.30481 0.24594 -0.63972
 H114 H 0.27821 0.22107 -0.58668
 H115 H 0.23111 0.27252 -0.62444
 H116 H 0.20584 0.24461 -0.67784
 H117 H 0.23527 0.18960 -0.50851
 H118 H 0.24975 0.21213 -0.38056
 H119 H 0.22299 0.18914 -0.32728
 H120 H 0.18333 0.25040 -0.42614
 H121 H 0.21052 0.27140 -0.48098
 H122 H 0.28369 0.22830 -0.44365
 H123 H 0.31068 0.25455 -0.39145
 H124 H 0.27696 0.34376 -0.37387
 H125 H 0.24975 0.31700 -0.42433
 H126 H 0.20996 0.16105 -0.56106
 C127 C -0.25109 0.75473 -0.47024
 C128 C -0.25037 0.75235 -0.52876
 C129 C -0.23360 0.76519 -0.56225
 C130 C -0.26651 0.73734 -0.56225
 C131 C -0.26674 0.73842 -0.43672
 C132 C -0.23622 0.77327 -0.43689
 C133 C -0.23674 0.78737 -0.60754
 C134 C -0.22114 0.80100 -0.63755
 C135 C -0.20178 0.79284 -0.62320
 C136 C -0.19890 0.76940 -0.57869
 C137 C -0.21459 0.75568 -0.54902
 C138 C -0.28559 0.74850 -0.55562
 C139 C -0.30069 0.73405 -0.58678
 C140 C -0.29716 0.70821 -0.62644
 C141 C -0.27772 0.69783 -0.63357
 C142 C -0.26268 0.71224 -0.60202
 C143 C -0.26983 0.70423 -0.44073
 C144 C -0.28487 0.68917 -0.41014
 C145 C -0.29734 0.70795 -0.37464
 C146 C -0.29377 0.74235 -0.37035
 C147 C -0.27859 0.75724 -0.40061
 C148 C -0.22690 0.75797 -0.39025
 C149 C -0.21224 0.77447 -0.36027
 C150 C -0.20660 0.80657 -0.37650
 C151 C -0.21631 0.82226 -0.42209
 C152 C -0.23117 0.80593 -0.45152
 H153 H -0.25135 0.79456 -0.61921
 H154 H -0.22454 0.81729 -0.67303
 H155 H -0.18457 0.76255 -0.56422
 H156 H -0.21186 0.73813 -0.51472
 H157 H -0.28884 0.76831 -0.52584
 H158 H -0.31518 0.74261 -0.57748
 H159 H -0.24798 0.70368 -0.60857
 H160 H -0.26070 0.68925 -0.46817
 H161 H -0.28711 0.66297 -0.41686
 H162 H -0.30219 0.75795 -0.34210
 H163 H -0.27623 0.78364 -0.39639
 H164 H -0.23064 0.73290 -0.37796
 H165 H -0.20492 0.76180 -0.32543
 H166 H -0.21243 0.84720 -0.43479
 H167 H -0.23854 0.81858 -0.48628
 H168 H -0.27373 0.67935 -0.66493
 O169 O -0.02563 0.94107 0.10462
 O170 O -0.04748 0.97167 0.05283
 C171 C -0.04322 0.94969 0.09144
 O172 O 0.02803 1.05933 0.10390
 O173 O 0.04907 1.02988 0.04740
 C174 C 0.04538 1.05151 0.08705
 O175 O -0.02604 1.05566 0.11185
 O176 O -0.04772 1.02708 0.05599
 C177 C -0.04358 1.04741 0.09733
 O178 O 0.02854 0.93905 0.09524
 O179 O 0.04936 0.97223 0.04432
 C180 C 0.04583 0.94834 0.08015
 Zr181 Zr 0.00113 0.95806 0.07084
 O182 O 0.00376 0.95670 0.16153
 O183 O -0.00082 0.90578 0.06793
 Zr184 Zr 0.00079 1.04170 0.07495
 O185 O 0.00165 1.04474 0.16573
 O186 O -0.00001 1.09382 0.06807
 O187 O -0.01617 0.99938 0.08555
 O188 O 0.01790 0.99990 0.08245
 O189 O 0.02701 0.94276 -0.10410
 O190 O 0.04859 0.97404 -0.05244
 C191 C 0.04453 0.95149 -0.09019
 O192 O -0.02784 1.05950 -0.10078
 O193 O -0.04857 1.02900 -0.04475
 C194 C -0.04511 1.05055 -0.08479
 O195 O 0.02637 1.06406 -0.09779
 O196 O 0.04830 1.03181 -0.04929
 C197 C 0.04398 1.05549 -0.08478
 O198 O -0.02738 0.94553 -0.10646
 O199 O -0.04833 0.97337 -0.04737
 C200 C -0.04472 0.95327 -0.08938
 Zr201 Zr -0.00002 0.96072 -0.07405
 O202 O 0.00159 0.96230 -0.16494
 O203 O -0.00213 0.90844 -0.07602
 Zr204 Zr -0.00040 1.04420 -0.06950
 O205 O 0.00116 1.04645 -0.16034
 O206 O -0.00268 1.09638 -0.06501
 Zr207 Zr -0.02861 1.00065 0.00269
 Zr208 Zr 0.02937 1.00158 -0.00128
 O209 O 0.01659 1.00294 -0.08348
 O210 O -0.01760 1.00237 -0.08189
 O211 O 0.01792 0.95315 -0.00311
 O212 O -0.01686 1.04870 0.00429
 O213 O -0.01632 0.95306 -0.00079
 O214 O 0.01758 1.04964 0.00199
 H215 H 0.02693 0.99919 0.11556
 H216 H -0.02579 1.06786 0.00587
 H217 H 0.02505 1.00372 -0.11786
 H218 H -0.02499 0.93348 -0.00128
 H219 H -0.00015 1.10232 0.10801
 H220 H 0.00775 1.10433 -0.03923
 H221 H -0.00918 1.03200 -0.17577
 H222 H -0.00935 0.97594 -0.17884
 H223 H 0.00913 0.89945 -0.05480
 H224 H 0.00983 0.89772 0.04320
 H225 H -0.00681 0.97039 0.17757
 H226 H 0.00611 1.02306 0.18018
 O227 O 0.47343 0.44153 0.10455
 O228 O 0.45197 0.47208 0.05121
 C229 C 0.45594 0.45033 0.09050
 O230 O 0.52804 0.55996 0.09896
 O231 O 0.54908 0.52842 0.04605
 C232 C 0.54541 0.55134 0.08346
 O233 O 0.47376 0.55706 0.10701
 O234 O 0.45226 0.52728 0.05253
 C235 C 0.45627 0.54851 0.09260
 O236 O 0.52777 0.43832 0.09711
 O237 O 0.54882 0.47095 0.04601
 C238 C 0.54513 0.44737 0.08230
 Zr239 Zr 0.50055 0.45759 0.07164
 O240 O 0.50319 0.45760 0.16237
 O241 O 0.49834 0.40534 0.07142
 Zr242 Zr 0.50066 0.54127 0.07306
 O243 O 0.50331 0.54038 0.16376
 O244 O 0.49849 0.59353 0.07394
 O245 O 0.48337 0.49932 0.08440
 O246 O 0.51751 0.49939 0.08226
 O247 O 0.52715 0.44028 -0.10210
 O248 O 0.54862 0.47173 -0.05029
 C249 C 0.54465 0.44896 -0.08772
 O250 O 0.47239 0.55725 -0.10406
 O251 O 0.45148 0.52733 -0.04757
 C252 C 0.45506 0.54856 -0.08804
 O253 O 0.52689 0.56131 -0.10038
 O254 O 0.54836 0.52901 -0.05032
 C255 C 0.54438 0.55235 -0.08672
 O256 O 0.47258 0.44398 -0.10648
 O257 O 0.45152 0.47232 -0.04819
 C258 C 0.45523 0.45193 -0.08974
 Zr259 Zr 0.49999 0.45855 -0.07359
 O260 O 0.50191 0.45830 -0.16443
 O261 O 0.49762 0.40629 -0.07314
 Zr262 Zr 0.49986 0.54221 -0.07215
 O263 O 0.50171 0.54321 -0.16301
 O264 O 0.49747 0.59444 -0.07018
 Zr265 Zr 0.47144 0.49975 0.00095
 Zr266 Zr 0.52914 0.50000 -0.00136
 O267 O 0.51670 0.50052 -0.08406
 O268 O 0.48262 0.50035 -0.08346
 O269 O 0.51758 0.45165 -0.00172
 O270 O 0.48339 0.54770 0.00122
 O271 O 0.48342 0.45191 -0.00051
 O272 O 0.51757 0.54828 -0.00017
 H273 H 0.52646 0.49921 0.11558
 H274 H 0.47457 0.56703 0.00172
 H275 H 0.52528 0.50074 -0.11822
 H276 H 0.47460 0.43253 -0.00063
 H277 H 0.50912 0.60237 0.04988
 H278 H 0.50870 0.60307 -0.04840
 H279 H 0.49107 0.52931 -0.17818
 H280 H 0.49168 0.47316 -0.17923
 H281 H 0.50908 0.39743 -0.05272
 H282 H 0.50854 0.39683 0.04555
 H283 H 0.49208 0.47014 0.17803
 H284 H 0.49250 0.52686 0.17897
 C285 C 0.34442 0.34231 0.29136
 C286 C 0.34615 0.31037 0.31452
 C287 C 0.33054 0.29540 0.34273
 C288 C 0.31268 0.31207 0.34930
 C289 C 0.31113 0.34423 0.32570
 C290 C 0.32670 0.35897 0.29706
 C291 C 0.36099 0.35824 0.26157
 N292 N 0.35859 0.38708 0.23233
 N293 N 0.37346 0.40146 0.20566
 C294 C 0.39141 0.38770 0.20725
 N295 N 0.39382 0.35889 0.23655
 N296 N 0.37893 0.34444 0.26307
 C297 C 0.40796 0.40377 0.17760
 C298 C 0.42698 0.39235 0.18610
 C299 C 0.44257 0.40756 0.15816
 C300 C 0.43948 0.43440 0.12073
 C301 C 0.42044 0.44576 0.11214
 C302 C 0.40488 0.43072 0.14041
 H303 H 0.35964 0.29684 0.31110
 H304 H 0.33297 0.27124 0.36144
 H305 H 0.29768 0.35788 0.32706
 H306 H 0.32481 0.38356 0.27937
 H307 H 0.42988 0.37171 0.21457
 H308 H 0.45704 0.39813 0.16566
 H309 H 0.41752 0.46635 0.08360
 H310 H 0.39042 0.44011 0.13274
 C311 C -0.15399 0.83892 0.29146
 C312 C -0.17221 0.85421 0.29292
 C313 C -0.18784 0.83913 0.32071
 C314 C -0.18584 0.80800 0.34798
 C315 C -0.16739 0.79281 0.34606
 C316 C -0.15176 0.80806 0.31834
 C317 C -0.13744 0.85521 0.26210
 N318 N -0.11927 0.84244 0.26558
 N319 N -0.10445 0.85722 0.23927
 C320 C -0.10717 0.88537 0.20827
 N321 N -0.12533 0.89809 0.20476
 N322 N -0.14014 0.88336 0.23115
 C323 C -0.09073 0.90184 0.17873
 C324 C -0.09403 0.92885 0.14186
 C325 C -0.07862 0.94432 0.11363
 C326 C -0.05949 0.93328 0.12179
 C327 C -0.05616 0.90639 0.15892
 C328 C -0.07161 0.89079 0.18693
 H329 H -0.17441 0.87821 0.27322
 H330 H -0.20121 0.85298 0.32250
 H331 H -0.16492 0.76847 0.36392
 H332 H -0.13795 0.79539 0.31752
 H333 H -0.10855 0.93803 0.13445
 H334 H -0.08173 0.96500 0.08544
 H335 H -0.04162 0.89722 0.16612
 H336 H -0.06854 0.87010 0.21513
 C337 C 0.65643 0.66276 0.28076
 C338 C 0.65452 0.69494 0.30255
 C339 C 0.66973 0.70994 0.33253
 C340 C 0.68742 0.69316 0.34214
 C341 C 0.68917 0.66078 0.31966
 C342 C 0.67395 0.64593 0.28944
 C343 C 0.64015 0.64674 0.24973
 N344 N 0.64264 0.61735 0.22241
 N345 N 0.62794 0.60280 0.19515
 C346 C 0.61010 0.61696 0.19419
 N347 N 0.60762 0.64637 0.22143
 N348 N 0.62233 0.66096 0.24854
 C349 C 0.59362 0.60051 0.16481
 C350 C 0.57466 0.61262 0.17131
 C351 C 0.55905 0.59674 0.14477
 C352 C 0.56203 0.56848 0.11073
 C353 C 0.58101 0.55657 0.10363
 C354 C 0.59662 0.57233 0.13055
 H355 H 0.64129 0.70882 0.29600
 H356 H 0.66759 0.73524 0.34607
 H357 H 0.70191 0.64588 0.32716
 H358 H 0.67585 0.62093 0.27375
 H359 H 0.57181 0.63424 0.19742
 H360 H 0.54463 0.60665 0.15096
 H361 H 0.58382 0.53484 0.07777
 H362 H 0.61104 0.56239 0.12449
 C363 C 0.15842 1.15396 0.28755
 C364 C 0.16154 1.14791 0.34623
 C365 C 0.17714 1.16254 0.37499
 C366 C 0.18990 1.18433 0.34615
 C367 C 0.18663 1.19014 0.28699
 C368 C 0.17125 1.17494 0.25811
 C369 C 0.14173 1.13882 0.25741
 N370 N 0.14164 1.13579 0.19923
 N371 N 0.12655 1.12233 0.17216
 C372 C 0.11085 1.11162 0.20211
 N373 N 0.11091 1.11474 0.26026
 N374 N 0.12606 1.12796 0.28736
 C375 C 0.09403 1.09680 0.17213
 C376 C 0.07577 1.09570 0.19884
 C377 C 0.05989 1.08154 0.17075
 C378 C 0.06201 1.06765 0.11577
 C379 C 0.08026 1.06869 0.08907
 C380 C 0.09607 1.08340 0.11674
 H381 H 0.15189 1.13183 0.37011
 H382 H 0.17846 1.15786 0.42063
 H383 H 0.19629 1.20556 0.26194
 H384 H 0.16926 1.17997 0.21273
 H385 H 0.07373 1.10598 0.24139
 H386 H 0.04603 1.08095 0.19253
 H387 H 0.08232 1.05825 0.04666
 H388 H 0.10997 1.08378 0.09513
 C389 C 0.65519 0.33863 -0.28799
 C390 C 0.67338 0.35425 -0.29178
 C391 C 0.68871 0.33908 -0.32083
 C392 C 0.68624 0.30788 -0.34638
 C393 C 0.66810 0.29221 -0.34247
 C394 C 0.65274 0.30743 -0.31375
 C395 C 0.63887 0.35476 -0.25757
 N396 N 0.62078 0.34145 -0.25918
 N397 N 0.60609 0.35599 -0.23211
 C398 C 0.60884 0.38443 -0.20212
 N399 N 0.62693 0.39772 -0.20040
 N400 N 0.64162 0.38322 -0.22759
 C401 C 0.59244 0.40071 -0.17227
 C402 C 0.59565 0.42813 -0.13633
 C403 C 0.58017 0.44361 -0.10856
 C404 C 0.56109 0.43215 -0.11634
 C405 C 0.55789 0.40469 -0.15216
 C406 C 0.57338 0.38910 -0.17965
 H407 H 0.67579 0.37827 -0.27247
 H408 H 0.70259 0.35159 -0.32271
 H409 H 0.66571 0.26832 -0.36235
 H410 H 0.63894 0.29469 -0.31172
 H411 H 0.61014 0.43769 -0.12955
 H412 H 0.58317 0.46473 -0.08135
 H413 H 0.54339 0.39516 -0.15899
 H414 H 0.57037 0.36806 -0.20705
 C415 C 0.15523 0.84066 -0.28912
 C416 C 0.17351 0.85604 -0.29208
 C417 C 0.18891 0.84071 -0.32051
 C418 C 0.18643 0.80956 -0.34627
 C419 C 0.16820 0.79410 -0.34313
 C420 C 0.15277 0.80951 -0.31504
 C421 C 0.13883 0.85700 -0.25937
 N422 N 0.12069 0.84393 -0.26169
 N423 N 0.10595 0.85865 -0.23514
 C424 C 0.10870 0.88705 -0.20501
 N425 N 0.12684 0.90010 -0.20262
 N426 N 0.14158 0.88542 -0.22928
 C427 C 0.09227 0.90346 -0.17550
 C428 C 0.09549 0.93079 -0.13936
 C429 C 0.08002 0.94626 -0.11156
 C430 C 0.06093 0.93491 -0.11949
 C431 C 0.05769 0.90762 -0.15569
 C432 C 0.07319 0.89203 -0.18324
 H433 H 0.17593 0.88002 -0.27261
 H434 H 0.20285 0.85305 -0.32178
 H435 H 0.16580 0.77027 -0.36319
 H436 H 0.13891 0.79694 -0.31363
 H437 H 0.11000 0.94022 -0.13231
 H438 H 0.08305 0.96726 -0.08407
 H439 H 0.04318 0.89818 -0.16265
 H440 H 0.07017 0.87108 -0.21083
 C441 C 0.34087 0.64766 -0.28824
 C442 C 0.33949 0.64698 -0.34855
 C443 C 0.32363 0.66131 -0.37651
 C444 C 0.30898 0.67700 -0.34480
 C445 C 0.31031 0.67763 -0.28456
 C446 C 0.32602 0.66290 -0.25653
 C447 C 0.35780 0.63290 -0.25863
 N448 N 0.35723 0.62628 -0.20138
 N449 N 0.37249 0.61317 -0.17469
 C450 C 0.38902 0.60633 -0.20404
 N451 N 0.38961 0.61302 -0.26127
 N452 N 0.37431 0.62595 -0.28803
 C453 C 0.40599 0.59183 -0.17426
 C454 C 0.42444 0.59253 -0.19989
 C455 C 0.44044 0.57886 -0.17163
 C456 C 0.43828 0.56379 -0.11752
 C457 C 0.41982 0.56301 -0.09199
 C458 C 0.40389 0.57707 -0.11987
 H459 H 0.35064 0.63533 -0.37421
 H460 H 0.32302 0.66077 -0.42304
 H461 H 0.29913 0.68942 -0.25916
 H462 H 0.32667 0.66390 -0.21004
 H463 H 0.42655 0.60383 -0.24166
 H464 H 0.45446 0.57972 -0.19249
 H465 H 0.41770 0.55170 -0.05020
 H466 H 0.38987 0.57604 -0.09902
 C467 C -0.15942 1.14797 -0.28642
 C468 C -0.16066 1.14704 -0.34674
 C469 C -0.17648 1.16114 -0.37519
 C470 C -0.19123 1.17685 -0.34397
 C471 C -0.19006 1.17773 -0.28371
 C472 C -0.17438 1.16322 -0.25518
 C473 C -0.14251 1.13352 -0.25635
 N474 N -0.14319 1.12695 -0.19909
 N475 N -0.12792 1.11412 -0.17202
 C476 C -0.11128 1.10756 -0.20101
 N477 N -0.11059 1.11420 -0.25824
 N478 N -0.12589 1.12683 -0.28537
 C479 C -0.09429 1.09338 -0.17092
 C480 C -0.07580 1.09460 -0.19619
 C481 C -0.05977 1.08113 -0.16785
 C482 C -0.06193 1.06575 -0.11401
 C483 C -0.08042 1.06450 -0.08877
 C484 C -0.09640 1.07838 -0.11673
 H485 H -0.14942 1.13538 -0.37203
 H486 H -0.17698 1.16041 -0.42173
 H487 H -0.20132 1.18955 -0.25871
 H488 H -0.17384 1.16441 -0.20869
 H489 H -0.07368 1.10612 -0.23778
 H490 H -0.04572 1.08234 -0.18851
 H491 H -0.08255 1.05291 -0.04720
 H492 H -0.11046 1.07696 -0.09618
 C493 C 0.65556 0.66247 -0.28554
 C494 C 0.67217 0.64421 -0.29960
 C495 C 0.68760 0.65904 -0.32887
 C496 C 0.68702 0.69283 -0.34458
 C497 C 0.67028 0.71102 -0.32969
 C498 C 0.65479 0.69602 -0.30097
 C499 C 0.63910 0.64655 -0.25518
 N500 N 0.62178 0.66223 -0.25021
 N501 N 0.60696 0.64779 -0.22333
 C502 C 0.60885 0.61711 -0.20007
 N503 N 0.62619 0.60148 -0.20489
 N504 N 0.64099 0.61586 -0.23195
 C505 C 0.59236 0.60090 -0.17041
 C506 C 0.59523 0.57182 -0.13831
 C507 C 0.57969 0.55631 -0.11075
 C508 C 0.56086 0.56933 -0.11503
 C509 C 0.55797 0.59844 -0.14705
 C510 C 0.57356 0.61414 -0.17421
 H511 H 0.67330 0.61831 -0.28807
 H512 H 0.70024 0.64397 -0.33693
 H513 H 0.66855 0.73663 -0.34221
 H514 H 0.64216 0.71080 -0.29101
 H515 H 0.60952 0.56101 -0.13430
 H516 H 0.58244 0.53387 -0.08657
 H517 H 0.54366 0.60917 -0.15105
 H518 H 0.57083 0.63647 -0.19868
 C519 C 0.15294 1.17337 -0.28115
 C520 C 0.17143 1.17478 -0.25620
 C521 C 0.18688 1.18960 -0.28529
 C522 C 0.18444 1.20339 -0.34079
 C523 C 0.16564 1.20224 -0.36504
 C524 C 0.15019 1.18754 -0.33565
 C525 C 0.13671 1.15677 -0.25084
 N526 N 0.11828 1.15905 -0.27103
 N527 N 0.10375 1.14369 -0.24428
 C528 C 0.10704 1.12529 -0.19632
 N529 N 0.12546 1.12304 -0.17610
 N530 N 0.13998 1.13848 -0.20274
 C531 C 0.09091 1.10776 -0.16712
 C532 C 0.09466 1.08463 -0.12328
 C533 C 0.07945 1.06767 -0.09657
 C534 C 0.06012 1.07364 -0.11271
 C535 C 0.05638 1.09698 -0.15621
 C536 C 0.07159 1.11374 -0.18322
 H537 H 0.17400 1.16457 -0.21380
 H538 H 0.20056 1.19097 -0.26273
 H539 H 0.16275 1.21117 -0.40803
 H540 H 0.13614 1.18667 -0.35638
 H541 H 0.10937 1.07935 -0.10992
 H542 H 0.08287 1.04983 -0.06330
 H543 H 0.04168 1.10217 -0.16982
 H544 H 0.06817 1.13145 -0.21670
 C545 C 0.34339 0.34737 -0.29149
 C546 C 0.33575 0.36145 -0.34192
 C547 C 0.32006 0.34660 -0.36996
 C548 C 0.31209 0.31705 -0.34880
 C549 C 0.31982 0.30275 -0.29882
 C550 C 0.33520 0.31801 -0.26998
 C551 C 0.35987 0.36317 -0.26157
 N552 N 0.36231 0.35927 -0.20400
 N553 N 0.37717 0.37353 -0.17701
 C554 C 0.39028 0.39195 -0.20663
 N555 N 0.38789 0.39573 -0.26424
 N556 N 0.37291 0.38176 -0.29113
 C557 C 0.40687 0.40744 -0.17679
 C558 C 0.42429 0.41347 -0.20627
 C559 C 0.44011 0.42758 -0.17777
 C560 C 0.43863 0.43666 -0.11968
 C561 C 0.42113 0.43106 -0.09040
 C562 C 0.40547 0.41621 -0.11851
 H563 H 0.34175 0.38414 -0.35926
 H564 H 0.31431 0.35790 -0.40863
 H565 H 0.31380 0.27998 -0.28183
 H566 H 0.34088 0.30656 -0.23135
 H567 H 0.42577 0.40681 -0.25114
 H568 H 0.45342 0.43181 -0.20134
 H569 H 0.41965 0.43773 -0.04550
 H570 H 0.39218 0.41195 -0.09487
 C571 C -0.15854 0.85316 -0.29041
 C572 C -0.17346 0.83807 -0.25857
 C573 C -0.18911 0.82307 -0.28650
 C574 C -0.19031 0.82326 -0.34677
 C575 C -0.17559 0.83878 -0.37863
 C576 C -0.15980 0.85340 -0.35075
 C577 C -0.14168 0.86824 -0.26084
 N578 N -0.12520 0.87549 -0.29022
 N579 N -0.10996 0.88868 -0.26346
 C580 C -0.11060 0.89533 -0.20625
 N581 N -0.12711 0.88819 -0.17693
 N582 N -0.14230 0.87483 -0.20362
 C583 C -0.09368 0.91003 -0.17642
 C584 C -0.09580 0.92421 -0.12164
 C585 C -0.07990 0.93830 -0.09355
 C586 C -0.06147 0.93817 -0.11927
 C587 C -0.05930 0.92375 -0.17384
 C588 C -0.07527 0.91003 -0.20228
 H589 H -0.17292 0.83741 -0.21205
 H590 H -0.20035 0.81144 -0.26099
 H591 H -0.17610 0.83899 -0.42518
 H592 H -0.14859 0.86491 -0.37651
 H593 H -0.10978 0.92471 -0.10059
 H594 H -0.08205 0.94910 -0.05142
 H595 H -0.04531 0.92340 -0.19487
 H596 H -0.07315 0.89919 -0.24436
 C597 C 0.34538 0.65775 0.29251
 C598 C 0.34651 0.69121 0.30868
 C599 C 0.33092 0.70658 0.33617
 C600 C 0.31390 0.68878 0.34855
 C601 C 0.31284 0.65526 0.33258
 C602 C 0.32834 0.63999 0.30467
 C603 C 0.36185 0.64143 0.26321
 N604 N 0.35962 0.61128 0.23826
 N605 N 0.37441 0.59660 0.21186
 C606 C 0.39209 0.61137 0.20949
 N607 N 0.39433 0.64149 0.23453
 N608 N 0.37952 0.65624 0.26074
 C609 C 0.40854 0.59505 0.18006
 C610 C 0.42751 0.60717 0.18665
 C611 C 0.44302 0.59187 0.15874
 C612 C 0.43989 0.56429 0.12314
 C613 C 0.42091 0.55217 0.11651
 C614 C 0.40543 0.56727 0.14489
 H615 H 0.35938 0.70567 0.29962
 H616 H 0.33213 0.73254 0.34708
 H617 H 0.30011 0.64062 0.34242
 H618 H 0.32704 0.61411 0.29323
 H619 H 0.43043 0.62845 0.21358
 H620 H 0.45745 0.60190 0.16465
 H621 H 0.41799 0.53095 0.08946
 H622 H 0.39099 0.55734 0.13876
 C623 C -0.15481 1.15597 0.29710
 C624 C -0.15231 1.18603 0.32616
 C625 C -0.16796 1.20166 0.35286
 C626 C -0.18687 1.18774 0.35181
 C627 C -0.18903 1.15727 0.32208
 C628 C -0.17335 1.14186 0.29531
 C629 C -0.13821 1.13939 0.26874
 N630 N -0.14101 1.11206 0.23580
 N631 N -0.12614 1.09722 0.21008
 C632 C -0.10781 1.10901 0.21630
 N633 N -0.10500 1.13629 0.24936
 N634 N -0.11988 1.15118 0.27500
 C635 C -0.09130 1.09268 0.18705
 C636 C -0.07216 1.10307 0.19739
 C637 C -0.05665 1.08810 0.16890
 C638 C -0.05993 1.06250 0.12917
 C639 C -0.07906 1.05192 0.11921
 C640 C -0.09455 1.06676 0.14791
 H641 H -0.13823 1.19787 0.32773
 H642 H -0.16495 1.22551 0.37172
 H643 H -0.20253 1.14374 0.32132
 H644 H -0.17578 1.11844 0.27387
 H645 H -0.06912 1.12289 0.22738
 H646 H -0.04210 1.09690 0.17755
 H647 H -0.08212 1.03222 0.08899
 H648 H -0.10909 1.05811 0.13889
 C649 C 0.65604 0.33487 0.27733
 C650 C 0.67227 0.35335 0.29489
 C651 C 0.68737 0.33829 0.32519
 C652 C 0.68671 0.30431 0.33824
 C653 C 0.67057 0.28576 0.32010
 C654 C 0.65538 0.30089 0.29022
 C655 C 0.63982 0.35102 0.24640
 N656 N 0.62262 0.33513 0.23930
 N657 N 0.60791 0.34987 0.21242
 C658 C 0.60981 0.38106 0.19126
 N659 N 0.62704 0.39688 0.19809
 N660 N 0.64172 0.38219 0.22519
 C661 C 0.59334 0.39765 0.16222
 C662 C 0.59617 0.42730 0.13161
 C663 C 0.58057 0.44322 0.10507
 C664 C 0.56175 0.43003 0.10904
 C665 C 0.55893 0.40033 0.13944
 C666 C 0.57456 0.38424 0.16548
 H667 H 0.67319 0.37962 0.28602
 H668 H 0.69942 0.35344 0.33932
 H669 H 0.66972 0.25944 0.32852
 H670 H 0.64316 0.28587 0.27695
 H671 H 0.61046 0.43824 0.12809
 H672 H 0.58323 0.46610 0.08207
 H673 H 0.54463 0.38944 0.14309
 H674 H 0.57187 0.36148 0.18880
 C675 C 0.15675 0.83651 0.27615
 C676 C 0.17284 0.85514 0.29433
 C677 C 0.18785 0.84023 0.32527
 C678 C 0.18723 0.80625 0.33837
 C679 C 0.17122 0.78756 0.31964
 C680 C 0.15613 0.80253 0.28911
 C681 C 0.14060 0.85248 0.24459
 N682 N 0.12352 0.83636 0.23670
 N683 N 0.10886 0.85094 0.20934
 C684 C 0.11069 0.88221 0.18848
 N685 N 0.12781 0.89826 0.19606
 N686 N 0.14245 0.88373 0.22363
 C687 C 0.09423 0.89866 0.15918
 C688 C 0.09696 0.92853 0.12914
 C689 C 0.08131 0.94441 0.10271
 C690 C 0.06255 0.93094 0.10624
 C691 C 0.05985 0.90096 0.13590
 C692 C 0.07552 0.88493 0.16182
 H693 H 0.17372 0.88141 0.28544
 H694 H 0.19979 0.85549 0.33983
 H695 H 0.17042 0.76124 0.32807
 H696 H 0.14402 0.78740 0.27539
 H697 H 0.11119 0.93971 0.12609
 H698 H 0.08388 0.96751 0.08028
 H699 H 0.04560 0.88984 0.13919
 H700 H 0.07289 0.86199 0.18466
   
