data_POSCAR
  _audit_creation_date              2014-09-24
  _audit_creation_method            'ToBaCCo'
  _symmetry_space_group_name_H-M    'P1'
  _symmetry_Int_Tables_number       1
  _symmetry_cell_setting            triclinic
  loop_
  _symmetry_equiv_pos_as_xyz
 x,y,z
_cell_length_a 41.6298
_cell_length_b 43.4774
_cell_length_c 40.9754
_cell_angle_alpha 90.562800
_cell_angle_beta 89.698100
_cell_angle_gamma 90.366100
loop_
  _atom_site_label
  _atom_site_type_symbol
  _atom_site_fract_x
  _atom_site_fract_y
  _atom_site_fract_z
N1 N 0.12311 0.14857 0.21354
 N2 N 0.14625 0.12821 0.21200
 C3 C 0.14268 0.10852 0.23709
 C4 C 0.11573 0.11706 0.25535
 C5 C 0.10409 0.14261 0.23929
 H6 H 0.15872 0.08965 0.24177
 H7 H 0.08368 0.15653 0.24601
 Cu8 Cu 0.17880 0.13025 0.17732
 Cu9 Cu 0.11976 0.18263 0.18350
 Cu10 Cu 0.17771 0.18814 0.12315
 N11 N 0.21196 0.13445 0.14350
 N12 N 0.21082 0.15686 0.12228
 C13 C 0.23619 0.15495 0.10197
 C14 C 0.25475 0.12996 0.11074
 C15 C 0.23838 0.11747 0.13735
 H16 H 0.24090 0.17111 0.08267
 H17 H 0.24520 0.09773 0.15147
 N18 N 0.14236 0.21770 0.12795
 N19 N 0.12028 0.21558 0.15100
 C20 C 0.10059 0.23994 0.14915
 C21 C 0.11077 0.25844 0.12374
 C22 C 0.13730 0.24346 0.11080
 H23 H 0.08102 0.24445 0.16589
 H24 H 0.15230 0.25107 0.09084
 H25 H 0.14266 0.16132 0.14469
 H26 H 0.16830 0.18513 0.17261
 N27 N -0.13380 0.83818 0.21000
 N28 N -0.15381 0.86132 0.20795
 C29 C -0.15084 0.87921 0.23480
 C30 C -0.12769 0.86666 0.25487
 C31 C -0.11743 0.84059 0.23816
 H32 H -0.16468 0.89974 0.23941
 H33 H -0.09977 0.82418 0.24605
 Cu34 Cu -0.18259 0.86553 0.17091
 Cu35 Cu -0.13111 0.80610 0.17660
 Cu36 Cu -0.18241 0.81209 0.11089
 N37 N -0.21266 0.86702 0.13464
 N38 N -0.21167 0.84654 0.11092
 C39 C -0.23557 0.85184 0.08988
 C40 C -0.25308 0.87692 0.10100
 C41 C -0.23754 0.88604 0.12955
 H42 H -0.24060 0.83735 0.06895
 H43 H -0.24424 0.90450 0.14601
 N44 N -0.15136 0.77866 0.11504
 N45 N -0.13205 0.77603 0.14024
 C46 C -0.11565 0.74954 0.13713
 C47 C -0.12524 0.73468 0.10864
 C48 C -0.14784 0.75400 0.09531
 H49 H -0.09861 0.74135 0.15478
 H50 H -0.16180 0.74978 0.07357
 H51 H -0.14674 0.83276 0.13881
 H52 H -0.17806 0.81028 0.16134
 N53 N -0.13090 0.16508 -0.23106
 N54 N -0.15531 0.14608 -0.23492
 C55 C -0.14867 0.12640 -0.25957
 C56 C -0.11835 0.13335 -0.27187
 C57 C -0.10782 0.15804 -0.25297
 H58 H -0.16500 0.10874 -0.26822
 H59 H -0.08518 0.17020 -0.25496
 Cu60 Cu -0.19356 0.14902 -0.20740
 Cu61 Cu -0.13117 0.19760 -0.19787
 Cu62 Cu -0.20810 0.21787 -0.17418
 N63 N -0.23056 0.15576 -0.17874
 N64 N -0.23632 0.18318 -0.16647
 C65 C -0.26296 0.18220 -0.14793
 C66 C -0.27473 0.15228 -0.14803
 C67 C -0.25344 0.13615 -0.16819
 H68 H -0.27247 0.20198 -0.13508
 H69 H -0.25410 0.11197 -0.17450
 N70 N -0.17081 0.24473 -0.16788
 N71 N -0.14115 0.23662 -0.17520
 C72 C -0.12082 0.25835 -0.16375
 C73 C -0.13873 0.28093 -0.14807
 C74 C -0.17030 0.27159 -0.15147
 H75 H -0.09493 0.25713 -0.16549
 H76 H -0.19138 0.28274 -0.14155
 H77 H -0.17178 0.18721 -0.16965
 H78 H -0.17682 0.20289 -0.21157
 N79 N 0.11580 0.84756 -0.18860
 N80 N 0.13975 0.86716 -0.19163
 C81 C 0.13768 0.88090 -0.22089
 C82 C 0.11097 0.86926 -0.23717
 C83 C 0.09772 0.84817 -0.21570
 H84 H 0.15481 0.89759 -0.22988
 H85 H 0.07702 0.83355 -0.21974
 Cu86 Cu 0.17241 0.87160 -0.15789
 Cu87 Cu 0.11125 0.82068 -0.15117
 Cu88 Cu 0.16952 0.82628 -0.09159
 N89 N 0.20587 0.87276 -0.12470
 N90 N 0.20395 0.85562 -0.09856
 C91 C 0.23060 0.85952 -0.08062
 C92 C 0.25085 0.88011 -0.09635
 C93 C 0.23406 0.88816 -0.12430
 H94 H 0.23528 0.84703 -0.05852
 H95 H 0.24200 0.90328 -0.14352
 N96 N 0.13308 0.79767 -0.08879
 N97 N 0.11090 0.79538 -0.11153
 C98 C 0.09229 0.77069 -0.10530
 C99 C 0.10352 0.75643 -0.07747
 C100 C 0.12924 0.77449 -0.06758
 H101 H 0.07351 0.76247 -0.12130
 H102 H 0.14577 0.76954 -0.04813
 H103 H 0.13521 0.84878 -0.11864
 H104 H 0.15980 0.81931 -0.14079
 N105 N 0.14721 1.13661 0.78208
 N106 N 0.12185 1.15428 0.78455
 C107 C 0.10223 1.14847 0.75919
 C108 C 0.11606 1.12578 0.73972
 C109 C 0.14463 1.11888 0.75518
 H110 H 0.07979 1.16016 0.75519
 H111 H 0.16254 1.10249 0.74736
 Cu112 Cu 0.11769 1.18409 0.81979
 Cu113 Cu 0.18168 1.13768 0.81386
 Cu114 Cu 0.17536 1.19169 0.87634
 N115 N 0.12160 1.22109 0.84640
 N116 N 0.14419 1.22408 0.86847
 C117 C 0.14119 1.25161 0.88342
 C118 C 0.11536 1.26692 0.86984
 C119 C 0.10357 1.24666 0.84636
 H120 H 0.15675 1.25967 0.90276
 H121 H 0.08348 1.25014 0.83024
 N122 N 0.21130 1.16239 0.87271
 N123 N 0.21382 1.14222 0.84860
 C124 C 0.24092 1.12600 0.85239
 C125 C 0.25648 1.13639 0.88023
 C126 C 0.23688 1.15958 0.89246
 H127 H 0.24871 1.10801 0.83589
 H128 H 0.24092 1.17358 0.91400
 H129 H 0.15512 1.15372 0.85256
 H130 H 0.17552 1.18350 0.82725
 N131 N 0.87007 0.87941 0.81294
 N132 N 0.89097 0.85706 0.81000
 C133 C 0.90650 0.85974 0.78131
 C134 C 0.89470 0.88526 0.76527
 C135 C 0.87171 0.89727 0.78636
 H136 H 0.92427 0.84360 0.77252
 H137 H 0.85644 0.91688 0.78242
 Cu138 Cu 0.89494 0.82574 0.84323
 Cu139 Cu 0.84069 0.88180 0.84988
 Cu140 Cu 0.82725 0.81062 0.88508
 N141 N 0.89075 0.78919 0.86968
 N142 N 0.86420 0.78311 0.88590
 C143 C 0.86689 0.75537 0.89992
 C144 C 0.89683 0.74332 0.89203
 C145 C 0.91128 0.76566 0.87285
 H146 H 0.84794 0.74442 0.91379
 H147 H 0.93457 0.76462 0.86114
 N148 N 0.79709 0.84546 0.88960
 N149 N 0.80285 0.87270 0.87683
 C150 C 0.77769 0.89120 0.88271
 C151 C 0.75479 0.87491 0.90011
 C152 C 0.76805 0.84602 0.90427
 H153 H 0.77591 0.91454 0.87408
 H154 H 0.75688 0.82652 0.91604
 H155 H 0.85666 0.84776 0.88261
 H156 H 0.83751 0.83570 0.84345
 N157 N 0.13217 0.88368 1.18459
 N158 N 0.11547 0.85839 1.18936
 C159 C 0.10133 0.85994 1.21891
 C160 C 0.10973 0.88778 1.23359
 C161 C 0.12905 0.90233 1.21074
 H162 H 0.08729 0.84146 1.22934
 H163 H 0.14181 0.92391 1.21357
 Cu164 Cu 0.11624 0.82472 1.15775
 Cu165 Cu 0.16076 0.88815 1.14731
 Cu166 Cu 0.18584 0.81776 1.11675
 N167 N 0.12547 0.78828 1.13173
 N168 N 0.15271 0.78559 1.11562
 C169 C 0.15358 0.75774 1.10104
 C170 C 0.12531 0.74202 1.10836
 C171 C 0.10806 0.76231 1.12793
 H172 H 0.17372 0.74938 1.08684
 H173 H 0.08476 0.75844 1.13896
 N174 N 0.21088 0.85636 1.11152
 N175 N 0.20036 0.88330 1.12193
 C176 C 0.22306 0.90485 1.11671
 C177 C 0.24948 0.89091 1.10245
 C178 C 0.24071 0.86013 1.09923
 H179 H 0.22097 0.92862 1.12438
 H180 H 0.25552 0.84157 1.09014
 H181 H 0.15090 0.84940 1.11690
 H182 H 0.17131 0.84360 1.15674
 N183 N 0.85215 1.13039 1.22874
 N184 N 0.87123 1.15434 1.23216
 C185 C 0.89258 1.14873 1.25589
 C186 C 0.88645 1.11965 1.26819
 C187 C 0.86060 1.10872 1.25022
 H188 H 0.91052 1.16503 1.26422
 H189 H 0.84843 1.08685 1.25286
 Cu190 Cu 0.86515 1.19119 1.20662
 Cu191 Cu 0.81652 1.13010 1.19827
 Cu192 Cu 0.81103 1.19173 1.14552
 N193 N 0.86628 1.22241 1.17317
 N194 N 0.84521 1.22301 1.14941
 C195 C 0.85177 1.24745 1.13036
 C196 C 0.87849 1.26293 1.14285
 C197 C 0.88689 1.24614 1.17004
 H198 H 0.83810 1.25339 1.10900
 H199 H 0.90640 1.25085 1.18665
 N200 N 0.77930 1.15726 1.14610
 N201 N 0.78201 1.13379 1.16605
 C202 C 0.75707 1.11445 1.16160
 C203 C 0.73729 1.12605 1.13770
 C204 C 0.75229 1.15331 1.12833
 H205 H 0.75349 1.09355 1.17516
 H206 H 0.74391 1.16936 1.11035
 H207 H 0.84004 1.15891 1.16522
 H208 H 0.80991 1.17735 1.19304
 N209 N 0.53803 0.97214 0.93378
 N210 N 0.56470 0.97100 0.91612
 N211 N 0.47091 0.94762 0.95608
 N212 N 0.44470 0.93036 0.95474
 N213 N 0.47037 0.96855 0.93323
 N214 N 0.44404 0.96597 0.91568
 N215 N 0.53852 0.95119 0.95658
 N216 N 0.56525 0.93521 0.95504
 C217 C 0.58133 0.94760 0.92959
 C218 C 0.42838 0.94188 0.92912
 N219 N 0.46839 0.96981 1.04845
 N220 N 0.44126 0.96629 1.06513
 N221 N 0.53804 0.95236 1.02655
 N222 N 0.56489 0.93665 1.02922
 N223 N 0.53642 0.97384 1.04923
 N224 N 0.56211 0.97330 1.06794
 N225 N 0.47090 0.94817 1.02603
 N226 N 0.44613 0.92930 1.02709
 Mn227 Mn 0.50463 0.94950 0.99131
 C228 C 0.42787 0.94059 1.05162
 C229 C 0.57959 0.94986 1.05527
 N230 N 0.46647 1.03458 0.93307
 N231 N 0.44099 1.03591 0.91408
 N232 N 0.53297 1.05985 0.95554
 N233 N 0.55804 1.07847 0.95209
 N234 N 0.53385 1.03788 0.93335
 N235 N 0.55930 1.04071 0.91449
 N236 N 0.46527 1.05620 0.95565
 N237 N 0.43902 1.07272 0.95267
 Mn238 Mn 0.50217 1.00329 0.93296
 C239 C 0.42413 1.05992 0.92656
 C240 C 0.57415 1.06612 0.92623
 N241 N 0.53310 1.04008 1.04890
 N242 N 0.55843 1.04477 1.06770
 N243 N 0.46417 1.05710 1.02599
 N244 N 0.43731 1.07305 1.02899
 N245 N 0.46547 1.03596 1.04860
 N246 N 0.43980 1.03694 1.06749
 N247 N 0.53195 1.06101 1.02604
 N248 N 0.55629 1.08043 1.02869
 Mn249 Mn 0.50084 1.00492 1.04928
 Mn250 Mn 0.49858 1.05901 0.99081
 Cl251 Cl 0.50155 1.00423 0.99112
 C252 C 0.57259 1.07018 1.05487
 C253 C 0.42244 1.06023 1.05518
 N254 N -0.02871 0.46797 -0.05634
 N255 N -0.02953 0.44507 -0.07759
 N256 N -0.05590 0.52970 -0.02934
 N257 N -0.07457 0.55410 -0.02894
 N258 N -0.03323 0.53252 -0.05154
 N259 N -0.03590 0.55908 -0.06668
 N260 N -0.05179 0.46520 -0.03462
 N261 N -0.06908 0.44022 -0.04063
 C262 C -0.05485 0.42797 -0.06758
 C263 C -0.06201 0.57217 -0.05252
 N264 N -0.03585 0.52479 0.06410
 N265 N -0.03883 0.54884 0.08366
 N266 N -0.05355 0.46093 0.03535
 N267 N -0.07247 0.43656 0.03679
 N268 N -0.03181 0.46028 0.05843
 N269 N -0.03547 0.43523 0.07625
 N270 N -0.05729 0.52552 0.04073
 N271 N -0.07524 0.55036 0.04373
 Mn272 Mn -0.05505 0.49533 0.00303
 C273 C -0.06366 0.56446 0.07090
 C274 C -0.06101 0.42064 0.06236
 N275 N 0.03546 0.53653 -0.05039
 N276 N 0.03441 0.56277 -0.06603
 N277 N 0.06207 0.47312 -0.03186
 N278 N 0.08163 0.44952 -0.03471
 N279 N 0.04008 0.47209 -0.05469
 N280 N 0.04407 0.44756 -0.07358
 N281 N 0.05675 0.53780 -0.02690
 N282 N 0.07058 0.56530 -0.02588
 Mn283 Mn 0.00342 0.50221 -0.05363
 C284 C 0.05654 0.58046 -0.05078
 C285 C 0.07036 0.43388 -0.06097
 N286 N 0.03752 0.46531 0.05982
 N287 N 0.04063 0.43903 0.07528
 N288 N 0.05570 0.53289 0.04305
 N289 N 0.07151 0.55900 0.04672
 N290 N 0.03308 0.53021 0.06532
 N291 N 0.03288 0.55485 0.08462
 N292 N 0.06046 0.46864 0.03798
 N293 N 0.07983 0.44473 0.03814
 Mn294 Mn 0.00077 0.49503 0.06241
 Mn295 Mn 0.05915 0.50320 0.00558
 Cl296 Cl 0.00205 0.49892 0.00439
 C297 C 0.06730 0.42656 0.06170
 C298 C 0.05730 0.57247 0.07283
 N299 N 0.95486 0.00555 0.53583
 N300 N 0.93548 0.00960 0.56103
 N301 N 0.97489 0.02463 0.46593
 N302 N 0.97053 0.04196 0.44016
 N303 N 0.95316 0.00265 0.46719
 N304 N 0.93331 0.00455 0.44223
 N305 N 0.97649 0.02762 0.53458
 N306 N 0.97233 0.04733 0.55898
 C307 C 0.94660 0.03573 0.57531
 C308 C 0.94449 0.02926 0.42559
 N309 N 1.06670 0.00621 0.46316
 N310 N 1.08479 0.00869 0.43674
 N311 N 1.04567 0.02981 0.53191
 N312 N 1.04812 0.04835 0.55744
 N313 N 1.06876 0.00937 0.53183
 N314 N 1.08755 0.01352 0.55737
 N315 N 1.04382 0.02685 0.46321
 N316 N 1.04570 0.04386 0.43674
 Mn317 Mn 1.01023 0.02762 0.49893
 C318 C 1.07146 0.03233 0.42047
 C319 C 1.07448 0.03806 0.57301
 N320 N 0.95525 -0.06355 0.46982
 N321 N 0.93710 -0.06704 0.44370
 N322 N 0.98008 -0.08098 0.53855
 N323 N 0.98016 -0.09640 0.56604
 N324 N 0.95713 -0.06041 0.53877
 N325 N 0.94109 -0.06126 0.56669
 N326 N 0.97812 -0.08421 0.47000
 N327 N 0.97605 -0.10230 0.44401
 Mn328 Mn 0.95465 -0.02900 0.50289
 C329 C 0.95019 -0.09148 0.42793
 C330 C 0.95559 -0.08410 0.58330
 N331 N 1.07081 -0.05664 0.53453
 N332 N 1.08878 -0.05594 0.56098
 N333 N 1.04709 -0.08212 0.46798
 N334 N 1.04718 -0.09942 0.44141
 N335 N 1.06839 -0.05984 0.46560
 N336 N 1.08325 -0.06129 0.43706
 N337 N 1.04902 -0.07852 0.53656
 N338 N 1.05161 -0.09318 0.56450
 Mn339 Mn 1.06911 -0.02526 0.49873
 Mn340 Mn 1.01360 -0.08183 0.50331
 Cl341 Cl 1.01188 -0.02708 0.50096
 C342 C 1.07674 -0.07905 0.57936
 C343 C 1.07006 -0.08641 0.42247
 C344 C 1.07533 0.11588 0.29922
 C345 C 1.10327 0.10383 0.28425
 C346 C 1.11847 0.07870 0.29921
 C347 C 1.10655 0.06659 0.32867
 C348 C 1.07894 0.07950 0.34342
 C349 C 1.06338 0.10388 0.32833
 C350 C 1.06743 0.06803 0.37320
 C351 C 1.08322 0.04377 0.38865
 C352 C 1.11037 0.03068 0.37358
 C353 C 1.12194 0.04198 0.34386
 H354 H 1.13981 0.06867 0.28845
 H355 H 1.04202 0.11391 0.33918
 H356 H 1.04632 0.07818 0.38444
 H357 H 1.14306 0.03162 0.33291
 H358 H 1.06235 0.13481 0.28881
 H359 H 1.12283 0.01180 0.38489
 C360 C 0.86707 -0.09740 0.30307
 C361 C 0.88313 -0.12185 0.28737
 C362 C 0.90947 -0.13534 0.30310
 C363 C 0.91948 -0.12473 0.33392
 C364 C 0.90303 -0.10023 0.34938
 C365 C 0.87692 -0.08671 0.33372
 C366 C 0.91299 -0.08963 0.38021
 C367 C 0.93927 -0.10319 0.39582
 C368 C 0.95552 -0.12749 0.38022
 C369 C 0.94571 -0.13819 0.34955
 H370 H 0.92241 -0.15401 0.29148
 H371 H 0.86404 -0.06788 0.34520
 H372 H 0.90037 -0.07076 0.39193
 H373 H 0.95868 -0.15694 0.33804
 H374 H 0.84667 -0.08651 0.29191
 H375 H 0.97596 -0.13818 0.39166
 C376 C 0.92588 0.13209 0.68602
 C377 C 0.89855 0.11832 0.70022
 C378 C 0.88717 0.09026 0.68720
 C379 C 0.90236 0.07649 0.66017
 C380 C 0.92949 0.09077 0.64583
 C381 C 0.94119 0.11846 0.65912
 C382 C 0.94422 0.07727 0.61829
 C383 C 0.93203 0.04971 0.60489
 C384 C 0.90534 0.03551 0.61971
 C385 C 0.89065 0.04875 0.64708
 H386 H 0.86646 0.07902 0.69796
 H387 H 0.96201 0.12973 0.64853
 H388 H 0.96489 0.08835 0.60716
 H389 H 0.86997 0.03741 0.65784
 H390 H 0.93527 0.15369 0.69529
 H391 H 0.89559 0.01418 0.60999
 C392 C 1.07217 -0.13786 0.71639
 C393 C 1.09999 -0.12371 0.72917
 C394 C 1.11743 -0.10320 0.70929
 C395 C 1.10753 -0.09726 0.67725
 C396 C 1.07980 -0.11197 0.66470
 C397 C 1.06221 -0.13208 0.68454
 C398 C 1.07007 -0.10628 0.63256
 C399 C 1.08757 -0.08581 0.61283
 C400 C 1.11497 -0.07111 0.62562
 C401 C 1.12493 -0.07686 0.65749
 H402 H 1.13882 -0.09190 0.71848
 H403 H 1.04076 -0.14342 0.67540
 H404 H 1.04872 -0.11754 0.62307
 H405 H 1.14620 -0.06527 0.66671
 H406 H 1.05794 -0.15357 0.73084
 H407 H 1.12875 -0.05512 0.61095
 C408 C 0.29718 1.13587 1.06919
 C409 C 0.28401 1.12029 1.09631
 C410 C 0.30108 1.09511 1.10882
 C411 C 0.33067 1.08623 1.09514
 C412 C 0.34361 1.10241 1.06831
 C413 C 0.32651 1.12702 1.05540
 C414 C 0.37351 1.09384 1.05502
 C415 C 0.39070 1.06933 1.06840
 C416 C 0.37739 1.05319 1.09487
 C417 C 0.34769 1.06152 1.10808
 H418 H 0.29182 1.08244 1.12946
 H419 H 0.33593 1.13962 1.03472
 H420 H 0.38344 1.10634 1.03451
 H421 H 0.33814 1.04874 1.12856
 H422 H 0.28512 1.15513 1.05832
 H423 H 0.39001 1.03407 1.10552
 C424 C 0.29584 0.87806 0.94212
 C425 C 0.28218 0.88905 0.91300
 C426 C 0.30086 0.90866 0.89320
 C427 C 0.33244 0.91653 0.90185
 C428 C 0.34582 0.90488 0.93080
 C429 C 0.32724 0.88586 0.95084
 C430 C 0.37747 0.91263 0.93933
 C431 C 0.39579 0.93218 0.91939
 C432 C 0.38225 0.94373 0.89070
 C433 C 0.35089 0.93588 0.88193
 H434 H 0.29126 0.91775 0.87082
 H435 H 0.33701 0.87693 0.97329
 H436 H 0.38760 0.90388 0.96171
 H437 H 0.34103 0.94509 0.85967
 H438 H 0.28259 0.86326 0.95845
 H439 H 0.39589 0.95896 0.87504
 C440 C 0.70588 0.87625 1.05824
 C441 C 0.71840 0.88867 1.08754
 C442 C 0.70115 0.91236 1.10346
 C443 C 0.67161 0.92238 1.09119
 C444 C 0.65914 0.90896 1.06236
 C445 C 0.67666 0.88626 1.04588
 C446 C 0.62918 0.91819 1.05065
 C447 C 0.61138 0.94071 1.06741
 C448 C 0.62417 0.95439 1.09575
 C449 C 0.65404 0.94528 1.10756
 H450 H 0.71003 0.92269 1.12581
 H451 H 0.66756 0.87592 1.02358
 H452 H 0.61967 0.90769 1.02858
 H453 H 0.66324 0.95596 1.12965
 H454 H 0.71829 0.85851 1.04463
 H455 H 0.61096 0.97196 1.10895
 C456 C 0.67998 1.16047 0.88973
 C457 C 0.69810 1.14102 0.86893
 C458 C 0.68833 1.11010 0.86547
 C459 C 0.66095 1.09907 0.88174
 C460 C 0.64295 1.11892 0.90224
 C461 C 0.65284 1.14951 0.90622
 C462 C 0.61505 1.10796 0.91785
 C463 C 0.60469 1.07758 0.91252
 C464 C 0.62305 1.05794 0.89246
 C465 C 0.65100 1.06851 0.87736
 H466 H 0.70151 1.09445 0.84977
 H467 H 0.63942 1.16509 0.92186
 H468 H 0.60094 1.12325 0.93320
 H469 H 0.66455 1.05291 0.86186
 H470 H 0.68648 1.18432 0.89357
 H471 H 0.61569 1.03430 0.88823
 C472 C 0.06836 0.29917 0.12747
 C473 C 0.09765 0.28874 0.11426
 C474 C 0.11466 0.30783 0.09255
 C475 C 0.10295 0.33699 0.08465
 C476 C 0.07379 0.34734 0.09855
 C477 C 0.05656 0.32817 0.11971
 C478 C 0.06237 0.37670 0.09111
 C479 C 0.07965 0.39584 0.06978
 C480 C 0.10844 0.38523 0.05578
 C481 C 0.12005 0.35608 0.06322
 H482 H 0.13728 0.30040 0.08212
 H483 H 0.03401 0.33565 0.13039
 H484 H 0.03997 0.38457 0.10182
 H485 H 0.14241 0.34848 0.05224
 H486 H 0.05440 0.28501 0.14390
 H487 H 0.12205 0.39953 0.03912
 C488 C -0.14645 0.32133 -0.10496
 C489 C -0.12697 0.30786 -0.12927
 C490 C -0.09639 0.32035 -0.13549
 C491 C -0.08566 0.34636 -0.11811
 C492 C -0.10556 0.35980 -0.09385
 C493 C -0.13580 0.34698 -0.08733
 C494 C -0.09510 0.38609 -0.07683
 C495 C -0.06524 0.39946 -0.08419
 C496 C -0.04549 0.38585 -0.10815
 C497 C -0.05555 0.35942 -0.12487
 H498 H -0.08123 0.31030 -0.15428
 H499 H -0.15132 0.35691 -0.06876
 H500 H -0.11048 0.39650 -0.05842
 H501 H -0.03993 0.34941 -0.14330
 H502 H -0.16990 0.31191 -0.09923
 H503 H -0.02223 0.39570 -0.11404
 C504 C 0.10907 0.71366 -0.03697
 C505 C 0.09492 0.72533 -0.06540
 C506 C 0.07433 0.70614 -0.08364
 C507 C 0.06936 0.67546 -0.07480
 C508 C 0.08470 0.66361 -0.04695
 C509 C 0.10401 0.68309 -0.02785
 C510 C 0.08072 0.63243 -0.03901
 C511 C 0.06158 0.61314 -0.05869
 C512 C 0.04603 0.62542 -0.08596
 C513 C 0.04986 0.65627 -0.09394
 H514 H 0.06295 0.71451 -0.10547
 H515 H 0.11571 0.67456 -0.00625
 H516 H 0.09247 0.62326 -0.01768
 H517 H 0.03781 0.66502 -0.11528
 H518 H 0.12460 0.72787 -0.02196
 H519 H 0.03089 0.61111 -0.10135
 C520 C -0.12562 0.69323 0.06543
 C521 C -0.11574 0.70375 0.09644
 C522 C -0.09744 0.68415 0.11600
 C523 C -0.08952 0.65449 0.10506
 C524 C -0.10004 0.64404 0.07411
 C525 C -0.11790 0.66366 0.05442
 C526 C -0.09230 0.61425 0.06331
 C527 C -0.07372 0.59499 0.08291
 C528 C -0.06324 0.60566 0.11355
 C529 C -0.07121 0.63509 0.12462
 H530 H -0.08958 0.69166 0.13994
 H531 H -0.12593 0.65616 0.03049
 H532 H -0.10014 0.60633 0.03946
 H533 H -0.06286 0.64275 0.14837
 H534 H -0.13936 0.70774 0.04949
 H535 H -0.04875 0.59124 0.12897
 C536 C 1.07630 0.12457 0.69374
 C537 C 1.10369 0.11237 0.70873
 C538 C 1.11945 0.08739 0.69366
 C539 C 1.10838 0.07508 0.66402
 C540 C 1.08102 0.08773 0.64911
 C541 C 1.06506 0.11236 0.66424
 C542 C 1.07012 0.07558 0.61932
 C543 C 1.08624 0.05091 0.60421
 C544 C 1.11330 0.03837 0.61930
 C545 C 1.12430 0.05036 0.64897
 H546 H 1.14037 0.07736 0.70481
 H547 H 1.04398 0.12228 0.65318
 H548 H 1.04909 0.08532 0.60796
 H549 H 1.14528 0.04033 0.66012
 H550 H 1.06358 0.14377 0.70453
 H551 H 1.12599 0.01924 0.60819
 C552 C 0.88533 -0.08073 0.71693
 C553 C 0.90295 -0.10424 0.73186
 C554 C 0.92802 -0.11830 0.71421
 C555 C 0.93490 -0.10963 0.68207
 C556 C 0.91673 -0.08633 0.66718
 C557 C 0.89217 -0.07185 0.68493
 C558 C 0.92337 -0.07802 0.63479
 C559 C 0.94794 -0.09284 0.61717
 C560 C 0.96596 -0.11583 0.63234
 C561 C 0.95954 -0.12414 0.66450
 H562 H 0.94218 -0.13618 0.72521
 H563 H 0.87805 -0.05385 0.67399
 H564 H 0.90948 -0.06011 0.62337
 H565 H 0.97377 -0.14198 0.67557
 H566 H 0.86589 -0.06935 0.72969
 H567 H 0.98516 -0.12745 0.61935
 C568 C 1.11477 -0.07337 0.27916
 C569 C 1.10354 -0.10214 0.26776
 C570 C 1.08758 -0.12175 0.28970
 C571 C 1.08362 -0.11319 0.32252
 C572 C 1.09566 -0.08455 0.33379
 C573 C 1.11093 -0.06470 0.31185
 C574 C 1.09203 -0.07618 0.36674
 C575 C 1.07605 -0.09594 0.38842
 C576 C 1.06401 -0.12427 0.37694
 C577 C 1.06790 -0.13291 0.34430
 H578 H 1.07856 -0.14391 0.28158
 H579 H 1.12005 -0.04252 0.31998
 H580 H 1.10101 -0.05409 0.37532
 H581 H 1.05843 -0.15491 0.33607
 H582 H 1.12685 -0.05749 0.26302
 H583 H 1.05143 -0.13976 0.39322
 C584 C 0.93175 0.11622 0.30808
 C585 C 0.90248 0.10459 0.29603
 C586 C 0.88822 0.07903 0.31139
 C587 C 0.90251 0.06586 0.33885
 C588 C 0.93157 0.07824 0.35103
 C589 C 0.94618 0.10315 0.33527
 C590 C 0.94532 0.06580 0.37907
 C591 C 0.93037 0.04117 0.39529
 C592 C 0.90183 0.02857 0.38266
 C593 C 0.88799 0.04084 0.35466
 H594 H 0.86563 0.06975 0.30264
 H595 H 0.96860 0.11276 0.34417
 H596 H 0.96749 0.07556 0.38845
 H597 H 0.86576 0.03097 0.34558
 H598 H 0.94360 0.13553 0.29659
 H599 H 0.89001 0.00949 0.39467
 C600 C 0.07483 0.30931 -0.13580
 C601 C 0.10301 0.29800 -0.12144
 C602 C 0.11926 0.31662 -0.09851
 C603 C 0.10755 0.34579 -0.08991
 C604 C 0.07923 0.35685 -0.10446
 C605 C 0.06309 0.33842 -0.12742
 C606 C 0.06739 0.38597 -0.09554
 C607 C 0.08343 0.40400 -0.07199
 C608 C 0.11163 0.39276 -0.05780
 C609 C 0.12364 0.36399 -0.06674
 H610 H 0.14103 0.30858 -0.08719
 H611 H 0.04127 0.34644 -0.13878
 H612 H 0.04549 0.39433 -0.10648
 H613 H 0.14537 0.35587 -0.05529
 H614 H 0.06158 0.29570 -0.15343
 H615 H 0.12438 0.40616 -0.03953
 C616 C -0.07696 0.30243 0.14507
 C617 C -0.10556 0.29148 0.13066
 C618 C -0.11889 0.30830 0.10492
 C619 C -0.10426 0.33568 0.09417
 C620 C -0.07582 0.34657 0.10921
 C621 C -0.06229 0.32962 0.13449
 C622 C -0.06153 0.37427 0.09881
 C623 C -0.07533 0.39119 0.07346
 C624 C -0.10341 0.37988 0.05847
 C625 C -0.11775 0.35247 0.06873
 H626 H -0.14083 0.30042 0.09340
 H627 H -0.04040 0.33744 0.14622
 H628 H -0.03979 0.38264 0.11045
 H629 H -0.13948 0.34449 0.05683
 H630 H -0.06568 0.29011 0.16466
 H631 H -0.11454 0.39237 0.03883
 C632 C -0.06220 0.70140 -0.11501
 C633 C -0.09047 0.71237 -0.09999
 C634 C -0.10687 0.69322 -0.07788
 C635 C -0.09569 0.66350 -0.07142
 C636 C -0.06759 0.65263 -0.08711
 C637 C -0.05089 0.67188 -0.10863
 C638 C -0.05675 0.62269 -0.08109
 C639 C -0.07360 0.60350 -0.05945
 C640 C -0.10129 0.61469 -0.04369
 C641 C -0.11226 0.64439 -0.04964
 H642 H -0.12843 0.70124 -0.06570
 H643 H -0.02922 0.66400 -0.12076
 H644 H -0.03518 0.61442 -0.09314
 H645 H -0.13376 0.65237 -0.03725
 H646 H -0.04889 0.71536 -0.13214
 H647 H -0.11456 0.60043 -0.02672
 C648 C 0.13372 0.69481 0.07376
 C649 C 0.11617 0.71017 0.09833
 C650 C 0.09014 0.69473 0.11329
 C651 C 0.08196 0.66446 0.10392
 C652 C 0.09995 0.64946 0.07926
 C653 C 0.12576 0.66479 0.06441
 C654 C 0.09184 0.61938 0.06970
 C655 C 0.06593 0.60379 0.08442
 C656 C 0.04819 0.61874 0.10906
 C657 C 0.05614 0.64885 0.11875
 H658 H 0.07641 0.70599 0.13241
 H659 H 0.13981 0.65354 0.04548
 H660 H 0.10571 0.60818 0.05058
 H661 H 0.04203 0.65996 0.13771
 H662 H 0.15360 0.70597 0.06148
 H663 H 0.02801 0.60728 0.12060
 C664 C 0.30133 1.13930 0.92116
 C665 C 0.28749 1.12526 0.89347
 C666 C 0.30369 1.10054 0.87832
 C667 C 0.33320 1.09028 0.89029
 C668 C 0.34689 1.10477 0.91794
 C669 C 0.33070 1.12915 0.93328
 C670 C 0.37658 1.09469 0.92969
 C671 C 0.39281 1.07030 0.91413
 C672 C 0.37886 1.05588 0.88682
 C673 C 0.34930 1.06579 0.87498
 H674 H 0.29359 1.08915 0.85712
 H675 H 0.34082 1.14047 0.95459
 H676 H 0.38704 1.10589 0.95091
 H677 H 0.33909 1.05436 0.85379
 H678 H 0.28966 1.15830 0.93352
 H679 H 0.39083 1.03695 0.87454
 C680 C 0.28989 0.93377 1.10946
 C681 C 0.28137 0.90505 1.09570
 C682 C 0.30391 0.88950 1.07612
 C683 C 0.33452 0.90211 1.07068
 C684 C 0.34303 0.93078 1.08494
 C685 C 0.32041 0.94649 1.10416
 C686 C 0.37387 0.94324 1.07951
 C687 C 0.39603 0.92742 1.05967
 C688 C 0.38714 0.89898 1.04564
 C689 C 0.35677 0.88642 1.05113
 H690 H 0.29771 0.86759 1.06496
 H691 H 0.32636 0.96852 1.11523
 H692 H 0.38037 0.96534 1.09014
 H693 H 0.35063 0.86449 1.03992
 H694 H 0.27323 0.94632 1.12484
 H695 H 0.40369 0.88636 1.03013
 C696 C 0.69330 1.08624 1.14144
 C697 C 0.70649 1.11226 1.12592
 C698 C 0.68997 1.12475 1.09928
 C699 C 0.66096 1.11145 1.08838
 C700 C 0.64819 1.08532 1.10425
 C701 C 0.66457 1.07294 1.13073
 C702 C 0.61927 1.07195 1.09338
 C703 C 0.60286 1.08437 1.06675
 C704 C 0.61575 1.11037 1.05113
 C705 C 0.64450 1.12379 1.06183
 H706 H 0.69961 1.14467 1.08686
 H707 H 0.65515 1.05294 1.14323
 H708 H 0.60964 1.05186 1.10558
 H709 H 0.65387 1.14378 1.04929
 H710 H 0.70494 1.07597 1.16211
 H711 H 0.60364 1.12037 1.03049
 C712 C 0.70512 0.87005 0.93451
 C713 C 0.72226 0.88535 0.90982
 C714 C 0.70785 0.91033 0.89402
 C715 C 0.67668 0.91968 0.90252
 C716 C 0.65976 0.90408 0.92738
 C717 C 0.67420 0.87938 0.94327
 C718 C 0.62862 0.91333 0.93588
 C719 C 0.61394 0.93791 0.91976
 C720 C 0.63086 0.95326 0.89499
 C721 C 0.66202 0.94424 0.88646
 H722 H 0.72053 0.92217 0.87466
 H723 H 0.66150 0.86715 0.96236
 H724 H 0.61585 0.90134 0.95511
 H725 H 0.67464 0.95646 0.86731
 H726 H 0.71567 0.85095 0.94726
 H727 H 0.62007 0.97231 0.88234
   
