data_POSCAR
  _audit_creation_date              2014-09-24
  _audit_creation_method            'ToBaCCo'
  _symmetry_space_group_name_H-M    'P1'
  _symmetry_Int_Tables_number       1
  _symmetry_cell_setting            triclinic
  loop_
  _symmetry_equiv_pos_as_xyz
 x,y,z
_cell_length_a 50.9920
_cell_length_b 49.7742
_cell_length_c 52.1204
_cell_angle_alpha 90.839900
_cell_angle_beta 92.900200
_cell_angle_gamma 90.426500
loop_
  _atom_site_label
  _atom_site_type_symbol
  _atom_site_fract_x
  _atom_site_fract_y
  _atom_site_fract_z
C1 C 0.17980 0.21878 0.20700
 N2 N 0.19594 0.19753 0.21002
 C3 C 0.21479 0.19237 0.19323
 N4 N 0.21761 0.20902 0.17300
 C5 C 0.20136 0.23052 0.16970
 N6 N 0.18253 0.23520 0.18678
 C7 C 0.67002 0.73017 0.74334
 N8 N 0.67442 0.74745 0.72403
 C9 C 0.69513 0.74403 0.70900
 N10 N 0.71153 0.72311 0.71339
 C11 C 0.70747 0.70563 0.73256
 N12 N 0.68662 0.70918 0.74755
 C13 C 0.30345 0.78092 0.71841
 N14 N 0.28636 0.80106 0.72304
 C15 C 0.26513 0.80515 0.70674
 N16 N 0.26118 0.78886 0.68572
 C17 C 0.27810 0.76872 0.68088
 N18 N 0.29918 0.76481 0.69731
 C19 C 0.82057 0.28230 0.23057
 N20 N 0.80364 0.30277 0.23365
 C21 C 0.78353 0.30717 0.21626
 N22 N 0.78022 0.29062 0.19529
 C23 C 0.79710 0.26988 0.19192
 N24 N 0.81721 0.26591 0.20962
 C25 C 0.82756 0.70885 0.29496
 N26 N 0.82443 0.72477 0.31594
 C27 C 0.80462 0.72029 0.33170
 N28 N 0.78769 0.69966 0.32635
 C29 C 0.79034 0.68352 0.30540
 N30 N 0.81037 0.68817 0.28962
 C31 C 0.31880 0.21695 -0.24459
 N32 N 0.31398 0.23596 -0.22638
 C33 C 0.29380 0.23251 -0.21053
 N34 N 0.27845 0.21013 -0.21315
 C35 C 0.28299 0.19113 -0.23125
 N36 N 0.30324 0.19466 -0.24677
 C37 C 0.70941 0.28651 -0.23186
 N38 N 0.71325 0.27060 -0.21098
 C39 C 0.73305 0.27635 -0.19315
 N40 N 0.74878 0.29810 -0.19633
 C41 C 0.74497 0.31418 -0.21695
 N42 N 0.72526 0.30822 -0.23457
 C43 C 0.19258 0.79301 0.29342
 N44 N 0.20887 0.81395 0.28876
 C45 C 0.23141 0.81800 0.30356
 N46 N 0.23745 0.80083 0.32305
 C47 C 0.22135 0.77984 0.32773
 N48 N 0.19904 0.77607 0.31285
 C49 C 0.48163 0.44203 0.47197
 N50 N 0.46039 0.45819 0.47200
 C51 C 0.45591 0.47652 0.45336
 N52 N 0.47303 0.47874 0.43432
 C53 C 0.49441 0.46250 0.43393
 N54 N 0.49855 0.44410 0.45278
 C55 C -0.03104 -0.06335 0.97856
 N56 N -0.05062 -0.04515 0.98097
 C57 C -0.05305 -0.02421 0.96443
 N58 N -0.03572 -0.02175 0.94556
 C59 C -0.01613 -0.03972 0.94314
 N60 N -0.01395 -0.06038 0.95967
 C61 C 1.02889 0.57889 0.97533
 N62 N 1.01232 0.57551 0.95433
 C63 C 1.01550 0.55518 0.93726
 N64 N 1.03570 0.53785 0.94123
 C65 C 1.05254 0.54086 0.96222
 N66 N 1.04905 0.56144 0.97922
 C67 C 0.52164 0.04773 0.48249
 N68 N 0.54070 0.02982 0.48866
 C69 C 0.54827 0.01115 0.47147
 N70 N 0.53612 0.01019 0.44767
 C71 C 0.51656 0.02772 0.44118
 N72 N 0.50957 0.04676 0.45860
 C73 C -0.03693 0.05538 0.52590
 N74 N -0.01885 0.05348 0.54581
 C75 C -0.02184 0.03513 0.56444
 N76 N -0.04316 0.01861 0.56307
 C77 C -0.06149 0.02025 0.54331
 N78 N -0.05826 0.03874 0.52471
 C79 C 0.44811 0.55986 0.03474
 N80 N 0.46460 0.55490 0.05538
 C81 C 0.46089 0.53319 0.07019
 N82 N 0.44051 0.51622 0.06419
 C83 C 0.42387 0.52079 0.04356
 N84 N 0.42773 0.54269 0.02883
 C85 C 0.54313 -0.05922 0.03527
 N86 N 0.56341 -0.04189 0.03199
 C87 C 0.56828 -0.02100 0.04855
 N88 N 0.55280 -0.01749 0.06867
 C89 C 0.53253 -0.03459 0.07240
 N90 N 0.52765 -0.05544 0.05558
 C91 C 1.02802 0.43438 0.52440
 N92 N 1.04916 0.45084 0.52232
 C93 C 1.05270 0.47283 0.53791
 N94 N 1.03482 0.47839 0.55570
 C95 C 1.01354 0.46215 0.55791
 N96 N 1.01032 0.44019 0.54226
 C97 C 0.41376 0.01272 0.20799
 H98 H 0.41572 0.03243 0.21694
 C99 C 0.43033 0.00524 0.18867
 H100 H 0.44493 0.01951 0.18283
 C101 C 0.39214 -0.02955 0.20483
 H102 H 0.37754 -0.04325 0.21149
 C103 C 0.40838 -0.03793 0.18548
 H104 H 0.40603 -0.05813 0.17777
 N105 N 0.39474 -0.00440 0.21528
 C106 C 0.33509 0.04824 0.24481
 H107 H 0.33286 0.03936 0.26341
 C108 C 0.31939 0.06980 0.23715
 H109 H 0.30527 0.07750 0.25018
 C110 C 0.35594 0.04847 0.20524
 H111 H 0.36971 0.03966 0.19256
 C112 C 0.34062 0.07013 0.19678
 H113 H 0.34288 0.07755 0.17761
 Zn114 Zn 0.37238 0.00792 0.24083
 N115 N 0.35308 0.03815 0.22900
 C116 C 0.39332 0.04189 0.28171
 N117 N 0.39363 0.01689 0.27083
 C118 C 0.40933 -0.00261 0.28100
 C119 C 0.42467 0.00229 0.30358
 C120 C 0.40837 0.04769 0.30433
 C121 C 0.33035 -0.02759 0.22892
 C122 C 0.31185 -0.04769 0.23316
 C123 C 0.32854 -0.04952 0.27729
 C124 C 0.34674 -0.02945 0.27217
 N125 N 0.34760 -0.01920 0.24819
 H126 H 0.38137 0.05742 0.27295
 H127 H 0.40955 -0.02221 0.27175
 H128 H 0.43654 -0.01378 0.31159
 H129 H 0.40786 0.06780 0.31243
 H130 H 0.33126 -0.01889 0.21008
 H131 H 0.29905 -0.05457 0.21721
 H132 H 0.32832 -0.05746 0.29651
 H133 H 0.36009 -0.02208 0.28745
 C134 C 0.32203 0.08113 0.21285
 C135 C 0.42756 -0.02025 0.17680
 C136 C 0.31076 -0.05901 0.25767
 C137 C 0.42401 0.02759 0.31587
 C138 C 0.08687 -0.01817 0.72387
 H139 H 0.08812 -0.03595 0.73556
 C140 C 0.06853 -0.01711 0.70317
 H141 H 0.05627 -0.03457 0.69880
 C142 C 0.10201 0.02579 0.71548
 H143 H 0.11468 0.04269 0.72070
 C144 C 0.08382 0.02778 0.69464
 H145 H 0.08293 0.04621 0.68385
 N146 N 0.10325 0.00299 0.72952
 C147 C 0.16454 -0.03712 0.77578
 H148 H 0.16390 -0.02606 0.79376
 C149 C 0.18202 -0.05844 0.77352
 H150 H 0.19417 -0.06383 0.79020
 C151 C 0.14888 -0.04337 0.73255
 H152 H 0.13639 -0.03709 0.71643
 C153 C 0.16615 -0.06462 0.72937
 H154 H 0.16638 -0.07455 0.71076
 Zn155 Zn 0.12590 -0.00035 0.75910
 N156 N 0.14824 -0.03022 0.75554
 C157 C 0.10305 -0.02705 0.80086
 N158 N 0.10376 -0.00435 0.78673
 C159 C 0.08722 0.01636 0.79085
 C160 C 0.06936 0.01506 0.81018
 C161 C 0.08529 -0.02934 0.82029
 C162 C 0.16320 0.03767 0.74535
 C163 C 0.17951 0.06026 0.74836
 C164 C 0.16410 0.06685 0.79105
 C165 C 0.14795 0.04426 0.78713
 N166 N 0.14746 0.03046 0.76440
 H167 H 0.11589 -0.04359 0.79683
 H168 H 0.08804 0.03406 0.77909
 H169 H 0.05713 0.03229 0.81341
 H170 H 0.08488 -0.04768 0.83118
 H171 H 0.16289 0.02595 0.72770
 H172 H 0.19154 0.06588 0.73274
 H173 H 0.16443 0.07701 0.80954
 H174 H 0.13614 0.03755 0.80246
 C175 C 0.18318 -0.07244 0.74993
 C176 C 0.06657 0.00624 0.68837
 C177 C 0.17992 0.07543 0.77135
 C178 C 0.06797 -0.00818 0.82509
 C179 C 0.58943 0.49105 0.21009
 H180 H 0.58766 0.47218 0.21991
 C181 C 0.57171 0.49725 0.18985
 H182 H 0.55648 0.48279 0.18413
 C183 C 0.61153 0.53266 0.20599
 H184 H 0.62672 0.54666 0.21276
 C185 C 0.59404 0.53984 0.18580
 H186 H 0.59616 0.55948 0.17757
 N187 N 0.60916 0.50844 0.21740
 C188 C 0.66539 0.45515 0.25550
 H189 H 0.66783 0.46506 0.27409
 C190 C 0.67975 0.43215 0.25030
 H191 H 0.69301 0.42437 0.26524
 C192 C 0.64569 0.45396 0.21336
 H193 H 0.63307 0.46304 0.19871
 C194 C 0.65978 0.43094 0.20728
 H195 H 0.65769 0.42279 0.18794
 Zn196 Zn 0.63193 0.49819 0.24513
 N197 N 0.64865 0.46550 0.23718
 C198 C 0.60825 0.47119 0.28639
 N199 N 0.61093 0.49480 0.27393
 C200 C 0.59729 0.51695 0.28071
 C201 C 0.58029 0.51600 0.30084
 C202 C 0.59143 0.46934 0.30669
 C203 C 0.67494 0.52984 0.23236
 C204 C 0.69500 0.54902 0.23600
 C205 C 0.68197 0.55582 0.27951
 C206 C 0.66209 0.53666 0.27497
 N207 N 0.65873 0.52436 0.25157
 H208 H 0.61876 0.45362 0.28037
 H209 H 0.59961 0.53541 0.27033
 H210 H 0.57014 0.53411 0.30609
 H211 H 0.58938 0.45031 0.31622
 H212 H 0.67201 0.51952 0.21401
 H213 H 0.70689 0.55355 0.22001
 H214 H 0.68417 0.56536 0.29831
 H215 H 0.64946 0.53155 0.29022
 C216 C 0.67720 0.41972 0.22588
 C217 C 0.57395 0.52184 0.17716
 C218 C 0.69878 0.56238 0.25989
 C219 C 0.57693 0.49186 0.31400
 C220 C 0.90907 0.53652 0.70423
 H221 H 0.90882 0.55502 0.71536
 C222 C 0.92645 0.53374 0.68450
 H223 H 0.93884 0.55066 0.68031
 C224 C 0.89280 0.49231 0.69647
 H225 H 0.88024 0.47591 0.70164
 C226 C 0.90999 0.48859 0.67672
 H227 H 0.91006 0.46935 0.66676
 N228 N 0.89261 0.51603 0.70974
 C229 C 0.83448 0.55748 0.75480
 H230 H 0.83540 0.54557 0.77201
 C231 C 0.81758 0.57945 0.75298
 H232 H 0.80576 0.58443 0.76904
 C233 C 0.84858 0.56508 0.71292
 H234 H 0.86013 0.55900 0.69706
 C235 C 0.83188 0.58708 0.71021
 H236 H 0.83088 0.59741 0.69209
 Zn237 Zn 0.87177 0.52049 0.73856
 N238 N 0.84987 0.55101 0.73510
 C239 C 0.89699 0.54645 0.78251
 N240 N 0.89563 0.52398 0.76737
 C241 C 0.91222 0.50309 0.77173
 C242 C 0.93064 0.50392 0.79245
 C243 C 0.91523 0.54821 0.80339
 C244 C 0.83282 0.48301 0.72236
 C245 C 0.81641 0.46058 0.72410
 C246 C 0.83404 0.45427 0.76744
 C247 C 0.85031 0.47661 0.76475
 N248 N 0.84969 0.49024 0.74232
 H249 H 0.88410 0.56313 0.77835
 H250 H 0.91085 0.48557 0.75919
 H251 H 0.94288 0.48657 0.79587
 H252 H 0.91597 0.56630 0.81521
 H253 H 0.83248 0.49444 0.70485
 H254 H 0.80406 0.45492 0.70743
 H255 H 0.83497 0.44381 0.78553
 H256 H 0.86325 0.48313 0.78070
 C257 C 0.81628 0.59481 0.73056
 C258 C 0.92740 0.50932 0.67064
 C259 C 0.81680 0.44578 0.74695
 C260 C 0.93242 0.52677 0.80864
 C261 C 0.19464 0.40976 -0.00802
 H262 H 0.20579 0.40966 0.01020
 C263 C 0.17303 0.42667 -0.01137
 H264 H 0.16754 0.43927 0.00456
 C265 C 0.18889 0.39390 -0.05099
 H266 H 0.19562 0.38177 -0.06666
 C267 C 0.16724 0.41060 -0.05523
 H268 H 0.15781 0.41093 -0.07427
 N269 N 0.20198 0.39360 -0.02761
 C270 C 0.25080 0.33281 0.01111
 H271 H 0.26814 0.33444 0.00007
 C272 C 0.25021 0.31452 0.03116
 H273 H 0.26749 0.30267 0.03559
 C274 C 0.20771 0.34715 0.01885
 H275 H 0.19105 0.35961 0.01379
 C276 C 0.20624 0.32909 0.03904
 H277 H 0.18839 0.32808 0.04940
 Zn278 Zn 0.23285 0.37292 -0.02218
 N279 N 0.22990 0.34890 0.00554
 C280 C 0.27424 0.39791 0.00812
 N281 N 0.26077 0.39757 -0.01506
 C282 C 0.26616 0.41563 -0.03343
 C283 C 0.28628 0.43460 -0.02910
 C284 C 0.29438 0.41662 0.01334
 C285 C 0.22040 0.33359 -0.05959
 C286 C 0.22423 0.31634 -0.08038
 C287 C 0.26722 0.33612 -0.08417
 C288 C 0.26245 0.35319 -0.06340
 N289 N 0.23929 0.35165 -0.05161
 H290 H 0.26921 0.38390 0.02275
 H291 H 0.25491 0.41509 -0.05160
 H292 H 0.29060 0.44807 -0.04443
 H293 H 0.30476 0.41652 0.03198
 H294 H 0.20227 0.33261 -0.04971
 H295 H 0.20847 0.30275 -0.08660
 H296 H 0.28594 0.33740 -0.09301
 H297 H 0.27753 0.36719 -0.05640
 C298 C 0.22766 0.31240 0.04548
 C299 C 0.15889 0.42726 -0.03522
 C300 C 0.24811 0.31711 -0.09278
 C301 C 0.30071 0.43538 -0.00535
 C302 C 0.72329 0.08279 -0.01676
 H303 H 0.73433 0.08227 -0.03395
 C304 C 0.70333 0.06399 -0.01368
 H305 H 0.69892 0.04966 -0.02909
 C306 C 0.71569 0.10296 0.02359
 H307 H 0.72090 0.11786 0.03827
 C308 C 0.69575 0.08435 0.02761
 H309 H 0.68567 0.08544 0.04539
 N310 N 0.72884 0.10198 0.00156
 C311 C 0.76916 0.16116 -0.04347
 H312 H 0.78769 0.16312 -0.03251
 C313 C 0.76478 0.17582 -0.06592
 H314 H 0.78022 0.18888 -0.07216
 C315 C 0.72650 0.14208 -0.04825
 H316 H 0.71130 0.12954 -0.04094
 C317 C 0.72124 0.15643 -0.07074
 H318 H 0.70194 0.15463 -0.08021
 Zn319 Zn 0.75698 0.12566 -0.00419
 N320 N 0.75026 0.14440 -0.03528
 C321 C 0.80043 0.10085 -0.02751
 N322 N 0.78705 0.10365 -0.00574
 C323 C 0.79334 0.08887 0.01539
 C324 C 0.81393 0.07055 0.01529
 C325 C 0.82107 0.08260 -0.02853
 C326 C 0.74055 0.16776 0.02742
 C327 C 0.74212 0.18645 0.04773
 C328 C 0.78651 0.17202 0.05782
 C329 C 0.78403 0.15356 0.03739
 N330 N 0.76113 0.15143 0.02295
 H331 H 0.79471 0.11221 -0.04436
 H332 H 0.78213 0.09122 0.03235
 H333 H 0.81870 0.05960 0.03264
 H334 H 0.83118 0.08043 -0.04621
 H335 H 0.72262 0.16581 0.01549
 H336 H 0.72502 0.19835 0.05138
 H337 H 0.80488 0.17318 0.06916
 H338 H 0.80044 0.14092 0.03316
 C339 C 0.74060 0.17347 -0.08004
 C340 C 0.68931 0.06439 0.00889
 C341 C 0.76535 0.18873 0.06340
 C342 C 0.82793 0.06684 -0.00705
 C343 C 0.21742 0.56642 0.48201
 H344 H 0.22764 0.56684 0.46432
 C345 C 0.19610 0.54901 0.48423
 H346 H 0.18989 0.53654 0.46785
 C347 C 0.21291 0.58312 0.52432
 H348 H 0.21973 0.59615 0.54005
 C349 C 0.19151 0.56597 0.52741
 H350 H 0.18199 0.56619 0.54551
 N351 N 0.22515 0.58331 0.50173
 C352 C 0.26487 0.64683 0.46140
 H353 H 0.28412 0.64670 0.47113
 C354 C 0.25956 0.66466 0.44138
 H355 H 0.27500 0.67801 0.43566
 C356 C 0.22135 0.62977 0.45745
 H357 H 0.20628 0.61670 0.46422
 C358 C 0.21513 0.64738 0.43751
 H359 H 0.19518 0.64751 0.42946
 Zn360 Zn 0.25404 0.60642 0.49642
 N361 N 0.24598 0.62954 0.46870
 C362 C 0.29527 0.58494 0.46706
 N363 N 0.28294 0.58429 0.48960
 C364 C 0.29053 0.56701 0.50843
 C365 C 0.31178 0.55003 0.50539
 C366 C 0.31657 0.56809 0.46310
 C367 C 0.24290 0.64499 0.53389
 C368 C 0.24764 0.66167 0.55542
 C369 C 0.29197 0.64492 0.55920
 C370 C 0.28631 0.62843 0.53770
 N371 N 0.26195 0.62841 0.52579
 H372 H 0.28856 0.59836 0.45206
 H373 H 0.28025 0.56680 0.52609
 H374 H 0.31789 0.53736 0.52122
 H375 H 0.32615 0.56887 0.44505
 H376 H 0.22388 0.64507 0.52369
 H377 H 0.23199 0.67436 0.56175
 H378 H 0.31168 0.64485 0.56788
 H379 H 0.30156 0.61599 0.53035
 C380 C 0.23446 0.66495 0.42894
 C381 C 0.18280 0.54857 0.50721
 C382 C 0.27237 0.66160 0.56862
 C383 C 0.32508 0.55023 0.48238
 C384 C 0.70489 0.90805 0.51560
 H385 H 0.71620 0.91356 0.53303
 C386 C 0.68228 0.92225 0.50845
 H387 H 0.67647 0.93873 0.52065
 C388 C 0.69941 0.88022 0.47846
 H389 H 0.70636 0.86414 0.46654
 C390 C 0.67652 0.89374 0.47067
 H391 H 0.66598 0.88704 0.45322
 N392 N 0.71290 0.88736 0.50073
 C393 C 0.76145 0.83898 0.55316
 H394 H 0.77972 0.83945 0.54349
 C395 C 0.75948 0.82391 0.57535
 H396 H 0.77670 0.81355 0.58286
 C397 C 0.71708 0.85237 0.55484
 H398 H 0.70045 0.86302 0.54646
 C399 C 0.71418 0.83740 0.57700
 H400 H 0.69525 0.83688 0.58553
 Zn401 Zn 0.74432 0.87005 0.51171
 N402 N 0.74045 0.85279 0.54337
 C403 C 0.78457 0.90190 0.53727
 N404 N 0.77116 0.89658 0.51454
 C405 C 0.77635 0.91035 0.49301
 C406 C 0.79648 0.92956 0.49352
 C407 C 0.80474 0.92107 0.53871
 C408 C 0.73528 0.82261 0.48330
 C409 C 0.74002 0.80250 0.46522
 C410 C 0.78171 0.82375 0.45807
 C411 C 0.77602 0.84359 0.47607
 N412 N 0.75285 0.84301 0.48783
 H413 H 0.77971 0.89128 0.55434
 H414 H 0.76518 0.90591 0.47524
 H415 H 0.80079 0.93925 0.47579
 H416 H 0.81528 0.92480 0.55699
 H417 H 0.71721 0.82239 0.49331
 H418 H 0.72500 0.78738 0.46124
 H419 H 0.80019 0.82484 0.44876
 H420 H 0.79017 0.85942 0.48058
 C421 C 0.73541 0.82250 0.58735
 C422 C 0.66767 0.91526 0.48566
 C423 C 0.76349 0.80295 0.45213
 C424 C 0.81113 0.93513 0.51662
 C425 C 0.03150 0.20367 0.41431
 H426 H 0.05003 0.21418 0.41305
 C427 C 0.02884 0.18388 0.43272
 H428 H 0.04582 0.17898 0.44495
 C429 C -0.01274 0.19735 0.39923
 H430 H -0.02907 0.20306 0.38651
 C431 C -0.01635 0.17759 0.41750
 H432 H -0.03548 0.16817 0.41840
 N433 N 0.01094 0.20987 0.39793
 C434 C 0.04970 0.25097 0.33685
 H435 H 0.03863 0.26943 0.33665
 C436 C 0.06954 0.24725 0.31973
 H437 H 0.07376 0.26318 0.30659
 C438 C 0.05704 0.20775 0.35408
 H439 H 0.05157 0.19212 0.36699
 C440 C 0.07692 0.20306 0.33711
 H441 H 0.08630 0.18366 0.33731
 Zn442 Zn 0.01569 0.23816 0.37477
 N443 N 0.04407 0.23150 0.35378
 C444 C 0.04552 0.28269 0.39523
 N445 N 0.02184 0.26990 0.39469
 C446 C 0.00233 0.27863 0.40946
 C447 C 0.00588 0.30169 0.42484
 C448 C 0.05004 0.30566 0.41057
 C449 C -0.02114 0.21980 0.33720
 C450 C -0.04228 0.22112 0.31920
 C451 C -0.04830 0.26746 0.33188
 C452 C -0.02712 0.26520 0.34972
 N453 N -0.01416 0.24155 0.35217
 H454 H 0.06116 0.27481 0.38417
 H455 H -0.01610 0.26770 0.40915
 H456 H -0.01015 0.30839 0.43611
 H457 H 0.06932 0.31483 0.41096
 H458 H -0.01021 0.20135 0.33934
 H459 H -0.04776 0.20326 0.30810
 H460 H -0.05820 0.28657 0.33012
 H461 H -0.02078 0.28251 0.36119
 C462 C 0.08357 0.22307 0.31969
 C463 C 0.00451 0.17074 0.43479
 C464 C -0.05610 0.24530 0.31619
 C465 C 0.02994 0.31576 0.42548
 C466 C -0.00873 0.71897 0.10019
 H467 H -0.02813 0.72768 0.09942
 C468 C -0.00295 0.69816 0.08327
 H469 H -0.01821 0.69091 0.06964
 C470 C 0.03453 0.71819 0.11895
 H471 H 0.04925 0.72644 0.13250
 C472 C 0.04123 0.69737 0.10226
 H473 H 0.06118 0.69013 0.10326
 N474 N 0.00976 0.72824 0.11787
 C475 C -0.03765 0.76262 0.17721
 H476 H -0.02960 0.78279 0.17871
 C477 C -0.05790 0.75504 0.19271
 H478 H -0.06542 0.76965 0.20600
 C479 C -0.03728 0.71912 0.15822
 H480 H -0.02878 0.70494 0.14523
 C481 C -0.05756 0.71068 0.17333
 H482 H -0.06421 0.69001 0.17174
 Zn483 Zn -0.00039 0.75649 0.13988
 N484 N -0.02801 0.74482 0.16014
 C485 C -0.03557 0.79629 0.11899
 N486 N -0.01123 0.78530 0.11863
 C487 C 0.00663 0.79403 0.10211
 C488 C 0.00061 0.81504 0.08553
 C489 C -0.04247 0.81744 0.10263
 C490 C 0.03891 0.74914 0.17865
 C491 C 0.06080 0.75582 0.19470
 C492 C 0.05969 0.80068 0.17766
 C493 C 0.03786 0.79309 0.16187
 N494 N 0.02829 0.76751 0.16222
 H495 H -0.04978 0.78857 0.13174
 H496 H 0.02570 0.78466 0.10196
 H497 H 0.01537 0.82177 0.07278
 H498 H -0.06208 0.82553 0.10298
 H499 H 0.03063 0.72907 0.17889
 H500 H 0.06928 0.74063 0.20717
 H501 H 0.06667 0.82122 0.17712
 H502 H 0.02861 0.80772 0.14936
 C503 C -0.06831 0.72881 0.19076
 C504 C 0.02226 0.68683 0.08424
 C505 C 0.07182 0.78178 0.19406
 C506 C -0.02416 0.82724 0.08568
 C507 C 0.48942 0.22125 0.58085
 H508 H 0.47598 0.23795 0.57951
 C509 C 0.48710 0.20021 0.56284
 H510 H 0.47149 0.20072 0.54800
 C511 C 0.52588 0.20047 0.60216
 H512 H 0.54124 0.20086 0.61719
 C513 C 0.52417 0.17892 0.58465
 H514 H 0.53828 0.16283 0.58655
 N515 N 0.50848 0.22096 0.60008
 C516 C 0.47952 0.27165 0.66134
 H517 H 0.49521 0.28636 0.66380
 C518 C 0.45867 0.27210 0.67779
 H519 H 0.45896 0.28723 0.69285
 C520 C 0.46151 0.23330 0.63937
 H521 H 0.46289 0.21784 0.62478
 C522 C 0.44024 0.23314 0.65514
 H523 H 0.42543 0.21759 0.65202
 Zn524 Zn 0.51039 0.25132 0.62245
 N525 N 0.48058 0.25241 0.64264
 C526 C 0.49204 0.30000 0.60039
 N527 N 0.51149 0.28149 0.60096
 C528 C 0.53131 0.28269 0.58453
 C529 C 0.53216 0.30314 0.56655
 C530 C 0.49195 0.32064 0.58253
 C531 C 0.54334 0.23042 0.66250
 C532 C 0.56465 0.23031 0.68052
 C533 C 0.57954 0.27213 0.66317
 C534 C 0.55809 0.27137 0.64550
 N535 N 0.54056 0.25066 0.64533
 H536 H 0.47619 0.29837 0.61328
 H537 H 0.54638 0.26749 0.58525
 H538 H 0.54849 0.30364 0.55415
 H539 H 0.47593 0.33480 0.58214
 H540 H 0.52887 0.21441 0.66229
 H541 H 0.56656 0.21367 0.69356
 H542 H 0.59297 0.28907 0.66299
 H543 H 0.55521 0.28772 0.63231
 C544 C 0.43855 0.25257 0.67488
 C545 C 0.50471 0.17869 0.56454
 C546 C 0.58308 0.25155 0.68120
 C547 C 0.51198 0.32228 0.56496
 C548 C 0.49017 0.71002 0.92356
 H549 H 0.50910 0.71987 0.92645
 C550 C 0.48413 0.68781 0.93822
 H551 H 0.49873 0.68061 0.95222
 C552 C 0.44822 0.70789 0.90192
 H553 H 0.43402 0.71620 0.88823
 C554 C 0.44128 0.68566 0.91627
 H555 H 0.42169 0.67736 0.91333
 N556 N 0.47245 0.71936 0.90558
 C557 C 0.52247 0.76289 0.85446
 H558 H 0.51325 0.78240 0.85455
 C559 C 0.54445 0.75860 0.84004
 H560 H 0.55209 0.77507 0.82923
 C561 C 0.52336 0.71780 0.86829
 H562 H 0.51471 0.70173 0.87879
 C563 C 0.54532 0.71259 0.85406
 H564 H 0.55302 0.69241 0.85384
 Zn565 Zn 0.48242 0.75006 0.88728
 N566 N 0.51261 0.74274 0.86852
 C567 C 0.51345 0.78952 0.91532
 N568 N 0.48929 0.77789 0.91201
 C569 C 0.46940 0.78507 0.92704
 C570 C 0.47315 0.80522 0.94584
 C571 C 0.51812 0.80967 0.93396
 C572 C 0.44737 0.74179 0.84484
 C573 C 0.42680 0.74759 0.82714
 C574 C 0.42335 0.79143 0.84710
 C575 C 0.44390 0.78470 0.86452
 N576 N 0.45509 0.76002 0.86342
 H577 H 0.52924 0.78308 0.90368
 H578 H 0.45044 0.77526 0.92421
 H579 H 0.45666 0.81103 0.95686
 H580 H 0.53753 0.81863 0.93622
 H581 H 0.45695 0.72250 0.84408
 H582 H 0.42063 0.73247 0.81291
 H583 H 0.41513 0.81134 0.84828
 H584 H 0.45094 0.79931 0.87882
 C585 C 0.55639 0.73322 0.83983
 C586 C 0.45946 0.67514 0.93461
 C587 C 0.41415 0.77255 0.82833
 C588 C 0.49786 0.81784 0.94959
 C589 C 0.14182 0.21166 0.26521
 C590 C 0.12233 0.23111 0.26155
 N591 N 0.12200 0.24652 0.24024
 C592 C 0.14030 0.24327 0.22234
 C593 C 0.15974 0.22358 0.22586
 N594 N 0.15994 0.20829 0.24732
 N595 N 0.14240 0.19651 0.28664
 C596 C 0.12419 0.19971 0.30457
 C597 C 0.10420 0.21890 0.30087
 N598 N 0.10404 0.23423 0.27936
 H599 H 0.13953 0.25578 0.20551
 H600 H 0.12575 0.18762 0.32161
 C601 C 0.62246 0.72094 0.79446
 C602 C 0.60461 0.74166 0.78914
 N603 N 0.60838 0.75818 0.76918
 C604 C 0.62923 0.75495 0.75423
 C605 C 0.64724 0.73414 0.75939
 N606 N 0.64333 0.71761 0.77951
 N607 N 0.61870 0.70461 0.81460
 C608 C 0.59781 0.70793 0.82957
 C609 C 0.57961 0.72858 0.82416
 N610 N 0.58376 0.74497 0.80401
 H611 H 0.63161 0.76849 0.73845
 H612 H 0.59584 0.69483 0.84572
 C613 C 0.34975 0.78745 0.77556
 C614 C 0.36852 0.76797 0.77029
 N615 N 0.36589 0.75320 0.74821
 C616 C 0.34526 0.75699 0.73113
 C617 C 0.32630 0.77649 0.73633
 N618 N 0.32913 0.79129 0.75852
 N619 N 0.35223 0.80193 0.79782
 C620 C 0.37270 0.79788 0.81506
 C621 C 0.39176 0.77840 0.80985
 N622 N 0.38894 0.76392 0.78746
 H623 H 0.34371 0.74485 0.71371
 H624 H 0.37354 0.80939 0.83283
 C625 C -0.12043 0.25449 0.26210
 C626 C -0.11723 0.27124 0.28391
 N627 N -0.13468 0.29110 0.28777
 C628 C -0.15525 0.29510 0.27073
 C629 C -0.15864 0.27841 0.24867
 N630 N -0.14101 0.25840 0.24502
 N631 N -0.10269 0.23486 0.25819
 C632 C -0.08189 0.23115 0.27515
 C633 C -0.07864 0.24788 0.29720
 N634 N -0.09655 0.26757 0.30081
 H635 H -0.16872 0.31123 0.27449
 H636 H -0.06788 0.21570 0.27102
 C637 C -0.12913 0.70705 0.23948
 C638 C -0.11104 0.72761 0.24640
 N639 N -0.11300 0.74116 0.26893
 C640 C -0.13235 0.73523 0.28490
 C641 C -0.15077 0.71477 0.27807
 N642 N -0.14862 0.70107 0.25543
 N643 N -0.12708 0.69372 0.21676
 C644 C -0.10776 0.69998 0.20069
 C645 C -0.08955 0.72066 0.20760
 N646 N -0.09188 0.73390 0.23039
 H647 H -0.13333 0.74655 0.30270
 H648 H -0.10708 0.68928 0.18254
 C649 C 0.37516 0.24590 0.72474
 C650 C 0.38058 0.22556 0.70697
 N651 N 0.36551 0.20303 0.70542
 C652 C 0.34517 0.19979 0.72091
 C653 C 0.33960 0.22002 0.73907
 N654 N 0.35488 0.24269 0.74045
 N655 N 0.39022 0.26854 0.72588
 C656 C 0.41057 0.27168 0.71017
 C657 C 0.41635 0.25106 0.69246
 N658 N 0.40088 0.22860 0.69148
 H659 H 0.33365 0.18145 0.71904
 H660 H 0.42171 0.29020 0.71156
 C661 C 0.64773 0.25925 0.73587
 C662 C 0.64712 0.27303 0.71258
 N663 N 0.66694 0.29013 0.70758
 C664 C 0.68733 0.29435 0.72495
 C665 C 0.68801 0.28089 0.74856
 N666 N 0.66815 0.26343 0.75337
 N667 N 0.62750 0.24252 0.74085
 C668 C 0.60665 0.23906 0.72367
 C669 C 0.60587 0.25306 0.70027
 N670 N 0.62639 0.26963 0.69553
 H671 H 0.70276 0.30826 0.72037
 H672 H 0.59068 0.22611 0.72871
 C673 C 0.14047 0.79917 0.24127
 C674 C 0.12311 0.77847 0.24726
 N675 N 0.12849 0.76322 0.26817
 C676 C 0.15055 0.76764 0.28339
 C677 C 0.16819 0.78829 0.27745
 N678 N 0.16260 0.80365 0.25645
 N679 N 0.13511 0.81415 0.22012
 C680 C 0.11317 0.80940 0.20470
 C681 C 0.09562 0.78860 0.21064
 N682 N 0.10128 0.77369 0.23190
 H683 H 0.15424 0.75504 0.29990
 H684 H 0.10998 0.82135 0.18770
 C685 C 0.27141 0.14542 0.19132
 C686 C 0.26441 0.12636 0.20938
 N687 N 0.24132 0.12862 0.22090
 C688 C 0.22493 0.14931 0.21546
 C689 C 0.23190 0.16887 0.19769
 N690 N 0.25504 0.16632 0.18584
 N691 N 0.29479 0.14303 0.18012
 C692 C 0.31146 0.12252 0.18622
 C693 C 0.30451 0.10348 0.20454
 N694 N 0.28100 0.10609 0.21552
 H695 H 0.20670 0.15051 0.22516
 H696 H 0.33012 0.12160 0.17730
 C697 C 0.76447 0.66115 0.72420
 C698 C 0.75990 0.64039 0.74132
 N699 N 0.73847 0.64143 0.75578
 C700 C 0.72132 0.66226 0.75377
 C701 C 0.72571 0.68296 0.73635
 N702 N 0.74732 0.68178 0.72206
 N703 N 0.78593 0.66037 0.70990
 C704 C 0.80300 0.63957 0.71168
 C705 C 0.79835 0.61825 0.72843
 N706 N 0.77687 0.61947 0.74303
 H707 H 0.70435 0.66248 0.76543
 H708 H 0.82015 0.64005 0.70033
 C709 C 0.76982 0.37593 0.75625
 C710 C 0.79110 0.38215 0.77337
 N711 N 0.79682 0.36578 0.79345
 C712 C 0.78214 0.34338 0.79721
 C713 C 0.76076 0.33689 0.77995
 N714 N 0.75526 0.35350 0.75984
 N715 N 0.76382 0.39258 0.73649
 C716 C 0.77826 0.41517 0.73291
 C717 C 0.80002 0.42144 0.74984
 N718 N 0.80565 0.40457 0.76974
 H719 H 0.78725 0.33081 0.81345
 H720 H 0.77234 0.42807 0.71723
 C721 C 0.25827 -0.12273 0.27352
 C722 C 0.28175 -0.11866 0.28826
 N723 N 0.28804 -0.13541 0.30787
 C724 C 0.27194 -0.15618 0.31342
 C725 C 0.24831 -0.16056 0.29860
 N726 N 0.24213 -0.14352 0.27897
 N727 N 0.25199 -0.10582 0.25400
 C728 C 0.26823 -0.08511 0.24841
 C729 C 0.29205 -0.08109 0.26299
 N730 N 0.29797 -0.09807 0.28269
 H731 H 0.27769 -0.16912 0.32920
 H732 H 0.26229 -0.07182 0.23302
 C733 C 0.23567 -0.13678 0.73723
 C734 C 0.21338 -0.13282 0.72094
 N735 N 0.20855 -0.14942 0.70037
 C736 C 0.22507 -0.16988 0.69525
 C737 C 0.24758 -0.17407 0.71153
 N738 N 0.25220 -0.15727 0.73223
 N739 N 0.24060 -0.11985 0.75757
 C740 C 0.22420 -0.09912 0.76243
 C741 C 0.20162 -0.09508 0.74617
 N742 N 0.19701 -0.11223 0.72578
 H743 H 0.22054 -0.18267 0.67862
 H744 H 0.22925 -0.08578 0.77847
 C745 C 0.72680 0.35385 0.20999
 C746 C 0.73306 0.37230 0.23001
 N747 N 0.75540 0.36935 0.24480
 C748 C 0.77187 0.34868 0.24058
 C749 C 0.76581 0.32997 0.22056
 N750 N 0.74330 0.33308 0.20563
 N751 N 0.70418 0.35694 0.19545
 C752 C 0.68766 0.37770 0.19994
 C753 C 0.69403 0.39639 0.21996
 N754 N 0.71668 0.39293 0.23445
 H755 H 0.78956 0.34699 0.25281
 H756 H 0.66965 0.37920 0.18823
 C757 C 0.75626 0.62392 0.27460
 C758 C 0.73449 0.62131 0.28978
 N759 N 0.73142 0.63868 0.30962
 C760 C 0.74916 0.65867 0.31503
 C761 C 0.77107 0.66160 0.29984
 N762 N 0.77406 0.64402 0.27989
 N763 N 0.75927 0.60622 0.25491
 C764 C 0.74140 0.58616 0.24961
 C765 C 0.71926 0.58365 0.26466
 N766 N 0.71666 0.60143 0.28446
 H767 H 0.74603 0.67220 0.33101
 H768 H 0.74482 0.57223 0.23408
 C769 C 0.22981 0.14406 0.77946
 C770 C 0.23448 0.12368 0.76147
 N771 N 0.25513 0.12594 0.74621
 C772 C 0.27139 0.14772 0.74809
 C773 C 0.26686 0.16830 0.76621
 N774 N 0.24606 0.16578 0.78146
 N775 N 0.20893 0.14198 0.79444
 C776 C 0.19253 0.12030 0.79239
 C777 C 0.19726 0.09952 0.77455
 N778 N 0.21820 0.10200 0.75946
 H779 H 0.28765 0.14884 0.73557
 H780 H 0.17579 0.11976 0.80427
 C781 C 0.22296 0.25957 0.10862
 C782 C 0.20740 0.28264 0.10666
 N783 N 0.19046 0.28834 0.12515
 C784 C 0.18828 0.27199 0.14558
 C785 C 0.20379 0.24874 0.14774
 N786 N 0.22086 0.24314 0.12908
 N787 N 0.23972 0.25388 0.08990
 C788 C 0.24175 0.27027 0.06938
 C789 C 0.22630 0.29364 0.06741
 N790 N 0.20942 0.29900 0.08624
 H791 H 0.17452 0.27717 0.15996
 H792 H 0.25496 0.26472 0.05466
 C793 C 0.72396 0.77285 0.65150
 C794 C 0.70808 0.79528 0.64676
 N795 N 0.68840 0.80086 0.66256
 C796 C 0.68381 0.78492 0.68288
 C797 C 0.69966 0.76231 0.68763
 N798 N 0.71941 0.75695 0.67174
 N799 N 0.74338 0.76702 0.63554
 C800 C 0.74775 0.78265 0.61500
 C801 C 0.73197 0.80535 0.61010
 N802 N 0.71240 0.81093 0.62624
 H803 H 0.66793 0.78983 0.69508
 H804 H 0.76296 0.77683 0.60239
 C805 C 0.77828 0.74809 0.39145
 C806 C 0.79235 0.77230 0.39462
 N807 N 0.81063 0.77881 0.37769
 C808 C 0.81537 0.76223 0.35753
 C809 C 0.80094 0.73813 0.35397
 N810 N 0.78275 0.73165 0.37117
 N811 N 0.76023 0.74152 0.40859
 C812 C 0.75530 0.75827 0.42861
 C813 C 0.76886 0.78304 0.43152
 N814 N 0.78725 0.78913 0.41438
 H815 H 0.82994 0.76806 0.34424
 H816 H 0.74109 0.75200 0.44202
 C817 C 0.26425 0.26303 -0.15372
 C818 C 0.27767 0.28763 -0.15084
 N819 N 0.29625 0.29403 -0.16759
 C820 C 0.30201 0.27686 -0.18710
 C821 C 0.28848 0.25218 -0.19004
 N822 N 0.26990 0.24602 -0.17315
 N823 N 0.24601 0.25633 -0.13686
 C824 C 0.24036 0.27319 -0.11722
 C825 C 0.25347 0.29819 -0.11426
 N826 N 0.27200 0.30461 -0.13124
 H827 H 0.31691 0.28246 -0.20013
 H828 H 0.22620 0.26668 -0.10385
 C829 C 0.72703 0.22076 -0.14668
 C830 C 0.74613 0.22814 -0.12752
 N831 N 0.76055 0.25083 -0.13009
 C832 C 0.75675 0.26658 -0.15099
 C833 C 0.73753 0.25940 -0.17031
 N834 N 0.72310 0.23653 -0.16761
 N835 N 0.71282 0.19789 -0.14408
 C836 C 0.71669 0.18215 -0.12309
 C837 C 0.73566 0.18965 -0.10358
 N838 N 0.74996 0.21253 -0.10657
 H839 H 0.76860 0.28457 -0.15239
 H840 H 0.70531 0.16385 -0.12200
 C841 C 0.21795 0.72008 0.36895
 C842 C 0.23879 0.72473 0.38707
 N843 N 0.25383 0.74723 0.38546
 C844 C 0.24889 0.76534 0.36654
 C845 C 0.22782 0.76083 0.34846
 N846 N 0.21291 0.73819 0.35021
 N847 N 0.20314 0.69746 0.37027
 C848 C 0.20802 0.67930 0.38909
 C849 C 0.22862 0.68402 0.40774
 N850 N 0.24361 0.70670 0.40599
 H851 H 0.26116 0.78311 0.36576
 H852 H 0.19610 0.66126 0.38907
 C853 C 0.28569 0.71272 0.63409
 C854 C 0.26551 0.71788 0.61560
 N855 N 0.24980 0.73945 0.61867
 C856 C 0.25335 0.75614 0.63946
 C857 C 0.27363 0.75110 0.65806
 N858 N 0.28934 0.72941 0.65482
 N859 N 0.30116 0.69095 0.63115
 C860 C 0.29749 0.67414 0.61045
 C861 C 0.27741 0.67936 0.59158
 N862 N 0.26187 0.70119 0.59490
 H863 H 0.24049 0.77317 0.64135
 H864 H 0.30986 0.65670 0.60917
 C865 C 0.77276 0.24109 0.12870
 C866 C 0.78866 0.21840 0.12656
 N867 N 0.80681 0.21286 0.14562
 C868 C 0.80984 0.22903 0.16679
 C869 C 0.79394 0.25187 0.16915
 N870 N 0.77569 0.25730 0.14992
 N871 N 0.75481 0.24665 0.10942
 C872 C 0.75191 0.23045 0.08816
 C873 C 0.76768 0.20742 0.08601
 N874 N 0.78576 0.20222 0.10543
 H875 H 0.82452 0.22400 0.18163
 H876 H 0.73773 0.23588 0.07306
 C877 C 0.50639 0.38272 0.50803
 C878 C 0.49175 0.38409 0.53006
 N879 N 0.47463 0.40447 0.53300
 C880 C 0.47131 0.42351 0.51476
 C881 C 0.48579 0.42219 0.49247
 N882 N 0.50316 0.40178 0.48975
 N883 N 0.52305 0.36193 0.50497
 C884 C 0.52572 0.34239 0.52290
 C885 C 0.51102 0.34363 0.54515
 N886 N 0.49441 0.36468 0.54794
 H887 H 0.45740 0.43946 0.51765
 H888 H 0.53868 0.32589 0.51922
 C889 C -0.03920 0.89119 0.03387
 C890 C -0.02016 0.87173 0.02939
 N891 N -0.00556 0.87348 0.00849
 C892 C -0.00897 0.89397 -0.00817
 C893 C -0.02787 0.91381 -0.00378
 N894 N -0.04268 0.91184 0.01721
 N895 N -0.05352 0.88933 0.05507
 C896 C -0.04961 0.86894 0.07199
 C897 C -0.03035 0.84942 0.06758
 N898 N -0.01622 0.85154 0.04623
 H899 H 0.00312 0.89474 -0.02463
 H900 H -0.06098 0.86850 0.08892
 C901 C 0.03726 0.62351 0.03146
 C902 C 0.01662 0.64152 0.02690
 N903 N 0.00065 0.63863 0.00547
 C904 C 0.00429 0.61843 -0.01170
 C905 C 0.02497 0.60008 -0.00733
 N906 N 0.04103 0.60323 0.01429
 N907 N 0.05297 0.62642 0.05317
 C908 C 0.04897 0.64656 0.07049
 C909 C 0.02823 0.66478 0.06592
 N910 N 0.01264 0.66154 0.04410
 H911 H -0.00896 0.61682 -0.02856
 H912 H 0.06155 0.64780 0.08779
 C913 C 0.50379 0.11369 0.51083
 C914 C 0.51210 0.11025 0.53666
 N915 N 0.52134 0.08614 0.54451
 C916 C 0.52324 0.06537 0.52759
 C917 C 0.51581 0.06885 0.50146
 N918 N 0.50591 0.09296 0.49374
 N919 N 0.49496 0.13808 0.50308
 C920 C 0.49429 0.15923 0.51992
 C921 C 0.50317 0.15597 0.54576
 N922 N 0.51172 0.13136 0.55334
 H923 H 0.53113 0.04650 0.53441
 H924 H 0.48776 0.17852 0.51293
 C925 C -0.00813 0.11218 0.49148
 C926 C -0.02452 0.11337 0.46913
 N927 N -0.04487 0.09571 0.46566
 C928 C -0.04955 0.07685 0.48357
 C929 C -0.03303 0.07552 0.50597
 N930 N -0.01269 0.09334 0.50927
 N931 N 0.01196 0.13003 0.49518
 C932 C 0.01659 0.14900 0.47744
 C933 C 0.00045 0.15017 0.45469
 N934 N -0.01987 0.13224 0.45133
 H935 H -0.06588 0.06302 0.48027
 H936 H 0.03240 0.16322 0.48152
 C937 C 0.44277 0.60826 0.98107
 C938 C 0.46227 0.62715 0.98867
 N939 N 0.47648 0.62399 1.01108
 C940 C 0.47217 0.60266 1.02629
 C941 C 0.45270 0.58351 1.01878
 N942 N 0.43837 0.58688 0.99627
 N943 N 0.42884 0.61140 0.95844
 C944 C 0.43348 0.63263 0.94307
 C945 C 0.45302 0.65176 0.95067
 N946 N 0.46689 0.64828 0.97339
 H947 H 0.48392 0.60072 1.04403
 H948 H 0.42236 0.63407 0.92495
 C949 C 0.51274 0.88126 1.00414
 C950 C 0.52825 0.87789 0.98290
 N951 N 0.54840 0.89516 0.97949
 C952 C 0.55378 0.91577 0.99634
 C953 C 0.53820 0.91948 1.01773
 N954 N 0.51799 0.90193 1.02102
 N955 N 0.49273 0.86374 1.00755
 C956 C 0.48740 0.84312 0.99058
 C957 C 0.50275 0.83982 0.96898
 N958 N 0.52293 0.85742 0.96595
 H959 H 0.57003 0.92912 0.99288
 H960 H 0.47162 0.82934 0.99429
 C961 C 0.03961 0.38506 0.47395
 C962 C 0.01882 0.36695 0.47663
 N963 N 0.00131 0.37153 0.49490
 C964 C 0.00366 0.39346 0.51073
 C965 C 0.02469 0.41169 0.50833
 N966 N 0.04215 0.40688 0.48985
 N967 N 0.05682 0.38067 0.45537
 C968 C 0.05434 0.35883 0.43940
 C969 C 0.03370 0.34019 0.44223
 N970 N 0.01642 0.34506 0.46085
 H971 H -0.01069 0.39643 0.52510
 H972 H 0.06819 0.35655 0.42455
 C973 C 0.39153 0.50088 0.47299
 C974 C 0.38808 0.52429 0.45867
 N975 N 0.40659 0.53149 0.44211
 C976 C 0.42851 0.51637 0.43942
 C977 C 0.43221 0.49318 0.45424
 N978 N 0.41344 0.48607 0.47057
 N979 N 0.37302 0.49332 0.48923
 C980 C 0.35128 0.50838 0.49223
 C981 C 0.34796 0.53250 0.47861
 N982 N 0.36648 0.53961 0.46185
 H983 H 0.44303 0.52264 0.42626
 H984 H 0.33677 0.50130 0.50499
 C985 C 0.88931 0.00984 -0.01239
 C986 C 0.88725 0.03171 -0.02899
 N987 N 0.90488 0.03468 -0.04736
 C988 C 0.92456 0.01675 -0.04995
 C989 C 0.92687 -0.00534 -0.03331
 N990 N 0.90902 -0.00813 -0.01486
 N991 N 0.87139 0.00677 0.00573
 C992 C 0.85155 0.02464 0.00811
 C993 C 0.84947 0.04686 -0.00840
 N994 N 0.86752 0.04957 -0.02662
 H995 H 0.93822 0.01987 -0.06488
 H996 H 0.83736 0.02102 0.02240
 C997 C 0.62758 0.00911 0.02180
 C998 C 0.63035 0.03321 0.03597
 N999 N 0.61309 0.03909 0.05416
 C1000 C 0.59306 0.02195 0.05881
 C1001 C 0.59002 -0.00215 0.04445
 N1002 N 0.60748 -0.00793 0.02626
 N1003 N 0.64511 0.00307 0.00393
 C1004 C 0.66523 0.02015 -0.00064
 C1005 C 0.66789 0.04471 0.01318
 N1006 N 0.65028 0.05036 0.03130
 H1007 H 0.57955 0.02724 0.07339
 H1008 H 0.67904 0.01418 -0.01464
 C1009 C 0.11610 0.49845 0.51575
 C1010 C 0.11964 0.52230 0.53018
 N1011 N 0.10139 0.52961 0.54698
 C1012 C 0.07968 0.51413 0.54998
 C1013 C 0.07597 0.49023 0.53544
 N1014 N 0.09442 0.48304 0.51866
 N1015 N 0.13443 0.49102 0.49912
 C1016 C 0.15610 0.50649 0.49605
 C1017 C 0.15966 0.53073 0.51020
 N1018 N 0.14124 0.53782 0.52709
 H1019 H 0.06547 0.52051 0.56351
 H1020 H 0.17048 0.49959 0.48297
 C1021 C 0.09553 0.48174 -0.04610
 C1022 C 0.11494 0.48590 -0.02641
 N1023 N 0.11364 0.50777 -0.01066
 C1024 C 0.09378 0.52573 -0.01374
 C1025 C 0.07433 0.52176 -0.03361
 N1026 N 0.07577 0.49972 -0.04930
 N1027 N 0.09668 0.45973 -0.06164
 C1028 C 0.11652 0.44176 -0.05858
 C1029 C 0.13642 0.44600 -0.03910
 N1030 N 0.13484 0.46806 -0.02340
 H1031 H 0.09333 0.54298 -0.00089
 H1032 H 0.11638 0.42423 -0.07107
 C1033 C 0.59978 0.96122 0.46579
 C1034 C 0.61149 0.96193 0.49070
 N1035 N 0.60171 0.97823 0.50884
 C1036 C 0.58081 0.99418 0.50318
 C1037 C 0.56898 0.99387 0.47808
 N1038 N 0.57878 0.97710 0.46002
 N1039 N 0.61012 0.94526 0.44760
 C1040 C 0.63166 0.93000 0.45318
 C1041 C 0.64355 0.93064 0.47826
 N1042 N 0.63287 0.94672 0.49628
 H1043 H 0.57371 1.00705 0.51820
 H1044 H 0.63954 0.91814 0.43791
 C1045 C 0.87647 0.98890 0.52086
 C1046 C 0.87355 0.96902 0.53929
 N1047 N 0.89197 0.96659 0.55877
 C1048 C 0.91332 0.98312 0.56067
 C1049 C 0.91659 1.00305 0.54208
 N1050 N 0.89787 1.00537 0.52260
 N1051 N 0.85780 0.99144 0.50157
 C1052 C 0.83645 0.97482 0.49971
 C1053 C 0.83362 0.95444 0.51793
 N1054 N 0.85237 0.95235 0.53737
 H1055 H 0.92761 0.98051 0.57650
 H1056 H 0.82183 0.97788 0.48432
 C1057 C 0.36352 0.49048 0.01181
 C1058 C 0.36117 0.46657 0.02542
 N1059 N 0.37910 0.46080 0.04458
 C1060 C 0.39939 0.47790 0.05081
 C1061 C 0.40197 0.50192 0.03719
 N1062 N 0.38385 0.50759 0.01792
 N1063 N 0.34531 0.49627 -0.00715
 C1064 C 0.32490 0.47917 -0.01324
 C1065 C 0.32256 0.45493 0.00022
 N1066 N 0.34091 0.44949 0.01933
 H1067 H 0.41337 0.47266 0.06620
 H1068 H 0.31055 0.48485 -0.02808
 C1069 C 0.52458 0.48554 0.37458
 C1070 C 0.54671 0.46907 0.37367
 N1071 N 0.55147 0.45082 0.39240
 C1072 C 0.53507 0.44827 0.41203
 C1073 C 0.51279 0.46475 0.41303
 N1074 N 0.50817 0.48302 0.39415
 N1075 N 0.51976 0.50368 0.35579
 C1076 C 0.53614 0.50624 0.33616
 C1077 C 0.55856 0.48990 0.33519
 N1078 N 0.56309 0.47157 0.35407
 H1079 H 0.53941 0.43351 0.42664
 H1080 H 0.53131 0.52055 0.32128
 C1081 C 0.01442 -0.01577 0.88448
 C1082 C 0.03703 -0.03160 0.88403
 N1083 N 0.04190 -0.04977 0.90278
 C1084 C 0.02515 -0.05285 0.92202
 C1085 C 0.00249 -0.03690 0.92263
 N1086 N -0.00226 -0.01868 0.90375
 N1087 N 0.00936 0.00205 0.86547
 C1088 C 0.02598 0.00496 0.84610
 C1089 C 0.04901 -0.01058 0.84572
 N1090 N 0.05371 -0.02862 0.86481
 H1091 H 0.02959 -0.06751 0.93670
 H1092 H 0.02083 0.01894 0.83105
 C1093 C 0.01064 0.01312 0.62571
 C1094 C 0.03389 0.02840 0.62685
 N1095 N 0.03858 0.04569 0.60769
 C1096 C 0.02103 0.04838 0.58736
 C1097 C -0.00229 0.03300 0.58610
 N1098 N -0.00684 0.01572 0.60543
 N1099 N 0.00580 -0.00393 0.64499
 C1100 C 0.02327 -0.00660 0.66535
 C1101 C 0.04688 0.00842 0.66651
 N1102 N 0.05139 0.02571 0.64713
 H1103 H 0.02533 0.06231 0.57236
 H1104 H 0.01837 -0.01995 0.68058
 C1105 C 0.51943 0.53844 0.11514
 C1106 C 0.51443 0.51831 0.13279
 N1107 N 0.49204 0.50344 0.12986
 C1108 C 0.47437 0.50777 0.10996
 C1109 C 0.47928 0.52800 0.09220
 N1110 N 0.50177 0.54288 0.09534
 N1111 N 0.54205 0.55293 0.11783
 C1112 C 0.55994 0.54831 0.13747
 C1113 C 0.55498 0.52824 0.15550
 N1114 N 0.53219 0.51375 0.15244
 H1115 H 0.45670 0.49557 0.10809
 H1116 H 0.57796 0.55989 0.13845
 C1117 C 0.47716 -0.03940 0.11605
 C1118 C 0.48420 -0.01957 0.13457
 N1119 N 0.50689 -0.00554 0.13281
 C1120 C 0.52286 -0.01027 0.11322
 C1121 C 0.51586 -0.02998 0.09437
 N1122 N 0.49311 -0.04420 0.09637
 N1123 N 0.45421 -0.05309 0.11777
 C1124 C 0.43795 -0.04783 0.13715
 C1125 C 0.44493 -0.02784 0.15580
 N1126 N 0.46803 -0.01429 0.15382
 H1127 H 0.54078 0.00139 0.11236
 H1128 H 0.41956 -0.05871 0.13743
 C1129 C 0.98172 0.49446 0.61288
 C1130 C 0.95865 0.47913 0.61406
 N1131 N 0.95377 0.45875 0.59689
 C1132 C 0.97100 0.45291 0.57857
 C1133 C 0.99424 0.46818 0.57731
 N1134 N 0.99895 0.48870 0.59457
 N1135 N 0.98672 0.51457 0.63033
 C1136 C 0.96969 0.52012 0.64893
 C1137 C 0.94635 0.50485 0.65020
 N1138 N 0.94164 0.48465 0.63257
 H1139 H 0.96654 0.43649 0.56518
 H1140 H 0.97482 0.53584 0.66282
 C1141 C 0.98563 0.53232 0.87401
 C1142 C 0.96286 0.54795 0.87214
 N1143 N 0.95760 0.56533 0.89142
 C1144 C 0.97415 0.56789 0.91256
 C1145 C 0.99707 0.55229 0.91463
 N1146 N 1.00221 0.53477 0.89520
 N1147 N 0.99094 0.51523 0.85446
 C1148 C 0.97443 0.51292 0.83318
 C1149 C 0.95134 0.52839 0.83131
 N1150 N 0.94637 0.54561 0.85099
 H1151 H 0.96935 0.58199 0.92758
 H1152 H 0.97967 0.49949 0.81783
 C1153 C 0.46777 0.03915 0.38693
 C1154 C 0.47522 0.01992 0.36882
 N1155 N 0.49629 0.00416 0.37429
 C1156 C 0.51018 0.00658 0.39717
 C1157 C 0.50264 0.02561 0.41561
 N1158 N 0.48156 0.04154 0.40989
 N1159 N 0.44649 0.05467 0.38148
 C1160 C 0.43229 0.05184 0.35876
 C1161 C 0.43958 0.03245 0.34049
 N1162 N 0.46100 0.01699 0.34621
 H1163 H 0.52679 -0.00644 0.40096
 H1164 H 0.41510 0.06414 0.35545
   
