data_POSCAR
  _audit_creation_date              2014-09-24
  _audit_creation_method            'ToBaCCo'
  _symmetry_space_group_name_H-M    'P1'
  _symmetry_Int_Tables_number       1
  _symmetry_cell_setting            triclinic
  loop_
  _symmetry_equiv_pos_as_xyz
 x,y,z
_cell_length_a 54.8137
_cell_length_b 54.7437
_cell_length_c 21.5083
_cell_angle_alpha 89.060900
_cell_angle_beta 90.648600
_cell_angle_gamma 120.146000
loop_
  _atom_site_label
  _atom_site_type_symbol
  _atom_site_fract_x
  _atom_site_fract_y
  _atom_site_fract_z
C1 C 0.18903 0.51180 0.49354
 C2 C 0.20516 0.51899 0.43882
 C3 C 0.23306 0.52444 0.44328
 C4 C 0.24363 0.51912 0.49910
 C5 C 0.22580 0.50933 0.55151
 C6 C 0.19932 0.50745 0.55037
 C7 C 0.27301 0.52362 0.50261
 C8 C 0.28777 0.52926 0.55982
 C9 C 0.31475 0.53230 0.56330
 C10 C 0.32818 0.53217 0.50826
 C11 C 0.31411 0.52672 0.45079
 C12 C 0.28650 0.52197 0.44866
 H13 H 0.16824 0.50926 0.49215
 H14 H 0.24623 0.53228 0.40239
 H15 H 0.23274 0.50403 0.59429
 H16 H 0.27842 0.53104 0.60225
 H17 H 0.34981 0.53684 0.51047
 H18 H 0.27553 0.51648 0.40450
 C19 C 0.48271 -0.32506 0.49843
 C20 C 0.48449 -0.31093 0.44200
 C21 C 0.48468 -0.28514 0.44405
 C22 C 0.48226 -0.27379 0.50100
 C23 C 0.48000 -0.28908 0.55633
 C24 C 0.48214 -0.31355 0.55590
 C25 C 0.48308 -0.24577 0.50314
 C26 C 0.48922 -0.23033 0.55919
 C27 C 0.48902 -0.20483 0.56152
 C28 C 0.48553 -0.19300 0.50649
 C29 C 0.48152 -0.20665 0.44971
 C30 C 0.47857 -0.23358 0.44880
 H31 H 0.48010 -0.34591 0.49796
 H32 H 0.48755 -0.27382 0.40071
 H33 H 0.47733 -0.28184 0.60074
 H34 H 0.49418 -0.23767 0.60171
 H35 H 0.48672 -0.17265 0.50761
 H36 H 0.47357 -0.24425 0.40478
 C37 C 1.32855 0.80275 0.51381
 C38 C 1.31662 0.79063 0.45595
 C39 C 1.29000 0.76579 0.45568
 C40 C 1.27434 0.75455 0.51102
 C41 C 1.28629 0.76834 0.56730
 C42 C 1.31332 0.79202 0.56916
 C43 C 1.24537 0.72903 0.51023
 C44 C 1.23453 0.71108 0.56310
 C45 C 1.20676 0.68801 0.56409
 C46 C 1.19100 0.68109 0.50849
 C47 C 1.20161 0.69818 0.45525
 C48 C 1.22807 0.72267 0.45707
 H49 H 1.34995 0.82004 0.51704
 H50 H 1.28142 0.75545 0.41183
 H51 H 1.27446 0.76119 0.61016
 H52 H 1.24743 0.71524 0.60437
 H53 H 1.17048 0.66232 0.50517
 H54 H 1.23514 0.73627 0.41630
 C55 C 0.80581 0.49224 0.50534
 C56 C 0.79906 0.50229 0.45158
 C57 C 0.77628 0.50703 0.45248
 C58 C 0.75828 0.49917 0.50470
 C59 C 0.76572 0.48928 0.55874
 C60 C 0.79027 0.48725 0.56020
 C61 C 0.73191 0.50109 0.50177
 C62 C 0.71934 0.50431 0.55580
 C63 C 0.69485 0.50660 0.55214
 C64 C 0.68277 0.50527 0.49311
 C65 C 0.69497 0.50220 0.43921
 C66 C 0.71907 0.49980 0.44385
 H67 H 0.82382 0.48914 0.50480
 H68 H 0.77254 0.51642 0.41153
 H69 H 0.75290 0.48349 0.60014
 H70 H 0.72909 0.50611 0.60079
 H71 H 0.66375 0.50642 0.48805
 H72 H 0.72726 0.49629 0.40151
 C73 C 0.50946 0.31962 0.50426
 C74 C 0.51207 0.30847 0.44823
 C75 C 0.51636 0.28537 0.44961
 C76 C 0.51534 0.27137 0.50609
 C77 C 0.51188 0.28253 0.56189
 C78 C 0.50927 0.30683 0.56181
 C79 C 0.51661 0.24459 0.50612
 C80 C 0.52568 0.23554 0.55903
 C81 C 0.52536 0.20962 0.55980
 C82 C 0.51906 0.19446 0.50392
 C83 C 0.51037 0.20321 0.45088
 C84 C 0.50787 0.22731 0.45319
 H85 H 0.50847 0.33880 0.50185
 H86 H 0.51985 0.27813 0.40592
 H87 H 0.51025 0.27189 0.60577
 H88 H 0.53245 0.24824 0.60048
 H89 H 0.52041 0.17554 0.50058
 H90 H 0.49926 0.23246 0.41291
 C91 C 0.67909 0.18746 0.49210
 C92 C 0.68844 0.20343 0.43698
 C93 C 0.71380 0.22929 0.43743
 C94 C 0.73161 0.23792 0.49033
 C95 C 0.72234 0.22066 0.54433
 C96 C 0.69574 0.19608 0.54605
 C97 C 0.76031 0.26386 0.48769
 C98 C 0.77401 0.27913 0.54192
 C99 C 0.80185 0.30212 0.53967
 C100 C 0.81489 0.31133 0.48120
 C101 C 0.80164 0.29671 0.42694
 C102 C 0.77473 0.27293 0.43057
 H103 H 0.65904 0.16790 0.49274
 H104 H 0.71989 0.24207 0.39540
 H105 H 0.73566 0.22603 0.58520
 H106 H 0.76335 0.27284 0.58632
 H107 H 0.83496 0.33064 0.47683
 H108 H 0.76556 0.26125 0.38842
 O109 O 0.95869 0.43189 0.09653
 O110 O 0.92792 0.44074 0.04115
 C111 C 0.93345 0.42632 0.08152
 O112 O 1.03739 0.55762 0.11606
 O113 O 1.06994 0.55240 0.05424
 C114 C 1.06472 0.56536 0.10145
 O115 O 0.95883 0.51530 0.11743
 O116 O 0.92717 0.48006 0.04812
 C117 C 0.93178 0.49620 0.09958
 O118 O 1.03716 0.46905 0.09503
 O119 O 1.06921 0.51083 0.04802
 C120 C 1.06270 0.48918 0.08410
 Zr121 Zr 0.99826 0.46467 0.06585
 O122 O 1.00036 0.46201 0.16396
 O123 O 0.99493 0.42464 0.05729
 Zr124 Zr 0.99834 0.52630 0.07829
 O125 O 0.99949 0.52670 0.17647
 O126 O 0.99509 0.56330 0.07747
 O127 O 0.97308 0.48242 0.08293
 O128 O 1.02259 0.50719 0.08529
 O129 O 1.04001 0.47917 -0.12071
 O130 O 1.07040 0.51552 -0.05790
 C131 C 1.06517 0.49786 -0.10230
 O132 O 0.96139 0.52693 -0.11147
 O133 O 0.92919 0.48606 -0.06159
 C134 C 0.93586 0.50690 -0.10027
 O135 O 1.03972 0.56775 -0.10100
 O136 O 1.07047 0.55710 -0.05082
 C137 C 1.06492 0.57280 -0.08734
 O138 O 0.96125 0.44230 -0.13141
 O139 O 0.92918 0.44554 -0.06969
 C140 C 0.93562 0.43508 -0.11616
 Zr141 Zr 1.00005 0.47134 -0.08979
 O142 O 1.00418 0.47581 -0.18761
 O143 O 0.99662 0.43109 -0.09403
 Zr144 Zr 1.00008 0.53300 -0.07652
 O145 O 1.00417 0.53914 -0.17417
 O146 O 0.99697 0.56978 -0.06709
 Zr147 Zr 0.95685 0.47755 -0.00832
 Zr148 Zr 1.04135 0.51980 -0.00301
 O149 O 1.02451 0.51485 -0.09338
 O150 O 0.97515 0.49021 -0.09727
 O151 O 1.02452 0.47588 -0.01135
 O152 O 0.97418 0.52141 0.00046
 O153 O 0.97435 0.45116 -0.01447
 O154 O 1.02483 0.54712 0.00359
 H155 H 1.03474 0.51185 0.12273
 H156 H 0.96101 0.52878 0.00317
 H157 H 1.03737 0.52273 -0.12946
 H158 H 0.96144 0.43053 -0.01829
 H159 H 1.01386 0.57958 0.06727
 H160 H 1.01282 0.58306 -0.04049
 H161 H 0.98856 0.52215 -0.19365
 H162 H 0.99130 0.48240 -0.20247
 H163 H 1.01385 0.43262 -0.07509
 H164 H 1.01078 0.42719 0.03111
 H165 H 0.98385 0.46224 0.18142
 H166 H 0.99560 0.50778 0.19020
 O167 O 0.43621 0.47257 0.12775
 O168 O 0.44154 0.51147 0.07356
 C169 C 0.43045 0.49251 0.11757
 O170 O 0.56018 0.51566 0.09619
 O171 O 0.54864 0.47668 0.03731
 C172 C 0.56432 0.49558 0.07761
 O173 O 0.52250 0.55583 0.11614
 O174 O 0.48280 0.55133 0.06821
 C175 C 0.50354 0.56309 0.10776
 O176 O 0.47068 0.42950 0.10782
 O177 O 0.50613 0.43567 0.04227
 C178 C 0.48849 0.42253 0.08713
 Zr179 Zr 0.46437 0.46337 0.08209
 O180 O 0.46813 0.45967 0.17935
 O181 O 0.42350 0.42713 0.08311
 Zr182 Zr 0.52734 0.52404 0.07391
 O183 O 0.53411 0.52327 0.17082
 O184 O 0.56512 0.56346 0.06495
 O185 O 0.48478 0.50691 0.09555
 O186 O 0.50757 0.48074 0.08485
 O187 O 0.46063 0.43030 -0.10821
 O188 O 0.50155 0.43639 -0.06356
 C189 C 0.47979 0.42330 -0.09992
 O190 O 0.51246 0.55718 -0.11061
 O191 O 0.47804 0.55206 -0.04302
 C192 C 0.49474 0.56425 -0.08982
 O193 O 0.55186 0.51808 -0.12020
 O194 O 0.54510 0.47823 -0.06822
 C195 C 0.55791 0.49832 -0.10916
 O196 O 0.42644 0.47403 -0.09921
 O197 O 0.43708 0.51256 -0.03943
 C198 C 0.42222 0.49410 -0.08151
 Zr199 Zr 0.45792 0.46455 -0.07258
 O200 O 0.45493 0.46323 -0.17083
 O201 O 0.41720 0.42841 -0.06491
 Zr202 Zr 0.52076 0.52512 -0.08087
 O203 O 0.51885 0.52477 -0.17924
 O204 O 0.55855 0.56476 -0.08340
 Zr205 Zr 0.47290 0.51681 0.00931
 Zr206 Zr 0.51219 0.47184 -0.00777
 O207 O 0.50020 0.48196 -0.09332
 O208 O 0.47720 0.50823 -0.08401
 O209 O 0.46808 0.44576 0.00036
 O210 O 0.51700 0.54210 0.00093
 O211 O 0.44511 0.47287 0.01033
 O212 O 0.54070 0.51577 -0.00913
 H213 H 0.51473 0.47397 0.11965
 H214 H 0.52553 0.56291 0.00151
 H215 H 0.50455 0.47561 -0.13241
 H216 H 0.42465 0.46580 0.01471
 H217 H 0.57890 0.56031 0.04235
 H218 H 0.57357 0.56223 -0.06383
 H219 H 0.50025 0.52215 -0.19147
 H220 H 0.45804 0.48178 -0.18563
 H221 H 0.41920 0.41346 -0.04309
 H222 H 0.42464 0.41162 0.06292
 H223 H 0.47476 0.47853 0.19715
 H224 H 0.51645 0.51912 0.19177
 O225 O 0.51776 -0.04275 0.11105
 O226 O 0.47717 -0.07201 0.05762
 C227 C 0.49651 -0.06749 0.09844
 O228 O 0.48206 0.04481 0.11761
 O229 O 0.51970 0.07329 0.05495
 C230 C 0.50229 0.06938 0.09930
 O231 O 0.43895 -0.03391 0.12745
 O232 O 0.43941 -0.06785 0.06693
 C233 C 0.43010 -0.05997 0.11331
 O234 O 0.56543 0.03537 0.09960
 O235 O 0.55902 0.06890 0.04862
 C236 C 0.57289 0.06133 0.08586
 Zr237 Zr 0.52881 -0.00251 0.07405
 O238 O 0.53547 0.00080 0.17141
 O239 O 0.56289 -0.00996 0.06321
 Zr240 Zr 0.47069 0.00388 0.08641
 O241 O 0.47491 0.00731 0.18429
 O242 O 0.43244 0.00456 0.09039
 O243 O 0.48581 -0.02423 0.09401
 O244 O 0.51420 0.02498 0.09064
 O245 O 0.55719 0.03552 -0.11761
 O246 O 0.55532 0.06872 -0.05719
 C247 C 0.56601 0.06147 -0.10160
 O248 O 0.43042 -0.03445 -0.10101
 O249 O 0.43537 -0.06801 -0.04598
 C250 C 0.42283 -0.06038 -0.08690
 O251 O 0.47385 0.04414 -0.09803
 O252 O 0.51624 0.07326 -0.05019
 C253 C 0.49544 0.06881 -0.08679
 O254 O 0.50980 -0.04344 -0.11783
 O255 O 0.47318 -0.07218 -0.05289
 C256 C 0.48955 -0.06806 -0.09975
 Zr257 Zr 0.52317 -0.00281 -0.08142
 O258 O 0.52231 -0.00034 -0.17965
 O259 O 0.55786 -0.00970 -0.08486
 Zr260 Zr 0.46494 0.00344 -0.06873
 O261 O 0.46202 0.00643 -0.16647
 O262 O 0.42690 0.00404 -0.05763
 Zr263 Zr 0.47247 -0.04181 0.00492
 Zr264 Zr 0.52113 0.04255 0.00033
 O265 O 0.50757 0.02454 -0.08808
 O266 O 0.47919 -0.02469 -0.08609
 O267 O 0.54510 0.02226 -0.00594
 O268 O 0.44933 -0.02079 0.01107
 O269 O 0.51577 -0.02793 -0.00315
 O270 O 0.47797 0.02952 0.00834
 H271 H 0.52267 0.03745 0.12692
 H272 H 0.42853 -0.03238 0.01457
 H273 H 0.51328 0.03685 -0.12567
 H274 H 0.52163 -0.04232 -0.00509
 H275 H 0.43575 0.02247 0.07092
 H276 H 0.43147 0.02163 -0.03589
 H277 H 0.46440 -0.00869 -0.18474
 H278 H 0.50276 -0.01354 -0.19321
 H279 H 0.57455 0.00727 -0.06818
 H280 H 0.57772 0.00610 0.03914
 H281 H 0.51711 -0.01188 0.19137
 H282 H 0.47841 -0.00780 0.19952
 C283 C 1.19415 0.52071 0.38013
 C284 C 1.16515 0.50858 0.36811
 C285 C 1.15254 0.50892 0.30707
 C286 C 1.12426 0.48840 0.29685
 C287 C 1.11043 0.48856 0.24228
 C288 C 1.12456 0.50934 0.19606
 C289 C 1.15289 0.53006 0.20615
 C290 C 1.16689 0.52978 0.26105
 C291 C 1.10917 0.51098 0.14036
 C292 C 1.08501 0.48723 0.11817
 H293 H 1.15019 0.49567 0.40352
 H294 H 1.11254 0.47236 0.33190
 H295 H 1.08830 0.47296 0.23786
 H296 H 1.16407 0.54663 0.17184
 H297 H 1.18851 0.54634 0.26811
 H298 H 1.11535 0.53160 0.12054
 H299 H 1.20851 0.52964 0.34127
 H300 H 1.07970 0.46652 0.13585
 C301 C 0.48575 0.67788 0.38399
 C302 C 0.49214 0.65619 0.37826
 C303 C 0.49100 0.64155 0.31995
 C304 C 0.50458 0.62563 0.31969
 C305 C 0.50278 0.60968 0.26829
 C306 C 0.48742 0.60926 0.21512
 C307 C 0.47341 0.62485 0.21532
 C308 C 0.47529 0.64105 0.26719
 C309 C 0.48501 0.59158 0.16109
 C310 C 0.50660 0.58605 0.14755
 H311 H 0.50007 0.65018 0.41839
 H312 H 0.51636 0.62514 0.36003
 H313 H 0.51285 0.59703 0.27129
 H314 H 0.46101 0.62447 0.17539
 H315 H 0.46391 0.65245 0.26640
 H316 H 0.46581 0.58202 0.13366
 H317 H 0.48284 0.68725 0.34189
 H318 H 0.52640 0.59741 0.17254
 C319 C 0.33002 -0.19722 0.39862
 C320 C 0.35356 -0.16997 0.39263
 C321 C 0.36579 -0.15534 0.33270
 C322 C 0.38170 -0.12575 0.33277
 C323 C 0.39408 -0.11056 0.27842
 C324 C 0.39092 -0.12457 0.22212
 C325 C 0.37565 -0.15424 0.22198
 C326 C 0.36295 -0.16958 0.27675
 C327 C 0.40473 -0.10822 0.16474
 C328 C 0.40869 -0.08119 0.15512
 H329 H 0.36212 -0.15697 0.43319
 H330 H 0.38462 -0.11421 0.37528
 H331 H 0.40667 -0.08779 0.28108
 H332 H 0.37343 -0.16552 0.17945
 H333 H 0.35148 -0.19241 0.27529
 H334 H 0.41333 -0.11676 0.13209
 H335 H 0.32016 -0.20860 0.35645
 H336 H 0.39850 -0.07372 0.18621
 C337 C 0.81626 0.50863 0.39484
 C338 C 0.82574 0.49063 0.37553
 C339 C 0.84475 0.49681 0.32213
 C340 C 0.84357 0.47422 0.28977
 C341 C 0.86294 0.47913 0.24278
 C342 C 0.88435 0.50680 0.22822
 C343 C 0.88534 0.52946 0.26010
 C344 C 0.86557 0.52456 0.30635
 C345 C 0.90692 0.51225 0.18363
 C346 C 0.90417 0.49191 0.14193
 H347 H 0.81829 0.47064 0.39985
 H348 H 0.82784 0.45266 0.30155
 H349 H 0.86176 0.46116 0.21954
 H350 H 0.90175 0.55095 0.24999
 H351 H 0.86736 0.54238 0.33142
 H352 H 0.92653 0.53228 0.18522
 H353 H 0.82018 0.52670 0.36628
 H354 H 0.91794 0.49415 0.12118
 C355 C 0.50949 0.32036 0.38777
 C356 C 0.48993 0.32943 0.37990
 C357 C 0.48524 0.34115 0.32143
 C358 C 0.50535 0.35276 0.27354
 C359 C 0.50086 0.36603 0.22189
 C360 C 0.47614 0.36782 0.21726
 C361 C 0.45580 0.35533 0.26423
 C362 C 0.46034 0.34230 0.31570
 C363 C 0.47153 0.38455 0.16842
 C364 C 0.49004 0.39943 0.11976
 H365 H 0.47631 0.32678 0.41866
 H366 H 0.52501 0.35267 0.27683
 H367 H 0.51723 0.37557 0.18718
 H368 H 0.43662 0.35645 0.26219
 H369 H 0.44453 0.33359 0.35194
 H370 H 0.45348 0.38735 0.17453
 H371 H 0.52091 0.31930 0.34817
 H372 H 0.50740 0.39616 0.10899
 C373 C 0.67279 0.19255 0.37782
 C374 C 0.65959 0.16377 0.36446
 C375 C 0.64562 0.15092 0.30486
 C376 C 0.64047 0.12370 0.29227
 C377 C 0.62614 0.10976 0.23855
 C378 C 0.61656 0.12278 0.19558
 C379 C 0.62166 0.15007 0.20809
 C380 C 0.63618 0.16414 0.26210
 C381 C 0.59890 0.10725 0.14126
 C382 C 0.59787 0.08304 0.11834
 H383 H 0.66117 0.14981 0.39850
 H384 H 0.64719 0.11288 0.32478
 H385 H 0.62174 0.08836 0.23257
 H386 H 0.61399 0.16034 0.17648
 H387 H 0.63919 0.18486 0.27094
 H388 H 0.58421 0.11340 0.12304
 H389 H 0.67463 0.20752 0.34211
 H390 H 0.61304 0.07718 0.13426
 C391 C 0.53020 0.19925 -0.38346
 C392 C 0.52444 0.17140 -0.37464
 C393 C 0.52419 0.15852 -0.31349
 C394 C 0.50619 0.12931 -0.30646
 C395 C 0.50508 0.11569 -0.25053
 C396 C 0.52213 0.13090 -0.20000
 C397 C 0.54081 0.16005 -0.20718
 C398 C 0.54164 0.17390 -0.26340
 C399 C 0.52144 0.11583 -0.14167
 C400 C 0.49630 0.09243 -0.12178
 H401 H 0.51604 0.15665 -0.41237
 H402 H 0.49281 0.11689 -0.34453
 H403 H 0.49126 0.09302 -0.24746
 H404 H 0.55458 0.17207 -0.16925
 H405 H 0.55627 0.19635 -0.26797
 H406 H 0.54115 0.12120 -0.11862
 H407 H 0.53598 0.21260 -0.34299
 H408 H 0.47673 0.08848 -0.14354
 C409 C 0.68300 0.50987 -0.39281
 C410 C 0.66323 0.51897 -0.39233
 C411 C 0.64853 0.52017 -0.33619
 C412 C 0.64254 0.50172 -0.28495
 C413 C 0.62578 0.50165 -0.23595
 C414 C 0.61489 0.52013 -0.23750
 C415 C 0.62178 0.53907 -0.28780
 C416 C 0.63813 0.53890 -0.33673
 C417 C 0.59586 0.52032 -0.18933
 C418 C 0.58024 0.49834 -0.14699
 H419 H 0.65927 0.52747 -0.43446
 H420 H 0.64993 0.48673 -0.28364
 H421 H 0.62131 0.48704 -0.19753
 H422 H 0.61380 0.55360 -0.29020
 H423 H 0.64235 0.55326 -0.37572
 H424 H 0.59215 0.53800 -0.19091
 H425 H 0.69046 0.50644 -0.34848
 H426 H 0.58311 0.48021 -0.14376
 C427 C 0.81608 0.31535 -0.40483
 C428 C 0.84556 0.33202 -0.40137
 C429 C 0.86188 0.34688 -0.34539
 C430 C 0.85108 0.35641 -0.29854
 C431 C 0.86867 0.37315 -0.25010
 C432 C 0.89728 0.38045 -0.24786
 C433 C 0.90752 0.37008 -0.29382
 C434 C 0.89015 0.35370 -0.34203
 C435 C 0.91782 0.39960 -0.20107
 C436 C 0.91239 0.41380 -0.15465
 H437 H 0.85807 0.33271 -0.44059
 H438 H 0.82946 0.35187 -0.30048
 H439 H 0.85988 0.38066 -0.21567
 H440 H 0.92937 0.37524 -0.29343
 H441 H 0.89904 0.34670 -0.37758
 H442 H 0.93924 0.40368 -0.20526
 H443 H 0.80409 0.31061 -0.36222
 H444 H 0.89131 0.41000 -0.14698
 C445 C 0.49373 -0.18975 -0.37909
 C446 C 0.47850 -0.17635 -0.36512
 C447 C 0.48466 -0.15730 -0.31188
 C448 C 0.46302 -0.15336 -0.28900
 C449 C 0.46864 -0.13319 -0.24365
 C450 C 0.49623 -0.11616 -0.22091
 C451 C 0.51786 -0.12023 -0.24340
 C452 C 0.51213 -0.14082 -0.28805
 C453 C 0.50325 -0.09258 -0.17809
 C454 C 0.48402 -0.09309 -0.13535
 H455 H 0.46104 -0.17993 -0.39522
 H456 H 0.44178 -0.16552 -0.30734
 H457 H 0.45160 -0.13012 -0.22863
 H458 H 0.53934 -0.10712 -0.22716
 H459 H 0.52940 -0.14285 -0.30585
 H460 H 0.52426 -0.07424 -0.18035
 H461 H 0.50866 -0.18980 -0.34577
 H462 H 0.46410 -0.11237 -0.12801
 C463 C 0.32846 0.53488 -0.37526
 C464 C 0.34536 0.52278 -0.36453
 C465 C 0.35839 0.52231 -0.30410
 C466 C 0.36633 0.50183 -0.29512
 C467 C 0.37979 0.50092 -0.24053
 C468 C 0.38584 0.52061 -0.19320
 C469 C 0.37837 0.54150 -0.20231
 C470 C 0.36448 0.54221 -0.25710
 C471 C 0.40174 0.52052 -0.13687
 C472 C 0.39911 0.49537 -0.11363
 H473 H 0.34764 0.51104 -0.40189
 H474 H 0.36233 0.48654 -0.33091
 H475 H 0.38626 0.48525 -0.23648
 H476 H 0.38333 0.55725 -0.16709
 H477 H 0.35926 0.55872 -0.26317
 H478 H 0.41762 0.54052 -0.11782
 H479 H 0.32289 0.54367 -0.33691
 H480 H 0.38234 0.47559 -0.13164
 C481 C 1.19555 0.67308 -0.37949
 C482 C 1.16669 0.65445 -0.36985
 C483 C 1.15407 0.64109 -0.30930
 C484 C 1.12582 0.63320 -0.29917
 C485 C 1.11228 0.61953 -0.24429
 C486 C 1.12664 0.61325 -0.19784
 C487 C 1.15485 0.62078 -0.20807
 C488 C 1.16860 0.63483 -0.26319
 C489 C 1.11150 0.59669 -0.14172
 C490 C 1.08804 0.59724 -0.11904
 H491 H 1.15173 0.65160 -0.40609
 H492 H 1.11401 0.63739 -0.33426
 H493 H 1.09020 0.61300 -0.23961
 H494 H 1.16615 0.61559 -0.17362
 H495 H 1.19019 0.63999 -0.27026
 H496 H 1.11696 0.58162 -0.12257
 H497 H 1.20959 0.67820 -0.33985
 H498 H 1.08361 0.61333 -0.13618
 C499 C 0.80038 0.48118 -0.38050
 C500 C 0.82934 0.49390 -0.36881
 C501 C 0.84293 0.49047 -0.31212
 C502 C 0.87245 0.50623 -0.30945
 C503 C 0.88700 0.50434 -0.25803
 C504 C 0.87240 0.48681 -0.20716
 C505 C 0.84286 0.47031 -0.21006
 C506 C 0.82811 0.47222 -0.26208
 C507 C 0.88828 0.48512 -0.15268
 C508 C 0.91378 0.50864 -0.13555
 H509 H 0.84355 0.50851 -0.40359
 H510 H 0.88448 0.52007 -0.34765
 H511 H 0.90982 0.51638 -0.25883
 H512 H 0.83122 0.45626 -0.17183
 H513 H 0.80537 0.45941 -0.26277
 H514 H 0.88099 0.46498 -0.12923
 H515 H 0.78522 0.46882 -0.34487
 H516 H 0.91977 0.52891 -0.15705
 C517 C 0.50671 0.31757 -0.38091
 C518 C 0.49902 0.33828 -0.37550
 C519 C 0.49815 0.35101 -0.31605
 C520 C 0.48138 0.36360 -0.31315
 C521 C 0.48115 0.37761 -0.25991
 C522 C 0.49778 0.37943 -0.20796
 C523 C 0.51483 0.36709 -0.21084
 C524 C 0.51492 0.35280 -0.26432
 C525 C 0.49911 0.39602 -0.15298
 C526 C 0.47655 0.39971 -0.13740
 H527 H 0.49147 0.34456 -0.41578
 H528 H 0.46869 0.36299 -0.35274
 H529 H 0.46867 0.38788 -0.26071
 H530 H 0.52827 0.36873 -0.17192
 H531 H 0.52876 0.34407 -0.26569
 H532 H 0.51877 0.40706 -0.12734
 H533 H 0.50988 0.30856 -0.33848
 H534 H 0.45645 0.38725 -0.16059
 C535 C 0.68579 0.17866 -0.39661
 C536 C 0.65752 0.16570 -0.37925
 C537 C 0.64531 0.14557 -0.32670
 C538 C 0.62152 0.14306 -0.29702
 C539 C 0.60778 0.12260 -0.25079
 C540 C 0.61732 0.10387 -0.23398
 C541 C 0.64102 0.10620 -0.26391
 C542 C 0.65516 0.12713 -0.30949
 C543 C 0.60150 0.08082 -0.18846
 C544 C 0.58829 0.08478 -0.13789
 H545 H 0.64364 0.17102 -0.40486
 H546 H 0.61330 0.15674 -0.31029
 H547 H 0.58906 0.12080 -0.22988
 H548 H 0.64844 0.09171 -0.25224
 H549 H 0.67304 0.12813 -0.33283
 H550 H 0.59941 0.06035 -0.19612
 H551 H 0.70091 0.17687 -0.36688
 H552 H 0.59275 0.10595 -0.12755
 C553 C 1.18366 0.50116 -0.39432
 C554 C 1.16299 0.50859 -0.38560
 C555 C 1.14637 0.50213 -0.32829
 C556 C 1.14060 0.52249 -0.30540
 C557 C 1.12245 0.51616 -0.25521
 C558 C 1.10918 0.48904 -0.22791
 C559 C 1.11502 0.46863 -0.25059
 C560 C 1.13388 0.47525 -0.29995
 C561 C 1.08735 0.48135 -0.18008
 C562 C 1.08956 0.50084 -0.13634
 H563 H 1.16072 0.52234 -0.41897
 H564 H 1.14977 0.54320 -0.32721
 H565 H 1.11779 0.53210 -0.23975
 H566 H 1.10470 0.44750 -0.23068
 H567 H 1.13766 0.45907 -0.31782
 H568 H 1.06860 0.46062 -0.18167
 H569 H 1.18947 0.49260 -0.35476
 H570 H 1.10951 0.52026 -0.13062
 C571 C 0.48430 0.67442 -0.38729
 C572 C 0.49572 0.65658 -0.38328
 C573 C 0.50070 0.64556 -0.32440
 C574 C 0.48310 0.63898 -0.27234
 C575 C 0.48722 0.62597 -0.21972
 C576 C 0.50912 0.61958 -0.21856
 C577 C 0.52723 0.62729 -0.26979
 C578 C 0.52289 0.63984 -0.32227
 C579 C 0.51317 0.60345 -0.16764
 C580 C 0.49286 0.58690 -0.12339
 H581 H 0.50455 0.65285 -0.42432
 H582 H 0.46561 0.64290 -0.27306
 H583 H 0.47303 0.62068 -0.18087
 H584 H 0.54428 0.62268 -0.27022
 H585 H 0.53675 0.64475 -0.36181
 H586 H 0.53198 0.60169 -0.16994
 H587 H 0.48005 0.68167 -0.34437
 H588 H 0.47417 0.58851 -0.11719
 C589 C 0.32533 -0.19480 -0.37024
 C590 C 0.34406 -0.16589 -0.36500
 C591 C 0.35642 -0.15188 -0.30543
 C592 C 0.36600 -0.12297 -0.30101
 C593 C 0.37883 -0.10849 -0.24669
 C594 C 0.38243 -0.12266 -0.19535
 C595 C 0.37328 -0.15153 -0.20002
 C596 C 0.36019 -0.16613 -0.25447
 C597 C 0.39783 -0.10708 -0.13917
 C598 C 0.39915 -0.08196 -0.12266
 H599 H 0.34863 -0.15251 -0.40592
 H600 H 0.36380 -0.11143 -0.34001
 H601 H 0.38675 -0.08598 -0.24610
 H602 H 0.37646 -0.16272 -0.16167
 H603 H 0.35383 -0.18826 -0.25709
 H604 H 0.41043 -0.11415 -0.11391
 H605 H 0.31764 -0.20781 -0.32863
 H606 H 0.38557 -0.07560 -0.14593
 C607 C 0.48204 -0.19209 0.39084
 C608 C 0.50140 -0.16333 0.38315
 C609 C 0.50431 -0.14646 0.32654
 C610 C 0.48277 -0.15478 0.28178
 C611 C 0.48575 -0.13673 0.23186
 C612 C 0.51036 -0.11006 0.22598
 C613 C 0.53205 -0.10232 0.26988
 C614 C 0.52902 -0.12022 0.31963
 C615 C 0.51394 -0.08876 0.17807
 C616 C 0.49359 -0.09195 0.13424
 H617 H 0.51625 -0.15254 0.42053
 H618 H 0.46325 -0.17469 0.28621
 H619 H 0.46846 -0.14362 0.19931
 H620 H 0.55121 -0.08194 0.26670
 H621 H 0.54591 -0.11327 0.35354
 H622 H 0.53320 -0.06845 0.18036
 H623 H 0.46944 -0.20448 0.35198
 H624 H 0.47442 -0.11198 0.12833
 C625 C 0.32779 0.52625 0.39207
 C626 C 0.35003 0.52072 0.39058
 C627 C 0.36433 0.52022 0.33307
 C628 C 0.38013 0.50654 0.33544
 C629 C 0.39424 0.50551 0.28301
 C630 C 0.39286 0.51813 0.22660
 C631 C 0.37790 0.53272 0.22448
 C632 C 0.36358 0.53366 0.27720
 C633 C 0.40756 0.51665 0.17074
 C634 C 0.41033 0.49308 0.16094
 H635 H 0.35633 0.51471 0.43335
 H636 H 0.38153 0.49651 0.37811
 H637 H 0.40657 0.49513 0.28712
 H638 H 0.37703 0.54307 0.18186
 H639 H 0.35239 0.54521 0.27412
 H640 H 0.41678 0.53434 0.13837
 H641 H 0.31901 0.52881 0.34881
 H642 H 0.39927 0.47483 0.19138
 C643 C 1.18500 0.69001 0.39727
 C644 C 1.17366 0.66258 0.37564
 C645 C 1.15468 0.65161 0.32157
 C646 C 1.15479 0.63032 0.28666
 C647 C 1.13487 0.61691 0.23982
 C648 C 1.11393 0.62411 0.22802
 C649 C 1.11418 0.64588 0.26210
 C650 C 1.13460 0.65976 0.30824
 C651 C 1.09054 0.60753 0.18442
 C652 C 1.09242 0.58965 0.14239
 H653 H 1.17934 0.64846 0.39915
 H654 H 1.16999 0.62363 0.29659
 H655 H 1.13518 0.60006 0.21485
 H656 H 1.09817 0.65166 0.25406
 H657 H 1.13377 0.67581 0.33540
 H658 H 1.07107 0.60803 0.18812
 H659 H 1.18299 0.70576 0.37017
 H660 H 1.07799 0.57787 0.12358
 C661 C 0.50288 0.18663 0.39327
 C662 C 0.51860 0.17463 0.37335
 C663 C 0.51078 0.15578 0.31946
 C664 C 0.53194 0.15320 0.28954
 C665 C 0.52512 0.13370 0.24210
 C666 C 0.49684 0.11613 0.22416
 C667 C 0.47566 0.11880 0.25382
 C668 C 0.48254 0.13862 0.30079
 C669 C 0.48884 0.09317 0.17929
 C670 C 0.50703 0.09452 0.13289
 H671 H 0.53794 0.17972 0.39785
 H672 H 0.55379 0.16592 0.30379
 H673 H 0.54191 0.13161 0.22162
 H674 H 0.45371 0.10517 0.24137
 H675 H 0.46565 0.13958 0.32408
 H676 H 0.46842 0.07422 0.18450
 H677 H 0.48582 0.18516 0.36467
 H678 H 0.52624 0.11424 0.12331
 C679 C 0.68388 0.50330 0.37705
 C680 C 0.65513 0.49111 0.36492
 C681 C 0.64425 0.49577 0.30559
 C682 C 0.61842 0.47440 0.28237
 C683 C 0.60651 0.47921 0.22914
 C684 C 0.62001 0.50577 0.19911
 C685 C 0.64592 0.52710 0.22218
 C686 C 0.65815 0.52207 0.27457
 C687 C 0.60566 0.51264 0.14924
 C688 C 0.58668 0.49244 0.10820
 H689 H 0.64010 0.47742 0.39966
 H690 H 0.60722 0.45412 0.30611
 H691 H 0.58607 0.46261 0.21356
 H692 H 0.65638 0.54787 0.20045
 H693 H 0.67779 0.53917 0.29240
 H694 H 0.60841 0.53368 0.14825
 H695 H 0.69881 0.51363 0.33956
 H696 H 0.58600 0.47240 0.10431
 C697 C 0.81550 0.30658 0.36581
 C698 C 0.84470 0.31940 0.35979
 C699 C 0.86028 0.33330 0.30224
 C700 C 0.84943 0.34380 0.25612
 C701 C 0.86628 0.35979 0.20598
 C702 C 0.89429 0.36555 0.20128
 C703 C 0.90456 0.35406 0.24621
 C704 C 0.88784 0.33832 0.29628
 C705 C 0.91428 0.38473 0.15352
 C706 C 0.90967 0.40257 0.11404
 H707 H 0.85693 0.31929 0.39964
 H708 H 0.82841 0.34075 0.25983
 H709 H 0.85739 0.36797 0.17219
 H710 H 0.92602 0.35811 0.24385
 H711 H 0.89673 0.33056 0.33130
 H712 H 0.93508 0.38695 0.15378
 H713 H 0.80243 0.30290 0.32500
 H714 H 0.88915 0.40074 0.11019
   
