data_POSCAR
  _audit_creation_date              2014-09-24
  _audit_creation_method            'ToBaCCo'
  _symmetry_space_group_name_H-M    'P1'
  _symmetry_Int_Tables_number       1
  _symmetry_cell_setting            triclinic
  loop_
  _symmetry_equiv_pos_as_xyz
 x,y,z
_cell_length_a 57.6701
_cell_length_b 57.3551
_cell_length_c 21.3072
_cell_angle_alpha 90.017900
_cell_angle_beta 90.169500
_cell_angle_gamma 121.737500
loop_
  _atom_site_label
  _atom_site_type_symbol
  _atom_site_fract_x
  _atom_site_fract_y
  _atom_site_fract_z
C1 C 0.19127 0.47310 0.57115
 C2 C 0.18035 0.47665 0.51550
 C3 C 0.19157 0.47820 0.45598
 C4 C 0.21529 0.47654 0.45203
 C5 C 0.22655 0.47241 0.50747
 C6 C 0.21429 0.47025 0.56688
 C7 C 0.22658 0.46711 0.62072
 C8 C 0.24986 0.46580 0.61690
 C9 C 0.26247 0.46782 0.55903
 C10 C 0.25082 0.47151 0.50375
 C11 C 0.22902 0.48038 0.39466
 C12 C 0.25271 0.47973 0.39129
 C13 C 0.26403 0.47549 0.44505
 C14 C 0.28827 0.47514 0.44143
 C15 C 0.29912 0.47100 0.49578
 C16 C 0.28737 0.46823 0.55515
 H17 H 0.21906 0.46640 0.66739
 H18 H 0.25804 0.46404 0.66095
 H19 H 0.22235 0.48486 0.35146
 H20 H 0.26222 0.48281 0.34582
 H21 H 0.16116 0.47568 0.51839
 H22 H 0.31731 0.47007 0.49105
 C23 C 0.52447 -0.28969 0.44876
 C24 C 0.53078 -0.29700 0.50604
 C25 C 0.52724 -0.28729 0.56367
 C26 C 0.51891 -0.26787 0.56285
 C27 C 0.51377 -0.25923 0.50465
 C28 C 0.51629 -0.27044 0.44761
 C29 C 0.51067 -0.26205 0.39053
 C30 C 0.50249 -0.24321 0.38928
 C31 C 0.49997 -0.23167 0.44494
 C32 C 0.50555 -0.23973 0.50336
 C33 C 0.51629 -0.25621 0.61844
 C34 C 0.50797 -0.23744 0.61733
 C35 C 0.50262 -0.22861 0.56041
 C36 C 0.49333 -0.20997 0.55882
 C37 C 0.48748 -0.20291 0.50015
 C38 C 0.49132 -0.21278 0.44386
 H39 H 0.51271 -0.26985 0.34598
 H40 H 0.49790 -0.23800 0.34405
 H41 H 0.52090 -0.26110 0.66393
 H42 H 0.50547 -0.23041 0.66233
 H43 H 0.53552 -0.31294 0.50547
 H44 H 0.48180 -0.18771 0.49700
 C45 C 1.16088 0.74940 0.56285
 C46 C 1.14645 0.74039 0.50574
 C47 C 1.15904 0.75013 0.44776
 C48 C 1.18674 0.77132 0.44574
 C49 C 1.20183 0.78188 0.50243
 C50 C 1.18880 0.77129 0.56131
 C51 C 1.20472 0.78163 0.61625
 C52 C 1.23254 0.80074 0.61379
 C53 C 1.24611 0.81088 0.55634
 C54 C 1.23045 0.80166 0.49987
 C55 C 1.20004 0.78116 0.38817
 C56 C 1.22771 0.80040 0.38558
 C57 C 1.24353 0.81090 0.44057
 C58 C 1.27226 0.82884 0.43780
 C59 C 1.28712 0.83736 0.49413
 C60 C 1.27500 0.82851 0.55335
 H61 H 1.19642 0.77481 0.66250
 H62 H 1.24320 0.80658 0.65816
 H63 H 1.18936 0.77359 0.34399
 H64 H 1.23644 0.80589 0.33925
 H65 H 1.12485 0.72507 0.50544
 H66 H 1.30854 0.85310 0.49195
 C67 C 0.80332 0.50715 0.54423
 C68 C 0.81242 0.50756 0.48266
 C69 C 0.79478 0.49807 0.43115
 C70 C 0.76714 0.48932 0.43948
 C71 C 0.75743 0.49006 0.50017
 C72 C 0.77539 0.49877 0.55288
 C73 C 0.76436 0.49732 0.61274
 C74 C 0.73701 0.48843 0.62063
 C75 C 0.71909 0.48067 0.56917
 C76 C 0.72943 0.48125 0.50826
 C77 C 0.74904 0.48010 0.38827
 C78 C 0.72188 0.47183 0.39610
 C79 C 0.71175 0.47266 0.45534
 C80 C 0.68416 0.46440 0.46328
 C81 C 0.67402 0.46263 0.52349
 C82 C 0.69086 0.47083 0.57709
 H83 H 0.77623 0.50231 0.65522
 H84 H 0.73017 0.48711 0.66833
 H85 H 0.75572 0.47931 0.34133
 H86 H 0.70878 0.46432 0.35518
 H87 H 0.83368 0.51520 0.47361
 H88 H 0.65295 0.45696 0.52739
 C89 C 0.50018 0.29478 0.54691
 C90 C 0.49834 0.30476 0.48846
 C91 C 0.49952 0.29264 0.43257
 C92 C 0.50183 0.26929 0.43488
 C93 C 0.50256 0.25822 0.49393
 C94 C 0.50209 0.27124 0.55008
 C95 C 0.50269 0.25993 0.60800
 C96 C 0.50339 0.23610 0.61101
 C97 C 0.50395 0.22269 0.55610
 C98 C 0.50357 0.23398 0.49683
 C99 C 0.50281 0.25640 0.37978
 C100 C 0.50395 0.23277 0.38247
 C101 C 0.50385 0.22095 0.44037
 C102 C 0.50439 0.19666 0.44339
 C103 C 0.50316 0.18496 0.50180
 C104 C 0.50316 0.19748 0.55847
 H105 H 0.50188 0.26901 0.65184
 H106 H 0.50276 0.22812 0.65726
 H107 H 0.50236 0.26428 0.33393
 H108 H 0.50464 0.22373 0.33849
 H109 H 0.49737 0.32313 0.48636
 H110 H 0.50345 0.16622 0.50274
 C111 C 0.71551 0.20374 0.56509
 C112 C 0.70430 0.18940 0.50894
 C113 C 0.71331 0.20213 0.45070
 C114 C 0.73484 0.22981 0.44795
 C115 C 0.74719 0.24443 0.50430
 C116 C 0.73747 0.23134 0.56318
 C117 C 0.74890 0.24665 0.61834
 C118 C 0.76960 0.27423 0.61589
 C119 C 0.78026 0.28757 0.55817
 C120 C 0.76835 0.27255 0.50173
 C121 C 0.74410 0.24330 0.39014
 C122 C 0.76444 0.27083 0.38757
 C123 C 0.77677 0.28585 0.44261
 C124 C 0.79636 0.31417 0.44023
 C125 C 0.80689 0.32890 0.49577
 C126 C 0.80059 0.31604 0.55456
 H127 H 0.74147 0.23756 0.66405
 H128 H 0.77617 0.28519 0.65992
 H129 H 0.73545 0.23278 0.34616
 H130 H 0.76990 0.28034 0.34179
 H131 H 0.68713 0.16840 0.51078
 H132 H 0.82201 0.35068 0.49244
 N133 N 0.97226 0.46579 0.10267
 N134 N 0.94948 0.45052 0.13396
 N135 N 1.03362 0.48535 0.08515
 N136 N 1.05382 0.48300 0.10693
 N137 N 1.02860 0.50005 0.12367
 N138 N 1.04527 0.50826 0.17222
 N139 N 0.97712 0.45067 0.06528
 N140 N 0.95773 0.42451 0.07051
 C141 C 0.94060 0.42486 0.11335
 C142 C 1.06091 0.49763 0.16115
 N143 N 1.04361 0.50288 -0.09388
 N144 N 1.06549 0.51179 -0.12863
 N145 N 0.98598 0.45208 -0.06774
 N146 N 0.96577 0.42653 -0.07721
 N147 N 0.98690 0.46808 -0.11298
 N148 N 0.96729 0.45390 -0.15425
 N149 N 1.04261 0.48647 -0.04960
 N150 N 1.06368 0.48323 -0.05426
 Mn151 Mn 1.00997 0.46838 0.00840
 C152 C 1.07786 0.49953 -0.10354
 C153 C 0.95442 0.42800 -0.13159
 N154 N 1.02383 0.54712 0.11333
 N155 N 1.03991 0.56101 0.16063
 N156 N 0.96916 0.52963 0.04792
 N157 N 0.94929 0.53457 0.05271
 N158 N 0.96736 0.51303 0.09268
 N159 N 0.94607 0.50601 0.12864
 N160 N 1.02556 0.56371 0.06855
 N161 N 1.04276 0.58960 0.08502
 Mn162 Mn 0.99792 0.50643 0.10854
 C163 C 1.05160 0.58735 0.14262
 C164 C 0.93479 0.51929 0.10259
 N165 N 0.98248 0.51550 -0.12376
 N166 N 0.96611 0.50761 -0.17268
 N167 N 1.03451 0.56522 -0.06651
 N168 N 1.05059 0.59142 -0.08138
 N169 N 1.03880 0.54979 -0.10440
 N170 N 1.05806 0.56497 -0.14505
 N171 N 0.97800 0.53081 -0.08601
 N172 N 0.95824 0.53373 -0.10862
 Mn173 Mn 1.01295 0.50902 -0.10912
 Mn174 Mn 1.00184 0.54768 -0.00905
 Cl175 Cl 1.00573 0.50795 -0.00028
 C176 C 0.95100 0.51888 -0.16259
 C177 C 1.06553 0.59082 -0.12971
 N178 N 0.46642 0.49164 0.10362
 N179 N 0.45258 0.49607 0.14651
 N180 N 0.47132 0.44244 0.06186
 N181 N 0.46289 0.41630 0.06992
 N182 N 0.48803 0.45743 0.10725
 N183 N 0.49183 0.44203 0.14674
 N184 N 0.45014 0.47661 0.05759
 N185 N 0.42497 0.47030 0.06816
 C186 C 0.42684 0.48299 0.12298
 C187 C 0.47604 0.41647 0.12286
 N188 N 0.49415 0.46026 -0.11348
 N189 N 0.49878 0.44568 -0.15366
 N190 N 0.45408 0.47864 -0.07759
 N191 N 0.43072 0.47630 -0.09319
 N192 N 0.47338 0.49495 -0.11683
 N193 N 0.46393 0.50442 -0.15955
 N194 N 0.47505 0.44420 -0.07361
 N195 N 0.46581 0.41818 -0.08620
 Mn196 Mn 0.46238 0.46023 -0.00797
 C197 C 0.48108 0.41951 -0.13579
 C198 C 0.43744 0.49276 -0.14418
 N199 N 0.54247 0.50459 0.11550
 N200 N 0.55227 0.49466 0.15659
 N201 N 0.54081 0.55504 0.07117
 N202 N 0.55088 0.58115 0.08430
 N203 N 0.52146 0.53925 0.11102
 N204 N 0.51766 0.55421 0.15186
 N205 N 0.56131 0.52034 0.07472
 N206 N 0.58442 0.52174 0.08712
 Mn207 Mn 0.50456 0.49828 0.11012
 C208 C 0.57844 0.50555 0.13806
 C209 C 0.53600 0.58026 0.13420
 N210 N 0.52751 0.54198 -0.10889
 N211 N 0.52476 0.55767 -0.14971
 N212 N 0.56516 0.52188 -0.06022
 N213 N 0.58781 0.52137 -0.06365
 N214 N 0.54824 0.50708 -0.10537
 N215 N 0.55860 0.49584 -0.14018
 N216 N 0.54464 0.55688 -0.06412
 N217 N 0.55441 0.58321 -0.07382
 Mn218 Mn 0.51084 0.50111 -0.11170
 Mn219 Mn 0.55329 0.53880 0.00546
 Cl220 Cl 0.50772 0.49963 -0.00090
 C221 C 0.54156 0.58330 -0.12705
 C222 C 0.58328 0.50497 -0.11390
 N223 N 0.45249 -0.03331 0.07500
 N224 N 0.42732 -0.05325 0.08807
 N225 N 0.50036 0.02384 0.11770
 N226 N 0.50966 0.04428 0.15812
 N227 N 0.48298 0.02431 0.07857
 N228 N 0.47989 0.04505 0.09148
 N229 N 0.46991 -0.03382 0.11394
 N230 N 0.45724 -0.05421 0.15389
 C231 C 0.43080 -0.06616 0.13715
 C232 C 0.49673 0.05733 0.14114
 N233 N 0.56514 0.02335 0.06203
 N234 N 0.59101 0.04235 0.07212
 N235 N 0.51908 -0.03442 0.10382
 N236 N 0.51222 -0.05518 0.14188
 N237 N 0.53426 -0.03419 0.05774
 N238 N 0.53841 -0.05468 0.06366
 N239 N 0.54980 0.02334 0.10745
 N240 N 0.56467 0.04251 0.14915
 Mn241 Mn 0.50981 -0.00523 0.11135
 C242 C 0.59027 0.05429 0.12630
 C243 C 0.52434 -0.06769 0.11618
 N244 N 0.47957 0.02589 -0.05617
 N245 N 0.47345 0.04489 -0.06410
 N246 N 0.46454 -0.03087 -0.10665
 N247 N 0.44954 -0.04913 -0.14997
 N248 N 0.44920 -0.03157 -0.06037
 N249 N 0.42327 -0.05017 -0.07135
 N250 N 0.49546 0.02692 -0.10150
 N251 N 0.50097 0.04693 -0.14088
 Mn252 Mn 0.46575 -0.00372 0.00940
 C253 C 0.48734 0.05811 -0.11652
 C254 C 0.42388 -0.06119 -0.12711
 N255 N 0.53100 -0.03238 -0.07746
 N256 N 0.53273 -0.05405 -0.08924
 N257 N 0.54478 0.02628 -0.11187
 N258 N 0.55751 0.04777 -0.14896
 N259 N 0.56202 0.02539 -0.07304
 N260 N 0.58709 0.04628 -0.08303
 N261 N 0.51392 -0.03136 -0.11660
 N262 N 0.50344 -0.05231 -0.15565
 Mn263 Mn 0.54842 -0.00448 -0.00785
 Mn264 Mn 0.50472 -0.00222 -0.10979
 Cl265 Cl 0.50717 -0.00392 0.00076
 C266 C 0.51538 -0.06623 -0.13821
 C267 C 0.58386 0.06006 -0.13050
 C268 C 1.17827 0.48013 0.40188
 C269 C 1.16168 0.49121 0.40287
 C270 C 1.14583 0.49093 0.34839
 N271 N 1.13228 0.50428 0.35236
 N272 N 1.11685 0.50354 0.30498
 C273 C 1.11427 0.48937 0.25169
 N274 N 1.12792 0.47604 0.24749
 N275 N 1.14346 0.47682 0.29500
 C276 C 1.09613 0.48762 0.20052
 C277 C 1.08180 0.50091 0.20584
 H278 H 1.16080 0.50156 0.44444
 H279 H 1.09317 0.47500 0.15987
 H280 H 1.18099 0.47318 0.35697
 H281 H 1.08494 0.51351 0.24668
 C282 C 0.52255 0.69438 0.39223
 C283 C 0.54229 0.68834 0.37726
 C284 C 0.53703 0.66742 0.33010
 N285 N 0.55800 0.66628 0.30497
 N286 N 0.55319 0.64634 0.26493
 C287 C 0.52722 0.62667 0.24926
 N288 N 0.50628 0.62774 0.27464
 N289 N 0.51110 0.64783 0.31407
 C290 C 0.52152 0.60351 0.20884
 C291 C 0.54094 0.60466 0.16833
 H292 H 0.56158 0.69845 0.40221
 H293 H 0.50147 0.58503 0.21109
 H294 H 0.50431 0.68599 0.36357
 H295 H 0.56016 0.62377 0.16156
 C296 C 0.28648 -0.16117 0.38050
 C297 C 0.31336 -0.15455 0.37328
 C298 C 0.32964 -0.14147 0.31703
 N299 N 0.35459 -0.13821 0.31238
 N300 N 0.37082 -0.12455 0.26451
 C301 C 0.36279 -0.11354 0.21940
 N302 N 0.33762 -0.11712 0.22348
 N303 N 0.32129 -0.13088 0.27148
 C304 C 0.38199 -0.09595 0.17041
 C305 C 0.40902 -0.08898 0.17256
 H306 H 0.32303 -0.15962 0.40993
 H307 H 0.37567 -0.08615 0.13687
 H308 H 0.27646 -0.15927 0.33968
 H309 H 0.41533 -0.09838 0.20723
 C310 C 0.80551 0.49513 0.37047
 C311 C 0.82962 0.51650 0.34503
 C312 C 0.84454 0.51190 0.29560
 N313 N 0.86478 0.53352 0.26378
 N314 N 0.88017 0.52993 0.22315
 C315 C 0.87609 0.50462 0.21341
 N316 N 0.85582 0.48300 0.24514
 N317 N 0.84024 0.48655 0.28525
 C318 C 0.89481 0.50084 0.17418
 C319 C 0.91213 0.52034 0.13067
 H320 H 0.83865 0.53692 0.36459
 H321 H 0.89579 0.48269 0.18165
 H322 H 0.79513 0.47523 0.34782
 H323 H 0.90977 0.53735 0.11887
 C324 C 0.50010 0.30613 0.37302
 C325 C 0.47968 0.31132 0.35834
 C326 C 0.48313 0.33095 0.30945
 N327 N 0.50838 0.35103 0.29085
 N328 N 0.51148 0.37054 0.25159
 C329 C 0.48945 0.37051 0.22894
 N330 N 0.46417 0.35023 0.24691
 N331 N 0.46109 0.33091 0.28679
 C332 C 0.49332 0.39355 0.19051
 C333 C 0.47283 0.39183 0.15238
 H334 H 0.46122 0.30186 0.38609
 H335 H 0.51285 0.41268 0.19315
 H336 H 0.51756 0.31342 0.34250
 H337 H 0.45426 0.37225 0.14415
 C338 C 0.69742 0.18712 0.39439
 C339 C 0.69215 0.16117 0.37915
 C340 C 0.67253 0.14461 0.32960
 N341 N 0.67308 0.12342 0.30290
 N342 N 0.65434 0.10741 0.26046
 C343 C 0.63423 0.11187 0.24382
 N344 N 0.63364 0.13297 0.27073
 N345 N 0.65254 0.14917 0.31251
 C346 C 0.61197 0.09295 0.20188
 C347 C 0.61442 0.07603 0.15915
 H348 H 0.70227 0.15270 0.40488
 H349 H 0.59277 0.09206 0.20542
 H350 H 0.68925 0.19659 0.36515
 H351 H 0.63409 0.07851 0.15038
 C352 C 0.50343 0.18501 -0.38457
 C353 C 0.49005 0.15657 -0.37811
 C354 C 0.49351 0.14337 -0.32307
 N355 N 0.47256 0.11863 -0.30398
 N356 N 0.47613 0.10500 -0.25821
 C357 C 0.50092 0.11542 -0.23065
 N358 N 0.52193 0.14015 -0.24989
 N359 N 0.51824 0.15401 -0.29498
 C360 C 0.50565 0.09891 -0.18586
 C361 C 0.48486 0.07939 -0.14808
 H362 H 0.47566 0.14331 -0.41370
 H363 H 0.52556 0.10125 -0.18469
 H364 H 0.51331 0.19735 -0.34336
 H365 H 0.46596 0.07901 -0.14355
 C366 C 0.67952 0.47096 -0.36412
 C367 C 0.65187 0.45334 -0.35053
 C368 C 0.63796 0.45774 -0.29848
 N369 N 0.65049 0.48099 -0.26314
 N370 N 0.63637 0.48588 -0.22133
 C371 C 0.60924 0.46769 -0.21355
 N372 N 0.59694 0.44434 -0.24814
 N373 N 0.61101 0.43946 -0.28979
 C374 C 0.59228 0.47389 -0.17438
 C375 C 0.60235 0.49742 -0.13772
 H376 H 0.63929 0.43597 -0.38087
 H377 H 0.57039 0.46007 -0.17844
 H378 H 0.69221 0.48530 -0.32801
 H379 H 0.62399 0.51066 -0.12871
 C380 C 0.81565 0.33305 -0.39451
 C381 C 0.82660 0.32558 -0.34537
 C382 C 0.84837 0.34683 -0.30499
 N383 N 0.86219 0.34030 -0.26404
 N384 N 0.88330 0.35986 -0.23137
 C385 C 0.89139 0.38665 -0.23872
 N386 N 0.87738 0.39308 -0.27899
 N387 N 0.85631 0.37359 -0.31138
 C388 C 0.91553 0.40892 -0.20660
 C389 C 0.93005 0.40463 -0.16048
 H390 H 0.82221 0.30482 -0.34174
 H391 H 0.92210 0.42973 -0.21999
 H392 H 0.82398 0.35483 -0.40039
 H393 H 0.92307 0.38411 -0.14409
 C394 C 0.49154 -0.19691 -0.38659
 C395 C 0.47460 -0.18630 -0.38264
 C396 C 0.47728 -0.16708 -0.33350
 N397 N 0.49817 -0.15631 -0.29144
 N398 N 0.50155 -0.13695 -0.25114
 C399 C 0.48416 -0.12770 -0.25166
 N400 N 0.46316 -0.13873 -0.29318
 N401 N 0.45980 -0.15803 -0.33338
 C402 C 0.48856 -0.10486 -0.21179
 C403 C 0.51006 -0.09146 -0.16924
 H404 H 0.45895 -0.19167 -0.41774
 H405 H 0.47490 -0.09744 -0.21859
 H406 H 0.50392 -0.19435 -0.34598
 H407 H 0.52332 -0.09912 -0.15966
 C408 C 0.30106 0.46670 -0.39121
 C409 C 0.32943 0.47959 -0.38873
 C410 C 0.34441 0.47953 -0.33317
 N411 N 0.37179 0.49685 -0.33155
 N412 N 0.38625 0.49697 -0.28281
 C413 C 0.37396 0.47974 -0.23371
 N414 N 0.34647 0.46236 -0.23512
 N415 N 0.33190 0.46232 -0.28398
 C416 C 0.39051 0.47882 -0.18216
 C417 C 0.41869 0.49655 -0.18271
 H418 H 0.34178 0.49248 -0.42709
 H419 H 0.38095 0.46286 -0.14707
 H420 H 0.29009 0.45715 -0.34861
 H421 H 0.42799 0.51234 -0.21826
 C422 C 1.14780 0.73509 -0.38120
 C423 C 1.12713 0.70731 -0.38146
 C424 C 1.11679 0.69058 -0.32448
 N425 N 1.10531 0.66314 -0.32974
 N426 N 1.09610 0.64719 -0.27937
 C427 C 1.09780 0.65798 -0.22165
 N428 N 1.10890 0.68548 -0.21625
 N429 N 1.11845 0.70157 -0.26682
 C430 C 1.08685 0.63970 -0.16687
 C431 C 1.08380 0.61399 -0.16992
 H432 H 1.12096 0.69587 -0.42501
 H433 H 1.07960 0.64558 -0.12665
 H434 H 1.15539 0.74419 -0.33572
 H435 H 1.09270 0.60935 -0.20904
 C436 C 0.82190 0.51449 -0.40482
 C437 C 0.84511 0.51257 -0.40765
 C438 C 0.86330 0.51766 -0.35407
 N439 N 0.88284 0.51152 -0.36042
 N440 N 0.89923 0.51491 -0.31275
 C441 C 0.89682 0.52462 -0.25662
 N442 N 0.87745 0.53115 -0.25024
 N443 N 0.86089 0.52765 -0.29814
 C444 C 0.91488 0.52762 -0.20390
 C445 C 0.93081 0.51603 -0.20875
 H446 H 0.84913 0.50428 -0.44883
 H447 H 0.91560 0.53864 -0.16193
 H448 H 0.81780 0.52026 -0.36002
 H449 H 0.92893 0.50420 -0.25020
 C450 C 0.50194 0.31058 -0.39658
 C451 C 0.48246 0.31727 -0.38414
 C452 C 0.48635 0.33677 -0.33448
 N453 N 0.46467 0.33740 -0.31213
 N454 N 0.46821 0.35617 -0.26995
 C455 C 0.49360 0.37519 -0.24921
 N456 N 0.51528 0.37463 -0.27174
 N457 N 0.51171 0.35566 -0.31333
 C458 C 0.49802 0.39742 -0.20704
 C459 C 0.47740 0.39547 -0.16938
 H460 H 0.46409 0.30833 -0.41248
 H461 H 0.51801 0.41604 -0.20632
 H462 H 0.51909 0.31733 -0.36498
 H463 H 0.45819 0.37616 -0.16503
 C464 C 0.70155 0.18990 -0.37600
 C465 C 0.67401 0.18073 -0.36948
 C466 C 0.65624 0.16170 -0.32062
 N467 N 0.66483 0.14941 -0.28021
 N468 N 0.64733 0.13022 -0.24051
 C469 C 0.62068 0.12269 -0.24000
 N470 N 0.61232 0.13525 -0.27984
 N471 N 0.62974 0.15435 -0.31940
 C472 C 0.60026 0.10007 -0.20106
 C473 C 0.60619 0.08501 -0.15990
 H474 H 0.66441 0.18643 -0.40504
 H475 H 0.57920 0.09417 -0.20758
 H476 H 0.71246 0.18627 -0.33974
 H477 H 0.62709 0.09110 -0.15039
 C478 C 1.17856 0.47190 -0.37091
 C479 C 1.16527 0.48614 -0.36068
 C480 C 1.15177 0.48529 -0.30147
 N481 N 1.14680 0.50545 -0.28942
 N482 N 1.13325 0.50463 -0.23826
 C483 C 1.12391 0.48352 -0.19707
 N484 N 1.12889 0.46326 -0.20900
 N485 N 1.14272 0.46420 -0.26013
 C486 C 1.10643 0.48150 -0.14404
 C487 C 1.10282 0.50321 -0.13114
 H488 H 1.16650 0.50040 -0.39578
 H489 H 1.09379 0.46193 -0.12103
 H490 H 1.18013 0.46111 -0.33123
 H491 H 1.11555 0.52248 -0.15523
 C492 C 0.52900 0.70059 -0.38004
 C493 C 0.54490 0.68887 -0.37359
 C494 C 0.54086 0.67003 -0.32210
 N495 N 0.56148 0.66656 -0.30440
 N496 N 0.55730 0.64758 -0.26220
 C497 C 0.53220 0.63106 -0.23694
 N498 N 0.51157 0.63449 -0.25474
 N499 N 0.51585 0.65375 -0.29622
 C500 C 0.52660 0.60806 -0.19593
 C501 C 0.54667 0.60826 -0.15904
 H502 H 0.56070 0.69338 -0.40742
 H503 H 0.50606 0.59024 -0.19534
 H504 H 0.51713 0.69953 -0.33976
 H505 H 0.56640 0.62695 -0.15360
 C506 C 0.29213 -0.16200 -0.39267
 C507 C 0.31936 -0.15501 -0.39484
 C508 C 0.33950 -0.14101 -0.34431
 N509 N 0.33419 -0.13088 -0.29228
 N510 N 0.35381 -0.11639 -0.25002
 C511 C 0.37936 -0.11156 -0.25845
 N512 N 0.38444 -0.12193 -0.31008
 N513 N 0.36492 -0.13635 -0.35213
 C514 C 0.40211 -0.09393 -0.21583
 C515 C 0.39947 -0.08200 -0.16153
 H516 H 0.32674 -0.16009 -0.43617
 H517 H 0.42221 -0.08920 -0.22962
 H518 H 0.28438 -0.16054 -0.34774
 H519 H 0.37953 -0.08721 -0.14532
 C520 C 0.48628 -0.20196 0.38570
 C521 C 0.50706 -0.18623 0.34301
 C522 C 0.50525 -0.16740 0.29891
 N523 N 0.52598 -0.15197 0.25854
 N524 N 0.52553 -0.13323 0.22233
 C525 C 0.50437 -0.12916 0.22547
 N526 N 0.48360 -0.14473 0.26544
 N527 N 0.48400 -0.16351 0.30134
 C528 C 0.50437 -0.10710 0.19024
 C529 C 0.52330 -0.09174 0.14378
 H530 H 0.52611 -0.18565 0.34622
 H531 H 0.48910 -0.10233 0.20262
 H532 H 0.46784 -0.20133 0.38396
 H533 H 0.53768 -0.09718 0.12796
 C534 C 0.30436 0.48124 0.38296
 C535 C 0.31277 0.46385 0.36190
 C536 C 0.33519 0.47250 0.31702
 N537 N 0.33732 0.45329 0.28494
 N538 N 0.35878 0.46051 0.24846
 C539 C 0.37921 0.48719 0.24351
 N540 N 0.37719 0.50644 0.27589
 N541 N 0.35550 0.49924 0.31177
 C542 C 0.40373 0.49492 0.20620
 C543 C 0.40264 0.47847 0.15683
 H544 H 0.30351 0.44349 0.38182
 H545 H 0.42273 0.51366 0.21748
 H546 H 0.31148 0.50063 0.35966
 H547 H 0.38305 0.46124 0.14214
 C548 C 1.14353 0.73505 0.39056
 C549 C 1.13190 0.70675 0.38775
 C550 C 1.11835 0.68960 0.33226
 N551 N 1.11107 0.66300 0.33385
 N552 N 1.09852 0.64655 0.28521
 C553 C 1.09264 0.65594 0.23278
 N554 N 1.09992 0.68266 0.23099
 N555 N 1.11265 0.69926 0.27984
 C556 C 1.07759 0.63690 0.18030
 C557 C 1.07085 0.60975 0.18394
 H558 H 1.13397 0.69651 0.42822
 H559 H 1.07049 0.64363 0.14128
 H560 H 1.14322 0.74609 0.34970
 H561 H 1.07804 0.60350 0.22370
 C562 C 0.50631 0.18269 0.38685
 C563 C 0.52513 0.17444 0.38508
 C564 C 0.52452 0.15540 0.33809
 N565 N 0.50492 0.14397 0.29294
 N566 N 0.50359 0.12505 0.25415
 C567 C 0.52177 0.11686 0.25927
 N568 N 0.54146 0.12851 0.30396
 N569 N 0.54280 0.14741 0.34264
 C570 C 0.51970 0.09472 0.22022
 C571 C 0.49994 0.08143 0.17375
 H572 H 0.53997 0.18080 0.42268
 H573 H 0.53372 0.08799 0.23011
 H574 H 0.49227 0.17795 0.34818
 H575 H 0.48633 0.08843 0.16182
 C576 C 0.66519 0.45918 0.41061
 C577 C 0.67158 0.47891 0.36458
 C578 C 0.65071 0.47843 0.32378
 N579 N 0.65824 0.49802 0.27931
 N580 N 0.63952 0.49912 0.24492
 C581 C 0.61253 0.48075 0.25394
 N582 N 0.60499 0.46106 0.29821
 N583 N 0.62373 0.45990 0.33247
 C584 C 0.59167 0.48276 0.21865
 C585 C 0.59862 0.50150 0.17007
 H586 H 0.69216 0.49658 0.36183
 H587 H 0.57049 0.46960 0.23196
 H588 H 0.64423 0.44241 0.41538
 H589 H 0.61963 0.51391 0.15502
 C590 C 0.80722 0.32961 0.38119
 C591 C 0.82142 0.32320 0.33878
 C592 C 0.83916 0.34281 0.29062
 N593 N 0.85560 0.33761 0.25569
 N594 N 0.87359 0.35639 0.21612
 C595 C 0.87572 0.38103 0.21010
 N596 N 0.85898 0.38601 0.24424
 N597 N 0.84102 0.36727 0.28370
 C598 C 0.89727 0.40321 0.17243
 C599 C 0.91602 0.40039 0.13743
 H600 H 0.82165 0.30458 0.34508
 H601 H 0.89963 0.42319 0.17610
 H602 H 0.80871 0.34920 0.37759
 H603 H 0.91333 0.38042 0.13013
   
