data_POSCAR
  _audit_creation_date              2014-09-24
  _audit_creation_method            'ToBaCCo'
  _symmetry_space_group_name_H-M    'P1'
  _symmetry_Int_Tables_number       1
  _symmetry_cell_setting            triclinic
  loop_
  _symmetry_equiv_pos_as_xyz
 x,y,z
_cell_length_a 36.5324
_cell_length_b 36.5239
_cell_length_c 34.9068
_cell_angle_alpha 90.101800
_cell_angle_beta 90.054300
_cell_angle_gamma 120.165800
loop_
  _atom_site_label
  _atom_site_type_symbol
  _atom_site_fract_x
  _atom_site_fract_y
  _atom_site_fract_z
C1 C 0.52206 0.06357 0.05277
 H2 H 0.55186 0.06395 0.05197
 C3 C 0.51806 0.09291 0.07531
 H4 H 0.54504 0.11565 0.09191
 C5 C 0.45128 0.03394 0.03103
 H6 H 0.42563 0.01144 0.01313
 C7 C 0.44590 0.06288 0.05312
 H8 H 0.41582 0.06195 0.05224
 N9 N 0.48892 0.03476 0.03137
 C10 C 0.51902 -0.06505 0.01116
 H11 H 0.51880 -0.06582 -0.01983
 C12 C 0.52575 -0.09386 0.03182
 H13 H 0.53093 -0.11659 0.01637
 C14 C 0.51114 -0.03517 0.06867
 H15 H 0.50445 -0.01294 0.08296
 C16 C 0.51773 -0.06338 0.09046
 H17 H 0.51648 -0.06206 0.12139
 Zn18 Zn 0.49941 -0.00104 -0.00028
 N19 N 0.51199 -0.03642 0.02976
 C20 C 0.58268 0.03444 -0.03156
 N21 N 0.54568 0.03491 -0.03189
 C22 C 0.54116 0.06347 -0.05325
 C23 C 0.57448 0.09289 -0.07574
 C24 C 0.61697 0.06346 -0.05361
 C25 C 0.41571 -0.06559 -0.01184
 C26 C 0.38009 -0.09475 -0.03248
 C27 C 0.41854 -0.06427 -0.09112
 C28 C 0.45336 -0.03576 -0.06925
 N29 N 0.45134 -0.03686 -0.03037
 H30 H 0.58597 0.01213 -0.01370
 H31 H 0.51161 0.06358 -0.05244
 H32 H 0.57009 0.11542 -0.09231
 H33 H 0.64626 0.06281 -0.05274
 H34 H 0.41522 -0.06618 0.01915
 H35 H 0.35240 -0.11734 -0.01665
 H36 H 0.42152 -0.06260 -0.12203
 H37 H 0.48227 -0.01336 -0.08349
 C38 C 0.52486 -0.09348 0.07206
 C39 C 0.47967 0.09304 0.07553
 C40 C 0.38105 -0.09485 -0.07292
 C41 C 0.61317 0.09336 -0.07598
 C42 C -0.06389 0.47786 0.61371
 H43 H -0.06424 0.44807 0.61451
 C44 C -0.09323 0.48182 0.59118
 H45 H -0.11594 0.45482 0.57456
 C46 C -0.03436 0.54865 0.63548
 H47 H -0.01189 0.57432 0.65338
 C48 C -0.06329 0.55399 0.61339
 H49 H -0.06240 0.58406 0.61428
 N50 N -0.03513 0.51102 0.63513
 C51 C 0.06476 0.48110 0.65537
 H52 H 0.06552 0.48134 0.68636
 C53 C 0.09361 0.47439 0.63473
 H54 H 0.11634 0.46925 0.65019
 C55 C 0.03490 0.48889 0.59785
 H56 H 0.01266 0.49553 0.58355
 C57 C 0.06315 0.48232 0.57608
 H58 H 0.06184 0.48354 0.54515
 Zn59 Zn 0.00068 0.50060 0.66679
 N60 N 0.03613 0.48808 0.63677
 C61 C -0.03471 0.41734 0.69805
 N62 N -0.03525 0.45431 0.69839
 C63 C -0.06384 0.45879 0.71975
 C64 C -0.09324 0.42545 0.74223
 C65 C -0.06371 0.38302 0.72010
 C66 C 0.06515 0.58439 0.67835
 C67 C 0.09420 0.62003 0.69906
 C68 C 0.06371 0.58160 0.75764
 C69 C 0.03526 0.54670 0.73581
 N70 N 0.03640 0.54872 0.69689
 H71 H -0.01238 0.41408 0.68019
 H72 H -0.06400 0.48832 0.71894
 H73 H -0.11580 0.42981 0.75881
 H74 H -0.06301 0.35375 0.71923
 H75 H 0.06583 0.58488 0.64736
 H76 H 0.11702 0.64794 0.68365
 H77 H 0.06247 0.57910 0.78857
 H78 H 0.01292 0.51777 0.75005
 C79 C 0.09325 0.47524 0.59449
 C80 C -0.09341 0.52020 0.59097
 C81 C 0.09393 0.61884 0.73930
 C82 C -0.09365 0.38678 0.74246
 C83 C 0.54138 0.47760 0.38636
 H84 H 0.51181 0.44781 0.38546
 C85 C 0.57473 0.48162 0.40891
 H86 H 0.57032 0.45465 0.42544
 C87 C 0.58294 0.54835 0.36481
 H88 H 0.58624 0.57398 0.34698
 C89 C 0.61726 0.55375 0.38693
 H90 H 0.64657 0.58382 0.38613
 N91 N 0.54591 0.51071 0.36503
 C92 C 0.41590 0.48061 0.34463
 H93 H 0.41536 0.48075 0.31364
 C94 C 0.38032 0.47393 0.36524
 H95 H 0.35241 0.46872 0.34976
 C96 C 0.45366 0.48861 0.40220
 H97 H 0.48260 0.49533 0.41652
 C98 C 0.41883 0.48208 0.42393
 H99 H 0.42138 0.48340 0.45487
 Zn100 Zn 0.49961 0.50019 0.33331
 N101 N 0.45158 0.48768 0.36327
 C102 C 0.45143 0.41684 0.30181
 N103 N 0.48907 0.45386 0.30159
 C104 C 0.52218 0.45836 0.28027
 C105 C 0.51815 0.42499 0.25770
 C106 C 0.44602 0.38250 0.27967
 C107 C 0.51926 0.58393 0.32199
 C108 C 0.52597 0.61952 0.30138
 C109 C 0.51782 0.58096 0.24269
 C110 C 0.51126 0.54612 0.26443
 N111 N 0.51217 0.54823 0.30335
 H112 H 0.42581 0.41356 0.31964
 H113 H 0.55198 0.48792 0.28117
 H114 H 0.54511 0.42937 0.24116
 H115 H 0.41594 0.35319 0.28046
 H116 H 0.51910 0.58449 0.35298
 H117 H 0.53119 0.64746 0.31686
 H118 H 0.51652 0.57838 0.21176
 H119 H 0.50453 0.51716 0.25011
 C120 C 0.38158 0.47492 0.40548
 C121 C 0.61346 0.52001 0.40924
 C122 C 0.52501 0.61824 0.26114
 C123 C 0.47976 0.38627 0.25735
 N124 N 0.15459 0.46938 0.51283
 C125 C 0.18465 0.46430 0.53076
 N126 N 0.18441 0.46209 0.56952
 N127 N 0.15505 0.46501 0.58974
 C128 C 0.12490 0.47030 0.57195
 N129 N 0.12524 0.47229 0.53305
 C130 C 0.21738 0.46312 0.50906
 C131 C 0.24537 0.46308 0.49082
 C132 C 0.27926 0.46418 0.46914
 N133 N 0.31444 0.46931 0.48710
 N134 N 0.34669 0.47216 0.46690
 C135 C 0.34499 0.47004 0.42799
 N136 N 0.30951 0.46470 0.41018
 N137 N 0.27724 0.46185 0.43038
 N138 N 0.53068 0.84524 0.15374
 C139 C 0.53579 0.81517 0.13583
 N140 N 0.53804 0.81540 0.09707
 N141 N 0.53514 0.84475 0.07684
 C142 C 0.52980 0.87489 0.09461
 N143 N 0.52777 0.87457 0.13351
 C144 C 0.53696 0.78245 0.15753
 C145 C 0.53697 0.75446 0.17578
 C146 C 0.53584 0.72057 0.19747
 N147 N 0.53070 0.68536 0.17951
 N148 N 0.52783 0.65311 0.19972
 C149 C 0.52992 0.65484 0.23862
 N150 N 0.53528 0.69035 0.25643
 N151 N 0.53815 0.72261 0.23623
 N152 N 0.31649 0.84611 0.84719
 C153 C 0.28122 0.81615 0.86505
 N154 N 0.27928 0.81655 0.90379
 N155 N 0.31174 0.84594 0.92406
 C156 C 0.34751 0.87606 0.90644
 N157 N 0.34894 0.87549 0.86746
 C158 C 0.24711 0.78336 0.84330
 C159 C 0.21893 0.75532 0.82500
 C160 C 0.18598 0.72136 0.80323
 N161 N 0.15579 0.68618 0.82109
 N162 N 0.12624 0.65387 0.80080
 C163 C 0.12581 0.65551 0.76191
 N164 N 0.15609 0.69099 0.74419
 N165 N 0.18565 0.72331 0.76447
 N166 N 0.84236 0.56324 0.55012
 C167 C 0.81374 0.53021 0.52864
 N168 N 0.81591 0.49429 0.52718
 N169 N 0.84568 0.49138 0.54667
 C170 C 0.87441 0.52425 0.56839
 N171 N 0.87219 0.56032 0.56963
 C172 C 0.78059 0.53237 0.50856
 C173 C 0.75178 0.53236 0.49168
 C174 C 0.71644 0.53016 0.47160
 N175 N 0.67818 0.49424 0.47295
 N176 N 0.64546 0.49128 0.45346
 C177 C 0.64974 0.52411 0.43184
 N178 N 0.68819 0.56017 0.43070
 N179 N 0.72098 0.56314 0.45021
 N180 N 0.43654 0.15724 0.11639
 C181 C 0.46954 0.18589 0.13788
 N182 N 0.50547 0.18375 0.13933
 N183 N 0.50842 0.15398 0.11984
 C184 C 0.47557 0.12522 0.09812
 N185 N 0.43950 0.12741 0.09688
 C186 C 0.46736 0.21905 0.15796
 C187 C 0.46736 0.24787 0.17485
 C188 C 0.46957 0.28323 0.19495
 N189 N 0.50549 0.32149 0.19359
 N190 N 0.50845 0.35422 0.21310
 C191 C 0.47564 0.34997 0.23474
 N192 N 0.43957 0.31152 0.23587
 N193 N 0.43659 0.27871 0.21634
 N194 N -0.32213 0.18399 0.86034
 C195 C -0.28392 0.18642 0.86175
 N196 N -0.27940 0.15800 0.88317
 N197 N -0.31217 0.12811 0.90266
 C198 C -0.35057 0.12563 0.90147
 N199 N -0.35483 0.15416 0.87982
 C200 C -0.24860 0.21962 0.84168
 C201 C -0.21979 0.24846 0.82480
 C202 C -0.18662 0.28380 0.80473
 N203 N -0.15816 0.27933 0.78331
 N204 N -0.12830 0.31212 0.76382
 C205 C -0.12589 0.35050 0.76502
 N206 N -0.15446 0.35471 0.78667
 N207 N -0.18426 0.32199 0.80614
   
