data_POSCAR
  _audit_creation_date              2014-09-24
  _audit_creation_method            'ToBaCCo'
  _symmetry_space_group_name_H-M    'P1'
  _symmetry_Int_Tables_number       1
  _symmetry_cell_setting            triclinic
  loop_
  _symmetry_equiv_pos_as_xyz
 x,y,z
_cell_length_a 20.4084
_cell_length_b 20.4084
_cell_length_c 34.8293
_cell_angle_alpha 89.878500
_cell_angle_beta 90.122900
_cell_angle_gamma 90.002700
loop_
  _atom_site_label
  _atom_site_type_symbol
  _atom_site_fract_x
  _atom_site_fract_y
  _atom_site_fract_z
O1 O -0.05465 0.56288 0.96308
 O2 O -0.05455 0.43495 1.03783
 O3 O -0.05456 0.56278 1.03775
 O4 O -0.05464 0.43512 0.96315
 O5 O 0.05372 0.43513 0.96324
 O6 O 0.05381 0.56279 1.03784
 O7 O 0.05381 0.43496 1.03792
 O8 O 0.05371 0.56289 0.96317
 Cu9 Cu -0.06553 0.49893 1.00045
 Cu10 Cu 0.06470 0.49894 1.00056
 C11 C -0.00049 0.58464 0.95060
 C12 C -0.00035 0.41315 1.05038
 C13 C -0.00036 0.58453 1.05026
 C14 C -0.00048 0.41343 0.95069
 O15 O 0.56506 -0.05380 0.53792
 O16 O 0.43712 -0.05371 0.46317
 O17 O 0.56488 -0.05370 0.46324
 O18 O 0.43723 -0.05381 0.53784
 O19 O 0.43723 0.05456 0.53775
 O20 O 0.56488 0.05466 0.46315
 O21 O 0.43712 0.05466 0.46308
 O22 O 0.56506 0.05456 0.53783
 Cu23 Cu 0.50107 -0.06469 0.50056
 Cu24 Cu 0.50108 0.06554 0.50045
 C25 C 0.58686 0.00036 0.55038
 C26 C 0.41536 0.00049 0.45060
 C27 C 0.58658 0.00050 0.45069
 C28 C 0.41548 0.00036 0.55026
 C29 C 0.00018 0.00046 0.24967
 C30 C -0.00044 -0.00019 0.74967
 C31 C -0.00033 -0.36455 0.07858
 C32 C -0.00029 -0.32099 0.10190
 C33 C -0.00025 -0.26811 0.12917
 C34 C 0.05919 -0.24212 0.14239
 C35 C 0.05926 -0.18909 0.16776
 C36 C -0.00011 -0.16184 0.18002
 C37 C -0.05956 -0.18820 0.16708
 C38 C -0.05963 -0.24123 0.14171
 C39 C -0.00001 -0.10574 0.20496
 C40 C 0.00007 -0.05811 0.22540
 H41 H 0.10539 -0.26240 0.13279
 H42 H 0.10551 -0.16896 0.17751
 H43 H -0.10574 -0.16738 0.17630
 H44 H -0.10587 -0.26081 0.13158
 C45 C -0.00031 0.36492 0.07726
 C46 C -0.00028 0.32138 0.10071
 C47 C -0.00022 0.26856 0.12815
 C48 C 0.05922 0.24248 0.14136
 C49 C 0.05929 0.18954 0.16693
 C50 C -0.00009 0.16247 0.17939
 C51 C -0.05953 0.18892 0.16645
 C52 C -0.05960 0.24186 0.14088
 C53 C 0.00000 0.10647 0.20455
 C54 C 0.00008 0.05892 0.22518
 H55 H 0.10542 0.26263 0.13161
 H56 H 0.10553 0.16934 0.17668
 H57 H -0.10572 0.16823 0.17582
 H58 H -0.10584 0.26152 0.13076
 C59 C 0.36457 0.00032 0.57858
 C60 C 0.32100 0.00028 0.60190
 C61 C 0.26813 0.00023 0.62917
 C62 C 0.24201 -0.05922 0.64230
 C63 C 0.18898 -0.05929 0.66767
 C64 C 0.16186 0.00009 0.68002
 C65 C 0.18834 0.05954 0.66717
 C66 C 0.24137 0.05961 0.64180
 C67 C 0.10576 -0.00000 0.70496
 C68 C 0.05813 -0.00008 0.72540
 H69 H 0.26219 -0.10541 0.63263
 H70 H 0.16875 -0.10553 0.67735
 H71 H 0.16761 0.10572 0.67646
 H72 H 0.26105 0.10585 0.63174
 C73 C -0.36491 0.00033 0.57726
 C74 C -0.32137 0.00029 0.60071
 C75 C -0.26855 0.00024 0.62815
 C76 C -0.24173 0.05962 0.64080
 C77 C -0.18879 0.05955 0.66637
 C78 C -0.16245 0.00010 0.67939
 C79 C -0.18964 -0.05927 0.66701
 C80 C -0.24258 -0.05920 0.64144
 C81 C -0.10645 0.00001 0.70455
 C82 C -0.05891 -0.00008 0.72518
 H83 H -0.26130 0.10586 0.63062
 H84 H -0.16801 0.10573 0.67568
 H85 H -0.16953 -0.10551 0.67682
 H86 H -0.26281 -0.10539 0.63175
 C87 C -0.00052 -0.36449 0.92213
 C88 C -0.00054 -0.32103 0.89864
 C89 C -0.00056 -0.26830 0.87114
 C90 C 0.05884 -0.24237 0.85792
 C91 C 0.05885 -0.18951 0.83230
 C92 C -0.00055 -0.16238 0.81979
 C93 C -0.05997 -0.18869 0.83272
 C94 C -0.05998 -0.24155 0.85835
 C95 C -0.00052 -0.10638 0.79463
 C96 C -0.00049 -0.05878 0.77405
 H97 H 0.10506 -0.26256 0.86772
 H98 H 0.10507 -0.16940 0.82256
 H99 H -0.10618 -0.16794 0.82332
 H100 H -0.10619 -0.26110 0.86847
 C101 C -0.00050 0.36272 0.92226
 C102 C -0.00052 0.31940 0.89878
 C103 C -0.00054 0.26687 0.87128
 C104 C 0.05887 0.24096 0.85812
 C105 C 0.05887 0.18831 0.83248
 C106 C -0.00053 0.16137 0.81989
 C107 C -0.05995 0.18766 0.83277
 C108 C -0.05995 0.24031 0.85842
 C109 C -0.00051 0.10560 0.79470
 C110 C -0.00048 0.05819 0.77408
 H111 H 0.10509 0.26100 0.86797
 H112 H 0.10509 0.16822 0.82278
 H113 H -0.10616 0.16706 0.82331
 H114 H -0.10617 0.25984 0.86850
 C115 C -0.36271 0.00053 0.42226
 C116 C -0.31939 0.00056 0.39878
 C117 C -0.26687 0.00058 0.37128
 C118 C -0.24105 -0.05883 0.35805
 C119 C -0.18841 -0.05883 0.33241
 C120 C -0.16137 0.00057 0.31989
 C121 C -0.18756 0.05998 0.33284
 C122 C -0.24020 0.05999 0.35849
 C123 C -0.10560 0.00054 0.29470
 C124 C -0.05819 0.00051 0.27408
 H125 H -0.26117 -0.10505 0.36784
 H126 H -0.16839 -0.10505 0.32265
 H127 H -0.16689 0.10619 0.32343
 H128 H -0.25966 0.10620 0.36862
 C129 C 0.36450 0.00053 0.42213
 C130 C 0.32103 0.00055 0.39864
 C131 C 0.26831 0.00057 0.37114
 C132 C 0.24236 -0.05884 0.35793
 C133 C 0.18950 -0.05884 0.33231
 C134 C 0.16238 0.00056 0.31979
 C135 C 0.18871 0.05998 0.33272
 C136 C 0.24157 0.05998 0.35834
 C137 C 0.10638 0.00053 0.29463
 C138 C 0.05878 0.00050 0.27405
 H139 H 0.26253 -0.10506 0.36773
 H140 H 0.16938 -0.10506 0.32258
 H141 H 0.16797 0.10618 0.32330
 H142 H 0.26113 0.10620 0.36846
   
