data_POSCAR
  _audit_creation_date              2014-09-24
  _audit_creation_method            'ToBaCCo'
  _symmetry_space_group_name_H-M    'P1'
  _symmetry_Int_Tables_number       1
  _symmetry_cell_setting            triclinic
  loop_
  _symmetry_equiv_pos_as_xyz
 x,y,z
_cell_length_a 37.0217
_cell_length_b 38.6402
_cell_length_c 38.7031
_cell_angle_alpha 90.374500
_cell_angle_beta 88.730000
_cell_angle_gamma 89.166600
loop_
  _atom_site_label
  _atom_site_type_symbol
  _atom_site_fract_x
  _atom_site_fract_y
  _atom_site_fract_z
C1 C 0.16033 0.16629 0.20375
 N2 N 0.18988 0.15563 0.18508
 C3 C 0.19967 0.17098 0.15498
 N4 N 0.17897 0.19749 0.14318
 C5 C 0.14900 0.20848 0.16131
 N6 N 0.13985 0.19290 0.19166
 C7 C -0.11668 0.86899 0.18393
 N8 N -0.14364 0.88237 0.16480
 C9 C -0.16336 0.86213 0.14375
 N10 N -0.15459 0.82783 0.14052
 C11 C -0.12596 0.81435 0.15782
 N12 N -0.10786 0.83490 0.18012
 C13 C -0.16517 0.15338 -0.19338
 N14 N -0.15038 0.18024 -0.17608
 C15 C -0.15451 0.18333 -0.14132
 N16 N -0.17441 0.15985 -0.12377
 C17 C -0.19123 0.13393 -0.14066
 N18 N -0.18618 0.13057 -0.17554
 C19 C 0.14301 0.84380 -0.19947
 N20 N 0.17145 0.86076 -0.18620
 C21 C 0.19134 0.84636 -0.16079
 N22 N 0.18289 0.81419 -0.14943
 C23 C 0.15430 0.79710 -0.16227
 N24 N 0.13408 0.81218 -0.18707
 C25 C 0.17450 1.17748 0.79070
 N26 N 0.20086 1.15608 0.80262
 C27 C 0.21558 1.16176 0.83398
 N28 N 0.20290 1.18844 0.85411
 C29 C 0.17694 1.21044 0.84238
 N30 N 0.16349 1.20505 0.81041
 C31 C 0.87155 0.85116 0.80511
 N32 N 0.88283 0.82544 0.82638
 C33 C 0.86456 0.81886 0.85644
 N34 N 0.83496 0.83834 0.86510
 C35 C 0.82313 0.86362 0.84394
 N36 N 0.84125 0.86989 0.81390
 C37 C 0.11645 0.85954 1.18321
 N38 N 0.15045 0.86631 1.17086
 C39 C 0.16373 0.84942 1.14218
 N40 N 0.14368 0.82471 1.12698
 C41 C 0.11021 0.81743 1.13942
 N42 N 0.09648 0.83533 1.16696
 C43 C 0.84658 1.14449 1.19655
 N44 N 0.82323 1.12961 1.17454
 C45 C 0.81343 1.14557 1.14500
 N46 N 0.82792 1.17670 1.13696
 C47 C 0.85148 1.19220 1.15858
 N48 N 0.86025 1.17602 1.18854
 O49 O 0.45411 1.04178 1.07661
 O50 O 0.41170 1.00992 1.04853
 C51 C 0.42107 1.03345 1.07039
 O52 O 0.54540 1.03195 0.94141
 O53 O 0.58699 1.00244 0.97353
 C54 C 0.57836 1.02277 0.94848
 O55 O 0.44395 1.04025 0.95563
 O56 O 0.40702 1.00957 0.99229
 C57 C 0.41238 1.03282 0.96884
 O58 O 0.55531 1.03334 1.07207
 O59 O 0.59198 1.00340 1.03338
 C60 C 0.58685 1.02403 1.05961
 Zr61 Zr 0.50305 1.02171 1.05459
 O62 O 0.50830 1.07598 1.04964
 O63 O 0.50386 1.02772 1.10886
 Zr64 Zr 0.49604 1.02006 0.96769
 O65 O 0.50177 1.07449 0.96849
 O66 O 0.48734 1.02147 0.91389
 O67 O 0.46749 1.02850 1.01411
 O68 O 0.53117 1.02643 1.00818
 O69 O 0.55379 0.91500 1.06963
 O70 O 0.59078 0.94597 1.03328
 C71 C 0.58545 0.92338 1.05737
 O72 O 0.44323 0.91230 0.95985
 O73 O 0.40630 0.94908 0.99189
 C74 C 0.41173 0.92323 0.97085
 O75 O 0.54404 0.91407 0.94581
 O76 O 0.58617 0.94629 0.97383
 C77 C 0.57699 0.92344 0.95119
 O78 O 0.45174 0.91703 1.07829
 O79 O 0.41075 0.94991 1.04869
 C80 C 0.41890 0.92664 1.07124
 Zr81 Zr 0.50168 0.93389 1.05617
 O82 O 0.50403 0.87911 1.05659
 O83 O 0.50313 0.93552 1.11082
 Zr84 Zr 0.49493 0.93254 0.96903
 O85 O 0.49825 0.87788 0.96688
 O86 O 0.48598 0.93364 0.91518
 Zr87 Zr 0.44552 0.97851 1.01686
 Zr88 Zr 0.55228 0.97562 1.00708
 O89 O 0.52940 0.92610 1.00972
 O90 O 0.46622 0.92736 1.01569
 O91 O 0.53476 0.97692 1.05928
 O92 O 0.46361 0.97698 0.96496
 O93 O 0.47173 0.97882 1.06458
 O94 O 0.52692 0.97522 0.95877
 H95 H 0.54853 1.04565 1.00642
 H96 H 0.44539 0.97695 0.94659
 H97 H 0.54527 0.90525 1.00817
 H98 H 0.45717 0.97959 1.08636
 H99 H 0.50163 1.00218 0.90336
 H100 H 0.50783 0.94313 0.90377
 H101 H 0.48483 0.86921 0.98735
 H102 H 0.48163 0.87063 1.04615
 H103 H 0.52575 0.94704 1.11722
 H104 H 0.51068 1.00488 1.11822
 H105 H 0.48459 1.08548 1.04271
 H106 H 0.48111 1.08433 0.98212
 O107 O 0.04221 0.55654 -0.06716
 O108 O 0.00589 0.58995 -0.03100
 C109 C 0.02899 0.58621 -0.05638
 O110 O -0.07552 0.45086 -0.06910
 O111 O -0.03923 0.41336 -0.03944
 C112 C -0.06386 0.41996 -0.06181
 O113 O -0.07673 0.54782 -0.06928
 O114 O -0.05236 0.58552 -0.03054
 C115 C -0.07096 0.57875 -0.05764
 O116 O 0.05301 0.45909 -0.07128
 O117 O 0.02254 0.41729 -0.04094
 C118 C 0.04607 0.42707 -0.06402
 Zr119 Zr 0.03027 0.50543 -0.05006
 O120 O 0.03177 0.50558 -0.10477
 O121 O 0.08691 0.51218 -0.04931
 Zr122 Zr -0.06121 0.49958 -0.04833
 O123 O -0.06806 0.49895 -0.10237
 O124 O -0.11824 0.50070 -0.04231
 O125 O -0.01790 0.53311 -0.05402
 O126 O -0.01298 0.47315 -0.05749
 O127 O 0.05674 0.45325 0.04753
 O128 O 0.02296 0.41449 0.01743
 C129 C 0.04888 0.42211 0.03792
 O130 O -0.08305 0.54165 0.06091
 O131 O -0.05178 0.58289 0.03049
 C132 C -0.07505 0.57361 0.05398
 O133 O -0.07817 0.44387 0.05121
 O134 O -0.04004 0.41005 0.01697
 C135 C -0.06627 0.41410 0.03943
 O136 O 0.04468 0.54898 0.05760
 O137 O 0.00755 0.58646 0.02889
 C138 C 0.03272 0.57987 0.05073
 Zr139 Zr 0.02960 0.50041 0.03726
 O140 O 0.02533 0.49309 0.09140
 O141 O 0.08592 0.50623 0.04193
 Zr142 Zr -0.06147 0.49489 0.03856
 O143 O -0.06041 0.48823 0.09277
 O144 O -0.11864 0.49502 0.03995
 Zr145 Zr -0.01981 0.55124 -0.00248
 Zr146 Zr -0.01119 0.44880 -0.00904
 O147 O -0.01337 0.46711 0.04228
 O148 O -0.01838 0.52808 0.04664
 O149 O 0.03968 0.47270 -0.00855
 O150 O -0.07038 0.52717 -0.00308
 O151 O 0.03412 0.53323 -0.00470
 O152 O -0.06563 0.46594 -0.00686
 H153 H -0.01175 0.45908 -0.07898
 H154 H -0.09230 0.54220 -0.00223
 H155 H -0.01199 0.44989 0.06110
 H156 H 0.05394 0.55018 -0.00456
 H157 H -0.12614 0.47671 -0.03810
 H158 H -0.12638 0.47757 0.02294
 H159 H -0.04769 0.50826 0.10255
 H160 H 0.01563 0.51483 0.10186
 H161 H 0.09635 0.50494 0.01824
 H162 H 0.09772 0.49083 -0.03972
 H163 H 0.01342 0.52263 -0.11229
 H164 H -0.04369 0.50120 -0.11300
 O165 O 1.07941 -0.04275 0.54433
 O166 O 1.03782 -0.02211 0.58436
 C167 C 1.06693 -0.03931 0.57580
 O168 O 1.05648 0.08989 0.46218
 O169 O 1.03198 0.05556 0.42028
 C170 C 1.04974 0.08228 0.43023
 O171 O 1.06145 0.07400 0.55829
 O172 O 1.03149 0.03397 0.59140
 C173 C 1.05408 0.05904 0.58753
 O174 O 1.07891 -0.03548 0.44723
 O175 O 1.04092 -0.00373 0.41325
 C176 C 1.06766 -0.02509 0.41741
 Zr177 Zr 1.05752 -0.02417 0.49763
 O178 O 1.11400 -0.01638 0.49468
 O179 O 1.06569 -0.07850 0.49520
 Zr180 Zr 1.04318 0.06222 0.50789
 O181 O 1.09923 0.07205 0.50471
 O182 O 1.03083 0.11507 0.51719
 O183 O 1.05652 0.01643 0.53324
 O184 O 1.05758 0.02323 0.47308
 O185 O 0.95902 -0.05458 0.44512
 O186 O 0.98334 -0.01146 0.41187
 C187 C 0.96724 -0.04083 0.41548
 O188 O 0.92940 0.05874 0.55610
 O189 O 0.96721 0.02693 0.59038
 C190 C 0.93900 0.04647 0.58578
 O191 O 0.93636 0.07492 0.45986
 O192 O 0.97316 0.04800 0.41904
 C193 C 0.94758 0.06956 0.42816
 O194 O 0.94631 -0.05834 0.54205
 O195 O 0.97655 -0.02867 0.58383
 C196 C 0.95378 -0.05166 0.57398
 Zr197 Zr 0.96680 -0.03586 0.49595
 O198 O 0.91057 -0.04096 0.48883
 O199 O 0.97221 -0.09040 0.49516
 Zr200 Zr 0.95305 0.05037 0.50606
 O201 O 0.89704 0.04223 0.50038
 O202 O 0.94317 0.10360 0.51593
 Zr203 Zr 1.00392 0.00724 0.55275
 Zr204 Zr 1.00641 0.01849 0.45109
 O205 O 0.95406 0.00964 0.47085
 O206 O 0.95224 0.00299 0.53135
 O207 O 1.01410 -0.03345 0.46585
 O208 O 0.99648 0.05903 0.53786
 O209 O 1.01233 -0.03971 0.52572
 O210 O 0.99791 0.06604 0.47722
 H211 H 1.07873 0.02786 0.45775
 H212 H 0.99327 0.07681 0.55628
 H213 H 0.93417 0.00860 0.45417
 H214 H 1.01476 -0.06143 0.53901
 H215 H 1.05435 0.12687 0.51841
 H216 H 0.96277 0.11634 0.50405
 H217 H 0.88892 0.02713 0.51950
 H218 H 0.89804 -0.03127 0.50964
 H219 H 0.99475 -0.09600 0.48201
 H220 H 1.05489 -0.08689 0.47360
 H221 H 1.12079 -0.00372 0.51581
 H222 H 1.11141 0.05436 0.51885
 C223 C 1.12422 0.16274 0.25765
 C224 C 1.11615 0.14582 0.28889
 C225 C 1.13466 0.11471 0.29692
 C226 C 1.16159 0.10163 0.27441
 C227 C 1.17023 0.11902 0.24405
 C228 C 1.15146 0.14956 0.23491
 C229 C 1.12598 0.09699 0.32729
 C230 C 1.09948 0.11023 0.35022
 C231 C 1.08175 0.14199 0.34310
 C232 C 1.08999 0.15948 0.31227
 C233 C 1.05564 0.15529 0.36672
 C234 C 1.04652 0.13672 0.39652
 C235 C 1.06332 0.10473 0.40285
 C236 C 1.08992 0.09172 0.37989
 H237 H 1.10971 0.18640 0.25148
 H238 H 1.17610 0.07790 0.28032
 H239 H 1.19137 0.10793 0.22745
 H240 H 1.13977 0.07279 0.33302
 H241 H 1.07599 0.18352 0.30643
 H242 H 1.04179 0.17959 0.36180
 H243 H 1.02535 0.14656 0.41386
 H244 H 1.10244 0.06670 0.38474
 C245 C 0.91859 -0.12520 0.23646
 C246 C 0.92874 -0.10490 0.26482
 C247 C 0.92252 -0.06869 0.26460
 C248 C 0.90624 -0.05341 0.23609
 C249 C 0.89424 -0.07395 0.20898
 C250 C 0.89960 -0.11019 0.20902
 C251 C 0.93109 -0.04855 0.29351
 C252 C 0.94376 -0.06440 0.32348
 C253 C 0.94932 -0.10072 0.32393
 C254 C 0.94286 -0.12056 0.29428
 C255 C 0.96021 -0.11677 0.35440
 C256 C 0.96495 -0.09717 0.38433
 C257 C 0.95993 -0.06108 0.38407
 C258 C 0.94989 -0.04470 0.35339
 H259 H 0.92287 -0.15300 0.23725
 H260 H 0.90130 -0.02571 0.23544
 H261 H 0.88031 -0.06131 0.18811
 H262 H 0.92631 -0.02078 0.29326
 H263 H 0.94718 -0.14838 0.29473
 H264 H 0.96454 -0.14454 0.35524
 H265 H 0.97333 -0.11018 0.40759
 H266 H 0.94602 -0.01683 0.35308
 C267 C 0.84073 0.11536 0.75579
 C268 C 0.85586 0.10889 0.72267
 C269 C 0.87125 0.13630 0.70359
 C270 C 0.87164 0.16957 0.71805
 C271 C 0.85879 0.17532 0.75180
 C272 C 0.84358 0.14828 0.77135
 C273 C 0.88755 0.12977 0.67107
 C274 C 0.89082 0.09581 0.65831
 C275 C 0.87629 0.06821 0.67782
 C276 C 0.85791 0.07506 0.70930
 C277 C 0.88173 0.03405 0.66622
 C278 C 0.90217 0.02726 0.63614
 C279 C 0.91618 0.05445 0.61640
 C280 C 0.90989 0.08877 0.62716
 H281 H 0.82959 0.09403 0.77042
 H282 H 0.88338 0.19087 0.70384
 H283 H 0.86101 0.20110 0.76263
 H284 H 0.89929 0.15088 0.65650
 H285 H 0.84684 0.05385 0.72418
 H286 H 0.87117 0.01254 0.68096
 H287 H 0.90718 0.00071 0.62824
 H288 H 0.92134 0.10974 0.61221
 C289 C 1.14225 -0.12644 0.74387
 C290 C 1.12378 -0.11209 0.71604
 C291 C 1.08556 -0.11085 0.71692
 C292 C 1.06654 -0.12514 0.74506
 C293 C 1.08523 -0.14053 0.77210
 C294 C 1.12311 -0.14083 0.77185
 C295 C 1.06705 -0.09558 0.68958
 C296 C 1.08623 -0.08271 0.66084
 C297 C 1.12437 -0.08521 0.65933
 C298 C 1.14293 -0.09936 0.68723
 C299 C 1.14325 -0.07358 0.62986
 C300 C 1.12451 -0.05948 0.60217
 C301 C 1.08674 -0.05602 0.60393
 C302 C 1.06779 -0.06758 0.63342
 H303 H 1.17156 -0.12711 0.74349
 H304 H 1.03727 -0.12458 0.74607
 H305 H 1.07018 -0.15158 0.79357
 H306 H 1.03778 -0.09402 0.69049
 H307 H 1.17222 -0.10082 0.68636
 H308 H 1.17246 -0.07545 0.62818
 H309 H 1.13956 -0.05047 0.57974
 H310 H 1.03862 -0.06505 0.63489
 C311 C 0.25221 1.13238 1.15036
 C312 C 0.28264 1.11949 1.13227
 C313 C 0.29205 1.13311 1.09957
 C314 C 0.27099 1.15996 1.08586
 C315 C 0.24066 1.17292 1.10421
 C316 C 0.23063 1.15904 1.13656
 C317 C 0.32215 1.11947 1.08114
 C318 C 0.34281 1.09244 1.09516
 C319 C 0.33347 1.07921 1.12815
 C320 C 0.30353 1.09287 1.14647
 C321 C 0.35402 1.05220 1.14218
 C322 C 0.38321 1.03790 1.12342
 C323 C 0.39224 1.05054 1.09061
 C324 C 0.37242 1.07803 1.07663
 H325 H 0.24544 1.12132 1.17531
 H326 H 0.27785 1.17081 1.06086
 H327 H 0.22490 1.19354 1.09278
 H328 H 0.32927 1.12962 1.05587
 H329 H 0.29629 1.08257 1.17166
 H330 H 0.34724 1.04186 1.16742
 H331 H 0.39843 1.01654 1.13422
 H332 H 0.37988 1.08788 1.05135
 C333 C 0.24222 0.84888 0.87842
 C334 C 0.27023 0.86724 0.89356
 C335 C 0.27548 0.90235 0.88503
 C336 C 0.25310 0.91827 0.86095
 C337 C 0.22576 0.89963 0.84537
 C338 C 0.21970 0.86475 0.85405
 C339 C 0.30328 0.92085 0.90037
 C340 C 0.32666 0.90434 0.92324
 C341 C 0.32192 0.86896 0.93118
 C342 C 0.29338 0.85081 0.91673
 C343 C 0.34634 0.85212 0.95285
 C344 C 0.37561 0.86998 0.96595
 C345 C 0.38016 0.90508 0.95839
 C346 C 0.35539 0.92237 0.93755
 H347 H 0.23838 0.82203 0.88542
 H348 H 0.25686 0.94512 0.85401
 H349 H 0.20898 0.91291 0.82694
 H350 H 0.30720 0.94785 0.89394
 H351 H 0.28965 0.82374 0.92295
 H352 H 0.34324 0.82500 0.95906
 H353 H 0.39474 0.85649 0.98204
 H354 H 0.35934 0.94944 0.93149
 C355 C 0.77705 0.85703 1.11735
 C356 C 0.74522 0.87337 1.10583
 C357 C 0.74437 0.90968 1.10125
 C358 C 0.77466 0.92916 1.10908
 C359 C 0.80508 0.91317 1.12266
 C360 C 0.80681 0.87698 1.12714
 C361 C 0.71292 0.92626 1.08996
 C362 C 0.68151 0.90736 1.08486
 C363 C 0.68162 0.87127 1.09071
 C364 C 0.71373 0.85434 1.10035
 C365 C 0.64942 0.85290 1.08721
 C366 C 0.61762 0.87008 1.07768
 C367 C 0.61776 0.90568 1.07070
 C368 C 0.64980 0.92417 1.07440
 H369 H 0.77753 0.82925 1.12114
 H370 H 0.77438 0.95700 1.10586
 H371 H 0.82752 0.92937 1.12947
 H372 H 0.71259 0.95406 1.08612
 H373 H 0.71392 0.82661 1.10454
 H374 H 0.64884 0.82528 1.09183
 H375 H 0.59319 0.85537 1.07467
 H376 H 0.64993 0.95175 1.06933
 C377 C 0.75572 1.09665 0.86132
 C378 C 0.72777 1.08149 0.88101
 C379 C 0.73047 1.07964 0.91736
 C380 C 0.76056 1.09339 0.93348
 C381 C 0.78680 1.11057 0.91408
 C382 C 0.78462 1.11284 0.87784
 C383 C 0.70232 1.06561 0.93729
 C384 C 0.67039 1.05542 0.92165
 C385 C 0.66701 1.05815 0.88545
 C386 C 0.69617 1.07018 0.86522
 C387 C 0.63414 1.04970 0.87030
 C388 C 0.60482 1.03907 0.89088
 C389 C 0.60830 1.03577 0.92674
 C390 C 0.64132 1.04358 0.94189
 H391 H 0.75317 1.09855 0.83353
 H392 H 0.76297 1.09229 0.96131
 H393 H 0.80885 1.12228 0.92766
 H394 H 0.70459 1.06411 0.96516
 H395 H 0.69363 1.07218 0.83744
 H396 H 0.63096 1.05176 0.84262
 H397 H 0.57967 1.03269 0.87873
 H398 H 0.64408 1.04117 0.96961
 C399 C 0.14146 0.26152 0.12561
 C400 C 0.11991 0.28790 0.11178
 C401 C 0.08235 0.28898 0.11929
 C402 C 0.06720 0.26415 0.14133
 C403 C 0.08903 0.23837 0.15560
 C404 C 0.12621 0.23663 0.14758
 C405 C 0.06066 0.31499 0.10490
 C406 C 0.07627 0.34052 0.08398
 C407 C 0.11405 0.33999 0.07739
 C408 C 0.13551 0.31340 0.09088
 C409 C 0.12984 0.36638 0.05777
 C410 C 0.10849 0.39329 0.04508
 C411 C 0.07102 0.39362 0.05102
 C412 C 0.05487 0.36703 0.07007
 H413 H 0.17021 0.26061 0.11958
 H414 H 0.03853 0.26471 0.14760
 H415 H 0.07670 0.21933 0.17235
 H416 H 0.03179 0.31568 0.11038
 H417 H 0.16441 0.31285 0.08556
 H418 H 0.15873 0.36640 0.05260
 H419 H 0.12115 0.41367 0.03025
 H420 H 0.02588 0.36761 0.07484
 C421 C -0.13536 0.24482 -0.13863
 C422 C -0.12132 0.27298 -0.12059
 C423 C -0.10877 0.26835 -0.08665
 C424 C -0.11132 0.23580 -0.07105
 C425 C -0.12635 0.20815 -0.08884
 C426 C -0.13821 0.21239 -0.12278
 C427 C -0.09426 0.29637 -0.06874
 C428 C -0.09308 0.32917 -0.08398
 C429 C -0.10670 0.33402 -0.11749
 C430 C -0.12025 0.30580 -0.13578
 C431 C -0.10671 0.36712 -0.13209
 C432 C -0.09334 0.39518 -0.11370
 C433 C -0.07900 0.39047 -0.08073
 C434 C -0.07875 0.35729 -0.06611
 H435 H -0.14501 0.24835 -0.16464
 H436 H -0.10207 0.23183 -0.04498
 H437 H -0.12838 0.18329 -0.07620
 H438 H -0.08431 0.29275 -0.04283
 H439 H -0.13035 0.30945 -0.16162
 H440 H -0.11717 0.37131 -0.15768
 H441 H -0.09358 0.42049 -0.12558
 H442 H -0.06781 0.35342 -0.04065
 C443 C 0.10918 0.75304 -0.14424
 C444 C 0.10062 0.72080 -0.12998
 C445 C 0.12858 0.69705 -0.12187
 C446 C 0.16470 0.70638 -0.12743
 C447 C 0.17300 0.73903 -0.14049
 C448 C 0.14535 0.76247 -0.14915
 C449 C 0.12000 0.66473 -0.10767
 C450 C 0.08388 0.65647 -0.10013
 C451 C 0.05612 0.68083 -0.10728
 C452 C 0.06458 0.71243 -0.12280
 C453 C 0.02030 0.67362 -0.09799
 C454 C 0.01207 0.64285 -0.08129
 C455 C 0.03911 0.61805 -0.07472
 C456 C 0.07505 0.62472 -0.08461
 H457 H 0.08776 0.77128 -0.15038
 H458 H 0.18651 0.68869 -0.12115
 H459 H 0.20108 0.74589 -0.14416
 H460 H 0.14143 0.64645 -0.10167
 H461 H 0.04318 0.73089 -0.12841
 H462 H -0.00126 0.69209 -0.10294
 H463 H -0.01565 0.63836 -0.07349
 H464 H 0.09609 0.60591 -0.07903
 C465 C -0.13414 0.75341 0.13526
 C466 C -0.11957 0.72062 0.12595
 C467 C -0.08256 0.71333 0.13138
 C468 C -0.06116 0.73815 0.14720
 C469 C -0.07589 0.77030 0.15682
 C470 C -0.11227 0.77863 0.15045
 C471 C -0.06725 0.68163 0.12033
 C472 C -0.08842 0.65692 0.10395
 C473 C -0.12577 0.66335 0.09979
 C474 C -0.14112 0.69523 0.11074
 C475 C -0.14683 0.63805 0.08391
 C476 C -0.13072 0.60746 0.07088
 C477 C -0.09338 0.60187 0.07344
 C478 C -0.07254 0.62627 0.09070
 H479 H -0.16225 0.75939 0.13037
 H480 H -0.03280 0.73291 0.15166
 H481 H -0.05828 0.78915 0.16824
 H482 H -0.03870 0.67646 0.12388
 H483 H -0.16959 0.70051 0.10687
 H484 H -0.17554 0.64236 0.08068
 H485 H -0.14706 0.58897 0.05732
 H486 H -0.04374 0.62171 0.09294
 C487 C 1.16021 0.13720 0.74401
 C488 C 1.13997 0.12893 0.71488
 C489 C 1.11866 0.15476 0.69909
 C490 C 1.11703 0.18814 0.71343
 C491 C 1.13554 0.19566 0.74359
 C492 C 1.15747 0.17038 0.75930
 C493 C 1.09856 0.14656 0.66983
 C494 C 1.09798 0.11239 0.65730
 C495 C 1.11805 0.08628 0.67418
 C496 C 1.13960 0.09486 0.70222
 C497 C 1.11581 0.05181 0.66308
 C498 C 1.09396 0.04324 0.63551
 C499 C 1.07488 0.06902 0.61785
 C500 C 1.07713 0.10368 0.62860
 H501 H 1.17635 0.11708 0.75589
 H502 H 1.10064 0.20823 0.70186
 H503 H 1.13286 0.22152 0.75441
 H504 H 1.08262 0.16651 0.65745
 H505 H 1.15525 0.07483 0.71482
 H506 H 1.13074 0.03144 0.67587
 H507 H 1.09267 0.01644 0.62735
 H508 H 1.06217 0.12356 0.61510
 C509 C 0.87368 -0.12351 0.74763
 C510 C 0.89249 -0.11618 0.71685
 C511 C 0.92948 -0.12534 0.71319
 C512 C 0.94627 -0.14402 0.73944
 C513 C 0.92676 -0.15299 0.76930
 C514 C 0.89055 -0.14193 0.77422
 C515 C 0.94901 -0.11558 0.68344
 C516 C 0.93155 -0.09804 0.65678
 C517 C 0.89386 -0.09147 0.65935
 C518 C 0.87474 -0.09995 0.68963
 C519 C 0.87602 -0.07595 0.63177
 C520 C 0.89560 -0.06548 0.60257
 C521 C 0.93329 -0.06943 0.60109
 C522 C 0.95116 -0.08635 0.62784
 H523 H 0.84552 -0.11562 0.75039
 H524 H 0.97446 -0.15174 0.73685
 H525 H 0.94058 -0.16732 0.78915
 H526 H 0.97767 -0.12157 0.68108
 H527 H 0.84609 -0.09385 0.69205
 H528 H 0.84711 -0.07118 0.63312
 H529 H 0.88162 -0.05224 0.58209
 H530 H 0.98025 -0.08976 0.62635
 C531 C 1.12398 -0.10629 0.23627
 C532 C 1.10904 -0.09187 0.26697
 C533 C 1.07117 -0.09226 0.27281
 C534 C 1.04904 -0.10800 0.24871
 C535 C 1.06419 -0.12399 0.21938
 C536 C 1.10178 -0.12327 0.21255
 C537 C 1.05598 -0.07769 0.30305
 C538 C 1.07823 -0.06432 0.32850
 C539 C 1.11618 -0.06515 0.32362
 C540 C 1.13135 -0.07818 0.29247
 C541 C 1.13820 -0.05340 0.35028
 C542 C 1.12267 -0.04103 0.38141
 C543 C 1.08498 -0.03926 0.38576
 C544 C 1.06297 -0.05076 0.35915
 H545 H 1.15300 -0.10592 0.23189
 H546 H 1.02000 -0.10868 0.25294
 H547 H 1.04613 -0.13648 0.20169
 H548 H 1.02689 -0.07759 0.30718
 H549 H 1.16044 -0.07848 0.28846
 H550 H 1.16736 -0.05407 0.34715
 H551 H 1.13997 -0.03214 0.40175
 H552 H 1.03385 -0.04978 0.36264
 C553 C 0.87436 0.14439 0.25376
 C554 C 0.88361 0.12677 0.28413
 C555 C 0.87655 0.09102 0.28707
 C556 C 0.85884 0.07390 0.26053
 C557 C 0.84831 0.09184 0.23118
 C558 C 0.85641 0.12715 0.22697
 C559 C 0.88718 0.07290 0.31651
 C560 C 0.90370 0.09027 0.34371
 C561 C 0.90908 0.12638 0.34172
 C562 C 0.89952 0.14432 0.31171
 C563 C 0.92433 0.14380 0.36970
 C564 C 0.93499 0.12547 0.39893
 C565 C 0.93110 0.08947 0.40029
 C566 C 0.91529 0.07199 0.37274
 H567 H 0.88035 0.17167 0.25149
 H568 H 0.85292 0.04659 0.26254
 H569 H 0.83464 0.07754 0.21130
 H570 H 0.88248 0.04531 0.31831
 H571 H 0.90435 0.17187 0.30988
 H572 H 0.92850 0.17148 0.36876
 H573 H 0.94773 0.13913 0.41983
 H574 H 0.91251 0.04411 0.37380
 C575 C 0.14287 0.26491 -0.15161
 C576 C 0.12892 0.29229 -0.13118
 C577 C 0.13393 0.29223 -0.09509
 C578 C 0.15467 0.26573 -0.08040
 C579 C 0.16994 0.23933 -0.10117
 C580 C 0.16355 0.23808 -0.13693
 C581 C 0.11820 0.31868 -0.07441
 C582 C 0.09876 0.34587 -0.08963
 C583 C 0.09569 0.34687 -0.12601
 C584 C 0.11020 0.31980 -0.14644
 C585 C 0.07808 0.37496 -0.14143
 C586 C 0.06310 0.40161 -0.12101
 C587 C 0.06460 0.40010 -0.08489
 C588 C 0.08245 0.37222 -0.06919
 H589 H 0.13815 0.26502 -0.17917
 H590 H 0.15913 0.26542 -0.05282
 H591 H 0.18565 0.21920 -0.08888
 H592 H 0.12132 0.31825 -0.04661
 H593 H 0.10709 0.32024 -0.17424
 H594 H 0.07590 0.37633 -0.16926
 H595 H 0.04931 0.42297 -0.13337
 H596 H 0.08379 0.37127 -0.04125
 C597 C -0.14117 0.24076 0.11846
 C598 C -0.12554 0.27254 0.10964
 C599 C -0.10187 0.28871 0.13269
 C600 C -0.09414 0.27272 0.16411
 C601 C -0.10956 0.24099 0.17266
 C602 C -0.13331 0.22445 0.15002
 C603 C -0.08620 0.32048 0.12391
 C604 C -0.09371 0.33619 0.09220
 C605 C -0.11725 0.31982 0.06904
 C606 C -0.13308 0.28824 0.07796
 C607 C -0.12429 0.33514 0.03710
 C608 C -0.10803 0.36626 0.02806
 C609 C -0.08470 0.38265 0.05079
 C610 C -0.07768 0.36773 0.08294
 H611 H -0.15924 0.22873 0.10045
 H612 H -0.07603 0.28472 0.18210
 H613 H -0.10276 0.22952 0.19717
 H614 H -0.06799 0.33281 0.14161
 H615 H -0.15108 0.27578 0.06014
 H616 H -0.14203 0.32287 0.01896
 H617 H -0.11355 0.37759 0.00317
 H618 H -0.05927 0.38029 0.10029
 C619 C -0.10804 0.76153 -0.13771
 C620 C -0.10447 0.73088 -0.11879
 C621 C -0.11586 0.73020 -0.08367
 C622 C -0.13198 0.75970 -0.06848
 C623 C -0.13810 0.78916 -0.08824
 C624 C -0.12621 0.79048 -0.12304
 C625 C -0.11202 0.69974 -0.06460
 C626 C -0.09899 0.66937 -0.08076
 C627 C -0.08963 0.66951 -0.11641
 C628 C -0.09142 0.70048 -0.13495
 C629 C -0.07859 0.63861 -0.13291
 C630 C -0.07559 0.60812 -0.11399
 C631 C -0.08272 0.60834 -0.07823
 C632 C -0.09494 0.63887 -0.06179
 H633 H -0.09940 0.76174 -0.16467
 H634 H -0.14113 0.75956 -0.04169
 H635 H -0.15199 0.81108 -0.07609
 H636 H -0.12000 0.69944 -0.03746
 H637 H -0.08357 0.70071 -0.16212
 H638 H -0.07164 0.63817 -0.16025
 H639 H -0.06545 0.58486 -0.12689
 H640 H -0.10031 0.63902 -0.03412
 C641 C 0.10789 0.75647 0.11987
 C642 C 0.08897 0.72780 0.10806
 C643 C 0.05211 0.73145 0.09969
 C644 C 0.03449 0.76358 0.10471
 C645 C 0.05330 0.79176 0.11782
 C646 C 0.09018 0.78843 0.12494
 C647 C 0.03356 0.70290 0.08675
 C648 C 0.05112 0.67057 0.08324
 C649 C 0.08745 0.66670 0.09332
 C650 C 0.10629 0.69543 0.10512
 C651 C 0.10452 0.63417 0.09123
 C652 C 0.08607 0.60573 0.07861
 C653 C 0.05046 0.60944 0.06722
 C654 C 0.03308 0.64201 0.06967
 H655 H 0.13619 0.75372 0.12620
 H656 H 0.00614 0.76678 0.09892
 H657 H 0.03924 0.81625 0.12204
 H658 H 0.00550 0.70579 0.07964
 H659 H 0.13435 0.69256 0.11224
 H660 H 0.13227 0.63076 0.09905
 H661 H 0.10018 0.58102 0.07664
 H662 H 0.00572 0.64523 0.06074
 C663 C 0.25177 1.13342 0.88025
 C664 C 0.28249 1.11480 0.89078
 C665 C 0.30909 1.10417 0.86596
 C666 C 0.30366 1.11091 0.83090
 C667 C 0.27254 1.12853 0.82055
 C668 C 0.24670 1.14050 0.84511
 C669 C 0.34064 1.08703 0.87657
 C670 C 0.34537 1.07922 0.91156
 C671 C 0.31791 1.08839 0.93611
 C672 C 0.28700 1.10663 0.92568
 C673 C 0.32161 1.07880 0.97071
 C674 C 0.35211 1.06020 0.98090
 C675 C 0.38024 1.05215 0.95710
 C676 C 0.37683 1.06188 0.92240
 H677 H 0.23175 1.14228 0.89931
 H678 H 0.32355 1.10268 0.81147
 H679 H 0.26921 1.13377 0.79334
 H680 H 0.36133 1.07952 0.85757
 H681 H 0.26630 1.11413 0.94466
 H682 H 0.30070 1.08525 0.98981
 H683 H 0.35385 1.05233 1.00760
 H684 H 0.39812 1.05512 0.90377
 C685 C 0.22936 0.86586 1.14371
 C686 C 0.26166 0.87475 1.12612
 C687 C 0.26171 0.87880 1.08976
 C688 C 0.23018 0.87290 1.07151
 C689 C 0.19872 0.86312 1.08897
 C690 C 0.19785 0.85980 1.12507
 C691 C 0.29322 0.88871 1.07207
 C692 C 0.32507 0.89406 1.09000
 C693 C 0.32578 0.88877 1.12608
 C694 C 0.29392 0.87942 1.14402
 C695 C 0.35832 0.89334 1.14350
 C696 C 0.38943 0.90406 1.12546
 C697 C 0.38824 0.91082 1.08991
 C698 C 0.35612 0.90520 1.07229
 H699 H 0.22889 0.86293 1.17155
 H700 H 0.22987 0.87570 1.04368
 H701 H 0.17469 0.85861 1.07420
 H702 H 0.29292 0.89237 1.04429
 H703 H 0.29422 0.87587 1.17179
 H704 H 0.35953 0.88919 1.17111
 H705 H 0.41396 0.90843 1.13950
 H706 H 0.35518 0.91002 1.04474
 C707 C 0.76019 1.10749 1.13823
 C708 C 0.73243 1.09355 1.11868
 C709 C 0.73043 1.10106 1.08308
 C710 C 0.75619 1.12291 1.06784
 C711 C 0.78326 1.13753 1.08782
 C712 C 0.78556 1.12985 1.12317
 C713 C 0.70235 1.08717 1.06361
 C714 C 0.67558 1.06697 1.07970
 C715 C 0.67745 1.06019 1.11554
 C716 C 0.70615 1.07295 1.13457
 C717 C 0.65011 1.04137 1.13208
 C718 C 0.62070 1.02991 1.11354
 C719 C 0.61861 1.03616 1.07801
 C720 C 0.64639 1.05419 1.06093
 H721 H 0.76134 1.10172 1.16557
 H722 H 0.75507 1.12910 1.04061
 H723 H 0.80252 1.15466 1.07561
 H724 H 0.70083 1.09277 1.03625
 H725 H 0.70752 1.06757 1.16200
 H726 H 0.65112 1.03605 1.15950
 H727 H 0.59954 1.01585 1.12691
 H728 H 0.64458 1.05923 1.03351
 C729 C 0.75899 0.86220 0.86214
 C730 C 0.72706 0.87858 0.87373
 C731 C 0.72544 0.91509 0.87647
 C732 C 0.75527 0.93461 0.86558
 C733 C 0.78690 0.91796 0.85338
 C734 C 0.78911 0.88173 0.85259
 C735 C 0.69446 0.93130 0.89084
 C736 C 0.66517 0.91138 0.90219
 C737 C 0.66609 0.87502 0.89755
 C738 C 0.69711 0.85885 0.88344
 C739 C 0.63629 0.85533 0.90797
 C740 C 0.60636 0.87135 0.92416
 C741 C 0.60623 0.90708 0.93060
 C742 C 0.63532 0.92711 0.91897
 H743 H 0.76069 0.83416 0.86101
 H744 H 0.75437 0.96262 0.86716
 H745 H 0.81006 0.93324 0.84593
 H746 H 0.69347 0.95924 0.89391
 H747 H 0.69826 0.83088 0.88075
 H748 H 0.63647 0.82750 0.90427
 H749 H 0.58399 0.85567 0.93295
 H750 H 0.63488 0.95486 0.92349
   
