data_POSCAR
  _audit_creation_date              2014-09-24
  _audit_creation_method            'ToBaCCo'
  _symmetry_space_group_name_H-M    'P1'
  _symmetry_Int_Tables_number       1
  _symmetry_cell_setting            triclinic
  loop_
  _symmetry_equiv_pos_as_xyz
 x,y,z
_cell_length_a 28.2225
_cell_length_b 28.0256
_cell_length_c 28.1673
_cell_angle_alpha 89.896800
_cell_angle_beta 89.950400
_cell_angle_gamma 90.001900
loop_
  _atom_site_label
  _atom_site_type_symbol
  _atom_site_fract_x
  _atom_site_fract_y
  _atom_site_fract_z
C1 C 0.18798 1.25132 0.18973
 C2 C 0.22818 1.22969 0.16929
 C3 C 0.24967 1.18946 0.18990
 C4 C 0.22852 1.16887 0.23022
 C5 C 0.18829 1.18928 0.25183
 C6 C 0.16750 1.22940 0.22990
 H7 H 0.24173 1.24242 0.13568
 H8 H 0.24175 1.13525 0.24352
 H9 H 0.13372 1.24245 0.24250
 C10 C 0.81175 0.74780 0.18772
 C11 C 0.83255 0.76974 0.22763
 C12 C 0.81166 0.80964 0.24950
 C13 C 0.77104 0.82974 0.22873
 C14 C 0.74974 0.80942 0.18850
 C15 C 0.77130 0.76938 0.16762
 H16 H 0.86660 0.75755 0.24008
 H17 H 0.75705 0.86276 0.24281
 H18 H 0.75812 0.75623 0.13410
 C19 C 0.81179 1.25201 -0.18875
 C20 C 0.77200 1.23009 -0.16763
 C21 C 0.75010 1.19008 -0.18825
 C22 C 0.77080 1.16971 -0.22884
 C23 C 0.81087 1.19011 -0.25050
 C24 C 0.83160 1.23039 -0.22932
 H25 H 0.75967 1.24240 -0.13353
 H26 H 0.75685 1.13634 -0.24190
 H27 H 0.86473 1.24373 -0.24349
 C28 C 0.18913 0.74828 -0.18862
 C29 C 0.22933 0.77010 -0.16843
 C30 C 0.25026 0.81080 -0.18881
 C31 C 0.22859 0.83156 -0.22874
 C32 C 0.18849 0.81082 -0.24993
 C33 C 0.16827 0.77027 -0.22852
 H34 H 0.24339 0.75656 -0.13530
 H35 H 0.24118 0.86553 -0.24158
 H36 H 0.13474 0.75750 -0.24193
 C37 C 0.57134 1.06644 -0.01675
 H38 H 0.57167 1.06866 0.02159
 C39 C 0.60365 1.09297 -0.04340
 H40 H 0.62886 1.11559 -0.02518
 C41 C 0.53940 1.03249 -0.08665
 H42 H 0.51520 1.00780 -0.10328
 C43 C 0.57124 1.05830 -0.11473
 H44 H 0.57064 1.05231 -0.15253
 N45 N 0.53978 1.03726 -0.03863
 C46 C 0.42822 1.01771 0.06668
 H47 H 0.42784 0.97918 0.06902
 C48 C 0.39598 1.04450 0.09305
 H49 H 0.37080 1.02620 0.11571
 C50 C 0.46024 1.08795 0.03263
 H51 H 0.48448 1.10466 0.00800
 C52 C 0.42845 1.11619 0.05826
 H53 H 0.42919 1.15418 0.05225
 Zn54 Zn 0.49972 1.00018 0.00067
 N55 N 0.45977 1.03969 0.03751
 C56 C 0.53909 0.96768 0.08802
 N57 N 0.53956 0.96300 0.03999
 C58 C 0.57106 0.93374 0.01808
 C59 C 0.60324 0.90708 0.04468
 C60 C 0.57082 0.94175 0.11607
 C61 C 0.42834 0.98280 -0.06540
 C62 C 0.39618 0.95607 -0.09188
 C63 C 0.42856 0.88430 -0.05721
 C64 C 0.46024 0.91248 -0.03145
 N65 N 0.45980 0.96076 -0.03624
 H66 H 0.51490 0.99238 0.10469
 H67 H 0.57145 0.93157 -0.02026
 H68 H 0.62840 0.88440 0.02643
 H69 H 0.57012 0.94762 0.15388
 H70 H 0.42796 1.02134 -0.06765
 H71 H 0.37105 0.97442 -0.11449
 H72 H 0.42919 0.84630 -0.05124
 H73 H 0.48436 0.89571 -0.00679
 C74 C 0.39578 1.09458 0.08945
 C75 C 0.60386 1.08957 -0.09323
 C76 C 0.39605 0.90598 -0.08846
 C77 C 0.60343 0.91047 0.09451
 C78 C -0.01744 0.57134 1.06575
 H79 H 0.02079 0.57154 1.06857
 C80 C -0.04431 0.60364 1.09205
 H81 H -0.02638 0.62868 1.11512
 C82 C -0.08680 0.53969 1.03065
 H83 H -0.10313 0.51560 1.00565
 C84 C -0.11509 0.57155 1.05617
 H85 H -0.15273 0.57104 1.04967
 N86 N -0.03895 0.53988 1.03615
 C87 C 0.06665 0.42787 1.01811
 H88 H 0.06957 0.42762 0.97981
 C89 C 0.09288 0.39561 1.04516
 H90 H 0.11600 0.37054 1.02730
 C91 C 0.03138 0.45961 1.08748
 H92 H 0.00634 0.48373 1.10374
 C93 C 0.05682 0.42778 1.11596
 H94 H 0.05024 0.42836 1.15366
 Zn95 Zn 0.00063 0.49957 0.99975
 N96 N 0.03698 0.45935 1.03954
 C97 C 0.08814 0.53946 0.96856
 N98 N 0.04029 0.53971 0.96311
 C99 C 0.01878 0.57115 0.93338
 C100 C 0.04566 0.60341 0.90694
 C101 C 0.11645 0.57130 0.94291
 C102 C -0.06554 0.42799 0.98182
 C103 C -0.09196 0.39581 0.95497
 C104 C -0.05601 0.42785 0.88395
 C105 C -0.03036 0.45960 0.91223
 N106 N -0.03584 0.45937 0.96018
 H107 H 0.10447 0.51536 0.99365
 H108 H -0.01945 0.57138 0.93059
 H109 H 0.02773 0.62847 0.88379
 H110 H 0.15409 0.57077 0.94937
 H111 H -0.06836 0.42776 1.02013
 H112 H -0.11511 0.37083 0.97299
 H113 H -0.04954 0.42838 0.84622
 H114 H -0.00530 0.48362 0.89580
 C115 C 0.08859 0.39528 1.09493
 C116 C -0.09398 0.60399 1.08792
 C117 C -0.08785 0.39549 0.90519
 C118 C 0.09533 0.60378 0.91108
 C119 C 1.06499 -0.01727 0.57131
 H120 H 1.06731 0.02126 0.57157
 C121 C 1.09125 -0.04406 0.60371
 H122 H 1.11379 -0.02576 0.62890
 C123 C 1.03116 -0.08751 0.53938
 H124 H 1.00666 -0.10422 0.51511
 C125 C 1.05670 -0.11575 0.57131
 H126 H 1.05074 -0.15374 0.57067
 N127 N 1.03600 -0.03925 0.53971
 C128 C 1.01757 0.06684 0.42794
 H129 H 0.97933 0.06948 0.42751
 C130 C 1.04449 0.09334 0.39580
 H131 H 1.02659 0.11639 0.37066
 C132 C 1.08693 0.03196 0.45999
 H133 H 1.10325 0.00697 0.48420
 C134 C 1.11528 0.05766 0.42828
 H135 H 1.15295 0.05133 0.42905
 Zn136 Zn 0.99948 0.00030 0.49941
 N137 N 1.03905 0.03722 0.45948
 C138 C 0.96748 0.08818 0.53872
 N139 N 0.96257 0.03992 0.53918
 C140 C 0.93329 0.01798 0.57068
 C141 C 0.90684 0.04479 0.60285
 C142 C 0.94175 0.11644 0.57042
 C143 C 0.98228 -0.06611 0.42793
 C144 C 0.95577 -0.09273 0.39570
 C145 C 0.88449 -0.05775 0.42785
 C146 C 0.91244 -0.03184 0.45962
 N147 N 0.96036 -0.03673 0.45934
 H148 H 0.99222 0.10486 0.51459
 H149 H 0.93094 -0.02055 0.57109
 H150 H 0.88417 0.02651 0.62803
 H151 H 0.94784 0.15442 0.56978
 H152 H 1.02054 -0.06843 0.42767
 H153 H 0.97402 -0.11552 0.37062
 H154 H 0.84677 -0.05169 0.42836
 H155 H 0.89578 -0.00701 0.48369
 C156 C 1.09419 0.08934 0.39565
 C157 C 1.08775 -0.09414 0.60399
 C158 C 0.90604 -0.08925 0.39542
 C159 C 0.91043 0.09486 0.60299
 C160 C 0.16380 0.29044 1.16642
 C161 C 0.12347 0.27233 1.13465
 C162 C 0.09876 0.30734 1.11239
 C163 C 0.11612 0.35809 1.12326
 C164 C 0.11517 0.36161 1.17799
 C165 C 0.14015 0.32656 1.20032
 C166 C 0.19429 0.32266 1.13386
 C167 C 0.16934 0.35756 1.11133
 H168 H 0.11489 0.23483 1.13015
 H169 H 0.06909 0.29960 1.08913
 H170 H 0.10037 0.39095 1.19805
 H171 H 0.14550 0.32684 1.23849
 H172 H 0.23265 0.32139 1.13169
 H173 H 0.18654 0.38447 1.08955
 C174 C -0.16508 0.70875 1.16339
 C175 C -0.19898 0.67248 1.14004
 C176 C -0.17676 0.63746 1.11499
 C177 C -0.12214 0.64116 1.11557
 C178 C -0.11144 0.69191 1.09794
 C179 C -0.13359 0.72690 1.12272
 C180 C -0.13240 0.67669 1.19384
 C181 C -0.10999 0.64181 1.16882
 H182 H -0.23704 0.67203 1.14570
 H183 H -0.19680 0.60799 1.10046
 H184 H -0.08837 0.69968 1.06804
 H185 H -0.12919 0.76440 1.11396
 H186 H -0.12999 0.67813 1.23225
 H187 H -0.08810 0.61503 1.18600
 C188 C -0.16373 0.29102 0.83426
 C189 C -0.19395 0.32320 0.86698
 C190 C -0.16879 0.35799 0.88932
 C191 C -0.11564 0.35844 0.87707
 C192 C -0.09832 0.30763 0.88788
 C193 C -0.12324 0.27273 0.86580
 C194 C -0.14020 0.32718 0.80018
 C195 C -0.11502 0.36212 0.82233
 H196 H -0.23229 0.32189 0.86945
 H197 H -0.18580 0.38484 0.91123
 H198 H -0.06852 0.29976 0.91095
 H199 H -0.11470 0.23520 0.87026
 H200 H -0.14588 0.32767 0.76206
 H201 H -0.10036 0.39153 0.80217
 C202 C 0.16618 0.70898 0.83563
 C203 C 0.20020 0.67284 0.85915
 C204 C 0.17808 0.63766 0.88419
 C205 C 0.12344 0.64109 0.88345
 C206 C 0.11245 0.69174 0.90097
 C207 C 0.13449 0.72688 0.87619
 C208 C 0.13375 0.67682 0.80514
 C209 C 0.11144 0.64178 0.83016
 H210 H 0.23828 0.67259 0.85358
 H211 H 0.19822 0.60827 0.89886
 H212 H 0.08928 0.69934 0.93080
 H213 H 0.12989 0.76434 0.88489
 H214 H 0.13148 0.67827 0.76672
 H215 H 0.08974 0.61491 0.81296
 C216 C 1.16522 0.16496 0.29092
 C217 C 1.13271 0.19566 0.32285
 C218 C 1.11034 0.17058 0.35771
 C219 C 1.12236 0.11703 0.35850
 C220 C 1.11147 0.09934 0.30811
 C221 C 1.13357 0.12419 0.27313
 C222 C 1.19917 0.14136 0.32695
 C223 C 1.17699 0.11625 0.36197
 H224 H 1.13045 0.23428 0.32135
 H225 H 1.08858 0.18791 0.38440
 H226 H 1.08833 0.06935 0.30057
 H227 H 1.12904 0.11540 0.23587
 H228 H 1.23725 0.14690 0.32720
 H229 H 1.19711 0.10150 0.39121
 C230 C 1.16296 -0.16478 0.70896
 C231 C 1.19320 -0.13140 0.67753
 C232 C 1.16831 -0.10921 0.64249
 C233 C 1.11532 -0.12218 0.64128
 C234 C 1.11543 -0.17721 0.63772
 C235 C 1.14035 -0.19922 0.67291
 C236 C 1.12187 -0.13371 0.72666
 C237 C 1.09714 -0.11167 0.69161
 H238 H 1.23143 -0.12820 0.67973
 H239 H 1.18541 -0.08673 0.61613
 H240 H 1.10110 -0.19764 0.60850
 H241 H 1.14610 -0.23752 0.67306
 H242 H 1.11284 -0.12953 0.76390
 H243 H 1.06693 -0.08888 0.69903
 C244 C 0.83589 -0.16481 0.29060
 C245 C 0.86948 -0.19525 0.32151
 C246 C 0.89154 -0.17029 0.35653
 C247 C 0.87825 -0.11704 0.35822
 C248 C 0.88821 -0.09825 0.30794
 C249 C 0.86630 -0.12304 0.27292
 C250 C 0.80174 -0.14262 0.32714
 C251 C 0.82364 -0.11765 0.36230
 H252 H 0.87296 -0.23370 0.31898
 H253 H 0.91416 -0.18754 0.38257
 H254 H 0.91058 -0.06760 0.30052
 H255 H 0.87014 -0.11362 0.23570
 H256 H 0.76378 -0.14886 0.32739
 H257 H 0.80348 -0.10379 0.39193
 C258 C 0.83589 0.16565 0.70818
 C259 C 0.80545 0.13202 0.67738
 C260 C 0.83008 0.10977 0.64222
 C261 C 0.88302 0.12293 0.64030
 C262 C 0.88265 0.17794 0.63629
 C263 C 0.85801 0.20003 0.67160
 C264 C 0.87727 0.13480 0.72564
 C265 C 0.90173 0.11271 0.69048
 H266 H 0.76726 0.12875 0.67995
 H267 H 0.81280 0.08718 0.61619
 H268 H 0.89654 0.19825 0.60667
 H269 H 0.85208 0.23830 0.67151
 H270 H 0.88668 0.13080 0.76280
 H271 H 0.93207 0.09003 0.69774
 C272 C 0.29084 1.16513 0.16452
 C273 C 0.32220 1.13193 0.19497
 C274 C 0.35724 1.10977 0.17012
 C275 C 0.35852 1.12260 0.11697
 C276 C 0.30834 1.11190 0.09880
 C277 C 0.27329 1.13388 0.12348
 C278 C 0.32682 1.19962 0.14170
 C279 C 0.36201 1.17764 0.11684
 H280 H 0.32002 1.12887 0.23329
 H281 H 0.38357 1.08744 0.18735
 H282 H 0.30100 1.08900 0.06863
 H283 H 0.23614 1.12956 0.11446
 H284 H 0.32660 1.23794 0.14729
 H285 H 0.39116 1.19813 0.10236
 C286 C 0.70896 1.16471 -0.16378
 C287 C 0.67831 1.19526 -0.13010
 C288 C 0.64320 1.17044 -0.10790
 C289 C 0.64117 1.11721 -0.12117
 C290 C 0.63710 1.11788 -0.17587
 C291 C 0.67235 1.14271 -0.19790
 C292 C 0.72635 1.12284 -0.13330
 C293 C 0.69124 1.09819 -0.11125
 H294 H 0.68104 1.23370 -0.12667
 H295 H 0.61731 1.18779 -0.08522
 H296 H 0.60746 1.10414 -0.19602
 H297 H 0.67217 1.14892 -0.23595
 H298 H 0.76344 1.11326 -0.12950
 H299 H 0.69846 1.06750 -0.08882
 C300 C 0.29134 0.83527 -0.16351
 C301 C 0.27375 0.86579 -0.12193
 C302 C 0.30874 0.88787 -0.09730
 C303 C 0.35889 0.87795 -0.11606
 C304 C 0.36300 0.82297 -0.11667
 C305 C 0.32787 0.80090 -0.14147
 C306 C 0.32209 0.86920 -0.19384
 C307 C 0.35708 0.89143 -0.16904
 H308 H 0.23663 0.86959 -0.11251
 H309 H 0.30138 0.91033 -0.06680
 H310 H 0.39258 0.80268 -0.10285
 H311 H 0.32808 0.76267 -0.14761
 H312 H 0.31955 0.87273 -0.23209
 H313 H 0.38304 0.91426 -0.18624
 C314 C 0.70849 0.83494 0.16449
 C315 C 0.67724 0.80442 0.13139
 C316 C 0.64214 0.82940 0.10941
 C317 C 0.64072 0.88274 0.12232
 C318 C 0.63718 0.88251 0.17708
 C319 C 0.67242 0.85751 0.19889
 C320 C 0.72594 0.87644 0.13352
 C321 C 0.69085 0.90126 0.11172
 H322 H 0.67959 0.76594 0.12821
 H323 H 0.61589 0.81213 0.08714
 H324 H 0.60793 0.89678 0.19748
 H325 H 0.67258 0.85159 0.23698
 H326 H 0.76307 0.88569 0.12925
 H327 H 0.69812 0.93175 0.08902
   
