data_POSCAR
  _audit_creation_date              2014-09-24
  _audit_creation_method            'ToBaCCo'
  _symmetry_space_group_name_H-M    'P1'
  _symmetry_Int_Tables_number       1
  _symmetry_cell_setting            triclinic
  loop_
  _symmetry_equiv_pos_as_xyz
 x,y,z
_cell_length_a 36.4208
_cell_length_b 38.7254
_cell_length_c 35.8650
_cell_angle_alpha 86.939400
_cell_angle_beta 88.983300
_cell_angle_gamma 87.348800
loop_
  _atom_site_label
  _atom_site_type_symbol
  _atom_site_fract_x
  _atom_site_fract_y
  _atom_site_fract_z
C1 C 1.25311 0.22010 0.26306
 C2 C 1.23344 0.23474 0.23268
 C3 C 1.21632 0.21362 0.20863
 C4 C 1.21854 0.17747 0.21500
 C5 C 1.23819 0.16286 0.24577
 C6 C 1.25567 0.18412 0.27017
 C7 C 1.23410 0.27210 0.22429
 C8 C 1.26448 0.28538 0.20520
 C9 C 1.26844 0.32115 0.20071
 C10 C 1.24025 0.34357 0.21429
 C11 C 1.20926 0.33050 0.23304
 C12 C 1.20652 0.29443 0.23821
 H13 H 1.26689 0.23702 0.28092
 H14 H 1.20285 0.22552 0.18421
 H15 H 1.28585 0.26753 0.19524
 H16 H 1.18406 0.28329 0.25401
 H17 H 1.24057 0.13496 0.24948
 H18 H 1.24174 0.37132 0.21036
 C19 C 0.77540 -0.29999 0.27160
 C20 C 0.74798 -0.27739 0.25591
 C21 C 0.71870 -0.29068 0.23736
 C22 C 0.71620 -0.32637 0.23430
 C23 C 0.74333 -0.34896 0.25095
 C24 C 0.77314 -0.33618 0.26972
 C25 C 0.74928 -0.23961 0.25898
 C26 C 0.77834 -0.22147 0.24274
 C27 C 0.77771 -0.18518 0.24218
 C28 C 0.74865 -0.16712 0.26041
 C29 C 0.71995 -0.18538 0.27809
 C30 C 0.72013 -0.22146 0.27627
 H31 H 0.79722 -0.28895 0.28642
 H32 H 0.69796 -0.27295 0.22480
 H33 H 0.80050 -0.23555 0.22871
 H34 H 0.69773 -0.23569 0.28890
 H35 H 0.74208 -0.37660 0.24867
 H36 H 0.74827 -0.13917 0.26050
 C37 C 0.76474 0.21695 -0.25602
 C38 C 0.73440 0.23372 -0.27380
 C39 C 0.70807 0.21418 -0.29001
 C40 C 0.71221 0.17790 -0.28929
 C41 C 0.74242 0.16141 -0.27082
 C42 C 0.76844 0.18064 -0.25355
 C43 C 0.72910 0.27168 -0.27366
 C44 C 0.75643 0.29320 -0.28803
 C45 C 0.75159 0.32955 -0.28733
 C46 C 0.71893 0.34362 -0.27152
 C47 C 0.69162 0.32212 -0.25645
 C48 C 0.69689 0.28623 -0.25814
 H49 H 0.78489 0.23235 -0.24365
 H50 H 0.68432 0.22757 -0.30262
 H51 H 0.78062 0.28099 -0.30035
 H52 H 0.67629 0.26935 -0.24624
 H53 H 0.74536 0.13337 -0.26931
 H54 H 0.71572 0.37139 -0.26991
 C55 C 1.25748 -0.30411 -0.23332
 C56 C 1.22827 -0.28386 -0.24905
 C57 C 1.19875 -0.29993 -0.26437
 C58 C 1.19847 -0.33615 -0.26453
 C59 C 1.22736 -0.35617 -0.24729
 C60 C 1.25740 -0.34051 -0.23208
 C61 C 1.22938 -0.24576 -0.24971
 C62 C 1.26025 -0.22942 -0.26474
 C63 C 1.26261 -0.19346 -0.26435
 C64 C 1.23433 -0.17382 -0.24699
 C65 C 1.20360 -0.19009 -0.23087
 C66 C 1.20085 -0.22592 -0.23345
 H67 H 1.27933 -0.29074 -0.22121
 H68 H 1.17659 -0.28414 -0.27722
 H69 H 1.28224 -0.24479 -0.27748
 H70 H 1.17735 -0.23868 -0.22109
 H71 H 1.22670 -0.38410 -0.24554
 H72 H 1.23636 -0.14612 -0.24582
 C73 C 0.23067 0.27183 0.74851
 C74 C 0.25111 0.24573 0.76852
 C75 C 0.23316 0.21786 0.78611
 C76 C 0.19472 0.21587 0.78465
 C77 C 0.17463 0.24230 0.76398
 C78 C 0.19239 0.26991 0.74531
 C79 C 0.29168 0.24618 0.76885
 C80 C 0.30952 0.27255 0.78581
 C81 C 0.34835 0.27308 0.78526
 C82 C 0.36847 0.24713 0.76649
 C83 C 0.35092 0.22073 0.74948
 C84 C 0.31242 0.22033 0.75104
 H85 H 0.24493 0.29315 0.73512
 H86 H 0.24946 0.19771 0.80119
 H87 H 0.29269 0.29208 0.79927
 H88 H 0.29816 0.20092 0.73707
 H89 H 0.14522 0.24155 0.76126
 H90 H 0.39824 0.24733 0.76509
 C91 C 0.73844 0.78749 0.74193
 C92 C 0.75465 0.75630 0.75658
 C93 C 0.73274 0.73138 0.77432
 C94 C 0.69444 0.73758 0.77807
 C95 C 0.67861 0.76887 0.76266
 C96 C 0.70025 0.79404 0.74414
 C97 C 0.79479 0.74987 0.75344
 C98 C 0.81846 0.77285 0.76830
 C99 C 0.85679 0.76695 0.76588
 C100 C 0.87119 0.73801 0.74758
 C101 C 0.84756 0.71516 0.73186
 C102 C 0.80942 0.72082 0.73574
 H103 H 0.75579 0.80635 0.72794
 H104 H 0.74625 0.70768 0.78523
 H105 H 0.80672 0.79445 0.78314
 H106 H 0.79104 0.70320 0.72396
 H107 H 0.64922 0.77299 0.76536
 H108 H 0.90070 0.73316 0.74595
 C109 C 0.71253 0.27186 0.24373
 C110 C 0.73542 0.24985 0.26628
 C111 C 0.72011 0.22553 0.29139
 C112 C 0.68203 0.22237 0.29382
 C113 C 0.65902 0.24469 0.27129
 C114 C 0.67398 0.26976 0.24626
 C115 C 0.77562 0.25002 0.26175
 C116 C 0.79584 0.27378 0.28000
 C117 C 0.83454 0.27196 0.27813
 C118 C 0.85236 0.24617 0.25717
 C119 C 0.83230 0.22235 0.23848
 C120 C 0.79375 0.22437 0.24138
 H121 H 0.72526 0.28951 0.22361
 H122 H 0.73812 0.20830 0.30837
 H123 H 0.78103 0.29250 0.29655
 H124 H 0.77733 0.20565 0.22891
 H125 H 0.62947 0.24297 0.27345
 H126 H 0.88214 0.24438 0.25571
 C127 C 0.22783 0.79014 0.23198
 C128 C 0.24592 0.76482 0.25501
 C129 C 0.22572 0.74410 0.28024
 C130 C 0.18713 0.74898 0.28334
 C131 C 0.16949 0.77576 0.26102
 C132 C 0.18955 0.79608 0.23462
 C133 C 0.28639 0.76139 0.25411
 C134 C 0.30666 0.78540 0.27200
 C135 C 0.34522 0.78211 0.27239
 C136 C 0.36315 0.75470 0.25441
 C137 C 0.34335 0.73095 0.23558
 C138 C 0.30466 0.73415 0.23600
 H139 H 0.24396 0.80568 0.21231
 H140 H 0.24081 0.72532 0.29810
 H141 H 0.29207 0.80575 0.28657
 H142 H 0.28852 0.71564 0.22278
 H143 H 0.13989 0.77932 0.26303
 H144 H 0.39292 0.75209 0.25470
 O145 O 1.07635 0.03475 0.01248
 O146 O 0.91029 -0.02681 0.01127
 O147 O 0.95989 0.04946 0.05137
 O148 O 1.02440 -0.05820 0.03415
 O149 O 0.91228 0.03539 0.02052
 O150 O 1.03779 -0.00719 0.04939
 O151 O 0.95471 -0.06161 0.03522
 O152 O 1.02540 0.05310 0.03921
 C153 C 1.05906 0.05816 0.03219
 C154 C 0.92146 -0.05081 0.03441
 C155 C 0.92607 0.04583 0.04993
 C156 C 1.03761 -0.03894 0.05702
 O157 O 1.06443 -0.02738 -0.01450
 O158 O 0.93792 0.04252 -0.05431
 O159 O 1.01078 0.07276 -0.03288
 O160 O 0.95573 -0.06307 -0.03660
 O161 O 0.93113 -0.01583 -0.06092
 O162 O 1.04294 0.02744 -0.04753
 O163 O 1.02253 -0.05442 -0.04078
 O164 O 0.94506 0.07861 -0.01455
 Co165 Co 1.03749 0.01047 0.00048
 Co166 Co 0.92767 0.00895 -0.01941
 Co167 Co 0.98544 0.05797 0.00905
 Co168 Co 0.98926 -0.05339 -0.00208
 O169 O 0.98311 0.00330 -0.00456
 C170 C 1.05543 -0.04733 -0.03868
 C171 C 0.93546 0.07280 -0.04634
 C172 C 1.03189 0.05781 -0.05543
 C173 C 0.93870 -0.04716 -0.06249
 O174 O 1.08368 0.50978 0.52217
 O175 O 0.94975 0.47180 0.54970
 O176 O 0.98181 0.56801 0.50276
 O177 O 1.04323 0.42695 0.53929
 O178 O 0.96230 0.52998 0.54030
 O179 O 1.08694 0.44941 0.50668
 O180 O 0.97642 0.42357 0.53496
 O181 O 1.03482 0.53867 0.53835
 C182 C 1.06662 0.52760 0.54553
 C183 C 0.95523 0.44020 0.55548
 C184 C 0.96374 0.56116 0.53133
 C185 C 1.07627 0.43285 0.53560
 O186 O 1.06155 0.46896 0.43720
 O187 O 0.94776 0.52713 0.46422
 O188 O 1.04741 0.57367 0.47760
 O189 O 0.97949 0.42471 0.46327
 O190 O 0.93616 0.46411 0.47734
 O191 O 1.06719 0.52826 0.44930
 O192 O 1.04810 0.42115 0.46555
 O193 O 1.00194 0.54074 0.44311
 Co194 Co 1.06921 0.48892 0.48063
 Co195 Co 0.95428 0.49773 0.50653
 Co196 Co 1.01935 0.53759 0.49077
 Co197 Co 1.01219 0.42986 0.50029
 O198 O 1.01133 0.48621 0.49620
 C199 C 1.05660 0.43757 0.43608
 C200 C 0.96801 0.53983 0.43833
 C201 C 1.07156 0.55978 0.45532
 C202 C 0.94727 0.43775 0.45986
 O203 O 0.53212 0.03396 0.55437
 O204 O 0.41329 -0.04166 0.51884
 O205 O 0.45063 0.05871 0.53863
 O206 O 0.52483 -0.07084 0.54457
 O207 O 0.42951 0.00915 0.55508
 O208 O 0.55149 -0.02501 0.56027
 O209 O 0.45829 -0.06569 0.54803
 O210 O 0.51318 0.07201 0.51516
 C211 C 0.52780 0.06477 0.54554
 C212 C 0.42451 -0.06166 0.54457
 C213 C 0.43538 0.03934 0.56285
 C214 C 0.54528 -0.05620 0.56558
 O215 O 0.56620 -0.02777 0.48785
 O216 O 0.39057 0.02032 0.49746
 O217 O 0.49896 0.04736 0.45082
 O218 O 0.45780 -0.06430 0.47121
 O219 O 0.43513 -0.01270 0.45738
 O220 O 0.55152 0.03498 0.47800
 O221 O 0.52709 -0.06643 0.47212
 O222 O 0.43359 0.04753 0.46660
 Co223 Co 0.54514 0.00396 0.51903
 Co224 Co 0.43451 -0.00121 0.50646
 Co225 Co 0.47525 0.05012 0.49487
 Co226 Co 0.49112 -0.06121 0.50873
 O227 O 0.48945 -0.00506 0.50858
 C228 C 0.55818 -0.05316 0.46921
 C229 C 0.39960 0.04617 0.47500
 C230 C 0.53328 0.04617 0.44962
 C231 C 0.44144 -0.04315 0.44863
 O232 O 0.57156 0.50923 0.04713
 O233 O 0.44390 0.49491 0.04364
 O234 O 0.48525 0.56261 0.04252
 O235 O 0.52925 0.44202 0.04038
 O236 O 0.43790 0.55339 0.01354
 O237 O 0.57856 0.45468 0.01419
 O238 O 0.46698 0.44489 0.02906
 O239 O 0.54874 0.56113 0.03426
 C240 C 0.56556 0.53951 0.05635
 C241 C 0.44958 0.46363 0.05176
 C242 C 0.45162 0.56548 0.04086
 C243 C 0.56293 0.43977 0.04074
 O244 O 0.57317 0.49012 -0.04979
 O245 O 0.44832 0.52731 -0.05179
 O246 O 0.53843 0.56455 -0.04411
 O247 O 0.48278 0.45280 -0.04852
 O248 O 0.43451 0.47015 -0.02209
 O249 O 0.58446 0.54269 -0.01662
 O250 O 0.54473 0.44283 -0.03787
 O251 O 0.47570 0.57271 -0.03585
 Co252 Co 0.56984 0.49977 -0.00141
 Co253 Co 0.44860 0.51070 -0.00401
 Co254 Co 0.51179 0.56013 -0.00091
 Co255 Co 0.50626 0.45063 -0.00409
 O256 O 0.50916 0.50528 -0.00261
 C257 C 0.56349 0.46179 -0.05992
 C258 C 0.45690 0.55774 -0.05895
 C259 C 0.57199 0.56092 -0.04303
 C260 C 0.44907 0.45459 -0.04802
 C261 C 1.20281 0.15444 0.18852
 C262 C 1.17330 0.16499 0.16581
 C263 C 1.15909 0.14288 0.13799
 N264 N 1.12703 0.15238 0.12092
 N265 N 1.11336 0.13257 0.09587
 C266 C 1.13141 0.10266 0.08669
 N267 N 1.16381 0.09339 0.10333
 N268 N 1.17741 0.11315 0.12858
 C269 C 1.11522 0.07977 0.06075
 C270 C 1.07804 0.08347 0.05260
 H271 H 1.15923 0.18989 0.16910
 H272 H 1.13169 0.05803 0.05081
 H273 H 1.21431 0.12819 0.18745
 H274 H 1.06115 0.10380 0.06485
 C275 C 1.16826 0.64788 0.71621
 C276 C 1.17160 0.61461 0.70291
 C277 C 1.14427 0.60067 0.67878
 N278 N 1.15154 0.56950 0.66411
 N279 N 1.12856 0.55716 0.64021
 C280 C 1.09730 0.57548 0.63009
 N281 N 1.08965 0.60645 0.64522
 N282 N 1.11274 0.61886 0.66914
 C283 C 1.07351 0.56329 0.60118
 C284 C 1.08506 0.53568 0.57979
 H285 H 1.19646 0.59876 0.70756
 H286 H 1.04845 0.57822 0.59419
 H287 H 1.14391 0.66393 0.70932
 H288 H 1.11092 0.52176 0.58590
 C289 C 0.68488 0.15638 0.69398
 C290 C 0.66001 0.16894 0.66670
 C291 C 0.63371 0.14654 0.65036
 N292 N 0.61237 0.15901 0.62158
 N293 N 0.58919 0.13870 0.60581
 C294 C 0.58641 0.10521 0.61843
 N295 N 0.60748 0.09288 0.64743
 N296 N 0.63067 0.11315 0.66313
 C297 C 0.56303 0.08158 0.59999
 C298 C 0.54351 0.09117 0.56768
 H299 H 0.66052 0.19545 0.65571
 H300 H 0.56359 0.05485 0.61065
 H301 H 0.68531 0.12911 0.70256
 H302 H 0.54235 0.11783 0.55684
 C303 C 0.68592 0.66155 0.21186
 C304 C 0.67689 0.62704 0.21004
 C305 C 0.65015 0.61636 0.18309
 N306 N 0.64514 0.58223 0.17941
 N307 N 0.62283 0.57206 0.15350
 C308 C 0.60460 0.59565 0.13037
 N309 N 0.60918 0.62979 0.13441
 N310 N 0.63156 0.63997 0.16026
 C311 C 0.58216 0.58473 0.09976
 C312 C 0.58154 0.55016 0.09097
 H313 H 0.69045 0.60691 0.22748
 H314 H 0.56834 0.60455 0.08195
 H315 H 0.67044 0.68099 0.19500
 H316 H 0.59584 0.53041 0.10847
 C317 C 0.80728 -0.16728 0.22120
 C318 C 0.80074 -0.13688 0.19917
 C319 C 0.82824 -0.12378 0.17183
 N320 N 0.81851 -0.09791 0.14639
 N321 N 0.84254 -0.08683 0.12045
 C322 C 0.87726 -0.10119 0.11895
 N323 N 0.88710 -0.12685 0.14459
 N324 N 0.86303 -0.13801 0.17044
 C325 C 0.90416 -0.08927 0.09034
 C326 C 0.89454 -0.06501 0.06159
 H327 H 0.77366 -0.12411 0.19938
 H328 H 0.93223 -0.09969 0.09215
 H329 H 0.83368 -0.18112 0.21867
 H330 H 0.86636 -0.05491 0.05968
 C331 C 0.77778 0.35249 0.69797
 C332 C 0.81285 0.34254 0.68479
 C333 C 0.83751 0.36735 0.66623
 N334 N 0.87112 0.35599 0.65400
 N335 N 0.89309 0.37746 0.63516
 C336 C 0.88233 0.41115 0.62783
 N337 N 0.84887 0.42267 0.64046
 N338 N 0.82684 0.40116 0.65934
 C339 C 0.90518 0.43414 0.60416
 C340 C 0.93676 0.42119 0.58631
 H341 H 0.82313 0.31595 0.68746
 H342 H 0.89517 0.46055 0.59781
 H343 H 0.77035 0.37996 0.69691
 H344 H 0.94599 0.39447 0.59205
 C345 C 0.29509 -0.17756 0.71778
 C346 C 0.29315 -0.14507 0.69912
 C347 C 0.32355 -0.13241 0.67530
 N348 N 0.31712 -0.10523 0.65055
 N349 N 0.34364 -0.09444 0.62736
 C350 C 0.37771 -0.11030 0.62807
 N351 N 0.38439 -0.13716 0.65328
 N352 N 0.35773 -0.14813 0.67636
 C353 C 0.40674 -0.09868 0.60172
 C354 C 0.39765 -0.07734 0.57048
 H355 H 0.26743 -0.12990 0.69876
 H356 H 0.43510 -0.10708 0.60668
 H357 H 0.32007 -0.19364 0.71526
 H358 H 0.36897 -0.07046 0.56517
 C359 C 0.30060 0.33288 0.18316
 C360 C 0.31156 0.36694 0.18262
 C361 C 0.34415 0.37788 0.16148
 N362 N 0.35370 0.41124 0.16176
 N363 N 0.38156 0.42230 0.14061
 C364 C 0.40095 0.40041 0.11847
 N365 N 0.39185 0.36685 0.11870
 N366 N 0.36394 0.35577 0.13988
 C367 C 0.42844 0.41348 0.09163
 C368 C 0.43212 0.44887 0.08549
 H369 H 0.29648 0.38646 0.19783
 H370 H 0.44223 0.39555 0.07324
 H371 H 0.31886 0.31396 0.17016
 H372 H 0.41788 0.46674 0.10363
 C373 C 0.79862 0.16198 -0.23266
 C374 C 0.81536 0.17541 -0.20214
 C375 C 0.84165 0.15444 -0.17871
 N376 N 0.85298 0.16637 -0.14609
 N377 N 0.87523 0.14680 -0.12368
 C378 C 0.88704 0.11464 -0.13322
 N379 N 0.87608 0.10293 -0.16603
 N380 N 0.85381 0.12243 -0.18835
 C381 C 0.90942 0.09146 -0.10807
 C382 C 0.91918 0.09973 -0.07228
 H383 H 0.80708 0.20092 -0.19328
 H384 H 0.91646 0.06578 -0.11736
 H385 H 0.80546 0.13547 -0.23934
 H386 H 0.91309 0.12541 -0.06260
 C387 C 0.79861 0.63977 0.28691
 C388 C 0.83188 0.64797 0.30248
 C389 C 0.85434 0.62201 0.32462
 N390 N 0.88921 0.62874 0.33376
 N391 N 0.90898 0.60636 0.35569
 C392 C 0.89451 0.57648 0.36945
 N393 N 0.85968 0.56974 0.36026
 N394 N 0.84003 0.59199 0.33813
 C395 C 0.91441 0.55323 0.39674
 C396 C 0.95147 0.55634 0.40436
 H397 H 0.84224 0.67362 0.29852
 H398 H 0.89874 0.53450 0.41302
 H399 H 0.79213 0.61268 0.28805
 H400 H 0.96797 0.57332 0.38670
 C401 C 0.27709 0.17106 0.30031
 C402 C 0.27877 0.13670 0.31417
 C403 C 0.30452 0.12520 0.34377
 N404 N 0.29886 0.09577 0.36481
 N405 N 0.32242 0.08494 0.39136
 C406 C 0.35262 0.10302 0.39760
 N407 N 0.35848 0.13226 0.37631
 N408 N 0.33474 0.14327 0.34999
 C409 C 0.37969 0.09024 0.42540
 C410 C 0.37122 0.06480 0.45253
 H411 H 0.26024 0.11809 0.30476
 H412 H 0.40709 0.10000 0.42357
 H413 H 0.29312 0.18917 0.31449
 H414 H 0.34327 0.05655 0.45575
 C415 C 0.28575 0.63810 -0.21573
 C416 C 0.31846 0.64985 -0.20206
 C417 C 0.34505 0.62670 -0.18152
 N418 N 0.37463 0.64007 -0.16604
 N419 N 0.39778 0.61994 -0.14528
 C420 C 0.39227 0.58563 -0.13938
 N421 N 0.36301 0.57214 -0.15533
 N422 N 0.33980 0.59230 -0.17602
 C423 C 0.41541 0.56373 -0.11371
 C424 C 0.44158 0.57750 -0.09156
 H425 H 0.32510 0.67672 -0.20523
 H426 H 0.40892 0.53677 -0.10929
 H427 H 0.28201 0.61044 -0.21350
 H428 H 0.44806 0.60446 -0.09571
 C429 C 1.17434 -0.17077 -0.21042
 C430 C 1.18119 -0.14226 -0.18976
 C431 C 1.15309 -0.12666 -0.16496
 N432 N 1.16253 -0.10245 -0.14130
 N433 N 1.13772 -0.08891 -0.11782
 C434 C 1.10249 -0.09906 -0.11717
 N435 N 1.09298 -0.12306 -0.14103
 N436 N 1.11781 -0.13667 -0.16442
 C437 C 1.07475 -0.08463 -0.09122
 C438 C 1.08349 -0.06205 -0.06402
 H439 H 1.20859 -0.13260 -0.18949
 H440 H 1.04666 -0.09229 -0.09344
 H441 H 1.14747 -0.18166 -0.20818
 H442 H 1.11161 -0.05467 -0.06135
 C443 C 1.18234 0.35555 0.24933
 C444 C 1.14926 0.34665 0.26664
 C445 C 1.12870 0.37069 0.29048
 N446 N 1.10208 0.35868 0.31396
 N447 N 1.08605 0.37909 0.33877
 C448 C 1.09594 0.41232 0.34089
 N449 N 1.12184 0.42464 0.31671
 N450 N 1.13801 0.40416 0.29202
 C451 C 1.08159 0.43373 0.37091
 C452 C 1.06418 0.41883 0.40221
 H453 H 1.13962 0.32075 0.26577
 H454 H 1.08846 0.46068 0.37037
 H455 H 1.19015 0.38219 0.24975
 H456 H 1.05858 0.39156 0.40326
 C457 C 0.68886 -0.16815 0.29817
 C458 C 0.69175 -0.13791 0.31719
 C459 C 0.66208 -0.12523 0.34233
 N460 N 0.66767 -0.09827 0.36390
 N461 N 0.64172 -0.08749 0.38784
 C462 C 0.60914 -0.10325 0.39118
 N463 N 0.60344 -0.13004 0.36941
 N464 N 0.62941 -0.14086 0.34551
 C465 C 0.58041 -0.09191 0.41807
 C466 C 0.58610 -0.06575 0.44230
 H467 H 0.71727 -0.12461 0.31599
 H468 H 0.55445 -0.10452 0.41892
 H469 H 0.66375 -0.18202 0.30155
 H470 H 0.61219 -0.05336 0.44129
 C471 C 0.65905 0.33553 -0.23551
 C472 C 0.64883 0.37053 -0.23362
 C473 C 0.62439 0.38290 -0.20370
 N474 N 0.62203 0.41711 -0.19734
 N475 N 0.60360 0.42841 -0.16769
 C476 C 0.58678 0.40593 -0.14333
 N477 N 0.58829 0.37180 -0.15022
 N478 N 0.60689 0.36047 -0.17980
 C479 C 0.56961 0.41778 -0.10866
 C480 C 0.57650 0.45022 -0.09620
 H481 H 0.66159 0.38984 -0.25173
 H482 H 0.55383 0.39988 -0.09137
 H483 H 0.64408 0.31694 -0.21826
 H484 H 0.59316 0.46764 -0.11316
 C485 C 1.17827 0.18745 -0.19632
 C486 C 1.14042 0.18224 -0.19385
 C487 C 1.12502 0.15283 -0.17180
 N488 N 1.08809 0.15181 -0.16644
 N489 N 1.07361 0.12631 -0.14543
 C490 C 1.09546 0.10062 -0.12912
 N491 N 1.13238 0.10134 -0.13492
 N492 N 1.14690 0.12695 -0.15583
 C493 C 1.07995 0.07378 -0.10338
 C494 C 1.04408 0.07728 -0.08935
 H495 H 1.12074 0.20056 -0.20684
 H496 H 1.09831 0.05334 -0.09172
 H497 H 1.19629 0.16835 -0.18178
 H498 H 1.02663 0.09919 -0.09916
 C499 C 1.16566 0.72828 0.30805
 C500 C 1.17841 0.69726 0.32641
 C501 C 1.15517 0.67654 0.35223
 N502 N 1.16612 0.64346 0.36251
 N503 N 1.14573 0.62430 0.38603
 C504 C 1.11371 0.63760 0.40045
 N505 N 1.10289 0.67078 0.39043
 N506 N 1.12316 0.68988 0.36668
 C507 C 1.09085 0.61671 0.42650
 C508 C 1.09605 0.58083 0.43131
 H509 H 1.20552 0.68621 0.32048
 H510 H 1.06822 0.62974 0.44085
 H511 H 1.13689 0.73597 0.31187
 H512 H 1.11720 0.56746 0.41524
 C513 C 0.66772 0.19552 0.32035
 C514 C 0.63485 0.17933 0.31558
 C515 C 0.62311 0.15105 0.34154
 N516 N 0.59092 0.13591 0.33616
 N517 N 0.57966 0.11080 0.35992
 C518 C 0.60027 0.09976 0.38983
 N519 N 0.63262 0.11469 0.39501
 N520 N 0.64386 0.13981 0.37128
 C521 C 0.58679 0.07413 0.41799
 C522 C 0.55147 0.06203 0.41659
 H523 H 0.61771 0.18674 0.29188
 H524 H 0.60336 0.06779 0.44242
 H525 H 0.68526 0.18633 0.34322
 H526 H 0.53464 0.06906 0.39250
 C527 C 0.67108 0.71410 -0.20322
 C528 C 0.68245 0.68294 -0.18448
 C529 C 0.65634 0.66144 -0.16309
 N530 N 0.66911 0.63399 -0.14126
 N531 N 0.64603 0.61510 -0.12050
 C532 C 0.60928 0.62289 -0.12089
 N533 N 0.59643 0.65009 -0.14307
 N534 N 0.61955 0.66905 -0.16375
 C535 C 0.58375 0.60317 -0.09679
 C536 C 0.59655 0.57865 -0.06975
 H537 H 0.71102 0.67433 -0.18343
 H538 H 0.55451 0.60928 -0.09906
 H539 H 0.64193 0.72118 -0.20228
 H540 H 0.62583 0.57317 -0.06687
 C541 C 0.88175 -0.21069 -0.21529
 C542 C 0.87253 -0.17594 -0.20973
 C543 C 0.89182 -0.15570 -0.18331
 N544 N 0.88102 -0.12211 -0.17918
 N545 N 0.89590 -0.10404 -0.15323
 C546 C 0.92206 -0.11893 -0.13028
 N547 N 0.93311 -0.15246 -0.13461
 N548 N 0.91826 -0.17054 -0.16063
 C549 C 0.93701 -0.09988 -0.09999
 C550 C 0.92636 -0.06544 -0.09453
 H551 H 0.84889 -0.16350 -0.22361
 H552 H 0.95606 -0.11357 -0.08093
 H553 H 0.90733 -0.22219 -0.20445
 H554 H 0.90819 -0.05139 -0.11420
 C555 C 0.85750 0.29483 0.29919
 C556 C 0.84398 0.32329 0.31862
 C557 C 0.86778 0.34274 0.34208
 N558 N 0.85336 0.36960 0.36132
 N559 N 0.87437 0.38668 0.38351
 C560 C 0.91062 0.37748 0.38727
 N561 N 0.92502 0.35075 0.36792
 N562 N 0.90405 0.33371 0.34578
 C563 C 0.93441 0.39508 0.41230
 C564 C 0.92232 0.42256 0.43384
 H565 H 0.81528 0.33155 0.31744
 H566 H 0.96275 0.38541 0.41421
 H567 H 0.88676 0.28841 0.30000
 H568 H 0.89422 0.43284 0.43184
 C569 C 0.36774 -0.19464 0.29294
 C570 C 0.35598 -0.16148 0.30273
 C571 C 0.37845 -0.14116 0.32643
 N572 N 0.36661 -0.10892 0.33565
 N573 N 0.38584 -0.09124 0.35886
 C574 C 0.41763 -0.10521 0.37362
 N575 N 0.42958 -0.13727 0.36413
 N576 N 0.41043 -0.15488 0.34092
 C577 C 0.43746 -0.08794 0.40205
 C578 C 0.42705 -0.05516 0.41383
 H579 H 0.32972 -0.15026 0.29352
 H580 H 0.45955 -0.10277 0.41620
 H581 H 0.39522 -0.20415 0.30043
 H582 H 0.40643 -0.03916 0.39883
 C583 C 0.36827 0.29808 -0.19738
 C584 C 0.35313 0.32513 -0.17676
 C585 C 0.37645 0.34874 -0.15763
 N586 N 0.36064 0.37353 -0.13643
 N587 N 0.38128 0.39432 -0.11807
 C588 C 0.41858 0.39120 -0.12023
 N589 N 0.43440 0.36658 -0.14164
 N590 N 0.41375 0.34576 -0.15998
 C591 C 0.44180 0.41296 -0.09866
 C592 C 0.42670 0.43657 -0.07397
 H593 H 0.32376 0.32910 -0.17331
 H594 H 0.47139 0.40891 -0.10071
 H595 H 0.39801 0.29583 -0.19958
 H596 H 0.39711 0.44025 -0.07155
 C597 C 1.17291 -0.17904 0.20945
 C598 C 1.13668 -0.16558 0.21186
 C599 C 1.12073 -0.14376 0.18074
 N600 N 1.09324 -0.11969 0.18687
 N601 N 1.07813 -0.10083 0.15838
 C602 C 1.08971 -0.10576 0.12274
 N603 N 1.11691 -0.13001 0.11669
 N604 N 1.13233 -0.14845 0.14513
 C605 C 1.07168 -0.08763 0.09051
 C606 C 1.05505 -0.05447 0.09106
 H607 H 1.12005 -0.17006 0.23676
 H608 H 1.07321 -0.10049 0.06438
 H609 H 1.18966 -0.16896 0.18640
 H610 H 1.05689 -0.03937 0.11546
 C611 C 1.16993 0.29588 0.72248
 C612 C 1.18398 0.31655 0.69283
 C613 C 1.15995 0.33909 0.66822
 N614 N 1.17444 0.35700 0.63827
 N615 N 1.15283 0.37641 0.61504
 C616 C 1.11586 0.37865 0.62095
 N617 N 1.10144 0.36094 0.65100
 N618 N 1.12302 0.34156 0.67418
 C619 C 1.09099 0.39848 0.59490
 C620 C 1.10289 0.41697 0.56273
 H621 H 1.21300 0.31492 0.68589
 H622 H 1.06176 0.39742 0.60079
 H623 H 1.14049 0.29688 0.72748
 H624 H 1.13200 0.41895 0.55681
 C625 C 0.68527 -0.17517 0.72652
 C626 C 0.64775 -0.16575 0.72510
 C627 C 0.63309 -0.13773 0.69961
 N628 N 0.59674 -0.13613 0.69196
 N629 N 0.58310 -0.11305 0.66649
 C630 C 0.60524 -0.09050 0.64787
 N631 N 0.64149 -0.09141 0.65621
 N632 N 0.65523 -0.11476 0.68152
 C633 C 0.59062 -0.06724 0.61743
 C634 C 0.56026 -0.07650 0.59784
 H635 H 0.62750 -0.18073 0.74009
 H636 H 0.60539 -0.04457 0.60835
 H637 H 0.70396 -0.15833 0.71131
 H638 H 0.54794 -0.10095 0.60516
 C639 C 0.64867 0.29201 0.22217
 C640 C 0.65926 0.32183 0.20189
 C641 C 0.63485 0.34196 0.17567
 N642 N 0.64873 0.36794 0.15369
 N643 N 0.62765 0.38601 0.12899
 C644 C 0.59176 0.37891 0.12536
 N645 N 0.57769 0.35313 0.14763
 N646 N 0.59887 0.33490 0.17227
 C647 C 0.56863 0.39846 0.09740
 C648 C 0.58424 0.42015 0.06981
 H649 H 0.68667 0.33087 0.20444
 H650 H 0.53929 0.39490 0.09773
 H651 H 0.62048 0.28452 0.22030
 H652 H 0.61378 0.42238 0.06870
 C653 C 0.85251 0.19497 0.21770
 C654 C 0.83605 0.17416 0.19259
 C655 C 0.85684 0.14720 0.17247
 N656 N 0.83966 0.12912 0.14701
 N657 N 0.85825 0.10540 0.12766
 C658 C 0.89473 0.09874 0.13325
 N659 N 0.91181 0.11658 0.15897
 N660 N 0.89323 0.14030 0.17828
 C661 C 0.91662 0.07509 0.10990
 C662 C 0.90199 0.05866 0.08012
 H663 H 0.80725 0.17809 0.18616
 H664 H 0.94610 0.07366 0.11381
 H665 H 0.88187 0.19151 0.22186
 H666 H 0.87253 0.05932 0.07633
 C667 C 0.86170 0.68525 0.71116
 C668 C 0.89247 0.68694 0.68758
 C669 C 0.90294 0.65912 0.66254
 N670 N 0.92687 0.66524 0.63380
 N671 N 0.93580 0.64068 0.61020
 C672 C 0.92124 0.60902 0.61453
 N673 N 0.89763 0.60276 0.64353
 N674 N 0.88849 0.62740 0.66700
 C675 C 0.93123 0.58160 0.58882
 C676 C 0.95009 0.58862 0.55535
 H677 H 0.90746 0.71048 0.68500
 H678 H 0.92375 0.55538 0.59645
 H679 H 0.84492 0.66287 0.71093
 H680 H 0.95631 0.61503 0.54700
 C681 C 0.37346 0.19560 0.72805
 C682 C 0.36168 0.16325 0.71918
 C683 C 0.38235 0.14154 0.69281
 N684 N 0.37000 0.11026 0.68480
 N685 N 0.38704 0.09148 0.65903
 C686 C 0.41707 0.10336 0.64031
 N687 N 0.42958 0.13445 0.64857
 N688 N 0.41261 0.15317 0.67436
 C689 C 0.43426 0.08485 0.60932
 C690 C 0.42326 0.05278 0.59884
 H691 H 0.33617 0.15388 0.73082
 H692 H 0.45490 0.09812 0.59262
 H693 H 0.40045 0.20318 0.71846
 H694 H 0.40411 0.03828 0.61620
 C695 C 0.36449 0.70345 0.21615
 C696 C 0.35064 0.68508 0.18751
 C697 C 0.37445 0.66173 0.16552
 N698 N 0.36015 0.64546 0.13693
 N699 N 0.38160 0.62549 0.11572
 C700 C 0.41821 0.62105 0.12222
 N701 N 0.43250 0.63715 0.15096
 N702 N 0.41102 0.65711 0.17222
 C703 C 0.44237 0.60016 0.09790
 C704 C 0.42842 0.58408 0.06774
 H705 H 0.32231 0.68924 0.17923
 H706 H 0.47163 0.59828 0.10310
 H707 H 0.39334 0.69940 0.22277
 H708 H 0.39912 0.58588 0.06277
   
