data_POSCAR
  _audit_creation_date              2014-09-24
  _audit_creation_method            'ToBaCCo'
  _symmetry_space_group_name_H-M    'P1'
  _symmetry_Int_Tables_number       1
  _symmetry_cell_setting            triclinic
  loop_
  _symmetry_equiv_pos_as_xyz
 x,y,z
_cell_length_a 23.6936
_cell_length_b 23.2844
_cell_length_c 23.6054
_cell_angle_alpha 89.940000
_cell_angle_beta 89.887100
_cell_angle_gamma 90.335900
loop_
  _atom_site_label
  _atom_site_type_symbol
  _atom_site_fract_x
  _atom_site_fract_y
  _atom_site_fract_z
C1 C 0.31522 0.29422 0.22063
 N2 N 0.26238 0.31091 0.23572
 C3 C 0.23286 0.28115 0.27532
 N4 N 0.25683 0.23530 0.30077
 C5 C 0.30967 0.21845 0.28668
 N6 N 0.33906 0.24785 0.24624
 C7 C 0.71295 -0.31025 0.22966
 N8 N 0.68962 -0.26314 0.25341
 C9 C 0.71388 -0.23679 0.29832
 N10 N 0.76332 -0.25716 0.31904
 C11 C 0.78794 -0.30406 0.29485
 N12 N 0.76214 -0.33102 0.25063
 C13 C 0.71200 0.30611 0.76177
 N14 N 0.75673 0.32847 0.73351
 C15 C 0.77503 0.30494 0.68436
 N16 N 0.74830 0.25775 0.66326
 C17 C 0.70351 0.23461 0.69172
 N18 N 0.68529 0.25915 0.74075
 C19 C 0.31202 -0.24685 0.78466
 N20 N 0.29607 -0.20945 0.74357
 C21 C 0.24947 -0.21976 0.71202
 N22 N 0.21875 -0.26819 0.72101
 C23 C 0.23462 -0.30635 0.76132
 N24 N 0.28107 -0.29542 0.79358
 C25 C 0.71243 -0.31054 0.77529
 N26 N 0.68915 -0.26349 0.75135
 C27 C 0.71339 -0.23741 0.70610
 N28 N 0.76276 -0.25801 0.68522
 C29 C 0.78730 -0.30486 0.70960
 N30 N 0.76151 -0.33151 0.75415
 C31 C 0.31516 0.29400 0.78549
 N32 N 0.33902 0.24786 0.75950
 C33 C 0.30940 0.21839 0.71944
 N34 N 0.25628 0.23486 0.70619
 C35 C 0.23229 0.28049 0.73205
 N36 N 0.26206 0.31037 0.77118
 C37 C 0.31169 -0.24733 0.22223
 N38 N 0.29583 -0.21014 0.26351
 C39 C 0.24992 -0.22115 0.29604
 N40 N 0.21983 -0.27012 0.28789
 C41 C 0.23544 -0.30803 0.24720
 N42 N 0.28124 -0.29631 0.21400
 C43 C 0.71269 0.30654 0.24227
 N44 N 0.75730 0.32902 0.27044
 C45 C 0.77541 0.30559 0.31970
 N46 N 0.74864 0.25839 0.34096
 C47 C 0.70402 0.23512 0.31257
 N48 N 0.68596 0.25957 0.26347
 O49 O 0.27435 0.07287 0.44692
 O50 O 0.22318 -0.02603 0.55680
 O51 O 0.27431 0.07319 0.55890
 O52 O 0.22338 -0.02667 0.45005
 O53 O 0.30710 -0.06811 0.44874
 O54 O 0.35799 0.03191 0.55900
 O55 O 0.30683 -0.06762 0.55817
 O56 O 0.35803 0.03157 0.44689
 Cu57 Cu 0.24089 0.02878 0.50310
 Cu58 Cu 0.34107 -0.02182 0.50320
 C59 C 0.32404 0.06853 0.42727
 C60 C 0.25591 -0.06484 0.57486
 C61 C 0.32397 0.06894 0.57847
 C62 C 0.25616 -0.06559 0.43225
 O63 O 0.61111 0.04653 0.55719
 O64 O 0.61548 -0.06351 0.44694
 O65 O 0.61540 -0.06379 0.55745
 O66 O 0.61133 0.04679 0.44746
 O67 O 0.70449 0.05170 0.44730
 O68 O 0.70861 -0.06172 0.55777
 O69 O 0.70870 -0.06146 0.44654
 O70 O 0.70427 0.05146 0.55721
 Cu71 Cu 0.60423 -0.00912 0.50227
 Cu72 Cu 0.71607 -0.00485 0.50221
 C73 C 0.65669 0.06813 0.57575
 C74 C 0.66228 -0.08097 0.42749
 C75 C 0.66214 -0.08133 0.57682
 C76 C 0.65696 0.06845 0.42886
 O77 O 0.47057 0.30496 0.05826
 O78 O 0.58059 0.30524 -0.05359
 O79 O 0.58071 0.30539 0.05855
 O80 O 0.47053 0.30488 -0.05274
 O81 O 0.47113 0.39979 -0.05189
 O82 O 0.58096 0.40023 0.05681
 O83 O 0.58085 0.40009 -0.05220
 O84 O 0.47116 0.39987 0.05706
 Cu85 Cu 0.52581 0.29539 0.00266
 Cu86 Cu 0.52624 0.40922 0.00244
 C87 C 0.45180 0.35269 0.07605
 C88 C 0.59927 0.35312 -0.07175
 C89 C 0.59946 0.35329 0.07640
 C90 C 0.45178 0.35258 -0.07065
 O91 O 0.54877 0.63745 0.05741
 O92 O 0.45039 0.68960 -0.05317
 O93 O 0.54876 0.63750 -0.05118
 O94 O 0.45020 0.68955 0.05956
 O95 O 0.49300 0.77401 0.05821
 O96 O 0.58919 0.72337 -0.05177
 O97 O 0.49326 0.77402 -0.05211
 O98 O 0.58909 0.72337 0.05784
 Cu99 Cu 0.49433 0.65527 0.00321
 Cu100 Cu 0.54514 0.75717 0.00306
 C101 C 0.58613 0.67209 0.07575
 C102 C 0.45612 0.74041 -0.07218
 C103 C 0.58614 0.67214 -0.06968
 C104 C 0.45576 0.74041 0.07837
 O105 O 0.04524 0.42013 0.26374
 O106 O -0.04848 0.54678 0.27281
 O107 O 0.05612 0.52724 0.23750
 O108 O -0.05948 0.43754 0.28954
 O109 O -0.03251 0.44994 0.37829
 O110 O 0.08391 0.54353 0.32534
 O111 O -0.01997 0.56107 0.36071
 O112 O 0.07137 0.43543 0.35240
 Cu113 Cu -0.00442 0.48204 0.25699
 Cu114 Cu 0.02836 0.49973 0.36292
 C115 C 0.07335 0.40600 0.30737
 C116 C -0.05064 0.57481 0.31901
 C117 C 0.09057 0.54950 0.27211
 C118 C -0.06516 0.42703 0.34189
 O119 O 0.08318 0.54256 0.68352
 O120 O -0.03164 0.44881 0.62788
 O121 O -0.01974 0.55992 0.64563
 O122 O 0.07165 0.43442 0.65611
 O123 O 0.04307 0.41883 0.74409
 O124 O -0.05041 0.54544 0.73291
 O125 O -0.06085 0.43636 0.71605
 O126 O 0.05302 0.52608 0.77068
 Cu127 Cu 0.02880 0.49866 0.64460
 Cu128 Cu -0.00673 0.48074 0.74977
 C129 C 0.08826 0.54863 0.73689
 C130 C -0.06523 0.42592 0.66362
 C131 C -0.05149 0.57353 0.68666
 C132 C 0.07234 0.40482 0.70112
 C133 C 0.34703 0.32878 0.17920
 C134 C 0.33470 0.38530 0.16718
 C135 C 0.37340 0.40191 0.12779
 C136 C 0.40606 0.35409 0.11810
 O137 O 0.39036 0.30947 0.14938
 H138 H 0.30159 0.41137 0.18532
 H139 H 0.37685 0.44360 0.10772
 C140 C 0.68522 0.66408 0.18434
 C141 C 0.69671 0.61109 0.16080
 C142 C 0.65789 0.60451 0.11822
 C143 C 0.62685 0.65445 0.11871
 O144 O 0.64322 0.69025 0.15862
 H145 H 0.72910 0.58101 0.17316
 H146 H 0.65442 0.56904 0.08881
 C147 C 0.69133 0.33504 -0.18699
 C148 C 0.70988 0.38860 -0.17004
 C149 C 0.67801 0.40195 -0.12405
 C150 C 0.64287 0.35526 -0.11588
 O151 O 0.65065 0.31444 -0.15406
 H152 H 0.74176 0.41541 -0.18986
 H153 H 0.67967 0.44127 -0.09966
 C154 C 0.35871 0.76603 -0.18165
 C155 C 0.38994 0.81607 -0.18672
 C156 C 0.42998 0.81296 -0.14580
 C157 C 0.42062 0.76121 -0.11881
 O158 O 0.37735 0.73239 -0.14043
 H159 H 0.38399 0.85093 -0.21647
 H160 H 0.46249 0.84451 -0.13687
 C161 C 0.17720 0.30100 0.29405
 C162 C 0.14685 0.27587 0.33755
 C163 C 0.10213 0.31112 0.34641
 C164 C 0.10810 0.35447 0.30710
 O165 O 0.15372 0.34881 0.27534
 H166 H 0.15754 0.23791 0.36167
 H167 H 0.07004 0.30700 0.37888
 C168 C 0.19973 0.64237 0.77112
 C169 C 0.20088 0.60976 0.81985
 C170 C 0.15887 0.57013 0.81330
 C171 C 0.13591 0.58106 0.76073
 O172 O 0.16053 0.62493 0.73498
 H173 H 0.22791 0.61536 0.85636
 H174 H 0.14629 0.53721 0.84325
 C175 C -0.16104 0.67500 0.31549
 C176 C -0.13269 0.69717 0.36169
 C177 C -0.08670 0.66299 0.36838
 C178 C -0.08998 0.62297 0.32544
 O179 O -0.13505 0.63007 0.29323
 H180 H -0.14467 0.73314 0.38804
 H181 H -0.05492 0.66630 0.40112
 C182 C -0.17900 0.33048 0.65732
 C183 C -0.15691 0.31675 0.60483
 C184 C -0.11177 0.35337 0.59760
 C185 C -0.10987 0.38581 0.64648
 O186 O -0.15052 0.37211 0.68219
 H187 H -0.17148 0.28398 0.57575
 H188 H -0.08260 0.35459 0.56228
 C189 C 0.33454 0.17089 0.31881
 C190 C 0.38856 0.14978 0.31323
 C191 C 0.39279 0.10780 0.35375
 C192 C 0.34104 0.10690 0.38075
 O193 O 0.30592 0.14497 0.35959
 H194 H 0.42093 0.16363 0.28375
 H195 H 0.42908 0.08126 0.36259
 C196 C 0.67357 0.18431 0.66897
 C197 C 0.62049 0.16721 0.68649
 C198 C 0.60725 0.12108 0.65369
 C199 C 0.65355 0.11299 0.61919
 O200 O 0.69394 0.15138 0.62816
 H201 H 0.59419 0.18680 0.71856
 H202 H 0.56846 0.09630 0.65465
 C203 C 0.23122 -0.17720 0.67042
 C204 C 0.17600 -0.16919 0.65408
 C205 C 0.17764 -0.12398 0.61739
 C206 C 0.23383 -0.10858 0.61369
 O207 O 0.26648 -0.14067 0.64589
 H208 H 0.13906 -0.19297 0.66785
 H209 H 0.14242 -0.10542 0.59487
 C210 C 0.68377 -0.18903 0.32562
 C211 C 0.62942 -0.17408 0.31104
 C212 C 0.61477 -0.13171 0.34747
 C213 C 0.66133 -0.12331 0.38140
 O214 O 0.70360 -0.15806 0.36841
 H215 H 0.60308 -0.19282 0.27843
 H216 H 0.57478 -0.10952 0.34927
 C217 C 0.68482 0.66399 -0.17904
 C218 C 0.69636 0.61103 -0.15540
 C219 C 0.65775 0.60456 -0.11247
 C220 C 0.62677 0.65453 -0.11287
 O221 O 0.64297 0.69027 -0.15306
 H222 H 0.72865 0.58088 -0.16793
 H223 H 0.65434 0.56912 -0.08293
 C224 C 0.34710 0.32861 -0.17343
 C225 C 0.33478 0.38515 -0.16152
 C226 C 0.37345 0.40177 -0.12230
 C227 C 0.40609 0.35395 -0.11258
 O228 O 0.39040 0.30930 -0.14369
 H229 H 0.30167 0.41120 -0.17960
 H230 H 0.37689 0.44347 -0.10235
 C231 C 0.35798 0.76596 0.18790
 C232 C 0.38871 0.81635 0.19235
 C233 C 0.42878 0.81334 0.15128
 C234 C 0.41994 0.76129 0.12484
 O235 O 0.37694 0.73220 0.14690
 H236 H 0.38249 0.85134 0.22185
 H237 H 0.46101 0.84512 0.14196
 C238 C 0.69199 0.33537 0.19100
 C239 C 0.71046 0.38892 0.17374
 C240 C 0.67841 0.40221 0.12796
 C241 C 0.64324 0.35552 0.12019
 O242 O 0.65118 0.31474 0.15844
 H243 H 0.74239 0.41577 0.19326
 H244 H 0.67996 0.44151 0.10344
 C245 C -0.16176 0.67391 0.68895
 C246 C -0.13323 0.69562 0.64249
 C247 C -0.08727 0.66127 0.63612
 C248 C -0.09079 0.62161 0.67947
 O249 O -0.13594 0.62910 0.71162
 H250 H -0.14503 0.73144 0.61584
 H251 H -0.05535 0.66426 0.60338
 C252 C -0.17890 0.33126 0.34689
 C253 C -0.15758 0.31769 0.39967
 C254 C -0.11267 0.35441 0.40729
 C255 C -0.11005 0.38676 0.35831
 O256 O -0.15010 0.37290 0.32214
 H257 H -0.17258 0.28501 0.42876
 H258 H -0.08411 0.35580 0.44299
 C259 C 0.17619 0.29990 0.71440
 C260 C 0.14461 0.27361 0.67265
 C261 C 0.09965 0.30866 0.66426
 C262 C 0.10677 0.35309 0.70206
 O263 O 0.15330 0.34827 0.73242
 H264 H 0.15459 0.23497 0.64933
 H265 H 0.06668 0.30373 0.63293
 C266 C 0.20322 0.64250 0.23894
 C267 C 0.20983 0.60487 0.19431
 C268 C 0.16775 0.56523 0.20077
 C269 C 0.13948 0.58094 0.24944
 O270 O 0.16079 0.62780 0.27277
 H271 H 0.24058 0.60691 0.16038
 H272 H 0.15883 0.52895 0.17353
 C273 C 0.68332 -0.18970 0.67865
 C274 C 0.62888 -0.17484 0.69320
 C275 C 0.61434 -0.13242 0.65676
 C276 C 0.66105 -0.12387 0.62285
 O277 O 0.70330 -0.15862 0.63586
 H278 H 0.60243 -0.19366 0.72582
 H279 H 0.57435 -0.11026 0.65497
 C280 C 0.23169 -0.17874 0.33783
 C281 C 0.17657 -0.17127 0.35494
 C282 C 0.17810 -0.12585 0.39128
 C283 C 0.23415 -0.10978 0.39404
 O284 O 0.26681 -0.14167 0.36157
 H285 H 0.13974 -0.19551 0.34185
 H286 H 0.14292 -0.10756 0.41418
 C287 C 0.67404 0.18481 0.33551
 C288 C 0.62100 0.16772 0.31812
 C289 C 0.60769 0.12156 0.35101
 C290 C 0.65392 0.11344 0.38543
 O291 O 0.69433 0.15184 0.37632
 H292 H 0.59477 0.18731 0.28606
 H293 H 0.56891 0.09677 0.35013
 C294 C 0.33434 0.17114 0.68690
 C295 C 0.38849 0.15028 0.69201
 C296 C 0.39276 0.10846 0.65142
 C297 C 0.34091 0.10740 0.62480
 O298 O 0.30568 0.14523 0.64629
 H299 H 0.42089 0.16414 0.72129
 H300 H 0.42912 0.08211 0.64230
   
