data_POSCAR
  _audit_creation_date              2014-09-24
  _audit_creation_method            'ToBaCCo'
  _symmetry_space_group_name_H-M    'P1'
  _symmetry_Int_Tables_number       1
  _symmetry_cell_setting            triclinic
  loop_
  _symmetry_equiv_pos_as_xyz
 x,y,z
_cell_length_a 36.4030
_cell_length_b 36.2991
_cell_length_c 36.4188
_cell_angle_alpha 76.505600
_cell_angle_beta 105.171300
_cell_angle_gamma 75.985000
loop_
  _atom_site_label
  _atom_site_type_symbol
  _atom_site_fract_x
  _atom_site_fract_y
  _atom_site_fract_z
O1 O 0.56348 0.48344 0.03883
 O2 O 0.45840 0.49456 0.03164
 O3 O 0.52021 0.43549 0.04046
 O4 O 0.50167 0.54237 0.03001
 O5 O 0.48498 0.55689 -0.03566
 O6 O 0.50200 0.45024 -0.02533
 O7 O 0.44080 0.50993 -0.03410
 O8 O 0.54621 0.49685 -0.02681
 Cu9 Cu 0.51268 0.48751 0.04182
 Cu10 Cu 0.49175 0.50497 -0.03706
 C11 C 0.57278 0.48839 0.00717
 C12 C 0.43154 0.50391 -0.00240
 C13 C 0.51380 0.42462 0.00928
 C14 C 0.49064 0.56788 -0.00455
 O15 O -0.04080 0.56577 0.48044
 O16 O -0.03124 0.45940 0.49658
 O17 O -0.03201 0.50622 0.54113
 O18 O -0.03997 0.51876 0.43584
 O19 O 0.02589 0.50446 0.45288
 O20 O 0.03397 0.49014 0.55839
 O21 O 0.03463 0.44404 0.51303
 O22 O 0.02511 0.55023 0.49823
 Cu23 Cu -0.04262 0.51409 0.48677
 Cu24 Cu 0.03651 0.49564 0.50734
 C25 C -0.00943 0.57627 0.48705
 C26 C 0.00327 0.43355 0.50714
 C27 C 0.00229 0.49627 0.56775
 C28 C -0.00832 0.51359 0.42640
 O29 O 0.49755 0.02802 0.54556
 O30 O 0.48382 0.03434 0.43997
 O31 O 0.43749 0.03553 0.48405
 O32 O 0.54370 0.02775 0.50129
 O33 O 0.56047 -0.03802 0.51821
 O34 O 0.45400 -0.03021 0.50070
 O35 O 0.50077 -0.03145 0.45695
 O36 O 0.51406 -0.03766 0.56220
 Cu37 Cu 0.48899 0.03798 0.49105
 Cu38 Cu 0.50895 -0.04090 0.51117
 C39 C 0.50773 -0.00589 0.57199
 C40 C 0.49048 0.00240 0.43050
 C41 C 0.42757 0.00399 0.48983
 C42 C 0.57023 -0.00637 0.51229
 C43 C 0.50505 -0.00997 -0.03436
 C44 C 0.49342 -0.03673 -0.00829
 C45 C 0.48878 -0.02903 0.02657
 C46 C 0.49606 0.00425 0.03647
 C47 C 0.50767 0.03099 0.01042
 C48 C 0.51214 0.02342 -0.02450
 H49 H 0.52003 0.04452 -0.04496
 H50 H 0.48089 -0.05009 0.04708
 C51 C -0.00454 0.50161 1.03572
 C52 C -0.03528 0.49870 1.00481
 C53 C -0.02883 0.49644 0.96902
 C54 C 0.00754 0.49758 0.96320
 C55 C 0.03786 0.50188 0.99369
 C56 C 0.03153 0.50348 1.02975
 H57 H 0.05497 0.50614 1.05347
 H58 H -0.05240 0.49379 0.94543
 C59 C 0.03199 0.01086 0.49314
 C60 C 0.00592 0.03777 0.50498
 C61 C -0.02827 0.02963 0.51089
 C62 C -0.03748 -0.00433 0.50478
 C63 C -0.01148 -0.03115 0.49280
 C64 C 0.02274 -0.02306 0.48700
 H65 H 0.04323 -0.04421 0.47890
 H66 H -0.04875 0.05074 0.51903
 C67 C -0.30677 0.48419 1.01237
 C68 C -0.33315 0.47948 0.97918
 C69 C -0.37208 0.48032 0.97773
 C70 C -0.38534 0.48521 1.00971
 C71 C -0.35868 0.48863 1.04346
 C72 C -0.31993 0.48839 1.04467
 C73 C -0.26627 0.48598 1.01266
 C74 C -0.23308 0.46990 1.04846
 C75 C -0.19534 0.47256 1.04863
 C76 C -0.18978 0.49104 1.01292
 C77 C -0.22290 0.50672 0.97710
 C78 C -0.26065 0.50450 0.97703
 C79 C -0.14970 0.49381 1.01272
 C80 C -0.14674 0.52753 0.98672
 C81 C -0.10942 0.52921 0.98464
 C82 C -0.07427 0.49761 1.00900
 C83 C -0.07672 0.46443 1.03585
 C84 C -0.11414 0.46244 1.03760
 H85 H -0.32379 0.47521 0.95418
 H86 H -0.39185 0.47721 0.95150
 H87 H -0.36819 0.49271 1.06845
 H88 H -0.30073 0.49269 1.07044
 H89 H -0.23613 0.45498 1.07639
 H90 H -0.17065 0.46051 1.07684
 H91 H -0.21968 0.52051 0.94889
 H92 H -0.28557 0.51784 0.94899
 H93 H -0.17329 0.55266 0.96785
 H94 H -0.10790 0.55513 0.96391
 H95 H -0.04977 0.43967 1.05466
 H96 H -0.11526 0.43581 1.05758
 C97 C 0.31207 0.50987 0.99050
 C98 C 0.34207 0.50011 1.02780
 C99 C 0.38129 0.49875 1.03010
 C100 C 0.39168 0.50690 0.99512
 C101 C 0.36144 0.51708 0.95773
 C102 C 0.32215 0.51857 0.95549
 C103 C 0.27057 0.51050 0.98832
 C104 C 0.24854 0.49547 0.96101
 C105 C 0.20993 0.49508 0.95981
 C106 C 0.19251 0.50967 0.98593
 C107 C 0.21447 0.52495 1.01302
 C108 C 0.25296 0.52545 1.01412
 C109 C 0.15191 0.50845 0.98557
 C110 C 0.12520 0.54001 0.99125
 C111 C 0.08797 0.53795 0.99327
 C112 C 0.07647 0.50454 0.98924
 C113 C 0.10259 0.47330 0.98273
 C114 C 0.14000 0.47523 0.98089
 H115 H 0.33544 0.49268 1.05539
 H116 H 0.40358 0.49067 1.05949
 H117 H 0.36804 0.52375 0.93005
 H118 H 0.29958 0.52678 0.92627
 H119 H 0.26141 0.48333 0.94102
 H120 H 0.19365 0.48349 0.93832
 H121 H 0.20219 0.53592 1.03393
 H122 H 0.26890 0.53769 1.03517
 H123 H 0.13311 0.56633 0.99422
 H124 H 0.06807 0.56243 0.99812
 H125 H 0.09439 0.44705 0.98001
 H126 H 0.16007 0.45020 0.97700
 C127 C -0.01907 -0.30292 0.47758
 C128 C 0.01864 -0.33181 0.48797
 C129 C 0.02177 -0.37150 0.49052
 C130 C -0.01280 -0.38341 0.48273
 C131 C -0.05065 -0.35420 0.47162
 C132 C -0.05370 -0.31449 0.46918
 C133 C -0.02200 -0.26114 0.47649
 C134 C -0.04819 -0.24030 0.49261
 C135 C -0.04934 -0.20173 0.49350
 C136 C -0.02443 -0.18314 0.47816
 C137 C 0.00117 -0.20371 0.46134
 C138 C 0.00238 -0.24225 0.46053
 C139 C -0.02398 -0.14305 0.48087
 C140 C -0.02087 -0.11474 0.44912
 C141 C -0.01773 -0.07806 0.45273
 C142 C -0.01783 -0.06886 0.48806
 C143 C -0.02168 -0.09674 0.51955
 C144 C -0.02487 -0.13344 0.51594
 H145 H 0.04592 -0.32394 0.49512
 H146 H 0.05148 -0.39293 0.49919
 H147 H -0.07804 -0.36198 0.46520
 H148 H -0.08321 -0.29276 0.46060
 H149 H -0.06708 -0.25419 0.50546
 H150 H -0.06965 -0.18649 0.50629
 H151 H 0.02106 -0.19039 0.44968
 H152 H 0.02254 -0.25737 0.44752
 H153 H -0.02067 -0.12104 0.42153
 H154 H -0.01491 -0.05690 0.42804
 H155 H -0.02114 -0.09053 0.54733
 H156 H -0.02663 -0.15484 0.54115
 C157 C 0.01295 0.31066 0.51724
 C158 C 0.04756 0.32235 0.52484
 C159 C 0.04453 0.36211 0.52220
 C160 C 0.00680 0.39105 0.51182
 C161 C -0.02773 0.37923 0.50472
 C162 C -0.02469 0.33951 0.50740
 C163 C 0.01582 0.26879 0.51864
 C164 C -0.00836 0.24996 0.53504
 C165 C -0.00713 0.21130 0.53463
 C166 C 0.01833 0.19051 0.51782
 C167 C 0.04304 0.20905 0.50205
 C168 C 0.04184 0.24775 0.50249
 C169 C 0.01796 0.15024 0.51559
 C170 C 0.01904 0.14014 0.48079
 C171 C 0.01603 0.10325 0.47765
 C172 C 0.01211 0.07566 0.50932
 C173 C 0.01179 0.08535 0.54438
 C174 C 0.01479 0.12221 0.54754
 H175 H 0.07703 0.30071 0.53297
 H176 H 0.07173 0.37022 0.52793
 H177 H -0.05727 0.40078 0.49653
 H178 H -0.05198 0.33160 0.50082
 H179 H -0.02837 0.26519 0.54811
 H180 H -0.02688 0.19805 0.54662
 H181 H 0.06327 0.19367 0.48926
 H182 H 0.06057 0.26156 0.48930
 H183 H 0.02083 0.16130 0.45542
 H184 H 0.01566 0.09668 0.45006
 H185 H 0.00891 0.06442 0.56921
 H186 H 0.01446 0.12886 0.57495
 C187 C 0.51477 -0.01279 -0.30834
 C188 C 0.50524 0.02437 -0.33741
 C189 C 0.50349 0.02665 -0.37672
 C190 C 0.51124 -0.00825 -0.38804
 C191 C 0.52146 -0.04551 -0.35862
 C192 C 0.52313 -0.04771 -0.31934
 C193 C 0.51528 -0.01501 -0.26691
 C194 C 0.49902 -0.04129 -0.24667
 C195 C 0.49848 -0.04257 -0.20814
 C196 C 0.51430 -0.01767 -0.18890
 C197 C 0.53093 0.00831 -0.20899
 C198 C 0.53139 0.00964 -0.24753
 C199 C 0.51276 -0.01808 -0.14842
 C200 C 0.54528 -0.01503 -0.11969
 C201 C 0.54303 -0.01330 -0.08238
 C202 C 0.50831 -0.01474 -0.07291
 C203 C 0.47602 -0.01842 -0.10127
 C204 C 0.47827 -0.02021 -0.13860
 H205 H 0.49819 0.05186 -0.33000
 H206 H 0.49548 0.05593 -0.39833
 H207 H 0.52784 -0.07314 -0.36590
 H208 H 0.53114 -0.07683 -0.29748
 H209 H 0.48600 -0.06038 -0.26094
 H210 H 0.48579 -0.06315 -0.19332
 H211 H 0.54294 0.02821 -0.19520
 H212 H 0.54451 0.02991 -0.26213
 H213 H 0.57248 -0.01393 -0.12609
 H214 H 0.56835 -0.01060 -0.06090
 H215 H 0.44866 -0.01887 -0.09491
 H216 H 0.45250 -0.02199 -0.16026
 C217 C 0.48615 0.00814 0.30987
 C218 C 0.47234 0.04334 0.31908
 C219 C 0.47310 0.04153 0.35810
 C220 C 0.48736 0.00445 0.38862
 C221 C 0.50024 -0.03077 0.37909
 C222 C 0.49977 -0.02893 0.34022
 C223 C 0.48725 0.00996 0.26903
 C224 C 0.52106 -0.01403 0.26410
 C225 C 0.52221 -0.01273 0.22579
 C226 C 0.48947 0.01239 0.19152
 C227 C 0.45567 0.03650 0.19639
 C228 C 0.45466 0.03546 0.23477
 C229 C 0.49039 0.01262 0.15095
 C230 C 0.45677 0.01155 0.12202
 C231 C 0.45845 0.00941 0.08463
 C232 C 0.49358 0.00879 0.07528
 C233 C 0.52696 0.01055 0.10384
 C234 C 0.52540 0.01242 0.14133
 H235 H 0.46192 0.07233 0.29635
 H236 H 0.46297 0.06920 0.36446
 H237 H 0.51138 -0.05982 0.40186
 H238 H 0.51008 -0.05657 0.33385
 H239 H 0.54679 -0.03363 0.28994
 H240 H 0.54848 -0.03194 0.22299
 H241 H 0.43012 0.05633 0.17049
 H242 H 0.42814 0.05411 0.23769
 H243 H 0.42955 0.01124 0.12875
 H244 H 0.43242 0.00795 0.06303
 H245 H 0.55451 0.00969 0.09739
 H246 H 0.55164 0.01355 0.16290
 C247 C 0.47897 -0.30876 -0.01532
 C248 C 0.47108 -0.32096 -0.04967
 C249 C 0.47415 -0.36085 -0.04629
 C250 C 0.48523 -0.38944 -0.00845
 C251 C 0.49250 -0.37709 0.02583
 C252 C 0.48942 -0.33724 0.02243
 C253 C 0.47742 -0.26680 -0.01857
 C254 C 0.46146 -0.24754 0.00578
 C255 C 0.46197 -0.20888 0.00433
 C256 C 0.47842 -0.18852 -0.02153
 C257 C 0.49366 -0.20746 -0.04647
 C258 C 0.49313 -0.24615 -0.04503
 C259 C 0.48103 -0.14836 -0.02122
 C260 C 0.51588 -0.13878 -0.02289
 C261 C 0.51953 -0.10210 -0.01971
 C262 C 0.48833 -0.07420 -0.01502
 C263 C 0.45317 -0.08332 -0.01419
 C264 C 0.44949 -0.11997 -0.01738
 H265 H 0.46247 -0.29961 -0.07921
 H266 H 0.46825 -0.36936 -0.07330
 H267 H 0.50123 -0.39836 0.05543
 H268 H 0.49624 -0.32894 0.04952
 H269 H 0.44872 -0.26246 0.02613
 H270 H 0.45041 -0.19533 0.02426
 H271 H 0.50615 -0.19240 -0.06701
 H272 H 0.50599 -0.26030 -0.06391
 H273 H 0.54095 -0.16021 -0.02519
 H274 H 0.54719 -0.09596 -0.01973
 H275 H 0.42871 -0.06216 -0.01069
 H276 H 0.42204 -0.12622 -0.01659
 C277 C 0.52535 0.30135 0.01987
 C278 C 0.51459 0.32993 -0.01788
 C279 C 0.51156 0.36975 -0.02121
 C280 C 0.51921 0.38196 0.01314
 C281 C 0.53062 0.35327 0.05097
 C282 C 0.53362 0.31340 0.05429
 C283 C 0.52673 0.25947 0.02301
 C284 C 0.51107 0.23883 0.04952
 C285 C 0.51016 0.20029 0.05069
 C286 C 0.52497 0.18153 0.02542
 C287 C 0.54145 0.20184 -0.00043
 C288 C 0.54234 0.24034 -0.00160
 C289 C 0.52180 0.14165 0.02469
 C290 C 0.55296 0.11317 0.02045
 C291 C 0.54870 0.07684 0.01679
 C292 C 0.51333 0.06815 0.01753
 C293 C 0.48251 0.09612 0.02263
 C294 C 0.48673 0.13248 0.02628
 H295 H 0.50748 0.32174 -0.04501
 H296 H 0.50258 0.39110 -0.05081
 H297 H 0.53679 0.36169 0.07803
 H298 H 0.54244 0.29196 0.08382
 H299 H 0.49849 0.25289 0.06861
 H300 H 0.49766 0.18525 0.07122
 H301 H 0.55270 0.18842 -0.02060
 H302 H 0.55504 0.25526 -0.02200
 H303 H 0.58055 0.11910 0.01970
 H304 H 0.57288 0.05559 0.01301
 H305 H 0.45470 0.09030 0.02261
 H306 H 0.46194 0.15401 0.02889
 C307 C -0.30756 -0.01361 0.52175
 C308 C -0.33695 0.02354 0.51242
 C309 C -0.37638 0.02578 0.51015
 C310 C -0.38738 -0.00909 0.51717
 C311 C -0.35783 -0.04633 0.52724
 C312 C -0.31837 -0.04856 0.52946
 C313 C -0.26615 -0.01562 0.52226
 C314 C -0.24575 -0.04151 0.50547
 C315 C -0.20762 -0.04192 0.50412
 C316 C -0.18898 -0.01651 0.51962
 C317 C -0.20908 0.00886 0.53706
 C318 C -0.24720 0.00930 0.53836
 C319 C -0.14927 -0.01551 0.51660
 C320 C -0.12023 -0.01167 0.54830
 C321 C -0.08371 -0.00869 0.54463
 C322 C -0.07537 -0.00970 0.50931
 C323 C -0.10409 -0.01399 0.47777
 C324 C -0.14062 -0.01699 0.48141
 H325 H -0.32975 0.05106 0.50579
 H326 H -0.39841 0.05495 0.50220
 H327 H -0.36529 -0.07377 0.53290
 H328 H -0.29628 -0.07766 0.53723
 H329 H -0.25969 -0.06080 0.49247
 H330 H -0.19273 -0.06210 0.49088
 H331 H -0.19574 0.02910 0.54888
 H332 H -0.26193 0.02926 0.55189
 H333 H -0.12576 -0.01097 0.57597
 H334 H -0.06191 -0.00551 0.56937
 H335 H -0.09859 -0.01412 0.44997
 H336 H -0.16259 -0.01928 0.45622
 C337 C 0.30501 0.01284 0.48019
 C338 C 0.31623 0.04748 0.47187
 C339 C 0.35580 0.04465 0.47417
 C340 C 0.38510 0.00710 0.48491
 C341 C 0.37372 -0.02750 0.49251
 C342 C 0.33413 -0.02465 0.49016
 C343 C 0.26340 0.01567 0.47949
 C344 C 0.24399 -0.00909 0.46368
 C345 C 0.20543 -0.00743 0.46436
 C346 C 0.18537 0.01899 0.48091
 C347 C 0.20458 0.04410 0.49628
 C348 C 0.24313 0.04250 0.49554
 C349 C 0.14507 0.01946 0.48309
 C350 C 0.13577 0.02199 0.51775
 C351 C 0.09871 0.02009 0.52071
 C352 C 0.07011 0.01590 0.48899
 C353 C 0.07904 0.01409 0.45409
 C354 C 0.11609 0.01594 0.45112
 H355 H 0.29436 0.07683 0.46355
 H356 H 0.36354 0.07191 0.46802
 H357 H 0.39557 -0.05688 0.50098
 H358 H 0.32657 -0.05193 0.49721
 H359 H 0.25864 -0.02977 0.45075
 H360 H 0.19165 -0.02750 0.45269
 H361 H 0.18976 0.06504 0.50888
 H362 H 0.25743 0.06168 0.50833
 H363 H 0.15766 0.02411 0.54311
 H364 H 0.09276 0.02082 0.54820
 H365 H 0.05736 0.01097 0.42922
 H366 H 0.12212 0.01449 0.42382
 C367 C -0.01387 0.51849 1.30589
 C368 C -0.04623 0.51444 1.31894
 C369 C -0.04497 0.51409 1.35771
 C370 C -0.01110 0.51723 1.38445
 C371 C 0.02086 0.52211 1.37125
 C372 C 0.01935 0.52308 1.33232
 C373 C -0.01403 0.51646 1.26552
 C374 C 0.02177 0.49753 1.26005
 C375 C 0.02185 0.49498 1.22245
 C376 C -0.01398 0.51072 1.18933
 C377 C -0.04986 0.52963 1.19472
 C378 C -0.04985 0.53262 1.23233
 C379 C -0.01358 0.50756 1.14944
 C380 C -0.03823 0.53893 1.11395
 C381 C -0.03615 0.53659 1.07672
 C382 C -0.00919 0.50306 1.07443
 C383 C 0.01489 0.47146 1.10950
 C384 C 0.01246 0.47348 1.14662
 H385 H -0.07204 0.51027 1.29967
 H386 H -0.06995 0.51003 1.36719
 H387 H 0.04716 0.52503 1.39109
 H388 H 0.04438 0.52725 1.32302
 H389 H 0.04982 0.48412 1.28499
 H390 H 0.05019 0.48089 1.21934
 H391 H -0.07807 0.54175 1.17000
 H392 H -0.07790 0.54781 1.23529
 H393 H -0.05825 0.56580 1.11499
 H394 H -0.05475 0.56135 1.04981
 H395 H 0.03568 0.44527 1.10809
 H396 H 0.03115 0.44836 1.17313
 C397 C 0.01054 0.48907 0.68944
 C398 C 0.04553 0.47908 0.67931
 C399 C 0.04292 0.48087 0.63992
 C400 C 0.00523 0.49263 0.60982
 C401 C -0.02973 0.50217 0.62005
 C402 C -0.02711 0.50047 0.65939
 C403 C 0.01310 0.48815 0.73101
 C404 C -0.01317 0.47406 0.74829
 C405 C -0.01179 0.47443 0.78684
 C406 C 0.01600 0.48877 0.80916
 C407 C 0.04260 0.50246 0.79209
 C408 C 0.04117 0.50215 0.75343
 C409 C 0.01648 0.49008 0.84971
 C410 C 0.02143 0.52316 0.86186
 C411 C 0.01939 0.52536 0.89913
 C412 C 0.01246 0.49450 0.92487
 C413 C 0.00828 0.46116 0.91318
 C414 C 0.01045 0.45886 0.87606
 H415 H 0.07497 0.46967 0.70191
 H416 H 0.07043 0.47324 0.63302
 H417 H -0.05922 0.51156 0.59754
 H418 H -0.05465 0.50891 0.66608
 H419 H -0.03481 0.46265 0.73199
 H420 H -0.03306 0.46416 0.79890
 H421 H 0.06459 0.51332 0.80868
 H422 H 0.06154 0.51358 0.74080
 H423 H 0.02560 0.54791 0.84204
 H424 H 0.02220 0.55155 0.90748
 H425 H 0.00311 0.43698 0.93278
 H426 H 0.00724 0.43268 0.86791
   
