data_POSCAR
  _audit_creation_date              2014-09-24
  _audit_creation_method            'ToBaCCo'
  _symmetry_space_group_name_H-M    'P1'
  _symmetry_Int_Tables_number       1
  _symmetry_cell_setting            triclinic
  loop_
  _symmetry_equiv_pos_as_xyz
 x,y,z
_cell_length_a 36.8630
_cell_length_b 38.2127
_cell_length_c 37.6318
_cell_angle_alpha 90.382900
_cell_angle_beta 89.226400
_cell_angle_gamma 90.586700
loop_
  _atom_site_label
  _atom_site_type_symbol
  _atom_site_fract_x
  _atom_site_fract_y
  _atom_site_fract_z
N1 N 0.58346 0.67847 0.61667
 N2 N 0.56795 0.66379 0.64454
 C3 C 0.54171 0.68487 0.65716
 C4 C 0.54131 0.71494 0.63671
 C5 C 0.56793 0.70960 0.61089
 H6 H 0.52343 0.67824 0.67885
 H7 H 0.57502 0.72673 0.58905
 Cu8 Cu 0.58296 0.61808 0.66112
 Cu9 Cu 0.62030 0.65430 0.58839
 Cu10 Cu 0.66776 0.59520 0.63875
 N11 N 0.60470 0.57598 0.67999
 N12 N 0.63791 0.56714 0.67096
 C13 C 0.64676 0.53778 0.68813
 C14 C 0.61722 0.52693 0.70873
 C15 C 0.59126 0.55249 0.70335
 H16 H 0.67345 0.52632 0.68696
 H17 H 0.56441 0.55370 0.71518
 N18 N 0.68685 0.61521 0.59405
 N19 N 0.66773 0.63576 0.57359
 C20 C 0.68605 0.64105 0.54288
 C21 C 0.71815 0.62256 0.54387
 C22 C 0.71811 0.60729 0.57715
 H23 H 0.67642 0.65662 0.52112
 H24 H 0.73887 0.59079 0.58795
 H25 H 0.62214 0.60373 0.61043
 H26 H 0.63944 0.64215 0.63624
 N27 N 0.91389 0.31519 0.11380
 N28 N 0.92460 0.32827 0.14431
 C29 C 0.94906 0.30661 0.15846
 C30 C 0.95331 0.27785 0.13601
 C31 C 0.93088 0.28476 0.10762
 H32 H 0.96231 0.31108 0.18356
 H33 H 0.92849 0.26980 0.08327
 Cu34 Cu 0.90537 0.37239 0.16224
 Cu35 Cu 0.87926 0.33864 0.08379
 Cu36 Cu 0.84502 0.41740 0.11476
 N37 N 0.88448 0.41579 0.18011
 N38 N 0.86201 0.43385 0.16075
 C39 C 0.85221 0.46285 0.17874
 C40 C 0.86856 0.46258 0.21163
 C41 C 0.88933 0.43257 0.21133
 H42 H 0.83451 0.48274 0.16862
 H43 H 0.90650 0.42366 0.23244
 N44 N 0.83099 0.39625 0.06899
 N45 N 0.84399 0.36621 0.05722
 C46 C 0.82739 0.35754 0.02669
 C47 C 0.80296 0.38343 0.01876
 C48 C 0.80567 0.40736 0.04631
 H49 H 0.83130 0.33333 0.01216
 H50 H 0.78931 0.43044 0.05011
 H51 H 0.89052 0.38875 0.10161
 H52 H 0.85257 0.36484 0.12454
 N53 N 0.41365 0.18123 -0.10495
 N54 N 0.43180 0.16537 -0.13055
 C55 C 0.46352 0.18244 -0.13602
 C56 C 0.46542 0.21043 -0.11249
 C57 C 0.43289 0.20915 -0.09368
 H58 H 0.48356 0.17552 -0.15603
 H59 H 0.42349 0.22765 -0.07383
 Cu60 Cu 0.41071 0.12575 -0.15590
 Cu61 Cu 0.36712 0.16385 -0.08713
 Cu62 Cu 0.33039 0.09132 -0.12987
 N63 N 0.38901 0.08617 -0.18077
 N64 N 0.35769 0.07274 -0.17031
 C65 C 0.34863 0.04613 -0.19215
 C66 C 0.37539 0.04311 -0.21800
 C67 C 0.40084 0.06861 -0.20977
 H68 H 0.32422 0.03036 -0.18974
 H69 H 0.42606 0.07378 -0.22388
 N70 N 0.30692 0.11409 -0.08856
 N71 N 0.32058 0.14214 -0.07280
 C72 C 0.29880 0.15112 -0.04529
 C73 C 0.26988 0.12789 -0.04388
 C74 C 0.27610 0.10449 -0.07142
 H75 H 0.30389 0.17251 -0.02703
 H76 H 0.25989 0.08161 -0.07775
 H77 H 0.37422 0.11241 -0.10318
 H78 H 0.35034 0.14172 -0.13456
 N79 N 0.08911 0.81356 0.38311
 N80 N 0.07430 0.83037 0.35678
 C81 C 0.04564 0.81177 0.34501
 C82 C 0.04276 0.78082 0.36420
 C83 C 0.07072 0.78347 0.38862
 H84 H 0.02715 0.82117 0.32528
 H85 H 0.07756 0.76476 0.40880
 Cu86 Cu 0.09503 0.87427 0.33979
 Cu87 Cu 0.12995 0.83284 0.40962
 Cu88 Cu 0.16411 0.91338 0.38182
 N89 N 0.11577 0.91818 0.32280
 N90 N 0.14168 0.93412 0.34050
 C91 C 0.15148 0.96358 0.32337
 C92 C 0.13161 0.96567 0.29250
 C93 C 0.10875 0.93668 0.29337
 H94 H 0.17190 0.98192 0.33252
 H95 H 0.08900 0.92938 0.27359
 N96 N 0.18337 0.88790 0.42267
 N97 N 0.17088 0.85701 0.43298
 C98 C 0.19107 0.84575 0.46017
 C99 C 0.21781 0.87044 0.46671
 C100 C 0.21189 0.89695 0.44283
 H101 H 0.18734 0.82105 0.47365
 H102 H 0.22781 0.92071 0.43998
 H103 H 0.11943 0.88446 0.39884
 H104 H 0.15228 0.86191 0.36854
 C105 C 0.09685 0.12647 0.16286
 C106 C 0.06984 0.15199 0.16529
 C107 C 0.06528 0.17583 0.13758
 C108 C 0.08846 0.17498 0.10776
 C109 C 0.11564 0.14968 0.10496
 C110 C 0.11954 0.12497 0.13236
 C111 C 0.10114 0.10204 0.19009
 C112 C 0.12734 0.07567 0.18700
 C113 C 0.14903 0.07368 0.15602
 C114 C 0.14586 0.09855 0.12908
 C115 C 0.16849 0.09739 0.09884
 C116 C 0.16503 0.12222 0.07182
 C117 C 0.13868 0.14837 0.07505
 H118 H 0.05169 0.15281 0.18819
 H119 H 0.08468 0.19351 0.08647
 H120 H 0.08396 0.10334 0.21367
 H121 H 0.16845 0.05271 0.15301
 H122 H 0.18895 0.07731 0.09628
 H123 H 0.13626 0.16767 0.05425
 C124 C 0.40698 0.87880 0.65428
 C125 C 0.43333 0.85274 0.65619
 C126 C 0.43112 0.82256 0.63469
 C127 C 0.40344 0.81980 0.60943
 C128 C 0.37777 0.84640 0.60612
 C129 C 0.37918 0.87579 0.62900
 C130 C 0.40785 0.90775 0.67734
 C131 C 0.38134 0.93370 0.67538
 C132 C 0.35396 0.93090 0.64992
 C133 C 0.35288 0.90226 0.62647
 C134 C 0.32619 0.89975 0.60036
 C135 C 0.32565 0.87126 0.57669
 C136 C 0.35093 0.84430 0.58011
 H137 H 0.45540 0.85567 0.67477
 H138 H 0.40196 0.79691 0.59230
 H139 H 0.42891 0.91004 0.69710
 H140 H 0.33347 0.95100 0.64860
 H141 H 0.30637 0.92032 0.59776
 H142 H 0.35010 0.82218 0.56193
 C143 C 0.90028 0.62421 0.34370
 C144 C 0.92688 0.65058 0.34153
 C145 C 0.92844 0.67738 0.36727
 C146 C 0.90411 0.67663 0.39637
 C147 C 0.87798 0.64982 0.39950
 C148 C 0.87584 0.62368 0.37288
 C149 C 0.89761 0.59844 0.31709
 C150 C 0.87086 0.57205 0.31929
 C151 C 0.84741 0.57099 0.34904
 C152 C 0.84931 0.59694 0.37547
 C153 C 0.82506 0.59658 0.40442
 C154 C 0.82775 0.62179 0.43166
 C155 C 0.85400 0.64862 0.42879
 H156 H 0.94633 0.65047 0.31966
 H157 H 0.90561 0.69697 0.41655
 H158 H 0.91605 0.59908 0.29441
 H159 H 0.82748 0.55004 0.35139
 H160 H 0.80408 0.57653 0.40594
 H161 H 0.85582 0.66840 0.44950
 C162 C 0.59508 0.37497 -0.14882
 C163 C 0.56802 0.34937 -0.14376
 C164 C 0.57177 0.32340 -0.11781
 C165 C 0.60313 0.32314 -0.09695
 C166 C 0.62985 0.34924 -0.10087
 C167 C 0.62604 0.37510 -0.12712
 C168 C 0.59206 0.40004 -0.17563
 C169 C 0.61975 0.42493 -0.18114
 C170 C 0.65005 0.42563 -0.15899
 C171 C 0.65337 0.40089 -0.13191
 C172 C 0.68370 0.40121 -0.10981
 C173 C 0.68724 0.37582 -0.08333
 C174 C 0.66039 0.34985 -0.07905
 H175 H 0.54411 0.34936 -0.16024
 H176 H 0.60665 0.30255 -0.07766
 H177 H 0.56876 0.39969 -0.19291
 H178 H 0.67129 0.44502 -0.16341
 H179 H 0.70451 0.42125 -0.11295
 H180 H 0.66330 0.33028 -0.05857
 C181 C -0.02780 0.21625 0.12340
 C182 C -0.02218 0.24984 0.13945
 C183 C 0.01035 0.25602 0.15778
 C184 C 0.03816 0.23164 0.15720
 C185 C 0.03443 0.20015 0.13856
 C186 C 0.00123 0.19185 0.12194
 C187 C -0.06215 0.20516 0.11102
 C188 C -0.06674 0.17267 0.09450
 C189 C -0.03763 0.15005 0.09083
 C190 C -0.00402 0.15924 0.10475
 H191 H -0.08618 0.22063 0.11522
 H192 H -0.09318 0.16482 0.08493
 H193 H -0.04136 0.12485 0.07802
 H194 H 0.01756 0.14033 0.10249
 H195 H 0.01555 0.28082 0.17092
 H196 H 0.06329 0.23784 0.17058
 C197 C 0.49913 0.75636 0.67106
 C198 C 0.51482 0.74408 0.63862
 C199 C 0.50323 0.75839 0.60654
 C200 C 0.47626 0.78354 0.60597
 C201 C 0.45883 0.79461 0.63733
 C202 C 0.46946 0.78006 0.67023
 C203 C 0.51260 0.74634 0.70441
 C204 C 0.49498 0.75620 0.73586
 C205 C 0.46379 0.77627 0.73479
 C206 C 0.45104 0.78814 0.70238
 H207 H 0.53725 0.73156 0.70669
 H208 H 0.50545 0.74799 0.76119
 H209 H 0.44968 0.78313 0.75923
 H210 H 0.42654 0.80343 0.70285
 H211 H 0.51474 0.74972 0.58140
 H212 H 0.46886 0.79445 0.58060
 C213 C 0.99452 0.74750 0.33110
 C214 C 1.01583 0.75405 0.36198
 C215 C 1.00835 0.73397 0.39253
 C216 C 0.97983 0.70992 0.39370
 C217 C 0.95692 0.70518 0.36474
 C218 C 0.96346 0.72489 0.33344
 C219 C 1.00435 0.76075 0.29725
 C220 C 0.98154 0.75653 0.26826
 C221 C 0.94890 0.73834 0.27202
 C222 C 0.93995 0.72239 0.30416
 H223 H 1.03034 0.77309 0.29224
 H224 H 0.98932 0.76736 0.24273
 H225 H 0.93092 0.73570 0.24962
 H226 H 0.91456 0.70803 0.30576
 H227 H 1.02376 0.73747 0.41658
 H228 H 0.97557 0.69480 0.41770
 C229 C 0.50440 0.25551 -0.07936
 C230 C 0.49393 0.23820 -0.11125
 C231 C 0.50961 0.24890 -0.14358
 C232 C 0.53442 0.27649 -0.14498
 C233 C 0.54393 0.29511 -0.11424
 C234 C 0.52809 0.28526 -0.08111
 C235 C 0.49264 0.24358 -0.04563
 C236 C 0.50101 0.26231 -0.01485
 C237 C 0.52138 0.29307 -0.01696
 C238 C 0.53488 0.30452 -0.04968
 H239 H 0.47762 0.21938 -0.04248
 H240 H 0.49147 0.25300 0.01076
 H241 H 0.52717 0.30790 0.00695
 H242 H 0.55040 0.32867 -0.05005
 H243 H 0.50221 0.23615 -0.16826
 H244 H 0.54637 0.28336 -0.17049
 C245 C 0.16575 0.01029 0.25365
 C246 C 0.13303 -0.00655 0.26501
 C247 C 0.10009 0.00404 0.25060
 C248 C 0.09889 0.03086 0.22588
 C249 C 0.13048 0.04883 0.21524
 C250 C 0.16418 0.03938 0.23013
 C251 C 0.20015 -0.00158 0.26413
 C252 C 0.23171 0.01677 0.25482
 C253 C 0.22976 0.04706 0.23471
 C254 C 0.19641 0.05832 0.22236
 H255 H 0.20327 -0.02552 0.27877
 H256 H 0.25782 0.00752 0.26340
 H257 H 0.25426 0.06163 0.22818
 H258 H 0.19619 0.08208 0.20694
 H259 H 0.07481 -0.00844 0.25867
 H260 H 0.07292 0.03749 0.21474
 C261 C 0.63634 0.46749 -0.27172
 C262 C 0.61535 0.49850 -0.26734
 C263 C 0.59328 0.50177 -0.23667
 C264 C 0.59473 0.47749 -0.20932
 C265 C 0.61809 0.44902 -0.21161
 C266 C 0.63861 0.44332 -0.24312
 C267 C 0.65295 0.45840 -0.30458
 C268 C 0.67402 0.42844 -0.30804
 C269 C 0.67820 0.40628 -0.27929
 C270 C 0.66034 0.41328 -0.24723
 H271 H 0.64860 0.47330 -0.32838
 H272 H 0.68671 0.42209 -0.33335
 H273 H 0.69449 0.38299 -0.28218
 H274 H 0.66310 0.39455 -0.22602
 H275 H 0.57633 0.52443 -0.23250
 H276 H 0.57831 0.48158 -0.18557
 C277 C 0.38365 1.02553 0.71701
 C278 C 0.37718 1.01670 0.75316
 C279 C 0.37248 0.98153 0.76252
 C280 C 0.37461 0.95512 0.73700
 C281 C 0.38123 0.96303 0.70124
 C282 C 0.38622 0.99839 0.69092
 C283 C 0.38669 1.06070 0.70595
 C284 C 0.39367 1.06883 0.67043
 C285 C 0.39760 1.04227 0.64525
 C286 C 0.39391 1.00734 0.65525
 H287 H 0.38324 1.08225 0.72437
 H288 H 0.39605 1.09592 0.66240
 H289 H 0.40329 1.04877 0.61777
 H290 H 0.39723 0.98752 0.63484
 H291 H 0.36745 0.97438 0.78998
 H292 H 0.37063 0.92820 0.74518
 C293 C 0.83404 0.50747 0.24937
 C294 C 0.86657 0.48972 0.24004
 C295 C 0.89882 0.49909 0.25714
 C296 C 0.89959 0.52586 0.28237
 C297 C 0.86829 0.54476 0.29102
 C298 C 0.83529 0.53624 0.27373
 C299 C 0.80007 0.49687 0.23580
 C300 C 0.76884 0.51591 0.24341
 C301 C 0.77069 0.54571 0.26473
 C302 C 0.80350 0.55589 0.27977
 H303 H 0.79701 0.47345 0.21988
 H304 H 0.74308 0.50758 0.23256
 H305 H 0.74648 0.56078 0.27000
 H306 H 0.80364 0.57937 0.29594
 H307 H 0.92391 0.48587 0.25059
 H308 H 0.92498 0.53184 0.29537
 C309 C 0.20395 0.12093 -0.02330
 C310 C 0.24131 0.12608 -0.01587
 C311 C 0.25230 0.12924 0.01952
 C312 C 0.22726 0.12718 0.04739
 C313 C 0.19032 0.12193 0.04088
 C314 C 0.17837 0.11813 0.00538
 C315 C 0.19116 0.11941 -0.05850
 C316 C 0.15452 0.11340 -0.06526
 C317 C 0.12989 0.10901 -0.03728
 C318 C 0.14155 0.11137 -0.00226
 H319 H 0.20906 0.12331 -0.08111
 H320 H 0.14519 0.11211 -0.09240
 H321 H 0.10155 0.10401 -0.04272
 H322 H 0.12151 0.10767 0.01867
 H323 H 0.28068 0.13309 0.02572
 H324 H 0.23677 0.13018 0.07437
 C325 C 0.76572 0.58903 0.50745
 C326 C 0.74639 0.62022 0.51539
 C327 C 0.75475 0.65067 0.49625
 C328 C 0.78166 0.65085 0.46995
 C329 C 0.80189 0.62081 0.46237
 C330 C 0.79499 0.58994 0.48227
 C331 C 0.75610 0.55660 0.52298
 C332 C 0.77701 0.52692 0.51688
 C333 C 0.80765 0.52876 0.49501
 C334 C 0.81661 0.55987 0.47774
 H335 H 0.73196 0.55342 0.53922
 H336 H 0.76946 0.50239 0.52930
 H337 H 0.82420 0.50582 0.49092
 H338 H 0.84068 0.56012 0.46101
 H339 H 0.74030 0.67470 0.50171
 H340 H 0.78637 0.67464 0.45499
 C341 C 0.78333 0.37491 -0.04544
 C342 C 0.77510 0.38240 -0.00922
 C343 C 0.73897 0.38778 0.00126
 C344 C 0.71105 0.38518 -0.02311
 C345 C 0.71831 0.37734 -0.05885
 C346 C 0.75461 0.37193 -0.07037
 C347 C 0.81945 0.37099 -0.05767
 C348 C 0.82698 0.36293 -0.09319
 C349 C 0.79885 0.35878 -0.11720
 C350 C 0.76297 0.36325 -0.10604
 H351 H 0.84220 0.37452 -0.04016
 H352 H 0.85481 0.35986 -0.10213
 H353 H 0.80488 0.35227 -0.14468
 H354 H 0.74195 0.35971 -0.12556
 H355 H 0.73216 0.39340 0.02880
 H356 H 0.68342 0.38942 -0.01401
 C357 C 0.28407 0.87356 0.48409
 C358 C 0.24688 0.86885 0.49330
 C359 C 0.23679 0.86400 0.52895
 C360 C 0.26266 0.86490 0.55559
 C361 C 0.29940 0.87037 0.54732
 C362 C 0.31046 0.87493 0.51140
 C363 C 0.29578 0.87631 0.44830
 C364 C 0.33230 0.88189 0.43978
 C365 C 0.35783 0.88469 0.46655
 C366 C 0.34718 0.88124 0.50204
 H367 H 0.27708 0.87372 0.42656
 H368 H 0.34082 0.88408 0.41223
 H369 H 0.38610 0.88933 0.45978
 H370 H 0.36795 0.88363 0.52196
 H371 H 0.20850 0.86032 0.53631
 H372 H 0.25394 0.86144 0.58297
   
