data_POSCAR
  _audit_creation_date              2014-09-24
  _audit_creation_method            'ToBaCCo'
  _symmetry_space_group_name_H-M    'P1'
  _symmetry_Int_Tables_number       1
  _symmetry_cell_setting            triclinic
  loop_
  _symmetry_equiv_pos_as_xyz
 x,y,z
_cell_length_a 9.7835
_cell_length_b 9.7812
_cell_length_c 25.7933
_cell_angle_alpha 89.655900
_cell_angle_beta 90.343500
_cell_angle_gamma 119.791400
loop_
  _atom_site_label
  _atom_site_type_symbol
  _atom_site_fract_x
  _atom_site_fract_y
  _atom_site_fract_z
C1 C 0.00372 0.00043 0.50028
 C2 C 1.00043 0.00373 0.16633
 C3 C -0.00261 0.99738 0.83335
 O4 O 0.41537 0.10738 0.04862
 O5 O 0.68271 0.10452 -0.05171
 O6 O 0.44114 0.15560 -0.05148
 O7 O 0.70483 0.15775 0.04864
 O8 O 0.58041 -0.10266 0.04960
 O9 O 0.30864 -0.10481 -0.05114
 O10 O 0.55012 -0.15586 -0.05005
 O11 O 0.29100 -0.15304 0.04961
 Cu12 Cu 0.57355 0.15565 -0.00183
 Cu13 Cu 0.41995 -0.15340 -0.00065
 C14 C 0.30667 -0.02471 0.06588
 C15 C 0.66109 -0.02839 -0.06746
 C16 C 0.32951 0.02725 -0.06801
 C17 C 0.68994 0.03021 0.06592
 O18 O 0.10727 0.41527 0.61803
 O19 O 0.10456 0.68273 0.71835
 O20 O 0.15551 0.44105 0.71812
 O21 O 0.15779 0.70485 0.61800
 O22 O -0.10256 0.58051 0.61705
 O23 O -0.10483 0.30861 0.71779
 O24 O -0.15576 0.55020 0.71669
 O25 O -0.15308 0.29098 0.61703
 Cu26 Cu 0.15563 0.57352 0.66847
 Cu27 Cu -0.15337 0.41998 0.66729
 C28 C -0.02482 0.30658 0.60076
 C29 C -0.02831 0.66114 0.73411
 C30 C 0.02718 0.32946 0.73466
 C31 C 0.03031 0.69001 0.60072
 O32 O 0.58351 0.68970 0.28297
 O33 O 0.31530 0.41995 0.38352
 O34 O 0.55455 0.70918 0.38348
 O35 O 0.29258 0.44953 0.28357
 O36 O 0.41975 0.31551 0.28299
 O37 O 0.68989 0.58333 0.38353
 O38 O 0.45064 0.29409 0.38356
 O39 O 0.71069 0.55565 0.28365
 Cu40 Cu 0.42465 0.57974 0.33323
 Cu41 Cu 0.57950 0.42447 0.33329
 C42 C 0.69395 0.66754 0.26662
 C43 C 0.33845 0.30990 0.40026
 C44 C 0.66711 0.69309 0.40021
 C45 C 0.30904 0.33802 0.26656
 C46 C -0.02530 0.10348 0.53382
 C47 C -0.02926 0.19608 0.56357
 C48 C 0.89769 0.87115 0.19988
 C49 C 0.80496 0.77411 0.22956
 C50 C 0.12328 0.02571 -0.13474
 C51 C 0.22169 0.03122 -0.10506
 C52 C 0.03296 0.89628 0.53379
 C53 C 0.03634 0.80236 0.56352
 C54 C 0.10404 0.13580 0.19979
 C55 C 0.19737 0.23226 0.22947
 C56 C 0.86459 -0.03128 -0.13347
 C57 C 0.76746 -0.03445 -0.10415
 C58 C 0.10360 -0.02514 0.13280
 C59 C 0.19621 -0.02910 0.10306
 C60 C 0.87112 0.89740 0.46676
 C61 C 0.77390 0.80435 0.43718
 C62 C 0.02566 0.12327 0.80142
 C63 C 0.03113 0.22166 0.77173
 C64 C 0.89617 0.03281 0.13283
 C65 C 0.80224 0.03618 0.10311
 C66 C 0.13582 0.10433 0.46685
 C67 C 0.23245 0.19798 0.43727
 C68 C -0.03121 0.86459 0.80016
 C69 C -0.03435 0.76748 0.77082
   
