data_POSCAR
  _audit_creation_date              2014-09-24
  _audit_creation_method            'ToBaCCo'
  _symmetry_space_group_name_H-M    'P1'
  _symmetry_Int_Tables_number       1
  _symmetry_cell_setting            triclinic
  loop_
  _symmetry_equiv_pos_as_xyz
 x,y,z
_cell_length_a 37.3923
_cell_length_b 38.6864
_cell_length_c 37.8387
_cell_angle_alpha 92.080400
_cell_angle_beta 85.990200
_cell_angle_gamma 89.732200
loop_
  _atom_site_label
  _atom_site_type_symbol
  _atom_site_fract_x
  _atom_site_fract_y
  _atom_site_fract_z
C1 C 0.20265 0.51130 1.03913
 H2 H 0.19534 0.51455 1.01241
 C3 C 0.17556 0.51138 1.06623
 H4 H 0.14860 0.51443 1.05846
 C5 C 0.24687 0.50377 1.07988
 H6 H 0.27473 0.50075 1.08517
 C7 C 0.22042 0.50361 1.10807
 H8 H 0.22847 0.50045 1.13473
 N9 N 0.23759 0.50730 1.04601
 C10 C 0.31772 0.55624 0.97406
 H11 H 0.30978 0.54500 0.94925
 C12 C 0.34764 0.57782 0.97407
 H13 H 0.36202 0.58293 0.94903
 C14 C 0.31086 0.55986 1.03675
 H15 H 0.29752 0.55179 1.06121
 C16 C 0.34062 0.58139 1.03799
 H17 H 0.34939 0.59005 1.06350
 Zn18 Zn 0.27121 0.50694 1.00533
 N19 N 0.30058 0.54693 1.00516
 C20 C 0.23150 0.53107 0.94887
 N21 N 0.24439 0.50295 0.96462
 C22 C 0.23234 0.47062 0.95702
 C23 C 0.20509 0.46570 0.93408
 C24 C 0.20419 0.52727 0.92550
 C25 C 0.30678 0.44692 1.03051
 C26 C 0.33543 0.42331 1.02911
 C27 C 0.35534 0.44426 0.97173
 C28 C 0.32658 0.46734 0.97428
 N29 N 0.30362 0.46906 1.00374
 H30 H 0.24048 0.55666 0.95639
 H31 H 0.24223 0.44885 0.97070
 H32 H 0.19466 0.43993 0.92976
 H33 H 0.19282 0.55019 0.91502
 H34 H 0.28790 0.44813 1.05342
 H35 H 0.33802 0.40697 1.05135
 H36 H 0.37387 0.44416 0.94839
 H37 H 0.32316 0.48472 0.95306
 C38 C 0.36010 0.58980 1.00651
 C39 C 0.18399 0.50730 1.10158
 C40 C 0.36069 0.42243 0.99965
 C41 C 0.18997 0.49424 0.91871
 C42 C 0.81031 0.51294 -0.04926
 H43 H 0.80909 0.53266 -0.02818
 C44 C 0.83730 0.51392 -0.07654
 H45 H 0.85603 0.53516 -0.07679
 C46 C 0.78772 0.46083 -0.07364
 H47 H 0.76921 0.43951 -0.07161
 C48 C 0.81423 0.46097 -0.10170
 H49 H 0.81551 0.44001 -0.12153
 N50 N 0.78664 0.48638 -0.04788
 C51 C 0.70399 0.52229 0.03245
 H52 H 0.70712 0.50281 0.05182
 C53 C 0.67506 0.54534 0.03668
 H54 H 0.65627 0.54375 0.05968
 C55 C 0.72309 0.54609 -0.02248
 H56 H 0.74089 0.54517 -0.04627
 C57 C 0.69461 0.56986 -0.01917
 H58 H 0.69110 0.58703 -0.04061
 Zn59 Zn 0.75815 0.48408 -0.00467
 N60 N 0.72684 0.52258 0.00290
 C61 C 0.79443 0.50579 0.05707
 N62 N 0.79134 0.48159 0.03048
 C63 C 0.81494 0.45481 0.02513
 C64 C 0.84360 0.45190 0.04638
 C65 C 0.82284 0.50378 0.07922
 C66 C 0.70386 0.44032 -0.02769
 C67 C 0.67611 0.41651 -0.02262
 C68 C 0.69935 0.40231 0.03310
 C69 C 0.72696 0.42586 0.02669
 N70 N 0.72829 0.44482 -0.00295
 H71 H 0.77573 0.52726 0.06029
 H72 H 0.81202 0.43624 0.00347
 H73 H 0.86264 0.43085 0.04102
 H74 H 0.82570 0.52401 0.09929
 H75 H 0.70470 0.45666 -0.05033
 H76 H 0.65587 0.41459 -0.04168
 H77 H 0.69758 0.38874 0.05770
 H78 H 0.74576 0.43071 0.04668
 C79 C 0.66966 0.56911 0.01045
 C80 C 0.84018 0.48709 -0.10264
 C81 C 0.67318 0.39788 0.00864
 C82 C 0.84815 0.47671 0.07355
 C83 C -0.05484 0.32283 0.49323
 H84 H -0.07016 0.32259 0.51855
 C85 C -0.05637 0.35162 0.47233
 H86 H -0.07331 0.37331 0.48179
 C87 C -0.01280 0.29537 0.45149
 H88 H 0.00511 0.27390 0.44415
 C89 C -0.01404 0.32347 0.42926
 H90 H 0.00314 0.32277 0.40506
 N91 N -0.03287 0.29574 0.48290
 C92 C -0.06975 0.20917 0.54535
 H93 H -0.04732 0.20648 0.56164
 C94 C -0.09580 0.18350 0.54480
 H95 H -0.09380 0.16174 0.56174
 C96 C -0.09837 0.24019 0.50223
 H97 H -0.09836 0.26154 0.48457
 C98 C -0.12517 0.21517 0.50103
 H99 H -0.14602 0.21777 0.48279
 Zn100 Zn -0.02850 0.26219 0.51745
 N101 N -0.07090 0.23622 0.52350
 C102 C -0.04169 0.28791 0.58891
 N103 N -0.01851 0.28711 0.55952
 C104 C 0.01036 0.30833 0.55707
 C105 C 0.01595 0.33273 0.58416
 C106 C -0.03696 0.31187 0.61680
 C107 C 0.00129 0.20816 0.47517
 C108 C 0.02171 0.17820 0.46763
 C109 C 0.05578 0.19251 0.51804
 C110 C 0.03460 0.22228 0.52466
 N111 N 0.00758 0.22911 0.50364
 H112 H -0.06482 0.27123 0.59002
 H113 H 0.02814 0.30735 0.53324
 H114 H 0.03883 0.34967 0.58132
 H115 H -0.05630 0.31312 0.63951
 H116 H -0.02105 0.21367 0.45953
 H117 H 0.01531 0.16111 0.44568
 H118 H 0.07571 0.18676 0.53637
 H119 H 0.03833 0.23866 0.54784
 C120 C -0.12313 0.18565 0.52129
 C121 C -0.03554 0.35257 0.44002
 C122 C 0.04885 0.16959 0.48957
 C123 C -0.00866 0.33552 0.61397
 C124 C 0.96513 0.69888 0.52796
 H125 H 0.94548 0.70261 0.50875
 C126 C 0.96171 0.67135 0.55066
 H127 H 0.93904 0.65417 0.54902
 C128 C 1.01972 0.71561 0.55165
 H129 H 1.04292 0.73221 0.55091
 C130 C 1.01739 0.68823 0.57491
 H131 H 1.03904 0.68440 0.59186
 N132 N 0.99400 0.72001 0.52848
 C133 C 0.96107 0.80525 0.46583
 H134 H 0.98074 0.80241 0.44353
 C135 C 0.93785 0.83370 0.46850
 H136 H 0.93987 0.85247 0.44796
 C137 C 0.93758 0.78597 0.52146
 H138 H 0.93869 0.76812 0.54269
 C139 C 0.91422 0.81435 0.52545
 H140 H 0.89696 0.81781 0.54954
 Zn141 Zn 0.99942 0.75076 0.49093
 N142 N 0.96075 0.78231 0.49222
 C143 C 0.97707 0.72333 0.42492
 N144 N 1.00237 0.72256 0.44903
 C145 C 1.02901 0.69839 0.44634
 C146 C 1.03047 0.67307 0.41911
 C147 C 0.97759 0.69847 0.39711
 C148 C 1.03968 0.80170 0.52199
 C149 C 1.06493 0.82809 0.52292
 C150 C 1.09261 0.80515 0.46729
 C151 C 1.06654 0.77938 0.46720
 N152 N 1.04044 0.77854 0.49406
 H153 H 0.95563 0.74223 0.42800
 H154 H 1.04854 0.69820 0.46613
 H155 H 1.05191 0.65409 0.41766
 H156 H 0.95674 0.69874 0.37864
 H157 H 1.01834 0.80063 0.54274
 H158 H 1.06345 0.84659 0.54512
 H159 H 1.11262 0.80623 0.44523
 H160 H 1.06617 0.76123 0.44486
 C161 C 0.91452 0.83884 0.49901
 C162 C 0.98830 0.66525 0.57409
 C163 C 1.09115 0.83062 0.49470
 C164 C 1.00386 0.67232 0.39464
 C165 C 0.47081 -0.03445 0.30211
 H166 H 0.48884 -0.05504 0.29208
 C167 C 0.44776 -0.03930 0.33206
 H168 H 0.44790 -0.06394 0.34478
 C169 C 0.45017 0.02325 0.29858
 H170 H 0.45225 0.04796 0.28618
 C171 C 0.42662 0.01952 0.32857
 H172 H 0.41079 0.04165 0.33861
 N173 N 0.47179 -0.00353 0.28620
 C174 C 0.53471 -0.04492 0.19364
 H175 H 0.56105 -0.03549 0.19886
 C176 C 0.53061 -0.06673 0.16389
 H177 H 0.55428 -0.07420 0.14723
 C178 C 0.47188 -0.04304 0.20680
 H179 H 0.44903 -0.03300 0.22315
 C180 C 0.46644 -0.06345 0.17654
 H181 H 0.43925 -0.06937 0.17025
 Zn182 Zn 0.50868 0.00154 0.25019
 N183 N 0.50555 -0.03396 0.21469
 C184 C 0.57418 -0.02715 0.27303
 N185 N 0.55162 0.00063 0.27391
 C186 C 0.55596 0.02832 0.29633
 C187 C 0.58392 0.02907 0.31880
 C188 C 0.60263 -0.02749 0.29518
 C189 C 0.47240 0.04946 0.21220
 C190 C 0.46885 0.07726 0.19020
 C191 C 0.52984 0.09337 0.19987
 C192 C 0.53233 0.06508 0.22148
 N193 N 0.50391 0.04361 0.22694
 H194 H 0.56924 -0.04977 0.25658
 H195 H 0.53702 0.04962 0.29731
 H196 H 0.58682 0.05165 0.33606
 H197 H 0.61990 -0.05007 0.29485
 H198 H 0.45030 0.03187 0.21670
 H199 H 0.44363 0.08119 0.17848
 H200 H 0.55303 0.10961 0.19487
 H201 H 0.55752 0.05944 0.23245
 C202 C 0.49593 -0.07565 0.15452
 C203 C 0.42549 -0.01211 0.34593
 C204 C 0.49823 0.09903 0.18304
 C205 C 0.60719 0.00049 0.31905
 C206 C 0.52847 -0.02752 0.68952
 H207 H 0.51369 -0.05144 0.68805
 C208 C 0.55447 -0.02013 0.66271
 H209 H 0.55967 -0.03874 0.64088
 C210 C 0.53642 0.02736 0.71774
 H211 H 0.52802 0.04641 0.73827
 C212 C 0.56211 0.03610 0.69103
 H213 H 0.57395 0.06160 0.69160
 N214 N 0.51996 -0.00391 0.71630
 C215 C 0.45147 -0.06287 0.78992
 H216 H 0.42791 -0.04639 0.79177
 C217 C 0.45381 -0.09007 0.81295
 H218 H 0.43149 -0.09495 0.83186
 C219 C 0.51001 -0.07521 0.76426
 H220 H 0.53259 -0.06831 0.74664
 C221 C 0.51321 -0.10303 0.78636
 H222 H 0.53801 -0.11777 0.78495
 Zn223 Zn 0.47806 -0.01226 0.74531
 N224 N 0.47969 -0.05545 0.76685
 C225 C 0.42230 -0.03637 0.70246
 N226 N 0.44090 -0.00878 0.71461
 C227 C 0.43889 0.02262 0.69994
 C228 C 0.41869 0.02704 0.67094
 C229 C 0.40159 -0.03307 0.67325
 C230 C 0.50011 0.02464 0.80401
 C231 C 0.49669 0.04617 0.83439
 C232 C 0.43577 0.05903 0.82132
 C233 C 0.44056 0.03765 0.79079
 N234 N 0.47238 0.02100 0.78283
 H235 H 0.42532 -0.06134 0.71391
 H236 H 0.45473 0.04382 0.70961
 H237 H 0.41860 0.05199 0.65882
 H238 H 0.38856 -0.05573 0.66278
 H239 H 0.52466 0.01014 0.79759
 H240 H 0.51880 0.04799 0.85134
 H241 H 0.41009 0.07161 0.82788
 H242 H 0.41849 0.03338 0.77420
 C243 C 0.48551 -0.10980 0.81201
 C244 C 0.57115 0.01232 0.66299
 C245 C 0.46409 0.06356 0.84339
 C246 C 0.40043 -0.00110 0.65663
 C247 C 0.18530 -0.02123 0.50666
 C248 C 0.20786 0.00739 0.50355
 C249 C 0.19316 0.04062 0.50242
 C250 C 0.15591 0.04556 0.50445
 C251 C 0.13335 0.01654 0.50721
 C252 C 0.14786 -0.01704 0.50786
 C253 C 0.24696 0.00255 0.50239
 C254 C 0.26841 0.01131 0.47225
 C255 C 0.30559 0.00594 0.47059
 C256 C 0.32143 -0.00626 0.50050
 C257 C 0.30010 -0.01416 0.53126
 C258 C 0.26281 -0.01078 0.53151
 H259 H 0.19728 -0.04654 0.50863
 H260 H 0.21081 0.06274 0.50059
 H261 H 0.25595 0.02128 0.44964
 H262 H 0.24614 -0.01707 0.55498
 H263 H 0.10452 0.01995 0.50963
 H264 H 0.35025 -0.00932 0.50004
 C265 C 0.78900 -0.02573 0.47306
 C266 C 0.77078 0.00468 0.48470
 C267 C 0.78993 0.03361 0.49602
 C268 C 0.82755 0.03230 0.49596
 C269 C 0.84538 0.00107 0.48578
 C270 C 0.82622 -0.02791 0.47432
 C271 C 0.73151 0.00495 0.48929
 C272 C 0.71494 -0.00154 0.52268
 C273 C 0.67768 0.00049 0.52847
 C274 C 0.65687 0.00850 0.50036
 C275 C 0.67308 0.01345 0.46633
 C276 C 0.71068 0.01200 0.46098
 H277 H 0.77402 -0.04827 0.46503
 H278 H 0.77512 0.05646 0.50593
 H279 H 0.73116 -0.00766 0.54431
 H280 H 0.72382 0.01693 0.43525
 H281 H 0.87426 -0.00071 0.48651
 H282 H 0.62790 0.00943 0.50461
 C283 C 0.53479 0.26760 0.99813
 C284 C 0.50260 0.25232 1.01060
 C285 C 0.47363 0.27329 1.02376
 C286 C 0.47625 0.30936 1.02355
 C287 C 0.50916 0.32442 1.01262
 C288 C 0.53856 0.30360 1.00007
 C289 C 0.49831 0.21450 1.00814
 C290 C 0.48707 0.19629 1.03829
 C291 C 0.48145 0.16042 1.03566
 C292 C 0.48528 0.14338 1.00224
 C293 C 0.49660 0.16144 0.97197
 C294 C 0.50396 0.19678 0.97525
 H295 H 0.55715 0.25144 0.98775
 H296 H 0.44836 0.26149 1.03222
 H297 H 0.48273 0.21018 1.06361
 H298 H 0.51258 0.21082 0.95190
 H299 H 0.51173 0.35232 1.01316
 H300 H 0.48075 0.11576 1.00001
 C301 C 0.55537 0.72091 -0.01680
 C302 C 0.52314 0.73829 -0.02151
 C303 C 0.49249 0.71916 -0.02833
 C304 C 0.49326 0.68304 -0.02875
 C305 C 0.52549 0.66570 -0.02352
 C306 C 0.55694 0.68459 -0.01809
 C307 C 0.52043 0.77636 -0.01757
 C308 C 0.50485 0.79525 -0.04350
 C309 C 0.49798 0.83084 -0.03807
 C310 C 0.50455 0.84682 -0.00525
 C311 C 0.52062 0.82825 0.02097
 C312 C 0.52986 0.79333 0.01378
 H313 H 0.57926 0.73571 -0.01219
 H314 H 0.46746 0.73248 -0.03185
 H315 H 0.49757 0.78189 -0.06757
 H316 H 0.54166 0.77850 0.03386
 H317 H 0.52620 0.63771 -0.02520
 H318 H 0.49876 0.87418 -0.00106
 C319 C 1.01056 0.52304 0.29301
 C320 C 1.00520 0.49362 0.27148
 C321 C 1.00039 0.46130 0.28663
 C322 C 0.99979 0.45818 0.32356
 C323 C 1.00528 0.48810 0.34494
 C324 C 1.01048 0.52053 0.32995
 C325 C 1.00204 0.49716 0.23327
 C326 C 1.03274 0.50094 0.21019
 C327 C 1.02937 0.50521 0.17370
 C328 C 0.99479 0.50579 0.16122
 C329 C 0.96403 0.50146 0.18409
 C330 C 0.96789 0.49755 0.22020
 H331 H 1.01482 0.54765 0.28071
 H332 H 0.99600 0.43880 0.26958
 H333 H 1.05866 0.50077 0.22115
 H334 H 0.94432 0.49469 0.23822
 H335 H 1.00644 0.48648 0.37332
 H336 H 0.99175 0.50999 0.13342
 C337 C 0.02348 0.54702 0.71724
 C338 C 0.02230 0.51467 0.73274
 C339 C 0.01872 0.48449 0.71160
 C340 C 0.01662 0.48653 0.67472
 C341 C 0.01743 0.51923 0.65966
 C342 C 0.02033 0.54964 0.68078
 C343 C 0.02563 0.51255 0.77112
 C344 C -0.00487 0.50726 0.79397
 C345 C -0.00211 0.50692 0.83090
 C346 C 0.03185 0.51104 0.84428
 C347 C 0.06259 0.51609 0.82147
 C348 C 0.05909 0.51747 0.78495
 H349 H 0.02637 0.57021 0.73373
 H350 H 0.01892 0.45973 0.72397
 H351 H -0.03058 0.50495 0.78273
 H352 H 0.08247 0.52202 0.76718
 H353 H 0.01656 0.52086 0.63121
 H354 H 0.03415 0.51138 0.87268
 C355 C 0.06631 0.13509 0.48399
 C356 C 0.09668 0.12601 0.49803
 C357 C 0.11011 0.09007 0.49416
 C358 C 0.14170 0.08142 0.50593
 H359 H 0.11162 0.14477 0.51283
 H360 H 0.09390 0.07061 0.48173
 H361 H 0.05301 0.11594 0.46797
 H362 H 0.15836 0.10165 0.51647
 C363 C 0.63595 0.58973 0.01307
 C364 C 0.63154 0.61909 -0.00378
 C365 C 0.59604 0.63607 -0.00281
 C366 C 0.59219 0.66737 -0.01601
 H367 H 0.65390 0.63053 -0.01878
 H368 H 0.57287 0.62264 0.00857
 H369 H 0.61353 0.57996 0.02944
 H370 H 0.61593 0.68128 -0.02530
 C371 C 0.89348 -0.12883 0.50571
 C372 C 0.88180 -0.10995 0.47989
 C373 C 0.86416 -0.07632 0.48834
 C374 C 0.84458 -0.06108 0.46510
 H375 H 0.88516 -0.11918 0.45248
 H376 H 0.86664 -0.06406 0.51429
 H377 H 0.88756 -0.12016 0.53309
 H378 H 0.83963 -0.07434 0.44021
 C379 C 0.39373 0.40086 0.99698
 C380 C 0.40211 0.37717 1.01999
 C381 C 0.43636 0.35817 1.01414
 C382 C 0.44370 0.33057 1.03265
 H383 H 0.38406 0.37120 1.04248
 H384 H 0.45522 0.36588 0.99284
 H385 H 0.41261 0.40496 0.97444
 H386 H 0.42374 0.32131 1.05217
 C387 C 0.85172 0.15681 0.51568
 C388 C 0.86126 0.12364 0.51839
 C389 C 0.83745 0.09520 0.50842
 C390 C 0.84899 0.06229 0.50760
 H391 H 0.88776 0.11716 0.52610
 H392 H 0.81112 0.10157 0.50030
 H393 H 0.82596 0.16279 0.50579
 H394 H 0.87619 0.05715 0.51431
 C395 C 0.39485 0.60778 0.00900
 C396 C 0.41186 0.62435 -0.01760
 C397 C 0.44710 0.64023 -0.01309
 C398 C 0.45998 0.66417 -0.03500
 H399 H 0.39961 0.62716 -0.04243
 H400 H 0.46191 0.63354 0.00938
 H401 H 0.40702 0.60739 0.03418
 H402 H 0.44381 0.67282 -0.05572
 C403 C 0.11647 -0.14013 0.49260
 C404 C 0.10769 -0.10824 0.50539
 C405 C 0.13294 -0.07938 0.50099
 C406 C 0.12334 -0.04696 0.51138
 H407 H 0.08134 -0.10303 0.51830
 H408 H 0.15933 -0.08487 0.48840
 H409 H 0.14216 -0.14439 0.47792
 H410 H 0.09606 -0.04195 0.52207
 C411 C 0.64098 0.37752 1.01870
 C412 C 0.62172 0.36051 0.99534
 C413 C 0.58783 0.34412 1.00738
 C414 C 0.57298 0.31926 0.98801
 H415 H 0.63070 0.35886 0.96748
 H416 H 0.57491 0.35231 1.03290
 H417 H 0.63268 0.37669 1.04671
 H418 H 0.58712 0.30903 0.96387
 C419 C 0.49760 0.12635 1.15673
 C420 C 0.47906 0.12311 1.12782
 C421 C 0.48405 0.14753 1.09900
 C422 C 0.47221 0.13981 1.06712
 H423 H 0.46246 0.10063 1.12379
 H424 H 0.50007 0.17041 1.10309
 H425 H 0.51599 0.14778 1.15909
 H426 H 0.45832 0.11558 1.06310
 C427 C -0.01407 0.63312 0.59439
 C428 C 0.00600 0.62593 0.62116
 C429 C 0.00353 0.59171 0.63708
 C430 C 0.02149 0.58425 0.66522
 H431 H 0.02453 0.64468 0.63113
 H432 H -0.01336 0.57231 0.62547
 H433 H -0.03317 0.61388 0.58627
 H434 H 0.03655 0.60444 0.67800
 C435 C 0.49142 0.86400 -0.16145
 C436 C 0.47902 0.86806 -0.12749
 C437 C 0.49023 0.84435 -0.10068
 C438 C 0.48377 0.85193 -0.06598
 H439 H 0.46264 0.89039 -0.11886
 H440 H 0.50597 0.82172 -0.10956
 H441 H 0.50978 0.84282 -0.16912
 H442 H 0.46995 0.87590 -0.05777
 C443 C 0.96440 0.38326 0.42119
 C444 C 0.98038 0.38745 0.38709
 C445 C 0.98283 0.42039 0.37330
 C446 C 0.99417 0.42537 0.33786
 H447 H 0.99058 0.36545 0.37095
 H448 H 0.97449 0.44235 0.39049
 H449 H 0.95080 0.40563 0.43420
 H450 H 0.99672 0.40273 0.32004
 C451 C 0.48957 0.90587 0.12293
 C452 C 0.51508 0.88547 0.10294
 C453 C 0.50729 0.87102 0.07008
 C454 C 0.52745 0.84345 0.05411
 H455 H 0.54034 0.87919 0.11363
 H456 H 0.48355 0.87982 0.05809
 H457 H 0.46254 0.90628 0.11416
 H458 H 0.54655 0.83087 0.06983
 C459 C -0.00629 0.36359 0.64148
 C460 C 0.00626 0.39498 0.63368
 C461 C 0.00636 0.42368 0.66046
 C462 C 0.01558 0.45551 0.65050
 H463 H 0.01545 0.40022 0.60662
 H464 H -0.00185 0.41873 0.68779
 H465 H -0.01761 0.35918 0.66809
 H466 H 0.02211 0.45936 0.62254
 C467 C 0.45827 0.08431 0.87683
 C468 C 0.48448 0.10223 0.89106
 C469 C 0.47836 0.12033 0.92575
 C470 C 0.50169 0.14364 0.93687
 H471 H 0.51072 0.10359 0.87710
 H472 H 0.45442 0.11467 0.94233
 H473 H 0.43150 0.08516 0.88990
 H474 H 0.52420 0.15105 0.91919
 C475 C 1.00206 0.64410 0.36731
 C476 C 1.01349 0.61192 0.37235
 C477 C 1.00866 0.58351 0.34619
 C478 C 1.01637 0.55089 0.35380
 H479 H 1.02504 0.60586 0.39686
 H480 H 0.99741 0.58927 0.32146
 H481 H 0.98850 0.64925 0.34362
 H482 H 1.02575 0.54594 0.37965
 C483 C 1.15762 0.50636 0.13020
 C484 C 1.12070 0.50980 0.12671
 C485 C 1.09511 0.50681 0.15512
 C486 C 1.05869 0.50896 0.14876
 H487 H 1.11079 0.51452 0.10125
 H488 H 1.10378 0.50204 0.18117
 H489 H 1.16634 0.50229 0.15649
 H490 H 1.05246 0.51309 0.12161
 C491 C 0.59449 0.02319 0.63236
 C492 C 0.61573 0.00105 0.61271
 C493 C 0.63424 0.01154 0.57933
 C494 C 0.66079 -0.00772 0.56345
 H495 H 0.61877 -0.02536 0.62073
 H496 H 0.62563 0.03488 0.56723
 H497 H 0.59358 0.05011 0.62538
 H498 H 0.67102 -0.02967 0.57676
 C499 C -0.12969 0.48550 0.86966
 C500 C -0.09686 0.49687 0.87598
 C501 C -0.06682 0.49533 0.84849
 C502 C -0.03392 0.50509 0.85663
 H503 H -0.09175 0.50725 0.90212
 H504 H -0.07193 0.48637 0.82193
 H505 H -0.13413 0.47313 0.84419
 H506 H -0.02998 0.51255 0.88399
 C507 C 0.40357 -0.01739 0.37951
 C508 C 0.37627 0.00304 0.39211
 C509 C 0.35660 -0.00417 0.42615
 C510 C 0.32703 0.01367 0.43746
 H511 H 0.36783 0.02470 0.37736
 H512 H 0.36588 -0.02510 0.44153
 H513 H 0.41010 -0.03966 0.39452
 H514 H 0.31685 0.03309 0.42073
 C515 C 0.15689 0.48877 0.89984
 C516 C 0.14426 0.51061 0.87701
 C517 C 0.10908 0.50429 0.86270
 C518 C 0.09825 0.52161 0.83539
 H519 H 0.15943 0.53315 0.86908
 H520 H 0.09179 0.48486 0.87464
 H521 H 0.14178 0.46550 0.90554
 H522 H 0.11656 0.53925 0.82190
 C523 C 0.63519 -0.00140 0.34478
 C524 C 0.63133 0.01419 0.37701
 C525 C 0.65764 0.00949 0.40364
 C526 C 0.64980 0.02021 0.43732
 H527 H 0.60731 0.02910 0.38486
 H528 H 0.68242 -0.00436 0.39610
 H529 H 0.65817 -0.01818 0.33816
 H530 H 0.62384 0.03207 0.44451
 C531 C 0.88129 0.47479 0.09265
 C532 C 0.88622 0.49075 0.12386
 C533 C 0.92164 0.48880 0.13847
 C534 C 0.92774 0.50185 0.17068
 H535 H 0.86481 0.50539 0.13827
 H536 H 0.94338 0.47633 0.12225
 H537 H 0.90312 0.45921 0.08000
 H538 H 0.90557 0.51222 0.18790
 C539 C 0.38375 0.00368 0.62277
 C540 C 0.35944 -0.01732 0.60932
 C541 C 0.34555 -0.00971 0.57493
 C542 C 0.31609 -0.02478 0.56386
 H543 H 0.34911 -0.03924 0.62370
 H544 H 0.35864 0.01011 0.55924
 H545 H 0.39184 0.02629 0.60811
 H546 H 0.30144 -0.04263 0.58082
   
