data_POSCAR
  _audit_creation_date              2014-09-24
  _audit_creation_method            'ToBaCCo'
  _symmetry_space_group_name_H-M    'P1'
  _symmetry_Int_Tables_number       1
  _symmetry_cell_setting            triclinic
  loop_
  _symmetry_equiv_pos_as_xyz
 x,y,z
_cell_length_a 39.8471
_cell_length_b 39.8800
_cell_length_c 39.8687
_cell_angle_alpha 89.984600
_cell_angle_beta 89.992100
_cell_angle_gamma 89.892900
loop_
  _atom_site_label
  _atom_site_type_symbol
  _atom_site_fract_x
  _atom_site_fract_y
  _atom_site_fract_z
C1 C 0.16680 0.16772 0.20669
 N2 N 0.19460 0.15348 0.19307
 C3 C 0.20843 0.16669 0.16490
 N4 N 0.19440 0.19408 0.15032
 C5 C 0.16660 0.20831 0.16393
 N6 N 0.15277 0.19510 0.19208
 C7 C -0.16296 0.83542 0.20985
 N8 N -0.19107 0.84937 0.19656
 C9 C -0.20568 0.83540 0.16918
 N10 N -0.19212 0.80754 0.15505
 C11 C -0.16402 0.79359 0.16834
 N12 N -0.14942 0.80756 0.19572
 C13 C -0.16868 0.16370 -0.20841
 N14 N -0.19607 0.14909 -0.19448
 C15 C -0.21031 0.16259 -0.16664
 N16 N -0.19709 0.19065 -0.15269
 C17 C -0.16970 0.20527 -0.16661
 N18 N -0.15546 0.19176 -0.19444
 C19 C 0.16785 0.83526 -0.20693
 N20 N 0.15310 0.80749 -0.19396
 C21 C 0.16614 0.79263 -0.16625
 N22 N 0.19391 0.80558 -0.15144
 C23 C 0.20867 0.83335 -0.16441
 N24 N 0.19561 0.84822 -0.19212
 C25 C 0.16735 1.16614 0.79369
 N26 N 0.15311 1.19392 0.80730
 C27 C 0.16642 1.20782 0.83537
 N28 N 0.19392 1.19389 0.84987
 C29 C 0.20816 1.16611 0.83626
 N30 N 0.19485 1.15221 0.80820
 C31 C 0.83529 0.83601 0.78949
 N32 N 0.84921 0.80791 0.80279
 C33 C 0.83529 0.79342 0.83027
 N34 N 0.80751 0.80709 0.84449
 C35 C 0.79359 0.83519 0.83118
 N36 N 0.80751 0.84966 0.80371
 C37 C 0.16365 0.83247 1.20855
 N38 N 0.14913 0.80504 1.19465
 C39 C 0.16277 0.79076 1.16692
 N40 N 0.19089 0.80396 1.15302
 C41 C 0.20542 0.83139 1.16691
 N42 N 0.19177 0.84568 1.19464
 C43 C 0.83545 1.16769 1.20813
 N44 N 0.80776 1.15291 1.19501
 C45 C 0.79303 1.16594 1.16721
 N46 N 0.80605 1.19369 1.15248
 C47 C 0.83375 1.20848 1.16558
 N48 N 0.84848 1.19544 1.19339
 O49 O 0.45318 0.93543 0.94480
 O50 O 0.41638 0.96781 0.97518
 C51 C 0.42316 0.94450 0.95361
 O52 O 0.54772 0.93901 1.06455
 O53 O 0.58436 0.96932 1.03203
 C54 C 0.57770 0.94787 1.05546
 O55 O 0.45325 0.93580 1.06146
 O56 O 0.41640 0.96793 1.03085
 C57 C 0.42321 0.94475 1.05255
 O58 O 0.54755 0.93861 0.94158
 O59 O 0.58429 0.96911 0.97378
 C60 C 0.57755 0.94754 0.95049
 Zr61 Zr 0.50035 0.95426 0.96074
 O62 O 0.50430 0.90131 0.96170
 O63 O 0.49656 0.95359 0.90779
 Zr64 Zr 0.50045 0.95465 1.04552
 O65 O 0.50438 0.90170 1.04544
 O66 O 0.49670 0.95484 1.09849
 O67 O 0.47046 0.94795 1.00318
 O68 O 0.52960 0.94838 1.00311
 O69 O 0.54726 1.05496 0.94120
 O70 O 0.58416 1.02466 0.97357
 C71 C 0.57731 1.04614 0.95019
 O72 O 0.45310 1.05846 1.06115
 O73 O 0.41637 1.02565 1.03132
 C74 C 0.42310 1.04919 1.05261
 O75 O 0.54744 1.05551 1.06394
 O76 O 0.58423 1.02493 1.03174
 C77 C 0.57746 1.04664 1.05491
 O78 O 0.45291 1.05809 0.94445
 O79 O 0.41622 1.02597 0.97512
 C80 C 0.42292 1.04915 0.95340
 Zr81 Zr 0.50014 1.03921 0.96029
 O82 O 0.50384 1.09216 0.96023
 O83 O 0.49627 1.03887 0.90733
 Zr84 Zr 0.50026 1.03954 1.04517
 O85 O 0.50390 1.09249 1.04471
 O86 O 0.49660 1.03961 1.09815
 Zr87 Zr 0.45044 0.99695 1.00294
 Zr88 Zr 0.55013 0.99696 1.00284
 O89 O 0.52931 1.04549 1.00266
 O90 O 0.47026 1.04594 1.00275
 O91 O 0.53009 0.99672 0.95390
 O92 O 0.47126 0.99710 1.05147
 O93 O 0.47115 0.99671 0.95439
 O94 O 0.53025 0.99714 1.05186
 H95 H 0.54494 0.92880 1.00316
 H96 H 0.45613 0.99710 1.07119
 H97 H 0.54451 1.06513 1.00254
 H98 H 0.45593 0.99666 0.93475
 H99 H 0.51527 0.96877 1.10720
 H100 H 0.51545 1.02603 1.10693
 H101 H 0.48496 1.10118 1.03122
 H102 H 0.48508 1.10098 0.97389
 H103 H 0.51512 1.02527 0.89858
 H104 H 0.51458 0.96810 0.89888
 H105 H 0.48494 0.89264 0.97456
 H106 H 0.48551 0.89289 1.03198
 O107 O -0.06483 0.45275 0.05537
 O108 O -0.03213 0.41594 0.02537
 C109 C -0.05555 0.42274 0.04682
 O110 O -0.06128 0.54707 -0.06471
 O111 O -0.03093 0.58369 -0.03224
 C112 C -0.05239 0.57703 -0.05566
 O113 O -0.06462 0.45269 -0.06147
 O114 O -0.03254 0.41586 -0.03078
 C115 C -0.05572 0.42267 -0.05250
 O116 O -0.06167 0.54702 0.05830
 O117 O -0.03114 0.58368 0.02601
 C118 C -0.05271 0.57699 0.04934
 Zr119 Zr -0.04609 0.49983 0.03916
 O120 O -0.09908 0.50378 0.03799
 O121 O -0.04695 0.49616 0.09211
 Zr122 Zr -0.04569 0.49984 -0.04561
 O123 O -0.09868 0.50383 -0.04552
 O124 O -0.04552 0.49605 -0.09857
 O125 O -0.05245 0.46990 -0.00323
 O126 O -0.05194 0.52902 -0.00325
 O127 O 0.05470 0.54665 0.05864
 O128 O 0.02442 0.58350 0.02622
 C129 C 0.04589 0.57667 0.04962
 O130 O 0.05819 0.45245 -0.06121
 O131 O 0.02528 0.41580 -0.03137
 C132 C 0.04886 0.42249 -0.05266
 O133 O 0.05533 0.54672 -0.06410
 O134 O 0.02472 0.58351 -0.03196
 C135 C 0.04647 0.57672 -0.05510
 O136 O 0.05778 0.45233 0.05543
 O137 O 0.02565 0.41567 0.02476
 C138 C 0.04884 0.42236 0.04648
 Zr139 Zr 0.03895 0.49955 0.03957
 O140 O 0.09195 0.50323 0.03954
 O141 O 0.03872 0.49573 0.09254
 Zr142 Zr 0.03932 0.49961 -0.04524
 O143 O 0.09233 0.50320 -0.04464
 O144 O 0.03955 0.49594 -0.09821
 Zr145 Zr -0.00341 0.44988 -0.00301
 Zr146 Zr -0.00330 0.54949 -0.00301
 O147 O 0.04527 0.52869 -0.00279
 O148 O 0.04565 0.46964 -0.00282
 O149 O -0.00356 0.52950 0.04596
 O150 O -0.00321 0.47067 -0.05155
 O151 O -0.00360 0.47067 0.04551
 O152 O -0.00312 0.52957 -0.05199
 H153 H -0.07152 0.54437 -0.00331
 H154 H -0.00322 0.45553 -0.07125
 H155 H 0.06493 0.54386 -0.00269
 H156 H -0.00358 0.45555 0.06524
 H157 H -0.03151 0.51454 -0.10731
 H158 H 0.02579 0.51463 -0.10703
 H159 H 0.10099 0.48412 -0.03133
 H160 H 0.10076 0.48438 0.02602
 H161 H 0.02502 0.51448 0.10130
 H162 H -0.03216 0.51395 0.10100
 H163 H -0.10775 0.48416 0.02557
 H164 H -0.10750 0.48506 -0.03193
 O165 O 1.06410 -0.05473 0.54724
 O166 O 1.03163 -0.02432 0.58396
 C167 C 1.05498 -0.04592 0.57724
 O168 O 1.06131 0.06496 0.45305
 O169 O 1.03141 0.03234 0.41621
 C170 C 1.05280 0.05576 0.42302
 O171 O 1.06389 0.06171 0.54742
 O172 O 1.03150 0.03120 0.58404
 C173 C 1.05478 0.05280 0.57738
 O174 O 1.06110 -0.05780 0.45280
 O175 O 1.03075 -0.02537 0.41599
 C176 C 1.05227 -0.04877 0.42278
 Zr177 Zr 1.04532 -0.03881 0.50000
 O178 O 1.09833 -0.03847 0.49632
 O179 O 1.04558 -0.09177 0.50371
 Zr180 Zr 1.04521 0.04595 0.50009
 O181 O 1.09823 0.04560 0.49654
 O182 O 1.04511 0.09889 0.50389
 O183 O 1.05167 0.00352 0.52999
 O184 O 1.05144 0.00359 0.47094
 O185 O 0.94477 -0.05768 0.45252
 O186 O 0.97525 -0.02531 0.41585
 C187 C 0.95367 -0.04861 0.42255
 O188 O 0.94106 0.06186 0.54695
 O189 O 0.97383 0.03193 0.58375
 C190 C 0.95025 0.05324 0.57696
 O191 O 0.94417 0.06487 0.45276
 O192 O 0.97439 0.03228 0.41606
 C193 C 0.95285 0.05566 0.42278
 O194 O 0.94143 -0.05502 0.54680
 O195 O 0.97392 -0.02503 0.58369
 C196 C 0.95056 -0.04647 0.57684
 Zr197 Zr 0.96046 -0.03892 0.49980
 O198 O 0.90747 -0.03891 0.49593
 O199 O 0.96086 -0.09188 0.50343
 Zr200 Zr 0.96023 0.04602 0.49989
 O201 O 0.90724 0.04605 0.49606
 O202 O 0.96054 0.09898 0.50368
 Zr203 Zr 1.00256 0.00349 0.54979
 Zr204 Zr 1.00290 0.00371 0.45010
 O205 O 0.95428 0.00358 0.47078
 O206 O 0.95362 0.00350 0.52974
 O207 O 1.00297 -0.04532 0.47000
 O208 O 1.00263 0.05205 0.52907
 O209 O 1.00283 -0.04502 0.52898
 O210 O 1.00278 0.05265 0.47006
 H211 H 1.07117 0.00352 0.45581
 H212 H 1.00260 0.07172 0.54424
 H213 H 0.93459 0.00352 0.45562
 H214 H 1.00290 -0.06475 0.54408
 H215 H 1.03125 0.10768 0.48526
 H216 H 0.97382 0.10772 0.48463
 H217 H 0.89846 0.03204 0.51454
 H218 H 0.89861 -0.02524 0.51464
 H219 H 0.97428 -0.10059 0.48446
 H220 H 1.03154 -0.10054 0.48525
 H221 H 1.10701 -0.02516 0.51535
 H222 H 1.10691 0.03217 0.51551
 C223 C 1.12458 0.12725 0.28913
 C224 C 1.12956 0.08914 0.29147
 C225 C 1.11512 0.07515 0.31909
 C226 C 1.09711 0.10062 0.34169
 C227 C 1.07201 0.11854 0.31859
 C228 C 1.08645 0.13254 0.29096
 C229 C 1.13818 0.14112 0.32237
 C230 C 1.12373 0.12712 0.35002
 C231 C 1.14009 0.14219 0.25930
 C232 C 1.15272 0.15427 0.23462
 C233 C 1.08151 0.08533 0.37128
 C234 C 1.06851 0.07219 0.39519
 H235 H 1.14323 0.07444 0.27304
 H236 H 1.11642 0.04846 0.32431
 H237 H 1.04524 0.12009 0.32350
 H238 H 1.07206 0.14609 0.27220
 H239 H 1.15744 0.16026 0.32405
 H240 H 1.13061 0.13426 0.37537
 C241 C 0.88099 -0.12216 0.29033
 C242 C 0.91920 -0.12707 0.29148
 C243 C 0.93404 -0.11249 0.31858
 C244 C 0.90921 -0.09444 0.34188
 C245 C 0.88302 -0.12105 0.35116
 C246 C 0.86818 -0.13563 0.32405
 C247 C 0.87568 -0.08408 0.29213
 C248 C 0.89052 -0.06950 0.31923
 C249 C 0.86498 -0.13777 0.26113
 C250 C 0.85182 -0.15043 0.23705
 C251 C 0.92514 -0.07860 0.37098
 C252 C 0.93818 -0.06517 0.39469
 H253 H 0.93335 -0.14078 0.27266
 H254 H 0.96091 -0.11371 0.32298
 H255 H 0.87670 -0.12785 0.37676
 H256 H 0.84913 -0.15492 0.32643
 H257 H 0.86152 -0.06980 0.27374
 H258 H 0.88907 -0.04274 0.32404
 C259 C 0.87485 0.12275 0.71002
 C260 C 0.87162 0.08443 0.70851
 C261 C 0.88661 0.07048 0.68113
 C262 C 0.90337 0.09623 0.65794
 C263 C 0.92768 0.11567 0.68057
 C264 C 0.91268 0.12961 0.70795
 C265 C 0.86053 0.13535 0.67655
 C266 C 0.87553 0.12140 0.64916
 C267 C 0.85880 0.13774 0.73956
 C268 C 0.84580 0.14999 0.76397
 C269 C 0.91965 0.08117 0.62859
 C270 C 0.93340 0.06857 0.60478
 H271 H 0.85869 0.06956 0.72730
 H272 H 0.88654 0.04366 0.67647
 H273 H 0.95433 0.11824 0.67555
 H274 H 0.92649 0.14413 0.72636
 H275 H 0.84038 0.15360 0.67454
 H276 H 0.86824 0.12770 0.62369
 C277 C 1.12677 -0.11932 0.71020
 C278 C 1.13097 -0.08106 0.70969
 C279 C 1.11689 -0.06608 0.68235
 C280 C 1.10000 -0.09084 0.65822
 C281 C 1.07476 -0.11021 0.67988
 C282 C 1.08883 -0.12518 0.70720
 C283 C 1.14147 -0.13145 0.67673
 C284 C 1.12739 -0.11647 0.64939
 C285 C 1.14176 -0.13549 0.73967
 C286 C 1.15381 -0.14883 0.76400
 C287 C 1.08463 -0.07477 0.62890
 C288 C 1.07143 -0.06160 0.60510
 H289 H 1.14386 -0.06698 0.72908
 H290 H 1.11772 -0.03917 0.67833
 H291 H 1.04816 -0.11199 0.67427
 H292 H 1.07428 -0.13979 0.72497
 H293 H 1.16120 -0.15015 0.67468
 H294 H 1.13506 -0.12233 0.62392
 C295 C 0.28996 1.12353 1.12335
 C296 C 0.29174 1.08551 1.12911
 C297 C 0.31912 1.07074 1.11488
 C298 C 0.34203 1.09543 1.09627
 C299 C 0.35085 1.12237 1.12229
 C300 C 0.32347 1.13715 1.13653
 C301 C 0.29172 1.12793 1.08513
 C302 C 0.31909 1.11316 1.07089
 C303 C 0.26042 1.13936 1.13863
 C304 C 0.23603 1.15226 1.15106
 C305 C 0.37139 1.07940 1.08090
 C306 C 0.39522 1.06584 1.06810
 H307 H 0.27314 1.07142 1.14313
 H308 H 0.32396 1.04399 1.11671
 H309 H 0.37635 1.12924 1.12894
 H310 H 0.32550 1.15668 1.15538
 H311 H 0.27310 1.14147 1.07053
 H312 H 0.32392 1.11403 1.04410
 C313 C 0.29012 0.87329 0.88011
 C314 C 0.32363 0.85932 0.86715
 C315 C 0.35100 0.87325 0.88216
 C316 C 0.34216 0.89977 0.90863
 C317 C 0.31854 0.88193 0.93324
 C318 C 0.29118 0.86800 0.91824
 C319 C 0.29258 0.91139 0.87523
 C320 C 0.31993 0.92530 0.89022
 C321 C 0.26061 0.85846 0.86393
 C322 C 0.23624 0.84654 0.85060
 C323 C 0.37151 0.91499 0.92473
 C324 C 0.39531 0.92810 0.93792
 H325 H 0.32568 0.84017 0.84791
 H326 H 0.37650 0.86603 0.87576
 H327 H 0.32292 0.88037 0.96008
 H328 H 0.27212 0.85451 0.93223
 H329 H 0.27443 0.92614 0.86124
 H330 H 0.32520 0.95198 0.88907
 C331 C 0.71190 0.87745 1.12821
 C332 C 0.70937 0.87154 1.09026
 C333 C 0.68173 0.88576 1.07600
 C334 C 0.65928 0.90450 1.10109
 C335 C 0.68256 0.92990 1.11822
 C336 C 0.71022 0.91568 1.13248
 C337 C 0.67865 0.86439 1.14261
 C338 C 0.65098 0.87862 1.12835
 C339 C 0.74175 0.86213 1.14342
 C340 C 0.76641 0.84955 1.15564
 C341 C 0.62964 0.91983 1.08551
 C342 C 0.60566 0.93253 1.07214
 H343 H 0.72770 0.85743 1.07584
 H344 H 0.67638 0.88382 1.04937
 H345 H 0.67774 0.95670 1.11908
 H346 H 0.72909 0.93029 1.14556
 H347 H 0.67699 0.84564 1.16228
 H348 H 0.62562 0.87206 1.13579
 C349 C 0.70925 1.11867 0.87592
 C350 C 0.70731 1.12435 0.91395
 C351 C 0.68026 1.10955 0.92865
 C352 C 0.65778 1.09052 0.90388
 C353 C 0.68128 1.06564 0.88619
 C354 C 0.70835 1.08044 0.87148
 C355 C 0.67547 1.13118 0.86222
 C356 C 0.64840 1.11638 0.87693
 C357 C 0.73842 1.13464 0.86021
 C358 C 0.76249 1.14779 0.84750
 C359 C 0.62873 1.07464 0.91987
 C360 C 0.60508 1.06163 0.93345
 H361 H 0.72559 1.13872 0.92810
 H362 H 0.67537 1.11124 0.95539
 H363 H 0.67705 1.03876 0.88529
 H364 H 0.72730 1.06625 0.85798
 H365 H 0.67303 1.15000 0.84269
 H366 H 0.62277 1.12252 0.86999
 C367 C 0.12301 0.29028 0.11918
 C368 C 0.08491 0.29207 0.12461
 C369 C 0.07018 0.31914 0.10979
 C370 C 0.09499 0.34177 0.09099
 C371 C 0.11298 0.31846 0.06615
 C372 C 0.12772 0.29138 0.08097
 C373 C 0.13647 0.32401 0.13189
 C374 C 0.12173 0.35109 0.11707
 C375 C 0.13877 0.26110 0.13516
 C376 C 0.15156 0.23705 0.14831
 C377 C 0.07900 0.37084 0.07508
 C378 C 0.06546 0.39452 0.06203
 H379 H 0.07074 0.27369 0.13883
 H380 H 0.04339 0.32394 0.11132
 H381 H 0.11405 0.32283 0.03928
 H382 H 0.14142 0.27256 0.06681
 H383 H 0.15586 0.32641 0.15085
 H384 H 0.12851 0.37669 0.12333
 C385 C -0.12814 0.28902 -0.12355
 C386 C -0.09009 0.29135 -0.12904
 C387 C -0.07590 0.31889 -0.11471
 C388 C -0.10114 0.34144 -0.09628
 C389 C -0.11865 0.31826 -0.07102
 C390 C -0.13285 0.29070 -0.08536
 C391 C -0.14228 0.32232 -0.13683
 C392 C -0.12808 0.34988 -0.12249
 C393 C -0.14328 0.25928 -0.13898
 C394 C -0.15546 0.23469 -0.15163
 C395 C -0.08563 0.37096 -0.08083
 C396 C -0.07232 0.39484 -0.06799
 H397 H -0.07556 0.27297 -0.14296
 H398 H -0.04921 0.32410 -0.11635
 H399 H -0.11980 0.32307 -0.04424
 H400 H -0.14617 0.27191 -0.07086
 H401 H -0.16174 0.32408 -0.15581
 H402 H -0.13537 0.37526 -0.12918
 C403 C 0.12064 0.70965 -0.12575
 C404 C 0.13346 0.67618 -0.13989
 C405 C 0.11833 0.64883 -0.12608
 C406 C 0.09187 0.65764 -0.09950
 C407 C 0.06735 0.68151 -0.11723
 C408 C 0.08248 0.70886 -0.13104
 C409 C 0.12550 0.70690 -0.08766
 C410 C 0.11038 0.67957 -0.07387
 C411 C 0.13693 0.73914 -0.14046
 C412 C 0.15031 0.76350 -0.15233
 C413 C 0.07563 0.62832 -0.08442
 C414 C 0.06231 0.60453 -0.07141
 H415 H 0.15271 0.67415 -0.15905
 H416 H 0.12461 0.62337 -0.13342
 H417 H 0.04048 0.67731 -0.11881
 H418 H 0.06857 0.72808 -0.14444
 H419 H 0.13957 0.72484 -0.07282
 H420 H 0.11150 0.67411 -0.04720
 C421 C -0.12215 0.71032 0.12437
 C422 C -0.12827 0.70861 0.08640
 C423 C -0.11429 0.68118 0.07152
 C424 C -0.09557 0.65814 0.09607
 C425 C -0.12140 0.64946 0.12327
 C426 C -0.13538 0.67691 0.13816
 C427 C -0.08388 0.70831 0.12842
 C428 C -0.06991 0.68087 0.11354
 C429 C -0.13718 0.73991 0.14029
 C430 C -0.14948 0.76436 0.15318
 C431 C -0.08049 0.62872 0.07989
 C432 C -0.06793 0.60487 0.06619
 H433 H -0.14233 0.72730 0.07242
 H434 H -0.11639 0.67639 0.04480
 H435 H -0.12810 0.62403 0.13024
 H436 H -0.15407 0.67498 0.15788
 H437 H -0.06907 0.72680 0.14180
 H438 H -0.04312 0.67587 0.11417
 C439 C 1.12661 0.12393 0.71140
 C440 C 1.12855 0.08547 0.71138
 C441 C 1.11446 0.07111 0.68377
 C442 C 1.09981 0.09660 0.65888
 C443 C 1.12893 0.12038 0.65066
 C444 C 1.14303 0.13475 0.67828
 C445 C 1.08920 0.13211 0.70716
 C446 C 1.07511 0.11775 0.67956
 C447 C 1.14166 0.13938 0.74120
 C448 C 1.15382 0.15201 0.76583
 C449 C 1.08443 0.08112 0.62929
 C450 C 1.07124 0.06828 0.60533
 H451 H 1.13999 0.07082 0.73130
 H452 H 1.11383 0.04414 0.68003
 H453 H 1.13771 0.12546 0.62539
 H454 H 1.16389 0.15215 0.67668
 H455 H 1.07501 0.14781 0.72434
 H456 H 1.04885 0.12114 0.67310
 C457 C 0.87749 -0.12004 0.70887
 C458 C 0.87263 -0.08185 0.70795
 C459 C 0.88710 -0.06689 0.68084
 C460 C 0.90500 -0.09159 0.65732
 C461 C 0.87829 -0.11767 0.64805
 C462 C 0.86382 -0.13263 0.67516
 C463 C 0.91559 -0.12539 0.70683
 C464 C 0.93006 -0.11043 0.67973
 C465 C 0.86200 -0.13613 0.73810
 C466 C 0.84939 -0.14929 0.76222
 C467 C 0.92072 -0.07551 0.62823
 C468 C 0.93407 -0.06227 0.60458
 H469 H 0.85903 -0.06780 0.72692
 H470 H 0.88590 -0.04002 0.67659
 H471 H 0.87134 -0.12384 0.62246
 H472 H 0.84447 -0.15162 0.67280
 H473 H 0.92996 -0.13966 0.72507
 H474 H 0.95681 -0.11189 0.67476
 C475 C 1.12225 -0.12402 0.28989
 C476 C 1.13552 -0.13760 0.32341
 C477 C 1.12142 -0.12264 0.35075
 C478 C 1.09545 -0.09559 0.34187
 C479 C 1.06991 -0.11326 0.31914
 C480 C 1.08401 -0.12822 0.29181
 C481 C 1.12815 -0.08603 0.29143
 C482 C 1.11406 -0.07108 0.31876
 C483 C 1.13741 -0.14003 0.26042
 C484 C 1.14979 -0.15303 0.23608
 C485 C 1.08025 -0.07935 0.37118
 C486 C 1.06759 -0.06562 0.39496
 H487 H 1.15432 -0.15722 0.32549
 H488 H 1.12814 -0.12945 0.37625
 H489 H 1.04312 -0.11397 0.32407
 H490 H 1.06929 -0.14173 0.27333
 H491 H 1.14216 -0.07209 0.27271
 H492 H 1.11600 -0.04433 0.32343
 C493 C 0.87966 0.12736 0.28965
 C494 C 0.86641 0.14108 0.32312
 C495 C 0.88129 0.12700 0.35051
 C496 C 0.90794 0.10058 0.34173
 C497 C 0.93266 0.11863 0.31837
 C498 C 0.91778 0.13272 0.29099
 C499 C 0.87491 0.08924 0.29190
 C500 C 0.88978 0.07517 0.31927
 C501 C 0.86361 0.14237 0.26012
 C502 C 0.85038 0.15440 0.23572
 C503 C 0.92393 0.08521 0.37109
 C504 C 0.93709 0.07204 0.39492
 H505 H 0.84707 0.16018 0.32512
 H506 H 0.87469 0.13402 0.37598
 H507 H 0.95947 0.12022 0.32294
 H508 H 0.93185 0.14637 0.27210
 H509 H 0.86110 0.07459 0.27359
 H510 H 0.88870 0.04845 0.32440
 C511 C 0.12323 0.28933 -0.12317
 C512 C 0.13687 0.32279 -0.13643
 C513 C 0.12208 0.35018 -0.12224
 C514 C 0.09512 0.34141 -0.09619
 C515 C 0.11287 0.31854 -0.07077
 C516 C 0.12765 0.29116 -0.08496
 C517 C 0.08518 0.29111 -0.12891
 C518 C 0.07040 0.31848 -0.11473
 C519 C 0.13908 0.25980 -0.13840
 C520 C 0.15198 0.23541 -0.15080
 C521 C 0.07907 0.37078 -0.08087
 C522 C 0.06551 0.39461 -0.06811
 H523 H 0.15641 0.32479 -0.15530
 H524 H 0.12895 0.37565 -0.12895
 H525 H 0.11375 0.32341 -0.04399
 H526 H 0.14120 0.27258 -0.07033
 H527 H 0.07108 0.27249 -0.14288
 H528 H 0.04364 0.32331 -0.11655
 C529 C -0.12631 0.28987 0.12101
 C530 C -0.14026 0.32336 0.13398
 C531 C -0.12641 0.35070 0.11887
 C532 C -0.09997 0.34186 0.09229
 C533 C -0.11792 0.31822 0.06779
 C534 C -0.13177 0.29088 0.08290
 C535 C -0.08817 0.29236 0.12570
 C536 C -0.07432 0.31968 0.11061
 C537 C -0.14109 0.26039 0.13727
 C538 C -0.15301 0.23603 0.15062
 C539 C -0.08484 0.37117 0.07606
 C540 C -0.07182 0.39494 0.06272
 H541 H -0.15935 0.32541 0.15331
 H542 H -0.13362 0.37617 0.12526
 H543 H -0.11960 0.32257 0.04096
 H544 H -0.14533 0.27182 0.06900
 H545 H -0.07333 0.27424 0.13965
 H546 H -0.04762 0.32496 0.11162
 C547 C -0.12271 0.71107 -0.12865
 C548 C -0.12863 0.70862 -0.09069
 C549 C -0.11443 0.68101 -0.07638
 C550 C -0.09569 0.65852 -0.10143
 C551 C -0.07024 0.68172 -0.11862
 C552 C -0.08445 0.70935 -0.13294
 C553 C -0.13581 0.67784 -0.14298
 C554 C -0.12161 0.65020 -0.12866
 C555 C -0.13801 0.74088 -0.14391
 C556 C -0.15058 0.76553 -0.15617
 C557 C -0.08039 0.62892 -0.08580
 C558 C -0.06770 0.60496 -0.07238
 H559 H -0.14273 0.72697 -0.07630
 H560 H -0.11637 0.67571 -0.04974
 H561 H -0.04343 0.67688 -0.11948
 H562 H -0.06981 0.72817 -0.14606
 H563 H -0.15459 0.67617 -0.16264
 H564 H -0.12820 0.62486 -0.13605
 C565 C 0.11823 0.70868 0.12368
 C566 C 0.07998 0.70767 0.12818
 C567 C 0.06523 0.68057 0.11352
 C568 C 0.09019 0.65715 0.09581
 C569 C 0.11613 0.64787 0.12274
 C570 C 0.13087 0.67497 0.13740
 C571 C 0.12388 0.70674 0.08565
 C572 C 0.10914 0.67966 0.07100
 C573 C 0.13414 0.73788 0.13935
 C574 C 0.14722 0.76197 0.15203
 C575 C 0.07436 0.62807 0.07988
 C576 C 0.06137 0.60442 0.06633
 H577 H 0.06573 0.72657 0.14168
 H578 H 0.03835 0.67626 0.11446
 H579 H 0.12235 0.62228 0.12969
 H580 H 0.14973 0.67260 0.15691
 H581 H 0.13819 0.72504 0.07146
 H582 H 0.11082 0.67476 0.04426
 C583 C 0.29046 1.12286 0.88081
 C584 C 0.32415 1.13633 0.86792
 C585 C 0.35133 1.12171 0.88270
 C586 C 0.34214 1.09508 0.90892
 C587 C 0.31947 1.07017 0.89031
 C588 C 0.29231 1.08478 0.87553
 C589 C 0.29169 1.12772 0.91899
 C590 C 0.31886 1.11311 0.93378
 C591 C 0.26117 1.13850 0.86488
 C592 C 0.23702 1.15118 0.85179
 C593 C 0.37131 1.07920 0.92480
 C594 C 0.39505 1.06574 0.93785
 H595 H 0.32646 1.15564 0.84886
 H596 H 0.37692 1.12850 0.87632
 H597 H 0.32432 1.04341 0.88888
 H598 H 0.27389 1.07053 0.86144
 H599 H 0.27287 1.14142 0.93316
 H600 H 0.32333 1.11428 0.96062
 C601 C 0.28935 0.87278 1.12387
 C602 C 0.29170 0.91081 1.12918
 C603 C 0.31929 0.92491 1.11481
 C604 C 0.34186 0.89959 1.09652
 C605 C 0.31868 0.88201 1.07133
 C606 C 0.29107 0.86790 1.08571
 C607 C 0.32264 0.85868 1.13725
 C608 C 0.35026 0.87278 1.12286
 C609 C 0.25954 0.85773 1.13933
 C610 C 0.23490 0.84560 1.15197
 C611 C 0.37144 0.91500 1.08101
 C612 C 0.39535 0.92823 1.06812
 H613 H 0.27329 0.92541 1.14301
 H614 H 0.32452 0.95158 1.11633
 H615 H 0.32353 0.88073 1.04455
 H616 H 0.27227 0.85455 1.07125
 H617 H 0.32437 0.83932 1.15632
 H618 H 0.37565 0.86551 1.12961
 C619 C 0.71025 1.12048 1.12620
 C620 C 0.70765 1.12555 1.08813
 C621 C 0.68037 1.11049 1.07415
 C622 C 0.65835 1.09182 1.09961
 C623 C 0.64939 1.11809 1.12630
 C624 C 0.67669 1.13316 1.14029
 C625 C 0.70950 1.08232 1.13128
 C626 C 0.68220 1.06725 1.11730
 C627 C 0.73968 1.13673 1.14111
 C628 C 0.76398 1.15009 1.15313
 C629 C 0.62908 1.07565 1.08435
 C630 C 0.60530 1.06240 1.07125
 H631 H 0.72565 1.13972 1.07342
 H632 H 0.67502 1.11176 1.04748
 H633 H 0.62387 1.12429 1.13359
 H634 H 0.67456 1.15228 1.15956
 H635 H 0.72870 1.06837 1.14468
 H636 H 0.67802 1.04039 1.11871
 C637 C 0.71059 0.87749 0.87535
 C638 C 0.70886 0.87135 0.91332
 C639 C 0.68152 0.88548 0.92823
 C640 C 0.65856 0.90437 0.90372
 C641 C 0.64969 0.87865 0.87650
 C642 C 0.67705 0.86451 0.86158
 C643 C 0.70883 0.91574 0.87132
 C644 C 0.68148 0.92988 0.88624
 C645 C 0.74009 0.86228 0.85939
 C646 C 0.76445 0.84986 0.84644
 C647 C 0.62923 0.91960 0.91992
 C648 C 0.60542 0.93225 0.93363
 H649 H 0.72748 0.85716 0.92727
 H650 H 0.67672 0.88340 0.95496
 H651 H 0.62418 0.87212 0.86956
 H652 H 0.67498 0.84587 0.84185
 H653 H 0.72743 0.93043 0.85793
 H654 H 0.67665 0.95668 0.88563
   
