data_POSCAR
  _audit_creation_date              2014-09-24
  _audit_creation_method            'ToBaCCo'
  _symmetry_space_group_name_H-M    'P1'
  _symmetry_Int_Tables_number       1
  _symmetry_cell_setting            triclinic
  loop_
  _symmetry_equiv_pos_as_xyz
 x,y,z
_cell_length_a 42.1933
_cell_length_b 42.1508
_cell_length_c 15.2177
_cell_angle_alpha 89.954700
_cell_angle_beta 90.022200
_cell_angle_gamma 120.011500
loop_
  _atom_site_label
  _atom_site_type_symbol
  _atom_site_fract_x
  _atom_site_fract_y
  _atom_site_fract_z
O1 O 0.19486 0.44895 0.41537
 O2 O 0.25675 0.44916 0.58724
 O3 O 0.19478 0.44917 0.58635
 O4 O 0.25715 0.44952 0.41592
 O5 O 0.28686 0.51000 0.41601
 O6 O 0.22519 0.50965 0.58634
 O7 O 0.28748 0.50952 0.58463
 O8 O 0.22456 0.50941 0.41728
 Cu9 Cu 0.22288 0.44312 0.50124
 Cu10 Cu 0.25900 0.51568 0.50121
 C11 C 0.19867 0.47923 0.38853
 C12 C 0.28338 0.47941 0.61369
 C13 C 0.19895 0.47947 0.61401
 C14 C 0.28308 0.47992 0.38811
 O15 O 0.55211 -0.25444 0.41427
 O16 O 0.55063 -0.19282 0.58444
 O17 O 0.55192 -0.25421 0.58592
 O18 O 0.55040 -0.19337 0.41361
 O19 O 0.49000 -0.22485 0.41437
 O20 O 0.49162 -0.28571 0.58466
 O21 O 0.49023 -0.22406 0.58339
 O22 O 0.49182 -0.28615 0.41611
 Cu23 Cu 0.55732 -0.22061 0.49961
 Cu24 Cu 0.48490 -0.25831 0.49971
 C25 C 0.52218 -0.28138 0.38730
 C26 C 0.52010 -0.19743 0.61132
 C27 C 0.52197 -0.28097 0.61340
 C28 C 0.51983 -0.19833 0.38601
 O29 O 1.19237 0.74379 0.58385
 O30 O 1.25370 0.80614 0.41198
 O31 O 1.19238 0.74363 0.41289
 O32 O 1.25419 0.80627 0.58334
 O33 O 1.28469 0.77633 0.58321
 O34 O 1.22357 0.71440 0.41295
 O35 O 1.28514 0.77727 0.41450
 O36 O 1.22285 0.71385 0.58191
 Cu37 Cu 1.22008 0.77796 0.49813
 Cu38 Cu 1.25713 0.74251 0.49813
 C39 C 1.19662 0.71758 0.61048
 C40 C 1.28052 0.80293 0.38526
 C41 C 1.19710 0.71787 0.38511
 C42 C 1.28047 0.80237 0.61100
 O43 O 0.80692 0.55040 0.41579
 O44 O 0.74538 0.55163 0.58645
 O45 O 0.80654 0.55008 0.58671
 O46 O 0.74534 0.55127 0.41509
 O47 O 0.71469 0.49080 0.41506
 O48 O 0.77503 0.48961 0.58694
 O49 O 0.71357 0.49129 0.58377
 O50 O 0.77629 0.48993 0.41801
 Cu51 Cu 0.77915 0.55692 0.50099
 Cu52 Cu 0.74179 0.48438 0.50107
 C53 C 0.80261 0.51989 0.38941
 C54 C 0.71829 0.52165 0.61272
 C55 C 0.80160 0.51952 0.61471
 C56 C 0.71914 0.52112 0.38699
 O57 O 0.44966 0.25667 0.41543
 O58 O 0.44855 0.19433 0.58756
 O59 O 0.44989 0.25696 0.58634
 O60 O 0.44890 0.19416 0.41621
 O61 O 0.50931 0.22396 0.41641
 O62 O 0.51030 0.28613 0.58631
 O63 O 0.50884 0.22308 0.58514
 O64 O 0.51006 0.28650 0.41737
 Cu65 Cu 0.44318 0.22254 0.50132
 Cu66 Cu 0.51565 0.25786 0.50137
 C67 C 0.48012 0.28282 0.38870
 C68 C 0.47855 0.19744 0.61432
 C69 C 0.48037 0.28274 0.61397
 C70 C 0.47904 0.19799 0.38859
 O71 O 0.74355 0.19206 0.41661
 O72 O 0.80639 0.25373 0.58725
 O73 O 0.74376 0.19251 0.58756
 O74 O 0.80611 0.25383 0.41583
 O75 O 0.77629 0.28445 0.41573
 O76 O 0.71484 0.22402 0.58762
 O77 O 0.77782 0.28545 0.58450
 O78 O 0.71375 0.22269 0.41874
 Cu79 Cu 0.77793 0.21993 0.50170
 Cu80 Cu 0.74276 0.25726 0.50165
 C81 C 0.71731 0.19631 0.39034
 C82 C 0.80341 0.28074 0.61366
 C83 C 0.71820 0.19747 0.61562
 C84 C 0.80219 0.28008 0.38778
 N85 N 1.03889 0.46128 0.09446
 N86 N 1.06615 0.45493 0.10893
 N87 N 0.96180 0.44492 0.15423
 N88 N 0.93438 0.42743 0.20944
 N89 N 0.96199 0.42233 0.09516
 N90 N 0.93488 0.38862 0.10943
 N91 N 1.03888 0.48396 0.15355
 N92 N 1.06629 0.49406 0.20890
 C93 C 1.08311 0.47585 0.18036
 C94 C 0.91781 0.39239 0.18079
 N95 N 0.96119 0.53533 0.09506
 N96 N 0.93417 0.54196 0.11005
 N97 N 1.03840 0.55168 0.15331
 N98 N 1.06587 0.56933 0.20830
 N99 N 1.03807 0.57412 0.09396
 N100 N 1.06511 0.60789 0.10780
 N101 N 0.96127 0.51270 0.15423
 N102 N 0.93413 0.50292 0.21029
 Mn103 Mn 1.00008 0.49830 0.15470
 C104 C 0.91740 0.52128 0.18195
 C105 C 1.08232 0.60431 0.17916
 N106 N 0.96157 0.42204 -0.09496
 N107 N 0.93477 0.38818 -0.10926
 N108 N 1.03816 0.48350 -0.15512
 N109 N 1.06560 0.49373 -0.21043
 N110 N 1.03842 0.46105 -0.09567
 N111 N 1.06584 0.45496 -0.10976
 N112 N 0.96095 0.44451 -0.15386
 N113 N 0.93343 0.42678 -0.20877
 Mn114 Mn 1.00023 0.44124 -0.00025
 C115 C 0.91733 0.39174 -0.18019
 C116 C 1.08264 0.47577 -0.18142
 N117 N 1.03770 0.57393 -0.09610
 N118 N 1.06467 0.60767 -0.11089
 N119 N 0.96060 0.51238 -0.15402
 N120 N 0.93306 0.50236 -0.20895
 N121 N 0.96083 0.53514 -0.09483
 N122 N 0.93366 0.54162 -0.10867
 N123 N 1.03774 0.55133 -0.15534
 N124 N 1.06494 0.56885 -0.21118
 Mn125 Mn 0.99946 0.55507 -0.00049
 Mn126 Mn 0.99934 0.49792 -0.15550
 Cl127 Cl 0.99978 0.49813 -0.00040
 C128 C 1.08155 0.60393 -0.18273
 C129 C 0.91647 0.52074 -0.17986
 N130 N 0.44860 0.48734 0.15336
 N131 N 0.43108 0.49711 0.20885
 N132 N 0.46463 0.42621 0.09439
 N133 N 0.45798 0.39250 0.10920
 N134 N 0.48726 0.44885 0.15360
 N135 N 0.49704 0.43138 0.20942
 N136 N 0.42603 0.46451 0.09436
 N137 N 0.39231 0.45771 0.10890
 C138 C 0.39605 0.47851 0.18033
 C139 C 0.47866 0.39630 0.18097
 N140 N 0.48691 0.44885 -0.15528
 N141 N 0.49685 0.43139 -0.21060
 N142 N 0.42583 0.46446 -0.09553
 N143 N 0.39200 0.45734 -0.11001
 N144 N 0.44827 0.48747 -0.15455
 N145 N 0.43051 0.49715 -0.20980
 N146 N 0.46446 0.42628 -0.09568
 N147 N 0.45806 0.39263 -0.10965
 Mn148 Mn 0.44482 0.44493 -0.00062
 C149 C 0.47870 0.39640 -0.18137
 C150 C 0.39550 0.47821 -0.18116
 N151 N 0.55509 0.51689 0.15316
 N152 N 0.57246 0.50679 0.20831
 N153 N 0.53944 0.57808 0.09412
 N154 N 0.54636 0.61188 0.10881
 N155 N 0.51650 0.55548 0.15300
 N156 N 0.50667 0.57305 0.20832
 N157 N 0.57767 0.53947 0.09375
 N158 N 0.61127 0.54581 0.10776
 Mn159 Mn 0.50186 0.50216 0.15417
 C160 C 0.60742 0.52497 0.17928
 C161 C 0.52544 0.60813 0.17996
 N162 N 0.51635 0.55557 -0.15475
 N163 N 0.50638 0.57320 -0.20959
 N164 N 0.57757 0.53955 -0.09644
 N165 N 0.61125 0.54621 -0.11109
 N166 N 0.55493 0.51682 -0.15554
 N167 N 0.57236 0.50684 -0.21091
 N168 N 0.53933 0.57809 -0.09586
 N169 N 0.54616 0.61187 -0.11002
 Mn170 Mn 0.50160 0.50220 -0.15600
 Mn171 Mn 0.55894 0.55921 -0.00111
 Cl172 Cl 0.50180 0.50212 -0.00092
 C173 C 0.52514 0.60823 -0.18086
 C174 C 0.60741 0.52534 -0.18242
 N175 N 0.42190 -0.03895 0.09393
 N176 N 0.38806 -0.06580 0.10793
 N177 N 0.48303 0.03759 0.15534
 N178 N 0.49309 0.06488 0.21105
 N179 N 0.46062 0.03794 0.09594
 N180 N 0.45441 0.06527 0.11046
 N181 N 0.44426 -0.03966 0.15294
 N182 N 0.42647 -0.06730 0.20761
 C183 C 0.39151 -0.08338 0.17874
 C184 C 0.47508 0.08191 0.18234
 N185 N 0.57362 0.03755 0.09662
 N186 N 0.60730 0.06449 0.11189
 N187 N 0.51211 -0.03980 0.15333
 N188 N 0.50213 -0.06741 0.20814
 N189 N 0.53495 -0.03941 0.09420
 N190 N 0.54155 -0.06654 0.10799
 N191 N 0.55092 0.03742 0.15580
 N192 N 0.56834 0.06446 0.21213
 Mn193 Mn 0.49757 -0.00112 0.15526
 C194 C 0.60345 0.08116 0.18399
 C195 C 0.52061 -0.08389 0.17906
 N196 N 0.46114 0.03898 -0.09413
 N197 N 0.45432 0.06594 -0.10837
 N198 N 0.44526 -0.03777 -0.15533
 N199 N 0.42793 -0.06502 -0.21110
 N200 N 0.42255 -0.03792 -0.09613
 N201 N 0.38895 -0.06508 -0.11084
 N202 N 0.48416 0.03950 -0.15296
 N203 N 0.49416 0.06714 -0.20776
 Mn204 Mn 0.44112 0.00001 -0.00010
 C205 C 0.47542 0.08341 -0.17914
 C206 C 0.39288 -0.08182 -0.18263
 N207 N 0.53550 -0.03842 -0.09575
 N208 N 0.54200 -0.06555 -0.11069
 N209 N 0.55188 0.03907 -0.15269
 N210 N 0.56964 0.06670 -0.20733
 N211 N 0.57419 0.03852 -0.09336
 N212 N 0.60797 0.06555 -0.10687
 N213 N 0.51306 -0.03815 -0.15513
 N214 N 0.50329 -0.06528 -0.21129
 Mn215 Mn 0.55500 -0.00044 0.00043
 Mn216 Mn 0.49859 0.00067 -0.15495
 Cl217 Cl 0.49807 -0.00022 0.00016
 C218 C 0.52148 -0.08218 -0.18282
 C219 C 0.60455 0.08300 -0.17798
 C220 C 1.16624 0.50974 0.32542
 C221 C 1.17170 0.47949 0.32699
 C222 C 1.14935 0.44885 0.27447
 C223 C 1.12149 0.44821 0.22297
 C224 C 1.11502 0.47779 0.22515
 C225 C 1.13793 0.50871 0.27582
 H226 H 1.18287 0.53363 0.36554
 H227 H 1.15303 0.42520 0.27443
 H228 H 1.10405 0.42403 0.18453
 H229 H 1.13357 0.53193 0.27822
 C230 C 0.49024 0.65975 0.31146
 C231 C 0.52256 0.69317 0.32821
 C232 C 0.55541 0.69933 0.28875
 C233 C 0.55603 0.67238 0.23625
 C234 C 0.52414 0.63841 0.22460
 C235 C 0.49123 0.63245 0.26172
 H236 H 0.46437 0.65384 0.34025
 H237 H 0.58080 0.72475 0.29937
 H238 H 0.58173 0.67740 0.20826
 H239 H 0.46629 0.60640 0.25312
 C240 C 0.30008 -0.14453 0.28634
 C241 C 0.30604 -0.17136 0.32605
 C242 C 0.33937 -0.17043 0.30960
 C243 C 0.36681 -0.14214 0.26004
 C244 C 0.36107 -0.11502 0.22281
 C245 C 0.32717 -0.11696 0.23404
 H246 H 0.27474 -0.14442 0.29671
 H247 H 0.34513 -0.19049 0.33857
 H248 H 0.39279 -0.14115 0.25176
 H249 H 0.32232 -0.09615 0.20596
 C250 C 0.83485 0.48878 0.32871
 C251 C 0.82949 0.51909 0.32856
 C252 C 0.85181 0.54933 0.27485
 C253 C 0.87948 0.54948 0.22365
 C254 C 0.88582 0.51983 0.22731
 C255 C 0.86300 0.48933 0.27939
 H256 H 0.81824 0.46520 0.36985
 H257 H 0.84821 0.57302 0.27351
 H258 H 0.89684 0.57334 0.18410
 H259 H 0.86728 0.46607 0.28296
 C260 C 0.51127 0.34608 0.32704
 C261 C 0.48091 0.31044 0.32747
 C262 C 0.45060 0.30257 0.27420
 C263 C 0.45043 0.33012 0.22293
 C264 C 0.48013 0.36609 0.22611
 C265 C 0.51070 0.37370 0.27768
 H266 H 0.53491 0.35302 0.36784
 H267 H 0.42686 0.27530 0.27331
 H268 H 0.42650 0.32367 0.18378
 H269 H 0.53401 0.40122 0.28088
 C270 C 0.69726 0.14690 0.27619
 C271 C 0.68948 0.16927 0.32991
 C272 C 0.65380 0.16383 0.33054
 C273 C 0.62609 0.13557 0.28160
 C274 C 0.63365 0.11273 0.22939
 C275 C 0.66962 0.11912 0.22534
 H276 H 0.72455 0.15055 0.27450
 H277 H 0.64693 0.18047 0.37174
 H278 H 0.59857 0.13127 0.28548
 H279 H 0.67604 0.10176 0.18567
 C280 C 0.51059 0.17051 -0.31023
 C281 C 0.47828 0.17164 -0.32655
 C282 C 0.44548 0.14491 -0.28682
 C283 C 0.44489 0.11725 -0.23458
 C284 C 0.47675 0.11511 -0.22343
 C285 C 0.50963 0.14213 -0.26074
 H286 H 0.53642 0.19049 -0.33924
 H287 H 0.42009 0.14494 -0.29709
 H288 H 0.41921 0.09653 -0.20644
 H289 H 0.53455 0.14099 -0.25253
 C290 C 0.65895 0.48981 -0.31346
 C291 C 0.69263 0.52202 -0.32892
 C292 C 0.69886 0.55486 -0.28908
 C293 C 0.67179 0.55558 -0.23735
 C294 C 0.63761 0.52384 -0.22690
 C295 C 0.63152 0.49093 -0.26452
 H296 H 0.65296 0.46396 -0.34264
 H297 H 0.72446 0.58017 -0.29872
 H298 H 0.67694 0.58129 -0.20893
 H299 H 0.60532 0.46609 -0.25682
 C300 C 0.83039 0.33981 -0.31130
 C301 C 0.82927 0.30633 -0.32750
 C302 C 0.85598 0.30025 -0.28775
 C303 C 0.88360 0.32732 -0.23554
 C304 C 0.88570 0.36133 -0.22443
 C305 C 0.85872 0.36722 -0.26182
 H306 H 0.81043 0.34567 -0.34031
 H307 H 0.85595 0.27480 -0.29793
 H308 H 0.90429 0.32235 -0.20736
 H309 H 0.85983 0.39329 -0.25366
 C310 C 0.48901 -0.16499 -0.32901
 C311 C 0.51920 -0.17050 -0.32814
 C312 C 0.54933 -0.14816 -0.27431
 C313 C 0.54950 -0.12035 -0.22363
 C314 C 0.51998 -0.11385 -0.22797
 C315 C 0.48959 -0.13666 -0.28025
 H316 H 0.46553 -0.18160 -0.37035
 H317 H 0.57294 -0.15187 -0.27246
 H318 H 0.57327 -0.10300 -0.18390
 H319 H 0.46643 -0.13228 -0.28434
 C320 C 0.34259 0.51224 -0.31221
 C321 C 0.30928 0.47963 -0.32772
 C322 C 0.30373 0.44702 -0.28783
 C323 C 0.33112 0.44691 -0.23608
 C324 C 0.36495 0.47906 -0.22565
 C325 C 0.37036 0.51175 -0.26326
 H326 H 0.34806 0.53794 -0.34143
 H327 H 0.27843 0.42141 -0.29750
 H328 H 0.32650 0.42137 -0.20766
 H329 H 0.39628 0.53690 -0.25555
 C330 C 1.16445 0.65426 -0.32823
 C331 C 1.16972 0.68991 -0.32854
 C332 C 1.14722 0.69774 -0.27542
 C333 C 1.11946 0.67015 -0.22440
 C334 C 1.11321 0.63417 -0.22769
 C335 C 1.13622 0.62660 -0.27912
 H336 H 1.18119 0.64735 -0.36892
 H337 H 1.15074 0.72501 -0.27445
 H338 H 1.10195 0.67656 -0.18533
 H339 H 1.13203 0.59908 -0.28238
 C340 C 0.83305 0.48794 -0.32310
 C341 C 0.82819 0.51856 -0.32393
 C342 C 0.85098 0.54902 -0.27150
 C343 C 0.87875 0.54914 -0.22084
 C344 C 0.88468 0.51922 -0.22390
 C345 C 0.86130 0.48845 -0.27438
 H346 H 0.81605 0.46419 -0.36333
 H347 H 0.84775 0.57294 -0.27100
 H348 H 0.89656 0.57320 -0.18243
 H349 H 0.86527 0.46499 -0.27735
 C350 C 0.51161 0.34599 -0.32508
 C351 C 0.48122 0.31038 -0.32515
 C352 C 0.45086 0.30258 -0.27226
 C353 C 0.45063 0.33022 -0.22180
 C354 C 0.48032 0.36618 -0.22551
 C355 C 0.51098 0.37372 -0.27655
 H356 H 0.53527 0.35283 -0.36567
 H357 H 0.42711 0.27532 -0.27119
 H358 H 0.42666 0.32387 -0.18296
 H359 H 0.53427 0.40124 -0.28002
 C360 C 0.69826 0.14791 -0.27075
 C361 C 0.69075 0.17098 -0.32262
 C362 C 0.65549 0.16657 -0.32074
 C363 C 0.62777 0.13846 -0.27163
 C364 C 0.63496 0.11477 -0.22182
 C365 C 0.67062 0.12026 -0.21970
 H366 H 0.72525 0.15080 -0.27103
 H367 H 0.64885 0.18380 -0.36044
 H368 H 0.60048 0.13482 -0.27387
 H369 H 0.67669 0.10218 -0.18185
 C370 C 1.16624 0.50991 -0.32473
 C371 C 1.17188 0.47978 -0.32511
 C372 C 1.14949 0.44917 -0.27256
 C373 C 1.12137 0.44844 -0.22212
 C374 C 1.11469 0.47787 -0.22552
 C375 C 1.13764 0.50877 -0.27624
 H376 H 1.18291 0.53375 -0.36504
 H377 H 1.15332 0.42561 -0.27172
 H378 H 1.10390 0.42429 -0.18355
 H379 H 1.13310 0.53187 -0.27949
 C380 C 0.48991 0.66027 -0.31040
 C381 C 0.52229 0.69363 -0.32730
 C382 C 0.55516 0.69964 -0.28830
 C383 C 0.55576 0.67253 -0.23632
 C384 C 0.52383 0.63860 -0.22480
 C385 C 0.49087 0.63282 -0.26121
 H386 H 0.46401 0.65449 -0.33882
 H387 H 0.58059 0.72501 -0.29905
 H388 H 0.58149 0.67740 -0.20876
 H389 H 0.46590 0.60680 -0.25256
 C390 C 0.29959 -0.14797 -0.27595
 C391 C 0.30773 -0.17055 -0.32789
 C392 C 0.34336 -0.16521 -0.32640
 C393 C 0.37075 -0.13680 -0.27739
 C394 C 0.36289 -0.11368 -0.22724
 C395 C 0.32693 -0.12000 -0.22497
 H396 H 0.27232 -0.15156 -0.27594
 H397 H 0.35049 -0.18203 -0.36617
 H398 H 0.39828 -0.13253 -0.27976
 H399 H 0.32034 -0.10238 -0.18684
 C400 C 0.54917 -0.14906 0.27169
 C401 C 0.51876 -0.17186 0.32427
 C402 C 0.48807 -0.16718 0.32304
 C403 C 0.48846 -0.13907 0.27381
 C404 C 0.51919 -0.11565 0.22325
 C405 C 0.54918 -0.12142 0.22057
 H406 H 0.57315 -0.15216 0.27146
 H407 H 0.46434 -0.18420 0.36331
 H408 H 0.46494 -0.13521 0.27651
 H409 H 0.57321 -0.10357 0.18213
 C410 C 0.34581 0.51132 0.32453
 C411 C 0.31043 0.48059 0.32658
 C412 C 0.30265 0.44995 0.27469
 C413 C 0.33010 0.44981 0.22328
 C414 C 0.36585 0.47989 0.22505
 C415 C 0.37333 0.51080 0.27507
 H416 H 0.35266 0.53523 0.36421
 H417 H 0.27557 0.42595 0.27508
 H418 H 0.32381 0.42564 0.18527
 H419 H 0.40069 0.53438 0.27705
 C420 C 1.16568 0.65491 0.32248
 C421 C 1.17044 0.69036 0.32377
 C422 C 1.14761 0.69805 0.27154
 C423 C 1.11989 0.67045 0.22063
 C424 C 1.11408 0.63463 0.22322
 C425 C 1.13750 0.62723 0.27351
 H426 H 1.18271 0.64814 0.36248
 H427 H 1.15077 0.72518 0.27137
 H428 H 1.10203 0.67669 0.18241
 H429 H 1.13361 0.59982 0.27613
 C430 C 0.50928 0.16532 0.32616
 C431 C 0.47912 0.17087 0.32747
 C432 C 0.44841 0.14845 0.27534
 C433 C 0.44764 0.12042 0.22438
 C434 C 0.47713 0.11387 0.22684
 C435 C 0.50811 0.13683 0.27715
 H436 H 0.53322 0.18202 0.36607
 H437 H 0.42483 0.15222 0.27520
 H438 H 0.42343 0.10292 0.18612
 H439 H 0.53126 0.13239 0.27967
 C440 C 0.65667 0.49058 0.32214
 C441 C 0.69219 0.52105 0.32502
 C442 C 0.70045 0.55201 0.27375
 C443 C 0.67329 0.55276 0.22231
 C444 C 0.63739 0.52295 0.22343
 C445 C 0.62945 0.49170 0.27266
 H446 H 0.64944 0.46643 0.36130
 H447 H 0.72766 0.57583 0.27479
 H448 H 0.67992 0.57718 0.18491
 H449 H 0.60196 0.46831 0.27413
 C450 C 0.85195 0.29909 0.27502
 C451 C 0.82914 0.30719 0.32608
 C452 C 0.83413 0.34272 0.32329
 C453 C 0.86248 0.37008 0.27405
 C454 C 0.88589 0.36230 0.22497
 C455 C 0.87988 0.32640 0.22381
 H456 H 0.84863 0.27190 0.27600
 H457 H 0.81712 0.34983 0.36230
 H458 H 0.86651 0.39755 0.27555
 H459 H 0.89774 0.31988 0.18652
   
