data_POSCAR
  _audit_creation_date              2014-09-24
  _audit_creation_method            'ToBaCCo'
  _symmetry_space_group_name_H-M    'P1'
  _symmetry_Int_Tables_number       1
  _symmetry_cell_setting            triclinic
  loop_
  _symmetry_equiv_pos_as_xyz
 x,y,z
_cell_length_a 41.1738
_cell_length_b 28.8671
_cell_length_c 18.6323
_cell_angle_alpha 90.053100
_cell_angle_beta 89.894000
_cell_angle_gamma 90.045200
loop_
  _atom_site_label
  _atom_site_type_symbol
  _atom_site_fract_x
  _atom_site_fract_y
  _atom_site_fract_z
O1 O 0.70881 0.24081 0.43141
 O2 O 0.76310 0.19434 0.57066
 O3 O 0.70876 0.24105 0.57069
 O4 O 0.76315 0.19425 0.43138
 O5 O 0.79078 0.25973 0.43124
 O6 O 0.73638 0.30646 0.57056
 O7 O 0.79075 0.25980 0.57052
 O8 O 0.73644 0.30629 0.43129
 Cu9 Cu 0.73319 0.21106 0.50108
 Cu10 Cu 0.76635 0.28962 0.50092
 C11 C 0.71313 0.28167 0.40798
 C12 C 0.78645 0.21891 0.59388
 C13 C 0.71296 0.28202 0.59402
 C14 C 0.78648 0.21881 0.40794
 O15 O 0.23633 0.80640 0.57064
 O16 O 0.29083 0.75946 0.43159
 O17 O 0.23660 0.80627 0.43137
 O18 O 0.29061 0.75954 0.57087
 O19 O 0.26284 0.69418 0.57080
 O20 O 0.20883 0.74090 0.43130
 O21 O 0.26307 0.69410 0.43153
 O22 O 0.20859 0.74110 0.57058
 Cu23 Cu 0.26637 0.78946 0.50116
 Cu24 Cu 0.23305 0.71103 0.50108
 C25 C 0.21283 0.78206 0.59396
 C26 C 0.28648 0.71857 0.40823
 C27 C 0.21327 0.78176 0.40793
 C28 C 0.28621 0.71866 0.59416
 O29 O 0.29037 0.24014 -0.43115
 O30 O 0.23588 0.19345 -0.57008
 O31 O 0.29024 0.24011 -0.57043
 O32 O 0.23600 0.19343 -0.43081
 O33 O 0.20840 0.25878 -0.43048
 O34 O 0.26262 0.30554 -0.57011
 O35 O 0.20828 0.25881 -0.56976
 O36 O 0.26274 0.30556 -0.43082
 Cu37 Cu 0.26588 0.21024 -0.50064
 Cu38 Cu 0.23275 0.28871 -0.50025
 C39 C 0.28610 0.28104 -0.40772
 C40 C 0.21247 0.21789 -0.59332
 C41 C 0.28593 0.28101 -0.59367
 C42 C 0.21262 0.21785 -0.40716
 O43 O -0.23687 0.80599 -0.56828
 O44 O -0.29141 0.75895 -0.42940
 O45 O -0.23710 0.80586 -0.42900
 O46 O -0.29116 0.75917 -0.56868
 O47 O -0.26346 0.69381 -0.56882
 O48 O -0.20941 0.74050 -0.42915
 O49 O -0.26373 0.69365 -0.42955
 O50 O -0.20917 0.74062 -0.56843
 Cu51 Cu -0.26691 0.78903 -0.49880
 Cu52 Cu -0.23367 0.71060 -0.49898
 C53 C -0.21348 0.78153 -0.59164
 C54 C -0.28720 0.71799 -0.40615
 C55 C -0.21377 0.78137 -0.40571
 C56 C -0.28677 0.71831 -0.59217
 N57 N 0.03457 1.08252 -0.07759
 N58 N 0.05798 1.11284 -0.08982
 N59 N -0.03378 1.05018 -0.12690
 N60 N -0.05711 1.05754 -0.17397
 N61 N -0.03378 1.08257 -0.07733
 N62 N -0.05715 1.11292 -0.08933
 N63 N 0.03449 1.05014 -0.12718
 N64 N 0.05781 1.05748 -0.17449
 C65 C 0.07231 1.09641 -0.15005
 C66 C -0.07154 1.09650 -0.14942
 N67 N -0.03391 0.91810 -0.07730
 N68 N -0.05737 0.88783 -0.08917
 N69 N 0.03442 0.95039 -0.12721
 N70 N 0.05773 0.94296 -0.17453
 N71 N 0.03444 0.91807 -0.07763
 N72 N 0.05780 0.88770 -0.08988
 N73 N -0.03386 0.95042 -0.12688
 N74 N -0.05725 0.94309 -0.17385
 Mn75 Mn 0.00032 1.00028 -0.12777
 C76 C -0.07176 0.90421 -0.14920
 C77 C 0.07216 0.90403 -0.15012
 N78 N -0.03378 1.08264 0.07748
 N79 N -0.05719 1.11294 0.08958
 N80 N 0.03449 1.05028 0.12681
 N81 N 0.05776 1.05772 0.17405
 N82 N 0.03458 1.08262 0.07725
 N83 N 0.05794 1.11302 0.08946
 N84 N -0.03377 1.05031 0.12704
 N85 N -0.05715 1.05765 0.17421
 Mn86 Mn 0.00040 1.08313 -0.00005
 C87 C -0.07160 1.09654 0.14973
 C88 C 0.07224 1.09666 0.14963
 N89 N 0.03444 0.91817 0.07719
 N90 N 0.05779 0.88782 0.08924
 N91 N -0.03386 0.95057 0.12705
 N92 N -0.05716 0.94321 0.17439
 N93 N -0.03391 0.91818 0.07749
 N94 N -0.05730 0.88782 0.08977
 N95 N 0.03441 0.95055 0.12678
 N96 N 0.05772 0.94319 0.17389
 Mn97 Mn 0.00027 0.91759 -0.00006
 Mn98 Mn 0.00032 1.00043 0.12764
 Cl99 Cl 0.00033 1.00036 -0.00006
 C100 C 0.07215 0.90424 0.14935
 C101 C -0.07164 0.90425 0.15000
 N102 N 0.53432 0.58197 -0.07801
 N103 N 0.55770 0.61236 -0.09016
 N104 N 0.46602 0.54960 -0.12758
 N105 N 0.44265 0.55691 -0.17458
 N106 N 0.46596 0.58193 -0.07792
 N107 N 0.44253 0.61219 -0.08978
 N108 N 0.53429 0.54963 -0.12765
 N109 N 0.55762 0.55706 -0.17491
 C110 C 0.57207 0.59601 -0.15040
 C111 C 0.42816 0.59578 -0.14988
 N112 N 0.46590 0.41747 -0.07830
 N113 N 0.44250 0.38713 -0.09045
 N114 N 0.53426 0.44987 -0.12783
 N115 N 0.55765 0.44255 -0.17498
 N116 N 0.53426 0.41752 -0.07830
 N117 N 0.55767 0.38723 -0.09041
 N118 N 0.46598 0.44984 -0.12781
 N119 N 0.44268 0.44248 -0.17498
 Mn120 Mn 0.50014 0.49973 -0.12844
 C121 C 0.42818 0.40354 -0.15056
 C122 C 0.57210 0.40365 -0.15051
 N123 N 0.46585 0.58191 0.07688
 N124 N 0.44250 0.61229 0.08917
 N125 N 0.53410 0.54955 0.12633
 N126 N 0.55740 0.55691 0.17351
 N127 N 0.53420 0.58191 0.07681
 N128 N 0.55760 0.61224 0.08896
 N129 N 0.46583 0.54953 0.12636
 N130 N 0.44251 0.55692 0.17366
 Mn131 Mn 0.50008 0.58247 -0.00056
 C132 C 0.42811 0.59588 0.14933
 C133 C 0.57190 0.59583 0.14908
 N134 N 0.53415 0.41747 0.07653
 N135 N 0.55749 0.38711 0.08869
 N136 N 0.46580 0.44979 0.12613
 N137 N 0.44239 0.44244 0.17323
 N138 N 0.46579 0.41744 0.07650
 N139 N 0.44234 0.38714 0.08847
 N140 N 0.53406 0.44982 0.12615
 N141 N 0.55731 0.44244 0.17340
 Mn142 Mn 0.50003 0.41693 -0.00090
 Mn143 Mn 0.49995 0.49967 0.12696
 Cl144 Cl 0.50005 0.49970 -0.00074
 C145 C 0.57178 0.40350 0.14892
 C146 C 0.42792 0.40354 0.14861
 C147 C 0.35509 0.34053 0.26041
 C148 C 0.32822 0.36637 0.28307
 C149 C 0.30518 0.34661 0.32899
 C150 C 0.30881 0.30070 0.35305
 C151 C 0.33548 0.27463 0.32847
 C152 C 0.35848 0.29449 0.28254
 C153 C 0.38021 0.36215 0.21833
 C154 C 0.40174 0.38077 0.18529
 H155 H 0.32544 0.40212 0.26650
 H156 H 0.28495 0.36762 0.34691
 H157 H 0.33899 0.23923 0.34598
 H158 H 0.37927 0.27424 0.26557
 C159 C -0.14424 0.84119 0.26262
 C160 C -0.17116 0.86698 0.28519
 C161 C -0.19419 0.84719 0.33112
 C162 C -0.19053 0.80131 0.35527
 C163 C -0.16379 0.77531 0.33084
 C164 C -0.14079 0.79519 0.28491
 C165 C -0.11919 0.86281 0.22031
 C166 C -0.09772 0.88144 0.18701
 H167 H -0.17399 0.90269 0.26851
 H168 H -0.21447 0.86815 0.34892
 H169 H -0.16024 0.73993 0.34841
 H170 H -0.11997 0.77498 0.26800
 C171 C 0.64440 0.65887 0.26146
 C172 C 0.67127 0.63306 0.28394
 C173 C 0.69419 0.65280 0.33003
 C174 C 0.69046 0.69864 0.35444
 C175 C 0.66378 0.72468 0.33006
 C176 C 0.64089 0.70485 0.28396
 C177 C 0.61940 0.63726 0.21917
 C178 C 0.59796 0.61863 0.18594
 H179 H 0.67413 0.59736 0.26709
 H180 H 0.71443 0.63182 0.34779
 H181 H 0.66019 0.76003 0.34784
 H182 H 0.62010 0.72507 0.26713
 C183 C 0.14464 1.15964 0.26254
 C184 C 0.14116 1.20556 0.28527
 C185 C 0.16402 1.22531 0.33154
 C186 C 0.19074 1.19924 0.35617
 C187 C 0.19441 1.15338 0.33119
 C188 C 0.17149 1.13380 0.28493
 C189 C 0.11966 1.13814 0.22001
 C190 C 0.09826 1.11953 0.18661
 H191 H 0.12039 1.22584 0.26843
 H192 H 0.16028 1.26068 0.34913
 H193 H 0.21460 1.13214 0.34850
 H194 H 0.17436 1.09815 0.26782
 C195 C 0.64486 0.34064 -0.26252
 C196 C 0.67177 0.36644 -0.28498
 C197 C 0.69481 0.34672 -0.33094
 C198 C 0.69117 0.30077 -0.35554
 C199 C 0.66440 0.27474 -0.33076
 C200 C 0.64143 0.29462 -0.28479
 C201 C 0.61976 0.36226 -0.22040
 C202 C 0.59824 0.38088 -0.18730
 H203 H 0.67460 0.40216 -0.26819
 H204 H 0.71505 0.36794 -0.34838
 H205 H 0.66070 0.23929 -0.34806
 H206 H 0.62061 0.27438 -0.26786
 C207 C 0.14474 0.84084 -0.26262
 C208 C 0.14123 0.79486 -0.28504
 C209 C 0.16418 0.77493 -0.33102
 C210 C 0.19102 0.80087 -0.35568
 C211 C 0.19473 0.84679 -0.33098
 C212 C 0.17171 0.86656 -0.28500
 C213 C 0.11969 0.86250 -0.22034
 C214 C 0.09823 0.88118 -0.18709
 H215 H 0.12037 0.77468 -0.26817
 H216 H 0.16042 0.73952 -0.34840
 H217 H 0.21501 0.86795 -0.34832
 H218 H 0.17461 0.90225 -0.26811
 C219 C 0.35537 0.65886 -0.26091
 C220 C 0.35883 0.70493 -0.28296
 C221 C 0.33582 0.72488 -0.32852
 C222 C 0.30906 0.69889 -0.35281
 C223 C 0.30536 0.65297 -0.32881
 C224 C 0.32841 0.63311 -0.28325
 C225 C 0.38048 0.63716 -0.21918
 C226 C 0.40201 0.61852 -0.18638
 H227 H 0.37968 0.72512 -0.26621
 H228 H 0.33939 0.76029 -0.34599
 H229 H 0.28507 0.63202 -0.34651
 H230 H 0.32557 0.59735 -0.26673
 C231 C -0.14426 1.15947 -0.26100
 C232 C -0.14082 1.20548 -0.28335
 C233 C -0.16386 1.22531 -0.32902
 C234 C -0.19062 1.19925 -0.35311
 C235 C -0.19428 1.15337 -0.32886
 C236 C -0.17121 1.13364 -0.28320
 C237 C -0.11915 1.13789 -0.21906
 C238 C -0.09765 1.11928 -0.18608
 H239 H -0.11998 1.22573 -0.26674
 H240 H -0.16031 1.26068 -0.34669
 H241 H -0.21457 1.13237 -0.34640
 H242 H -0.17403 1.09792 -0.26647
 C243 C 0.64469 0.65922 -0.26277
 C244 C 0.67162 0.63350 -0.28526
 C245 C 0.69465 0.65326 -0.33124
 C246 C 0.69098 0.69918 -0.35581
 C247 C 0.66418 0.72512 -0.33104
 C248 C 0.64122 0.70520 -0.28507
 C249 C 0.61963 0.63756 -0.22051
 C250 C 0.59816 0.61888 -0.18729
 H251 H 0.67449 0.59781 -0.26847
 H252 H 0.71490 0.63211 -0.34867
 H253 H 0.66045 0.76053 -0.34833
 H254 H 0.62039 0.72538 -0.26812
 C255 C 0.14484 1.15941 -0.26284
 C256 C 0.17169 1.13360 -0.28557
 C257 C 0.19462 1.15326 -0.33185
 C258 C 0.19094 1.19916 -0.35650
 C259 C 0.16423 1.22520 -0.33146
 C260 C 0.14136 1.20537 -0.28517
 C261 C 0.11983 1.13783 -0.22039
 C262 C 0.09838 1.11921 -0.18705
 H263 H 0.17455 1.09792 -0.26875
 H264 H 0.21480 1.13204 -0.34948
 H265 H 0.16049 1.26060 -0.34878
 H266 H 0.12059 1.22562 -0.26804
 C267 C 0.35546 0.34057 -0.26251
 C268 C 0.32854 0.36638 -0.28468
 C269 C 0.30545 0.34663 -0.33040
 C270 C 0.30907 0.30075 -0.35474
 C271 C 0.33581 0.27471 -0.33069
 C272 C 0.35885 0.29455 -0.28497
 C273 C 0.38056 0.36215 -0.22045
 C274 C 0.40206 0.38076 -0.18735
 H275 H 0.32574 0.40210 -0.26786
 H276 H 0.28518 0.36762 -0.34790
 H277 H 0.33932 0.23933 -0.34843
 H278 H 0.37967 0.27431 -0.26837
 C279 C -0.14460 0.84110 -0.26041
 C280 C -0.14118 0.79505 -0.28266
 C281 C -0.16419 0.77512 -0.32835
 C282 C -0.19091 0.80111 -0.35256
 C283 C -0.19458 0.84702 -0.32837
 C284 C -0.17153 0.86686 -0.28268
 C285 C -0.11948 0.86279 -0.21858
 C286 C -0.09794 0.88144 -0.18573
 H287 H -0.12035 0.77486 -0.26597
 H288 H -0.16065 0.73972 -0.34597
 H289 H -0.21485 0.86797 -0.34601
 H290 H -0.17434 0.90261 -0.26602
 C291 C 0.35559 0.65897 0.26212
 C292 C 0.35911 0.70496 0.28461
 C293 C 0.33615 0.72482 0.33067
 C294 C 0.30939 0.69882 0.35502
 C295 C 0.30566 0.65295 0.33068
 C296 C 0.32865 0.63318 0.28463
 C297 C 0.38061 0.63737 0.21972
 C298 C 0.40205 0.61873 0.18637
 H299 H 0.37995 0.72518 0.26777
 H300 H 0.33975 0.76019 0.34839
 H301 H 0.28536 0.63199 0.34841
 H302 H 0.32577 0.59748 0.26780
 C303 C -0.14435 1.15942 0.26189
 C304 C -0.17122 1.13352 0.28449
 C305 C -0.19425 1.15323 0.33049
 C306 C -0.19062 1.19914 0.35467
 C307 C -0.16394 1.22527 0.33017
 C308 C -0.14095 1.20547 0.28417
 C309 C -0.11926 1.13787 0.21968
 C310 C -0.09774 1.11929 0.18652
 H311 H -0.17400 1.09777 0.26781
 H312 H -0.21449 1.13218 0.34834
 H313 H -0.16043 1.26068 0.34777
 H314 H -0.12016 1.22576 0.26724
 C315 C 0.64420 0.34070 0.26162
 C316 C 0.67106 0.36663 0.28410
 C317 C 0.69399 0.34705 0.33023
 C318 C 0.69029 0.30123 0.35469
 C319 C 0.66362 0.27507 0.33035
 C320 C 0.64072 0.29475 0.28421
 C321 C 0.61922 0.36215 0.21918
 C322 C 0.59780 0.38070 0.18585
 H323 H 0.67391 0.40231 0.26719
 H324 H 0.71422 0.36812 0.34795
 H325 H 0.66004 0.23974 0.34816
 H326 H 0.61994 0.27443 0.26739
 C327 C 0.14455 0.84119 0.26161
 C328 C 0.14099 0.79521 0.28399
 C329 C 0.16383 0.77539 0.33009
 C330 C 0.19053 0.80142 0.35457
 C331 C 0.19433 0.84727 0.33028
 C332 C 0.17144 0.86700 0.28419
 C333 C 0.11959 0.86279 0.21933
 C334 C 0.09818 0.88142 0.18614
 H335 H 0.12018 0.77499 0.26708
 H336 H 0.16019 0.74004 0.34777
 H337 H 0.21458 0.86825 0.34812
 H338 H 0.17435 0.90269 0.26744
   
