data_POSCAR
  _audit_creation_date              2014-09-24
  _audit_creation_method            'ToBaCCo'
  _symmetry_space_group_name_H-M    'P1'
  _symmetry_Int_Tables_number       1
  _symmetry_cell_setting            triclinic
  loop_
  _symmetry_equiv_pos_as_xyz
 x,y,z
_cell_length_a 41.7259
_cell_length_b 35.5308
_cell_length_c 28.3032
_cell_angle_alpha 89.993500
_cell_angle_beta 89.972800
_cell_angle_gamma 90.171500
loop_
  _atom_site_label
  _atom_site_type_symbol
  _atom_site_fract_x
  _atom_site_fract_y
  _atom_site_fract_z
Si1 Si 1.25113 0.25238 0.25441
 Si2 Si 0.74452 -0.24899 0.24379
 Si3 Si 0.74805 0.25025 -0.24810
 Si4 Si 1.25475 -0.24990 -0.24424
 Si5 Si 0.25114 0.25171 0.74464
 Si6 Si 0.74433 0.75129 0.75672
 Si7 Si 0.74800 0.25157 0.24720
 Si8 Si 0.25413 0.74973 0.24389
 O9 O 1.04634 0.06527 0.08828
 O10 O 1.08212 0.03266 0.04240
 C11 C 1.07527 0.05674 0.07542
 O12 O 0.95723 -0.07035 0.07994
 O13 O 0.92131 -0.03372 0.03960
 C14 C 0.92826 -0.06109 0.06821
 O15 O 1.04618 -0.06611 0.08581
 O16 O 1.08206 -0.03214 0.04144
 C17 C 1.07518 -0.05727 0.07329
 O18 O 0.95740 0.06961 0.08301
 O19 O 0.92142 0.03430 0.04051
 C20 C 0.92842 0.06083 0.07046
 Zr21 Zr 1.00175 0.04757 0.06094
 O22 O 0.99878 0.04836 0.13560
 O23 O 1.00340 0.10694 0.05618
 Zr24 Zr 1.00163 -0.04650 0.06055
 O25 O 1.00008 -0.04005 0.13471
 O26 O 1.00303 -0.10567 0.06803
 O27 O 1.03066 0.00042 0.06994
 O28 O 0.97324 0.00035 0.06937
 O29 O 0.95745 0.07058 -0.07951
 O30 O 0.92142 0.03469 -0.03787
 C31 C 0.92845 0.06154 -0.06737
 O32 O 1.04633 -0.06468 -0.08502
 O33 O 1.08212 -0.03135 -0.03981
 C34 C 1.07527 -0.05584 -0.07232
 O35 O 0.95708 -0.06833 -0.08073
 O36 O 0.92125 -0.03301 -0.03839
 C37 C 0.92813 -0.05956 -0.06824
 O38 O 1.04638 0.06632 -0.08494
 O39 O 1.08218 0.03304 -0.03993
 C40 C 1.07532 0.05753 -0.07249
 Zr41 Zr 1.00180 0.04836 -0.05777
 O42 O 0.99853 0.05075 -0.13234
 O43 O 1.00343 0.10763 -0.05138
 Zr44 Zr 1.00163 -0.04601 -0.05911
 O45 O 0.99795 -0.04320 -0.13368
 O46 O 1.00477 -0.10543 -0.06211
 Zr47 Zr 1.04988 0.00063 0.00104
 Zr48 Zr 0.95347 0.00056 0.00106
 O49 O 0.97348 0.00119 -0.06713
 O50 O 1.03058 0.00121 -0.06782
 O51 O 0.97314 0.05519 0.00164
 O52 O 1.02930 -0.05349 0.00063
 O53 O 1.02993 0.05486 0.00162
 O54 O 0.97330 -0.05399 0.00063
 H55 H 0.95845 0.00012 0.09679
 H56 H 1.04328 -0.07597 0.00036
 H57 H 0.95885 0.00142 -0.09470
 H58 H 1.04435 0.07708 0.00177
 H59 H 1.00436 -0.11621 0.03582
 H60 H 0.98847 -0.11577 -0.04024
 H61 H 1.01788 -0.03159 -0.14589
 H62 H 1.01435 0.03276 -0.14515
 H63 H 1.00384 0.11768 -0.08404
 H64 H 1.00376 0.11644 0.08910
 H65 H 1.01404 0.02936 0.14760
 H66 H 0.99933 -0.06586 0.14790
 O67 O 1.04358 0.57081 0.58704
 O68 O 1.07944 0.53869 0.54073
 C69 C 1.07260 0.56231 0.57431
 O70 O 0.95510 0.43495 0.57935
 O71 O 0.91883 0.47090 0.53870
 C72 C 0.92599 0.44397 0.56799
 O73 O 1.04409 0.44021 0.58487
 O74 O 1.07976 0.47384 0.53974
 C75 C 1.07304 0.44924 0.57231
 O76 O 0.95428 0.57407 0.58230
 O77 O 0.91852 0.53855 0.53965
 C78 C 0.92529 0.56473 0.57025
 Zr79 Zr 0.99893 0.55301 0.55934
 O80 O 0.99623 0.55430 0.63399
 O81 O 1.00006 0.61235 0.55399
 Zr82 Zr 0.99940 0.45877 0.55894
 O83 O 0.99773 0.46443 0.63323
 O84 O 1.00226 0.39956 0.56478
 O85 O 1.02809 0.50603 0.56824
 O86 O 0.97083 0.50544 0.56785
 O87 O 0.95414 0.57495 0.41833
 O88 O 0.91846 0.53883 0.46040
 C89 C 0.92518 0.56530 0.43018
 O90 O 1.04409 0.44109 0.41302
 O91 O 1.07977 0.47451 0.45831
 C92 C 1.07304 0.45014 0.42553
 O93 O 0.95477 0.43715 0.41709
 O94 O 0.91870 0.47173 0.45998
 C95 C 0.92572 0.44571 0.42940
 O96 O 1.04344 0.57219 0.41326
 O97 O 1.07942 0.53915 0.45823
 C98 C 1.07251 0.56349 0.42547
 Zr99 Zr 0.99886 0.55379 0.44072
 O100 O 0.99573 0.55668 0.36618
 O101 O 0.99991 0.61302 0.44769
 Zr102 Zr 0.99931 0.45928 0.43935
 O103 O 0.99567 0.46148 0.36473
 O104 O 1.00304 0.39988 0.43703
 Zr105 Zr 1.04737 0.50638 0.49936
 Zr106 Zr 0.95085 0.50540 0.49967
 O107 O 0.97093 0.50628 0.43145
 O108 O 1.02791 0.50683 0.43058
 O109 O 0.97007 0.56032 0.50015
 O110 O 1.02710 0.45207 0.49904
 O111 O 1.02709 0.56048 0.50002
 O112 O 0.97095 0.45100 0.49911
 H113 H 0.95620 0.50502 0.59545
 H114 H 1.04122 0.42970 0.49891
 H115 H 0.95644 0.50633 0.40372
 H116 H 1.04145 0.58275 0.50023
 H117 H 0.99451 0.38916 0.53450
 H118 H 0.98542 0.38931 0.45636
 H119 H 1.01510 0.47418 0.35246
 H120 H 1.01108 0.53819 0.35332
 H121 H 1.00016 0.62325 0.41511
 H122 H 1.00047 0.62201 0.58683
 H123 H 1.01058 0.53433 0.64591
 H124 H 0.99747 0.43850 0.64610
 O125 O 0.54393 0.06643 0.58494
 O126 O 0.57961 0.03330 0.53955
 C127 C 0.57289 0.05776 0.57205
 O128 O 0.45547 -0.07032 0.57765
 O129 O 0.41956 -0.03421 0.53667
 C130 C 0.42652 -0.06141 0.56541
 O131 O 0.54452 -0.06450 0.58422
 O132 O 0.58007 -0.03072 0.53914
 C133 C 0.57343 -0.05540 0.57149
 O134 O 0.45445 0.06980 0.57893
 O135 O 0.41915 0.03332 0.53685
 C136 C 0.42565 0.06036 0.56619
 Zr137 Zr 0.49922 0.04802 0.55787
 O138 O 0.49611 0.04909 0.63247
 O139 O 0.50034 0.10738 0.55282
 Zr140 Zr 0.49978 -0.04623 0.55828
 O141 O 0.49766 -0.03999 0.63244
 O142 O 0.50299 -0.10535 0.56509
 O143 O 0.52834 0.00113 0.56746
 O144 O 0.47109 0.00046 0.56654
 O145 O 0.45494 0.06999 0.41750
 O146 O 0.41943 0.03335 0.45904
 C147 C 0.42607 0.06050 0.42997
 O148 O 0.54516 -0.06475 0.41342
 O149 O 0.58031 -0.03052 0.45854
 C150 C 0.57393 -0.05539 0.42636
 O151 O 0.45584 -0.06960 0.41729
 O152 O 0.41974 -0.03409 0.45875
 C153 C 0.42681 -0.06092 0.42947
 O154 O 0.54453 0.06658 0.41272
 O155 O 0.57997 0.03320 0.45821
 C156 C 0.57340 0.05779 0.42579
 Zr157 Zr 0.49963 0.04810 0.43893
 O158 O 0.49650 0.04942 0.36431
 O159 O 0.50099 0.10745 0.44408
 Zr160 Zr 0.50015 -0.04634 0.43844
 O161 O 0.49656 -0.04333 0.36385
 O162 O 0.50402 -0.10565 0.43462
 Zr163 Zr 0.54757 0.00109 0.49865
 Zr164 Zr 0.45158 -0.00003 0.49805
 O165 O 0.47167 0.00053 0.42989
 O166 O 0.52874 0.00115 0.42952
 O167 O 0.47081 0.05487 0.49823
 O168 O 0.52755 -0.05328 0.49857
 O169 O 0.52741 0.05521 0.49860
 O170 O 0.47176 -0.05436 0.49816
 H171 H 0.45621 0.00022 0.59385
 H172 H 0.54171 -0.07560 0.49878
 H173 H 0.45699 0.00046 0.40237
 H174 H 0.54163 0.07761 0.49877
 H175 H 0.49384 -0.11625 0.53596
 H176 H 0.48854 -0.11642 0.45741
 H177 H 0.51672 -0.03227 0.35161
 H178 H 0.51336 0.03261 0.35185
 H179 H 0.50130 0.11701 0.41118
 H180 H 0.50067 0.11691 0.58573
 H181 H 0.51155 0.03032 0.64454
 H182 H 0.49741 -0.06587 0.64546
 O183 O 0.44349 0.44236 -0.08774
 O184 O 0.47072 0.39908 -0.04292
 C185 C 0.45050 0.40810 -0.07606
 O186 O 0.56009 0.54588 -0.07455
 O187 O 0.52844 0.58864 -0.03570
 C188 C 0.55282 0.57992 -0.06228
 O189 O 0.55408 0.44285 -0.08658
 O190 O 0.52647 0.39929 -0.04246
 C191 C 0.54707 0.40852 -0.07509
 O192 O 0.43914 0.54568 -0.07899
 O193 O 0.46859 0.58842 -0.03637
 C194 C 0.44569 0.57972 -0.06582
 Zr195 Zr 0.45837 0.49393 -0.05856
 O196 O 0.45745 0.49884 -0.13309
 O197 O 0.40783 0.49144 -0.05367
 Zr198 Zr 0.53800 0.49422 -0.05893
 O199 O 0.53205 0.49850 -0.13287
 O200 O 0.58824 0.49140 -0.06794
 O201 O 0.49827 0.46003 -0.06865
 O202 O 0.49833 0.52798 -0.06681
 O203 O 0.43987 0.54412 0.08442
 O204 O 0.46895 0.58743 0.04181
 C205 C 0.44680 0.57838 0.07228
 O206 O 0.55354 0.44046 0.08660
 O207 O 0.52618 0.39817 0.04029
 C208 C 0.54654 0.40650 0.07353
 O209 O 0.55776 0.54398 0.08199
 O210 O 0.52828 0.58762 0.04122
 C211 C 0.55144 0.57826 0.06972
 O212 O 0.44396 0.44033 0.08782
 O213 O 0.47071 0.39812 0.04074
 C214 C 0.45078 0.40637 0.07457
 Zr215 Zr 0.45802 0.49255 0.05973
 O216 O 0.45327 0.49185 0.13420
 O217 O 0.40774 0.49126 0.05081
 Zr218 Zr 0.53797 0.49256 0.06040
 O219 O 0.53595 0.49586 0.13507
 O220 O 0.58855 0.48830 0.06281
 Zr221 Zr 0.49836 0.43621 -0.00038
 Zr222 Zr 0.49841 0.55044 0.00187
 O223 O 0.49816 0.52596 0.06948
 O224 O 0.49799 0.45852 0.06873
 O225 O 0.45197 0.52695 0.00127
 O226 O 0.54427 0.46070 0.00008
 O227 O 0.45226 0.45989 -0.00001
 O228 O 0.54461 0.52647 0.00154
 H229 H 0.49855 0.54600 -0.09354
 H230 H 0.56339 0.44423 -0.00012
 H231 H 0.49850 0.54316 0.09702
 H232 H 0.43343 0.44281 -0.00030
 H233 H 0.59765 0.48998 -0.03600
 H234 H 0.59739 0.50699 0.04035
 H235 H 0.52245 0.47473 0.14635
 H236 H 0.47222 0.50466 0.14765
 H237 H 0.39851 0.48930 0.08298
 H238 H 0.39968 0.49137 -0.08656
 H239 H 0.47360 0.48119 -0.14580
 H240 H 0.55394 0.49982 -0.14634
 C241 C 1.11868 0.12145 0.15970
 C242 C 1.14871 0.12465 0.13820
 C243 C 1.15572 0.10330 0.09791
 C244 C 1.13231 0.07963 0.07838
 C245 C 1.22594 0.22184 0.21909
 C246 C 1.09531 0.09807 0.14024
 C247 C 1.17153 0.15091 0.15727
 C248 C 1.18940 0.17351 0.17499
 C249 C 1.20930 0.19994 0.19781
 C250 C 1.10162 0.07743 0.09886
 H251 H 1.11307 0.13771 0.19100
 H252 H 1.17896 0.10558 0.08105
 H253 H 1.13783 0.06419 0.04644
 H254 H 1.07202 0.09684 0.15710
 C255 C 1.11736 0.62340 0.66222
 C256 C 1.14862 0.62238 0.64448
 C257 C 1.15543 0.60043 0.60458
 C258 C 1.13093 0.58007 0.58216
 C259 C 1.23068 0.71388 0.72712
 C260 C 1.09289 0.60327 0.63989
 C261 C 1.17303 0.64535 0.66636
 C262 C 1.19226 0.66585 0.68528
 C263 C 1.21353 0.69118 0.70784
 C264 C 1.09925 0.58164 0.59928
 H265 H 1.11175 0.64029 0.69299
 H266 H 1.17953 0.59953 0.59039
 H267 H 1.13663 0.56384 0.55090
 H268 H 1.06888 0.60504 0.65421
 C269 C 0.61834 0.12533 0.65057
 C270 C 0.64919 0.12334 0.63149
 C271 C 0.65568 0.09826 0.59464
 C272 C 0.63107 0.07583 0.57617
 C273 C 0.72824 0.21770 0.71239
 C274 C 0.59375 0.10313 0.63215
 C275 C 0.67362 0.14790 0.64968
 C276 C 0.69255 0.16948 0.66693
 C277 C 0.71275 0.19543 0.68993
 C278 C 0.59970 0.07846 0.59434
 H279 H 0.61313 0.14459 0.67923
 H280 H 0.67955 0.09646 0.57978
 H281 H 0.63643 0.05718 0.54698
 H282 H 0.56993 0.10583 0.64699
 C283 C 0.62565 0.62022 0.12445
 C284 C 0.61912 0.65863 0.12411
 C285 C 0.59001 0.67167 0.10539
 C286 C 0.56746 0.64590 0.08723
 C287 C 0.71253 0.73035 0.20887
 C288 C 0.60341 0.59476 0.10690
 C289 C 0.64278 0.68323 0.14454
 C290 C 0.66430 0.70018 0.16345
 C291 C 0.69037 0.71701 0.18725
 C292 C 0.57389 0.60704 0.08835
 H293 H 0.64806 0.60978 0.13865
 H294 H 0.58472 0.70149 0.10506
 H295 H 0.54508 0.65619 0.07292
 H296 H 0.60967 0.56521 0.10766
 C297 C 0.88468 -0.13493 0.14003
 C298 C 0.85323 -0.13105 0.12396
 C299 C 0.84586 -0.10346 0.09034
 C300 C 0.87010 -0.08002 0.07256
 C301 C 0.77071 -0.22084 0.20691
 C302 C 0.90883 -0.11172 0.12238
 C303 C 0.82888 -0.15538 0.14303
 C304 C 0.80972 -0.17627 0.16114
 C305 C 0.78838 -0.20066 0.18475
 C306 C 0.90192 -0.08410 0.08824
 H307 H 0.89059 -0.15605 0.16623
 H308 H 0.82151 -0.10016 0.07781
 H309 H 0.86401 -0.05909 0.04627
 H310 H 0.93298 -0.11565 0.13542
 C311 C 0.84330 0.40463 0.59861
 C312 C 0.85125 0.37724 0.63233
 C313 C 0.88332 0.37221 0.64501
 C314 C 0.90732 0.39407 0.62422
 C315 C 0.77147 0.28511 0.71931
 C316 C 0.86742 0.42671 0.57763
 C317 C 0.82712 0.35373 0.65423
 C318 C 0.80842 0.33291 0.67392
 C319 C 0.78795 0.30748 0.69812
 C320 C 0.89979 0.42160 0.59017
 H321 H 0.81855 0.40882 0.58843
 H322 H 0.88985 0.35119 0.67100
 H323 H 0.93187 0.38921 0.63489
 H324 H 0.86078 0.44750 0.55145
 C325 C 0.38296 -0.13709 0.63375
 C326 C 0.35125 -0.13131 0.61989
 C327 C 0.34375 -0.10215 0.58857
 C328 C 0.36814 -0.07887 0.57100
 C329 C 0.27437 -0.22077 0.71217
 C330 C 0.40724 -0.11399 0.61644
 C331 C 0.32689 -0.15500 0.63981
 C332 C 0.30846 -0.17571 0.65965
 C333 C 0.28917 -0.20022 0.68641
 C334 C 0.40018 -0.08462 0.58482
 H335 H 0.38895 -0.15948 0.65818
 H336 H 0.31917 -0.09741 0.57787
 H337 H 0.36196 -0.05661 0.54654
 H338 H 0.43158 -0.11934 0.62779
 C339 C 0.39897 0.35947 0.16554
 C340 C 0.38573 0.32990 0.13945
 C341 C 0.39776 0.32166 0.09436
 C342 C 0.42158 0.34461 0.07435
 C343 C 0.28339 0.27174 0.21896
 C344 C 0.42238 0.38248 0.14552
 C345 C 0.35787 0.31102 0.15788
 C346 C 0.33407 0.29760 0.17524
 C347 C 0.30636 0.28354 0.19779
 C348 C 0.43299 0.37621 0.09904
 H349 H 0.38996 0.36601 0.20050
 H350 H 0.38770 0.29875 0.07388
 H351 H 0.42934 0.33929 0.03855
 H352 H 0.43093 0.40653 0.16545
 C353 C 0.88559 0.13375 -0.14227
 C354 C 0.85423 0.13126 -0.12529
 C355 C 0.84660 0.10485 -0.09020
 C356 C 0.87050 0.08135 -0.07180
 C357 C 0.77374 0.22199 -0.21056
 C358 C 0.90938 0.11050 -0.12400
 C359 C 0.83033 0.15588 -0.14488
 C360 C 0.81165 0.17700 -0.16357
 C361 C 0.79093 0.20164 -0.18789
 C362 C 0.90225 0.08417 -0.08830
 H363 H 0.89175 0.15390 -0.16958
 H364 H 0.82233 0.10259 -0.07689
 H365 H 0.86425 0.06148 -0.04427
 H366 H 0.93350 0.11348 -0.13768
 C367 C 0.84172 0.60083 0.39879
 C368 C 0.84899 0.62720 0.36348
 C369 C 0.88085 0.63280 0.34992
 C370 C 0.90537 0.61249 0.37148
 C371 C 0.76772 0.71603 0.27591
 C372 C 0.86635 0.58029 0.42052
 C373 C 0.82434 0.64937 0.34117
 C374 C 0.80521 0.66929 0.32128
 C375 C 0.78436 0.69398 0.29704
 C376 C 0.89854 0.58604 0.40719
 H377 H 0.81712 0.59630 0.40967
 H378 H 0.88681 0.65311 0.32271
 H379 H 0.92977 0.61766 0.36008
 H380 H 0.86024 0.56020 0.44788
 C381 C 0.38082 0.13460 0.36167
 C382 C 0.34973 0.12995 0.37912
 C383 C 0.34311 0.10151 0.41192
 C384 C 0.36779 0.07807 0.42771
 C385 C 0.27057 0.22231 0.29699
 C386 C 0.40544 0.11138 0.37740
 C387 C 0.32501 0.15440 0.36211
 C388 C 0.30600 0.17574 0.34491
 C389 C 0.28589 0.20104 0.32096
 C390 C 0.39930 0.08302 0.41088
 H391 H 0.38610 0.15639 0.33598
 H392 H 0.31903 0.09760 0.42541
 H393 H 0.36227 0.05652 0.45353
 H394 H 0.42935 0.11597 0.36362
 C395 C 0.40552 0.67377 -0.09389
 C396 C 0.37912 0.66107 -0.12033
 C397 C 0.37532 0.62280 -0.12922
 C398 C 0.39739 0.59714 -0.11208
 C399 C 0.28613 0.73105 -0.20691
 C400 C 0.42793 0.64774 -0.07617
 C401 C 0.35533 0.68584 -0.13981
 C402 C 0.33382 0.70250 -0.15898
 C403 C 0.30797 0.71860 -0.18392
 C404 C 0.42402 0.60901 -0.08520
 H405 H 0.40871 0.70352 -0.08694
 H406 H 0.35505 0.61260 -0.14952
 H407 H 0.39306 0.56769 -0.11963
 H408 H 0.44803 0.65776 -0.05547
 C409 C 1.15615 -0.10106 -0.09354
 C410 C 1.14951 -0.12304 -0.13342
 C411 C 1.11946 -0.12095 -0.15502
 C412 C 1.09572 -0.09795 -0.13605
 C413 C 1.22913 -0.21890 -0.21059
 C414 C 1.13240 -0.07777 -0.07456
 C415 C 1.17283 -0.14878 -0.15184
 C416 C 1.19129 -0.17098 -0.16874
 C417 C 1.21194 -0.19707 -0.19039
 C418 C 1.10172 -0.07659 -0.09514
 H419 H 1.17939 -0.10250 -0.07660
 H420 H 1.11416 -0.13774 -0.18603
 H421 H 1.07244 -0.09749 -0.15296
 H422 H 1.13772 -0.06173 -0.04300
 C423 C 1.15497 0.40809 0.39989
 C424 C 1.14822 0.38617 0.35991
 C425 C 1.11754 0.38700 0.34013
 C426 C 1.09347 0.40871 0.36074
 C427 C 1.22748 0.28884 0.28298
 C428 C 1.13086 0.43008 0.42056
 C429 C 1.17191 0.36127 0.34006
 C430 C 1.19046 0.33925 0.32264
 C431 C 1.21090 0.31240 0.30149
 C432 C 1.09966 0.43010 0.40163
 H433 H 1.17863 0.40760 0.41561
 H434 H 1.11200 0.37021 0.30922
 H435 H 1.06982 0.40822 0.34500
 H436 H 1.13640 0.44612 0.45206
 C437 C 0.61940 -0.12174 0.34712
 C438 C 0.64991 -0.12085 0.36738
 C439 C 0.65634 -0.09668 0.40525
 C440 C 0.63190 -0.07407 0.42357
 C441 C 0.72556 -0.21667 0.28414
 C442 C 0.59502 -0.09941 0.36537
 C443 C 0.67388 -0.14581 0.34928
 C444 C 0.69204 -0.16785 0.33153
 C445 C 0.71105 -0.19424 0.30754
 C446 C 0.60082 -0.07577 0.40427
 H447 H 0.61427 -0.14030 0.31768
 H448 H 0.67996 -0.09587 0.42110
 H449 H 0.63708 -0.05623 0.45365
 H450 H 0.57144 -0.10126 0.34955
 C451 C 0.59821 0.32247 -0.09705
 C452 C 0.61348 0.33311 -0.13917
 C453 C 0.60327 0.36519 -0.16330
 C454 C 0.57958 0.38803 -0.14397
 C455 C 0.71580 0.27145 -0.21430
 C456 C 0.57410 0.34529 -0.07775
 C457 C 0.64127 0.31352 -0.15652
 C458 C 0.66506 0.29939 -0.17290
 C459 C 0.69280 0.28430 -0.19424
 C460 C 0.56566 0.37920 -0.10001
 H461 H 0.60581 0.29753 -0.07819
 H462 H 0.61472 0.37359 -0.19604
 H463 H 0.57334 0.41374 -0.16233
 H464 H 0.56355 0.33767 -0.04421
 C465 C 1.11862 0.12225 -0.15707
 C466 C 1.14873 0.12543 -0.13587
 C467 C 1.15580 0.10415 -0.09552
 C468 C 1.13239 0.08054 -0.07572
 C469 C 1.22606 0.22156 -0.21912
 C470 C 1.09526 0.09895 -0.13735
 C471 C 1.17162 0.15145 -0.15550
 C472 C 1.18951 0.17381 -0.17378
 C473 C 1.20943 0.19994 -0.19727
 C474 C 1.10164 0.07832 -0.09599
 H475 H 1.11295 0.13839 -0.18845
 H476 H 1.17910 0.10636 -0.07886
 H477 H 1.13796 0.06514 -0.04377
 H478 H 1.07194 0.09771 -0.15408
 C479 C 1.11675 0.62724 0.33959
 C480 C 1.14810 0.62615 0.35704
 C481 C 1.15513 0.60324 0.39602
 C482 C 1.13080 0.58204 0.41781
 C483 C 1.23054 0.71732 0.27335
 C484 C 1.09248 0.60626 0.36130
 C485 C 1.17242 0.64961 0.33542
 C486 C 1.19167 0.67021 0.31648
 C487 C 1.21311 0.69529 0.29349
 C488 C 1.09906 0.58364 0.40099
 H489 H 1.11094 0.64476 0.30948
 H490 H 1.17928 0.60216 0.40997
 H491 H 1.13671 0.56508 0.44837
 H492 H 1.06843 0.60815 0.34718
 C493 C 0.61913 0.12515 0.34727
 C494 C 0.64974 0.12388 0.36729
 C495 C 0.65599 0.09930 0.40477
 C496 C 0.63141 0.07664 0.42287
 C497 C 0.72825 0.21923 0.28708
 C498 C 0.59456 0.10269 0.36532
 C499 C 0.67407 0.14877 0.34953
 C500 C 0.69287 0.17065 0.33253
 C501 C 0.71288 0.19688 0.30963
 C502 C 0.60028 0.07857 0.40377
 H503 H 0.61409 0.14401 0.31812
 H504 H 0.67963 0.09811 0.42049
 H505 H 0.63658 0.05843 0.45255
 H506 H 0.57097 0.10473 0.34963
 C507 C 0.58915 0.67098 -0.10942
 C508 C 0.62118 0.65970 -0.11534
 C509 C 0.63060 0.62392 -0.10072
 C510 C 0.60822 0.59893 -0.08217
 C511 C 0.71296 0.72979 -0.20758
 C512 C 0.56650 0.64582 -0.09018
 C513 C 0.64460 0.68281 -0.13917
 C514 C 0.66572 0.69917 -0.15996
 C515 C 0.69126 0.71605 -0.18519
 C516 C 0.57581 0.60916 -0.07770
 H517 H 0.58157 0.69868 -0.12072
 H518 H 0.65521 0.61486 -0.10495
 H519 H 0.61627 0.57112 -0.07201
 H520 H 0.54171 0.65435 -0.08687
 C521 C 0.84580 -0.10218 -0.09077
 C522 C 0.85311 -0.12899 -0.12543
 C523 C 0.88446 -0.13205 -0.14225
 C524 C 0.90857 -0.10893 -0.12423
 C525 C 0.77061 -0.21988 -0.20712
 C526 C 0.86998 -0.07882 -0.07263
 C527 C 0.82884 -0.15353 -0.14447
 C528 C 0.80970 -0.17463 -0.16235
 C529 C 0.78833 -0.19935 -0.18549
 C530 C 0.90173 -0.08216 -0.08897
 H531 H 0.82153 -0.09949 -0.07763
 H532 H 0.89036 -0.15255 -0.16922
 H533 H 0.93266 -0.11233 -0.13777
 H534 H 0.86393 -0.05861 -0.04545
 C535 C 0.84295 0.40648 0.39947
 C536 C 0.85070 0.38000 0.36456
 C537 C 0.88260 0.37572 0.35060
 C538 C 0.90669 0.39739 0.37140
 C539 C 0.77112 0.28690 0.27930
 C540 C 0.86716 0.42838 0.42047
 C541 C 0.82654 0.35634 0.34312
 C542 C 0.80786 0.33531 0.32385
 C543 C 0.78748 0.30957 0.30014
 C544 C 0.89940 0.42392 0.40677
 H545 H 0.81832 0.41000 0.41069
 H546 H 0.88895 0.35532 0.32375
 H547 H 0.93113 0.39309 0.35980
 H548 H 0.86070 0.44842 0.44765
 C549 C 0.38359 -0.13511 0.35771
 C550 C 0.35189 -0.13061 0.37253
 C551 C 0.34428 -0.10257 0.40545
 C552 C 0.36850 -0.07929 0.42371
 C553 C 0.27401 -0.22175 0.28313
 C554 C 0.40769 -0.11203 0.37575
 C555 C 0.32769 -0.15477 0.35266
 C556 C 0.30918 -0.17582 0.33336
 C557 C 0.28942 -0.20077 0.30770
 C558 C 0.40053 -0.08389 0.40910
 H559 H 0.38973 -0.15661 0.33214
 H560 H 0.31975 -0.09879 0.41702
 H561 H 0.36220 -0.05802 0.44945
 H562 H 0.43200 -0.11648 0.36366
 C563 C 0.39706 0.36348 -0.16696
 C564 C 0.38539 0.33223 -0.14236
 C565 C 0.39887 0.32246 -0.09868
 C566 C 0.42262 0.34538 -0.07843
 C567 C 0.28356 0.27174 -0.22076
 C568 C 0.42040 0.38645 -0.14668
 C569 C 0.35778 0.31281 -0.16077
 C570 C 0.33414 0.29885 -0.17794
 C571 C 0.30652 0.28411 -0.20008
 C572 C 0.43250 0.37850 -0.10141
 H573 H 0.38696 0.37120 -0.20086
 H574 H 0.39007 0.29821 -0.07940
 H575 H 0.43164 0.33862 -0.04369
 H576 H 0.42778 0.41163 -0.16542
 C577 C 1.11906 -0.12548 0.15298
 C578 C 1.14960 -0.12602 0.13267
 C579 C 1.15654 -0.10219 0.09451
 C580 C 1.13272 -0.07859 0.07610
 C581 C 1.23016 -0.22133 0.21043
 C582 C 1.09528 -0.10216 0.13458
 C583 C 1.17325 -0.15173 0.15094
 C584 C 1.19195 -0.17382 0.16782
 C585 C 1.21288 -0.19976 0.18968
 C586 C 1.10163 -0.07880 0.09546
 H587 H 1.11344 -0.14360 0.18267
 H588 H 1.18013 -0.10229 0.07853
 H589 H 1.13840 -0.06101 0.04598
 H590 H 1.07172 -0.10291 0.15062
 C591 C 1.11726 0.38491 0.65661
 C592 C 1.14814 0.38473 0.63745
 C593 C 1.15509 0.40739 0.59816
 C594 C 1.13099 0.42949 0.57759
 C595 C 1.22737 0.28785 0.71555
 C596 C 1.09323 0.40673 0.63613
 C597 C 1.17187 0.35988 0.65741
 C598 C 1.19038 0.33794 0.67510
 C599 C 1.21080 0.31124 0.69667
 C600 C 1.09962 0.42891 0.59596
 H601 H 1.11156 0.36756 0.68698
 H602 H 1.17891 0.40747 0.58292
 H603 H 1.13669 0.44614 0.54665
 H604 H 1.06945 0.40571 0.65142
 C605 C 0.61788 -0.12216 0.65159
 C606 C 0.64868 -0.12125 0.63225
 C607 C 0.65562 -0.09692 0.59468
 C608 C 0.63142 -0.07423 0.57572
 C609 C 0.72452 -0.21667 0.71672
 C610 C 0.59377 -0.09972 0.63276
 C611 C 0.67245 -0.14622 0.65107
 C612 C 0.69055 -0.16819 0.66924
 C613 C 0.70969 -0.19442 0.69342
 C614 C 0.60007 -0.07592 0.59414
 H615 H 0.61233 -0.14079 0.68081
 H616 H 0.67947 -0.09598 0.57959
 H617 H 0.63700 -0.05631 0.54587
 H618 H 0.56998 -0.10165 0.64791
 C619 C 0.60021 0.32240 0.09153
 C620 C 0.61295 0.33086 0.13615
 C621 C 0.60005 0.36033 0.16262
 C622 C 0.57618 0.38299 0.14342
 C623 C 0.71586 0.27211 0.21271
 C624 C 0.57596 0.34501 0.07235
 C625 C 0.64104 0.31213 0.15380
 C626 C 0.66499 0.29869 0.17049
 C627 C 0.69284 0.28438 0.19222
 C628 C 0.56482 0.37651 0.09736
 H629 H 0.60999 0.29954 0.07077
 H630 H 0.60959 0.36705 0.19722
 H631 H 0.56783 0.40692 0.16365
 H632 H 0.56757 0.33948 0.03694
 C633 C 0.84692 0.10547 0.09135
 C634 C 0.85435 0.13122 0.12725
 C635 C 0.88540 0.13270 0.14558
 C636 C 0.90912 0.10912 0.12777
 C637 C 0.77392 0.22320 0.21023
 C638 C 0.87073 0.08163 0.07343
 C639 C 0.83056 0.15625 0.14621
 C640 C 0.81193 0.17769 0.16433
 C641 C 0.79119 0.20266 0.18801
 C642 C 0.90221 0.08349 0.09121
 H643 H 0.82288 0.10401 0.07703
 H644 H 0.89136 0.15234 0.17355
 H645 H 0.93301 0.11131 0.14246
 H646 H 0.86467 0.06231 0.04523
 C647 C 0.84203 0.60153 0.60104
 C648 C 0.84935 0.62748 0.63683
 C649 C 0.88119 0.63227 0.65097
 C650 C 0.90560 0.61163 0.62952
 C651 C 0.76786 0.71665 0.72423
 C652 C 0.86654 0.58066 0.57942
 C653 C 0.82478 0.64997 0.65904
 C654 C 0.80564 0.67002 0.67884
 C655 C 0.78467 0.69471 0.70305
 C656 C 0.89870 0.58561 0.59334
 H657 H 0.81746 0.59759 0.58969
 H658 H 0.88724 0.65221 0.67856
 H659 H 0.92998 0.61623 0.64132
 H660 H 0.86038 0.56101 0.55161
 C661 C 0.38035 0.13387 0.63557
 C662 C 0.34919 0.12916 0.61844
 C663 C 0.34256 0.10093 0.58536
 C664 C 0.36727 0.07773 0.56902
 C665 C 0.27042 0.22123 0.70223
 C666 C 0.40499 0.11090 0.61931
 C667 C 0.32446 0.15339 0.63604
 C668 C 0.30553 0.17461 0.65371
 C669 C 0.28559 0.19989 0.67809
 C670 C 0.39884 0.08272 0.58557
 H671 H 0.38566 0.15554 0.66139
 H672 H 0.31845 0.09699 0.57206
 H673 H 0.36174 0.05633 0.54304
 H674 H 0.42892 0.11556 0.63290
 C675 C 0.38995 0.62527 0.15727
 C676 C 0.37967 0.65639 0.13123
 C677 C 0.39412 0.66442 0.08756
 C678 C 0.41784 0.64043 0.06930
 C679 C 0.28302 0.72785 0.21012
 C680 C 0.41331 0.60129 0.13907
 C681 C 0.35319 0.67834 0.14908
 C682 C 0.33073 0.69484 0.16627
 C683 C 0.30461 0.71284 0.18884
 C684 C 0.42699 0.60804 0.09442
 H685 H 0.37910 0.61884 0.19111
 H686 H 0.38635 0.68844 0.06706
 H687 H 0.42772 0.64596 0.03461
 H688 H 0.41995 0.57663 0.15927
   
