data_POSCAR
  _audit_creation_date              2014-09-24
  _audit_creation_method            'ToBaCCo'
  _symmetry_space_group_name_H-M    'P1'
  _symmetry_Int_Tables_number       1
  _symmetry_cell_setting            triclinic
  loop_
  _symmetry_equiv_pos_as_xyz
 x,y,z
_cell_length_a 32.4906
_cell_length_b 32.4196
_cell_length_c 25.6793
_cell_angle_alpha 89.849600
_cell_angle_beta 89.971500
_cell_angle_gamma 90.048100
loop_
  _atom_site_label
  _atom_site_type_symbol
  _atom_site_fract_x
  _atom_site_fract_y
  _atom_site_fract_z
C1 C 1.28307 0.20633 0.27599
 C2 C 1.25075 0.22990 0.25607
 C3 C 1.21634 0.21044 0.23436
 C4 C 1.21431 0.16717 0.23161
 C5 C 1.24769 0.14395 0.25105
 C6 C 1.28129 0.16302 0.27626
 C7 C 1.25315 0.27515 0.25904
 C8 C 1.28644 0.29597 0.23667
 C9 C 1.28998 0.33918 0.24010
 C10 C 1.25831 0.36106 0.26586
 C11 C 1.22558 0.34025 0.29068
 C12 C 1.22290 0.29722 0.28557
 H13 H 1.30927 0.22201 0.29308
 H14 H 1.19237 0.22939 0.21762
 H15 H 1.30873 0.27826 0.21471
 H16 H 1.19722 0.28067 0.30269
 H17 H 1.24742 0.11109 0.24493
 H18 H 1.25800 0.39424 0.26429
 C19 C 0.77817 -0.29796 0.28675
 C20 C 0.74770 -0.27629 0.25994
 C21 C 0.71465 -0.29752 0.23795
 C22 C 0.71184 -0.34061 0.24157
 C23 C 0.74331 -0.36224 0.26783
 C24 C 0.77583 -0.34111 0.29284
 C25 C 0.74969 -0.23109 0.25579
 C26 C 0.78390 -0.21154 0.23352
 C27 C 0.78558 -0.16826 0.22988
 C28 C 0.75168 -0.14517 0.24803
 C29 C 0.71723 -0.16452 0.27082
 C30 C 0.71684 -0.20765 0.27433
 H31 H 0.80375 -0.28092 0.30322
 H32 H 0.69190 -0.28035 0.21598
 H33 H 0.80817 -0.23047 0.21756
 H34 H 0.69119 -0.22316 0.29302
 H35 H 0.74354 -0.39540 0.26624
 H36 H 0.75280 -0.11208 0.24454
 C37 C 0.78203 0.20939 -0.23032
 C38 C 0.74909 0.22989 -0.25415
 C39 C 0.71622 0.20735 -0.27444
 C40 C 0.71598 0.16419 -0.27248
 C41 C 0.74994 0.14388 -0.25008
 C42 C 0.78197 0.16612 -0.22585
 C43 C 0.74818 0.27511 -0.25790
 C44 C 0.77896 0.29635 -0.28483
 C45 C 0.77700 0.33950 -0.29130
 C46 C 0.74476 0.36102 -0.26629
 C47 C 0.71299 0.33980 -0.24005
 C48 C 0.71536 0.29674 -0.23605
 H49 H 0.80728 0.22731 -0.21467
 H50 H 0.69142 0.22365 -0.29379
 H51 H 0.80434 0.27897 -0.30117
 H52 H 0.69232 0.27985 -0.21412
 H53 H 0.75219 0.11082 -0.25284
 H54 H 0.74541 0.39419 -0.26480
 C55 C 1.28580 -0.29625 -0.23412
 C56 C 1.25274 -0.27482 -0.25582
 C57 C 1.22214 -0.29614 -0.28266
 C58 C 1.22443 -0.33911 -0.28877
 C59 C 1.25691 -0.36059 -0.26450
 C60 C 1.28885 -0.33936 -0.23851
 C61 C 1.25155 -0.22966 -0.25231
 C62 C 1.28433 -0.20699 -0.27270
 C63 C 1.28420 -0.16385 -0.27141
 C64 C 1.25011 -0.14369 -0.24926
 C65 C 1.21826 -0.16608 -0.22474
 C66 C 1.21843 -0.20935 -0.22877
 H67 H 1.30844 -0.27906 -0.21202
 H68 H 1.19663 -0.27907 -0.29926
 H69 H 1.30936 -0.22315 -0.29170
 H70 H 1.19325 -0.22741 -0.21307
 H71 H 1.25615 -0.39378 -0.26352
 H72 H 1.24758 -0.11065 -0.25227
 C73 C 0.20825 0.28435 0.73595
 C74 C 0.22949 0.25110 0.75798
 C75 C 0.20777 0.22013 0.78424
 C76 C 0.16461 0.22217 0.78990
 C77 C 0.14362 0.25479 0.76459
 C78 C 0.16514 0.28692 0.73913
 C79 C 0.27484 0.24977 0.75543
 C80 C 0.29761 0.27998 0.78119
 C81 C 0.34092 0.27869 0.78256
 C82 C 0.36102 0.24811 0.75252
 C83 C 0.33845 0.21863 0.72359
 C84 C 0.29520 0.21870 0.72784
 H85 H 0.22552 0.30748 0.71467
 H86 H 0.22481 0.19452 0.80078
 H87 H 0.28120 0.30419 0.80156
 H88 H 0.27711 0.19511 0.70869
 H89 H 0.11050 0.25441 0.76249
 H90 H 0.39407 0.24713 0.75126
 C91 C 0.70456 0.78163 0.72619
 C92 C 0.72479 0.75053 0.75402
 C93 C 0.70194 0.72038 0.77993
 C94 C 0.65866 0.72186 0.78146
 C95 C 0.63863 0.75251 0.75127
 C96 C 0.66123 0.78179 0.72155
 C97 C 0.77012 0.74905 0.75653
 C98 C 0.79198 0.77995 0.78253
 C99 C 0.83504 0.77775 0.78779
 C100 C 0.85598 0.74498 0.76323
 C101 C 0.83438 0.71297 0.73792
 C102 C 0.79127 0.71574 0.73462
 H103 H 0.72293 0.80520 0.70724
 H104 H 0.71828 0.69609 0.80039
 H105 H 0.77522 0.80560 0.79926
 H106 H 0.77393 0.69270 0.71343
 H107 H 0.60557 0.75364 0.75061
 H108 H 0.88910 0.74520 0.76175
 C109 C 0.70467 0.28062 0.21820
 C110 C 0.72739 0.25055 0.24435
 C111 C 0.70703 0.21922 0.27173
 C112 C 0.66375 0.21875 0.27521
 C113 C 0.64129 0.24802 0.24583
 C114 C 0.66153 0.27887 0.21650
 C115 C 0.77264 0.25222 0.24244
 C116 C 0.79352 0.28548 0.26485
 C117 C 0.83663 0.28835 0.26207
 C118 C 0.85849 0.25652 0.23683
 C119 C 0.83777 0.22383 0.21189
 C120 C 0.79469 0.22151 0.21652
 H121 H 0.72089 0.30505 0.19783
 H122 H 0.72511 0.19573 0.29116
 H123 H 0.77596 0.30833 0.28603
 H124 H 0.77810 0.19591 0.19937
 H125 H 0.60821 0.24677 0.24606
 H126 H 0.89160 0.25640 0.23870
 C127 C 0.20525 0.77922 0.21633
 C128 C 0.22712 0.74854 0.24270
 C129 C 0.20609 0.71552 0.26560
 C130 C 0.16285 0.71267 0.26303
 C131 C 0.14122 0.74489 0.23770
 C132 C 0.16206 0.77722 0.21155
 C133 C 0.27243 0.74997 0.24454
 C134 C 0.29298 0.78112 0.27182
 C135 C 0.33627 0.78136 0.27530
 C136 C 0.35859 0.75194 0.24606
 C137 C 0.33818 0.72126 0.21679
 C138 C 0.29501 0.71981 0.21848
 H139 H 0.22219 0.80463 0.19906
 H140 H 0.22376 0.69286 0.28710
 H141 H 0.27504 0.80466 0.29123
 H142 H 0.27866 0.69552 0.19819
 H143 H 0.10813 0.74568 0.24050
 H144 H 0.39167 0.75295 0.24630
 N145 N 1.07342 0.04233 0.05543
 N146 N 1.10479 0.06624 0.06701
 N147 N 1.04377 -0.04433 0.09255
 N148 N 1.05030 -0.07424 0.12654
 N149 N 1.07218 -0.04440 0.05617
 N150 N 1.09876 -0.07451 0.06435
 N151 N 1.04615 0.04230 0.09321
 N152 N 1.05880 0.06626 0.13176
 C153 C 1.09518 0.08161 0.11422
 C154 C 1.08462 -0.09299 0.10825
 N155 N 0.92734 -0.04254 0.05509
 N156 N 0.89593 -0.06649 0.06652
 N157 N 0.95690 0.04380 0.09256
 N158 N 0.95041 0.07363 0.12647
 N159 N 0.92858 0.04413 0.05609
 N160 N 0.90213 0.07432 0.06410
 N161 N 0.95452 -0.04277 0.09294
 N162 N 0.94175 -0.06694 0.13140
 Mn163 Mn 1.00033 -0.00025 0.09340
 C164 C 0.90540 -0.08214 0.11371
 C165 C 0.91624 0.09257 0.10801
 N166 N 1.07220 -0.04382 -0.05545
 N167 N 1.10306 -0.06838 -0.06672
 N168 N 1.04480 0.04366 -0.09288
 N169 N 1.05184 0.07367 -0.12659
 N170 N 1.07322 0.04307 -0.05652
 N171 N 1.10032 0.07283 -0.06448
 N172 N 1.04540 -0.04285 -0.09372
 N173 N 1.05814 -0.06640 -0.13263
 Mn174 Mn 1.07297 -0.00070 -0.00012
 C175 C 1.09384 -0.08274 -0.11449
 C176 C 1.08650 0.09177 -0.10823
 N177 N 0.92853 0.04435 -0.05550
 N178 N 0.89746 0.06865 -0.06697
 N179 N 0.95606 -0.04285 -0.09316
 N180 N 0.94902 -0.07260 -0.12704
 N181 N 0.92763 -0.04254 -0.05679
 N182 N 0.90054 -0.07223 -0.06487
 N183 N 0.95542 0.04368 -0.09372
 N184 N 0.94255 0.06720 -0.13274
 Mn185 Mn 0.92781 0.00084 -0.00029
 Mn186 Mn 1.00043 0.00041 -0.09394
 Cl187 Cl 1.00039 0.00009 -0.00022
 C188 C 0.90667 0.08322 -0.11476
 C189 C 0.91437 -0.09084 -0.10873
 N190 N 0.95667 0.57306 0.55664
 N191 N 0.93324 0.60463 0.56917
 N192 N 1.04322 0.54440 0.59353
 N193 N 1.07346 0.55054 0.62681
 N194 N 1.04311 0.57304 0.55724
 N195 N 1.07343 0.59943 0.56477
 N196 N 0.95699 0.54552 0.59425
 N197 N 0.93385 0.55822 0.63359
 C198 C 0.91850 0.59483 0.61674
 C199 C 1.09212 0.58488 0.60822
 N200 N 1.04369 0.42764 0.55694
 N201 N 1.06701 0.39599 0.56965
 N202 N 0.95680 0.45607 0.59319
 N203 N 0.92644 0.44963 0.62633
 N204 N 0.95721 0.42757 0.55693
 N205 N 0.92701 0.40097 0.56435
 N206 N 1.04307 0.45496 0.59462
 N207 N 1.06589 0.44201 0.63418
 Mn208 Mn 1.00001 0.50024 0.59441
 C209 C 1.08139 0.40551 0.61741
 C210 C 0.90805 0.41524 0.60770
 N211 N 1.04300 0.57400 0.44524
 N212 N 1.06597 0.60596 0.43245
 N213 N 0.95673 0.54430 0.40847
 N214 N 0.92629 0.55012 0.37530
 N215 N 0.95651 0.57276 0.44477
 N216 N 0.92578 0.59869 0.43738
 N217 N 1.04299 0.54652 0.40774
 N218 N 1.06589 0.55956 0.36831
 Mn219 Mn 0.99983 0.57344 0.50098
 C220 C 1.08076 0.59637 0.38489
 C221 C 0.90716 0.58407 0.39399
 N222 N 0.95797 0.42740 0.44502
 N223 N 0.93470 0.39572 0.43237
 N224 N 1.04436 0.45719 0.40868
 N225 N 1.07468 0.45128 0.37536
 N226 N 1.04445 0.42859 0.44500
 N227 N 1.07500 0.40249 0.43748
 N228 N 0.95811 0.45507 0.40756
 N229 N 0.93500 0.44243 0.36825
 Mn230 Mn 1.00083 0.42757 0.50096
 Mn231 Mn 1.00055 0.50076 0.40762
 Cl232 Cl 1.00032 0.50051 0.50101
 C233 C 0.91988 0.40568 0.38491
 C234 C 1.09366 0.41716 0.39402
 N235 N 0.57290 0.04247 0.55326
 N236 N 0.60418 0.06647 0.56467
 N237 N 0.54384 -0.04427 0.59097
 N238 N 0.55079 -0.07333 0.62595
 N239 N 0.57249 -0.04436 0.55488
 N240 N 0.59976 -0.07371 0.56446
 N241 N 0.54581 0.04221 0.59123
 N242 N 0.55858 0.06594 0.62987
 C243 C 0.59457 0.08177 0.61186
 C244 C 0.58564 -0.09170 0.60883
 N245 N 0.42768 -0.04323 0.55364
 N246 N 0.39651 -0.06738 0.56520
 N247 N 0.45669 0.04344 0.59115
 N248 N 0.44982 0.07240 0.62611
 N249 N 0.42790 0.04359 0.55524
 N250 N 0.40066 0.07292 0.56491
 N251 N 0.45483 -0.04301 0.59149
 N252 N 0.44223 -0.06692 0.63021
 Mn253 Mn 0.50029 -0.00040 0.59170
 C254 C 0.40631 -0.08286 0.61231
 C255 C 0.41492 0.09081 0.60914
 N256 N 0.57225 -0.04361 0.44284
 N257 N 0.60341 -0.06764 0.43119
 N258 N 0.54390 0.04343 0.40544
 N259 N 0.55102 0.07261 0.37068
 N260 N 0.57265 0.04312 0.44139
 N261 N 0.60011 0.07233 0.43201
 N262 N 0.54521 -0.04299 0.40484
 N263 N 0.55797 -0.06651 0.36593
 Mn264 Mn 0.57281 -0.00061 0.49808
 C265 C 0.59380 -0.08269 0.38389
 C266 C 0.58604 0.09062 0.38789
 N267 N 0.42761 0.04321 0.44322
 N268 N 0.39602 0.06668 0.43151
 N269 N 0.45599 -0.04354 0.40555
 N270 N 0.44881 -0.07254 0.37075
 N271 N 0.42740 -0.04355 0.44173
 N272 N 0.39997 -0.07280 0.43244
 N273 N 0.45458 0.04294 0.40507
 N274 N 0.44136 0.06621 0.36600
 Mn275 Mn 0.42742 0.00000 0.49847
 Mn276 Mn 0.49993 -0.00002 0.40471
 Cl277 Cl 0.50011 -0.00024 0.49822
 C278 C 0.40521 0.08161 0.38394
 C279 C 0.41392 -0.09079 0.38813
 N280 N 0.57195 0.54399 0.05487
 N281 N 0.60355 0.56710 0.06809
 N282 N 0.54375 0.45694 0.09151
 N283 N 0.54987 0.42678 0.12511
 N284 N 0.57238 0.45715 0.05538
 N285 N 0.59873 0.42675 0.06335
 N286 N 0.54441 0.54321 0.09233
 N287 N 0.55710 0.56564 0.13221
 C288 C 0.59362 0.58119 0.11583
 C289 C 0.58407 0.40799 0.10689
 N290 N 0.42730 0.45616 0.05506
 N291 N 0.39574 0.43291 0.06826
 N292 N 0.45553 0.54308 0.09160
 N293 N 0.44939 0.57308 0.12525
 N294 N 0.42693 0.54306 0.05548
 N295 N 0.40057 0.57343 0.06353
 N296 N 0.45487 0.45673 0.09244
 N297 N 0.44229 0.43397 0.13223
 Mn298 Mn 0.49964 0.49998 0.09237
 C299 C 0.40572 0.41855 0.11595
 C300 C 0.41519 0.59200 0.10711
 N301 N 0.57295 0.45817 -0.05662
 N302 N 0.60474 0.43518 -0.06932
 N303 N 0.54291 0.54447 -0.09347
 N304 N 0.54870 0.57449 -0.12746
 N305 N 0.57147 0.54504 -0.05729
 N306 N 0.59740 0.57580 -0.06564
 N307 N 0.54541 0.45812 -0.09402
 N308 N 0.55822 0.43524 -0.13339
 Mn309 Mn 0.57249 0.50110 -0.00092
 C310 C 0.59488 0.42031 -0.11671
 C311 C 0.58260 0.59404 -0.10943
 N312 N 0.42655 0.54225 -0.05658
 N313 N 0.39484 0.56537 -0.06926
 N314 N 0.45651 0.45602 -0.09328
 N315 N 0.45073 0.42607 -0.12716
 N316 N 0.42792 0.45541 -0.05710
 N317 N 0.40198 0.42467 -0.06534
 N318 N 0.45411 0.54235 -0.09400
 N319 N 0.44141 0.56543 -0.13335
 Mn320 Mn 0.42686 0.49922 -0.00080
 Mn321 Mn 0.49973 0.50024 -0.09413
 Cl322 Cl 0.49968 0.50013 -0.00087
 C323 C 0.40477 0.58033 -0.11668
 C324 C 0.41682 0.40650 -0.10906
 C325 C 1.18004 0.14539 0.20184
 C326 C 1.13872 0.16854 0.19505
 C327 C 1.11036 0.14771 0.16586
 C328 C 1.12552 0.10563 0.14651
 C329 C 1.16589 0.11512 0.11740
 C330 C 1.19410 0.13566 0.14624
 C331 C 1.16702 0.10343 0.22511
 C332 C 1.13887 0.08262 0.19598
 H333 H 1.13114 0.19743 0.21391
 H334 H 1.07950 0.15934 0.15910
 H335 H 1.17187 0.10693 0.07715
 H336 H 1.22382 0.14472 0.13056
 H337 H 1.17778 0.09169 0.26231
 H338 H 1.12625 0.05307 0.20802
 C339 C 1.19008 0.63897 0.68211
 C340 C 1.15018 0.63777 0.71425
 C341 C 1.11785 0.62006 0.68933
 C342 C 1.12805 0.60496 0.63432
 C343 C 1.14553 0.64288 0.60587
 C344 C 1.17810 0.66046 0.63063
 C345 C 1.19762 0.59373 0.66579
 C346 C 1.16503 0.57604 0.64108
 H347 H 1.14766 0.64982 0.75353
 H348 H 1.08770 0.61710 0.70721
 H349 H 1.13423 0.65430 0.56877
 H350 H 1.19458 0.68658 0.61423
 H351 H 1.22667 0.57759 0.66923
 H352 H 1.16630 0.54503 0.62531
 C353 C 0.68215 0.14106 0.69905
 C354 C 0.67693 0.09483 0.71202
 C355 C 0.64755 0.07567 0.68308
 C356 C 0.62559 0.10422 0.64428
 C357 C 0.60884 0.13968 0.67749
 C358 C 0.63837 0.15885 0.70650
 C359 C 0.68962 0.14264 0.64011
 C360 C 0.66021 0.12365 0.61155
 H361 H 0.69229 0.07890 0.74366
 H362 H 0.63914 0.04361 0.68928
 H363 H 0.57659 0.14830 0.67908
 H364 H 0.63104 0.18360 0.73331
 H365 H 0.71583 0.15791 0.62221
 H366 H 0.66134 0.12316 0.56930
 C367 C 0.67879 0.63741 0.21017
 C368 C 0.66982 0.59197 0.22425
 C369 C 0.64146 0.57376 0.19276
 C370 C 0.62412 0.60243 0.15044
 C371 C 0.60741 0.63978 0.18022
 C372 C 0.63587 0.65795 0.21180
 C373 C 0.69046 0.63679 0.15225
 C374 C 0.66207 0.61872 0.12112
 H375 H 0.68201 0.57604 0.25804
 H376 H 0.63080 0.54239 0.19908
 H377 H 0.57577 0.65034 0.17779
 H378 H 0.62816 0.68378 0.23677
 H379 H 0.71879 0.64983 0.13691
 H380 H 0.66624 0.61674 0.07925
 C381 C 0.82014 -0.14638 0.20062
 C382 C 0.86143 -0.16958 0.19387
 C383 C 0.88994 -0.14858 0.16494
 C384 C 0.87495 -0.10632 0.14579
 C385 C 0.83467 -0.11547 0.11644
 C386 C 0.80632 -0.13617 0.14501
 C387 C 0.83316 -0.10465 0.22423
 C388 C 0.86146 -0.08367 0.19535
 H389 H 0.86897 -0.19857 0.21269
 H390 H 0.92083 -0.16019 0.15832
 H391 H 0.82884 -0.10698 0.07621
 H392 H 0.77665 -0.14504 0.12911
 H393 H 0.82233 -0.09323 0.26148
 H394 H 0.87414 -0.05427 0.20764
 C395 C 0.80973 0.36039 0.68102
 C396 C 0.84929 0.36243 0.71380
 C397 C 0.88169 0.38033 0.68908
 C398 C 0.87201 0.39487 0.63360
 C399 C 0.85534 0.35653 0.60557
 C400 C 0.82264 0.33875 0.62999
 C401 C 0.80187 0.40544 0.66342
 C402 C 0.83460 0.42335 0.63908
 H403 H 0.85160 0.35078 0.75339
 H404 H 0.91158 0.38383 0.70744
 H405 H 0.86711 0.34511 0.56877
 H406 H 0.80655 0.31253 0.61339
 H407 H 0.77246 0.42113 0.66522
 H408 H 0.83304 0.45409 0.62231
 C409 C 0.31808 -0.14083 0.69999
 C410 C 0.36197 -0.15749 0.71009
 C411 C 0.39182 -0.13878 0.68098
 C412 C 0.37517 -0.10487 0.64502
 C413 C 0.34175 -0.12609 0.61230
 C414 C 0.31201 -0.14460 0.64096
 C415 C 0.32211 -0.09411 0.71023
 C416 C 0.35179 -0.07543 0.68117
 H417 H 0.36906 -0.18127 0.73853
 H418 H 0.42416 -0.14677 0.68413
 H419 H 0.34164 -0.12706 0.57004
 H420 H 0.28649 -0.16094 0.62310
 H421 H 0.30585 -0.07735 0.74033
 H422 H 0.35951 -0.04304 0.68569
 C423 C 0.32137 0.36018 0.21019
 C424 C 0.36381 0.33845 0.20833
 C425 C 0.39187 0.35735 0.17668
 C426 C 0.37547 0.39656 0.15045
 C427 C 0.33623 0.38288 0.12190
 C428 C 0.30817 0.36410 0.15298
 C429 C 0.33236 0.40458 0.22714
 C430 C 0.36028 0.42354 0.19557
 H431 H 0.37183 0.31164 0.23160
 H432 H 0.42320 0.34629 0.17237
 H433 H 0.33090 0.38711 0.08050
 H434 H 0.27905 0.35270 0.13797
 H435 H 0.32195 0.41902 0.26284
 H436 H 0.37223 0.45413 0.20376
 C437 C 0.81615 0.14393 -0.19615
 C438 C 0.80423 0.10095 -0.17507
 C439 C 0.83512 0.08122 -0.14987
 C440 C 0.87521 0.10612 -0.14632
 C441 C 0.88612 0.11683 -0.20294
 C442 C 0.85519 0.13662 -0.22897
 C443 C 0.83152 0.16687 -0.14727
 C444 C 0.86250 0.14723 -0.12158
 H445 H 0.77351 0.08789 -0.17619
 H446 H 0.83069 0.05122 -0.13177
 H447 H 0.91547 0.10972 -0.22097
 H448 H 0.85821 0.14631 -0.26928
 H449 H 0.81835 0.19540 -0.13289
 H450 H 0.87603 0.15939 -0.08614
 C451 C 0.80851 0.63785 0.32037
 C452 C 0.80142 0.59227 0.33630
 C453 C 0.83422 0.57467 0.36080
 C454 C 0.87093 0.60391 0.36795
 C455 C 0.88101 0.61975 0.31315
 C456 C 0.84855 0.63736 0.28834
 C457 C 0.82028 0.65874 0.37232
 C458 C 0.85303 0.64126 0.39683
 H459 H 0.77247 0.57585 0.33326
 H460 H 0.83317 0.54354 0.37647
 H461 H 0.91119 0.61725 0.29526
 H462 H 0.85110 0.64976 0.24913
 H463 H 0.80343 0.68429 0.38935
 H464 H 0.86407 0.65225 0.43419
 C465 C 0.31338 0.14030 0.30288
 C466 C 0.30635 0.09367 0.31230
 C467 C 0.33779 0.07481 0.33776
 C468 C 0.37335 0.10372 0.35244
 C469 C 0.38687 0.12363 0.30099
 C470 C 0.35551 0.14279 0.27507
 C471 C 0.32153 0.15723 0.35808
 C472 C 0.35304 0.13857 0.38343
 H473 H 0.27841 0.07676 0.30389
 H474 H 0.33661 0.04243 0.34861
 H475 H 0.41815 0.12281 0.28621
 H476 H 0.36018 0.15818 0.23792
 H477 H 0.30352 0.18146 0.37624
 H478 H 0.36211 0.14731 0.42258
 C479 C 0.32018 0.63918 -0.20932
 C480 C 0.33017 0.59453 -0.22612
 C481 C 0.35824 0.57540 -0.19505
 C482 C 0.37447 0.60247 -0.15059
 C483 C 0.39114 0.64126 -0.17757
 C484 C 0.36297 0.66032 -0.20874
 C485 C 0.30770 0.63581 -0.15178
 C486 C 0.33589 0.61686 -0.12120
 H487 H 0.31913 0.58003 -0.26147
 H488 H 0.36966 0.54462 -0.20323
 H489 H 0.42269 0.65193 -0.17406
 H490 H 0.37103 0.68692 -0.23242
 H491 H 0.27898 0.64769 -0.13619
 H492 H 0.33112 0.61297 -0.07963
 C493 C 1.18408 -0.14394 -0.19523
 C494 C 1.14547 -0.13569 -0.22851
 C495 C 1.11460 -0.11573 -0.20270
 C496 C 1.12516 -0.10580 -0.14584
 C497 C 1.13701 -0.14734 -0.12133
 C498 C 1.16793 -0.16717 -0.14680
 C499 C 1.19645 -0.10138 -0.17353
 C500 C 1.16564 -0.08145 -0.14859
 H501 H 1.14268 -0.14492 -0.26896
 H502 H 1.08552 -0.10799 -0.22103
 H503 H 1.12302 -0.15962 -0.08615
 H504 H 1.18060 -0.19598 -0.13242
 H505 H 1.22737 -0.08877 -0.17424
 H506 H 1.17034 -0.05168 -0.13020
 C507 C 1.19142 0.36271 0.31966
 C508 C 1.15105 0.36269 0.28846
 C509 C 1.11885 0.38057 0.31349
 C510 C 1.12960 0.39707 0.36769
 C511 C 1.14793 0.36005 0.39706
 C512 C 1.18035 0.34232 0.37219
 C513 C 1.19863 0.40843 0.33407
 C514 C 1.16617 0.42627 0.35895
 H515 H 1.14812 0.34975 0.24969
 H516 H 1.08844 0.38278 0.29620
 H517 H 1.13728 0.34935 0.43482
 H518 H 1.19732 0.31676 0.38912
 H519 H 1.22736 0.42494 0.32905
 H520 H 1.16726 0.45771 0.37336
 C521 C 0.68306 -0.14082 0.29804
 C522 C 0.68711 -0.14609 0.35725
 C523 C 0.65697 -0.12760 0.38502
 C524 C 0.62517 -0.10471 0.35148
 C525 C 0.65048 -0.07503 0.31754
 C526 C 0.68063 -0.09373 0.28936
 C527 C 0.63909 -0.15609 0.28532
 C528 C 0.60881 -0.13730 0.31355
 H529 H 0.71167 -0.16338 0.37589
 H530 H 0.65577 -0.12959 0.42721
 H531 H 0.64390 -0.04231 0.31396
 H532 H 0.69841 -0.07643 0.26111
 H533 H 0.63235 -0.17919 0.25600
 H534 H 0.57641 -0.14448 0.30867
 C535 C 0.67997 0.36231 -0.20926
 C536 C 0.69155 0.36389 -0.15137
 C537 C 0.66318 0.38257 -0.12080
 C538 C 0.62536 0.39845 -0.15064
 C539 C 0.64288 0.42634 -0.19370
 C540 C 0.67122 0.40752 -0.22461
 C541 C 0.63696 0.34185 -0.21042
 C542 C 0.60853 0.36063 -0.17940
 H543 H 0.71978 0.35101 -0.13562
 H544 H 0.66728 0.38526 -0.07899
 H545 H 0.63237 0.45763 -0.20089
 H546 H 0.68358 0.42281 -0.25881
 H547 H 0.62915 0.31568 -0.23476
 H548 H 0.57683 0.35023 -0.17678
 C549 C 1.14319 0.18949 -0.18239
 C550 C 1.16435 0.17632 -0.13106
 C551 C 1.14599 0.14389 -0.10648
 C552 C 1.10755 0.12759 -0.13461
 C553 C 1.07979 0.16555 -0.14072
 C554 C 1.09826 0.19801 -0.16522
 C555 C 1.14066 0.14971 -0.21480
 C556 C 1.12215 0.11755 -0.18993
 H557 H 1.19072 0.19206 -0.11437
 H558 H 1.15711 0.13204 -0.06952
 H559 H 1.04905 0.16764 -0.12434
 H560 H 1.08301 0.22767 -0.16753
 H561 H 1.15242 0.14707 -0.25424
 H562 H 1.11828 0.08760 -0.20809
 C563 C 1.14142 0.68112 0.29260
 C564 C 1.13591 0.69446 0.34951
 C565 C 1.11633 0.66634 0.37992
 C566 C 1.10353 0.62684 0.35109
 C567 C 1.07789 0.64192 0.30460
 C568 C 1.09762 0.66989 0.27375
 C569 C 1.16310 0.63861 0.29582
 C570 C 1.14342 0.61052 0.32677
 H571 H 1.14683 0.72368 0.36484
 H572 H 1.11092 0.67180 0.42104
 H573 H 1.04757 0.62999 0.29518
 H574 H 1.08411 0.68049 0.23749
 H575 H 1.19035 0.63042 0.27369
 H576 H 1.15434 0.57911 0.33166
 C577 C 0.64226 0.18523 0.30730
 C578 C 0.59794 0.19479 0.32548
 C579 C 0.57969 0.16341 0.35231
 C580 C 0.60718 0.12534 0.35940
 C581 C 0.62049 0.11341 0.30412
 C582 C 0.63873 0.14458 0.27704
 C583 C 0.66456 0.17347 0.35837
 C584 C 0.64640 0.14205 0.38532
 H585 H 0.58295 0.22448 0.32140
 H586 H 0.54925 0.16630 0.36936
 H587 H 0.61607 0.08291 0.28768
 H588 H 0.64977 0.14064 0.23745
 H589 H 0.69138 0.18952 0.37329
 H590 H 0.65817 0.13125 0.42247
 C591 C 0.63694 0.69031 -0.18913
 C592 C 0.59047 0.69647 -0.17810
 C593 C 0.57275 0.66464 -0.15137
 C594 C 0.60263 0.62959 -0.13750
 C595 C 0.62172 0.61666 -0.18953
 C596 C 0.63951 0.64814 -0.21636
 C597 C 0.65516 0.68278 -0.13423
 C598 C 0.63757 0.65092 -0.10767
 H599 H 0.57319 0.72432 -0.18612
 H600 H 0.54087 0.66542 -0.13874
 H601 H 0.62122 0.58526 -0.20414
 H602 H 0.65401 0.64347 -0.25401
 H603 H 0.67901 0.70181 -0.11693
 H604 H 0.64672 0.64283 -0.06830
 C605 C 0.85767 -0.18795 -0.18315
 C606 C 0.83680 -0.17555 -0.13153
 C607 C 0.85520 -0.14334 -0.10675
 C608 C 0.89331 -0.12645 -0.13524
 C609 C 0.92125 -0.16416 -0.14232
 C610 C 0.90276 -0.19639 -0.16703
 C611 C 0.85958 -0.14784 -0.21513
 C612 C 0.87813 -0.11584 -0.19021
 H613 H 0.81042 -0.19148 -0.11505
 H614 H 0.84418 -0.13187 -0.06961
 H615 H 0.95228 -0.16615 -0.12684
 H616 H 0.91828 -0.22579 -0.17075
 H617 H 0.84736 -0.14491 -0.25431
 H618 H 0.88163 -0.08564 -0.20805
 C619 C 0.85909 0.32153 0.29300
 C620 C 0.86466 0.30789 0.34979
 C621 C 0.88427 0.33584 0.38014
 C622 C 0.89700 0.37547 0.35122
 C623 C 0.92257 0.36056 0.30464
 C624 C 0.90279 0.33267 0.27397
 C625 C 0.83726 0.36383 0.29636
 C626 C 0.85702 0.39187 0.32712
 H627 H 0.85370 0.27859 0.36504
 H628 H 0.88971 0.33021 0.42125
 H629 H 0.95297 0.37237 0.29521
 H630 H 0.91628 0.32180 0.23789
 H631 H 0.80968 0.37176 0.27476
 H632 H 0.84593 0.42317 0.33232
 C633 C 0.35785 -0.18523 0.30738
 C634 C 0.33583 -0.17410 0.35883
 C635 C 0.35391 -0.14278 0.38583
 C636 C 0.39281 -0.12547 0.35960
 C637 C 0.42055 -0.16326 0.35183
 C638 C 0.40239 -0.19455 0.32493
 C639 C 0.36084 -0.14424 0.27745
 C640 C 0.37902 -0.11317 0.30457
 H641 H 0.30917 -0.19045 0.37386
 H642 H 0.34227 -0.13238 0.42318
 H643 H 0.45114 -0.16606 0.36847
 H644 H 0.41763 -0.22405 0.32043
 H645 H 0.34951 -0.14002 0.23802
 H646 H 0.38307 -0.08248 0.28833
 C647 C 0.36258 0.31028 -0.18826
 C648 C 0.34444 0.31763 -0.13331
 C649 C 0.36199 0.34948 -0.10692
 C650 C 0.39681 0.37097 -0.13696
 C651 C 0.42676 0.33603 -0.15086
 C652 C 0.40907 0.30422 -0.17742
 C653 C 0.35984 0.35250 -0.21562
 C654 C 0.37760 0.38397 -0.18895
 H655 H 0.32066 0.29851 -0.11586
 H656 H 0.35288 0.35746 -0.06754
 H657 H 0.45868 0.33532 -0.13839
 H658 H 0.42642 0.27645 -0.18550
 H659 H 0.34524 0.35721 -0.25321
 H660 H 0.37798 0.41540 -0.20366
 C661 C 1.14060 -0.19033 0.18361
 C662 C 1.16116 -0.17840 0.13138
 C663 C 1.14299 -0.14611 0.10642
 C664 C 1.10529 -0.12873 0.13509
 C665 C 1.07698 -0.16612 0.14295
 C666 C 1.09527 -0.19845 0.16787
 C667 C 1.13925 -0.14998 0.21498
 C668 C 1.12091 -0.11797 0.18972
 H669 H 1.18699 -0.19484 0.11445
 H670 H 1.15371 -0.13511 0.06883
 H671 H 1.04595 -0.16798 0.12744
 H672 H 1.07953 -0.22781 0.17141
 H673 H 1.15163 -0.14687 0.25405
 H674 H 1.11780 -0.08766 0.20716
 C675 C 1.14239 0.32036 0.70857
 C676 C 1.13734 0.30768 0.65144
 C677 C 1.11767 0.33596 0.62145
 C678 C 1.10433 0.37497 0.65098
 C679 C 1.07860 0.35896 0.69697
 C680 C 1.09843 0.33072 0.72728
 C681 C 1.16381 0.36297 0.70630
 C682 C 1.14400 0.39135 0.67591
 H683 H 1.14866 0.27878 0.63570
 H684 H 1.11259 0.33096 0.58017
 H685 H 1.04804 0.37029 0.70631
 H686 H 1.08477 0.31911 0.76297
 H687 H 1.19124 0.37078 0.72827
 H688 H 1.15487 0.42283 0.67144
 C689 C 0.64106 -0.18648 0.69056
 C690 C 0.63720 -0.14570 0.72062
 C691 C 0.61930 -0.11457 0.69316
 C692 C 0.60652 -0.12649 0.63769
 C693 C 0.64594 -0.14326 0.61239
 C694 C 0.66377 -0.17472 0.63958
 C695 C 0.59685 -0.19601 0.67147
 C696 C 0.57893 -0.16458 0.64442
 H697 H 0.64777 -0.14161 0.76039
 H698 H 0.61476 -0.08406 0.70949
 H699 H 0.65797 -0.13260 0.57527
 H700 H 0.69052 -0.19091 0.62470
 H701 H 0.58187 -0.22582 0.67456
 H702 H 0.54879 -0.16759 0.62656
 C703 C 0.63879 0.31208 0.18571
 C704 C 0.64103 0.35401 0.21339
 C705 C 0.62312 0.38547 0.18677
 C706 C 0.60437 0.37259 0.13453
 C707 C 0.63963 0.35180 0.10470
 C708 C 0.65737 0.32002 0.13120
 C709 C 0.59253 0.30548 0.17456
 C710 C 0.57468 0.33720 0.14793
 H711 H 0.65545 0.35850 0.25109
 H712 H 0.62239 0.41680 0.20161
 H713 H 0.64903 0.36031 0.06556
 H714 H 0.68166 0.30143 0.11422
 H715 H 0.57545 0.27758 0.18312
 H716 H 0.54276 0.33630 0.13547
 C717 C 0.86045 0.18969 0.18286
 C718 C 0.90602 0.19747 0.16831
 C719 C 0.92427 0.16524 0.14340
 C720 C 0.89564 0.12824 0.13467
 C721 C 0.87921 0.11713 0.18891
 C722 C 0.86089 0.14912 0.21400
 C723 C 0.84032 0.17847 0.13038
 C724 C 0.85848 0.14627 0.10543
 H725 H 0.92213 0.22646 0.17323
 H726 H 0.95564 0.16678 0.12891
 H727 H 0.88177 0.08663 0.20617
 H728 H 0.84791 0.14591 0.25277
 H729 H 0.81461 0.19517 0.11351
 H730 H 0.84795 0.13558 0.06770
 C731 C 0.85712 0.67957 0.70752
 C732 C 0.90085 0.66885 0.72674
 C733 C 0.92081 0.64073 0.69655
 C734 C 0.89540 0.62520 0.65016
 C735 C 0.85543 0.60884 0.67449
 C736 C 0.83549 0.63710 0.70476
 C737 C 0.86274 0.69265 0.65052
 C738 C 0.88252 0.66449 0.62065
 H739 H 0.91425 0.68015 0.76266
 H740 H 0.95122 0.62919 0.70622
 H741 H 0.84445 0.57744 0.66974
 H742 H 0.80784 0.62926 0.72636
 H743 H 0.85168 0.72172 0.63478
 H744 H 0.88797 0.66977 0.57946
 C745 C 0.35972 0.18524 0.69104
 C746 C 0.40414 0.19454 0.67283
 C747 C 0.42199 0.16327 0.64557
 C748 C 0.39411 0.12551 0.63809
 C749 C 0.38074 0.11314 0.69330
 C750 C 0.36289 0.14418 0.72079
 C751 C 0.33725 0.17420 0.63989
 C752 C 0.35502 0.14290 0.61252
 H753 H 0.41949 0.22403 0.67712
 H754 H 0.45243 0.16609 0.62846
 H755 H 0.38485 0.08242 0.70940
 H756 H 0.35189 0.13990 0.76037
 H757 H 0.31048 0.19058 0.62533
 H758 H 0.34302 0.13256 0.57533
 C759 C 0.36077 0.68796 0.18599
 C760 C 0.40705 0.69440 0.17470
 C761 C 0.42478 0.66269 0.14808
 C762 C 0.39497 0.62742 0.13479
 C763 C 0.37619 0.61448 0.18711
 C764 C 0.35840 0.64595 0.21373
 C765 C 0.34214 0.68022 0.13152
 C766 C 0.35976 0.64844 0.10503
 H767 H 0.42424 0.72220 0.18322
 H768 H 0.45669 0.66351 0.13557
 H769 H 0.37682 0.58311 0.20202
 H770 H 0.34398 0.64139 0.25147
 H771 H 0.31789 0.69893 0.11457
 H772 H 0.35028 0.64007 0.06594
   
