data_POSCAR
  _audit_creation_date              2014-09-24
  _audit_creation_method            'ToBaCCo'
  _symmetry_space_group_name_H-M    'P1'
  _symmetry_Int_Tables_number       1
  _symmetry_cell_setting            triclinic
  loop_
  _symmetry_equiv_pos_as_xyz
 x,y,z
_cell_length_a 29.3776
_cell_length_b 30.2281
_cell_length_c 29.0610
_cell_angle_alpha 90.113800
_cell_angle_beta 90.244200
_cell_angle_gamma 89.835700
loop_
  _atom_site_label
  _atom_site_type_symbol
  _atom_site_fract_x
  _atom_site_fract_y
  _atom_site_fract_z
O1 O 0.31907 0.37422 0.03470
 O2 O 0.37393 0.30383 -0.05121
 O3 O 0.31325 0.36746 -0.05457
 O4 O 0.37418 0.30739 0.03868
 O5 O 0.31731 0.25983 0.04182
 O6 O 0.25622 0.32037 -0.04947
 O7 O 0.31759 0.25583 -0.04687
 O8 O 0.26119 0.32780 0.03860
 Cu9 Cu 0.35075 0.34290 -0.00877
 Cu10 Cu 0.28237 0.28622 -0.00369
 C11 C 0.28077 0.36341 0.05086
 C12 C 0.35595 0.26740 -0.06287
 C13 C 0.27370 0.35472 -0.06700
 C14 C 0.35602 0.27291 0.05567
 O15 O 0.62552 0.68301 -0.04259
 O16 O 0.67202 0.62510 0.05592
 O17 O 0.62042 0.69586 0.04760
 O18 O 0.69172 0.62826 -0.03121
 O19 O 0.74578 0.67848 -0.02520
 O20 O 0.67577 0.74497 0.05226
 O21 O 0.72733 0.67434 0.06208
 O22 O 0.67750 0.73551 -0.03582
 Cu23 Cu 0.64726 0.65411 0.00743
 Cu24 Cu 0.71212 0.71306 0.01373
 C25 C 0.64228 0.71937 -0.05535
 C26 C 0.70767 0.63907 0.07543
 C27 C 0.63624 0.73232 0.06291
 C28 C 0.73148 0.64213 -0.04130
 O29 O 0.62712 0.31850 1.05300
 O30 O 0.67811 0.39026 0.96613
 O31 O 0.61795 0.32899 0.96510
 O32 O 0.68765 0.38224 1.05508
 O33 O 0.74254 0.33357 1.04350
 O34 O 0.67128 0.27807 0.95550
 O35 O 0.73250 0.34061 0.95547
 O36 O 0.68126 0.26864 1.04268
 Cu37 Cu 0.64738 0.36002 1.01141
 Cu38 Cu 0.71253 0.30026 0.99852
 C39 C 0.64445 0.28084 1.06149
 C40 C 0.71403 0.37754 0.94600
 C41 C 0.63250 0.29425 0.94544
 C42 C 0.72755 0.36798 1.06370
 O43 O 0.39982 0.65404 1.04850
 O44 O 0.34899 0.59239 0.95189
 O45 O 0.40881 0.65469 0.95926
 O46 O 0.34260 0.58884 1.04198
 O47 O 0.28634 0.63721 1.03796
 O48 O 0.35355 0.70433 0.95609
 O49 O 0.29318 0.64141 0.94855
 O50 O 0.34417 0.70324 1.04427
 Cu51 Cu 0.38053 0.61750 1.00088
 Cu52 Cu 0.31357 0.67630 0.99643
 C53 C 0.38106 0.68958 1.06213
 C54 C 0.31242 0.60660 0.93370
 C55 C 0.39281 0.69085 0.94394
 C56 C 0.30315 0.60148 1.05400
 O57 O -0.04526 0.37865 0.31784
 O58 O 0.03633 0.30975 0.38360
 O59 O 0.04278 0.37956 0.32830
 O60 O -0.05208 0.32624 0.38586
 O61 O -0.05121 0.27155 0.33532
 O62 O 0.04058 0.33003 0.27228
 O63 O 0.03558 0.26057 0.32730
 O64 O -0.04737 0.32654 0.26445
 Cu65 Cu -0.00348 0.35279 0.35915
 Cu66 Cu -0.00585 0.29231 0.29452
 C67 C -0.06030 0.36364 0.27968
 C68 C 0.04902 0.27280 0.36661
 C69 C 0.05710 0.36518 0.29012
 C70 C -0.06706 0.28941 0.37184
 O71 O 0.04469 0.66562 0.60536
 O72 O -0.04430 0.60477 0.66682
 O73 O -0.04404 0.66108 0.60024
 O74 O 0.04403 0.61066 0.67456
 O75 O 0.03639 0.66550 0.72430
 O76 O -0.05026 0.71685 0.64900
 O77 O -0.05114 0.65991 0.71639
 O78 O 0.03736 0.72152 0.65389
 Cu79 Cu 0.00101 0.63005 0.63184
 Cu80 Cu -0.00732 0.69655 0.69087
 C81 C 0.05545 0.70425 0.61845
 C82 C -0.06268 0.62176 0.70211
 C83 C -0.06206 0.69768 0.61185
 C84 C 0.05448 0.62902 0.71256
 O85 O 0.96606 0.69491 0.36967
 O86 O 1.05102 0.62940 0.30522
 O87 O 1.05614 0.68006 0.37642
 O88 O 0.96531 0.63005 0.30853
 O89 O 0.96951 0.68358 0.25699
 O90 O 1.05778 0.73737 0.32949
 O91 O 1.05733 0.68454 0.25591
 O92 O 0.97131 0.74838 0.31836
 Cu93 Cu 1.00859 0.65459 0.34554
 Cu94 Cu 1.01469 0.71886 0.28520
 C95 C 0.95412 0.73281 0.35467
 C96 C 1.06734 0.64560 0.26839
 C97 C 1.07150 0.71776 0.36592
 C98 C 0.95283 0.64702 0.27068
 O99 O 0.95612 0.33743 0.60325
 O100 O 1.04615 0.38613 0.67634
 O101 O 1.04457 0.33176 0.60835
 O102 O 0.95793 0.39762 0.66787
 O103 O 0.95028 0.34514 0.72007
 O104 O 1.03549 0.27738 0.65811
 O105 O 1.03687 0.33261 0.72715
 O106 O 0.94761 0.28410 0.65431
 Cu107 Cu 1.00182 0.36870 0.63398
 Cu108 Cu 0.99137 0.30439 0.69490
 C109 C 0.93729 0.30175 0.61606
 C110 C 1.05685 0.36742 0.71407
 C111 C 1.05474 0.29341 0.62268
 C112 C 0.94013 0.38326 0.70452
 O113 O 0.37752 0.04624 0.31040
 O114 O 0.30677 -0.02767 0.38177
 O115 O 0.37348 -0.04054 0.32743
 O116 O 0.32245 0.05577 0.38186
 O117 O 0.26809 0.05748 0.32901
 O118 O 0.32298 -0.03806 0.27085
 O119 O 0.25412 -0.02642 0.32721
 O120 O 0.32361 0.04719 0.25728
 Cu121 Cu 0.35072 0.00907 0.35450
 Cu122 Cu 0.28723 0.01040 0.29063
 C123 C 0.36241 0.05908 0.27144
 C124 C 0.26786 -0.03919 0.36630
 C125 C 0.35765 -0.05572 0.29014
 C126 C 0.28577 0.07193 0.36634
 O127 O 0.69251 -0.04659 0.61668
 O128 O 0.62555 0.04112 0.67186
 O129 O 0.69693 0.03929 0.62049
 O130 O 0.62267 -0.04529 0.67140
 O131 O 0.66773 -0.04755 0.73242
 O132 O 0.74292 0.03575 0.68080
 O133 O 0.67027 0.03815 0.73314
 O134 O 0.73881 -0.04908 0.67674
 Cu135 Cu 0.65484 -0.00269 0.63907
 Cu136 Cu 0.70933 -0.00617 0.71205
 C137 C 0.72756 -0.06208 0.63668
 C138 C 0.63628 0.05448 0.71181
 C139 C 0.73272 0.05149 0.64167
 C140 C 0.63226 -0.06023 0.71106
 O141 O 0.32743 1.03921 0.62564
 O142 O 0.37889 0.95621 0.70215
 O143 O 0.32720 0.95289 0.62986
 O144 O 0.38156 1.04160 0.69656
 O145 O 0.32196 1.04493 0.74258
 O146 O 0.26709 0.95611 0.67521
 O147 O 0.31955 0.96033 0.74849
 O148 O 0.26689 1.04165 0.67046
 Cu149 Cu 0.35970 0.99716 0.65888
 Cu150 Cu 0.28765 1.00121 0.71359
 C151 C 0.28804 1.05405 0.63473
 C152 C 0.35850 0.94485 0.73873
 C153 C 0.28784 0.93963 0.64087
 C154 C 0.36162 1.05760 0.73154
 O155 O 0.69152 1.03574 0.37393
 O156 O 0.62182 0.95547 0.30843
 O157 O 0.68894 0.94862 0.36814
 O158 O 0.61933 1.04035 0.32436
 O159 O 0.66611 1.04805 0.26560
 O160 O 0.73646 0.95523 0.30991
 O161 O 0.66849 0.96299 0.24963
 O162 O 0.73948 1.03987 0.31578
 Cu163 Cu 0.65099 0.99392 0.34964
 Cu164 Cu 0.70698 1.00178 0.27915
 C165 C 0.72740 1.05155 0.35577
 C166 C 0.63301 0.94649 0.26717
 C167 C 0.72498 0.93691 0.34749
 C168 C 0.63093 1.06018 0.28794
 O169 O 0.87247 0.80811 0.44836
 O170 O 0.80493 0.87014 0.53364
 O171 O 0.87332 0.81631 0.53726
 O172 O 0.80685 0.86709 0.44365
 O173 O 0.75666 0.81298 0.44747
 O174 O 0.82540 0.76007 0.53920
 O175 O 0.75563 0.81511 0.53618
 O176 O 0.82297 0.75331 0.45101
 Cu177 Cu 0.84421 0.84595 0.49014
 Cu178 Cu 0.78522 0.77987 0.49361
 C179 C 0.85976 0.76962 0.43614
 C180 C 0.76860 0.85312 0.54921
 C181 C 0.86126 0.77929 0.55350
 C182 C 0.76980 0.84951 0.43053
 O183 O 0.10843 0.18475 0.46430
 O184 O 0.16278 0.10596 0.54402
 O185 O 0.10222 0.16767 0.55156
 O186 O 0.15782 0.11370 0.45381
 O187 O 0.21615 0.15911 0.46035
 O188 O 0.15943 0.21473 0.55797
 O189 O 0.21987 0.15275 0.55265
 O190 O 0.16526 0.23166 0.47444
 Cu191 Cu 0.12725 0.13828 0.50243
 Cu192 Cu 0.19671 0.19271 0.51103
 C193 C 0.12713 0.22203 0.45671
 C194 C 0.20064 0.11644 0.56234
 C195 C 0.12040 0.20106 0.57040
 C196 C 0.19625 0.12704 0.44022
 O197 O 0.18119 0.89576 0.46305
 O198 O 0.10333 0.83419 0.53849
 O199 O 0.16413 0.89492 0.55058
 O200 O 0.11578 0.83996 0.44906
 O201 O 0.16559 0.78546 0.45603
 O202 O 0.21682 0.84283 0.55611
 O203 O 0.15477 0.78112 0.54497
 O204 O 0.23218 0.84217 0.46910
 Cu205 Cu 0.13586 0.87137 0.49957
 Cu206 Cu 0.19728 0.80734 0.50723
 C207 C 0.22011 0.87961 0.45366
 C208 C 0.11604 0.79717 0.55480
 C209 C 0.19931 0.87906 0.56983
 C210 C 0.13203 0.80341 0.43535
 O211 O 0.80955 0.11329 0.45704
 O212 O 0.88161 0.17404 0.53903
 O213 O 0.81387 0.11916 0.54527
 O214 O 0.87691 0.16791 0.44875
 O215 O 0.82868 0.22413 0.44783
 O216 O 0.76538 0.17523 0.54414
 O217 O 0.83404 0.23074 0.53709
 O218 O 0.75999 0.16851 0.45714
 Cu219 Cu 0.85068 0.13825 0.49768
 Cu220 Cu 0.79247 0.20563 0.49627
 C221 C 0.77179 0.12993 0.44451
 C222 C 0.87031 0.21264 0.55195
 C223 C 0.77805 0.13807 0.55996
 C224 C 0.86361 0.20449 0.43206
 O225 O 0.45414 0.88380 0.82794
 O226 O 0.54449 0.83693 0.90141
 O227 O 0.54152 0.89521 0.83709
 O228 O 0.45604 0.82751 0.89599
 O229 O 0.46811 0.77300 0.84678
 O230 O 0.55080 0.84296 0.78459
 O231 O 0.55580 0.78458 0.84954
 O232 O 0.46440 0.82991 0.77753
 Cu233 Cu 0.49764 0.86613 0.87075
 Cu234 Cu 0.51047 0.80204 0.80958
 C235 C 0.44468 0.86531 0.78977
 C236 C 0.56595 0.80297 0.88750
 C237 C 0.56051 0.88089 0.80087
 C238 C 0.44823 0.78844 0.88222
 O239 O 0.54255 0.20098 0.12643
 O240 O 0.45918 0.13312 0.18998
 O241 O 0.45490 0.19619 0.12508
 O242 O 0.54752 0.12931 0.17145
 O243 O 0.55109 0.17191 0.23328
 O244 O 0.45957 0.24287 0.18342
 O245 O 0.46389 0.17996 0.24815
 O246 O 0.54687 0.24604 0.18632
 Cu247 Cu 0.49940 0.16019 0.14824
 Cu248 Cu 0.50549 0.21426 0.21875
 C249 C 0.55873 0.23532 0.14608
 C250 C 0.44829 0.14482 0.23067
 C251 C 0.44260 0.23173 0.14459
 C252 C 0.56506 0.13865 0.21002
 O253 O 0.54544 0.10965 0.83363
 O254 O 0.45646 0.18306 0.87966
 O255 O 0.45860 0.12080 0.81828
 O256 O 0.54408 0.17318 0.89362
 O257 O 0.55781 0.22284 0.83976
 O258 O 0.47393 0.16910 0.76355
 O259 O 0.47128 0.23231 0.82572
 O260 O 0.55978 0.15838 0.77902
 Cu261 Cu 0.49962 0.14184 0.86180
 Cu262 Cu 0.51717 0.20063 0.79659
 C263 C 0.56730 0.12125 0.79811
 C264 C 0.44893 0.22023 0.86078
 C265 C 0.45221 0.13567 0.77789
 C266 C 0.56519 0.20715 0.87963
 O267 O 0.53341 0.87920 0.18464
 O268 O 0.44932 0.82057 0.11287
 O269 O 0.44589 0.88668 0.16937
 O270 O 0.53639 0.81511 0.12417
 O271 O 0.52495 0.76677 0.17982
 O272 O 0.43458 0.83939 0.22602
 O273 O 0.43890 0.77236 0.16898
 O274 O 0.52170 0.83189 0.24114
 Cu275 Cu 0.49258 0.85530 0.14231
 Cu276 Cu 0.47903 0.79806 0.20996
 C277 C 0.54152 0.86581 0.22532
 C278 C 0.43079 0.78581 0.12841
 C279 C 0.42487 0.87535 0.20543
 C280 C 0.54508 0.77821 0.14312
 O281 O 0.83626 0.46374 0.89909
 O282 O 0.88786 0.55642 0.83790
 O283 O 0.81999 0.54828 0.89565
 O284 O 0.89560 0.46973 0.83464
 O285 O 0.84261 0.46067 0.78122
 O286 O 0.76743 0.53827 0.84203
 O287 O 0.83774 0.54846 0.78172
 O288 O 0.78386 0.45703 0.84463
 Cu289 Cu 0.86519 0.51070 0.87214
 Cu290 Cu 0.80371 0.50211 0.80620
 C291 C 0.80128 0.44494 0.88274
 C292 C 0.87257 0.56734 0.79879
 C293 C 0.78013 0.55538 0.87981
 C294 C 0.88153 0.45136 0.79779
 O295 O 0.11398 0.54176 0.18036
 O296 O 0.15943 0.45669 0.10149
 O297 O 0.09943 0.45722 0.16615
 O298 O 0.16699 0.54274 0.10865
 O299 O 0.22479 0.52970 0.15560
 O300 O 0.15545 0.44488 0.21547
 O301 O 0.21589 0.44501 0.15050
 O302 O 0.17058 0.52888 0.22884
 Cu303 Cu 0.12932 0.50105 0.13445
 Cu304 Cu 0.19725 0.48623 0.19259
 C305 C 0.13437 0.54929 0.21830
 C306 C 0.19570 0.43640 0.11292
 C307 C 0.11567 0.43632 0.20025
 C308 C 0.20760 0.55008 0.12127
 O309 O 0.87306 0.45979 0.19950
 O310 O 0.82502 0.54761 0.12828
 O311 O 0.88034 0.54548 0.19647
 O312 O 0.81191 0.46208 0.13334
 O313 O 0.75629 0.47175 0.18327
 O314 O 0.82529 0.55212 0.24773
 O315 O 0.76965 0.55674 0.17872
 O316 O 0.81820 0.46787 0.25058
 Cu317 Cu 0.85308 0.50240 0.15934
 Cu318 Cu 0.78642 0.51247 0.21989
 C319 C 0.85507 0.44978 0.23766
 C320 C 0.78960 0.56762 0.14167
 C321 C 0.86426 0.56276 0.23295
 C322 C 0.77179 0.45368 0.14715
 O323 O 0.18756 0.53917 0.86592
 O324 O 0.13458 0.45203 0.79725
 O325 O 0.19643 0.45335 0.86231
 O326 O 0.13113 0.53751 0.79648
 O327 O 0.18723 0.54107 0.74624
 O328 O 0.25233 0.45804 0.81197
 O329 O 0.18952 0.45630 0.74581
 O330 O 0.24461 0.54264 0.81670
 Cu331 Cu 0.15698 0.49502 0.83557
 Cu332 Cu 0.22410 0.49986 0.77520
 C333 C 0.22547 0.55498 0.85376
 C334 C 0.15178 0.44046 0.75914
 C335 C 0.23601 0.44221 0.84873
 C336 C 0.14784 0.55268 0.75938
 C337 C 0.25936 0.39313 0.08398
 C338 C 0.21506 0.40297 0.08198
 H339 H 0.28152 0.41078 0.10758
 H340 H 0.19362 0.38850 0.05553
 C341 C 0.72706 0.61247 0.11243
 C342 C 0.77131 0.60300 0.11276
 H343 H 0.70399 0.59455 0.13461
 H344 H 0.79349 0.61755 0.08722
 C345 C 0.73502 0.40695 0.91249
 C346 C 0.78016 0.40975 0.90940
 H347 H 0.71349 0.43038 0.89433
 H348 H 0.80173 0.38964 0.93140
 C349 C 0.29185 0.58161 0.89561
 C350 C 0.24790 0.58633 0.88469
 H351 H 0.31197 0.55596 0.87922
 H352 H 0.22664 0.60903 0.90399
 C353 C 0.07714 0.24201 0.39327
 C354 C 0.10371 0.25483 0.42801
 H355 H 0.07539 0.20724 0.38417
 H356 H 0.10848 0.28968 0.43537
 C357 C 0.08879 0.72909 0.59134
 C358 C 0.08516 0.77283 0.58536
 H359 H 0.11427 0.71050 0.57253
 H360 H 0.05722 0.79079 0.60104
 C361 C 0.92149 0.76011 0.38035
 C362 C 0.88895 0.74239 0.40634
 H363 H 0.92431 0.79575 0.37760
 H364 H 0.88417 0.70685 0.40658
 C365 C 0.90398 0.28006 0.58553
 C366 C 0.90006 0.23596 0.58472
 H367 H 0.88535 0.30008 0.56090
 H368 H 0.92193 0.21598 0.60653
 C369 C 0.39021 0.08738 0.24171
 C370 C 0.41904 0.11691 0.25936
 H371 H 0.38558 0.08505 0.20477
 H372 H 0.42085 0.12141 0.29635
 C373 C 0.60819 0.08906 0.73311
 C374 C 0.60081 0.09048 0.77841
 H375 H 0.58947 0.11112 0.71048
 H376 H 0.61603 0.06574 0.80067
 C377 C 0.38157 0.91553 0.77154
 C378 C 0.41302 0.88662 0.75759
 H379 H 0.37460 0.91975 0.80788
 H380 H 0.41775 0.88044 0.72116
 C381 C 0.60402 0.91821 0.23807
 C382 C 0.57305 0.89057 0.25529
 H383 H 0.60826 0.92053 0.20111
 H384 H 0.57050 0.88612 0.29218
 C385 C 0.38141 0.23687 0.90731
 C386 C 0.41589 0.25093 0.88126
 H387 H 0.37388 0.20186 0.90946
 H388 H 0.42169 0.28606 0.87687
 C389 C 0.61843 0.74350 0.90848
 C390 C 0.60179 0.78387 0.91675
 H391 H 0.60646 0.72469 0.87907
 H392 H 0.61079 0.80096 0.94834
 C393 C 0.40342 0.71569 0.09813
 C394 C 0.40136 0.75986 0.09798
 H395 H 0.42620 0.69878 0.12174
 H396 H 0.38251 0.77700 0.07124
 C397 C 0.62003 0.25003 0.09139
 C398 C 0.58944 0.26483 0.12146
 H399 H 0.62567 0.21481 0.08714
 H400 H 0.58626 0.30002 0.12805
 C401 C 0.26682 0.08574 0.60298
 C402 C 0.22189 0.08604 0.59549
 H403 H 0.28882 0.10710 0.58313
 H404 H 0.20043 0.06197 0.61242
 C405 C 0.75471 0.08135 0.37976
 C406 C 0.74039 0.10307 0.41706
 H407 H 0.78864 0.08782 0.36682
 H408 H 0.70524 0.10106 0.42802
 C409 C 0.75676 0.90633 0.61201
 C410 C 0.73957 0.87867 0.58056
 H411 H 0.79312 0.90708 0.61845
 H412 H 0.70300 0.87550 0.57672
 C413 C 0.23708 0.93387 0.39414
 C414 C 0.25205 0.90484 0.42525
 H415 H 0.20084 0.93724 0.38781
 H416 H 0.28822 0.89869 0.42917
 C417 C 0.09085 0.38749 0.74454
 C418 C 0.12567 0.41120 0.72855
 H419 H 0.08574 0.38428 0.78130
 H420 H 0.13252 0.41219 0.69195
 C421 C 0.09499 0.61806 0.23753
 C422 C 0.11484 0.58065 0.25140
 H423 H 0.09678 0.62754 0.20162
 H424 H 0.11597 0.57228 0.28763
 C425 C 0.90922 0.39016 0.25088
 C426 C 0.87878 0.41849 0.26806
 H427 H 0.91255 0.38649 0.21393
 H428 H 0.87286 0.42015 0.30480
 C429 C 0.90341 0.59576 0.72714
 C430 C 0.89741 0.60065 0.77239
 H431 H 0.88748 0.56829 0.70928
 H432 H 0.91683 0.62526 0.79118
 C433 C 0.76073 0.61746 0.93072
 C434 C 0.74744 0.58214 0.90637
 H435 H 0.79585 0.62817 0.92819
 H436 H 0.71181 0.57301 0.90492
 C437 C 0.24789 0.37918 0.90131
 C438 C 0.26488 0.41298 0.87717
 H439 H 0.21238 0.37049 0.89662
 H440 H 0.30105 0.41991 0.87828
 C441 C 0.27848 0.57497 0.08456
 C442 C 0.23454 0.58215 0.09459
 H443 H 0.29511 0.54578 0.09841
 H444 H 0.21631 0.60919 0.07833
 C445 C 0.75613 0.39105 0.09414
 C446 C 0.74128 0.42504 0.11986
 H447 H 0.79165 0.38141 0.09625
 H448 H 0.70525 0.43280 0.12092
 C449 C 0.90550 0.71684 0.58275
 C450 C 0.89028 0.75831 0.58841
 H451 H 0.89453 0.69822 0.55274
 H452 H 0.90385 0.77906 0.61564
 C453 C 0.90016 0.26859 0.39861
 C454 C 0.89072 0.22542 0.39575
 H455 H 0.88560 0.28754 0.42674
 H456 H 0.90842 0.20447 0.37132
 C457 C 0.08664 0.26905 0.59791
 C458 C 0.09412 0.22587 0.60454
 H459 H 0.10327 0.28532 0.56928
 H460 H 0.07485 0.20763 0.62991
 C461 C 0.10175 0.73802 0.39652
 C462 C 0.11016 0.78149 0.39587
 H463 H 0.11418 0.71865 0.42538
 H464 H 0.09437 0.80232 0.36996
 C465 C 0.60114 0.90820 0.73283
 C466 C 0.59435 0.90903 0.77827
 H467 H 0.58072 0.88684 0.71106
 H468 H 0.61173 0.93346 0.79924
 C469 C 0.38141 0.90669 0.26914
 C470 C 0.39037 0.90565 0.22419
 H471 H 0.39845 0.88362 0.29200
 H472 H 0.37701 0.93144 0.20200
 C473 C 0.60219 0.09704 0.27177
 C474 C 0.60092 0.10918 0.22769
 H475 H 0.57793 0.11120 0.29570
 H476 H 0.62216 0.09215 0.20289
 C477 C 0.38595 0.08893 0.76148
 C478 C 0.42126 0.11247 0.74629
 H479 H 0.37638 0.09058 0.79743
 H480 H 0.42903 0.11314 0.70987
 C481 C 0.60806 0.76195 0.09101
 C482 C 0.57709 0.74740 0.12085
 H483 H 0.61309 0.79722 0.08674
 H484 H 0.57413 0.71232 0.12781
 C485 C 0.38120 0.24529 0.08896
 C486 C 0.41062 0.26140 0.12009
 H487 H 0.37647 0.20982 0.08635
 H488 H 0.41335 0.29678 0.12542
 C489 C 0.60340 0.27248 0.91108
 C490 C 0.59823 0.22857 0.91049
 H491 H 0.58235 0.29308 0.88907
 H492 H 0.61562 0.20839 0.93590
 C493 C 0.42086 0.71726 0.91225
 C494 C 0.41613 0.76115 0.90866
 H495 H 0.44862 0.70079 0.89464
 H496 H 0.39091 0.77809 0.92940
 C497 C 0.75543 0.90407 0.36914
 C498 C 0.73976 0.87346 0.39828
 H499 H 0.79174 0.90746 0.36381
 H500 H 0.70340 0.86827 0.40132
 C501 C 0.26583 0.90598 0.61192
 C502 C 0.22063 0.90456 0.60707
 H503 H 0.28721 0.88609 0.58963
 H504 H 0.19943 0.92751 0.62616
 C505 C 0.26276 0.10566 0.39428
 C506 C 0.21802 0.10347 0.40174
 H507 H 0.28372 0.12683 0.41574
 H508 H 0.19781 0.07937 0.38305
 C509 C 0.76403 0.08231 0.61932
 C510 C 0.74857 0.11501 0.59267
 H511 H 0.80028 0.07628 0.62262
 H512 H 0.71250 0.12266 0.59198
 C513 C 0.92043 0.62258 0.24158
 C514 C 0.89171 0.59357 0.26031
 H515 H 0.92147 0.62699 0.20461
 H516 H 0.88841 0.59184 0.29740
 C517 C 0.90766 0.41178 0.72895
 C518 C 0.91097 0.41897 0.77427
 H519 H 0.88381 0.43096 0.70853
 H520 H 0.93787 0.40307 0.79387
 C521 C 0.08626 0.60673 0.74443
 C522 C 0.12039 0.58142 0.72907
 H523 H 0.08080 0.61041 0.78109
 H524 H 0.12767 0.58053 0.69254
 C525 C 0.09212 0.39104 0.26626
 C526 C 0.08707 0.40239 0.22215
 H527 H 0.11827 0.40679 0.28694
 H528 H 0.05804 0.39003 0.20293
   
