data_POSCAR
  _audit_creation_date              2014-09-24
  _audit_creation_method            'ToBaCCo'
  _symmetry_space_group_name_H-M    'P1'
  _symmetry_Int_Tables_number       1
  _symmetry_cell_setting            triclinic
  loop_
  _symmetry_equiv_pos_as_xyz
 x,y,z
_cell_length_a 47.2192
_cell_length_b 35.7841
_cell_length_c 35.0251
_cell_angle_alpha 90.057000
_cell_angle_beta 89.976300
_cell_angle_gamma 90.122700
loop_
  _atom_site_label
  _atom_site_type_symbol
  _atom_site_fract_x
  _atom_site_fract_y
  _atom_site_fract_z
C1 C 0.25246 0.26808 0.24585
 C2 C 0.25241 0.22995 0.24550
 C3 C 0.23162 0.20849 0.22227
 C4 C 0.27290 0.20788 0.26848
 C5 C 0.27469 0.28986 0.26603
 C6 C 0.23004 0.28994 0.22637
 C7 C 0.21438 0.18170 0.23968
 C8 C 0.19400 0.16232 0.21858
 C9 C 0.19014 0.16893 0.17892
 C10 C 0.20856 0.19547 0.16169
 C11 C 0.22894 0.21468 0.18300
 C12 C 0.27626 0.21441 0.30777
 C13 C 0.29627 0.19434 0.32873
 C14 C 0.31295 0.16677 0.31102
 C15 C 0.30883 0.15948 0.27193
 C16 C 0.28900 0.17981 0.25092
 C17 C 0.30352 0.28449 0.25789
 C18 C 0.32421 0.30431 0.27809
 C19 C 0.31641 0.32995 0.30665
 C20 C 0.28751 0.33591 0.31401
 C21 C 0.26686 0.31619 0.29375
 C22 C 0.23751 0.31643 0.19865
 C23 C 0.21659 0.33643 0.17933
 C24 C 0.18780 0.33058 0.18771
 C25 C 0.18040 0.30467 0.21620
 C26 C 0.20135 0.28459 0.23542
 H27 H 0.21653 0.17597 0.26991
 H28 H 0.18233 0.14107 0.23381
 H29 H 0.20669 0.20356 0.13213
 H30 H 0.24236 0.23500 0.16888
 H31 H 0.26359 0.23532 0.32213
 H32 H 0.29901 0.20092 0.35868
 H33 H 0.28648 0.17398 0.22076
 H34 H 0.30996 0.26468 0.23618
 H35 H 0.34632 0.29902 0.27193
 H36 H 0.28086 0.35593 0.33540
 H37 H 0.24472 0.32094 0.30020
 H38 H 0.25956 0.32115 0.19154
 H39 H 0.22293 0.35663 0.15796
 H40 H 0.15840 0.29944 0.22310
 H41 H 0.19521 0.26467 0.25717
 H42 H 0.32084 0.13791 0.25756
 C43 C 0.74996 0.22931 0.24988
 C44 C 0.75047 0.26733 0.25204
 C45 C 0.77265 0.28980 0.23264
 C46 C 0.72869 0.28829 0.27387
 C47 C 0.72925 0.20726 0.27229
 C48 C 0.77015 0.20799 0.22572
 C49 C 0.80150 0.28368 0.23996
 C50 C 0.82216 0.30396 0.22021
 C51 C 0.81430 0.33081 0.19293
 C52 C 0.78538 0.33752 0.18645
 C53 C 0.76476 0.31735 0.20629
 C54 C 0.73698 0.31316 0.30277
 C55 C 0.71665 0.33265 0.32382
 C56 C 0.68765 0.32768 0.31622
 C57 C 0.67943 0.30323 0.28679
 C58 C 0.69978 0.28396 0.26560
 C59 C 0.70763 0.18762 0.25352
 C60 C 0.68706 0.16850 0.27455
 C61 C 0.68833 0.16792 0.31459
 C62 C 0.71049 0.18665 0.33331
 C63 C 0.73069 0.20650 0.31230
 C64 C 0.77378 0.21656 0.18688
 C65 C 0.79394 0.19758 0.16505
 C66 C 0.81040 0.16914 0.18145
 C67 C 0.80600 0.15968 0.21992
 C68 C 0.78606 0.17893 0.24183
 H69 H 0.80798 0.26286 0.26059
 H70 H 0.84428 0.29807 0.22565
 H71 H 0.77872 0.35845 0.16605
 H72 H 0.74260 0.32266 0.20051
 H73 H 0.75920 0.31703 0.30940
 H74 H 0.72358 0.35112 0.34648
 H75 H 0.69298 0.26572 0.24268
 H76 H 0.70630 0.18795 0.22265
 H77 H 0.67019 0.15402 0.25964
 H78 H 0.71176 0.18656 0.36419
 H79 H 0.74736 0.22144 0.32712
 H80 H 0.76120 0.23820 0.17357
 H81 H 0.79658 0.20498 0.13529
 H82 H 0.81851 0.13804 0.23334
 H83 H 0.78352 0.17173 0.27167
 H84 H 0.65727 0.29941 0.27982
 C85 C 0.74778 0.76857 0.75435
 C86 C 0.74795 0.73046 0.75556
 C87 C 0.72582 0.70774 0.73629
 C88 C 0.77050 0.70958 0.77593
 C89 C 0.76863 0.79119 0.77627
 C90 C 0.72689 0.78959 0.73100
 C91 C 0.69698 0.71306 0.74434
 C92 C 0.67636 0.69269 0.72459
 C93 C 0.68425 0.66650 0.69659
 C94 C 0.71319 0.66047 0.68948
 C95 C 0.73376 0.68076 0.70929
 C96 C 0.76317 0.68423 0.80480
 C97 C 0.78419 0.66537 0.82510
 C98 C 0.81296 0.67121 0.81660
 C99 C 0.82023 0.69594 0.78698
 C100 C 0.79918 0.71487 0.76675
 C101 C 0.78531 0.81774 0.75740
 C102 C 0.80556 0.83849 0.77734
 C103 C 0.80970 0.83341 0.81702
 C104 C 0.79210 0.80715 0.83582
 C105 C 0.77180 0.78658 0.81574
 C106 C 0.72321 0.78187 0.69200
 C107 C 0.70306 0.80136 0.67067
 C108 C 0.68656 0.82950 0.68774
 C109 C 0.69092 0.83787 0.72655
 C110 C 0.71087 0.81812 0.74792
 H111 H 0.69046 0.73338 0.76552
 H112 H 0.65424 0.69805 0.73055
 H113 H 0.71990 0.64004 0.66854
 H114 H 0.75592 0.67603 0.70293
 H115 H 0.74114 0.67955 0.81206
 H116 H 0.77794 0.64602 0.84733
 H117 H 0.80523 0.73393 0.74415
 H118 H 0.78282 0.82219 0.72700
 H119 H 0.81720 0.85930 0.76139
 H120 H 0.79455 0.80088 0.86580
 H121 H 0.75879 0.76658 0.83099
 H122 H 0.73581 0.76057 0.67811
 H123 H 0.70014 0.79397 0.64096
 H124 H 0.67906 0.85990 0.74041
 H125 H 0.71362 0.82487 0.77784
 H126 H 0.84221 0.70116 0.77992
 C127 C 0.24903 0.73033 0.74976
 C128 C 0.24829 0.76832 0.74741
 C129 C 0.27039 0.78923 0.72607
 C130 C 0.22574 0.79076 0.76615
 C131 C 0.22887 0.70878 0.77377
 C132 C 0.26988 0.70845 0.72746
 C133 C 0.29906 0.78601 0.73610
 C134 C 0.31980 0.80523 0.71550
 C135 C 0.31225 0.82825 0.68465
 C136 C 0.28346 0.83187 0.67509
 C137 C 0.26271 0.81266 0.69576
 C138 C 0.23316 0.82072 0.78989
 C139 C 0.21234 0.84126 0.80885
 C140 C 0.18330 0.83235 0.80470
 C141 C 0.17610 0.80269 0.77979
 C142 C 0.19701 0.78253 0.76051
 C143 C 0.21285 0.67998 0.75741
 C144 C 0.19287 0.66053 0.77905
 C145 C 0.18831 0.66917 0.81800
 C146 C 0.20537 0.69752 0.83444
 C147 C 0.22540 0.71686 0.81264
 C148 C 0.26865 0.70782 0.68750
 C149 C 0.28868 0.68771 0.66655
 C150 C 0.31060 0.66828 0.68519
 C151 C 0.31154 0.66896 0.72539
 C152 C 0.29116 0.68849 0.74630
 H153 H 0.30534 0.76853 0.75984
 H154 H 0.34180 0.80166 0.72339
 H155 H 0.27696 0.84986 0.65186
 H156 H 0.24067 0.81571 0.68785
 H157 H 0.25524 0.82761 0.79461
 H158 H 0.21943 0.86281 0.82829
 H159 H 0.19073 0.76032 0.74125
 H160 H 0.21554 0.67285 0.72756
 H161 H 0.18171 0.63796 0.76505
 H162 H 0.20261 0.70637 0.86371
 H163 H 0.23787 0.73870 0.82598
 H164 H 0.25210 0.72281 0.67260
 H165 H 0.28680 0.68719 0.63577
 H166 H 0.32831 0.65502 0.74080
 H167 H 0.29239 0.68886 0.77718
 H168 H 0.15427 0.79557 0.77387
 O169 O 0.97238 0.00173 -0.05298
 O170 O 1.02832 0.05113 0.00053
 O171 O 1.02750 0.00188 -0.05427
 O172 O 0.97300 0.05146 0.00112
 O173 O 0.97370 0.00676 0.04443
 O174 O 1.02727 -0.04374 -0.01196
 O175 O 1.02885 0.00560 0.04291
 O176 O 0.97225 -0.04294 -0.00963
 Cu177 Cu 1.00031 0.03111 -0.03065
 Cu178 Cu 1.00060 -0.02307 0.02075
 C179 C 0.96264 -0.02899 -0.04032
 C180 C 1.03824 0.03671 0.03084
 C181 C 1.03656 -0.02955 -0.04278
 C182 C 0.96395 0.03758 0.03220
 O183 O 0.47395 0.49672 0.45187
 O184 O 0.52793 0.54518 0.50952
 O185 O 0.52905 0.49643 0.45447
 O186 O 0.47299 0.54588 0.50713
 O187 O 0.47091 0.49960 0.54867
 O188 O 0.52785 0.45093 0.49689
 O189 O 0.52612 0.49992 0.55215
 O190 O 0.47287 0.45084 0.49386
 Cu191 Cu 0.50109 0.52562 0.47650
 Cu192 Cu 0.49934 0.47077 0.52716
 C193 C 0.46425 0.46539 0.46291
 C194 C 0.53619 0.53094 0.54079
 C195 C 0.53807 0.46523 0.46667
 C196 C 0.46232 0.53114 0.53683
 O197 O -0.02784 0.45558 0.01035
 O198 O 0.02773 0.50465 -0.04380
 O199 O 0.02725 0.45499 0.01027
 O200 O -0.02735 0.50501 -0.04425
 O201 O -0.02729 0.55005 -0.00123
 O202 O 0.02752 0.50003 0.05331
 O203 O 0.02796 0.54977 -0.00086
 O204 O -0.02749 0.50056 0.05345
 Cu205 Cu -0.00011 0.47555 -0.02116
 Cu206 Cu 0.00016 0.52967 0.03044
 C207 C -0.03708 0.46956 0.04130
 C208 C 0.03742 0.53558 -0.03158
 C209 C 0.03676 0.46890 0.04110
 C210 C -0.03667 0.53611 -0.03214
 O211 O 0.47206 1.04511 0.49286
 O212 O 0.52766 0.99702 0.54764
 O213 O 0.52715 1.04675 0.49299
 O214 O 0.47258 0.99600 0.54736
 O215 O 0.47285 0.95107 0.50422
 O216 O 0.52872 1.00072 0.45103
 O217 O 0.52804 0.95147 0.50516
 O218 O 0.47346 1.00046 0.44943
 Cu219 Cu 0.49984 1.02577 0.52449
 Cu220 Cu 0.50078 0.97140 0.47315
 C221 C 0.46329 1.03106 0.46169
 C222 C 0.53729 0.96594 0.53585
 C223 C 0.53740 1.03229 0.46288
 C224 C 0.46325 0.96494 0.53502
 C225 C 1.12638 0.11308 0.11575
 C226 C 1.14925 0.13011 0.09712
 C227 C 1.17040 0.14850 0.11785
 C228 C 1.16950 0.15067 0.15834
 C229 C 1.14607 0.13324 0.17655
 C230 C 1.12504 0.11488 0.15565
 C231 C 1.10396 0.09342 0.09373
 C232 C 1.09274 0.05938 0.10689
 C233 C 1.07148 0.04098 0.08643
 C234 C 1.06089 0.05622 0.05234
 C235 C 1.07215 0.09023 0.03910
 C236 C 1.09347 0.10860 0.05955
 H237 H 1.18801 0.15911 0.10145
 H238 H 1.14256 0.13510 0.20695
 H239 H 1.06335 0.01478 0.09737
 H240 H 1.06443 0.10274 0.01297
 H241 H 1.10726 0.10278 0.17081
 H242 H 1.10064 0.04673 0.13285
 H243 H 1.15118 0.12847 0.06635
 H244 H 1.10147 0.13500 0.04891
 C245 C 0.62084 0.60811 0.63105
 C246 C 0.64517 0.62262 0.61329
 C247 C 0.66575 0.64137 0.63463
 C248 C 0.66244 0.64615 0.67420
 C249 C 0.63812 0.63166 0.69201
 C250 C 0.61757 0.61272 0.67067
 C251 C 0.59894 0.58843 0.60819
 C252 C 0.58626 0.55546 0.62177
 C253 C 0.56591 0.53672 0.59990
 C254 C 0.55771 0.55069 0.56407
 C255 C 0.57028 0.58381 0.55065
 C256 C 0.59068 0.60242 0.57243
 H257 H 0.68412 0.65259 0.62004
 H258 H 0.63511 0.63469 0.72251
 H259 H 0.55664 0.51127 0.61106
 H260 H 0.56438 0.59538 0.52323
 H261 H 0.59892 0.60211 0.68508
 H262 H 0.59241 0.54382 0.64906
 H263 H 0.64842 0.61918 0.58288
 H264 H 0.59981 0.62803 0.56144
 C265 C -0.12234 0.39029 0.12844
 C266 C -0.11898 0.38478 0.16791
 C267 C -0.13949 0.36540 0.18886
 C268 C -0.16387 0.35136 0.17083
 C269 C -0.16725 0.35696 0.13139
 C270 C -0.14668 0.37612 0.11041
 C271 C -0.10054 0.41067 0.10609
 C272 C -0.09205 0.39752 0.07006
 C273 C -0.07148 0.41665 0.04901
 C274 C -0.05905 0.44947 0.06346
 C275 C -0.06763 0.46269 0.09945
 C276 C -0.08809 0.44344 0.12058
 H277 H -0.13643 0.36173 0.21927
 H278 H -0.18567 0.34610 0.11665
 H279 H -0.06530 0.40568 0.02142
 H280 H -0.05847 0.48789 0.11140
 H281 H -0.14996 0.38022 0.08010
 H282 H -0.10105 0.37211 0.05836
 H283 H -0.10031 0.39509 0.18249
 H284 H -0.09445 0.45444 0.14808
 C285 C 0.37655 0.88647 0.62048
 C286 C 0.37816 0.88428 0.66049
 C287 C 0.35731 0.86542 0.68128
 C288 C 0.33434 0.84840 0.66255
 C289 C 0.33271 0.85061 0.62255
 C290 C 0.35361 0.86938 0.60174
 C291 C 0.39871 0.90658 0.59845
 C292 C 0.40905 0.89186 0.56394
 C293 C 0.43001 0.91075 0.54334
 C294 C 0.44104 0.94484 0.55675
 C295 C 0.43064 0.95959 0.59121
 C296 C 0.40973 0.94067 0.61183
 H297 H 0.35901 0.86450 0.71209
 H298 H 0.31542 0.83743 0.60728
 H299 H 0.43761 0.89860 0.51693
 H300 H 0.43861 0.98584 0.60230
 H301 H 0.35164 0.87090 0.57098
 H302 H 0.40121 0.86543 0.55314
 H303 H 0.39573 0.89682 0.67572
 H304 H 0.40193 0.95297 0.63804
 C305 C -0.12241 0.61443 -0.11893
 C306 C -0.12007 0.61797 -0.15877
 C307 C -0.14096 0.63650 -0.17969
 C308 C -0.16472 0.65174 -0.16124
 C309 C -0.16703 0.64825 -0.12139
 C310 C -0.14608 0.62987 -0.10046
 C311 C -0.10034 0.59450 -0.09672
 C312 C -0.09092 0.60863 -0.06148
 C313 C -0.07022 0.58975 -0.04052
 C314 C -0.05856 0.55623 -0.05430
 C315 C -0.06801 0.54209 -0.08954
 C316 C -0.08862 0.56105 -0.11053
 H317 H -0.13872 0.63849 -0.21039
 H318 H -0.18494 0.66007 -0.10633
 H319 H -0.06337 0.60143 -0.01352
 H320 H -0.05950 0.51632 -0.10095
 H321 H -0.14860 0.62729 -0.06984
 H322 H -0.09933 0.63457 -0.05031
 H323 H -0.10193 0.60668 -0.17375
 H324 H -0.09571 0.54923 -0.13736
 C325 C 0.37659 1.10750 0.37521
 C326 C 0.38145 1.11742 0.33698
 C327 C 0.36084 1.13660 0.31621
 C328 C 0.33476 1.14601 0.33308
 C329 C 0.32986 1.13576 0.37129
 C330 C 0.35059 1.11687 0.39215
 C331 C 0.39867 1.08773 0.39742
 C332 C 0.40516 1.09899 0.43484
 C333 C 0.42623 1.08069 0.45563
 C334 C 0.44106 1.05049 0.43958
 C335 C 0.43442 1.03908 0.40222
 C336 C 0.41355 1.05764 0.38129
 H337 H 0.36556 1.14467 0.28711
 H338 H 0.30985 1.14196 0.38499
 H339 H 0.43082 1.09013 0.48436
 H340 H 0.44547 1.01592 0.38905
 H341 H 0.34615 1.10912 0.42144
 H342 H 0.39421 1.12234 0.44781
 H343 H 0.40146 1.11099 0.32339
 H344 H 0.40879 1.04819 0.35261
 C345 C 1.12043 -0.10870 -0.13205
 C346 C 1.14606 -0.09131 -0.14178
 C347 C 1.16666 -0.11052 -0.16260
 C348 C 1.16215 -0.14776 -0.17475
 C349 C 1.13601 -0.16474 -0.16523
 C350 C 1.11560 -0.14556 -0.14402
 C351 C 1.09886 -0.08848 -0.10927
 C352 C 1.08516 -0.10617 -0.07859
 C353 C 1.06506 -0.08698 -0.05683
 C354 C 1.05805 -0.04980 -0.06555
 C355 C 1.07167 -0.03219 -0.09639
 C356 C 1.09196 -0.05127 -0.11790
 H357 H 1.18568 -0.09535 -0.17013
 H358 H 1.13152 -0.19353 -0.17249
 H359 H 1.05491 -0.10134 -0.03329
 H360 H 1.06674 -0.00357 -0.10384
 H361 H 1.09593 -0.15959 -0.13702
 H362 H 1.09030 -0.13472 -0.07109
 H363 H 1.15034 -0.06286 -0.13288
 H364 H 1.10202 -0.03708 -0.14161
 C365 C 0.62466 0.38651 0.38174
 C366 C 0.64924 0.40498 0.36915
 C367 C 0.66974 0.38586 0.34806
 C368 C 0.66602 0.34793 0.33889
 C369 C 0.64144 0.32946 0.35148
 C370 C 0.62102 0.34852 0.37277
 C371 C 0.60277 0.40687 0.40387
 C372 C 0.58977 0.39015 0.43567
 C373 C 0.56894 0.40920 0.45626
 C374 C 0.56054 0.44531 0.44535
 C375 C 0.57361 0.46205 0.41359
 C376 C 0.59454 0.44308 0.39314
 H377 H 0.68836 0.40088 0.33846
 H378 H 0.63815 0.30014 0.34516
 H379 H 0.55931 0.39554 0.48061
 H380 H 0.56760 0.48982 0.40442
 H381 H 0.60217 0.33366 0.38179
 H382 H 0.59592 0.36244 0.44484
 H383 H 0.65272 0.43416 0.37593
 H384 H 0.60397 0.45649 0.36851
 C385 C 0.87385 -0.10663 -0.12251
 C386 C 0.85015 -0.12086 -0.10323
 C387 C 0.82903 -0.14027 -0.12298
 C388 C 0.83094 -0.14624 -0.16283
 C389 C 0.85493 -0.13154 -0.18190
 C390 C 0.87594 -0.11205 -0.16204
 C391 C 0.89647 -0.08653 -0.10140
 C392 C 0.90884 -0.05402 -0.11659
 C393 C 0.93027 -0.03525 -0.09675
 C394 C 0.93989 -0.04872 -0.06138
 C395 C 0.92753 -0.08126 -0.04623
 C396 C 0.90602 -0.09990 -0.06598
 H397 H 0.81077 -0.14920 -0.10674
 H398 H 0.85850 -0.13632 -0.21198
 H399 H 0.93932 -0.01023 -0.10916
 H400 H 0.93446 -0.09239 -0.01907
 H401 H 0.89428 -0.10202 -0.17757
 H402 H 0.90170 -0.04285 -0.14364
 H403 H 0.84768 -0.11642 -0.07282
 H404 H 0.89713 -0.12514 -0.05380
 C405 C 0.37984 0.38795 0.37251
 C406 C 0.35570 0.37292 0.39028
 C407 C 0.33513 0.35422 0.36886
 C408 C 0.33829 0.35001 0.32920
 C409 C 0.36245 0.36496 0.31139
 C410 C 0.38298 0.38385 0.33281
 C411 C 0.40167 0.40771 0.39542
 C412 C 0.41399 0.44103 0.38212
 C413 C 0.43427 0.45983 0.40403
 C414 C 0.44277 0.44560 0.43961
 C415 C 0.43055 0.41214 0.45277
 C416 C 0.41021 0.39346 0.43095
 H417 H 0.31689 0.34264 0.38343
 H418 H 0.36533 0.36238 0.28083
 H419 H 0.44327 0.48554 0.39309
 H420 H 0.43668 0.40036 0.48000
 H421 H 0.40149 0.39487 0.31839
 H422 H 0.40760 0.45287 0.35502
 H423 H 0.35256 0.37595 0.42075
 H424 H 0.40135 0.36759 0.44171
 C425 C 0.12474 0.61246 -0.11736
 C426 C 0.14797 0.62910 -0.09903
 C427 C 0.16885 0.64767 -0.12009
 C428 C 0.16717 0.65022 -0.16034
 C429 C 0.14354 0.63342 -0.17835
 C430 C 0.12276 0.61489 -0.15720
 C431 C 0.10258 0.59261 -0.09508
 C432 C 0.09260 0.60740 -0.06043
 C433 C 0.07144 0.58892 -0.03979
 C434 C 0.05988 0.55518 -0.05332
 C435 C 0.06999 0.54030 -0.08787
 C436 C 0.09108 0.55882 -0.10852
 H437 H 0.18681 0.65853 -0.10448
 H438 H 0.14009 0.63572 -0.20876
 H439 H 0.06410 0.60114 -0.01329
 H440 H 0.06161 0.51430 -0.09902
 H441 H 0.10473 0.60309 -0.17208
 H442 H 0.10082 0.63360 -0.04957
 H443 H 0.15034 0.62708 -0.06835
 H444 H 0.09860 0.54647 -0.13487
 C445 C 0.62426 1.11049 0.37873
 C446 C 0.65292 1.10111 0.38333
 C447 C 0.67385 1.12016 0.36282
 C448 C 0.66634 1.14820 0.33676
 C449 C 0.63768 1.15736 0.33192
 C450 C 0.61681 1.13892 0.35308
 C451 C 0.60214 1.09049 0.40047
 C452 C 0.58268 1.11040 0.42288
 C453 C 0.56182 1.09144 0.44359
 C454 C 0.55966 1.05232 0.44146
 C455 C 0.57899 1.03248 0.41869
 C456 C 0.60026 1.05139 0.39871
 H457 H 0.69586 1.11268 0.36684
 H458 H 0.63152 1.17906 0.31206
 H459 H 0.54711 1.10738 0.46084
 H460 H 0.57786 1.00231 0.41670
 H461 H 0.59480 1.14644 0.34905
 H462 H 0.58386 1.14058 0.42467
 H463 H 0.65907 1.07933 0.40310
 H464 H 0.61502 1.03557 0.38143
 C465 C 0.12322 0.38989 0.12574
 C466 C 0.12105 0.38525 0.16548
 C467 C 0.14198 0.36597 0.18562
 C468 C 0.16559 0.35115 0.16647
 C469 C 0.16779 0.35593 0.12677
 C470 C 0.14681 0.37502 0.10662
 C471 C 0.10093 0.41007 0.10423
 C472 C 0.09135 0.39639 0.06890
 C473 C 0.07047 0.41543 0.04849
 C474 C 0.05877 0.44867 0.06289
 C475 C 0.06834 0.46235 0.09826
 C476 C 0.08915 0.44320 0.11875
 H477 H 0.13984 0.36298 0.21625
 H478 H 0.18559 0.34447 0.11120
 H479 H 0.06353 0.40409 0.02138
 H480 H 0.05978 0.48789 0.11013
 H481 H 0.14919 0.37848 0.07607
 H482 H 0.09978 0.37068 0.05723
 H483 H 0.10298 0.39612 0.18092
 H484 H 0.09634 0.45461 0.14571
 C485 C 0.62332 0.88861 0.62271
 C486 C 0.61846 0.87947 0.66114
 C487 C 0.63891 0.86020 0.68213
 C488 C 0.66481 0.84995 0.66529
 C489 C 0.66967 0.85930 0.62683
 C490 C 0.64910 0.87828 0.60575
 C491 C 0.60146 0.90866 0.60036
 C492 C 0.59461 0.89701 0.56319
 C493 C 0.57372 0.91555 0.54230
 C494 C 0.55944 0.94638 0.55801
 C495 C 0.56647 0.95822 0.59509
 C496 C 0.58717 0.93943 0.61612
 H497 H 0.63421 0.85283 0.71143
 H498 H 0.68954 0.85243 0.61313
 H499 H 0.56881 0.90577 0.51378
 H500 H 0.55584 0.98187 0.60799
 H501 H 0.65352 0.88540 0.57629
 H502 H 0.60512 0.87316 0.55050
 H503 H 0.59860 0.88663 0.67476
 H504 H 0.59223 0.94919 0.64460
 C505 C 0.87558 0.11328 0.11703
 C506 C 0.85681 0.09277 0.14017
 C507 C 0.83558 0.11086 0.16092
 C508 C 0.83248 0.14982 0.15876
 C509 C 0.85100 0.17034 0.13537
 C510 C 0.87237 0.15230 0.11485
 C511 C 0.89845 0.09408 0.09540
 C512 C 0.90600 0.10606 0.05854
 C513 C 0.92744 0.08796 0.03820
 C514 C 0.94171 0.05728 0.05413
 C515 C 0.93422 0.04529 0.09096
 C516 C 0.91292 0.06356 0.11142
 H517 H 0.82136 0.09433 0.17837
 H518 H 0.84933 0.20047 0.13362
 H519 H 0.93259 0.09772 0.00977
 H520 H 0.94492 0.02187 0.10411
 H521 H 0.88673 0.16904 0.09784
 H522 H 0.89502 0.12908 0.04509
 H523 H 0.85830 0.06264 0.14195
 H524 H 0.90801 0.05401 0.13998
 C525 C 0.37460 0.60905 0.62078
 C526 C 0.36552 0.59581 0.65657
 C527 C 0.34458 0.61465 0.67713
 C528 C 0.33247 0.64769 0.66285
 C529 C 0.34165 0.66104 0.62715
 C530 C 0.36221 0.64181 0.60626
 C531 C 0.39698 0.58895 0.59886
 C532 C 0.41635 0.60876 0.57591
 C533 C 0.43731 0.58992 0.55536
 C534 C 0.43978 0.55093 0.55789
 C535 C 0.42067 0.53105 0.58092
 C536 C 0.39933 0.54978 0.60085
 H537 H 0.33779 0.60308 0.70417
 H538 H 0.33323 0.68667 0.61540
 H539 H 0.45196 0.60596 0.53808
 H540 H 0.42196 0.50090 0.58307
 H541 H 0.36822 0.65261 0.57857
 H542 H 0.41569 0.63893 0.57423
 H543 H 0.37481 0.57107 0.66908
 H544 H 0.38450 0.53341 0.61746
   
