data_POSCAR
  _audit_creation_date              2014-09-24
  _audit_creation_method            'ToBaCCo'
  _symmetry_space_group_name_H-M    'P1'
  _symmetry_Int_Tables_number       1
  _symmetry_cell_setting            triclinic
  loop_
  _symmetry_equiv_pos_as_xyz
 x,y,z
_cell_length_a 26.3785
_cell_length_b 26.3167
_cell_length_c 26.1243
_cell_angle_alpha 89.720600
_cell_angle_beta 90.540400
_cell_angle_gamma 89.896700
loop_
  _atom_site_label
  _atom_site_type_symbol
  _atom_site_fract_x
  _atom_site_fract_y
  _atom_site_fract_z
N1 N 0.17277 1.27808 0.14311
 N2 N 0.13142 1.27021 0.16957
 C3 C 0.09704 1.30622 0.15756
 C4 C 0.11765 1.33867 0.12117
 C5 C 0.16619 1.31960 0.11343
 H6 H 0.05950 1.30775 0.17361
 H7 H 0.19380 1.33296 0.08625
 Cu8 Cu 0.12435 1.21226 0.21518
 Cu9 Cu 0.22899 1.22985 0.14365
 Cu10 Cu 0.21836 1.12711 0.22619
 N11 N 0.12778 1.16448 0.27215
 N12 N 0.16506 1.13166 0.27676
 C13 C 0.15634 1.10101 0.31705
 C14 C 0.11057 1.11496 0.33901
 C15 C 0.09389 1.15588 0.30938
 H16 H 0.18061 1.06955 0.32776
 H17 H 0.05904 1.17706 0.31329
 N18 N 0.27631 1.13644 0.18040
 N19 N 0.28090 1.17588 0.14943
 C20 C 0.32190 1.16887 0.11987
 C21 C 0.34407 1.12267 0.13271
 C22 C 0.31425 1.10350 0.17158
 H23 H 0.33273 1.19380 0.08887
 H24 H 0.31850 1.06719 0.19061
 H25 H 0.18780 1.16766 0.16410
 H26 H 0.21624 1.20485 0.21783
 N27 N 0.83387 0.72606 0.12875
 N28 N 0.86433 0.72052 0.16847
 C29 C 0.89507 0.68045 0.16053
 C30 C 0.88349 0.66003 0.11296
 C31 C 0.84429 0.69007 0.09406
 H32 H 0.92538 0.66878 0.18614
 H33 H 0.82555 0.68713 0.05723
 Cu34 Cu 0.86447 0.77089 0.22275
 Cu35 Cu 0.78689 0.78299 0.12233
 Cu36 Cu 0.76248 0.84506 0.23670
 N37 N 0.86090 0.82002 0.27790
 N38 N 0.82077 0.84908 0.28323
 C39 C 0.82858 0.88097 0.32263
 C40 C 0.87681 0.87211 0.34288
 C41 C 0.89590 0.83274 0.31334
 H42 H 0.80154 0.90951 0.33414
 H43 H 0.93294 0.81539 0.31616
 N44 N 0.71861 0.85150 0.17533
 N45 N 0.72868 0.82870 0.13172
 C46 C 0.69424 0.84311 0.09629
 C47 C 0.66088 0.87722 0.11827
 C48 C 0.67755 0.88142 0.16863
 H49 H 0.69429 0.83028 0.05709
 H50 H 0.66239 0.90600 0.19778
 H51 H 0.81173 0.83380 0.17893
 H52 H 0.77520 0.77632 0.19828
 N53 N 0.82797 1.28200 -0.14089
 N54 N 0.86242 1.27982 -0.17687
 C55 C 0.89614 1.31752 -0.16958
 C56 C 0.88205 1.34482 -0.12679
 C57 C 0.83841 1.32127 -0.10975
 H58 H 0.92933 1.32373 -0.19271
 H59 H 0.81765 1.33005 -0.07542
 Cu60 Cu 0.86206 1.22553 -0.22741
 Cu61 Cu 0.77685 1.22935 -0.13298
 Cu62 Cu 0.77463 1.13319 -0.22224
 N63 N 0.85886 1.17220 -0.27890
 N64 N 0.82457 1.13613 -0.27667
 C65 C 0.83306 1.10236 -0.31414
 C66 C 0.87516 1.11792 -0.34172
 C67 C 0.89009 1.16285 -0.31822
 H68 H 0.81084 1.06837 -0.31971
 H69 H 0.92260 1.18593 -0.32738
 N70 N 0.72195 1.14090 -0.16965
 N71 N 0.72314 1.17740 -0.13516
 C72 C 0.68474 1.17048 -0.10227
 C73 C 0.65798 1.12762 -0.11673
 C74 C 0.68248 1.11006 -0.15982
 H75 H 0.67752 1.19410 -0.06940
 H76 H 0.67375 1.07583 -0.18080
 H77 H 0.81619 1.17137 -0.16755
 H78 H 0.77344 1.21037 -0.20956
 N79 N 0.18111 0.72291 -0.13862
 N80 N 0.14742 0.72087 -0.17596
 C81 C 0.11665 0.68084 -0.16798
 C82 C 0.13169 0.65668 -0.12304
 C83 C 0.17292 0.68444 -0.10568
 H84 H 0.08388 0.67179 -0.19133
 H85 H 0.19417 0.67847 -0.07058
 Cu86 Cu 0.14395 0.77459 -0.22756
 Cu87 Cu 0.22861 0.77912 -0.13174
 Cu88 Cu 0.22787 0.87037 -0.22773
 N89 N 0.14052 0.82824 -0.27911
 N90 N 0.17349 0.86559 -0.27859
 C91 C 0.16124 0.89930 -0.31551
 C92 C 0.11793 0.88250 -0.34092
 C93 C 0.10618 0.83686 -0.31670
 H94 H 0.18199 0.93398 -0.32228
 H95 H 0.07396 0.81269 -0.32430
 N96 N 0.27933 0.86829 -0.17240
 N97 N 0.27994 0.83328 -0.13603
 C98 C 0.31809 0.84342 -0.10301
 C99 C 0.34226 0.88727 -0.11896
 C100 C 0.31670 0.90190 -0.16313
 H101 H 0.32626 0.82186 -0.06858
 H102 H 0.32414 0.93520 -0.18622
 H103 H 0.18783 0.83457 -0.17178
 H104 H 0.23215 0.79398 -0.20904
 Si105 Si 0.50060 1.00693 0.00513
 Si106 Si 0.00634 0.50004 0.99589
 Si107 Si 0.99240 -0.00204 0.49993
 C108 C 0.04112 0.38869 1.10204
 C109 C 0.09324 0.37910 1.09502
 C110 C 0.11964 0.40973 1.05968
 C111 C 0.09442 0.44755 1.03145
 C112 C 0.04241 0.45554 1.03785
 C113 C 0.01602 0.42596 1.07326
 H114 H 0.01876 0.36652 1.12837
 H115 H 0.15969 0.40445 1.05306
 H116 H 0.11538 0.46935 1.00356
 H117 H -0.02442 0.43108 1.07807
 C118 C -0.09456 0.61371 1.03245
 C119 C -0.08920 0.61904 1.08578
 C120 C -0.05599 0.58612 1.11236
 C121 C -0.02828 0.54930 1.08609
 C122 C -0.03347 0.54471 1.03289
 C123 C -0.06668 0.57714 1.00631
 H124 H -0.11917 0.63864 1.01048
 H125 H -0.05100 0.58901 1.15340
 H126 H -0.00202 0.52542 1.10729
 H127 H -0.07054 0.57464 0.96507
 C128 C -0.03671 0.39068 0.89170
 C129 C -0.08916 0.38563 0.89925
 C130 C -0.11325 0.41809 0.93406
 C131 C -0.08528 0.45406 0.96154
 C132 C -0.03282 0.45804 0.95469
 C133 C -0.00876 0.42624 0.91960
 H134 H -0.01681 0.36590 0.86574
 H135 H -0.15361 0.41527 0.94059
 H136 H -0.10451 0.47746 0.98923
 H137 H 0.03190 0.42821 0.91454
 C138 C 0.11244 0.60794 0.95713
 C139 C 0.10501 0.61518 0.90421
 C140 C 0.06980 0.58425 0.87832
 C141 C 0.04170 0.54790 0.90504
 C142 C 0.04844 0.54190 0.95799
 C143 C 0.08408 0.57192 0.98377
 H144 H 0.13871 0.63134 0.97854
 H145 H 0.06332 0.58862 0.83758
 H146 H 0.01362 0.52586 0.88452
 H147 H 0.08914 0.56836 1.02483
 C148 C 1.03586 0.10596 0.39382
 C149 C 1.08492 0.09042 0.37939
 C150 C 1.10674 0.04829 0.40504
 C151 C 1.07989 0.02187 0.44253
 C152 C 1.03094 0.03715 0.45573
 C153 C 1.00905 0.07919 0.43110
 H154 H 1.01710 0.13789 0.37559
 H155 H 1.14424 0.03469 0.39588
 H156 H 1.09699 -0.01140 0.46009
 H157 H 0.97075 0.09085 0.44002
 C158 C 1.04782 -0.11504 0.59633
 C159 C 1.09046 -0.09226 0.61982
 C160 C 1.10405 -0.04280 0.60402
 C161 C 1.07521 -0.01664 0.56737
 C162 C 1.03305 -0.03960 0.54445
 C163 C 1.01947 -0.08890 0.55907
 H164 H 1.03574 -0.15291 0.60666
 H165 H 1.13608 -0.02318 0.62071
 H166 H 1.08557 0.02193 0.55736
 H167 H 0.98625 -0.10685 0.54264
 C168 C 0.87805 -0.06037 0.40769
 C169 C 0.90202 -0.10093 0.38221
 C170 C 0.95260 -0.11267 0.39591
 C171 C 0.97862 -0.08393 0.43241
 C172 C 0.95464 -0.04348 0.45688
 C173 C 0.90424 -0.03184 0.44439
 H174 H 0.83938 -0.04961 0.39890
 H175 H 0.97304 -0.14327 0.37792
 H176 H 1.01792 -0.09283 0.44090
 H177 H 0.88545 0.00022 0.46179
 C178 C 0.88398 0.04294 0.60339
 C179 C 0.89964 0.09202 0.61820
 C180 C 0.94176 0.11357 0.59324
 C181 C 0.96803 0.08642 0.55601
 C182 C 0.95273 0.03736 0.54260
 C183 C 0.91077 0.01574 0.56664
 H184 H 0.85217 0.02432 0.62121
 H185 H 0.95533 0.15113 0.60265
 H186 H 1.00127 0.10329 0.53894
 H187 H 0.89927 -0.02274 0.55781
 C188 C 0.39163 1.04317 0.11086
 C189 C 0.38543 1.09605 0.10549
 C190 C 0.41722 1.12253 0.07166
 C191 C 0.45338 1.09651 0.04292
 C192 C 0.45842 1.04370 0.04771
 C193 C 0.42752 1.01729 0.08194
 H194 H 0.36763 1.02125 0.13595
 H195 H 0.41368 1.16323 0.06670
 H196 H 0.47610 1.11757 0.01591
 H197 H 0.43033 0.97635 0.08548
 C198 C 0.61037 1.11040 -0.03597
 C199 C 0.61643 1.10232 -0.08872
 C200 C 0.58428 1.06765 -0.11374
 C201 C 0.54766 1.04079 -0.08634
 C202 C 0.54271 1.04811 -0.03354
 C203 C 0.57419 1.08308 -0.00858
 H204 H 0.63492 1.13624 -0.01535
 H205 H 0.58790 1.06068 -0.15434
 H206 H 0.52464 1.01307 -0.10622
 H207 H 0.57162 1.08838 0.03241
 C208 C 0.41500 0.88986 -0.05653
 C209 C 0.38304 0.91512 -0.09175
 C210 C 0.38895 0.96772 -0.09909
 C211 C 0.42512 0.99463 -0.07085
 C212 C 0.45671 0.96934 -0.03566
 C213 C 0.45163 0.91677 -0.02877
 H214 H 0.41149 0.84936 -0.05013
 H215 H 0.36453 0.98848 -0.12536
 H216 H 0.42795 1.03540 -0.07596
 H217 H 0.47488 0.89660 -0.00102
 C218 C 0.58716 0.93827 0.11981
 C219 C 0.61955 0.90612 0.09214
 C220 C 0.61328 0.90326 0.03867
 C221 C 0.57658 0.93256 0.01352
 C222 C 0.54501 0.96496 0.04114
 C223 C 0.55027 0.96758 0.09445
 H224 H 0.59060 0.94148 0.16094
 H225 H 0.63733 0.87934 0.01573
 H226 H 0.57337 0.93049 -0.02779
 H227 H 0.52686 0.99304 0.11646
   
