data_POSCAR
  _audit_creation_date              2014-09-24
  _audit_creation_method            'ToBaCCo'
  _symmetry_space_group_name_H-M    'P1'
  _symmetry_Int_Tables_number       1
  _symmetry_cell_setting            triclinic
  loop_
  _symmetry_equiv_pos_as_xyz
 x,y,z
_cell_length_a 37.9432
_cell_length_b 37.9334
_cell_length_c 37.9394
_cell_angle_alpha 89.931800
_cell_angle_beta 90.007900
_cell_angle_gamma 90.010600
loop_
  _atom_site_label
  _atom_site_type_symbol
  _atom_site_fract_x
  _atom_site_fract_y
  _atom_site_fract_z
C1 C 0.26974 0.37451 -0.02854
 C2 C 0.25694 0.38604 0.00422
 C3 C 0.27239 0.37667 0.03616
 C4 C 0.30157 0.35376 0.03625
 C5 C 0.31476 0.34042 0.00372
 C6 C 0.29912 0.35103 -0.02887
 C7 C 0.31113 0.33511 -0.06010
 C8 C 0.33791 0.31001 -0.05976
 C9 C 0.35425 0.29947 -0.02817
 C10 C 0.34225 0.31480 0.00407
 C11 C 0.31650 0.34230 0.06810
 C12 C 0.34325 0.31742 0.06843
 C13 C 0.35602 0.30294 0.03695
 C14 C 0.38075 0.27536 0.03760
 C15 C 0.39177 0.26033 0.00607
 C16 C 0.37964 0.27169 -0.02705
 H17 H 0.29877 0.34021 -0.08519
 H18 H 0.34405 0.29778 -0.08463
 H19 H 0.30683 0.35149 0.09327
 H20 H 0.35303 0.30879 0.09381
 H21 H 0.23509 0.40447 0.00518
 H22 H 0.41143 0.23961 0.00772
 C23 C 0.72846 0.62452 0.03823
 C24 C 0.74486 0.61484 0.00681
 C25 C 0.73223 0.62501 -0.02652
 C26 C 0.70239 0.64788 -0.02797
 C27 C 0.68574 0.65864 0.00407
 C28 C 0.69861 0.64652 0.03717
 C29 C 0.68255 0.65824 0.06838
 C30 C 0.65470 0.68201 0.06746
 C31 C 0.64181 0.69494 0.03529
 C32 C 0.65722 0.68299 0.00320
 C33 C 0.69052 0.66283 -0.05986
 C34 C 0.66259 0.68656 -0.06065
 C35 C 0.64556 0.69699 -0.02958
 C36 C 0.61865 0.72276 -0.03005
 C37 C 0.60390 0.73396 0.00175
 C38 C 0.61519 0.72094 0.03427
 H39 H 0.69204 0.64998 0.09397
 H40 H 0.64396 0.69079 0.09235
 H41 H 0.70354 0.65799 -0.08461
 H42 H 0.65528 0.69757 -0.08592
 H43 H 0.76719 0.59708 0.00869
 H44 H 0.58350 0.75403 0.00124
 C45 C 0.62315 0.27310 0.96208
 C46 C 0.61336 0.25693 0.99360
 C47 C 0.62360 0.26969 1.02685
 C48 C 0.64656 0.29948 1.02808
 C49 C 0.65739 0.31590 0.99590
 C50 C 0.64522 0.30289 0.96290
 C51 C 0.65695 0.31874 0.93155
 C52 C 0.68086 0.34647 0.93223
 C53 C 0.69392 0.35942 0.96428
 C54 C 0.68192 0.34429 0.99652
 C55 C 0.66155 0.31151 1.05986
 C56 C 0.68551 0.33929 1.06040
 C57 C 0.69605 0.35605 1.02918
 C58 C 0.72203 0.38280 1.02935
 C59 C 0.73321 0.39731 0.99741
 C60 C 0.72011 0.38585 0.96504
 H61 H 0.64857 0.30917 0.90605
 H62 H 0.68964 0.35708 0.90725
 H63 H 0.65656 0.29871 1.08472
 H64 H 0.69658 0.34668 1.08559
 H65 H 0.59556 0.23462 0.99184
 H66 H 0.75340 0.41760 0.99766
 C67 C 0.27682 0.61774 0.96416
 C68 C 0.26182 0.60698 0.99586
 C69 C 0.27328 0.61940 1.02880
 C70 C 0.30104 0.64476 1.02960
 C71 C 0.31629 0.65656 0.99723
 C72 C 0.30439 0.64252 0.96451
 C73 C 0.31879 0.65514 0.93288
 C74 C 0.34359 0.68199 0.93294
 C75 C 0.35503 0.69720 0.96464
 C76 C 0.34179 0.68416 0.99730
 C77 C 0.31151 0.66136 1.06103
 C78 C 0.33645 0.68827 1.06109
 C79 C 0.35231 0.70009 1.02973
 C80 C 0.37563 0.72958 1.02913
 C81 C 0.38709 0.74224 0.99627
 C82 C 0.37778 0.72652 0.96447
 H83 H 0.31014 0.64518 0.90761
 H84 H 0.35271 0.69154 0.90768
 H85 H 0.29931 0.65535 1.08598
 H86 H 0.34141 0.70087 1.08607
 H87 H 0.24102 0.58737 0.99454
 H88 H 0.40540 0.76419 0.99516
 C89 C -0.03011 0.26792 0.37409
 C90 C 0.00268 0.25539 0.38585
 C91 C 0.03454 0.27088 0.37629
 C92 C 0.03450 0.29975 0.35295
 C93 C 0.00192 0.31261 0.33941
 C94 C -0.03058 0.29697 0.35021
 C95 C -0.06189 0.30857 0.33410
 C96 C -0.06170 0.33502 0.30865
 C97 C -0.03019 0.35137 0.29792
 C98 C 0.00211 0.33974 0.31338
 C99 C 0.06626 0.31463 0.34123
 C100 C 0.06645 0.34103 0.31593
 C101 C 0.03489 0.35352 0.30130
 C102 C 0.03534 0.37791 0.27334
 C103 C 0.00369 0.38838 0.25804
 C104 C -0.02929 0.37632 0.26978
 H105 H -0.08691 0.29611 0.33928
 H106 H -0.08660 0.34084 0.29625
 H107 H 0.09148 0.30515 0.35051
 H108 H 0.09178 0.35064 0.30708
 H109 H 0.00369 0.23377 0.40458
 H110 H 0.00506 0.40775 0.23699
 C111 C 0.03847 0.62122 0.72619
 C112 C 0.00676 0.61083 0.74139
 C113 C -0.02621 0.62288 0.72955
 C114 C -0.02695 0.64771 0.70121
 C115 C 0.00545 0.65914 0.68574
 C116 C 0.03816 0.64537 0.69804
 C117 C 0.06981 0.65757 0.68337
 C118 C 0.06982 0.68376 0.65786
 C119 C 0.03816 0.69872 0.64600
 C120 C 0.00545 0.68604 0.65945
 C121 C -0.05834 0.66408 0.69019
 C122 C -0.05835 0.69030 0.66445
 C123 C -0.02696 0.70167 0.64829
 C124 C -0.02627 0.73045 0.62399
 C125 C 0.00670 0.74281 0.61243
 C126 C 0.03844 0.72746 0.62254
 H127 H 0.09508 0.64783 0.69232
 H128 H 0.09508 0.69298 0.64841
 H129 H -0.08331 0.65844 0.70252
 H130 H -0.08331 0.70276 0.65908
 H131 H 0.00814 0.59155 0.76250
 H132 H 0.00805 0.76432 0.59360
 C133 C 1.03154 0.61952 0.27738
 C134 C 0.99979 0.60533 0.26538
 C135 C 0.96724 0.61599 0.27871
 C136 C 0.96611 0.64141 0.30588
 C137 C 0.99818 0.65623 0.31867
 C138 C 1.03101 0.64522 0.30434
 C139 C 1.06205 0.66166 0.31577
 C140 C 1.06119 0.68849 0.34073
 C141 C 1.02923 0.69977 0.35592
 C142 C 0.99723 0.68356 0.34432
 C143 C 0.93390 0.65371 0.31924
 C144 C 0.93291 0.68034 0.34430
 C145 C 0.96408 0.69584 0.35682
 C146 C 0.96293 0.72468 0.38005
 C147 C 0.99424 0.74065 0.39062
 C148 C 1.02762 0.72874 0.37985
 H149 H 1.08736 0.65480 0.30461
 H150 H 1.08595 0.70114 0.34642
 H151 H 0.90902 0.64351 0.30983
 H152 H 0.90732 0.68939 0.35303
 H153 H 1.00040 0.58564 0.24464
 H154 H 0.99220 0.76230 0.40919
 C155 C 1.02899 0.27925 0.61711
 C156 C 0.99711 0.26784 0.60269
 C157 C 0.96466 0.28112 0.61381
 C158 C 0.96380 0.30767 0.63988
 C159 C 0.99598 0.31985 0.65495
 C160 C 1.02869 0.30555 0.64350
 C161 C 1.05983 0.31627 0.66022
 C162 C 1.05921 0.34052 0.68769
 C163 C 1.02741 0.35570 0.69940
 C164 C 0.99528 0.34475 0.68300
 C165 C 0.93172 0.32095 0.65257
 C166 C 0.93096 0.34525 0.67995
 C167 C 0.96225 0.35712 0.69575
 C168 C 0.96136 0.37954 0.72527
 C169 C 0.99284 0.38950 0.74136
 C170 C 1.02610 0.37898 0.72891
 H171 H 1.08505 0.30508 0.65308
 H172 H 1.08403 0.34559 0.70049
 H173 H 0.90677 0.31206 0.64203
 H174 H 0.90545 0.35387 0.68931
 H175 H 0.99749 0.24740 0.58268
 H176 H 0.99104 0.40754 0.76347
 C177 C 0.26937 -0.02806 0.37526
 C178 C 0.25672 0.00474 0.38681
 C179 C 0.27231 0.03661 0.37745
 C180 C 0.30152 0.03656 0.35454
 C181 C 0.31453 0.00396 0.34119
 C182 C 0.29871 -0.02854 0.35177
 C183 C 0.31048 -0.05985 0.33583
 C184 C 0.33722 -0.05968 0.31071
 C185 C 0.35376 -0.02818 0.30019
 C186 C 0.34199 0.00413 0.31555
 C187 C 0.31664 0.06832 0.34309
 C188 C 0.34338 0.06850 0.31819
 C189 C 0.35595 0.03693 0.30368
 C190 C 0.38064 0.03741 0.27606
 C191 C 0.39142 0.00579 0.26098
 C192 C 0.37909 -0.02725 0.27236
 H193 H 0.29794 -0.08487 0.34090
 H194 H 0.34315 -0.08459 0.29845
 H195 H 0.30713 0.09355 0.35231
 H196 H 0.35331 0.09381 0.30955
 H197 H 0.23488 0.00574 0.40525
 H198 H 0.41102 0.00729 0.24020
 C199 C 0.73094 -0.02710 0.62285
 C200 C 0.74345 0.00625 0.61253
 C201 C 0.72717 0.03766 0.62242
 C202 C 0.69755 0.03659 0.64471
 C203 C 0.68477 0.00348 0.65691
 C204 C 0.70129 -0.02857 0.64597
 C205 C 0.68949 -0.06047 0.66097
 C206 C 0.66178 -0.06125 0.68498
 C207 C 0.64494 -0.03017 0.69566
 C208 C 0.65652 0.00262 0.68158
 C209 C 0.68166 0.06781 0.65663
 C210 C 0.65413 0.06690 0.68073
 C211 C 0.64134 0.03473 0.69377
 C212 C 0.61507 0.03372 0.72010
 C213 C 0.60380 0.00122 0.73315
 C214 C 0.61831 -0.03060 0.72173
 H215 H 0.70239 -0.08525 0.65596
 H216 H 0.65452 -0.08653 0.69603
 H217 H 0.69108 0.09340 0.64825
 H218 H 0.64354 0.09180 0.68966
 H219 H 0.76564 0.00818 0.59460
 H220 H 0.58361 0.00075 0.75343
 C221 C 0.37568 0.96379 0.72934
 C222 C 0.38524 0.99527 0.74566
 C223 C 0.37507 1.02852 0.73286
 C224 C 0.35236 1.02987 0.70294
 C225 C 0.34161 0.99778 0.68642
 C226 C 0.35368 0.96471 0.69946
 C227 C 0.34192 0.93345 0.68352
 C228 C 0.31822 0.93429 0.65561
 C229 C 0.30538 0.96643 0.64256
 C230 C 0.31731 0.99856 0.65786
 C231 C 0.33756 1.06175 0.69088
 C232 C 0.31385 1.06246 0.66293
 C233 C 0.30335 1.03132 0.64607
 C234 C 0.27758 1.03168 0.61918
 C235 C 0.26641 0.99985 0.60448
 C236 C 0.27943 0.96738 0.61589
 H237 H 0.35006 0.90788 0.69317
 H238 H 0.30942 0.90937 0.64495
 H239 H 0.34254 1.08655 0.70378
 H240 H 0.30292 1.08772 0.65546
 H241 H 0.40302 0.99356 0.76799
 H242 H 0.24634 1.00030 0.58409
 C243 C 0.72677 1.02638 0.37981
 C244 C 0.73841 0.99336 0.39196
 C245 C 0.72338 0.96169 0.38127
 C246 C 0.69547 0.96208 0.35690
 C247 C 0.68337 0.99484 0.34303
 C248 C 0.69877 1.02721 0.35464
 C249 C 0.68808 1.05864 0.33809
 C250 C 0.66277 1.05871 0.31150
 C251 C 0.64667 1.02737 0.29996
 C252 C 0.65745 0.99492 0.31580
 C253 C 0.68085 0.93046 0.34457
 C254 C 0.65563 0.93054 0.31813
 C255 C 0.64404 0.96225 0.30301
 C256 C 0.62093 0.96203 0.27401
 C257 C 0.61124 0.99382 0.25843
 C258 C 0.62283 1.02675 0.27083
 H259 H 0.70039 1.08358 0.34387
 H260 H 0.65769 1.08370 0.29893
 H261 H 0.68961 0.90518 0.35446
 H262 H 0.64623 0.90529 0.30884
 H263 H 0.75935 0.99190 0.41140
 H264 H 0.59270 0.99258 0.23669
 O265 O 0.87271 0.82429 0.46778
 O266 O 0.82958 0.87653 0.53540
 O267 O 0.87738 0.82786 0.53548
 O268 O 0.82514 0.87152 0.46796
 O269 O 0.78309 0.83157 0.47339
 O270 O 0.83720 0.78624 0.54194
 O271 O 0.78780 0.83647 0.54174
 O272 O 0.83280 0.78221 0.47323
 Cu273 Cu 0.85526 0.85403 0.50135
 Cu274 Cu 0.80602 0.80487 0.50827
 C275 C 0.86054 0.79452 0.45889
 C276 C 0.80107 0.86630 0.54947
 C277 C 0.86700 0.79947 0.54977
 C278 C 0.79527 0.85946 0.45922
 O279 O 0.17379 0.12686 0.53738
 O280 O 0.12653 0.17455 0.46880
 O281 O 0.17450 0.12753 0.46927
 O282 O 0.12536 0.17487 0.53681
 O283 O 0.16542 0.21711 0.53765
 O284 O 0.21626 0.16815 0.46961
 O285 O 0.16651 0.21694 0.46913
 O286 O 0.21558 0.16740 0.53818
 Cu287 Cu 0.14605 0.14687 0.50323
 Cu288 Cu 0.19517 0.19668 0.50393
 C289 C 0.20303 0.13818 0.54887
 C290 C 0.13804 0.20374 0.45732
 C291 C 0.20359 0.13941 0.45792
 C292 C 0.13622 0.20437 0.54810
 O293 O 0.17156 0.87695 0.46353
 O294 O 0.12871 0.82748 0.53363
 O295 O 0.17572 0.87558 0.53115
 O296 O 0.12317 0.82920 0.46605
 O297 O 0.16348 0.78754 0.46087
 O298 O 0.21778 0.83549 0.52744
 O299 O 0.16860 0.78527 0.52944
 O300 O 0.21350 0.83686 0.45882
 Cu301 Cu 0.14577 0.85630 0.49883
 Cu302 Cu 0.19508 0.80703 0.49371
 C303 C 0.20002 0.86619 0.44974
 C304 C 0.14078 0.79788 0.54329
 C305 C 0.20566 0.86403 0.54029
 C306 C 0.13356 0.80039 0.45278
 O307 O 0.82639 0.12296 0.46569
 O308 O 0.87298 0.17615 0.53027
 O309 O 0.82538 0.12870 0.53332
 O310 O 0.87455 0.17091 0.46278
 O311 O 0.83451 0.21286 0.45767
 O312 O 0.78299 0.16836 0.52870
 O313 O 0.83276 0.21806 0.52618
 O314 O 0.78476 0.16323 0.45997
 Cu315 Cu 0.85380 0.14565 0.49829
 Cu316 Cu 0.80447 0.19484 0.49266
 C317 C 0.79763 0.13325 0.45217
 C318 C 0.86137 0.20617 0.53911
 C319 C 0.79578 0.14075 0.54289
 C320 C 0.86384 0.19929 0.44875
 O321 O 0.46803 0.87220 0.82521
 O322 O 0.53662 0.82571 0.87367
 O323 O 0.53617 0.87369 0.82519
 O324 O 0.46862 0.82464 0.87268
 O325 O 0.46938 0.78255 0.83245
 O326 O 0.53747 0.83330 0.78332
 O327 O 0.53786 0.78360 0.83353
 O328 O 0.46880 0.83190 0.78319
 Cu329 Cu 0.50248 0.85313 0.85319
 Cu330 Cu 0.50371 0.80361 0.80386
 C331 C 0.45668 0.86035 0.79613
 C332 C 0.54830 0.79642 0.86270
 C333 C 0.54781 0.86260 0.79593
 C334 C 0.45752 0.79536 0.86105
 O335 O 0.46863 0.12747 0.17554
 O336 O 0.53610 0.17110 0.12333
 O337 O 0.53627 0.12325 0.17203
 O338 O 0.46853 0.17493 0.12811
 O339 O 0.47354 0.21713 0.16790
 O340 O 0.54223 0.16350 0.21360
 O341 O 0.54205 0.21296 0.16329
 O342 O 0.47361 0.16754 0.21748
 Cu343 Cu 0.50213 0.14515 0.14576
 Cu344 Cu 0.50851 0.19452 0.19478
 C345 C 0.45960 0.13960 0.20528
 C346 C 0.55000 0.19969 0.13354
 C347 C 0.55026 0.13370 0.20051
 C348 C 0.45949 0.20475 0.14007
 O349 O 0.46685 0.17221 0.87766
 O350 O 0.53191 0.12573 0.82506
 O351 O 0.53454 0.17366 0.87214
 O352 O 0.46450 0.12352 0.83027
 O353 O 0.45929 0.16334 0.78806
 O354 O 0.52977 0.21572 0.83209
 O355 O 0.52765 0.16565 0.78282
 O356 O 0.46104 0.21356 0.83705
 Cu357 Cu 0.49975 0.14485 0.85538
 Cu358 Cu 0.49396 0.19383 0.80577
 C359 C 0.45315 0.20080 0.86706
 C360 C 0.54068 0.13718 0.79495
 C361 C 0.54398 0.20322 0.85982
 C362 C 0.45055 0.13399 0.80178
 O363 O 0.46253 0.82837 0.12439
 O364 O 0.53220 0.87157 0.17402
 O365 O 0.53010 0.82447 0.12604
 O366 O 0.46457 0.87660 0.17231
 O367 O 0.45938 0.83626 0.21400
 O368 O 0.52644 0.78235 0.16614
 O369 O 0.52804 0.83166 0.21627
 O370 O 0.45786 0.78638 0.16449
 Cu371 Cu 0.49757 0.85429 0.14521
 Cu372 Cu 0.49250 0.80493 0.19449
 C373 C 0.44888 0.79979 0.13509
 C374 C 0.54181 0.85955 0.20365
 C375 C 0.53930 0.79454 0.13761
 C376 C 0.45122 0.86616 0.20110
 O377 O 0.82508 0.46947 0.87363
 O378 O 0.87771 0.53553 0.82828
 O379 O 0.83029 0.53682 0.87724
 O380 O 0.87217 0.46777 0.82564
 O381 O 0.83203 0.47323 0.78381
 O382 O 0.78817 0.54286 0.83751
 O383 O 0.83717 0.54196 0.78701
 O384 O 0.78280 0.47459 0.83390
 Cu385 Cu 0.85543 0.50205 0.85510
 Cu386 Cu 0.80583 0.50877 0.80631
 C387 C 0.79493 0.46097 0.86209
 C388 C 0.86718 0.54963 0.79986
 C389 C 0.80178 0.55094 0.86708
 C390 C 0.85974 0.45876 0.79601
 O391 O 0.17390 0.46721 0.12803
 O392 O 0.12598 0.53617 0.17461
 O393 O 0.17280 0.53492 0.12522
 O394 O 0.12683 0.46809 0.17590
 O395 O 0.16792 0.46939 0.21716
 O396 O 0.21536 0.53805 0.16480
 O397 O 0.16692 0.53808 0.21596
 O398 O 0.21691 0.46936 0.16725
 Cu399 Cu 0.14574 0.50163 0.14702
 Cu400 Cu 0.19609 0.50406 0.19548
 C401 C 0.20357 0.45671 0.13923
 C402 C 0.13755 0.54832 0.20350
 C403 C 0.20204 0.54738 0.13543
 C404 C 0.13912 0.45722 0.20496
 O405 O 0.87499 0.46376 0.17138
 O406 O 0.82555 0.53353 0.12829
 O407 O 0.87401 0.53128 0.17498
 O408 O 0.82569 0.46543 0.12453
 O409 O 0.78459 0.46241 0.16565
 O410 O 0.83475 0.52850 0.21792
 O411 O 0.78429 0.53106 0.16931
 O412 O 0.83560 0.46001 0.21407
 Cu413 Cu 0.85392 0.49862 0.14561
 Cu414 Cu 0.80561 0.49513 0.19603
 C415 C 0.86469 0.45057 0.20029
 C416 C 0.79660 0.54420 0.14098
 C417 C 0.86320 0.54081 0.20511
 C418 C 0.79676 0.45311 0.13585
 O419 O 0.12313 0.46446 0.82872
 O420 O 0.17596 0.53054 0.87350
 O421 O 0.12864 0.53197 0.82595
 O422 O 0.17205 0.46275 0.87615
 O423 O 0.21360 0.45738 0.83577
 O424 O 0.16830 0.52739 0.78356
 O425 O 0.21778 0.52616 0.83322
 O426 O 0.16303 0.45891 0.78672
 Cu427 Cu 0.14599 0.49765 0.85515
 Cu428 Cu 0.19491 0.49188 0.80558
 C429 C 0.13319 0.45100 0.79988
 C430 C 0.20570 0.53969 0.86145
 C431 C 0.14057 0.54139 0.79621
 C432 C 0.20039 0.44874 0.86535
 N433 N 0.22013 0.39146 0.07065
 C434 C 0.25580 0.39151 0.06822
 N435 N 0.27462 0.41094 0.09175
 N436 N 0.25820 0.43006 0.11631
 C437 C 0.22242 0.43068 0.11787
 N438 N 0.20380 0.41068 0.09489
 N439 N 0.77989 0.61165 0.07463
 C440 C 0.74437 0.61037 0.07097
 N441 N 0.72549 0.58981 0.09352
 N442 N 0.74176 0.57057 0.11815
 C443 C 0.77748 0.57106 0.12082
 N444 N 0.79609 0.59236 0.09896
 N445 N 0.72061 0.41904 0.90857
 C446 C 0.73805 0.39988 0.93340
 N447 N 0.77372 0.39866 0.93222
 N448 N 0.79144 0.41646 0.90784
 C449 C 0.77429 0.43623 0.88350
 N450 N 0.73845 0.43686 0.88393
 N451 N 0.27848 0.58298 0.90884
 C452 C 0.26026 0.60362 0.93181
 N453 N 0.22472 0.60545 0.92876
 N454 N 0.20785 0.58674 0.90450
 C455 C 0.22576 0.56543 0.88214
 N456 N 0.26151 0.56428 0.88428
 N457 N 0.06924 0.21901 0.39195
 C458 C 0.06668 0.25466 0.39140
 N459 N 0.09020 0.27390 0.41044
 N460 N 0.11490 0.25789 0.42978
 C461 C 0.11659 0.22212 0.43101
 N462 N 0.09361 0.20309 0.41140
 N463 N 0.07373 0.77966 0.60965
 C464 C 0.07078 0.74407 0.60828
 N465 N 0.09383 0.72568 0.58790
 N466 N 0.11834 0.74250 0.56898
 C467 C 0.12038 0.77827 0.56963
 N468 N 0.09795 0.79639 0.59069
 N469 N 0.92624 0.77608 0.39141
 C470 C 0.93013 0.74065 0.39377
 N471 N 0.90799 0.72223 0.41517
 N472 N 0.88349 0.73893 0.43417
 C473 C 0.88060 0.77462 0.43258
 N474 N 0.90203 0.79270 0.41043
 N475 N 0.90800 0.28053 0.58087
 C476 C 0.93306 0.26309 0.59973
 N477 N 0.93208 0.22739 0.60071
 N478 N 0.90766 0.20967 0.58300
 C479 C 0.88307 0.22683 0.56358
 N480 N 0.88331 0.26268 0.56316
 N481 N 0.39287 0.07313 0.22413
 C482 C 0.39482 0.06984 0.25965
 N483 N 0.41578 0.09247 0.27792
 N484 N 0.43472 0.11692 0.26100
 C485 C 0.43349 0.11928 0.22527
 N486 N 0.41183 0.09728 0.20731
 N487 N 0.60187 0.06613 0.77385
 C488 C 0.60097 0.06524 0.73816
 N489 N 0.58234 0.09045 0.72070
 N490 N 0.56475 0.11522 0.73852
 C491 C 0.56509 0.11539 0.77437
 N492 N 0.58429 0.09064 0.79155
 N493 N 0.39008 0.92792 0.78081
 C494 C 0.39019 0.93117 0.74521
 N495 N 0.40993 0.90827 0.72595
 N496 N 0.42941 0.88362 0.74190
 C497 C 0.43007 0.88137 0.77764
 N498 N 0.40966 0.90361 0.79668
 N499 N 0.58617 0.90666 0.27582
 C500 C 0.60658 0.92973 0.25742
 N501 N 0.60802 0.92677 0.22184
 N502 N 0.58911 0.90252 0.20514
 C503 C 0.56804 0.88006 0.22327
 N504 N 0.56731 0.88212 0.25903
 N505 N 0.40458 0.21972 0.94772
 C506 C 0.39358 0.25353 0.94339
 N507 N 0.40021 0.26950 0.91186
 N508 N 0.41788 0.25258 0.88644
 C509 C 0.42937 0.21899 0.89162
 N510 N 0.42191 0.20288 0.92254
 N511 N 0.59199 0.72379 0.91019
 C512 C 0.60648 0.74138 0.93786
 N513 N 0.60434 0.77705 0.93851
 N514 N 0.58769 0.79451 0.91312
 C515 C 0.57251 0.77708 0.88589
 N516 N 0.57536 0.74137 0.88456
 N517 N 0.39690 0.73094 0.08984
 C518 C 0.38867 0.74766 0.05910
 N519 N 0.39774 0.78215 0.05578
 N520 N 0.41497 0.79891 0.08112
 C521 C 0.42418 0.78203 0.11116
 N522 N 0.41444 0.74777 0.11538
 N523 N 0.59942 0.21753 0.05297
 C524 C 0.60955 0.25170 0.05656
 N525 N 0.60201 0.26822 0.08755
 N526 N 0.58450 0.25149 0.11320
 C527 C 0.57397 0.21751 0.10883
 N528 N 0.58215 0.20087 0.07840
 N529 N 0.22312 0.06291 0.60538
 C530 C 0.25880 0.06368 0.60709
 N531 N 0.27618 0.09131 0.59221
 N532 N 0.25837 0.11677 0.57557
 C533 C 0.22265 0.11531 0.57314
 N534 N 0.20544 0.08814 0.58873
 N535 N 0.72882 0.08764 0.39994
 C536 C 0.74487 0.05614 0.39349
 N537 N 0.77873 0.05207 0.40440
 N538 N 0.79556 0.07748 0.42144
 C539 C 0.77938 0.10839 0.42869
 N540 N 0.74572 0.11329 0.41731
 N541 N 0.73262 0.91216 0.60145
 C542 C 0.74899 0.94331 0.60872
 N543 N 0.78306 0.94711 0.59835
 N544 N 0.79977 0.92169 0.58116
 C545 C 0.78327 0.89107 0.57332
 N546 N 0.74938 0.88653 0.58403
 N547 N 0.21701 0.94509 0.39764
 C548 C 0.25146 0.94190 0.38845
 N549 N 0.26836 0.91132 0.39686
 N550 N 0.25174 0.88583 0.41475
 C551 C 0.21753 0.88997 0.42466
 N552 N 0.20046 0.91981 0.41521
 N553 N 0.05198 0.40299 0.78118
 C554 C 0.05576 0.39286 0.74706
 N555 N 0.08699 0.40006 0.73079
 N556 N 0.11273 0.41718 0.74774
 C557 C 0.10822 0.42763 0.78171
 N558 N 0.07751 0.41986 0.79808
 N559 N 0.06307 0.60592 0.22306
 C560 C 0.06368 0.60763 0.25876
 N561 N 0.09101 0.59240 0.27628
 N562 N 0.11630 0.57544 0.25861
 C563 C 0.11492 0.57293 0.22288
 N564 N 0.08810 0.58889 0.20551
 N565 N 0.90994 0.39749 0.26849
 C566 C 0.94091 0.39002 0.25188
 N567 N 0.94452 0.40016 0.21773
 N568 N 0.91915 0.41754 0.20115
 C569 C 0.88882 0.42591 0.21789
 N570 N 0.88439 0.41525 0.25185
 N571 N 0.94792 0.59846 0.78155
 C572 C 0.94398 0.60922 0.74761
 N573 N 0.91262 0.60249 0.73139
 N574 N 0.88702 0.58490 0.74818
 C575 C 0.89182 0.57359 0.78190
 N576 N 0.92255 0.58119 0.79826
 N577 N 0.78434 0.60061 0.94753
 C578 C 0.75021 0.61086 0.94387
 N579 N 0.73367 0.60335 0.91288
 N580 N 0.75032 0.58577 0.88728
 C581 C 0.78425 0.57514 0.89168
 N582 N 0.80093 0.58326 0.92213
 N583 N 0.21746 0.39704 0.94453
 C584 C 0.25188 0.38771 0.94136
 N585 N 0.26876 0.39594 0.91072
 N586 N 0.25216 0.41378 0.88517
 C587 C 0.21798 0.42384 0.88931
 N588 N 0.20093 0.41457 0.91921
 N589 N 0.27135 0.59890 0.08988
 C590 C 0.25513 0.60597 0.05858
 N591 N 0.22101 0.59591 0.05472
 N592 N 0.20405 0.57906 0.08020
 C593 C 0.22036 0.57113 0.11090
 N594 N 0.25433 0.58165 0.11555
 N595 N 0.77661 0.39753 0.05997
 C596 C 0.74097 0.39503 0.06121
 N597 N 0.72369 0.40932 0.08916
 N598 N 0.74152 0.42605 0.11452
 C599 C 0.77717 0.42925 0.11257
 N600 N 0.79431 0.41431 0.08506
 N601 N 0.94742 0.78226 0.59952
 C602 C 0.94383 0.74824 0.61017
 N603 N 0.91275 0.73163 0.60309
 N604 N 0.88711 0.74812 0.58530
 C605 C 0.89158 0.78192 0.57409
 N606 N 0.92201 0.79868 0.58203
 N607 N 0.94297 0.21580 0.39699
 C608 C 0.93984 0.25018 0.38743
 N609 N 0.90924 0.26718 0.39551
 N610 N 0.88366 0.25073 0.41340
 C611 C 0.88771 0.21659 0.42364
 N612 N 0.91759 0.19942 0.41456
 N613 N 0.06011 0.22465 0.60339
 C614 C 0.06099 0.26035 0.60518
 N615 N 0.08883 0.27766 0.59064
 N616 N 0.11442 0.25979 0.57433
 C617 C 0.11289 0.22406 0.57186
 N618 N 0.08547 0.20691 0.58706
 N619 N 0.05282 0.78105 0.40435
 C620 C 0.05703 0.74704 0.39399
 N621 N 0.08838 0.73104 0.40121
 N622 N 0.11384 0.74814 0.41862
 C623 C 0.10888 0.78198 0.42931
 N624 N 0.07806 0.79808 0.42147
 N625 N 0.60419 0.93807 0.77612
 C626 C 0.60618 0.93733 0.74044
 N627 N 0.59141 0.90973 0.72298
 N628 N 0.57467 0.88426 0.74068
 C629 C 0.57196 0.88570 0.77640
 N630 N 0.58742 0.91284 0.79370
 N631 N 0.39921 0.91151 0.27013
 C632 C 0.39269 0.94307 0.25416
 N633 N 0.40340 0.94724 0.22025
 N634 N 0.42034 0.92184 0.20330
 C635 C 0.42766 0.89088 0.21940
 N636 N 0.41650 0.88589 0.25312
 N637 N 0.60227 0.08782 0.26920
 C638 C 0.60952 0.05672 0.25276
 N639 N 0.59954 0.05318 0.21855
 N640 N 0.58248 0.07868 0.20180
 C641 C 0.57435 0.10915 0.21838
 N642 N 0.58491 0.11355 0.25237
 N643 N 0.39890 0.05473 0.78501
 C644 C 0.38919 0.05816 0.75071
 N645 N 0.39752 0.08879 0.73383
 N646 N 0.41551 0.11421 0.75034
 C647 C 0.42570 0.10995 0.78443
 N648 N 0.41664 0.07994 0.80146
 N649 N 0.60111 0.77442 0.06680
 C650 C 0.60070 0.73871 0.06580
 N651 N 0.58219 0.72092 0.09087
 N652 N 0.56423 0.73844 0.11561
 C653 C 0.56408 0.77429 0.11589
 N654 N 0.58317 0.79180 0.09127
 N655 N 0.39292 0.22344 0.07338
 C656 C 0.39478 0.25898 0.07011
 N657 N 0.41563 0.27729 0.09281
 N658 N 0.43453 0.26041 0.11731
 C659 C 0.43340 0.22466 0.11965
 N660 N 0.41185 0.20666 0.09758
 N661 N 0.58833 0.27530 0.90690
 C662 C 0.60927 0.25685 0.92945
 N663 N 0.61121 0.22134 0.92591
 N664 N 0.59220 0.20473 0.90168
 C665 C 0.57052 0.22288 0.87983
 N666 N 0.56936 0.25860 0.88238
 N667 N 0.39234 0.77872 0.92973
 C668 C 0.39248 0.74305 0.93227
 N669 N 0.41193 0.72423 0.90877
 N670 N 0.43100 0.74066 0.88412
 C671 C 0.43155 0.77645 0.88248
 N672 N 0.41152 0.79506 0.90542
 N673 N 0.72210 0.90643 0.41619
 C674 C 0.74009 0.92932 0.39521
 N675 N 0.77561 0.92628 0.39300
 N676 N 0.79270 0.90212 0.41170
 C677 C 0.77502 0.87985 0.43336
 N678 N 0.73928 0.88197 0.43486
 N679 N 0.27938 0.91080 0.58294
 C680 C 0.26164 0.93582 0.60153
 N681 N 0.22596 0.93474 0.60207
 N682 N 0.20852 0.91027 0.58418
 C683 C 0.22597 0.88573 0.56500
 N684 N 0.26181 0.88606 0.56503
 N685 N 0.22012 0.07109 0.39239
 C686 C 0.25579 0.06873 0.39229
 N687 N 0.27463 0.09224 0.41173
 N688 N 0.25823 0.11670 0.43101
 C689 C 0.22244 0.11815 0.43180
 N690 N 0.20381 0.09520 0.41178
 N691 N 0.77859 0.07427 0.61012
 C692 C 0.74311 0.07044 0.60842
 N693 N 0.72436 0.09292 0.58766
 N694 N 0.74074 0.11765 0.56863
 C695 C 0.77643 0.12051 0.56956
 N696 N 0.79489 0.09872 0.59106
 N697 N 0.93523 0.60140 0.22495
 C698 C 0.93579 0.60158 0.26068
 N699 N 0.91025 0.58372 0.27843
 N700 N 0.88543 0.56591 0.26089
 C701 C 0.88556 0.56520 0.22506
 N702 N 0.91070 0.58356 0.20753
 N703 N 0.90640 0.41476 0.72337
 C704 C 0.92871 0.39335 0.74158
 N705 N 0.92515 0.39105 0.77706
 N706 N 0.90115 0.41015 0.79390
 C707 C 0.87955 0.43230 0.77601
 N708 N 0.88210 0.43381 0.74029
 N709 N 0.09361 0.58622 0.72412
 C710 C 0.07080 0.60679 0.74260
 N711 N 0.07389 0.60815 0.77817
 N712 N 0.09802 0.58901 0.79481
 C713 C 0.12020 0.56775 0.77661
 N714 N 0.11804 0.56711 0.74085
 N715 N 0.09101 0.41212 0.27615
 C716 C 0.06778 0.39241 0.25722
 N717 N 0.07088 0.39173 0.22164
 N718 N 0.09544 0.41069 0.20545
 C719 C 0.11809 0.43105 0.22410
 N720 N 0.11588 0.43104 0.25986
   
