data_POSCAR
  _audit_creation_date              2014-09-24
  _audit_creation_method            'ToBaCCo'
  _symmetry_space_group_name_H-M    'P1'
  _symmetry_Int_Tables_number       1
  _symmetry_cell_setting            triclinic
  loop_
  _symmetry_equiv_pos_as_xyz
 x,y,z
_cell_length_a 20.8160
_cell_length_b 20.9556
_cell_length_c 21.7612
_cell_angle_alpha 88.876300
_cell_angle_beta 90.434400
_cell_angle_gamma 91.612600
loop_
  _atom_site_label
  _atom_site_type_symbol
  _atom_site_fract_x
  _atom_site_fract_y
  _atom_site_fract_z
C1 C 0.46974 0.96761 -0.55621
 C2 C 0.53556 0.95497 -0.54319
 C3 C 0.55939 0.96466 -0.48308
 C4 C 0.52160 0.98641 -0.43487
 C5 C 0.45541 0.99540 -0.44724
 C6 C 0.43122 0.98645 -0.50682
 H7 H 0.38006 0.99221 -0.51358
 H8 H 0.60949 0.95537 -0.47378
 C9 C -0.48544 1.56493 -0.07907
 C10 C -0.54971 1.54122 -0.08262
 C11 C -0.56023 1.47525 -0.08914
 C12 C -0.51324 1.43139 -0.07119
 C13 C -0.45011 1.45572 -0.05987
 C14 C -0.43633 1.52045 -0.07219
 H15 H -0.38688 1.53742 -0.06686
 H16 H -0.60940 1.45847 -0.09641
 C17 C 0.00736 0.45090 0.45860
 C18 C -0.00664 0.51430 0.43886
 C19 C -0.01794 0.56029 0.48377
 C20 C -0.01340 0.54714 0.54743
 C21 C -0.00726 0.48279 0.56680
 C22 C 0.00257 0.43648 0.52217
 H23 H 0.00762 0.38751 0.53803
 H24 H -0.02505 0.60927 0.46878
 O25 O -0.11238 1.03211 -0.13912
 O26 O -0.06999 0.97677 0.17129
 O27 O -0.17996 0.93666 0.01458
 O28 O -0.15191 1.10169 0.03776
 O29 O -0.06370 1.17074 0.03802
 O30 O -0.11827 0.85174 -0.01152
 O31 O -0.15537 1.00262 0.10841
 O32 O -0.17672 1.02785 -0.05334
 Zr33 Zr -0.11357 1.01251 0.02043
 O34 O -0.04499 1.05325 0.07649
 O35 O -0.07759 0.96080 -0.05060
 C36 C -0.16812 1.03141 -0.11215
 C37 C -0.13059 0.98589 0.16097
 C38 C -0.17274 0.87796 0.00000
 C39 C -0.12492 1.15785 0.04122
 H40 H -0.09017 0.90956 0.08358
 O41 O -0.06263 0.93924 0.05883
 H42 H -0.08507 1.10691 -0.05343
 O43 O -0.05877 1.07331 -0.03420
 O44 O 0.10134 0.96219 0.14914
 O45 O 0.06240 1.02761 -0.16086
 O46 O -0.01554 0.82343 0.06193
 O47 O 0.02610 1.14710 0.10936
 O48 O 0.01595 1.17622 -0.05323
 O49 O -0.03872 0.85416 -0.10091
 O50 O 0.14369 0.89790 -0.02754
 O51 O 0.17145 1.06523 -0.00333
 O52 O 0.05419 0.83043 -0.02694
 O53 O 0.10783 1.15094 0.01644
 O54 O 0.00769 0.88503 0.14682
 O55 O -0.03362 0.94464 -0.16326
 O56 O -0.01039 1.11618 -0.13816
 O57 O 0.02482 1.05737 0.17272
 O58 O 0.16723 0.96320 0.06425
 O59 O 0.14768 1.00446 -0.09629
 Zr60 Zr 0.00944 0.98010 0.11164
 Zr61 Zr -0.01820 1.02112 -0.10199
 Zr62 Zr -0.02276 0.89056 -0.01171
 Zr63 Zr 0.01350 1.11025 0.02084
 Zr64 Zr 0.10577 0.98804 -0.00940
 O65 O 0.05454 1.06105 -0.04895
 O66 O 0.04974 0.92714 0.04372
 C67 C 0.15656 0.95666 0.12267
 C68 C 0.12311 1.02092 -0.14895
 C69 C -0.00145 0.83075 0.11971
 C70 C 0.02847 1.11894 0.16282
 C71 C 0.00516 1.16968 -0.11155
 C72 C -0.03827 0.88303 -0.15432
 C73 C 0.11551 0.84204 -0.03064
 C74 C 0.16267 1.12489 0.00676
 H75 H 0.05750 0.92515 -0.09808
 O76 O 0.03633 0.94883 -0.06542
 H77 H 0.10226 1.05919 0.08695
 O78 O 0.06835 1.04019 0.06041
 C79 C 0.35040 0.97950 0.31597
 C80 C 0.36640 0.92893 0.28056
 C81 C 0.41835 0.89083 0.29477
 C82 C 0.45420 0.90462 0.34831
 C83 C 0.43873 0.95691 0.38608
 C84 C 0.38640 0.99536 0.36772
 O85 O 0.29751 1.00795 0.29715
 C86 C 0.27941 0.97462 0.24862
 C87 C 0.32014 0.92603 0.23587
 C88 C 0.30980 0.88554 0.18650
 C89 C 0.25558 0.89593 0.14890
 C90 C 0.21247 0.94487 0.16244
 C91 C 0.22459 0.98458 0.21305
 H92 H 0.42931 0.85025 0.26708
 H93 H 0.49111 0.87181 0.36181
 H94 H 0.37308 1.03670 0.39330
 H95 H 0.34242 0.84770 0.17704
 H96 H 0.24666 0.86560 0.10983
 H97 H 0.19282 1.02284 0.22372
 C98 C -0.35498 0.96594 0.32241
 C99 C -0.31111 0.92142 0.34074
 C100 C -0.31925 0.88216 0.39218
 C101 C -0.37356 0.89084 0.42799
 C102 C -0.41858 0.93868 0.41257
 C103 C -0.41014 0.97519 0.35732
 O104 O -0.33576 1.00032 0.27352
 C105 C -0.27843 0.97715 0.26137
 C106 C -0.26120 0.92914 0.30161
 C107 C -0.20179 0.90072 0.30040
 C108 C -0.15843 0.92186 0.25510
 C109 C -0.17521 0.97020 0.21175
 C110 C -0.23630 0.99826 0.21496
 H111 H -0.28390 0.84750 0.40549
 H112 H -0.37963 0.86144 0.46918
 H113 H -0.44218 1.01323 0.34484
 H114 H -0.18916 0.86369 0.33333
 H115 H -0.11240 0.89921 0.25280
 H116 H -0.25031 1.03540 0.18268
 C117 C -0.35258 1.02575 -0.31724
 C118 C -0.38471 1.01001 -0.26409
 C119 C -0.44807 0.98729 -0.26365
 C120 C -0.47961 0.98004 -0.32046
 C121 C -0.44831 0.99696 -0.37675
 C122 C -0.38347 1.02082 -0.37397
 O123 O -0.29106 1.04182 -0.30808
 C124 C -0.28413 1.03597 -0.24756
 C125 C -0.34029 1.01718 -0.21859
 C126 C -0.34389 1.00593 -0.15575
 C127 C -0.28723 1.01355 -0.12133
 C128 C -0.22780 1.03125 -0.14995
 C129 C -0.22665 1.04325 -0.21423
 H130 H -0.47160 0.97301 -0.22117
 H131 H -0.52676 0.95726 -0.31997
 H132 H -0.35718 1.03542 -0.41485
 H133 H -0.38850 0.99063 -0.13406
 H134 H -0.28965 1.00331 -0.07242
 H135 H -0.18234 1.05602 -0.23774
 C136 C 0.31328 0.99695 -0.34121
 C137 C 0.32028 1.05693 -0.31705
 C138 C 0.37082 1.09896 -0.33287
 C139 C 0.41575 1.07837 -0.37559
 C140 C 0.40918 1.01685 -0.40116
 C141 C 0.35691 0.97587 -0.38403
 O142 O 0.26369 0.96335 -0.31832
 C143 C 0.23855 1.00296 -0.27884
 C144 C 0.27119 1.06103 -0.27657
 C145 C 0.25426 1.10891 -0.23693
 C146 C 0.20251 1.09588 -0.19726
 C147 C 0.16928 1.03602 -0.19786
 C148 C 0.18690 0.98907 -0.23968
 H149 H 0.37569 1.14569 -0.31276
 H150 H 0.45550 1.11000 -0.38887
 H151 H 0.35119 0.92858 -0.40286
 H152 H 0.28082 1.15402 -0.23557
 H153 H 0.18928 1.13156 -0.16478
 H154 H 0.16304 0.94247 -0.23977
 C155 C 0.37733 1.29121 -0.06505
 C156 C 0.38961 1.26843 -0.00664
 C157 C 0.44071 1.29137 0.02886
 C158 C 0.47818 1.34254 0.00458
 C159 C 0.46447 1.36909 -0.05475
 C160 C 0.41552 1.33963 -0.09100
 O161 O 0.32242 1.26911 -0.08856
 C162 C 0.29910 1.23179 -0.04388
 C163 C 0.33848 1.22919 0.00722
 C164 C 0.32130 1.19553 0.06065
 C165 C 0.26181 1.16223 0.06069
 C166 C 0.22074 1.16509 0.00859
 C167 C 0.23932 1.20053 -0.04418
 H168 H 0.44823 1.27410 0.07549
 H169 H 0.51258 1.36535 0.03509
 H170 H 0.40314 1.35829 -0.13622
 H171 H 0.35258 1.19469 0.10059
 H172 H 0.24774 1.13400 0.10087
 H173 H 0.20834 1.20337 -0.08423
 C174 C 0.32522 0.67064 -0.07996
 C175 C 0.28107 0.64053 -0.04178
 C176 C 0.29003 0.58127 -0.01469
 C177 C 0.34684 0.55108 -0.02777
 C178 C 0.39245 0.57877 -0.06964
 C179 C 0.38134 0.63986 -0.09624
 O180 O 0.30831 0.72926 -0.09673
 C181 C 0.25220 0.73543 -0.06879
 C182 C 0.23326 0.68177 -0.03565
 C183 C 0.17596 0.67629 -0.00368
 C184 C 0.13643 0.72891 -0.00514
 C185 C 0.15592 0.78628 -0.03613
 C186 C 0.21450 0.78959 -0.06895
 H187 H 0.25525 0.55971 0.01670
 H188 H 0.35532 0.50566 -0.00494
 H189 H 0.41524 0.66266 -0.12772
 H190 H 0.16214 0.63303 0.02143
 H191 H 0.09139 0.72553 0.01940
 H192 H 0.23011 0.83274 -0.09337
 C193 C -0.37758 0.70496 -0.08205
 C194 C -0.39979 0.73710 -0.03243
 C195 C -0.45708 0.72010 -0.00303
 C196 C -0.49073 0.66528 -0.02326
 C197 C -0.46688 0.62945 -0.07261
 C198 C -0.41143 0.65245 -0.10435
 O199 O -0.31848 0.72267 -0.09847
 C200 C -0.30251 0.76670 -0.05798
 C201 C -0.35068 0.77767 -0.01674
 C202 C -0.34243 0.81855 0.03233
 C203 C -0.28264 0.85034 0.03820
 C204 C -0.23237 0.83951 -0.00382
 C205 C -0.24236 0.79681 -0.05235
 H206 H -0.47243 0.74482 0.03728
 H207 H -0.53081 0.64737 0.00401
 H208 H -0.39095 0.62556 -0.14111
 H209 H -0.38047 0.82557 0.06493
 H210 H -0.27533 0.88331 0.07551
 H211 H -0.20487 0.78804 -0.08514
 C212 C -0.33141 1.32633 -0.02490
 C213 C -0.29690 1.35409 0.02232
 C214 C -0.31095 1.41321 0.04536
 C215 C -0.36244 1.44515 0.01844
 C216 C -0.39777 1.41841 -0.03156
 C217 C -0.38197 1.35790 -0.05339
 O218 O -0.31017 1.26972 -0.03964
 C219 C -0.26115 1.26196 -0.00123
 C220 C -0.25048 1.31240 0.03731
 C221 C -0.19929 1.31533 0.07893
 C222 C -0.15728 1.26397 0.08066
 C223 C -0.16863 1.21109 0.04223
 C224 C -0.22135 1.21008 0.00100
 H225 H -0.28348 1.43389 0.08280
 H226 H -0.37483 1.49100 0.03644
 H227 H -0.40779 1.33647 -0.09149
 H228 H -0.19133 1.35609 0.10808
 H229 H -0.11647 1.26514 0.11175
 H230 H -0.22989 1.17083 -0.03000
 C231 C 0.01403 1.33615 0.32802
 C232 C 0.05488 1.29230 0.35351
 C233 C 0.08495 1.30077 0.40976
 C234 C 0.07104 1.35559 0.44218
 C235 C 0.02618 1.40098 0.41937
 C236 C -0.00119 1.39143 0.35992
 O237 O -0.00978 1.31795 0.27399
 C238 C 0.01646 1.26149 0.26580
 C239 C 0.05594 1.24341 0.31348
 C240 C 0.08591 1.18475 0.31594
 C241 C 0.07532 1.14313 0.26679
 C242 C 0.03631 1.16125 0.21612
 C243 C 0.00647 1.22140 0.21580
 H244 H 0.11776 1.26607 0.42839
 H245 H 0.09575 1.36245 0.48562
 H246 H -0.03653 1.42317 0.34075
 H247 H 0.11609 1.17135 0.35453
 H248 H 0.09851 1.09750 0.26753
 H249 H -0.02408 1.23619 0.17798
 C250 C -0.03153 1.37040 -0.29905
 C251 C 0.01680 1.39072 -0.26012
 C252 C 0.05356 1.44636 -0.27154
 C253 C 0.04184 1.48073 -0.32663
 C254 C -0.00672 1.45961 -0.36817
 C255 C -0.04548 1.40505 -0.35248
 O256 O -0.05679 1.31350 -0.28353
 C257 C -0.02374 1.29719 -0.23358
 C258 C 0.02161 1.34293 -0.21700
 C259 C 0.06321 1.33438 -0.16741
 C260 C 0.05723 1.27697 -0.13322
 C261 C 0.01114 1.22881 -0.14968
 C262 C -0.02968 1.23914 -0.20093
 H263 H 0.09242 1.46066 -0.24102
 H264 H 0.07326 1.52098 -0.33880
 H265 H -0.08155 1.38664 -0.38413
 H266 H 0.09909 1.37054 -0.15553
 H267 H 0.08910 1.26966 -0.09428
 H268 H -0.06532 1.20343 -0.21460
 C269 C -0.03730 0.66694 -0.32391
 C270 C 0.00047 0.71670 -0.34667
 C271 C 0.03735 0.71239 -0.39902
 C272 C 0.03414 0.65499 -0.43054
 C273 C -0.00721 0.60335 -0.41113
 C274 C -0.04285 0.60916 -0.35598
 O275 O -0.06606 0.68131 -0.27151
 C276 C -0.04625 0.74150 -0.26182
 C277 C -0.00632 0.76525 -0.30728
 C278 C 0.01923 0.82715 -0.30798
 C279 C 0.00434 0.86626 -0.25902
 C280 C -0.03433 0.84288 -0.20957
 C281 C -0.06046 0.77939 -0.21124
 H282 H 0.06785 0.75189 -0.41502
 H283 H 0.06331 0.65120 -0.47125
 H284 H -0.07472 0.57096 -0.33958
 H285 H 0.05028 0.84458 -0.34467
 H286 H 0.02577 0.91395 -0.25827
 H287 H -0.08962 0.75994 -0.17399
 C288 C -0.02981 0.61963 0.29865
 C289 C 0.02911 0.61545 0.27112
 C290 C 0.07529 0.57308 0.29192
 C291 C 0.06112 0.53529 0.34456
 C292 C 0.00132 0.53995 0.37483
 C293 C -0.04542 0.58138 0.34993
 O294 O -0.06468 0.66674 0.27565
 C295 C -0.02696 0.69321 0.23270
 C296 C 0.03099 0.66355 0.22796
 C297 C 0.07947 0.68627 0.18889
 C298 C 0.06759 0.74132 0.15314
 C299 C 0.00819 0.77233 0.15692
 C300 C -0.03977 0.74810 0.19741
 H301 H 0.12194 0.57167 0.27044
 H302 H 0.09818 0.50563 0.36399
 H303 H -0.09064 0.58757 0.37306
 H304 H 0.12527 0.66322 0.18691
 H305 H 0.10514 0.76080 0.12354
 H306 H -0.08496 0.77188 0.20201
   
