data_POSCAR
  _audit_creation_date              2014-09-24
  _audit_creation_method            'ToBaCCo'
  _symmetry_space_group_name_H-M    'P1'
  _symmetry_Int_Tables_number       1
  _symmetry_cell_setting            triclinic
  loop_
  _symmetry_equiv_pos_as_xyz
 x,y,z
_cell_length_a 60.7944
_cell_length_b 61.1279
_cell_length_c 60.4436
_cell_angle_alpha 92.603500
_cell_angle_beta 92.095200
_cell_angle_gamma 90.338300
loop_
  _atom_site_label
  _atom_site_type_symbol
  _atom_site_fract_x
  _atom_site_fract_y
  _atom_site_fract_z
C1 C 0.23964 0.50485 1.04924
 H2 H 0.25215 0.51746 1.04914
 C3 C 0.22544 0.50449 1.06689
 H4 H 0.22734 0.51728 1.07978
 C5 C 0.22127 0.47435 1.03140
 H6 H 0.21977 0.46267 1.01742
 C7 C 0.20662 0.47343 1.04858
 H8 H 0.19458 0.46031 1.04765
 N9 N 0.23736 0.48987 1.03200
 C10 C 0.27470 0.53042 0.99437
 H11 H 0.26256 0.52978 0.98086
 C12 C 0.29049 0.54716 0.99571
 H13 H 0.29027 0.55926 0.98317
 C14 C 0.29064 0.51470 1.02623
 H15 H 0.29072 0.50177 1.03787
 C16 C 0.30674 0.53113 1.02819
 H17 H 0.31897 0.53092 1.04166
 Zn18 Zn 0.25507 0.49069 1.00695
 N19 N 0.27501 0.51466 1.00956
 C20 C 0.22180 0.51039 0.98193
 N21 N 0.23573 0.49307 0.98193
 C22 C 0.23490 0.47742 0.96518
 C23 C 0.21979 0.47902 0.94737
 C24 C 0.20647 0.51266 0.96444
 C25 C 0.27134 0.44915 1.01913
 C26 C 0.28506 0.43094 1.01733
 C27 C 0.30029 0.44580 0.98479
 C28 C 0.28635 0.46373 0.98724
 N29 N 0.27218 0.46504 1.00413
 H30 H 0.22260 0.52243 0.99563
 H31 H 0.24566 0.46344 0.96577
 H32 H 0.21912 0.46620 0.93440
 H33 H 0.19574 0.52673 0.96464
 H34 H 0.26037 0.45075 1.03275
 H35 H 0.28449 0.41870 1.02970
 H36 H 0.31126 0.44498 0.97107
 H37 H 0.28687 0.47675 0.97573
 C38 C 0.30689 0.54758 1.01272
 C39 C 0.20829 0.48875 1.06679
 C40 C 0.29988 0.42915 1.00004
 C41 C 0.20527 0.49680 0.94687
 C42 C 0.77713 0.51548 -0.03284
 H43 H 0.77973 0.52672 -0.01862
 C44 C 0.79080 0.51646 -0.05082
 H45 H 0.80400 0.52845 -0.05019
 C46 C 0.75757 0.48530 -0.05010
 H47 H 0.74489 0.47291 -0.04956
 C48 C 0.77078 0.48578 -0.06851
 H49 H 0.76777 0.47395 -0.08218
 N50 N 0.76100 0.50000 -0.03273
 C51 C 0.71225 0.52235 0.01393
 H52 H 0.71257 0.50885 0.02490
 C53 C 0.69629 0.53853 0.01614
 H54 H 0.68454 0.53758 0.02911
 C55 C 0.72670 0.53948 -0.01688
 H56 H 0.73815 0.53941 -0.03013
 C57 C 0.71110 0.55612 -0.01515
 H58 H 0.71073 0.56879 -0.02710
 Zn59 Zn 0.74512 0.49828 -0.00654
 N60 N 0.72686 0.52295 -0.00254
 C61 C 0.76619 0.51105 0.03498
 N62 N 0.76603 0.49656 0.01721
 C63 C 0.78193 0.48115 0.01500
 C64 C 0.79902 0.48002 0.03093
 C65 C 0.78291 0.51038 0.05143
 C66 C 0.70876 0.47392 -0.02275
 C67 C 0.69283 0.45738 -0.02335
 C68 C 0.71350 0.43988 0.00574
 C69 C 0.72901 0.45687 0.00588
 N70 N 0.72631 0.47348 -0.00819
 H71 H 0.75363 0.52344 0.03621
 H72 H 0.78151 0.46999 0.00058
 H73 H 0.81162 0.46772 0.02883
 H74 H 0.78308 0.52230 0.06525
 H75 H 0.70688 0.48749 -0.03354
 H76 H 0.67885 0.45812 -0.03492
 H77 H 0.71555 0.42708 0.01744
 H78 H 0.74282 0.45706 0.01764
 C79 C 0.69537 0.55550 0.00126
 C80 C 0.78785 0.50134 -0.06892
 C81 C 0.69494 0.44022 -0.00878
 C82 C 0.79976 0.49488 0.04934
 C83 C -0.01226 0.28921 0.47190
 H84 H -0.02478 0.29185 0.48392
 C85 C -0.01193 0.30221 0.45353
 H86 H -0.02395 0.31512 0.45252
 C87 C 0.01885 0.26971 0.45981
 H88 H 0.03045 0.25661 0.46189
 C89 C 0.01996 0.28245 0.44125
 H90 H 0.03241 0.27846 0.42943
 N91 N 0.00325 0.27365 0.47501
 C92 C -0.03590 0.23912 0.51891
 H93 H -0.03062 0.24744 0.53437
 C94 C -0.05446 0.22551 0.51822
 H95 H -0.06368 0.22410 0.53308
 C96 C -0.02993 0.23040 0.48102
 H97 H -0.01999 0.23212 0.46671
 C98 C -0.04824 0.21645 0.47964
 H99 H -0.05214 0.20739 0.46418
 Zn100 Zn 0.00234 0.25789 0.50138
 N101 N -0.02411 0.24134 0.50044
 C102 C -0.01538 0.28959 0.53101
 N103 N 0.00314 0.27820 0.52624
 C104 C 0.02204 0.28143 0.53875
 C105 C 0.02288 0.29681 0.55657
 C106 C -0.01541 0.30477 0.54897
 C107 C 0.02160 0.21703 0.50840
 C108 C 0.03838 0.20177 0.51060
 C109 C 0.06474 0.22983 0.50273
 C110 C 0.04743 0.24471 0.50102
 N111 N 0.02630 0.23806 0.50364
 H112 H -0.03035 0.28663 0.52111
 H113 H 0.03663 0.27233 0.53480
 H114 H 0.03834 0.29951 0.56577
 H115 H -0.03059 0.31307 0.55271
 H116 H 0.00480 0.21204 0.51070
 H117 H 0.03429 0.18508 0.51428
 H118 H 0.08146 0.23529 0.50053
 H119 H 0.05086 0.26157 0.49754
 C120 C -0.06072 0.21372 0.49846
 C121 C 0.00462 0.29935 0.43787
 C122 C 0.06024 0.20808 0.50768
 C123 C 0.00398 0.30877 0.56196
 C124 C 0.98112 0.71817 0.52602
 H125 H 0.96914 0.71688 0.51233
 C126 C 0.97951 0.70442 0.54370
 H127 H 0.96630 0.69244 0.54342
 C128 C 1.01328 0.73495 0.54257
 H129 H 1.02654 0.74670 0.54197
 C130 C 1.01232 0.72148 0.56058
 H131 H 1.02470 0.72331 0.57389
 N132 N 0.99762 0.73327 0.52590
 C133 C 0.97344 0.78561 0.48522
 H134 H 0.98673 0.78659 0.47387
 C135 C 0.95629 0.80068 0.48443
 H136 H 0.95633 0.81314 0.47226
 C137 C 0.95743 0.76835 0.51513
 H138 H 0.95815 0.75607 0.52741
 C139 C 0.93983 0.78292 0.51474
 H140 H 0.92712 0.78167 0.52672
 Zn141 Zn 0.99841 0.75113 0.50116
 N142 N 0.97371 0.76985 0.50040
 C143 C 0.98203 0.73348 0.45945
 N144 N 0.99823 0.73225 0.47546
 C145 C 1.01394 0.71655 0.47425
 C146 C 1.01376 0.70123 0.45638
 C147 C 0.98122 0.71849 0.44130
 C148 C 1.02535 0.78481 0.51969
 C149 C 1.04298 0.79959 0.52121
 C150 C 1.05701 0.78234 0.48789
 C151 C 1.03913 0.76783 0.48705
 N152 N 1.02379 0.76928 0.50287
 H153 H 0.96948 0.74585 0.46089
 H154 H 1.02641 0.71572 0.48741
 H155 H 1.02612 0.68856 0.45598
 H156 H 0.96822 0.71975 0.42871
 H157 H 1.01266 0.78588 0.53178
 H158 H 1.04372 0.81208 0.53451
 H159 H 1.06910 0.78094 0.47519
 H160 H 1.03737 0.75567 0.47356
 C161 C 0.93922 0.79942 0.49934
 C162 C 0.99519 0.70604 0.56136
 C163 C 1.05904 0.79855 0.50508
 C164 C 0.99713 0.70198 0.43968
 C165 C 0.46776 -0.00520 0.28407
 H166 H 0.47942 -0.01844 0.28527
 C167 C 0.44981 -0.00426 0.29780
 H168 H 0.44782 -0.01682 0.30965
 C169 C 0.45691 0.02780 0.26782
 H170 H 0.45995 0.04045 0.25639
 C171 C 0.43875 0.02942 0.28129
 H172 H 0.42771 0.04315 0.27978
 N173 N 0.47091 0.01061 0.26938
 C174 C 0.51203 -0.01964 0.21908
 H175 H 0.52565 -0.00813 0.21958
 C176 C 0.51142 -0.03730 0.20358
 H177 H 0.52463 -0.03857 0.19210
 C178 C 0.47771 -0.03019 0.23255
 H179 H 0.46445 -0.02725 0.24368
 C180 C 0.47633 -0.04801 0.21728
 H181 H 0.46228 -0.05885 0.21791
 Zn182 Zn 0.49660 0.00869 0.25269
 N183 N 0.49541 -0.01649 0.23325
 C184 C 0.53589 -0.00870 0.27227
 N185 N 0.52069 0.00753 0.27329
 C186 C 0.52128 0.02303 0.29017
 C187 C 0.53751 0.02249 0.30705
 C188 C 0.55263 -0.00967 0.28868
 C189 C 0.48381 0.03541 0.21843
 C190 C 0.48529 0.05257 0.20410
 C191 C 0.51851 0.06495 0.22416
 C192 C 0.51637 0.04754 0.23815
 N193 N 0.49917 0.03326 0.23508
 H194 H 0.53489 -0.02113 0.25900
 H195 H 0.50885 0.03561 0.29068
 H196 H 0.53765 0.03487 0.32046
 H197 H 0.56447 -0.02282 0.28785
 H198 H 0.47052 0.02358 0.21615
 H199 H 0.47311 0.05375 0.19069
 H200 H 0.53224 0.07622 0.22688
 H201 H 0.52859 0.04534 0.25127
 C202 C 0.49328 -0.05194 0.20224
 C203 C 0.43506 0.01327 0.29658
 C204 C 0.50287 0.06758 0.20681
 C205 C 0.55337 0.00593 0.30646
 C206 C 0.53304 -0.03583 0.71221
 H207 H 0.52086 -0.04881 0.71027
 C208 C 0.55116 -0.03609 0.69868
 H209 H 0.55266 -0.04929 0.68628
 C210 C 0.54512 -0.00231 0.72994
 H211 H 0.54260 0.01097 0.74195
 C212 C 0.56356 -0.00199 0.71684
 H213 H 0.57524 0.01142 0.71925
 N214 N 0.53024 -0.01904 0.72738
 C215 C 0.48882 -0.04340 0.77864
 H216 H 0.47730 -0.03012 0.78044
 C217 C 0.48875 -0.06017 0.79357
 H218 H 0.47693 -0.05973 0.80654
 C219 C 0.51947 -0.05902 0.76092
 H220 H 0.53182 -0.05833 0.74862
 C221 C 0.52000 -0.07610 0.77550
 H222 H 0.53246 -0.08858 0.77381
 Zn223 Zn 0.50445 -0.01855 0.74437
 N224 N 0.50396 -0.04312 0.76261
 C225 C 0.45852 -0.01881 0.73327
 N226 N 0.47900 -0.01833 0.72490
 C227 C 0.48165 -0.01670 0.70278
 C228 C 0.46342 -0.01581 0.68817
 C229 C 0.43979 -0.01769 0.71925
 C230 C 0.51924 0.00774 0.78104
 C231 C 0.51963 0.02577 0.79607
 C232 C 0.49028 0.04184 0.77434
 C233 C 0.49046 0.02349 0.75970
 N234 N 0.50474 0.00689 0.76335
 H235 H 0.45663 -0.01951 0.75089
 H236 H 0.49790 -0.01569 0.69631
 H237 H 0.46607 -0.01489 0.67063
 H238 H 0.42370 -0.01755 0.72637
 H239 H 0.53043 -0.00570 0.78350
 H240 H 0.53140 0.02621 0.80996
 H241 H 0.47851 0.05471 0.77140
 H242 H 0.47913 0.02250 0.74549
 C243 C 0.50459 -0.07675 0.79220
 C244 C 0.56667 -0.01892 0.70077
 C245 C 0.50490 0.04308 0.79290
 C246 C 0.44209 -0.01609 0.69633
 C247 C 0.26247 0.01979 0.45319
 H248 H 0.25144 0.03341 0.45548
 C249 C 0.27642 0.01921 0.43531
 H250 H 0.27560 0.03221 0.42372
 C251 C 0.27739 -0.01339 0.46566
 H252 H 0.27785 -0.02587 0.47780
 C253 C 0.29158 -0.01463 0.44804
 H254 H 0.30305 -0.02808 0.44682
 N255 N 0.26305 0.00349 0.46780
 C256 C 0.22760 0.04325 0.51166
 H257 H 0.23858 0.04062 0.52572
 C258 C 0.21377 0.06143 0.51205
 H259 H 0.21453 0.07287 0.52627
 C260 C 0.21276 0.03138 0.47631
 H261 H 0.21229 0.01938 0.46258
 C262 C 0.19884 0.04944 0.47589
 H263 H 0.18759 0.05125 0.46180
 Zn264 Zn 0.24538 0.00388 0.49295
 N265 N 0.22706 0.02884 0.49381
 C266 C 0.27899 0.02166 0.52073
 N267 N 0.26509 0.00419 0.51788
 C268 C 0.26678 -0.01315 0.53115
 C269 C 0.28316 -0.01340 0.54799
 C270 C 0.29534 0.02225 0.53753
 C271 C 0.22638 -0.03574 0.47444
 C272 C 0.21179 -0.05351 0.47353
 C273 C 0.19816 -0.04078 0.50886
 C274 C 0.21305 -0.02327 0.50910
 N275 N 0.22681 -0.02111 0.49209
 H276 H 0.27752 0.03506 0.50968
 H277 H 0.25597 -0.02716 0.52819
 H278 H 0.28474 -0.02772 0.55780
 H279 H 0.30602 0.03648 0.53959
 H280 H 0.23709 -0.03351 0.46085
 H281 H 0.21182 -0.06505 0.45941
 H282 H 0.18705 -0.04195 0.52235
 H283 H 0.21347 -0.01117 0.52275
 C284 C 0.19929 0.06476 0.49391
 C285 C 0.29122 0.00182 0.43256
 C286 C 0.19733 -0.05615 0.49084
 C287 C 0.29789 0.00439 0.55124
 C288 C 0.72056 0.02079 0.53033
 H289 H 0.71852 0.03214 0.51719
 C290 C 0.70589 0.02109 0.54756
 H291 H 0.69246 0.03264 0.54742
 C292 C 0.74005 -0.00868 0.54575
 H293 H 0.75325 -0.02041 0.54483
 C294 C 0.72580 -0.00889 0.56337
 H295 H 0.72846 -0.02060 0.57608
 N296 N 0.73723 0.00609 0.52974
 C297 C 0.78775 0.03405 0.49001
 H298 H 0.78893 0.02144 0.47697
 C299 C 0.80199 0.05209 0.49074
 H300 H 0.81412 0.05330 0.47816
 C301 C 0.77122 0.04720 0.52291
 H302 H 0.75949 0.04504 0.53563
 C303 C 0.78530 0.06538 0.52440
 H304 H 0.78403 0.07728 0.53812
 Zn305 Zn 0.75535 0.00613 0.50499
 N306 N 0.77267 0.03200 0.50588
 C307 C 0.73791 0.01891 0.46312
 N308 N 0.73660 0.00418 0.47925
 C309 C 0.72089 -0.01180 0.47814
 C310 C 0.70563 -0.01340 0.46030
 C311 C 0.72317 0.01771 0.44483
 C312 C 0.79177 -0.01650 0.52090
 C313 C 0.80805 -0.03249 0.52106
 C314 C 0.78937 -0.05092 0.48945
 C315 C 0.77356 -0.03442 0.48973
 N316 N 0.77505 -0.01765 0.50532
 H317 H 0.75012 0.03182 0.46452
 H318 H 0.72004 -0.02313 0.49133
 H319 H 0.69313 -0.02614 0.45971
 H320 H 0.72423 0.02970 0.43226
 H321 H 0.79267 -0.00286 0.53295
 H322 H 0.82135 -0.03123 0.53348
 H323 H 0.78821 -0.06397 0.47671
 H324 H 0.76036 -0.03483 0.47726
 C325 C 0.80098 0.06792 0.50822
 C326 C 0.70836 0.00608 0.56439
 C327 C 0.80704 -0.04989 0.50509
 C328 C 0.70666 0.00151 0.44340
 C329 C 0.48332 0.21173 1.02580
 H330 H 0.47160 0.20968 1.01194
 C331 C 0.48118 0.19928 1.04438
 H332 H 0.46779 0.18754 1.04465
 C333 C 0.51560 0.22885 1.04171
 H334 H 0.52917 0.24015 1.04044
 C335 C 0.51411 0.21667 1.06062
 H336 H 0.52640 0.21902 1.07395
 N337 N 0.50027 0.22622 1.02483
 C338 C 0.47822 0.27299 0.97660
 H339 H 0.49114 0.27137 0.96480
 C340 C 0.46198 0.28881 0.97399
 H341 H 0.46228 0.29909 0.95988
 C342 C 0.46255 0.26188 1.00966
 H343 H 0.46320 0.25183 1.02390
 C344 C 0.44599 0.27747 1.00767
 H345 H 0.43402 0.27918 1.02046
 Zn346 Zn 0.50253 0.24111 0.99827
 N347 N 0.47828 0.25998 0.99426
 C348 C 0.48851 0.21865 0.95771
 N349 N 0.50351 0.21945 0.97499
 C350 C 0.51913 0.20378 0.97706
 C351 C 0.52016 0.18644 0.96133
 C352 C 0.48898 0.20159 0.94153
 C353 C 0.52866 0.27644 1.01391
 C354 C 0.54617 0.29133 1.01443
 C355 C 0.56253 0.26969 0.98498
 C356 C 0.54460 0.25526 0.98492
 N357 N 0.52814 0.25888 0.99926
 H358 H 0.47591 0.23098 0.95664
 H359 H 0.53067 0.20468 0.99113
 H360 H 0.53280 0.17419 0.96323
 H361 H 0.47669 0.20097 0.92809
 H362 H 0.51521 0.27906 1.02494
 H363 H 0.54625 0.30529 1.02613
 H364 H 0.57527 0.26685 0.97315
 H365 H 0.54366 0.24150 0.97306
 C366 C 0.44572 0.29138 0.98980
 C367 C 0.49675 0.20159 1.06208
 C368 C 0.56330 0.28814 0.99970
 C369 C 0.50487 0.18511 0.94334
 C370 C 0.47890 0.77949 -0.02714
 H371 H 0.46770 0.78155 -0.01371
 C372 C 0.47692 0.79270 -0.04534
 H373 H 0.46420 0.80500 -0.04572
 C374 C 0.50977 0.76161 -0.04231
 H375 H 0.52274 0.74970 -0.04091
 C376 C 0.50839 0.77447 -0.06083
 H377 H 0.52015 0.77202 -0.07372
 N378 N 0.49511 0.76432 -0.02596
 C379 C 0.47344 0.71574 0.01935
 H380 H 0.48718 0.71623 0.03126
 C381 C 0.45630 0.70073 0.02132
 H382 H 0.45681 0.68993 0.03504
 C383 C 0.45627 0.72920 -0.01307
 H384 H 0.45654 0.73999 -0.02672
 C385 C 0.43878 0.71445 -0.01173
 H386 H 0.42575 0.71407 -0.02444
 Zn387 Zn 0.49772 0.74841 0.00011
 N388 N 0.47309 0.72965 0.00242
 C389 C 0.48550 0.76866 0.04117
 N390 N 0.49974 0.76912 0.02436
 C391 C 0.51535 0.78509 0.02382
 C392 C 0.51732 0.80128 0.04084
 C393 C 0.48690 0.78452 0.05855
 C394 C 0.52262 0.71299 -0.01509
 C395 C 0.54022 0.69845 -0.01563
 C396 C 0.55854 0.72040 0.01387
 C397 C 0.54047 0.73440 0.01401
 N398 N 0.52303 0.73054 -0.00042
 H399 H 0.47292 0.75611 0.04110
 H400 H 0.52619 0.78531 0.01003
 H401 H 0.52966 0.81401 0.03993
 H402 H 0.47560 0.78371 0.07193
 H403 H 0.50844 0.71019 -0.02622
 H404 H 0.53962 0.68454 -0.02739
 H405 H 0.57219 0.72353 0.02563
 H406 H 0.54032 0.74815 0.02586
 C407 C 0.43870 0.69989 0.00559
 C408 C 0.49189 0.79038 -0.06244
 C409 C 0.55846 0.70207 -0.00098
 C410 C 0.50296 0.80114 0.05852
 C411 C 1.02630 0.47236 0.21380
 H412 H 1.01297 0.46057 0.21387
 C413 C 1.04259 0.46988 0.19823
 H414 H 1.04189 0.45583 0.18665
 C415 C 1.04311 0.50513 0.22873
 H416 H 1.04294 0.51913 0.24028
 C417 C 1.05968 0.50336 0.21333
 H418 H 1.07209 0.51612 0.21324
 N419 N 1.02685 0.48974 0.22868
 C420 C 0.98600 0.47113 0.28273
 H421 H 0.97549 0.48533 0.28377
 C422 C 0.98396 0.45464 0.29777
 H423 H 0.97193 0.45643 0.31048
 C424 C 1.01503 0.45215 0.26535
 H425 H 1.02730 0.45136 0.25289
 C426 C 1.01347 0.43521 0.28000
 H427 H 1.02434 0.42132 0.27828
 Zn428 Zn 1.00284 0.49306 0.24758
 N429 N 1.00120 0.46953 0.26681
 C430 C 0.95980 0.48014 0.23147
 N431 N 0.97707 0.49401 0.22912
 C432 C 0.97697 0.50842 0.21263
 C433 C 0.95899 0.50932 0.19768
 C434 C 0.94138 0.48064 0.21699
 C435 C 1.02266 0.52046 0.28102
 C436 C 1.02476 0.53865 0.29581
 C437 C 0.99218 0.55384 0.27850
 C438 C 0.99070 0.53536 0.26406
 N439 N 1.00582 0.51914 0.26557
 H440 H 0.96036 0.46848 0.24437
 H441 H 0.99102 0.51909 0.21101
 H442 H 0.95919 0.52093 0.18467
 H443 H 0.92789 0.46932 0.21890
 H444 H 1.03423 0.50714 0.28209
 H445 H 1.03797 0.53914 0.30832
 H446 H 0.98001 0.56660 0.27701
 H447 H 0.97723 0.53386 0.25192
 C448 C 0.99774 0.43629 0.29648
 C449 C 1.05947 0.48563 0.19767
 C450 C 1.00927 0.55557 0.29479
 C451 C 0.94091 0.49527 0.19974
 C452 C -0.03335 0.50194 0.78609
 H453 H -0.02152 0.48887 0.78734
 C454 C -0.05177 0.50222 0.79918
 H455 H -0.05385 0.48934 0.81067
 C456 C -0.04429 0.53510 0.77022
 H457 H -0.04113 0.54805 0.75916
 C458 C -0.06301 0.53599 0.78298
 H459 H -0.07432 0.54947 0.78126
 N460 N -0.03000 0.51817 0.77191
 C461 C 0.01346 0.48719 0.72427
 H462 H 0.02796 0.49749 0.72668
 C463 C 0.01314 0.46984 0.70842
 H464 H 0.02749 0.46672 0.69869
 C465 C -0.02331 0.47934 0.73328
 H466 H -0.03763 0.48341 0.74265
 C467 C -0.02449 0.46213 0.71727
 H468 H -0.03964 0.45281 0.71463
 Zn469 Zn -0.00388 0.51661 0.75590
 N470 N -0.00453 0.49148 0.73644
 C471 C 0.03353 0.49820 0.77785
 N472 N 0.01981 0.51567 0.77705
 C473 C 0.02166 0.53261 0.79240
 C474 C 0.03798 0.53255 0.80925
 C475 C 0.05013 0.49749 0.79439
 C476 C -0.01679 0.54283 0.72147
 C477 C -0.01540 0.55955 0.70663
 C478 C 0.01811 0.57221 0.72595
 C479 C 0.01606 0.55521 0.74046
 N480 N -0.00126 0.54100 0.73801
 H481 H 0.03136 0.48454 0.76600
 H482 H 0.01029 0.54612 0.79161
 H483 H 0.03929 0.54628 0.82120
 H484 H 0.06066 0.48329 0.79499
 H485 H -0.03013 0.53101 0.71963
 H486 H -0.02772 0.56041 0.69331
 H487 H 0.03195 0.58342 0.72817
 H488 H 0.02852 0.55319 0.75340
 C489 C -0.00611 0.45730 0.70462
 C490 C -0.06693 0.51940 0.79775
 C491 C 0.00228 0.57448 0.70870
 C492 C 0.05245 0.51479 0.81043
 C493 C 0.09521 0.16204 0.52897
 C494 C 0.11073 0.15886 0.51222
 C495 C 0.10942 0.17272 0.49402
 C496 C 0.09349 0.18926 0.49305
 C497 C 0.07811 0.19187 0.50962
 C498 C 0.07916 0.17818 0.52755
 C499 C 0.12370 0.16976 0.47663
 C500 C 0.13881 0.15281 0.47643
 C501 C 0.14057 0.13833 0.49395
 C502 C 0.12703 0.14206 0.51261
 C503 C 0.13030 0.12894 0.53107
 C504 C 0.14558 0.11216 0.53098
 C505 C 0.15792 0.10746 0.51241
 C506 C 0.15554 0.12032 0.49352
 C507 C 0.16788 0.11422 0.47481
 C508 C 0.18202 0.09631 0.47505
 C509 C 0.18451 0.08395 0.49389
 C510 C 0.17250 0.08972 0.51257
 H511 H 0.09453 0.15192 0.54306
 H512 H 0.09252 0.19961 0.47894
 H513 H 0.06739 0.17993 0.54054
 H514 H 0.12293 0.18043 0.46278
 H515 H 0.14920 0.15174 0.46237
 H516 H 0.12155 0.13146 0.54613
 H517 H 0.14749 0.10253 0.54555
 H518 H 0.16663 0.12260 0.45953
 H519 H 0.19115 0.09214 0.46041
 H520 H 0.17406 0.07997 0.52710
 C521 C 0.63825 0.57940 0.00427
 C522 C 0.64200 0.60200 0.00157
 C523 C 0.66409 0.60912 -0.00021
 C524 C 0.68141 0.59398 -0.00026
 C525 C 0.67727 0.57164 0.00198
 C526 C 0.65560 0.56458 0.00446
 C527 C 0.66881 0.63130 -0.00198
 C528 C 0.65214 0.64673 -0.00184
 C529 C 0.62984 0.64052 -0.00036
 C530 C 0.62464 0.61772 0.00072
 C531 C 0.60227 0.61133 0.00047
 C532 C 0.58554 0.62662 -0.00037
 C533 C 0.59032 0.64892 -0.00063
 C534 C 0.61249 0.65631 -0.00032
 C535 C 0.61630 0.67923 0.00023
 C536 C 0.59882 0.69397 0.00007
 C537 C 0.57701 0.68645 -0.00079
 C538 C 0.57290 0.66388 -0.00111
 H539 H 0.62216 0.57259 0.00652
 H540 H 0.69821 0.59961 -0.00182
 H541 H 0.65196 0.54739 0.00616
 H542 H 0.68566 0.63684 -0.00339
 H543 H 0.65729 0.66344 -0.00343
 H544 H 0.59701 0.59449 0.00040
 H545 H 0.56861 0.62089 -0.00070
 H546 H 0.63255 0.68638 0.00113
 H547 H 0.60237 0.71137 0.00040
 H548 H 0.55604 0.65796 -0.00131
 C549 C 0.88225 -0.17586 0.50065
 C550 C 0.88669 -0.15314 0.49967
 C551 C 0.90903 -0.14647 0.49886
 C552 C 0.92593 -0.16201 0.49836
 C553 C 0.92119 -0.18438 0.49924
 C554 C 0.89926 -0.19113 0.50052
 C555 C 0.91447 -0.12431 0.49873
 C556 C 0.89830 -0.10843 0.49983
 C557 C 0.87581 -0.11411 0.50071
 C558 C 0.86985 -0.13684 0.49981
 C559 C 0.84726 -0.14251 0.49874
 C560 C 0.83106 -0.12659 0.49906
 C561 C 0.83660 -0.10442 0.50092
 C562 C 0.85904 -0.09780 0.50211
 C563 C 0.86372 -0.07510 0.50497
 C564 C 0.84685 -0.05976 0.50606
 C565 C 0.82477 -0.06640 0.50427
 C566 C 0.81976 -0.08878 0.50168
 H567 H 0.86589 -0.18239 0.50197
 H568 H 0.94293 -0.15665 0.49782
 H569 H 0.89522 -0.20836 0.50128
 H570 H 0.93151 -0.11914 0.49797
 H571 H 0.90401 -0.09175 0.49946
 H572 H 0.84148 -0.15920 0.49715
 H573 H 0.81394 -0.13175 0.49803
 H574 H 0.88022 -0.06859 0.50680
 H575 H 0.85112 -0.04254 0.50805
 H576 H 0.80267 -0.09404 0.50066
 C577 C 0.32287 0.37160 1.00159
 C578 C 0.34505 0.37459 0.99582
 C579 C 0.35181 0.39606 0.99103
 C580 C 0.33704 0.41360 0.99233
 C581 C 0.31524 0.41036 0.99829
 C582 C 0.30833 0.38919 1.00280
 C583 C 0.37334 0.40005 0.98510
 C584 C 0.38854 0.38326 0.98391
 C585 C 0.38286 0.36160 0.98875
 C586 C 0.36073 0.35717 0.99478
 C587 C 0.35512 0.33554 0.99979
 C588 C 0.37053 0.31888 0.99926
 C589 C 0.39214 0.32294 0.99363
 C590 C 0.39863 0.34426 0.98804
 C591 C 0.42076 0.34731 0.98217
 C592 C 0.43574 0.33011 0.98240
 C593 C 0.42931 0.30922 0.98839
 C594 C 0.40738 0.30574 0.99377
 H595 H 0.31613 0.35591 1.00526
 H596 H 0.34271 0.42996 0.98911
 H597 H 0.29149 0.38613 1.00711
 H598 H 0.37856 0.41643 0.98137
 H599 H 0.40476 0.38796 0.97929
 H600 H 0.33890 0.33086 1.00445
 H601 H 0.36545 0.30259 1.00346
 H602 H 0.42722 0.36279 0.97748
 H603 H 0.45263 0.33335 0.97839
 H604 H 0.40213 0.28955 0.99811
 C605 C 0.88980 0.17958 0.47743
 C606 C 0.88602 0.16605 0.49535
 C607 C 0.89946 0.16955 0.51487
 C608 C 0.91655 0.18515 0.51581
 C609 C 0.92049 0.19795 0.49768
 C610 C 0.90672 0.19519 0.47864
 C611 C 0.89599 0.15733 0.53334
 C612 C 0.87944 0.14160 0.53299
 C613 C 0.86583 0.13710 0.51387
 C614 C 0.86949 0.14919 0.49457
 C615 C 0.85694 0.14362 0.47498
 C616 C 0.84138 0.12687 0.47419
 C617 C 0.83732 0.11525 0.49294
 C618 C 0.84909 0.12047 0.51321
 C619 C 0.84358 0.10875 0.53195
 C620 C 0.82775 0.09207 0.53031
 C621 C 0.81687 0.08645 0.51004
 C622 C 0.82159 0.09826 0.49145
 H623 H 0.87986 0.17873 0.46230
 H624 H 0.92715 0.18692 0.53060
 H625 H 0.90894 0.20524 0.46458
 H626 H 0.90623 0.15994 0.54830
 H627 H 0.87816 0.13279 0.54792
 H628 H 0.85915 0.15151 0.45964
 H629 H 0.83241 0.12296 0.45867
 H630 H 0.85104 0.11209 0.54819
 H631 H 0.82434 0.08319 0.54493
 H632 H 0.81290 0.09426 0.47579
 C633 C 0.36309 0.57482 0.01934
 C634 C 0.35857 0.59687 0.01460
 C635 C 0.33636 0.60238 0.00959
 C636 C 0.31963 0.58639 0.00928
 C637 C 0.32448 0.56463 0.01382
 C638 C 0.34633 0.55908 0.01892
 C639 C 0.33090 0.62379 0.00478
 C640 C 0.34699 0.63997 0.00451
 C641 C 0.36940 0.63540 0.00910
 C642 C 0.37526 0.61353 0.01445
 C643 C 0.39763 0.60903 0.01939
 C644 C 0.41375 0.62511 0.01882
 C645 C 0.40839 0.64636 0.01333
 C646 C 0.38618 0.65192 0.00843
 C647 C 0.38181 0.67381 0.00290
 C648 C 0.39877 0.68924 0.00214
 C649 C 0.42065 0.68355 0.00689
 C650 C 0.42528 0.66205 0.01257
 H651 H 0.37939 0.56901 0.02322
 H652 H 0.30273 0.59094 0.00558
 H653 H 0.35063 0.54233 0.02218
 H654 H 0.31394 0.62811 0.00104
 H655 H 0.34120 0.65598 0.00058
 H656 H 0.40337 0.59314 0.02379
 H657 H 0.43070 0.62080 0.02265
 H658 H 0.36552 0.67962 -0.00105
 H659 H 0.39468 0.70581 -0.00204
 H660 H 0.44220 0.65735 0.01596
 C661 C 0.10484 -0.16300 0.52687
 C662 C 0.11139 -0.15289 0.50749
 C663 C 0.10042 -0.15956 0.48716
 C664 C 0.08375 -0.17560 0.48646
 C665 C 0.07736 -0.18523 0.50584
 C666 C 0.08812 -0.17881 0.52598
 C667 C 0.10594 -0.15005 0.46758
 C668 C 0.12186 -0.13370 0.46764
 C669 C 0.13311 -0.12618 0.48742
 C670 C 0.12813 -0.13626 0.50761
 C671 C 0.14005 -0.12937 0.52722
 C672 C 0.15588 -0.11292 0.52729
 C673 C 0.16046 -0.10250 0.50794
 C674 C 0.14919 -0.10891 0.48770
 C675 C 0.15435 -0.09752 0.46863
 C676 C 0.16997 -0.08064 0.46974
 C677 C 0.18106 -0.07445 0.48978
 C678 C 0.17623 -0.08556 0.50881
 H679 H 0.11206 -0.15894 0.54308
 H680 H 0.07529 -0.18019 0.47082
 H681 H 0.08362 -0.18614 0.54118
 H682 H 0.09770 -0.15519 0.45197
 H683 H 0.12502 -0.12738 0.45173
 H684 H 0.13765 -0.13645 0.54294
 H685 H 0.16454 -0.10818 0.54279
 H686 H 0.14642 -0.10091 0.45262
 H687 H 0.17304 -0.07209 0.45484
 H688 H 0.18487 -0.08107 0.52439
 C689 C 0.63843 0.41416 0.99267
 C690 C 0.64320 0.39165 0.99454
 C691 C 0.66564 0.38539 0.99464
 C692 C 0.68242 0.40121 0.99361
 C693 C 0.67732 0.42342 0.99202
 C694 C 0.65520 0.42966 0.99144
 C695 C 0.67127 0.36339 0.99575
 C696 C 0.65514 0.34729 0.99653
 C697 C 0.63255 0.35260 0.99659
 C698 C 0.62653 0.37520 0.99613
 C699 C 0.60407 0.38064 0.99758
 C700 C 0.58799 0.36465 0.99896
 C701 C 0.59348 0.34256 0.99872
 C702 C 0.61577 0.33609 0.99735
 C703 C 0.62021 0.31333 0.99656
 C704 C 0.60325 0.29787 0.99735
 C705 C 0.58136 0.30449 0.99907
 C706 C 0.57664 0.32689 0.99975
 H707 H 0.62192 0.42042 0.99187
 H708 H 0.69950 0.39620 0.99374
 H709 H 0.65082 0.44674 0.99036
 H710 H 0.68839 0.35851 0.99589
 H711 H 0.66101 0.33077 0.99746
 H712 H 0.59827 0.39725 0.99806
 H713 H 0.57097 0.36967 1.00012
 H714 H 0.63654 0.30684 0.99503
 H715 H 0.60732 0.28063 0.99679
 H716 H 0.55967 0.33215 1.00062
 C717 C 0.52790 0.10657 1.16751
 C718 C 0.50931 0.11795 1.15926
 C719 C 0.48856 0.11284 1.16780
 C720 C 0.48667 0.09682 1.18357
 C721 C 0.50518 0.08541 1.19115
 C722 C 0.52578 0.09062 1.18313
 C723 C 0.46969 0.12350 1.16039
 C724 C 0.47072 0.13881 1.14420
 C725 C 0.49081 0.14416 1.13467
 C726 C 0.51051 0.13387 1.14264
 C727 C 0.53069 0.13968 1.13355
 C728 C 0.53161 0.15443 1.11682
 C729 C 0.51254 0.16405 1.10841
 C730 C 0.49186 0.15926 1.11727
 C731 C 0.47306 0.16953 1.10798
 C732 C 0.47479 0.18346 1.09045
 C733 C 0.49522 0.18778 1.08156
 C734 C 0.51407 0.17821 1.09085
 H735 H 0.54430 0.10925 1.16203
 H736 H 0.47068 0.09317 1.18994
 H737 H 0.54033 0.08189 1.18852
 H738 H 0.45383 0.11979 1.16701
 H739 H 0.45529 0.14610 1.13947
 H740 H 0.54624 0.13304 1.13891
 H741 H 0.54747 0.15817 1.11022
 H742 H 0.45669 0.16701 1.11361
 H743 H 0.45999 0.19089 1.08379
 H744 H 0.52995 0.18124 1.08394
 C745 C -0.02838 0.67323 0.60677
 C746 C -0.00949 0.66327 0.61625
 C747 C 0.01115 0.66805 0.60730
 C748 C 0.01259 0.68212 0.58965
 C749 C -0.00631 0.69162 0.58038
 C750 C -0.02673 0.68709 0.58918
 C751 C 0.03027 0.65863 0.61583
 C752 C 0.02947 0.64421 0.63286
 C753 C 0.00936 0.63859 0.64221
 C754 C -0.01041 0.64858 0.63403
 C755 C -0.03044 0.64347 0.64382
 C756 C -0.03131 0.62871 0.66052
 C757 C -0.01236 0.61836 0.66820
 C758 C 0.00831 0.62320 0.65935
 C759 C 0.02698 0.61212 0.66788
 C760 C 0.02501 0.59673 0.68409
 C761 C 0.00447 0.59181 0.69245
 C762 C -0.01410 0.60293 0.68458
 H763 H -0.04475 0.67059 0.61235
 H764 H 0.02847 0.68529 0.58278
 H765 H -0.04158 0.69445 0.58252
 H766 H 0.04611 0.66232 0.60912
 H767 H 0.04507 0.63773 0.63831
 H768 H -0.04591 0.65059 0.63896
 H769 H -0.04712 0.62519 0.66736
 H770 H 0.04333 0.61462 0.66218
 H771 H 0.03961 0.58820 0.68966
 H772 H -0.03004 0.59951 0.69119
 C773 C 0.52724 0.88381 -0.16620
 C774 C 0.50797 0.87416 -0.15828
 C775 C 0.48743 0.88074 -0.16759
 C776 C 0.48644 0.89645 -0.18387
 C777 C 0.50569 0.90600 -0.19126
 C778 C 0.52603 0.89942 -0.18234
 C779 C 0.46792 0.87176 -0.16053
 C780 C 0.46817 0.85657 -0.14415
 C781 C 0.48810 0.84965 -0.13404
 C782 C 0.50835 0.85845 -0.14137
 C783 C 0.52830 0.85138 -0.13142
 C784 C 0.52854 0.83661 -0.11466
 C785 C 0.50901 0.82817 -0.10710
 C786 C 0.48847 0.83439 -0.11670
 C787 C 0.46920 0.82517 -0.10830
 C788 C 0.47038 0.81080 -0.09099
 C789 C 0.49073 0.80499 -0.08144
 C790 C 0.50998 0.81366 -0.08974
 H791 H 0.54356 0.87993 -0.16018
 H792 H 0.47060 0.90122 -0.19086
 H793 H 0.54117 0.90674 -0.18750
 H794 H 0.45218 0.87666 -0.16767
 H795 H 0.45230 0.85063 -0.13974
 H796 H 0.54419 0.85701 -0.13609
 H797 H 0.54428 0.83183 -0.10744
 H798 H 0.45288 0.82875 -0.11459
 H799 H 0.45525 0.80411 -0.08511
 H800 H 0.52582 0.80953 -0.08229
 C801 C 1.02799 0.33205 0.39316
 C802 C 1.00945 0.34358 0.38516
 C803 C 0.98888 0.33886 0.39420
 C804 C 0.98733 0.32407 0.41121
 C805 C 1.00603 0.31330 0.41973
 C806 C 1.02627 0.31728 0.40998
 C807 C 0.96986 0.34901 0.38636
 C808 C 0.97074 0.36403 0.36988
 C809 C 0.99086 0.36980 0.36067
 C810 C 1.01059 0.35959 0.36862
 C811 C 1.03085 0.36613 0.36017
 C812 C 1.03188 0.38207 0.34460
 C813 C 1.01283 0.39198 0.33652
 C814 C 0.99199 0.38580 0.34412
 C815 C 0.97317 0.39602 0.33484
 C816 C 0.97512 0.41208 0.31932
 C817 C 0.99581 0.41859 0.31241
 C818 C 1.01459 0.40826 0.32098
 H819 H 1.04418 0.33408 0.38688
 H820 H 0.97120 0.32059 0.41727
 H821 H 1.04134 0.30990 0.41598
 H822 H 0.95405 0.34540 0.39314
 H823 H 0.95526 0.37120 0.36510
 H824 H 1.04642 0.35958 0.36561
 H825 H 1.04785 0.38672 0.33884
 H826 H 0.95663 0.39191 0.33901
 H827 H 0.96027 0.41933 0.31257
 H828 H 1.03073 0.41321 0.31590
 C829 C 0.46997 0.90450 0.16225
 C830 C 0.48901 0.89535 0.15288
 C831 C 0.50966 0.90391 0.16077
 C832 C 0.51099 0.92110 0.17704
 C833 C 0.49193 0.93034 0.18611
 C834 C 0.47145 0.92151 0.17844
 C835 C 0.52903 0.89530 0.15245
 C836 C 0.52845 0.87844 0.13629
 C837 C 0.50832 0.86944 0.12760
 C838 C 0.48825 0.87809 0.13598
 C839 C 0.46810 0.86932 0.12706
 C840 C 0.46749 0.85280 0.11055
 C841 C 0.48684 0.84416 0.10227
 C842 C 0.50757 0.85220 0.11069
 C843 C 0.52665 0.84260 0.10171
 C844 C 0.52507 0.82608 0.08499
 C845 C 0.50453 0.81844 0.07660
 C846 C 0.48547 0.82755 0.08543
 H847 H 0.45356 0.89907 0.15741
 H848 H 0.52715 0.92662 0.18309
 H849 H 0.45613 0.92828 0.18408
 H850 H 0.54491 0.90174 0.15847
 H851 H 0.54422 0.87296 0.13083
 H852 H 0.45232 0.87498 0.13232
 H853 H 0.45160 0.84670 0.10417
 H854 H 0.54309 0.84737 0.10720
 H855 H 0.54008 0.81908 0.07874
 H856 H 0.46946 0.82197 0.07890
 C857 C 0.01880 0.33815 0.61738
 C858 C 0.00604 0.35741 0.61666
 C859 C -0.00818 0.35985 0.59784
 C860 C -0.00850 0.34424 0.58007
 C861 C 0.00451 0.32537 0.58085
 C862 C 0.01792 0.32244 0.59986
 C863 C -0.02206 0.37787 0.59680
 C864 C -0.02254 0.39339 0.61425
 C865 C -0.00855 0.39188 0.63327
 C866 C 0.00667 0.37414 0.63404
 C867 C 0.02242 0.37405 0.65180
 C868 C 0.02304 0.39049 0.66845
 C869 C 0.00760 0.40726 0.66851
 C870 C -0.00881 0.40789 0.65126
 C871 C -0.02497 0.42443 0.65290
 C872 C -0.02423 0.44010 0.67044
 C873 C -0.00734 0.43997 0.68676
 C874 C 0.00849 0.42346 0.68578
 H875 H 0.02919 0.33442 0.63152
 H876 H -0.01882 0.34698 0.56548
 H877 H 0.02761 0.30775 0.60142
 H878 H -0.03290 0.37989 0.58240
 H879 H -0.03360 0.40688 0.61198
 H880 H 0.03506 0.36183 0.65292
 H881 H 0.03566 0.38994 0.68156
 H882 H -0.03865 0.42548 0.64116
 H883 H -0.03672 0.45266 0.67106
 H884 H 0.02136 0.42311 0.69867
 C885 C 0.50132 0.10132 0.81704
 C886 C 0.50360 0.09853 0.84017
 C887 C 0.50654 0.07691 0.84728
 C888 C 0.50694 0.05906 0.83185
 C889 C 0.50457 0.06212 0.80907
 C890 C 0.50179 0.08341 0.80186
 C891 C 0.50903 0.07311 0.86977
 C892 C 0.50881 0.09028 0.88555
 C893 C 0.50597 0.11216 0.87949
 C894 C 0.50312 0.11635 0.85643
 C895 C 0.49977 0.13818 0.85042
 C896 C 0.49936 0.15533 0.86625
 C897 C 0.50235 0.15157 0.88871
 C898 C 0.50579 0.12998 0.89573
 C899 C 0.50898 0.12722 0.91878
 C900 C 0.50866 0.14506 0.93399
 C901 C 0.50517 0.16629 0.92693
 C902 C 0.50197 0.16940 0.90422
 H903 H 0.49929 0.11708 0.81003
 H904 H 0.50879 0.04262 0.83767
 H905 H 0.50024 0.08631 0.78433
 H906 H 0.51122 0.05660 0.87528
 H907 H 0.51081 0.08571 0.90248
 H908 H 0.49726 0.14266 0.83350
 H909 H 0.49670 0.17179 0.86079
 H910 H 0.51182 0.11154 0.92572
 H911 H 0.51091 0.14214 0.95147
 H912 H 0.49952 0.18582 0.89857
 C913 C 0.97432 0.65971 0.39691
 C914 C 0.99348 0.65174 0.38667
 C915 C 1.01398 0.66117 0.39407
 C916 C 1.01504 0.67766 0.41107
 C917 C 0.99592 0.68514 0.42114
 C918 C 0.97561 0.67606 0.41379
 C919 C 1.03338 0.65405 0.38460
 C920 C 1.03306 0.63750 0.36809
 C921 C 1.01319 0.62729 0.36028
 C922 C 0.99304 0.63466 0.36959
 C923 C 0.97313 0.62462 0.36162
 C924 C 0.97285 0.60778 0.34546
 C925 C 0.99229 0.60020 0.33646
 C926 C 1.01278 0.60983 0.34358
 C927 C 1.03197 0.60137 0.33376
 C928 C 1.03075 0.58402 0.31789
 C929 C 1.01047 0.57449 0.31113
 C930 C 0.99129 0.58280 0.32045
 H931 H 0.95805 0.65359 0.39250
 H932 H 1.03084 0.68477 0.41642
 H933 H 0.96058 0.68129 0.42148
 H934 H 1.04908 0.66127 0.39012
 H935 H 1.04885 0.63305 0.36185
 H936 H 0.95730 0.62931 0.36758
 H937 H 0.95714 0.60052 0.34000
 H938 H 1.04823 0.60765 0.33798
 H939 H 1.04582 0.57812 0.31076
 H940 H 0.97551 0.57536 0.31562
 C941 C 1.18363 0.49728 0.12253
 C942 C 1.16207 0.48874 0.11879
 C943 C 1.15628 0.48022 0.09717
 C944 C 1.17158 0.48004 0.08031
 C945 C 1.19304 0.48859 0.08412
 C946 C 1.19867 0.49725 0.10559
 C947 C 1.13511 0.47208 0.09229
 C948 C 1.11932 0.47246 0.10829
 C949 C 1.12411 0.48090 0.13007
 C950 C 1.14601 0.48862 0.13560
 C951 C 1.15113 0.49583 0.15773
 C952 C 1.13537 0.49598 0.17380
 C953 C 1.11380 0.48926 0.16851
 C954 C 1.10776 0.48173 0.14657
 C955 C 1.08547 0.47565 0.14205
 C956 C 1.07008 0.47683 0.15860
 C957 C 1.07619 0.48404 0.18030
 C958 C 1.09817 0.49019 0.18510
 H959 H 1.18946 0.50433 0.13833
 H960 H 1.16610 0.47413 0.06386
 H961 H 1.21505 0.50344 0.10983
 H962 H 1.13060 0.46542 0.07580
 H963 H 1.10351 0.46569 0.10301
 H964 H 1.16734 0.50126 0.16335
 H965 H 1.14012 0.50164 0.19056
 H966 H 1.07919 0.47033 0.12580
 H967 H 1.05313 0.47250 0.15421
 H968 H 1.10319 0.49565 0.20186
 C969 C 0.61333 -0.03738 0.66442
 C970 C 0.62019 -0.01760 0.65534
 C971 C 0.60968 0.00196 0.66255
 C972 C 0.59251 0.00143 0.67745
 C973 C 0.58553 -0.01837 0.68579
 C974 C 0.59631 -0.03768 0.67932
 C975 C 0.61612 0.02200 0.65468
 C976 C 0.63278 0.02318 0.63968
 C977 C 0.64356 0.00420 0.63161
 C978 C 0.63696 -0.01657 0.63934
 C979 C 0.64696 -0.03565 0.63041
 C980 C 0.66274 -0.03456 0.61447
 C981 C 0.66950 -0.01448 0.60695
 C982 C 0.66035 0.00525 0.61564
 C983 C 0.66838 0.02518 0.60784
 C984 C 0.68410 0.02536 0.59159
 C985 C 0.69249 0.00577 0.58252
 C986 C 0.68526 -0.01409 0.59053
 H987 H 0.62081 -0.05294 0.66053
 H988 H 0.58422 0.01650 0.68214
 H989 H 0.59166 -0.05316 0.68590
 H990 H 0.60815 0.03701 0.66015
 H991 H 0.63645 0.03932 0.63436
 H992 H 0.64262 -0.05187 0.63502
 H993 H 0.66970 -0.04969 0.60791
 H994 H 0.66302 0.04099 0.61400
 H995 H 0.68980 0.04099 0.58617
 H996 H 0.69149 -0.02940 0.58359
 C997 C -0.17431 0.48087 0.88623
 C998 C -0.16541 0.50049 0.87857
 C999 C -0.17277 0.52055 0.88830
 C1000 C -0.18845 0.52075 0.90483
 C1001 C -0.19680 0.50115 0.91245
 C1002 C -0.18964 0.48127 0.90287
 C1003 C -0.16423 0.54036 0.88178
 C1004 C -0.14789 0.54079 0.86635
 C1005 C -0.13956 0.52129 0.85652
 C1006 C -0.14909 0.50086 0.86208
 C1007 C -0.14198 0.48149 0.85097
 C1008 C -0.12544 0.48187 0.83578
 C1009 C -0.11511 0.50146 0.83115
 C1010 C -0.12200 0.52150 0.84134
 C1011 C -0.11060 0.54083 0.83627
 C1012 C -0.09310 0.54012 0.82192
 C1013 C -0.08632 0.52024 0.81205
 C1014 C -0.09767 0.50101 0.81655
 H1015 H -0.16933 0.46486 0.88025
 H1016 H -0.19402 0.53627 0.91190
 H1017 H -0.19541 0.46584 0.90871
 H1018 H -0.16997 0.55576 0.88898
 H1019 H -0.14224 0.55680 0.86235
 H1020 H -0.14900 0.46563 0.85349
 H1021 H -0.12042 0.46654 0.82781
 H1022 H -0.11434 0.55671 0.84354
 H1023 H -0.08442 0.55520 0.81906
 H1024 H -0.09280 0.48554 0.80877
 C1025 C 0.39419 0.03662 0.33706
 C1026 C 0.38203 0.01786 0.34246
 C1027 C 0.38730 -0.00240 0.33160
 C1028 C 0.40422 -0.00367 0.31641
 C1029 C 0.41636 0.01497 0.31167
 C1030 C 0.41102 0.03512 0.32197
 C1031 C 0.37584 -0.02139 0.33610
 C1032 C 0.35952 -0.02097 0.35154
 C1033 C 0.35392 -0.00139 0.36325
 C1034 C 0.36514 0.01842 0.35842
 C1035 C 0.35928 0.03806 0.36987
 C1036 C 0.34347 0.03834 0.38586
 C1037 C 0.33278 0.01915 0.39113
 C1038 C 0.33764 -0.00099 0.37984
 C1039 C 0.32619 -0.01993 0.38593
 C1040 C 0.31102 -0.01887 0.40272
 C1041 C 0.30660 0.00102 0.41402
 C1042 C 0.31740 0.02002 0.40794
 H1043 H 0.39141 0.05270 0.34437
 H1044 H 0.40799 -0.01930 0.30825
 H1045 H 0.42029 0.04976 0.31878
 H1046 H 0.37970 -0.03688 0.32771
 H1047 H 0.35168 -0.03646 0.35396
 H1048 H 0.36670 0.05365 0.36701
 H1049 H 0.33971 0.05380 0.39434
 H1050 H 0.32861 -0.03592 0.37824
 H1051 H 0.30264 -0.03375 0.40684
 H1052 H 0.31429 0.03548 0.41674
 C1053 C 0.17844 0.49439 0.88912
 C1054 C 0.15666 0.50136 0.89300
 C1055 C 0.15143 0.50711 0.91518
 C1056 C 0.16727 0.50563 0.93253
 C1057 C 0.18867 0.49855 0.92837
 C1058 C 0.19406 0.49302 0.90651
 C1059 C 0.13037 0.51426 0.92005
 C1060 C 0.11421 0.51593 0.90343
 C1061 C 0.11842 0.51035 0.88105
 C1062 C 0.13997 0.50281 0.87576
 C1063 C 0.14403 0.49681 0.85344
 C1064 C 0.12775 0.49811 0.83687
 C1065 C 0.10677 0.50553 0.84171
 C1066 C 0.10176 0.51191 0.86380
 C1067 C 0.08021 0.51959 0.86763
 C1068 C 0.06445 0.52059 0.85034
 C1069 C 0.06947 0.51403 0.82863
 C1070 C 0.09073 0.50655 0.82445
 H1071 H 0.18407 0.48996 0.87286
 H1072 H 0.16279 0.50968 0.94941
 H1073 H 0.21057 0.48782 0.90276
 H1074 H 0.12628 0.51866 0.93699
 H1075 H 0.09846 0.52152 0.90881
 H1076 H 0.15968 0.49081 0.84813
 H1077 H 0.13167 0.49322 0.82001
 H1078 H 0.07488 0.52496 0.88375
 H1079 H 0.04808 0.52622 0.85408
 H1080 H 0.09488 0.50173 0.80764
 C1081 C 0.57958 0.00501 0.36411
 C1082 C 0.60217 0.00208 0.35994
 C1083 C 0.60839 0.00095 0.33752
 C1084 C 0.59242 0.00182 0.32018
 C1085 C 0.57017 0.00459 0.32470
 C1086 C 0.56394 0.00630 0.34675
 C1087 C 0.63052 -0.00086 0.33251
 C1088 C 0.64679 -0.00104 0.34924
 C1089 C 0.64151 0.00005 0.37182
 C1090 C 0.61878 0.00067 0.37722
 C1091 C 0.61338 -0.00048 0.39966
 C1092 C 0.62958 -0.00140 0.41635
 C1093 C 0.65179 -0.00075 0.41149
 C1094 C 0.65816 0.00024 0.38921
 C1095 C 0.68097 0.00184 0.38538
 C1096 C 0.69660 0.00218 0.40292
 C1097 C 0.69012 0.00071 0.42478
 C1098 C 0.66768 -0.00086 0.42892
 H1099 H 0.57344 0.00686 0.38057
 H1100 H 0.59736 0.00086 0.30310
 H1101 H 0.54681 0.00848 0.35061
 H1102 H 0.63537 -0.00187 0.31541
 H1103 H 0.66343 -0.00256 0.34387
 H1104 H 0.59667 -0.00120 0.40491
 H1105 H 0.62462 -0.00234 0.43334
 H1106 H 0.68728 0.00339 0.36910
 H1107 H 0.71388 0.00350 0.39937
 H1108 H 0.66256 -0.00155 0.44588
 C1109 C 0.85783 0.49297 0.07392
 C1110 C 0.85465 0.49513 0.09702
 C1111 C 0.83269 0.49661 0.10409
 C1112 C 0.81491 0.49666 0.08855
 C1113 C 0.81846 0.49474 0.06578
 C1114 C 0.84004 0.49277 0.05868
 C1115 C 0.82853 0.49799 0.12663
 C1116 C 0.84565 0.49766 0.14246
 C1117 C 0.86783 0.49633 0.13636
 C1118 C 0.87242 0.49567 0.11326
 C1119 C 0.89463 0.49589 0.10717
 C1120 C 0.91176 0.49628 0.12297
 C1121 C 0.90759 0.49616 0.14547
 C1122 C 0.88561 0.49593 0.15258
 C1123 C 0.88245 0.49509 0.17565
 C1124 C 0.90033 0.49483 0.19082
 C1125 C 0.92194 0.49552 0.18363
 C1126 C 0.92541 0.49617 0.16090
 H1127 H 0.87381 0.49112 0.06700
 H1128 H 0.79821 0.49784 0.09419
 H1129 H 0.84322 0.49135 0.04115
 H1130 H 0.81179 0.49919 0.13214
 H1131 H 0.84090 0.49892 0.15945
 H1132 H 0.89944 0.49620 0.09023
 H1133 H 0.92854 0.49656 0.11747
 H1134 H 0.86640 0.49430 0.18256
 H1135 H 0.89724 0.49431 0.20833
 H1136 H 0.94211 0.49626 0.15517
 C1137 C 0.38484 -0.02455 0.66973
 C1138 C 0.38540 -0.01133 0.65110
 C1139 C 0.40519 0.00025 0.64775
 C1140 C 0.42325 -0.00102 0.66274
 C1141 C 0.42250 -0.01429 0.68103
 C1142 C 0.40309 -0.02600 0.68434
 C1143 C 0.40700 0.01299 0.62936
 C1144 C 0.38983 0.01403 0.61371
 C1145 C 0.36986 0.00261 0.61604
 C1146 C 0.36724 -0.00948 0.63552
 C1147 C 0.34648 -0.01902 0.63889
 C1148 C 0.32909 -0.01736 0.62351
 C1149 C 0.33177 -0.00667 0.60388
 C1150 C 0.35228 0.00318 0.59968
 C1151 C 0.35447 0.01281 0.57902
 C1152 C 0.33690 0.01311 0.56356
 C1153 C 0.31642 0.00399 0.56804
 C1154 C 0.31403 -0.00592 0.58833
 H1155 H 0.37078 -0.03447 0.67320
 H1156 H 0.43798 0.00845 0.66013
 H1157 H 0.40212 -0.03672 0.69805
 H1158 H 0.42200 0.02208 0.62686
 H1159 H 0.39259 0.02442 0.60015
 H1160 H 0.34296 -0.02754 0.65358
 H1161 H 0.31342 -0.02483 0.62690
 H1162 H 0.36973 0.01971 0.57395
 H1163 H 0.33960 0.02015 0.54776
 H1164 H 0.29831 -0.01302 0.59211
   
