data_POSCAR
  _audit_creation_date              2014-09-24
  _audit_creation_method            'ToBaCCo'
  _symmetry_space_group_name_H-M    'P1'
  _symmetry_Int_Tables_number       1
  _symmetry_cell_setting            triclinic
  loop_
  _symmetry_equiv_pos_as_xyz
 x,y,z
_cell_length_a 51.4661
_cell_length_b 51.3014
_cell_length_c 45.4150
_cell_angle_alpha 90.468000
_cell_angle_beta 89.896700
_cell_angle_gamma 81.384000
loop_
  _atom_site_label
  _atom_site_type_symbol
  _atom_site_fract_x
  _atom_site_fract_y
  _atom_site_fract_z
O1 O -0.00911 0.25732 0.03824
 O2 O 0.03491 0.24990 -0.02622
 O3 O -0.01567 0.25426 -0.01852
 O4 O 0.04130 0.25287 0.03046
 O5 O 0.04448 0.20962 0.03354
 O6 O -0.01258 0.21101 -0.01566
 O7 O 0.03821 0.20669 -0.02320
 O8 O -0.00632 0.21407 0.04100
 Cu9 Cu 0.01253 0.25790 0.00566
 Cu10 Cu 0.01627 0.20601 0.00920
 C11 C -0.01528 0.23699 0.05064
 C12 C 0.04426 0.22704 -0.03576
 C13 C -0.02393 0.23291 -0.02546
 C14 C 0.05264 0.23104 0.04044
 O15 O 0.48195 0.78390 0.52099
 O16 O 0.52786 0.77179 0.45807
 O17 O 0.47725 0.78405 0.46374
 O18 O 0.53264 0.77443 0.51485
 O19 O 0.53050 0.73186 0.51686
 O20 O 0.47436 0.74162 0.46504
 O21 O 0.52528 0.72930 0.46019
 O22 O 0.47938 0.74139 0.52221
 Cu23 Cu 0.50511 0.78279 0.48923
 Cu24 Cu 0.50204 0.73181 0.49127
 C25 C 0.47287 0.76455 0.53238
 C26 C 0.53459 0.74834 0.44859
 C27 C 0.46634 0.76466 0.45544
 C28 C 0.54125 0.75165 0.52452
 O29 O 0.98984 0.69815 -0.04290
 O30 O 1.02603 0.70141 0.02637
 O31 O 0.97686 0.70294 0.01260
 O32 O 1.03899 0.69838 -0.02926
 O33 O 1.03275 0.74160 -0.03363
 O34 O 0.97238 0.74634 0.01035
 O35 O 1.02224 0.74468 0.02257
 O36 O 0.98307 0.74154 -0.04498
 Cu37 Cu 1.00850 0.69588 -0.00800
 Cu38 Cu 1.00221 0.74788 -0.01170
 C39 C 0.97966 0.71925 -0.05551
 C40 C 1.03056 0.72351 0.03619
 C41 C 0.96399 0.72552 0.01854
 C42 C 1.04639 0.71930 -0.03893
 O43 O 0.49314 0.21080 0.48251
 O44 O 0.53711 0.21217 0.54571
 O45 O 0.48689 0.21153 0.53948
 O46 O 0.54286 0.21365 0.48841
 O47 O 0.53298 0.25699 0.48722
 O48 O 0.48113 0.25501 0.54217
 O49 O 0.53135 0.25566 0.54465
 O50 O 0.48304 0.25413 0.48479
 Cu51 Cu 0.51585 0.20767 0.51400
 Cu52 Cu 0.50636 0.25980 0.51475
 C53 C 0.48029 0.23211 0.47306
 C54 C 0.54196 0.23404 0.55588
 C55 C 0.47487 0.23309 0.54999
 C56 C 0.54695 0.23583 0.47853
 O57 O 0.70428 0.03335 -0.02855
 O58 O 0.71581 -0.02716 0.01555
 O59 O 0.70992 0.02294 0.02758
 O60 O 0.70892 -0.01654 -0.04009
 O61 O 0.75177 -0.01800 -0.04504
 O62 O 0.75271 0.02212 0.02271
 O63 O 0.75857 -0.02836 0.01064
 O64 O 0.74714 0.03235 -0.03304
 Cu65 Cu 0.70546 0.00328 -0.00582
 Cu66 Cu 0.75685 0.00192 -0.01164
 C67 C 0.72380 0.04310 -0.03846
 C68 C 0.73916 -0.03825 0.02062
 C69 C 0.73141 0.02932 0.03674
 C70 C 0.73008 -0.02402 -0.05418
 O71 O 0.17199 0.54285 0.48589
 O72 O 0.17457 0.49172 0.54219
 O73 O 0.17431 0.54261 0.54343
 O74 O 0.17401 0.49229 0.48476
 O75 O 0.21733 0.48701 0.48346
 O76 O 0.21765 0.53693 0.54167
 O77 O 0.21790 0.48561 0.54064
 O78 O 0.21533 0.53784 0.48458
 Cu79 Cu 0.16939 0.51794 0.51438
 Cu80 Cu 0.22140 0.51130 0.51261
 C81 C 0.19311 0.54895 0.47537
 C82 C 0.19652 0.47964 0.55081
 C83 C 0.19613 0.54851 0.55232
 C84 C 0.19572 0.48125 0.47388
 O85 O 0.27636 1.03521 0.03902
 O86 O 0.27723 0.97821 -0.01229
 O87 O 0.28380 1.02697 -0.01814
 O88 O 0.28187 0.98329 0.04399
 O89 O 0.23847 0.98979 0.04400
 O90 O 0.24055 1.03505 -0.01937
 O91 O 0.23392 0.98500 -0.01172
 O92 O 0.23315 1.04014 0.03911
 Cu93 Cu 0.28352 1.00577 0.01351
 Cu94 Cu 0.23247 1.01367 0.01231
 C95 C 0.25429 1.04720 0.04822
 C96 C 0.25532 0.97178 -0.02047
 C97 C 0.26288 1.03868 -0.02960
 C98 C 0.26026 0.97881 0.05478
 O99 O 0.75995 0.52966 0.51406
 O100 O 0.76027 0.47072 0.46691
 O101 O 0.75485 0.52179 0.45811
 O102 O 0.76625 0.47947 0.52292
 O103 O 0.72346 0.48138 0.52908
 O104 O 0.71199 0.52404 0.46387
 O105 O 0.71747 0.47321 0.47317
 O106 O 0.71717 0.53172 0.52045
 Cu107 Cu 0.76461 0.50011 0.48966
 Cu108 Cu 0.71320 0.50285 0.49709
 C109 C 0.73851 0.54053 0.52567
 C110 C 0.73893 0.46168 0.46229
 C111 C 0.73157 0.53048 0.45011
 C112 C 0.74688 0.47339 0.53731
 C113 C 0.25543 0.27909 0.24749
 C114 C 0.27576 0.25910 0.25092
 C115 C 0.28036 0.23702 0.22950
 C116 C 0.29435 0.25856 0.27597
 C117 C 0.25194 0.30241 0.26735
 C118 C 0.23519 0.27797 0.22458
 C119 C 0.27604 0.21178 0.23784
 C120 C 0.27935 0.19106 0.21739
 C121 C 0.28773 0.19518 0.18860
 C122 C 0.29276 0.22028 0.18049
 C123 C 0.28885 0.24117 0.20077
 C124 C 0.28513 0.26142 0.30513
 C125 C 0.30261 0.26292 0.32834
 C126 C 0.32970 0.26074 0.32287
 C127 C 0.33904 0.25664 0.29387
 C128 C 0.32150 0.25563 0.27060
 C129 C 0.27159 0.31849 0.26981
 C130 C 0.26956 0.33851 0.29109
 C131 C 0.24788 0.34272 0.31041
 C132 C 0.22768 0.32726 0.30692
 C133 C 0.22961 0.30744 0.28541
 C134 C 0.23101 0.29758 0.20309
 C135 C 0.21136 0.29711 0.18198
 C136 C 0.19526 0.27722 0.18228
 C137 C 0.19956 0.25761 0.20395
 C138 C 0.21934 0.25799 0.22489
 H139 H 0.26952 0.20832 0.25997
 H140 H 0.27539 0.17179 0.22398
 H141 H 0.29909 0.22381 0.15831
 H142 H 0.29236 0.26057 0.19412
 H143 H 0.26434 0.26288 0.30989
 H144 H 0.29503 0.26560 0.35059
 H145 H 0.32905 0.25322 0.24831
 H146 H 0.28882 0.31505 0.25576
 H147 H 0.28516 0.35045 0.29268
 H148 H 0.21087 0.32971 0.32157
 H149 H 0.21428 0.29515 0.28382
 H150 H 0.24305 0.31317 0.20262
 H151 H 0.20884 0.31229 0.16538
 H152 H 0.18722 0.24232 0.20520
 H153 H 0.22198 0.24300 0.24172
 H154 H 0.35988 0.25490 0.28917
 C155 C 0.74549 0.71948 0.21615
 C156 C 0.72639 0.74073 0.21360
 C157 C 0.72636 0.76059 0.19019
 C158 C 0.70486 0.74618 0.23549
 C159 C 0.74586 0.70188 0.24192
 C160 C 0.76776 0.71363 0.19496
 C161 C 0.74571 0.77712 0.18921
 C162 C 0.74336 0.79817 0.16950
 C163 C 0.72168 0.80290 0.15036
 C164 C 0.70301 0.78547 0.15067
 C165 C 0.70518 0.76476 0.17063
 C166 C 0.70250 0.76927 0.25260
 C167 C 0.68244 0.77466 0.27345
 C168 C 0.66415 0.75718 0.27735
 C169 C 0.66637 0.73420 0.25981
 C170 C 0.68658 0.72874 0.23906
 C171 C 0.74154 0.67572 0.23812
 C172 C 0.74285 0.65880 0.26222
 C173 C 0.74909 0.66769 0.29030
 C174 C 0.75333 0.69393 0.29404
 C175 C 0.75158 0.71095 0.27004
 C176 C 0.76381 0.71428 0.16430
 C177 C 0.78522 0.70924 0.14499
 C178 C 0.81078 0.70250 0.15601
 C179 C 0.81467 0.70091 0.18650
 C180 C 0.79342 0.70658 0.20577
 H181 H 0.76198 0.77437 0.20452
 H182 H 0.75792 0.81135 0.17014
 H183 H 0.68642 0.78811 0.13581
 H184 H 0.69007 0.75216 0.17117
 H185 H 0.71649 0.78292 0.25011
 H186 H 0.68156 0.79230 0.28690
 H187 H 0.68793 0.71101 0.22568
 H188 H 0.73724 0.66846 0.21648
 H189 H 0.73974 0.63858 0.25883
 H190 H 0.75809 0.70120 0.31552
 H191 H 0.75515 0.73105 0.27324
 H192 H 0.74422 0.71862 0.15527
 H193 H 0.78186 0.71032 0.12147
 H194 H 0.83428 0.69589 0.19540
 H195 H 0.79711 0.70577 0.22923
 H196 H 0.65235 0.72055 0.26191
 C197 C 0.76806 0.21072 0.27541
 C198 C 0.78732 0.22618 0.27770
 C199 C 0.80993 0.22309 0.25693
 C200 C 0.78572 0.24812 0.29944
 C201 C 0.74788 0.21053 0.29881
 C202 C 0.76660 0.19309 0.24944
 C203 C 0.82633 0.19878 0.25384
 C204 C 0.84621 0.19539 0.23254
 C205 C 0.85001 0.21622 0.21379
 C206 C 0.83398 0.24079 0.21763
 C207 C 0.81432 0.24423 0.23916
 C208 C 0.80716 0.25049 0.31776
 C209 C 0.80675 0.27245 0.33626
 C210 C 0.78505 0.29274 0.33643
 C211 C 0.76346 0.29008 0.31825
 C212 C 0.76379 0.26799 0.29999
 C213 C 0.72110 0.21496 0.29162
 C214 C 0.70203 0.21375 0.31333
 C215 C 0.70946 0.20756 0.34251
 C216 C 0.73630 0.20301 0.34965
 C217 C 0.75535 0.20461 0.32801
 C218 C 0.76741 0.20293 0.22071
 C219 C 0.76794 0.18603 0.19642
 C220 C 0.76678 0.15913 0.20034
 C221 C 0.76460 0.14949 0.22896
 C222 C 0.76461 0.16634 0.25334
 H223 H 0.82342 0.18234 0.26765
 H224 H 0.85852 0.17640 0.23068
 H225 H 0.83602 0.25716 0.20336
 H226 H 0.80180 0.26311 0.24116
 H227 H 0.82431 0.23541 0.31751
 H228 H 0.82351 0.27362 0.35030
 H229 H 0.74731 0.26683 0.28550
 H230 H 0.71497 0.21936 0.26917
 H231 H 0.68148 0.21710 0.30722
 H232 H 0.74251 0.19834 0.37201
 H233 H 0.77595 0.20079 0.33390
 H234 H 0.76801 0.22366 0.21711
 H235 H 0.76912 0.19397 0.17452
 H236 H 0.76361 0.12881 0.23245
 H237 H 0.76369 0.15838 0.27527
 H238 H 0.74665 0.30550 0.31733
 C239 C 0.23888 0.77128 0.26441
 C240 C 0.22061 0.75451 0.26415
 C241 C 0.20089 0.75530 0.24005
 C242 C 0.22016 0.73435 0.28754
 C243 C 0.26258 0.76633 0.28342
 C244 C 0.23629 0.79479 0.24508
 C245 C 0.17421 0.75516 0.24656
 C246 C 0.15565 0.75664 0.22391
 C247 C 0.16348 0.75855 0.19446
 C248 C 0.19018 0.75807 0.18792
 C249 C 0.20875 0.75601 0.21043
 C250 C 0.22213 0.74117 0.31743
 C251 C 0.22369 0.72190 0.33913
 C252 C 0.22233 0.69561 0.33147
 C253 C 0.21903 0.68893 0.30182
 C254 C 0.21810 0.70812 0.27999
 C255 C 0.27891 0.74181 0.28258
 C256 C 0.30043 0.73672 0.30145
 C257 C 0.30620 0.75612 0.32143
 C258 C 0.29018 0.78091 0.32166
 C259 C 0.26868 0.78600 0.30270
 C260 C 0.25709 0.79880 0.22649
 C261 C 0.25413 0.81976 0.20674
 C262 C 0.23038 0.83733 0.20541
 C263 C 0.20986 0.83373 0.22472
 C264 C 0.21283 0.81273 0.24444
 H265 H 0.16772 0.75433 0.26918
 H266 H 0.13513 0.75684 0.22937
 H267 H 0.19669 0.75900 0.16530
 H268 H 0.22930 0.75519 0.20475
 H269 H 0.22288 0.76140 0.32394
 H270 H 0.22579 0.72750 0.36195
 H271 H 0.21636 0.70240 0.25716
 H272 H 0.27482 0.72653 0.26742
 H273 H 0.31268 0.71764 0.30027
 H274 H 0.29391 0.79620 0.33697
 H275 H 0.25635 0.80505 0.30363
 H276 H 0.27533 0.78517 0.22659
 H277 H 0.27020 0.82177 0.19194
 H278 H 0.19151 0.84718 0.22460
 H279 H 0.19669 0.81024 0.25897
 H280 H 0.21786 0.66873 0.29551
 C281 C 0.75210 0.28957 0.77856
 C282 C 0.73613 0.27058 0.77770
 C283 C 0.71649 0.27015 0.75371
 C284 C 0.73784 0.24927 0.80003
 C285 C 0.77526 0.28780 0.79824
 C286 C 0.74793 0.31230 0.75824
 C287 C 0.69004 0.26913 0.76049
 C288 C 0.67142 0.26976 0.73801
 C289 C 0.67897 0.27172 0.70849
 C290 C 0.70548 0.27209 0.70166
 C291 C 0.72416 0.27079 0.72403
 C292 C 0.73956 0.25484 0.83030
 C293 C 0.74182 0.23452 0.85087
 C294 C 0.74143 0.20843 0.84163
 C295 C 0.73876 0.20292 0.81159
 C296 C 0.73714 0.22313 0.79096
 C297 C 0.79459 0.26538 0.79787
 C298 C 0.81662 0.26415 0.81604
 C299 C 0.81978 0.28537 0.83485
 C300 C 0.80039 0.30783 0.83501
 C301 C 0.77846 0.30910 0.81672
 C302 C 0.76745 0.31572 0.73770
 C303 C 0.76241 0.33473 0.71581
 C304 C 0.73790 0.35107 0.71442
 C305 C 0.71890 0.34850 0.73611
 C306 C 0.72387 0.32925 0.75780
 H307 H 0.68377 0.26831 0.78320
 H308 H 0.65103 0.26929 0.74365
 H309 H 0.71174 0.27310 0.67896
 H310 H 0.74459 0.27062 0.71820
 H311 H 0.73919 0.27491 0.83803
 H312 H 0.74353 0.23917 0.87402
 H313 H 0.73565 0.21830 0.76782
 H314 H 0.79274 0.24896 0.78327
 H315 H 0.83141 0.24678 0.81496
 H316 H 0.80202 0.32437 0.84950
 H317 H 0.76378 0.32660 0.81722
 H318 H 0.78609 0.30272 0.73767
 H319 H 0.77737 0.33585 0.69928
 H320 H 0.70006 0.36112 0.73609
 H321 H 0.70870 0.32704 0.77374
 H322 H 0.73846 0.18288 0.80406
 C323 C 0.25609 0.74757 0.76039
 C324 C 0.27732 0.76048 0.76224
 C325 C 0.29887 0.75608 0.74030
 C326 C 0.27957 0.78057 0.78543
 C327 C 0.23515 0.75127 0.78308
 C328 C 0.25262 0.72901 0.73583
 C329 C 0.31394 0.73116 0.73645
 C330 C 0.33332 0.72711 0.71459
 C331 C 0.33783 0.74789 0.69609
 C332 C 0.32294 0.77294 0.70054
 C333 C 0.30386 0.77703 0.72262
 C334 C 0.30203 0.77826 0.80324
 C335 C 0.30501 0.79773 0.82416
 C336 C 0.28565 0.82000 0.82748
 C337 C 0.26323 0.82230 0.80944
 C338 C 0.26027 0.80283 0.78856
 C339 C 0.20968 0.76275 0.77529
 C340 C 0.18948 0.76549 0.79613
 C341 C 0.19433 0.75621 0.82489
 C342 C 0.21983 0.74457 0.83265
 C343 C 0.24019 0.74232 0.81192
 C344 C 0.25439 0.73644 0.70625
 C345 C 0.25172 0.71849 0.68353
 C346 C 0.24637 0.69309 0.68996
 C347 C 0.24360 0.68600 0.71945
 C348 C 0.24678 0.70376 0.74217
 H349 H 0.31052 0.71486 0.75020
 H350 H 0.34475 0.70770 0.71219
 H351 H 0.32547 0.78929 0.68644
 H352 H 0.29233 0.79638 0.72529
 H353 H 0.31725 0.76133 0.80095
 H354 H 0.32237 0.79527 0.83788
 H355 H 0.24317 0.80539 0.77442
 H356 H 0.20550 0.76958 0.75305
 H357 H 0.16990 0.77430 0.78964
 H358 H 0.22393 0.73730 0.85474
 H359 H 0.25974 0.73319 0.81813
 H360 H 0.25788 0.75610 0.70072
 H361 H 0.25356 0.72450 0.66091
 H362 H 0.23957 0.66648 0.72492
 H363 H 0.24506 0.69765 0.76477
 H364 H 0.24822 0.83947 0.81102
 C365 C 0.24489 0.22075 0.72834
 C366 C 0.22761 0.24357 0.72769
 C367 C 0.23077 0.26535 0.70730
 C368 C 0.20554 0.24842 0.74907
 C369 C 0.24306 0.20113 0.75168
 C370 C 0.26707 0.21520 0.70725
 C371 C 0.25399 0.27667 0.70693
 C372 C 0.25615 0.29811 0.68873
 C373 C 0.23503 0.30882 0.67081
 C374 C 0.21187 0.29732 0.67117
 C375 C 0.20973 0.27591 0.68935
 C376 C 0.20488 0.26868 0.77007
 C377 C 0.18538 0.27210 0.79178
 C378 C 0.16608 0.25539 0.79278
 C379 C 0.16635 0.23561 0.77110
 C380 C 0.18584 0.23224 0.74936
 C381 C 0.23209 0.17827 0.74552
 C382 C 0.22826 0.16089 0.76816
 C383 C 0.23600 0.16587 0.79705
 C384 C 0.24754 0.18847 0.80298
 C385 C 0.25081 0.20612 0.78050
 C386 C 0.26257 0.21400 0.67682
 C387 C 0.28374 0.20994 0.65708
 C388 C 0.30968 0.20738 0.66750
 C389 C 0.31410 0.20814 0.69798
 C390 C 0.29298 0.21175 0.71769
 H391 H 0.27022 0.26927 0.72119
 H392 H 0.27408 0.30677 0.68930
 H393 H 0.19538 0.30486 0.65733
 H394 H 0.19162 0.26754 0.68944
 H395 H 0.21996 0.28131 0.77016
 H396 H 0.18586 0.28734 0.80832
 H397 H 0.18580 0.21679 0.73298
 H398 H 0.22587 0.17430 0.72337
 H399 H 0.21948 0.14346 0.76315
 H400 H 0.25359 0.19267 0.82514
 H401 H 0.25914 0.22380 0.78556
 H402 H 0.24268 0.21647 0.66840
 H403 H 0.27988 0.20954 0.63366
 H404 H 0.33394 0.20603 0.70652
 H405 H 0.29685 0.21262 0.74108
 H406 H 0.15148 0.22275 0.77097
 C407 C 0.76364 0.77840 0.71412
 C408 C 0.78248 0.75681 0.71612
 C409 C 0.78375 0.73501 0.69436
 C410 C 0.80266 0.75430 0.73976
 C411 C 0.76392 0.80183 0.73341
 C412 C 0.74114 0.77897 0.69365
 C413 C 0.77975 0.70986 0.70340
 C414 C 0.77968 0.68958 0.68268
 C415 C 0.78422 0.69405 0.65276
 C416 C 0.78893 0.71909 0.64389
 C417 C 0.78851 0.73948 0.66453
 C418 C 0.79532 0.75880 0.76942
 C419 C 0.81441 0.75925 0.79111
 C420 C 0.84114 0.75415 0.78369
 C421 C 0.84858 0.74795 0.75445
 C422 C 0.82945 0.74815 0.73258
 C423 C 0.78578 0.81521 0.73405
 C424 C 0.78710 0.83535 0.75468
 C425 C 0.76656 0.84245 0.77505
 C426 C 0.74424 0.82963 0.77345
 C427 C 0.74286 0.80970 0.75267
 C428 C 0.73633 0.79885 0.67255
 C429 C 0.71462 0.80006 0.65392
 C430 C 0.69702 0.78164 0.65639
 C431 C 0.70201 0.76168 0.67758
 C432 C 0.72386 0.76036 0.69602
 H433 H 0.77609 0.70614 0.72637
 H434 H 0.77619 0.67036 0.68999
 H435 H 0.79236 0.72297 0.62091
 H436 H 0.79176 0.75880 0.65728
 H437 H 0.77478 0.76264 0.77567
 H438 H 0.80837 0.76370 0.81368
 H439 H 0.83556 0.74432 0.70992
 H440 H 0.80210 0.80958 0.71907
 H441 H 0.80432 0.84515 0.75487
 H442 H 0.72824 0.83425 0.78902
 H443 H 0.72587 0.79953 0.75254
 H444 H 0.74947 0.81338 0.67046
 H445 H 0.71165 0.81542 0.63754
 H446 H 0.68865 0.74748 0.68047
 H447 H 0.72703 0.74515 0.71258
 H448 H 0.86917 0.74385 0.74844
 C449 C 0.27573 0.07860 0.07715
 C450 C 0.27400 0.09960 0.09752
 C451 C 0.24940 0.10979 0.11019
 C452 C 0.22690 0.09941 0.10176
 C453 C 0.22862 0.07906 0.08103
 C454 C 0.25301 0.06814 0.06861
 C455 C 0.24756 0.13029 0.13098
 C456 C 0.26990 0.14128 0.13885
 C457 C 0.29443 0.13176 0.12560
 C458 C 0.29639 0.11076 0.10527
 C459 C 0.31651 0.14356 0.13285
 C460 C 0.31430 0.16449 0.15309
 C461 C 0.29013 0.17351 0.16679
 C462 C 0.26801 0.16183 0.15962
 H463 H 0.29467 0.07072 0.06769
 H464 H 0.20788 0.10711 0.11113
 H465 H 0.21069 0.07162 0.07512
 H466 H 0.22870 0.13784 0.14088
 H467 H 0.31524 0.10326 0.09533
 H468 H 0.33544 0.13668 0.12280
 H469 H 0.33151 0.17341 0.15843
 H470 H 0.24927 0.16906 0.16996
 C471 C 0.76020 0.57686 0.54729
 C472 C 0.76057 0.59774 0.56739
 C473 C 0.73899 0.60495 0.58662
 C474 C 0.71719 0.59161 0.58493
 C475 C 0.71687 0.57105 0.56466
 C476 C 0.73844 0.56327 0.54590
 C477 C 0.73958 0.62528 0.60732
 C478 C 0.76135 0.63872 0.60882
 C479 C 0.78265 0.63198 0.58911
 C480 C 0.78220 0.61142 0.56864
 C481 C 0.80408 0.64594 0.59022
 C482 C 0.80447 0.66630 0.61077
 C483 C 0.78364 0.67275 0.63080
 C484 C 0.76212 0.65889 0.62971
 H485 H 0.77688 0.57116 0.53279
 H486 H 0.70044 0.59696 0.59940
 H487 H 0.69989 0.56087 0.56409
 H488 H 0.72314 0.63062 0.62225
 H489 H 0.79866 0.60607 0.55373
 H490 H 0.82052 0.64113 0.57521
 H491 H 0.82123 0.67679 0.61135
 H492 H 0.74584 0.66408 0.64489
 C493 C 0.72214 0.92808 0.04967
 C494 C 0.72633 0.90509 0.06659
 C495 C 0.75216 0.89197 0.07106
 C496 C 0.77340 0.90223 0.05868
 C497 C 0.76914 0.92532 0.04212
 C498 C 0.74347 0.93855 0.03732
 C499 C 0.75634 0.86892 0.08794
 C500 C 0.73499 0.85905 0.10076
 C501 C 0.70919 0.87238 0.09646
 C502 C 0.70501 0.89518 0.07928
 C503 C 0.68793 0.86283 0.10962
 C504 C 0.69212 0.84032 0.12701
 C505 C 0.71762 0.82664 0.13134
 C506 C 0.73902 0.83618 0.11801
 H507 H 0.70220 0.93791 0.04642
 H508 H 0.79336 0.89247 0.06192
 H509 H 0.78605 0.93270 0.03297
 H510 H 0.77617 0.85882 0.09131
 H511 H 0.68519 0.90532 0.07598
 H512 H 0.66806 0.87293 0.10674
 H513 H 0.67530 0.83392 0.13753
 H514 H 0.75877 0.82578 0.12090
 C515 C 0.21937 0.43925 0.57622
 C516 C 0.21877 0.41783 0.59524
 C517 C 0.19552 0.41567 0.61112
 C518 C 0.17340 0.43494 0.60791
 C519 C 0.17402 0.45589 0.58867
 C520 C 0.19687 0.45820 0.57249
 C521 C 0.19455 0.39410 0.62960
 C522 C 0.21640 0.37436 0.63215
 C523 C 0.23971 0.37646 0.61643
 C524 C 0.24081 0.39827 0.59818
 C525 C 0.26144 0.35655 0.61903
 C526 C 0.25999 0.33465 0.63678
 C527 C 0.23680 0.33226 0.65229
 C528 C 0.21515 0.35239 0.65000
 H529 H 0.23704 0.44072 0.56372
 H530 H 0.15545 0.43361 0.61996
 H531 H 0.15647 0.47026 0.58632
 H532 H 0.17666 0.39246 0.64166
 H533 H 0.25866 0.39982 0.58601
 H534 H 0.27948 0.35779 0.60712
 H535 H 0.27689 0.31933 0.63796
 H536 H 0.19731 0.35105 0.66225
 C537 C 0.95443 0.21902 0.08590
 C538 C 0.93706 0.22217 0.11000
 C539 C 0.93245 0.24659 0.12523
 C540 C 0.94509 0.26747 0.11596
 C541 C 0.96202 0.26431 0.09170
 C542 C 0.96690 0.24010 0.07646
 C543 C 0.91508 0.24984 0.14928
 C544 C 0.90184 0.22914 0.15796
 C545 C 0.90626 0.20482 0.14256
 C546 C 0.92400 0.20140 0.11885
 C547 C 0.89261 0.18438 0.15094
 C548 C 0.87453 0.18807 0.17413
 C549 C 0.86995 0.21215 0.18973
 C550 C 0.88397 0.23254 0.18157
 H551 H 0.95789 0.20031 0.07421
 H552 H 0.94175 0.28633 0.12734
 H553 H 0.97144 0.28082 0.08495
 H554 H 0.91159 0.26857 0.16096
 H555 H 0.92740 0.18271 0.10708
 H556 H 0.89561 0.16566 0.13926
 H557 H 0.86370 0.17218 0.17941
 H558 H 0.88100 0.25110 0.19357
 C559 C 0.44099 0.74846 0.56686
 C560 C 0.42387 0.75206 0.59107
 C561 C 0.42048 0.77627 0.60672
 C562 C 0.43406 0.79657 0.59761
 C563 C 0.45091 0.79290 0.57325
 C564 C 0.45463 0.76880 0.55776
 C565 C 0.40349 0.77982 0.63109
 C566 C 0.38953 0.75961 0.63968
 C567 C 0.39274 0.73553 0.62379
 C568 C 0.41003 0.73184 0.59973
 C569 C 0.37840 0.71560 0.63206
 C570 C 0.36078 0.71956 0.65565
 C571 C 0.35739 0.74340 0.67172
 C572 C 0.37215 0.76324 0.66370
 H573 H 0.44355 0.72983 0.55499
 H574 H 0.43164 0.81528 0.60930
 H575 H 0.46123 0.80884 0.56673
 H576 H 0.40092 0.79837 0.64316
 H577 H 0.41253 0.71332 0.58760
 H578 H 0.38051 0.69708 0.62000
 H579 H 0.34936 0.70411 0.66086
 H580 H 0.37014 0.78157 0.67610
 C581 C 0.06044 0.74509 0.06877
 C582 C 0.07645 0.74492 0.09381
 C583 C 0.07731 0.72420 0.11433
 C584 C 0.06229 0.70397 0.10938
 C585 C 0.04696 0.70393 0.08405
 C586 C 0.04594 0.72439 0.06352
 C587 C 0.09359 0.72372 0.13913
 C588 C 0.10963 0.74325 0.14324
 C589 C 0.10900 0.76382 0.12256
 C590 C 0.09212 0.76474 0.09823
 C591 C 0.12569 0.78283 0.12622
 C592 C 0.14324 0.78118 0.14980
 C593 C 0.14400 0.76084 0.17041
 C594 C 0.12686 0.74214 0.16729
 H595 H 0.05996 0.76082 0.05289
 H596 H 0.06275 0.68792 0.12483
 H597 H 0.03585 0.68784 0.08050
 H598 H 0.09423 0.70781 0.15482
 H599 H 0.09167 0.78051 0.08238
 H600 H 0.12551 0.79870 0.11059
 H601 H 0.15628 0.79582 0.15199
 H602 H 0.12764 0.72624 0.18300
 C603 C 0.57351 0.25553 0.58630
 C604 C 0.59092 0.25521 0.61013
 C605 C 0.59418 0.23354 0.62955
 C606 C 0.58035 0.21240 0.62455
 C607 C 0.56356 0.21260 0.60044
 C608 C 0.55990 0.23414 0.58119
 C609 C 0.61142 0.23316 0.65346
 C610 C 0.62601 0.25383 0.65779
 C611 C 0.62319 0.27528 0.63806
 C612 C 0.60541 0.27600 0.61459
 C613 C 0.63852 0.29546 0.64191
 C614 C 0.65666 0.29427 0.66489
 C615 C 0.65935 0.27320 0.68471
 C616 C 0.64380 0.25315 0.68125
 H617 H 0.57097 0.27212 0.57140
 H618 H 0.58267 0.19561 0.63914
 H619 H 0.55316 0.19597 0.59702
 H620 H 0.61379 0.21658 0.66840
 H621 H 0.60315 0.29250 0.59955
 H622 H 0.63671 0.31198 0.62695
 H623 H 0.66855 0.30989 0.66735
 H624 H 0.64611 0.23671 0.69637
 C625 C 0.73861 0.08361 0.94132
 C626 C 0.73492 0.10570 0.92293
 C627 C 0.71192 0.11085 0.90563
 C628 C 0.69261 0.09436 0.90782
 C629 C 0.69622 0.07270 0.92660
 C630 C 0.71938 0.06692 0.94313
 C631 C 0.70866 0.13228 0.88632
 C632 C 0.72791 0.14888 0.88444
 C633 C 0.75045 0.14430 0.90255
 C634 C 0.75392 0.12262 0.92149
 C635 C 0.76925 0.16144 0.90124
 C636 C 0.76596 0.18269 0.88187
 C637 C 0.74406 0.18686 0.86320
 C638 C 0.72503 0.16997 0.86465
 H639 H 0.75640 0.07943 0.95427
 H640 H 0.67480 0.09812 0.89488
 H641 H 0.68118 0.06006 0.92764
 H642 H 0.69121 0.13599 0.87272
 H643 H 0.77140 0.11887 0.93503
 H644 H 0.78655 0.15833 0.91508
 H645 H 0.78081 0.19555 0.88093
 H646 H 0.70797 0.17336 0.85043
 C647 C 0.21234 0.58335 0.44720
 C648 C 0.21063 0.60236 0.42490
 C649 C 0.18819 0.60641 0.40659
 C650 C 0.16765 0.59181 0.41126
 C651 C 0.16926 0.57339 0.43387
 C652 C 0.19162 0.56886 0.45189
 C653 C 0.18651 0.62509 0.38405
 C654 C 0.20670 0.64028 0.37999
 C655 C 0.22886 0.63672 0.39873
 C656 C 0.23083 0.61757 0.42083
 C657 C 0.24859 0.65258 0.39518
 C658 C 0.24633 0.67184 0.37338
 C659 C 0.22459 0.67520 0.35443
 C660 C 0.20490 0.65925 0.35770
 H661 H 0.22956 0.58014 0.46118
 H662 H 0.15028 0.59472 0.39752
 H663 H 0.15310 0.56236 0.43699
 H664 H 0.16938 0.62802 0.36991
 H665 H 0.24792 0.61472 0.43505
 H666 H 0.26565 0.65022 0.40940
 H667 H 0.26170 0.68398 0.37106
 H668 H 0.18795 0.66204 0.34327
 C669 C 0.27658 0.93610 0.94488
 C670 C 0.27462 0.91488 0.92553
 C671 C 0.25003 0.90615 0.92151
 C672 C 0.22795 0.91855 0.93684
 C673 C 0.22998 0.93966 0.95571
 C674 C 0.25418 0.94879 0.95988
 C675 C 0.24774 0.88535 0.90200
 C676 C 0.26963 0.87323 0.88609
 C677 C 0.29429 0.88174 0.89005
 C678 C 0.29667 0.90246 0.90985
 C679 C 0.31606 0.86950 0.87389
 C680 C 0.31334 0.84929 0.85377
 C681 C 0.28881 0.84089 0.84948
 C682 C 0.26710 0.85287 0.86601
 H683 H 0.29533 0.94297 0.94786
 H684 H 0.20900 0.91206 0.93404
 H685 H 0.21243 0.94888 0.96708
 H686 H 0.22882 0.87881 0.89894
 H687 H 0.31556 0.90906 0.91281
 H688 H 0.33513 0.87574 0.87657
 H689 H 0.33034 0.84058 0.84112
 H690 H 0.24818 0.84629 0.86329
 C691 C 0.76237 0.42422 0.43185
 C692 C 0.76244 0.40067 0.41581
 C693 C 0.73882 0.38999 0.41244
 C694 C 0.71553 0.40313 0.42493
 C695 C 0.71561 0.42654 0.44077
 C696 C 0.73898 0.43730 0.44453
 C697 C 0.73882 0.36637 0.39667
 C698 C 0.76212 0.35335 0.38397
 C699 C 0.78571 0.36408 0.38717
 C700 C 0.78576 0.38761 0.40315
 C701 C 0.80887 0.35116 0.37417
 C702 C 0.80864 0.32795 0.35793
 C703 C 0.78531 0.31701 0.35457
 C704 C 0.76212 0.32984 0.36793
 H705 H 0.78054 0.43227 0.43455
 H706 H 0.69725 0.39525 0.42252
 H707 H 0.69731 0.43613 0.45031
 H708 H 0.72068 0.35820 0.39415
 H709 H 0.80389 0.39579 0.40564
 H710 H 0.82711 0.35916 0.37626
 H711 H 0.82671 0.31885 0.34748
 H712 H 0.74405 0.32151 0.36594
 C713 C 0.06802 0.24669 0.92552
 C714 C 0.08549 0.24403 0.90153
 C715 C 0.09669 0.21863 0.89161
 C716 C 0.09002 0.19634 0.90568
 C717 C 0.07257 0.19911 0.92950
 C718 C 0.06142 0.22429 0.93989
 C719 C 0.11444 0.21593 0.86791
 C720 C 0.12114 0.23833 0.85397
 C721 C 0.10976 0.26374 0.86375
 C722 C 0.09200 0.26643 0.88743
 C723 C 0.11649 0.28607 0.84979
 C724 C 0.13453 0.28332 0.82655
 C725 C 0.14619 0.25819 0.81679
 C726 C 0.13924 0.23574 0.83057
 H727 H 0.05968 0.26630 0.93299
 H728 H 0.09838 0.17671 0.89833
 H729 H 0.06799 0.18140 0.93988
 H730 H 0.12313 0.19643 0.86041
 H731 H 0.08338 0.28593 0.89499
 H732 H 0.10787 0.30568 0.85691
 H733 H 0.13929 0.30091 0.81608
 H734 H 0.14836 0.21626 0.82353
 C735 C 0.56060 0.76361 0.40709
 C736 C 0.57907 0.75835 0.38421
 C737 C 0.59094 0.73210 0.37847
 C738 C 0.58385 0.71155 0.39534
 C739 C 0.56531 0.71690 0.41786
 C740 C 0.55365 0.74294 0.42411
 C741 C 0.60979 0.72680 0.35607
 C742 C 0.61682 0.74739 0.33914
 C743 C 0.60466 0.77358 0.34450
 C744 C 0.58590 0.77892 0.36704
 C745 C 0.61158 0.79404 0.32730
 C746 C 0.63061 0.78865 0.30523
 C747 C 0.64317 0.76273 0.30002
 C748 C 0.63601 0.74216 0.31706
 H749 H 0.55163 0.78374 0.41159
 H750 H 0.59270 0.69132 0.39119
 H751 H 0.56035 0.70062 0.43067
 H752 H 0.61903 0.70668 0.35187
 H753 H 0.57671 0.79904 0.37129
 H754 H 0.60234 0.81421 0.33094
 H755 H 0.63541 0.80481 0.29211
 H756 H 0.64578 0.72214 0.31361
 C757 C 0.94929 0.74086 0.90770
 C758 C 0.93216 0.73930 0.88395
 C759 C 0.93058 0.71461 0.87058
 C760 C 0.94594 0.69188 0.88140
 C761 C 0.96227 0.69343 0.90568
 C762 C 0.96414 0.71790 0.91924
 C763 C 0.91325 0.71295 0.84706
 C764 C 0.89678 0.73553 0.83743
 C765 C 0.89801 0.76017 0.85120
 C766 C 0.91601 0.76197 0.87399
 C767 C 0.88080 0.78253 0.84233
 C768 C 0.86229 0.78045 0.82034
 C769 C 0.86113 0.75615 0.80641
 C770 C 0.87860 0.73378 0.81474
 H771 H 0.95021 0.75990 0.91787
 H772 H 0.94493 0.67278 0.87146
 H773 H 0.97345 0.67536 0.91380
 H774 H 0.91211 0.69400 0.83676
 H775 H 0.91696 0.78088 0.88448
 H776 H 0.88138 0.80152 0.85272
 H777 H 0.84888 0.79783 0.81404
 H778 H 0.87747 0.71498 0.80412
 C779 C 0.44075 0.25113 0.44392
 C780 C 0.42317 0.24951 0.42057
 C781 C 0.42749 0.22787 0.40074
 C782 C 0.44901 0.20805 0.40482
 C783 C 0.46605 0.20952 0.42842
 C784 C 0.46215 0.23104 0.44809
 C785 C 0.41013 0.22621 0.37730
 C786 C 0.38816 0.24563 0.37373
 C787 C 0.38350 0.26703 0.39385
 C788 C 0.40118 0.26898 0.41697
 C789 C 0.36110 0.28603 0.39058
 C790 C 0.34348 0.28383 0.36763
 C791 C 0.34818 0.26282 0.34736
 C792 C 0.37061 0.24382 0.35048
 H793 H 0.43748 0.26767 0.45917
 H794 H 0.45257 0.19131 0.38988
 H795 H 0.48247 0.19387 0.43115
 H796 H 0.41357 0.20968 0.36203
 H797 H 0.39768 0.28546 0.43231
 H798 H 0.35716 0.30253 0.40581
 H799 H 0.32634 0.29876 0.36543
 H800 H 0.37414 0.22741 0.33506
 C801 C 0.75228 0.94533 0.90698
 C802 C 0.75114 0.92938 0.88185
 C803 C 0.72674 0.92864 0.86782
 C804 C 0.70394 0.94378 0.87913
 C805 C 0.70517 0.95920 0.90439
 C806 C 0.72926 0.96009 0.91861
 C807 C 0.72539 0.91245 0.84303
 C808 C 0.74802 0.89645 0.83247
 C809 C 0.77242 0.89708 0.84649
 C810 C 0.77389 0.91376 0.87090
 C811 C 0.79484 0.88060 0.83620
 C812 C 0.79302 0.86322 0.81270
 C813 C 0.76879 0.86223 0.79872
 C814 C 0.74645 0.87933 0.80850
 H815 H 0.77094 0.94575 0.91787
 H816 H 0.68509 0.94344 0.86865
 H817 H 0.68718 0.97049 0.91280
 H818 H 0.70664 0.91187 0.83236
 H819 H 0.79260 0.91418 0.88171
 H820 H 0.81369 0.88072 0.84675
 H821 H 0.81049 0.85001 0.80605
 H822 H 0.72772 0.87916 0.79769
 C823 C 0.22001 0.44738 0.43995
 C824 C 0.22075 0.42965 0.41620
 C825 C 0.19722 0.42628 0.40165
 C826 C 0.17329 0.44046 0.41144
 C827 C 0.17270 0.45802 0.43523
 C828 C 0.19605 0.46180 0.44957
 C829 C 0.19801 0.40884 0.37757
 C830 C 0.22203 0.39457 0.36807
 C831 C 0.24549 0.39777 0.38290
 C832 C 0.24472 0.41535 0.40677
 C833 C 0.26938 0.38322 0.37370
 C834 C 0.27008 0.36553 0.35011
 C835 C 0.24696 0.36224 0.33496
 C836 C 0.22296 0.37701 0.34407
 H837 H 0.23817 0.45000 0.45087
 H838 H 0.15504 0.43807 0.40061
 H839 H 0.15400 0.46891 0.44215
 H840 H 0.17997 0.40632 0.36632
 H841 H 0.26277 0.41786 0.41804
 H842 H 0.28751 0.38529 0.38497
 H843 H 0.28875 0.35403 0.34412
 H844 H 0.20499 0.37493 0.33247
 C845 C 0.24251 0.06765 0.93111
 C846 C 0.24517 0.08469 0.90745
 C847 C 0.27036 0.09040 0.89978
 C848 C 0.29245 0.07861 0.91516
 C849 C 0.28979 0.06135 0.93806
 C850 C 0.26486 0.05575 0.94664
 C851 C 0.27322 0.10774 0.87676
 C852 C 0.25130 0.11912 0.86073
 C853 C 0.22612 0.11296 0.86765
 C854 C 0.22315 0.09599 0.89120
 C855 C 0.20440 0.12388 0.85079
 C856 C 0.20764 0.14078 0.82744
 C857 C 0.23253 0.14737 0.82098
 C858 C 0.25427 0.13648 0.83771
 H859 H 0.22316 0.06349 0.93711
 H860 H 0.31189 0.08268 0.90942
 H861 H 0.30749 0.05269 0.94935
 H862 H 0.29256 0.11224 0.87119
 H863 H 0.20382 0.09147 0.89672
 H864 H 0.18496 0.11933 0.85562
 H865 H 0.19066 0.14911 0.81474
 H866 H 0.27355 0.14135 0.83254
 C867 C 0.74732 0.56326 0.41684
 C868 C 0.74365 0.58096 0.39335
 C869 C 0.72000 0.58371 0.37710
 C870 C 0.70022 0.56901 0.38511
 C871 C 0.70384 0.55178 0.40898
 C872 C 0.72747 0.54861 0.42488
 C873 C 0.71651 0.60117 0.35329
 C874 C 0.73618 0.61626 0.34592
 C875 C 0.75954 0.61390 0.36270
 C876 C 0.76322 0.59611 0.38610
 C877 C 0.77888 0.62944 0.35587
 C878 C 0.77521 0.64714 0.33255
 C879 C 0.75232 0.64934 0.31542
 C880 C 0.73285 0.63380 0.32216
 H881 H 0.76549 0.56123 0.42923
 H882 H 0.68191 0.57095 0.37301
 H883 H 0.68827 0.54070 0.41481
 H884 H 0.69846 0.60315 0.34065
 H885 H 0.78124 0.59418 0.39878
 H886 H 0.79685 0.62792 0.36856
 H887 H 0.79048 0.65884 0.32753
 H888 H 0.71505 0.63564 0.30913
 C889 C 0.07709 0.74093 0.93234
 C890 C 0.09983 0.73968 0.91502
 C891 C 0.11581 0.71515 0.90999
 C892 C 0.10867 0.69227 0.92230
 C893 C 0.08576 0.69359 0.93918
 C894 C 0.06962 0.71791 0.94441
 C895 C 0.13843 0.71385 0.89240
 C896 C 0.14492 0.73671 0.87925
 C897 C 0.12877 0.76121 0.88414
 C898 C 0.10653 0.76258 0.90226
 C899 C 0.13485 0.78390 0.87034
 C900 C 0.15640 0.78227 0.85136
 C901 C 0.17252 0.75806 0.84633
 C902 C 0.16693 0.73538 0.86068
 H903 H 0.06501 0.75990 0.93594
 H904 H 0.12067 0.67329 0.91864
 H905 H 0.08074 0.67548 0.94814
 H906 H 0.15069 0.69502 0.88850
 H907 H 0.09417 0.78139 0.90598
 H908 H 0.12266 0.80281 0.87381
 H909 H 0.16051 0.79993 0.84048
 H910 H 0.17917 0.71659 0.85653
 C911 C 0.58904 0.21685 0.45287
 C912 C 0.60879 0.21884 0.43187
 C913 C 0.60689 0.24135 0.41374
 C914 C 0.58562 0.26162 0.41720
 C915 C 0.56640 0.25972 0.43843
 C916 C 0.56778 0.23735 0.45636
 C917 C 0.62627 0.24334 0.39249
 C918 C 0.64786 0.22332 0.38938
 C919 C 0.65015 0.20105 0.40788
 C920 C 0.63049 0.19884 0.42884
 C921 C 0.67212 0.18139 0.40509
 C922 C 0.69155 0.18370 0.38411
 C923 C 0.68921 0.20554 0.36530
 C924 C 0.66727 0.22530 0.36809
 H925 H 0.59040 0.19960 0.46674
 H926 H 0.58390 0.27902 0.40356
 H927 H 0.55018 0.27573 0.44057
 H928 H 0.62463 0.26053 0.37849
 H929 H 0.63216 0.18166 0.44288
 H930 H 0.67427 0.16421 0.41911
 H931 H 0.70823 0.16817 0.38219
 H932 H 0.66549 0.24236 0.35389
 C933 C 0.94229 0.25723 0.94112
 C934 C 0.92031 0.25811 0.92274
 C935 C 0.90866 0.23513 0.91823
 C936 C 0.91938 0.21161 0.93200
 C937 C 0.94138 0.21085 0.95013
 C938 C 0.95300 0.23364 0.95498
 C939 C 0.88652 0.23604 0.90007
 C940 C 0.87599 0.25961 0.88620
 C941 C 0.88780 0.28252 0.89053
 C942 C 0.90982 0.28164 0.90882
 C943 C 0.87738 0.30596 0.87648
 C944 C 0.85540 0.30679 0.85835
 C945 C 0.84330 0.28424 0.85401
 C946 C 0.85379 0.26065 0.86807
 H947 H 0.95110 0.27493 0.94455
 H948 H 0.91074 0.19380 0.92876
 H949 H 0.94920 0.19243 0.96055
 H950 H 0.87753 0.21843 0.89670
 H951 H 0.91880 0.29926 0.91220
 H952 H 0.88627 0.32366 0.87943
 H953 H 0.84806 0.32508 0.84741
 H954 H 0.84450 0.24319 0.86523
 C955 C 0.42902 0.74943 0.42758
 C956 C 0.40793 0.75430 0.40772
 C957 C 0.40219 0.77927 0.39425
 C958 C 0.41746 0.79892 0.40089
 C959 C 0.43819 0.79401 0.42077
 C960 C 0.44424 0.76929 0.43432
 C961 C 0.38123 0.78430 0.37443
 C962 C 0.36570 0.76477 0.36802
 C963 C 0.37128 0.73983 0.38151
 C964 C 0.39241 0.73471 0.40121
 C965 C 0.35554 0.72046 0.37513
 C966 C 0.33445 0.72575 0.35563
 C967 C 0.32874 0.75049 0.34203
 C968 C 0.34459 0.76988 0.34834
 H969 H 0.43341 0.73031 0.43793
 H970 H 0.41332 0.81815 0.39078
 H971 H 0.44959 0.80967 0.42544
 H972 H 0.37691 0.80346 0.36413
 H973 H 0.39670 0.71556 0.41154
 H974 H 0.35943 0.70125 0.38534
 H975 H 0.32235 0.71058 0.35153
 H976 H 0.34068 0.78890 0.33772
 C977 C 0.23898 0.94874 0.08766
 C978 C 0.24067 0.93034 0.11067
 C979 C 0.26445 0.92425 0.12648
 C980 C 0.28601 0.93664 0.11924
 C981 C 0.28431 0.95452 0.09616
 C982 C 0.26094 0.96065 0.08000
 C983 C 0.26655 0.90554 0.14897
 C984 C 0.24535 0.89239 0.15563
 C985 C 0.22149 0.89843 0.14002
 C986 C 0.21922 0.91752 0.11776
 C987 C 0.20046 0.88496 0.14668
 C988 C 0.20321 0.86538 0.16819
 C989 C 0.22699 0.85901 0.18358
 C990 C 0.24786 0.87292 0.17736
 H991 H 0.22090 0.95324 0.07528
 H992 H 0.30434 0.93223 0.13117
 H993 H 0.30145 0.96354 0.09090
 H994 H 0.28487 0.90086 0.16093
 H995 H 0.20097 0.92207 0.10568
 H996 H 0.18203 0.88926 0.13493
 H997 H 0.18691 0.85478 0.17228
 H998 H 0.26616 0.86852 0.18937
 C999 C 0.73141 0.44585 0.57722
 C1000 C 0.73619 0.43037 0.60255
 C1001 C 0.76160 0.42642 0.61510
 C1002 C 0.78181 0.43778 0.60199
 C1003 C 0.77698 0.45286 0.57661
 C1004 C 0.75178 0.45710 0.56401
 C1005 C 0.76649 0.41098 0.64036
 C1006 C 0.74644 0.39897 0.65295
 C1007 C 0.72109 0.40272 0.64031
 C1008 C 0.71605 0.41859 0.61534
 C1009 C 0.70129 0.39019 0.65263
 C1010 C 0.70667 0.37374 0.67691
 C1011 C 0.73185 0.36978 0.68966
 C1012 C 0.75153 0.38286 0.67769
 H1013 H 0.71192 0.44888 0.56763
 H1014 H 0.80140 0.43491 0.61129
 H1015 H 0.79299 0.46140 0.56697
 H1016 H 0.78599 0.40798 0.64995
 H1017 H 0.69658 0.42147 0.60567
 H1018 H 0.68178 0.39270 0.64314
 H1019 H 0.69123 0.36357 0.68522
 H1020 H 0.77092 0.38037 0.68749
 C1021 C 0.75183 0.06022 0.06932
 C1022 C 0.75143 0.07609 0.09472
 C1023 C 0.73075 0.07655 0.11538
 C1024 C 0.71070 0.06141 0.11011
 C1025 C 0.71096 0.04612 0.08450
 C1026 C 0.73150 0.04533 0.06393
 C1027 C 0.73026 0.09237 0.14077
 C1028 C 0.74985 0.10822 0.14547
 C1029 C 0.77031 0.10807 0.12458
 C1030 C 0.77113 0.09179 0.09953
 C1031 C 0.78945 0.12449 0.12894
 C1032 C 0.78822 0.14108 0.15359
 C1033 C 0.76810 0.14122 0.17454
 C1034 C 0.74908 0.12456 0.17051
 H1035 H 0.76763 0.05993 0.05345
 H1036 H 0.69467 0.06158 0.12566
 H1037 H 0.69513 0.03474 0.08088
 H1038 H 0.71444 0.09264 0.15664
 H1039 H 0.78687 0.09163 0.08358
 H1040 H 0.80523 0.12468 0.11315
 H1041 H 0.80313 0.15371 0.15647
 H1042 H 0.73337 0.12483 0.18650
 C1043 C 0.21839 0.58279 0.57692
 C1044 C 0.21932 0.60234 0.59851
 C1045 C 0.19852 0.60799 0.61905
 C1046 C 0.17683 0.59444 0.61710
 C1047 C 0.17583 0.57534 0.59513
 C1048 C 0.19670 0.56915 0.57510
 C1049 C 0.19977 0.62706 0.64116
 C1050 C 0.22136 0.64083 0.64266
 C1051 C 0.24177 0.63567 0.62154
 C1052 C 0.24072 0.61633 0.59977
 C1053 C 0.26296 0.64993 0.62259
 C1054 C 0.26413 0.66894 0.64453
 C1055 C 0.24431 0.67377 0.66602
 C1056 C 0.22290 0.65968 0.66493
 H1057 H 0.23444 0.57839 0.56131
 H1058 H 0.16064 0.59861 0.63255
 H1059 H 0.15893 0.56507 0.59412
 H1060 H 0.18397 0.63119 0.65713
 H1061 H 0.25653 0.61218 0.58380
 H1062 H 0.27870 0.64630 0.60651
 H1063 H 0.28083 0.67951 0.64514
 H1064 H 0.20742 0.66356 0.68131
 C1065 C 0.93247 0.70654 0.05135
 C1066 C 0.90876 0.70901 0.06720
 C1067 C 0.89094 0.73282 0.06597
 C1068 C 0.89722 0.75379 0.04916
 C1069 C 0.92104 0.75135 0.03393
 C1070 C 0.93886 0.72776 0.03483
 C1071 C 0.86733 0.73548 0.08190
 C1072 C 0.86159 0.71489 0.09972
 C1073 C 0.87952 0.69117 0.10126
 C1074 C 0.90281 0.68824 0.08467
 C1075 C 0.87411 0.67099 0.11992
 C1076 C 0.85147 0.67453 0.13741
 C1077 C 0.83362 0.69801 0.13597
 C1078 C 0.83854 0.71797 0.11674
 H1079 H 0.94616 0.68831 0.05233
 H1080 H 0.88382 0.77219 0.04801
 H1081 H 0.92542 0.76793 0.02120
 H1082 H 0.85369 0.75375 0.08092
 H1083 H 0.91655 0.67005 0.08585
 H1084 H 0.88764 0.65272 0.12146
 H1085 H 0.84791 0.65900 0.15223
 H1086 H 0.82492 0.73626 0.11595
 C1087 C 0.43610 0.21452 0.57019
 C1088 C 0.41497 0.21589 0.59015
 C1089 C 0.41197 0.23548 0.61254
 C1090 C 0.42978 0.25356 0.61434
 C1091 C 0.45019 0.25255 0.59394
 C1092 C 0.45359 0.23308 0.57179
 C1093 C 0.39101 0.23701 0.63252
 C1094 C 0.37251 0.21968 0.63003
 C1095 C 0.37507 0.20042 0.60733
 C1096 C 0.39648 0.19842 0.58775
 C1097 C 0.35596 0.18370 0.60446
 C1098 C 0.33455 0.18608 0.62385
 C1099 C 0.33214 0.20489 0.64672
 C1100 C 0.35126 0.22158 0.64971
 H1101 H 0.43846 0.19964 0.55290
 H1102 H 0.42771 0.26873 0.63129
 H1103 H 0.46351 0.26697 0.59558
 H1104 H 0.38888 0.25197 0.64975
 H1105 H 0.39852 0.18357 0.57042
 H1106 H 0.35750 0.16890 0.58714
 H1107 H 0.32001 0.17301 0.62125
 H1108 H 0.34928 0.23640 0.66707
 C1109 C 0.08242 0.25445 0.07112
 C1110 C 0.10379 0.25430 0.09028
 C1111 C 0.11864 0.23005 0.09863
 C1112 C 0.11176 0.20637 0.08773
 C1113 C 0.09031 0.20668 0.06884
 C1114 C 0.07544 0.23068 0.06034
 C1115 C 0.13997 0.22988 0.11787
 C1116 C 0.14643 0.25364 0.12913
 C1117 C 0.13149 0.27786 0.12084
 C1118 C 0.11037 0.27805 0.10136
 C1119 C 0.13779 0.30153 0.13236
 C1120 C 0.15856 0.30127 0.15214
 C1121 C 0.17361 0.27734 0.16062
 C1122 C 0.16747 0.25356 0.14879
 H1123 H 0.07108 0.27310 0.06486
 H1124 H 0.12290 0.18760 0.09391
 H1125 H 0.08539 0.18809 0.06082
 H1126 H 0.15136 0.21127 0.12427
 H1127 H 0.09893 0.29665 0.09502
 H1128 H 0.12647 0.32026 0.12635
 H1129 H 0.16250 0.31984 0.16125
 H1130 H 0.17909 0.23498 0.15478
 C1131 C 0.57366 0.77092 0.55566
 C1132 C 0.59592 0.76843 0.57372
 C1133 C 0.60910 0.74312 0.58089
 C1134 C 0.59943 0.72070 0.57015
 C1135 C 0.57712 0.72336 0.55220
 C1136 C 0.56415 0.74847 0.54459
 C1137 C 0.63172 0.74069 0.59855
 C1138 C 0.64117 0.76330 0.60920
 C1139 C 0.62770 0.78857 0.60222
 C1140 C 0.60523 0.79097 0.58451
 C1141 C 0.63691 0.81111 0.61307
 C1142 C 0.65932 0.80874 0.63064
 C1143 C 0.67317 0.78380 0.63756
 C1144 C 0.66388 0.76109 0.62671
 H1145 H 0.56380 0.79044 0.55013
 H1146 H 0.60922 0.70112 0.57548
 H1147 H 0.57023 0.70575 0.54394
 H1148 H 0.64194 0.72128 0.60395
 H1149 H 0.59503 0.81039 0.57906
 H1150 H 0.62669 0.83060 0.60810
 H1151 H 0.66560 0.82655 0.63917
 H1152 H 0.67445 0.74172 0.63158
   
