data_POSCAR
  _audit_creation_date              2014-09-24
  _audit_creation_method            'ToBaCCo'
  _symmetry_space_group_name_H-M    'P1'
  _symmetry_Int_Tables_number       1
  _symmetry_cell_setting            triclinic
  loop_
  _symmetry_equiv_pos_as_xyz
 x,y,z
_cell_length_a 17.1571
_cell_length_b 17.1347
_cell_length_c 17.0844
_cell_angle_alpha 90.039200
_cell_angle_beta 90.138000
_cell_angle_gamma 90.274900
loop_
  _atom_site_label
  _atom_site_type_symbol
  _atom_site_fract_x
  _atom_site_fract_y
  _atom_site_fract_z
O1 O 0.59333 0.20219 0.03393
 O2 O 0.68820 0.10809 0.03189
 C3 C 0.66532 0.18003 0.03795
 O4 O 0.37518 -0.03010 0.18687
 O5 O 0.29748 -0.02438 0.07750
 C6 C 0.30744 -0.03116 0.15249
 O7 O 0.59039 -0.00190 0.20942
 O8 O 0.68694 0.00487 0.11693
 C9 C 0.66317 0.00247 0.18917
 O10 O 0.37758 0.18542 0.00235
 O11 O 0.29827 0.07766 -0.00879
 C12 C 0.30947 0.15241 -0.00499
 Zr13 Zr 0.49002 0.13712 0.01663
 O14 O 0.46848 0.20944 0.11479
 O15 O 0.49181 0.23877 -0.05343
 Zr16 Zr 0.48867 -0.01500 0.14087
 O17 O 0.47131 0.05244 0.24299
 O18 O 0.49244 -0.11751 0.20942
 O19 O 0.55697 0.07606 0.09733
 O20 O 0.42005 0.06542 0.08316
 O21 O 0.41039 0.01570 -0.20268
 O22 O 0.31487 -0.00243 -0.11055
 C23 C 0.33819 0.00860 -0.18201
 O24 O 0.62522 -0.18589 -0.00917
 O25 O 0.70404 -0.07918 0.01210
 C26 C 0.69313 -0.15341 0.00061
 O27 O 0.40896 -0.20479 -0.01921
 O28 O 0.31427 -0.11050 -0.02129
 C29 C 0.33696 -0.18276 -0.02295
 O30 O 0.62569 0.02085 -0.18269
 O31 O 0.70380 0.01975 -0.07365
 C32 C 0.69348 0.02237 -0.14895
 Zr33 Zr 0.51292 0.01290 -0.13488
 O34 O 0.51830 -0.06616 -0.23004
 O35 O 0.52184 0.10873 -0.21262
 Zr36 Zr 0.51195 -0.13839 -0.00954
 O37 O 0.51757 -0.21648 -0.10549
 O38 O 0.51919 -0.23288 0.06987
 Zr39 Zr 0.61739 0.00808 0.01421
 Zr40 Zr 0.38465 -0.00923 -0.00838
 O41 O 0.44625 -0.07700 -0.08992
 O42 O 0.58355 -0.06741 -0.07747
 O43 O 0.43269 0.08211 -0.07598
 O44 O 0.56832 -0.08246 0.08159
 O45 O 0.56918 0.09132 -0.06213
 O46 O 0.43054 -0.09355 0.06866
 H47 H 0.37990 0.09242 0.11459
 H48 H 0.60302 -0.11497 0.11447
 H49 H 0.41647 -0.10864 -0.12838
 H50 H 0.60459 0.12872 -0.08852
 H51 H 0.48697 -0.10027 0.26448
 H52 H 0.47640 -0.22680 0.10809
 H53 H 0.56471 -0.20323 -0.13602
 H54 H 0.56324 -0.10095 -0.22098
 H55 H 0.47498 0.14139 -0.20530
 H56 H 0.50988 0.22312 -0.10592
 H57 H 0.51392 0.20557 0.15037
 H58 H 0.46078 0.10632 0.22567
 O59 O -0.03135 0.59044 -0.20613
 O60 O -0.02765 0.68593 -0.11180
 C61 C -0.03472 0.66278 -0.18382
 O62 O -0.18359 0.37310 0.02865
 O63 O -0.07538 0.29517 0.02213
 C64 C -0.14986 0.30536 0.03000
 O65 O -0.20505 0.58788 0.00056
 O66 O -0.11235 0.68460 -0.00787
 C67 C -0.18409 0.66051 -0.00465
 O68 O -0.00119 0.37402 -0.18987
 O69 O 0.01043 0.29550 -0.08199
 C70 C 0.00590 0.30580 -0.15706
 Zr71 Zr -0.01409 0.48680 -0.14104
 O72 O -0.11207 0.46490 -0.21364
 O73 O 0.05636 0.48591 -0.24256
 Zr74 Zr -0.13707 0.48621 0.01224
 O75 O -0.23888 0.46825 -0.05555
 O76 O -0.20491 0.49033 0.11521
 O77 O -0.09415 0.55394 -0.07961
 O78 O -0.08032 0.41699 -0.06858
 O79 O 0.20486 0.40922 -0.01737
 O80 O 0.11311 0.31306 0.00120
 C81 C 0.18437 0.33690 -0.00940
 O82 O 0.01318 0.62383 0.18354
 O83 O -0.00653 0.70193 0.07640
 C84 C 0.00408 0.69153 0.15088
 O85 O 0.02318 0.40810 0.20179
 O86 O 0.02359 0.31238 0.10758
 C87 C 0.02580 0.33578 0.17996
 O88 O 0.18474 0.62458 -0.02069
 O89 O 0.07636 0.70222 -0.02332
 C90 C 0.15126 0.69229 -0.02372
 Zr91 Zr 0.13703 0.51118 -0.01782
 O92 O 0.23871 0.52210 0.05147
 O93 O 0.20797 0.51835 -0.11893
 Zr94 Zr 0.01366 0.51072 0.13501
 O95 O 0.10973 0.51815 0.21283
 O96 O -0.06473 0.51791 0.23023
 Zr97 Zr -0.01094 0.61539 -0.01182
 Zr98 Zr 0.01101 0.38205 0.00595
 O99 O 0.09292 0.44495 0.07314
 O100 O 0.08091 0.58191 0.06332
 O101 O 0.07788 0.42959 -0.08616
 O102 O -0.07731 0.56656 0.07946
 O103 O 0.06454 0.56719 -0.09568
 O104 O -0.06485 0.42873 0.09068
 H105 H -0.11203 0.37646 -0.09530
 H106 H -0.10970 0.60124 0.11237
 H107 H 0.13113 0.41588 0.10531
 H108 H 0.09081 0.60327 -0.13254
 H109 H -0.25986 0.48472 0.09811
 H110 H -0.10328 0.47520 0.22401
 H111 H 0.13929 0.56619 0.19995
 H112 H 0.22176 0.52193 0.10662
 H113 H 0.20262 0.46845 -0.14774
 H114 H 0.10313 0.51796 -0.23171
 H115 H -0.14747 0.51015 -0.20926
 H116 H -0.22175 0.45645 -0.10936
 O117 O 0.20221 -0.02731 0.40936
 O118 O 0.10873 -0.02622 0.31292
 C119 C 0.18054 -0.03181 0.33683
 O120 O -0.03077 -0.18388 0.62491
 O121 O -0.02526 -0.07543 0.70363
 C122 C -0.03217 -0.15030 0.69298
 O123 O -0.00400 -0.20517 0.40987
 O124 O 0.00736 -0.11269 0.31324
 C125 C 0.00316 -0.18443 0.33726
 O126 O 0.18526 0.00320 0.62464
 O127 O 0.07789 0.01381 0.70372
 C128 C 0.15257 0.01010 0.69284
 Zr129 Zr 0.13637 -0.01114 0.51205
 O130 O 0.20772 -0.10914 0.53540
 O131 O 0.23756 0.05987 0.51211
 Zr132 Zr -0.01410 -0.13697 0.51219
 O133 O 0.06148 -0.23133 0.53605
 O134 O -0.10991 -0.21493 0.50302
 O135 O 0.07637 -0.09249 0.44411
 O136 O 0.06516 -0.07820 0.58198
 O137 O 0.01027 0.20643 0.58944
 O138 O -0.00333 0.11491 0.68662
 C139 C 0.00484 0.18654 0.66231
 O140 O -0.18736 0.00987 0.37422
 O141 O -0.08054 -0.00752 0.29582
 C142 C -0.15498 0.00171 0.30605
 O143 O -0.20479 0.02121 0.59149
 O144 O -0.11068 0.02419 0.68726
 C145 C -0.18281 0.02499 0.66408
 O146 O 0.01616 0.18502 0.37350
 O147 O 0.01915 0.07606 0.29567
 C148 C 0.01978 0.15107 0.30565
 Zr149 Zr 0.01226 0.13794 0.48732
 O150 O -0.05814 0.23805 0.47422
 O151 O 0.11186 0.21125 0.48099
 Zr152 Zr -0.13869 0.01179 0.48789
 O153 O -0.21703 0.10664 0.48017
 O154 O -0.23275 -0.06825 0.47960
 Zr155 Zr 0.00775 -0.01076 0.38274
 Zr156 Zr -0.01001 0.01207 0.61702
 O157 O -0.07776 0.09258 0.55391
 O158 O -0.06803 0.07999 0.41636
 O159 O 0.08094 0.08037 0.56922
 O160 O -0.08226 -0.07854 0.43193
 O161 O 0.09050 0.06640 0.43143
 O162 O -0.09349 -0.06583 0.56992
 H163 H 0.09208 -0.10949 0.62252
 H164 H -0.11461 -0.11163 0.39692
 H165 H -0.10990 0.13032 0.58344
 H166 H 0.12739 0.09320 0.39581
 H167 H -0.14599 -0.20353 0.54659
 H168 H -0.23017 -0.10294 0.52576
 H169 H -0.20321 0.13705 0.43291
 H170 H -0.11260 0.22156 0.48312
 H171 H 0.13959 0.20797 0.53177
 H172 H 0.22375 0.10985 0.48705
 H173 H 0.20896 -0.14207 0.48782
 H174 H 0.10597 -0.22714 0.49960
 C175 C -0.27741 0.24346 0.04657
 C176 C -0.20041 0.23559 0.03681
 H177 H -0.30155 0.30121 0.05501
 H178 H -0.17527 0.17836 0.02807
 C179 C 0.27984 0.75352 -0.02858
 C180 C 0.20234 0.76196 -0.02601
 H181 H 0.30436 0.69542 -0.03191
 H182 H 0.17668 0.81952 -0.02274
 C183 C 0.24040 0.20339 -0.00785
 C184 C 0.24882 0.28095 -0.01050
 H185 H 0.18279 0.17723 -0.00686
 H186 H 0.30687 0.30607 -0.01317
 C187 C -0.23835 0.79478 -0.00042
 C188 C -0.24780 0.71725 -0.00638
 H189 H -0.18059 0.81999 0.00537
 H190 H -0.30602 0.69273 -0.01045
 C191 C 0.00421 -0.23952 0.20268
 C192 C 0.00629 -0.24855 0.28055
 H193 H 0.00039 -0.18182 0.17710
 H194 H 0.00824 -0.30675 0.30530
 C195 C 0.00770 0.24212 0.79670
 C196 C 0.00687 0.24862 0.71502
 H197 H 0.01036 0.18473 0.82327
 H198 H 0.00912 0.30642 0.68911
 C199 C 0.03033 0.27908 0.24403
 C200 C 0.02369 0.20164 0.23576
 H201 H 0.03566 0.30389 0.30221
 H202 H 0.01857 0.17570 0.17812
 C203 C -0.04380 -0.27956 0.75312
 C204 C -0.03758 -0.20190 0.76227
 H205 H -0.05052 -0.30365 0.69480
 H206 H -0.03071 -0.17684 0.82012
 C207 C 0.28158 0.01183 0.75358
 C208 C 0.20406 0.01190 0.76224
 H209 H 0.30624 0.01377 0.69524
 H210 H 0.17843 0.01154 0.82014
 C211 C -0.28521 0.00389 0.24817
 C212 C -0.20376 0.00202 0.24000
 H213 H -0.30926 0.00397 0.30688
 H214 H -0.17788 -0.00189 0.18231
 C215 C 0.23733 -0.03587 0.20263
 C216 C 0.24456 -0.04081 0.28051
 H217 H 0.18028 -0.02972 0.17607
 H218 H 0.30218 -0.04664 0.30599
 C219 C -0.23731 0.02596 0.79953
 C220 C -0.24624 0.02960 0.72155
 H221 H -0.17964 0.02252 0.82521
 H222 H -0.30443 0.03278 0.69693
   
