data_POSCAR
  _audit_creation_date              2014-09-24
  _audit_creation_method            'ToBaCCo'
  _symmetry_space_group_name_H-M    'P1'
  _symmetry_Int_Tables_number       1
  _symmetry_cell_setting            triclinic
  loop_
  _symmetry_equiv_pos_as_xyz
 x,y,z
_cell_length_a 15.9968
_cell_length_b 15.7209
_cell_length_c 16.3558
_cell_angle_alpha 90.473100
_cell_angle_beta 90.360600
_cell_angle_gamma 90.261000
loop_
  _atom_site_label
  _atom_site_type_symbol
  _atom_site_fract_x
  _atom_site_fract_y
  _atom_site_fract_z
C1 C 0.44873 1.05377 -0.56494
 C2 C 0.53072 1.01818 -0.57473
 C3 C 0.57250 0.98865 -0.50388
 C4 C 0.53599 0.98830 -0.42551
 C5 C 0.45035 1.00985 -0.41935
 C6 C 0.42211 1.06597 -0.48136
 H7 H 0.36303 1.09775 -0.47075
 H8 H 0.63816 0.97178 -0.50821
 C9 C -0.58831 1.45665 -0.03540
 C10 C -0.59068 1.54538 -0.04648
 C11 C -0.51704 1.58916 -0.06410
 C12 C -0.43996 1.54819 -0.06153
 C13 C -0.43832 1.45860 -0.05613
 C14 C -0.51296 1.41410 -0.04728
 H15 H -0.51118 1.34528 -0.04163
 H16 H -0.51862 1.65809 -0.06868
 C17 C 0.00902 0.54807 0.58195
 C18 C -0.01261 0.46072 0.58271
 C19 C -0.02627 0.41789 0.50881
 C20 C -0.01742 0.45889 0.43398
 C21 C -0.00044 0.54697 0.43258
 C22 C 0.01195 0.59021 0.50668
 H23 H 0.02335 0.65834 0.50555
 H24 H -0.03733 0.34967 0.50938
 O25 O -0.22649 1.00261 -0.11191
 O26 O 0.20621 1.00705 -0.10180
 O27 O -0.00782 1.12066 -0.20479
 O28 O 0.00332 0.88396 -0.20508
 O29 O -0.00472 0.78341 -0.10330
 O30 O -0.01107 1.22105 -0.10085
 O31 O 0.10803 1.00568 -0.20610
 O32 O -0.12292 1.00342 -0.21014
 Zr33 Zr -0.00766 1.00312 -0.14207
 O34 O 0.06540 0.92710 -0.06862
 O35 O -0.08533 1.07910 -0.07254
 C36 C -0.20113 1.00321 -0.18680
 C37 C 0.18492 1.00778 -0.17914
 C38 C -0.00931 1.19840 -0.17697
 C39 C 0.00389 0.80593 -0.17821
 H40 H 0.10153 1.11678 -0.09908
 O41 O 0.06531 1.07908 -0.06667
 H42 H -0.11749 0.89142 -0.11133
 O43 O -0.08488 0.92793 -0.07373
 O44 O 0.19954 1.00401 0.12212
 O45 O -0.23404 1.00393 0.10467
 O46 O 0.09685 1.22169 0.01284
 O47 O 0.09699 0.78615 0.00182
 O48 O -0.12502 0.78518 -0.00704
 O49 O -0.11838 1.22215 -0.00285
 O50 O -0.01622 1.11539 0.21814
 O51 O -0.01803 0.88205 0.21330
 O52 O -0.01225 1.21784 0.11776
 O53 O -0.01811 0.78206 0.10934
 O54 O 0.20146 1.12153 0.01500
 O55 O -0.22316 1.12158 -0.01180
 O56 O -0.22794 0.88736 -0.00863
 O57 O 0.20161 0.88777 0.00412
 O58 O 0.09661 1.00227 0.22076
 O59 O -0.13690 1.00008 0.21010
 Zr60 Zr 0.13539 1.00382 0.00856
 Zr61 Zr -0.15985 1.00298 -0.00133
 Zr62 Zr -0.01167 1.14911 0.00673
 Zr63 Zr -0.01364 0.85572 0.00301
 Zr64 Zr -0.01746 1.00036 0.15053
 O65 O -0.09295 0.92454 0.07640
 O66 O 0.06157 1.07800 0.08332
 C67 C 0.17490 1.00417 0.19792
 C68 C -0.21348 1.00309 0.18143
 C69 C 0.17405 1.19940 0.01486
 C70 C 0.17425 0.80988 0.00123
 C71 C -0.20187 0.80942 -0.01268
 C72 C -0.19510 1.19950 -0.01141
 C73 C -0.01357 1.19347 0.19315
 C74 C -0.01729 0.80412 0.18554
 H75 H -0.12659 1.11539 0.10961
 O76 O -0.09008 1.07773 0.07716
 H77 H 0.09538 0.89028 0.11379
 O78 O 0.06042 0.92720 0.07943
 C79 C 0.32297 1.04317 0.23524
 C80 C 0.39048 1.05894 0.28935
 C81 C 0.38226 1.04439 0.37320
 C82 C 0.30558 1.00569 0.39656
 C83 C 0.23747 0.98580 0.34443
 C84 C 0.24384 1.01114 0.26118
 C85 C 0.17777 0.92594 0.37676
 N86 N 0.18987 0.89481 0.45596
 N87 N 0.24140 0.93649 0.50832
 C88 C 0.30920 0.95906 0.46529
 H89 H 0.33390 1.05590 0.17133
 H90 H 0.44760 1.08396 0.26450
 H91 H 0.12938 0.89879 0.33840
 H92 H 0.36630 0.91985 0.46570
 C93 C -0.31417 0.93603 0.27704
 C94 C -0.38116 0.93918 0.33146
 C95 C -0.42110 1.01639 0.35229
 C96 C -0.39258 1.09197 0.31349
 C97 C -0.32581 1.08786 0.25596
 C98 C -0.28433 1.00977 0.24000
 C99 C -0.30045 1.16336 0.21801
 N100 N -0.33709 1.23814 0.23801
 N101 N -0.39687 1.24283 0.29398
 C102 C -0.42506 1.17280 0.33305
 H103 H -0.28475 0.87541 0.26443
 H104 H -0.39989 0.88060 0.36085
 H105 H -0.25133 1.16370 0.17313
 H106 H -0.47308 1.18145 0.37823
 C107 C -0.33043 0.93855 -0.24602
 C108 C -0.39779 0.93626 -0.30109
 C109 C -0.40748 1.00014 -0.35944
 C110 C -0.34991 1.07025 -0.35838
 C111 C -0.28001 1.07053 -0.30441
 C112 C -0.26896 1.00285 -0.24921
 C113 C -0.22492 1.14058 -0.30550
 N114 N -0.23940 1.20627 -0.35668
 N115 N -0.30556 1.20705 -0.40635
 C116 C -0.36137 1.14193 -0.40861
 H117 H -0.32562 0.88878 -0.20103
 H118 H -0.44077 0.88280 -0.29989
 H119 H -0.17118 1.14449 -0.26540
 H120 H -0.41504 1.14770 -0.44857
 C121 C 0.33834 1.02403 -0.21535
 C122 C 0.40436 1.01808 -0.27208
 C123 C 0.39114 0.98121 -0.35028
 C124 C 0.30900 0.94076 -0.36158
 C125 C 0.24377 0.98320 -0.32315
 C126 C 0.25482 1.00879 -0.24063
 C127 C 0.18787 1.02097 -0.37872
 N128 N 0.19796 1.00374 -0.46126
 C129 C 0.27741 0.89089 -0.42901
 H130 H 0.35180 1.04698 -0.15405
 H131 H 0.46425 1.04586 -0.25586
 H132 H 0.14593 1.07085 -0.35911
 H133 H 0.31012 0.83204 -0.44336
 C134 C 0.22119 1.32955 -0.05177
 C135 C 0.27581 1.39742 -0.06163
 C136 C 0.34399 1.40817 -0.00859
 C137 C 0.35267 1.35348 0.05984
 C138 C 0.29750 1.28400 0.06906
 C139 C 0.23347 1.27037 0.01084
 C140 C 0.30743 1.23145 0.13712
 N141 N 0.36935 1.24731 0.19226
 N142 N 0.42146 1.31287 0.18399
 C143 C 0.41499 1.36677 0.12002
 H144 H 0.17091 1.32087 -0.09583
 H145 H 0.26916 1.43605 -0.11564
 H146 H 0.26520 1.17927 0.14771
 H147 H 0.45775 1.42011 0.11719
 C148 C 0.22451 0.68458 -0.07148
 C149 C 0.27782 0.61613 -0.08137
 C150 C 0.33882 0.59923 -0.02244
 C151 C 0.34596 0.65203 0.04812
 C152 C 0.29514 0.72483 0.05559
 C153 C 0.23418 0.74067 -0.00508
 C154 C 0.30757 0.77910 0.12344
 N155 N 0.36678 0.76045 0.18015
 N156 N 0.41382 0.69108 0.17385
 C157 C 0.40529 0.63613 0.10998
 H158 H 0.17718 0.69585 -0.11772
 H159 H 0.27445 0.57946 -0.13759
 H160 H 0.27097 0.83596 0.13217
 H161 H 0.44489 0.58058 0.10796
 C162 C -0.30792 0.71063 0.03687
 C163 C -0.36278 0.64310 0.02566
 C164 C -0.37001 0.60047 -0.05027
 C165 C -0.32586 0.63252 -0.11801
 C166 C -0.27413 0.70522 -0.10779
 C167 C -0.26323 0.74211 -0.02894
 C168 C -0.23801 0.74074 -0.17776
 N169 N -0.25077 0.70403 -0.25219
 N170 N -0.29737 0.63418 -0.26137
 C171 C -0.33531 0.59709 -0.19684
 H172 H -0.30189 0.73991 0.09688
 H173 H -0.40269 0.62674 0.07633
 H174 H -0.20000 0.79737 -0.17425
 H175 H -0.37320 0.54087 -0.20767
 C176 C -0.29373 1.27924 -0.09692
 C177 C -0.34597 1.34826 -0.11056
 C178 C -0.36270 1.40679 -0.04758
 C179 C -0.32305 1.39757 0.02929
 C180 C -0.26314 1.33311 0.03998
 C181 C -0.25332 1.27011 -0.02155
 C182 C -0.21767 1.33197 0.11366
 N183 N -0.23642 1.38740 0.17473
 N184 N -0.29884 1.44248 0.16752
 C185 C -0.34398 1.44798 0.09744
 H186 H -0.28428 1.23308 -0.14554
 H187 H -0.37847 1.35269 -0.16870
 H188 H -0.16866 1.28656 0.12385
 H189 H -0.39664 1.49015 0.09622
 C190 C -0.08663 1.29800 0.27933
 C191 C -0.08717 1.36881 0.33091
 C192 C -0.01227 1.40257 0.36197
 C193 C 0.06455 1.36327 0.34134
 C194 C 0.06498 1.29329 0.28646
 C195 C -0.01129 1.26143 0.25486
 C196 C 0.14168 1.25469 0.26803
 N197 N 0.21306 1.28360 0.30394
 N198 N 0.21268 1.34833 0.35692
 C199 C 0.14094 1.38875 0.37717
 H200 H -0.14550 1.27034 0.25993
 H201 H -0.14659 1.39436 0.35066
 H202 H 0.14504 1.20059 0.22700
 H203 H 0.14406 1.43910 0.42221
 C204 C -0.07848 1.31551 -0.24913
 C205 C -0.07857 1.38244 -0.30431
 C206 C -0.00515 1.40608 -0.34460
 C207 C 0.06986 1.36120 -0.32891
 C208 C 0.06936 1.29157 -0.27460
 C209 C -0.00593 1.26807 -0.23580
 C210 C 0.14449 1.24739 -0.26139
 N211 N 0.21497 1.27149 -0.30075
 N212 N 0.21532 1.33655 -0.35238
 C213 C 0.14525 1.38202 -0.36800
 H214 H -0.13609 1.29884 -0.21851
 H215 H -0.13710 1.41372 -0.31819
 H216 H 0.14787 1.19404 -0.22030
 H217 H 0.14915 1.43410 -0.41056
 C218 C -0.04529 0.66883 -0.23398
 C219 C -0.04270 0.60186 -0.28974
 C220 C 0.02171 0.59727 -0.34705
 C221 C 0.09026 0.65471 -0.33946
 C222 C 0.08629 0.72371 -0.28353
 C223 C 0.01395 0.73465 -0.23591
 C224 C 0.15720 0.77564 -0.27305
 N225 N 0.22808 0.75749 -0.31445
 N226 N 0.23175 0.69326 -0.36788
 C227 C 0.16494 0.64202 -0.38270
 H228 H -0.09514 0.67022 -0.19005
 H229 H -0.09524 0.55840 -0.29232
 H230 H 0.15822 0.82791 -0.22970
 H231 H 0.17188 0.58951 -0.42519
 C232 C -0.07940 0.68410 0.26240
 C233 C -0.07385 0.61721 0.31799
 C234 C 0.00208 0.59873 0.35725
 C235 C 0.07479 0.64530 0.33614
 C236 C 0.06950 0.71153 0.27819
 C237 C -0.00907 0.73379 0.24434
 C238 C 0.14351 0.75386 0.25647
 N239 N 0.21688 0.73373 0.29323
 N240 N 0.22146 0.67338 0.34958
 C241 C 0.15301 0.62863 0.37234
 H242 H -0.13941 0.69859 0.23487
 H243 H -0.13026 0.58314 0.33435
 H244 H 0.14361 0.80378 0.21181
 H245 H 0.16053 0.58064 0.41843
   
