data_POSCAR
  _audit_creation_date              2014-09-24
  _audit_creation_method            'ToBaCCo'
  _symmetry_space_group_name_H-M    'P1'
  _symmetry_Int_Tables_number       1
  _symmetry_cell_setting            triclinic
  loop_
  _symmetry_equiv_pos_as_xyz
 x,y,z
_cell_length_a 20.6241
_cell_length_b 20.6720
_cell_length_c 52.4056
_cell_angle_alpha 91.040300
_cell_angle_beta 89.699200
_cell_angle_gamma 119.007900
loop_
  _atom_site_label
  _atom_site_type_symbol
  _atom_site_fract_x
  _atom_site_fract_y
  _atom_site_fract_z
C1 C 0.01376 0.02376 0.52063
 C2 C -0.05539 -0.03529 0.50633
 C3 C -0.03956 -0.07358 0.48798
 C4 C 0.04373 -0.04881 0.48563
 C5 C 0.05171 -0.01817 0.53083
 C6 C 0.06605 -0.05759 0.51280
 C7 C 0.06442 0.07219 0.49978
 C8 C 0.08038 0.03530 0.48136
 H9 H -0.11126 -0.04665 0.51067
 H10 H 0.05780 -0.07888 0.47076
 H11 H 0.05393 -0.02699 0.55107
 H12 H 0.08414 0.13124 0.49926
 C13 C 0.95603 -0.03149 0.18939
 C14 C 1.02076 -0.03829 0.17701
 C15 C 1.06267 0.01850 0.16090
 C16 C 1.03607 0.07625 0.15900
 C17 C 0.98942 0.04088 0.20161
 C18 C 1.03604 0.10013 0.18537
 C19 C 0.91288 -0.02618 0.16688
 C20 C 0.95381 0.02990 0.15087
 H21 H 1.03152 -0.08375 0.18034
 H22 H 1.06878 0.12245 0.14587
 H23 H 0.99044 0.04740 0.22222
 H24 H 0.85473 -0.06503 0.16358
 C25 C 0.02538 1.00233 0.85601
 C26 C 0.03513 1.07122 0.84186
 C27 C -0.01808 1.05552 0.82363
 C28 C -0.07536 0.97270 0.82122
 C29 C -0.05361 0.96652 0.86632
 C30 C -0.10639 0.95229 0.84839
 C31 C 0.02392 0.95012 0.83500
 C32 C -0.02805 0.93432 0.81669
 H33 H 0.07886 1.12679 0.84617
 H34 H -0.11875 0.95879 0.80644
 H35 H -0.06499 0.96529 0.88659
 H36 H 0.06302 0.92919 0.83432
 O37 O 0.57825 0.07526 -0.02823
 O38 O 0.48119 0.09440 0.02912
 O39 O 0.60979 0.09843 0.02079
 O40 O 0.46256 0.09181 -0.01995
 O41 O 0.39893 -0.02963 -0.01619
 O42 O 0.54949 -0.02337 0.02328
 O43 O 0.42315 -0.02717 0.03260
 O44 O 0.51414 -0.04616 -0.02458
 Cu45 Cu 0.53947 0.10210 0.00025
 Cu46 Cu 0.46535 -0.04340 0.00420
 C47 C 0.56165 0.01033 -0.03615
 C48 C 0.43469 0.03586 0.04037
 C49 C 0.60558 0.03889 0.02862
 C50 C 0.40570 0.03037 -0.02496
 O51 O -0.06016 0.51424 0.63443
 O52 O -0.08329 0.39915 0.69108
 O53 O -0.08491 0.52467 0.68329
 O54 O -0.07766 0.38277 0.64212
 O55 O 0.04378 0.43644 0.64747
 O56 O 0.03683 0.58101 0.68777
 O57 O 0.03833 0.45794 0.69620
 O58 O 0.06120 0.56784 0.63986
 Cu59 Cu -0.08867 0.45014 0.66238
 Cu60 Cu 0.05690 0.51628 0.66835
 C61 C 0.00535 0.56044 0.62751
 C62 C -0.02545 0.40875 0.70299
 C63 C -0.02548 0.57738 0.69233
 C64 C -0.01609 0.38499 0.63791
 O65 O 0.60463 0.50991 0.35710
 O66 O 0.47962 0.41473 0.30173
 O67 O 0.61158 0.52705 0.30813
 O68 O 0.47950 0.38327 0.35028
 O69 O 0.42117 0.44777 0.35677
 O70 O 0.55515 0.59332 0.31497
 O71 O 0.42348 0.48086 0.30941
 O72 O 0.54399 0.57203 0.36395
 Cu73 Cu 0.54914 0.45177 0.32880
 Cu74 Cu 0.48050 0.52992 0.33705
 C75 C 0.59568 0.55846 0.36963
 C76 C 0.43016 0.43249 0.29628
 C77 C 0.60609 0.58453 0.30435
 C78 C 0.42721 0.39021 0.36038
 C79 C -0.00741 0.16560 0.57463
 N80 N 0.05812 0.16656 0.57100
 N81 N 0.06335 0.11985 0.55446
 C82 C 0.00328 0.07011 0.54092
 N83 N -0.06273 0.06845 0.54471
 N84 N -0.06798 0.11537 0.56133
 C85 C -0.01083 0.22082 0.59172
 N86 N -0.07546 0.22177 0.59562
 N87 N -0.07715 0.27397 0.61046
 C88 C -0.01428 0.32719 0.62181
 N89 N 0.05024 0.32608 0.61796
 N90 N 0.05189 0.27385 0.60318
 C91 C 0.81071 0.80312 0.23915
 N92 N 0.86763 0.79738 0.22815
 N93 N 0.91441 0.84944 0.21246
 C94 C 0.90567 0.90891 0.20725
 N95 N 0.84871 0.91427 0.21830
 N96 N 0.80224 0.86251 0.23394
 C97 C 0.75825 0.74628 0.25624
 N98 N 0.70275 0.75433 0.26724
 N99 N 0.65426 0.70289 0.28262
 C100 C 0.65950 0.64141 0.28752
 N101 N 0.71503 0.63330 0.27655
 N102 N 0.76360 0.68484 0.26117
 C103 C 0.18383 0.02258 -0.08949
 N104 N 0.19353 0.08318 -0.10236
 N105 N 0.14296 0.07819 -0.11923
 C106 C 0.08094 0.01238 -0.12372
 N107 N 0.07124 -0.04772 -0.11063
 N108 N 0.12159 -0.04274 -0.09385
 C109 C 0.24067 0.02579 -0.07202
 N110 N 0.23194 -0.03701 -0.06110
 N111 N 0.28431 -0.03555 -0.04597
 C112 C 0.34735 0.02886 -0.04121
 N113 N 0.35598 0.09181 -0.05201
 N114 N 0.30363 0.09032 -0.06720
 C115 C 0.05683 0.76154 0.54870
 N116 N 0.11768 0.82921 0.55131
 N117 N 0.12401 0.88624 0.53801
 C118 C 0.07055 0.87738 0.52114
 N119 N 0.01088 0.80910 0.51785
 N120 N 0.00406 0.75217 0.53140
 C121 C 0.04416 0.70341 0.56690
 N122 N -0.02519 0.64649 0.57100
 N123 N -0.03796 0.59961 0.58997
 C124 C 0.01828 0.60809 0.60548
 N125 N 0.08766 0.66415 0.60105
 N126 N 0.10028 0.71116 0.58226
 C127 C 0.20924 0.27207 0.22290
 N128 N 0.21862 0.25300 0.19876
 N129 N 0.16105 0.20098 0.18560
 C130 C 0.09265 0.16505 0.19640
 N131 N 0.08356 0.18588 0.22028
 N132 N 0.14042 0.23884 0.23313
 C133 C 0.27196 0.32187 0.23914
 N134 N 0.26157 0.36297 0.25747
 N135 N 0.31341 0.39973 0.27505
 C136 C 0.37704 0.39557 0.27538
 N137 N 0.38802 0.35485 0.25694
 N138 N 0.33631 0.31869 0.23907
 C139 C 0.71973 -0.03764 -0.11550
 N140 N 0.76362 0.01581 -0.13198
 N141 N 0.81483 0.00898 -0.14560
 C142 C 0.82407 -0.05137 -0.14318
 N143 N 0.77915 -0.10539 -0.12710
 N144 N 0.72739 -0.09904 -0.11374
 C145 C 0.67230 -0.02551 -0.09722
 N146 N 0.62357 -0.08233 -0.08284
 N147 N 0.58711 -0.07055 -0.06392
 C148 C 0.59856 -0.00138 -0.05840
 N149 N 0.64668 0.05560 -0.07295
 N150 N 0.68290 0.04368 -0.09205
 C151 C 0.23883 0.03461 0.11616
 N152 N 0.19591 -0.02793 0.12935
 N153 N 0.14080 -0.03286 0.14407
 C154 C 0.12627 0.02447 0.14601
 N155 N 0.16970 0.08714 0.13301
 N156 N 0.22493 0.09220 0.11839
 C157 C 0.29549 0.03779 0.09828
 N158 N 0.33934 0.10056 0.08533
 N159 N 0.38616 0.10129 0.06751
 C160 C 0.39056 0.03912 0.06198
 N161 N 0.34741 -0.02322 0.07518
 N162 N 0.30098 -0.02385 0.09303
 C163 C 0.80047 0.75490 0.44240
 N164 N 0.87210 0.76952 0.44223
 N165 N 0.92263 0.82378 0.45687
 C166 C 0.90359 0.86548 0.47224
 N167 N 0.83178 0.85040 0.47257
 N168 N 0.78127 0.79633 0.45785
 C169 C 0.74543 0.69846 0.42504
 N170 N 0.67738 0.69261 0.42258
 N171 N 0.62910 0.64589 0.40550
 C172 C 0.64657 0.60264 0.39035
 N173 N 0.71422 0.60740 0.39307
 N174 N 0.76283 0.65458 0.41011
 C175 C -0.02995 0.21326 0.77759
 N176 N 0.03072 0.23214 0.79242
 N177 N 0.03438 0.18248 0.80736
 C178 C -0.02229 0.11187 0.80787
 N179 N -0.08304 0.09324 0.79314
 N180 N -0.08688 0.14292 0.77830
 C181 C -0.03177 0.26669 0.75985
 N182 N -0.09343 0.24947 0.74576
 N183 N -0.09284 0.29588 0.72828
 C184 C -0.03042 0.36109 0.72422
 N185 N 0.03079 0.37852 0.73852
 N186 N 0.03007 0.33241 0.75606
 C187 C 0.83210 0.04447 0.09022
 N188 N 0.82563 -0.02130 0.09698
 N189 N 0.86824 -0.02461 0.11524
 C190 C 0.91956 0.03766 0.12741
 N191 N 0.92805 0.10409 0.12015
 N192 N 0.88495 0.10742 0.10183
 C193 C 0.77688 0.04493 0.07273
 N194 N 0.77787 0.10880 0.06637
 N195 N 0.72366 0.10711 0.05209
 C196 C 0.66629 0.04155 0.04391
 N197 N 0.66568 -0.02207 0.05016
 N198 N 0.71987 -0.02037 0.06430
 C199 C 0.21562 0.16682 0.42283
 N200 N 0.16206 0.17883 0.43319
 N201 N 0.11711 0.13430 0.45089
 C202 C 0.12327 0.07548 0.45890
 N203 N 0.17552 0.06179 0.44805
 N204 N 0.22107 0.10687 0.43030
 C205 C 0.26943 0.22209 0.40547
 N206 N 0.32767 0.21625 0.39583
 N207 N 0.37804 0.26966 0.38136
 C208 C 0.37220 0.33091 0.37622
 N209 N 0.31386 0.33639 0.38579
 N210 N 0.26359 0.28311 0.40015
 C211 C -0.03252 0.79569 0.75687
 N212 N -0.09638 0.79483 0.76420
 N213 N -0.09546 0.84123 0.78249
 C214 C -0.03065 0.88961 0.79410
 N215 N 0.03290 0.89112 0.78632
 N216 N 0.03206 0.84539 0.76805
 C217 C -0.03204 0.74090 0.73871
 N218 N 0.03337 0.74371 0.73268
 N219 N 0.03528 0.69195 0.71774
 C220 C -0.02829 0.63509 0.70829
 N221 N -0.09390 0.63237 0.71411
 N222 N -0.09581 0.68429 0.72912
   
