data_POSCAR
  _audit_creation_date              2014-09-24
  _audit_creation_method            'ToBaCCo'
  _symmetry_space_group_name_H-M    'P1'
  _symmetry_Int_Tables_number       1
  _symmetry_cell_setting            triclinic
  loop_
  _symmetry_equiv_pos_as_xyz
 x,y,z
_cell_length_a 48.8428
_cell_length_b 48.8429
_cell_length_c 48.7826
_cell_angle_alpha 89.990500
_cell_angle_beta 90.009500
_cell_angle_gamma 89.873800
loop_
  _atom_site_label
  _atom_site_type_symbol
  _atom_site_fract_x
  _atom_site_fract_y
  _atom_site_fract_z
C1 C 0.19239 0.15611 0.19279
 C2 C 0.18057 0.14451 0.21629
 C3 C 0.15698 0.15613 0.22834
 C4 C 0.14540 0.17971 0.21624
 C5 C 0.15702 0.19148 0.19275
 C6 C 0.18060 0.17966 0.18097
 C7 C 0.21589 0.14447 0.18098
 C8 C 0.22796 0.15604 0.15740
 C9 C 0.21588 0.17961 0.14579
 C10 C 0.19239 0.19144 0.15740
 C11 C 0.18056 0.21493 0.14577
 C12 C 0.15704 0.22691 0.15738
 C13 C 0.14541 0.21498 0.18090
 H14 H 0.18990 0.12640 0.22515
 H15 H 0.12728 0.18907 0.22505
 H16 H 0.22474 0.12636 0.19033
 H17 H 0.22470 0.18894 0.12767
 H18 H 0.18976 0.22388 0.12766
 H19 H 0.12730 0.22396 0.19009
 C20 C -0.19233 0.84395 0.19264
 C21 C -0.18053 0.85554 0.21615
 C22 C -0.15692 0.84394 0.22820
 C23 C -0.14530 0.82040 0.21609
 C24 C -0.15690 0.80863 0.19258
 C25 C -0.18050 0.82043 0.18081
 C26 C -0.21585 0.85557 0.18084
 C27 C -0.22790 0.84401 0.15724
 C28 C -0.21579 0.82046 0.14562
 C29 C -0.19228 0.80866 0.15722
 C30 C -0.18041 0.78520 0.14558
 C31 C -0.15687 0.77325 0.15719
 C32 C -0.14526 0.78518 0.18072
 H33 H -0.18989 0.87363 0.22502
 H34 H -0.12717 0.81106 0.22489
 H35 H -0.22472 0.87365 0.19020
 H36 H -0.22460 0.81114 0.12749
 H37 H -0.18959 0.77625 0.12746
 H38 H -0.12713 0.77621 0.18991
 C39 C -0.19343 0.15709 -0.19179
 C40 C -0.18158 0.14545 -0.21528
 C41 C -0.15808 0.15703 -0.22723
 C42 C -0.14648 0.18052 -0.21529
 C43 C -0.15809 0.19237 -0.19182
 C44 C -0.18166 0.18064 -0.18001
 C45 C -0.21691 0.14553 -0.17997
 C46 C -0.22898 0.15717 -0.15639
 C47 C -0.21694 0.18073 -0.14482
 C48 C -0.19346 0.19248 -0.15645
 C49 C -0.18165 0.21595 -0.14487
 C50 C -0.15814 0.22784 -0.15651
 C51 C -0.14651 0.21583 -0.18002
 H52 H -0.19076 0.12736 -0.22424
 H53 H -0.12838 0.18969 -0.22425
 H54 H -0.22572 0.12744 -0.18929
 H55 H -0.22577 0.19010 -0.12672
 H56 H -0.19085 0.22496 -0.12677
 H57 H -0.12841 0.22474 -0.18924
 C58 C 0.19268 0.84290 -0.19297
 C59 C 0.18083 0.85454 -0.21645
 C60 C 0.15727 0.84299 -0.22852
 C61 C 0.14574 0.81942 -0.21646
 C62 C 0.15739 0.80758 -0.19298
 C63 C 0.18094 0.81933 -0.18118
 C64 C 0.21615 0.85446 -0.18113
 C65 C 0.22813 0.84280 -0.15761
 C66 C 0.21623 0.81928 -0.14599
 C67 C 0.19277 0.80750 -0.15761
 C68 C 0.18100 0.78402 -0.14601
 C69 C 0.15750 0.77211 -0.15765
 C70 C 0.14584 0.78410 -0.18116
 H71 H 0.19013 0.87265 -0.22527
 H72 H 0.12765 0.81011 -0.22529
 H73 H 0.22507 0.87256 -0.19032
 H74 H 0.22522 0.81005 -0.12789
 H75 H 0.19023 0.77503 -0.12791
 H76 H 0.12775 0.77516 -0.19037
 C77 C 0.15610 1.19239 0.80721
 C78 C 0.14451 1.18057 0.78370
 C79 C 0.15613 1.15698 0.77166
 C80 C 0.17970 1.14540 0.78375
 C81 C 0.19148 1.15702 0.80724
 C82 C 0.17966 1.18060 0.81902
 C83 C 0.14447 1.21589 0.81901
 C84 C 0.15604 1.22796 0.84260
 C85 C 0.17961 1.21588 0.85420
 C86 C 0.19144 1.19239 0.84260
 C87 C 0.21493 1.18056 0.85422
 C88 C 0.22691 1.15704 0.84261
 C89 C 0.21497 1.14541 0.81909
 H90 H 0.12640 1.18990 0.77485
 H91 H 0.18907 1.12728 0.77494
 H92 H 0.12635 1.22474 0.80967
 H93 H 0.18894 1.22470 0.87232
 H94 H 0.22388 1.18976 0.87234
 H95 H 0.22396 1.12730 0.80990
 C96 C 0.84395 0.80767 0.80736
 C97 C 0.85554 0.81947 0.78384
 C98 C 0.84394 0.84308 0.77179
 C99 C 0.82040 0.85470 0.78391
 C100 C 0.80863 0.84310 0.80741
 C101 C 0.82043 0.81950 0.81919
 C102 C 0.85557 0.78415 0.81916
 C103 C 0.84401 0.77210 0.84275
 C104 C 0.82046 0.78421 0.85438
 C105 C 0.80866 0.80772 0.84277
 C106 C 0.78520 0.81959 0.85442
 C107 C 0.77325 0.84313 0.84280
 C108 C 0.78518 0.85474 0.81927
 H109 H 0.87362 0.81011 0.77497
 H110 H 0.81106 0.87283 0.77510
 H111 H 0.87365 0.77528 0.80979
 H112 H 0.81114 0.77540 0.87250
 H113 H 0.77625 0.81041 0.87254
 H114 H 0.77621 0.87287 0.81008
 C115 C 0.15709 0.80657 1.19178
 C116 C 0.14545 0.81842 1.21527
 C117 C 0.15703 0.84192 1.22723
 C118 C 0.18052 0.85353 1.21528
 C119 C 0.19237 0.84191 1.19181
 C120 C 0.18064 0.81834 1.18000
 C121 C 0.14553 0.78309 1.17996
 C122 C 0.15717 0.77102 1.15639
 C123 C 0.18073 0.78306 1.14482
 C124 C 0.19247 0.80654 1.15644
 C125 C 0.21595 0.81835 1.14486
 C126 C 0.22783 0.84186 1.15651
 C127 C 0.21583 0.85349 1.18001
 H128 H 0.12736 0.80924 1.22424
 H129 H 0.18968 0.87162 1.22424
 H130 H 0.12744 0.77428 1.18929
 H131 H 0.19010 0.77423 1.12671
 H132 H 0.22496 0.80915 1.12676
 H133 H 0.22474 0.87159 1.18923
 C134 C 0.84289 1.19268 1.19296
 C135 C 0.85454 1.18083 1.21644
 C136 C 0.84299 1.15727 1.22851
 C137 C 0.81942 1.14574 1.21645
 C138 C 0.80758 1.15739 1.19297
 C139 C 0.81933 1.18094 1.18118
 C140 C 0.85446 1.21615 1.18112
 C141 C 0.84280 1.22813 1.15761
 C142 C 0.81928 1.21623 1.14599
 C143 C 0.80750 1.19277 1.15760
 C144 C 0.78402 1.18100 1.14601
 C145 C 0.77211 1.15750 1.15765
 C146 C 0.78410 1.14584 1.18116
 H147 H 0.87265 1.19013 1.22526
 H148 H 0.81010 1.12765 1.22528
 H149 H 0.87256 1.22507 1.19031
 H150 H 0.81005 1.22522 1.12788
 H151 H 0.77503 1.19023 1.12790
 H152 H 0.77516 1.12775 1.19036
 N153 N 0.52862 1.04879 0.97081
 N154 N 0.54939 1.06572 0.96748
 N155 N 0.47113 1.02959 0.95164
 N156 N 0.45028 1.03293 0.93474
 N157 N 0.47099 1.04856 0.97071
 N158 N 0.45003 1.06534 0.96732
 N159 N 0.52876 1.02981 0.95174
 N160 N 0.54963 1.03329 0.93492
 C161 C 0.56226 1.05577 0.94501
 C162 C 0.43736 1.05531 0.94479
 N163 N 0.47159 0.95157 0.97054
 N164 N 0.45082 0.93466 0.96711
 N165 N 0.52913 0.97084 0.95164
 N166 N 0.55002 0.96755 0.93479
 N167 N 0.52921 0.95180 0.97065
 N168 N 0.55016 0.93502 0.96726
 N169 N 0.47150 0.97062 0.95154
 N170 N 0.45067 0.96721 0.93465
 Mn171 Mn 0.50013 1.00022 0.95131
 C172 C 0.43801 0.94469 0.94463
 C173 C 0.56290 0.94511 0.94481
 N174 N 0.47088 1.04845 1.02976
 N175 N 0.44993 1.06522 1.03317
 N176 N 0.52860 1.02963 1.04886
 N177 N 0.54944 1.03304 1.06574
 N178 N 0.52851 1.04868 1.02985
 N179 N 0.54929 1.06558 1.03327
 N180 N 0.47098 1.02939 1.04876
 N181 N 0.45010 1.03267 1.06563
 Mn182 Mn 0.49975 1.04895 1.00028
 C183 C 0.43720 1.05511 1.05563
 C184 C 0.56210 1.05555 1.05575
 N185 N 0.52913 0.95169 1.02969
 N186 N 0.55009 0.93492 1.03309
 N187 N 0.47135 0.97042 1.04865
 N188 N 0.45046 0.96693 1.06545
 N189 N 0.47151 0.95145 1.02958
 N190 N 0.45074 0.93452 1.03287
 N191 N 0.52897 0.97066 1.04876
 N192 N 0.54982 0.96734 1.06566
 Mn193 Mn 0.50036 0.95130 1.00011
 Mn194 Mn 0.49997 1.00003 1.04909
 Cl195 Cl 0.50005 1.00012 1.00020
 C196 C 0.56276 0.94495 1.05562
 C197 C 0.43785 0.94444 1.05533
 N198 N -0.02958 0.47135 -0.04865
 N199 N -0.03307 0.45046 -0.06546
 N200 N -0.04831 0.52913 -0.02969
 N201 N -0.06508 0.55009 -0.03309
 N202 N -0.02934 0.52897 -0.04876
 N203 N -0.03266 0.54983 -0.06567
 N204 N -0.04855 0.47151 -0.02958
 N205 N -0.06548 0.45074 -0.03287
 C206 C -0.05556 0.43785 -0.05534
 C207 C -0.05505 0.56276 -0.05562
 N208 N -0.02916 0.52913 0.04835
 N209 N -0.03245 0.55002 0.06521
 N210 N -0.04843 0.47159 0.02945
 N211 N -0.06534 0.45082 0.03289
 N212 N -0.02938 0.47150 0.04845
 N213 N -0.03279 0.45067 0.06534
 N214 N -0.04820 0.52921 0.02935
 N215 N -0.06498 0.55016 0.03273
 Mn216 Mn -0.04870 0.50036 -0.00012
 C217 C -0.05489 0.56290 0.05519
 C218 C -0.05531 0.43801 0.05536
 N219 N 0.02963 0.52860 -0.04886
 N220 N 0.03304 0.54945 -0.06574
 N221 N 0.04845 0.47088 -0.02977
 N222 N 0.06522 0.44993 -0.03318
 N223 N 0.02939 0.47098 -0.04876
 N224 N 0.03267 0.45010 -0.06563
 N225 N 0.04868 0.52851 -0.02986
 N226 N 0.06558 0.54929 -0.03328
 Mn227 Mn 0.00003 0.49998 -0.04909
 C228 C 0.05555 0.56210 -0.05575
 C229 C 0.05511 0.43720 -0.05564
 N230 N 0.02959 0.47113 0.04835
 N231 N 0.03292 0.45028 0.06526
 N232 N 0.04879 0.52862 0.02919
 N233 N 0.06572 0.54939 0.03251
 N234 N 0.02981 0.52876 0.04825
 N235 N 0.03329 0.54963 0.06507
 N236 N 0.04856 0.47099 0.02928
 N237 N 0.06534 0.45003 0.03268
 Mn238 Mn 0.00022 0.50013 0.04868
 Mn239 Mn 0.04895 0.49975 -0.00029
 Cl240 Cl 0.00012 0.50005 -0.00020
 C241 C 0.05531 0.43736 0.05520
 C242 C 0.05577 0.56226 0.05499
 N243 N 1.04847 -0.02959 0.52885
 N244 N 1.06534 -0.03300 0.54972
 N245 N 1.02947 -0.04858 0.47116
 N246 N 1.03285 -0.06545 0.45029
 N247 N 1.04847 -0.02960 0.47115
 N248 N 1.06531 -0.03303 0.45026
 N249 N 1.02949 -0.04859 0.52885
 N250 N 1.03291 -0.06545 0.54973
 C251 C 1.05536 -0.05545 0.56251
 C252 C 1.05529 -0.05548 0.43749
 N253 N 0.95147 -0.02948 0.47115
 N254 N 0.93462 -0.03281 0.45027
 N255 N 0.97052 -0.04853 0.52884
 N256 N 0.96718 -0.06538 0.54972
 N257 N 0.95149 -0.02950 0.52885
 N258 N 0.93466 -0.03288 0.54975
 N259 N 0.97050 -0.04851 0.47114
 N260 N 0.96712 -0.06534 0.45024
 Mn261 Mn 1.00000 -0.04888 0.50000
 C262 C 0.94465 -0.05527 0.43747
 C263 C 0.94473 -0.05535 0.56253
 N264 N 1.04841 0.02937 0.47116
 N265 N 1.06527 0.03273 0.45028
 N266 N 1.02937 0.04841 0.52884
 N267 N 1.03272 0.06527 0.54971
 N268 N 1.04841 0.02938 0.52886
 N269 N 1.06525 0.03277 0.54975
 N270 N 1.02938 0.04841 0.47114
 N271 N 1.03277 0.06525 0.45024
 Mn272 Mn 1.04877 -0.00011 0.50000
 C273 C 1.05524 0.05519 0.43748
 C274 C 1.05519 0.05524 0.56252
 N275 N 0.95142 0.02947 0.52883
 N276 N 0.93455 0.03285 0.54970
 N277 N 0.97041 0.04848 0.47115
 N278 N 0.96700 0.06535 0.45027
 N279 N 0.95141 0.02949 0.47114
 N280 N 0.93455 0.03291 0.45026
 N281 N 0.97040 0.04847 0.52885
 N282 N 0.96697 0.06531 0.54974
 Mn283 Mn 0.95112 -0.00000 0.50000
 Mn284 Mn 0.99989 0.04877 0.49999
 Cl285 Cl 0.99995 -0.00005 0.50000
 C286 C 0.94452 0.05529 0.56250
 C287 C 0.94455 0.05536 0.43749
 N288 N 1.11152 0.14470 0.28617
 C289 C 1.12275 0.12212 0.29777
 N290 N 1.14535 0.11081 0.28626
 N291 N 1.15638 0.12177 0.26383
 C292 C 1.14526 0.14447 0.25202
 N293 N 1.12256 0.15565 0.26374
 C294 C 1.11093 0.11039 0.32199
 C295 C 1.10102 0.10059 0.34237
 C296 C 1.08926 0.08894 0.36666
 N297 N 1.10058 0.06642 0.37836
 N298 N 1.08972 0.05565 0.40096
 C299 C 1.06718 0.06706 0.41261
 N300 N 1.05586 0.08960 0.40086
 N301 N 1.06673 0.10037 0.37825
 N302 N 0.85463 -0.11079 0.28617
 C303 C 0.87724 -0.12208 0.29767
 N304 N 0.88852 -0.14463 0.28606
 N305 N 0.87750 -0.15557 0.26361
 C306 C 0.85478 -0.14441 0.25190
 N307 N 0.84362 -0.12174 0.26372
 C308 C 0.88904 -0.11038 0.32191
 C309 C 0.89894 -0.10058 0.34230
 C310 C 0.91068 -0.08896 0.36661
 N311 N 0.93320 -0.10040 0.37821
 N312 N 0.94405 -0.08965 0.40084
 C313 C 0.93273 -0.06712 0.41259
 N314 N 0.91019 -0.05570 0.40093
 N315 N 0.89934 -0.06645 0.37831
 N316 N 0.88801 0.14486 0.71376
 C317 C 0.87680 0.12231 0.70217
 N318 N 0.85422 0.11106 0.71367
 N319 N 0.84317 0.12205 0.73610
 C320 C 0.85428 0.14470 0.74784
 N321 N 0.87695 0.15585 0.73618
 C322 C 0.88865 0.11055 0.67795
 C323 C 0.89859 0.10073 0.65758
 C324 C 0.91039 0.08907 0.63330
 N325 N 0.89913 0.06658 0.62160
 N326 N 0.91004 0.05580 0.59900
 C327 C 0.93255 0.06717 0.58736
 N328 N 0.94380 0.08969 0.59912
 N329 N 0.93289 0.10047 0.62172
 N330 N 1.14554 -0.11156 0.71365
 C331 C 1.12297 -0.12279 0.70211
 N332 N 1.11178 -0.14537 0.71366
 N333 N 1.12284 -0.15639 0.73607
 C334 C 1.14553 -0.14528 0.74782
 N335 N 1.15659 -0.12259 0.73606
 C336 C 1.11113 -0.11099 0.67791
 C337 C 1.10121 -0.10111 0.65755
 C338 C 1.08943 -0.08939 0.63328
 N339 N 1.06693 -0.10074 0.62166
 N340 N 1.05604 -0.08990 0.59907
 C341 C 1.06732 -0.06737 0.58736
 N342 N 1.08984 -0.05605 0.59903
 N343 N 1.10073 -0.06689 0.62162
 N344 N 0.28588 1.11064 1.14581
 C345 C 0.29740 1.12190 1.12322
 N346 N 0.28581 1.14448 1.11197
 N347 N 0.26338 1.15547 1.12299
 C348 C 0.25165 1.14433 1.14569
 N349 N 0.26344 1.12164 1.15682
 C350 C 0.32163 1.11015 1.11142
 C351 C 0.34202 1.10034 1.10150
 C352 C 0.36632 1.08872 1.08972
 N353 N 0.37787 1.10016 1.06720
 N354 N 0.40049 1.08943 1.05631
 C355 C 0.41231 1.06691 1.06759
 N356 N 0.40070 1.05548 1.09013
 N357 N 0.37808 1.06621 1.10102
 N358 N 0.28708 0.88872 0.85458
 C359 C 0.29866 0.87743 0.87717
 N360 N 0.28716 0.85484 0.88841
 N361 N 0.26476 0.84387 0.87739
 C362 C 0.25303 0.85508 0.85472
 N363 N 0.26469 0.87775 0.84357
 C364 C 0.32283 0.88918 0.88898
 C365 C 0.34317 0.89904 0.89887
 C366 C 0.36741 0.91074 0.91061
 N367 N 0.37908 0.89935 0.93312
 N368 N 0.40163 0.91019 0.94398
 C369 C 0.41323 0.93276 0.93268
 N370 N 0.40149 0.94413 0.91015
 N371 N 0.37895 0.93329 0.89929
 N372 N 0.71422 0.85555 1.11183
 C373 C 0.70261 0.87810 1.12311
 N374 N 0.71412 0.88935 1.14571
 N375 N 0.73657 0.87836 1.15671
 C376 C 0.74839 0.85569 1.14555
 N377 N 0.73666 0.84457 1.12283
 C378 C 0.67836 0.88985 1.11132
 C379 C 0.65796 0.89966 1.10143
 C380 C 0.63364 0.91129 1.08967
 N381 N 0.62185 0.93373 1.10105
 N382 N 0.59922 0.94448 1.09017
 C383 C 0.58765 0.93313 1.06757
 N384 N 0.59950 0.91067 1.05621
 N385 N 0.62213 0.89993 1.06709
 N386 N 0.71323 1.11188 0.85525
 C387 C 0.70168 1.12318 0.87783
 N388 N 0.71320 1.14575 0.88906
 N389 N 0.73560 1.15670 0.87803
 C390 C 0.74736 1.14552 0.85533
 N391 N 0.73563 1.12284 0.84422
 C392 C 0.67750 1.11144 0.88964
 C393 C 0.65715 1.10158 0.89951
 C394 C 0.63291 1.08984 0.91120
 N395 N 0.62120 1.10116 0.93372
 N396 N 0.59864 1.09029 0.94452
 C397 C 0.58706 1.06775 0.93314
 N398 N 0.59883 1.05645 0.91060
 N399 N 0.62138 1.06732 0.89980
 N400 N 0.14491 0.28598 0.11136
 C401 C 0.12232 0.29756 0.12262
 N402 N 0.11105 0.28603 0.14520
 N403 N 0.12205 0.26359 0.15621
 C404 C 0.14472 0.25185 0.14505
 N405 N 0.15590 0.26354 0.12237
 C406 C 0.11056 0.32179 0.11083
 C407 C 0.10072 0.34219 0.10094
 C408 C 0.08905 0.36649 0.08920
 N409 N 0.06661 0.37826 0.10060
 N410 N 0.05583 0.40089 0.08974
 C411 C 0.06716 0.41248 0.06715
 N412 N 0.08962 0.40065 0.05577
 N413 N 0.10040 0.37802 0.06662
 N414 N -0.14596 0.28694 -0.11064
 C415 C -0.12337 0.29838 -0.12195
 N416 N -0.11213 0.28675 -0.14452
 N417 N -0.12316 0.26434 -0.15546
 C418 C -0.14582 0.25274 -0.14424
 N419 N -0.15697 0.26453 -0.12159
 C420 C -0.11155 0.32258 -0.11024
 C421 C -0.10162 0.34293 -0.10047
 C422 C -0.08980 0.36718 -0.08889
 N423 N -0.06729 0.37863 -0.10037
 N424 N -0.05635 0.40120 -0.08967
 C425 C -0.06758 0.41304 -0.06713
 N426 N -0.09012 0.40153 -0.05567
 N427 N -0.10105 0.37897 -0.06638
 N428 N 0.11159 0.71313 -0.14556
 C429 C 0.12287 0.70153 -0.12297
 N430 N 0.14545 0.71303 -0.11169
 N431 N 0.15642 0.73544 -0.12268
 C432 C 0.14523 0.74719 -0.14535
 N433 N 0.12257 0.73554 -0.15654
 C434 C 0.11111 0.67734 -0.11121
 C435 C 0.10125 0.65699 -0.10136
 C436 C 0.08953 0.63274 -0.08966
 N437 N 0.10090 0.62104 -0.06716
 N438 N 0.09006 0.59848 -0.05634
 C439 C 0.06750 0.58689 -0.06767
 N440 N 0.05614 0.59866 -0.09020
 N441 N 0.06699 0.62122 -0.10102
 N442 N -0.11078 0.71422 0.14503
 C443 C -0.12203 0.70267 0.12244
 N444 N -0.14463 0.71422 0.11117
 N445 N -0.15566 0.73664 0.12218
 C446 C -0.14451 0.74834 0.14486
 N447 N -0.12182 0.73663 0.15603
 C448 C -0.11023 0.67845 0.11067
 C449 C -0.10035 0.65807 0.10081
 C450 C -0.08866 0.63377 0.08910
 N451 N -0.10005 0.62217 0.06658
 N452 N -0.08926 0.59955 0.05575
 C453 C -0.06674 0.58779 0.06710
 N454 N -0.05536 0.59945 0.08964
 N455 N -0.06616 0.62208 0.10046
 N456 N 1.11081 0.14535 0.71373
 C457 C 1.12212 0.12275 0.70223
 N458 N 1.14470 0.11152 0.71383
 N459 N 1.15565 0.12256 0.73625
 C460 C 1.14447 0.14526 0.74797
 N461 N 1.12177 0.15637 0.73616
 C462 C 1.11039 0.11093 0.67800
 C463 C 1.10058 0.10102 0.65762
 C464 C 1.08894 0.08926 0.63333
 N465 N 1.10036 0.06673 0.62174
 N466 N 1.08959 0.05586 0.59914
 C467 C 1.06705 0.06718 0.58738
 N468 N 1.05565 0.08972 0.59903
 N469 N 1.06642 0.10058 0.62164
 N470 N 0.88920 -0.14537 0.71382
 C471 C 0.87792 -0.12276 0.70232
 N472 N 0.85537 -0.11149 0.71394
 N473 N 0.84443 -0.12250 0.73638
 C474 C 0.85559 -0.14522 0.74810
 N475 N 0.87826 -0.15638 0.73627
 C476 C 0.88962 -0.11096 0.67808
 C477 C 0.89941 -0.10106 0.65769
 C478 C 0.91104 -0.08932 0.63338
 N479 N 0.89960 -0.06681 0.62178
 N480 N 0.91035 -0.05595 0.59916
 C481 C 0.93288 -0.06727 0.58740
 N482 N 0.94430 -0.08981 0.59906
 N483 N 0.93355 -0.10066 0.62168
 N484 N 1.11106 -0.14578 0.28632
 C485 C 1.12231 -0.12320 0.29783
 N486 N 1.14486 -0.11199 0.28624
 N487 N 1.15585 -0.12305 0.26382
 C488 C 1.14470 -0.14572 0.25215
 N489 N 1.12205 -0.15683 0.26390
 C490 C 1.11055 -0.11135 0.32204
 C491 C 1.10073 -0.10141 0.34241
 C492 C 1.08907 -0.08960 0.36670
 N493 N 1.10047 -0.06711 0.37828
 N494 N 1.08969 -0.05620 0.40088
 C495 C 1.06717 -0.06745 0.41263
 N496 N 1.05580 -0.08996 0.40099
 N497 N 1.06658 -0.10087 0.37839
 N498 N 0.85463 0.11179 0.28633
 C499 C 0.87721 0.12298 0.29788
 N500 N 0.88844 0.14554 0.28635
 N501 N 0.87741 0.15659 0.26394
 C502 C 0.85472 0.14553 0.25218
 N503 N 0.84361 0.12285 0.26392
 C504 C 0.88901 0.11113 0.32208
 C505 C 0.89889 0.10121 0.34245
 C506 C 0.91061 0.08943 0.36672
 N507 N 0.93311 0.10073 0.37837
 N508 N 0.94395 0.08985 0.40097
 C509 C 0.93262 0.06732 0.41264
 N510 N 0.91010 0.05604 0.40092
 N511 N 0.89926 0.06693 0.37833
 N512 N 0.14448 0.28581 -0.11197
 C513 C 0.12190 0.29740 -0.12323
 N514 N 0.11064 0.28588 -0.14582
 N515 N 0.12164 0.26344 -0.15683
 C516 C 0.14433 0.25165 -0.14570
 N517 N 0.15547 0.26338 -0.12299
 C518 C 0.11015 0.32163 -0.11142
 C519 C 0.10034 0.34202 -0.10151
 C520 C 0.08872 0.36632 -0.08972
 N521 N 0.06621 0.37808 -0.10102
 N522 N 0.05548 0.40070 -0.09013
 C523 C 0.06691 0.41231 -0.06760
 N524 N 0.08943 0.40050 -0.05631
 N525 N 0.10016 0.37787 -0.06721
 N526 N -0.14516 0.28716 0.11158
 C527 C -0.12257 0.29866 0.12282
 N528 N -0.11128 0.28708 0.14541
 N529 N -0.12225 0.26469 0.15643
 C530 C -0.14492 0.25303 0.14527
 N531 N -0.15613 0.26476 0.12260
 C532 C -0.11082 0.32283 0.11101
 C533 C -0.10096 0.34317 0.10112
 C534 C -0.08926 0.36741 0.08938
 N535 N -0.06671 0.37895 0.10071
 N536 N -0.05587 0.40149 0.08985
 C537 C -0.06724 0.41323 0.06732
 N538 N -0.08981 0.40163 0.05601
 N539 N -0.10065 0.37908 0.06687
 N540 N -0.14445 0.71422 -0.11183
 C541 C -0.12190 0.70261 -0.12311
 N542 N -0.11065 0.71412 -0.14572
 N543 N -0.12164 0.73657 -0.15671
 C544 C -0.14431 0.74839 -0.14556
 N545 N -0.15543 0.73667 -0.12284
 C546 C -0.11015 0.67836 -0.11133
 C547 C -0.10034 0.65796 -0.10143
 C548 C -0.08871 0.63364 -0.08967
 N549 N -0.06627 0.62185 -0.10105
 N550 N -0.05552 0.59922 -0.09018
 C551 C -0.06687 0.58765 -0.06758
 N552 N -0.08933 0.59951 -0.05622
 N553 N -0.10007 0.62214 -0.06710
 N554 N 0.14575 0.71320 0.11093
 C555 C 0.12318 0.70168 0.12217
 N556 N 0.11188 0.71323 0.14475
 N557 N 0.12284 0.73562 0.15577
 C558 C 0.14552 0.74736 0.14467
 N559 N 0.15670 0.73560 0.12197
 C560 C 0.11144 0.67750 0.11035
 C561 C 0.10158 0.65715 0.10048
 C562 C 0.08984 0.63291 0.08880
 N563 N 0.06732 0.62138 0.10019
 N564 N 0.05645 0.59883 0.08940
 C565 C 0.06775 0.58706 0.06686
 N566 N 0.09029 0.59864 0.05547
 N567 N 0.10116 0.62120 0.06627
 N568 N 0.28603 1.11105 0.85479
 C569 C 0.29756 1.12232 0.87738
 N570 N 0.28598 1.14491 0.88863
 N571 N 0.26354 1.15590 0.87762
 C572 C 0.25185 1.14472 0.85495
 N573 N 0.26359 1.12205 0.84378
 C574 C 0.32179 1.11056 0.88917
 C575 C 0.34219 1.10072 0.89905
 C576 C 0.36649 1.08906 0.91079
 N577 N 0.37802 1.10040 0.93337
 N578 N 0.40065 1.08962 0.94423
 C579 C 0.41248 1.06716 0.93285
 N580 N 0.40089 1.05583 0.91025
 N581 N 0.37826 1.06661 0.89939
 N582 N 0.28694 0.85405 1.11063
 C583 C 0.29838 0.87663 1.12194
 N584 N 0.28675 0.88787 1.14451
 N585 N 0.26434 0.87685 1.15545
 C586 C 0.25274 0.85418 1.14424
 N587 N 0.26453 0.84303 1.12158
 C588 C 0.32257 0.88845 1.11023
 C589 C 0.34292 0.89838 1.10046
 C590 C 0.36718 0.91020 1.08889
 N591 N 0.37863 0.93271 1.10037
 N592 N 0.40120 0.94365 1.08966
 C593 C 0.41304 0.93242 1.06713
 N594 N 0.40153 0.90988 1.05566
 N595 N 0.37896 0.89895 1.06637
 N596 N 0.71312 1.11159 1.14555
 C597 C 0.70153 1.12287 1.12297
 N598 N 0.71303 1.14545 1.11169
 N599 N 0.73544 1.15642 1.12268
 C600 C 0.74719 1.14523 1.14535
 N601 N 0.73554 1.12257 1.15653
 C602 C 0.67734 1.11111 1.11120
 C603 C 0.65699 1.10125 1.10135
 C604 C 0.63274 1.08953 1.08966
 N605 N 0.62103 1.10090 1.06716
 N606 N 0.59848 1.09006 1.05633
 C607 C 0.58689 1.06749 1.06767
 N608 N 0.59866 1.05614 1.09019
 N609 N 0.62122 1.06699 1.10101
 N610 N 0.71422 0.85537 0.88882
 C611 C 0.70267 0.87797 0.87755
 N612 N 0.71422 0.88922 0.85496
 N613 N 0.73663 0.87818 0.84396
 C614 C 0.74834 0.85549 0.85514
 N615 N 0.73664 0.84434 0.87781
 C616 C 0.67845 0.88977 0.88932
 C617 C 0.65807 0.89965 0.89918
 C618 C 0.63377 0.91134 0.91090
 N619 N 0.62208 0.93384 0.89953
 N620 N 0.59945 0.94464 0.91036
 C621 C 0.58779 0.93326 0.93289
 N622 N 0.59955 0.91074 0.94424
 N623 N 0.62217 0.89995 0.93341
   
