data_POSCAR
  _audit_creation_date              2014-09-24
  _audit_creation_method            'ToBaCCo'
  _symmetry_space_group_name_H-M    'P1'
  _symmetry_Int_Tables_number       1
  _symmetry_cell_setting            triclinic
  loop_
  _symmetry_equiv_pos_as_xyz
 x,y,z
_cell_length_a 46.8193
_cell_length_b 44.6089
_cell_length_c 47.4359
_cell_angle_alpha 84.456000
_cell_angle_beta 95.442700
_cell_angle_gamma 96.941900
loop_
  _atom_site_label
  _atom_site_type_symbol
  _atom_site_fract_x
  _atom_site_fract_y
  _atom_site_fract_z
C1 C 0.27874 0.30438 0.23944
 H2 H 0.28252 0.30653 0.26205
 C3 C 0.29583 0.32287 0.22058
 H4 H 0.31266 0.33933 0.22888
 C5 C 0.25297 0.27937 0.20136
 H6 H 0.23674 0.26195 0.19393
 C7 C 0.26975 0.29708 0.18184
 H8 H 0.26583 0.29331 0.15953
 N9 N 0.25768 0.28327 0.22958
 C10 C 0.19887 0.26203 0.29702
 H11 H 0.19752 0.23755 0.29904
 C12 C 0.18301 0.27677 0.31383
 H13 H 0.16958 0.26338 0.32885
 C14 C 0.21786 0.30904 0.27467
 H15 H 0.23105 0.32156 0.25906
 C16 C 0.20244 0.32471 0.29107
 H17 H 0.20427 0.34921 0.28799
 Zn18 Zn 0.23694 0.25669 0.25611
 N19 N 0.21616 0.27828 0.27819
 C20 C 0.26610 0.23395 0.30822
 N21 N 0.26441 0.23545 0.27933
 C22 C 0.28287 0.22193 0.26555
 C23 C 0.30339 0.20517 0.28083
 C24 C 0.28634 0.21734 0.32439
 C25 C 0.18782 0.24006 0.21973
 C26 C 0.16892 0.22095 0.20299
 C27 C 0.19546 0.17926 0.22196
 C28 C 0.21366 0.19908 0.23846
 N29 N 0.21010 0.22904 0.23645
 H30 H 0.25170 0.24540 0.31881
 H31 H 0.28132 0.22385 0.24256
 H32 H 0.31752 0.19426 0.26929
 H33 H 0.28708 0.21606 0.34735
 H34 H 0.18529 0.26393 0.21875
 H35 H 0.15188 0.23036 0.18914
 H36 H 0.19920 0.15566 0.22335
 H37 H 0.23099 0.19053 0.25238
 C38 C 0.18481 0.30858 0.31109
 C39 C 0.29163 0.31908 0.19137
 C40 C 0.17306 0.19023 0.20351
 C41 C 0.30516 0.20242 0.31068
 C42 C 0.80286 0.78880 0.24101
 H43 H 0.81271 0.77609 0.25907
 C44 C 0.82061 0.80676 0.22255
 H45 H 0.84377 0.80687 0.22667
 C46 C 0.76111 0.80471 0.21463
 H47 H 0.73793 0.80409 0.21170
 C48 C 0.77810 0.82353 0.19585
 H49 H 0.76750 0.83678 0.17850
 N50 N 0.77362 0.78718 0.23631
 C51 C 0.70857 0.76504 0.29750
 H52 H 0.70502 0.74062 0.29748
 C53 C 0.69180 0.78005 0.31315
 H54 H 0.67536 0.76691 0.32519
 C55 C 0.73430 0.81167 0.28152
 H56 H 0.75097 0.82385 0.26920
 C57 C 0.71803 0.82761 0.29683
 H58 H 0.72236 0.85206 0.29602
 Zn59 Zn 0.75058 0.75946 0.26066
 N60 N 0.72928 0.78097 0.28208
 C61 C 0.77653 0.73566 0.31407
 N62 N 0.77551 0.73591 0.28528
 C63 C 0.79276 0.71959 0.27279
 C64 C 0.81186 0.70207 0.28924
 C65 C 0.79535 0.71826 0.33145
 C66 C 0.70287 0.74461 0.22072
 C67 C 0.68407 0.72573 0.20362
 C68 C 0.70816 0.68319 0.22487
 C69 C 0.72624 0.70276 0.24167
 N70 N 0.72404 0.73308 0.23873
 H71 H 0.76287 0.74900 0.32362
 H72 H 0.79171 0.72031 0.24985
 H73 H 0.82527 0.68933 0.27864
 H74 H 0.79587 0.71832 0.35431
 H75 H 0.70042 0.76845 0.21965
 H76 H 0.66776 0.73545 0.18903
 H77 H 0.71079 0.65927 0.22732
 H78 H 0.74199 0.69346 0.25700
 C79 C 0.69636 0.81180 0.31288
 C80 C 0.80837 0.82415 0.19920
 C81 C 0.68702 0.69464 0.20519
 C82 C 0.81336 0.70118 0.31901
 C83 C 0.77878 0.30311 0.74038
 H84 H 0.78252 0.30533 0.76298
 C85 C 0.79591 0.32153 0.72152
 H86 H 0.81275 0.33799 0.72980
 C87 C 0.75304 0.27801 0.70234
 H88 H 0.73680 0.26060 0.69493
 C89 C 0.76988 0.29564 0.68281
 H90 H 0.76598 0.29181 0.66051
 N91 N 0.75770 0.28200 0.73054
 C92 C 0.69889 0.26128 0.79804
 H93 H 0.69751 0.23679 0.80023
 C94 C 0.68304 0.27620 0.81471
 H95 H 0.66960 0.26294 0.82981
 C96 C 0.71789 0.30811 0.77537
 H97 H 0.73107 0.32049 0.75968
 C98 C 0.70250 0.32395 0.79164
 H99 H 0.70434 0.34844 0.78837
 Zn100 Zn 0.73688 0.25557 0.75712
 N101 N 0.71618 0.27735 0.77911
 C102 C 0.76599 0.23270 0.80924
 N103 N 0.76428 0.23427 0.78037
 C104 C 0.78265 0.22071 0.76657
 C105 C 0.80310 0.20380 0.78176
 C106 C 0.78612 0.21595 0.82540
 C107 C 0.68780 0.23894 0.72064
 C108 C 0.66891 0.21980 0.70393
 C109 C 0.69522 0.17806 0.72328
 C110 C 0.71342 0.19792 0.73973
 N111 N 0.70997 0.22792 0.73752
 H112 H 0.75164 0.24422 0.81984
 H113 H 0.78110 0.22271 0.74357
 H114 H 0.81703 0.19302 0.76987
 H115 H 0.78663 0.21485 0.84835
 H116 H 0.68536 0.26285 0.71951
 H117 H 0.65197 0.22920 0.68994
 H118 H 0.69888 0.15443 0.72482
 H119 H 0.73066 0.18937 0.75378
 C120 C 0.68485 0.30800 0.81174
 C121 C 0.79175 0.31765 0.69232
 C122 C 0.67296 0.18903 0.70464
 C123 C 0.80498 0.20077 0.81175
 C124 C 0.30113 0.79094 0.74203
 H125 H 0.31094 0.77974 0.76104
 C126 C 0.31879 0.80869 0.72335
 H127 H 0.34199 0.81044 0.72805
 C128 C 0.25926 0.80299 0.71322
 H129 H 0.23608 0.80075 0.70929
 C130 C 0.27617 0.82145 0.69414
 H131 H 0.26575 0.83294 0.67551
 N132 N 0.27193 0.78749 0.73628
 C133 C 0.20752 0.76514 0.79808
 H134 H 0.20438 0.74068 0.79853
 C135 C 0.19067 0.78017 0.81364
 H136 H 0.17459 0.76698 0.82609
 C137 C 0.23227 0.81189 0.78097
 H138 H 0.24854 0.82411 0.76820
 C139 C 0.21588 0.82783 0.79616
 H140 H 0.21977 0.85233 0.79484
 Zn141 Zn 0.24935 0.75973 0.76090
 N142 N 0.22781 0.78113 0.78219
 C143 C 0.27549 0.73603 0.81431
 N144 N 0.27481 0.73682 0.78550
 C145 C 0.29285 0.72151 0.77292
 C146 C 0.31231 0.70436 0.78928
 C147 C 0.29466 0.71897 0.83160
 C148 C 0.20097 0.74387 0.72223
 C149 C 0.18225 0.72476 0.70528
 C150 C 0.20843 0.68304 0.72472
 C151 C 0.22642 0.70282 0.74138
 N152 N 0.22310 0.73286 0.73926
 H153 H 0.26124 0.74862 0.82394
 H154 H 0.29208 0.72270 0.74997
 H155 H 0.32630 0.69237 0.77860
 H156 H 0.29484 0.71852 0.85448
 H157 H 0.19773 0.76747 0.72183
 H158 H 0.16515 0.73409 0.69146
 H159 H 0.21195 0.65936 0.72649
 H160 H 0.24306 0.69390 0.75590
 C161 C 0.19469 0.81197 0.81275
 C162 C 0.30638 0.82380 0.69877
 C163 C 0.18626 0.69399 0.70601
 C164 C 0.31339 0.70282 0.81906
 C165 C 0.02530 -0.02967 -0.03637
 C166 C 0.04388 -0.00905 -0.01617
 C167 C 0.02852 0.00755 -0.00173
 C168 C -0.00434 0.00205 -0.00898
 C169 C 0.00396 -0.04897 -0.01747
 C170 C -0.01154 -0.03242 -0.00312
 C171 C 0.00693 -0.00860 -0.05569
 C172 C -0.00860 0.00806 -0.04149
 H173 H 0.06716 -0.00842 -0.01302
 H174 H -0.01691 0.01550 0.00281
 H175 H 0.00181 -0.07350 -0.01506
 H176 H 0.00625 -0.00725 -0.07866
 C177 C 0.02927 0.46659 0.47623
 C178 C 0.04826 0.48493 0.49802
 C179 C 0.03352 0.50202 0.51258
 C180 C 0.00083 0.49900 0.50415
 C181 C 0.00604 0.44784 0.49331
 C182 C -0.00877 0.46473 0.50803
 C183 C 0.01306 0.48988 0.45733
 C184 C -0.00192 0.50684 0.47178
 H185 H 0.07142 0.48453 0.50135
 H186 H -0.01129 0.51279 0.51606
 H187 H 0.00202 0.42336 0.49409
 H188 H 0.01294 0.49207 0.43438
 C189 C 0.52659 -0.03023 0.46372
 C190 C 0.54502 -0.01005 0.48441
 C191 C 0.52954 0.00645 0.49883
 C192 C 0.49675 0.00127 0.49111
 C193 C 0.50483 -0.04965 0.48209
 C194 C 0.48924 -0.03322 0.49647
 C195 C 0.50862 -0.00877 0.44442
 C196 C 0.49297 0.00777 0.45862
 H197 H 0.56827 -0.00956 0.48780
 H198 H 0.48410 0.01466 0.50288
 H199 H 0.50249 -0.07419 0.48413
 H200 H 0.50824 -0.00712 0.42146
 C201 C 0.52923 0.46769 -0.02466
 C202 C 0.54830 0.48592 -0.00284
 C203 C 0.53366 0.50309 0.01174
 C204 C 0.50097 0.50022 0.00331
 C205 C 0.50594 0.44903 -0.00759
 C206 C 0.49122 0.46598 0.00715
 C207 C 0.51313 0.49109 -0.04353
 C208 C 0.49824 0.50811 -0.02905
 H209 H 0.57146 0.48544 0.00047
 H210 H 0.48893 0.51406 0.01525
 H211 H 0.50180 0.42456 -0.00684
 H212 H 0.51301 0.49331 -0.06648
 C213 C 0.14391 -0.14117 -0.14207
 N214 N 0.14044 -0.17191 -0.14054
 N215 N 0.15657 -0.18678 -0.15483
 C216 C 0.17683 -0.17151 -0.17120
 N217 N 0.18026 -0.14073 -0.17265
 N218 N 0.16412 -0.12585 -0.15838
 C219 C 0.12609 -0.12472 -0.12641
 N220 N 0.12940 -0.09395 -0.12825
 N221 N 0.11324 -0.07899 -0.11407
 C222 C 0.09318 -0.09425 -0.09753
 N223 N 0.08986 -0.12502 -0.09569
 N224 N 0.10601 -0.13998 -0.10988
 C225 C 0.07546 -0.07771 -0.08184
 N226 N 0.05566 -0.09289 -0.06498
 N227 N 0.03972 -0.07786 -0.05063
 C228 C 0.04297 -0.04706 -0.05262
 N229 N 0.06276 -0.03192 -0.06955
 N230 N 0.07871 -0.04695 -0.08388
 C231 C 0.13878 0.35479 0.36159
 N232 N 0.13534 0.32405 0.36298
 N233 N 0.14993 0.30937 0.34696
 C234 C 0.16848 0.32484 0.32889
 N235 N 0.17184 0.35561 0.32755
 N236 N 0.15730 0.37030 0.34359
 C237 C 0.12274 0.37110 0.37918
 N238 N 0.12701 0.40180 0.37832
 N239 N 0.11242 0.41670 0.39414
 C240 C 0.09300 0.40144 0.41138
 N241 N 0.08873 0.37072 0.41226
 N242 N 0.10335 0.35581 0.39646
 C243 C 0.07675 0.41801 0.42853
 N244 N 0.05640 0.40305 0.44491
 N245 N 0.04142 0.41823 0.46012
 C246 C 0.04627 0.44893 0.45956
 N247 N 0.06672 0.46382 0.44325
 N248 N 0.08166 0.44866 0.42801
 C249 C 0.64567 -0.14135 0.35817
 N250 N 0.66630 -0.12605 0.34235
 N251 N 0.68242 -0.14093 0.32805
 C252 C 0.67856 -0.17168 0.32899
 N253 N 0.65789 -0.18694 0.34488
 N254 N 0.64177 -0.17207 0.35919
 C255 C 0.62783 -0.12493 0.37383
 N256 N 0.60736 -0.14020 0.38989
 N257 N 0.59117 -0.12527 0.40406
 C258 C 0.59484 -0.09452 0.40268
 N259 N 0.61531 -0.07925 0.38662
 N260 N 0.63151 -0.09418 0.37246
 C261 C 0.57705 -0.07804 0.41834
 N262 N 0.58059 -0.04729 0.41674
 N263 N 0.56455 -0.03233 0.43104
 C264 C 0.54437 -0.04753 0.44750
 N265 N 0.54084 -0.07831 0.44905
 N266 N 0.55686 -0.09328 0.43474
 C267 C 0.63872 0.35478 -0.13834
 N268 N 0.63526 0.32403 -0.13671
 N269 N 0.64989 0.30916 -0.15254
 C270 C 0.66850 0.32446 -0.17065
 N271 N 0.67188 0.35524 -0.17222
 N272 N 0.65730 0.37011 -0.15638
 C273 C 0.62263 0.37128 -0.12097
 N274 N 0.62693 0.40200 -0.12204
 N275 N 0.61231 0.41706 -0.10641
 C276 C 0.59283 0.40198 -0.08914
 N277 N 0.58853 0.37125 -0.08805
 N278 N 0.60319 0.35617 -0.10366
 C279 C 0.57656 0.41871 -0.07215
 N280 N 0.55618 0.40389 -0.05574
 N281 N 0.54123 0.41920 -0.04062
 C282 C 0.54614 0.44990 -0.04131
 N283 N 0.56662 0.46466 -0.05766
 N284 N 0.58153 0.44937 -0.07281
 C285 C -0.13836 0.14777 -0.14331
 N286 N -0.13980 0.15129 -0.17209
 N287 N -0.15815 0.16877 -0.18669
 C288 C -0.17594 0.18354 -0.17320
 N289 N -0.17427 0.18005 -0.14426
 N290 N -0.15588 0.16253 -0.12962
 C291 C -0.11850 0.12782 -0.12749
 N292 N -0.11694 0.12363 -0.09866
 N293 N -0.09920 0.10501 -0.08459
 C294 C -0.08242 0.08993 -0.09887
 N295 N -0.08397 0.09421 -0.12767
 N296 N -0.10166 0.11279 -0.14170
 C297 C -0.06312 0.06898 -0.08370
 N298 N -0.04716 0.05357 -0.09850
 N299 N -0.02983 0.03428 -0.08504
 C300 C -0.02775 0.02963 -0.05624
 N301 N -0.04368 0.04509 -0.04141
 N302 N -0.06108 0.06441 -0.05489
 C303 C -0.12929 0.64754 0.36806
 N304 N -0.14759 0.66222 0.38090
 N305 N -0.16576 0.67941 0.36543
 C306 C -0.16634 0.68250 0.33657
 N307 N -0.14793 0.66781 0.32391
 N308 N -0.12980 0.65071 0.33931
 C309 C -0.10947 0.62805 0.38459
 N310 N -0.09150 0.61382 0.37096
 N311 N -0.07383 0.59555 0.38546
 C312 C -0.07342 0.59076 0.41416
 N313 N -0.09131 0.60506 0.42790
 N314 N -0.10904 0.62341 0.41336
 C315 C -0.05434 0.56979 0.42962
 N316 N -0.05365 0.56401 0.45832
 N317 N -0.03675 0.54422 0.47186
 C318 C -0.01998 0.52952 0.45720
 N319 N -0.02064 0.53549 0.42856
 N320 N -0.03746 0.55522 0.41505
 C321 C 0.36368 0.14802 0.35692
 N322 N 0.36253 0.15193 0.32814
 N323 N 0.34414 0.16940 0.31357
 C324 C 0.32614 0.18370 0.32716
 N325 N 0.32741 0.17986 0.35602
 N326 N 0.34583 0.16236 0.37063
 C327 C 0.38357 0.12807 0.37271
 N328 N 0.38480 0.12349 0.40151
 N329 N 0.40253 0.10485 0.41556
 C330 C 0.41963 0.09014 0.40129
 N331 N 0.41842 0.09482 0.37253
 N332 N 0.40073 0.11342 0.35851
 C333 C 0.43887 0.06913 0.41645
 N334 N 0.45513 0.05403 0.40167
 N335 N 0.47235 0.03462 0.41512
 C336 C 0.47403 0.02954 0.44389
 N337 N 0.45781 0.04471 0.45870
 N338 N 0.44052 0.06414 0.44523
 C339 C 0.37120 0.64950 -0.13215
 N340 N 0.37105 0.65328 -0.16086
 N341 N 0.35279 0.67032 -0.17618
 C342 C 0.33391 0.68433 -0.16346
 N343 N 0.33415 0.68064 -0.13464
 N344 N 0.35243 0.66352 -0.11926
 C345 C 0.39106 0.62999 -0.11572
 N346 N 0.39121 0.62487 -0.08700
 N347 N 0.40893 0.60644 -0.07256
 C348 C 0.42709 0.59254 -0.08634
 N349 N 0.42697 0.59781 -0.11500
 N350 N 0.40931 0.61617 -0.12940
 C351 C 0.44610 0.57144 -0.07098
 N352 N 0.46307 0.55703 -0.08560
 N353 N 0.47981 0.53717 -0.07217
 C354 C 0.48029 0.53092 -0.04356
 N355 N 0.46344 0.54547 -0.02886
 N356 N 0.44661 0.56537 -0.04233
 C357 C -0.13967 -0.12858 0.14047
 N358 N -0.12846 -0.14694 0.16208
 N359 N -0.14520 -0.16168 0.18126
 C360 C -0.17394 -0.15900 0.17952
 N361 N -0.18511 -0.14046 0.15783
 N362 N -0.16828 -0.12542 0.13876
 C363 C -0.12110 -0.11343 0.11888
 N364 N -0.12925 -0.08956 0.10122
 N365 N -0.11215 -0.07619 0.08162
 C366 C -0.08650 -0.08647 0.07879
 N367 N -0.07849 -0.11039 0.09637
 N368 N -0.09539 -0.12350 0.11614
 C369 C -0.06762 -0.07237 0.05705
 N370 N -0.04660 -0.08757 0.04932
 N371 N -0.02906 -0.07495 0.02991
 C372 C -0.03166 -0.04652 0.01768
 N373 N -0.05263 -0.03122 0.02548
 N374 N -0.07043 -0.04400 0.04470
 C375 C -0.15302 0.36649 0.63515
 N376 N -0.15438 0.37606 0.66126
 N377 N -0.17209 0.36074 0.67938
 C378 C -0.18922 0.33538 0.67202
 N379 N -0.18795 0.32605 0.64579
 N380 N -0.17015 0.34123 0.62776
 C381 C -0.13271 0.38243 0.61549
 N382 N -0.12784 0.36961 0.59184
 N383 N -0.10878 0.38340 0.57435
 C384 C -0.09404 0.41064 0.57972
 N385 N -0.09906 0.42362 0.60326
 N386 N -0.11799 0.40971 0.62089
 C387 C -0.07242 0.42517 0.56074
 N388 N -0.06047 0.45419 0.56321
 N389 N -0.04046 0.46694 0.54621
 C390 C -0.03150 0.45106 0.52631
 N391 N -0.04350 0.42206 0.52389
 N392 N -0.06364 0.40940 0.54070
 C393 C 0.35935 -0.13010 0.63828
 N394 N 0.36908 -0.15212 0.65721
 N395 N 0.35232 -0.16636 0.67661
 C396 C 0.32506 -0.15934 0.67774
 N397 N 0.31526 -0.13730 0.65873
 N398 N 0.33216 -0.12283 0.63944
 C399 C 0.37795 -0.11511 0.61665
 N400 N 0.37176 -0.08893 0.60148
 N401 N 0.38900 -0.07555 0.58199
 C402 C 0.41283 -0.08807 0.57682
 N403 N 0.41887 -0.11429 0.59190
 N404 N 0.40184 -0.12748 0.61153
 C405 C 0.43200 -0.07375 0.55540
 N406 N 0.45175 -0.08964 0.54626
 N407 N 0.46964 -0.07681 0.52724
 C408 C 0.46866 -0.04750 0.51679
 N409 N 0.44892 -0.03154 0.52596
 N410 N 0.43080 -0.04448 0.54483
 C411 C 0.34681 0.36802 0.13421
 N412 N 0.32960 0.34283 0.12676
 N413 N 0.31181 0.32763 0.14479
 C414 C 0.31063 0.33686 0.17107
 N415 N 0.32784 0.36215 0.17849
 N416 N 0.34553 0.37749 0.16037
 C417 C 0.36712 0.38396 0.11455
 N418 N 0.38195 0.41116 0.12002
 N419 N 0.40090 0.42506 0.10239
 C420 C 0.40582 0.41213 0.07879
 N421 N 0.39095 0.38497 0.07334
 N422 N 0.37188 0.37121 0.09084
 C423 C 0.42746 0.42661 0.05982
 N424 N 0.43613 0.41085 0.03972
 N425 N 0.45630 0.42345 0.02292
 C426 C 0.46844 0.45239 0.02541
 N427 N 0.45960 0.46828 0.04537
 N428 N 0.43955 0.45558 0.06236
 C429 C 0.12477 0.13412 0.14594
 N430 N 0.11578 0.16090 0.15062
 N431 N 0.13083 0.17858 0.16922
 C432 C 0.15531 0.17006 0.18396
 N433 N 0.16402 0.14311 0.17941
 N434 N 0.14911 0.12553 0.16074
 C435 C 0.10931 0.11515 0.12447
 N436 N 0.12145 0.09146 0.11661
 N437 N 0.10812 0.07460 0.09658
 C438 C 0.08205 0.08066 0.08374
 N439 N 0.06974 0.10423 0.09170
 N440 N 0.08320 0.12127 0.11165
 C441 C 0.06788 0.06208 0.06137
 N442 N 0.04000 0.06426 0.05126
 N443 N 0.02741 0.04699 0.03112
 C444 C 0.04232 0.02714 0.02020
 N445 N 0.07021 0.02514 0.03026
 N446 N 0.08271 0.04220 0.05049
 C447 C 0.13619 0.63577 0.65140
 N448 N 0.16064 0.62745 0.66615
 N449 N 0.17623 0.64584 0.68368
 C450 C 0.16812 0.67339 0.68711
 N451 N 0.14358 0.68173 0.67234
 N452 N 0.12785 0.66323 0.65486
 C453 C 0.11971 0.61554 0.63153
 N454 N 0.09358 0.62164 0.61874
 N455 N 0.07912 0.60327 0.60038
 C456 C 0.09038 0.57829 0.59405
 N457 N 0.11647 0.57226 0.60686
 N458 N 0.13081 0.59048 0.62530
 C459 C 0.07517 0.55833 0.57326
 N460 N 0.08887 0.53658 0.56386
 N461 N 0.07556 0.51867 0.54464
 C462 C 0.04794 0.52166 0.53420
 N463 N 0.03412 0.54329 0.54375
 N464 N 0.04753 0.56139 0.56287
 C465 C 0.62484 0.13273 0.64713
 N466 N 0.64901 0.12408 0.66220
 N467 N 0.66386 0.14171 0.68085
 C468 C 0.65524 0.16879 0.68513
 N469 N 0.63092 0.17738 0.67012
 N470 N 0.61594 0.15964 0.65154
 C471 C 0.60947 0.11370 0.62566
 N472 N 0.58353 0.11996 0.61252
 N473 N 0.57018 0.10290 0.59254
 C474 C 0.58244 0.07915 0.58486
 N475 N 0.60834 0.07294 0.59802
 N476 N 0.62155 0.08983 0.61809
 C477 C 0.56842 0.06058 0.56242
 N478 N 0.58326 0.04055 0.55179
 N479 N 0.57090 0.02358 0.53143
 C480 C 0.54316 0.02583 0.52099
 N481 N 0.52824 0.04583 0.53167
 N482 N 0.54068 0.06301 0.55195
 C483 C 0.63683 0.63675 0.15037
 N484 N 0.62906 0.66460 0.15324
 N485 N 0.64483 0.68301 0.17076
 C486 C 0.66885 0.67419 0.18618
 N487 N 0.67640 0.64626 0.18334
 N488 N 0.66077 0.62795 0.16575
 C489 C 0.62030 0.61658 0.13047
 N490 N 0.63105 0.59114 0.12469
 N491 N 0.61665 0.57294 0.10626
 C492 C 0.59085 0.57936 0.09304
 N493 N 0.57994 0.60472 0.09893
 N494 N 0.59446 0.62307 0.11727
 C495 C 0.57555 0.55940 0.07229
 N496 N 0.54803 0.56275 0.06169
 N497 N 0.53454 0.54464 0.04261
 C498 C 0.54816 0.52271 0.03332
 N499 N 0.57566 0.51943 0.04397
 N500 N 0.58906 0.53735 0.06315
   
