data_POSCAR
  _audit_creation_date              2014-09-24
  _audit_creation_method            'ToBaCCo'
  _symmetry_space_group_name_H-M    'P1'
  _symmetry_Int_Tables_number       1
  _symmetry_cell_setting            triclinic
  loop_
  _symmetry_equiv_pos_as_xyz
 x,y,z
_cell_length_a 38.1392
_cell_length_b 38.0515
_cell_length_c 16.4148
_cell_angle_alpha 89.904400
_cell_angle_beta 90.095300
_cell_angle_gamma 120.010900
loop_
  _atom_site_label
  _atom_site_type_symbol
  _atom_site_fract_x
  _atom_site_fract_y
  _atom_site_fract_z
C1 C 0.48175 0.96364 0.54435
 C2 C 0.48197 0.96371 0.45850
 C3 C 0.50039 1.00070 0.41634
 C4 C 0.51878 1.03771 0.45847
 C5 C 0.51885 1.03766 0.54449
 C6 C 0.50026 1.00060 0.58662
 H7 H 0.50020 1.00052 0.65281
 H8 H 0.50037 1.00061 0.35018
 C9 C 0.03623 0.51798 0.54053
 C10 C 0.03618 0.51809 0.45479
 C11 C -0.00071 0.49954 0.41255
 C12 C -0.03761 0.48101 0.45477
 C13 C -0.03753 0.48123 0.54067
 C14 C -0.00060 0.49964 0.58279
 H15 H -0.00053 0.49969 0.64890
 H16 H -0.00062 0.49957 0.34640
 C17 C 0.48167 0.51859 0.54608
 C18 C 0.48154 0.51840 0.46020
 C19 C 0.50006 0.49998 0.41825
 C20 C 0.51857 0.48157 0.46058
 C21 C 0.51841 0.48142 0.54645
 C22 C 0.50004 0.50001 0.58850
 H23 H 0.50003 0.50002 0.65469
 H24 H 0.50007 0.49997 0.35213
 O25 O 0.39314 0.66871 -0.09479
 O26 O 0.39486 0.73738 -0.06998
 C27 C 0.36970 0.74345 -0.10941
 O28 O 0.33204 0.72476 -0.09537
 O29 O 0.26350 0.65778 -0.07060
 C30 C 0.25750 0.62650 -0.10979
 O31 O 0.27613 0.60745 -0.09538
 O32 O 0.34291 0.60571 -0.06979
 C33 C 0.37415 0.63097 -0.10896
 O34 O 0.39464 0.65757 0.06717
 O35 O 0.39306 0.72457 0.09194
 C36 C 0.37409 0.74328 0.10607
 O37 O 0.34295 0.73737 0.06657
 O38 O 0.27606 0.66876 0.09135
 C39 C 0.25732 0.63101 0.10556
 O40 O 0.26329 0.60574 0.06639
 O41 O 0.33171 0.60733 0.09200
 C42 C 0.36935 0.62633 0.10648
 Cr43 Cr 0.39164 0.69591 -0.00143
 Cr44 Cr 0.30478 0.69602 -0.00201
 Cr45 Cr 0.30466 0.60885 -0.00170
 O46 O 0.33369 0.66693 -0.00173
 O47 O 0.60689 0.33130 -0.09242
 O48 O 0.60518 0.26262 -0.06740
 C49 C 0.63033 0.25660 -0.10671
 O50 O 0.66799 0.27525 -0.09248
 O51 O 0.73653 0.34221 -0.06774
 C52 C 0.74247 0.37347 -0.10711
 O53 O 0.72387 0.39254 -0.09280
 O54 O 0.65713 0.39429 -0.06747
 C55 C 0.62587 0.36904 -0.10668
 O56 O 0.60546 0.34235 0.06950
 O57 O 0.60702 0.27532 0.09451
 C58 C 0.62601 0.25662 0.10882
 O59 O 0.65715 0.26257 0.06948
 O60 O 0.72406 0.33117 0.09422
 C61 C 0.74280 0.36891 0.10834
 O62 O 0.73680 0.39420 0.06903
 O63 O 0.66839 0.39259 0.09437
 C64 C 0.63076 0.37358 0.10876
 Cr65 Cr 0.60843 0.30404 0.00104
 Cr66 Cr 0.69529 0.30395 0.00087
 Cr67 Cr 0.69540 0.39111 0.00079
 O68 O 0.66637 0.33303 0.00090
 C69 C 0.46380 0.92833 -0.41192
 C70 C 0.44821 0.89783 -0.37128
 C71 C 0.43036 0.86304 -0.32107
 C72 C 0.41557 0.83418 -0.27593
 C73 C 0.39884 0.80142 -0.22047
 C74 C 0.38516 0.77440 -0.17093
 C75 C 0.07343 0.53624 -0.41320
 C76 C 0.10378 0.55104 -0.37238
 C77 C 0.13842 0.56787 -0.32198
 C78 C 0.16717 0.58184 -0.27672
 C79 C 0.19979 0.59778 -0.22111
 C80 C 0.22670 0.61107 -0.17146
 C81 C 0.46443 0.53659 -0.41036
 C82 C 0.44964 0.55225 -0.36989
 C83 C 0.43282 0.57018 -0.31988
 C84 C 0.41885 0.58504 -0.27492
 C85 C 0.40291 0.60182 -0.21966
 C86 C 0.38962 0.61553 -0.17029
 C87 C 0.53671 0.07283 -0.41130
 C88 C 0.55220 0.10315 -0.37025
 C89 C 0.56993 0.13771 -0.31955
 C90 C 0.58463 0.16638 -0.27403
 C91 C 0.60126 0.19893 -0.21818
 C92 C 0.61489 0.22579 -0.16840
 C93 C 0.92542 0.46307 -0.41260
 C94 C 0.89524 0.44839 -0.37137
 C95 C 0.86082 0.43170 -0.32050
 C96 C 0.83227 0.41784 -0.27486
 C97 C 0.79987 0.40203 -0.21887
 C98 C 0.77312 0.38884 -0.16896
 C99 C 0.53564 0.46342 -0.40963
 C100 C 0.55042 0.44777 -0.36885
 C101 C 0.56722 0.42986 -0.31851
 C102 C 0.58118 0.41500 -0.27329
 C103 C 0.59711 0.39821 -0.21777
 C104 C 0.61040 0.38450 -0.16820
 C105 C 0.92718 0.46303 0.41101
 C106 C 0.89677 0.44741 0.37033
 C107 C 0.86208 0.42954 0.32007
 C108 C 0.83330 0.41472 0.27489
 C109 C 0.80064 0.39799 0.21939
 C110 C 0.77368 0.38432 0.16984
 C111 C 0.53606 0.07291 0.41425
 C112 C 0.55086 0.10325 0.37314
 C113 C 0.56767 0.13782 0.32232
 C114 C 0.58161 0.16648 0.27666
 C115 C 0.59748 0.19900 0.22063
 C116 C 0.61068 0.22584 0.17069
 C117 C 0.53747 0.46336 0.41403
 C118 C 0.55297 0.44864 0.37290
 C119 C 0.57070 0.43192 0.32210
 C120 C 0.58539 0.41803 0.27648
 C121 C 0.60197 0.40219 0.22050
 C122 C 0.61550 0.38898 0.17060
 C123 C 0.07332 0.53703 0.40850
 C124 C 0.10364 0.55260 0.36767
 C125 C 0.13823 0.57043 0.31728
 C126 C 0.16695 0.58522 0.27206
 C127 C 0.19956 0.60193 0.21655
 C128 C 0.22648 0.61559 0.16702
 C129 C 0.46377 0.92658 0.41176
 C130 C 0.44905 0.89634 0.37051
 C131 C 0.43232 0.86186 0.31958
 C132 C 0.41844 0.83326 0.27387
 C133 C 0.40261 0.80081 0.21783
 C134 C 0.38942 0.77401 0.16790
 C135 C 0.46264 0.53659 0.41327
 C136 C 0.44715 0.55130 0.37185
 C137 C 0.42942 0.56801 0.32072
 C138 C 0.41474 0.58188 0.27484
 C139 C 0.39816 0.59771 0.21860
 C140 C 0.38462 0.61093 0.16851
   
