data_POSCAR
  _audit_creation_date              2014-09-24
  _audit_creation_method            'ToBaCCo'
  _symmetry_space_group_name_H-M    'P1'
  _symmetry_Int_Tables_number       1
  _symmetry_cell_setting            triclinic
  loop_
  _symmetry_equiv_pos_as_xyz
 x,y,z
_cell_length_a 12.7059
_cell_length_b 12.7094
_cell_length_c 33.0579
_cell_angle_alpha 89.265600
_cell_angle_beta 90.760800
_cell_angle_gamma 119.687700
loop_
  _atom_site_label
  _atom_site_type_symbol
  _atom_site_fract_x
  _atom_site_fract_y
  _atom_site_fract_z
Si1 Si -0.02143 0.00432 0.49984
 Si2 Si 1.00390 -0.02188 0.16688
 Si3 Si 0.01742 1.01781 0.83331
 O4 O 0.56731 -0.09085 0.03681
 O5 O 0.36505 -0.07324 -0.04095
 O6 O 0.55063 -0.11312 -0.04154
 O7 O 0.34794 -0.12258 0.03661
 O8 O 0.44665 0.07732 0.03969
 O9 O 0.65582 0.08678 -0.03881
 O10 O 0.47146 0.12660 -0.03858
 O11 O 0.66757 0.10937 0.03918
 Cu12 Cu 0.44776 -0.11870 -0.00284
 Cu13 Cu 0.56922 0.11874 0.00068
 C14 C 0.65267 0.00806 0.05104
 C15 C 0.38423 0.03081 -0.05271
 C16 C 0.63864 -0.01352 -0.05300
 C17 C 0.36150 -0.02568 0.05146
 O18 O 0.08662 0.65617 0.70544
 O19 O 0.07738 0.44714 0.62692
 O20 O 0.11032 0.66801 0.62742
 O21 O 0.12681 0.47165 0.70517
 O22 O -0.07300 0.36563 0.70756
 O23 O -0.08979 0.56824 0.62975
 O24 O -0.12265 0.34775 0.63025
 O25 O -0.11330 0.55042 0.70838
 Cu26 Cu 0.11913 0.56964 0.66600
 Cu27 Cu -0.11762 0.44887 0.66941
 C28 C -0.01367 0.63877 0.71973
 C29 C -0.02569 0.36164 0.61528
 C30 C 0.00918 0.65338 0.61551
 C31 C 0.03101 0.38455 0.71930
 O32 O 0.63052 0.55779 0.37522
 O33 O 0.43407 0.34196 0.29707
 O34 O 0.65693 0.52886 0.29845
 O35 O 0.44630 0.33755 0.37597
 O36 O 0.34228 0.43408 0.36961
 O37 O 0.55817 0.63045 0.29156
 O38 O 0.33778 0.44621 0.29065
 O39 O 0.52913 0.65677 0.36826
 Cu40 Cu 0.55122 0.43227 0.33709
 Cu41 Cu 0.43253 0.55111 0.32959
 C42 C 0.61250 0.64452 0.38487
 C43 C 0.35132 0.35797 0.28085
 C44 C 0.64479 0.61231 0.28190
 C45 C 0.35818 0.35123 0.38579
 C46 C -0.13279 0.20829 0.55252
 C47 C -0.03343 0.23168 0.52128
 C48 C -0.04165 0.11046 0.53360
 C49 C -0.14081 0.08606 0.56454
 C50 C 0.05700 0.17598 0.56630
 C51 C 0.06541 0.29726 0.55404
 C52 C -0.03331 0.27265 0.58484
 C53 C -0.04202 0.15184 0.59732
 H54 H -0.21092 0.22307 0.54708
 H55 H -0.03149 0.26476 0.48995
 H56 H -0.22669 -0.00061 0.56853
 H57 H 0.13666 0.16488 0.57284
 H58 H 0.15061 0.38452 0.54983
 H59 H -0.04456 0.11969 0.62886
 C60 C 0.71138 0.76764 0.22007
 C61 C 0.83058 0.88044 0.23265
 C62 C 0.89947 0.85011 0.20090
 C63 C 0.78023 0.73697 0.18833
 C64 C 0.92447 0.77555 0.23275
 C65 C 0.85523 0.80583 0.26456
 C66 C 0.73634 0.69364 0.25181
 C67 C 0.80408 0.66112 0.22048
 H68 H 0.62362 0.76499 0.21484
 H69 H 0.83902 0.96986 0.23852
 H70 H 0.74917 0.70701 0.15691
 H71 H 1.01223 0.77803 0.23763
 H72 H 0.88558 0.83458 0.29615
 H73 H 0.79170 0.56938 0.21568
 C74 C 0.31073 0.15438 -0.10298
 C75 C 0.27281 0.08647 -0.14395
 C76 C 0.13905 0.04085 -0.13386
 C77 C 0.17566 0.10874 -0.09333
 C78 C 0.13019 -0.07262 -0.11298
 C79 C 0.26409 -0.02744 -0.12304
 C80 C 0.30015 0.03981 -0.08264
 C81 C 0.16714 -0.00487 -0.07247
 H82 H 0.38646 0.24805 -0.09847
 H83 H 0.31750 0.12705 -0.17314
 H84 H 0.14020 0.16593 -0.08112
 H85 H 0.05639 -0.16773 -0.11563
 H86 H 0.30005 -0.08428 -0.13521
 H87 H 0.12355 -0.04315 -0.04293
 C88 C 0.10204 0.80715 0.55221
 C89 C -0.00205 0.78030 0.52187
 C90 C 0.00352 0.89967 0.53397
 C91 C 0.10739 0.92735 0.56403
 C92 C -0.09037 0.83226 0.56748
 C93 C -0.09610 0.71263 0.55547
 C94 C 0.00746 0.74063 0.58539
 C95 C 0.01347 0.85961 0.59769
 H96 H 0.18151 0.79577 0.54609
 H97 H -0.00635 0.74700 0.49074
 H98 H 0.19263 1.01505 0.56714
 H99 H -0.17049 0.84177 0.57424
 H100 H -0.18023 0.62400 0.55204
 H101 H 0.01904 0.89165 0.62914
 C102 C 0.29582 0.19871 0.22060
 C103 C 0.17977 0.08206 0.23326
 C104 C 0.10705 0.10685 0.20044
 C105 C 0.22278 0.22328 0.18767
 C106 C 0.07690 0.17820 0.23099
 C107 C 0.14991 0.15367 0.26393
 C108 C 0.26522 0.26938 0.25101
 C109 C 0.19337 0.29568 0.21849
 H110 H 0.38620 0.20703 0.21645
 H111 H 0.17452 -0.00621 0.23981
 H112 H 0.25289 0.25400 0.15626
 H113 H -0.01228 0.17259 0.23492
 H114 H 0.12062 0.12453 0.29553
 H115 H 0.20021 0.38502 0.21258
 C116 C 0.75884 0.05332 -0.12308
 C117 C 0.89387 0.10274 -0.11253
 C118 C 0.88893 -0.00855 -0.13275
 C119 C 0.75411 -0.05830 -0.14331
 C120 C 0.85483 -0.07706 -0.09199
 C121 C 0.85962 0.03426 -0.07179
 C122 C 0.72565 -0.01467 -0.08250
 C123 C 0.71909 -0.12691 -0.10224
 H124 H 0.71907 0.10730 -0.13575
 H125 H 0.96530 0.19880 -0.11560
 H126 H 0.70959 -0.09949 -0.17251
 H127 H 0.89310 -0.13204 -0.07912
 H128 H 0.90288 0.07285 -0.04216
 H129 H 0.64592 -0.22191 -0.09772
 C130 C 0.20785 -0.13304 0.11411
 C131 C 0.23129 -0.03390 0.14544
 C132 C 0.11014 -0.04187 0.13311
 C133 C 0.08571 -0.14082 0.10206
 C134 C 0.17589 0.05695 0.10050
 C135 C 0.29709 0.06513 0.11281
 C136 C 0.27246 -0.03339 0.08190
 C137 C 0.15171 -0.04189 0.06940
 H138 H 0.22244 -0.21130 0.11940
 H139 H 0.26436 -0.03228 0.17677
 H140 H -0.00091 -0.22670 0.09796
 H141 H 0.16482 0.13664 0.09406
 H142 H 0.38427 0.15031 0.11720
 H143 H 0.11948 -0.04457 0.03785
 C144 C 0.66134 0.80365 0.44635
 C145 C 0.73769 0.78016 0.47842
 C146 C 0.85052 0.89960 0.46583
 C147 C 0.77546 0.92422 0.43405
 C148 C 0.88098 0.83098 0.43400
 C149 C 0.76847 0.71159 0.44660
 C150 C 0.69395 0.73617 0.41495
 C151 C 0.80583 0.85524 0.40218
 H152 H 0.56944 0.79088 0.45121
 H153 H 0.70800 0.74905 0.50985
 H154 H 0.77751 1.01176 0.42921
 H155 H 0.97050 0.83968 0.42803
 H156 H 0.76612 0.62397 0.45173
 H157 H 0.83421 0.88553 0.37057
 C158 C -0.02763 0.26445 0.78955
 C159 C -0.07282 0.13057 0.77949
 C160 C 0.04055 0.13943 0.80049
 C161 C 0.08615 0.27317 0.81059
 C162 C 0.10871 0.17597 0.76003
 C163 C -0.00478 0.16747 0.73904
 C164 C 0.03991 0.30046 0.74921
 C165 C 0.15438 0.31103 0.76969
 H166 H -0.08449 0.30059 0.80159
 H167 H -0.16796 0.05673 0.78214
 H168 H 0.12644 0.31786 0.83981
 H169 H 0.16585 0.14032 0.74792
 H170 H -0.04286 0.12395 0.70946
 H171 H 0.24821 0.38668 0.76532
 C172 C 0.85863 0.01160 0.06893
 C173 C 0.92664 0.10595 0.10247
 C174 C 0.89896 0.00256 0.13269
 C175 C 0.83124 -0.09180 0.09931
 C176 C 0.77969 -0.00265 0.14475
 C177 C 0.80658 0.10097 0.11424
 C178 C 0.73980 0.00602 0.08119
 C179 C 0.71170 -0.09713 0.11126
 H180 H 0.89036 0.01657 0.03748
 H181 H 1.01417 0.19129 0.09925
 H182 H 0.84066 -0.17207 0.09273
 H183 H 0.74682 -0.00622 0.17587
 H184 H 0.79509 0.18047 0.12013
 H185 H 0.62311 -0.18127 0.11485
 C186 C 0.15415 0.14943 0.40274
 C187 C 0.17899 0.07720 0.43589
 C188 C 0.10716 0.10733 0.46624
 C189 C 0.08204 0.17926 0.43322
 C190 C 0.22329 0.22347 0.47896
 C191 C 0.29616 0.19410 0.44833
 C192 C 0.26956 0.26518 0.41561
 C193 C 0.19840 0.29573 0.44584
 H194 H 0.12524 0.11952 0.37116
 H195 H 0.17364 -0.01191 0.43217
 H196 H -0.00640 0.17361 0.42654
 H197 H 0.25380 0.25408 0.51035
 H198 H 0.38563 0.20134 0.45444
 H199 H 0.20635 0.38599 0.44981
 C200 C 0.03390 0.85983 0.73840
 C201 C -0.07746 0.85491 0.75864
 C202 C -0.00871 0.88938 0.79936
 C203 C 0.10265 0.89450 0.77911
 C204 C -0.05807 0.75472 0.80998
 C205 C -0.12699 0.71930 0.76895
 C206 C -0.01473 0.72599 0.74918
 C207 C 0.05362 0.75966 0.78972
 H208 H 0.07244 0.90305 0.70878
 H209 H -0.13254 0.89315 0.74581
 H210 H 0.19861 0.96628 0.78220
 H211 H -0.09894 0.71005 0.83919
 H212 H -0.22202 0.64599 0.76451
 H213 H 0.10823 0.72057 0.80239
   
