data_POSCAR
  _audit_creation_date              2014-09-24
  _audit_creation_method            'ToBaCCo'
  _symmetry_space_group_name_H-M    'P1'
  _symmetry_Int_Tables_number       1
  _symmetry_cell_setting            triclinic
  loop_
  _symmetry_equiv_pos_as_xyz
 x,y,z
_cell_length_a 35.8922
_cell_length_b 36.2731
_cell_length_c 45.3232
_cell_angle_alpha 90.169100
_cell_angle_beta 89.982900
_cell_angle_gamma 78.183900
loop_
  _atom_site_label
  _atom_site_type_symbol
  _atom_site_fract_x
  _atom_site_fract_y
  _atom_site_fract_z
C1 C 1.21881 0.23645 0.20460
 C2 C 1.24187 0.25810 0.18552
 C3 C 1.26409 0.27763 0.20097
 C4 C 1.26093 0.27358 0.23484
 C5 C 1.24808 0.21161 0.22437
 C6 C 1.26998 0.23075 0.24050
 C7 C 1.19616 0.26611 0.22546
 C8 C 1.21799 0.28530 0.24162
 H9 H 1.24050 0.25784 0.16165
 H10 H 1.27888 0.28941 0.24766
 H11 H 1.24925 0.18170 0.22689
 H12 H 1.16580 0.26943 0.22889
 C13 C 0.72969 -0.28516 0.20229
 C14 C 0.75210 -0.26236 0.18364
 C15 C 0.77206 -0.24113 0.19961
 C16 C 0.76773 -0.24491 0.23329
 C17 C 0.75900 -0.30837 0.22293
 C18 C 0.77868 -0.28748 0.23950
 C19 C 0.70473 -0.25610 0.22240
 C20 C 0.72454 -0.23529 0.23890
 H21 H 0.75153 -0.26266 0.15974
 H22 H 0.78404 -0.22775 0.24645
 H23 H 0.76131 -0.33836 0.22599
 H24 H 0.67441 -0.25417 0.22503
 C25 C 0.73445 0.21593 -0.29868
 C26 C 0.75558 0.23842 -0.31585
 C27 C 0.77542 0.26116 -0.29837
 C28 C 0.77031 0.25669 -0.26647
 C29 C 0.76252 0.19381 -0.27895
 C30 C 0.78193 0.21618 -0.26070
 C31 C 0.70948 0.24256 -0.27965
 C32 C 0.72905 0.26489 -0.26154
 H33 H 0.75638 0.23791 -0.33977
 H34 H 0.78577 0.27420 -0.25286
 H35 H 0.76604 0.16366 -0.27610
 H36 H 0.67923 0.24323 -0.27756
 C37 C 1.22434 -0.26416 -0.29612
 C38 C 1.24729 -0.24184 -0.31485
 C39 C 1.26898 -0.22222 -0.29895
 C40 C 1.26561 -0.22690 -0.26520
 C41 C 1.25382 -0.28904 -0.27656
 C42 C 1.27520 -0.26981 -0.26002
 C43 C 1.20125 -0.23510 -0.27521
 C44 C 1.22259 -0.21582 -0.25867
 H45 H 1.24637 -0.24159 -0.33873
 H46 H 1.28317 -0.21100 -0.25204
 H47 H 1.25561 -0.31911 -0.27456
 H48 H 1.17081 -0.23212 -0.27234
 C49 C 0.22941 0.21732 0.79904
 C50 C 0.25099 0.23889 0.81654
 C51 C 0.27186 0.26095 0.79956
 C52 C 0.26721 0.25710 0.76769
 C53 C 0.20417 0.24620 0.77901
 C54 C 0.22390 0.26682 0.76229
 C55 C 0.25823 0.19374 0.77802
 C56 C 0.27787 0.21444 0.76126
 H57 H 0.25072 0.23875 0.84045
 H58 H 0.28332 0.27399 0.75415
 H59 H 0.17384 0.24809 0.77656
 H60 H 0.26035 0.16375 0.77498
 C61 C 0.71794 0.73770 0.79568
 C62 C 0.73979 0.75854 0.81383
 C63 C 0.76307 0.77892 0.79740
 C64 C 0.75970 0.77447 0.76523
 C65 C 0.69600 0.76573 0.77594
 C66 C 0.71887 0.78571 0.75866
 C67 C 0.74572 0.71369 0.77688
 C68 C 0.76861 0.73370 0.75968
 H69 H 0.73833 0.75887 0.83774
 H70 H 0.77764 0.79026 0.75237
 H71 H 0.66561 0.76913 0.77257
 H72 H 0.74680 0.68375 0.77425
 C73 C 0.72140 0.23714 0.29491
 C74 C 0.74415 0.25908 0.31408
 C75 C 0.76637 0.27858 0.29870
 C76 C 0.76358 0.27416 0.26484
 C77 C 0.69882 0.26652 0.27396
 C78 C 0.72071 0.28566 0.25790
 C79 C 0.75092 0.21220 0.27528
 C80 C 0.77284 0.23130 0.25923
 H81 H 0.74250 0.25914 0.33795
 H82 H 0.78157 0.28995 0.25208
 H83 H 0.66850 0.26969 0.27039
 H84 H 0.75213 0.18228 0.27269
 C85 C 0.22971 0.71759 0.29837
 C86 C 0.25300 0.74016 0.31650
 C87 C 0.27315 0.76070 0.30010
 C88 C 0.26800 0.75657 0.26649
 C89 C 0.20480 0.74669 0.27842
 C90 C 0.22469 0.76681 0.26142
 C91 C 0.25828 0.69364 0.27745
 C92 C 0.27813 0.71384 0.26045
 H93 H 0.25303 0.74006 0.34040
 H94 H 0.28438 0.77321 0.25296
 H95 H 0.17439 0.74896 0.27614
 H96 H 0.26019 0.66363 0.27473
 O97 O 1.06414 0.03140 0.02574
 O98 O 0.92705 -0.03718 0.02257
 O99 O 0.94570 0.07341 0.02179
 O100 O 1.04590 -0.07955 0.02588
 O101 O 0.92773 0.02549 0.03829
 O102 O 1.06065 -0.02939 0.04189
 O103 O 0.98060 -0.06483 0.03996
 O104 O 1.00940 0.05845 0.04090
 C105 C 1.04414 0.05116 0.04471
 C106 C 0.94567 -0.05625 0.04260
 C107 C 0.93079 0.05842 0.04203
 C108 C 1.06008 -0.06281 0.04574
 O109 O 1.07290 -0.05549 -0.01435
 O110 O 0.92190 0.04823 -0.01984
 O111 O 1.03558 0.06212 -0.01537
 O112 O 0.95982 -0.06998 -0.01744
 O113 O 0.93440 -0.01630 -0.03469
 O114 O 1.06084 0.00789 -0.03151
 O115 O 1.02372 -0.07034 -0.03236
 O116 O 0.97396 0.06226 -0.03356
 Co117 Co 1.05802 -0.01061 0.00518
 Co118 Co 0.93438 0.00433 0.00181
 Co119 Co 0.99170 0.05750 0.00357
 Co120 Co 1.00204 -0.06459 0.00392
 O121 O 0.99648 -0.00336 0.00363
 C122 C 1.05737 -0.06842 -0.03541
 C123 C 0.94028 0.06229 -0.03869
 C124 C 1.05462 0.04227 -0.03473
 C125 C 0.94174 -0.05087 -0.03767
 O126 O 1.06419 0.53433 0.52784
 O127 O 0.92793 0.46544 0.52648
 O128 O 0.94566 0.57632 0.52496
 O129 O 1.04702 0.42322 0.52739
 O130 O 0.92868 0.52814 0.54189
 O131 O 1.06178 0.47325 0.54353
 O132 O 0.98201 0.43753 0.54287
 O133 O 1.00962 0.56125 0.54351
 C134 C 1.04438 0.55369 0.54713
 C135 C 0.94714 0.44613 0.54613
 C136 C 0.93110 0.56128 0.54537
 C137 C 1.06131 0.43980 0.54724
 O138 O 1.07271 0.44805 0.48682
 O139 O 0.92161 0.55074 0.48368
 O140 O 1.03507 0.56563 0.48714
 O141 O 0.95964 0.43281 0.48600
 O142 O 0.93382 0.48638 0.46894
 O143 O 1.05988 0.51166 0.47036
 O144 O 1.02314 0.43273 0.46978
 O145 O 0.97323 0.56525 0.46939
 Co146 Co 1.05807 0.49258 0.50698
 Co147 Co 0.93456 0.50697 0.50539
 Co148 Co 0.99147 0.56048 0.50636
 Co149 Co 1.00245 0.43818 0.50644
 O150 O 0.99659 0.49952 0.50631
 C151 C 1.05668 0.43487 0.46613
 C152 C 0.93963 0.56460 0.46447
 C153 C 1.05385 0.54609 0.46750
 C154 C 0.94150 0.45185 0.46583
 O155 O 0.56193 0.01250 0.53162
 O156 O 0.43632 -0.01369 0.53303
 O157 O 0.47476 0.06545 0.53216
 O158 O 0.52614 -0.06687 0.53234
 O159 O 0.42349 0.05041 0.51774
 O160 O 0.57557 -0.05139 0.51526
 O161 O 0.46280 -0.06746 0.51635
 O162 O 0.53657 0.06608 0.51464
 C163 C 0.55530 0.04698 0.53442
 C164 C 0.44441 -0.04815 0.53639
 C165 C 0.44118 0.06467 0.53697
 C166 C 0.55963 -0.06457 0.53595
 O167 O 0.56468 -0.02686 0.45853
 O168 O 0.43122 0.02661 0.45977
 O169 O 0.51182 0.06062 0.45816
 O170 O 0.48502 -0.06348 0.45931
 O171 O 0.43083 -0.03586 0.47577
 O172 O 0.56643 0.03458 0.47414
 O173 O 0.55005 -0.07685 0.47472
 O174 O 0.44769 0.07535 0.47637
 Co175 Co 0.56055 -0.00709 0.49504
 Co176 Co 0.43704 0.00622 0.49645
 Co177 Co 0.49334 0.06026 0.49526
 Co178 Co 0.50544 -0.06208 0.49571
 O179 O 0.49905 -0.00071 0.49559
 C180 C 0.56423 -0.06035 0.45482
 C181 C 0.43341 0.05975 0.45607
 C182 C 0.54662 0.05352 0.45474
 C183 C 0.45013 -0.05529 0.45614
 O184 O 0.56300 0.50645 0.03003
 O185 O 0.43649 0.48256 0.03239
 O186 O 0.47553 0.56085 0.03226
 O187 O 0.52602 0.42834 0.02979
 O188 O 0.42378 0.54707 0.01771
 O189 O 0.57524 0.44324 0.01201
 O190 O 0.46219 0.42889 0.01495
 O191 O 0.53738 0.56087 0.01464
 C192 C 0.55637 0.54078 0.03381
 C193 C 0.44398 0.44799 0.03522
 C194 C 0.44182 0.56066 0.03708
 C195 C 0.55966 0.43024 0.03295
 O196 O 0.56335 0.47002 -0.04389
 O197 O 0.43034 0.52429 -0.04036
 O198 O 0.51201 0.55774 -0.04197
 O199 O 0.48294 0.43441 -0.04254
 O200 O 0.42943 0.46162 -0.02486
 O201 O 0.56665 0.53080 -0.02672
 O202 O 0.54817 0.41979 -0.02856
 O203 O 0.44811 0.57229 -0.02347
 Co204 Co 0.56041 0.48841 -0.00692
 Co205 Co 0.43665 0.50316 -0.00399
 Co206 Co 0.49380 0.55642 -0.00482
 Co207 Co 0.50435 0.43440 -0.00645
 O208 O 0.49876 0.49559 -0.00556
 C209 C 0.56246 0.43670 -0.04819
 C210 C 0.43337 0.55725 -0.04386
 C211 C 0.54679 0.55075 -0.04556
 C212 C 0.44802 0.44281 -0.04508
 N213 N 1.13686 0.19919 0.17504
 C214 C 1.15446 0.17192 0.15633
 N215 N 1.19276 0.16609 0.15306
 N216 N 1.21292 0.18676 0.16817
 C217 C 1.19546 0.21407 0.18703
 N218 N 1.15702 0.21987 0.19016
 C219 C 1.13294 0.14977 0.13980
 C220 C 1.11579 0.13098 0.12519
 C221 C 1.09685 0.10854 0.10663
 N222 N 1.11765 0.08122 0.08951
 N223 N 1.10057 0.06211 0.07049
 C224 C 1.06208 0.06962 0.06796
 N225 N 1.04119 0.09673 0.08537
 N226 N 1.05833 0.11591 0.10442
 N227 N 1.17744 0.69379 0.64281
 C228 C 1.15638 0.67303 0.65783
 N229 N 1.15735 0.67287 0.68770
 N230 N 1.17875 0.69293 0.70213
 C231 C 1.19998 0.71375 0.68718
 N232 N 1.19884 0.71384 0.65723
 C233 C 1.13439 0.65066 0.64211
 C234 C 1.11694 0.63178 0.62793
 C235 C 1.09775 0.60942 0.60960
 N236 N 1.05923 0.61713 0.60746
 N237 N 1.04187 0.59839 0.58826
 C238 C 1.06254 0.57145 0.57059
 N239 N 1.10103 0.56358 0.57306
 N240 N 1.11833 0.58224 0.59225
 N241 N 0.69885 0.13723 0.66891
 C242 C 0.67194 0.15553 0.65022
 N243 N 0.66621 0.19351 0.64808
 N244 N 0.68663 0.21271 0.66434
 C245 C 0.71362 0.19461 0.68329
 N246 N 0.71927 0.15642 0.68518
 C247 C 0.65014 0.13504 0.63255
 C248 C 0.63183 0.11848 0.61708
 C249 C 0.61027 0.09988 0.59765
 N250 N 0.58497 0.12042 0.57884
 N251 N 0.56668 0.10336 0.55920
 C252 C 0.57309 0.06522 0.55774
 N253 N 0.59818 0.04465 0.57681
 N254 N 0.61652 0.06174 0.59647
 N255 N 0.65167 0.67358 0.17096
 C256 C 0.67095 0.64690 0.15256
 N257 N 0.70924 0.64253 0.15014
 N258 N 0.72776 0.66410 0.16588
 C259 C 0.70854 0.69091 0.18439
 N260 N 0.67016 0.69514 0.18668
 C261 C 0.65069 0.62536 0.13452
 C262 C 0.63307 0.60866 0.11860
 C263 C 0.61171 0.59075 0.09855
 N264 N 0.61833 0.55269 0.09611
 N265 N 0.59991 0.53648 0.07593
 C266 C 0.57439 0.55789 0.05761
 N267 N 0.56765 0.59592 0.06033
 N268 N 0.58600 0.61208 0.08048
 N269 N 0.83270 -0.17131 0.18755
 C270 C 0.83435 -0.17048 0.15763
 N271 N 0.81594 -0.19288 0.14176
 N272 N 0.79639 -0.21535 0.15527
 C273 C 0.79449 -0.21635 0.18517
 N274 N 0.81306 -0.19389 0.20111
 C275 C 0.85510 -0.14642 0.14238
 C276 C 0.87175 -0.12736 0.12760
 C277 C 0.89077 -0.10614 0.10804
 N278 N 0.92932 -0.11302 0.10670
 N279 N 0.94687 -0.09627 0.08633
 C280 C 0.92645 -0.07224 0.06652
 N281 N 0.88786 -0.06516 0.06809
 N282 N 0.87034 -0.08189 0.08846
 N283 N 0.83525 0.32995 0.69166
 C284 C 0.83716 0.33128 0.66176
 N285 N 0.81874 0.30927 0.64552
 N286 N 0.79898 0.28668 0.65862
 C287 C 0.79678 0.28510 0.68851
 N288 N 0.81538 0.30723 0.70483
 C289 C 0.85815 0.35547 0.64682
 C290 C 0.87481 0.37459 0.63207
 C291 C 0.89360 0.39592 0.61235
 N292 N 0.87283 0.42068 0.59329
 N293 N 0.88996 0.43747 0.57270
 C294 C 0.92849 0.42996 0.57036
 N295 N 0.94928 0.40541 0.58965
 N296 N 0.93212 0.38858 0.61023
 N297 N 0.33652 -0.15909 0.68759
 C298 C 0.33622 -0.15722 0.65763
 N299 N 0.31402 -0.17646 0.64231
 N300 N 0.29281 -0.19691 0.65631
 C301 C 0.29288 -0.19902 0.68623
 N302 N 0.31516 -0.17966 0.70167
 C303 C 0.35904 -0.13568 0.64166
 C304 C 0.37702 -0.11885 0.62596
 C305 C 0.39712 -0.10029 0.60507
 N306 N 0.38930 -0.06220 0.60265
 N307 N 0.40507 -0.04543 0.58119
 C308 C 0.42898 -0.06621 0.56130
 N309 N 0.43694 -0.10429 0.56393
 N310 N 0.42122 -0.12102 0.58538
 N311 N 0.33303 0.33895 0.18594
 C312 C 0.33258 0.34013 0.15596
 N313 N 0.30979 0.32104 0.14112
 N314 N 0.28819 0.30142 0.15562
 C315 C 0.28841 0.30001 0.18557
 N316 N 0.31129 0.31922 0.20052
 C317 C 0.35579 0.36092 0.13949
 C318 C 0.37409 0.37730 0.12364
 C319 C 0.39464 0.39564 0.10283
 N320 N 0.38809 0.43378 0.10108
 N321 N 0.40451 0.45053 0.07998
 C322 C 0.42789 0.42973 0.05978
 N323 N 0.43458 0.39158 0.06171
 N324 N 0.41820 0.37486 0.08281
 N325 N 0.82858 0.14769 -0.20785
 C326 C 0.84100 0.16980 -0.18756
 N327 N 0.83532 0.20746 -0.19228
 N328 N 0.81718 0.22258 -0.21643
 C329 C 0.80407 0.20053 -0.23664
 N330 N 0.81047 0.16277 -0.23190
 C331 C 0.85846 0.15330 -0.16096
 C332 C 0.87261 0.13816 -0.13887
 C333 C 0.88952 0.11920 -0.11295
 N334 N 0.92702 0.11671 -0.10744
 N335 N 0.94304 0.09840 -0.08376
 C336 C 0.92216 0.08187 -0.06483
 N337 N 0.88456 0.08433 -0.07040
 N338 N 0.86853 0.10267 -0.09413
 N339 N 0.82826 0.64337 0.29301
 C340 C 0.83921 0.66583 0.31379
 N341 N 0.83199 0.70363 0.30953
 N342 N 0.81383 0.71853 0.28535
 C343 C 0.80237 0.69611 0.26463
 N344 N 0.81012 0.65825 0.26889
 C345 C 0.85668 0.64966 0.34045
 C346 C 0.87096 0.63523 0.36273
 C347 C 0.88812 0.61748 0.38898
 N348 N 0.92545 0.61616 0.39446
 N349 N 0.94170 0.59921 0.41858
 C350 C 0.92122 0.58295 0.43801
 N351 N 0.88380 0.58425 0.43247
 N352 N 0.86753 0.60123 0.40830
 N353 N 0.32264 0.15687 0.28918
 C354 C 0.33644 0.17723 0.31006
 N355 N 0.32986 0.21530 0.30749
 N356 N 0.30974 0.23245 0.28484
 C357 C 0.29547 0.21208 0.26404
 N358 N 0.30253 0.17397 0.26663
 C359 C 0.35557 0.15850 0.33541
 C360 C 0.37051 0.14157 0.35662
 C361 C 0.38726 0.12050 0.38182
 N362 N 0.40426 0.13728 0.40328
 N363 N 0.41899 0.11783 0.42692
 C364 C 0.41713 0.08099 0.42995
 N365 N 0.40015 0.06424 0.40839
 N366 N 0.38542 0.08370 0.38475
 N367 N 0.33354 0.71455 -0.19232
 C368 C 0.34079 0.67642 -0.19024
 N369 N 0.32808 0.65611 -0.21171
 N370 N 0.30833 0.67332 -0.23438
 C371 C 0.30056 0.71149 -0.23646
 N372 N 0.31377 0.73181 -0.21508
 C373 C 0.35921 0.65754 -0.16473
 C374 C 0.37347 0.64042 -0.14341
 C375 C 0.38934 0.61905 -0.11813
 N376 N 0.38643 0.58253 -0.11531
 N377 N 0.40041 0.56275 -0.09163
 C378 C 0.41768 0.57892 -0.06991
 N379 N 0.42061 0.61549 -0.07280
 N380 N 0.40662 0.63525 -0.09649
 N381 N 1.21210 -0.16252 -0.18858
 C382 C 1.17366 -0.15319 -0.18576
 N383 N 1.15157 -0.16273 -0.20751
 N384 N 1.16732 -0.18146 -0.23117
 C385 C 1.20575 -0.19135 -0.23401
 N386 N 1.22790 -0.18126 -0.21235
 C387 C 1.15612 -0.13618 -0.15922
 C388 C 1.13971 -0.12313 -0.13716
 C389 C 1.11873 -0.10873 -0.11119
 N390 N 1.08152 -0.11063 -0.10863
 N391 N 1.06195 -0.09792 -0.08441
 C392 C 1.07900 -0.08300 -0.06189
 N393 N 1.11627 -0.08110 -0.06452
 N394 N 1.13585 -0.09382 -0.08875
 N395 N 1.20878 0.33822 0.31197
 C396 C 1.17038 0.34816 0.31494
 N397 N 1.14794 0.33920 0.29319
 N398 N 1.16329 0.32043 0.26942
 C399 C 1.20167 0.30993 0.26643
 N400 N 1.22418 0.31944 0.28808
 C401 C 1.15319 0.36534 0.34160
 C402 C 1.13712 0.37863 0.36376
 C403 C 1.11659 0.39342 0.38988
 N404 N 1.07946 0.39148 0.39304
 N405 N 1.06034 0.40459 0.41738
 C406 C 1.07776 0.41999 0.43943
 N407 N 1.11496 0.42194 0.43620
 N408 N 1.13407 0.40883 0.41185
 N409 N 0.71134 -0.17696 0.30635
 C410 C 0.67304 -0.17076 0.30998
 N411 N 0.65165 -0.18431 0.28966
 N412 N 0.66806 -0.20391 0.26659
 C413 C 0.70642 -0.21058 0.26296
 N414 N 0.72778 -0.19658 0.28321
 C415 C 0.65525 -0.15142 0.33550
 C416 C 0.63950 -0.13558 0.35684
 C417 C 0.62027 -0.11662 0.38200
 N418 N 0.60351 -0.13567 0.40208
 N419 N 0.58538 -0.11782 0.42534
 C420 C 0.58341 -0.08034 0.42917
 N421 N 0.60015 -0.06139 0.40897
 N422 N 0.61824 -0.07922 0.38575
 N423 N 0.71267 0.32450 -0.19653
 C424 C 0.67473 0.32743 -0.19243
 N425 N 0.65489 0.31071 -0.21194
 N426 N 0.67247 0.29122 -0.23465
 C427 C 0.71056 0.28772 -0.23875
 N428 N 0.73029 0.30498 -0.21932
 C429 C 0.65578 0.34683 -0.16728
 C430 C 0.63920 0.36264 -0.14621
 C431 C 0.61916 0.38144 -0.12125
 N432 N 0.60208 0.36216 -0.10154
 N433 N 0.58360 0.37973 -0.07830
 C434 C 0.58158 0.41716 -0.07409
 N435 N 0.59860 0.43635 -0.09394
 N436 N 0.61705 0.41881 -0.11714
 N437 N 1.15134 0.17682 -0.16892
 C438 C 1.17073 0.14958 -0.15116
 N439 N 1.20911 0.14464 -0.14930
 N440 N 1.22762 0.16620 -0.16499
 C441 C 1.20829 0.19356 -0.18288
 N442 N 1.16981 0.19836 -0.18458
 C443 C 1.15052 0.12786 -0.13334
 C444 C 1.13282 0.11099 -0.11769
 C445 C 1.11123 0.09290 -0.09802
 N446 N 1.11748 0.05481 -0.09626
 N447 N 1.09867 0.03840 -0.07655
 C448 C 1.07311 0.05963 -0.05804
 N449 N 1.06675 0.09770 -0.06009
 N450 N 1.08549 0.11406 -0.07978
 N451 N 1.20859 0.64694 0.35158
 C452 C 1.17015 0.65229 0.34989
 N453 N 1.15102 0.67902 0.33158
 N454 N 1.16977 0.69969 0.31530
 C455 C 1.20829 0.69449 0.31685
 N456 N 1.22737 0.66764 0.33526
 C457 C 1.14968 0.63135 0.36828
 C458 C 1.13192 0.61492 0.38428
 C459 C 1.11044 0.59696 0.40420
 N460 N 1.08545 0.61812 0.42301
 N461 N 1.06673 0.60174 0.44273
 C462 C 1.07234 0.56366 0.44425
 N463 N 1.09716 0.54246 0.42521
 N464 N 1.11593 0.55888 0.40547
 N465 N 0.63955 0.19956 0.32399
 C466 C 0.65714 0.17252 0.34275
 N467 N 0.69538 0.16701 0.34626
 N468 N 0.71550 0.18773 0.33128
 C469 C 0.69806 0.21479 0.31236
 N470 N 0.65969 0.22030 0.30901
 C471 C 0.63566 0.15039 0.35918
 C472 C 0.61855 0.13168 0.37377
 C473 C 0.59962 0.10947 0.39238
 N474 N 0.62041 0.08294 0.41003
 N475 N 0.60326 0.06423 0.42921
 C476 C 0.56474 0.07138 0.43137
 N477 N 0.54389 0.09768 0.41341
 N478 N 0.56109 0.11646 0.39421
 N479 N 0.63792 0.70060 -0.17462
 C480 C 0.65605 0.67377 -0.15592
 N481 N 0.69433 0.66858 -0.15290
 N482 N 0.71396 0.68941 -0.16827
 C483 C 0.69605 0.71633 -0.18722
 N484 N 0.65756 0.72144 -0.19000
 C485 C 0.63507 0.65128 -0.13926
 C486 C 0.61825 0.63223 -0.12468
 C487 C 0.59948 0.60951 -0.10632
 N488 N 0.62038 0.58240 -0.08920
 N489 N 0.60335 0.56288 -0.07053
 C490 C 0.56483 0.56975 -0.06836
 N491 N 0.54386 0.59667 -0.08576
 N492 N 0.56094 0.61625 -0.10445
 N493 N 0.80794 -0.17835 -0.14382
 C494 C 0.83037 -0.15906 -0.15876
 N495 N 0.83047 -0.16026 -0.18876
 N496 N 0.80874 -0.18019 -0.20323
 C497 C 0.78618 -0.19963 -0.18819
 N498 N 0.78635 -0.19816 -0.15821
 C499 C 0.85357 -0.13808 -0.14236
 C500 C 0.87186 -0.12160 -0.12647
 C501 C 0.89239 -0.10323 -0.10556
 N502 N 0.88589 -0.06509 -0.10365
 N503 N 0.90230 -0.04833 -0.08246
 C504 C 0.92563 -0.06913 -0.06233
 N505 N 0.93227 -0.10728 -0.06443
 N506 N 0.91590 -0.12400 -0.08561
 N507 N 0.83414 0.34110 0.31378
 C508 C 0.83343 0.34261 0.34375
 N509 N 0.81089 0.32331 0.35857
 N510 N 0.78975 0.30316 0.34406
 C511 C 0.79023 0.30142 0.31411
 N512 N 0.81287 0.32083 0.29918
 C513 C 0.85611 0.36391 0.36024
 C514 C 0.87397 0.38064 0.37623
 C515 C 0.89394 0.39921 0.39730
 N516 N 0.91749 0.37856 0.41727
 N517 N 0.93326 0.39541 0.43870
 C518 C 0.92591 0.43355 0.44103
 N519 N 0.90254 0.45423 0.42087
 N520 N 0.88672 0.43734 0.39943
 N521 N 0.32027 -0.19265 0.35727
 C522 C 0.33884 -0.17070 0.34117
 N523 N 0.33621 -0.17128 0.31127
 N524 N 0.31552 -0.19321 0.29798
 C525 C 0.29678 -0.21520 0.31417
 N526 N 0.29967 -0.21444 0.34403
 C527 C 0.36039 -0.14702 0.35621
 C528 C 0.37740 -0.12809 0.37093
 C529 C 0.39638 -0.10668 0.39054
 N530 N 0.43491 -0.11411 0.39256
 N531 N 0.45218 -0.09696 0.41295
 C532 C 0.43148 -0.07196 0.43211
 N533 N 0.39294 -0.06438 0.42986
 N534 N 0.37571 -0.08150 0.40948
 N535 N 0.33324 0.32807 -0.18969
 C536 C 0.33487 0.32941 -0.15979
 N537 N 0.31576 0.30790 -0.14375
 N538 N 0.29557 0.28579 -0.15706
 C539 C 0.29365 0.28425 -0.18697
 N540 N 0.31296 0.30585 -0.20306
 C541 C 0.35628 0.35312 -0.14473
 C542 C 0.37335 0.37199 -0.13007
 C543 C 0.39266 0.39312 -0.11056
 N544 N 0.37241 0.41756 -0.09090
 N545 N 0.39012 0.43422 -0.07054
 C546 C 0.42871 0.42688 -0.06906
 N547 N 0.44896 0.40266 -0.08895
 N548 N 0.43122 0.38597 -0.10931
 N549 N 1.15103 -0.18264 0.21129
 C550 C 1.17214 -0.17068 0.18998
 N551 N 1.21059 -0.17770 0.19273
 N552 N 1.22743 -0.19660 0.21597
 C553 C 1.20634 -0.20903 0.23721
 N554 N 1.16784 -0.20151 0.23445
 C555 C 1.15377 -0.15205 0.16443
 C556 C 1.13743 -0.13668 0.14319
 C557 C 1.11747 -0.11809 0.11822
 N558 N 1.11483 -0.08063 0.11446
 N559 N 1.09618 -0.06314 0.09142
 C560 C 1.07944 -0.08246 0.07141
 N561 N 1.08199 -0.12000 0.07525
 N562 N 1.10068 -0.13752 0.09834
 N563 N 1.15056 0.31730 0.71193
 C564 C 1.17177 0.33046 0.69131
 N565 N 1.21012 0.32417 0.69460
 N566 N 1.22678 0.30484 0.71770
 C567 C 1.20561 0.29123 0.73825
 N568 N 1.16719 0.29799 0.73496
 C569 C 1.15370 0.34951 0.66587
 C570 C 1.13768 0.36517 0.64464
 C571 C 1.11811 0.38397 0.61965
 N572 N 1.11590 0.42137 0.61596
 N573 N 1.09752 0.43906 0.59289
 C574 C 1.08067 0.41997 0.57279
 N575 N 1.08281 0.38248 0.57656
 N576 N 1.10123 0.36477 0.59968
 N577 N 0.65011 -0.16591 0.70624
 C578 C 0.67252 -0.15260 0.68663
 N579 N 0.71057 -0.15842 0.69168
 N580 N 0.72571 -0.17741 0.71547
 C581 C 0.70331 -0.19137 0.73497
 N582 N 0.66520 -0.18488 0.72990
 C583 C 0.65589 -0.13482 0.66008
 C584 C 0.64005 -0.12117 0.63800
 C585 C 0.61955 -0.10612 0.61199
 N586 N 0.63706 -0.09069 0.59010
 N587 N 0.61795 -0.07748 0.56584
 C588 C 0.58074 -0.07938 0.56260
 N589 N 0.56330 -0.09480 0.58457
 N590 N 0.58240 -0.10799 0.60882
 N591 N 0.65117 0.33883 0.20599
 C592 C 0.67382 0.34739 0.18426
 N593 N 0.71218 0.33748 0.18738
 N594 N 0.72735 0.31910 0.21140
 C595 C 0.70463 0.30996 0.23302
 N596 N 0.66628 0.32045 0.22989
 C597 C 0.65689 0.36392 0.15745
 C598 C 0.64091 0.37658 0.13517
 C599 C 0.62029 0.39056 0.10901
 N600 N 0.63761 0.40537 0.08669
 N601 N 0.61831 0.41782 0.06234
 C602 C 0.58110 0.41576 0.05947
 N603 N 0.56385 0.40093 0.08187
 N604 N 0.58315 0.38849 0.10620
 N605 N 0.83135 0.21564 0.19151
 C606 C 0.83837 0.17752 0.18913
 N607 N 0.82548 0.15722 0.21044
 N608 N 0.80577 0.17443 0.23321
 C609 C 0.79822 0.21258 0.23558
 N610 N 0.81163 0.23289 0.21438
 C611 C 0.85673 0.15865 0.16349
 C612 C 0.87092 0.14154 0.14206
 C613 C 0.88673 0.12019 0.11663
 N614 N 0.88368 0.08371 0.11358
 N615 N 0.89765 0.06395 0.08978
 C616 C 0.91504 0.08008 0.06818
 N617 N 0.91810 0.11661 0.07132
 N618 N 0.90413 0.13636 0.09512
 N619 N 0.81689 0.66091 0.71026
 C620 C 0.83374 0.68080 0.69100
 N621 N 0.83014 0.71845 0.69524
 N622 N 0.80991 0.73565 0.71792
 C623 C 0.79247 0.71581 0.73708
 N624 N 0.79669 0.67807 0.73283
 C625 C 0.85318 0.66211 0.66564
 C626 C 0.86825 0.64501 0.64445
 C627 C 0.88502 0.62350 0.61933
 N628 N 0.90221 0.63981 0.59776
 N629 N 0.91691 0.61991 0.57421
 C630 C 0.91483 0.58308 0.57137
 N631 N 0.89767 0.56681 0.59303
 N632 N 0.88298 0.58671 0.61658
 N633 N 0.32710 0.14487 0.70756
 C634 C 0.33861 0.16713 0.68700
 N635 N 0.33176 0.20493 0.69141
 N636 N 0.31344 0.22002 0.71556
 C637 C 0.30146 0.19780 0.73606
 N638 N 0.30881 0.15995 0.73164
 C639 C 0.35642 0.15076 0.66043
 C640 C 0.37101 0.13616 0.63824
 C641 C 0.38856 0.11822 0.61210
 N642 N 0.36833 0.10153 0.59273
 N643 N 0.38497 0.08434 0.56866
 C644 C 0.42239 0.08327 0.56330
 N645 N 0.44251 0.09997 0.58277
 N646 N 0.42590 0.11712 0.60679
 N647 N 0.32709 0.64309 0.20739
 C648 C 0.33927 0.66484 0.18677
 N649 N 0.33286 0.70268 0.19091
 N650 N 0.31438 0.71830 0.21484
 C651 C 0.30175 0.69659 0.23541
 N652 N 0.30863 0.65869 0.23125
 C653 C 0.35732 0.64791 0.16041
 C654 C 0.37204 0.63292 0.13836
 C655 C 0.38962 0.61458 0.11232
 N656 N 0.36911 0.59851 0.09274
 N657 N 0.38564 0.58116 0.06870
 C658 C 0.42325 0.57927 0.06353
 N659 N 0.44367 0.59533 0.08322
 N660 N 0.42715 0.61266 0.10722
   
