data_POSCAR
  _audit_creation_date              2014-09-24
  _audit_creation_method            'ToBaCCo'
  _symmetry_space_group_name_H-M    'P1'
  _symmetry_Int_Tables_number       1
  _symmetry_cell_setting            triclinic
  loop_
  _symmetry_equiv_pos_as_xyz
 x,y,z
_cell_length_a 37.9611
_cell_length_b 37.6200
_cell_length_c 14.0034
_cell_angle_alpha 89.659800
_cell_angle_beta 90.188900
_cell_angle_gamma 119.748700
loop_
  _atom_site_label
  _atom_site_type_symbol
  _atom_site_fract_x
  _atom_site_fract_y
  _atom_site_fract_z
O1 O 0.18993 0.44546 0.39901
 O2 O 0.25091 0.42993 0.58535
 O3 O 0.18579 0.44089 0.58178
 O4 O 0.24330 0.42354 0.39278
 O5 O 0.28976 0.48909 0.39641
 O6 O 0.23217 0.50640 0.58309
 O7 O 0.29649 0.49550 0.57565
 O8 O 0.23660 0.51096 0.39263
 Cu9 Cu 0.21394 0.42845 0.49279
 Cu10 Cu 0.26717 0.50683 0.48935
 C11 C 0.20352 0.48117 0.36338
 C12 C 0.28460 0.46027 0.61134
 C13 C 0.19903 0.47681 0.61379
 C14 C 0.27619 0.45339 0.36199
 O15 O 0.51580 -0.27195 0.41505
 O16 O 0.51801 -0.20045 0.59910
 O17 O 0.52318 -0.26766 0.60097
 O18 O 0.51547 -0.20218 0.41281
 O19 O 0.44867 -0.23763 0.42466
 O20 O 0.45629 -0.30307 0.60858
 O21 O 0.45125 -0.23765 0.61060
 O22 O 0.44891 -0.30607 0.42357
 Cu23 Cu 0.52492 -0.23194 0.50587
 Cu24 Cu 0.44467 -0.27460 0.51759
 C25 C 0.48164 -0.30121 0.38787
 C26 C 0.48467 -0.20755 0.63679
 C27 C 0.49079 -0.29654 0.63692
 C28 C 0.48058 -0.20889 0.38713
 O29 O 1.25610 0.78788 0.41008
 O30 O 1.18744 0.71220 0.58728
 O31 O 1.25299 0.78668 0.59712
 O32 O 1.19089 0.71567 0.40547
 O33 O 1.22951 0.68693 0.40998
 O34 O 1.29169 0.75811 0.59761
 O35 O 1.22812 0.68600 0.59540
 O36 O 1.29332 0.75763 0.41092
 Cu37 Cu 1.21819 0.75389 0.50048
 Cu38 Cu 1.26469 0.71951 0.50434
 C39 C 1.28577 0.78468 0.37861
 C40 C 1.19587 0.68570 0.62010
 C41 C 1.28316 0.78443 0.62940
 C42 C 1.19958 0.68905 0.37612
 O43 O 0.76663 0.57480 0.57417
 O44 O 0.82156 0.54252 0.41150
 O45 O 0.75555 0.55153 0.39570
 O46 O 0.82973 0.56528 0.58649
 O47 O 0.78783 0.50221 0.63636
 O48 O 0.71929 0.48623 0.43561
 O49 O 0.78402 0.47865 0.46119
 O50 O 0.72488 0.50969 0.60782
 Cu51 Cu 0.79720 0.56499 0.48580
 Cu52 Cu 0.75024 0.48765 0.53886
 C53 C 0.73546 0.54726 0.61682
 C54 C 0.81358 0.50547 0.41316
 C55 C 0.72413 0.51647 0.38533
 C56 C 0.82068 0.53592 0.64474
 O57 O 0.50023 0.22751 0.58972
 O58 O 0.50676 0.29352 0.38474
 O59 O 0.48721 0.21645 0.40512
 O60 O 0.49744 0.29615 0.57180
 O61 O 0.56406 0.32378 0.56965
 O62 O 0.55380 0.24353 0.40133
 O63 O 0.57332 0.31979 0.38522
 O64 O 0.56702 0.25648 0.58573
 Cu65 Cu 0.49156 0.25593 0.48836
 Cu66 Cu 0.57058 0.28831 0.48546
 C67 C 0.53339 0.23121 0.62229
 C68 C 0.54182 0.31775 0.34977
 C69 C 0.51846 0.21641 0.37392
 C70 C 0.53217 0.32336 0.60000
 O71 O 0.71649 0.20992 0.39504
 O72 O 0.79759 0.24445 0.57431
 O73 O 0.72256 0.17618 0.54161
 O74 O 0.78641 0.26869 0.40116
 O75 O 0.76287 0.30284 0.48154
 O76 O 0.69772 0.20897 0.62274
 O77 O 0.76964 0.27524 0.65051
 O78 O 0.68987 0.24267 0.46968
 Cu79 Cu 0.75990 0.22211 0.47511
 Cu80 Cu 0.72804 0.26085 0.56544
 C81 C 0.68935 0.22027 0.40199
 C82 C 0.79805 0.26698 0.64201
 C83 C 0.69741 0.17591 0.60141
 C84 C 0.78443 0.30101 0.41428
 O85 O 0.95493 0.48401 -0.20100
 O86 O 1.02777 0.51156 0.19402
 O87 O 0.95429 0.52185 0.08031
 O88 O 1.05784 0.55696 -0.09708
 O89 O 0.95403 0.48256 0.18948
 O90 O 1.02763 0.51135 -0.20810
 O91 O 1.06554 0.55650 0.08510
 O92 O 0.95522 0.52234 -0.08976
 C93 C 0.95212 0.51426 -0.17587
 C94 C 1.05470 0.54725 0.17008
 C95 C 0.95047 0.51262 0.16534
 C96 C 1.04948 0.54824 -0.18280
 O97 O 1.01707 0.43864 -0.14135
 O98 O 0.94562 0.41311 0.11378
 O99 O 0.90717 0.43950 -0.09044
 O100 O 1.07278 0.49134 0.07164
 O101 O 1.02018 0.44074 0.14148
 O102 O 0.94478 0.41350 -0.12131
 O103 O 1.07098 0.49469 -0.10685
 O104 O 0.90630 0.43756 0.08075
 Co105 Co 0.98645 0.46354 -0.15396
 Co106 Co 0.98698 0.46352 0.14364
 Co107 Co 0.93571 0.48037 -0.00498
 Co108 Co 1.05936 0.52070 -0.01189
 O109 O 0.99247 0.48173 -0.00646
 C110 C 1.05456 0.45931 -0.14068
 C111 C 0.91086 0.40816 0.10881
 C112 C 0.91030 0.40893 -0.11087
 C113 C 1.05729 0.45970 0.12379
 O114 O 0.48400 0.46180 -0.15263
 O115 O 0.47184 0.50641 0.19455
 O116 O 0.54650 0.46064 0.07412
 O117 O 0.44007 0.49644 -0.09549
 O118 O 0.49833 0.45921 0.16184
 O119 O 0.48077 0.52366 -0.20887
 O120 O 0.43315 0.49150 0.07330
 O121 O 0.53145 0.45337 -0.09491
 C122 C 0.49984 0.43989 -0.14377
 C123 C 0.43728 0.49198 0.16096
 C124 C 0.51610 0.44169 0.12902
 C125 C 0.44543 0.50757 -0.18048
 O126 O 0.54955 0.57299 -0.14463
 O127 O 0.57178 0.52098 0.17266
 O128 O 0.58391 0.53336 -0.12670
 O129 O 0.49229 0.57153 0.09648
 O130 O 0.54185 0.56893 0.17566
 O131 O 0.54340 0.51566 -0.24879
 O132 O 0.49964 0.57778 -0.08139
 O133 O 0.59900 0.54416 0.03904
 Co134 Co 0.51790 0.51682 -0.14164
 Co135 Co 0.52064 0.51383 0.15913
 Co136 Co 0.56121 0.49924 -0.02387
 Co137 Co 0.47035 0.53290 -0.00212
 O138 O 0.51503 0.51489 0.00332
 C139 C 0.53237 0.59363 -0.12920
 C140 C 0.60320 0.54092 0.12516
 C141 C 0.57799 0.52295 -0.21389
 C142 C 0.52177 0.58667 0.15623
 O143 O 0.52974 0.04354 -0.16550
 O144 O 0.52325 -0.02384 0.13869
 O145 O 0.54623 0.10198 0.09410
 O146 O 0.48144 -0.07486 -0.07702
 O147 O 0.54741 0.04744 0.14249
 O148 O 0.48432 -0.03193 -0.18980
 O149 O 0.47085 -0.07976 0.10251
 O150 O 0.55788 0.06062 -0.02620
 C151 C 0.56155 0.06029 -0.11434
 C152 C 0.50506 -0.06158 0.13931
 C153 C 0.56028 0.08535 0.15312
 C154 C 0.48949 -0.06126 -0.16152
 O155 O 0.41916 -0.02260 -0.14805
 O156 O 0.47279 0.03423 0.19213
 O157 O 0.51592 0.09336 -0.07653
 O158 O 0.40645 -0.07362 0.07966
 O159 O 0.44745 -0.03925 0.19629
 O160 O 0.45938 0.04641 -0.11973
 O161 O 0.41321 -0.07868 -0.09669
 O162 O 0.46985 0.06316 0.06361
 Co163 Co 0.47414 0.00833 -0.14292
 Co164 Co 0.49586 0.00390 0.15319
 Co165 Co 0.51258 0.05916 0.02096
 Co166 Co 0.44662 -0.06931 0.00290
 O167 O 0.47955 -0.00200 0.00367
 C168 C 0.39989 -0.06036 -0.14514
 C169 C 0.46278 0.05726 0.15021
 C170 C 0.48470 0.08314 -0.12344
 C171 C 0.41233 -0.06411 0.16594
 C172 C 1.18114 0.48905 0.28799
 C173 C 1.14527 0.46027 0.25459
 C174 C 1.12230 0.47140 0.18749
 C175 C 1.08305 0.44571 0.17038
 H176 H 1.13167 0.42914 0.28146
 H177 H 1.13655 0.50240 0.15942
 H178 H 1.19404 0.52023 0.26172
 H179 H 1.06837 0.41548 0.20276
 C180 C 0.47892 0.67097 0.31901
 C181 C 0.51094 0.66975 0.28337
 C182 C 0.50427 0.63666 0.21739
 C183 C 0.53163 0.62448 0.20762
 H184 H 0.54143 0.69102 0.30754
 H185 H 0.47487 0.61949 0.18316
 H186 H 0.44873 0.64787 0.29667
 H187 H 0.56004 0.64001 0.24651
 C188 C 0.31153 -0.18853 0.30190
 C189 C 0.32183 -0.14918 0.29455
 C190 C 0.35022 -0.12407 0.21911
 C191 C 0.37909 -0.08545 0.23474
 H192 H 0.31193 -0.13514 0.34757
 H193 H 0.35051 -0.13908 0.15342
 H194 H 0.32487 -0.20099 0.25351
 H195 H 0.38121 -0.07153 0.30363
 C196 C 0.83939 0.49300 0.36258
 C197 C 0.87599 0.52002 0.32908
 C198 C 0.90136 0.50557 0.28387
 C199 C 0.93280 0.53025 0.22899
 H200 H 0.88696 0.55262 0.33375
 H201 H 0.89189 0.47325 0.28820
 H202 H 0.82893 0.46049 0.35778
 H203 H 0.94040 0.56182 0.21806
 C204 C 0.54749 0.34501 0.26898
 C205 C 0.51786 0.35028 0.23380
 C206 C 0.52801 0.38518 0.16996
 C207 C 0.50317 0.40048 0.16533
 H208 H 0.48725 0.33229 0.26132
 H209 H 0.55802 0.40185 0.13847
 H210 H 0.57825 0.36427 0.24332
 H211 H 0.47421 0.38477 0.20207
 C212 C 0.65575 0.20418 0.33374
 C213 C 0.64759 0.17121 0.28295
 C214 C 0.61045 0.14928 0.22714
 C215 C 0.59638 0.10979 0.21000
 H216 H 0.66700 0.15772 0.28916
 H217 H 0.59421 0.16462 0.20308
 H218 H 0.63528 0.21648 0.33253
 H219 H 0.61194 0.09450 0.23901
 C220 C 0.53419 0.20752 -0.30227
 C221 C 0.50120 0.17646 -0.26351
 C222 C 0.50637 0.15028 -0.19331
 C223 C 0.47719 0.11188 -0.17871
 H224 H 0.47113 0.16827 -0.28914
 H225 H 0.53585 0.16120 -0.16028
 H226 H 0.56380 0.21354 -0.27760
 H227 H 0.44819 0.10029 -0.21448
 C228 C 0.71185 0.55812 -0.32817
 C229 C 0.67462 0.52977 -0.30082
 C230 C 0.64752 0.54011 -0.24979
 C231 C 0.60832 0.52059 -0.27257
 H232 H 0.66215 0.49809 -0.32235
 H233 H 0.65919 0.56235 -0.19261
 H234 H 0.72260 0.59017 -0.31361
 H235 H 0.59769 0.50053 -0.33402
 C236 C 0.83148 0.28507 -0.29668
 C237 C 0.83352 0.31001 -0.22646
 C238 C 0.87240 0.34041 -0.18398
 C239 C 0.87320 0.37041 -0.13192
 H240 H 0.80681 0.31214 -0.20870
 H241 H 0.90038 0.34165 -0.20566
 H242 H 0.85776 0.28198 -0.31272
 H243 H 0.84483 0.36924 -0.11418
 C244 C 0.48374 -0.18182 -0.28640
 C245 C 0.50611 -0.14108 -0.28727
 C246 C 0.49903 -0.11780 -0.21319
 C247 C 0.50419 -0.08050 -0.23003
 H248 H 0.52665 -0.12526 -0.34596
 H249 H 0.48526 -0.13338 -0.14667
 H250 H 0.46066 -0.19683 -0.23190
 H251 H 0.51557 -0.06584 -0.29868
 C252 C 0.30887 0.45476 -0.32118
 C253 C 0.34621 0.48520 -0.29992
 C254 C 0.37389 0.48067 -0.23312
 C255 C 0.41374 0.50556 -0.24423
 H256 H 0.35805 0.51447 -0.33631
 H257 H 0.36218 0.45777 -0.17691
 H258 H 0.29774 0.42494 -0.28824
 H259 H 0.42437 0.52633 -0.30496
 C260 C 1.17000 0.65556 -0.31622
 C261 C 1.13086 0.64448 -0.30545
 C262 C 1.10663 0.61264 -0.23511
 C263 C 1.06975 0.58108 -0.25427
 H264 H 1.11654 0.65735 -0.35003
 H265 H 1.12127 0.61338 -0.16790
 H266 H 1.18178 0.63846 -0.27807
 H267 H 1.05639 0.57781 -0.32443
 C268 C 0.84835 0.53983 -0.27747
 C269 C 0.88761 0.55284 -0.29314
 C270 C 0.91145 0.54578 -0.21988
 C271 C 0.93847 0.53454 -0.24484
 H272 H 0.90030 0.56315 -0.36385
 H273 H 0.90224 0.54335 -0.14580
 H274 H 0.83491 0.52540 -0.20977
 H275 H 0.94475 0.53327 -0.31983
 C276 C 0.53649 0.35469 -0.33031
 C277 C 0.50537 0.35836 -0.29593
 C278 C 0.51339 0.39075 -0.22548
 C279 C 0.48616 0.40209 -0.20037
 H280 H 0.47467 0.33831 -0.32054
 H281 H 0.54405 0.40789 -0.19770
 H282 H 0.56701 0.37575 -0.30595
 H283 H 0.45609 0.38709 -0.23159
 C284 C 0.66545 0.13623 -0.36039
 C285 C 0.64773 0.13283 -0.27608
 C286 C 0.61041 0.09509 -0.24690
 C287 C 0.60254 0.08638 -0.15419
 H288 H 0.65986 0.15901 -0.22879
 H289 H 0.58781 0.07733 -0.30029
 H290 H 0.65505 0.10940 -0.40498
 H291 H 0.62633 0.10421 -0.10311
 C292 C 1.17627 0.48553 -0.31382
 C293 C 1.13983 0.45752 -0.28069
 C294 C 1.11755 0.46986 -0.21494
 C295 C 1.07873 0.44451 -0.19165
 H296 H 1.12569 0.42617 -0.30551
 H297 H 1.13241 0.50131 -0.19051
 H298 H 1.18961 0.51688 -0.28930
 H299 H 1.06339 0.41341 -0.21831
 C300 C 0.49170 0.67807 -0.29147
 C301 C 0.52525 0.67845 -0.25973
 C302 C 0.52053 0.64788 -0.18712
 C303 C 0.54607 0.63311 -0.17873
 H304 H 0.55474 0.69872 -0.29070
 H305 H 0.49218 0.63319 -0.14778
 H306 H 0.46260 0.65559 -0.26183
 H307 H 0.57362 0.64616 -0.22085
 C308 C 0.30908 -0.18833 -0.29459
 C309 C 0.31492 -0.15074 -0.27834
 C310 C 0.34559 -0.12510 -0.20692
 C311 C 0.36319 -0.08416 -0.20423
 H312 H 0.29969 -0.13835 -0.32123
 H313 H 0.35674 -0.14037 -0.15990
 H314 H 0.32680 -0.19879 -0.25465
 H315 H 0.35311 -0.06819 -0.25184
 C316 C 0.47574 -0.18398 0.31271
 C317 C 0.50574 -0.14801 0.28123
 C318 C 0.49605 -0.12467 0.21148
 C319 C 0.52037 -0.08463 0.19462
 H320 H 0.53613 -0.13515 0.31017
 H321 H 0.46627 -0.14030 0.17849
 H322 H 0.44524 -0.19519 0.28556
 H323 H 0.54973 -0.06821 0.22912
 C324 C 0.29930 0.44705 0.28588
 C325 C 0.33947 0.47139 0.28102
 C326 C 0.36540 0.46853 0.20677
 C327 C 0.40421 0.48207 0.22885
 H328 H 0.35447 0.49438 0.33591
 H329 H 0.35398 0.45857 0.13519
 H330 H 0.28379 0.42192 0.23640
 H331 H 0.41361 0.49019 0.30258
 C332 C 1.17525 0.66026 0.30136
 C333 C 1.13477 0.64064 0.30271
 C334 C 1.11206 0.61038 0.22853
 C335 C 1.07493 0.57865 0.24391
 H336 H 1.11869 0.64542 0.36059
 H337 H 1.12730 0.61285 0.16135
 H338 H 1.19097 0.65250 0.24814
 H339 H 1.06063 0.57433 0.31314
 C340 C 0.51455 0.18580 0.30287
 C341 C 0.47938 0.15188 0.28194
 C342 C 0.47859 0.12393 0.20723
 C343 C 0.45220 0.08353 0.20677
 H344 H 0.45195 0.14428 0.32114
 H345 H 0.50350 0.13632 0.15680
 H346 H 0.54202 0.19148 0.26631
 H347 H 0.42963 0.06996 0.26268
 C348 C 0.69075 0.50975 0.31999
 C349 C 0.68746 0.53939 0.27428
 C350 C 0.64816 0.52939 0.22976
 C351 C 0.64359 0.55379 0.16684
 H352 H 0.71226 0.57071 0.27459
 H353 H 0.62177 0.50038 0.24873
 H354 H 0.66534 0.47872 0.31724
 H355 H 0.66980 0.58143 0.14100
 C356 C 0.80718 0.33682 0.35089
 C357 C 0.82629 0.33483 0.27250
 C358 C 0.85188 0.37136 0.21359
 C359 C 0.87733 0.37042 0.14908
 H360 H 0.82480 0.30616 0.25397
 H361 H 0.85296 0.40005 0.22955
 H362 H 0.80854 0.36540 0.36946
 H363 H 0.87822 0.34233 0.13899
   
