data_POSCAR
  _audit_creation_date              2014-09-24
  _audit_creation_method            'ToBaCCo'
  _symmetry_space_group_name_H-M    'P1'
  _symmetry_Int_Tables_number       1
  _symmetry_cell_setting            triclinic
  loop_
  _symmetry_equiv_pos_as_xyz
 x,y,z
_cell_length_a 20.5150
_cell_length_b 20.5150
_cell_length_c 53.7352
_cell_angle_alpha 89.770600
_cell_angle_beta 90.229100
_cell_angle_gamma 119.851600
loop_
  _atom_site_label
  _atom_site_type_symbol
  _atom_site_fract_x
  _atom_site_fract_y
  _atom_site_fract_z
Si1 Si 0.00272 0.00024 0.50014
 Si2 Si 1.00023 0.00274 0.16652
 Si3 Si -0.00287 0.99714 0.83333
 O4 O 0.46365 0.06051 0.02330
 O5 O 0.59065 0.05939 -0.02516
 O6 O 0.46668 0.06574 -0.02512
 O7 O 0.59374 0.06657 0.02320
 O8 O 0.53254 -0.05771 0.02372
 O9 O 0.40394 -0.05855 -0.02489
 O10 O 0.52791 -0.06489 -0.02465
 O11 O 0.40245 -0.06378 0.02352
 Cu12 Cu 0.53488 0.07550 -0.00099
 Cu13 Cu 0.46051 -0.07367 -0.00054
 C14 C 0.41137 -0.00189 0.03151
 C15 C 0.58058 -0.00337 -0.03299
 C16 C 0.41375 0.00389 -0.03311
 C17 C 0.58509 0.00500 0.03159
 O18 O -0.05772 0.53255 0.64294
 O19 O -0.05856 0.40395 0.69155
 O20 O -0.06490 0.52792 0.69131
 O21 O -0.06380 0.40247 0.64314
 O22 O 0.06049 0.46366 0.64336
 O23 O 0.05938 0.59067 0.69182
 O24 O 0.06573 0.46669 0.69178
 O25 O 0.06656 0.59375 0.64345
 Cu26 Cu -0.07369 0.46052 0.66721
 Cu27 Cu 0.07548 0.53489 0.66765
 C28 C 0.00499 0.58510 0.63507
 C29 C 0.00388 0.41376 0.69977
 C30 C -0.00338 0.58059 0.69965
 C31 C -0.00190 0.41138 0.63515
 O32 O 0.53548 0.59507 0.30907
 O33 O 0.40826 0.46711 0.35761
 O34 O 0.53199 0.59701 0.35746
 O35 O 0.40558 0.47133 0.30921
 O36 O 0.46709 0.40828 0.30905
 O37 O 0.59505 0.53550 0.35759
 O38 O 0.47131 0.40560 0.35745
 O39 O 0.59699 0.53201 0.30920
 Cu40 Cu 0.46409 0.53886 0.33334
 Cu41 Cu 0.53884 0.46411 0.33332
 C42 C 0.58799 0.58498 0.30103
 C43 C 0.41847 0.41448 0.36563
 C44 C 0.58496 0.58800 0.36563
 C45 C 0.41447 0.41849 0.30103
 C46 C -0.02122 0.15783 0.55066
 N47 N -0.04844 0.13674 0.57404
 N48 N -0.04427 0.18752 0.59032
 C49 C -0.01230 0.26101 0.58377
 N50 N 0.01480 0.28210 0.56037
 N51 N 0.01062 0.23130 0.54409
 C52 C -0.02010 0.10435 0.53380
 C53 C -0.01497 0.06097 0.52001
 C54 C -0.00670 0.31566 0.60152
 C55 C -0.00322 0.36035 0.61672
 C56 C 0.84258 0.82037 0.21688
 N57 N 0.86326 0.81395 0.24036
 N58 N 0.81228 0.76702 0.25655
 C59 C 0.73900 0.72546 0.24982
 N60 N 0.71831 0.73175 0.22633
 N61 N 0.76931 0.77869 0.21013
 C62 C 0.89619 0.87530 0.20011
 C63 C 0.93960 0.92406 0.18637
 C64 C 0.68410 0.67614 0.26748
 C65 C 0.63922 0.63478 0.28263
 C66 C 0.17644 0.02216 -0.11734
 N67 N 0.18206 0.04818 -0.09382
 N68 N 0.22943 0.04442 -0.07761
 C69 C 0.27225 0.01408 -0.08438
 N70 N 0.26677 -0.01180 -0.10792
 N71 N 0.21939 -0.00804 -0.12412
 C72 C 0.12097 0.02030 -0.13412
 C73 C 0.07175 0.01437 -0.14785
 C74 C 0.32198 0.00870 -0.06670
 C75 C 0.36365 0.00528 -0.05153
 C76 C 0.02661 0.84133 0.55057
 N77 N -0.00550 0.76799 0.54393
 N78 N -0.00997 0.71670 0.56020
 C79 C 0.01710 0.73715 0.58365
 N80 N 0.04935 0.81050 0.59027
 N81 N 0.05382 0.86178 0.57401
 C82 C 0.02564 0.89531 0.53375
 C83 C 0.02053 0.93906 0.51998
 C84 C 0.01101 0.68194 0.60139
 C85 C 0.00702 0.63675 0.61661
 C86 C 0.15874 0.18448 0.21683
 N87 N 0.23200 0.22589 0.21014
 N88 N 0.28322 0.27257 0.22634
 C89 C 0.26276 0.27887 0.24978
 N90 N 0.18949 0.23757 0.25646
 N91 N 0.13830 0.19090 0.24026
 C92 C 0.10487 0.12979 0.20006
 C93 C 0.06123 0.08121 0.18633
 C94 C 0.31790 0.32789 0.26746
 C95 C 0.36298 0.36900 0.28262
 C96 C 0.81491 -0.02596 -0.11667
 N97 N 0.77334 0.00586 -0.12358
 N98 N 0.72657 0.01056 -0.10749
 C99 C 0.72033 -0.01599 -0.08395
 N100 N 0.76177 -0.04794 -0.07706
 N101 N 0.80854 -0.05264 -0.09315
 C102 C 0.86974 -0.02526 -0.13332
 C103 C 0.91846 -0.02038 -0.14696
 C104 C 0.67123 -0.00967 -0.06640
 C105 C 0.63008 -0.00553 -0.05133
 C106 C 0.15782 -0.02120 0.11600
 N107 N 0.13673 -0.04844 0.09262
 N108 N 0.18751 -0.04427 0.07634
 C109 C 0.26100 -0.01229 0.08289
 N110 N 0.28210 0.01483 0.10629
 N111 N 0.23130 0.01065 0.12257
 C112 C 0.10434 -0.02009 0.13286
 C113 C 0.06096 -0.01495 0.14665
 C114 C 0.31565 -0.00669 0.06514
 C115 C 0.36034 -0.00321 0.04994
 C116 C 0.82035 0.84259 0.44978
 N117 N 0.77868 0.76931 0.45653
 N118 N 0.73174 0.71832 0.44033
 C119 C 0.72544 0.73901 0.41684
 N120 N 0.76698 0.81230 0.41011
 N121 N 0.81391 0.86327 0.42630
 C122 C 0.87528 0.89620 0.46655
 C123 C 0.92404 0.93961 0.48029
 C124 C 0.67612 0.68412 0.39918
 C125 C 0.63475 0.63924 0.38403
 C126 C 0.02215 0.17646 0.78400
 N127 N 0.04818 0.18209 0.76048
 N128 N 0.04442 0.22946 0.74428
 C129 C 0.01407 0.27227 0.75104
 N130 N -0.01183 0.26677 0.77457
 N131 N -0.00806 0.21939 0.79078
 C132 C 0.02029 0.12099 0.80078
 C133 C 0.01435 0.07176 0.81451
 C134 C 0.00869 0.32200 0.73336
 C135 C 0.00527 0.36366 0.71819
 C136 C 0.84132 0.02663 0.11609
 N137 N 0.76798 -0.00548 0.12273
 N138 N 0.71669 -0.00995 0.10646
 C139 C 0.73714 0.01712 0.08301
 N140 N 0.81049 0.04937 0.07639
 N141 N 0.86177 0.05383 0.09265
 C142 C 0.89530 0.02566 0.13291
 C143 C 0.93905 0.02055 0.14668
 C144 C 0.68192 0.01102 0.06527
 C145 C 0.63674 0.00703 0.05005
 C146 C 0.18445 0.15875 0.44983
 N147 N 0.22591 0.23200 0.45653
 N148 N 0.27259 0.28321 0.44032
 C149 C 0.27884 0.26277 0.41687
 N150 N 0.23751 0.18951 0.41019
 N151 N 0.19084 0.13831 0.42639
 C152 C 0.12977 0.10488 0.46660
 C153 C 0.08119 0.06123 0.48033
 C154 C 0.32787 0.31791 0.39920
 C155 C 0.36898 0.36299 0.38404
 C156 C -0.02597 0.81492 0.78333
 N157 N -0.05266 0.80854 0.75981
 N158 N -0.04797 0.76177 0.74373
 C159 C -0.01600 0.72034 0.75061
 N160 N 0.01056 0.72659 0.77415
 N161 N 0.00586 0.77337 0.79024
 C162 C -0.02527 0.86976 0.79998
 C163 C -0.02038 0.91847 0.81362
 C164 C -0.00968 0.67124 0.73306
 C165 C -0.00554 0.63010 0.71799
   
