data_POSCAR
  _audit_creation_date              2014-09-24
  _audit_creation_method            'ToBaCCo'
  _symmetry_space_group_name_H-M    'P1'
  _symmetry_Int_Tables_number       1
  _symmetry_cell_setting            triclinic
  loop_
  _symmetry_equiv_pos_as_xyz
 x,y,z
_cell_length_a 32.5379
_cell_length_b 32.8674
_cell_length_c 27.9008
_cell_angle_alpha 89.939000
_cell_angle_beta 90.084700
_cell_angle_gamma 88.957100
loop_
  _atom_site_label
  _atom_site_type_symbol
  _atom_site_fract_x
  _atom_site_fract_y
  _atom_site_fract_z
O1 O -0.04537 0.31049 0.03874
 O2 O 0.03617 0.31368 -0.05336
 O3 O -0.04491 0.31538 -0.05434
 O4 O 0.03527 0.31442 0.03931
 O5 O 0.03741 0.24723 0.03722
 O6 O -0.04290 0.24821 -0.05606
 O7 O 0.03703 0.24651 -0.05572
 O8 O -0.04207 0.24331 0.03668
 Cu9 Cu -0.00503 0.32029 -0.00729
 Cu10 Cu -0.00245 0.23967 -0.00974
 C11 C -0.05754 0.27600 0.05316
 C12 C 0.05086 0.28029 -0.06964
 C13 C -0.05783 0.28200 -0.07085
 C14 C 0.05033 0.28066 0.05378
 O15 O 0.54262 0.80380 0.45412
 O16 O 0.46366 0.80607 0.54918
 O17 O 0.54448 0.80290 0.54715
 O18 O 0.46175 0.80822 0.45659
 O19 O 0.45997 0.74107 0.45541
 O20 O 0.54233 0.73577 0.54562
 O21 O 0.46267 0.73887 0.54809
 O22 O 0.53982 0.73670 0.45257
 Cu23 Cu 0.50341 0.81206 0.50186
 Cu24 Cu 0.50106 0.73141 0.50023
 C25 C 0.55482 0.76965 0.43750
 C26 C 0.44949 0.77265 0.56436
 C27 C 0.55766 0.76833 0.56149
 C28 C 0.44633 0.77545 0.44124
 O29 O 1.04466 0.67714 0.04264
 O30 O 0.96360 0.68180 -0.04943
 O31 O 1.04406 0.68251 -0.05045
 O32 O 0.96415 0.67841 0.04364
 O33 O 0.96335 0.74552 0.04755
 O34 O 1.04266 0.74955 -0.04605
 O35 O 0.96295 0.74893 -0.04551
 O36 O 1.04262 0.74415 0.04788
 Cu37 Cu 1.00427 0.67323 -0.00386
 Cu38 Cu 1.00295 0.75375 0.00131
 C39 C 1.05714 0.70983 0.06140
 C40 C 0.94940 0.71617 -0.06300
 C41 C 1.05684 0.71684 -0.06448
 C42 C 0.95020 0.71139 0.06162
 O43 O 0.45993 0.17560 0.43670
 O44 O 0.53400 0.17503 0.53765
 O45 O 0.45395 0.17018 0.52928
 O46 O 0.53997 0.17458 0.44424
 O47 O 0.53665 0.24173 0.44564
 O48 O 0.45152 0.23732 0.53287
 O49 O 0.53071 0.24217 0.53920
 O50 O 0.45739 0.24274 0.43971
 Cu51 Cu 0.49736 0.16712 0.48682
 Cu52 Cu 0.49383 0.24767 0.48965
 C53 C 0.44620 0.20956 0.42102
 C54 C 0.54474 0.20875 0.55571
 C55 C 0.43814 0.20283 0.54565
 C56 C 0.55256 0.20874 0.42983
 O57 O 0.71100 0.03498 -0.05207
 O58 O 0.70176 -0.04771 0.03747
 O59 O 0.70243 0.03245 0.04140
 O60 O 0.70342 -0.04356 -0.05493
 O61 O 0.77111 -0.04856 -0.05009
 O62 O 0.77010 0.02849 0.04646
 O63 O 0.76944 -0.05066 0.04305
 O64 O 0.77863 0.02947 -0.04684
 Cu65 Cu 0.69787 -0.00522 -0.00722
 Cu66 Cu 0.77903 -0.01066 -0.00116
 C67 C 0.74671 0.04555 -0.06529
 C68 C 0.73449 -0.06364 0.05491
 C69 C 0.73582 0.04354 0.06037
 C70 C 0.73725 -0.05907 -0.06893
 O71 O 0.20006 0.46908 0.54472
 O72 O 0.20586 0.55211 0.45480
 O73 O 0.19731 0.47308 0.45194
 O74 O 0.20105 0.54876 0.54844
 O75 O 0.26884 0.54438 0.54962
 O76 O 0.26504 0.46721 0.45328
 O77 O 0.27354 0.54542 0.45562
 O78 O 0.26794 0.46570 0.54630
 Cu79 Cu 0.19430 0.51146 0.49995
 Cu80 Cu 0.27555 0.50535 0.50128
 C81 C 0.23345 0.45329 0.56055
 C82 C 0.24109 0.56227 0.43949
 C83 C 0.23034 0.45698 0.43637
 C84 C 0.23525 0.55933 0.56577
 O85 O 0.30985 1.05131 0.04200
 O86 O 0.31073 0.96674 -0.04557
 O87 O 0.31225 1.04713 -0.05163
 O88 O 0.31255 0.97227 0.04685
 O89 O 0.24463 0.97340 0.04653
 O90 O 0.24444 1.04794 -0.05231
 O91 O 0.24284 0.96878 -0.04630
 O92 O 0.24203 1.05141 0.04135
 Cu93 Cu 0.31819 1.00948 -0.00244
 Cu94 Cu 0.23673 1.01058 -0.00305
 C95 C 0.27557 1.06507 0.05745
 C96 C 0.27659 0.95295 -0.06000
 C97 C 0.27843 1.06054 -0.06865
 C98 C 0.27863 0.96032 0.06367
 O99 O 0.80522 0.53709 0.53462
 O100 O 0.80515 0.45098 0.44944
 O101 O 0.80716 0.53042 0.44157
 O102 O 0.80689 0.45752 0.54198
 O103 O 0.73901 0.45912 0.54161
 O104 O 0.73928 0.53183 0.44102
 O105 O 0.73724 0.45328 0.44901
 O106 O 0.73732 0.53787 0.53414
 Cu107 Cu 0.81296 0.49396 0.49191
 Cu108 Cu 0.73144 0.49575 0.49143
 C109 C 0.77102 0.55204 0.54883
 C110 C 0.77091 0.43740 0.43509
 C111 C 0.77338 0.54353 0.42418
 C112 C 0.77290 0.44566 0.55867
 O113 O 0.30819 0.26385 0.25728
 O114 O 0.21510 0.29307 0.18809
 O115 O 0.25520 0.32311 0.26209
 O116 O 0.27284 0.23766 0.17970
 O117 O 0.23443 0.19860 0.22517
 O118 O 0.21798 0.28419 0.30905
 O119 O 0.17806 0.25438 0.23552
 O120 O 0.27053 0.22403 0.30271
 Cu121 Cu 0.26640 0.28349 0.21710
 Cu122 Cu 0.22143 0.23650 0.27272
 C123 C 0.30493 0.23904 0.29208
 C124 C 0.18077 0.27789 0.19973
 C125 C 0.23480 0.31801 0.30028
 C126 C 0.25644 0.20372 0.18805
 O127 O 0.68065 0.73903 0.25391
 O128 O 0.77145 0.71484 0.18017
 O129 O 0.73602 0.68172 0.25524
 O130 O 0.71673 0.77421 0.18248
 O131 O 0.75558 0.80907 0.23215
 O132 O 0.77568 0.71703 0.30350
 O133 O 0.81007 0.75091 0.22874
 O134 O 0.71920 0.77427 0.30351
 Cu135 Cu 0.72256 0.72378 0.21285
 Cu136 Cu 0.76912 0.76616 0.27196
 C137 C 0.68440 0.76059 0.29125
 C138 C 0.80604 0.72939 0.19123
 C139 C 0.75860 0.68398 0.29237
 C140 C 0.73287 0.80746 0.19529
 O141 O 0.74233 0.30679 0.25929
 O142 O 0.72508 0.21630 0.18527
 O143 O 0.68964 0.24939 0.26159
 O144 O 0.77872 0.27449 0.18647
 O145 O 0.81908 0.23798 0.23437
 O146 O 0.72994 0.21175 0.30823
 O147 O 0.76661 0.17999 0.23188
 O148 O 0.78276 0.27051 0.30735
 Cu149 Cu 0.72961 0.26498 0.21818
 Cu150 Cu 0.77834 0.22108 0.27536
 C151 C 0.76558 0.30416 0.29571
 C152 C 0.74385 0.18311 0.19494
 C153 C 0.69491 0.22726 0.29856
 C154 C 0.81417 0.26089 0.19814
 O155 O 0.26918 0.79233 0.19896
 O156 O 0.23966 0.71203 0.28391
 O157 O 0.20670 0.74551 0.20799
 O158 O 0.30389 0.75693 0.27288
 O159 O 0.27466 0.80292 0.32006
 O160 O 0.17722 0.79257 0.25354
 O161 O 0.20910 0.75810 0.32981
 O162 O 0.23967 0.83840 0.24584
 Cu163 Cu 0.25790 0.74702 0.23645
 Cu164 Cu 0.22240 0.80256 0.29238
 C165 C 0.25840 0.82896 0.20742
 C166 C 0.21924 0.72138 0.32125
 C167 C 0.17574 0.76768 0.21883
 C168 C 0.30590 0.78162 0.30761
 O169 O 0.76922 0.27346 0.68843
 O170 O 0.74216 0.18952 0.77009
 O171 O 0.71447 0.21679 0.68813
 O172 O 0.80126 0.24106 0.76623
 O173 O 0.76173 0.28275 0.80858
 O174 O 0.67434 0.25933 0.72864
 O175 O 0.70130 0.23148 0.81044
 O176 O 0.72947 0.31509 0.73062
 Cu177 Cu 0.76083 0.22610 0.72412
 Cu178 Cu 0.71285 0.27643 0.77376
 C179 C 0.75314 0.30853 0.69527
 C180 C 0.71706 0.19638 0.80421
 C181 C 0.67980 0.23407 0.69456
 C182 C 0.79635 0.26523 0.80124
 O183 O 0.32416 0.74710 0.74674
 O184 O 0.23358 0.72233 0.81863
 O185 O 0.26988 0.69140 0.74155
 O186 O 0.28665 0.78183 0.81782
 O187 O 0.24771 0.81856 0.76864
 O188 O 0.22880 0.72851 0.69523
 O189 O 0.19444 0.76116 0.77204
 O190 O 0.28514 0.78376 0.69752
 Cu191 Cu 0.28207 0.73176 0.78633
 Cu192 Cu 0.23489 0.77644 0.72851
 C193 C 0.32016 0.76929 0.70980
 C194 C 0.19885 0.73826 0.80856
 C195 C 0.24715 0.69510 0.70457
 C196 C 0.27043 0.81580 0.80542
 O197 O 0.25632 0.32764 0.74345
 O198 O 0.27831 0.23694 0.81720
 O199 O 0.31569 0.27480 0.74656
 O200 O 0.21847 0.29109 0.81164
 O201 O 0.18641 0.25261 0.75911
 O202 O 0.28373 0.23602 0.69436
 O203 O 0.24519 0.19891 0.76522
 O204 O 0.22376 0.28974 0.69074
 Cu205 Cu 0.27064 0.28608 0.78522
 Cu206 Cu 0.23191 0.24020 0.72199
 C207 C 0.23619 0.32421 0.70474
 C208 C 0.26454 0.20270 0.80453
 C209 C 0.31601 0.25357 0.70861
 C210 C 0.18581 0.27504 0.79607
 O211 O 0.74695 0.67765 0.73264
 O212 O 0.73071 0.76682 0.81025
 O213 O 0.69124 0.73482 0.73819
 O214 O 0.78611 0.70942 0.80430
 O215 O 0.82182 0.74700 0.75420
 O216 O 0.72666 0.77275 0.68825
 O217 O 0.76719 0.80412 0.76066
 O218 O 0.78292 0.71489 0.68249
 Cu219 Cu 0.73507 0.71848 0.77632
 Cu220 Cu 0.77798 0.76352 0.71607
 C221 C 0.76775 0.68101 0.69447
 C222 C 0.74711 0.80032 0.79938
 C223 C 0.69281 0.75781 0.70172
 C224 C 0.82001 0.72422 0.79085
 C225 C 0.27498 0.09522 0.09267
 C226 C 0.23996 0.10720 0.11438
 C227 C 0.23777 0.13858 0.15202
 C228 C 0.26261 0.17054 0.15337
 H229 H 0.21140 0.09223 0.10615
 H230 H 0.21229 0.13701 0.17687
 H231 H 0.30397 0.10796 0.10373
 H232 H 0.28600 0.17416 0.12621
 C233 C 0.76936 0.58608 0.58287
 C234 C 0.80202 0.60849 0.59383
 C235 C 0.79898 0.64379 0.62647
 C236 C 0.77301 0.64504 0.66370
 H237 H 0.83109 0.60275 0.57599
 H238 H 0.81939 0.66889 0.62011
 H239 H 0.73952 0.59398 0.59770
 H240 H 0.75487 0.61871 0.67228
 C241 C 0.73328 0.90393 0.08699
 C242 C 0.69896 0.88425 0.09873
 C243 C 0.70041 0.84806 0.13030
 C244 C 0.72702 0.84475 0.16683
 H245 H 0.66991 0.89238 0.08193
 H246 H 0.67910 0.82386 0.12316
 H247 H 0.76254 0.89304 0.10110
 H248 H 0.74608 0.87028 0.17606
 C249 C 0.23354 0.42016 0.59581
 C250 C 0.20085 0.39732 0.60504
 C251 C 0.20382 0.36172 0.63738
 C252 C 0.22883 0.36086 0.67560
 H253 H 0.17250 0.40239 0.58535
 H254 H 0.18504 0.33574 0.62925
 H255 H 0.26286 0.41261 0.61230
 H256 H 0.24521 0.38792 0.68578
 C257 C 0.90982 0.27264 0.08901
 C258 C 0.88452 0.30354 0.10093
 C259 C 0.84933 0.29772 0.13346
 C260 C 0.85030 0.27037 0.16909
 H261 H 0.88728 0.33274 0.08332
 H262 H 0.82205 0.31647 0.12763
 H263 H 0.90476 0.24253 0.10341
 H264 H 0.87853 0.25380 0.17725
 C265 C 0.41696 0.77204 0.60070
 C266 C 0.39253 0.80429 0.61017
 C267 C 0.35688 0.80149 0.64269
 C268 C 0.35683 0.77648 0.68059
 H269 H 0.39624 0.83232 0.59031
 H270 H 0.33012 0.82044 0.63491
 H271 H 0.41087 0.74292 0.61718
 H272 H 0.38457 0.75967 0.69026
 C273 C 0.08735 0.70757 0.09681
 C274 C 0.09839 0.73993 0.12254
 C275 C 0.13262 0.73712 0.15685
 C276 C 0.13828 0.76621 0.18945
 H277 H 0.08255 0.76901 0.11797
 H278 H 0.15422 0.71171 0.15419
 H279 H 0.10196 0.67825 0.10397
 H280 H 0.11575 0.79071 0.19316
 C281 C 0.57424 0.20914 0.59581
 C282 C 0.57989 0.24292 0.62184
 C283 C 0.61119 0.24688 0.65986
 C284 C 0.64633 0.22510 0.66084
 H285 H 0.56049 0.26951 0.61539
 H286 H 0.60669 0.27159 0.68508
 H287 H 0.59121 0.18135 0.60390
 H288 H 0.65237 0.20210 0.63388
 C289 C 0.75228 0.07615 0.89700
 C290 C 0.72212 0.10076 0.88131
 C291 C 0.73080 0.13119 0.84413
 C292 C 0.70638 0.16378 0.83782
 H293 H 0.69172 0.09954 0.89703
 H294 H 0.75894 0.12810 0.82355
 H295 H 0.78296 0.07916 0.88240
 H296 H 0.67954 0.16810 0.86036
 C297 C 0.24557 0.59312 0.40185
 C298 C 0.21764 0.62238 0.39285
 C299 C 0.22621 0.65303 0.35581
 C300 C 0.20763 0.68959 0.35569
 H301 H 0.18983 0.62480 0.41407
 H302 H 0.25012 0.64634 0.32977
 H303 H 0.27434 0.59287 0.38224
 H304 H 0.18532 0.69718 0.38324
 C305 C 0.27492 0.91796 0.90740
 C306 C 0.30669 0.89218 0.90017
 C307 C 0.30297 0.85508 0.87051
 C308 C 0.27667 0.85289 0.83367
 H309 H 0.33528 0.89652 0.91926
 H310 H 0.32293 0.82932 0.87895
 H311 H 0.24522 0.91172 0.89179
 H312 H 0.25888 0.87956 0.82301
 C313 C 0.76913 0.40277 0.40206
 C314 C 0.80165 0.37871 0.39209
 C315 C 0.79835 0.34257 0.36097
 C316 C 0.77136 0.34082 0.32476
 H317 H 0.83079 0.38379 0.40971
 H318 H 0.81920 0.31715 0.36778
 H319 H 0.73919 0.39573 0.38761
 H320 H 0.75260 0.36728 0.31567
 C321 C 0.08324 0.27956 0.89785
 C322 C 0.10400 0.31269 0.88497
 C323 C 0.14149 0.30966 0.85535
 C324 C 0.14675 0.28119 0.82149
 H325 H 0.09618 0.34209 0.90032
 H326 H 0.16537 0.33149 0.86199
 H327 H 0.09353 0.24992 0.88521
 H328 H 0.12174 0.26140 0.81207
 C329 C 0.58716 0.76721 0.40089
 C330 C 0.61222 0.79807 0.39129
 C331 C 0.64767 0.79363 0.35851
 C332 C 0.64780 0.76829 0.32093
 H333 H 0.60913 0.82623 0.41119
 H334 H 0.67427 0.81200 0.36570
 H335 H 0.59238 0.73786 0.38416
 H336 H 0.62026 0.75201 0.31165
 C337 C 0.91662 0.71877 0.90087
 C338 C 0.89461 0.68650 0.88800
 C339 C 0.85906 0.69014 0.85536
 C340 C 0.85758 0.71669 0.81895
 H341 H 0.90015 0.65736 0.90520
 H342 H 0.83343 0.67031 0.86186
 H343 H 0.90885 0.74865 0.88675
 H344 H 0.88426 0.73453 0.81035
 C345 C 0.41631 0.21048 0.38138
 C346 C 0.40838 0.24485 0.35681
 C347 C 0.37545 0.24948 0.32069
 C348 C 0.34071 0.22833 0.32212
 H349 H 0.42665 0.27149 0.36351
 H350 H 0.37800 0.27460 0.29576
 H351 H 0.40057 0.18270 0.37272
 H352 H 0.33661 0.20518 0.34924
 C353 C 0.73640 0.90998 0.89309
 C354 C 0.77032 0.89721 0.87011
 C355 C 0.77010 0.86515 0.83304
 C356 C 0.74347 0.83450 0.83316
 H357 H 0.79941 0.91145 0.87753
 H358 H 0.79503 0.86504 0.80734
 H359 H 0.70674 0.89805 0.88332
 H360 H 0.72073 0.83231 0.86129
 C361 C 0.22770 0.42578 0.39869
 C362 C 0.26074 0.41244 0.37449
 C363 C 0.25917 0.38108 0.33667
 C364 C 0.23175 0.35106 0.33578
 H365 H 0.29027 0.42611 0.38104
 H366 H 0.28393 0.38104 0.31075
 H367 H 0.19757 0.41438 0.39004
 H368 H 0.20899 0.34862 0.36385
 C369 C 0.27918 0.08982 0.89493
 C370 C 0.24501 0.10345 0.87263
 C371 C 0.24479 0.13587 0.83584
 C372 C 0.27013 0.16758 0.83698
 H373 H 0.21570 0.08976 0.88037
 H374 H 0.21984 0.13575 0.81008
 H375 H 0.30874 0.10154 0.88437
 H376 H 0.29270 0.16990 0.86538
 C377 C 0.77427 0.57344 0.38486
 C378 C 0.74044 0.58429 0.36015
 C379 C 0.73941 0.61675 0.32340
 C380 C 0.76445 0.64867 0.32430
 H381 H 0.71194 0.56870 0.36671
 H382 H 0.71435 0.61629 0.29780
 H383 H 0.80355 0.58678 0.37635
 H384 H 0.78746 0.65108 0.35217
 C385 C 0.08685 0.71819 0.89968
 C386 C 0.09894 0.75330 0.87990
 C387 C 0.13129 0.75606 0.84291
 C388 C 0.16397 0.73073 0.84087
 H389 H 0.08373 0.78167 0.88977
 H390 H 0.13011 0.78257 0.81980
 H391 H 0.09996 0.68963 0.88705
 H392 H 0.16726 0.70622 0.86664
 C393 C 0.58593 0.20950 0.39423
 C394 C 0.59470 0.24315 0.36940
 C395 C 0.62743 0.24521 0.33279
 C396 C 0.66066 0.22047 0.33193
 H397 H 0.57612 0.27047 0.37460
 H398 H 0.62535 0.27041 0.30779
 H399 H 0.60223 0.18118 0.38703
 H400 H 0.66487 0.19713 0.35897
 C401 C 0.90890 0.28275 0.89314
 C402 C 0.89779 0.24899 0.87002
 C403 C 0.86416 0.24733 0.83453
 C404 C 0.83084 0.27205 0.83456
 H405 H 0.91501 0.22090 0.87591
 H406 H 0.86565 0.22206 0.80965
 H407 H 0.89369 0.31159 0.88542
 H408 H 0.82739 0.29564 0.86137
 C409 C 0.41160 0.77650 0.40746
 C410 C 0.38883 0.81024 0.39931
 C411 C 0.35098 0.81033 0.36986
 C412 C 0.34495 0.78404 0.33399
 H413 H 0.39594 0.83807 0.41808
 H414 H 0.32755 0.83308 0.37809
 H415 H 0.40276 0.74776 0.39198
 H416 H 0.36926 0.76293 0.32361
 C417 C 0.27906 0.93075 0.10331
 C418 C 0.24575 0.92484 0.13036
 C419 C 0.24410 0.89515 0.16995
 C420 C 0.26622 0.86034 0.17106
 H421 H 0.21842 0.94351 0.12451
 H422 H 0.22062 0.90057 0.19680
 H423 H 0.30759 0.91459 0.11111
 H424 H 0.28728 0.85285 0.14225
 C425 C 0.77310 0.41532 0.59757
 C426 C 0.73882 0.40634 0.62153
 C427 C 0.73668 0.37494 0.65923
 C428 C 0.76088 0.34147 0.66073
 H429 H 0.71071 0.42345 0.61428
 H430 H 0.71130 0.37797 0.68414
 H431 H 0.80202 0.40039 0.60665
 H432 H 0.78437 0.33644 0.63382
 C433 C 0.73404 0.07467 0.09837
 C434 C 0.76695 0.08473 0.12443
 C435 C 0.76649 0.11701 0.16147
 C436 C 0.73983 0.14865 0.16158
 H437 H 0.79571 0.06819 0.11930
 H438 H 0.79146 0.11625 0.18721
 H439 H 0.70449 0.08914 0.10520
 H440 H 0.71664 0.15149 0.13389
 C441 C 0.23504 0.58957 0.60472
 C442 C 0.26867 0.59849 0.63018
 C443 C 0.26927 0.62972 0.66848
 C444 C 0.24252 0.66121 0.67061
 H445 H 0.29711 0.58182 0.62352
 H446 H 0.29489 0.62841 0.69332
 H447 H 0.20580 0.60402 0.61314
 H448 H 0.21874 0.66472 0.64370
 C449 C 0.91801 0.70993 0.09874
 C450 C 0.90871 0.74251 0.12580
 C451 C 0.87544 0.74408 0.16180
 C452 C 0.84127 0.72204 0.15897
 H453 H 0.92683 0.76969 0.12234
 H454 H 0.87761 0.76746 0.18897
 H455 H 0.90224 0.68156 0.10408
 H456 H 0.83736 0.70068 0.12988
 C457 C 0.40340 0.20015 0.57913
 C458 C 0.39450 0.22952 0.61066
 C459 C 0.35825 0.22691 0.64201
 C460 C 0.35401 0.25130 0.68004
 H461 H 0.41402 0.25583 0.61329
 H462 H 0.33440 0.20555 0.63316
 H463 H 0.38524 0.17283 0.57851
 H464 H 0.37863 0.27160 0.68947
 C465 C 0.08351 0.27953 0.08972
 C466 C 0.10680 0.31181 0.09933
 C467 C 0.14271 0.30930 0.13188
 C468 C 0.14356 0.28531 0.17068
 H469 H 0.10190 0.33988 0.07959
 H470 H 0.16896 0.32775 0.12340
 H471 H 0.09073 0.25039 0.10615
 H472 H 0.11633 0.26880 0.18060
 C473 C 0.59150 0.76512 0.59638
 C474 C 0.61606 0.79629 0.60649
 C475 C 0.65274 0.79174 0.63749
 C476 C 0.65482 0.76552 0.67425
 H477 H 0.61152 0.82509 0.58816
 H478 H 0.67864 0.81088 0.62968
 H479 H 0.59802 0.73532 0.61147
 H480 H 0.62805 0.74833 0.68415
   
