data_POSCAR
  _audit_creation_date              2014-09-24
  _audit_creation_method            'ToBaCCo'
  _symmetry_space_group_name_H-M    'P1'
  _symmetry_Int_Tables_number       1
  _symmetry_cell_setting            triclinic
  loop_
  _symmetry_equiv_pos_as_xyz
 x,y,z
_cell_length_a 46.8201
_cell_length_b 46.8378
_cell_length_c 46.8327
_cell_angle_alpha 89.992400
_cell_angle_beta 90.000400
_cell_angle_gamma 90.003700
loop_
  _atom_site_label
  _atom_site_type_symbol
  _atom_site_fract_x
  _atom_site_fract_y
  _atom_site_fract_z
C1 C 0.27426 0.23801 0.23758
 C2 C 0.26203 0.22577 0.26202
 C3 C 0.23786 0.23785 0.27410
 C4 C 0.22565 0.26231 0.26190
 C5 C 0.23774 0.27440 0.23775
 C6 C 0.26219 0.26218 0.22552
 C7 C 0.29769 0.23086 0.22130
 N8 N 0.29993 0.25011 0.19984
 C9 C 0.27846 0.26935 0.20209
 C10 C 0.22148 0.29784 0.23060
 N11 N 0.20000 0.30007 0.24984
 C12 C 0.20222 0.27858 0.26906
 C13 C 0.23070 0.22156 0.29752
 N14 N 0.24993 0.20008 0.29974
 C15 C 0.26917 0.20233 0.27827
 H16 H 0.31202 0.21305 0.22475
 H17 H 0.27500 0.28717 0.18777
 H18 H 0.22496 0.31219 0.21281
 H19 H 0.18787 0.27511 0.28686
 H20 H 0.21289 0.22502 0.31186
 H21 H 0.28698 0.18799 0.27480
 C22 C 0.72519 -0.23828 0.23710
 C23 C 0.73744 -0.22605 0.26153
 C24 C 0.76167 -0.23807 0.27355
 C25 C 0.77394 -0.26247 0.26129
 C26 C 0.76183 -0.27457 0.23714
 C27 C 0.73732 -0.26241 0.22497
 C28 C 0.70170 -0.23117 0.22089
 N29 N 0.69948 -0.25042 0.19941
 C30 C 0.72102 -0.26961 0.20157
 C31 C 0.77815 -0.29796 0.22993
 N32 N 0.79967 -0.30013 0.24914
 C33 C 0.79743 -0.27868 0.26840
 C34 C 0.76883 -0.22180 0.29697
 N35 N 0.74954 -0.20039 0.29927
 C36 C 0.73026 -0.20266 0.27784
 H37 H 0.68732 -0.21340 0.22442
 H38 H 0.72453 -0.28740 0.18723
 H39 H 0.77466 -0.31228 0.21211
 H40 H 0.81179 -0.27516 0.28620
 H41 H 0.78668 -0.22524 0.31127
 H42 H 0.71240 -0.18837 0.27442
 C43 C 0.72603 0.23884 0.76235
 C44 C 0.73833 0.22658 0.73796
 C45 C 0.76252 0.23865 0.72592
 C46 C 0.77470 0.26313 0.73812
 C47 C 0.76255 0.27525 0.76224
 C48 C 0.73807 0.26303 0.77442
 C49 C 0.70256 0.23168 0.77858
 N50 N 0.70028 0.25096 0.80001
 C51 C 0.72174 0.27022 0.79781
 C52 C 0.77878 0.29870 0.76940
 N53 N 0.80031 0.30090 0.75020
 C54 C 0.79815 0.27940 0.73098
 C55 C 0.76974 0.22233 0.70254
 N56 N 0.75052 0.20085 0.70031
 C57 C 0.73123 0.20312 0.72173
 H58 H 0.68825 0.21384 0.77509
 H59 H 0.72519 0.28806 0.81211
 H60 H 0.77524 0.31305 0.78719
 H61 H 0.81253 0.27589 0.71321
 H62 H 0.78758 0.22578 0.68824
 H63 H 0.71342 0.18878 0.72518
 C64 C 0.27434 -0.23891 0.76321
 C65 C 0.26211 -0.22667 0.73877
 C66 C 0.23787 -0.23867 0.72676
 C67 C 0.22556 -0.26304 0.73905
 C68 C 0.23765 -0.27515 0.76321
 C69 C 0.26218 -0.26301 0.77536
 C70 C 0.29784 -0.23180 0.77942
 N71 N 0.30003 -0.25103 0.80092
 C72 C 0.27847 -0.27020 0.79878
 C73 C 0.22129 -0.29850 0.77044
 N74 N 0.19977 -0.30065 0.75123
 C75 C 0.20204 -0.27922 0.73195
 C76 C 0.23073 -0.22240 0.70333
 N77 N 0.25005 -0.20101 0.70102
 C78 C 0.26933 -0.20329 0.72245
 H79 H 0.31223 -0.21404 0.77588
 H80 H 0.27494 -0.28798 0.81314
 H81 H 0.22475 -0.31282 0.78827
 H82 H 0.18769 -0.27569 0.71415
 H83 H 0.21287 -0.22581 0.68904
 H84 H 0.28720 -0.18902 0.72586
 C85 C 0.72527 -0.23845 0.76310
 C86 C 0.73751 -0.22621 0.73868
 C87 C 0.76173 -0.23823 0.72665
 C88 C 0.77400 -0.26263 0.73890
 C89 C 0.76190 -0.27475 0.76305
 C90 C 0.73739 -0.26259 0.77522
 C91 C 0.70177 -0.23135 0.77932
 N92 N 0.69956 -0.25060 0.80079
 C93 C 0.72109 -0.26979 0.79862
 C94 C 0.77822 -0.29814 0.77025
 N95 N 0.79973 -0.30030 0.75103
 C96 C 0.79749 -0.27884 0.73178
 C97 C 0.76889 -0.22195 0.70323
 N98 N 0.74960 -0.20053 0.70094
 C99 C 0.73033 -0.20281 0.72238
 H100 H 0.68740 -0.21357 0.77579
 H101 H 0.72459 -0.28760 0.81296
 H102 H 0.77472 -0.31248 0.78806
 H103 H 0.81185 -0.27532 0.71398
 H104 H 0.78674 -0.22537 0.68892
 H105 H 0.71248 -0.18851 0.72580
 C106 C 0.27468 0.23816 0.76246
 C107 C 0.26237 0.22589 0.73808
 C108 C 0.23815 0.23792 0.72607
 C109 C 0.22594 0.26237 0.73830
 C110 C 0.23811 0.27451 0.76239
 C111 C 0.26262 0.26234 0.77454
 C112 C 0.29819 0.23104 0.77866
 N113 N 0.30047 0.25033 0.80008
 C114 C 0.27897 0.26956 0.79791
 C115 C 0.22183 0.29793 0.76956
 N116 N 0.20028 0.30011 0.75040
 C117 C 0.20247 0.27860 0.73120
 C118 C 0.23092 0.22160 0.70271
 N119 N 0.25017 0.20015 0.70044
 C120 C 0.26949 0.20244 0.72183
 H121 H 0.31251 0.21323 0.77515
 H122 H 0.27551 0.28739 0.81222
 H123 H 0.22536 0.31231 0.78732
 H124 H 0.18806 0.27509 0.71346
 H125 H 0.21305 0.22502 0.68843
 H126 H 0.28733 0.18813 0.72526
 C127 C 0.27441 -0.23874 0.23697
 C128 C 0.26219 -0.22651 0.26142
 C129 C 0.23795 -0.23850 0.27343
 C130 C 0.22563 -0.26286 0.26114
 C131 C 0.23770 -0.27496 0.23697
 C132 C 0.26223 -0.26282 0.22482
 C133 C 0.29791 -0.23164 0.22076
 N134 N 0.30008 -0.25086 0.19926
 C135 C 0.27852 -0.27001 0.20140
 C136 C 0.22133 -0.29830 0.22974
 N137 N 0.19981 -0.30045 0.24895
 C138 C 0.20210 -0.27903 0.26824
 C139 C 0.23082 -0.22225 0.29687
 N140 N 0.25015 -0.20087 0.29919
 C141 C 0.26942 -0.20315 0.27775
 H142 H 0.31231 -0.21389 0.22431
 H143 H 0.27497 -0.28778 0.18703
 H144 H 0.22478 -0.31261 0.21190
 H145 H 0.18776 -0.27551 0.28605
 H146 H 0.21296 -0.22566 0.31117
 H147 H 0.28730 -0.18888 0.27434
 C148 C 0.72647 0.23866 0.23768
 C149 C 0.73870 0.22645 0.26213
 C150 C 0.76283 0.23857 0.27425
 C151 C 0.77502 0.26306 0.26206
 C152 C 0.76292 0.27513 0.23789
 C153 C 0.73851 0.26286 0.22563
 C154 C 0.70308 0.23147 0.22137
 N155 N 0.70082 0.25071 0.19991
 C156 C 0.72225 0.27000 0.20219
 C157 C 0.77914 0.29861 0.23075
 N158 N 0.80059 0.30087 0.25003
 C159 C 0.79841 0.27938 0.26926
 C160 C 0.76999 0.22229 0.29767
 N161 N 0.75079 0.20078 0.29987
 C162 C 0.73158 0.20300 0.27837
 H163 H 0.68877 0.21363 0.22481
 H164 H 0.72569 0.28782 0.18787
 H165 H 0.77563 0.31294 0.21294
 H166 H 0.81273 0.27591 0.28709
 H167 H 0.78777 0.22579 0.31204
 H168 H 0.71380 0.18862 0.27487
 O169 O 0.27369 0.02714 0.47233
 O170 O 0.27376 -0.02847 0.52796
 O171 O 0.27377 -0.02846 0.47233
 O172 O 0.27371 0.02714 0.52794
 O173 O 0.22647 0.02709 0.52795
 O174 O 0.22653 -0.02852 0.47234
 O175 O 0.22653 -0.02852 0.52796
 O176 O 0.22645 0.02708 0.47234
 Cu177 Cu 0.27850 -0.00066 0.50014
 Cu178 Cu 0.22173 -0.00073 0.50015
 C179 C 0.25006 0.03650 0.46295
 C180 C 0.25016 -0.03788 0.53735
 C181 C 0.25016 -0.03787 0.46294
 C182 C 0.25008 0.03651 0.53732
 O183 O 0.72664 0.02779 0.52795
 O184 O 0.72637 -0.02781 0.47233
 O185 O 0.72638 -0.02782 0.52796
 O186 O 0.72665 0.02780 0.47235
 O187 O 0.77388 0.02758 0.47235
 O188 O 0.77362 -0.02804 0.52796
 O189 O 0.77361 -0.02803 0.47233
 O190 O 0.77388 0.02757 0.52795
 Cu191 Cu 0.72175 0.00001 0.50015
 Cu192 Cu 0.77851 -0.00025 0.50015
 C193 C 0.75030 0.03707 0.53733
 C194 C 0.74995 -0.03729 0.46294
 C195 C 0.74996 -0.03731 0.53735
 C196 C 0.75031 0.03709 0.46297
 O197 O 0.47256 0.27414 0.02695
 O198 O 0.52819 0.27435 -0.02867
 O199 O 0.47255 0.27424 -0.02867
 O200 O 0.52818 0.27425 0.02694
 O201 O 0.52827 0.22703 0.02687
 O202 O 0.47264 0.22702 -0.02874
 O203 O 0.52827 0.22713 -0.02874
 O204 O 0.47265 0.22692 0.02687
 Cu205 Cu 0.50036 0.27901 -0.00086
 Cu206 Cu 0.50047 0.22226 -0.00095
 C207 C 0.46322 0.25050 0.03630
 C208 C 0.53763 0.25077 -0.03809
 C209 C 0.46320 0.25063 -0.03809
 C210 C 0.53761 0.25064 0.03629
 O211 O 0.52770 0.72555 0.02789
 O212 O 0.47206 0.72545 -0.02773
 O213 O 0.52770 0.72552 -0.02773
 O214 O 0.47206 0.72548 0.02788
 O215 O 0.47201 0.77270 0.02785
 O216 O 0.52764 0.77274 -0.02776
 O217 O 0.47201 0.77267 -0.02776
 O218 O 0.52764 0.77277 0.02786
 Cu219 Cu 0.49989 0.72074 0.00008
 Cu220 Cu 0.49982 0.77748 0.00004
 C221 C 0.53706 0.74918 0.03726
 C222 C 0.46264 0.74904 -0.03712
 C223 C 0.53706 0.74913 -0.03713
 C224 C 0.46265 0.74908 0.03725
 O225 O 0.02741 0.47312 0.27306
 O226 O -0.02822 0.52872 0.27290
 O227 O -0.02821 0.47311 0.27313
 O228 O 0.02742 0.52872 0.27283
 O229 O 0.02736 0.52855 0.22561
 O230 O -0.02826 0.47293 0.22590
 O231 O -0.02828 0.52854 0.22568
 O232 O 0.02735 0.47294 0.22583
 Cu233 Cu -0.00040 0.50094 0.27774
 Cu234 Cu -0.00046 0.50073 0.22099
 C235 C 0.03677 0.46364 0.24947
 C236 C -0.03765 0.53801 0.24927
 C237 C -0.03761 0.46362 0.24956
 C238 C 0.03679 0.53801 0.24918
 O239 O 0.02741 0.52848 0.72741
 O240 O -0.02822 0.47287 0.72716
 O241 O -0.02823 0.52848 0.72736
 O242 O 0.02740 0.47288 0.72721
 O243 O 0.02736 0.47270 0.77443
 O244 O -0.02827 0.52831 0.77458
 O245 O -0.02826 0.47269 0.77438
 O246 O 0.02737 0.52831 0.77463
 Cu247 Cu -0.00041 0.50070 0.72252
 Cu248 Cu -0.00046 0.50049 0.77927
 C249 C 0.03679 0.53777 0.75106
 C250 C -0.03762 0.46339 0.75073
 C251 C -0.03765 0.53777 0.75100
 C252 C 0.03677 0.46340 0.75079
 C253 C 0.36093 0.25019 0.13878
 N254 N 0.38271 0.26926 0.13984
 N255 N 0.40282 0.26931 0.11969
 C256 C 0.40174 0.25030 0.09788
 N257 N 0.37997 0.23123 0.09682
 N258 N 0.35986 0.23118 0.11697
 C259 C 0.33928 0.25015 0.16046
 C260 C 0.32109 0.25012 0.17868
 C261 C 0.42339 0.25035 0.07619
 C262 C 0.44157 0.25041 0.05797
 C263 C 0.63948 0.74944 0.13961
 N264 N 0.62947 0.72443 0.12897
 N265 N 0.60933 0.72438 0.10886
 C266 C 0.59860 0.74932 0.09878
 N267 N 0.60862 0.77432 0.10943
 N268 N 0.62876 0.77438 0.12954
 C269 C 0.66118 0.74950 0.16125
 C270 C 0.67942 0.74954 0.17943
 C271 C 0.57692 0.74925 0.07712
 C272 C 0.55872 0.74921 0.05892
 C273 C 0.64025 0.25098 -0.14023
 N274 N 0.64463 0.23734 -0.11506
 N275 N 0.62445 0.23732 -0.09499
 C276 C 0.59928 0.25093 -0.09948
 N277 N 0.59490 0.26457 -0.12466
 N278 N 0.61508 0.26459 -0.14473
 C279 C 0.66196 0.25098 -0.16185
 C280 C 0.68021 0.25096 -0.18001
 C281 C 0.57756 0.25090 -0.07788
 C282 C 0.55931 0.25085 -0.05971
 C283 C 0.36005 0.74894 -0.13931
 N284 N 0.37069 0.72397 -0.12920
 N285 N 0.39086 0.72399 -0.10912
 C286 C 0.40101 0.74897 -0.09855
 N287 N 0.39036 0.77393 -0.10866
 N288 N 0.37019 0.77392 -0.12873
 C289 C 0.33833 0.74893 -0.16092
 C290 C 0.32009 0.74894 -0.17909
 C291 C 0.42272 0.74898 -0.07693
 C292 C 0.44096 0.74901 -0.05876
 C293 C 0.13903 0.36115 0.24979
 N294 N 0.11098 0.35390 0.24988
 N295 N 0.09089 0.37405 0.24982
 C296 C 0.09823 0.40206 0.24967
 N297 N 0.12628 0.40932 0.24958
 N298 N 0.14637 0.38916 0.24964
 C299 C 0.16066 0.33946 0.24983
 C300 C 0.17885 0.32124 0.24984
 C301 C 0.07660 0.42376 0.24959
 C302 C 0.05841 0.44198 0.24953
 C303 C 0.13958 0.63974 0.75129
 N304 N 0.12535 0.63331 0.72690
 N305 N 0.10512 0.61329 0.72687
 C306 C 0.09852 0.59910 0.75124
 N307 N 0.11275 0.60553 0.77563
 N308 N 0.13298 0.62555 0.77565
 C309 C 0.16136 0.66130 0.75130
 C310 C 0.17965 0.67942 0.75128
 C311 C 0.07676 0.57752 0.75120
 C312 C 0.05850 0.55938 0.75115
 C313 C -0.14028 0.64014 0.24908
 N314 N -0.11226 0.64751 0.24922
 N315 N -0.09208 0.62744 0.24924
 C316 C -0.09931 0.59940 0.24912
 N317 N -0.12732 0.59203 0.24898
 N318 N -0.14750 0.61210 0.24896
 C319 C -0.16200 0.66174 0.24908
 C320 C -0.18026 0.67990 0.24910
 C321 C -0.07758 0.57779 0.24916
 C322 C -0.05934 0.55963 0.24921
 C323 C -0.13985 0.36084 0.75033
 N324 N -0.13541 0.37720 0.72684
 N325 N -0.11532 0.39736 0.72692
 C326 C -0.09906 0.40177 0.75048
 N327 N -0.10350 0.38542 0.77396
 N328 N -0.12359 0.36525 0.77389
 C329 C -0.16149 0.33915 0.75026
 C330 C -0.17968 0.32093 0.75023
 C331 C -0.07744 0.42348 0.75056
 C332 C -0.05926 0.44171 0.75063
 C333 C 0.24995 0.13899 0.36069
 N334 N 0.23238 0.11607 0.35848
 N335 N 0.23240 0.09592 0.37858
 C336 C 0.24999 0.09808 0.40148
 N337 N 0.26757 0.12099 0.40369
 N338 N 0.26755 0.14114 0.38360
 C339 C 0.24993 0.16068 0.33906
 C340 C 0.24992 0.17891 0.32088
 C341 C 0.25001 0.07638 0.42312
 C342 C 0.25003 0.05817 0.44130
 C343 C 0.75058 0.13965 0.63947
 N344 N 0.76816 0.14176 0.61654
 N345 N 0.76813 0.12158 0.59648
 C346 C 0.75052 0.09869 0.59874
 N347 N 0.73295 0.09659 0.62167
 N348 N 0.73298 0.11677 0.64173
 C349 C 0.75059 0.16139 0.66106
 C350 C 0.75057 0.17964 0.67920
 C351 C 0.75047 0.07698 0.57713
 C352 C 0.75040 0.05875 0.55896
 C353 C 0.25014 -0.14007 0.63991
 N354 N 0.27070 -0.13980 0.61950
 N355 N 0.27071 -0.11972 0.59934
 C356 C 0.25017 -0.09930 0.59897
 N357 N 0.22962 -0.09957 0.61938
 N358 N 0.22961 -0.11965 0.63954
 C359 C 0.25012 -0.16170 0.66161
 C360 C 0.25008 -0.17987 0.67984
 C361 C 0.25018 -0.07768 0.57726
 C362 C 0.25018 -0.05951 0.55903
 C363 C 0.74959 -0.13948 0.36040
 N364 N 0.76734 -0.14163 0.38318
 N365 N 0.76740 -0.12155 0.40334
 C366 C 0.74970 -0.09872 0.40133
 N367 N 0.73194 -0.09657 0.37855
 N368 N 0.73189 -0.11664 0.35838
 C369 C 0.74955 -0.16109 0.33868
 C370 C 0.74953 -0.17926 0.32045
 C371 C 0.74977 -0.07709 0.42303
 C372 C 0.74985 -0.05892 0.44126
 C373 C 0.63954 0.74927 -0.13943
 N374 N 0.62950 0.72428 -0.12877
 N375 N 0.60935 0.72425 -0.10867
 C376 C 0.59863 0.74920 -0.09862
 N377 N 0.60867 0.77419 -0.10928
 N378 N 0.62883 0.77422 -0.12938
 C379 C 0.66124 0.74930 -0.16106
 C380 C 0.67949 0.74934 -0.17923
 C381 C 0.57694 0.74917 -0.07698
 C382 C 0.55873 0.74915 -0.05879
 C383 C 0.36055 0.25047 -0.14021
 N384 N 0.38232 0.26954 -0.14135
 N385 N 0.40251 0.26958 -0.12129
 C386 C 0.40153 0.25056 -0.09948
 N387 N 0.37976 0.23149 -0.09833
 N388 N 0.35957 0.23144 -0.11839
 C389 C 0.33882 0.25041 -0.16181
 C390 C 0.32055 0.25036 -0.17996
 C391 C 0.42326 0.25060 -0.07787
 C392 C 0.44151 0.25062 -0.05971
 C393 C 0.36010 0.74907 0.13948
 N394 N 0.37072 0.72410 0.12938
 N395 N 0.39088 0.72409 0.10929
 C396 C 0.40103 0.74906 0.09870
 N397 N 0.39041 0.77404 0.10880
 N398 N 0.37025 0.77404 0.12889
 C399 C 0.33839 0.74908 0.16110
 C400 C 0.32014 0.74910 0.17927
 C401 C 0.42274 0.74906 0.07707
 C402 C 0.44097 0.74906 0.05889
 C403 C 0.63988 0.25066 0.13880
 N404 N 0.64436 0.23704 0.11364
 N405 N 0.62427 0.23704 0.09348
 C406 C 0.59909 0.25066 0.09787
 N407 N 0.59460 0.26428 0.12303
 N408 N 0.61470 0.26429 0.14319
 C409 C 0.66151 0.25067 0.16050
 C410 C 0.67969 0.25068 0.17873
 C411 C 0.57745 0.25065 0.07618
 C412 C 0.55926 0.25064 0.05796
 C413 C -0.14023 0.63995 0.75112
 N414 N -0.11222 0.64731 0.75099
 N415 N -0.09204 0.62723 0.75099
 C416 C -0.09928 0.59919 0.75112
 N417 N -0.12730 0.59183 0.75125
 N418 N -0.14747 0.61191 0.75125
 C419 C -0.16195 0.66156 0.75110
 C420 C -0.18020 0.67972 0.75106
 C421 C -0.07756 0.57757 0.75109
 C422 C -0.05933 0.55941 0.75105
 C423 C -0.13970 0.36094 0.25001
 N424 N -0.11164 0.35375 0.25010
 N425 N -0.09158 0.37394 0.25003
 C426 C -0.09898 0.40194 0.24987
 N427 N -0.12704 0.40913 0.24978
 N428 N -0.14710 0.38894 0.24985
 C429 C -0.16129 0.33920 0.25005
 C430 C -0.17944 0.32094 0.25005
 C431 C -0.07739 0.42368 0.24977
 C432 C -0.05923 0.44193 0.24968
 C433 C 0.13920 0.36108 0.75054
 N434 N 0.11117 0.35377 0.75046
 N435 N 0.09103 0.37388 0.75051
 C436 C 0.09832 0.40191 0.75065
 N437 N 0.12635 0.40922 0.75074
 N438 N 0.14649 0.38911 0.75069
 C439 C 0.16088 0.33944 0.75048
 C440 C 0.17910 0.32125 0.75043
 C441 C 0.07664 0.42356 0.75069
 C442 C 0.05843 0.44175 0.75073
 C443 C 0.13960 0.63996 0.24890
 N444 N 0.12537 0.63354 0.27329
 N445 N 0.10513 0.61352 0.27332
 C446 C 0.09853 0.59933 0.24896
 N447 N 0.11276 0.60576 0.22457
 N448 N 0.13300 0.62577 0.22454
 C449 C 0.16139 0.66151 0.24888
 C450 C 0.17969 0.67962 0.24890
 C451 C 0.07677 0.57776 0.24901
 C452 C 0.05850 0.55962 0.24907
 C453 C 0.74966 -0.13956 0.63985
 N454 N 0.72527 -0.12543 0.63319
 N455 N 0.72531 -0.10534 0.61304
 C456 C 0.74975 -0.09878 0.59893
 N457 N 0.77414 -0.11291 0.60559
 N458 N 0.77409 -0.13300 0.62575
 C459 C 0.74962 -0.16120 0.66154
 C460 C 0.74960 -0.17938 0.67977
 C461 C 0.74980 -0.07714 0.57724
 C462 C 0.74986 -0.05896 0.55902
 C463 C 0.25022 -0.13998 0.36034
 N464 N 0.27077 -0.13972 0.38075
 N465 N 0.27076 -0.11966 0.40093
 C466 C 0.25021 -0.09925 0.40130
 N467 N 0.22966 -0.09952 0.38088
 N468 N 0.22967 -0.11958 0.36071
 C469 C 0.25021 -0.16159 0.33862
 C470 C 0.25019 -0.17975 0.32039
 C471 C 0.25020 -0.07765 0.42302
 C472 C 0.25018 -0.05949 0.44126
 C473 C 0.75072 0.13968 0.36082
 N474 N 0.76840 0.11684 0.35870
 N475 N 0.76833 0.09667 0.37878
 C476 C 0.75057 0.09873 0.40157
 N477 N 0.73290 0.12157 0.40368
 N478 N 0.73297 0.14174 0.38360
 C479 C 0.75077 0.16138 0.33919
 C480 C 0.75079 0.17960 0.32101
 C481 C 0.75049 0.07701 0.42318
 C482 C 0.75041 0.05877 0.44134
 C483 C 0.25008 0.13903 0.63952
 N484 N 0.23249 0.11613 0.64175
 N485 N 0.23248 0.09597 0.62167
 C486 C 0.25006 0.09811 0.59875
 N487 N 0.26765 0.12101 0.59652
 N488 N 0.26766 0.14117 0.61660
 C489 C 0.25010 0.16073 0.66114
 C490 C 0.25012 0.17896 0.67931
 C491 C 0.25006 0.07641 0.57713
 C492 C 0.25006 0.05818 0.55896
   
