data_POSCAR
  _audit_creation_date              2014-09-24
  _audit_creation_method            'ToBaCCo'
  _symmetry_space_group_name_H-M    'P1'
  _symmetry_Int_Tables_number       1
  _symmetry_cell_setting            triclinic
  loop_
  _symmetry_equiv_pos_as_xyz
 x,y,z
_cell_length_a 41.6038
_cell_length_b 41.4457
_cell_length_c 41.5954
_cell_angle_alpha 89.908900
_cell_angle_beta 89.997100
_cell_angle_gamma 90.100000
loop_
  _atom_site_label
  _atom_site_type_symbol
  _atom_site_fract_x
  _atom_site_fract_y
  _atom_site_fract_z
N1 N 0.58718 0.67639 0.61208
 N2 N 0.57446 0.66299 0.63782
 C3 C 0.54843 0.68010 0.64674
 C4 C 0.54483 0.70531 0.62538
 C5 C 0.56967 0.70237 0.60369
 H6 H 0.53323 0.67468 0.66711
 H7 H 0.57457 0.71794 0.58337
 Cu8 Cu 0.59341 0.62457 0.65695
 Cu9 Cu 0.62535 0.65907 0.59122
 Cu10 Cu 0.65941 0.59070 0.62545
 N11 N 0.61260 0.58628 0.67613
 N12 N 0.63856 0.57319 0.66366
 C13 C 0.64695 0.54720 0.68122
 C14 C 0.62510 0.54407 0.70593
 C15 C 0.60363 0.56910 0.70219
 H16 H 0.66734 0.53177 0.67640
 H17 H 0.58313 0.57435 0.71724
 N18 N 0.67699 0.61190 0.58671
 N19 N 0.66400 0.63791 0.57367
 C20 C 0.68129 0.64644 0.54758
 C21 C 0.70612 0.62479 0.54421
 C22 C 0.70285 0.60324 0.56922
 H23 H 0.67625 0.66682 0.53213
 H24 H 0.71817 0.58278 0.57420
 H25 H 0.61895 0.61184 0.60564
 H26 H 0.64459 0.63784 0.63163
 N27 N 0.91377 0.32300 0.11161
 N28 N 0.92628 0.33613 0.13755
 C29 C 0.95223 0.31894 0.14661
 C30 C 0.95586 0.29391 0.12516
 C31 C 0.93125 0.29703 0.10324
 H32 H 0.96727 0.32415 0.16716
 H33 H 0.92644 0.28163 0.08281
 Cu34 Cu 0.90723 0.37441 0.15663
 Cu35 Cu 0.87571 0.34041 0.09062
 Cu36 Cu 0.84164 0.40873 0.12473
 N37 N 0.88817 0.41270 0.17571
 N38 N 0.86244 0.42602 0.16300
 C39 C 0.85406 0.45195 0.18054
 C40 C 0.87569 0.45487 0.20545
 C41 C 0.89704 0.42974 0.20183
 H42 H 0.83379 0.46750 0.17559
 H43 H 0.91737 0.42432 0.21708
 N44 N 0.82414 0.38762 0.08601
 N45 N 0.83713 0.36164 0.07301
 C46 C 0.81966 0.35295 0.04713
 C47 C 0.79472 0.37449 0.04387
 C48 C 0.79810 0.39613 0.06871
 H49 H 0.82459 0.33249 0.03182
 H50 H 0.78267 0.41646 0.07377
 H51 H 0.88212 0.38753 0.10527
 H52 H 0.85611 0.36145 0.13101
 N53 N 0.41310 0.17633 -0.11128
 N54 N 0.42549 0.16326 -0.13727
 C55 C 0.45149 0.18046 -0.14633
 C56 C 0.45531 0.20545 -0.12486
 C57 C 0.43070 0.20227 -0.10293
 H58 H 0.46647 0.17530 -0.16692
 H59 H 0.42595 0.21770 -0.08253
 Cu60 Cu 0.40630 0.12509 -0.15646
 Cu61 Cu 0.37490 0.15900 -0.09042
 Cu62 Cu 0.34003 0.09122 -0.12513
 N63 N 0.38704 0.08691 -0.17559
 N64 N 0.36097 0.07384 -0.16323
 C65 C 0.35261 0.04788 -0.18076
 C66 C 0.37463 0.04467 -0.20528
 C67 C 0.39617 0.06966 -0.20146
 H68 H 0.33216 0.03244 -0.17602
 H69 H 0.41685 0.07480 -0.21636
 N70 N 0.32262 0.11236 -0.08642
 N71 N 0.33606 0.13797 -0.07306
 C72 C 0.31874 0.14656 -0.04708
 C73 C 0.29344 0.12534 -0.04411
 C74 C 0.29644 0.10398 -0.06923
 H75 H 0.32400 0.16675 -0.03150
 H76 H 0.28071 0.08387 -0.07449
 H77 H 0.38061 0.11180 -0.10536
 H78 H 0.35516 0.13841 -0.13098
 N79 N 0.08654 0.82302 0.38805
 N80 N 0.07378 0.83645 0.36240
 C81 C 0.04765 0.81936 0.35346
 C82 C 0.04411 0.79408 0.37477
 C83 C 0.06903 0.79695 0.39641
 H84 H 0.03241 0.82483 0.33314
 H85 H 0.07403 0.78132 0.41665
 Cu86 Cu 0.09283 0.87491 0.34338
 Cu87 Cu 0.12482 0.84046 0.40885
 Cu88 Cu 0.15868 0.90934 0.37507
 N89 N 0.11187 0.91335 0.32437
 N90 N 0.13765 0.92667 0.33696
 C91 C 0.14601 0.95269 0.31942
 C92 C 0.12425 0.95567 0.29466
 C93 C 0.10290 0.93048 0.29830
 H94 H 0.16637 0.96822 0.32424
 H95 H 0.08250 0.92511 0.28312
 N96 N 0.17628 0.88800 0.41363
 N97 N 0.16348 0.86174 0.42643
 C98 C 0.18090 0.85312 0.45238
 C99 C 0.20562 0.87496 0.45585
 C100 C 0.20216 0.89673 0.43108
 H101 H 0.17602 0.83257 0.46767
 H102 H 0.21738 0.91734 0.42621
 H103 H 0.11847 0.88791 0.39455
 H104 H 0.14438 0.86231 0.36842
 C105 C 0.11029 0.15312 0.11152
 C106 C 0.13779 0.13935 0.09778
 C107 C 0.15139 0.11207 0.11143
 C108 C 0.13764 0.09826 0.13897
 C109 C 0.11046 0.11188 0.15256
 C110 C 0.09670 0.13946 0.13875
 C111 C 0.09199 0.17958 0.10347
 N112 N 0.06787 0.18207 0.12517
 C113 C 0.07038 0.15780 0.14684
 C114 C 0.10238 0.09349 0.17895
 N115 N 0.12400 0.06925 0.18147
 C116 C 0.14567 0.07180 0.15731
 C117 C 0.17774 0.10400 0.09314
 N118 N 0.18026 0.12572 0.06892
 C119 C 0.15611 0.14744 0.07139
 H120 H 0.09588 0.19581 0.08341
 H121 H 0.05426 0.15386 0.16692
 H122 H 0.08233 0.09738 0.19508
 H123 H 0.16569 0.05560 0.15342
 H124 H 0.19386 0.08389 0.09708
 H125 H 0.15222 0.16754 0.05520
 C126 C 0.38892 0.84758 0.61158
 C127 C 0.36140 0.86138 0.59782
 C128 C 0.34779 0.88862 0.61145
 C129 C 0.36153 0.90238 0.63899
 C130 C 0.38872 0.88875 0.65258
 C131 C 0.40250 0.86119 0.63880
 C132 C 0.40724 0.82114 0.60355
 N133 N 0.43138 0.81858 0.62524
 C134 C 0.42885 0.84282 0.64689
 C135 C 0.39677 0.90710 0.67897
 N136 N 0.37513 0.93133 0.68148
 C137 C 0.35347 0.92881 0.65731
 C138 C 0.32142 0.89671 0.59314
 N139 N 0.31890 0.87504 0.56894
 C140 C 0.34308 0.85333 0.57144
 H141 H 0.40334 0.80496 0.58350
 H142 H 0.44496 0.84672 0.66696
 H143 H 0.41681 0.90320 0.69511
 H144 H 0.33343 0.94499 0.65340
 H145 H 0.30527 0.91679 0.59707
 H146 H 0.34697 0.83326 0.55527
 C147 C 0.88944 0.65253 0.38825
 C148 C 0.86188 0.63866 0.40201
 C149 C 0.84830 0.61133 0.38843
 C150 C 0.86211 0.59753 0.36095
 C151 C 0.88932 0.61122 0.34736
 C152 C 0.90307 0.63889 0.36109
 C153 C 0.90775 0.67906 0.39624
 N154 N 0.93194 0.68165 0.37459
 C155 C 0.92945 0.65734 0.35300
 C156 C 0.89743 0.59280 0.32105
 N157 N 0.87580 0.56847 0.31857
 C158 C 0.85410 0.57101 0.34269
 C159 C 0.82189 0.60319 0.40672
 N160 N 0.81931 0.62492 0.43086
 C161 C 0.84349 0.64671 0.42834
 H162 H 0.90382 0.69527 0.41624
 H163 H 0.94560 0.65344 0.33297
 H164 H 0.91750 0.59673 0.30493
 H165 H 0.83406 0.55476 0.34662
 H166 H 0.80577 0.58304 0.40282
 H167 H 0.84736 0.66683 0.44447
 C168 C 0.61132 0.34775 -0.11180
 C169 C 0.63889 0.36149 -0.09809
 C170 C 0.65257 0.38880 -0.11172
 C171 C 0.63879 0.40268 -0.13925
 C172 C 0.61153 0.38907 -0.15278
 C173 C 0.59772 0.36145 -0.13898
 C174 C 0.59296 0.32129 -0.10370
 N175 N 0.56876 0.31881 -0.12533
 C176 C 0.57129 0.34310 -0.14699
 C177 C 0.60343 0.40748 -0.17915
 N178 N 0.62510 0.43176 -0.18175
 C179 C 0.64683 0.42918 -0.15763
 C180 C 0.67899 0.39676 -0.09339
 N181 N 0.68144 0.37496 -0.06923
 C182 C 0.65718 0.35330 -0.07174
 H183 H 0.59686 0.30504 -0.08366
 H184 H 0.55513 0.34704 -0.16701
 H185 H 0.58331 0.40357 -0.19521
 H186 H 0.66691 0.44538 -0.15379
 H187 H 0.69522 0.41685 -0.09729
 H188 H 0.65320 0.33314 -0.05561
 C189 C -0.02090 0.27093 0.12539
 C190 C -0.00033 0.25051 0.12544
 C191 C 0.02367 0.22653 0.12537
 C192 C 0.04412 0.20599 0.12527
 C193 C 0.52020 0.72958 0.62557
 C194 C 0.49962 0.75002 0.62558
 C195 C 0.47560 0.77406 0.62547
 C196 C 0.45514 0.79464 0.62536
 C197 C 1.02083 0.77098 0.37451
 C198 C 1.00025 0.75044 0.37440
 C199 C 0.97621 0.72631 0.37441
 C200 C 0.95573 0.70567 0.37449
 C201 C 0.47987 0.22979 -0.12519
 C202 C 0.50044 0.25028 -0.12532
 C203 C 0.52445 0.27432 -0.12536
 C204 C 0.54496 0.29488 -0.12535
 C205 C 0.12397 -0.01998 0.27012
 C206 C 0.12386 0.00055 0.24960
 C207 C 0.12386 0.02467 0.22567
 C208 C 0.12392 0.04529 0.20524
 C209 C 0.62483 0.52098 -0.27076
 C210 C 0.62476 0.50045 -0.25017
 C211 C 0.62484 0.47635 -0.22609
 C212 C 0.62498 0.45574 -0.20557
 C213 C 0.37501 1.02030 0.77023
 C214 C 0.37517 0.99981 0.74971
 C215 C 0.37521 0.97578 0.72573
 C216 C 0.37518 0.95524 0.70526
 C217 C 0.87595 0.47920 0.23001
 C218 C 0.87604 0.49972 0.25053
 C219 C 0.87600 0.52383 0.27446
 C220 C 0.87591 0.54446 0.29487
 C221 C 0.26899 0.12545 -0.01978
 C222 C 0.24849 0.12555 0.00067
 C223 C 0.22452 0.12565 0.02462
 C224 C 0.20405 0.12570 0.04510
 C225 C 0.73046 0.62475 0.51969
 C226 C 0.75091 0.62475 0.49914
 C227 C 0.77491 0.62480 0.47513
 C228 C 0.79543 0.62485 0.45465
 C229 C 0.77023 0.37444 0.01953
 C230 C 0.74972 0.37449 -0.00092
 C231 C 0.72573 0.37464 -0.02491
 C232 C 0.70525 0.37480 -0.04541
 C233 C 0.23003 0.87501 0.48027
 C234 C 0.25053 0.87504 0.50074
 C235 C 0.27455 0.87506 0.52469
 C236 C 0.29506 0.87505 0.54515
   
