data_POSCAR
  _audit_creation_date              2014-09-24
  _audit_creation_method            'ToBaCCo'
  _symmetry_space_group_name_H-M    'P1'
  _symmetry_Int_Tables_number       1
  _symmetry_cell_setting            triclinic
  loop_
  _symmetry_equiv_pos_as_xyz
 x,y,z
_cell_length_a 27.9232
_cell_length_b 27.8774
_cell_length_c 27.8678
_cell_angle_alpha 89.989000
_cell_angle_beta 90.018300
_cell_angle_gamma 90.035500
loop_
  _atom_site_label
  _atom_site_type_symbol
  _atom_site_fract_x
  _atom_site_fract_y
  _atom_site_fract_z
N1 N 0.30946 0.44055 0.94022
 N2 N 0.44215 0.80858 0.44162
 N3 N 0.94023 0.94011 0.80972
 N4 N 0.44022 -0.05985 0.30967
 N5 N 0.80898 0.30871 0.30788
 N6 N -0.19140 0.80846 0.80778
 N7 N 0.94285 0.30709 0.44214
 N8 N 0.44005 0.44052 0.80926
 N9 N 0.80874 0.94213 0.94153
 N10 N 0.30887 0.80852 0.30796
 N11 N 0.80716 0.44309 0.44238
 N12 N 0.94182 0.80837 -0.05839
 N13 N 0.30976 0.30964 0.80921
 N14 N 0.19121 0.55901 0.55782
 N15 N 0.55778 0.69276 0.05698
 N16 N 0.69268 0.19291 0.69225
 N17 N 1.05662 0.05634 0.19364
 N18 N 0.05680 0.19363 1.05625
 N19 N 0.19251 0.69304 0.69249
 N20 N 1.19353 0.19345 0.19349
 N21 N 0.69286 1.05776 0.55720
 N22 N 0.55623 0.55629 0.19377
 N23 N 0.69250 0.69288 0.19218
 N24 N 0.19374 0.05635 1.05615
 N25 N 0.55784 0.19298 0.55697
 N26 N 0.05696 0.55693 0.69228
 N27 N 0.69241 0.55757 0.05707
 N28 N 0.05889 0.69151 0.55796
 N29 N 0.55668 1.05658 0.69385
 N30 N 0.44041 0.30955 0.94028
 N31 N 0.94115 0.44135 0.30774
 N32 N 0.30873 0.94239 0.44152
 O33 O 0.24635 0.62742 0.68927
 O34 O 0.33107 0.61010 0.69351
 O35 O 0.18886 0.50388 0.62252
 O36 O 0.19164 0.42327 0.63473
 O37 O 0.12247 0.56031 0.74638
 O38 O 0.13973 0.55602 0.83135
 O39 O 0.31377 0.37575 0.75592
 O40 O 0.30393 0.38764 0.67105
 O41 O 0.37404 0.49377 0.81323
 O42 O 0.35775 0.58330 0.80695
 O43 O 0.25631 0.43633 0.87404
 O44 O 0.16715 0.44225 0.85799
 O45 O 0.25453 0.37404 0.81088
 O46 O 0.16749 0.39058 0.80697
 O47 O 0.31091 0.49591 0.87582
 O48 O 0.30743 0.58269 0.85907
 O49 O 0.37565 0.43864 0.75405
 O50 O 0.35969 0.44416 0.66748
 O51 O 0.18836 0.62677 0.74574
 O52 O 0.19328 0.60971 0.83141
 O53 O 0.12315 0.50400 0.68816
 O54 O 0.14070 0.41782 0.69654
 O55 O 0.24522 0.56202 0.62327
 O56 O 0.33080 0.55635 0.63981
 Zr57 Zr 0.27606 0.55801 0.69216
 O58 O 0.32225 0.51605 0.73451
 Zr59 Zr 0.19210 0.47351 0.69165
 O60 O 0.23474 0.42729 0.73359
 Zr61 Zr 0.19178 0.55760 0.77634
 O62 O 0.23393 0.51524 0.82246
 Zr63 Zr 0.30738 0.44315 0.72265
 O64 O 0.26502 0.48506 0.67560
 Zr65 Zr 0.30663 0.52715 0.80730
 O66 O 0.26449 0.57408 0.76512
 Zr67 Zr 0.22294 0.44239 0.80654
 O68 O 0.17593 0.48472 0.76457
 O69 O 0.20391 0.54575 0.70412
 O70 O 0.29547 0.45445 0.79535
 C71 C 0.21082 0.64730 0.71095
 C72 C 0.21024 0.53983 0.60291
 C73 C 0.10263 0.53864 0.71071
 C74 C 0.29127 0.35514 0.79053
 C75 C 0.39459 0.45913 0.79075
 C76 C 0.29074 0.45902 0.89470
 H77 H 0.35589 0.52413 0.72709
 H78 H 0.22611 0.52272 0.85622
 H79 H 0.18344 0.56631 0.68381
 H80 H 0.22781 0.39341 0.72571
 H81 H 0.28846 0.40144 0.64221
 H82 H 0.20829 0.39409 0.64608
 H83 H 0.27778 0.57991 0.87827
 H84 H 0.22440 0.62650 0.82859
 H85 H 0.37905 0.47363 0.67111
 H86 H 0.32765 0.52530 0.62286
 H87 H 0.17356 0.46831 0.88120
 H88 H 0.12496 0.52376 0.83020
 H89 H 0.32992 0.62506 0.72570
 H90 H 0.38139 0.57644 0.78144
 H91 H 0.12257 0.42310 0.72660
 H92 H 0.17110 0.37064 0.77785
 O93 O 0.24684 0.12736 0.18975
 O94 O 0.33128 0.11001 0.19304
 O95 O 0.19031 0.00265 0.12215
 O96 O 0.19045 -0.07730 0.13546
 O97 O 0.12268 0.06011 0.24704
 O98 O 0.14039 0.05613 0.33169
 O99 O 0.31316 -0.12515 0.25487
 O100 O 0.30429 -0.11210 0.17065
 O101 O 0.37460 -0.00610 0.31302
 O102 O 0.35811 0.08338 0.30655
 O103 O 0.25621 -0.06259 0.37477
 O104 O 0.16759 -0.05807 0.35831
 O105 O 0.25514 -0.12582 0.31112
 O106 O 0.16796 -0.10938 0.30749
 O107 O 0.31136 -0.00354 0.37604
 O108 O 0.30821 0.08277 0.35892
 O109 O 0.37549 -0.06232 0.25489
 O110 O 0.36013 -0.05582 0.16781
 O111 O 0.18870 0.12673 0.24603
 O112 O 0.19380 0.10981 0.33140
 O113 O 0.12346 0.00422 0.18846
 O114 O 0.14098 -0.08225 0.19718
 O115 O 0.24596 0.06143 0.12306
 O116 O 0.33133 0.05603 0.14008
 Zr117 Zr 0.27636 0.05782 0.19218
 O118 O 0.32257 0.01582 0.23451
 Zr119 Zr 0.19232 -0.02656 0.19189
 O120 O 0.23496 -0.07272 0.23387
 Zr121 Zr 0.19219 0.05760 0.27642
 O122 O 0.23440 0.01535 0.32253
 Zr123 Zr 0.30761 -0.05710 0.22280
 O124 O 0.26523 -0.01517 0.17581
 Zr125 Zr 0.30710 0.02712 0.30729
 O126 O 0.26491 0.07396 0.26510
 Zr127 Zr 0.22336 -0.05752 0.30685
 O128 O 0.17630 -0.01527 0.26484
 O129 O 0.20411 0.04577 0.20404
 O130 O 0.29592 -0.04570 0.29560
 C131 C 0.21140 0.14736 0.21151
 C132 C 0.21175 0.03844 0.10227
 C133 C 0.10274 0.03848 0.21143
 C134 C 0.29098 -0.14545 0.28987
 C135 C 0.39478 -0.04128 0.29107
 C136 C 0.29065 -0.03986 0.39541
 H137 H 0.35621 0.02385 0.22706
 H138 H 0.22660 0.02297 0.35627
 H139 H 0.18373 0.06623 0.18352
 H140 H 0.22790 -0.10657 0.22600
 H141 H 0.28880 -0.09805 0.14192
 H142 H 0.20878 -0.10572 0.14611
 H143 H 0.27834 0.08045 0.37784
 H144 H 0.22495 0.12655 0.32854
 H145 H 0.38065 -0.02732 0.17261
 H146 H 0.32867 0.02465 0.12367
 H147 H 0.17299 -0.03096 0.38055
 H148 H 0.12541 0.02397 0.33051
 H149 H 0.33064 0.12470 0.22537
 H150 H 0.38182 0.07638 0.28114
 H151 H 0.12272 -0.07667 0.22710
 H152 H 0.17152 -0.12936 0.27838
 O153 O 0.62689 0.68939 0.24606
 O154 O 0.60992 0.69376 0.33132
 O155 O 0.50264 0.62221 0.19025
 O156 O 0.42291 0.63555 0.19002
 O157 O 0.56083 0.74686 0.12254
 O158 O 0.55602 0.83170 0.13996
 O159 O 0.37529 0.75578 0.31286
 O160 O 0.38787 0.67106 0.30433
 O161 O 0.49534 0.81231 0.37541
 O162 O 0.58318 0.80792 0.35815
 O163 O 0.43684 0.87444 0.25588
 O164 O 0.44280 0.85819 0.16687
 O165 O 0.37417 0.81108 0.25383
 O166 O 0.39129 0.80729 0.16700
 O167 O 0.49494 0.87538 0.31205
 O168 O 0.58267 0.85908 0.30702
 O169 O 0.43826 0.75508 0.37569
 O170 O 0.44354 0.66829 0.36042
 O171 O 0.62669 0.74633 0.18841
 O172 O 0.60966 0.83166 0.19384
 O173 O 0.50492 0.68834 0.12333
 O174 O 0.41819 0.69724 0.14049
 O175 O 0.56112 0.62307 0.24620
 O176 O 0.55639 0.64016 0.33142
 Zr177 Zr 0.55775 0.69230 0.27636
 O178 O 0.51579 0.73462 0.32253
 Zr179 Zr 0.47362 0.69194 0.19211
 O180 O 0.42747 0.73389 0.23470
 Zr181 Zr 0.55766 0.77655 0.19199
 O182 O 0.51536 0.82265 0.23416
 Zr183 Zr 0.44297 0.72305 0.30755
 O184 O 0.48486 0.67597 0.26523
 Zr185 Zr 0.52708 0.80740 0.30703
 O186 O 0.57392 0.76519 0.26489
 Zr187 Zr 0.44268 0.80680 0.22284
 O188 O 0.48498 0.76481 0.17585
 O189 O 0.54575 0.70419 0.20404
 O190 O 0.45440 0.79572 0.29566
 C191 C 0.64693 0.71131 0.21065
 C192 C 0.53829 0.60233 0.21183
 C193 C 0.53941 0.71108 0.10272
 C194 C 0.35481 0.79034 0.29016
 C195 C 0.46003 0.79056 0.39555
 C196 C 0.45878 0.89467 0.29106
 H197 H 0.52380 0.72711 0.35623
 H198 H 0.52286 0.85641 0.22638
 H199 H 0.56613 0.68355 0.18374
 H200 H 0.39368 0.72597 0.22760
 H201 H 0.40176 0.64237 0.28870
 H202 H 0.39457 0.64611 0.20848
 H203 H 0.57806 0.88008 0.27879
 H204 H 0.62589 0.82914 0.22533
 H205 H 0.47271 0.67218 0.38016
 H206 H 0.52485 0.62407 0.32927
 H207 H 0.46915 0.88109 0.17305
 H208 H 0.52407 0.83011 0.12466
 H209 H 0.62567 0.72552 0.32935
 H210 H 0.57869 0.78000 0.37959
 H211 H 0.42429 0.72674 0.12167
 H212 H 0.37165 0.77793 0.17022
 O213 O 0.12675 0.68927 0.74621
 O214 O 0.10952 0.69327 0.83148
 O215 O 0.00283 0.62237 0.68940
 O216 O -0.07723 0.63546 0.69071
 O217 O 0.06113 0.74629 0.62293
 O218 O 0.05580 0.83145 0.63993
 O219 O -0.12501 0.75564 0.81264
 O220 O -0.11238 0.67092 0.80405
 O221 O -0.00488 0.81207 0.87550
 O222 O 0.08266 0.80787 0.85863
 O223 O -0.06313 0.87449 0.75580
 O224 O -0.05712 0.85811 0.66680
 O225 O -0.12594 0.81118 0.75382
 O226 O -0.10885 0.80744 0.66703
 O227 O -0.00527 0.87516 0.81222
 O228 O 0.08278 0.85854 0.80698
 O229 O -0.06204 0.75491 0.87562
 O230 O -0.05697 0.66819 0.86033
 O231 O 0.12670 0.74651 0.68885
 O232 O 0.10939 0.83175 0.69389
 O233 O 0.00489 0.68806 0.62337
 O234 O -0.08168 0.69721 0.64010
 O235 O 0.06105 0.62302 0.74567
 O236 O 0.05590 0.63968 0.83119
 Zr237 Zr 0.05752 0.69206 0.77637
 O238 O 0.01551 0.73438 0.82252
 Zr239 Zr -0.02653 0.69189 0.69202
 O240 O -0.07270 0.73388 0.73457
 Zr241 Zr 0.05756 0.77649 0.69215
 O242 O 0.01525 0.82258 0.73431
 Zr243 Zr -0.05731 0.72292 0.80744
 O244 O -0.01538 0.67581 0.76514
 Zr245 Zr 0.02688 0.80718 0.80715
 O246 O 0.07375 0.76498 0.76505
 Zr247 Zr -0.05742 0.80679 0.72284
 O248 O -0.01511 0.76479 0.67587
 O249 O 0.04557 0.70418 0.70415
 O250 O -0.04581 0.79560 0.79566
 C251 C 0.14689 0.71137 0.71096
 C252 C 0.03852 0.60253 0.71091
 C253 C 0.03982 0.71042 0.60312
 C254 C -0.14541 0.79031 0.79002
 C255 C -0.04026 0.79035 0.89555
 C256 C -0.04129 0.89459 0.79111
 H257 H 0.02346 0.72682 0.85623
 H258 H 0.02282 0.85633 0.72658
 H259 H 0.06613 0.68365 0.68393
 H260 H -0.10649 0.72604 0.72742
 H261 H -0.09846 0.64227 0.78835
 H262 H -0.10607 0.64663 0.70799
 H263 H 0.07764 0.88021 0.77936
 H264 H 0.12550 0.82942 0.72544
 H265 H -0.02754 0.67167 0.87974
 H266 H 0.02444 0.62347 0.82870
 H267 H -0.03060 0.88085 0.67290
 H268 H 0.02404 0.82943 0.62428
 H269 H 0.12529 0.72503 0.82967
 H270 H 0.07857 0.77949 0.87952
 H271 H -0.07564 0.72687 0.62151
 H272 H -0.12835 0.77796 0.67006
 O273 O 0.00369 0.12731 0.06018
 O274 O -0.08102 0.10982 0.05655
 O275 O 0.06003 0.00265 0.12769
 O276 O 0.05973 -0.07722 0.11449
 O277 O 0.12766 0.06009 0.00275
 O278 O 0.10989 0.05630 -0.08188
 O279 O -0.06277 -0.12505 -0.00563
 O280 O -0.05420 -0.11226 0.07904
 O281 O -0.12508 -0.00471 -0.06230
 O282 O -0.10755 0.08345 -0.05773
 O283 O -0.00602 -0.06333 -0.12457
 O284 O 0.08281 -0.05759 -0.10837
 O285 O -0.00419 -0.12612 -0.06128
 O286 O 0.08266 -0.10910 -0.05738
 O287 O -0.06198 -0.00509 -0.12546
 O288 O -0.05690 0.08258 -0.10928
 O289 O -0.12541 -0.06183 -0.00502
 O290 O -0.11012 -0.05652 0.08173
 O291 O 0.06162 0.12686 0.00368
 O292 O 0.05643 0.10977 -0.08166
 O293 O 0.12680 0.00429 0.06144
 O294 O 0.10921 -0.08223 0.05273
 O295 O 0.00433 0.06129 0.12681
 O296 O -0.08078 0.05630 0.10999
 Zr297 Zr -0.02600 0.05780 0.05768
 O298 O -0.07221 0.01578 0.01537
 Zr299 Zr 0.05793 -0.02654 0.05799
 O300 O 0.01529 -0.07276 0.01604
 Zr301 Zr 0.05811 0.05764 -0.02660
 O302 O 0.01589 0.01526 -0.07271
 Zr303 Zr -0.05737 -0.05717 0.02696
 O304 O -0.01500 -0.01521 0.07401
 Zr305 Zr -0.05680 0.02705 -0.05743
 O306 O -0.01460 0.07394 -0.01524
 Zr307 Zr 0.02702 -0.05757 -0.05691
 O308 O 0.07402 -0.01521 -0.01493
 O309 O 0.04622 0.04580 0.04580
 O310 O -0.04561 -0.04576 -0.04575
 C311 C 0.03900 0.14744 0.03829
 C312 C 0.03858 0.03838 0.14756
 C313 C 0.14757 0.03850 0.03840
 C314 C -0.04032 -0.14556 -0.04032
 C315 C -0.14522 -0.04002 -0.04049
 C316 C -0.04112 -0.04132 -0.14478
 H317 H -0.10581 0.02385 0.02290
 H318 H 0.02364 0.02276 -0.10648
 H319 H 0.06662 0.06628 0.06630
 H320 H 0.02232 -0.10661 0.02395
 H321 H -0.03862 -0.09829 0.10775
 H322 H 0.04141 -0.10567 0.10386
 H323 H -0.02848 0.07821 -0.12999
 H324 H 0.02495 0.12591 -0.07929
 H325 H -0.12963 -0.02718 0.07796
 H326 H -0.07849 0.02475 0.12614
 H327 H 0.07667 -0.03121 -0.13128
 H328 H 0.12471 0.02407 -0.08087
 H329 H -0.07954 0.12534 0.02463
 H330 H -0.12942 0.07853 -0.03026
 H331 H 0.12771 -0.07647 0.02298
 H332 H 0.07914 -0.12908 -0.02825
 O333 O -0.12690 0.49658 0.43860
 O334 O -0.10948 0.58170 0.44318
 O335 O -0.00413 0.43869 0.37275
 O336 O 0.07658 0.44181 0.38494
 O337 O -0.06101 0.37303 0.49583
 O338 O -0.05663 0.38989 0.58098
 O339 O 0.12543 0.56258 0.50417
 O340 O 0.11191 0.55398 0.42018
 O341 O 0.00537 0.62553 0.56150
 O342 O -0.08201 0.60939 0.55802
 O343 O 0.06130 0.50420 0.62559
 O344 O 0.05897 0.41772 0.60866
 O345 O 0.12503 0.50592 0.56190
 O346 O 0.10825 0.41700 0.55602
 O347 O 0.00474 0.56182 0.62537
 O348 O -0.08321 0.55728 0.60774
 O349 O 0.06273 0.62556 0.50458
 O350 O 0.05640 0.61038 0.41776
 O351 O -0.12695 0.43928 0.49589
 O352 O -0.10958 0.44409 0.58147
 O353 O -0.00382 0.37305 0.43859
 O354 O 0.08194 0.39072 0.44676
 O355 O -0.06144 0.49585 0.37282
 O356 O -0.05572 0.58132 0.38939
 Zr357 Zr -0.05762 0.52652 0.44179
 O358 O -0.01554 0.57263 0.48412
 Zr359 Zr 0.02640 0.44220 0.44183
 O360 O 0.07261 0.48477 0.48386
 Zr361 Zr -0.05782 0.44231 0.52618
 O362 O -0.01547 0.48445 0.57228
 Zr363 Zr 0.05724 0.55754 0.47257
 O364 O 0.01524 0.51520 0.42553
 Zr365 Zr -0.02685 0.55732 0.55695
 O366 O -0.07384 0.51523 0.51470
 Zr367 Zr 0.05726 0.47317 0.55680
 O368 O 0.01487 0.42616 0.51480
 O369 O -0.04573 0.45426 0.45398
 O370 O 0.04585 0.54596 0.54547
 C371 C -0.14713 0.46142 0.46072
 C372 C -0.03965 0.46044 0.35280
 C373 C -0.03891 0.35283 0.46064
 C374 C 0.14519 0.54108 0.53987
 C375 C 0.04089 0.64551 0.53990
 C376 C 0.03960 0.53959 0.64568
 H377 H -0.02345 0.60633 0.47656
 H378 H -0.02318 0.47661 0.60599
 H379 H -0.06629 0.43378 0.43367
 H380 H 0.10639 0.47763 0.47605
 H381 H 0.09766 0.53870 0.39144
 H382 H 0.10575 0.45843 0.39634
 H383 H -0.07850 0.52945 0.62924
 H384 H -0.12603 0.47542 0.57881
 H385 H 0.02756 0.63046 0.42202
 H386 H -0.02430 0.57869 0.37316
 H387 H 0.02900 0.41964 0.62745
 H388 H -0.02510 0.37383 0.57882
 H389 H -0.12527 0.57978 0.47492
 H390 H -0.07850 0.62959 0.52906
 H391 H 0.07702 0.37303 0.47717
 H392 H 0.13075 0.42312 0.52930
 O393 O 0.62726 0.06083 0.50329
 O394 O 0.60985 0.05625 0.41836
 O395 O 0.50368 0.12750 0.56013
 O396 O 0.42341 0.11469 0.55901
 O397 O 0.56043 0.00312 0.62769
 O398 O 0.55688 -0.08138 0.61021
 O399 O 0.37504 -0.00466 0.43716
 O400 O 0.38840 0.07944 0.44569
 O401 O 0.49405 -0.06307 0.37533
 O402 O 0.58330 -0.05680 0.39197
 O403 O 0.43767 -0.12483 0.49439
 O404 O 0.44162 -0.10876 0.58243
 O405 O 0.37458 -0.06117 0.49506
 O406 O 0.39175 -0.05667 0.58314
 O407 O 0.49619 -0.12598 0.43871
 O408 O 0.58251 -0.10917 0.44205
 O409 O 0.43770 -0.00518 0.37456
 O410 O 0.44432 0.08193 0.38960
 O411 O 0.62678 0.00449 0.56153
 O412 O 0.60990 -0.08137 0.55609
 O413 O 0.50446 0.06150 0.62693
 O414 O 0.41837 0.05325 0.60943
 O415 O 0.56182 0.12682 0.50382
 O416 O 0.55616 0.10987 0.41847
 Zr417 Zr 0.55794 0.05773 0.47353
 O418 O 0.51587 0.01537 0.42737
 Zr419 Zr 0.47385 0.05809 0.55784
 O420 O 0.42763 0.01610 0.51525
 Zr421 Zr 0.55788 -0.02635 0.55805
 O422 O 0.51553 -0.07248 0.51593
 Zr423 Zr 0.44312 0.02713 0.44244
 O424 O 0.48512 0.07414 0.48477
 Zr425 Zr 0.52714 -0.05737 0.44303
 O426 O 0.57408 -0.01515 0.48515
 Zr427 Zr 0.44279 -0.05683 0.52700
 O428 O 0.48516 -0.01483 0.57402
 O429 O 0.54597 0.04590 0.54594
 O430 O 0.45446 -0.04563 0.45427
 C431 C 0.64720 0.03925 0.53893
 C432 C 0.53936 0.14733 0.53852
 C433 C 0.53878 0.03868 0.64768
 C434 C 0.35482 -0.03971 0.45932
 C435 C 0.45880 -0.04124 0.35518
 C436 C 0.46008 -0.14538 0.45969
 H437 H 0.52382 0.02276 0.39364
 H438 H 0.52310 -0.10620 0.52379
 H439 H 0.56637 0.06637 0.56644
 H440 H 0.39386 0.02400 0.52237
 H441 H 0.40255 0.10816 0.46110
 H442 H 0.39471 0.10373 0.54133
 H443 H 0.58014 -0.12805 0.47200
 H444 H 0.62687 -0.07808 0.52507
 H445 H 0.47272 0.07705 0.36901
 H446 H 0.52474 0.12610 0.42098
 H447 H 0.46976 -0.12986 0.57815
 H448 H 0.52463 -0.08060 0.62494
 H449 H 0.62515 0.02427 0.41989
 H450 H 0.57656 -0.03115 0.36840
 H451 H 0.42358 0.02312 0.62750
 H452 H 0.37064 -0.02858 0.57843
 O453 O 0.62693 0.56046 0.00305
 O454 O 0.60948 0.55611 -0.08177
 O455 O 0.50334 0.62750 0.06000
 O456 O 0.42316 0.61486 0.05900
 O457 O 0.55979 0.50276 0.12767
 O458 O 0.55635 0.41840 0.11003
 O459 O 0.37556 0.49370 -0.06414
 O460 O 0.38741 0.57860 -0.05434
 O461 O 0.49320 0.43649 -0.12455
 O462 O 0.58277 0.44299 -0.10822
 O463 O 0.43606 0.37582 -0.00667
 O464 O 0.44222 0.39178 0.08276
 O465 O 0.37384 0.43902 -0.00451
 O466 O 0.39069 0.44278 0.08254
 O467 O 0.49568 0.37391 -0.06117
 O468 O 0.58203 0.39064 -0.05802
 O469 O 0.43820 0.49566 -0.12621
 O470 O 0.44373 0.58218 -0.11030
 O471 O 0.62622 0.50442 0.06157
 O472 O 0.60935 0.41847 0.05594
 O473 O 0.50417 0.56148 0.12671
 O474 O 0.41784 0.55313 0.10909
 O475 O 0.56159 0.62660 0.00382
 O476 O 0.55592 0.60976 -0.08162
 Zr477 Zr 0.55758 0.55757 -0.02660
 O478 O 0.51558 0.51522 -0.07279
 Zr479 Zr 0.47344 0.55812 0.05764
 O480 O 0.42718 0.51619 0.01499
 Zr481 Zr 0.55734 0.47350 0.05795
 O482 O 0.51494 0.42737 0.01582
 Zr483 Zr 0.44283 0.52705 -0.05783
 O484 O 0.48476 0.57409 -0.01547
 Zr485 Zr 0.52670 0.44248 -0.05705
 O486 O 0.57364 0.48468 -0.01493
 Zr487 Zr 0.44223 0.44326 0.02687
 O488 O 0.48461 0.48522 0.07389
 O489 O 0.54554 0.54576 0.04580
 O490 O 0.45413 0.45438 -0.04584
 C491 C 0.64675 0.53903 0.03883
 C492 C 0.53914 0.64719 0.03849
 C493 C 0.53831 0.53846 0.14756
 C494 C 0.35496 0.45923 -0.04140
 C495 C 0.45863 0.45899 -0.14517
 C496 C 0.45879 0.35510 -0.04103
 H497 H 0.52359 0.52261 -0.10652
 H498 H 0.52240 0.39363 0.02369
 H499 H 0.56596 0.56619 0.06632
 H500 H 0.39338 0.52409 0.02198
 H501 H 0.40125 0.60747 -0.03895
 H502 H 0.39444 0.60401 0.04128
 H503 H 0.57974 0.37189 -0.02798
 H504 H 0.62648 0.42192 0.02503
 H505 H 0.47300 0.57843 -0.12988
 H506 H 0.52480 0.62652 -0.07870
 H507 H 0.46793 0.36833 0.07606
 H508 H 0.52388 0.41872 0.12428
 H509 H 0.62445 0.52397 -0.08053
 H510 H 0.57563 0.46817 -0.13219
 H511 H 0.42335 0.52327 0.12751
 H512 H 0.37091 0.47199 0.07907
 O513 O 0.75466 0.31165 0.37312
 O514 O 0.66924 0.30621 0.38959
 O515 O 0.81087 0.37724 0.49624
 O516 O 0.80929 0.36448 0.57689
 O517 O 0.87710 0.25334 0.43862
 O518 O 0.85958 0.16824 0.44355
 O519 O 0.68827 0.24568 0.62562
 O520 O 0.69576 0.32927 0.61210
 O521 O 0.62424 0.18891 0.50400
 O522 O 0.64161 0.19191 0.41684
 O523 O 0.74560 0.12436 0.56147
 O524 O 0.83290 0.14173 0.55802
 O525 O 0.74509 0.18827 0.62550
 O526 O 0.83257 0.19271 0.60887
 O527 O 0.68808 0.12454 0.50472
 O528 O 0.69264 0.14141 0.41687
 O529 O 0.62480 0.24500 0.56227
 O530 O 0.64045 0.33217 0.55601
 O531 O 0.81153 0.25408 0.37292
 O532 O 0.80576 0.16862 0.38967
 O533 O 0.87694 0.31099 0.49551
 O534 O 0.85966 0.30287 0.58181
 O535 O 0.75370 0.37719 0.43892
 O536 O 0.66875 0.35981 0.44352
 Zr537 Zr 0.72386 0.30789 0.44210
 O538 O 0.67775 0.26561 0.48419
 Zr539 Zr 0.80806 0.30788 0.52632
 O540 O 0.76549 0.26589 0.57250
 Zr541 Zr 0.80780 0.22350 0.44196
 O542 O 0.76560 0.17745 0.48433
 Zr543 Zr 0.69281 0.27705 0.55714
 O544 O 0.73516 0.32408 0.51514
 Zr545 Zr 0.69288 0.19279 0.47281
 O546 O 0.73503 0.23500 0.42580
 Zr547 Zr 0.77696 0.19295 0.55721
 O548 O 0.82397 0.23494 0.51482
 O549 O 0.79599 0.29577 0.45413
 O550 O 0.70420 0.20416 0.54575
 C551 C 0.78991 0.28967 0.35301
 C552 C 0.78882 0.39740 0.46096
 C553 C 0.89720 0.28868 0.46053
 C554 C 0.71008 0.21035 0.64572
 C555 C 0.60436 0.21038 0.53969
 C556 C 0.71024 0.10429 0.53972
 H557 H 0.64415 0.27326 0.47617
 H558 H 0.77337 0.14374 0.47663
 H559 H 0.81643 0.31637 0.43382
 H560 H 0.77268 0.27375 0.60634
 H561 H 0.71191 0.35774 0.59828
 H562 H 0.79195 0.35339 0.60577
 H563 H 0.72095 0.12054 0.42118
 H564 H 0.77439 0.17138 0.37335
 H565 H 0.61955 0.32718 0.52782
 H566 H 0.67079 0.37577 0.47519
 H567 H 0.82923 0.12121 0.52930
 H568 H 0.87582 0.17060 0.47504
 H569 H 0.67205 0.27491 0.37306
 H570 H 0.62198 0.22128 0.41973
 H571 H 0.87743 0.27259 0.57664
 H572 H 0.82837 0.22124 0.62953
 O573 O 0.87649 0.75413 -0.06154
 O574 O 0.85958 0.66861 -0.05638
 O575 O 0.75399 0.81138 -0.12716
 O576 O 0.67327 0.80867 -0.11482
 O577 O 0.81156 0.87684 -0.00401
 O578 O 0.80617 0.85991 0.08142
 O579 O 0.62424 0.68825 0.00422
 O580 O 0.63804 0.69607 -0.07975
 O581 O 0.74537 0.62404 0.06109
 O582 O 0.83230 0.64111 0.05823
 O583 O 0.68832 0.74573 0.12558
 O584 O 0.69192 0.83300 0.10827
 O585 O 0.62448 0.74521 0.06163
 O586 O 0.64138 0.83292 0.05699
 O587 O 0.74482 0.68804 0.12539
 O588 O 0.83266 0.69251 0.10845
 O589 O 0.68738 0.62450 0.00480
 O590 O 0.69297 0.63965 -0.08180
 O591 O 0.87683 0.81101 -0.00384
 O592 O 0.85972 0.80585 0.08161
 O593 O 0.75448 0.87690 -0.06142
 O594 O 0.66834 0.85977 -0.05302
 O595 O 0.81104 0.75397 -0.12708
 O596 O 0.80575 0.66859 -0.11017
 Zr597 Zr 0.80748 0.72356 -0.05797
 O598 O 0.76535 0.67749 -0.01570
 Zr599 Zr 0.72360 0.80800 -0.05802
 O600 O 0.67738 0.76548 -0.01601
 Zr601 Zr 0.80778 0.80770 0.02645
 O602 O 0.76539 0.76555 0.07250
 Zr603 Zr 0.69257 0.69265 -0.02718
 O604 O 0.73463 0.73494 -0.07425
 Zr605 Zr 0.77671 0.69269 0.05715
 O606 O 0.82376 0.73478 0.01496
 Zr607 Zr 0.69269 0.77704 0.05695
 O608 O 0.73511 0.82402 0.01494
 O609 O 0.79561 0.79575 -0.04576
 O610 O 0.70394 0.70413 0.04574
 C611 C 0.89667 0.78935 -0.03946
 C612 C 0.78938 0.78947 -0.14712
 C613 C 0.78979 0.89692 -0.03947
 C614 C 0.60423 0.71014 0.03954
 C615 C 0.70978 0.60410 0.03957
 C616 C 0.70995 0.71028 0.14565
 H617 H 0.77328 0.64382 -0.02332
 H618 H 0.77310 0.77334 0.10622
 H619 H 0.81609 0.81612 -0.06622
 H620 H 0.64363 0.77273 -0.02389
 H621 H 0.65224 0.71170 -0.10832
 H622 H 0.64413 0.79202 -0.10343
 H623 H 0.82814 0.72058 0.12966
 H624 H 0.87589 0.77436 0.07909
 H625 H 0.72223 0.62006 -0.07810
 H626 H 0.77430 0.67106 -0.12637
 H627 H 0.72091 0.82966 0.12840
 H628 H 0.77488 0.87639 0.07871
 H629 H 0.87606 0.67128 -0.02504
 H630 H 0.82949 0.62154 0.02877
 H631 H 0.67364 0.87768 -0.02281
 H632 H 0.62056 0.82853 0.02861
 O633 O 1.00351 0.12259 0.18967
 O634 O 0.91891 0.14005 0.19308
 O635 O 1.06027 0.24724 0.12228
 O636 O 1.05957 0.32725 0.13551
 O637 O 1.12746 0.18961 0.24686
 O638 O 1.10988 0.19375 0.33168
 O639 O 0.93726 0.37517 0.25449
 O640 O 0.94625 0.36193 0.17033
 O641 O 0.87520 0.25563 0.31215
 O642 O 0.89208 0.16667 0.30695
 O643 O 0.99527 0.31188 0.37531
 O644 O 1.08221 0.30906 0.35880
 O645 O 0.99458 0.37545 0.31148
 O646 O 1.08294 0.35861 0.30635
 O647 O 0.93879 0.25409 0.37577
 O648 O 0.94198 0.16742 0.35899
 O649 O 0.87453 0.31198 0.25412
 O650 O 0.89015 0.30610 0.16762
 O651 O 1.06143 0.12304 0.24621
 O652 O 1.05639 0.14008 0.33147
 O653 O 1.12687 0.24581 0.18855
 O654 O 1.10941 0.33212 0.19725
 O655 O 1.00438 0.18869 0.12299
 O656 O 0.91917 0.19359 0.13973
 Zr657 Zr 0.97394 0.19211 0.19209
 O658 O 0.92774 0.23414 0.23433
 Zr659 Zr 1.05798 0.27649 0.19196
 O660 O 1.01532 0.32267 0.23388
 Zr661 Zr 1.05803 0.19224 0.27643
 O662 O 1.01581 0.23454 0.32244
 Zr663 Zr 0.94269 0.30705 0.22263
 O664 O 0.98509 0.26509 0.17573
 Zr665 Zr 0.94306 0.22294 0.30718
 O666 O 0.98526 0.17601 0.26506
 Zr667 Zr 1.02691 0.30742 0.30685
 O668 O 1.07397 0.26509 0.26494
 O669 O 1.04616 0.20414 0.20405
 O670 O 0.95426 0.29577 0.29553
 C671 C 1.03881 0.10248 0.21159
 C672 C 1.03874 0.21156 0.10232
 C673 C 1.14748 0.21137 0.21136
 C674 C 0.95908 0.39529 0.28980
 C675 C 0.85493 0.29065 0.28996
 C676 C 0.96039 0.28962 0.39568
 H677 H 0.89413 0.22608 0.22677
 H678 H 1.02362 0.22688 0.35617
 H679 H 1.06653 0.18365 0.18357
 H680 H 1.02238 0.35652 0.22602
 H681 H 0.96171 0.34778 0.14166
 H682 H 1.04172 0.35588 0.14638
 H683 H 0.97161 0.17007 0.37825
 H684 H 1.02505 0.12365 0.32886
 H685 H 0.87052 0.27684 0.17148
 H686 H 0.92168 0.22502 0.12337
 H687 H 1.07926 0.27982 0.37868
 H688 H 1.12551 0.22559 0.32990
 H689 H 0.91993 0.12499 0.22524
 H690 H 0.86932 0.17263 0.28041
 H691 H 1.12752 0.32665 0.22730
 H692 H 1.07755 0.38041 0.27887
 O693 O 0.74658 1.12732 0.68918
 O694 O 0.83146 1.11008 0.69376
 O695 O 0.68968 1.00361 0.62276
 O696 O 0.69106 0.92318 0.63548
 O697 O 0.62278 1.06046 0.74722
 O698 O 0.64059 1.05665 0.83194
 O699 O 0.81285 0.87478 0.75467
 O700 O 0.80419 0.88812 0.67060
 O701 O 0.87479 0.99410 0.81298
 O702 O 0.85812 1.08353 0.80665
 O703 O 0.75594 0.93768 0.87502
 O704 O 0.66818 0.94144 0.85913
 O705 O 0.75527 0.87445 0.81138
 O706 O 0.66724 0.89159 0.80691
 O707 O 0.81166 0.99620 0.87604
 O708 O 0.80842 1.08261 0.85931
 O709 O 0.87532 0.93752 0.75517
 O710 O 0.86010 0.94428 0.66794
 O711 O 0.68868 1.12691 0.74575
 O712 O 0.69421 1.11031 0.83141
 O713 O 0.62334 1.00424 0.68896
 O714 O 0.64085 0.91803 0.69709
 O715 O 0.74617 1.06162 0.62322
 O716 O 0.83134 1.05632 0.64014
 Zr717 Zr 0.77646 1.05797 0.69234
 O718 O 0.82263 1.01587 0.73462
 Zr719 Zr 0.69230 0.97367 0.69215
 O720 O 0.73489 0.92743 0.73408
 Zr721 Zr 0.69231 1.05793 0.77660
 O722 O 0.73448 1.01557 0.82267
 Zr723 Zr 0.80754 0.94298 0.72290
 O724 O 0.76519 0.98500 0.67596
 Zr725 Zr 0.80721 1.02720 0.80741
 O726 O 0.76506 1.07417 0.76527
 Zr727 Zr 0.72334 0.94270 0.80703
 O728 O 0.67632 0.98508 0.76511
 O729 O 0.70423 1.04592 0.70432
 O730 O 0.79591 0.95439 0.79570
 C731 C 0.71107 1.14729 0.71084
 C732 C 0.71135 1.03923 0.60282
 C733 C 0.60274 1.03868 0.71175
 C734 C 0.79084 0.85460 0.78984
 C735 C 0.89479 0.95872 0.79117
 C736 C 0.79067 0.96009 0.89550
 H737 H 0.85628 1.02385 0.72715
 H738 H 0.72673 1.02319 0.85641
 H739 H 0.68373 1.06631 0.68386
 H740 H 0.72775 0.89360 0.72620
 H741 H 0.78873 0.90224 0.64191
 H742 H 0.70866 0.89442 0.64643
 H743 H 0.77845 1.08041 0.87807
 H744 H 0.72534 1.12705 0.82833
 H745 H 0.88093 0.97251 0.67304
 H746 H 0.82897 1.02476 0.62403
 H747 H 0.67230 0.96982 0.88001
 H748 H 0.62549 1.02454 0.83076
 H749 H 0.82989 1.12550 0.72571
 H750 H 0.88163 1.07673 0.78100
 H751 H 0.62291 0.92322 0.72727
 H752 H 0.67206 0.87023 0.77900
 O753 O 0.74631 0.62725 0.18910
 O754 O 0.83105 0.61002 0.19345
 O755 O 0.68937 0.50337 0.12260
 O756 O 0.69078 0.42295 0.13542
 O757 O 0.62243 0.56023 0.24704
 O758 O 0.64032 0.55654 0.33184
 O759 O 0.81280 0.37489 0.25463
 O760 O 0.80364 0.38801 0.17051
 O761 O 0.87485 0.49432 0.31215
 O762 O 0.85783 0.58348 0.30683
 O763 O 0.75487 0.43814 0.37541
 O764 O 0.66735 0.44150 0.35836
 O765 O 0.75547 0.37456 0.31157
 O766 O 0.66765 0.39082 0.30708
 O767 O 0.81119 0.49607 0.37594
 O768 O 0.80833 0.58242 0.35921
 O769 O 0.87550 0.43805 0.25406
 O770 O 0.85969 0.44393 0.16762
 O771 O 0.68838 0.62679 0.24561
 O772 O 0.69380 0.61021 0.33122
 O773 O 0.62299 0.50402 0.18875
 O774 O 0.64050 0.41792 0.19710
 O775 O 0.74562 0.56160 0.12314
 O776 O 0.83090 0.55620 0.13989
 Zr777 Zr 0.77608 0.55789 0.19216
 O778 O 0.82228 0.51586 0.23441
 Zr779 Zr 0.69198 0.47352 0.19203
 O780 O 0.73465 0.42736 0.23398
 Zr781 Zr 0.69200 0.55779 0.27645
 O782 O 0.73424 0.51550 0.32250
 Zr783 Zr 0.80727 0.44297 0.22271
 O784 O 0.76486 0.48492 0.17577
 Zr785 Zr 0.80699 0.52708 0.30725
 O786 O 0.76475 0.57404 0.26511
 Zr787 Zr 0.72314 0.44260 0.30695
 O788 O 0.67606 0.48491 0.26500
 O789 O 0.70386 0.54580 0.20417
 O790 O 0.79579 0.45425 0.29563
 C791 C 0.71081 0.64721 0.21075
 C792 C 0.71091 0.53909 0.10270
 C793 C 0.60237 0.53844 0.21158
 C794 C 0.79100 0.35475 0.28993
 C795 C 0.89514 0.45936 0.28990
 C796 C 0.78966 0.46049 0.39585
 H797 H 0.85589 0.52391 0.22685
 H798 H 0.72644 0.52316 0.35622
 H799 H 0.68333 0.56619 0.18373
 H800 H 0.72758 0.39350 0.22614
 H801 H 0.78817 0.40213 0.14182
 H802 H 0.70814 0.39408 0.14651
 H803 H 0.77820 0.58046 0.37775
 H804 H 0.72497 0.62689 0.32822
 H805 H 0.87933 0.47320 0.17145
 H806 H 0.82805 0.52494 0.12327
 H807 H 0.67124 0.46994 0.37920
 H808 H 0.62479 0.52464 0.33032
 H809 H 0.82959 0.62540 0.22543
 H810 H 0.88074 0.57735 0.28048
 H811 H 0.62280 0.42299 0.22745
 H812 H 0.67221 0.36990 0.27879
 O813 O 0.50336 0.12267 0.68999
 O814 O 0.41903 0.14001 0.69287
 O815 O 0.56042 0.24738 0.62228
 O816 O 0.55895 0.32743 0.63523
 O817 O 0.62733 0.18974 0.74648
 O818 O 0.61022 0.19448 0.83146
 O819 O 0.43603 0.37443 0.75599
 O820 O 0.44589 0.36257 0.67108
 O821 O 0.37581 0.25643 0.81324
 O822 O 0.39205 0.16694 0.80700
 O823 O 0.49353 0.31384 0.87413
 O824 O 0.58267 0.30798 0.85815
 O825 O 0.49532 0.37618 0.81092
 O826 O 0.58232 0.35966 0.80714
 O827 O 0.43893 0.25426 0.87585
 O828 O 0.44251 0.16738 0.85900
 O829 O 0.37416 0.31154 0.75403
 O830 O 0.39015 0.30605 0.66748
 O831 O 0.56147 0.12338 0.74635
 O832 O 0.55669 0.14072 0.83172
 O833 O 0.62658 0.24597 0.68818
 O834 O 0.60922 0.33242 0.69707
 O835 O 0.50486 0.18849 0.62329
 O836 O 0.41905 0.19404 0.63992
 Zr837 Zr 0.47390 0.19225 0.69220
 O838 O 0.42764 0.23414 0.73453
 Zr839 Zr 0.55778 0.27680 0.69181
 O840 O 0.51508 0.32296 0.73369
 Zr841 Zr 0.55810 0.19267 0.77648
 O842 O 0.51591 0.23498 0.82256
 Zr843 Zr 0.44245 0.30706 0.72270
 O844 O 0.48488 0.26522 0.67570
 Zr845 Zr 0.44322 0.22304 0.80734
 O846 O 0.48539 0.17620 0.76517
 Zr847 Zr 0.52690 0.30783 0.80664
 O848 O 0.57395 0.26555 0.76473
 O849 O 0.54603 0.20447 0.70415
 O850 O 0.45436 0.29575 0.79542
 C851 C 0.53879 0.10269 0.71181
 C852 C 0.53925 0.21135 0.60261
 C853 C 0.64711 0.21132 0.71074
 C854 C 0.45855 0.39504 0.79058
 C855 C 0.35524 0.29105 0.79072
 C856 C 0.45911 0.29113 0.89476
 H857 H 0.39402 0.22602 0.72709
 H858 H 0.52372 0.22748 0.85633
 H859 H 0.56635 0.18386 0.68375
 H860 H 0.52198 0.35684 0.72583
 H861 H 0.46143 0.34878 0.64228
 H862 H 0.54154 0.35625 0.64631
 H863 H 0.47190 0.17046 0.87856
 H864 H 0.52548 0.12405 0.82910
 H865 H 0.37081 0.27656 0.67110
 H866 H 0.42235 0.22501 0.62283
 H867 H 0.57632 0.28184 0.88129
 H868 H 0.62511 0.22668 0.83006
 H869 H 0.41923 0.12575 0.72540
 H870 H 0.36839 0.17383 0.78150
 H871 H 0.62762 0.32673 0.72690
 H872 H 0.57881 0.37950 0.77793
 O873 O 0.25471 0.81191 0.37336
 O874 O 0.16919 0.80671 0.39000
 O875 O 0.31163 0.87727 0.49619
 O876 O 0.30864 0.86488 0.57712
 O877 O 0.37695 0.75415 0.43872
 O878 O 0.35998 0.66882 0.44415
 O879 O 0.18813 0.74588 0.62586
 O880 O 0.19562 0.82962 0.61224
 O881 O 0.12453 0.68861 0.50414
 O882 O 0.14184 0.69286 0.41667
 O883 O 0.24452 0.62510 0.56201
 O884 O 0.33270 0.64187 0.55788
 O885 O 0.24517 0.68868 0.62586
 O886 O 0.33230 0.69244 0.60929
 O887 O 0.18778 0.62500 0.50447
 O888 O 0.19292 0.64199 0.41671
 O889 O 0.12514 0.74446 0.56265
 O890 O 0.14012 0.83214 0.55626
 O891 O 0.31129 0.75403 0.37312
 O892 O 0.30620 0.66861 0.39031
 O893 O 0.37695 0.81156 0.49587
 O894 O 0.35968 0.80309 0.58216
 O895 O 0.25421 0.87737 0.43907
 O896 O 0.16911 0.86046 0.44388
 Zr897 Zr 0.22394 0.80825 0.44238
 O898 O 0.17774 0.76598 0.48438
 Zr899 Zr 0.30809 0.80816 0.52667
 O900 O 0.26546 0.76614 0.57280
 Zr901 Zr 0.30789 0.72377 0.44232
 O902 O 0.26561 0.67771 0.48456
 Zr903 Zr 0.19278 0.77730 0.55736
 O904 O 0.23519 0.82439 0.51543
 Zr905 Zr 0.19296 0.69322 0.47279
 O906 O 0.23519 0.73539 0.42594
 Zr907 Zr 0.27687 0.69321 0.55746
 O908 O 0.32398 0.73522 0.51520
 O909 O 0.29599 0.79597 0.45448
 O910 O 0.20423 0.70453 0.54576
 C911 C 0.28980 0.78970 0.35319
 C912 C 0.28973 0.89731 0.46076
 C913 C 0.39698 0.78961 0.46054
 C914 C 0.21000 0.71061 0.64601
 C915 C 0.10488 0.70965 0.54016
 C916 C 0.20928 0.60507 0.54002
 H917 H 0.14413 0.77360 0.47639
 H918 H 0.27331 0.64398 0.47687
 H919 H 0.31638 0.81643 0.43402
 H920 H 0.27263 0.77396 0.60665
 H921 H 0.21169 0.85810 0.59837
 H922 H 0.29190 0.85347 0.60624
 H923 H 0.22094 0.62080 0.42132
 H924 H 0.27486 0.67117 0.37391
 H925 H 0.11887 0.82671 0.52841
 H926 H 0.17095 0.87602 0.47575
 H927 H 0.32809 0.62054 0.52990
 H928 H 0.37593 0.67116 0.47580
 H929 H 0.17189 0.77540 0.37347
 H930 H 0.12138 0.72155 0.42046
 H931 H 0.37754 0.77288 0.57688
 H932 H 0.32881 0.72151 0.62932
 O933 O 0.12286 0.18992 1.00293
 O934 O 0.14036 0.19352 0.91826
 O935 O 0.24741 0.12224 1.05955
 O936 O 0.32717 0.13551 1.05924
 O937 O 0.19002 0.24707 1.12749
 O938 O 0.19379 0.33147 1.11005
 O939 O 0.37431 0.25641 0.93587
 O940 O 0.36242 0.17145 0.94565
 O941 O 0.25656 0.31358 0.87533
 O942 O 0.16718 0.30720 0.89154
 O943 O 0.31377 0.37429 0.99332
 O944 O 0.30765 0.35829 1.08269
 O945 O 0.37602 0.31107 0.99549
 O946 O 0.35919 0.30731 1.08251
 O947 O 0.25426 0.37610 0.93866
 O948 O 0.16762 0.35920 0.94206
 O949 O 0.31165 0.25449 0.87375
 O950 O 0.30620 0.16799 0.88959
 O951 O 0.12352 0.24608 1.06129
 O952 O 0.14077 0.33171 1.05597
 O953 O 0.24566 0.18839 1.12655
 O954 O 0.33200 0.19703 1.10922
 O955 O 0.18867 0.12327 1.00387
 O956 O 0.19385 0.14019 0.91842
 Zr957 Zr 0.19232 0.19239 0.97341
 O958 O 0.23427 0.23480 0.92718
 Zr959 Zr 0.27655 0.19194 1.05759
 O960 O 0.32274 0.23391 1.01494
 Zr961 Zr 0.19259 0.27650 1.05787
 O962 O 0.23493 0.32267 1.01573
 Zr963 Zr 0.30704 0.22305 0.94212
 O964 O 0.26517 0.17598 0.98449
 Zr965 Zr 0.22315 0.30756 0.94285
 O966 O 0.17628 0.26530 0.98499
 Zr967 Zr 0.30764 0.30682 1.02681
 O968 O 0.26533 0.26481 1.07382
 O969 O 0.20435 0.20415 1.04580
 O970 O 0.29573 0.29571 0.95410
 C971 C 0.10288 0.21163 1.03845
 C972 C 0.21164 0.10244 1.03810
 C973 C 0.21148 0.21135 1.14736
 C974 C 0.39491 0.29087 0.95862
 C975 C 0.29117 0.29114 0.85476
 C976 C 0.29108 0.39498 0.95888
 H977 H 0.22624 0.22740 0.89346
 H978 H 0.22745 0.35641 1.02357
 H979 H 0.18387 0.18363 1.06618
 H980 H 0.35655 0.22604 1.02193
 H981 H 0.34856 0.14259 0.96103
 H982 H 0.35573 0.14634 1.04125
 H983 H 0.17051 0.37858 0.97164
 H984 H 0.12386 0.32862 1.02489
 H985 H 0.27685 0.17166 0.87009
 H986 H 0.22506 0.12359 0.92115
 H987 H 0.28183 0.38165 1.07607
 H988 H 0.22621 0.33095 1.12441
 H989 H 0.12575 0.22585 0.91899
 H990 H 0.17411 0.28175 0.86781
 H991 H 0.32637 0.22686 1.12765
 H992 H 0.37891 0.27806 1.07912
   
