data_POSCAR
  _audit_creation_date              2014-09-24
  _audit_creation_method            'ToBaCCo'
  _symmetry_space_group_name_H-M    'P1'
  _symmetry_Int_Tables_number       1
  _symmetry_cell_setting            triclinic
  loop_
  _symmetry_equiv_pos_as_xyz
 x,y,z
_cell_length_a 28.3474
_cell_length_b 27.9849
_cell_length_c 28.1587
_cell_angle_alpha 89.206000
_cell_angle_beta 89.754100
_cell_angle_gamma 90.258300
loop_
  _atom_site_label
  _atom_site_type_symbol
  _atom_site_fract_x
  _atom_site_fract_y
  _atom_site_fract_z
C1 C 0.23554 0.16263 0.22800
 C2 C 0.21789 0.14365 0.27130
 C3 C 0.17717 0.16315 0.29277
 C4 C 0.15731 0.20459 0.27247
 C5 C 0.17472 0.22395 0.22988
 C6 C 0.21299 0.20218 0.20667
 C7 C 0.27390 0.14139 0.20458
 C8 C 0.28883 0.15780 0.15909
 C9 C 0.26508 0.19682 0.13799
 C10 C 0.22766 0.21922 0.16150
 C11 C 0.20361 0.25757 0.13996
 C12 C 0.16631 0.27982 0.16385
 C13 C 0.15256 0.26340 0.20895
 H14 H 0.23427 0.11211 0.28658
 H15 H 0.12687 0.22113 0.28881
 H16 H 0.29094 0.11093 0.22126
 H17 H 0.27558 0.21002 0.10313
 H18 H 0.21377 0.27015 0.10477
 H19 H 0.12286 0.27990 0.22666
 C20 C -0.22707 0.84574 0.22419
 C21 C -0.21210 0.86267 0.26878
 C22 C -0.17029 0.84518 0.29013
 C23 C -0.14600 0.80785 0.26760
 C24 C -0.16018 0.79112 0.22329
 C25 C -0.19992 0.81104 0.20075
 C26 C -0.26783 0.86390 0.20191
 C27 C -0.28028 0.84986 0.15543
 C28 C -0.25146 0.81655 0.13202
 C29 C -0.21208 0.79651 0.15452
 C30 C -0.18455 0.76206 0.13146
 C31 C -0.14618 0.74088 0.15481
 C32 C -0.13429 0.75542 0.20066
 H33 H -0.23202 0.89070 0.28575
 H34 H -0.11459 0.79270 0.28355
 H35 H -0.28875 0.89031 0.22019
 H36 H -0.26013 0.80519 0.09644
 H37 H -0.19374 0.75065 0.09602
 H38 H -0.10416 0.73949 0.21831
 C39 C -0.25288 0.18488 -0.24261
 C40 C -0.23215 0.16123 -0.28103
 C41 C -0.18773 0.17548 -0.29841
 C42 C -0.16480 0.21485 -0.27860
 C43 C -0.18439 0.23784 -0.23931
 C44 C -0.22858 0.22280 -0.22103
 C45 C -0.29562 0.16854 -0.22313
 C46 C -0.31338 0.18744 -0.18041
 C47 C -0.28915 0.22592 -0.15950
 C48 C -0.24700 0.24373 -0.17955
 C49 C -0.22107 0.27965 -0.15682
 C50 C -0.17637 0.29318 -0.17409
 C51 C -0.15863 0.27286 -0.21564
 H52 H -0.24945 0.13030 -0.29604
 H53 H -0.12995 0.22502 -0.29129
 H54 H -0.31321 0.13868 -0.23976
 H55 H -0.30208 0.24105 -0.12672
 H56 H -0.23410 0.29475 -0.12406
 H57 H -0.12381 0.28307 -0.22842
 C58 C 0.23560 0.81528 -0.23208
 C59 C 0.21105 0.84342 -0.26517
 C60 C 0.16977 0.82613 -0.28681
 C61 C 0.15455 0.77924 -0.27608
 C62 C 0.17782 0.75152 -0.24170
 C63 C 0.21837 0.76962 -0.21928
 C64 C 0.27602 0.83311 -0.21013
 C65 C 0.29868 0.80692 -0.17400
 C66 C 0.28058 0.76192 -0.16014
 C67 C 0.24060 0.74291 -0.18287
 C68 C 0.22094 0.69889 -0.16828
 C69 C 0.17933 0.68146 -0.18946
 C70 C 0.15920 0.70726 -0.22733
 H71 H 0.22402 0.87906 -0.27358
 H72 H 0.12290 0.76510 -0.29231
 H73 H 0.28882 0.86846 -0.22000
 H74 H 0.29738 0.74197 -0.13166
 H75 H 0.23685 0.67937 -0.13900
 H76 H 0.12718 0.69440 -0.24383
 C77 C 0.15930 1.23129 0.77193
 C78 C 0.14070 1.21345 0.72930
 C79 C 0.16088 1.17317 0.70749
 C80 C 0.20145 1.15267 0.72795
 C81 C 0.21846 1.16831 0.77164
 C82 C 0.19702 1.20729 0.79416
 C83 C 0.13983 1.27172 0.79350
 C84 C 0.15619 1.28741 0.83808
 C85 C 0.19222 1.26126 0.86096
 C86 C 0.21276 1.22155 0.83934
 C87 C 0.24839 1.19535 0.86243
 C88 C 0.26970 1.15660 0.83979
 C89 C 0.25538 1.14400 0.79409
 H90 H 0.11017 1.23058 0.71358
 H91 H 0.21801 1.12197 0.71188
 H92 H 0.11114 1.29020 0.77588
 H93 H 0.20482 1.27190 0.89556
 H94 H 0.26000 1.20535 0.89757
 H95 H 0.27174 1.11381 0.77686
 C96 C 0.83777 0.77605 0.77296
 C97 C 0.85482 0.79368 0.72900
 C98 C 0.83112 0.83077 0.70431
 C99 C 0.78868 0.84822 0.72356
 C100 C 0.77218 0.83203 0.76794
 C101 C 0.79683 0.79600 0.79290
 C102 C 0.86193 0.73999 0.79806
 C103 C 0.84559 0.72317 0.84287
 C104 C 0.80499 0.74417 0.86259
 C105 C 0.78119 0.78095 0.83843
 C106 C 0.74280 0.80402 0.85969
 C107 C 0.71893 0.84049 0.83520
 C108 C 0.73273 0.85327 0.78889
 H109 H 0.88726 0.77920 0.71476
 H110 H 0.76967 0.87661 0.70549
 H111 H 0.89343 0.72497 0.78235
 H112 H 0.79233 0.73282 0.89735
 H113 H 0.73165 0.79397 0.89535
 H114 H 0.71431 0.88173 0.77025
 C115 C 0.18414 0.75784 1.24288
 C116 C 0.15856 0.78090 1.27847
 C117 C 0.17613 0.82279 1.29846
 C118 C 0.22022 0.84083 1.28441
 C119 C 0.24541 0.81905 1.24778
 C120 C 0.22704 0.77767 1.22638
 C121 C 0.16595 0.71691 1.22172
 C122 C 0.18810 0.69689 1.18176
 C123 C 0.23057 0.71752 1.16479
 C124 C 0.25039 0.75748 1.18720
 C125 C 0.29170 0.77926 1.16950
 C126 C 0.30967 0.82117 1.19019
 C127 C 0.28692 0.83994 1.23015
 H128 H 0.12440 0.76718 1.28975
 H129 H 0.23335 0.87356 1.29990
 H130 H 0.13277 0.70251 1.23496
 H131 H 0.24803 0.70293 1.13392
 H132 H 0.30878 0.76456 1.13848
 H133 H 0.30001 0.87241 1.24611
 C134 C 0.82051 1.23964 1.22991
 C135 C 0.84415 1.21833 1.26859
 C136 C 0.82603 1.17654 1.29080
 C137 C 0.78213 1.15864 1.27574
 C138 C 0.75885 1.17896 1.23684
 C139 C 0.77835 1.21909 1.21318
 C140 C 0.83951 1.27977 1.20623
 C141 C 0.81804 1.29843 1.16498
 C142 C 0.77674 1.27695 1.14780
 C143 C 0.75650 1.23758 1.17188
 C144 C 0.71586 1.21512 1.15435
 C145 C 0.69671 1.17459 1.17772
 C146 C 0.71779 1.15764 1.21959
 H147 H 0.87751 1.23329 1.27998
 H148 H 0.76690 1.12705 1.29257
 H149 H 0.87210 1.29542 1.21887
 H150 H 0.76045 1.29088 1.11575
 H151 H 0.69987 1.22851 1.12194
 H152 H 0.70375 1.12611 1.23754
 O153 O 0.53724 0.94955 0.90685
 O154 O 0.45537 0.97556 1.10126
 O155 O 0.59108 0.97537 1.03240
 O156 O 0.43612 0.91645 0.96628
 O157 O 0.53207 0.94569 1.06972
 O158 O 0.44834 0.95257 0.90109
 O159 O 0.44579 0.92782 1.04601
 O160 O 0.59148 0.98820 0.94707
 C161 C 0.57939 0.95509 0.91905
 C162 C 0.43870 0.93698 1.08816
 C163 C 0.57469 0.94436 1.06011
 C164 C 0.43261 0.91730 0.92284
 O165 O 0.45003 1.04292 0.90657
 O166 O 0.53552 1.02583 1.11151
 O167 O 0.55305 1.07763 0.96246
 O168 O 0.40664 1.01850 1.03972
 O169 O 0.46820 1.05798 1.06324
 O170 O 0.53906 1.04106 0.89862
 O171 O 0.39802 1.00720 0.95399
 O172 O 0.55316 1.06349 1.04567
 Co173 Co 0.49399 0.99641 0.91201
 Co174 Co 0.50154 1.00220 1.06282
 Co175 Co 0.56586 1.02361 0.99635
 Co176 Co 0.42710 0.96977 1.00086
 O177 O 0.49524 0.99603 0.99056
 C178 C 0.40868 1.03865 0.92246
 C179 C 0.56169 1.05735 1.08946
 C180 C 0.55477 1.07686 0.91877
 C181 C 0.42435 1.05475 1.05927
 O182 O 0.04747 0.45999 0.09436
 O183 O 0.02289 0.54371 -0.09688
 O184 O 0.05450 0.42533 -0.02433
 O185 O 0.08386 0.56590 0.03633
 O186 O 0.02933 0.45627 -0.08850
 O187 O 0.04570 0.54951 0.09967
 O188 O 0.07420 0.55121 -0.04409
 O189 O 0.01703 0.40353 0.05142
 C190 C 0.04611 0.41718 0.08191
 C191 C 0.06419 0.55399 -0.08622
 C192 C 0.05869 0.43033 -0.06770
 C193 C 0.08094 0.56716 0.07993
 O194 O -0.04275 0.55238 0.09092
 O195 O -0.06074 0.45121 -0.05848
 O196 O -0.06496 0.43519 0.02462
 O197 O -0.01278 0.59659 -0.04274
 O198 O -0.06307 0.54036 -0.05784
 O199 O -0.04507 0.46044 0.09355
 O200 O -0.00539 0.60392 0.04306
 O201 O -0.02582 0.38482 -0.03411
 Co202 Co 0.00140 0.50499 0.08616
 Co203 Co -0.01563 0.49848 -0.06770
 Co204 Co -0.00465 0.43500 -0.00104
 Co205 Co 0.03258 0.57373 -0.00167
 O206 O 0.00528 0.50535 0.00775
 C207 C -0.03681 0.59415 0.07443
 C208 C -0.05545 0.40609 -0.06334
 C209 C -0.07237 0.43696 0.06816
 C210 C -0.05283 0.58374 -0.05710
 O211 O 1.09469 0.02976 0.45747
 O212 O 0.93846 0.06407 0.54737
 O213 O 0.95817 0.02819 0.38689
 O214 O 1.02312 0.06058 0.57748
 O215 O 0.94148 0.06611 0.45450
 O216 O 1.09019 0.03221 0.54986
 O217 O 0.95250 0.02503 0.61526
 O218 O 1.03068 0.05786 0.42273
 C219 C 1.07494 0.05861 0.42850
 C220 C 0.92849 0.05739 0.59167
 C221 C 0.93520 0.06153 0.40943
 C222 C 1.06757 0.06285 0.57418
 O223 O 1.07074 -0.06244 0.54908
 O224 O 0.90533 -0.02213 0.45574
 O225 O 1.04260 -0.02864 0.40026
 O226 O 0.96618 -0.05606 0.57476
 O227 O 0.90502 -0.02598 0.54308
 O228 O 1.07541 -0.06292 0.46173
 O229 O 1.03942 -0.02338 0.60655
 O230 O 0.96605 -0.05521 0.42807
 Co231 Co 1.07637 -0.01459 0.50451
 Co232 Co 0.92946 0.01891 0.50039
 Co233 Co 0.99550 0.00223 0.43122
 Co234 Co 0.99208 0.00265 0.57125
 O235 O 1.00305 -0.00256 0.50160
 C236 C 1.06552 -0.05619 0.59252
 C237 C 0.92286 -0.05502 0.43214
 C238 C 1.06951 -0.05974 0.41776
 C239 C 0.92350 -0.05873 0.56744
 N240 N 1.11001 0.15392 0.34463
 C241 C 1.15407 0.14007 0.33128
 N242 N 1.17311 0.10125 0.35339
 N243 N 1.14877 0.07697 0.38648
 C244 C 1.10427 0.09020 0.39852
 N245 N 1.08541 0.12927 0.37712
 N246 N 0.89236 -0.14800 0.34711
 C247 C 0.84939 -0.13370 0.33103
 N248 N 0.82847 -0.09610 0.35281
 N249 N 0.85037 -0.07300 0.38768
 C250 C 0.89404 -0.08657 0.40231
 N251 N 0.91435 -0.12479 0.38158
 N252 N 0.86385 0.16321 0.63209
 C253 C 0.83838 0.14458 0.66900
 N254 N 0.84188 0.09723 0.67919
 N255 N 0.87020 0.06956 0.65387
 C256 C 0.89564 0.08807 0.61707
 N257 N 0.89161 0.13527 0.60615
 N258 N 1.15254 -0.09658 0.67946
 C259 C 1.14325 -0.14424 0.68286
 N260 N 1.10694 -0.16222 0.65710
 N261 N 1.08156 -0.13400 0.62874
 C262 C 1.09075 -0.08649 0.62602
 N263 N 1.12670 -0.06822 0.65169
 N264 N 0.35063 1.09909 1.15586
 C265 C 0.32555 1.13455 1.13447
 N266 N 0.33569 1.14567 1.08821
 N267 N 0.36850 1.12172 1.06423
 C268 C 0.39327 1.08638 1.08597
 N269 N 0.38369 1.07553 1.13210
 N270 N 0.36603 0.86210 0.82704
 C271 C 0.33912 0.82915 0.85051
 N272 N 0.34652 0.82192 0.89776
 N273 N 0.37841 0.84802 0.92083
 C274 C 0.40425 0.88197 0.89733
 N275 N 0.39790 0.88792 0.84994
 N276 N 0.64759 0.89556 1.15596
 C277 C 0.68024 0.86974 1.13196
 N278 N 0.67477 0.86502 1.08419
 N279 N 0.63951 0.88657 1.06128
 C280 C 0.60708 0.91226 1.08543
 N281 N 0.61176 0.91625 1.13319
 N282 N 0.62444 1.12893 0.82146
 C283 C 0.64820 1.16492 0.84286
 N284 N 0.63694 1.17507 0.88871
 N285 N 0.60509 1.14885 0.91262
 C286 C 0.58269 1.11194 0.89132
 N287 N 0.59242 1.10308 0.84511
 N288 N 0.12052 0.31115 0.09694
 C289 C 0.13867 0.31769 0.14087
 N290 N 0.12652 0.35735 0.16527
 N291 N 0.09753 0.38958 0.14623
 C292 C 0.07880 0.38261 0.10263
 N293 N 0.09097 0.34300 0.07821
 N294 N -0.10103 0.30859 -0.13554
 C295 C -0.14530 0.32362 -0.14584
 N296 N -0.16009 0.36628 -0.12904
 N297 N -0.13124 0.39315 -0.10318
 C298 C -0.08707 0.37779 -0.09265
 N299 N -0.07255 0.33502 -0.10911
 N300 N 0.16858 0.61962 -0.12724
 C301 C 0.15312 0.64053 -0.16799
 N302 N 0.10980 0.62797 -0.18457
 N303 N 0.08230 0.59739 -0.16039
 C304 C 0.09725 0.57809 -0.11873
 N305 N 0.14115 0.58912 -0.10309
 N306 N -0.10928 0.66208 0.15773
 C307 C -0.11898 0.70247 0.13253
 N308 N -0.10178 0.70722 0.08756
 N309 N -0.07537 0.67287 0.06874
 C310 C -0.06590 0.63237 0.09405
 N311 N -0.08359 0.62754 0.13870
 N312 N 1.16166 0.11484 0.64568
 C313 C 1.13926 0.15077 0.66858
 N314 N 1.09392 0.16068 0.65626
 N315 N 1.07146 0.13427 0.62427
 C316 C 1.09377 0.09758 0.60258
 N317 N 1.13951 0.08896 0.61330
 N318 N 0.82866 -0.11072 0.64052
 C319 C 0.85137 -0.14688 0.66373
 N320 N 0.89606 -0.15742 0.64984
 N321 N 0.91783 -0.13138 0.61631
 C322 C 0.89562 -0.09423 0.59451
 N323 N 0.85029 -0.08489 0.60669
 N324 N 1.16209 -0.13926 0.37479
 C325 C 1.14673 -0.14957 0.33060
 N326 N 1.10539 -0.13073 0.31515
 N327 N 1.08030 -0.10219 0.34294
 C328 C 1.09559 -0.09208 0.38726
 N329 N 1.13667 -0.11135 0.40280
 N330 N 0.89665 0.16434 0.33722
 C331 C 0.85233 0.15057 0.32469
 N332 N 0.83523 0.10862 0.34283
 N333 N 0.86132 0.08117 0.37114
 C334 C 0.90556 0.09469 0.38287
 N335 N 0.92283 0.13685 0.36574
 N336 N 0.10318 0.35459 -0.16275
 C337 C 0.13559 0.32720 -0.13972
 N338 N 0.14607 0.33797 -0.09395
 N339 N 0.12370 0.37299 -0.07163
 C340 C 0.09069 0.39954 -0.09452
 N341 N 0.08120 0.38995 -0.14062
 N342 N -0.13386 0.37148 0.16314
 C343 C -0.15938 0.33878 0.13902
 N344 N -0.16001 0.34162 0.09073
 N345 N -0.13456 0.37482 0.06750
 C346 C -0.10820 0.40682 0.09185
 N347 N -0.10888 0.40478 0.14003
 N348 N -0.14760 0.66719 -0.09113
 C349 C -0.12994 0.68696 -0.13210
 N350 N -0.08751 0.67134 -0.14804
 N351 N -0.06361 0.63818 -0.12400
 C352 C -0.08135 0.61857 -0.08338
 N353 N -0.12390 0.63348 -0.06729
 N354 N 0.12741 0.63734 0.17751
 C355 C 0.16565 0.65939 0.15774
 N356 N 0.17873 0.64703 0.11297
 N357 N 0.15322 0.61574 0.08841
 C358 C 0.11426 0.59496 0.10813
 N359 N 0.10238 0.60578 0.15333
 N360 N 0.30018 1.10943 0.90747
 C361 C 0.30674 1.12840 0.86321
 N362 N 0.34669 1.11774 0.83903
 N363 N 0.37915 1.08951 0.85843
 C364 C 0.37247 1.07003 0.90234
 N365 N 0.33245 1.08054 0.92667
 N366 N 0.36416 0.89036 1.18535
 C367 C 0.34858 0.84839 1.16705
 N368 N 0.36576 0.83464 1.12437
 N369 N 0.39619 0.86220 1.10045
 C370 C 0.41080 0.90454 1.11824
 N371 N 0.39473 0.91798 1.16142
 N372 N 0.64558 1.15464 1.11036
 C373 C 0.65774 1.14704 1.15637
 N374 N 0.63644 1.11065 1.18096
 N375 N 0.60476 1.08260 1.16023
 C376 C 0.59341 1.08987 1.11402
 N377 N 0.61405 1.12656 1.08960
 N378 N 0.64039 0.87665 0.83569
 C379 C 0.68144 0.86760 0.85860
 N380 N 0.68880 0.88721 0.90182
 N381 N 0.65631 0.91520 0.92129
 C382 C 0.61519 0.92410 0.89836
 N383 N 0.60764 0.90399 0.85547
   
