data_POSCAR
  _audit_creation_date              2014-09-24
  _audit_creation_method            'ToBaCCo'
  _symmetry_space_group_name_H-M    'P1'
  _symmetry_Int_Tables_number       1
  _symmetry_cell_setting            triclinic
  loop_
  _symmetry_equiv_pos_as_xyz
 x,y,z
_cell_length_a 41.7634
_cell_length_b 45.1032
_cell_length_c 42.9609
_cell_angle_alpha 84.758500
_cell_angle_beta 95.000400
_cell_angle_gamma 94.683200
loop_
  _atom_site_label
  _atom_site_type_symbol
  _atom_site_fract_x
  _atom_site_fract_y
  _atom_site_fract_z
C1 C 0.21556 0.27280 0.28051
 C2 C 0.23804 0.29249 0.25954
 C3 C 0.25630 0.27714 0.24279
 C4 C 0.25048 0.24309 0.24857
 C5 C 0.19583 0.25202 0.25831
 C6 C 0.21392 0.23675 0.24121
 C7 C 0.23768 0.25193 0.30083
 C8 C 0.25638 0.23666 0.28439
 H9 H 0.23857 0.31663 0.25751
 H10 H 0.26570 0.23087 0.23502
 H11 H 0.16995 0.24796 0.25756
 H12 H 0.23797 0.24919 0.32615
 C13 C 0.71552 0.77315 0.27908
 C14 C 0.73672 0.79291 0.25694
 C15 C 0.75470 0.77765 0.23983
 C16 C 0.74987 0.74360 0.24641
 C17 C 0.69547 0.75162 0.25795
 C18 C 0.71324 0.73644 0.24047
 C19 C 0.73879 0.75305 0.29899
 C20 C 0.75721 0.73786 0.28215
 H21 H 0.73777 0.81707 0.25557
 H22 H 0.76444 0.73144 0.23215
 H23 H 0.66968 0.74716 0.25807
 H24 H 0.73978 0.75053 0.32434
 C25 C 0.71741 0.28105 0.77732
 C26 C 0.73932 0.29986 0.75831
 C27 C 0.75909 0.28417 0.74068
 C28 C 0.75307 0.25171 0.74604
 C29 C 0.69802 0.26060 0.75451
 C30 C 0.71664 0.24531 0.73801
 C31 C 0.73875 0.25965 0.79804
 C32 C 0.75760 0.24432 0.78180
 H33 H 0.74157 0.32382 0.75929
 H34 H 0.76722 0.23831 0.73282
 H35 H 0.67213 0.25624 0.75347
 H36 H 0.73846 0.25657 0.82330
 C37 C 0.21609 0.78014 0.77733
 C38 C 0.23938 0.79992 0.75737
 C39 C 0.25810 0.78476 0.74090
 C40 C 0.25208 0.75063 0.74630
 C41 C 0.19698 0.75977 0.75425
 C42 C 0.21576 0.74445 0.73793
 C43 C 0.23744 0.75885 0.79809
 C44 C 0.25631 0.74333 0.78207
 H45 H 0.24060 0.82406 0.75639
 H46 H 0.26706 0.73815 0.73276
 H47 H 0.17111 0.75543 0.75281
 H48 H 0.23711 0.75611 0.82336
 C49 C 0.05016 0.04037 0.00613
 H50 H 0.04991 0.04308 -0.01918
 C51 C 0.06979 0.05993 0.02422
 H52 H 0.08498 0.07740 0.01266
 C53 C 0.03036 0.01439 0.05181
 H54 H 0.01439 -0.00288 0.06249
 C55 C 0.04962 0.03341 0.07080
 H56 H 0.04822 0.03047 0.09595
 N57 N 0.03111 0.01805 0.02010
 C58 C 0.01127 -0.04792 -0.04873
 H59 H -0.01480 -0.04998 -0.05009
 C60 C 0.02775 -0.06525 -0.06640
 H61 H 0.01413 -0.08034 -0.08170
 C62 C 0.06056 -0.02552 -0.02717
 H63 H 0.07328 -0.01042 -0.01143
 C64 C 0.07801 -0.04241 -0.04444
 H65 H 0.10409 -0.04009 -0.04175
 Zn66 Zn 0.00357 -0.00619 -0.00620
 N67 N 0.02778 -0.02831 -0.02986
 C68 C -0.02304 0.02040 -0.06465
 N69 N -0.02221 0.01972 -0.03287
 C70 C -0.03921 0.03842 -0.01878
 C71 C -0.05878 0.05823 -0.03675
 C72 C -0.04229 0.03994 -0.08356
 C73 C -0.00819 -0.05480 0.03798
 C74 C -0.02646 -0.07529 0.05688
 C75 C -0.07457 -0.05311 0.03356
 C76 C -0.05538 -0.03303 0.01517
 N77 N -0.02277 -0.03385 0.01808
 H78 H -0.00882 0.00585 -0.07545
 H79 H -0.03761 0.03781 0.00654
 H80 H -0.07202 0.07300 -0.02504
 H81 H -0.04314 0.03979 -0.10881
 H82 H 0.01776 -0.05533 0.03939
 H83 H -0.01441 -0.09169 0.07270
 H84 H -0.10041 -0.05154 0.03148
 H85 H -0.06665 -0.01672 -0.00128
 C86 C 0.06160 -0.06257 -0.06444
 C87 C 0.06962 0.05662 0.05704
 C88 C -0.06013 -0.07444 0.05499
 C89 C -0.06068 0.05905 -0.06961
 C90 C 0.05929 0.54101 0.50692
 H91 H 0.05933 0.54336 0.48163
 C92 C 0.07913 0.56051 0.52491
 H93 H 0.09477 0.57756 0.51330
 C94 C 0.03844 0.51611 0.55264
 H95 H 0.02195 0.49934 0.56336
 C96 C 0.05787 0.53509 0.57153
 H97 H 0.05607 0.53261 0.59663
 N98 N 0.03956 0.51929 0.52096
 C99 C 0.01766 0.45274 0.45297
 H100 H -0.00841 0.45141 0.45157
 C101 C 0.03349 0.43456 0.43566
 H102 H 0.01939 0.41956 0.42059
 C103 C 0.06757 0.47414 0.47427
 H104 H 0.08078 0.48918 0.48978
 C105 C 0.08439 0.45638 0.45735
 H106 H 0.11048 0.45798 0.46008
 Zn107 Zn 0.01138 0.49545 0.49481
 N108 N 0.03479 0.47225 0.47154
 C109 C -0.01441 0.52207 0.43604
 N110 N -0.01349 0.52186 0.46779
 C111 C -0.02960 0.54148 0.48157
 C112 C -0.04820 0.56191 0.46330
 C113 C -0.03278 0.54213 0.41685
 C114 C -0.00178 0.44753 0.53928
 C115 C -0.02053 0.42776 0.55845
 C116 C -0.06788 0.45129 0.53526
 C117 C -0.04822 0.47064 0.51659
 N118 N -0.01574 0.46879 0.51930
 H119 H -0.00079 0.50685 0.42549
 H120 H -0.02812 0.54107 0.50687
 H121 H -0.06136 0.57690 0.47480
 H122 H -0.03310 0.54210 0.39162
 H123 H 0.02406 0.44621 0.54055
 H124 H -0.00895 0.41109 0.57431
 H125 H -0.09358 0.45367 0.53334
 H126 H -0.05900 0.48721 0.50011
 C127 C 0.06733 0.43628 0.43768
 C128 C 0.07845 0.55778 0.55769
 C129 C -0.05404 0.42967 0.55677
 C130 C -0.05005 0.56236 0.43047
 C131 C 0.56095 0.04068 0.50780
 H132 H 0.56108 0.04305 0.48253
 C133 C 0.58064 0.06021 0.52587
 H134 H 0.59629 0.07730 0.51433
 C135 C 0.53990 0.01575 0.55342
 H136 H 0.52336 -0.00103 0.56406
 C137 C 0.55919 0.03477 0.57238
 H138 H 0.55725 0.03230 0.59746
 N139 N 0.54116 0.01894 0.52175
 C140 C 0.51901 -0.04725 0.45338
 H141 H 0.49295 -0.04851 0.45203
 C142 C 0.53474 -0.06539 0.43592
 H143 H 0.52055 -0.08028 0.42079
 C144 C 0.56903 -0.02609 0.47471
 H145 H 0.58231 -0.01115 0.49028
 C146 C 0.58574 -0.04381 0.45764
 H147 H 0.61183 -0.04228 0.46031
 Zn148 Zn 0.51294 -0.00473 0.49546
 N149 N 0.53625 -0.02789 0.47204
 C150 C 0.48688 0.02210 0.43685
 N151 N 0.48816 0.02187 0.46862
 C152 C 0.47223 0.04147 0.48262
 C153 C 0.45339 0.06183 0.46459
 C154 C 0.46824 0.04210 0.41788
 C155 C 0.49930 -0.05269 0.53985
 C156 C 0.48024 -0.07242 0.55878
 C157 C 0.43320 -0.04871 0.53507
 C158 C 0.45314 -0.02942 0.51666
 N159 N 0.48561 -0.03137 0.51974
 H160 H 0.50034 0.00687 0.42611
 H161 H 0.47398 0.04102 0.50793
 H162 H 0.44031 0.07675 0.47627
 H163 H 0.46755 0.04204 0.39263
 H164 H 0.52513 -0.05411 0.54141
 H165 H 0.49158 -0.08915 0.57477
 H166 H 0.40751 -0.04625 0.53285
 H167 H 0.44258 -0.01282 0.50006
 C168 C 0.56857 -0.06377 0.43788
 C169 C 0.57976 0.05751 0.55863
 C170 C 0.44672 -0.07040 0.55670
 C171 C 0.45108 0.06224 0.43175
 C172 C 0.54885 0.53932 0.00645
 H173 H 0.54856 0.54218 -0.01885
 C174 C 0.56838 0.55886 0.02465
 H175 H 0.58346 0.57648 0.01317
 C176 C 0.52925 0.51297 0.05204
 H177 H 0.51339 0.49557 0.06265
 C178 C 0.54841 0.53197 0.07113
 H179 H 0.54705 0.52887 0.09628
 N180 N 0.52995 0.51682 0.02033
 C181 C 0.51029 0.45112 -0.04885
 H182 H 0.48423 0.44887 -0.05007
 C183 C 0.52682 0.43401 -0.06671
 H184 H 0.51324 0.41890 -0.08201
 C185 C 0.55952 0.47378 -0.02745
 H186 H 0.57221 0.48888 -0.01170
 C187 C 0.57702 0.45711 -0.04492
 H188 H 0.60310 0.45961 -0.04237
 Zn189 Zn 0.50249 0.49258 -0.00605
 N190 N 0.52675 0.47075 -0.02997
 C191 C 0.47535 0.51916 -0.06427
 N192 N 0.47641 0.51842 -0.03247
 C193 C 0.45937 0.53695 -0.01820
 C194 C 0.43951 0.55663 -0.03598
 C195 C 0.45580 0.53857 -0.08300
 C196 C 0.49118 0.44373 0.03793
 C197 C 0.47311 0.42319 0.05696
 C198 C 0.42478 0.44525 0.03405
 C199 C 0.44376 0.46539 0.01552
 N200 N 0.47639 0.46467 0.01819
 H201 H 0.48959 0.50474 -0.07522
 H202 H 0.46115 0.53629 0.00713
 H203 H 0.42623 0.57126 -0.02413
 H204 H 0.45477 0.53846 -0.10826
 H205 H 0.51712 0.44329 0.03916
 H206 H 0.48533 0.40682 0.07269
 H207 H 0.39894 0.44677 0.03220
 H208 H 0.43233 0.48168 -0.00081
 C209 C 0.56066 0.43694 -0.06494
 C210 C 0.56826 0.55536 0.05747
 C211 C 0.43945 0.42398 0.05538
 C212 C 0.43737 0.55749 -0.06885
 C213 C 0.16319 -0.16572 -0.16921
 C214 C 0.14737 -0.17926 -0.19486
 C215 C 0.16401 -0.19672 -0.21233
 C216 C 0.19680 -0.20135 -0.20406
 C217 C 0.21260 -0.18680 -0.17868
 C218 C 0.19589 -0.16937 -0.16128
 C219 C 0.14592 -0.14788 -0.15122
 C220 C 0.13137 -0.13301 -0.13614
 C221 C 0.11391 -0.11534 -0.11815
 C222 C 0.08645 -0.12801 -0.10408
 C223 C 0.06942 -0.11088 -0.08662
 C224 C 0.07967 -0.08080 -0.08298
 C225 C 0.10733 -0.06828 -0.09721
 C226 C 0.12431 -0.08545 -0.11468
 H227 H 0.12216 -0.17615 -0.20152
 H228 H 0.15102 -0.20589 -0.23250
 H229 H 0.23802 -0.18894 -0.17231
 H230 H 0.20851 -0.15867 -0.14169
 H231 H 0.07824 -0.15116 -0.10654
 H232 H 0.04849 -0.12128 -0.07561
 H233 H 0.11560 -0.04509 -0.09519
 H234 H 0.14549 -0.07540 -0.12555
 C235 C 0.16467 0.32818 0.33444
 C236 C 0.14816 0.31445 0.30923
 C237 C 0.16413 0.29650 0.29171
 C238 C 0.19692 0.29154 0.29948
 C239 C 0.21340 0.30624 0.32444
 C240 C 0.19736 0.32417 0.34191
 C241 C 0.14815 0.34674 0.35232
 C242 C 0.13424 0.36228 0.36725
 C243 C 0.11755 0.38081 0.38501
 C244 C 0.12897 0.41053 0.38804
 C245 C 0.11269 0.42858 0.40519
 C246 C 0.08471 0.41711 0.41953
 C247 C 0.07346 0.38717 0.41636
 C248 C 0.08979 0.36917 0.39922
 H249 H 0.12296 0.31786 0.30291
 H250 H 0.15067 0.28727 0.27181
 H251 H 0.23886 0.30392 0.33039
 H252 H 0.21051 0.33503 0.36112
 H253 H 0.15039 0.41980 0.37706
 H254 H 0.12172 0.45162 0.40687
 H255 H 0.05226 0.37756 0.42747
 H256 H 0.08080 0.34616 0.39709
 C257 C 0.66511 -0.17154 0.33354
 C258 C 0.64839 -0.18540 0.30852
 C259 C 0.66424 -0.20333 0.29085
 C260 C 0.69709 -0.20816 0.29832
 C261 C 0.71380 -0.19328 0.32304
 C262 C 0.69788 -0.17538 0.34064
 C263 C 0.64873 -0.15302 0.35159
 C264 C 0.63494 -0.13753 0.36668
 C265 C 0.61840 -0.11906 0.38464
 C266 C 0.59065 -0.13070 0.39887
 C267 C 0.57445 -0.11276 0.41620
 C268 C 0.58583 -0.08288 0.41955
 C269 C 0.61380 -0.07141 0.40520
 C270 C 0.62995 -0.08940 0.38785
 H271 H 0.62312 -0.18211 0.30244
 H272 H 0.65063 -0.21266 0.27106
 H273 H 0.73933 -0.19541 0.32868
 H274 H 0.71121 -0.16439 0.35968
 H275 H 0.58155 -0.15366 0.39660
 H276 H 0.55326 -0.12237 0.42732
 H277 H 0.62293 -0.04841 0.40701
 H278 H 0.65136 -0.08014 0.37686
 C279 C 0.66342 0.33486 -0.16978
 C280 C 0.64882 0.32324 -0.19705
 C281 C 0.66591 0.30592 -0.21427
 C282 C 0.69783 0.29941 -0.20411
 C283 C 0.71254 0.31222 -0.17717
 C284 C 0.69539 0.32951 -0.16002
 C285 C 0.64573 0.35253 -0.15200
 C286 C 0.63091 0.36727 -0.13702
 C287 C 0.61323 0.38478 -0.11906
 C288 C 0.58589 0.37187 -0.10494
 C289 C 0.56876 0.38882 -0.08737
 C290 C 0.57878 0.41894 -0.08368
 C291 C 0.60630 0.43170 -0.09799
 C292 C 0.62339 0.41471 -0.11556
 H293 H 0.62426 0.32775 -0.20516
 H294 H 0.65408 0.29829 -0.23575
 H295 H 0.73746 0.30893 -0.16939
 H296 H 0.70713 0.33880 -0.13921
 H297 H 0.57788 0.34869 -0.10741
 H298 H 0.54794 0.37823 -0.07631
 H299 H 0.61439 0.45491 -0.09592
 H300 H 0.64448 0.42494 -0.12646
 C301 C -0.18007 0.17933 -0.17305
 C302 C -0.17095 0.19707 -0.19976
 C303 C -0.19135 0.21808 -0.21462
 C304 C -0.22104 0.22167 -0.20286
 C305 C -0.23011 0.20351 -0.17619
 C306 C -0.20974 0.18253 -0.16141
 C307 C -0.15890 0.15824 -0.15706
 C308 C -0.14159 0.14062 -0.14290
 C309 C -0.12145 0.11966 -0.12512
 C310 C -0.09112 0.11517 -0.13462
 C311 C -0.07139 0.09528 -0.11675
 C312 C -0.08175 0.07970 -0.08907
 C313 C -0.11239 0.08423 -0.07990
 C314 C -0.13206 0.10408 -0.09780
 H315 H -0.14797 0.19485 -0.20890
 H316 H -0.18354 0.23194 -0.23483
 H317 H -0.25307 0.20532 -0.16689
 H318 H -0.21709 0.16886 -0.14081
 H319 H -0.08262 0.12721 -0.15568
 H320 H -0.04779 0.09251 -0.12423
 H321 H -0.12126 0.07226 -0.05899
 H322 H -0.15552 0.10734 -0.09026
 C323 C -0.17185 0.68045 0.32702
 C324 C -0.18724 0.67447 0.29778
 C325 C -0.20994 0.69334 0.28294
 C326 C -0.21778 0.71834 0.29724
 C327 C -0.20159 0.72446 0.32638
 C328 C -0.17889 0.70562 0.34115
 C329 C -0.14954 0.66040 0.34303
 C330 C -0.13123 0.64360 0.35707
 C331 C -0.10979 0.62359 0.37455
 C332 C -0.10876 0.59446 0.36609
 C333 C -0.08898 0.57464 0.38399
 C334 C -0.07006 0.58371 0.41067
 C335 C -0.07096 0.61317 0.41871
 C336 C -0.09071 0.63294 0.40077
 H337 H -0.18198 0.65503 0.28661
 H338 H -0.22175 0.68783 0.26067
 H339 H -0.20627 0.74391 0.33778
 H340 H -0.16699 0.71057 0.36372
 H341 H -0.12357 0.58695 0.34592
 H342 H -0.08910 0.55203 0.37741
 H343 H -0.05633 0.62095 0.43884
 H344 H -0.09131 0.65544 0.40752
 C345 C 0.32653 0.17885 0.32995
 C346 C 0.31108 0.17273 0.30078
 C347 C 0.28846 0.19161 0.28582
 C348 C 0.28082 0.21680 0.29991
 C349 C 0.29686 0.22294 0.32911
 C350 C 0.31948 0.20407 0.34400
 C351 C 0.34912 0.15902 0.34584
 C352 C 0.36778 0.14244 0.35967
 C353 C 0.38971 0.12269 0.37682
 C354 C 0.39090 0.09359 0.36835
 C355 C 0.41124 0.07404 0.38590
 C356 C 0.43057 0.08336 0.41223
 C357 C 0.42952 0.11280 0.42027
 C358 C 0.40921 0.13230 0.40268
 H359 H 0.31632 0.15322 0.28970
 H360 H 0.27663 0.18605 0.26358
 H361 H 0.29222 0.24249 0.34037
 H362 H 0.33140 0.20911 0.36653
 H363 H 0.37580 0.08589 0.34845
 H364 H 0.41123 0.05142 0.37934
 H365 H 0.44444 0.12076 0.44013
 H366 H 0.40850 0.15479 0.40942
 C367 C 0.31732 0.67747 -0.17189
 C368 C 0.32615 0.69394 -0.19942
 C369 C 0.30618 0.71516 -0.21456
 C370 C 0.27721 0.72033 -0.20228
 C371 C 0.26836 0.70329 -0.17481
 C372 C 0.28831 0.68208 -0.15973
 C373 C 0.33820 0.65625 -0.15568
 C374 C 0.35547 0.63861 -0.14150
 C375 C 0.37580 0.61773 -0.12386
 C376 C 0.40609 0.61345 -0.13358
 C377 C 0.42607 0.59368 -0.11587
 C378 C 0.41600 0.57801 -0.08813
 C379 C 0.38539 0.58232 -0.07873
 C380 C 0.36547 0.60205 -0.09647
 H381 H 0.34859 0.69058 -0.20903
 H382 H 0.31386 0.72786 -0.23547
 H383 H 0.24587 0.70609 -0.16505
 H384 H 0.28115 0.66934 -0.13852
 H385 H 0.41437 0.62557 -0.15469
 H386 H 0.44964 0.59109 -0.12353
 H387 H 0.37675 0.57027 -0.05776
 H388 H 0.34204 0.60516 -0.08876
 C389 C -0.18037 -0.17818 0.17520
 C390 C -0.20968 -0.16635 0.17858
 C391 C -0.23089 -0.18079 0.19946
 C392 C -0.22305 -0.20733 0.21727
 C393 C -0.19366 -0.21923 0.21355
 C394 C -0.17242 -0.20470 0.19265
 C395 C -0.15838 -0.16268 0.15420
 C396 C -0.14037 -0.14899 0.13664
 C397 C -0.11938 -0.13184 0.11575
 C398 C -0.12976 -0.12593 0.08410
 C399 C -0.11025 -0.10774 0.06417
 C400 C -0.08007 -0.09515 0.07567
 C401 C -0.06960 -0.10169 0.10741
 C402 C -0.08917 -0.11988 0.12731
 H403 H -0.21611 -0.14587 0.16515
 H404 H -0.25355 -0.17131 0.20144
 H405 H -0.18673 -0.23938 0.22726
 H406 H -0.14972 -0.21398 0.19032
 H407 H -0.15312 -0.13506 0.07491
 H408 H -0.11881 -0.10345 0.03977
 H409 H -0.04669 -0.09205 0.11707
 H410 H -0.08098 -0.12416 0.15182
 C411 C -0.17521 0.32873 0.67833
 C412 C -0.19906 0.34414 0.68918
 C413 C -0.22054 0.32952 0.70968
 C414 C -0.21872 0.29891 0.71996
 C415 C -0.19433 0.28375 0.70857
 C416 C -0.17288 0.29855 0.68806
 C417 C -0.15330 0.34407 0.65715
 C418 C -0.13530 0.35751 0.63942
 C419 C -0.11423 0.37425 0.61833
 C420 C -0.12480 0.38029 0.58674
 C421 C -0.10505 0.39789 0.56657
 C422 C -0.07442 0.40973 0.57776
 C423 C -0.06381 0.40312 0.60945
 C424 C -0.08362 0.38553 0.62958
 H425 H -0.20127 0.36751 0.68159
 H426 H -0.23913 0.34241 0.71633
 H427 H -0.19066 0.26069 0.71581
 H428 H -0.15432 0.28641 0.67990
 H429 H -0.14846 0.37167 0.57778
 H430 H -0.11373 0.40225 0.54222
 H431 H -0.04055 0.41221 0.61887
 H432 H -0.07527 0.38112 0.65404
 C433 C 0.32359 -0.17081 0.67673
 C434 C 0.29493 -0.15826 0.68105
 C435 C 0.27361 -0.17274 0.70180
 C436 C 0.28068 -0.20002 0.71864
 C437 C 0.30941 -0.21257 0.71386
 C438 C 0.33075 -0.19803 0.69310
 C439 C 0.34570 -0.15547 0.65575
 C440 C 0.36396 -0.14209 0.63824
 C441 C 0.38541 -0.12548 0.61744
 C442 C 0.37531 -0.11944 0.58574
 C443 C 0.39545 -0.10198 0.56583
 C444 C 0.42600 -0.09027 0.57740
 C445 C 0.43615 -0.09690 0.60921
 C446 C 0.41594 -0.11436 0.62908
 H447 H 0.28907 -0.13726 0.66838
 H448 H 0.25140 -0.16271 0.70432
 H449 H 0.31577 -0.23332 0.72649
 H450 H 0.35291 -0.20792 0.68997
 H451 H 0.35172 -0.12796 0.57648
 H452 H 0.38713 -0.09761 0.54138
 H453 H 0.45933 -0.08791 0.61892
 H454 H 0.42393 -0.11877 0.65362
 C455 C 0.32176 0.32096 0.17851
 C456 C 0.31781 0.33334 0.20649
 C457 C 0.29667 0.31901 0.22751
 C458 C 0.27918 0.29204 0.22079
 C459 C 0.28351 0.27959 0.19275
 C460 C 0.30466 0.29401 0.17171
 C461 C 0.34286 0.33638 0.15660
 C462 C 0.36035 0.34997 0.13849
 C463 C 0.38098 0.36698 0.11719
 C464 C 0.41133 0.37899 0.12830
 C465 C 0.43064 0.39703 0.10805
 C466 C 0.41977 0.40337 0.07639
 C467 C 0.38944 0.39074 0.06532
 C468 C 0.37019 0.37269 0.08561
 H469 H 0.33096 0.35417 0.21201
 H470 H 0.29421 0.32892 0.24911
 H471 H 0.27003 0.25910 0.18670
 H472 H 0.30742 0.28431 0.15003
 H473 H 0.41984 0.37486 0.15275
 H474 H 0.45366 0.40672 0.11739
 H475 H 0.38058 0.39489 0.04099
 H476 H 0.34672 0.36351 0.07676
 C477 C 0.17051 0.17689 0.17437
 C478 C 0.15509 0.20207 0.17982
 C479 C 0.16937 0.22168 0.20125
 C480 C 0.19930 0.21631 0.21772
 C481 C 0.21487 0.19122 0.21155
 C482 C 0.20052 0.17160 0.19011
 C483 C 0.15508 0.15614 0.15323
 C484 C 0.14157 0.13875 0.13583
 C485 C 0.12480 0.11802 0.11541
 C486 C 0.10966 0.12848 0.08662
 C487 C 0.09211 0.10848 0.06740
 C488 C 0.08941 0.07771 0.07680
 C489 C 0.10506 0.06739 0.10562
 C490 C 0.12262 0.08743 0.12478
 H491 H 0.13192 0.20648 0.16764
 H492 H 0.15700 0.24114 0.20474
 H493 H 0.23775 0.18626 0.22367
 H494 H 0.21268 0.15214 0.18609
 H495 H 0.11104 0.15213 0.07922
 H496 H 0.07998 0.11718 0.04557
 H497 H 0.10377 0.04382 0.11332
 H498 H 0.13425 0.07909 0.14703
 C499 C 0.17554 0.68082 0.67402
 C500 C 0.20404 0.67551 0.69263
 C501 C 0.21733 0.69632 0.71328
 C502 C 0.20216 0.72266 0.71559
 C503 C 0.17365 0.72788 0.69663
 C504 C 0.16046 0.70709 0.67600
 C505 C 0.16123 0.65915 0.65337
 C506 C 0.14854 0.64121 0.63617
 C507 C 0.13254 0.62004 0.61579
 C508 C 0.13009 0.58958 0.62575
 C509 C 0.11300 0.56922 0.60664
 C510 C 0.09808 0.57911 0.57730
 C511 C 0.10114 0.60973 0.56730
 C512 C 0.11822 0.63004 0.58646
 H513 H 0.21582 0.65516 0.69140
 H514 H 0.23901 0.69144 0.72792
 H515 H 0.16166 0.74814 0.69761
 H516 H 0.13840 0.71145 0.66168
 H517 H 0.14107 0.58161 0.64843
 H518 H 0.11140 0.54576 0.61482
 H519 H 0.08957 0.61810 0.54507
 H520 H 0.11980 0.65359 0.57860
 C521 C 0.67594 0.18121 0.67482
 C522 C 0.66099 0.20760 0.67658
 C523 C 0.67432 0.22851 0.69702
 C524 C 0.70284 0.22332 0.71597
 C525 C 0.71782 0.19682 0.71393
 C526 C 0.70441 0.17588 0.69347
 C527 C 0.66160 0.15946 0.65427
 C528 C 0.64896 0.14142 0.63714
 C529 C 0.63310 0.12015 0.61681
 C530 C 0.61891 0.13000 0.58738
 C531 C 0.60206 0.10957 0.56821
 C532 C 0.59913 0.07896 0.57828
 C533 C 0.61391 0.06922 0.60774
 C534 C 0.63076 0.08970 0.62686
 H535 H 0.63895 0.21195 0.66223
 H536 H 0.66245 0.24886 0.69785
 H537 H 0.73946 0.19191 0.72862
 H538 H 0.71607 0.15544 0.69242
 H539 H 0.62042 0.15354 0.57945
 H540 H 0.59058 0.11785 0.54589
 H541 H 0.61240 0.04578 0.61599
 H542 H 0.64167 0.08183 0.64961
 C543 C 0.66893 0.67560 0.17504
 C544 C 0.65349 0.70078 0.18052
 C545 C 0.66800 0.72063 0.20159
 C546 C 0.69821 0.71554 0.21762
 C547 C 0.71371 0.69039 0.21156
 C548 C 0.69912 0.67052 0.19049
 C549 C 0.65341 0.65477 0.15403
 C550 C 0.63989 0.63737 0.13665
 C551 C 0.62313 0.61667 0.11617
 C552 C 0.60791 0.62720 0.08745
 C553 C 0.59045 0.60723 0.06813
 C554 C 0.58793 0.57643 0.07735
 C555 C 0.60366 0.56604 0.10612
 C556 C 0.62113 0.58605 0.12538
 H557 H 0.63016 0.70502 0.16858
 H558 H 0.65565 0.74010 0.20508
 H559 H 0.73674 0.68562 0.22346
 H560 H 0.71128 0.65106 0.18645
 H561 H 0.60916 0.65088 0.08017
 H562 H 0.57826 0.61598 0.04635
 H563 H 0.60251 0.54244 0.11368
 H564 H 0.63283 0.57766 0.14757
   
