data_POSCAR
  _audit_creation_date              2014-09-24
  _audit_creation_method            'ToBaCCo'
  _symmetry_space_group_name_H-M    'P1'
  _symmetry_Int_Tables_number       1
  _symmetry_cell_setting            triclinic
  loop_
  _symmetry_equiv_pos_as_xyz
 x,y,z
_cell_length_a 33.9837
_cell_length_b 35.1860
_cell_length_c 40.7539
_cell_angle_alpha 89.914700
_cell_angle_beta 89.961400
_cell_angle_gamma 90.052200
loop_
  _atom_site_label
  _atom_site_type_symbol
  _atom_site_fract_x
  _atom_site_fract_y
  _atom_site_fract_z
Zr1 Zr 0.24907 0.24889 0.30763
 O2 O 0.27975 0.27874 0.34477
 O3 O 0.21113 0.21431 0.33536
 O4 O 0.21140 0.28513 0.33432
 O5 O 0.32188 0.18145 0.29551
 O6 O 0.17945 0.31930 0.29477
 O7 O 0.28676 0.21304 0.33478
 O8 O 0.17484 0.18367 0.29634
 O9 O 0.19723 0.25073 0.27990
 O10 O 0.24826 0.19914 0.27963
 O11 O 0.25283 0.29904 0.27960
 O12 O 0.30181 0.24949 0.28017
 Zr13 Zr 0.25181 0.25106 0.19306
 Zr14 Zr 0.20235 0.29910 0.25011
 Zr15 Zr 0.29867 0.20082 0.25052
 Zr16 Zr 0.19793 0.20198 0.25085
 O17 O 0.36085 0.20396 0.24951
 O18 O 0.13664 0.21315 0.25016
 O19 O 0.24823 0.20034 0.22073
 O20 O 0.19963 0.25030 0.22086
 O21 O 0.25277 0.30120 0.22063
 O22 O 0.30322 0.24922 0.22122
 C23 C 0.18402 0.19115 0.32626
 C24 C 0.31325 0.18921 0.32551
 C25 C 0.18679 0.31063 0.32479
 O26 O 0.14025 0.29583 0.24774
 O27 O 0.18320 0.32250 0.20524
 O28 O 0.21680 0.28951 0.16596
 C29 C 0.19199 0.31498 0.17525
 O30 O 0.32968 0.31809 0.29370
 Zr31 Zr 0.30300 0.29794 0.24988
 O32 O 0.28939 0.28588 0.16537
 O33 O 0.20916 0.35883 0.25228
 O34 O 0.29507 0.35770 0.25082
 O35 O 0.36470 0.28921 0.24788
 O36 O 0.32273 0.31950 0.20440
 C37 C 0.31436 0.31114 0.17451
 O38 O 0.21938 0.22278 0.15604
 O39 O 0.29200 0.14103 0.25168
 O40 O 0.28719 0.21293 0.16618
 O41 O 0.31772 0.17741 0.20567
 O42 O 0.20353 0.14198 0.25262
 O43 O 0.17544 0.17741 0.20708
 C44 C 0.31043 0.18620 0.17564
 H45 H 0.24806 0.17572 0.29311
 H46 H 0.17615 0.25052 0.20649
 H47 H 0.32747 0.24821 0.20779
 H48 H 0.25393 0.32177 0.29386
 H49 H 0.12293 0.18922 0.25603
 H50 H 0.13030 0.32227 0.24866
 H51 H 0.18239 0.36991 0.25121
 H52 H 0.32061 0.36954 0.24500
 H53 H 0.17727 0.13136 0.25796
 H54 H 0.31885 0.13012 0.25260
 H55 H 0.37067 0.17747 0.24874
 H56 H 0.37708 0.31395 0.24247
 H57 H 0.15245 0.16124 0.21242
 H58 H 0.22949 0.23187 0.13457
 H59 H 0.26971 0.26948 0.36621
 H60 H 0.34803 0.33909 0.28837
 Zr61 Zr 0.75118 0.75126 0.30734
 O62 O 0.72072 0.72151 0.34478
 O63 O 0.78913 0.78608 0.33475
 O64 O 0.78897 0.71521 0.33414
 O65 O 0.67795 0.81825 0.29498
 O66 O 0.82096 0.68096 0.29471
 O67 O 0.71332 0.78706 0.33436
 O68 O 0.82521 0.81667 0.29545
 O69 O 0.80296 0.74948 0.27947
 O70 O 0.75171 0.80088 0.27906
 O71 O 0.74758 0.70096 0.27960
 O72 O 0.69839 0.75029 0.28001
 Zr73 Zr 0.74819 0.74849 0.19277
 Zr74 Zr 0.79799 0.70096 0.24998
 Zr75 Zr 0.70125 0.79883 0.25007
 Zr76 Zr 0.80198 0.79811 0.25015
 O77 O 0.63909 0.79545 0.24917
 O78 O 0.86333 0.78720 0.24929
 O79 O 0.75161 0.79935 0.22014
 O80 O 0.80042 0.74964 0.22044
 O81 O 0.74752 0.69847 0.22063
 O82 O 0.69684 0.75028 0.22106
 C83 C 0.81618 0.80926 0.32545
 C84 C 0.68665 0.81067 0.32501
 C85 C 0.81361 0.68972 0.32469
 O86 O 0.86007 0.70449 0.24755
 O87 O 0.81733 0.67755 0.20519
 O88 O 0.78343 0.71015 0.16580
 C89 C 0.80848 0.68493 0.17516
 O90 O 0.67089 0.68158 0.29402
 Zr91 Zr 0.69733 0.70169 0.25001
 O92 O 0.71063 0.71337 0.16541
 O93 O 0.79144 0.64121 0.25241
 O94 O 0.70555 0.64197 0.25125
 O95 O 0.63559 0.71022 0.24820
 O96 O 0.67748 0.67986 0.20474
 C97 C 0.68572 0.68810 0.17477
 O98 O 0.78035 0.77671 0.15544
 O99 O 0.70767 0.85865 0.25092
 O100 O 0.71262 0.78641 0.16577
 O101 O 0.68210 0.82201 0.20516
 O102 O 0.79606 0.85808 0.25161
 O103 O 0.82421 0.82260 0.20617
 C104 C 0.68936 0.81313 0.17516
 H105 H 0.75184 0.82435 0.29242
 H106 H 0.82387 0.74947 0.20602
 H107 H 0.67255 0.75114 0.20769
 H108 H 0.74658 0.67829 0.29399
 H109 H 0.87694 0.81122 0.25495
 H110 H 0.87015 0.67810 0.24859
 H111 H 0.81826 0.63023 0.25136
 H112 H 0.68005 0.62999 0.24559
 H113 H 0.82229 0.86884 0.25682
 H114 H 0.68077 0.86945 0.25183
 H115 H 0.62916 0.82190 0.24826
 H116 H 0.62328 0.68541 0.24299
 H117 H 0.84711 0.83895 0.21135
 H118 H 0.77020 0.76747 0.13407
 H119 H 0.73078 0.73093 0.36613
 H120 H 0.65261 0.66050 0.28886
 Zr121 Zr 0.75106 0.24841 -0.30753
 O122 O 0.72062 0.27786 -0.34510
 O123 O 0.78905 0.21350 -0.33481
 O124 O 0.78883 0.28436 -0.33453
 O125 O 0.67786 0.18137 -0.29478
 O126 O 0.82077 0.31893 -0.29527
 O127 O 0.71320 0.21239 -0.33434
 O128 O 0.82517 0.18330 -0.29539
 O129 O 0.80282 0.25053 -0.27972
 O130 O 0.75164 0.19898 -0.27902
 O131 O 0.74737 0.29889 -0.28003
 O132 O 0.69826 0.24944 -0.28016
 Zr133 Zr 0.74804 0.25194 -0.19297
 Zr134 Zr 0.79777 0.29923 -0.25045
 Zr135 Zr 0.70118 0.20110 -0.25000
 Zr136 Zr 0.80190 0.20210 -0.25016
 O137 O 0.63901 0.20429 -0.24902
 O138 O 0.86323 0.21320 -0.24942
 O139 O 0.75153 0.20092 -0.22011
 O140 O 0.80028 0.25075 -0.22068
 O141 O 0.74730 0.30178 -0.22107
 O142 O 0.69670 0.24982 -0.22121
 C143 C 0.81613 0.19047 -0.32542
 C144 C 0.68653 0.18880 -0.32485
 C145 C 0.81344 0.30996 -0.32520
 O146 O 0.85986 0.29590 -0.24799
 O147 O 0.81700 0.32307 -0.20582
 O148 O 0.78316 0.29063 -0.16624
 C149 C 0.80812 0.31591 -0.17576
 O150 O 0.67067 0.31801 -0.29445
 Zr151 Zr 0.69712 0.29822 -0.25038
 O152 O 0.71041 0.28709 -0.16574
 O153 O 0.79117 0.35894 -0.25325
 O154 O 0.70529 0.35795 -0.25191
 O155 O 0.63540 0.28951 -0.24849
 O156 O 0.67722 0.32026 -0.20519
 C157 C 0.68546 0.31221 -0.17518
 O158 O 0.78026 0.22408 -0.15555
 O159 O 0.70766 0.14130 -0.25059
 O160 O 0.71253 0.21410 -0.16577
 O161 O 0.68207 0.17816 -0.20497
 O162 O 0.79605 0.14209 -0.25132
 O163 O 0.82415 0.17796 -0.20608
 C164 C 0.68931 0.18726 -0.17502
 H165 H 0.75179 0.17543 -0.29227
 H166 H 0.82372 0.25110 -0.20628
 H167 H 0.67240 0.24897 -0.20781
 H168 H 0.74637 0.32146 -0.29453
 H169 H 0.87688 0.18917 -0.25497
 H170 H 0.86990 0.32231 -0.24920
 H171 H 0.81797 0.37000 -0.25226
 H172 H 0.67978 0.36990 -0.24625
 H173 H 0.82228 0.13137 -0.25650
 H174 H 0.68078 0.13041 -0.25142
 H175 H 0.62912 0.17781 -0.24797
 H176 H 0.62304 0.31430 -0.24336
 H177 H 0.84707 0.16165 -0.21121
 H178 H 0.77009 0.23344 -0.13421
 H179 H 0.73069 0.26832 -0.36641
 H180 H 0.65235 0.33906 -0.28936
 Zr181 Zr 0.24774 0.75313 -0.30764
 O182 O 0.27814 0.72387 -0.34528
 O183 O 0.20978 0.78824 -0.33484
 O184 O 0.20994 0.71718 -0.33460
 O185 O 0.32106 0.82008 -0.29488
 O186 O 0.17795 0.68252 -0.29530
 O187 O 0.28575 0.78930 -0.33444
 O188 O 0.17378 0.81836 -0.29540
 O189 O 0.19596 0.75096 -0.27976
 O190 O 0.24725 0.80243 -0.27908
 O191 O 0.25130 0.70255 -0.28010
 O192 O 0.30051 0.75187 -0.28027
 Zr193 Zr 0.25068 0.74907 -0.19297
 Zr194 Zr 0.20088 0.70214 -0.25047
 Zr195 Zr 0.29768 0.80010 -0.25008
 Zr196 Zr 0.19697 0.79927 -0.25018
 O197 O 0.35984 0.79674 -0.24919
 O198 O 0.13561 0.78825 -0.24944
 O199 O 0.24731 0.80020 -0.22014
 O200 O 0.19848 0.75050 -0.22068
 O201 O 0.25133 0.69935 -0.22112
 O202 O 0.30203 0.75125 -0.22128
 C203 C 0.18275 0.81134 -0.32547
 C204 C 0.31247 0.81288 -0.32500
 C205 C 0.18531 0.69153 -0.32525
 O206 O 0.13879 0.70562 -0.24807
 O207 O 0.18140 0.67821 -0.20581
 O208 O 0.21529 0.71035 -0.16624
 C209 C 0.19018 0.68517 -0.17570
 O210 O 0.32795 0.68328 -0.29458
 Zr211 Zr 0.30153 0.70298 -0.25048
 O212 O 0.28826 0.71368 -0.16581
 O213 O 0.20741 0.64243 -0.25320
 O214 O 0.29324 0.64326 -0.25203
 O215 O 0.36326 0.71162 -0.24866
 O216 O 0.32144 0.68069 -0.20533
 C217 C 0.31321 0.68858 -0.17530
 O218 O 0.21857 0.77682 -0.15547
 O219 O 0.29129 0.85991 -0.25057
 O220 O 0.28629 0.78682 -0.16581
 O221 O 0.31685 0.82283 -0.20503
 O222 O 0.20297 0.85926 -0.25126
 O223 O 0.17468 0.82328 -0.20610
 C224 C 0.30959 0.81367 -0.17506
 H225 H 0.24715 0.82604 -0.29231
 H226 H 0.17501 0.75016 -0.20628
 H227 H 0.32632 0.75200 -0.20790
 H228 H 0.25229 0.68002 -0.29460
 H229 H 0.12201 0.81232 -0.25498
 H230 H 0.12868 0.67923 -0.24927
 H231 H 0.18059 0.63140 -0.25221
 H232 H 0.31872 0.63124 -0.24641
 H233 H 0.17678 0.87007 -0.25647
 H234 H 0.31819 0.87076 -0.25144
 H235 H 0.36980 0.82318 -0.24812
 H236 H 0.37560 0.68679 -0.24356
 H237 H 0.15178 0.83963 -0.21122
 H238 H 0.22873 0.76732 -0.13416
 H239 H 0.26807 0.73355 -0.36656
 H240 H 0.34626 0.66221 -0.28950
 Zr241 Zr 1.25227 1.25229 0.80701
 O242 O 1.22122 1.22286 0.84430
 O243 O 1.29033 1.28675 0.83443
 O244 O 1.28995 1.21645 0.83419
 O245 O 1.18016 1.32020 0.79421
 O246 O 1.32182 1.18173 0.79502
 O247 O 1.21503 1.28880 0.83378
 O248 O 1.32703 1.31675 0.79518
 O249 O 1.30413 1.24996 0.77934
 O250 O 1.25348 1.30179 0.77855
 O251 O 1.24822 1.20189 0.77954
 O252 O 1.19956 1.25185 0.77956
 Zr253 Zr 1.24956 1.24918 0.69250
 Zr254 Zr 1.29874 1.20135 0.75010
 Zr255 Zr 1.20313 1.30022 0.74944
 Zr256 Zr 1.30381 1.29842 0.74982
 O257 O 1.14094 1.29743 0.74838
 O258 O 1.36503 1.28687 0.74908
 O259 O 1.25358 1.30010 0.71968
 O260 O 1.30172 1.24986 0.72033
 O261 O 1.24835 1.19929 0.72058
 O262 O 1.19814 1.25159 0.72061
 C263 C 1.31770 1.30953 0.82514
 C264 C 1.18883 1.31276 0.82425
 C265 C 1.31467 1.19090 0.82497
 O266 O 1.36087 1.20412 0.74760
 O267 O 1.31795 1.17772 0.70546
 O268 O 1.28461 1.21057 0.66587
 C269 C 1.30936 1.18523 0.67544
 O270 O 1.17119 1.18365 0.79381
 Zr271 Zr 1.19807 1.20311 0.74976
 O272 O 1.21172 1.21417 0.66517
 O273 O 1.29150 1.14171 0.75287
 O274 O 1.20561 1.14331 0.75130
 O275 O 1.13643 1.21219 0.74768
 O276 O 1.17821 1.18110 0.70455
 C277 C 1.18661 1.18908 0.67456
 O278 O 1.28212 1.27675 0.65505
 O279 O 1.21012 1.35999 0.75020
 O280 O 1.21478 1.28762 0.66527
 O281 O 1.18464 1.32374 0.70447
 O282 O 1.29860 1.35846 0.75116
 O283 O 1.32652 1.32251 0.70584
 C284 C 1.19200 1.31480 0.67451
 H285 H 1.25388 1.32534 0.79181
 H286 H 1.32523 1.24943 0.70599
 H287 H 1.17395 1.25269 0.70712
 H288 H 1.24703 1.17933 0.79405
 H289 H 1.37889 1.31075 0.75481
 H290 H 1.37063 1.17762 0.74883
 H291 H 1.31820 1.13046 0.75193
 H292 H 1.17998 1.13155 0.74571
 H293 H 1.32491 1.36894 0.75648
 H294 H 1.18333 1.37107 0.75100
 H295 H 1.13130 1.32397 0.74739
 H296 H 1.12389 1.18744 0.74260
 H297 H 1.34950 1.33873 0.71107
 H298 H 1.27188 1.26751 0.63370
 H299 H 1.23121 1.23224 0.86568
 H300 H 1.15277 1.16265 0.78873
 Zr301 Zr 0.74792 0.74806 0.80720
 O302 O 0.77903 0.77779 0.84416
 O303 O 0.70989 0.71387 0.83500
 O304 O 0.71026 0.78408 0.83418
 O305 O 0.82003 0.68007 0.79481
 O306 O 0.67827 0.81846 0.79480
 O307 O 0.78522 0.71179 0.83420
 O308 O 0.67309 0.68361 0.79608
 O309 O 0.69601 0.75012 0.77962
 O310 O 0.74668 0.69831 0.77918
 O311 O 0.75188 0.79824 0.77931
 O312 O 0.80057 0.74827 0.77963
 Zr313 Zr 0.75043 0.75020 0.69269
 Zr314 Zr 0.70131 0.79850 0.74999
 Zr315 Zr 0.79698 0.69964 0.74993
 Zr316 Zr 0.69632 0.70142 0.75052
 O317 O 0.85917 0.70242 0.74873
 O318 O 0.63507 0.71287 0.74971
 O319 O 0.74649 0.69948 0.72028
 O320 O 0.69832 0.74975 0.72064
 O321 O 0.75165 0.80032 0.72033
 O322 O 0.80188 0.74806 0.72070
 C323 C 0.68246 0.69110 0.82595
 C324 C 0.81143 0.68777 0.82480
 C325 C 0.68548 0.80953 0.82481
 O326 O 0.63918 0.79568 0.74768
 O327 O 0.68201 0.82170 0.70519
 O328 O 0.71530 0.78854 0.66580
 C329 C 0.69053 0.81393 0.67521
 O330 O 0.82890 0.81660 0.79327
 Zr331 Zr 0.80198 0.79678 0.74944
 O332 O 0.78819 0.78497 0.66497
 O333 O 0.70852 0.85817 0.75220
 O334 O 0.79439 0.85658 0.75043
 O335 O 0.86362 0.78775 0.74733
 O336 O 0.82178 0.81834 0.70401
 C337 C 0.81334 0.81010 0.67410
 O338 O 0.71783 0.72226 0.65557
 O339 O 0.78997 0.63989 0.75119
 O340 O 0.78526 0.71164 0.66568
 O341 O 0.81552 0.67584 0.70510
 O342 O 0.70153 0.64140 0.75249
 O343 O 0.67364 0.67691 0.70679
 C344 C 0.80814 0.68458 0.67508
 H345 H 0.74630 0.67488 0.79265
 H346 H 0.67478 0.75004 0.70634
 H347 H 0.82607 0.74687 0.70719
 H348 H 0.75308 0.82092 0.79363
 H349 H 0.62125 0.68903 0.75568
 H350 H 0.62941 0.82218 0.74867
 H351 H 0.68181 0.86938 0.75124
 H352 H 0.82002 0.86829 0.74467
 H353 H 0.67521 0.63099 0.75795
 H354 H 0.81676 0.62882 0.75204
 H355 H 0.86881 0.67587 0.74797
 H356 H 0.87613 0.81247 0.74203
 H357 H 0.65071 0.66067 0.71219
 H358 H 0.72801 0.73133 0.63411
 H359 H 0.76908 0.76860 0.86565
 H360 H 0.84722 0.83763 0.78798
 Zr361 Zr 1.25236 0.74783 0.19302
 O362 O 1.22141 0.77748 0.15588
 O363 O 1.29035 0.71348 0.16544
 O364 O 1.29015 0.78370 0.16593
 O365 O 1.18006 0.67993 0.20557
 O366 O 1.32213 0.81821 0.20518
 O367 O 1.21509 0.71150 0.16611
 O368 O 1.32694 0.68326 0.20456
 O369 O 1.30421 0.74997 0.22066
 O370 O 1.25340 0.69818 0.22128
 O371 O 1.24845 0.79812 0.22066
 O372 O 1.19963 0.74822 0.22048
 Zr373 Zr 1.24959 0.75041 0.30748
 Zr374 Zr 1.29897 0.79846 0.25006
 Zr375 Zr 1.20302 0.69968 0.25041
 Zr376 Zr 1.30372 0.70137 0.24999
 O377 O 1.14084 0.70254 0.25151
 O378 O 1.36498 0.71283 0.25076
 O379 O 1.25346 0.69961 0.28014
 O380 O 1.30178 0.74980 0.27964
 O381 O 1.24855 0.80045 0.27961
 O382 O 1.19818 0.74820 0.27941
 C383 C 1.31766 0.69065 0.17463
 C384 C 1.18880 0.68751 0.17555
 C385 C 1.31494 0.80916 0.17521
 O386 O 1.36109 0.79563 0.25251
 O387 O 1.31820 0.82183 0.29479
 O388 O 1.28469 0.78883 0.33425
 C389 C 1.30954 0.81417 0.32479
 O390 O 1.17151 0.81655 0.20650
 Zr391 Zr 1.19828 0.79683 0.25046
 O392 O 1.21186 0.78530 0.33500
 O393 O 1.29194 0.85812 0.24748
 O394 O 1.20603 0.85662 0.24914
 O395 O 1.13661 0.78783 0.25254
 O396 O 1.17844 0.81860 0.29578
 C397 C 1.18681 0.81045 0.32574
 O398 O 1.28207 0.72258 0.34478
 O399 O 1.20980 0.63991 0.24946
 O400 O 1.21469 0.71196 0.33461
 O401 O 1.18443 0.67604 0.29533
 O402 O 1.29835 0.64134 0.24841
 O403 O 1.32627 0.67703 0.29389
 C404 C 1.19182 0.68488 0.32531
 H405 H 1.25375 0.67471 0.20794
 H406 H 1.32528 0.75013 0.29398
 H407 H 1.17398 0.74707 0.29291
 H408 H 1.24735 0.82074 0.20622
 H409 H 1.37877 0.68896 0.24495
 H410 H 1.37092 0.82212 0.25137
 H411 H 1.31868 0.86932 0.24846
 H412 H 1.18043 0.86838 0.25482
 H413 H 1.32465 0.63088 0.24306
 H414 H 1.18298 0.62888 0.24865
 H415 H 1.13112 0.67600 0.25241
 H416 H 1.12415 0.81257 0.25771
 H417 H 1.34922 0.66083 0.28861
 H418 H 1.27188 0.73172 0.36618
 H419 H 1.23137 0.76822 0.13444
 H420 H 1.15317 0.83756 0.21167
 Zr421 Zr 0.74832 1.25222 0.19267
 O422 O 0.77920 1.22301 0.15527
 O423 O 0.71025 1.28688 0.16536
 O424 O 0.71053 1.21646 0.16548
 O425 O 0.82077 1.31995 0.20556
 O426 O 0.67861 1.18156 0.20464
 O427 O 0.78575 1.28885 0.16593
 O428 O 0.67372 1.31668 0.20472
 O429 O 0.69649 1.24977 0.22041
 O430 O 0.74732 1.30155 0.22122
 O431 O 0.75222 1.20165 0.22010
 O432 O 0.80104 1.25150 0.22011
 Zr433 Zr 0.75113 1.24837 0.30725
 Zr434 Zr 0.70172 1.20098 0.24959
 Zr435 Zr 0.79770 1.29971 0.25031
 Zr436 Zr 0.69702 1.29806 0.25001
 O437 O 0.85988 1.29680 0.25132
 O438 O 0.63575 1.28662 0.25082
 O439 O 0.74728 1.29946 0.28013
 O440 O 0.69896 1.24932 0.27943
 O441 O 0.75214 1.19864 0.27909
 O442 O 0.80251 1.25090 0.27908
 C443 C 0.68293 1.30962 0.17473
 C444 C 0.81210 1.31271 0.17549
 C445 C 0.68578 1.19085 0.17468
 O446 O 0.63960 1.20387 0.25203
 O447 O 0.68230 1.17717 0.29421
 O448 O 0.71585 1.20967 0.33384
 C449 C 0.69091 1.18447 0.32427
 O450 O 0.82911 1.18324 0.20576
 Zr451 Zr 0.80240 1.20258 0.24985
 O452 O 0.78895 1.21317 0.33448
 O453 O 0.70878 1.14134 0.24679
 O454 O 0.79460 1.14281 0.24829
 O455 O 0.86407 1.21161 0.25181
 O456 O 0.82238 1.18036 0.29501
 C457 C 0.81406 1.18817 0.32504
 O458 O 0.71875 1.27577 0.34480
 O459 O 0.79088 1.35949 0.24968
 O460 O 0.78609 1.28664 0.33450
 O461 O 0.81633 1.32293 0.29533
 O462 O 0.70248 1.35810 0.24875
 O463 O 0.67449 1.32196 0.29405
 C464 C 0.80898 1.31384 0.32529
 H465 H 0.74699 1.32516 0.20800
 H466 H 0.67545 1.24886 0.29378
 H467 H 0.82673 1.25190 0.29254
 H468 H 0.75333 1.17917 0.20556
 H469 H 0.62197 1.31056 0.24518
 H470 H 0.62973 1.17740 0.25076
 H471 H 0.68204 1.13012 0.24771
 H472 H 0.82020 1.13098 0.25386
 H473 H 0.67620 1.36866 0.24348
 H474 H 0.81770 1.37054 0.24888
 H475 H 0.86962 1.32333 0.25238
 H476 H 0.87656 1.18684 0.25684
 H477 H 0.65157 1.33826 0.28888
 H478 H 0.72900 1.26637 0.36612
 H479 H 0.76920 1.23255 0.13392
 H480 H 0.84746 1.16219 0.21081
 N481 N 0.57004 1.04003 0.03537
 N482 N 0.59769 1.06514 0.04253
 N483 N 0.54255 0.96018 0.05811
 N484 N 0.55128 0.93574 0.08160
 N485 N 0.56995 0.96013 0.03535
 N486 N 0.59805 0.93568 0.04278
 N487 N 0.54247 1.04007 0.05799
 N488 N 0.55058 1.06517 0.08106
 C489 C 0.58469 1.08097 0.07077
 C490 C 0.58551 0.92026 0.07133
 N491 N 0.43005 0.96006 0.03558
 N492 N 0.40254 0.93481 0.04278
 N493 N 0.45752 1.03993 0.05812
 N494 N 0.44871 1.06421 0.08166
 N495 N 0.43004 1.03993 0.03543
 N496 N 0.40183 1.06420 0.04300
 N497 N 0.45767 0.96007 0.05814
 N498 N 0.44972 0.93485 0.08121
 Mn499 Mn 0.50005 1.00007 0.05833
 C500 C 0.41569 0.91895 0.07098
 C501 C 0.41436 1.07957 0.07152
 N502 N 0.56983 0.95997 -0.03559
 N503 N 0.59746 0.93492 -0.04287
 N504 N 0.54251 1.03985 -0.05824
 N505 N 0.55116 1.06447 -0.08162
 N506 N 0.56994 1.03984 -0.03553
 N507 N 0.59798 1.06443 -0.04289
 N508 N 0.54222 0.95998 -0.05815
 N509 N 0.55029 0.93497 -0.08130
 Mn510 Mn 0.57028 0.99999 -0.00010
 C511 C 0.58439 0.91917 -0.07112
 C512 C 0.58538 1.07998 -0.07134
 N513 N 0.43003 1.04008 -0.03551
 N514 N 0.40250 1.06527 -0.04269
 N515 N 0.45724 0.96016 -0.05811
 N516 N 0.44835 0.93580 -0.08158
 N517 N 0.42984 0.96018 -0.03534
 N518 N 0.40159 0.93586 -0.04277
 N519 N 0.45759 1.04005 -0.05815
 N520 N 0.44958 1.06519 -0.08126
 Mn521 Mn 0.42966 1.00007 0.00004
 Mn522 Mn 0.49989 1.00001 -0.05840
 Cl523 Cl 0.49997 1.00003 -0.00004
 C524 C 0.41556 1.08107 -0.07097
 C525 C 0.41402 0.92043 -0.07130
 N526 N 0.95916 0.45857 0.55826
 N527 N 0.93420 0.44960 0.58187
 N528 N 1.04182 0.43272 0.53532
 N529 N 1.06758 0.40588 0.54254
 N530 N 1.04182 0.45922 0.55802
 N531 N 1.06757 0.45110 0.58123
 N532 N 0.95921 0.43226 0.53541
 N533 N 0.93433 0.40476 0.54286
 C534 C 0.91847 0.41643 0.57150
 C535 C 1.08384 0.41819 0.57087
 N536 N 1.04123 0.45902 0.44167
 N537 N 1.06597 0.45017 0.41789
 N538 N 0.95879 0.43226 0.46465
 N539 N 0.93335 0.40511 0.45740
 N540 N 0.95854 0.45881 0.44193
 N541 N 0.93293 0.45042 0.41868
 N542 N 1.04144 0.43267 0.46455
 N543 N 1.06630 0.40525 0.45694
 Mn544 Mn 1.00032 0.43220 0.49999
 C545 C 1.08188 0.41703 0.42817
 C546 C 0.91701 0.41729 0.42903
 N547 N 1.04123 0.54138 0.55808
 N548 N 1.06590 0.55065 0.58179
 N549 N 0.95835 0.56719 0.53552
 N550 N 0.93262 0.59399 0.54287
 N551 N 0.95854 0.54065 0.55825
 N552 N 0.93296 0.54871 0.58162
 N553 N 1.04099 0.56773 0.53519
 N554 N 1.06546 0.59554 0.54274
 Mn555 Mn 1.00020 0.49995 0.55842
 C556 C 1.08130 0.58403 0.57146
 C557 C 0.91657 0.58162 0.57133
 N558 N 0.95834 0.54092 0.44189
 N559 N 0.93357 0.54988 0.41817
 N560 N 1.04091 0.56759 0.46443
 N561 N 1.06673 0.59444 0.45727
 N562 N 1.04100 0.54108 0.44176
 N563 N 1.06687 0.54917 0.41861
 N564 N 0.95829 0.56725 0.46472
 N565 N 0.93351 0.59475 0.45713
 Mn566 Mn 0.99977 0.49997 0.44156
 Mn567 Mn 0.99963 0.56772 0.49996
 Cl568 Cl 0.99998 0.49996 0.49998
 C569 C 0.91779 0.58305 0.42845
 C570 C 1.08309 0.58210 0.42898
 N571 N 0.95992 0.54212 -0.05876
 N572 N 0.93463 0.55078 -0.08216
 N573 N 1.04280 0.56839 -0.03637
 N574 N 1.06785 0.59573 -0.04425
 N575 N 1.04266 0.54183 -0.05902
 N576 N 1.06761 0.55043 -0.08280
 N577 N 0.96008 0.56852 -0.03598
 N578 N 0.93493 0.59581 -0.04330
 C579 C 0.91883 0.58389 -0.07179
 C580 C 1.08362 0.58370 -0.07292
 N581 N 1.04245 0.54159 0.05745
 N582 N 1.06738 0.55024 0.08112
 N583 N 0.95995 0.56847 0.03493
 N584 N 0.93457 0.59558 0.04243
 N585 N 0.95976 0.54181 0.05757
 N586 N 0.93428 0.55009 0.08097
 N587 N 1.04264 0.56807 0.03466
 N588 N 1.06766 0.59540 0.04228
 Mn589 Mn 1.00138 0.56865 -0.00068
 C590 C 1.08336 0.58339 0.07092
 C591 C 0.91834 0.58328 0.07086
 N592 N 1.04204 0.45960 -0.05880
 N593 N 1.06708 0.45084 -0.08237
 N594 N 0.95918 0.43341 -0.03610
 N595 N 0.93362 0.40643 -0.04357
 N596 N 0.95933 0.46000 -0.05879
 N597 N 0.93387 0.45179 -0.08222
 N598 N 1.04186 0.43313 -0.03601
 N599 N 1.06676 0.40570 -0.04351
 Mn600 Mn 1.00099 0.50088 -0.05907
 C601 C 1.08275 0.41760 -0.07209
 C602 C 0.91760 0.41873 -0.07205
 N603 N 0.95945 0.45965 0.05764
 N604 N 0.93467 0.45080 0.08143
 N605 N 1.04202 0.43294 0.03490
 N606 N 1.06729 0.40573 0.04240
 N607 N 1.04219 0.45949 0.05755
 N608 N 1.06756 0.45104 0.08098
 N609 N 0.95930 0.43324 0.03487
 N610 N 0.93444 0.40577 0.04262
 Mn611 Mn 1.00096 0.50065 0.05778
 Mn612 Mn 1.00059 0.43290 -0.00059
 Cl613 Cl 1.00099 0.50077 -0.00065
 C614 C 0.91879 0.41758 0.07133
 C615 C 1.08346 0.41787 0.07086
 N616 N 0.56923 1.03930 0.53592
 N617 N 0.59690 1.06434 0.54318
 N618 N 0.54205 0.95927 0.55852
 N619 N 0.55097 0.93483 0.58195
 N620 N 0.56943 0.95947 0.53573
 N621 N 0.59768 0.93518 0.54308
 N622 N 0.54172 1.03912 0.55861
 N623 N 0.54991 1.06403 0.58182
 C624 C 0.58397 1.07993 0.57153
 C625 C 0.58528 0.91960 0.57159
 N626 N 0.42940 0.95882 0.53624
 N627 N 0.40132 0.93430 0.54393
 N628 N 0.45677 1.03871 0.55878
 N629 N 0.44797 1.06307 0.58226
 N630 N 0.42934 1.03870 0.53607
 N631 N 0.40117 1.06303 0.54352
 N632 N 0.45701 0.95882 0.55882
 N633 N 0.44845 0.93432 0.58236
 Mn634 Mn 0.49940 0.99897 0.55892
 C635 C 0.41408 0.91879 0.57242
 C636 C 0.41367 1.07843 0.57202
 N637 N 0.56939 0.95950 0.46486
 N638 N 0.59718 0.93465 0.45750
 N639 N 0.54188 1.03935 0.44227
 N640 N 0.55095 1.06336 0.41851
 N641 N 0.56932 1.03938 0.46498
 N642 N 0.59776 1.06339 0.45721
 N643 N 0.54179 0.95946 0.44229
 N644 N 0.55003 0.93462 0.41905
 Mn645 Mn 0.56966 0.99942 0.50039
 C646 C 0.58423 0.91896 0.42919
 C647 C 0.58541 1.07861 0.42854
 N648 N 0.42934 1.03906 0.46518
 N649 N 0.40164 1.06408 0.45798
 N650 N 0.45688 0.95940 0.44248
 N651 N 0.44806 0.93516 0.41892
 N652 N 0.42948 0.95921 0.46526
 N653 N 0.40130 0.93488 0.45775
 N654 N 0.45692 1.03923 0.44255
 N655 N 0.44876 1.06434 0.41945
 Mn656 Mn 0.42907 0.99894 0.50068
 Mn657 Mn 0.49935 0.99936 0.44217
 Cl658 Cl 0.49937 0.99917 0.50054
 C659 C 0.41463 1.08000 0.42973
 C660 C 0.41380 0.91965 0.42917
 N661 N 1.07054 1.03896 0.53599
 N662 N 1.09817 1.06406 0.54308
 N663 N 1.04247 0.95920 0.55867
 N664 N 1.05022 0.93409 0.58184
 N665 N 1.07019 0.95909 0.53618
 N666 N 1.09762 0.93386 0.54354
 N667 N 1.04293 1.03904 0.55857
 N668 N 1.05099 1.06420 0.58158
 C669 C 1.08509 1.07993 0.57123
 C670 C 1.08426 0.91812 0.57175
 N671 N 0.93035 0.95972 0.53559
 N672 N 0.90273 0.93451 0.54246
 N673 N 0.95820 1.03942 0.55830
 N674 N 0.95045 1.06480 0.58119
 N675 N 0.93071 1.03957 0.53565
 N676 N 0.90344 1.06508 0.54260
 N677 N 0.95773 0.95960 0.55833
 N678 N 0.94952 0.93430 0.58125
 Mn679 Mn 1.00032 0.99932 0.55873
 C680 C 0.91558 0.91854 0.57066
 C681 C 0.91665 1.08093 0.57074
 N682 N 1.07048 0.95922 0.46528
 N683 N 1.09809 0.93414 0.45817
 N684 N 1.04324 1.03918 0.44257
 N685 N 1.05088 1.06491 0.41988
 N686 N 1.07076 1.03908 0.46519
 N687 N 1.09797 1.06478 0.45843
 N688 N 1.04307 0.95937 0.44256
 N689 N 1.05125 0.93439 0.41945
 Mn690 Mn 1.07089 0.99908 0.50065
 C691 C 1.08519 0.91850 0.42987
 C692 C 1.08468 1.08097 0.43042
 N693 N 0.93094 1.03954 0.46479
 N694 N 0.90327 1.06446 0.45741
 N695 N 0.95836 0.95958 0.44233
 N696 N 0.95063 0.93420 0.41943
 N697 N 0.93064 0.95967 0.46481
 N698 N 0.90322 0.93432 0.45774
 N699 N 0.95854 1.03942 0.44220
 N700 N 0.95041 1.06427 0.41890
 Mn701 Mn 0.93027 0.99963 0.50022
 Mn702 Mn 1.00081 0.99939 0.44216
 Cl703 Cl 1.00058 0.99935 0.50044
 C704 C 0.91631 1.08006 0.42908
 C705 C 0.91658 0.91832 0.42970
 N706 N 0.56962 0.53969 0.03537
 N707 N 0.59723 0.56478 0.04248
 N708 N 0.54167 0.45990 0.05778
 N709 N 0.54913 0.43428 0.08057
 N710 N 0.56932 0.45990 0.03525
 N711 N 0.59646 0.43426 0.04218
 N712 N 0.54206 0.53966 0.05796
 N713 N 0.55010 0.56473 0.08103
 C714 C 0.58414 0.58053 0.07067
 C715 C 0.58295 0.41819 0.07017
 N716 N 0.42965 0.46031 0.03503
 N717 N 0.40214 0.43501 0.04192
 N718 N 0.45752 0.53991 0.05779
 N719 N 0.45024 0.56564 0.08045
 N720 N 0.42994 0.54009 0.03523
 N721 N 0.40303 0.56599 0.04199
 N722 N 0.45714 0.46018 0.05767
 N723 N 0.44916 0.43477 0.08053
 Mn724 Mn 0.49958 0.49991 0.05808
 C725 C 0.41523 0.41897 0.07001
 C726 C 0.41661 0.58199 0.06994
 N727 N 0.56948 0.46034 -0.03548
 N728 N 0.59701 0.43521 -0.04262
 N729 N 0.54201 0.54027 -0.05783
 N730 N 0.54932 0.56636 -0.08025
 N731 N 0.56959 0.54011 -0.03528
 N732 N 0.59654 0.56612 -0.04179
 N733 N 0.54202 0.46054 -0.05813
 N734 N 0.55005 0.43555 -0.08126
 Mn735 Mn 0.56993 0.50000 -0.00004
 C736 C 0.58397 0.41962 -0.07088
 C737 C 0.58297 0.58254 -0.06957
 N738 N 0.42989 0.54032 -0.03550
 N739 N 0.40218 0.56525 -0.04276
 N740 N 0.45750 0.46061 -0.05816
 N741 N 0.45022 0.43485 -0.08081
 N742 N 0.42983 0.46052 -0.03565
 N743 N 0.40284 0.43467 -0.04244
 N744 N 0.45747 0.54036 -0.05810
 N745 N 0.44932 0.56532 -0.08129
 Mn746 Mn 0.42940 0.50031 -0.00022
 Mn747 Mn 0.49976 0.50045 -0.05834
 Cl748 Cl 0.49966 0.50017 -0.00013
 C749 C 0.41522 0.58100 -0.07102
 C750 C 0.41647 0.41861 -0.07034
 C751 C 0.33087 1.16494 0.15094
 C752 C 0.34916 1.14659 0.13118
 C753 C 0.37150 1.12433 0.10921
 C754 C 0.39099 1.10447 0.09144
 C755 C 0.82811 0.66289 0.65034
 C756 C 0.84634 0.64437 0.63062
 C757 C 0.86927 0.62249 0.60874
 C758 C 0.89015 0.60379 0.59109
 C759 C 0.66889 0.83432 0.15042
 C760 C 0.65058 0.85272 0.13069
 C761 C 0.62826 0.87511 0.10880
 C762 C 0.60880 0.89513 0.09113
 C763 C 1.17214 0.33647 0.64967
 C764 C 1.15399 0.35505 0.62993
 C765 C 1.13113 0.37707 0.60810
 C766 C 1.11028 0.39591 0.59052
 C767 C 0.66885 1.16616 -0.15021
 C768 C 0.65050 1.14779 -0.13047
 C769 C 0.62812 1.12537 -0.10864
 C770 C 0.60863 1.10525 -0.09105
 C771 C 1.17186 0.66326 0.35011
 C772 C 1.15363 0.64480 0.36990
 C773 C 1.13066 0.62298 0.39180
 C774 C 1.10969 0.60429 0.40940
 C775 C 0.33012 0.83471 -0.15025
 C776 C 0.34852 0.85303 -0.13052
 C777 C 0.37099 0.87538 -0.10868
 C778 C 0.39058 0.89536 -0.09107
 C779 C 0.82893 0.33537 0.35016
 C780 C 0.84712 0.35388 0.36992
 C781 C 0.86996 0.37590 0.39178
 C782 C 0.89073 0.39480 0.40938
 C783 C 1.17175 0.33647 0.15039
 C784 C 1.15340 0.35484 0.13056
 C785 C 1.13043 0.37666 0.10852
 C786 C 1.10966 0.39541 0.09074
 C787 C 0.66993 0.83493 0.65049
 C788 C 0.65138 0.85306 0.63079
 C789 C 0.62868 0.87507 0.60896
 C790 C 0.60888 0.89479 0.59134
 C791 C 1.17155 0.66550 -0.15324
 C792 C 1.15316 0.64703 -0.13336
 C793 C 1.13022 0.62511 -0.11115
 C794 C 1.10957 0.60628 -0.09317
 C795 C 0.67020 1.16314 0.34889
 C796 C 0.65161 1.14486 0.36860
 C797 C 0.62890 1.12280 0.39057
 C798 C 0.60910 1.10318 0.40841
 C799 C 0.82899 0.66362 0.15035
 C800 C 0.84761 0.64549 0.13054
 C801 C 0.87088 0.62400 0.10849
 C802 C 0.89189 0.60550 0.09071
 C803 C 0.32982 1.16392 0.65084
 C804 C 0.34821 1.14554 0.63121
 C805 C 0.37068 1.12327 0.60942
 C806 C 0.39028 1.10338 0.59180
 C807 C 0.82850 0.33756 -0.15110
 C808 C 0.84702 0.35601 -0.13145
 C809 C 0.87020 0.37782 -0.10958
 C810 C 0.89117 0.39649 -0.09190
 C811 C 0.33000 0.83526 0.34950
 C812 C 0.34834 0.85339 0.36933
 C813 C 0.37076 0.87532 0.39139
 C814 C 0.39035 0.89495 0.40922
 C815 C 1.16304 1.17089 0.35128
 C816 C 1.14541 1.15239 0.37137
 C817 C 1.12463 1.12908 0.39359
 C818 C 1.10660 1.10782 0.41124
 C819 C 0.66129 0.67139 -0.14898
 C820 C 0.64356 0.65336 -0.12873
 C821 C 0.62274 0.63050 -0.10636
 C822 C 0.60474 0.60940 -0.08866
 C823 C 0.83735 1.17009 0.64980
 C824 C 0.85523 1.15162 0.62988
 C825 C 0.87633 1.12848 0.60778
 C826 C 0.89458 1.10745 0.59011
 C827 C 0.33876 0.67074 0.14965
 C828 C 0.35639 0.65261 0.12944
 C829 C 0.37706 0.62972 0.10704
 C830 C 0.39495 0.60869 0.08923
 C831 C 1.16352 0.82994 0.65201
 C832 C 1.14567 0.84827 0.63189
 C833 C 1.12461 0.87117 0.60949
 C834 C 1.10637 0.89194 0.59153
 C835 C 0.66168 0.32973 0.14989
 C836 C 0.64387 0.34793 0.12978
 C837 C 0.62294 0.37079 0.10743
 C838 C 0.60484 0.39169 0.08960
 C839 C 0.83735 0.82952 0.35031
 C840 C 0.85520 0.84790 0.37031
 C841 C 0.87626 0.87095 0.39251
 C842 C 0.89450 0.89190 0.41025
 C843 C 0.33879 0.32957 -0.14996
 C844 C 0.35637 0.34780 -0.12979
 C845 C 0.37698 0.37078 -0.10741
 C846 C 0.39483 0.39186 -0.08962
 C847 C 1.16803 0.33377 -0.15116
 C848 C 1.14996 0.35243 -0.13152
 C849 C 1.12787 0.37502 -0.10971
 C850 C 1.10795 0.39454 -0.09203
 C851 C 0.66537 0.83111 0.34983
 C852 C 0.64719 0.84951 0.36969
 C853 C 0.62555 0.87240 0.39176
 C854 C 0.60683 0.89304 0.40950
 C855 C 0.83236 0.66704 -0.15051
 C856 C 0.85064 0.64857 -0.13086
 C857 C 0.87304 0.62617 -0.10911
 C858 C 0.89326 0.60680 -0.09154
 C859 C 0.33432 1.16867 0.35041
 C860 C 0.35227 1.15014 0.37034
 C861 C 0.37362 1.12704 0.39245
 C862 C 0.39216 1.10619 0.41018
 C863 C 1.16806 0.66665 0.15085
 C864 C 1.15010 0.64815 0.13103
 C865 C 1.12819 0.62575 0.10896
 C866 C 1.10843 0.60636 0.09106
 C867 C 0.66520 1.16822 0.65046
 C868 C 0.64696 1.14972 0.63071
 C869 C 0.62527 1.12672 0.60877
 C870 C 0.60653 1.10598 0.59113
 C871 C 0.83310 0.33378 0.15088
 C872 C 0.85136 0.35245 0.13122
 C873 C 0.87362 0.37502 0.10931
 C874 C 0.89360 0.39450 0.09150
 C875 C 0.33193 0.83166 0.65252
 C876 C 0.35027 0.85002 0.63259
 C877 C 0.37218 0.87278 0.61037
 C878 C 0.39115 0.89320 0.59244
 C879 C 0.33564 1.17028 -0.15011
 C880 C 0.35354 1.15166 -0.13022
 C881 C 0.37482 1.12842 -0.10816
 C882 C 0.39326 1.10743 -0.09049
 C883 C 0.83416 0.66853 0.34934
 C884 C 0.85192 0.64951 0.36894
 C885 C 0.87355 0.62639 0.39069
 C886 C 0.89305 0.60645 0.40837
 C887 C 0.66479 1.17025 0.14976
 C888 C 0.64688 1.15160 0.12989
 C889 C 0.62557 1.12833 0.10788
 C890 C 0.60708 1.10732 0.09025
 C891 C 1.16479 0.67037 0.65005
 C892 C 1.14702 0.65123 0.63053
 C893 C 1.12539 0.62788 0.60895
 C894 C 1.10593 0.60771 0.59143
 C895 C 0.66448 0.83026 -0.15037
 C896 C 0.64656 0.84890 -0.13051
 C897 C 0.62525 0.87208 -0.10844
 C898 C 0.60677 0.89297 -0.09073
 C899 C 1.16617 0.33186 0.34935
 C900 C 1.14828 0.35087 0.36886
 C901 C 1.12645 0.37393 0.39051
 C902 C 1.10679 0.39378 0.40812
 C903 C 0.33595 0.82979 0.15033
 C904 C 0.35382 0.84839 0.13039
 C905 C 0.37504 0.87159 0.10826
 C906 C 0.39343 0.89258 0.09053
 C907 C 0.83404 0.33101 0.65010
 C908 C 0.85191 0.35000 0.63053
 C909 C 0.87375 0.37311 0.60891
 C910 C 0.89346 0.39306 0.59139
 C911 C 1.16595 1.16820 0.64982
 C912 C 1.14797 1.14965 0.63005
 C913 C 1.12637 1.12671 0.60818
 C914 C 1.10761 1.10599 0.59064
 C915 C 0.66505 0.66746 0.14997
 C916 C 0.64708 0.64923 0.13003
 C917 C 0.62549 0.62671 0.10793
 C918 C 0.60671 0.60630 0.09021
 C919 C 1.16617 0.83115 0.35061
 C920 C 1.14821 0.84950 0.37054
 C921 C 1.12662 0.87217 0.39262
 C922 C 1.10782 0.89267 0.41032
 C923 C 0.66477 0.33291 -0.15043
 C924 C 0.64682 0.35112 -0.13047
 C925 C 0.62527 0.37357 -0.10829
 C926 C 0.60652 0.39391 -0.09050
 C927 C 0.83488 1.16730 0.34975
 C928 C 0.85301 1.14888 0.36957
 C929 C 0.87478 1.12620 0.39160
 C930 C 0.89367 1.10576 0.40933
 C931 C 0.33396 0.66774 -0.15058
 C932 C 0.35199 0.64944 -0.13067
 C933 C 0.37367 0.62694 -0.10852
 C934 C 0.39253 0.60662 -0.09072
 C935 C 0.83405 0.83068 0.64918
 C936 C 0.85215 0.84902 0.62932
 C937 C 0.87394 0.87180 0.60742
 C938 C 0.89289 0.89246 0.58994
 C939 C 0.33488 0.33167 0.14952
 C940 C 0.35268 0.34987 0.12941
 C941 C 0.37406 0.37243 0.10716
 C942 C 0.39272 0.39297 0.08942
   
