data_POSCAR
  _audit_creation_date              2014-09-24
  _audit_creation_method            'ToBaCCo'
  _symmetry_space_group_name_H-M    'P1'
  _symmetry_Int_Tables_number       1
  _symmetry_cell_setting            triclinic
  loop_
  _symmetry_equiv_pos_as_xyz
 x,y,z
_cell_length_a 39.9377
_cell_length_b 40.1222
_cell_length_c 76.6471
_cell_angle_alpha 89.681100
_cell_angle_beta 90.143500
_cell_angle_gamma 121.035600
loop_
  _atom_site_label
  _atom_site_type_symbol
  _atom_site_fract_x
  _atom_site_fract_y
  _atom_site_fract_z
C1 C 0.01359 0.06065 0.52691
 H2 H 0.03959 0.05880 0.52586
 C3 C 0.01420 0.08981 0.53697
 H4 H 0.04066 0.10983 0.54392
 C5 C -0.05229 0.03677 0.51892
 H6 H -0.07782 0.01660 0.51153
 C7 C -0.05291 0.06566 0.52879
 H8 H -0.07909 0.06737 0.52886
 N9 N -0.01932 0.03483 0.51818
 C10 C -0.00721 -0.06523 0.50812
 H11 H -0.01132 -0.06748 0.49412
 C12 C -0.00437 -0.09385 0.51728
 H13 H -0.00653 -0.11813 0.51018
 C14 C -0.00212 -0.03207 0.53437
 H15 H -0.00220 -0.00850 0.54106
 C16 C 0.00118 -0.05984 0.54404
 H17 H 0.00465 -0.05661 0.55805
 Zn18 Zn -0.01552 -0.00082 0.50351
 N19 N -0.00623 -0.03523 0.51674
 C20 C 0.05655 0.02363 0.48576
 N21 N 0.02596 0.02917 0.48787
 C22 C 0.02479 0.05850 0.47951
 C23 C 0.05531 0.08396 0.46859
 C24 C 0.08763 0.04827 0.47478
 C25 C -0.09473 -0.05722 0.50026
 C26 C -0.12889 -0.08428 0.49168
 C27 C -0.09619 -0.05812 0.46419
 C28 C -0.06272 -0.03163 0.47336
 N29 N -0.06244 -0.03192 0.49106
 H30 H 0.05713 0.00043 0.49270
 H31 H 0.00036 0.06256 0.48165
 H32 H 0.05418 0.10781 0.46255
 H33 H 0.11156 0.04320 0.47315
 H34 H -0.09369 -0.05684 0.51437
 H35 H -0.15385 -0.10259 0.49981
 H36 H -0.09338 -0.05778 0.45018
 H37 H -0.03641 -0.01191 0.46626
 C38 C -0.00045 -0.09160 0.53553
 C39 C -0.01922 0.09290 0.53787
 C40 C -0.13034 -0.08620 0.47318
 C41 C 0.08744 0.07917 0.46611
 C42 C 1.06188 0.00839 0.13916
 H43 H 1.05956 0.03406 0.13834
 C44 C 1.08997 0.00621 0.12933
 H45 H 1.10864 0.03010 0.12070
 C46 C 1.04011 -0.05375 0.15154
 H47 H 1.02124 -0.07657 0.16055
 C48 C 1.06810 -0.05706 0.14200
 H49 H 1.07040 -0.08259 0.14375
 N50 N 1.03763 -0.02130 0.14995
 C51 C 0.94673 0.00664 0.15732
 H52 H 0.94825 0.01059 0.17131
 C53 C 0.91935 0.01056 0.14758
 H54 H 0.89981 0.01757 0.15417
 C55 C 0.96902 -0.00938 0.13189
 H56 H 0.98772 -0.01813 0.12589
 C57 C 0.94181 -0.00614 0.12168
 H58 H 0.94041 -0.01161 0.10780
 Zn59 Zn 1.00392 -0.01230 0.16372
 N60 N 0.97095 -0.00301 0.14937
 C61 C 1.03909 0.06621 0.17552
 N62 N 1.03677 0.03140 0.17762
 C63 C 1.06065 0.02718 0.18890
 C64 C 1.08807 0.05862 0.19875
 C65 C 1.06643 0.09863 0.18502
 C66 C 0.94677 -0.09012 0.16975
 C67 C 0.91847 -0.12205 0.17925
 C68 C 0.93987 -0.08268 0.20526
 C69 C 0.96792 -0.05157 0.19529
 N70 N 0.97072 -0.05575 0.17785
 H71 H 1.02066 0.06925 0.16609
 H72 H 1.05857 -0.00071 0.19010
 H73 H 1.10640 0.05435 0.20779
 H74 H 1.06863 0.12636 0.18279
 H75 H 0.94911 -0.09241 0.15581
 H76 H 0.89969 -0.14912 0.17253
 H77 H 0.93718 -0.07824 0.21899
 H78 H 0.98627 -0.02368 0.20138
 C79 C 0.91637 0.00370 0.12955
 C80 C 1.09378 -0.02659 0.13083
 C81 C 0.91429 -0.11842 0.19722
 C82 C 1.09165 0.09516 0.19673
 C83 C 0.05143 0.99367 0.85822
 H84 H 0.02313 0.96714 0.85861
 C85 C 0.08185 0.99702 0.86845
 H86 H 0.07637 0.97311 0.87698
 C87 C 0.09248 1.05684 0.84649
 H88 H 0.09655 1.07963 0.83759
 C89 C 0.12401 1.06130 0.85642
 H90 H 0.15224 1.08768 0.85505
 N91 N 0.05719 1.02323 0.84750
 C92 C -0.06384 0.98969 0.83821
 H93 H -0.06598 0.98511 0.82425
 C94 C -0.09592 0.98531 0.84751
 H95 H -0.12215 0.97778 0.84027
 C96 C -0.02535 1.00852 0.86383
 H97 H 0.00244 1.01838 0.87010
 C98 C -0.05638 1.00516 0.87360
 H99 H -0.05192 1.01083 0.88744
 Zn100 Zn 0.01470 1.01231 0.83287
 N101 N -0.02947 1.00104 0.84645
 C102 C -0.02793 0.93419 0.82000
 N103 N 0.00573 0.96944 0.81914
 C104 C 0.03651 0.97483 0.80938
 C105 C 0.03416 0.94423 0.79983
 C106 C -0.03149 0.90261 0.81070
 C107 C 0.03025 1.08744 0.82690
 C108 C 0.03341 1.11858 0.81728
 C109 C 0.02895 1.08409 0.79082
 C110 C 0.02538 1.05340 0.80096
 N111 N 0.02583 1.05550 0.81867
 H112 H -0.05161 0.93016 0.82827
 H113 H 0.06320 1.00299 0.80919
 H114 H 0.05896 0.94940 0.79203
 H115 H -0.05810 0.87453 0.81188
 H116 H 0.02979 1.08803 0.84101
 H117 H 0.03513 1.14289 0.82417
 H118 H 0.02846 1.08174 0.77675
 H119 H 0.02104 1.02749 0.79463
 C120 C -0.09248 0.99391 0.86551
 C121 C 0.11901 1.03085 0.86741
 C122 C 0.03220 1.11697 0.79895
 C123 C -0.00001 0.90736 0.80056
 C124 C 0.50910 -0.00055 0.00645
 C125 C 0.51147 0.00521 -0.01115
 C126 C 0.48323 0.01186 -0.02095
 C127 C 0.54222 0.00401 -0.02144
 C128 C 0.54150 -0.00004 0.01621
 C129 C 0.47486 -0.00667 0.01676
 C130 C 0.46518 -0.00982 -0.03600
 C131 C 0.43766 -0.00479 -0.04501
 C132 C 0.42759 0.02209 -0.03918
 C133 C 0.44660 0.04466 -0.02439
 C134 C 0.47437 0.03980 -0.01546
 C135 C 0.54390 -0.03006 -0.02185
 C136 C 0.57280 -0.03128 -0.03154
 C137 C 0.60071 0.00168 -0.04084
 C138 C 0.59891 0.03574 -0.04044
 C139 C 0.56959 0.03674 -0.03096
 C140 C 0.57920 0.03307 0.01574
 C141 C 0.60969 0.03369 0.02498
 C142 C 0.60304 0.00118 0.03482
 C143 C 0.56521 -0.03188 0.03533
 C144 C 0.53461 -0.03234 0.02621
 C145 C 0.48062 0.01524 0.03187
 C146 C 0.44870 0.01068 0.04136
 C147 C 0.41028 -0.01599 0.03596
 C148 C 0.40459 -0.03875 0.02111
 C149 C 0.43657 -0.03434 0.01169
 H150 H 0.47189 -0.03119 -0.04062
 H151 H 0.42423 -0.02201 -0.05657
 H152 H 0.43941 0.06546 -0.01949
 H153 H 0.48860 0.05751 -0.00411
 H154 H 0.52275 -0.05568 -0.01468
 H155 H 0.57375 -0.05778 -0.03158
 H156 H 0.56853 0.06318 -0.03083
 H157 H 0.58492 0.05845 0.00825
 H158 H 0.63860 0.05943 0.02427
 H159 H 0.55924 -0.05715 0.04297
 H160 H 0.50562 -0.05802 0.02680
 H161 H 0.50988 0.03643 0.03615
 H162 H 0.45413 0.02806 0.05294
 H163 H 0.37543 -0.05939 0.01653
 H164 H 0.43143 -0.05220 0.00029
 H165 H 0.61994 0.06139 -0.04763
 C166 C -0.00391 0.50366 0.67764
 C167 C -0.00522 0.50276 0.65990
 C168 C -0.00496 0.47132 0.64995
 C169 C -0.00668 0.53333 0.64958
 C170 C -0.00315 0.53558 0.68762
 C171 C -0.00281 0.47288 0.68793
 C172 C 0.02638 0.46498 0.65132
 C173 C 0.02558 0.43441 0.64229
 C174 C -0.00654 0.40974 0.63171
 C175 C -0.03752 0.41667 0.63014
 C176 C -0.03661 0.44733 0.63911
 C177 C 0.02378 0.55648 0.63798
 C178 C 0.02381 0.58656 0.62872
 C179 C -0.00695 0.59364 0.63072
 C180 C -0.03799 0.56972 0.64201
 C181 C -0.03783 0.53982 0.65140
 C182 C -0.03319 0.52702 0.69950
 C183 C -0.03352 0.55684 0.70867
 C184 C -0.00351 0.59573 0.70625
 C185 C 0.02701 0.60415 0.69457
 C186 C 0.02719 0.57431 0.68534
 C187 C -0.03370 0.43410 0.68723
 C188 C -0.03146 0.40517 0.69647
 C189 C 0.00178 0.41449 0.70653
 C190 C 0.03237 0.45358 0.70736
 C191 C 0.02992 0.48249 0.69825
 H192 H 0.05128 0.48354 0.65948
 H193 H 0.04975 0.42963 0.64381
 H194 H -0.06235 0.39851 0.62187
 H195 H -0.06091 0.45200 0.63782
 H196 H 0.04793 0.55171 0.63636
 H197 H 0.04782 0.60423 0.61993
 H198 H -0.06176 0.52195 0.66019
 H199 H -0.05669 0.49725 0.70150
 H200 H -0.05707 0.54946 0.71777
 H201 H 0.05039 0.63388 0.69240
 H202 H 0.05087 0.58137 0.67636
 H203 H -0.05941 0.42630 0.67948
 H204 H -0.05587 0.37554 0.69580
 H205 H 0.05865 0.46178 0.71472
 H206 H 0.05406 0.51230 0.69888
 H207 H -0.06196 0.57468 0.64384
 C208 C 0.48821 0.49997 0.34395
 C209 C 0.48968 0.50086 0.32618
 C210 C 0.52427 0.53181 0.31667
 C211 C 0.45718 0.47050 0.31547
 C212 C 0.45834 0.46492 0.35354
 C213 C 0.51660 0.53377 0.35459
 C214 C 0.51952 0.55339 0.30348
 C215 C 0.55189 0.58198 0.29426
 C216 C 0.58955 0.58913 0.29792
 C217 C 0.59418 0.56724 0.31106
 C218 C 0.56183 0.53883 0.32033
 C219 C 0.41829 0.46006 0.31859
 C220 C 0.38792 0.43133 0.30859
 C221 C 0.39593 0.41309 0.29501
 C222 C 0.43490 0.42421 0.29161
 C223 C 0.46523 0.45261 0.30176
 C224 C 0.45489 0.42872 0.35085
 C225 C 0.42665 0.39576 0.35984
 C226 C 0.40118 0.39832 0.37167
 C227 C 0.40504 0.43482 0.37441
 C228 C 0.43357 0.46783 0.36555
 C229 C 0.53641 0.52844 0.36845
 C230 C 0.56302 0.56005 0.37853
 C231 C 0.57015 0.59761 0.37502
 C232 C 0.54988 0.60279 0.36127
 C233 C 0.52322 0.57115 0.35122
 H234 H 0.49072 0.54815 0.30037
 H235 H 0.54741 0.59806 0.28406
 H236 H 0.62287 0.57230 0.31422
 H237 H 0.56603 0.52206 0.33029
 H238 H 0.41144 0.47427 0.32875
 H239 H 0.35820 0.42375 0.31129
 H240 H 0.49499 0.46033 0.29904
 H241 H 0.47424 0.42608 0.34184
 H242 H 0.42512 0.36837 0.35767
 H243 H 0.38559 0.43782 0.38320
 H244 H 0.43586 0.49556 0.36779
 H245 H 0.53165 0.49984 0.37131
 H246 H 0.57848 0.55519 0.38892
 H247 H 0.55422 0.63123 0.35844
 H248 H 0.50754 0.57578 0.34085
 H249 H 0.44183 0.41042 0.28128
 C250 C -0.01661 0.18673 0.56633
 C251 C 0.01609 0.19290 0.55676
 C252 C 0.01517 0.16250 0.54756
 C253 C -0.01841 0.12507 0.54776
 C254 C -0.05113 0.11884 0.55736
 C255 C -0.05024 0.14932 0.56654
 C256 C -0.01553 0.21928 0.57602
 C257 C -0.03300 0.21303 0.59256
 C258 C -0.03158 0.24378 0.60170
 C259 C -0.01252 0.28149 0.59455
 C260 C 0.00486 0.28775 0.57801
 C261 C 0.00328 0.25699 0.56883
 C262 C -0.01083 0.31422 0.60426
 C263 C 0.02389 0.35073 0.60475
 C264 C 0.02538 0.38166 0.61376
 C265 C -0.00788 0.37680 0.62237
 C266 C -0.04256 0.34026 0.62191
 C267 C -0.04399 0.30927 0.61300
 H268 H 0.04262 0.22121 0.55649
 H269 H 0.04068 0.16848 0.54009
 H270 H -0.07732 0.09029 0.55792
 H271 H -0.07607 0.14369 0.57363
 H272 H -0.04719 0.18448 0.59858
 H273 H -0.04481 0.23821 0.61452
 H274 H 0.01919 0.31637 0.57205
 H275 H 0.01639 0.26267 0.55599
 H276 H 0.05000 0.35528 0.59828
 H277 H 0.05242 0.40957 0.61379
 H278 H -0.06853 0.33558 0.62858
 H279 H -0.07121 0.28156 0.61273
 C280 C 0.81933 0.79050 0.22707
 C281 C 0.81402 0.79701 0.20951
 C282 C 0.84496 0.82605 0.19978
 C283 C 0.88209 0.84919 0.20732
 C284 C 0.88763 0.84211 0.22477
 C285 C 0.85661 0.81316 0.23454
 C286 C 0.78587 0.76081 0.23762
 C287 C 0.79099 0.73768 0.24991
 C288 C 0.75949 0.71007 0.25991
 C289 C 0.72209 0.70486 0.25782
 C290 C 0.71698 0.72795 0.24550
 C291 C 0.74848 0.75564 0.23557
 C292 C 0.68847 0.67542 0.26838
 C293 C 0.66013 0.68326 0.27460
 C294 C 0.62811 0.65531 0.28421
 C295 C 0.62381 0.61898 0.28792
 C296 C 0.65227 0.61122 0.28187
 C297 C 0.68419 0.63908 0.27217
 H298 H 0.78585 0.77970 0.20327
 H299 H 0.83945 0.83100 0.18646
 H300 H 0.91595 0.85909 0.23093
 H301 H 0.86164 0.80915 0.24807
 H302 H 0.81931 0.74065 0.25170
 H303 H 0.76454 0.69307 0.26942
 H304 H 0.68850 0.72437 0.24339
 H305 H 0.74358 0.77333 0.22641
 H306 H 0.66291 0.71119 0.27221
 H307 H 0.60690 0.66227 0.28893
 H308 H 0.64942 0.58327 0.28433
 H309 H 0.70511 0.63185 0.26734
 C310 C 0.21402 0.03637 -0.10324
 C311 C 0.18571 0.00158 -0.11110
 C312 C 0.15541 0.00012 -0.12079
 C313 C 0.15235 0.03333 -0.12273
 C314 C 0.18110 0.06840 -0.11510
 C315 C 0.21175 0.06993 -0.10549
 C316 C 0.24552 0.03709 -0.09268
 C317 C 0.28467 0.06685 -0.09487
 C318 C 0.31446 0.06567 -0.08574
 C319 C 0.30560 0.03484 -0.07416
 C320 C 0.26623 0.00589 -0.07156
 C321 C 0.23660 0.00693 -0.08076
 C322 C 0.33713 0.03199 -0.06523
 C323 C 0.33388 -0.00439 -0.06308
 C324 C 0.36317 -0.00747 -0.05464
 C325 C 0.39669 0.02577 -0.04824
 C326 C 0.40012 0.06224 -0.05045
 C327 C 0.37066 0.06531 -0.05885
 H328 H 0.18725 -0.02451 -0.10989
 H329 H 0.13448 -0.02709 -0.12690
 H330 H 0.17946 0.09443 -0.11624
 H331 H 0.23317 0.09708 -0.09949
 H332 H 0.29233 0.09029 -0.10407
 H333 H 0.34449 0.08823 -0.08817
 H334 H 0.25829 -0.01772 -0.06242
 H335 H 0.20658 -0.01599 -0.07858
 H336 H 0.30877 -0.03058 -0.06807
 H337 H 0.35929 -0.03607 -0.05295
 H338 H 0.42574 0.08846 -0.04583
 H339 H 0.37393 0.09373 -0.06017
 C340 C -0.00036 0.81579 0.56450
 C341 C 0.01865 0.82795 0.54827
 C342 C 0.01913 0.85830 0.53900
 C343 C 0.00039 0.87709 0.54567
 C344 C -0.01842 0.86505 0.56194
 C345 C -0.01864 0.83492 0.57127
 C346 C -0.00141 0.78310 0.57428
 C347 C -0.03499 0.75631 0.58363
 C348 C -0.03599 0.72567 0.59286
 C349 C -0.00354 0.72084 0.59286
 C350 C 0.02997 0.74750 0.58343
 C351 C 0.03107 0.77831 0.57431
 C352 C -0.00459 0.68820 0.60268
 C353 C 0.02891 0.69356 0.61135
 C354 C 0.02809 0.66285 0.62041
 C355 C -0.00632 0.62616 0.62116
 C356 C -0.03993 0.62078 0.61267
 C357 C -0.03904 0.65141 0.60345
 H358 H 0.03266 0.81360 0.54257
 H359 H 0.03430 0.86709 0.52661
 H360 H -0.03364 0.87843 0.56738
 H361 H -0.03306 0.82674 0.58384
 H362 H -0.06075 0.75875 0.58370
 H363 H -0.06210 0.70600 0.60015
 H364 H 0.05531 0.74439 0.58294
 H365 H 0.05758 0.79863 0.56742
 H366 H 0.05569 0.72166 0.61133
 H367 H 0.05426 0.66793 0.62707
 H368 H -0.06671 0.59266 0.61288
 H369 H -0.06518 0.64604 0.59669
 C370 C 0.18117 0.19458 0.22475
 C371 C 0.14438 0.19032 0.22179
 C372 C 0.11530 0.15813 0.21274
 C373 C 0.12237 0.12952 0.20637
 C374 C 0.15926 0.13398 0.20923
 C375 C 0.18817 0.16594 0.21837
 C376 C 0.21213 0.22847 0.23454
 C377 C 0.25160 0.24564 0.22972
 C378 C 0.28091 0.27638 0.23932
 C379 C 0.27151 0.29105 0.25392
 C380 C 0.23197 0.27438 0.25856
 C381 C 0.20265 0.24340 0.24902
 C382 C 0.30292 0.32304 0.26442
 C383 C 0.29990 0.32323 0.28270
 C384 C 0.32988 0.35270 0.29260
 C385 C 0.36371 0.38244 0.28447
 C386 C 0.36675 0.38247 0.26622
 C387 C 0.33661 0.35323 0.25630
 H388 H 0.13814 0.21205 0.22635
 H389 H 0.08713 0.15545 0.21090
 H390 H 0.16602 0.11291 0.20426
 H391 H 0.21592 0.16794 0.22060
 H392 H 0.25994 0.23532 0.21848
 H393 H 0.31103 0.28814 0.23548
 H394 H 0.22362 0.28530 0.26957
 H395 H 0.17261 0.23066 0.25322
 H396 H 0.27474 0.30011 0.28942
 H397 H 0.32703 0.35177 0.30667
 H398 H 0.39230 0.40538 0.25962
 H399 H 0.33962 0.35444 0.24224
 C400 C 0.81468 -0.00703 -0.10682
 C401 C 0.80663 -0.03186 -0.12104
 C402 C 0.83701 -0.03174 -0.13013
 C403 C 0.87638 -0.00723 -0.12502
 C404 C 0.88390 0.01698 -0.11040
 C405 C 0.85353 0.01728 -0.10157
 C406 C 0.78276 -0.00597 -0.09757
 C407 C 0.78563 0.02974 -0.09417
 C408 C 0.75577 0.03096 -0.08531
 C409 C 0.72257 -0.00351 -0.07941
 C410 C 0.71982 -0.03928 -0.08286
 C411 C 0.74946 -0.04050 -0.09197
 C412 C 0.69117 -0.00208 -0.06960
 C413 C 0.65174 -0.03154 -0.07158
 C414 C 0.62240 -0.03037 -0.06220
 C415 C 0.63174 0.00054 -0.05083
 C416 C 0.67094 0.03017 -0.04893
 C417 C 0.70037 0.02874 -0.05810
 H418 H 0.77679 -0.05098 -0.12529
 H419 H 0.82918 -0.05191 -0.14082
 H420 H 0.91337 0.03741 -0.10615
 H421 H 0.86043 0.03665 -0.09059
 H422 H 0.81083 0.05673 -0.09858
 H423 H 0.75857 0.05896 -0.08326
 H424 H 0.69510 -0.06637 -0.07826
 H425 H 0.74680 -0.06836 -0.09431
 H426 H 0.64341 -0.05530 -0.08055
 H427 H 0.59228 -0.05336 -0.06400
 H428 H 0.67888 0.05405 -0.04007
 H429 H 0.73040 0.05150 -0.05593
 C430 C 0.18466 -0.02976 0.10196
 C431 C 0.14814 -0.06389 0.10433
 C432 C 0.11862 -0.06308 0.11380
 C433 C 0.12517 -0.02816 0.12116
 C434 C 0.16207 0.00569 0.11908
 C435 C 0.19137 0.00492 0.10955
 C436 C 0.21581 -0.02988 0.09152
 C437 C 0.23782 0.00034 0.07959
 C438 C 0.26840 0.00150 0.07028
 C439 C 0.27790 -0.02740 0.07276
 C440 C 0.25532 -0.05813 0.08444
 C441 C 0.22450 -0.05942 0.09369
 C442 C 0.31178 -0.02485 0.06345
 C443 C 0.31012 -0.05836 0.05693
 C444 C 0.34208 -0.05561 0.04809
 C445 C 0.37639 -0.01929 0.04557
 C446 C 0.37802 0.01415 0.05214
 C447 C 0.34620 0.01139 0.06101
 H448 H 0.14214 -0.09098 0.09853
 H449 H 0.09043 -0.08959 0.11503
 H450 H 0.16850 0.03285 0.12494
 H451 H 0.21951 0.03148 0.10824
 H452 H 0.23128 0.02309 0.07741
 H453 H 0.28456 0.02506 0.06109
 H454 H 0.26213 -0.08063 0.08679
 H455 H 0.20818 -0.08288 0.10291
 H456 H 0.28394 -0.08668 0.05847
 H457 H 0.34001 -0.08198 0.04335
 H458 H 0.40377 0.04264 0.05022
 H459 H 0.34872 0.03772 0.06609
 C460 C 0.77365 0.82392 0.44577
 C461 C 0.80052 0.85851 0.43726
 C462 C 0.83173 0.88866 0.44636
 C463 C 0.83748 0.88538 0.46443
 C464 C 0.80899 0.85064 0.47291
 C465 C 0.77790 0.82061 0.46373
 C466 C 0.74209 0.79087 0.43585
 C467 C 0.73283 0.75260 0.43934
 C468 C 0.70408 0.72152 0.42969
 C469 C 0.68388 0.72793 0.41631
 C470 C 0.69291 0.76617 0.41290
 C471 C 0.72170 0.79729 0.42257
 C472 C 0.65402 0.69488 0.40579
 C473 C 0.65180 0.69869 0.38765
 C474 C 0.62445 0.66723 0.37769
 C475 C 0.59870 0.63126 0.38565
 C476 C 0.60067 0.62756 0.40381
 C477 C 0.62800 0.65901 0.41377
 H478 H 0.79793 0.86206 0.42340
 H479 H 0.85035 0.91480 0.43897
 H480 H 0.81129 0.84466 0.48646
 H481 H 0.75734 0.79439 0.47072
 H482 H 0.74851 0.74676 0.44926
 H483 H 0.69829 0.69251 0.43243
 H484 H 0.67746 0.77198 0.40285
 H485 H 0.72780 0.82638 0.41974
 H486 H 0.67184 0.72575 0.38109
 H487 H 0.62403 0.67083 0.36369
 H488 H 0.58078 0.60042 0.41035
 H489 H 0.62855 0.65534 0.42775
 C490 C 0.02767 0.20688 0.76965
 C491 C 0.05120 0.21618 0.78463
 C492 C 0.05349 0.18728 0.79388
 C493 C 0.03202 0.14826 0.78848
 C494 C 0.00895 0.13910 0.77335
 C495 C 0.00700 0.16803 0.76401
 C496 C 0.02398 0.23733 0.76017
 C497 C -0.01196 0.22855 0.75279
 C498 C -0.01561 0.25710 0.74398
 C499 C 0.01644 0.29521 0.74253
 C500 C 0.05233 0.30416 0.74993
 C501 C 0.05613 0.27549 0.75856
 C502 C 0.01238 0.32557 0.73339
 C503 C 0.02730 0.36244 0.74087
 C504 C 0.02340 0.39107 0.73228
 C505 C 0.00490 0.38362 0.71591
 C506 C -0.01000 0.34663 0.70847
 C507 C -0.00649 0.31786 0.71716
 H508 H 0.06722 0.24569 0.78948
 H509 H 0.07197 0.19553 0.80532
 H510 H -0.00846 0.10935 0.76891
 H511 H -0.01088 0.15987 0.75237
 H512 H -0.03757 0.19974 0.75407
 H513 H -0.04372 0.24959 0.73858
 H514 H 0.07762 0.33324 0.74880
 H515 H 0.08440 0.28317 0.76380
 H516 H 0.04149 0.36891 0.75349
 H517 H 0.03455 0.41892 0.73857
 H518 H -0.02374 0.34008 0.69575
 H519 H -0.01787 0.28978 0.71104
 C520 C 0.82550 0.00611 0.10017
 C521 C 0.83338 -0.02392 0.09776
 C522 C 0.86326 -0.02432 0.10709
 C523 C 0.88576 0.00512 0.11917
 C524 C 0.87810 0.03524 0.12156
 C525 C 0.84843 0.03584 0.11211
 C526 C 0.79315 0.00606 0.09046
 C527 C 0.76984 0.01840 0.09857
 C528 C 0.73913 0.01784 0.08953
 C529 C 0.73078 0.00460 0.07224
 C530 C 0.75399 -0.00773 0.06411
 C531 C 0.78494 -0.00684 0.07309
 C532 C 0.69793 0.00362 0.06272
 C533 C 0.67203 -0.02903 0.05280
 C534 C 0.64100 -0.02999 0.04387
 C535 C 0.63552 0.00187 0.04453
 C536 C 0.66147 0.03455 0.05441
 C537 C 0.69225 0.03534 0.06350
 H538 H 0.81587 -0.04766 0.08893
 H539 H 0.86812 -0.04822 0.10519
 H540 H 0.89531 0.05851 0.13065
 H541 H 0.84366 0.05978 0.11406
 H542 H 0.77484 0.02782 0.11202
 H543 H 0.72137 0.02706 0.09617
 H544 H 0.74853 -0.01754 0.05071
 H545 H 0.80271 -0.01587 0.06633
 H546 H 0.67557 -0.05400 0.05210
 H547 H 0.62157 -0.05541 0.03623
 H548 H 0.65772 0.05937 0.05525
 H549 H 0.71195 0.06097 0.07095
 C550 C 0.18491 0.16500 0.43548
 C551 C 0.19112 0.14742 0.45007
 C552 C 0.15957 0.11902 0.45978
 C553 C 0.12097 0.10721 0.45506
 C554 C 0.11475 0.12380 0.44012
 C555 C 0.14627 0.15247 0.43053
 C556 C 0.21843 0.19734 0.42589
 C557 C 0.21657 0.20173 0.40776
 C558 C 0.24697 0.23355 0.39897
 C559 C 0.28025 0.26160 0.40804
 C560 C 0.28258 0.25660 0.42609
 C561 C 0.25200 0.22504 0.43491
 C562 C 0.31187 0.29639 0.39882
 C563 C 0.33149 0.33281 0.40710
 C564 C 0.36066 0.36566 0.39838
 C565 C 0.37069 0.36311 0.38107
 C566 C 0.35112 0.32669 0.37280
 C567 C 0.32224 0.29373 0.38159
 H568 H 0.22044 0.15583 0.45410
 H569 H 0.16554 0.10719 0.47129
 H570 H 0.08544 0.11494 0.43589
 H571 H 0.14027 0.16558 0.41951
 H572 H 0.19149 0.18068 0.40033
 H573 H 0.24389 0.23659 0.38511
 H574 H 0.30803 0.27720 0.43347
 H575 H 0.25433 0.22295 0.44890
 H576 H 0.32393 0.33616 0.42025
 H577 H 0.37548 0.39306 0.40527
 H578 H 0.35769 0.32368 0.35941
 H579 H 0.30816 0.26612 0.37487
 C580 C -0.00516 0.81107 0.77320
 C581 C 0.02934 0.83897 0.78155
 C582 C 0.03081 0.86991 0.79049
 C583 C -0.00209 0.87396 0.79122
 C584 C -0.03670 0.84599 0.78294
 C585 C -0.03822 0.81489 0.77403
 C586 C -0.00634 0.77842 0.76356
 C587 C -0.02644 0.76562 0.74762
 C588 C -0.02645 0.73572 0.73832
 C589 C -0.00623 0.71811 0.74472
 C590 C 0.01353 0.73062 0.76072
 C591 C 0.01337 0.76033 0.77006
 C592 C -0.00549 0.68696 0.73471
 C593 C 0.02944 0.68677 0.73296
 C594 C 0.03016 0.65735 0.72361
 C595 C -0.00409 0.62734 0.71592
 C596 C -0.03900 0.62757 0.71764
 C597 C -0.03966 0.65715 0.72689
 H598 H 0.05547 0.83722 0.78100
 H599 H 0.05776 0.89056 0.79695
 H600 H -0.06247 0.84841 0.78315
 H601 H -0.06538 0.79366 0.76790
 H602 H -0.04141 0.77930 0.74212
 H603 H -0.04157 0.72694 0.72593
 H604 H 0.02879 0.71711 0.76611
 H605 H 0.02848 0.76895 0.78246
 H606 H 0.05630 0.70960 0.73870
 H607 H 0.05740 0.65774 0.72260
 H608 H -0.06575 0.60500 0.71171
 H609 H -0.06704 0.65643 0.72813
   
