data_POSCAR
  _audit_creation_date              2014-09-24
  _audit_creation_method            'ToBaCCo'
  _symmetry_space_group_name_H-M    'P1'
  _symmetry_Int_Tables_number       1
  _symmetry_cell_setting            triclinic
  loop_
  _symmetry_equiv_pos_as_xyz
 x,y,z
_cell_length_a 34.3651
_cell_length_b 34.1981
_cell_length_c 15.0874
_cell_angle_alpha 89.960100
_cell_angle_beta 90.630300
_cell_angle_gamma 121.582700
loop_
  _atom_site_label
  _atom_site_type_symbol
  _atom_site_fract_x
  _atom_site_fract_y
  _atom_site_fract_z
C1 C 0.10647 0.50314 0.49675
 C2 C 0.12738 0.50316 0.41689
 C3 C 0.15581 0.48492 0.41762
 C4 C 0.16423 0.46800 0.49703
 C5 C 0.14222 0.46872 0.57525
 C6 C 0.11310 0.48585 0.57546
 C7 C 0.19636 0.45046 0.49927
 C8 C 0.21577 0.44718 0.58009
 C9 C 0.24388 0.42878 0.58328
 C10 C 0.25609 0.41698 0.50376
 C11 C 0.23881 0.42150 0.42223
 C12 C 0.20812 0.43683 0.42079
 H13 H 0.08648 0.51899 0.49891
 H14 H 0.17386 0.48739 0.35780
 H15 H 0.14578 0.45434 0.63631
 H16 H 0.20958 0.45885 0.64180
 H17 H 0.28070 0.40636 0.50462
 H18 H 0.19348 0.43749 0.35753
 C19 C 0.57182 -0.38879 0.51187
 C20 C 0.56920 -0.37138 0.42963
 C21 C 0.57566 -0.32702 0.42982
 C22 C 0.57295 -0.30665 0.50973
 C23 C 0.56064 -0.33374 0.58709
 C24 C 0.55975 -0.37529 0.58871
 C25 C 0.57964 -0.25931 0.51299
 C26 C 0.58538 -0.23688 0.59512
 C27 C 0.58989 -0.19386 0.60037
 C28 C 0.59278 -0.17032 0.52192
 C29 C 0.58857 -0.19103 0.43874
 C30 C 0.58067 -0.23576 0.43529
 H31 H 0.57725 -0.41694 0.51685
 H32 H 0.58191 -0.30949 0.36757
 H33 H 0.54891 -0.32408 0.64406
 H34 H 0.58660 -0.25216 0.65691
 H35 H 0.59670 -0.13679 0.52557
 H36 H 0.57572 -0.25140 0.37087
 C37 C 1.38924 0.90811 0.51801
 C38 C 1.37159 0.91189 0.43641
 C39 C 1.32379 0.89172 0.42813
 C40 C 1.29412 0.86639 0.49864
 C41 C 1.31370 0.86133 0.57731
 C42 C 1.36081 0.88182 0.58654
 C43 C 1.24293 0.84081 0.48822
 C44 C 1.21468 0.82501 0.56341
 C45 C 1.16763 0.79143 0.55697
 C46 C 1.14796 0.77977 0.47099
 C47 C 1.17440 0.79903 0.39481
 C48 C 1.22184 0.82823 0.40402
 H49 H 1.42535 0.92139 0.52651
 H50 H 1.31025 0.89608 0.36665
 H51 H 1.29276 0.83910 0.63003
 H52 H 1.22965 0.83848 0.62778
 H53 H 1.11257 0.75347 0.46112
 H54 H 1.24195 0.83975 0.34466
 C55 C 0.85657 0.62354 0.52216
 C56 C 0.83233 0.60493 0.44287
 C57 C 0.78477 0.58420 0.44222
 C58 C 0.76092 0.58414 0.51802
 C59 C 0.78666 0.60534 0.59583
 C60 C 0.83408 0.62333 0.59956
 C61 C 0.70950 0.55990 0.51662
 C62 C 0.68374 0.54330 0.59598
 C63 C 0.63554 0.51690 0.59225
 C64 C 0.61386 0.51118 0.51071
 C65 C 0.63765 0.52048 0.43247
 C66 C 0.68516 0.54792 0.43463
 H67 H 0.89240 0.63516 0.52522
 H68 H 0.76702 0.56734 0.38166
 H69 H 0.77007 0.60694 0.65496
 H70 H 0.70057 0.54692 0.65905
 H71 H 0.57694 0.49382 0.50702
 H72 H 0.70215 0.55753 0.37171
 C73 C 0.39213 0.22717 0.51353
 C74 C 0.39869 0.21178 0.43144
 C75 C 0.41379 0.18082 0.43150
 C76 C 0.42699 0.16863 0.51031
 C77 C 0.42321 0.18693 0.59089
 C78 C 0.40474 0.21528 0.59434
 C79 C 0.44631 0.13829 0.50729
 C80 C 0.44162 0.10938 0.57898
 C81 C 0.45949 0.08046 0.57437
 C82 C 0.48123 0.08041 0.49649
 C83 C 0.48811 0.11015 0.42744
 C84 C 0.47067 0.13882 0.43227
 H85 H 0.38134 0.25171 0.51362
 H86 H 0.41570 0.16668 0.36873
 H87 H 0.43393 0.17830 0.65163
 H88 H 0.42317 0.10829 0.63748
 H89 H 0.49629 0.05956 0.49086
 H90 H 0.47750 0.16233 0.37827
 C91 C 0.74757 0.15542 0.49260
 C92 C 0.76321 0.18113 0.41454
 C93 C 0.79285 0.22880 0.42044
 C94 C 0.80992 0.25119 0.50303
 C95 C 0.79581 0.22400 0.58006
 C96 C 0.76343 0.17673 0.57583
 C97 C 0.83927 0.30272 0.50869
 C98 C 0.84185 0.32671 0.58727
 C99 C 0.86385 0.37489 0.58883
 C100 C 0.88452 0.39933 0.51060
 C101 C 0.88389 0.37642 0.43336
 C102 C 0.86219 0.32866 0.43318
 H103 H 0.72087 0.11971 0.48827
 H104 H 0.80107 0.24798 0.35951
 H105 H 0.80881 0.23921 0.64464
 H106 H 0.82363 0.30830 0.64577
 H107 H 0.90210 0.43647 0.50963
 H108 H 0.86357 0.31230 0.37307
 O109 O 0.97794 0.62632 -0.15126
 O110 O 1.03385 0.65690 0.13725
 O111 O 0.93261 0.59714 0.07228
 O112 O 1.08047 0.66949 -0.08415
 O113 O 0.96046 0.58539 0.18407
 O114 O 1.04871 0.62660 -0.19241
 O115 O 1.09307 0.66952 0.06169
 O116 O 0.91814 0.58078 -0.07387
 C117 C 0.93843 0.61402 -0.12723
 C118 C 1.07413 0.68399 0.11290
 C119 C 0.93523 0.59742 0.15308
 C120 C 1.07302 0.66594 -0.16407
 O121 O 1.00741 0.53970 -0.15988
 O122 O 0.99730 0.53755 0.15605
 O123 O 0.92225 0.49964 -0.04960
 O124 O 1.08266 0.57966 0.04549
 O125 O 1.07232 0.60959 0.15377
 O126 O 0.93491 0.53774 -0.16435
 O127 O 1.07662 0.58524 -0.11140
 O128 O 0.92920 0.51351 0.10594
 Co129 Co 0.99368 0.58338 -0.14910
 Co130 Co 1.01449 0.59640 0.14051
 Co131 Co 0.93218 0.55090 0.01229
 Co132 Co 1.07652 0.62236 -0.02055
 O133 O 1.00414 0.58813 -0.00425
 C134 C 1.04773 0.54961 -0.15422
 C135 C 0.95635 0.50680 0.15156
 C136 C 0.91605 0.49963 -0.13033
 C137 C 1.08634 0.58552 0.12660
 O138 O 0.38215 0.33254 -0.10285
 O139 O 0.35058 0.38111 0.13817
 O140 O 0.44859 0.34375 0.09556
 O141 O 0.36565 0.44753 -0.06839
 O142 O 0.38389 0.33487 0.12121
 O143 O 0.34984 0.38302 -0.12901
 O144 O 0.36862 0.44888 0.09965
 O145 O 0.44693 0.34194 -0.06551
 C146 C 0.40828 0.31760 -0.10194
 C147 C 0.34195 0.41196 0.13816
 C148 C 0.40947 0.31976 0.12778
 C149 C 0.34145 0.41418 -0.11984
 O150 O 0.43227 0.45115 -0.17307
 O151 O 0.46376 0.40405 0.19244
 O152 O 0.50936 0.43523 -0.06419
 O153 O 0.45807 0.50370 0.09330
 O154 O 0.43127 0.45239 0.19697
 O155 O 0.46194 0.40031 -0.16765
 O156 O 0.45317 0.50495 -0.07252
 O157 O 0.50877 0.43738 0.08664
 Co158 Co 0.40815 0.39321 -0.12811
 Co159 Co 0.40888 0.39455 0.14918
 Co160 Co 0.47349 0.39085 0.01308
 Co161 Co 0.41245 0.46968 0.01364
 O162 O 0.42456 0.41157 0.01166
 C163 C 0.45519 0.49271 -0.14907
 C164 C 0.50346 0.43050 0.16599
 C165 C 0.50200 0.42815 -0.14366
 C166 C 0.45848 0.49289 0.17143
 O167 O 0.63807 0.02083 -0.14529
 O168 O 0.60842 -0.05242 0.11925
 O169 O 0.63580 0.08117 0.07294
 O170 O 0.53928 -0.11630 -0.05486
 O171 O 0.65131 0.03132 0.11990
 O172 O 0.60355 -0.06100 -0.10208
 O173 O 0.54000 -0.10802 0.10714
 O174 O 0.62936 0.07471 -0.09288
 C175 C 0.65053 0.06210 -0.14086
 C176 C 0.57978 -0.09312 0.13456
 C177 C 0.66229 0.07207 0.11366
 C178 C 0.57668 -0.10288 -0.09380
 O179 O 0.52337 -0.07764 -0.16497
 O180 O 0.57927 0.03149 0.18360
 O181 O 0.54288 0.04537 -0.08701
 O182 O 0.48552 -0.07314 0.09051
 O183 O 0.53642 -0.05154 0.19139
 O184 O 0.55446 0.00479 -0.18419
 O185 O 0.48061 -0.08318 -0.06151
 O186 O 0.54627 0.04781 0.08006
 Co187 Co 0.57889 -0.02741 -0.13418
 Co188 Co 0.59148 -0.01153 0.14091
 Co189 Co 0.58669 0.05440 -0.00503
 Co190 Co 0.51667 -0.08887 0.01882
 O191 O 0.56938 -0.01772 0.00494
 C192 C 0.48483 -0.08829 -0.14018
 C193 C 0.55564 0.04795 0.15938
 C194 C 0.53589 0.02696 -0.16144
 C195 C 0.49731 -0.06139 0.16802
 C196 C 1.11032 0.55739 0.35161
 C197 C 1.12058 0.52322 0.34036
 C198 C 1.12056 0.50907 0.25152
 C199 C 1.11046 0.52914 0.17867
 C200 C 1.10248 0.56512 0.19332
 C201 C 1.10256 0.57795 0.28116
 C202 C 1.12870 0.62441 0.32353
 C203 C 1.13664 0.60165 0.40188
 H204 H 1.12644 0.48150 0.23826
 H205 H 1.10877 0.51653 0.11207
 H206 H 1.10681 0.63842 0.33938
 H207 H 1.16070 0.64822 0.28804
 H208 H 1.11866 0.60192 0.46246
 H209 H 1.17314 0.61281 0.41222
 C210 C 0.53611 0.60926 0.27706
 C211 C 0.55281 0.59899 0.35391
 C212 C 0.54370 0.55325 0.35800
 C213 C 0.51112 0.51847 0.30230
 C214 C 0.49073 0.52880 0.23308
 C215 C 0.50692 0.57515 0.21712
 C216 C 0.48023 0.59728 0.19832
 C217 C 0.51138 0.63430 0.26436
 H218 H 0.55892 0.54225 0.40678
 H219 H 0.50168 0.48343 0.31418
 H220 H 0.44422 0.57625 0.22044
 H221 H 0.48464 0.60988 0.12905
 H222 H 0.49329 0.63449 0.32488
 H223 H 0.53314 0.66838 0.23296
 C224 C 0.38613 -0.09554 0.28141
 C225 C 0.40101 -0.07170 0.36254
 C226 C 0.44885 -0.04185 0.37473
 C227 C 0.47993 -0.03896 0.31214
 C228 C 0.46449 -0.06386 0.23265
 C229 C 0.41725 -0.09185 0.21819
 C230 C 0.38933 -0.09106 0.14276
 C231 C 0.35616 -0.09348 0.21112
 H232 H 0.46277 -0.02142 0.43421
 H233 H 0.51616 -0.01676 0.32578
 H234 H 0.37492 -0.12254 0.10107
 H235 H 0.40668 -0.05838 0.10520
 H236 H 0.32218 -0.12580 0.20687
 H237 H 0.35511 -0.06157 0.21523
 C238 C 0.89275 0.64454 0.32597
 C239 C 0.85567 0.60442 0.36098
 C240 C 0.83883 0.56367 0.31079
 C241 C 0.86272 0.56247 0.23651
 C242 C 0.90347 0.60206 0.20986
 C243 C 0.91571 0.64339 0.25189
 C244 C 0.96050 0.68185 0.28493
 C245 C 0.93572 0.68294 0.36689
 H246 H 0.80905 0.53202 0.33247
 H247 H 0.85123 0.52990 0.20421
 H248 H 0.97308 0.71294 0.24340
 H249 H 0.98539 0.67109 0.29888
 H250 H 0.93507 0.71498 0.37296
 H251 H 0.94722 0.67307 0.42726
 C252 C 0.42491 0.23945 0.27605
 C253 C 0.39407 0.23046 0.34472
 C254 C 0.36050 0.24162 0.32821
 C255 C 0.36226 0.26629 0.25121
 C256 C 0.39828 0.28143 0.18980
 C257 C 0.42739 0.26462 0.20166
 C258 C 0.47822 0.28805 0.19847
 C259 C 0.47545 0.26028 0.27951
 H260 H 0.33449 0.23367 0.37689
 H261 H 0.33792 0.27717 0.24450
 H262 H 0.49595 0.32551 0.21233
 H263 H 0.48978 0.27852 0.13818
 H264 H 0.49152 0.28165 0.33991
 H265 H 0.48520 0.23461 0.26570
 C266 C 0.75292 0.12550 0.29313
 C267 C 0.74573 0.15938 0.32639
 C268 C 0.72172 0.17301 0.27077
 C269 C 0.69896 0.14757 0.19351
 C270 C 0.69965 0.10783 0.17012
 C271 C 0.73076 0.10054 0.21730
 C272 C 0.73033 0.05914 0.25070
 C273 C 0.75459 0.08676 0.33419
 H274 H 0.71721 0.20077 0.29088
 H275 H 0.67689 0.15619 0.15811
 H276 H 0.75204 0.05098 0.21025
 H277 H 0.69571 0.02956 0.26411
 H278 H 0.79011 0.09435 0.34149
 H279 H 0.73328 0.07293 0.39426
 C280 C 0.46799 0.07351 -0.26568
 C281 C 0.46081 0.05563 -0.35201
 C282 C 0.46515 0.01690 -0.36365
 C283 C 0.48777 0.00558 -0.30014
 C284 C 0.50481 0.03172 -0.22214
 C285 C 0.48992 0.06192 -0.20244
 C286 C 0.51571 0.10922 -0.16418
 C287 C 0.49215 0.12221 -0.23346
 H288 H 0.45523 -0.00178 -0.42541
 H289 H 0.49464 -0.02120 -0.31501
 H290 H 0.55321 0.12648 -0.17372
 H291 H 0.50507 0.11034 -0.09538
 H292 H 0.51606 0.14702 -0.28304
 H293 H 0.46819 0.13117 -0.20446
 C294 C 0.61719 0.50640 -0.24818
 C295 C 0.60823 0.49082 -0.33615
 C296 C 0.56804 0.44730 -0.35217
 C297 C 0.53429 0.42604 -0.28822
 C298 C 0.54013 0.44697 -0.20557
 C299 C 0.58356 0.48489 -0.18414
 C300 C 0.59662 0.52937 -0.14071
 C301 C 0.63298 0.55294 -0.21114
 H302 H 0.56126 0.43046 -0.41601
 H303 H 0.50271 0.39455 -0.30533
 H304 H 0.61113 0.53236 -0.07315
 H305 H 0.56932 0.53746 -0.14521
 H306 H 0.66838 0.56983 -0.18389
 H307 H 0.62646 0.57435 -0.25721
 C308 C 0.86818 0.38535 -0.24771
 C309 C 0.86349 0.39831 -0.33420
 C310 C 0.86085 0.43797 -0.34128
 C311 C 0.87126 0.46740 -0.26859
 C312 C 0.88650 0.45926 -0.18730
 C313 C 0.88047 0.41575 -0.17595
 C314 C 0.91154 0.40200 -0.13692
 C315 C 0.89808 0.36865 -0.21434
 H316 H 0.85325 0.44785 -0.40431
 H317 H 0.87258 0.49939 -0.27962
 H318 H 0.89914 0.38458 -0.07211
 H319 H 0.94803 0.43025 -0.13740
 H320 H 0.87785 0.33208 -0.19394
 H321 H 0.92683 0.37721 -0.25945
 C322 C 0.62769 -0.14119 -0.26827
 C323 C 0.58845 -0.17588 -0.31101
 C324 C 0.54733 -0.19574 -0.26326
 C325 C 0.54468 -0.17536 -0.18368
 C326 C 0.58320 -0.13468 -0.15012
 C327 C 0.62525 -0.12097 -0.19033
 C328 C 0.66493 -0.07527 -0.21656
 C329 C 0.66730 -0.09771 -0.30176
 H330 H 0.51649 -0.22479 -0.29094
 H331 H 0.51145 -0.18852 -0.15453
 H332 H 0.69511 -0.06373 -0.17221
 H333 H 0.65541 -0.04945 -0.22865
 H334 H 0.69865 -0.09938 -0.30604
 H335 H 0.65882 -0.08479 -0.36206
 C336 C 0.25174 0.38034 -0.30001
 C337 C 0.26112 0.42318 -0.32984
 C338 C 0.28696 0.46090 -0.27221
 C339 C 0.30925 0.45672 -0.19658
 C340 C 0.30621 0.41471 -0.17705
 C341 C 0.27394 0.37632 -0.22648
 C342 C 0.27441 0.33668 -0.26620
 C343 C 0.24883 0.34019 -0.34565
 H344 H 0.29307 0.49440 -0.28945
 H345 H 0.33246 0.48747 -0.15918
 H346 H 0.25406 0.30454 -0.22785
 H347 H 0.30939 0.34594 -0.28373
 H348 H 0.21307 0.31068 -0.35147
 H349 H 0.26890 0.34883 -0.40733
 C350 C 1.16344 0.77058 -0.28364
 C351 C 1.14199 0.76819 -0.36585
 C352 C 1.09362 0.73848 -0.36790
 C353 C 1.07049 0.70696 -0.29925
 C354 C 1.09432 0.70555 -0.22426
 C355 C 1.14006 0.74039 -0.21465
 C356 C 1.18000 0.73709 -0.18736
 C357 C 1.20578 0.76973 -0.26246
 H358 H 1.07307 0.73720 -0.42369
 H359 H 1.03438 0.68188 -0.30737
 H360 H 1.17406 0.70215 -0.19757
 H361 H 1.19334 0.75231 -0.12062
 H362 H 1.21487 0.75374 -0.31613
 H363 H 1.23435 0.80350 -0.23823
 C364 C 0.83846 0.60977 -0.23798
 C365 C 0.85909 0.63595 -0.31386
 C366 C 0.90665 0.66803 -0.30842
 C367 C 0.93312 0.66564 -0.23892
 C368 C 0.91236 0.63138 -0.17363
 C369 C 0.86449 0.60742 -0.16945
 C370 C 0.83038 0.55759 -0.15460
 C371 C 0.80205 0.56027 -0.22939
 H372 H 0.92410 0.69126 -0.36270
 H373 H 0.96997 0.68669 -0.24267
 H374 H 0.81384 0.55137 -0.08892
 H375 H 0.84360 0.53496 -0.17071
 H376 H 0.76921 0.55564 -0.20678
 H377 H 0.79928 0.53948 -0.28847
 C378 C 0.36653 0.24091 -0.30306
 C379 C 0.40170 0.23336 -0.32315
 C380 C 0.43523 0.24634 -0.25460
 C381 C 0.43506 0.27004 -0.17727
 C382 C 0.40039 0.28001 -0.16328
 C383 C 0.36476 0.26077 -0.22565
 C384 C 0.32282 0.26015 -0.25377
 C385 C 0.32426 0.23707 -0.33997
 H386 H 0.46413 0.24230 -0.26355
 H387 H 0.46390 0.28331 -0.13181
 H388 H 0.32933 0.29491 -0.26446
 H389 H 0.29307 0.23755 -0.21151
 H390 H 0.33063 0.25894 -0.39906
 H391 H 0.29577 0.20079 -0.34707
 C392 C 0.74117 0.11117 -0.31754
 C393 C 0.74278 0.15158 -0.34086
 C394 C 0.72314 0.16792 -0.28076
 C395 C 0.69628 0.14043 -0.20966
 C396 C 0.68870 0.09603 -0.19662
 C397 C 0.71527 0.08445 -0.24737
 C398 C 0.70633 0.04135 -0.29119
 C399 C 0.73506 0.07081 -0.36814
 H400 H 0.72526 0.20019 -0.29299
 H401 H 0.67831 0.15234 -0.17026
 H402 H 0.66990 0.01808 -0.31018
 H403 H 0.72254 0.02524 -0.25450
 H404 H 0.71451 0.06301 -0.42996
 H405 H 0.76765 0.07164 -0.37501
 C406 C 1.04798 0.47688 -0.33953
 C407 C 1.09392 0.48967 -0.34544
 C408 C 1.12188 0.51280 -0.27028
 C409 C 1.10631 0.53025 -0.20295
 C410 C 1.06171 0.52264 -0.20706
 C411 C 1.03237 0.49151 -0.27162
 C412 C 0.99271 0.48521 -0.32527
 C413 C 1.00886 0.46707 -0.39963
 H414 H 1.15740 0.52261 -0.26889
 H415 H 1.13017 0.55244 -0.15209
 H416 H 0.99566 0.51823 -0.34224
 H417 H 0.95953 0.45880 -0.29757
 H418 H 1.01756 0.48874 -0.45939
 H419 H 0.98544 0.42968 -0.41197
 C420 C 0.52346 0.54643 -0.35307
 C421 C 0.54191 0.59386 -0.33947
 C422 C 0.53774 0.60758 -0.25339
 C423 C 0.51036 0.57471 -0.18995
 C424 C 0.48643 0.52754 -0.21132
 C425 C 0.49641 0.51436 -0.29076
 C426 C 0.46486 0.48038 -0.35811
 C427 C 0.49414 0.51525 -0.42732
 H428 H 0.55413 0.64342 -0.23515
 H429 H 0.50625 0.58637 -0.12600
 H430 H 0.42970 0.47408 -0.35506
 H431 H 0.46695 0.44904 -0.35941
 H432 H 0.47598 0.52906 -0.46505
 H433 H 0.51240 0.50322 -0.46860
 C434 C 0.37412 -0.11782 -0.24964
 C435 C 0.38128 -0.12725 -0.33603
 C436 C 0.41530 -0.13797 -0.34863
 C437 C 0.44751 -0.12874 -0.28146
 C438 C 0.44523 -0.10992 -0.20028
 C439 C 0.40531 -0.10987 -0.18237
 C440 C 0.39890 -0.07422 -0.13992
 C441 C 0.36539 -0.08232 -0.21475
 H442 H 0.42029 -0.14813 -0.41346
 H443 H 0.47631 -0.13232 -0.29596
 H444 H 0.43020 -0.03949 -0.14020
 H445 H 0.38229 -0.08545 -0.07431
 H446 H 0.37774 -0.05245 -0.25984
 H447 H 0.32968 -0.09755 -0.19192
 C448 C 0.56052 -0.19020 0.28452
 C449 C 0.59141 -0.16702 0.35439
 C450 C 0.62600 -0.12089 0.33948
 C451 C 0.62539 -0.09782 0.26198
 C452 C 0.58938 -0.11999 0.19892
 C453 C 0.55893 -0.16724 0.20996
 C454 C 0.50798 -0.19611 0.20436
 C455 C 0.50987 -0.22142 0.28568
 H456 H 0.65229 -0.10211 0.38933
 H457 H 0.65075 -0.06164 0.25570
 H458 H 0.49589 -0.21785 0.14357
 H459 H 0.49121 -0.17637 0.21739
 H460 H 0.49914 -0.25765 0.27157
 H461 H 0.49427 -0.21626 0.34528
 C462 C 0.26973 0.44431 0.26870
 C463 C 0.25441 0.41240 0.33777
 C464 C 0.25797 0.37351 0.32634
 C465 C 0.28226 0.37069 0.25435
 C466 C 0.30448 0.40730 0.19365
 C467 C 0.29471 0.44220 0.19906
 C468 C 0.32548 0.49325 0.19673
 C469 C 0.29787 0.49548 0.27244
 H470 H 0.24491 0.34695 0.37627
 H471 H 0.28746 0.34210 0.25182
 H472 H 0.32156 0.50804 0.13407
 H473 H 0.36130 0.50508 0.21626
 H474 H 0.27779 0.51123 0.25320
 H475 H 0.31774 0.50870 0.33544
 C476 C 1.17467 0.77730 0.23516
 C477 C 1.15274 0.78466 0.30526
 C478 C 1.10718 0.77272 0.28975
 C479 C 1.08230 0.74510 0.21634
 C480 C 1.10238 0.72875 0.15808
 C481 C 1.15011 0.75009 0.16278
 C482 C 1.18020 0.73072 0.15612
 C483 C 1.20676 0.76027 0.23560
 H484 H 1.08939 0.78063 0.33857
 H485 H 1.04627 0.73223 0.21121
 H486 H 1.20031 0.74139 0.09412
 H487 H 1.16207 0.69339 0.16988
 H488 H 1.24222 0.78776 0.21934
 H489 H 1.20349 0.74003 0.29582
 C490 C 0.49358 0.09869 0.26649
 C491 C 0.51395 0.11029 0.35064
 C492 C 0.55496 0.11088 0.36396
 C493 C 0.56968 0.09181 0.30018
 C494 C 0.54396 0.07273 0.22192
 C495 C 0.50859 0.08049 0.20293
 C496 C 0.46112 0.04747 0.17067
 C497 C 0.44466 0.06737 0.24032
 H498 H 0.57265 0.12127 0.42741
 H499 H 0.59927 0.08933 0.31458
 H500 H 0.45043 0.01129 0.18368
 H501 H 0.45530 0.05480 0.10163
 H502 H 0.42423 0.04248 0.29315
 H503 H 0.42945 0.08638 0.21155
 C504 C 0.61897 0.51003 0.26811
 C505 C 0.61192 0.49280 0.35418
 C506 C 0.57556 0.44695 0.36647
 C507 C 0.54084 0.42519 0.30272
 C508 C 0.54347 0.44798 0.22383
 C509 C 0.58551 0.48757 0.20337
 C510 C 0.59734 0.53168 0.15991
 C511 C 0.63362 0.55630 0.23223
 H512 H 0.57129 0.42971 0.42897
 H513 H 0.51067 0.39236 0.31794
 H514 H 0.56947 0.53891 0.16179
 H515 H 0.61216 0.53494 0.09328
 H516 H 0.62645 0.57716 0.27793
 H517 H 0.66904 0.57401 0.20662
 C518 C 0.87713 0.39815 0.27783
 C519 C 0.90439 0.40233 0.35121
 C520 C 0.95157 0.43436 0.34611
 C521 C 0.96930 0.46547 0.27507
 C522 C 0.93996 0.46604 0.20901
 C523 C 0.89435 0.42960 0.20886
 C524 C 0.85085 0.42913 0.19883
 C525 C 0.83199 0.39457 0.27397
 H526 H 0.97417 0.43740 0.39983
 H527 H 1.00527 0.49177 0.27691
 H528 H 0.83364 0.41444 0.13401
 H529 H 0.85481 0.46253 0.21668
 H530 H 0.80407 0.35990 0.25230
 H531 H 0.82493 0.40799 0.33492
   
