data_POSCAR
  _audit_creation_date              2014-09-24
  _audit_creation_method            'ToBaCCo'
  _symmetry_space_group_name_H-M    'P1'
  _symmetry_Int_Tables_number       1
  _symmetry_cell_setting            triclinic
  loop_
  _symmetry_equiv_pos_as_xyz
 x,y,z
_cell_length_a 19.5751
_cell_length_b 20.1590
_cell_length_c 19.1221
_cell_angle_alpha 97.458800
_cell_angle_beta 98.320500
_cell_angle_gamma 91.237400
loop_
  _atom_site_label
  _atom_site_type_symbol
  _atom_site_fract_x
  _atom_site_fract_y
  _atom_site_fract_z
O1 O 0.60419 0.47496 0.03778
 O2 O 0.43632 0.53411 0.07504
 O3 O 0.49122 0.41598 0.05747
 O4 O 0.55011 0.59110 0.05484
 O5 O 0.51169 0.58249 -0.06059
 O6 O 0.45438 0.40686 -0.05834
 O7 O 0.39961 0.52134 -0.04095
 O8 O 0.56818 0.46439 -0.07831
 Cu9 Cu 0.52418 0.50498 0.06799
 Cu10 Cu 0.48008 0.49306 -0.07138
 C11 C 0.61461 0.45916 -0.02604
 C12 C 0.38915 0.53748 0.02286
 C13 C 0.46319 0.38150 -0.00040
 C14 C 0.53989 0.61692 -0.00277
 O15 O -0.05420 0.59111 0.47234
 O16 O -0.05949 0.42413 0.52876
 O17 O -0.04713 0.54627 0.59153
 O18 O -0.07015 0.46718 0.40524
 O19 O 0.04304 0.46662 0.40686
 O20 O 0.06595 0.53800 0.59731
 O21 O 0.05271 0.41768 0.52591
 O22 O 0.05875 0.58611 0.47459
 Cu23 Cu -0.06933 0.50741 0.49833
 Cu24 Cu 0.06675 0.50201 0.50203
 C25 C 0.00344 0.61746 0.46520
 C26 C -0.00429 0.39224 0.53589
 C27 C 0.01325 0.55481 0.62636
 C28 C -0.01795 0.45360 0.37439
 O29 O 0.56269 0.03282 0.60227
 O30 O 0.49678 0.06694 0.42129
 O31 O 0.44060 0.08005 0.54469
 O32 O 0.60629 0.02655 0.48706
 O33 O 0.55966 -0.07607 0.46176
 O34 O 0.39228 -0.02158 0.51487
 O35 O 0.43919 -0.03078 0.40049
 O36 O 0.50021 -0.06194 0.58391
 Cu37 Cu 0.52784 0.06291 0.51739
 Cu38 Cu 0.47152 -0.05896 0.48703
 C39 C 0.54285 -0.02012 0.62417
 C40 C 0.45679 0.02359 0.37993
 C41 C 0.38846 0.03968 0.53901
 C42 C 0.61092 -0.03508 0.46505
 C43 C 0.55201 -0.07036 -0.13444
 C44 C 0.55975 -0.13325 -0.11117
 C45 C 0.54450 -0.14408 -0.04397
 C46 C 0.51865 -0.09115 0.00001
 C47 C 0.50976 -0.02759 -0.02360
 C48 C 0.52608 -0.01738 -0.09110
 C49 C 0.51629 0.04584 -0.11381
 C50 C 0.49302 0.09858 -0.07019
 C51 C 0.47621 0.08973 -0.00299
 C52 C 0.48494 0.02611 0.02058
 C53 C 0.50061 -0.10030 0.06673
 C54 C 0.47695 -0.04758 0.11028
 C55 C 0.46882 0.01603 0.08818
 C56 C 0.44486 0.06964 0.13223
 C57 C 0.43756 0.13260 0.10909
 C58 C 0.45168 0.14305 0.04147
 H59 H 0.52635 0.05550 -0.16575
 H60 H 0.48906 0.14648 -0.08977
 H61 H 0.50398 -0.14842 0.08593
 H62 H 0.46521 -0.05735 0.16165
 H63 H 0.58102 -0.17308 -0.14410
 H64 H 0.41789 0.17296 0.14273
 C65 C 0.05571 0.57084 0.88714
 C66 C 0.12247 0.58369 0.92362
 C67 C 0.14280 0.56154 0.98965
 C68 C 0.09523 0.52428 1.01993
 C69 C 0.02685 0.51182 0.98379
 C70 C 0.00704 0.53521 0.91725
 C71 C -0.06040 0.52073 0.88146
 C72 C -0.10792 0.48514 0.91091
 C73 C -0.08919 0.46045 0.97614
 C74 C -0.02131 0.47416 1.01318
 C75 C 0.11482 0.49600 1.08308
 C76 C 0.06700 0.46089 1.11295
 C77 C -0.00189 0.45138 1.08015
 C78 C -0.05170 0.41834 1.11157
 C79 C -0.11777 0.40374 1.07327
 C80 C -0.13712 0.42424 1.00650
 H81 H -0.07748 0.53655 0.83015
 H82 H -0.15938 0.47762 0.88145
 H83 H 0.16729 0.49935 1.11007
 H84 H 0.08508 0.43984 1.16120
 H85 H 0.15972 0.61014 0.89945
 H86 H -0.15649 0.37956 1.09763
 C87 C -0.03935 -0.14660 0.45956
 C88 C -0.11047 -0.13896 0.44170
 C89 C -0.13983 -0.07603 0.44842
 C90 C -0.09499 -0.01815 0.46910
 C91 C -0.02298 -0.02538 0.49066
 C92 C 0.00424 -0.08986 0.48869
 C93 C 0.07380 -0.09580 0.51798
 C94 C 0.11792 -0.03967 0.54049
 C95 C 0.09414 0.02484 0.53571
 C96 C 0.02212 0.03203 0.51424
 C97 C -0.11908 0.04654 0.46606
 C98 C -0.07509 0.10270 0.48939
 C99 C -0.00507 0.09648 0.51649
 C100 C 0.03893 0.15318 0.54380
 C101 C 0.11015 0.14569 0.56058
 C102 C 0.13926 0.08262 0.55507
 H103 H 0.09491 -0.14370 0.52602
 H104 H 0.17028 -0.04756 0.56371
 H105 H -0.17164 0.05467 0.44369
 H106 H -0.09652 0.15101 0.48394
 H107 H -0.14369 -0.18310 0.42226
 H108 H 0.14348 0.19003 0.57851
 N109 N -0.23538 0.39277 0.91133
 N110 N -0.30266 0.40262 0.90013
 C111 C -0.31803 0.43536 0.96164
 C112 C -0.25926 0.44489 1.01062
 N113 N -0.20877 0.41842 0.97722
 H114 H -0.25297 0.47139 1.06433
 N115 N 0.23924 0.58895 1.08776
 N116 N 0.30694 0.58151 1.09880
 C117 C 0.32449 0.55762 1.03490
 C118 C 0.26649 0.55128 0.98462
 N119 N 0.21426 0.56996 1.01974
 H120 H 0.26171 0.53029 0.92893
 N121 N 0.04865 -0.22501 0.42767
 N122 N 0.06222 -0.28885 0.42946
 C123 C 0.00670 -0.31766 0.44939
 C124 C -0.04142 -0.26992 0.45953
 N125 N -0.01244 -0.21228 0.44740
 H126 H -0.08985 -0.27531 0.47978
 N127 N -0.04417 0.23333 0.58396
 N128 N -0.05745 0.29738 0.58297
 C129 C -0.00666 0.32414 0.55350
 C130 C 0.03800 0.27502 0.53635
 N131 N 0.01224 0.21884 0.55514
 H132 H 0.08260 0.27883 0.50933
 N133 N 0.62530 -0.01349 -0.20127
 N134 N 0.62204 0.00413 -0.26592
 C135 C 0.56796 -0.03103 -0.30669
 C136 C 0.53860 -0.07169 -0.26523
 N137 N 0.57549 -0.05851 -0.19952
 H138 H 0.49060 -0.10133 -0.27902
 N139 N 0.36900 0.02161 0.20364
 N140 N 0.37134 0.00661 0.26931
 C141 C 0.43030 0.03555 0.30722
 C142 C 0.46407 0.06909 0.26294
 N143 N 0.42402 0.05913 0.19882
 H144 H 0.51533 0.09284 0.27427
 N145 N 0.60106 -0.21291 0.04157
 N146 N 0.60130 -0.27604 0.05400
 C147 C 0.55973 -0.31189 -0.00093
 C148 C 0.53385 -0.26847 -0.04783
 N149 N 0.56034 -0.20711 -0.01878
 H150 H 0.49644 -0.27959 -0.09576
 N151 N 0.39550 0.21330 -0.04277
 N152 N 0.39740 0.27627 -0.05558
 C153 C 0.44131 0.31094 -0.00175
 C154 C 0.46634 0.26702 0.04490
 N155 N 0.43703 0.20649 0.01678
 H156 H 0.50501 0.27710 0.09193
 N157 N -0.25372 -0.11938 0.38812
 N158 N -0.32017 -0.11172 0.39226
 C159 C -0.32392 -0.05932 0.44271
 C160 C -0.25720 -0.03526 0.46973
 N161 N -0.21456 -0.07371 0.43361
 H162 H -0.24147 0.00362 0.51413
 N163 N 0.25339 0.12586 0.61473
 N164 N 0.31979 0.11749 0.61084
 C165 C 0.32330 0.06437 0.56116
 C166 C 0.25640 0.04059 0.53434
 N167 N 0.21398 0.07997 0.56981
 H168 H 0.24041 0.00118 0.49053
 N169 N -0.06944 0.35397 1.20725
 N170 N -0.06330 0.36250 1.27777
 C171 C -0.02860 0.42152 1.30045
 C172 C -0.01397 0.44922 1.24194
 N173 N -0.03967 0.40515 1.18448
 H174 H 0.00754 0.49898 1.24103
 N175 N -0.00895 0.63165 0.79873
 N176 N -0.02176 0.62835 0.72840
 C177 C 0.02083 0.58323 0.70161
 C178 C 0.06005 0.55868 0.75760
 N179 N 0.03959 0.58985 0.81714
 H180 H 0.09457 0.51746 0.75517
   
