data_POSCAR
  _audit_creation_date              2014-09-24
  _audit_creation_method            'ToBaCCo'
  _symmetry_space_group_name_H-M    'P1'
  _symmetry_Int_Tables_number       1
  _symmetry_cell_setting            triclinic
  loop_
  _symmetry_equiv_pos_as_xyz
 x,y,z
_cell_length_a 62.4154
_cell_length_b 62.4020
_cell_length_c 62.4821
_cell_angle_alpha 90.040000
_cell_angle_beta 89.999500
_cell_angle_gamma 90.022200
loop_
  _atom_site_label
  _atom_site_type_symbol
  _atom_site_fract_x
  _atom_site_fract_y
  _atom_site_fract_z
C1 C 0.19182 0.21170 0.22199
 N2 N 0.19509 0.22511 0.20522
 C3 C 0.21182 0.22178 0.19175
 N4 N 0.22528 0.20503 0.19507
 C5 C 0.22202 0.19162 0.21184
 N6 N 0.20528 0.19496 0.22531
 C7 C 0.69168 0.71210 0.72186
 N8 N 0.70509 0.69531 0.72511
 C9 C 0.72184 0.69199 0.71166
 N10 N 0.72517 0.70547 0.69495
 C11 C 0.71176 0.72227 0.69170
 N12 N 0.69501 0.72558 0.70515
 C13 C 0.30771 0.78870 0.72218
 N14 N 0.29427 0.80548 0.72545
 C15 C 0.27753 0.80879 0.71199
 N16 N 0.27423 0.79531 0.69526
 C17 C 0.28766 0.77853 0.69198
 N18 N 0.30440 0.77522 0.70544
 C19 C 0.80876 0.28794 0.22232
 N20 N 0.80549 0.27446 0.20558
 C21 C 0.78876 0.27773 0.19211
 N22 N 0.77528 0.29448 0.19538
 C23 C 0.77854 0.30796 0.21212
 N24 N 0.79528 0.30469 0.22559
 C25 C 0.80850 0.71219 0.27802
 N26 N 0.80523 0.72569 0.29475
 C27 C 0.78850 0.72242 0.30822
 N28 N 0.77502 0.70566 0.30497
 C29 C 0.77828 0.69216 0.28825
 N30 N 0.79502 0.69543 0.27478
 C31 C 0.30832 0.21153 -0.22252
 N32 N 0.30499 0.22500 -0.20579
 C33 C 0.28819 0.22172 -0.19239
 N34 N 0.27473 0.20497 -0.19572
 C35 C 0.27805 0.19149 -0.21245
 N36 N 0.29485 0.19477 -0.22585
 C37 C 0.69206 0.28818 -0.22172
 N38 N 0.69541 0.27472 -0.20500
 C39 C 0.71220 0.27803 -0.19160
 N40 N 0.72564 0.29480 -0.19492
 C41 C 0.72230 0.30826 -0.21164
 N42 N 0.70550 0.30495 -0.22504
 C43 C 0.19220 0.78830 0.27768
 N44 N 0.20568 0.80504 0.27441
 C45 C 0.22239 0.80837 0.28791
 N46 N 0.22561 0.79494 0.30468
 C47 C 0.21213 0.77819 0.30795
 N48 N 0.19542 0.77487 0.29445
 C49 C 0.46173 0.44161 0.47231
 N50 N 0.47521 0.44488 0.45559
 C51 C 0.47195 0.46163 0.44214
 N52 N 0.45521 0.47512 0.44542
 C53 C 0.44174 0.47185 0.46215
 N54 N 0.44500 0.45509 0.47559
 C55 C -0.03801 -0.05781 0.97175
 N56 N -0.02455 -0.05449 0.95502
 C57 C -0.02785 -0.03773 0.94160
 N58 N -0.04461 -0.02428 0.94490
 C59 C -0.05808 -0.02760 0.96163
 N60 N -0.05478 -0.04436 0.97505
 C61 C 1.03780 0.55854 0.97208
 N62 N 1.02433 0.55523 0.95535
 C63 C 1.02759 0.53845 0.94191
 N64 N 1.04433 0.52498 0.94521
 C65 C 1.05781 0.52828 0.96193
 N66 N 1.05454 0.54506 0.97537
 C67 C 0.53844 0.05771 0.47231
 N68 N 0.55524 0.04430 0.47558
 C69 C 0.55861 0.02758 0.46209
 N70 N 0.54516 0.02426 0.44534
 C71 C 0.52836 0.03766 0.44208
 N72 N 0.52500 0.05438 0.45556
 C73 C -0.03844 0.05833 0.52805
 N74 N -0.05521 0.04487 0.52479
 C75 C -0.05848 0.02810 0.53822
 N76 N -0.04498 0.02481 0.55493
 C77 C -0.02821 0.03827 0.55819
 N78 N -0.02494 0.05503 0.54475
 C79 C 0.46189 0.55826 0.02808
 N80 N 0.47534 0.55496 0.04482
 C81 C 0.47204 0.53818 0.05823
 N82 N 0.45529 0.52471 0.05491
 C83 C 0.44184 0.52802 0.03817
 N84 N 0.44514 0.54479 0.02476
 C85 C 0.53816 -0.05857 0.02783
 N86 N 0.55493 -0.04511 0.02455
 C87 C 0.55828 -0.02839 0.03805
 N88 N 0.54485 -0.02513 0.05482
 C89 C 0.52808 -0.03857 0.05809
 N90 N 0.52473 -0.05529 0.04460
 C91 C 1.03764 0.44137 0.52758
 N92 N 1.05438 0.45487 0.52431
 C93 C 1.05769 0.47159 0.53781
 N94 N 1.04426 0.47482 0.55458
 C95 C 1.02752 0.46133 0.55786
 N96 N 1.02421 0.44461 0.54436
 C97 C 0.40783 0.00949 0.22136
 H98 H 0.40869 0.02404 0.23075
 C99 C 0.42180 0.00646 0.20416
 H100 H 0.43343 0.01873 0.20021
 C101 C 0.39183 -0.02444 0.21516
 H102 H 0.38038 -0.03659 0.21969
 C103 C 0.40551 -0.02811 0.19785
 H104 H 0.40440 -0.04299 0.18897
 N105 N 0.39306 -0.00575 0.22636
 C106 C 0.34235 0.02841 0.26025
 H107 H 0.34150 0.01903 0.27478
 C108 C 0.32839 0.04563 0.25722
 H109 H 0.31678 0.04961 0.26948
 C110 C 0.35831 0.03453 0.22634
 H111 H 0.36973 0.02996 0.21419
 C112 C 0.34464 0.05186 0.22267
 H113 H 0.34573 0.06072 0.20780
 Zn114 Zn 0.37507 -0.00053 0.25020
 N115 N 0.35710 0.02335 0.24501
 C116 C 0.39190 0.02336 0.28523
 N117 N 0.39307 0.00466 0.27404
 C118 C 0.40780 -0.01061 0.27904
 C119 C 0.42180 -0.00760 0.29623
 C120 C 0.40561 0.02701 0.30253
 C121 C 0.34228 -0.02939 0.24014
 C122 C 0.32828 -0.04659 0.24315
 C123 C 0.34452 -0.05291 0.27769
 C124 C 0.35823 -0.03559 0.27404
 N125 N 0.35704 -0.02438 0.25539
 H126 H 0.38049 0.03553 0.28071
 H127 H 0.40862 -0.02516 0.26965
 H128 H 0.43340 -0.01988 0.30017
 H129 H 0.40455 0.04190 0.31140
 H130 H 0.34144 -0.01999 0.22563
 H131 H 0.31665 -0.05054 0.23089
 H132 H 0.34560 -0.06179 0.29254
 H133 H 0.36967 -0.03106 0.28619
 C134 C 0.32959 0.05748 0.23828
 C135 C 0.42058 -0.01249 0.19228
 C136 C 0.32946 -0.05848 0.26207
 C137 C 0.42064 0.01137 0.30810
 C138 C 0.09266 -0.00981 0.72095
 H139 H 0.09182 -0.02434 0.73035
 C140 C 0.07864 -0.00682 0.70378
 H141 H 0.06701 -0.01910 0.69987
 C142 C 0.10862 0.02412 0.71471
 H143 H 0.12006 0.03629 0.71921
 C144 C 0.09489 0.02776 0.69743
 H145 H 0.09597 0.04262 0.68854
 N146 N 0.10742 0.00545 0.72592
 C147 C 0.15818 -0.02860 0.75979
 H148 H 0.15904 -0.01917 0.77431
 C149 C 0.17213 -0.04583 0.75679
 H150 H 0.18376 -0.04977 0.76904
 C151 C 0.14219 -0.03483 0.72591
 H152 H 0.13075 -0.03031 0.71377
 C153 C 0.15585 -0.05218 0.72227
 H154 H 0.15474 -0.06109 0.70742
 Zn155 Zn 0.12545 0.00029 0.74974
 N156 N 0.14342 -0.02360 0.74456
 C157 C 0.10865 -0.02353 0.78479
 N158 N 0.10746 -0.00486 0.77360
 C159 C 0.09273 0.01042 0.77861
 C160 C 0.07875 0.00743 0.79580
 C161 C 0.09495 -0.02717 0.80210
 C162 C 0.15821 0.02915 0.73962
 C163 C 0.17221 0.04636 0.74260
 C164 C 0.15601 0.05273 0.77716
 C165 C 0.14230 0.03540 0.77354
 N166 N 0.14347 0.02417 0.75489
 H167 H 0.12006 -0.03571 0.78026
 H168 H 0.09190 0.02496 0.76922
 H169 H 0.06714 0.01971 0.79975
 H170 H 0.09602 -0.04204 0.81097
 H171 H 0.15903 0.01973 0.72510
 H172 H 0.18382 0.05029 0.73033
 H173 H 0.15495 0.06164 0.79201
 H174 H 0.13088 0.03089 0.78570
 C175 C 0.17091 -0.05775 0.73787
 C176 C 0.07982 0.01212 0.69189
 C177 C 0.17105 0.05828 0.76153
 C178 C 0.07992 -0.01152 0.80768
 C179 C 0.59235 0.48984 0.22133
 H180 H 0.59150 0.47528 0.23069
 C181 C 0.57838 0.49286 0.20414
 H182 H 0.56676 0.48059 0.20016
 C183 C 0.60830 0.52380 0.21522
 H184 H 0.61972 0.53597 0.21978
 C185 C 0.59461 0.52747 0.19792
 H186 H 0.59570 0.54236 0.18907
 N187 N 0.60709 0.50510 0.22638
 C188 C 0.65786 0.47104 0.26022
 H189 H 0.65870 0.48043 0.27476
 C190 C 0.67185 0.45384 0.25719
 H191 H 0.68348 0.44990 0.26944
 C192 C 0.64190 0.46484 0.22631
 H193 H 0.63047 0.46937 0.21417
 C194 C 0.65561 0.44753 0.22264
 H195 H 0.65453 0.43865 0.20777
 Zn196 Zn 0.62509 0.49989 0.25021
 N197 N 0.64310 0.47604 0.24499
 C198 C 0.60830 0.47596 0.28519
 N199 N 0.60710 0.49466 0.27404
 C200 C 0.59235 0.50991 0.27909
 C201 C 0.57837 0.50686 0.29628
 C202 C 0.59462 0.47227 0.30249
 C203 C 0.65784 0.52880 0.24020
 C204 C 0.67181 0.54602 0.24322
 C205 C 0.65556 0.55232 0.27777
 C206 C 0.64188 0.53497 0.27410
 N207 N 0.64309 0.52377 0.25543
 H208 H 0.61974 0.46381 0.28063
 H209 H 0.59150 0.52446 0.26973
 H210 H 0.56675 0.51912 0.30026
 H211 H 0.59571 0.45738 0.31133
 H212 H 0.65869 0.51940 0.22567
 H213 H 0.68343 0.54998 0.23097
 H214 H 0.65447 0.56120 0.29263
 H215 H 0.63044 0.53043 0.28624
 C216 C 0.67067 0.44196 0.23824
 C217 C 0.57957 0.51183 0.19230
 C218 C 0.67061 0.55791 0.26216
 C219 C 0.57957 0.48788 0.30811
 C220 C 0.90731 0.50952 0.72109
 H221 H 0.90817 0.52410 0.73045
 C222 C 0.92128 0.50646 0.70390
 H223 H 0.93290 0.51872 0.69992
 C224 C 0.89134 0.47556 0.71500
 H225 H 0.87991 0.46341 0.71956
 C226 C 0.90502 0.47185 0.69769
 H227 H 0.90392 0.45695 0.68885
 N228 N 0.89256 0.49428 0.72614
 C229 C 0.84181 0.52849 0.75992
 H230 H 0.84095 0.51914 0.77447
 C231 C 0.82786 0.54571 0.75686
 H232 H 0.81624 0.54972 0.76910
 C233 C 0.85778 0.53455 0.72600
 H234 H 0.86922 0.52997 0.71387
 C235 C 0.84412 0.55188 0.72230
 H236 H 0.84523 0.56072 0.70742
 Zn237 Zn 0.87456 0.49956 0.74997
 N238 N 0.85656 0.52341 0.74470
 C239 C 0.89135 0.52360 0.78491
 N240 N 0.89255 0.50486 0.77379
 C241 C 0.90730 0.48963 0.77887
 C242 C 0.92126 0.49272 0.79606
 C243 C 0.90502 0.52733 0.80222
 C244 C 0.84180 0.47063 0.74000
 C245 C 0.82783 0.45342 0.74307
 C246 C 0.84408 0.44724 0.77762
 C247 C 0.85776 0.46457 0.77392
 N248 N 0.85655 0.47571 0.75523
 H249 H 0.87992 0.53574 0.78033
 H250 H 0.90814 0.47504 0.76954
 H251 H 0.93288 0.48046 0.80007
 H252 H 0.90393 0.54225 0.81103
 H253 H 0.84095 0.47998 0.72545
 H254 H 0.81621 0.44941 0.73082
 H255 H 0.84517 0.43841 0.79250
 H256 H 0.86919 0.46915 0.78605
 C257 C 0.82908 0.55754 0.73790
 C258 C 0.92008 0.48747 0.69207
 C259 C 0.82903 0.44159 0.76203
 C260 C 0.92006 0.51173 0.80787
 C261 C 0.22084 0.40752 0.00981
 H262 H 0.23023 0.40834 0.02434
 C263 C 0.20364 0.42152 0.00683
 H264 H 0.19969 0.43312 0.01911
 C265 C 0.21465 0.39162 -0.02413
 H266 H 0.21918 0.38020 -0.03630
 C267 C 0.19734 0.40533 -0.02776
 H268 H 0.18846 0.40427 -0.04262
 N269 N 0.22585 0.39279 -0.00546
 C270 C 0.25977 0.34200 0.02849
 H271 H 0.27431 0.34117 0.01910
 C272 C 0.25676 0.32801 0.04567
 H273 H 0.26903 0.31640 0.04961
 C274 C 0.22582 0.35793 0.03469
 H275 H 0.21366 0.36936 0.03018
 C276 C 0.22217 0.34423 0.05199
 H277 H 0.20730 0.34531 0.06087
 Zn278 Zn 0.24971 0.37478 -0.00030
 N279 N 0.24451 0.35675 0.02350
 C280 C 0.28476 0.39157 0.02360
 N281 N 0.27357 0.39279 0.00494
 C282 C 0.27859 0.40757 -0.01027
 C283 C 0.29580 0.42155 -0.00723
 C284 C 0.30209 0.40527 0.02729
 C285 C 0.23966 0.34207 -0.02924
 C286 C 0.24270 0.32811 -0.04646
 C287 C 0.27730 0.34437 -0.05267
 C288 C 0.27362 0.35804 -0.03534
 N289 N 0.25492 0.35682 -0.02418
 H290 H 0.28022 0.38012 0.03573
 H291 H 0.26920 0.40842 -0.02480
 H292 H 0.29975 0.43319 -0.01946
 H293 H 0.31096 0.40417 0.04215
 H294 H 0.22511 0.34121 -0.01988
 H295 H 0.23043 0.31649 -0.05045
 H296 H 0.29219 0.34547 -0.06151
 H297 H 0.28578 0.36946 -0.03076
 C298 C 0.23781 0.32919 0.05755
 C299 C 0.19176 0.42036 -0.01211
 C300 C 0.26167 0.32932 -0.05830
 C301 C 0.30767 0.42034 0.01171
 C302 C 0.72173 0.09185 -0.01008
 H303 H 0.73111 0.09102 -0.02462
 C304 C 0.70451 0.07787 -0.00706
 H305 H 0.70053 0.06627 -0.01934
 C306 C 0.71562 0.10777 0.02387
 H307 H 0.72018 0.11919 0.03603
 C308 C 0.69828 0.09408 0.02752
 H309 H 0.68943 0.09516 0.04240
 N310 N 0.72679 0.10658 0.00518
 C311 C 0.76066 0.15739 -0.02883
 H312 H 0.77522 0.15823 -0.01946
 C313 C 0.75761 0.17139 -0.04598
 H314 H 0.76988 0.18303 -0.04993
 C315 C 0.72671 0.14143 -0.03498
 H316 H 0.71456 0.12998 -0.03045
 C317 C 0.72302 0.15514 -0.05225
 H318 H 0.70813 0.15406 -0.06110
 Zn319 Zn 0.75064 0.12460 -0.00002
 N320 N 0.74541 0.14262 -0.02382
 C321 C 0.78567 0.10784 -0.02395
 N322 N 0.77451 0.10661 -0.00527
 C323 C 0.77956 0.09186 0.00994
 C324 C 0.79677 0.07789 0.00687
 C325 C 0.80299 0.09416 -0.02766
 C326 C 0.74061 0.15733 0.02889
 C327 C 0.74364 0.17130 0.04610
 C328 C 0.77822 0.15506 0.05235
 C329 C 0.77456 0.14138 0.03502
 N330 N 0.75587 0.14259 0.02384
 H331 H 0.78111 0.11928 -0.03608
 H332 H 0.77019 0.09099 0.02448
 H333 H 0.80075 0.06626 0.01911
 H334 H 0.81184 0.09526 -0.04254
 H335 H 0.72606 0.15817 0.01951
 H336 H 0.73136 0.18291 0.05008
 H337 H 0.79310 0.15398 0.06121
 H338 H 0.78672 0.12996 0.03046
 C339 C 0.73864 0.17021 -0.05782
 C340 C 0.69266 0.07905 0.01189
 C341 C 0.76259 0.17010 0.05796
 C342 C 0.80861 0.07910 -0.01208
 C343 C 0.22081 0.59237 0.48991
 H344 H 0.23023 0.59153 0.47541
 C345 C 0.20361 0.57837 0.49290
 H346 H 0.19968 0.56674 0.48063
 C347 C 0.21455 0.60834 0.52381
 H348 H 0.21906 0.61978 0.53597
 C349 C 0.19723 0.59463 0.52743
 H350 H 0.18833 0.59571 0.54228
 N351 N 0.22579 0.60714 0.50517
 C352 C 0.25979 0.65789 0.47120
 H353 H 0.27431 0.65874 0.48061
 C354 C 0.25681 0.67186 0.45400
 H355 H 0.26909 0.68348 0.45007
 C356 C 0.22586 0.64193 0.46495
 H357 H 0.21368 0.63049 0.46946
 C358 C 0.22223 0.65561 0.44764
 H359 H 0.20738 0.65451 0.43874
 Zn360 Zn 0.24966 0.62515 0.50003
 N361 N 0.24452 0.64314 0.47618
 C362 C 0.28477 0.60834 0.47624
 N363 N 0.27354 0.60715 0.49488
 C364 C 0.27852 0.59241 0.51013
 C365 C 0.29573 0.57843 0.50715
 C366 C 0.30209 0.59464 0.47261
 C367 C 0.23955 0.65792 0.52887
 C368 C 0.24254 0.67192 0.54606
 C369 C 0.27712 0.65570 0.55240
 C370 C 0.27348 0.64199 0.53509
 N371 N 0.25482 0.64317 0.52388
 H372 H 0.28025 0.61976 0.46408
 H373 H 0.26910 0.59158 0.52464
 H374 H 0.29966 0.56682 0.51942
 H375 H 0.31100 0.59571 0.45776
 H376 H 0.22502 0.65874 0.51946
 H377 H 0.23026 0.68353 0.54999
 H378 H 0.29198 0.65463 0.56129
 H379 H 0.28566 0.63056 0.53057
 C380 C 0.23788 0.67066 0.44209
 C381 C 0.19169 0.57956 0.51181
 C382 C 0.26148 0.67075 0.55795
 C383 C 0.30765 0.57960 0.48823
 C384 C 0.72125 0.90847 0.51014
 H385 H 0.73062 0.90934 0.52469
 C386 C 0.70402 0.92241 0.50711
 H387 H 0.70002 0.93403 0.51937
 C388 C 0.71516 0.89250 0.47622
 H389 H 0.71974 0.88107 0.46407
 C390 C 0.69782 0.90615 0.47254
 H391 H 0.68897 0.90504 0.45766
 N392 N 0.72633 0.89373 0.49490
 C393 C 0.76023 0.84301 0.52898
 H394 H 0.77479 0.84219 0.51963
 C395 C 0.75718 0.82902 0.54615
 H396 H 0.76945 0.81741 0.55012
 C397 C 0.72626 0.85892 0.53510
 H398 H 0.71410 0.87034 0.53055
 C399 C 0.72257 0.84522 0.55238
 H400 H 0.70767 0.84628 0.56122
 Zn401 Zn 0.75020 0.87575 0.50013
 N402 N 0.74497 0.85775 0.52395
 C403 C 0.78521 0.89259 0.52406
 N404 N 0.77404 0.89378 0.50537
 C405 C 0.77909 0.90853 0.49014
 C406 C 0.79630 0.92251 0.49319
 C407 C 0.80253 0.90629 0.52774
 C408 C 0.74021 0.84298 0.47126
 C409 C 0.74325 0.82899 0.45406
 C410 C 0.77783 0.84527 0.44782
 C411 C 0.77414 0.85896 0.46513
 N412 N 0.75545 0.85775 0.47629
 H413 H 0.78065 0.88117 0.53620
 H414 H 0.76972 0.90936 0.47560
 H415 H 0.80028 0.93412 0.48093
 H416 H 0.81139 0.90521 0.54262
 H417 H 0.72565 0.84212 0.48062
 H418 H 0.73099 0.81736 0.45009
 H419 H 0.79272 0.84637 0.43897
 H420 H 0.78629 0.87041 0.46968
 C421 C 0.73820 0.83018 0.55798
 C422 C 0.69217 0.92119 0.48815
 C423 C 0.76222 0.83020 0.44221
 C424 C 0.80815 0.92133 0.51214
 C425 C 0.00971 0.22150 0.40768
 H426 H 0.02425 0.23091 0.40854
 C427 C 0.00667 0.20431 0.42166
 H428 H 0.01893 0.20038 0.43329
 C429 C -0.02421 0.21529 0.39171
 H430 H -0.03635 0.21980 0.38027
 C431 C -0.02789 0.19798 0.40539
 H432 H -0.04276 0.18909 0.40430
 N433 N -0.00552 0.22649 0.39293
 C434 C 0.02864 0.26034 0.34225
 H435 H 0.01927 0.27489 0.34138
 C436 C 0.04586 0.25729 0.32830
 H437 H 0.04984 0.26954 0.31669
 C438 C 0.03477 0.22641 0.35821
 H439 H 0.03020 0.21427 0.36963
 C440 C 0.05210 0.22272 0.34456
 H441 H 0.06096 0.20783 0.34566
 Zn442 Zn -0.00030 0.25034 0.37493
 N443 N 0.02359 0.24511 0.35699
 C444 C 0.02357 0.28543 0.39173
 N445 N 0.00488 0.27423 0.39290
 C446 C -0.01040 0.27927 0.40761
 C447 C -0.00739 0.29648 0.42158
 C448 C 0.02723 0.30276 0.40541
 C449 C -0.02912 0.24021 0.34218
 C450 C -0.04631 0.24319 0.32818
 C451 C -0.05264 0.27780 0.34436
 C452 C -0.03534 0.27418 0.35807
 N453 N -0.02413 0.25550 0.35691
 H454 H 0.03575 0.28088 0.38033
 H455 H -0.02495 0.26987 0.40843
 H456 H -0.01967 0.30044 0.43318
 H457 H 0.04211 0.31163 0.40436
 H458 H -0.01972 0.22567 0.34137
 H459 H -0.05024 0.23089 0.31658
 H460 H -0.06153 0.29268 0.34541
 H461 H -0.03082 0.28636 0.36949
 C462 C 0.05772 0.23832 0.32952
 C463 C -0.01228 0.19242 0.42045
 C464 C -0.05820 0.26214 0.32933
 C465 C 0.01158 0.30836 0.42043
 C466 C -0.00989 0.72097 0.09174
 H467 H -0.02443 0.73037 0.09093
 C468 C -0.00692 0.70375 0.07777
 H469 H -0.01922 0.69979 0.06619
 C470 C 0.02408 0.71479 0.10760
 H471 H 0.03627 0.71933 0.11899
 C472 C 0.02770 0.69745 0.09391
 H473 H 0.04257 0.68857 0.09496
 N474 N 0.00540 0.72600 0.10644
 C475 C -0.02853 0.75999 0.15721
 H476 H -0.01911 0.77453 0.15803
 C477 C -0.04570 0.75700 0.17122
 H478 H -0.04961 0.76928 0.18284
 C479 C -0.03480 0.72604 0.14129
 H480 H -0.03031 0.71386 0.12986
 C481 C -0.05209 0.72240 0.15501
 H482 H -0.06099 0.70753 0.15395
 Zn483 Zn 0.00026 0.74988 0.12443
 N484 N -0.02357 0.74471 0.14246
 C485 C -0.02362 0.78496 0.10771
 N486 N -0.00495 0.77375 0.10646
 C487 C 0.01028 0.77876 0.09170
 C488 C 0.00725 0.79598 0.07776
 C489 C -0.02730 0.80229 0.09406
 C490 C 0.02919 0.73983 0.15709
 C491 C 0.04640 0.74287 0.17105
 C492 C 0.05269 0.77745 0.15482
 C493 C 0.03536 0.77378 0.14116
 N494 N 0.02416 0.75509 0.14237
 H495 H -0.03577 0.78043 0.11915
 H496 H 0.02481 0.76935 0.09082
 H497 H 0.01950 0.79993 0.06613
 H498 H -0.04216 0.81119 0.09519
 H499 H 0.01979 0.72529 0.15795
 H500 H 0.05036 0.73061 0.18266
 H501 H 0.06157 0.79234 0.15374
 H502 H 0.03082 0.78593 0.12974
 C503 C -0.05761 0.73805 0.17006
 C504 C 0.01203 0.69186 0.07891
 C505 C 0.05828 0.76184 0.16986
 C506 C -0.01169 0.80788 0.07900
 C507 C 0.48974 0.22076 0.59282
 H508 H 0.47519 0.23013 0.59197
 C509 C 0.49280 0.20355 0.57886
 H510 H 0.48055 0.19956 0.56723
 C511 C 0.52368 0.21465 0.60879
 H512 H 0.53582 0.21922 0.62022
 C513 C 0.52738 0.19733 0.59511
 H514 H 0.54227 0.18848 0.59620
 N515 N 0.50498 0.22581 0.60757
 C516 C 0.47079 0.25973 0.65822
 H517 H 0.48015 0.27430 0.65907
 C518 C 0.45357 0.25668 0.67217
 H519 H 0.44958 0.26896 0.68377
 C520 C 0.46469 0.22575 0.64230
 H521 H 0.46927 0.21358 0.63089
 C522 C 0.44736 0.22206 0.65596
 H523 H 0.43852 0.20716 0.65488
 Zn524 Zn 0.49973 0.24969 0.62554
 N525 N 0.47585 0.24446 0.64350
 C526 C 0.47581 0.28470 0.60872
 N527 N 0.49451 0.27353 0.60755
 C528 C 0.50978 0.27855 0.59282
 C529 C 0.50675 0.29574 0.57884
 C530 C 0.47214 0.30200 0.59502
 C531 C 0.52861 0.23972 0.65828
 C532 C 0.54581 0.24278 0.67224
 C533 C 0.55206 0.27736 0.65601
 C534 C 0.53474 0.27366 0.64234
 N535 N 0.52357 0.25495 0.64354
 H536 H 0.46365 0.28016 0.62013
 H537 H 0.52433 0.26918 0.59200
 H538 H 0.51903 0.29969 0.56724
 H539 H 0.45726 0.31086 0.59608
 H540 H 0.51923 0.22516 0.65913
 H541 H 0.54979 0.23052 0.68385
 H542 H 0.56093 0.29225 0.65492
 H543 H 0.53019 0.28580 0.63091
 C544 C 0.44173 0.23769 0.67098
 C545 C 0.51178 0.19170 0.58006
 C546 C 0.55767 0.26175 0.67104
 C547 C 0.48778 0.30759 0.58000
 C548 C 0.50991 0.72160 0.90786
 H549 H 0.52445 0.73101 0.90869
 C550 C 0.50691 0.70439 0.92182
 H551 H 0.51919 0.70045 0.93341
 C552 C 0.47595 0.71540 0.89196
 H553 H 0.46378 0.71993 0.88055
 C554 C 0.47231 0.69807 0.90563
 H555 H 0.45743 0.68918 0.90456
 N556 N 0.49463 0.72661 0.89314
 C557 C 0.52867 0.76055 0.84243
 H558 H 0.51928 0.77510 0.84162
 C559 C 0.54585 0.75753 0.82844
 H560 H 0.54980 0.76980 0.81684
 C561 C 0.53484 0.72660 0.85833
 H562 H 0.53031 0.71443 0.86975
 C563 C 0.55215 0.72293 0.84463
 H564 H 0.56102 0.70805 0.84569
 Zn565 Zn 0.49981 0.75048 0.87517
 N566 N 0.52366 0.74529 0.85716
 C567 C 0.52372 0.78554 0.89197
 N568 N 0.50503 0.77435 0.89317
 C569 C 0.48979 0.77936 0.90792
 C570 C 0.49284 0.79656 0.92191
 C571 C 0.52741 0.80286 0.90567
 C572 C 0.47089 0.74041 0.84248
 C573 C 0.45368 0.74343 0.82853
 C574 C 0.44741 0.77803 0.84477
 C575 C 0.46474 0.77437 0.85843
 N576 N 0.47593 0.75568 0.85722
 H577 H 0.53587 0.78101 0.88053
 H578 H 0.47525 0.76997 0.90876
 H579 H 0.48058 0.80051 0.93354
 H580 H 0.54229 0.81173 0.90459
 H581 H 0.48028 0.72587 0.84163
 H582 H 0.44971 0.73115 0.81692
 H583 H 0.43855 0.79291 0.84586
 H584 H 0.46930 0.78653 0.86986
 C585 C 0.55772 0.73856 0.82960
 C586 C 0.48795 0.69250 0.92064
 C587 C 0.44181 0.76239 0.82973
 C588 C 0.51180 0.80844 0.92073
 C589 C 0.14153 0.22171 0.26238
 N590 N 0.12625 0.23637 0.25750
 N591 N 0.10979 0.23964 0.27069
 C592 C 0.10812 0.22836 0.28916
 N593 N 0.12340 0.21370 0.29404
 N594 N 0.13985 0.21043 0.28085
 C595 C 0.15924 0.21818 0.24817
 C596 C 0.17411 0.21522 0.23622
 C597 C 0.09040 0.23187 0.30336
 C598 C 0.07550 0.23482 0.31528
 C599 C 0.64141 0.72206 0.76228
 N600 N 0.63612 0.70711 0.77711
 N601 N 0.61969 0.71036 0.79034
 C602 C 0.60805 0.72867 0.78913
 N603 N 0.61333 0.74362 0.77429
 N604 N 0.62977 0.74037 0.76107
 C605 C 0.65910 0.71855 0.74804
 C606 C 0.67397 0.71561 0.73608
 C607 C 0.59035 0.73216 0.80336
 C608 C 0.57547 0.73509 0.81532
 C609 C 0.35800 0.77880 0.76256
 N610 N 0.36420 0.75861 0.76765
 N611 N 0.38066 0.75538 0.78085
 C612 C 0.39142 0.77224 0.78935
 N613 N 0.38522 0.79244 0.78426
 N614 N 0.36876 0.79567 0.77106
 C615 C 0.34029 0.78228 0.74835
 C616 C 0.32541 0.78520 0.73640
 C617 C 0.40914 0.76877 0.80355
 C618 C 0.42403 0.76586 0.81549
 C619 C -0.14192 0.27834 0.26201
 N620 N -0.12973 0.29507 0.26864
 N621 N -0.11328 0.29188 0.28186
 C622 C -0.10854 0.27187 0.28885
 N623 N -0.12073 0.25514 0.28222
 N624 N -0.13717 0.25833 0.26900
 C625 C -0.15962 0.28177 0.24777
 C626 C -0.17450 0.28467 0.23580
 C627 C -0.09083 0.26843 0.30309
 C628 C -0.07596 0.26556 0.31505
 C629 C -0.14125 0.72192 0.23753
 N630 N -0.13505 0.74209 0.23232
 N631 N -0.11862 0.74525 0.21907
 C632 C -0.10790 0.72834 0.21063
 N633 N -0.11410 0.70817 0.21584
 N634 N -0.13053 0.70501 0.22909
 C635 C -0.15894 0.71851 0.25180
 C636 C -0.17381 0.71564 0.26377
 C637 C -0.09021 0.73174 0.19635
 C638 C -0.07535 0.73461 0.18437
 C639 C 0.35781 0.22121 0.73801
 N640 N 0.36399 0.24141 0.73290
 N641 N 0.38048 0.24465 0.71974
 C642 C 0.39129 0.22779 0.71130
 N643 N 0.38510 0.20759 0.71641
 N644 N 0.36861 0.20435 0.72956
 C645 C 0.34005 0.21772 0.75217
 C646 C 0.32513 0.21480 0.76407
 C647 C 0.40904 0.23128 0.69713
 C648 C 0.42394 0.23420 0.68522
 C649 C 0.64162 0.27825 0.73806
 N650 N 0.63599 0.29342 0.72357
 N651 N 0.61949 0.29018 0.71042
 C652 C 0.60813 0.27167 0.71136
 N653 N 0.61375 0.25651 0.72584
 N654 N 0.63025 0.25975 0.73900
 C655 C 0.65938 0.28174 0.75221
 C656 C 0.67430 0.28467 0.76411
 C657 C 0.59037 0.26818 0.69719
 C658 C 0.57546 0.26525 0.68528
 C659 C 0.14199 0.77834 0.23716
 N660 N 0.13238 0.75887 0.23611
 N661 N 0.11594 0.75562 0.22288
 C662 C 0.10863 0.77175 0.21030
 N663 N 0.11825 0.79121 0.21135
 N664 N 0.13468 0.79446 0.22458
 C665 C 0.15968 0.78184 0.25142
 C666 C 0.17453 0.78479 0.26340
 C667 C 0.09093 0.76825 0.19607
 C668 C 0.07605 0.76532 0.18412
 C669 C 0.26240 0.14131 0.22180
 N670 N 0.28376 0.14463 0.22411
 N671 N 0.29695 0.12817 0.22736
 C672 C 0.28920 0.10789 0.22839
 N673 N 0.26785 0.10457 0.22609
 N674 N 0.25465 0.12103 0.22284
 C675 C 0.24819 0.15903 0.21829
 C676 C 0.23625 0.17391 0.21534
 C677 C 0.30341 0.09016 0.23188
 C678 C 0.31534 0.07526 0.23480
 C679 C 0.76209 0.64153 0.72147
 N680 N 0.75427 0.62128 0.72248
 N681 N 0.76743 0.60477 0.72570
 C682 C 0.78879 0.60803 0.72801
 N683 N 0.79660 0.62829 0.72699
 N684 N 0.78345 0.64479 0.72377
 C685 C 0.74792 0.65930 0.71800
 C686 C 0.73602 0.67423 0.71510
 C687 C 0.80295 0.59026 0.73148
 C688 C 0.81486 0.57534 0.73440
 C689 C 0.76188 0.35769 0.77859
 N690 N 0.75410 0.37795 0.77750
 N691 N 0.76729 0.39443 0.77424
 C692 C 0.78865 0.39115 0.77198
 N693 N 0.79643 0.37089 0.77307
 N694 N 0.78324 0.35441 0.77633
 C695 C 0.74768 0.33994 0.78209
 C696 C 0.73575 0.32504 0.78504
 C697 C 0.80284 0.40889 0.76847
 C698 C 0.81478 0.42380 0.76553
 C699 C 0.26210 -0.14226 0.27833
 N700 N 0.25532 -0.12463 0.26761
 N701 N 0.26855 -0.10817 0.26442
 C702 C 0.28896 -0.10886 0.27184
 N703 N 0.29574 -0.12649 0.28256
 N704 N 0.28250 -0.14295 0.28575
 C705 C 0.24785 -0.15999 0.28176
 C706 C 0.23588 -0.17487 0.28465
 C707 C 0.30321 -0.09114 0.26840
 C708 C 0.31518 -0.07626 0.26551
 C709 C 0.23799 -0.14174 0.72164
 N710 N 0.24548 -0.12314 0.73003
 N711 N 0.23230 -0.10665 0.73323
 C712 C 0.21124 -0.10825 0.72813
 N713 N 0.20375 -0.12685 0.71974
 N714 N 0.21692 -0.14335 0.71654
 C715 C 0.25217 -0.15950 0.71818
 C716 C 0.26410 -0.17441 0.71526
 C717 C 0.19707 -0.09048 0.73155
 C718 C 0.18515 -0.07556 0.73443
 C719 C 0.73806 0.35824 0.22192
 N720 N 0.74382 0.37463 0.23497
 N721 N 0.73058 0.39107 0.23818
 C722 C 0.71117 0.39162 0.22842
 N723 N 0.70541 0.37522 0.21537
 N724 N 0.71865 0.35878 0.21217
 C725 C 0.75232 0.34054 0.21846
 C726 C 0.76430 0.32567 0.21557
 C727 C 0.69692 0.40932 0.23187
 C728 C 0.68495 0.42420 0.23477
 C729 C 0.73786 0.64180 0.27848
 N730 N 0.74273 0.62646 0.26388
 N731 N 0.72952 0.60998 0.26068
 C732 C 0.71104 0.60835 0.27198
 N733 N 0.70616 0.62369 0.28657
 N734 N 0.71937 0.64017 0.28978
 C735 C 0.75208 0.65954 0.28192
 C736 C 0.76404 0.67444 0.28481
 C737 C 0.69681 0.59062 0.26852
 C738 C 0.68486 0.57571 0.26562
 C739 C 0.23837 0.14212 0.77780
 N740 N 0.24580 0.12353 0.76933
 N741 N 0.23257 0.10706 0.76612
 C742 C 0.21153 0.10869 0.77127
 N743 N 0.20410 0.12728 0.77974
 N744 N 0.21733 0.14375 0.78295
 C745 C 0.25262 0.15984 0.78128
 C746 C 0.26458 0.17472 0.78422
 C747 C 0.19729 0.09096 0.76783
 C748 C 0.18533 0.07606 0.76495
 C749 C 0.22159 0.26205 0.14137
 N750 N 0.23754 0.25819 0.12714
 N751 N 0.24072 0.27137 0.11067
 C752 C 0.22805 0.28881 0.10793
 N753 N 0.21210 0.29267 0.12216
 N754 N 0.20891 0.27949 0.13863
 C755 C 0.21815 0.24786 0.15910
 C756 C 0.21527 0.23595 0.17401
 C757 C 0.23148 0.30300 0.09020
 C758 C 0.23437 0.31494 0.07531
 C759 C 0.72172 0.76276 0.64153
 N760 N 0.71125 0.78178 0.64051
 N761 N 0.71449 0.79503 0.62411
 C762 C 0.72830 0.78966 0.60822
 N763 N 0.73877 0.77065 0.60924
 N764 N 0.73553 0.75740 0.62565
 C765 C 0.71822 0.74850 0.65919
 C766 C 0.71527 0.73652 0.67403
 C767 C 0.73178 0.80392 0.59056
 C768 C 0.73470 0.81589 0.57571
 C769 C 0.77868 0.76292 0.35847
 N770 N 0.76512 0.77979 0.35654
 N771 N 0.76189 0.79301 0.37298
 C772 C 0.77212 0.78977 0.39185
 N773 N 0.78568 0.77290 0.39378
 N774 N 0.78891 0.75968 0.37734
 C775 C 0.78214 0.74867 0.34077
 C776 C 0.78505 0.73669 0.32591
 C777 C 0.76863 0.80400 0.40956
 C778 C 0.76570 0.81594 0.42444
 C779 C 0.27822 0.26212 -0.14210
 N780 N 0.26466 0.27899 -0.14402
 N781 N 0.26140 0.29219 -0.12757
 C782 C 0.27160 0.28892 -0.10868
 N783 N 0.28517 0.27206 -0.10676
 N784 N 0.28843 0.25885 -0.12321
 C785 C 0.28173 0.24791 -0.15981
 C786 C 0.28468 0.23596 -0.17469
 C787 C 0.26810 0.30313 -0.09097
 C788 C 0.26516 0.31507 -0.07608
 C789 C 0.72218 0.23758 -0.14140
 N790 N 0.73719 0.24218 -0.12640
 N791 N 0.74043 0.22895 -0.10998
 C792 C 0.72875 0.21072 -0.10808
 N793 N 0.71373 0.20611 -0.12308
 N794 N 0.71050 0.21935 -0.13950
 C795 C 0.71868 0.25183 -0.15907
 C796 C 0.71573 0.26379 -0.17392
 C797 C 0.73222 0.19648 -0.09039
 C798 C 0.73514 0.18450 -0.07555
 C799 C 0.22180 0.73785 0.35829
 N800 N 0.20783 0.72168 0.36226
 N801 N 0.21098 0.70848 0.37872
 C802 C 0.22821 0.71106 0.39171
 N803 N 0.24218 0.72723 0.38774
 N804 N 0.23902 0.74042 0.37128
 C805 C 0.21839 0.75206 0.34058
 C806 C 0.21553 0.76399 0.32568
 C807 C 0.23160 0.69685 0.40944
 C808 C 0.23446 0.68491 0.42433
 C809 C 0.27778 0.73809 0.64169
 N810 N 0.28785 0.74148 0.62276
 N811 N 0.28464 0.72826 0.60631
 C812 C 0.27125 0.71124 0.60830
 N813 N 0.26118 0.70786 0.62723
 N814 N 0.26439 0.72108 0.64368
 C815 C 0.28125 0.75233 0.65940
 C816 C 0.28417 0.76429 0.67428
 C817 C 0.26780 0.69700 0.59059
 C818 C 0.26491 0.68504 0.57571
 C819 C 0.77896 0.23730 0.14180
 N820 N 0.78906 0.24069 0.12288
 N821 N 0.78584 0.22749 0.10641
 C822 C 0.77243 0.21049 0.10837
 N823 N 0.76234 0.20710 0.12729
 N824 N 0.76555 0.22030 0.14376
 C825 C 0.78241 0.25152 0.15952
 C826 C 0.78531 0.26348 0.17440
 C827 C 0.76896 0.19628 0.09065
 C828 C 0.76605 0.18435 0.07575
 C829 C 0.47151 0.39130 0.51270
 N830 N 0.48897 0.39082 0.52561
 N831 N 0.49216 0.37438 0.53883
 C832 C 0.47799 0.35791 0.53954
 N833 N 0.46052 0.35839 0.52663
 N834 N 0.45733 0.37484 0.51341
 C835 C 0.46807 0.40901 0.49847
 C836 C 0.46517 0.42389 0.48653
 C837 C 0.48142 0.34021 0.55377
 C838 C 0.48431 0.32534 0.56573
 C839 C -0.02811 0.89181 0.01202
 N840 N -0.01718 0.87430 0.00524
 N841 N -0.01395 0.85781 0.01839
 C842 C -0.02154 0.85834 0.03873
 N843 N -0.03247 0.87586 0.04551
 N844 N -0.03570 0.89235 0.03235
 C845 C -0.03160 0.90956 -0.00215
 C846 C -0.03453 0.92446 -0.01406
 C847 C -0.01808 0.84058 0.05288
 C848 C -0.01516 0.82567 0.06479
 C849 C 0.02821 0.60797 0.01169
 N850 N 0.04408 0.61467 0.02494
 N851 N 0.04089 0.63115 0.03814
 C852 C 0.02175 0.64142 0.03849
 N853 N 0.00589 0.63472 0.02524
 N854 N 0.00907 0.61825 0.01204
 C855 C 0.03164 0.59023 -0.00253
 C856 C 0.03453 0.57533 -0.01447
 C857 C 0.01832 0.65916 0.05271
 C858 C 0.01545 0.67407 0.06465
 C859 C 0.52839 0.10795 0.51278
 N860 N 0.54140 0.11105 0.52989
 N861 N 0.53813 0.12750 0.54311
 C862 C 0.52175 0.14134 0.53962
 N863 N 0.50874 0.13824 0.52251
 N864 N 0.51201 0.12179 0.50928
 C865 C 0.53192 0.09025 0.49854
 C866 C 0.53490 0.07539 0.48657
 C867 C 0.51823 0.15905 0.55385
 C868 C 0.51529 0.17393 0.56580
 C869 C -0.02862 0.10866 0.48769
 N870 N -0.04306 0.12486 0.48660
 N871 N -0.03985 0.14132 0.47340
 C872 C -0.02211 0.14206 0.46088
 N873 N -0.00768 0.12586 0.46197
 N874 N -0.01088 0.10941 0.47517
 C875 C -0.03208 0.09094 0.50191
 C876 C -0.03499 0.07605 0.51384
 C877 C -0.01867 0.15977 0.44666
 C878 C -0.01576 0.17466 0.43471
 C879 C 0.47174 0.60865 0.98780
 N880 N 0.47902 0.60529 0.96762
 N881 N 0.48222 0.62177 0.95443
 C882 C 0.47822 0.64209 0.96103
 N883 N 0.47093 0.64544 0.98120
 N884 N 0.46774 0.62897 0.99439
 C885 C 0.46828 0.59091 1.00199
 C886 C 0.46537 0.57601 1.01390
 C887 C 0.48164 0.65982 0.94683
 C888 C 0.48451 0.67472 0.93489
 C889 C 0.52834 0.89214 0.98810
 N890 N 0.52873 0.87174 0.99556
 N891 N 0.52547 0.85530 0.98233
 C892 C 0.52173 0.85877 0.96123
 N893 N 0.52134 0.87917 0.95377
 N894 N 0.52460 0.89561 0.96700
 C895 C 0.53185 0.90984 1.00235
 C896 C 0.53481 0.92470 1.01433
 C897 C 0.51823 0.84107 0.94698
 C898 C 0.51529 0.82620 0.93501
 C899 C 0.02794 0.39209 0.48782
 N900 N 0.04091 0.38911 0.47065
 N901 N 0.03769 0.37267 0.45741
 C902 C 0.02140 0.35871 0.46093
 N903 N 0.00844 0.36169 0.47809
 N904 N 0.01166 0.37813 0.49134
 C905 C 0.03141 0.40978 0.50208
 C906 C 0.03434 0.42464 0.51407
 C907 C 0.01794 0.34101 0.44667
 C908 C 0.01504 0.32613 0.43471
 C909 C 0.39143 0.51229 0.47199
 N910 N 0.37136 0.50649 0.46603
 N911 N 0.35490 0.51972 0.46923
 C912 C 0.35803 0.53913 0.47849
 N913 N 0.37810 0.54492 0.48446
 N914 N 0.39456 0.53170 0.48125
 C915 C 0.40915 0.49806 0.46852
 C916 C 0.42403 0.48610 0.46561
 C917 C 0.34031 0.55337 0.48192
 C918 C 0.32542 0.56533 0.48481
 C919 C 0.89249 0.01197 -0.02863
 N920 N 0.88943 0.02117 -0.00920
 N921 N 0.87295 0.03435 -0.00595
 C922 C 0.85904 0.03873 -0.02203
 N923 N 0.86210 0.02954 -0.04147
 N924 N 0.87858 0.01636 -0.04472
 C925 C 0.91024 -0.00222 -0.03214
 C926 C 0.92514 -0.01415 -0.03507
 C927 C 0.84129 0.05292 -0.01854
 C928 C 0.82639 0.06485 -0.01559
 C929 C 0.60869 0.01194 0.02823
 N930 N 0.60729 0.02795 0.01362
 N931 N 0.62378 0.04113 0.01040
 C932 C 0.64218 0.03869 0.02170
 N933 N 0.64358 0.02269 0.03630
 N934 N 0.62708 0.00951 0.03952
 C935 C 0.59093 -0.00225 0.03168
 C936 C 0.57602 -0.01418 0.03459
 C937 C 0.65994 0.05288 0.01824
 C938 C 0.67486 0.06481 0.01534
 C939 C 0.10796 0.51211 0.52801
 N940 N 0.10451 0.53255 0.52150
 N941 N 0.12096 0.54580 0.51831
 C942 C 0.14134 0.53902 0.52154
 N943 N 0.14479 0.51858 0.52806
 N944 N 0.12835 0.50533 0.53125
 C945 C 0.09026 0.49785 0.53145
 C946 C 0.07539 0.48586 0.53435
 C947 C 0.15904 0.55328 0.51811
 C948 C 0.17392 0.56526 0.51523
 C949 C 0.10807 0.48779 -0.02825
 N950 N 0.10473 0.46641 -0.02626
 N951 N 0.12116 0.45316 -0.02309
 C952 C 0.14143 0.46089 -0.02181
 N953 N 0.14477 0.48228 -0.02381
 N954 N 0.12834 0.49553 -0.02698
 C955 C 0.09037 0.50205 -0.03169
 C956 C 0.07551 0.51403 -0.03459
 C957 C 0.15913 0.44663 -0.01841
 C958 C 0.17400 0.43465 -0.01554
 C959 C 0.60813 0.98812 0.47174
 N960 N 0.61647 0.98564 0.49163
 N961 N 0.63298 0.97250 0.49486
 C962 C 0.64166 0.96145 0.47829
 N963 N 0.63332 0.96393 0.45840
 N964 N 0.61680 0.97707 0.45518
 C965 C 0.59035 1.00227 0.46827
 C966 C 0.57542 1.01417 0.46536
 C967 C 0.65943 0.94730 0.48176
 C968 C 0.67436 0.93540 0.48468
 C969 C 0.89209 0.98848 0.52858
 N970 N 0.87644 0.98657 0.54352
 N971 N 0.85995 0.97338 0.54029
 C972 C 0.85861 0.96171 0.52202
 N973 N 0.87425 0.96363 0.50707
 N974 N 0.89074 0.97681 0.51031
 C975 C 0.90983 1.00269 0.53205
 C976 C 0.92473 1.01464 0.53496
 C977 C 0.84086 0.94752 0.51854
 C978 C 0.82595 0.93558 0.51562
 C979 C 0.39151 0.48760 0.02822
 N980 N 0.37524 0.48657 0.04257
 N981 N 0.35877 0.47336 0.03932
 C982 C 0.35808 0.46078 0.02162
 N983 N 0.37435 0.46181 0.00727
 N984 N 0.39082 0.47502 0.01052
 C985 C 0.40924 0.50182 0.03171
 C986 C 0.42413 0.51378 0.03466
 C987 C 0.34035 0.44656 0.01812
 C988 C 0.32545 0.43461 0.01519
 C989 C 0.51236 0.47146 0.39186
 N990 N 0.52263 0.45472 0.38257
 N991 N 0.53583 0.45794 0.36611
 C992 C 0.53916 0.47800 0.35846
 N993 N 0.52889 0.49474 0.36776
 N994 N 0.51569 0.49152 0.38421
 C995 C 0.49814 0.46799 0.40957
 C996 C 0.48619 0.46509 0.42444
 C997 C 0.55337 0.48146 0.34075
 C998 C 0.56531 0.48439 0.32586
 C999 C 0.01258 -0.02784 0.89135
 N1000 N 0.01620 -0.00774 0.88393
 N1001 N 0.02943 -0.00453 0.86749
 C1002 C 0.03944 -0.02132 0.85799
 N1003 N 0.03582 -0.04141 0.86541
 N1004 N 0.02259 -0.04463 0.88184
 C1005 C -0.00166 -0.03131 0.90904
 C1006 C -0.01362 -0.03423 0.92390
 C1007 C 0.05368 -0.01786 0.84029
 C1008 C 0.06564 -0.01496 0.82543
 C1009 C 0.01233 0.02841 0.60835
 N1010 N 0.02255 0.04518 0.61767
 N1011 N 0.03582 0.04197 0.63408
 C1012 C 0.03925 0.02190 0.64166
 N1013 N 0.02903 0.00514 0.63234
 N1014 N 0.01577 0.00834 0.61593
 C1015 C -0.00195 0.03187 0.59069
 C1016 C -0.01394 0.03479 0.57585
 C1017 C 0.05352 0.01845 0.65932
 C1018 C 0.06551 0.01556 0.67417
 C1019 C 0.51241 0.52827 0.10853
 N1020 N 0.52260 0.54501 0.11791
 N1021 N 0.53579 0.54178 0.13437
 C1022 C 0.53918 0.52170 0.14194
 N1023 N 0.52899 0.50495 0.13255
 N1024 N 0.51580 0.50819 0.11610
 C1025 C 0.49820 0.53175 0.09081
 C1026 C 0.48626 0.53468 0.07593
 C1027 C 0.55338 0.51822 0.15965
 C1028 C 0.56532 0.51530 0.17454
 C1029 C 0.48775 -0.02877 0.10845
 N1030 N 0.46709 -0.03545 0.10745
 N1031 N 0.45390 -0.03226 0.12392
 C1032 C 0.46096 -0.02229 0.14188
 N1033 N 0.48162 -0.01561 0.14288
 N1034 N 0.49481 -0.01880 0.12641
 C1035 C 0.50195 -0.03222 0.09073
 C1036 C 0.51388 -0.03512 0.07583
 C1037 C 0.44676 -0.01886 0.15961
 C1038 C 0.43483 -0.01596 0.17450
 C1039 C 0.98720 0.47108 0.60823
 N1040 N 0.96976 0.45841 0.61098
 N1041 N 0.95658 0.46162 0.62746
 C1042 C 0.96044 0.47759 0.64168
 N1043 N 0.97788 0.49026 0.63893
 N1044 N 0.99107 0.48705 0.62245
 C1045 C 1.00139 0.46764 0.59049
 C1046 C 1.01332 0.46475 0.57559
 C1047 C 0.94624 0.48105 0.65940
 C1048 C 0.93432 0.48397 0.67430
 C1049 C 0.98719 0.52847 0.89164
 N1050 N 0.98949 0.53986 0.87330
 N1051 N 0.97630 0.53657 0.85685
 C1052 C 0.96043 0.52179 0.85824
 N1053 N 0.95813 0.51040 0.87658
 N1054 N 0.97132 0.51369 0.89303
 C1055 C 1.00141 0.53200 0.90935
 C1056 C 1.01336 0.53495 0.92422
 C1057 C 0.94623 0.51824 0.84052
 C1058 C 0.93431 0.51526 0.82563
 C1059 C 0.48797 0.02775 0.39179
 N1060 N 0.48317 0.04401 0.37821
 N1061 N 0.46995 0.04078 0.36177
 C1062 C 0.46112 0.02120 0.35841
 N1063 N 0.46592 0.00494 0.37199
 N1064 N 0.47914 0.00817 0.38843
 C1065 C 0.50220 0.03123 0.40949
 C1066 C 0.51414 0.03416 0.42437
 C1067 C 0.44689 0.01773 0.34072
 C1068 C 0.43492 0.01483 0.32585
   
