data_POSCAR
  _audit_creation_date              2014-09-24
  _audit_creation_method            'ToBaCCo'
  _symmetry_space_group_name_H-M    'P1'
  _symmetry_Int_Tables_number       1
  _symmetry_cell_setting            triclinic
  loop_
  _symmetry_equiv_pos_as_xyz
 x,y,z
_cell_length_a 55.6933
_cell_length_b 55.7152
_cell_length_c 55.6791
_cell_angle_alpha 89.991800
_cell_angle_beta 90.009300
_cell_angle_gamma 89.848800
loop_
  _atom_site_label
  _atom_site_type_symbol
  _atom_site_fract_x
  _atom_site_fract_y
  _atom_site_fract_z
C1 C 0.18791 0.15580 0.18846
 C2 C 0.17748 0.14558 0.20898
 C3 C 0.15690 0.15588 0.21923
 C4 C 0.14658 0.17647 0.20901
 C5 C 0.15679 0.18692 0.18850
 C6 C 0.17755 0.17657 0.17815
 C7 C 0.20856 0.14569 0.17812
 C8 C 0.21889 0.15611 0.15767
 C9 C 0.20863 0.17669 0.14741
 C10 C 0.18798 0.18703 0.15753
 C11 C 0.17762 0.20768 0.14745
 C12 C 0.15706 0.21791 0.15776
 C13 C 0.14667 0.20757 0.17818
 H14 H 0.18539 0.12966 0.21699
 H15 H 0.13066 0.18437 0.21704
 H16 H 0.21660 0.12976 0.18599
 H17 H 0.21672 0.18469 0.13160
 H18 H 0.18554 0.21585 0.13165
 H19 H 0.13076 0.21565 0.18603
 C20 C -0.18758 0.84442 0.18798
 C21 C -0.17724 0.85452 0.20860
 C22 C -0.15669 0.84417 0.21887
 C23 C -0.14632 0.82366 0.20857
 C24 C -0.15643 0.81334 0.18795
 C25 C -0.17715 0.82373 0.17758
 C26 C -0.20819 0.85459 0.17760
 C27 C -0.21843 0.84430 0.15704
 C28 C -0.20810 0.82379 0.14669
 C29 C -0.18749 0.81340 0.15684
 C30 C -0.17706 0.79283 0.14668
 C31 C -0.15653 0.78256 0.15700
 C32 C -0.14624 0.79277 0.17755
 H33 H -0.18519 0.87039 0.21667
 H34 H -0.13042 0.81572 0.21662
 H35 H -0.21628 0.87045 0.18554
 H36 H -0.21612 0.81590 0.13079
 H37 H -0.18490 0.78477 0.13078
 H38 H -0.13035 0.78466 0.18542
 C39 C -0.18890 0.15677 -0.18726
 C40 C -0.17851 0.14662 -0.20786
 C41 C -0.15800 0.15691 -0.21811
 C42 C -0.14770 0.17740 -0.20785
 C43 C -0.15785 0.18779 -0.18726
 C44 C -0.17855 0.17746 -0.17689
 C45 C -0.20949 0.14668 -0.17690
 C46 C -0.21979 0.15703 -0.15638
 C47 C -0.20954 0.17753 -0.14605
 C48 C -0.18894 0.18785 -0.15619
 C49 C -0.17859 0.20843 -0.14606
 C50 C -0.15809 0.21865 -0.15639
 C51 C -0.14774 0.20836 -0.17689
 H52 H -0.18636 0.13077 -0.21596
 H53 H -0.13183 0.18525 -0.21594
 H54 H -0.21753 0.13082 -0.18483
 H55 H -0.21761 0.18548 -0.13018
 H56 H -0.18648 0.21655 -0.13020
 H57 H -0.13188 0.21643 -0.18477
 C58 C 0.18808 0.84303 -0.18861
 C59 C 0.17766 0.85322 -0.20918
 C60 C 0.15714 0.84293 -0.21945
 C61 C 0.14687 0.82239 -0.20919
 C62 C 0.15706 0.81198 -0.18862
 C63 C 0.17776 0.82232 -0.17826
 C64 C 0.20867 0.85313 -0.17823
 C65 C 0.21897 0.84276 -0.15775
 C66 C 0.20877 0.82224 -0.14744
 C67 C 0.18818 0.81190 -0.15758
 C68 C 0.17787 0.79130 -0.14746
 C69 C 0.15736 0.78109 -0.15778
 C70 C 0.14698 0.79138 -0.17827
 H71 H 0.18554 0.86910 -0.21721
 H72 H 0.13099 0.81449 -0.21724
 H73 H 0.21672 0.86901 -0.18608
 H74 H 0.21691 0.81433 -0.13160
 H75 H 0.18578 0.78318 -0.13161
 H76 H 0.13111 0.78331 -0.18613
 C77 C 0.15549 1.18762 0.81173
 C78 C 0.14532 1.17721 0.79117
 C79 C 0.15570 1.15670 0.78089
 C80 C 0.17631 1.14642 0.79112
 C81 C 0.18669 1.15660 0.81168
 C82 C 0.17627 1.17729 0.82206
 C83 C 0.14529 1.20820 0.82211
 C84 C 0.15564 1.21851 0.84261
 C85 C 0.17624 1.20827 0.85289
 C86 C 0.18666 1.18769 0.84273
 C87 C 0.20733 1.17736 0.85282
 C88 C 0.21764 1.15686 0.84248
 C89 C 0.20736 1.14650 0.82201
 H90 H 0.12938 1.18510 0.78315
 H91 H 0.18427 1.13055 0.78306
 H92 H 0.12935 1.21622 0.81423
 H93 H 0.18418 1.21634 0.86874
 H94 H 0.21544 1.18525 0.86866
 H95 H 0.21550 1.13065 0.81413
 C96 C 0.84455 0.81234 0.81204
 C97 C 0.85467 0.82270 0.79143
 C98 C 0.84433 0.84325 0.78118
 C99 C 0.82380 0.85362 0.79148
 C100 C 0.81346 0.84349 0.81208
 C101 C 0.82385 0.82276 0.82244
 C102 C 0.85471 0.79173 0.82240
 C103 C 0.84441 0.78148 0.84295
 C104 C 0.82388 0.79180 0.85329
 C105 C 0.81350 0.81241 0.84316
 C106 C 0.79292 0.82283 0.85332
 C107 C 0.78265 0.84337 0.84301
 C108 C 0.79288 0.85367 0.82248
 H109 H 0.87054 0.81475 0.78336
 H110 H 0.81587 0.86952 0.78344
 H111 H 0.87058 0.78364 0.81446
 H112 H 0.81598 0.78377 0.86919
 H113 H 0.78484 0.81498 0.86920
 H114 H 0.78477 0.86956 0.81463
 C115 C 0.15665 0.81108 1.18718
 C116 C 0.14643 0.82145 1.20775
 C117 C 0.15667 0.84195 1.21804
 C118 C 0.17718 0.85228 1.20785
 C119 C 0.18765 0.84215 1.18729
 C120 C 0.17737 0.82145 1.17688
 C121 C 0.14660 0.79049 1.17678
 C122 C 0.15702 0.78023 1.15628
 C123 C 0.17756 0.79050 1.14602
 C124 C 0.18783 0.81109 1.15620
 C125 C 0.20843 0.82147 1.14613
 C126 C 0.21859 0.84198 1.15650
 C127 C 0.20824 0.85229 1.17699
 H128 H 0.13055 0.81358 1.21580
 H129 H 0.18498 0.86814 1.21597
 H130 H 0.13072 0.78244 1.18465
 H131 H 0.18555 0.78246 1.13016
 H132 H 0.21660 0.81361 1.13028
 H133 H 0.21627 0.86815 1.18489
 C134 C 0.84305 1.18822 1.18859
 C135 C 0.85319 1.17783 1.20920
 C136 C 0.84286 1.15733 1.21947
 C137 C 0.82234 1.14705 1.20917
 C138 C 0.81199 1.15722 1.18856
 C139 C 0.82236 1.17790 1.17819
 C140 C 0.85318 1.20879 1.17822
 C141 C 0.84287 1.21906 1.15769
 C142 C 0.82237 1.20885 1.14734
 C143 C 0.81200 1.18829 1.15747
 C144 C 0.79142 1.17796 1.14731
 C145 C 0.78117 1.15748 1.15763
 C146 C 0.79141 1.14713 1.17816
 H147 H 0.86905 1.18572 1.21727
 H148 H 0.81442 1.13120 1.21722
 H149 H 0.86904 1.21685 1.18610
 H150 H 0.81451 1.21696 1.13145
 H151 H 0.78333 1.18585 1.13143
 H152 H 0.78331 1.13128 1.18602
 N153 N 0.47484 0.97405 1.04262
 N154 N 0.45653 0.97102 1.05737
 N155 N 0.52550 0.95756 1.02598
 N156 N 0.54390 0.94287 1.02891
 N157 N 0.52538 0.97421 1.04268
 N158 N 0.54370 0.97132 1.05746
 N159 N 0.47496 0.95740 1.02592
 N160 N 0.45673 0.94258 1.02882
 C161 C 0.44551 0.95133 1.04850
 C162 C 0.55498 0.95171 1.04861
 N163 N 0.52547 0.97435 0.95759
 N164 N 0.54381 0.97149 0.94284
 N165 N 0.47501 0.95749 0.97418
 N166 N 0.45679 0.94267 0.97118
 N167 N 0.47493 0.97419 0.95753
 N168 N 0.45666 0.97121 0.94272
 N169 N 0.52555 0.95765 0.97424
 N170 N 0.54395 0.94295 0.97130
 Mn171 Mn 0.50025 0.95724 1.00008
 C172 C 0.55506 0.95184 0.95165
 C173 C 0.44562 0.95149 0.95150
 N174 N 0.52508 1.02591 1.04276
 N175 N 0.54338 1.02887 1.05754
 N176 N 0.47446 1.04245 1.02605
 N177 N 0.45611 1.05720 1.02905
 N178 N 0.47455 1.02575 1.04270
 N179 N 0.45625 1.02866 1.05751
 N180 N 0.52500 1.04260 1.02610
 N181 N 0.54324 1.05740 1.02908
 Mn182 Mn 0.49996 0.99998 1.04298
 C183 C 0.55442 1.04858 1.04875
 C184 C 0.44502 1.04833 1.04872
 N185 N 0.47463 1.02589 0.95760
 N186 N 0.45634 1.02883 0.94279
 N187 N 0.52506 1.04269 0.97437
 N188 N 0.54328 1.05751 0.97146
 N189 N 0.52517 1.02604 0.95766
 N190 N 0.54347 1.02907 0.94291
 N191 N 0.47452 1.04253 0.97431
 N192 N 0.45615 1.05727 0.97134
 Mn193 Mn 0.50005 1.00012 0.95731
 Mn194 Mn 0.49976 1.04286 1.00021
 Cl195 Cl 0.50000 1.00005 1.00014
 C196 C 0.44508 1.04845 0.95162
 C197 C 0.55450 1.04875 0.95178
 N198 N -0.02589 0.47480 -0.04263
 N199 N -0.02892 0.45647 -0.05734
 N200 N -0.04236 0.52545 -0.02603
 N201 N -0.05704 0.54387 -0.02897
 N202 N -0.02572 0.52532 -0.04275
 N203 N -0.02860 0.54363 -0.05753
 N204 N -0.04253 0.47493 -0.02592
 N205 N -0.05736 0.45670 -0.02878
 C206 C -0.04860 0.44546 -0.04844
 C207 C -0.04821 0.55492 -0.04868
 N208 N -0.02553 0.52550 0.04235
 N209 N -0.02838 0.54385 0.05708
 N210 N -0.04242 0.47504 0.02581
 N211 N -0.05722 0.45681 0.02881
 N212 N -0.02570 0.47498 0.04246
 N213 N -0.02865 0.45670 0.05726
 N214 N -0.04225 0.52556 0.02570
 N215 N -0.05695 0.54396 0.02863
 Mn216 Mn -0.04268 0.50025 -0.00011
 C217 C -0.04804 0.55509 0.04826
 C218 C -0.04837 0.44565 0.04848
 N219 N 0.02600 0.52500 -0.04285
 N220 N 0.02896 0.54327 -0.05765
 N221 N 0.04255 0.47442 -0.02609
 N222 N 0.05724 0.45602 -0.02903
 N223 N 0.02583 0.47448 -0.04274
 N224 N 0.02868 0.45614 -0.05748
 N225 N 0.04272 0.52494 -0.02621
 N226 N 0.05752 0.54316 -0.02921
 Mn227 Mn 0.00006 0.49990 -0.04303
 C228 C 0.04868 0.55432 -0.04888
 C229 C 0.04833 0.44489 -0.04867
 N230 N 0.02602 0.47467 0.04236
 N231 N 0.02896 0.45642 0.05721
 N232 N 0.04283 0.52505 0.02553
 N233 N 0.05765 0.54329 0.02839
 N234 N 0.02618 0.52519 0.04224
 N235 N 0.02921 0.54352 0.05695
 N236 N 0.04266 0.47453 0.02565
 N237 N 0.05741 0.45618 0.02864
 Mn238 Mn 0.00024 0.50008 0.04264
 Mn239 Mn 0.04298 0.49973 -0.00028
 Cl240 Cl 0.00015 0.49999 -0.00019
 C241 C 0.04860 0.44515 0.04838
 C242 C 0.04889 0.55453 0.04806
 N243 N 0.97403 -0.04259 0.52528
 N244 N 0.97114 -0.05733 0.54362
 N245 N 0.95729 -0.02588 0.47474
 N246 N 0.94253 -0.02877 0.45642
 N247 N 0.97398 -0.04258 0.47473
 N248 N 0.97105 -0.05731 0.45639
 N249 N 0.95733 -0.02589 0.52530
 N250 N 0.94261 -0.02879 0.54365
 C251 C 0.95148 -0.04847 0.55480
 C252 C 0.95137 -0.04844 0.44525
 N253 N 0.97390 0.04246 0.47472
 N254 N 0.97092 0.05723 0.45642
 N255 N 0.95729 0.02581 0.52529
 N256 N 0.94253 0.02878 0.54361
 N257 N 0.97395 0.04245 0.52528
 N258 N 0.97100 0.05722 0.54359
 N259 N 0.95724 0.02582 0.47474
 N260 N 0.94244 0.02880 0.45645
 Mn261 Mn 0.95700 -0.00004 0.50002
 C262 C 0.95124 0.04845 0.44529
 C263 C 0.95134 0.04843 0.55475
 N264 N 1.02569 -0.04267 0.47469
 N265 N 1.02861 -0.05743 0.45636
 N266 N 1.04241 -0.02604 0.52523
 N267 N 1.05721 -0.02903 0.54352
 N268 N 1.02575 -0.04268 0.52524
 N269 N 1.02873 -0.05747 0.54354
 N270 N 1.04236 -0.02604 0.47468
 N271 N 1.05709 -0.02899 0.45633
 Mn272 Mn 0.99986 -0.04292 0.49999
 C273 C 1.04826 -0.04863 0.44518
 C274 C 1.04842 -0.04869 0.55467
 N275 N 1.02567 0.04236 0.52524
 N276 N 1.02858 0.05709 0.54357
 N277 N 1.04232 0.02566 0.47468
 N278 N 1.05705 0.02856 0.45633
 N279 N 1.02563 0.04236 0.47468
 N280 N 1.02853 0.05710 0.45634
 N281 N 1.04236 0.02566 0.52523
 N282 N 1.05711 0.02856 0.54357
 Mn283 Mn 0.99979 0.04270 0.49998
 Mn284 Mn 1.04265 -0.00019 0.49995
 Cl285 Cl 0.99982 -0.00011 0.49998
 C286 C 1.04826 0.04823 0.55473
 C287 C 1.04819 0.04822 0.44517
 C288 C 1.14697 0.14595 0.23925
 C289 C 1.13821 0.13722 0.25701
 C290 C 1.12778 0.12687 0.27826
 C291 C 1.14106 0.11070 0.29221
 C292 C 1.13101 0.10076 0.31295
 C293 C 1.10752 0.10690 0.32002
 C294 C 1.09431 0.12315 0.30583
 C295 C 1.10440 0.13305 0.28509
 C296 C 1.09689 0.09647 0.34213
 C297 C 1.08293 0.11075 0.35765
 C298 C 1.07303 0.10095 0.37853
 C299 C 1.07691 0.07678 0.38417
 C300 C 1.09073 0.06241 0.36884
 C301 C 1.10066 0.07217 0.34796
 C302 C 1.06677 0.06673 0.40570
 C303 C 1.05829 0.05830 0.42373
 H304 H 1.15921 0.10585 0.28712
 H305 H 1.14174 0.08855 0.32365
 H306 H 1.07609 0.12799 0.31062
 H307 H 1.09394 0.14552 0.27438
 H308 H 1.07996 0.12958 0.35383
 H309 H 1.06242 0.11226 0.39030
 H310 H 1.09379 0.04365 0.37300
 H311 H 1.11105 0.06064 0.33623
 C312 C 0.85316 -0.14600 0.23898
 C313 C 0.86186 -0.13736 0.25682
 C314 C 0.87222 -0.12711 0.27814
 C315 C 0.86619 -0.10371 0.28506
 C316 C 0.87614 -0.09379 0.30585
 C317 C 0.89229 -0.10717 0.32001
 C318 C 0.89826 -0.13066 0.31286
 C319 C 0.88827 -0.14055 0.29207
 C320 C 0.90279 -0.09669 0.34216
 C321 C 0.92707 -0.10065 0.34798
 C322 C 0.93691 -0.09085 0.36888
 C323 C 0.92263 -0.07699 0.38425
 C324 C 0.89847 -0.07292 0.37863
 C325 C 0.88860 -0.08269 0.35773
 C326 C 0.93277 -0.06694 0.40578
 C327 C 0.94125 -0.05851 0.42381
 H328 H 0.85383 -0.09313 0.27437
 H329 H 0.87144 -0.07556 0.31070
 H330 H 0.91037 -0.14152 0.32354
 H331 H 0.89300 -0.15871 0.28692
 H332 H 0.93853 -0.11108 0.33621
 H333 H 0.95566 -0.09404 0.37303
 H334 H 0.88725 -0.06227 0.39043
 H335 H 0.86978 -0.07958 0.35392
 C336 C 0.85242 0.14650 0.76065
 C337 C 0.86111 0.13783 0.74281
 C338 C 0.87143 0.12755 0.72145
 C339 C 0.89437 0.11728 0.72218
 C340 C 0.90442 0.10735 0.70142
 C341 C 0.89161 0.10754 0.67963
 C342 C 0.86854 0.11789 0.67910
 C343 C 0.85854 0.12783 0.69988
 C344 C 0.90225 0.09701 0.65754
 C345 C 0.88805 0.08346 0.64166
 C346 C 0.89806 0.07362 0.62084
 C347 C 0.92236 0.07718 0.61560
 C348 C 0.93665 0.09060 0.63128
 C349 C 0.92669 0.10045 0.65213
 C350 C 0.93262 0.06708 0.59413
 C351 C 0.94118 0.05859 0.57614
 H352 H 0.90448 0.11692 0.73881
 H353 H 0.92208 0.09924 0.70248
 H354 H 0.85836 0.11861 0.66255
 H355 H 0.84079 0.13580 0.69910
 H356 H 0.86928 0.08021 0.64548
 H357 H 0.88686 0.06319 0.60885
 H358 H 0.95548 0.09352 0.62736
 H359 H 0.93801 0.11104 0.66383
 C360 C 1.14722 -0.14718 0.76048
 C361 C 1.13847 -0.13848 0.74267
 C362 C 1.12805 -0.12818 0.72138
 C363 C 1.13306 -0.10439 0.71512
 C364 C 1.12304 -0.09440 0.69436
 C365 C 1.10787 -0.10813 0.67956
 C366 C 1.10293 -0.13203 0.68603
 C367 C 1.11295 -0.14196 0.70681
 C368 C 1.09732 -0.09759 0.65743
 C369 C 1.09583 -0.11120 0.63619
 C370 C 1.08592 -0.10126 0.61535
 C371 C 1.07736 -0.07763 0.61546
 C372 C 1.07874 -0.06394 0.63649
 C373 C 1.08866 -0.07384 0.65734
 C374 C 1.06717 -0.06742 0.59400
 C375 C 1.05862 -0.05888 0.57604
 H376 H 1.14479 -0.09358 0.72624
 H377 H 1.12744 -0.07607 0.68970
 H378 H 1.09108 -0.14295 0.67519
 H379 H 1.10891 -0.16038 0.71152
 H380 H 1.10262 -0.12941 0.63559
 H381 H 1.08500 -0.11199 0.59915
 H382 H 1.07210 -0.04565 0.63678
 H383 H 1.08926 -0.06301 0.67348
 C384 C 0.23904 1.14629 1.14783
 C385 C 0.25692 1.13767 1.13914
 C386 C 0.27830 1.12747 1.12878
 C387 C 0.27859 1.10345 1.12145
 C388 C 0.29938 1.09353 1.11141
 C389 C 0.32019 1.10754 1.10859
 C390 C 0.31970 1.13168 1.11602
 C391 C 0.29888 1.14155 1.12603
 C392 C 0.34230 1.09702 1.09798
 C393 C 0.36502 1.10259 1.10752
 C394 C 0.38583 1.09270 1.09751
 C395 C 0.38424 1.07714 1.07785
 C396 C 0.36174 1.07148 1.06823
 C397 C 0.34090 1.08134 1.07822
 C398 C 0.40569 1.06698 1.06757
 C399 C 0.42365 1.05848 1.05897
 H400 H 0.26278 1.09236 1.12355
 H401 H 0.29928 1.07482 1.10615
 H402 H 0.33531 1.14300 1.11380
 H403 H 0.29883 1.16019 1.13159
 H404 H 0.36668 1.11434 1.12291
 H405 H 0.40316 1.09714 1.10515
 H406 H 0.36032 1.05951 1.05297
 H407 H 0.32372 1.07695 1.07028
 C408 C 0.24019 0.85313 0.85268
 C409 C 0.25801 0.86176 0.86138
 C410 C 0.27933 0.87199 0.87174
 C411 C 0.27966 0.89618 0.87850
 C412 C 0.30039 0.90613 0.88852
 C413 C 0.32110 0.89199 0.89188
 C414 C 0.32057 0.86769 0.88502
 C415 C 0.29982 0.85777 0.87503
 C416 C 0.34317 0.90255 0.90244
 C417 C 0.36595 0.89655 0.89325
 C418 C 0.38671 0.90649 0.90320
 C419 C 0.38501 0.92252 0.92247
 C420 C 0.36245 0.92861 0.93175
 C421 C 0.34166 0.91871 0.92181
 C422 C 0.40640 0.93273 0.93270
 C423 C 0.42432 0.94128 0.94128
 H424 H 0.26391 0.90736 0.87597
 H425 H 0.30033 0.92496 0.89332
 H426 H 0.33611 0.85627 0.88767
 H427 H 0.29973 0.83901 0.86992
 H428 H 0.36769 0.88442 0.87815
 H429 H 0.40408 0.90171 0.89583
 H430 H 0.36094 0.94096 0.94671
 H431 H 0.32442 0.92345 0.92948
 C432 C 0.76147 0.85418 1.14716
 C433 C 0.74364 0.86286 1.13843
 C434 C 0.72231 0.87314 1.12803
 C435 C 0.71206 0.89380 1.13803
 C436 C 0.69124 0.90371 1.12803
 C437 C 0.68038 0.89303 1.10787
 C438 C 0.69086 0.87228 1.09793
 C439 C 0.71169 0.86242 1.10795
 C440 C 0.65818 0.90344 1.09732
 C441 C 0.63951 0.88843 1.08937
 C442 C 0.61859 0.89824 1.07950
 C443 C 0.61604 0.92314 1.07742
 C444 C 0.63450 0.93823 1.08525
 C445 C 0.65544 0.92847 1.09515
 C446 C 0.59449 0.93320 1.06727
 C447 C 0.57644 0.94164 1.05876
 H448 H 0.72010 0.90220 1.15363
 H449 H 0.68344 0.91950 1.13628
 H450 H 0.68312 0.86384 1.08223
 H451 H 0.71951 0.84645 1.10003
 H452 H 0.64094 0.86912 1.09109
 H453 H 0.60438 0.88639 1.07355
 H454 H 0.63274 0.95754 1.08366
 H455 H 0.66960 0.94048 1.10082
 C456 C 0.76010 1.14722 0.85346
 C457 C 0.74226 1.13859 0.86212
 C458 C 0.72092 1.12834 0.87240
 C459 C 0.69828 1.13642 0.86504
 C460 C 0.67751 1.12650 0.87501
 C461 C 0.67913 1.10832 0.89249
 C462 C 0.70199 1.10031 0.89975
 C463 C 0.72273 1.11027 0.88977
 C464 C 0.65707 1.09777 0.90307
 C465 C 0.65555 1.07293 0.90737
 C466 C 0.63474 1.06302 0.91726
 C467 C 0.61520 1.07777 0.92301
 C468 C 0.61654 1.10250 0.91884
 C469 C 0.63732 1.11245 0.90894
 C470 C 0.59377 1.06755 0.93315
 C471 C 0.57583 1.05898 0.94165
 H472 H 0.69667 1.15035 0.85155
 H473 H 0.66019 1.13283 0.86881
 H474 H 0.70384 1.08656 0.91339
 H475 H 0.74018 1.10393 0.89565
 H476 H 0.67032 1.06112 0.90277
 H477 H 0.63387 1.04384 0.92036
 H478 H 0.60154 1.11410 0.92329
 H479 H 0.63806 1.13167 0.90614
 C480 C 0.14666 0.23920 0.14740
 C481 C 0.13801 0.25708 0.13875
 C482 C 0.12774 0.27847 0.12846
 C483 C 0.13251 0.30088 0.13871
 C484 C 0.12262 0.32169 0.12871
 C485 C 0.10778 0.32034 0.10829
 C486 C 0.10307 0.29770 0.09814
 C487 C 0.11300 0.27692 0.10817
 C488 C 0.09729 0.34244 0.09763
 C489 C 0.07347 0.34265 0.08921
 C490 C 0.06361 0.36349 0.07922
 C491 C 0.07742 0.38437 0.07749
 C492 C 0.10113 0.38434 0.08578
 C493 C 0.11102 0.36354 0.09579
 C494 C 0.06725 0.40581 0.06722
 C495 C 0.05875 0.42378 0.05863
 H496 H 0.14385 0.30227 0.15447
 H497 H 0.12632 0.33880 0.13712
 H498 H 0.09198 0.29610 0.08225
 H499 H 0.10925 0.25966 0.10005
 H500 H 0.06235 0.32681 0.09065
 H501 H 0.04521 0.36334 0.07291
 H502 H 0.11200 0.40039 0.08446
 H503 H 0.12951 0.36386 0.10182
 C504 C -0.14770 0.23987 -0.14601
 C505 C -0.13902 0.25770 -0.13739
 C506 C -0.12868 0.27904 -0.12719
 C507 C -0.11711 0.27804 -0.10490
 C508 C -0.10706 0.29877 -0.09500
 C509 C -0.10843 0.32080 -0.10731
 C510 C -0.12010 0.32160 -0.12972
 C511 C -0.13016 0.30085 -0.13957
 C512 C -0.09774 0.34284 -0.09684
 C513 C -0.08534 0.35925 -0.11149
 C514 C -0.07536 0.38003 -0.10163
 C515 C -0.07764 0.38471 -0.07705
 C516 C -0.08991 0.36850 -0.06232
 C517 C -0.09989 0.34769 -0.07213
 C518 C -0.06741 0.40614 -0.06695
 C519 C -0.05883 0.42410 -0.05851
 H520 H -0.11581 0.26122 -0.09520
 H521 H -0.09793 0.29751 -0.07788
 H522 H -0.12174 0.33833 -0.13948
 H523 H -0.13913 0.30183 -0.15681
 H524 H -0.08310 0.35586 -0.13050
 H525 H -0.06583 0.39242 -0.11318
 H526 H -0.09183 0.37198 -0.04327
 H527 H -0.10959 0.33558 -0.06045
 C528 C 0.14700 0.75985 -0.14738
 C529 C 0.13837 0.74203 -0.13871
 C530 C 0.12813 0.72070 -0.12839
 C531 C 0.10533 0.72151 -0.11787
 C532 C 0.09536 0.70078 -0.10788
 C533 C 0.10810 0.67894 -0.10828
 C534 C 0.13103 0.67832 -0.11890
 C535 C 0.14095 0.69907 -0.12889
 C536 C 0.09754 0.65689 -0.09770
 C537 C 0.11188 0.64089 -0.08434
 C538 C 0.10194 0.62011 -0.07444
 C539 C 0.07757 0.61502 -0.07776
 C540 C 0.06315 0.63081 -0.09100
 C541 C 0.07305 0.65162 -0.10090
 C542 C 0.06738 0.59360 -0.06760
 C543 C 0.05885 0.57565 -0.05907
 H544 H 0.09528 0.73818 -0.11733
 H545 H 0.07782 0.70190 -0.09957
 H546 H 0.14115 0.66173 -0.11978
 H547 H 0.15859 0.69823 -0.13706
 H548 H 0.13071 0.64460 -0.08129
 H549 H 0.11324 0.60804 -0.06416
 H550 H 0.04428 0.62701 -0.09373
 H551 H 0.06162 0.66341 -0.11134
 C552 C -0.14604 0.76136 0.14655
 C553 C -0.13731 0.74356 0.13783
 C554 C -0.12694 0.72227 0.12746
 C555 C -0.13512 0.71384 0.10526
 C556 C -0.12518 0.69305 0.09525
 C557 C -0.10690 0.68043 0.10734
 C558 C -0.09876 0.68910 0.12963
 C559 C -0.10874 0.70988 0.13961
 C560 C -0.09643 0.65826 0.09680
 C561 C -0.07158 0.65380 0.09819
 C562 C -0.06177 0.63288 0.08832
 C563 C -0.07664 0.61616 0.07696
 C564 C -0.10136 0.62043 0.07546
 C565 C -0.11121 0.64133 0.08530
 C566 C -0.06654 0.59461 0.06686
 C567 C -0.05810 0.57656 0.05838
 H568 H -0.14916 0.72333 0.09567
 H569 H -0.13160 0.68702 0.07792
 H570 H -0.08494 0.67962 0.13952
 H571 H -0.10233 0.71622 0.15685
 H572 H -0.05969 0.66662 0.10664
 H573 H -0.04259 0.62978 0.08952
 H574 H -0.11304 0.60757 0.06676
 H575 H -0.13043 0.64409 0.08422
 C576 C 1.14583 0.14679 0.76083
 C577 C 1.13715 0.13804 0.74304
 C578 C 1.12688 0.12762 0.72176
 C579 C 1.10669 0.13813 0.71105
 C580 C 1.09679 0.12810 0.69029
 C581 C 1.10699 0.10741 0.67993
 C582 C 1.12726 0.09696 0.69086
 C583 C 1.13712 0.10701 0.71164
 C584 C 1.09658 0.09683 0.65778
 C585 C 1.11161 0.08803 0.63945
 C586 C 1.10180 0.07815 0.61857
 C587 C 1.07687 0.07692 0.61572
 C588 C 1.06176 0.08558 0.63385
 C589 C 1.07153 0.09548 0.65474
 C590 C 1.06680 0.06679 0.59419
 C591 C 1.05836 0.05832 0.57616
 H592 H 1.09867 0.15413 0.71870
 H593 H 1.08138 0.13674 0.68213
 H594 H 1.13533 0.08086 0.68351
 H595 H 1.15272 0.09870 0.71981
 H596 H 1.13095 0.08910 0.64111
 H597 H 1.11366 0.07156 0.60461
 H598 H 1.04243 0.08464 0.63186
 H599 H 1.05949 0.10181 0.66865
 C600 C 0.85417 -0.14689 0.76108
 C601 C 0.86283 -0.13818 0.74326
 C602 C 0.87310 -0.12782 0.72195
 C603 C 0.88930 -0.14109 0.70803
 C604 C 0.89919 -0.13110 0.68724
 C605 C 0.89297 -0.10766 0.68009
 C606 C 0.87669 -0.09446 0.69423
 C607 C 0.86684 -0.10449 0.71502
 C608 C 0.90336 -0.09708 0.65793
 C609 C 0.88902 -0.08323 0.64236
 C610 C 0.89878 -0.07336 0.62145
 C611 C 0.92298 -0.07717 0.61583
 C612 C 0.93741 -0.09088 0.63121
 C613 C 0.92768 -0.10078 0.65212
 C614 C 0.93300 -0.06704 0.59429
 C615 C 0.94142 -0.05856 0.57625
 H616 H 0.89421 -0.15920 0.71319
 H617 H 0.91142 -0.14183 0.67658
 H618 H 0.87179 -0.07627 0.68938
 H619 H 0.85436 -0.09403 0.72570
 H620 H 0.87017 -0.08031 0.64616
 H621 H 0.88744 -0.06282 0.60964
 H622 H 0.95618 -0.09388 0.62707
 H623 H 0.93925 -0.11109 0.66389
 C624 C 1.14617 -0.14763 0.23925
 C625 C 1.13743 -0.13893 0.25705
 C626 C 1.12707 -0.12859 0.27835
 C627 C 1.12085 -0.14329 0.29774
 C628 C 1.11089 -0.13327 0.31849
 C629 C 1.10703 -0.10834 0.32014
 C630 C 1.11334 -0.09371 0.30053
 C631 C 1.12328 -0.10379 0.27978
 C632 C 1.09655 -0.09767 0.34223
 C633 C 1.10542 -0.07590 0.35144
 C634 C 1.09561 -0.06594 0.37230
 C635 C 1.07683 -0.07756 0.38422
 C636 C 1.06784 -0.09918 0.37519
 C637 C 1.07762 -0.10919 0.35434
 C638 C 1.06679 -0.06733 0.40574
 C639 C 1.05836 -0.05879 0.42376
 H640 H 1.12378 -0.16251 0.29684
 H641 H 1.10652 -0.14496 0.33339
 H642 H 1.11031 -0.07452 0.30112
 H643 H 1.12798 -0.09224 0.26485
 H644 H 1.12017 -0.06676 0.34271
 H645 H 1.10274 -0.04922 0.37918
 H646 H 1.05324 -0.10828 0.38423
 H647 H 1.07019 -0.12578 0.34752
 C648 C 0.85270 0.14745 0.23958
 C649 C 0.86136 0.13873 0.25742
 C650 C 0.87163 0.12835 0.27876
 C651 C 0.89476 0.11850 0.27816
 C652 C 0.90475 0.10844 0.29890
 C653 C 0.89170 0.10810 0.32054
 C654 C 0.86844 0.11805 0.32094
 C655 C 0.85850 0.12810 0.30018
 C656 C 0.90228 0.09745 0.34260
 C657 C 0.88815 0.08343 0.35814
 C658 C 0.89811 0.07347 0.37894
 C659 C 0.92229 0.07739 0.38450
 C660 C 0.93650 0.09128 0.36916
 C661 C 0.92659 0.10124 0.34834
 C662 C 0.93249 0.06718 0.40595
 C663 C 0.94104 0.05864 0.42392
 H664 H 0.90506 0.11854 0.26165
 H665 H 0.92256 0.10066 0.29794
 H666 H 0.85807 0.11835 0.33738
 H667 H 0.84061 0.13575 0.30086
 H668 H 0.86948 0.07992 0.35405
 H669 H 0.88696 0.06268 0.39065
 H670 H 0.95523 0.09447 0.37333
 H671 H 0.93785 0.11219 0.33691
 C672 C 0.14574 0.23859 -0.14751
 C673 C 0.13704 0.25640 -0.13878
 C674 C 0.12673 0.27771 -0.12838
 C675 C 0.13191 0.28386 -0.10457
 C676 C 0.12204 0.30465 -0.09450
 C677 C 0.10683 0.31956 -0.10813
 C678 C 0.10169 0.31318 -0.13204
 C679 C 0.11159 0.29239 -0.14208
 C680 C 0.09643 0.34172 -0.09750
 C681 C 0.07249 0.34831 -0.10227
 C682 C 0.06276 0.36922 -0.09232
 C683 C 0.07680 0.38382 -0.07749
 C684 C 0.10062 0.37742 -0.07261
 C685 C 0.11039 0.35651 -0.08253
 C686 C 0.06678 0.40538 -0.06732
 C687 C 0.05838 0.42343 -0.05880
 H688 H 0.14356 0.27258 -0.09379
 H689 H 0.12608 0.30890 -0.07596
 H690 H 0.09031 0.32445 -0.14309
 H691 H 0.10753 0.28783 -0.16055
 H692 H 0.06120 0.33715 -0.11346
 H693 H 0.04427 0.37397 -0.09615
 H694 H 0.11167 0.38863 -0.06121
 H695 H 0.12895 0.35210 -0.07877
 C696 C -0.14672 0.24026 0.14728
 C697 C -0.13803 0.25807 0.13860
 C698 C -0.12771 0.27936 0.12831
 C699 C -0.11805 0.27876 0.10512
 C700 C -0.10807 0.29947 0.09509
 C701 C -0.10761 0.32108 0.10817
 C702 C -0.11737 0.32148 0.13148
 C703 C -0.12735 0.30076 0.14146
 C704 C -0.09704 0.34310 0.09754
 C705 C -0.08290 0.35858 0.11161
 C706 C -0.07303 0.37935 0.10162
 C707 C -0.07715 0.38495 0.07747
 C708 C -0.09116 0.36967 0.06331
 C709 C -0.10104 0.34888 0.07326
 C710 C -0.06703 0.40637 0.06723
 C711 C -0.05853 0.42431 0.05867
 H712 H -0.11818 0.26227 0.09480
 H713 H -0.10043 0.29850 0.07723
 H714 H -0.11758 0.33790 0.14188
 H715 H -0.13485 0.30144 0.15940
 H716 H -0.07923 0.35446 0.13026
 H717 H -0.06214 0.39101 0.11272
 H718 H -0.09452 0.37387 0.04460
 H719 H -0.11209 0.33750 0.06204
 C720 C -0.14571 0.76137 -0.14718
 C721 C -0.13703 0.74355 -0.13846
 C722 C -0.12673 0.72222 -0.12808
 C723 C -0.13563 0.71325 -0.10637
 C724 C -0.12577 0.69244 -0.09634
 C725 C -0.10682 0.68032 -0.10792
 C726 C -0.09796 0.68953 -0.12971
 C727 C -0.10787 0.71034 -0.13971
 C728 C -0.09641 0.65813 -0.09736
 C729 C -0.07146 0.65409 -0.09782
 C730 C -0.06171 0.63316 -0.08793
 C731 C -0.07673 0.61599 -0.07747
 C732 C -0.10156 0.61984 -0.07690
 C733 C -0.11136 0.64077 -0.08676
 C734 C -0.06668 0.59443 -0.06733
 C735 C -0.05826 0.57638 -0.05883
 H736 H -0.15019 0.72235 -0.09718
 H737 H -0.13276 0.68598 -0.07940
 H738 H -0.08361 0.68045 -0.13921
 H739 H -0.10089 0.71710 -0.15657
 H740 H -0.05946 0.66725 -0.10556
 H741 H -0.04245 0.63039 -0.08840
 H742 H -0.11336 0.60664 -0.06890
 H743 H -0.13065 0.64320 -0.08641
 C744 C 0.14724 0.76014 0.14638
 C745 C 0.13863 0.74232 0.13765
 C746 C 0.12841 0.72101 0.12729
 C747 C 0.14146 0.69951 0.12728
 C748 C 0.13154 0.67877 0.11728
 C749 C 0.10839 0.67926 0.10714
 C750 C 0.09542 0.70098 0.10724
 C751 C 0.10539 0.72170 0.11724
 C752 C 0.09782 0.65721 0.09657
 C753 C 0.07346 0.65167 0.10022
 C754 C 0.06356 0.63085 0.09035
 C755 C 0.07785 0.61532 0.07669
 C756 C 0.10208 0.62068 0.07290
 C757 C 0.11203 0.64148 0.08277
 C758 C 0.06765 0.59386 0.06658
 C759 C 0.05911 0.57590 0.05813
 H760 H 0.15927 0.69876 0.13508
 H761 H 0.14185 0.66227 0.11777
 H762 H 0.07770 0.70201 0.09930
 H763 H 0.09515 0.73827 0.11710
 H764 H 0.06214 0.66325 0.11101
 H765 H 0.04478 0.62684 0.09344
 H766 H 0.11329 0.60881 0.06229
 H767 H 0.13075 0.64540 0.07936
 C768 C 0.23894 1.14649 0.85285
 C769 C 0.25683 1.13786 0.86150
 C770 C 0.27824 1.12760 0.87178
 C771 C 0.30051 1.13136 0.86080
 C772 C 0.32134 1.12146 0.87078
 C773 C 0.32015 1.10765 0.89191
 C774 C 0.29765 1.10395 0.90279
 C775 C 0.27685 1.11388 0.89278
 C776 C 0.34227 1.09716 0.90254
 C777 C 0.34215 1.07376 0.91207
 C778 C 0.36301 1.06390 0.92203
 C779 C 0.38424 1.07727 0.92262
 C780 C 0.38454 1.10056 0.91321
 C781 C 0.36371 1.11045 0.90323
 C782 C 0.40570 1.06710 0.93285
 C783 C 0.42369 1.05860 0.94141
 H784 H 0.30178 1.14190 0.84449
 H785 H 0.33833 1.12437 0.86181
 H786 H 0.29618 1.09367 0.91923
 H787 H 0.25970 1.11092 0.90147
 H788 H 0.32602 1.06297 0.91153
 H789 H 0.36260 1.04583 0.92920
 H790 H 0.40086 1.11109 0.91364
 H791 H 0.36430 1.12861 0.89634
 C792 C 0.23983 0.85241 1.14616
 C793 C 0.25765 0.86113 1.13757
 C794 C 0.27897 0.87152 1.12739
 C795 C 0.29667 0.88110 1.14241
 C796 C 0.31745 0.89111 1.13256
 C797 C 0.32079 0.89169 1.10752
 C798 C 0.30286 0.88205 1.09257
 C799 C 0.28211 0.87203 1.10246
 C800 C 0.34290 0.90226 1.09704
 C801 C 0.34168 0.91654 1.07623
 C802 C 0.36250 0.92649 1.06640
 C803 C 0.38480 0.92228 1.07721
 C804 C 0.38622 0.90809 1.09791
 C805 C 0.36542 0.89814 1.10778
 C806 C 0.40623 0.93251 1.06709
 C807 C 0.42418 0.94109 1.05861
 H808 H 0.29439 0.88086 1.16173
 H809 H 0.33076 0.89867 1.14453
 H810 H 0.30504 0.88195 1.07324
 H811 H 0.26855 0.86460 1.09067
 H812 H 0.32458 0.92030 1.06773
 H813 H 0.36120 0.93750 1.05041
 H814 H 0.40340 0.90466 1.10638
 H815 H 0.36699 0.88697 1.12361
 C816 C 0.75995 1.14711 1.14719
 C817 C 0.74213 1.13847 1.13850
 C818 C 0.72081 1.12821 1.12817
 C819 C 0.69910 1.14088 1.12890
 C820 C 0.67836 1.13094 1.11892
 C821 C 0.67906 1.10813 1.10806
 C822 C 0.70099 1.09554 1.10742
 C823 C 0.72171 1.10553 1.11741
 C824 C 0.65701 1.09754 1.09749
 C825 C 0.65192 1.07299 1.10046
 C826 C 0.63111 1.06307 1.09057
 C827 C 0.61514 1.07752 1.07758
 C828 C 0.62006 1.10194 1.07448
 C829 C 0.64084 1.11191 1.08437
 C830 C 0.59371 1.06730 1.06743
 C831 C 0.57577 1.05876 1.05892
 H832 H 0.69819 1.15843 1.13725
 H833 H 0.66170 1.14094 1.11998
 H834 H 0.70218 1.07809 1.09893
 H835 H 0.73845 1.09559 1.11669
 H836 H 0.66384 1.06153 1.11071
 H837 H 0.62745 1.04415 1.09311
 H838 H 0.60785 1.11327 1.06439
 H839 H 0.64441 1.13078 1.08150
 C840 C 0.76144 0.85383 0.85346
 C841 C 0.74362 0.86254 0.86218
 C842 C 0.72231 0.87288 0.87255
 C843 C 0.71241 0.89385 0.86283
 C844 C 0.69162 0.90382 0.87279
 C845 C 0.68042 0.89290 0.89263
 C846 C 0.69055 0.87184 0.90230
 C847 C 0.71136 0.86192 0.89231
 C848 C 0.65823 0.90337 0.90313
 C849 C 0.63930 0.88844 0.91059
 C850 C 0.61839 0.89831 0.92041
 C851 C 0.61611 0.92320 0.92293
 C852 C 0.63483 0.93821 0.91558
 C853 C 0.65576 0.92838 0.90574
 C854 C 0.59457 0.93332 0.93303
 C855 C 0.57653 0.94178 0.94152
 H856 H 0.72071 0.90244 0.84748
 H857 H 0.68409 0.91985 0.86475
 H858 H 0.68255 0.86320 0.91775
 H859 H 0.71891 0.84571 0.90002
 H860 H 0.64053 0.86915 0.90853
 H861 H 0.60398 0.88653 0.92598
 H862 H 0.63328 0.95750 0.91751
 H863 H 0.67013 0.94033 0.90046
   
