data_POSCAR
  _audit_creation_date              2014-09-24
  _audit_creation_method            'ToBaCCo'
  _symmetry_space_group_name_H-M    'P1'
  _symmetry_Int_Tables_number       1
  _symmetry_cell_setting            triclinic
  loop_
  _symmetry_equiv_pos_as_xyz
 x,y,z
_cell_length_a 25.7749
_cell_length_b 45.1650
_cell_length_c 33.4633
_cell_angle_alpha 90.018500
_cell_angle_beta 90.009700
_cell_angle_gamma 89.980800
loop_
  _atom_site_label
  _atom_site_type_symbol
  _atom_site_fract_x
  _atom_site_fract_y
  _atom_site_fract_z
B1 B -0.03683 -0.02683 0.01658
 B2 B 0.02583 -0.02386 0.02927
 B3 B 0.00922 -0.03345 -0.01739
 B4 B -0.04490 -0.01475 -0.03059
 B5 B -0.06123 0.00715 0.00909
 B6 B -0.01716 0.00110 0.04644
 B7 B 0.03468 0.02405 -0.01736
 B8 B -0.02806 0.02121 -0.02995
 B9 B -0.01146 0.03072 0.01669
 B10 B 0.04265 0.01200 0.02989
 B11 B 0.05893 -0.00987 -0.00986
 B12 B 0.01478 -0.00382 -0.04719
 B13 B 0.51568 0.48448 0.54068
 B14 B 0.45425 0.48329 0.52417
 B15 B 0.48022 0.51553 0.53873
 B16 B 0.54331 0.51624 0.52511
 B17 B 0.55605 0.48361 0.50127
 B18 B 0.50045 0.46310 0.50109
 B19 B 0.48216 0.51337 0.45841
 B20 B 0.54362 0.51453 0.47498
 B21 B 0.51761 0.48231 0.46036
 B22 B 0.45449 0.48159 0.47399
 B23 B 0.44177 0.51421 0.49783
 B24 B 0.49739 0.53473 0.49799
 B25 B 0.53512 0.02497 0.51652
 B26 B 0.47247 0.02194 0.52928
 B27 B 0.48874 0.03146 0.48259
 B28 B 0.54297 0.01290 0.46925
 B29 B 0.55968 -0.00886 0.50898
 B30 B 0.51565 -0.00293 0.54643
 B31 B 0.46396 -0.02618 0.48283
 B32 B 0.52652 -0.02301 0.46996
 B33 B 0.51027 -0.03260 0.51667
 B34 B 0.45602 -0.01408 0.53000
 B35 B 0.43925 0.00773 0.49036
 B36 B 0.48318 0.00179 0.45289
 B37 B -0.01746 0.51409 0.04065
 B38 B 0.04411 0.51503 0.02437
 B39 B 0.01759 0.48288 0.03870
 B40 B -0.04543 0.48248 0.02478
 B41 B -0.05756 0.51521 0.00106
 B42 B -0.00168 0.53548 0.00125
 B43 B 0.01625 0.48526 -0.04162
 B44 B -0.04531 0.48430 -0.02538
 B45 B -0.01882 0.51647 -0.03967
 B46 B 0.04419 0.51686 -0.02576
 B47 B 0.05633 0.48412 -0.00203
 B48 B 0.00046 0.46385 -0.00221
 B49 B 0.03392 0.47588 0.48239
 B50 B -0.02880 0.47866 0.46975
 B51 B -0.01223 0.46920 0.51641
 B52 B 0.04179 0.48798 0.52964
 B53 B 0.05805 0.50983 0.48989
 B54 B 0.01398 0.50371 0.45252
 B55 B -0.03782 0.52673 0.51623
 B56 B 0.02485 0.52382 0.52898
 B57 B 0.00827 0.53337 0.48230
 B58 B -0.04576 0.51461 0.46906
 B59 B -0.06206 0.49273 0.50873
 B60 B -0.01808 0.49884 0.54612
 B61 B 0.48164 -0.01345 -0.04197
 B62 B 0.54308 -0.01464 -0.02536
 B63 B 0.51707 0.01761 -0.03987
 B64 B 0.45393 0.01831 -0.02627
 B65 B 0.44121 -0.01436 -0.00257
 B66 B 0.49685 -0.03488 -0.00246
 B67 B 0.51504 0.01529 0.04045
 B68 B 0.45363 0.01652 0.02390
 B69 B 0.47961 -0.01575 0.03835
 B70 B 0.54272 -0.01644 0.02476
 B71 B 0.55545 0.01623 0.00107
 B72 B 0.49983 0.03675 0.00094
 B73 B 0.46235 0.52676 -0.01561
 B74 B 0.52514 0.52369 -0.02786
 B75 B 0.50804 0.53332 0.01868
 B76 B 0.45373 0.51468 0.03151
 B77 B 0.43779 0.49281 -0.00830
 B78 B 0.48228 0.49881 -0.04535
 B79 B 0.53335 0.47579 0.01879
 B80 B 0.47050 0.47870 0.03095
 B81 B 0.48758 0.46918 -0.01558
 B82 B 0.54186 0.48783 -0.02839
 B83 B 0.55776 0.50967 0.01148
 B84 B 0.51320 0.50367 0.04850
 B85 B 0.01525 0.01532 0.45983
 B86 B -0.04619 0.01659 0.47629
 B87 B -0.02022 -0.01571 0.46195
 B88 B 0.04285 -0.01640 0.47564
 B89 B 0.05557 0.01630 0.49928
 B90 B -0.00002 0.03685 0.49927
 B91 B -0.01838 -0.01326 0.54225
 B92 B 0.04308 -0.01452 0.52576
 B93 B 0.01708 0.01776 0.54014
 B94 B -0.04601 0.01847 0.52644
 B95 B -0.05871 -0.01423 0.50279
 B96 B -0.00310 -0.03478 0.50282
 B97 B 0.75726 0.21724 0.27408
 B98 B 0.77854 0.22380 0.22767
 B99 B 0.71567 0.21668 0.23580
 B100 B 0.69762 0.23234 0.27959
 B101 B 0.75144 0.24959 0.29838
 B102 B 0.80188 0.24388 0.26600
 B103 B 0.72716 0.27521 0.22672
 B104 B 0.70579 0.26895 0.27318
 B105 B 0.76870 0.27592 0.26512
 B106 B 0.78661 0.26039 0.22156
 B107 B 0.73301 0.24297 0.20266
 B108 B 0.68245 0.24853 0.23495
 B109 B 0.74392 0.78403 0.77651
 B110 B 0.72292 0.77706 0.73012
 B111 B 0.78581 0.78401 0.73844
 B112 B 0.80340 0.76873 0.78255
 B113 B 0.74923 0.75191 0.80145
 B114 B 0.69905 0.75751 0.76877
 B115 B 0.77355 0.72543 0.73035
 B116 B 0.79473 0.73208 0.77678
 B117 B 0.73176 0.72533 0.76860
 B118 B 0.71434 0.74046 0.72471
 B119 B 0.76829 0.75743 0.70568
 B120 B 0.81858 0.75200 0.73824
 B121 B 0.26973 0.22358 0.73562
 B122 B 0.20683 0.23059 0.72749
 B123 B 0.22815 0.22438 0.77399
 B124 B 0.28761 0.23918 0.77915
 B125 B 0.30295 0.25560 0.73468
 B126 B 0.25253 0.24987 0.70226
 B127 B 0.21673 0.28291 0.76470
 B128 B 0.27958 0.27577 0.77292
 B129 B 0.25836 0.28226 0.72646
 B130 B 0.19871 0.26719 0.72095
 B131 B 0.18347 0.25109 0.76564
 B132 B 0.23400 0.25667 0.79795
 B133 B 0.24522 0.71592 0.22275
 B134 B 0.22677 0.72192 0.27007
 B135 B 0.28926 0.71566 0.25930
 B136 B 0.30389 0.73187 0.21524
 B137 B 0.24826 0.74848 0.19866
 B138 B 0.20012 0.74188 0.23276
 B139 B 0.27568 0.77401 0.26972
 B140 B 0.29447 0.76834 0.22244
 B141 B 0.23181 0.77434 0.23288
 B142 B 0.21732 0.75824 0.27691
 B143 B 0.27299 0.74153 0.29351
 B144 B 0.32104 0.74807 0.25946
 B145 B 0.28893 0.78413 0.75905
 B146 B 0.22645 0.77790 0.76981
 B147 B 0.24490 0.78389 0.72250
 B148 B 0.30356 0.76791 0.71498
 B149 B 0.32070 0.75171 0.75919
 B150 B 0.27264 0.75827 0.79324
 B151 B 0.23146 0.72548 0.73257
 B152 B 0.29412 0.73145 0.72215
 B153 B 0.27532 0.72579 0.76941
 B154 B 0.21696 0.74159 0.77661
 B155 B 0.19978 0.75796 0.73248
 B156 B 0.24793 0.75133 0.69837
 B157 B 0.22514 0.27534 0.27285
 B158 B 0.20374 0.26906 0.22637
 B159 B 0.26664 0.27607 0.23443
 B160 B 0.28462 0.26056 0.27798
 B161 B 0.23107 0.24311 0.29687
 B162 B 0.18047 0.24863 0.26460
 B163 B 0.25535 0.21737 0.22543
 B164 B 0.27663 0.22396 0.27185
 B165 B 0.21377 0.21679 0.26372
 B166 B 0.19565 0.23243 0.21994
 B167 B 0.24942 0.24972 0.20115
 B168 B 0.29990 0.24406 0.23353
 B169 B 0.78943 0.71558 0.24121
 B170 B 0.72692 0.72185 0.23054
 B171 B 0.74550 0.71587 0.27783
 B172 B 0.80421 0.73179 0.28525
 B173 B 0.82125 0.74797 0.24100
 B174 B 0.77309 0.74143 0.20703
 B175 B 0.73213 0.77428 0.26771
 B176 B 0.79481 0.76826 0.27807
 B177 B 0.77589 0.77392 0.23081
 B178 B 0.71749 0.75817 0.22371
 B179 B 0.70040 0.74184 0.26789
 B180 B 0.74864 0.74844 0.30192
 B181 B 0.72783 0.22455 0.72690
 B182 B 0.70659 0.23086 0.77341
 B183 B 0.76947 0.22384 0.76525
 B184 B 0.78730 0.23933 0.72166
 B185 B 0.73365 0.25678 0.70283
 B186 B 0.68317 0.25127 0.73519
 B187 B 0.75810 0.28255 0.77421
 B188 B 0.77927 0.27593 0.72777
 B189 B 0.71643 0.28310 0.73597
 B190 B 0.69846 0.26748 0.77981
 B191 B 0.75232 0.25021 0.79853
 B192 B 0.80269 0.25587 0.76607
 N193 N 0.10252 0.45623 0.87599
 C194 C 0.07602 0.43195 0.86358
 N195 N 0.02832 0.42661 0.87890
 N196 N 0.00815 0.44461 0.90628
 C197 C 0.03467 0.46874 0.91926
 N198 N 0.08218 0.47433 0.90335
 C199 C 0.10125 0.40939 0.84042
 C200 C 0.12231 0.38885 0.82406
 C201 C 0.14734 0.36303 0.80809
 N202 N 0.14111 0.35497 0.76932
 N203 N 0.16275 0.33012 0.75560
 C204 C 0.19116 0.31251 0.78022
 N205 N 0.19699 0.32063 0.81901
 N206 N 0.17546 0.34542 0.83269
 N207 N 0.47369 0.57132 0.37771
 C208 C 0.42528 0.56724 0.36306
 N209 N 0.39674 0.54402 0.37644
 N210 N 0.41587 0.52574 0.40408
 C211 C 0.46420 0.53006 0.41927
 N212 N 0.49266 0.55314 0.40536
 C213 C 0.40223 0.58991 0.33876
 C214 C 0.38362 0.61052 0.32087
 C215 C 0.36202 0.63641 0.30230
 N216 N 0.31698 0.63486 0.28149
 N217 N 0.29503 0.65940 0.26721
 C218 C 0.31721 0.68632 0.27334
 N219 N 0.36245 0.68772 0.29401
 N220 N 0.38443 0.66320 0.30827
 N221 N 0.97120 0.92864 0.62257
 C222 C 0.92301 0.93334 0.63734
 N223 N 0.89549 0.95706 0.62428
 N224 N 0.91534 0.97523 0.59682
 C225 C 0.96338 0.97027 0.58146
 N226 N 0.99090 0.94671 0.59510
 C227 C 0.89860 0.91059 0.66066
 C228 C 0.87840 0.88986 0.67719
 C229 C 0.85451 0.86377 0.69338
 N230 N 0.83214 0.84397 0.66833
 N231 N 0.81110 0.81921 0.68249
 C232 C 0.81174 0.81329 0.72225
 N233 N 0.83443 0.83311 0.74735
 N234 N 0.85556 0.85793 0.73315
 N235 N 0.52696 0.07378 0.12017
 C236 C 0.57449 0.06827 0.13571
 N237 N 0.60090 0.04394 0.12333
 N238 N 0.58065 0.02597 0.09580
 C239 C 0.53331 0.03173 0.07968
 N240 N 0.50687 0.05590 0.09262
 C241 C 0.59971 0.09070 0.15911
 C242 C 0.62083 0.11112 0.17568
 C243 C 0.64601 0.13682 0.19187
 N244 N 0.67452 0.15436 0.16748
 N245 N 0.69616 0.17905 0.18134
 C246 C 0.69007 0.18715 0.22011
 N247 N 0.66128 0.16960 0.24453
 N248 N 0.63951 0.14485 0.23063
 N249 N 0.85972 0.07627 0.44618
 C250 C 0.85289 0.07095 0.40669
 N251 N 0.87451 0.04642 0.39026
 N252 N 0.90302 0.02812 0.41252
 C253 C 0.91101 0.03381 0.45191
 N254 N 0.88825 0.05803 0.46838
 C255 C 0.83039 0.09340 0.38183
 C256 C 0.81476 0.11359 0.36160
 C257 C 0.79951 0.13877 0.33826
 N258 N 0.83608 0.15513 0.31933
 N259 N 0.82283 0.17942 0.29922
 C260 C 0.77253 0.18821 0.29738
 N261 N 0.73597 0.17183 0.31652
 N262 N 0.74923 0.14752 0.33668
 N263 N 0.36056 0.42337 0.55407
 C264 C 0.35388 0.42853 0.59361
 N265 N 0.37541 0.45305 0.61015
 N266 N 0.40370 0.47147 0.58794
 C267 C 0.41154 0.46595 0.54848
 N268 N 0.38887 0.44175 0.53192
 C269 C 0.33154 0.40598 0.61839
 C270 C 0.31597 0.38575 0.63860
 C271 C 0.30071 0.36058 0.66196
 N272 N 0.25046 0.35178 0.66340
 N273 N 0.23718 0.32752 0.68365
 C274 C 0.27368 0.31124 0.70304
 N275 N 0.32396 0.32007 0.70133
 N276 N 0.33723 0.34431 0.68113
 N277 N 0.63796 0.92575 0.94568
 C278 C 0.64585 0.93112 0.90634
 N279 N 0.62454 0.95564 0.88962
 N280 N 0.59534 0.97387 0.91146
 C281 C 0.58629 0.96811 0.95070
 N282 N 0.60874 0.94391 0.96746
 C283 C 0.66919 0.90871 0.88185
 C284 C 0.68548 0.88849 0.86195
 C285 C 0.70135 0.86323 0.83901
 N286 N 0.66596 0.84833 0.81682
 N287 N 0.67937 0.82383 0.79725
 C288 C 0.72865 0.81334 0.79921
 N289 N 0.76402 0.82824 0.82162
 N290 N 0.75058 0.85277 0.84126
 N291 N 0.12486 0.54465 0.10982
 C292 C 0.14694 0.56891 0.09304
 N293 N 0.13981 0.57410 0.05357
 N294 N 0.11055 0.55601 0.03172
 C295 C 0.08732 0.53208 0.04852
 N296 N 0.09562 0.52650 0.08790
 C297 C 0.17034 0.59130 0.11751
 C298 C 0.18674 0.61151 0.13735
 C299 C 0.20283 0.63675 0.16022
 N300 N 0.25046 0.64887 0.15490
 N301 N 0.26378 0.67345 0.17443
 C302 C 0.22980 0.68681 0.19971
 N303 N 0.18217 0.67461 0.20488
 N304 N 0.16888 0.65005 0.18540
 N305 N 0.47790 0.92423 0.11618
 C306 C 0.42636 0.91916 0.12048
 N307 N 0.39218 0.93770 0.10253
 N308 N 0.40897 0.95999 0.07991
 C309 C 0.46057 0.96475 0.07465
 N310 N 0.49468 0.94656 0.09357
 C311 C 0.40821 0.89238 0.13907
 C312 C 0.39200 0.86948 0.15287
 C313 C 0.37115 0.84224 0.16830
 N314 N 0.33121 0.82863 0.14933
 N315 N 0.30925 0.80457 0.16499
 C316 C 0.32659 0.79318 0.20010
 N317 N 0.36742 0.80648 0.21848
 N318 N 0.38938 0.83055 0.20285
 N319 N 0.60445 0.43594 0.39529
 C320 C 0.57000 0.41791 0.37671
 N321 N 0.51854 0.42321 0.38111
 N322 N 0.50209 0.44529 0.40433
 C323 C 0.53647 0.46299 0.42380
 N324 N 0.58799 0.45799 0.41853
 C325 C 0.58780 0.39135 0.35734
 C326 C 0.60398 0.36861 0.34299
 C327 C 0.62523 0.34158 0.32717
 N328 N 0.61067 0.33146 0.29072
 N329 N 0.63356 0.30771 0.27492
 C330 C 0.67167 0.29319 0.29501
 N331 N 0.68529 0.30302 0.33191
 N332 N 0.66240 0.32675 0.34773
 N333 N 0.98083 0.57676 0.88286
 C334 C 0.92938 0.58194 0.87812
 N335 N 0.89487 0.56339 0.89564
 N336 N 0.91123 0.54097 0.91826
 C337 C 0.96272 0.53611 0.92395
 N338 N 0.99718 0.55431 0.90547
 C339 C 0.91159 0.60883 0.85956
 C340 C 0.89549 0.63180 0.84583
 C341 C 0.87442 0.65906 0.83057
 N342 N 0.83551 0.67298 0.85036
 N343 N 0.81287 0.69688 0.83479
 C344 C 0.82845 0.70779 0.79893
 N345 N 0.86835 0.69421 0.77971
 N346 N 0.89100 0.67030 0.79525
 N347 N 0.01829 0.07710 0.61908
 C348 C 0.06980 0.08211 0.62376
 N349 N 0.10411 0.06385 0.60543
 N350 N 0.08750 0.04186 0.58218
 C351 C 0.03595 0.03714 0.57663
 N352 N 0.00169 0.05507 0.59584
 C353 C 0.08786 0.10858 0.64318
 C354 C 0.10428 0.13124 0.65759
 C355 C 0.12579 0.15817 0.67348
 N356 N 0.16291 0.17297 0.65287
 N357 N 0.18600 0.19661 0.66873
 C358 C 0.17263 0.20638 0.70571
 N359 N 0.13457 0.19188 0.72586
 N360 N 0.11148 0.16822 0.71003
 N361 N 0.09559 0.40240 0.45599
 C362 C 0.12542 0.40990 0.42414
 N363 N 0.12782 0.43856 0.41260
 N364 N 0.10078 0.45910 0.43201
 C365 C 0.07024 0.45170 0.46351
 N366 N 0.06855 0.42301 0.47550
 C367 C 0.14848 0.38754 0.39963
 C368 C 0.16497 0.36885 0.37740
 C369 C 0.18069 0.34625 0.35003
 N370 N 0.14542 0.32616 0.33738
 N371 N 0.15924 0.30477 0.31226
 C372 C 0.20866 0.30290 0.29852
 N373 N 0.24403 0.32314 0.31116
 N374 N 0.23018 0.34461 0.33638
 N375 N 0.36163 0.56418 0.92051
 C376 C 0.37513 0.59307 0.92336
 N377 N 0.41463 0.60098 0.94791
 N378 N 0.44036 0.58052 0.96863
 C379 C 0.42743 0.55150 0.96539
 N380 N 0.38734 0.54375 0.94121
 C381 C 0.35235 0.61443 0.89715
 C382 C 0.33600 0.63252 0.87398
 C383 C 0.32023 0.65463 0.84593
 N384 N 0.35613 0.67329 0.83062
 N385 N 0.34209 0.69469 0.80560
 C386 C 0.29173 0.69801 0.79467
 N387 N 0.25573 0.67919 0.80997
 N388 N 0.26980 0.65773 0.83510
 N389 N 0.63006 0.06212 0.58560
 C390 C 0.62667 0.09091 0.57479
 N391 N 0.59575 0.09859 0.54364
 N392 N 0.56861 0.07804 0.52410
 C393 C 0.57130 0.04922 0.53538
 N394 N 0.60293 0.04164 0.56617
 C395 C 0.64996 0.11310 0.59943
 C396 C 0.66670 0.13160 0.62182
 C397 C 0.68269 0.15398 0.64942
 N398 N 0.73242 0.15569 0.66254
 N399 N 0.74652 0.17701 0.68791
 C400 C 0.71116 0.19702 0.70125
 N401 N 0.66149 0.19507 0.68805
 N402 N 0.64744 0.17384 0.66279
 N403 N 0.86215 0.93571 0.08010
 C404 C 0.87560 0.90682 0.07716
 N405 N 0.91513 0.89893 0.05262
 N406 N 0.94093 0.91940 0.03202
 C407 C 0.92805 0.94843 0.03535
 N408 N 0.88794 0.95617 0.05951
 C409 C 0.85279 0.88542 0.10327
 C410 C 0.83644 0.86729 0.12636
 C411 C 0.82069 0.84512 0.15434
 N412 N 0.77028 0.84200 0.16516
 N413 N 0.75624 0.82052 0.19025
 C414 C 0.79226 0.80168 0.20552
 N415 N 0.84261 0.80501 0.19459
 N416 N 0.85662 0.82643 0.16961
 N417 N 0.94223 0.09100 0.91172
 C418 C 0.90125 0.08280 0.88892
 N419 N 0.88250 0.05484 0.89222
 N420 N 0.90434 0.03567 0.91748
 C421 C 0.94551 0.04385 0.94035
 N422 N 0.96397 0.07187 0.93692
 C423 C 0.87762 0.10394 0.86252
 C424 C 0.85912 0.12298 0.84163
 C425 C 0.83862 0.14722 0.81877
 N426 N 0.79323 0.14467 0.79850
 N427 N 0.77254 0.16814 0.78027
 C428 C 0.79650 0.19493 0.78175
 N429 N 0.84222 0.19721 0.80167
 N430 N 0.86291 0.17379 0.81979
 N431 N 0.04640 0.57550 0.61659
 C432 C 0.09603 0.58451 0.61104
 N433 N 0.12307 0.57393 0.57933
 N434 N 0.10112 0.55495 0.55393
 C435 C 0.05122 0.54610 0.55917
 N436 N 0.02448 0.55653 0.59120
 C437 C 0.11858 0.60634 0.63701
 C438 C 0.13692 0.62554 0.65771
 C439 C 0.15810 0.64964 0.68050
 N440 N 0.13559 0.67670 0.67849
 N441 N 0.15738 0.69989 0.69638
 C442 C 0.20242 0.69690 0.71704
 N443 N 0.22452 0.66963 0.71955
 N444 N 0.20273 0.64639 0.70157
 N445 N 0.62444 0.92634 0.42027
 C446 C 0.59765 0.91603 0.38827
 N447 N 0.54835 0.92547 0.38226
 N448 N 0.52649 0.94457 0.40750
 C449 C 0.55297 0.95472 0.43982
 N450 N 0.60256 0.94545 0.44552
 C451 C 0.62004 0.89402 0.36251
 C452 C 0.63823 0.87467 0.34199
 C453 C 0.65926 0.85042 0.31943
 N454 N 0.70379 0.85352 0.29821
 N455 N 0.72542 0.83016 0.28038
 C456 C 0.70328 0.80293 0.28319
 N457 N 0.65836 0.80008 0.30402
 N458 N 0.63671 0.82339 0.32176
 N459 N 0.44048 0.40902 0.08930
 C460 C 0.39899 0.41717 0.11158
 N461 N 0.37998 0.44504 0.10790
 N462 N 0.40206 0.46420 0.08279
 C463 C 0.44375 0.45608 0.06045
 N464 N 0.46247 0.42814 0.06424
 C465 C 0.37513 0.39604 0.13782
 C466 C 0.35648 0.37699 0.15858
 C467 C 0.33585 0.35274 0.18129
 N468 N 0.36043 0.32624 0.18060
 N469 N 0.33966 0.30280 0.19859
 C470 C 0.29360 0.30499 0.21801
 N471 N 0.26934 0.33171 0.21916
 N472 N 0.29009 0.35521 0.20107
 N473 N 0.51334 0.59526 0.09381
 C474 C 0.55592 0.61047 0.08189
 N475 N 0.57979 0.60269 0.04737
 N476 N 0.56240 0.57994 0.02591
 C477 C 0.52043 0.56424 0.03813
 N478 N 0.49592 0.57252 0.07229
 C479 C 0.58018 0.63132 0.10820
 C480 C 0.60343 0.64753 0.13047
 C481 C 0.63406 0.66573 0.15642
 N482 N 0.68559 0.66868 0.14961
 N483 N 0.71459 0.68549 0.17342
 C484 C 0.69321 0.69970 0.20514
 N485 N 0.64151 0.69669 0.21194
 N486 N 0.61243 0.67984 0.18808
 N487 N 0.08130 0.89736 0.95350
 C488 C 0.05683 0.88936 0.91932
 N489 N 0.01382 0.90436 0.90781
 N490 N -0.00346 0.92711 0.92938
 C491 C 0.02163 0.93561 0.96320
 N492 N 0.06405 0.92012 0.97502
 C493 C 0.08080 0.86850 0.89287
 C494 C 0.10382 0.85228 0.87046
 C495 C 0.13420 0.83407 0.84434
 N496 N 0.11221 0.81978 0.81298
 N497 N 0.14108 0.80292 0.78897
 C498 C 0.19292 0.80008 0.79532
 N499 N 0.21465 0.81447 0.82675
 N500 N 0.18587 0.83130 0.85070
 N501 N 0.41352 0.09886 0.45081
 C502 C 0.44104 0.10842 0.41883
 N503 N 0.48661 0.09502 0.40978
 N504 N 0.50356 0.07231 0.43159
 C505 C 0.47560 0.06231 0.46325
 N506 N 0.43043 0.07615 0.47256
 C507 C 0.41874 0.12971 0.39211
 C508 C 0.39768 0.14655 0.36940
 C509 C 0.37032 0.16588 0.34276
 N510 N 0.33727 0.15461 0.31512
 N511 N 0.30904 0.17257 0.29219
 C512 C 0.31293 0.20240 0.29616
 N513 N 0.34638 0.21356 0.32370
 N514 N 0.37459 0.19562 0.34662
 N515 N 0.98689 0.40564 0.58923
 C516 C 0.94153 0.39199 0.58025
 N517 N 0.91376 0.40141 0.54831
 N518 N 0.93021 0.42421 0.52653
 C519 C 0.97517 0.43829 0.53578
 N520 N 1.00338 0.42844 0.56739
 C521 C 0.91969 0.37059 0.60700
 C522 C 0.89903 0.35364 0.62977
 C523 C 0.87213 0.33418 0.65651
 N524 N 0.84028 0.34535 0.68505
 N525 N 0.81237 0.32732 0.70809
 C526 C 0.81536 0.29752 0.70332
 N527 N 0.84761 0.28646 0.67488
 N528 N 0.87550 0.30446 0.65185
 N529 N 0.97371 0.57197 0.12148
 C530 C 0.92550 0.56762 0.13636
 N531 N 0.89720 0.54428 0.12302
 N532 N 0.91638 0.52614 0.09522
 C533 C 0.96452 0.53072 0.07983
 N534 N 0.99272 0.55393 0.09367
 C535 C 0.90236 0.59011 0.16092
 C536 C 0.88371 0.61061 0.17902
 C537 C 0.86213 0.63641 0.19782
 N538 N 0.81700 0.63482 0.21849
 N539 N 0.79507 0.65932 0.23293
 C540 C 0.81736 0.68625 0.22709
 N541 N 0.86271 0.68769 0.20656
 N542 N 0.88466 0.66321 0.19216
 N543 N 0.60149 0.45582 0.62360
 C544 C 0.57515 0.43145 0.63587
 N545 N 0.52770 0.42589 0.62022
 N546 N 0.50761 0.44378 0.59268
 C547 C 0.53398 0.46799 0.57985
 N548 N 0.58124 0.47379 0.59607
 C549 C 0.60037 0.40905 0.65929
 C550 C 0.62150 0.38864 0.67588
 C551 C 0.64672 0.36296 0.69210
 N552 N 0.67597 0.34568 0.66787
 N553 N 0.69763 0.32098 0.68172
 C554 C 0.69081 0.31263 0.72031
 N555 N 0.66126 0.32992 0.74456
 N556 N 0.63948 0.35467 0.73067
 N557 N 0.10112 0.04399 0.37698
 C558 C 0.07437 0.06810 0.36429
 N559 N 0.02671 0.07347 0.37966
 N560 N 0.00678 0.05564 0.40732
 C561 C 0.03354 0.03168 0.42057
 N562 N 0.08104 0.02607 0.40463
 C563 C 0.09933 0.09053 0.34076
 C564 C 0.12016 0.11100 0.32410
 C565 C 0.14496 0.13679 0.30785
 N566 N 0.13896 0.14450 0.26893
 N567 N 0.16041 0.16931 0.25496
 C568 C 0.18836 0.18724 0.27948
 N569 N 0.19395 0.17946 0.31841
 N570 N 0.17262 0.15471 0.33233
 N571 N 0.47333 0.92869 0.87717
 C572 C 0.42481 0.93267 0.86266
 N573 N 0.39616 0.95583 0.87615
 N574 N 0.41528 0.97414 0.90378
 C575 C 0.46371 0.96991 0.91884
 N576 N 0.49227 0.94689 0.90480
 C577 C 0.40181 0.90995 0.83841
 C578 C 0.38322 0.88931 0.82057
 C579 C 0.36165 0.86339 0.80206
 N580 N 0.38389 0.83658 0.80827
 N581 N 0.36194 0.81205 0.79402
 C582 C 0.31689 0.81347 0.77310
 N583 N 0.29487 0.84041 0.76674
 N584 N 0.31680 0.86495 0.78101
 N585 N 0.12374 0.95533 0.61093
 C586 C 0.14603 0.93123 0.59383
 N587 N 0.13896 0.92630 0.55429
 N588 N 0.10961 0.94448 0.53266
 C589 C 0.08621 0.96825 0.54977
 N590 N 0.09441 0.97357 0.58923
 C591 C 0.16960 0.90874 0.61802
 C592 C 0.18612 0.88846 0.63765
 C593 C 0.20230 0.86315 0.66031
 N594 N 0.24984 0.85096 0.65472
 N595 N 0.26323 0.82634 0.67413
 C596 C 0.22940 0.81300 0.69953
 N597 N 0.18186 0.82527 0.70496
 N598 N 0.16850 0.84987 0.68562
 N599 N 0.62517 0.54443 0.39017
 C600 C 0.64665 0.56882 0.40711
 N601 N 0.63880 0.57406 0.44649
 N602 N 0.60944 0.55588 0.46810
 C603 C 0.58683 0.53181 0.45114
 N604 N 0.59583 0.52619 0.41186
 C605 C 0.67022 0.59125 0.38281
 C606 C 0.68673 0.61148 0.36308
 C607 C 0.70288 0.63673 0.34029
 N608 N 0.66881 0.65023 0.31540
 N609 N 0.68219 0.67477 0.29595
 C610 C 0.73003 0.68676 0.30084
 N611 N 0.76414 0.67320 0.32583
 N612 N 0.75073 0.64864 0.34534
 N613 N 0.35924 0.07620 0.05361
 C614 C 0.35252 0.07108 0.09315
 N615 N 0.37434 0.04668 0.10977
 N616 N 0.40293 0.02833 0.08764
 C617 C 0.41079 0.03381 0.04819
 N618 N 0.38785 0.05790 0.03154
 C619 C 0.32977 0.09358 0.11784
 C620 C 0.31389 0.11379 0.13797
 C621 C 0.29834 0.13897 0.16124
 N622 N 0.33467 0.15533 0.18047
 N623 N 0.32118 0.17958 0.20057
 C624 C 0.27085 0.18836 0.20211
 N625 N 0.23452 0.17199 0.18268
 N626 N 0.24803 0.14771 0.16252
 N627 N 0.85988 0.42494 0.94479
 C628 C 0.85390 0.42978 0.90512
 N629 N 0.87624 0.45398 0.88840
 N630 N 0.90467 0.47239 0.91057
 C631 C 0.91185 0.46715 0.95017
 N632 N 0.88833 0.44328 0.96690
 C633 C 0.83150 0.40712 0.88052
 C634 C 0.81591 0.38674 0.86059
 C635 C 0.80064 0.36134 0.83766
 N636 N 0.75023 0.35292 0.83559
 N637 N 0.73689 0.32849 0.81574
 C638 C 0.77351 0.31163 0.79740
 N639 N 0.82395 0.32008 0.79973
 N640 N 0.83727 0.34449 0.81954
 N641 N 0.60421 0.06394 0.89529
 C642 C 0.56991 0.08216 0.87689
 N643 N 0.51840 0.07703 0.88133
 N644 N 0.50178 0.05492 0.90441
 C645 C 0.53603 0.03703 0.92370
 N646 N 0.58758 0.04187 0.91839
 C647 C 0.58794 0.10870 0.85760
 C648 C 0.60432 0.13140 0.84328
 C649 C 0.62578 0.15837 0.82746
 N650 N 0.61099 0.16864 0.79114
 N651 N 0.63400 0.19233 0.77533
 C652 C 0.67247 0.20665 0.79528
 N653 N 0.68633 0.19666 0.83205
 N654 N 0.66333 0.17299 0.84787
 N655 N 0.47833 0.57557 0.61653
 C656 C 0.42677 0.58055 0.62090
 N657 N 0.39267 0.56192 0.60304
 N658 N 0.40955 0.53963 0.58043
 C659 C 0.46116 0.53496 0.57510
 N660 N 0.49520 0.55324 0.59393
 C661 C 0.40849 0.60735 0.63937
 C662 C 0.39216 0.63027 0.65304
 C663 C 0.37115 0.65752 0.66831
 N664 N 0.33099 0.67094 0.64937
 N665 N 0.30890 0.69502 0.66491
 C666 C 0.32632 0.70660 0.69988
 N667 N 0.36738 0.69350 0.71823
 N668 N 0.38947 0.66942 0.70271
 N669 N 0.10358 0.43618 0.10408
 C670 C 0.06888 0.41811 0.12229
 N671 N 0.01748 0.42346 0.11753
 N672 N 0.00135 0.44562 0.09432
 C673 C 0.03599 0.46337 0.07523
 N674 N 0.08744 0.45831 0.08086
 C675 C 0.08641 0.39151 0.14174
 C676 C 0.10240 0.36876 0.15619
 C677 C 0.12345 0.34171 0.17214
 N678 N 0.10912 0.33184 0.20877
 N679 N 0.13189 0.30808 0.22466
 C680 C 0.16964 0.29330 0.20450
 N681 N 0.18302 0.30290 0.16744
 N682 N 0.16026 0.32663 0.15153
 N683 N 0.97831 0.92427 0.38408
 C684 C 0.92679 0.91915 0.37974
 N685 N 0.89254 0.93765 0.39770
 N686 N 0.90925 0.95995 0.42035
 C687 C 0.96083 0.96476 0.42564
 N688 N 0.99501 0.94662 0.40672
 C689 C 0.90873 0.89235 0.36116
 C690 C 0.89255 0.86943 0.34740
 C691 C 0.87167 0.84217 0.33204
 N692 N 0.83171 0.82863 0.35103
 N693 N 0.80970 0.80456 0.33543
 C694 C 0.82701 0.79310 0.30035
 N695 N 0.86786 0.80633 0.28194
 N696 N 0.88988 0.83041 0.29752
 N697 N 0.85991 0.56370 0.57911
 C698 C 0.87328 0.59262 0.57667
 N699 N 0.91326 0.60071 0.55269
 N700 N 0.93955 0.58039 0.53212
 C701 C 0.92673 0.55133 0.53497
 N702 N 0.88618 0.54341 0.55856
 C703 C 0.85001 0.61381 0.60287
 C704 C 0.83345 0.63182 0.62607
 C705 C 0.81784 0.65396 0.65413
 N706 N 0.85370 0.67301 0.66860
 N707 N 0.83986 0.69447 0.69358
 C708 C 0.78976 0.69749 0.70534
 N709 N 0.75378 0.67828 0.69089
 N710 N 0.76766 0.65674 0.66579
 N711 N 0.62700 0.43850 0.08877
 C712 C 0.62540 0.40992 0.07673
 N713 N 0.59593 0.40246 0.04466
 N714 N 0.56854 0.42302 0.02536
 C715 C 0.56949 0.45162 0.03782
 N716 N 0.59962 0.45899 0.06958
 C717 C 0.64902 0.38757 0.10087
 C718 C 0.66595 0.36885 0.12284
 C719 C 0.68204 0.34618 0.14993
 N720 N 0.73159 0.34462 0.16347
 N721 N 0.74570 0.32311 0.18853
 C722 C 0.71052 0.30275 0.20111
 N723 N 0.66104 0.30454 0.18746
 N724 N 0.64697 0.32596 0.16251
 N725 N 0.41643 0.89944 0.44683
 C726 C 0.37640 0.90719 0.42270
 N727 N 0.36251 0.93603 0.42001
 N728 N 0.38836 0.95656 0.44044
 C729 C 0.42896 0.94896 0.46419
 N730 N 0.44230 0.91999 0.46728
 C731 C 0.35339 0.88573 0.39676
 C732 C 0.33686 0.86754 0.37380
 C733 C 0.32093 0.84530 0.34596
 N734 N 0.27049 0.84228 0.33512
 N735 N 0.25630 0.82075 0.31012
 C736 C 0.29219 0.80178 0.29497
 N737 N 0.34256 0.80502 0.30592
 N738 N 0.35672 0.82648 0.33081
 N739 N 0.09677 0.09744 0.95644
 C740 C 0.12661 0.08991 0.92459
 N741 N 0.12875 0.06126 0.91293
 N742 N 0.10151 0.04078 0.93222
 C743 C 0.07099 0.04821 0.96373
 N744 N 0.06952 0.07688 0.97584
 C745 C 0.15006 0.11223 0.90028
 C746 C 0.16690 0.13091 0.87820
 C747 C 0.18297 0.15353 0.85100
 N748 N 0.14798 0.17385 0.83852
 N749 N 0.16205 0.19522 0.81350
 C750 C 0.21146 0.19688 0.79969
 N751 N 0.24657 0.17642 0.81216
 N752 N 0.23245 0.15496 0.83728
 N753 N 0.12396 0.92589 0.07949
 C754 C 0.09699 0.91545 0.11130
 N755 N 0.04747 0.92461 0.11697
 N756 N 0.02558 0.94360 0.09160
 C757 C 0.05224 0.95389 0.05946
 N758 N 0.10204 0.94488 0.05410
 C759 C 0.11946 0.89360 0.13725
 C760 C 0.13770 0.87437 0.15797
 C761 C 0.15875 0.85025 0.18077
 N762 N 0.13615 0.82323 0.17875
 N763 N 0.15783 0.80001 0.19667
 C764 C 0.20285 0.80295 0.21737
 N765 N 0.22504 0.83018 0.21988
 N766 N 0.20336 0.85345 0.20188
 N767 N 0.94136 0.40873 0.41174
 C768 C 0.90068 0.41698 0.38866
 N769 N 0.88219 0.44502 0.39165
 N770 N 0.90398 0.46422 0.41688
 C771 C 0.94485 0.45599 0.44004
 N772 N 0.96306 0.42789 0.43692
 C773 C 0.87707 0.39581 0.36229
 C774 C 0.85854 0.37676 0.34142
 C775 C 0.83797 0.35253 0.31858
 N776 N 0.86240 0.32599 0.31938
 N777 N 0.84164 0.30257 0.30128
 C778 C 0.79573 0.30483 0.28163
 N779 N 0.77163 0.33159 0.28038
 N780 N 0.79238 0.35506 0.29858
 N781 N 0.44140 0.09178 0.58714
 C782 C 0.40175 0.08312 0.61099
 N783 N 0.38430 0.05484 0.60852
 N784 N 0.40612 0.03581 0.58306
 C785 C 0.44596 0.04445 0.55914
 N786 N 0.46312 0.07279 0.56174
 C787 C 0.37817 0.10408 0.63769
 C788 C 0.35966 0.12298 0.65883
 C789 C 0.33911 0.14707 0.68196
 N790 N 0.29323 0.14456 0.70155
 N791 N 0.27246 0.16797 0.71989
 C792 C 0.29682 0.19466 0.71917
 N793 N 0.34303 0.19688 0.69995
 N794 N 0.36381 0.17353 0.68173
 N795 N 0.62477 0.57323 0.92266
 C796 C 0.59821 0.58409 0.89089
 N797 N 0.54845 0.57544 0.88501
 N798 N 0.52592 0.55654 0.91014
 C799 C 0.55218 0.54584 0.94224
 N800 N 0.60222 0.55432 0.94780
 C801 C 0.62130 0.60592 0.86532
 C802 C 0.63987 0.62520 0.84493
 C803 C 0.66094 0.64943 0.82244
 N804 N 0.70527 0.64629 0.80097
 N805 N 0.72651 0.66960 0.78277
 C806 C 0.70415 0.69678 0.78548
 N807 N 0.65950 0.69966 0.80664
 N808 N 0.63826 0.67642 0.82475
 N809 N 0.48695 0.40561 0.91157
 C810 C 0.44161 0.39194 0.92048
 N811 N 0.41374 0.40135 0.95238
 N812 N 0.43011 0.42416 0.97420
 C813 C 0.47505 0.43827 0.96501
 N814 N 0.50335 0.42843 0.93344
 C815 C 0.41986 0.37053 0.89368
 C816 C 0.39925 0.35358 0.87086
 C817 C 0.37240 0.33412 0.84408
 N818 N 0.33994 0.34527 0.81593
 N819 N 0.31206 0.32722 0.79289
 C820 C 0.31569 0.29741 0.79726
 N821 N 0.34856 0.28637 0.82529
 N822 N 0.37643 0.30440 0.84832
 N823 N 0.91435 0.09853 0.04836
 C824 C 0.94188 0.10791 0.08045
 N825 N 0.98717 0.09424 0.08961
 N826 N 1.00382 0.07145 0.06779
 C827 C 0.97584 0.06164 0.03603
 N828 N 0.93097 0.07575 0.02660
 C829 C 0.91981 0.12927 0.10718
 C830 C 0.89894 0.14618 0.12992
 C831 C 0.87181 0.16558 0.15662
 N832 N 0.83918 0.15437 0.18459
 N833 N 0.81112 0.17238 0.20757
 C834 C 0.81473 0.20220 0.20331
 N835 N 0.84775 0.21329 0.17544
 N836 N 0.87580 0.19531 0.15247
 N837 N 0.51312 0.90463 0.59057
 C838 C 0.55777 0.89057 0.58071
 N839 N 0.58420 0.89935 0.54779
 N840 N 0.56719 0.92198 0.52593
 C841 C 0.52305 0.93654 0.53611
 N842 N 0.49609 0.92726 0.56866
 C843 C 0.58062 0.86961 0.60760
 C844 C 0.60206 0.85314 0.63058
 C845 C 0.62974 0.83433 0.65767
 N846 N 0.62193 0.80469 0.65729
 N847 N 0.65006 0.78709 0.68072
 C848 C 0.68694 0.79849 0.70532
 N849 N 0.69437 0.82823 0.70584
 N850 N 0.66622 0.84586 0.68240
 N851 N 0.08034 0.60261 0.45349
 C852 C 0.05637 0.61044 0.41903
 N853 N 0.01362 0.59533 0.40721
 N854 N -0.00387 0.57264 0.42877
 C855 C 0.02073 0.56430 0.46287
 N856 N 0.06287 0.57991 0.47499
 C857 C 0.08062 0.63127 0.39268
 C858 C 0.10381 0.64747 0.37037
 C859 C 0.13430 0.66570 0.34435
 N860 N 0.11248 0.67987 0.31282
 N861 N 0.14143 0.69675 0.28892
 C862 C 0.19318 0.69974 0.29554
 N863 N 0.21475 0.68547 0.32714
 N864 N 0.18588 0.66863 0.35099
   
