data_POSCAR
  _audit_creation_date              2014-09-24
  _audit_creation_method            'ToBaCCo'
  _symmetry_space_group_name_H-M    'P1'
  _symmetry_Int_Tables_number       1
  _symmetry_cell_setting            triclinic
  loop_
  _symmetry_equiv_pos_as_xyz
 x,y,z
_cell_length_a 62.8531
_cell_length_b 62.6138
_cell_length_c 28.4992
_cell_angle_alpha 89.967000
_cell_angle_beta 90.012500
_cell_angle_gamma 120.328300
loop_
  _atom_site_label
  _atom_site_type_symbol
  _atom_site_fract_x
  _atom_site_fract_y
  _atom_site_fract_z
C1 C 0.49894 0.99986 0.47661
 C2 C 0.49871 0.99985 0.52442
 C3 C 0.48767 0.97650 0.55194
 C4 C 0.50945 1.02316 0.55194
 C5 C 0.51179 1.02322 0.44917
 C6 C 0.48634 0.97653 0.44913
 C7 C 0.46973 0.97187 0.58570
 C8 C 0.45947 0.95033 0.61269
 C9 C 0.46698 0.93255 0.60722
 C10 C 0.48524 0.93768 0.57264
 C11 C 0.49546 0.95933 0.54581
 C12 C 0.50172 1.04040 0.54489
 C13 C 0.51168 1.06200 0.57184
 C14 C 0.52933 1.06658 0.60669
 C15 C 0.53693 1.04920 0.61371
 C16 C 0.52702 1.02769 0.58673
 C17 C 0.53687 1.04040 0.45648
 C18 C 0.54869 1.06219 0.43006
 C19 C 0.53573 1.06704 0.39546
 C20 C 0.51068 1.04966 0.38800
 C21 C 0.49888 1.02795 0.41448
 C22 C 0.49958 0.97176 0.41524
 C23 C 0.48800 0.95006 0.38872
 C24 C 0.46286 0.93275 0.39532
 C25 C 0.44957 0.93763 0.42913
 C26 C 0.46118 0.95940 0.45560
 H27 H 0.46332 0.98485 0.59071
 H28 H 0.44477 0.94753 0.63608
 H29 H 0.49304 0.92595 0.56742
 H30 H 0.50983 0.96291 0.52071
 H31 H 0.48779 1.03701 0.51888
 H32 H 0.50520 1.07486 0.56610
 H33 H 0.53319 1.01459 0.59276
 H34 H 0.54730 1.03685 0.48241
 H35 H 0.56809 1.07503 0.43610
 H36 H 0.50012 1.05300 0.36202
 H37 H 0.47955 1.01490 0.40823
 H38 H 0.51899 0.98477 0.40965
 H39 H 0.49881 0.94670 0.36337
 H40 H 0.43011 0.92484 0.43449
 H41 H 0.45050 0.96299 0.48089
 H42 H 0.55072 1.05235 0.63985
 C43 C 0.00004 0.49880 0.47569
 C44 C 0.00003 0.49899 0.52350
 C45 C 0.02330 0.51173 0.55095
 C46 C -0.02324 0.48646 0.55096
 C47 C -0.02320 0.48792 0.44815
 C48 C 0.02327 0.50945 0.44818
 C49 C 0.02787 0.49864 0.58561
 C50 C 0.04950 0.51034 0.61208
 C51 C 0.06695 0.53544 0.60465
 C52 C 0.06226 0.54858 0.57009
 C53 C 0.04055 0.53687 0.54368
 C54 C -0.04045 0.46125 0.54440
 C55 C -0.06216 0.44972 0.57084
 C56 C -0.06690 0.46313 0.60470
 C57 C -0.04950 0.48830 0.61141
 C58 C -0.02786 0.49981 0.58492
 C59 C -0.04016 0.49596 0.45437
 C60 C -0.06169 0.48589 0.42747
 C61 C -0.06674 0.46766 0.39299
 C62 C -0.04934 0.45986 0.38720
 C63 C -0.02791 0.46992 0.41424
 C64 C 0.02794 0.52715 0.41343
 C65 C 0.04937 0.53696 0.38644
 C66 C 0.06652 0.52912 0.39343
 C67 C 0.06180 0.51134 0.42825
 C68 C 0.04029 0.50148 0.45520
 H69 H 0.01476 0.47926 0.59183
 H70 H 0.05272 0.49964 0.63803
 H71 H 0.07516 0.56803 0.56408
 H72 H 0.03712 0.54744 0.51778
 H73 H -0.03698 0.45049 0.51906
 H74 H -0.07502 0.43022 0.56540
 H75 H -0.01478 0.51926 0.59058
 H76 H -0.03654 0.51033 0.47961
 H77 H -0.07365 0.49344 0.43259
 H78 H -0.05242 0.44526 0.36305
 H79 H -0.01507 0.46339 0.40907
 H80 H 0.01501 0.53350 0.40742
 H81 H 0.05262 0.55086 0.36033
 H82 H 0.07449 0.50467 0.43396
 H83 H 0.03678 0.48744 0.48118
 H84 H -0.05275 0.49920 0.63681
 C85 C 0.50092 0.50087 0.47656
 C86 C 0.50090 0.50087 0.52436
 C87 C 0.48967 0.51284 0.55182
 C88 C 0.51210 0.48889 0.55193
 C89 C 0.51338 0.49016 0.44910
 C90 C 0.48846 0.51156 0.44899
 C91 C 0.49717 0.53786 0.54552
 C92 C 0.48651 0.54885 0.57194
 C93 C 0.46821 0.53516 0.60600
 C94 C 0.46104 0.50997 0.61204
 C95 C 0.47168 0.49909 0.58548
 C96 C 0.53006 0.50264 0.58562
 C97 C 0.54066 0.49174 0.61231
 C98 C 0.53346 0.46654 0.60637
 C99 C 0.51519 0.45286 0.57226
 C100 C 0.50458 0.46387 0.54572
 C101 C 0.50000 0.47198 0.41529
 C102 C 0.51140 0.46188 0.38868
 C103 C 0.53651 0.46990 0.39510
 C104 C 0.54995 0.48823 0.42886
 C105 C 0.53852 0.49838 0.45544
 C106 C 0.46332 0.50332 0.45523
 C107 C 0.45189 0.51344 0.42853
 C108 C 0.46534 0.53177 0.39474
 C109 C 0.49046 0.53982 0.38842
 C110 C 0.50186 0.52975 0.41515
 H111 H 0.51151 0.54899 0.52047
 H112 H 0.49361 0.56841 0.56672
 H113 H 0.44646 0.49808 0.63592
 H114 H 0.46557 0.47969 0.59071
 H115 H 0.53619 0.52205 0.59079
 H116 H 0.55522 0.50363 0.63621
 H117 H 0.49025 0.45275 0.52065
 H118 H 0.48061 0.46544 0.40982
 H119 H 0.50048 0.44758 0.36338
 H120 H 0.56940 0.49504 0.43409
 H121 H 0.54930 0.51277 0.48069
 H122 H 0.45253 0.48893 0.48050
 H123 H 0.43242 0.50660 0.43368
 H124 H 0.50139 0.55412 0.36310
 H125 H 0.52127 0.53630 0.40976
 H126 H 0.50807 0.43330 0.56711
 O127 O 0.37113 0.66067 -0.03801
 O128 O 0.37031 0.70150 -0.05159
 C129 C 0.35904 0.71310 -0.06006
 O130 O 0.33991 0.70917 -0.03753
 O131 O 0.29953 0.66759 -0.05558
 C132 C 0.28796 0.64471 -0.06521
 O133 O 0.29120 0.62904 -0.04266
 O134 O 0.33317 0.63081 -0.05655
 C135 C 0.35627 0.64237 -0.06318
 O136 O 0.36839 0.66612 0.05531
 O137 O 0.36987 0.70814 0.04178
 C138 C 0.35423 0.71124 0.06455
 O139 O 0.33141 0.69950 0.05508
 O140 O 0.29008 0.65887 0.03704
 C141 C 0.28630 0.63965 0.05937
 O142 O 0.29797 0.62847 0.05064
 O143 O 0.33877 0.62797 0.03670
 C144 C 0.35699 0.64292 0.06186
 Cr145 Cr 0.36858 0.68342 0.00180
 Cr146 Cr 0.31591 0.68311 -0.00025
 Cr147 Cr 0.31595 0.63042 -0.00289
 O148 O 0.33347 0.66566 -0.00045
 O149 O 0.62942 0.34012 -0.03689
 O150 O 0.62969 0.29904 -0.05080
 C151 C 0.64071 0.28723 -0.05953
 O152 O 0.65983 0.29092 -0.03723
 O153 O 0.70043 0.33229 -0.05537
 C154 C 0.71222 0.35519 -0.06486
 O155 O 0.70923 0.37096 -0.04211
 O156 O 0.66749 0.36972 -0.05558
 C157 C 0.64438 0.35837 -0.06208
 O158 O 0.63223 0.33447 0.05636
 O159 O 0.63022 0.29223 0.04251
 C160 C 0.64577 0.28888 0.06504
 O161 O 0.66856 0.30040 0.05537
 O162 O 0.71010 0.34079 0.03723
 C163 C 0.71412 0.36004 0.05974
 O164 O 0.70265 0.37145 0.05126
 O165 O 0.66210 0.37252 0.03774
 C166 C 0.64385 0.35767 0.06295
 Cr167 Cr 0.63173 0.31714 0.00271
 Cr168 Cr 0.68407 0.31678 0.00001
 Cr169 Cr 0.68469 0.36981 -0.00210
 O170 O 0.66684 0.33457 0.00021
 C171 C 0.44862 0.86914 -0.35135
 C172 C 0.43685 0.86812 -0.30923
 C173 C 0.43509 0.88845 -0.29496
 C174 C 0.44501 0.90979 -0.32254
 C175 C 0.45713 0.91150 -0.36568
 C176 C 0.45864 0.89045 -0.37921
 C177 C 0.42665 0.84633 -0.28020
 C178 C 0.41800 0.82843 -0.25498
 C179 C 0.40777 0.80786 -0.22446
 C180 C 0.39899 0.79063 -0.19759
 C181 C 0.38847 0.77047 -0.16458
 C182 C 0.36675 0.76474 -0.14080
 C183 C 0.35700 0.74588 -0.10723
 C184 C 0.36889 0.73248 -0.09692
 C185 C 0.39057 0.73817 -0.12152
 C186 C 0.40028 0.75706 -0.15507
 H187 H 0.44988 0.85334 -0.36298
 H188 H 0.42625 0.88796 -0.26200
 H189 H 0.44407 0.92518 -0.30787
 H190 H 0.46641 0.88947 -0.41237
 H191 H 0.35749 0.77504 -0.14784
 H192 H 0.34029 0.74198 -0.08907
 H193 H 0.40018 0.72823 -0.11450
 H194 H 0.41714 0.76138 -0.17323
 C195 C 0.13418 0.57567 -0.36058
 C196 C 0.13318 0.57050 -0.31257
 C197 C 0.11056 0.55417 -0.29158
 C198 C 0.08902 0.54291 -0.31844
 C199 C 0.08982 0.54783 -0.36678
 C200 C 0.11263 0.56443 -0.38755
 C201 C 0.15529 0.58167 -0.28462
 C202 C 0.17344 0.59061 -0.26024
 C203 C 0.19425 0.60061 -0.23055
 C204 C 0.21162 0.60877 -0.20421
 C205 C 0.23184 0.61808 -0.17157
 C206 C 0.23723 0.60165 -0.14849
 C207 C 0.25584 0.61037 -0.11460
 C208 C 0.26930 0.63570 -0.10323
 C209 C 0.26407 0.65215 -0.12736
 C210 C 0.24543 0.64337 -0.16124
 H211 H 0.15162 0.58825 -0.37720
 H212 H 0.10955 0.55010 -0.25442
 H213 H 0.07171 0.53051 -0.30129
 H214 H 0.11386 0.56838 -0.42477
 H215 H 0.22679 0.58202 -0.15614
 H216 H 0.25938 0.59719 -0.09681
 H217 H 0.27406 0.67176 -0.11952
 H218 H 0.24136 0.65624 -0.17882
 C219 C 0.43652 0.54754 -0.29504
 C220 C 0.43599 0.56823 -0.31171
 C221 C 0.44615 0.57812 -0.35553
 C222 C 0.45681 0.56735 -0.38267
 C223 C 0.45748 0.54629 -0.36654
 C224 C 0.44708 0.53668 -0.32196
 C225 C 0.42518 0.57931 -0.28339
 C226 C 0.41612 0.58823 -0.25868
 C227 C 0.40559 0.59831 -0.22864
 C228 C 0.39673 0.60665 -0.20203
 C229 C 0.38639 0.61637 -0.16914
 C230 C 0.40193 0.63749 -0.14296
 C231 C 0.39211 0.64619 -0.10906
 C232 C 0.36652 0.63383 -0.10078
 C233 C 0.35100 0.61283 -0.12790
 C234 C 0.36089 0.60416 -0.16179
 H235 H 0.42893 0.53989 -0.26086
 H236 H 0.44571 0.59409 -0.36892
 H237 H 0.46357 0.57516 -0.41703
 H238 H 0.44787 0.52135 -0.30641
 H239 H 0.42170 0.64704 -0.14828
 H240 H 0.40460 0.66242 -0.08893
 H241 H 0.33124 0.60288 -0.12249
 H242 H 0.34869 0.58774 -0.18179
 C243 C 0.55613 0.13357 -0.35597
 C244 C 0.55989 0.13208 -0.30794
 C245 C 0.55339 0.10920 -0.28780
 C246 C 0.54332 0.08791 -0.31552
 C247 C 0.53962 0.08920 -0.36389
 C248 C 0.54602 0.11226 -0.38381
 C249 C 0.57064 0.15393 -0.27912
 C250 C 0.57971 0.17189 -0.25406
 C251 C 0.59039 0.19250 -0.22368
 C252 C 0.59951 0.20975 -0.19692
 C253 C 0.61038 0.22993 -0.16401
 C254 C 0.63208 0.23536 -0.14048
 C255 C 0.64214 0.25421 -0.10694
 C256 C 0.63057 0.26789 -0.09641
 C257 C 0.60892 0.26250 -0.12077
 C258 C 0.59890 0.24362 -0.15430
 H259 H 0.56116 0.15121 -0.37194
 H260 H 0.55614 0.10781 -0.25064
 H261 H 0.53823 0.07038 -0.29902
 H262 H 0.54362 0.11387 -0.42101
 H263 H 0.64110 0.22484 -0.14767
 H264 H 0.65883 0.25787 -0.08896
 H265 H 0.59955 0.27266 -0.11359
 H266 H 0.58206 0.23953 -0.17225
 C267 C 0.88948 0.44514 -0.29168
 C268 C 0.86688 0.42856 -0.31243
 C269 C 0.86589 0.42299 -0.36023
 C270 C 0.88744 0.43408 -0.38723
 C271 C 0.91023 0.45093 -0.36670
 C272 C 0.91101 0.45626 -0.31856
 C273 C 0.84478 0.41751 -0.28446
 C274 C 0.82663 0.40867 -0.26007
 C275 C 0.80583 0.39878 -0.23037
 C276 C 0.78846 0.39071 -0.20403
 C277 C 0.76825 0.38152 -0.17137
 C278 C 0.75445 0.35622 -0.16118
 C279 C 0.73583 0.34753 -0.12726
 C280 C 0.73083 0.36410 -0.10295
 C281 C 0.74451 0.38944 -0.11420
 C282 C 0.76309 0.39806 -0.14812
 H283 H 0.89047 0.44952 -0.25467
 H284 H 0.84848 0.41021 -0.37667
 H285 H 0.88622 0.42982 -0.42429
 H286 H 0.92831 0.46885 -0.30159
 H287 H 0.75833 0.34325 -0.17888
 H288 H 0.72566 0.32792 -0.11952
 H289 H 0.74115 0.40271 -0.09627
 H290 H 0.77371 0.41770 -0.15567
 C291 C 0.55538 0.42351 -0.35477
 C292 C 0.56550 0.43339 -0.31094
 C293 C 0.56500 0.45410 -0.29439
 C294 C 0.55450 0.46500 -0.32145
 C295 C 0.54415 0.45539 -0.36605
 C296 C 0.54480 0.43431 -0.38205
 C297 C 0.57623 0.42227 -0.28247
 C298 C 0.58520 0.41330 -0.25766
 C299 C 0.59563 0.40314 -0.22751
 C300 C 0.60439 0.39471 -0.20084
 C301 C 0.61461 0.38487 -0.16789
 C302 C 0.64010 0.39687 -0.16063
 C303 C 0.64988 0.38805 -0.12676
 C304 C 0.63424 0.36711 -0.09958
 C305 C 0.60865 0.35496 -0.10775
 C306 C 0.59894 0.36381 -0.14163
 H307 H 0.55581 0.40752 -0.36807
 H308 H 0.57255 0.46175 -0.26020
 H309 H 0.55372 0.48035 -0.30600
 H310 H 0.53807 0.42651 -0.41641
 H311 H 0.65239 0.41324 -0.18069
 H312 H 0.66964 0.39784 -0.12143
 H313 H 0.59607 0.33878 -0.08758
 H314 H 0.57917 0.35441 -0.14689
 C315 C 0.86893 0.44759 0.35256
 C316 C 0.86862 0.43766 0.30853
 C317 C 0.88958 0.43767 0.29237
 C318 C 0.91080 0.44751 0.32002
 C319 C 0.91161 0.45765 0.36483
 C320 C 0.89014 0.45752 0.38043
 C321 C 0.84690 0.42746 0.27957
 C322 C 0.82905 0.41882 0.25441
 C323 C 0.80855 0.40861 0.22395
 C324 C 0.79137 0.39984 0.19712
 C325 C 0.77128 0.38936 0.16416
 C326 C 0.76547 0.36753 0.14040
 C327 C 0.74668 0.35781 0.10687
 C328 C 0.73342 0.36985 0.09656
 C329 C 0.73920 0.39164 0.12114
 C330 C 0.75802 0.40132 0.15466
 H331 H 0.85269 0.44752 0.36557
 H332 H 0.88962 0.43024 0.25806
 H333 H 0.92677 0.44794 0.30488
 H334 H 0.88910 0.46412 0.41490
 H335 H 0.77565 0.35815 0.14743
 H336 H 0.74271 0.34101 0.08872
 H337 H 0.72937 0.40137 0.11413
 H338 H 0.76241 0.41826 0.17280
 C339 C 0.55473 0.11085 0.29166
 C340 C 0.57110 0.13352 0.31264
 C341 C 0.57621 0.13448 0.36066
 C342 C 0.56487 0.11285 0.38765
 C343 C 0.54822 0.08999 0.36688
 C344 C 0.54338 0.08924 0.31853
 C345 C 0.58236 0.15571 0.28469
 C346 C 0.59136 0.17394 0.26028
 C347 C 0.60143 0.19483 0.23056
 C348 C 0.60964 0.21227 0.20420
 C349 C 0.61900 0.23256 0.17152
 C350 C 0.64420 0.24608 0.16113
 C351 C 0.65303 0.26479 0.12721
 C352 C 0.63672 0.27016 0.10309
 C353 C 0.61148 0.25676 0.11453
 C354 C 0.60272 0.23809 0.14845
 H355 H 0.55071 0.10988 0.25449
 H356 H 0.58881 0.15195 0.37728
 H357 H 0.56877 0.11405 0.42487
 H358 H 0.53095 0.07188 0.30138
 H359 H 0.65696 0.24191 0.17869
 H360 H 0.67256 0.27473 0.11932
 H361 H 0.59842 0.26041 0.09675
 H362 H 0.58317 0.22770 0.15615
 C363 C 0.57641 0.44301 0.35920
 C364 C 0.57069 0.43836 0.31145
 C365 C 0.55408 0.44429 0.29102
 C366 C 0.54311 0.45468 0.31815
 C367 C 0.54859 0.45928 0.36624
 C368 C 0.56546 0.45344 0.38646
 C369 C 0.58165 0.42741 0.28318
 C370 C 0.59046 0.41825 0.25850
 C371 C 0.60041 0.40759 0.22847
 C372 C 0.60865 0.39862 0.20187
 C373 C 0.61824 0.38815 0.16896
 C374 C 0.60597 0.36255 0.16166
 C375 C 0.61451 0.35253 0.12775
 C376 C 0.63544 0.36804 0.10057
 C377 C 0.64787 0.39373 0.10881
 C378 C 0.63930 0.40367 0.14272
 H379 H 0.58922 0.43845 0.37539
 H380 H 0.54960 0.44087 0.25405
 H381 H 0.53050 0.45932 0.30142
 H382 H 0.56984 0.45653 0.42347
 H383 H 0.58960 0.35036 0.18170
 H384 H 0.60451 0.33270 0.12237
 H385 H 0.66405 0.40621 0.08863
 H386 H 0.64890 0.42352 0.14801
 C387 C 0.13319 0.55553 0.35603
 C388 C 0.13175 0.55936 0.30801
 C389 C 0.10901 0.55304 0.28790
 C390 C 0.08781 0.54307 0.31563
 C391 C 0.08905 0.53930 0.36399
 C392 C 0.11196 0.54552 0.38389
 C393 C 0.15353 0.57001 0.27918
 C394 C 0.17141 0.57902 0.25409
 C395 C 0.19194 0.58961 0.22369
 C396 C 0.20913 0.59868 0.19689
 C397 C 0.22923 0.60949 0.16395
 C398 C 0.23476 0.63130 0.14039
 C399 C 0.25353 0.64130 0.10682
 C400 C 0.26704 0.62956 0.09628
 C401 C 0.26155 0.60780 0.12067
 C402 C 0.24275 0.59783 0.15423
 H403 H 0.15072 0.56042 0.37198
 H404 H 0.10767 0.55585 0.25074
 H405 H 0.07039 0.53812 0.29915
 H406 H 0.11353 0.54306 0.42109
 H407 H 0.22437 0.64045 0.14759
 H408 H 0.25728 0.65809 0.08881
 H409 H 0.27158 0.59829 0.11348
 H410 H 0.23858 0.58090 0.17221
 C411 C 0.42247 0.86538 0.36008
 C412 C 0.42807 0.86636 0.31231
 C413 C 0.44477 0.88902 0.29163
 C414 C 0.45595 0.91060 0.31856
 C415 C 0.45060 0.90983 0.36667
 C416 C 0.43364 0.88698 0.38713
 C417 C 0.41695 0.84420 0.28430
 C418 C 0.40805 0.82601 0.25986
 C419 C 0.39809 0.80514 0.23013
 C420 C 0.38997 0.78773 0.20375
 C421 C 0.38071 0.76746 0.17106
 C422 C 0.39711 0.76217 0.14779
 C423 C 0.38844 0.74353 0.11385
 C424 C 0.36318 0.72992 0.10263
 C425 C 0.34677 0.73504 0.12696
 C426 C 0.35551 0.75372 0.16089
 H427 H 0.40961 0.84792 0.37647
 H428 H 0.44917 0.89000 0.25464
 H429 H 0.46864 0.92794 0.30164
 H430 H 0.42935 0.88576 0.42418
 H431 H 0.41667 0.77273 0.15532
 H432 H 0.40159 0.74007 0.09590
 H433 H 0.32722 0.72493 0.11924
 H434 H 0.34265 0.75770 0.17862
 C435 C 0.44777 0.55727 0.29039
 C436 C 0.43111 0.56314 0.31068
 C437 C 0.42535 0.55851 0.35842
 C438 C 0.43633 0.54814 0.38582
 C439 C 0.45326 0.54234 0.36574
 C440 C 0.45877 0.54694 0.31766
 C441 C 0.42010 0.57400 0.28226
 C442 C 0.41122 0.58308 0.25748
 C443 C 0.40118 0.59362 0.22734
 C444 C 0.39285 0.60249 0.20068
 C445 C 0.38313 0.61282 0.16772
 C446 C 0.36212 0.59717 0.14150
 C447 C 0.35339 0.60699 0.10760
 C448 C 0.36560 0.63267 0.09937
 C449 C 0.38649 0.64830 0.12652
 C450 C 0.39520 0.63841 0.16041
 H451 H 0.45229 0.56068 0.25343
 H452 H 0.41250 0.56303 0.37451
 H453 H 0.43192 0.54506 0.42283
 H454 H 0.47143 0.54234 0.30103
 H455 H 0.35267 0.57732 0.14679
 H456 H 0.33724 0.59441 0.08746
 H457 H 0.39633 0.66814 0.12115
 H458 H 0.41153 0.65070 0.18044
   
