data_POSCAR
  _audit_creation_date              2014-09-24
  _audit_creation_method            'ToBaCCo'
  _symmetry_space_group_name_H-M    'P1'
  _symmetry_Int_Tables_number       1
  _symmetry_cell_setting            triclinic
  loop_
  _symmetry_equiv_pos_as_xyz
 x,y,z
_cell_length_a 18.5505
_cell_length_b 23.7207
_cell_length_c 20.6028
_cell_angle_alpha 89.888400
_cell_angle_beta 90.476900
_cell_angle_gamma 89.955000
loop_
  _atom_site_label
  _atom_site_type_symbol
  _atom_site_fract_x
  _atom_site_fract_y
  _atom_site_fract_z
B1 B -0.04386 -0.05846 0.02414
 B2 B 0.04345 -0.04123 0.04942
 B3 B 0.02673 -0.06169 -0.03000
 B4 B -0.05425 -0.03484 -0.05341
 B5 B -0.08694 0.00250 0.00893
 B6 B -0.02588 -0.00360 0.07207
 B7 B 0.03992 0.05344 -0.02613
 B8 B -0.04675 0.03622 -0.05184
 B9 B -0.03181 0.05606 0.02860
 B10 B 0.05031 0.02991 0.05119
 B11 B 0.08292 -0.00753 -0.01116
 B12 B 0.02334 -0.00177 -0.07424
 B13 B 0.52770 0.47616 0.57010
 B14 B 0.43891 0.46517 0.54566
 B15 B 0.46796 0.53211 0.56264
 B16 B 0.55524 0.53705 0.53645
 B17 B 0.57724 0.47507 0.50155
 B18 B 0.50523 0.43208 0.50796
 B19 B 0.46477 0.51865 0.42985
 B20 B 0.55315 0.52863 0.45433
 B21 B 0.52182 0.46157 0.43673
 B22 B 0.43611 0.45707 0.46327
 B23 B 0.41392 0.51806 0.49789
 B24 B 0.48645 0.56210 0.49271
 B25 B 0.54110 0.05192 0.53067
 B26 B 0.45317 0.03520 0.55214
 B27 B 0.47292 0.06045 0.47458
 B28 B 0.55433 0.03301 0.45269
 B29 B 0.58329 -0.00812 0.51380
 B30 B 0.52081 -0.00579 0.57464
 B31 B 0.45722 -0.05406 0.46936
 B32 B 0.54448 -0.03819 0.44890
 B33 B 0.52461 -0.06259 0.52655
 B34 B 0.44373 -0.03557 0.54768
 B35 B 0.41473 0.00573 0.48711
 B36 B 0.47784 0.00397 0.42580
 B37 B -0.03661 0.51889 0.06674
 B38 B 0.05262 0.53304 0.04912
 B39 B 0.02644 0.46463 0.06239
 B40 B -0.05717 0.45644 0.02962
 B41 B -0.08095 0.51707 -0.00568
 B42 B -0.01293 0.56397 0.00797
 B43 B 0.04057 0.48060 -0.06956
 B44 B -0.04872 0.46649 -0.05244
 B45 B -0.02273 0.53527 -0.06533
 B46 B 0.06082 0.54308 -0.03262
 B47 B 0.08454 0.48248 0.00262
 B48 B 0.01656 0.43536 -0.01068
 B49 B 0.04295 0.45128 0.46867
 B50 B -0.04531 0.46373 0.44690
 B51 B -0.02448 0.44042 0.52499
 B52 B 0.05475 0.47088 0.54689
 B53 B 0.08102 0.51269 0.48565
 B54 B 0.01850 0.50790 0.42444
 B55 B -0.04789 0.55477 0.52866
 B56 B 0.04043 0.54167 0.54993
 B57 B 0.01967 0.56518 0.47198
 B58 B -0.06021 0.53477 0.45020
 B59 B -0.08655 0.49277 0.51157
 B60 B -0.02388 0.49772 0.57274
 B61 B 0.46610 -0.01954 -0.07204
 B62 B 0.55383 -0.02990 -0.04688
 B63 B 0.52452 0.03733 -0.06478
 B64 B 0.43739 0.04247 -0.03920
 B65 B 0.41489 -0.01839 -0.00416
 B66 B 0.48662 -0.06267 -0.00856
 B67 B 0.52812 0.02361 0.06792
 B68 B 0.43963 0.03464 0.04386
 B69 B 0.46902 -0.03293 0.06134
 B70 B 0.55557 -0.03814 0.03538
 B71 B 0.57774 0.02247 0.00045
 B72 B 0.50537 0.06730 0.00529
 B73 B 0.45733 0.55211 -0.03055
 B74 B 0.54665 0.54121 -0.04840
 B75 B 0.52395 0.56246 0.02754
 B76 B 0.44367 0.53151 0.04681
 B77 B 0.41948 0.49014 -0.01525
 B78 B 0.48347 0.49672 -0.07518
 B79 B 0.54788 0.44911 0.03002
 B80 B 0.45885 0.46069 0.04885
 B81 B 0.48103 0.43878 -0.02807
 B82 B 0.56123 0.46997 -0.04781
 B83 B 0.58542 0.51069 0.01441
 B84 B 0.52151 0.50517 0.07415
 B85 B 0.03432 0.02597 0.43416
 B86 B -0.05565 0.03410 0.45472
 B87 B -0.02542 -0.03169 0.43561
 B88 B 0.06121 -0.03693 0.46447
 B89 B 0.08136 0.02250 0.50437
 B90 B 0.00926 0.06759 0.49625
 B91 B -0.03174 -0.02246 0.56890
 B92 B 0.05707 -0.03216 0.54711
 B93 B 0.02562 0.03499 0.56680
 B94 B -0.05991 0.04020 0.53746
 B95 B -0.08045 -0.01976 0.49987
 B96 B -0.00757 -0.06411 0.50490
 B97 B 0.77918 0.30659 0.27387
 B98 B 0.68902 0.28825 0.28619
 B99 B 0.71998 0.30264 0.20909
 B100 B 0.80461 0.27736 0.20247
 B101 B 0.82739 0.24614 0.27330
 B102 B 0.75539 0.25343 0.32522
 B103 B 0.71123 0.18717 0.22563
 B104 B 0.79855 0.20639 0.21007
 B105 B 0.77122 0.19161 0.28827
 B106 B 0.68526 0.21677 0.29626
 B107 B 0.66210 0.24768 0.22478
 B108 B 0.73332 0.24111 0.17385
 B109 B 0.72775 0.81221 0.78891
 B110 B 0.69846 0.79469 0.71082
 B111 B 0.78686 0.81514 0.72720
 B112 B 0.81311 0.78587 0.79935
 B113 B 0.74256 0.75025 0.82818
 B114 B 0.67180 0.75763 0.77402
 B115 B 0.77985 0.69993 0.71260
 B116 B 0.80836 0.71364 0.78897
 B117 B 0.71909 0.69724 0.77831
 B118 B 0.69443 0.72379 0.70529
 B119 B 0.76498 0.76065 0.67567
 B120 B 0.83542 0.75533 0.72934
 B121 B 0.28082 0.18770 0.73189
 B122 B 0.19344 0.20923 0.72039
 B123 B 0.22263 0.19624 0.79769
 B124 B 0.30945 0.21651 0.80341
 B125 B 0.33400 0.24617 0.73168
 B126 B 0.26141 0.24162 0.68041
 B127 B 0.22259 0.31106 0.77831
 B128 B 0.30980 0.28720 0.79434
 B129 B 0.28075 0.30313 0.71615
 B130 B 0.19350 0.28087 0.70813
 B131 B 0.16989 0.25338 0.78030
 B132 B 0.24092 0.25774 0.83182
 B133 B 0.22445 0.80756 0.22619
 B134 B 0.31128 0.78535 0.21157
 B135 B 0.28619 0.80037 0.28995
 B136 B 0.20010 0.78095 0.29962
 B137 B 0.17165 0.75016 0.23081
 B138 B 0.24126 0.75203 0.17575
 B139 B 0.28404 0.68546 0.27564
 B140 B 0.19786 0.71019 0.29328
 B141 B 0.22274 0.69196 0.21536
 B142 B 0.30968 0.71320 0.20295
 B143 B 0.33747 0.74320 0.27166
 B144 B 0.26924 0.74013 0.32744
 B145 B 0.28350 0.69782 0.79152
 B146 B 0.30831 0.71039 0.71283
 B147 B 0.22152 0.69183 0.72744
 B148 B 0.19867 0.72074 0.80041
 B149 B 0.26971 0.75962 0.82669
 B150 B 0.33849 0.75213 0.77237
 B151 B 0.22657 0.80689 0.71316
 B152 B 0.20122 0.79177 0.79167
 B153 B 0.28826 0.81225 0.77349
 B154 B 0.31236 0.78214 0.70214
 B155 B 0.24113 0.74585 0.67627
 B156 B 0.17220 0.75099 0.73055
 B157 B 0.21523 0.19335 0.27909
 B158 B 0.30440 0.21202 0.29532
 B159 B 0.27679 0.19547 0.21773
 B160 B 0.19202 0.22226 0.20614
 B161 B 0.16873 0.25364 0.27523
 B162 B 0.23653 0.24608 0.33114
 B163 B 0.28614 0.31087 0.22966
 B164 B 0.19761 0.29429 0.21623
 B165 B 0.22424 0.30773 0.29384
 B166 B 0.30896 0.28292 0.30317
 B167 B 0.33242 0.25038 0.23396
 B168 B 0.26414 0.25739 0.17860
 B169 B 0.78174 0.68547 0.22466
 B170 B 0.69397 0.70854 0.20843
 B171 B 0.72142 0.69120 0.28589
 B172 B 0.80904 0.71513 0.29570
 B173 B 0.83304 0.74416 0.22437
 B174 B 0.76273 0.73891 0.17208
 B175 B 0.71970 0.80742 0.27187
 B176 B 0.80747 0.78772 0.28419
 B177 B 0.77902 0.80039 0.20642
 B178 B 0.69298 0.77903 0.20009
 B179 B 0.66812 0.74841 0.27093
 B180 B 0.74037 0.75283 0.32312
 B181 B 0.71627 0.19815 0.70634
 B182 B 0.69247 0.21352 0.78518
 B183 B 0.77895 0.19090 0.76925
 B184 B 0.80237 0.21781 0.69549
 B185 B 0.73259 0.25856 0.66857
 B186 B 0.66542 0.25526 0.72537
 B187 B 0.78096 0.30683 0.78028
 B188 B 0.80450 0.28876 0.70198
 B189 B 0.71846 0.31317 0.72063
 B190 B 0.69435 0.28550 0.79370
 B191 B 0.76320 0.24655 0.82017
 B192 B 0.83188 0.24851 0.76413
 C193 C 0.09555 0.44276 0.87675
 C194 C 0.14284 0.39974 0.91598
 C195 C 0.18342 0.36453 0.88262
 C196 C 0.17790 0.36903 0.80922
 C197 C 0.09632 0.36757 0.79416
 C198 C 0.05572 0.40606 0.82663
 C199 C 0.15257 0.47092 0.83279
 C200 C 0.19402 0.43323 0.79674
 H201 H 0.15249 0.39879 0.96776
 H202 H 0.22311 0.34010 0.90928
 H203 H 0.07420 0.34654 0.75171
 H204 H 0.00560 0.41824 0.80504
 H205 H 0.15524 0.51612 0.82550
 H206 H 0.22980 0.44840 0.75931
 C207 C 0.41773 0.55563 0.37058
 C208 C 0.42498 0.61834 0.38786
 C209 C 0.37931 0.65332 0.36089
 C210 C 0.33110 0.62911 0.30702
 C211 C 0.38550 0.59659 0.26335
 C212 C 0.42938 0.55780 0.29603
 C213 C 0.33576 0.54298 0.37317
 C214 C 0.29219 0.57960 0.34011
 H215 H 0.46895 0.63813 0.41332
 H216 H 0.38497 0.69687 0.37524
 H217 H 0.38264 0.59819 0.21089
 H218 H 0.46134 0.52737 0.26983
 H219 H 0.31399 0.50403 0.39261
 H220 H 0.23647 0.56891 0.33317
 C221 C 0.91850 0.94001 0.62448
 C222 C 0.84334 0.96309 0.64211
 C223 C 0.80161 0.92699 0.67843
 C224 C 0.83669 0.86902 0.69474
 C225 C 0.86317 0.84700 0.62962
 C226 C 0.89935 0.88222 0.59409
 C227 C 0.95011 0.92439 0.69210
 C228 C 0.90843 0.88734 0.72804
 H229 H 0.82546 1.00540 0.62989
 H230 H 0.75008 0.94045 0.69595
 H231 H 0.85867 0.80488 0.61012
 H232 H 0.91698 0.86384 0.54917
 H233 H 0.99948 0.94267 0.71104
 H234 H 0.92358 0.87450 0.77684
 C235 C 0.57960 0.06046 0.12389
 C236 C 0.54481 0.08404 0.18615
 C237 C 0.58721 0.12162 0.22043
 C238 C 0.66369 0.13146 0.19332
 C239 C 0.69156 0.06933 0.18874
 C240 C 0.64898 0.03339 0.15176
 C241 C 0.60979 0.11347 0.08928
 C242 C 0.64915 0.14766 0.12332
 H243 H 0.49420 0.06863 0.20523
 H244 H 0.57111 0.13815 0.26655
 H245 H 0.72848 0.05052 0.22312
 H246 H 0.65706 -0.01186 0.15236
 H247 H 0.60456 0.12630 0.03914
 H248 H 0.66474 0.18476 0.09772
 C249 C 0.88519 0.07144 0.41051
 C250 C 0.86730 0.12832 0.44398
 C251 C 0.82788 0.16492 0.40760
 C252 C 0.81027 0.14414 0.33841
 C253 C 0.88523 0.12823 0.31366
 C254 C 0.91713 0.08566 0.34493
 C255 C 0.81019 0.04972 0.38999
 C256 C 0.77141 0.08735 0.35149
 H257 H 0.87897 0.13775 0.49448
 H258 H 0.80692 0.20299 0.42937
 H259 H 0.91407 0.14971 0.27561
 H260 H 0.96119 0.06339 0.32270
 H261 H 0.78971 0.00907 0.40507
 H262 H 0.71696 0.07941 0.33466
 C263 C 0.38293 0.42433 0.58834
 C264 C 0.30364 0.43983 0.60191
 C265 C 0.26845 0.40158 0.64160
 C266 C 0.31557 0.35085 0.66453
 C267 C 0.34294 0.32624 0.59969
 C268 C 0.37697 0.36379 0.56081
 C269 C 0.41374 0.41695 0.65584
 C270 C 0.38278 0.37807 0.69280
 H271 H 0.27705 0.47622 0.58059
 H272 H 0.21168 0.40551 0.65293
 H273 H 0.33444 0.28340 0.58319
 H274 H 0.39457 0.35145 0.51281
 H275 H 0.44899 0.44643 0.67792
 H276 H 0.40671 0.36922 0.73807
 C277 C 0.61326 0.93133 0.91137
 C278 C 0.59816 0.86869 0.92112
 C279 C 0.63555 0.83385 0.88325
 C280 C 0.69126 0.86208 0.83790
 C281 C 0.64988 0.90801 0.80155
 C282 C 0.60805 0.94168 0.83836
 C283 C 0.69598 0.93392 0.92481
 C284 C 0.73665 0.89756 0.88659
 H285 H 0.57184 0.85121 0.96342
 H286 H 0.63408 0.78939 0.89520
 H287 H 0.66034 0.91963 0.75224
 H288 H 0.58214 0.97766 0.81722
 H289 H 0.72014 0.96109 0.96128
 H290 H 0.79493 0.89502 0.89016
 C291 C 0.10706 0.57374 0.09388
 C292 C 0.11931 0.55432 0.16439
 C293 C 0.16052 0.58921 0.20105
 C294 C 0.18354 0.64372 0.16752
 C295 C 0.22446 0.62144 0.10759
 C296 C 0.18489 0.58481 0.06946
 C297 C 0.07627 0.63342 0.09899
 C298 C 0.11349 0.66822 0.13718
 H299 H 0.09379 0.51785 0.18599
 H300 H 0.17374 0.57856 0.25012
 H301 H 0.27991 0.63224 0.09675
 H302 H 0.20731 0.56511 0.02665
 H303 H 0.02870 0.64931 0.07420
 H304 H 0.09343 0.71074 0.14175
 C305 C 0.43398 0.91229 0.10500
 C306 C 0.35662 0.89666 0.08204
 C307 C 0.32696 0.85239 0.11168
 C308 C 0.36858 0.82819 0.16898
 C309 C 0.43863 0.80950 0.13546
 C310 C 0.47330 0.85299 0.10254
 C311 C 0.42819 0.92203 0.17693
 C312 C 0.39768 0.87830 0.20931
 H313 H 0.32863 0.91216 0.03937
 H314 H 0.28163 0.83161 0.08877
 H315 H 0.46009 0.76703 0.13844
 H316 H 0.52453 0.84615 0.07882
 H317 H 0.46148 0.95294 0.20184
 H318 H 0.42007 0.87096 0.25623
 C319 C 0.55521 0.40864 0.39002
 C320 C 0.55076 0.34628 0.41943
 C321 C 0.58979 0.30568 0.38731
 C322 C 0.62855 0.32846 0.32772
 C323 C 0.56371 0.35524 0.28989
 C324 C 0.52829 0.39858 0.32072
 C325 C 0.63554 0.41887 0.38276
 C326 C 0.67132 0.37568 0.35794
 H327 H 0.51419 0.33313 0.45729
 H328 H 0.58722 0.26128 0.39988
 H329 H 0.54259 0.33706 0.24546
 H330 H 0.47984 0.41789 0.30093
 H331 H 0.66613 0.44866 0.41131
 H332 H 0.71959 0.36583 0.38425
 C333 C 0.93930 0.58792 0.88939
 C334 C 0.92637 0.64600 0.92468
 C335 C 0.88741 0.68467 0.89136
 C336 C 0.86537 0.66643 0.82336
 C337 C 0.93823 0.64926 0.79281
 C338 C 0.97542 0.60708 0.82635
 C339 C 0.86389 0.57100 0.86820
 C340 C 0.83002 0.60850 0.83059
 H341 H 0.95224 0.66002 0.96911
 H342 H 0.88012 0.72715 0.90976
 H343 H 0.95882 0.66914 0.74975
 H344 H 1.02561 0.58848 0.81093
 H345 H 0.83612 0.53310 0.88274
 H346 H 0.78258 0.59518 0.80622
 C347 C 0.06115 0.08721 0.61486
 C348 C 0.09711 0.06565 0.67585
 C349 C 0.13820 0.10395 0.70733
 C350 C 0.13490 0.16523 0.68188
 C351 C 0.15453 0.16165 0.61121
 C352 C 0.12054 0.12140 0.57771
 C353 C 0.01411 0.13622 0.64141
 C354 C 0.05225 0.17656 0.67690
 H355 H 0.08401 0.02555 0.69804
 H356 H 0.16452 0.09143 0.75073
 H357 H 0.17694 0.19696 0.58463
 H358 H 0.12334 0.12584 0.52563
 H359 H -0.04295 0.14029 0.63059
 H360 H 0.02673 0.21396 0.69646
 C361 C 0.10208 0.41214 0.42744
 C362 C 0.06779 0.35758 0.40830
 C363 C 0.10738 0.32597 0.36894
 C364 C 0.18266 0.35001 0.34870
 C365 C 0.16872 0.40905 0.32399
 C366 C 0.12770 0.44086 0.36311
 C367 C 0.17520 0.39319 0.45784
 C368 C 0.21747 0.36100 0.41661
 H369 H 0.02277 0.33923 0.43315
 H370 H 0.09126 0.28251 0.36685
 H371 H 0.20320 0.42998 0.28994
 H372 H 0.12873 0.48606 0.35504
 H373 H 0.19229 0.40419 0.50664
 H374 H 0.27022 0.34529 0.43089
 C375 C 0.39903 0.59076 0.92643
 C376 C 0.38646 0.64978 0.95403
 C377 C 0.34650 0.68396 0.91458
 C378 C 0.32323 0.65707 0.84816
 C379 C 0.39521 0.63723 0.82269
 C380 C 0.42736 0.59777 0.85732
 C381 C 0.32086 0.56975 0.91175
 C382 C 0.28234 0.60374 0.86983
 H383 H 0.40327 0.66242 1.00248
 H384 H 0.32980 0.72482 0.93239
 H385 H 0.42445 0.65604 0.78376
 H386 H 0.47124 0.57481 0.83558
 H387 H 0.29646 0.53284 0.93357
 H388 H 0.22658 0.59552 0.85685
 C389 C 0.59839 0.09393 0.57018
 C390 C 0.63224 0.06401 0.63136
 C391 C 0.67307 0.09641 0.67024
 C392 C 0.67596 0.15741 0.65010
 C393 C 0.70705 0.15275 0.57989
 C394 C 0.66629 0.11947 0.53813
 C395 C 0.55947 0.14552 0.59340
 C396 C 0.59682 0.17698 0.63542
 H397 H 0.63582 0.01878 0.63845
 H398 H 0.70740 0.07825 0.70746
 H399 H 0.75665 0.17287 0.56468
 H400 H 0.68127 0.11201 0.48806
 H401 H 0.50701 0.15869 0.57571
 H402 H 0.57012 0.21399 0.65393
 C403 C 0.89721 0.89882 0.06405
 C404 C 0.83441 0.93123 0.10000
 C405 C 0.79377 0.90029 0.14127
 C406 C 0.81809 0.83975 0.14783
 C407 C 0.81448 0.81958 0.07443
 C408 C 0.85600 0.85041 0.03155
 C409 C 0.93802 0.86807 0.11678
 C410 C 0.89951 0.84199 0.16153
 H411 H 0.81627 0.97359 0.08900
 H412 H 0.74611 0.91688 0.16467
 H413 H 0.77949 0.78639 0.05654
 H414 H 0.85720 0.84200 -0.02016
 H415 H 0.98910 0.84979 0.10912
 H416 H 0.92861 0.81545 0.19561
 C417 C 0.90397 0.07073 0.89042
 C418 C 0.89380 0.13012 0.91362
 C419 C 0.85736 0.16388 0.87444
 C420 C 0.82668 0.13805 0.81043
 C421 C 0.89519 0.11302 0.77979
 C422 C 0.93420 0.07716 0.82010
 C423 C 0.82676 0.05001 0.87566
 C424 C 0.78845 0.08313 0.83246
 H425 H 0.92501 0.14890 0.95272
 H426 H 0.86178 0.20787 0.88681
 H427 H 0.90770 0.11822 0.72910
 H428 H 0.97982 0.05317 0.80239
 H429 H 0.80710 0.00931 0.89125
 H430 H 0.73808 0.06846 0.81182
 C431 C 0.08856 0.57734 0.60681
 C432 C 0.05235 0.59823 0.66994
 C433 C 0.09524 0.63281 0.70806
 C434 C 0.17245 0.64164 0.68396
 C435 C 0.19738 0.57965 0.67587
 C436 C 0.15648 0.54768 0.63404
 C437 C 0.11586 0.63071 0.57674
 C438 C 0.15898 0.66210 0.61296
 H439 H -0.00037 0.58460 0.68538
 H440 H 0.07807 0.65175 0.75275
 H441 H 0.22648 0.55661 0.71276
 H442 H 0.16208 0.50222 0.63391
 H443 H 0.09056 0.65117 0.53683
 H444 H 0.16754 0.70367 0.59297
 C445 C 0.59309 0.92659 0.39158
 C446 C 0.61932 0.87249 0.42079
 C447 C 0.65869 0.83963 0.38371
 C448 C 0.67293 0.86012 0.31340
 C449 C 0.59577 0.87345 0.28800
 C450 C 0.55565 0.90844 0.32739
 C451 C 0.66253 0.95393 0.36563
 C452 C 0.70290 0.92056 0.32441
 H453 H 0.60235 0.85571 0.46526
 H454 H 0.67430 0.80078 0.40671
 H455 H 0.57657 0.86088 0.24029
 H456 H 0.50457 0.92584 0.31157
 H457 H 0.67169 0.99855 0.37010
 H458 H 0.74126 0.94056 0.29303
 C459 C 0.41072 0.42325 0.10255
 C460 C 0.34028 0.40110 0.07451
 C461 C 0.30520 0.36512 0.11390
 C462 C 0.33641 0.35801 0.18451
 C463 C 0.41390 0.33837 0.17010
 C464 C 0.44907 0.37005 0.12646
 C465 C 0.38726 0.45251 0.16625
 C466 C 0.34983 0.41878 0.20886
 H467 H 0.32067 0.40984 0.02577
 H468 H 0.26011 0.34179 0.09399
 H469 H 0.43788 0.29856 0.18403
 H470 H 0.48770 0.34846 0.09945
 H471 H 0.39905 0.49620 0.17677
 H472 H 0.33189 0.43388 0.25571
 C473 C 0.56343 0.61315 0.07466
 C474 C 0.51815 0.63710 0.13121
 C475 C 0.55609 0.67061 0.17424
 C476 C 0.63699 0.67719 0.15775
 C477 C 0.66433 0.61858 0.15122
 C478 C 0.62966 0.58637 0.11064
 C479 C 0.59537 0.66705 0.04453
 C480 C 0.63394 0.69978 0.08696
 H481 H 0.46033 0.63176 0.13421
 H482 H 0.53041 0.69210 0.21437
 H483 H 0.69631 0.59808 0.18704
 H484 H 0.64369 0.54225 0.11582
 H485 H 0.58207 0.68348 -0.00247
 H486 H 0.65334 0.74108 0.07265
 C487 C 0.06788 0.88908 0.92302
 C488 C 0.04317 0.82691 0.91941
 C489 C 0.08357 0.79401 0.87753
 C490 C 0.14636 0.82590 0.84303
 C491 C 0.10791 0.87527 0.81106
 C492 C 0.06621 0.90579 0.85023
 C493 C 0.14908 0.88488 0.93957
 C494 C 0.18762 0.85079 0.90108
 H495 H -0.00252 0.81053 0.94601
 H496 H 0.07114 0.74990 0.86927
 H497 H 0.10269 0.88208 0.76062
 H498 H 0.02696 0.93382 0.82791
 H499 H 0.17531 0.90499 0.98056
 H500 H 0.24279 0.84061 0.91409
 C501 C 0.43565 0.11294 0.42724
 C502 C 0.40505 0.16706 0.45644
 C503 C 0.36594 0.19923 0.41374
 C504 C 0.36415 0.17756 0.34205
 C505 C 0.44530 0.17175 0.32731
 C506 C 0.48243 0.13763 0.37134
 C507 C 0.36983 0.08716 0.39070
 C508 C 0.34148 0.11728 0.34344
 H509 H 0.41965 0.18309 0.50384
 H510 H 0.34686 0.24059 0.42807
 H511 H 0.47180 0.19534 0.28922
 H512 H 0.54061 0.13353 0.37101
 H513 H 0.33831 0.05104 0.40454
 H514 H 0.29971 0.09949 0.31417
 C515 C 0.93947 0.38667 0.57160
 C516 C 0.85666 0.38769 0.56317
 C517 C 0.81998 0.35186 0.59994
 C518 C 0.86321 0.31982 0.65060
 C519 C 0.91732 0.28766 0.60646
 C520 C 0.95783 0.32251 0.56593
 C521 C 0.95204 0.39537 0.64532
 C522 C 0.91406 0.36088 0.68468
 H523 H 0.82756 0.40828 0.52398
 H524 H 0.76544 0.34105 0.58539
 H525 H 0.92529 0.24244 0.60851
 H526 H 1.00028 0.30609 0.53554
 H527 H 0.99823 0.41788 0.66499
 H528 H 0.93345 0.35346 0.73353
 C529 C 0.90972 0.55624 0.12203
 C530 C 0.85995 0.59793 0.08387
 C531 C 0.82045 0.63329 0.11815
 C532 C 0.82836 0.62918 0.19172
 C533 C 0.81514 0.56486 0.20590
 C534 C 0.85551 0.52751 0.16843
 C535 C 0.95041 0.59455 0.17025
 C536 C 0.91011 0.63257 0.20379
 H537 H 0.84966 0.59909 0.03219
 H538 H 0.78153 0.65894 0.09205
 H539 H 0.78030 0.54998 0.24435
 H540 H 0.85304 0.48218 0.17519
 H541 H 1.00084 0.58335 0.19130
 H542 H 0.93308 0.65435 0.24536
 C543 C 0.57926 0.44135 0.62887
 C544 C 0.66125 0.45336 0.62140
 C545 C 0.70666 0.41754 0.65375
 C546 C 0.66964 0.36900 0.69001
 C547 C 0.61895 0.40294 0.73577
 C548 C 0.57416 0.44175 0.70436
 C549 C 0.56973 0.37846 0.61435
 C550 C 0.61760 0.34403 0.63922
 H551 H 0.68180 0.49243 0.60122
 H552 H 0.76204 0.42969 0.66081
 H553 H 0.62435 0.40186 0.78821
 H554 H 0.54403 0.47306 0.73118
 H555 H 0.52303 0.35883 0.59211
 H556 H 0.61234 0.30056 0.62468
 C557 C 0.08629 0.06734 0.38317
 C558 C 0.10393 0.04877 0.31315
 C559 C 0.14440 0.08716 0.27806
 C560 C 0.16340 0.14250 0.31458
 C561 C 0.08857 0.16292 0.33629
 C562 C 0.05308 0.12713 0.37509
 C563 C 0.16242 0.08202 0.41041
 C564 C 0.19634 0.12391 0.37963
 H565 H 0.08491 0.00942 0.29244
 H566 H 0.15676 0.08051 0.22731
 H567 H 0.06262 0.20206 0.32321
 H568 H 0.00763 0.14339 0.40166
 H569 H 0.18811 0.06549 0.45378
 H570 H 0.23657 0.14744 0.40631
 C571 C 0.41948 0.94178 0.86961
 C572 C 0.43527 0.93793 0.79576
 C573 C 0.39198 0.89932 0.76224
 C574 C 0.33547 0.86795 0.80433
 C575 C 0.38113 0.84385 0.85980
 C576 C 0.42392 0.87915 0.88941
 C577 C 0.33736 0.95489 0.86876
 C578 C 0.29497 0.91784 0.83473
 H579 H 0.47091 0.96648 0.77054
 H580 H 0.39123 0.89615 0.70987
 H581 H 0.38862 0.80000 0.87272
 H582 H 0.46378 0.85885 0.91916
 H583 H 0.31513 0.99388 0.88737
 H584 H 0.23915 0.92769 0.82415
 C585 C 0.11569 0.92543 0.58719
 C586 C 0.16097 0.95258 0.64141
 C587 C 0.19741 0.91603 0.68093
 C588 C 0.18921 0.85395 0.66218
 C589 C 0.10803 0.84257 0.65543
 C590 C 0.07242 0.87807 0.61747
 C591 C 0.17407 0.89141 0.55056
 C592 C 0.21246 0.85407 0.58967
 H593 H 0.18184 0.99482 0.63642
 H594 H 0.24119 0.93085 0.71134
 H595 H 0.08054 0.80365 0.66704
 H596 H 0.02539 0.86071 0.59540
 H597 H 0.18355 0.89544 0.49894
 H598 H 0.25302 0.82585 0.57057
 C599 C 0.61130 0.56891 0.41183
 C600 C 0.59310 0.56470 0.34033
 C601 C 0.62559 0.60261 0.30173
 C602 C 0.68181 0.64116 0.33451
 C603 C 0.63813 0.66826 0.38969
 C604 C 0.60385 0.63188 0.42936
 C605 C 0.69436 0.56138 0.41230
 C606 C 0.73079 0.59863 0.37196
 H607 H 0.56382 0.52963 0.31987
 H608 H 0.60927 0.60251 0.25285
 H609 H 0.63611 0.71274 0.40008
 H610 H 0.57833 0.64746 0.47300
 H611 H 0.72249 0.53154 0.44341
 H612 H 0.78913 0.59903 0.36864
 C613 C 0.38479 0.07610 0.08847
 C614 C 0.31688 0.10356 0.05774
 C615 C 0.28068 0.13990 0.09880
 C616 C 0.31408 0.14575 0.16811
 C617 C 0.31753 0.08386 0.19042
 C618 C 0.35455 0.04858 0.15016
 C619 C 0.42650 0.12798 0.11141
 C620 C 0.39312 0.16117 0.15358
 H621 H 0.29881 0.09547 0.00841
 H622 H 0.23273 0.16243 0.08358
 H623 H 0.27947 0.06537 0.22341
 H624 H 0.34614 0.00384 0.15369
 H625 H 0.47582 0.14342 0.09052
 H626 H 0.42143 0.19895 0.16784
 C627 C 0.89779 0.42553 0.90159
 C628 C 0.92940 0.36626 0.89499
 C629 C 0.89208 0.33151 0.85656
 C630 C 0.82081 0.35548 0.82784
 C631 C 0.78103 0.37654 0.88888
 C632 C 0.82092 0.41317 0.92670
 C633 C 0.88397 0.44564 0.83145
 C634 C 0.84182 0.41098 0.79497
 H635 H 0.97762 0.35070 0.91909
 H636 H 0.91286 0.28933 0.85066
 H637 H 0.72610 0.36497 0.90072
 H638 H 0.80000 0.43201 0.97013
 H639 H 0.90802 0.48292 0.81034
 H640 H 0.82521 0.42283 0.74685
 C641 C 0.56322 0.09060 0.89136
 C642 C 0.56440 0.08318 0.81882
 C643 C 0.59872 0.12548 0.78704
 C644 C 0.63393 0.17252 0.82832
 C645 C 0.56764 0.19417 0.86526
 C646 C 0.53026 0.15196 0.89778
 C647 C 0.64322 0.10038 0.91112
 C648 C 0.67518 0.14453 0.88319
 H649 H 0.52436 0.05780 0.79381
 H650 H 0.57712 0.13508 0.74042
 H651 H 0.55179 0.23806 0.86649
 H652 H 0.48162 0.16133 0.92459
 H653 H 0.67323 0.07931 0.94928
 H654 H 0.72338 0.16191 0.90509
 C655 C 0.42828 0.58376 0.60648
 C656 C 0.37078 0.61931 0.56697
 C657 C 0.33654 0.66012 0.60012
 C658 C 0.35898 0.66440 0.67108
 C659 C 0.35102 0.60352 0.69662
 C660 C 0.38612 0.56283 0.66421
 C661 C 0.47762 0.63052 0.63492
 C662 C 0.44165 0.67282 0.66711
 H663 H 0.36042 0.61684 0.51525
 H664 H 0.30114 0.68963 0.57529
 H665 H 0.32222 0.59246 0.73965
 H666 H 0.38280 0.51996 0.68015
 H667 H 0.53570 0.63107 0.62913
 H668 H 0.46949 0.70883 0.68792
 C669 C 0.06489 0.41417 0.10954
 C670 C 0.14103 0.43180 0.12799
 C671 C 0.17528 0.39651 0.16772
 C672 C 0.14024 0.33933 0.17918
 C673 C 0.06810 0.35779 0.20984
 C674 C 0.03009 0.39817 0.17438
 C675 C 0.07686 0.35491 0.07742
 C676 C 0.11686 0.31788 0.11245
 H677 H 0.16867 0.46898 0.11111
 H678 H 0.22106 0.41203 0.19258
 H679 H 0.04890 0.34028 0.25477
 H680 H -0.01973 0.41743 0.18982
 H681 H 0.05061 0.33966 0.03370
 H682 H 0.12454 0.27480 0.09617
 C683 C 0.93402 0.91679 0.38843
 C684 C 0.98047 0.86493 0.36820
 C685 C 0.94372 0.82304 0.33457
 C686 C 0.86276 0.83525 0.32284
 C687 C 0.83540 0.84585 0.39081
 C688 C 0.86839 0.88764 0.42302
 C689 C 0.90126 0.93609 0.32466
 C690 C 0.86484 0.89508 0.29192
 H691 H 1.03771 0.86179 0.37878
 H692 H 0.97013 0.78520 0.31720
 H693 H 0.79550 0.82050 0.41512
 H694 H 0.84639 0.89735 0.46992
 H695 H 0.90522 0.97847 0.30587
 H696 H 0.83774 0.90648 0.24875
 C697 C 0.89547 0.59567 0.57200
 C698 C 0.82399 0.61930 0.54359
 C699 C 0.78456 0.65149 0.58711
 C700 C 0.82010 0.65787 0.65583
 C701 C 0.82967 0.59711 0.67643
 C702 C 0.86800 0.56539 0.63482
 C703 C 0.93340 0.64821 0.59418
 C704 C 0.89737 0.67911 0.63736
 H705 H 0.80620 0.61180 0.49420
 H706 H 0.73316 0.67033 0.57389
 H707 H 0.79331 0.57593 0.70873
 H708 H 0.86317 0.51999 0.63965
 H709 H 0.98030 0.66528 0.57084
 H710 H 0.92052 0.71989 0.64791
 C711 C 0.60808 0.41100 0.07289
 C712 C 0.59781 0.41992 0.14724
 C713 C 0.64285 0.39097 0.18536
 C714 C 0.68746 0.34747 0.15225
 C715 C 0.63710 0.31653 0.10191
 C716 C 0.60184 0.34915 0.05909
 C717 C 0.69149 0.41988 0.06659
 C718 C 0.73317 0.38570 0.10742
 H719 H 0.57015 0.45469 0.17011
 H720 H 0.65759 0.40819 0.23213
 H721 H 0.63289 0.27179 0.09506
 H722 H 0.57118 0.33174 0.01863
 H723 H 0.71476 0.45296 0.03737
 H724 H 0.79140 0.38909 0.11089
 C725 C 0.40248 0.90395 0.42707
 C726 C 0.44249 0.85362 0.40196
 C727 C 0.40554 0.82232 0.35958
 C728 C 0.32547 0.84064 0.34671
 C729 C 0.29568 0.84331 0.41738
 C730 C 0.33619 0.87675 0.45906
 C731 C 0.36803 0.93384 0.36613
 C732 C 0.32565 0.90193 0.32826
 H733 H 0.49160 0.83759 0.42296
 H734 H 0.43134 0.78393 0.34389
 H735 H 0.24731 0.82167 0.43297
 H736 H 0.32307 0.88351 0.50941
 H737 H 0.37287 0.97746 0.35288
 H738 H 0.29403 0.91966 0.28884
 C739 C 0.09995 0.09583 0.93440
 C740 C 0.16435 0.06385 0.90023
 C741 C 0.20680 0.09546 0.86097
 C742 C 0.18239 0.15611 0.85444
 C743 C 0.10192 0.15353 0.83774
 C744 C 0.06173 0.12602 0.87979
 C745 C 0.13880 0.14459 0.96848
 C746 C 0.18215 0.17595 0.92769
 H747 H 0.18018 0.02056 0.90907
 H748 H 0.25536 0.07909 0.83891
 H749 H 0.07375 0.18200 0.80530
 H750 H 0.01142 0.14511 0.88498
 H751 H 0.13247 0.15388 1.01955
 H752 H 0.21441 0.21033 0.94673
 C753 C 0.09539 0.92522 0.10575
 C754 C 0.17181 0.94819 0.12102
 C755 C 0.21193 0.91524 0.16324
 C756 C 0.17588 0.85922 0.18436
 C757 C 0.10589 0.88149 0.21528
 C758 C 0.06546 0.91669 0.17572
 C759 C 0.10931 0.86682 0.08068
 C760 C 0.14743 0.83364 0.11923
 H761 H 0.19041 0.98932 0.10523
 H762 H 0.26234 0.93019 0.18334
 H763 H 0.09211 0.87402 0.26558
 H764 H 0.01841 0.93871 0.19374
 H765 H 0.08069 0.84783 0.04061
 H766 H 0.14772 0.79012 0.10435
 C767 C 0.90958 0.42627 0.38880
 C768 C 0.94820 0.40506 0.32660
 C769 C 0.90761 0.36840 0.28831
 C770 C 0.83061 0.35789 0.31215
 C771 C 0.84599 0.33815 0.38263
 C772 C 0.88482 0.37225 0.41939
 C773 C 0.84090 0.45334 0.35940
 C774 C 0.80298 0.41942 0.31726
 H775 H 1.00036 0.42023 0.31180
 H776 H 0.92622 0.34957 0.24391
 H777 H 0.84341 0.29536 0.40039
 H778 H 0.91131 0.35297 0.45932
 H779 H 0.82860 0.49780 0.36377
 H780 H 0.76085 0.43646 0.28623
 C781 C 0.40154 0.06639 0.61037
 C782 C 0.35622 0.11000 0.57686
 C783 C 0.32139 0.14579 0.61510
 C784 C 0.32445 0.13391 0.68937
 C785 C 0.30409 0.06995 0.69243
 C786 C 0.34355 0.03517 0.65109
 C787 C 0.44436 0.09602 0.66476
 C788 C 0.40597 0.13121 0.70395
 H789 H 0.33681 0.10475 0.52765
 H790 H 0.28795 0.17568 0.59016
 H791 H 0.26839 0.05195 0.72799
 H792 H 0.33769 -0.01031 0.65134
 H793 H 0.49760 0.08213 0.67907
 H794 H 0.43000 0.14848 0.74782
 C795 C 0.59588 0.58260 0.90309
 C796 C 0.61359 0.55800 0.83556
 C797 C 0.65053 0.59334 0.79504
 C798 C 0.66948 0.65102 0.82465
 C799 C 0.59478 0.67313 0.84633
 C800 C 0.56060 0.63989 0.88902
 C801 C 0.66920 0.60017 0.93032
 C802 C 0.70454 0.63778 0.89249
 H803 H 0.59852 0.51577 0.82101
 H804 H 0.66503 0.58123 0.74609
 H805 H 0.57105 0.71378 0.83554
 H806 H 0.51638 0.65712 0.91593
 H807 H 0.68842 0.59004 0.97882
 H808 H 0.74970 0.66057 0.91300
 C809 C 0.44166 0.38724 0.92542
 C810 C 0.48829 0.35671 0.87418
 C811 C 0.45012 0.32119 0.83321
 C812 C 0.36748 0.32020 0.84498
 C813 C 0.36440 0.30371 0.91809
 C814 C 0.40370 0.33766 0.95899
 C815 C 0.38043 0.41435 0.88292
 C816 C 0.34590 0.38081 0.84295
 H817 H 0.54649 0.36045 0.87232
 H818 H 0.47614 0.29608 0.79616
 H819 H 0.34094 0.26467 0.93547
 H820 H 0.41412 0.32525 1.00863
 H821 H 0.36969 0.45862 0.87469
 H822 H 0.31762 0.39956 0.80308
 C823 C 0.92318 0.10172 0.07864
 C824 C 0.85345 0.12674 0.04983
 C825 C 0.81892 0.16413 0.08814
 C826 C 0.84914 0.16898 0.15811
 C827 C 0.85383 0.10807 0.17940
 C828 C 0.89284 0.07429 0.14199
 C829 C 0.96595 0.15281 0.10497
 C830 C 0.92825 0.18698 0.14676
 H831 H 0.82442 0.10920 0.00896
 H832 H 0.77317 0.18654 0.06882
 H833 H 0.82635 0.09067 0.21992
 H834 H 0.89484 0.03066 0.15711
 H835 H 1.02170 0.16096 0.09259
 H836 H 0.95238 0.22393 0.16905
 C837 C 0.56209 0.88601 0.57479
 C838 C 0.64437 0.89421 0.57359
 C839 C 0.68212 0.86294 0.61465
 C840 C 0.63958 0.82435 0.65844
 C841 C 0.57967 0.85876 0.68931
 C842 C 0.54173 0.89155 0.64740
 C843 C 0.55337 0.82132 0.56536
 C844 C 0.59506 0.78911 0.60786
 H845 H 0.67378 0.91286 0.53362
 H846 H 0.73652 0.85474 0.60095
 H847 H 0.55939 0.85034 0.73759
 H848 H 0.49416 0.91333 0.66345
 H849 H 0.51656 0.80258 0.53043
 H850 H 0.59270 0.74343 0.60768
 C851 C 0.05846 0.61739 0.42462
 C852 C 0.14148 0.61378 0.43252
 C853 C 0.17988 0.64754 0.39485
 C854 C 0.13798 0.68078 0.34453
 C855 C 0.08500 0.64117 0.31092
 C856 C 0.04488 0.60872 0.35089
 C857 C 0.04389 0.68196 0.43008
 C858 C 0.08598 0.71503 0.38897
 H859 H 0.17006 0.59336 0.47211
 H860 H 0.23498 0.65666 0.40914
 H861 H 0.06749 0.64781 0.26136
 H862 H -0.00223 0.58717 0.33158
 H863 H 0.00376 0.69993 0.46194
 H864 H 0.08136 0.76055 0.38746
   
