data_POSCAR
  _audit_creation_date              2014-09-24
  _audit_creation_method            'ToBaCCo'
  _symmetry_space_group_name_H-M    'P1'
  _symmetry_Int_Tables_number       1
  _symmetry_cell_setting            triclinic
  loop_
  _symmetry_equiv_pos_as_xyz
 x,y,z
_cell_length_a 27.3329
_cell_length_b 27.6641
_cell_length_c 22.3714
_cell_angle_alpha 89.770900
_cell_angle_beta 91.291400
_cell_angle_gamma 90.303600
loop_
  _atom_site_label
  _atom_site_type_symbol
  _atom_site_fract_x
  _atom_site_fract_y
  _atom_site_fract_z
C1 C 1.28654 0.20377 0.27776
 C2 C 1.25319 0.23252 0.24574
 C3 C 1.21638 0.21116 0.21036
 C4 C 1.21137 0.16091 0.20806
 C5 C 1.24396 0.13193 0.24207
 C6 C 1.28224 0.15297 0.27656
 C7 C 1.25559 0.28528 0.25039
 C8 C 1.29138 0.31107 0.21989
 C9 C 1.29025 0.36197 0.21790
 C10 C 1.25318 0.38618 0.24848
 C11 C 1.21891 0.36045 0.28211
 C12 C 1.21981 0.30978 0.28181
 H13 H 1.31384 0.22167 0.30571
 H14 H 1.19109 0.23395 0.18518
 H15 H 1.31757 0.29081 0.19465
 H16 H 1.19188 0.28906 0.30423
 H17 H 1.24081 0.09292 0.24010
 H18 H 1.25144 0.42534 0.24712
 C19 C 0.78351 -0.29163 0.29232
 C20 C 0.74735 -0.26940 0.25682
 C21 C 0.71696 -0.29704 0.21941
 C22 C 0.72347 -0.34712 0.21596
 C23 C 0.76090 -0.36929 0.25012
 C24 C 0.79121 -0.34169 0.28933
 C25 C 0.74500 -0.21663 0.25470
 C26 C 0.77926 -0.19117 0.22123
 C27 C 0.78078 -0.14047 0.22251
 C28 C 0.74860 -0.11579 0.25941
 C29 C 0.71347 -0.14118 0.29199
 C30 C 0.71144 -0.19176 0.28910
 H31 H 0.80686 -0.26925 0.32081
 H32 H 0.68961 -0.27927 0.19133
 H33 H 0.80573 -0.21129 0.19617
 H34 H 0.68554 -0.21179 0.31571
 H35 H 0.76478 -0.40800 0.24659
 H36 H 0.75049 -0.07670 0.26230
 C37 C 0.79463 0.19980 -0.22235
 C38 C 0.75497 0.22540 -0.24751
 C39 C 0.71801 0.20053 -0.27916
 C40 C 0.72189 0.15054 -0.28823
 C41 C 0.76203 0.12537 -0.26366
 C42 C 0.79786 0.14936 -0.22900
 C43 C 0.75505 0.27865 -0.24558
 C44 C 0.79246 0.30420 -0.27387
 C45 C 0.79549 0.35507 -0.27046
 C46 C 0.76154 0.37928 -0.23515
 C47 C 0.72314 0.35409 -0.20807
 C48 C 0.71949 0.30374 -0.21423
 H49 H 0.82342 0.21971 -0.19910
 H50 H 0.68809 0.22052 -0.29987
 H51 H 0.81958 0.28341 -0.29680
 H52 H 0.69077 0.28390 -0.19202
 H53 H 0.76499 0.08677 -0.27091
 H54 H 0.76400 0.41820 -0.22996
 C55 C 1.28500 -0.30133 -0.22346
 C56 C 1.24659 -0.27557 -0.25097
 C57 C 1.20694 -0.30042 -0.27723
 C58 C 1.20476 -0.35105 -0.27530
 C59 C 1.24157 -0.37639 -0.24402
 C60 C 1.28243 -0.35216 -0.21867
 C61 C 1.24640 -0.22239 -0.25051
 C62 C 1.28124 -0.19631 -0.28248
 C63 C 1.27734 -0.14595 -0.28802
 C64 C 1.23939 -0.12175 -0.25964
 C65 C 1.20590 -0.14718 -0.22463
 C66 C 1.20903 -0.19785 -0.22143
 H67 H 1.31473 -0.28113 -0.20259
 H68 H 1.17749 -0.27998 -0.29819
 H69 H 1.30945 -0.21548 -0.30590
 H70 H 1.18189 -0.21867 -0.19780
 H71 H 1.23898 -0.41547 -0.24091
 H72 H 1.23632 -0.08284 -0.26427
 C73 C 0.19844 0.28652 0.73151
 C74 C 0.22538 0.24887 0.75848
 C75 C 0.20082 0.21131 0.78817
 C76 C 0.14930 0.21155 0.79221
 C77 C 0.12310 0.24919 0.76355
 C78 C 0.14721 0.28631 0.73273
 C79 C 0.27948 0.24945 0.75644
 C80 C 0.30565 0.28909 0.77948
 C81 C 0.35736 0.29041 0.77904
 C82 C 0.38202 0.25211 0.75181
 C83 C 0.35621 0.21248 0.72767
 C84 C 0.30486 0.21092 0.73134
 H85 H 0.21734 0.31467 0.70716
 H86 H 0.22253 0.18361 0.81013
 H87 H 0.28482 0.31879 0.79684
 H88 H 0.28443 0.18003 0.71444
 H89 H 0.08343 0.24935 0.76429
 H90 H 0.42165 0.25272 0.74994
 C91 C 0.69337 0.78912 0.71800
 C92 C 0.71891 0.74974 0.74241
 C93 C 0.69311 0.71235 0.77004
 C94 C 0.64175 0.71402 0.77450
 C95 C 0.61653 0.75305 0.74796
 C96 C 0.64164 0.79080 0.71922
 C97 C 0.77301 0.74797 0.74153
 C98 C 0.80096 0.78455 0.76944
 C99 C 0.85181 0.77946 0.77709
 C100 C 0.87466 0.73795 0.75502
 C101 C 0.84762 0.70249 0.72364
 C102 C 0.79657 0.70747 0.71787
 H103 H 0.71464 0.81821 0.69914
 H104 H 0.71384 0.68199 0.78735
 H105 H 0.78269 0.81517 0.78896
 H106 H 0.77489 0.67931 0.69639
 H107 H 0.57692 0.75423 0.75011
 H108 H 0.91382 0.73361 0.76154
 C109 C 0.69215 0.28685 0.22085
 C110 C 0.71825 0.24762 0.24474
 C111 C 0.69259 0.20802 0.26813
 C112 C 0.64094 0.20825 0.26871
 C113 C 0.61546 0.24735 0.24322
 C114 C 0.64076 0.28649 0.21859
 C115 C 0.77231 0.24850 0.24298
 C116 C 0.79842 0.28752 0.26842
 C117 C 0.84871 0.29319 0.25881
 C118 C 0.87252 0.26000 0.22248
 C119 C 0.84746 0.21969 0.19893
 C120 C 0.79728 0.21383 0.20974
 H121 H 0.71221 0.31754 0.20353
 H122 H 0.71285 0.17744 0.28591
 H123 H 0.77923 0.31423 0.29421
 H124 H 0.77710 0.18418 0.18924
 H125 H 0.57577 0.24740 0.24269
 H126 H 0.91116 0.26476 0.21397
 C127 C 0.20954 0.77672 0.21963
 C128 C 0.23191 0.74003 0.25336
 C129 C 0.20308 0.70598 0.28331
 C130 C 0.15165 0.71075 0.28350
 C131 C 0.13006 0.75025 0.25272
 C132 C 0.15867 0.78256 0.21877
 C133 C 0.28578 0.73947 0.25897
 C134 C 0.31056 0.77918 0.28421
 C135 C 0.36204 0.78098 0.28655
 C136 C 0.38843 0.74321 0.26103
 C137 C 0.36392 0.70386 0.23429
 C138 C 0.31248 0.70155 0.23504
 H139 H 0.23238 0.80181 0.19518
 H140 H 0.22126 0.67794 0.30919
 H141 H 0.28937 0.80907 0.30074
 H142 H 0.29300 0.67105 0.21551
 H143 H 0.09061 0.75354 0.25229
 H144 H 0.42807 0.74489 0.26093
 N145 N 1.04740 0.03967 0.11608
 N146 N 1.08121 0.04206 0.15893
 N147 N 0.95151 0.08328 0.06543
 N148 N 0.92428 0.12088 0.07843
 N149 N 0.94503 0.04824 0.10421
 N150 N 0.91285 0.06109 0.14439
 N151 N 1.05359 0.07421 0.07642
 N152 N 1.09167 0.10145 0.09173
 C153 C 1.10855 0.08065 0.14322
 C154 C 0.89978 0.10627 0.12720
 N155 N 0.95583 0.05402 -0.10527
 N156 N 0.92145 0.06525 -0.14545
 N157 N 1.05958 0.07956 -0.05349
 N158 N 1.08995 0.11535 -0.06589
 N159 N 1.05874 0.04761 -0.09691
 N160 N 1.08936 0.06061 -0.13913
 N161 N 0.95763 0.08641 -0.06239
 N162 N 0.92462 0.12026 -0.07201
 Mn163 Mn 1.00585 0.08116 0.00655
 C164 C 0.90231 0.10667 -0.12378
 C165 C 1.10923 0.10240 -0.11853
 N166 N 0.93718 -0.05565 0.09869
 N167 N 0.90052 -0.06355 0.13474
 N168 N 1.04083 -0.09518 0.06903
 N169 N 1.06349 -0.13478 0.08753
 N170 N 1.03846 -0.06389 0.11294
 N171 N 1.05870 -0.08192 0.16232
 N172 N 0.93833 -0.08876 0.05684
 N173 N 0.90215 -0.12004 0.06316
 Mn174 Mn 0.99185 -0.00779 0.10826
 C175 C 0.87868 -0.10348 0.11156
 C176 C 1.07548 -0.12543 0.14528
 N177 N 1.05183 -0.05667 -0.10085
 N178 N 1.08717 -0.06633 -0.13817
 N179 N 0.94646 -0.08626 -0.07100
 N180 N 0.91861 -0.12200 -0.09094
 N181 N 0.94919 -0.05157 -0.11119
 N182 N 0.92272 -0.06319 -0.15948
 N183 N 1.04848 -0.09087 -0.06015
 N184 N 1.08130 -0.12481 -0.06890
 Mn185 Mn 1.00372 -0.00160 -0.10416
 Mn186 Mn 0.99372 -0.09049 -0.00132
 Cl187 Cl 0.99889 -0.00471 0.00218
 C188 C 1.10539 -0.10879 -0.11738
 C189 C 0.90332 -0.10696 -0.14560
 N190 N 1.04553 0.55722 0.60238
 N191 N 1.08024 0.56888 0.64171
 N192 N 0.94092 0.58085 0.55036
 N193 N 0.90953 0.61606 0.55906
 N194 N 0.94332 0.55197 0.59720
 N195 N 0.91436 0.56793 0.63949
 N196 N 1.04373 0.58871 0.55817
 N197 N 1.07737 0.62263 0.56633
 C198 C 1.09985 0.60968 0.61849
 C199 C 0.89269 0.60725 0.61427
 N200 N 0.94999 0.53685 0.38400
 N201 N 0.91502 0.53778 0.34249
 N202 N 1.04747 0.58236 0.42939
 N203 N 1.07537 0.61941 0.41452
 N204 N 1.05277 0.54641 0.39195
 N205 N 1.08532 0.55788 0.35123
 N206 N 0.94538 0.57280 0.42159
 N207 N 0.90729 0.59965 0.40609
 Mn208 Mn 0.99424 0.58154 0.48990
 C209 C 0.88872 0.57709 0.35675
 C210 C 1.09934 0.60339 0.36634
 N211 N 0.94895 0.44683 0.60598
 N212 N 0.91419 0.43722 0.64451
 N213 N 1.05471 0.41715 0.57488
 N214 N 1.08280 0.38214 0.59591
 N215 N 1.05194 0.45245 0.61387
 N216 N 1.07889 0.44212 0.66225
 N217 N 0.95273 0.41137 0.56742
 N218 N 0.92094 0.37677 0.57873
 Mn219 Mn 0.99747 0.50216 0.60543
 C220 C 0.89685 0.39350 0.62639
 C221 C 1.09846 0.39841 0.64980
 N222 N 1.05997 0.44260 0.40263
 N223 N 1.09597 0.43425 0.36591
 N224 N 0.95706 0.40413 0.43959
 N225 N 0.92580 0.36836 0.43010
 N226 N 0.95784 0.43348 0.39341
 N227 N 0.92761 0.41783 0.35057
 N228 N 1.06006 0.41094 0.44651
 N229 N 1.09636 0.38007 0.44076
 Mn230 Mn 1.00529 0.48986 0.39247
 Mn231 Mn 1.00613 0.41066 0.50703
 Cl232 Cl 1.00085 0.49610 0.49886
 C233 C 1.11865 0.39545 0.39060
 C234 C 0.90750 0.37747 0.37468
 N235 N 0.58268 0.05516 0.56687
 N236 N 0.61943 0.08387 0.58219
 N237 N 0.55051 -0.04703 0.60797
 N238 N 0.56109 -0.08162 0.64720
 N239 N 0.58346 -0.04562 0.56617
 N240 N 0.61738 -0.07844 0.57583
 N241 N 0.54934 0.05504 0.60827
 N242 N 0.56242 0.08429 0.65247
 C243 C 0.60588 0.10247 0.63502
 C244 C 0.60284 -0.10095 0.62595
 N245 N 0.40966 -0.04738 0.56629
 N246 N 0.37346 -0.07630 0.58135
 N247 N 0.44350 0.05402 0.60696
 N248 N 0.43466 0.08836 0.64618
 N249 N 0.40945 0.05359 0.56453
 N250 N 0.37648 0.08716 0.57384
 N251 N 0.44458 -0.04789 0.60763
 N252 N 0.43321 -0.07777 0.65147
 Mn253 Mn 0.49697 0.00349 0.60842
 C254 C 0.38907 -0.09564 0.63392
 C255 C 0.39282 0.10882 0.62452
 N256 N 0.58191 -0.04529 0.43798
 N257 N 0.61818 -0.07394 0.42381
 N258 N 0.54714 0.05512 0.39561
 N259 N 0.55752 0.08773 0.35426
 N260 N 0.58084 0.05558 0.43840
 N261 N 0.61492 0.08803 0.42747
 N262 N 0.54709 -0.04668 0.39662
 N263 N 0.55846 -0.07690 0.35364
 Mn264 Mn 0.58238 0.00501 0.50238
 C265 C 0.60257 -0.09404 0.37178
 C266 C 0.59975 0.10815 0.37536
 N267 N 0.40735 0.05264 0.43534
 N268 N 0.37153 0.08250 0.42063
 N269 N 0.44174 -0.04846 0.39613
 N270 N 0.43479 -0.08567 0.35990
 N271 N 0.40858 -0.04840 0.43771
 N272 N 0.37811 -0.08512 0.43089
 N273 N 0.44134 0.05362 0.39476
 N274 N 0.43003 0.08490 0.35198
 Mn275 Mn 0.40842 0.00267 0.50093
 Mn276 Mn 0.49424 0.00343 0.39508
 Cl277 Cl 0.49548 0.00374 0.50174
 C278 C 0.38672 0.10288 0.36922
 C279 C 0.39490 -0.10811 0.38240
 N280 N 0.59172 0.55174 0.06277
 N281 N 0.62852 0.58029 0.07884
 N282 N 0.55662 0.45031 0.10154
 N283 N 0.56440 0.41402 0.13906
 N284 N 0.58975 0.45084 0.05997
 N285 N 0.62102 0.41523 0.06795
 N286 N 0.55775 0.55210 0.10336
 N287 N 0.57002 0.58168 0.14739
 C288 C 0.61392 0.59931 0.13108
 C289 C 0.60464 0.39249 0.11714
 N290 N 0.41622 0.45327 0.06039
 N291 N 0.37981 0.42434 0.07482
 N292 N 0.45258 0.55317 0.10270
 N293 N 0.44412 0.58626 0.14356
 N294 N 0.41850 0.55421 0.06042
 N295 N 0.38588 0.58773 0.07130
 N296 N 0.45138 0.45149 0.10130
 N297 N 0.44019 0.42066 0.14412
 Mn298 Mn 0.50462 0.50173 0.10283
 C299 C 0.39585 0.40356 0.12633
 C300 C 0.40256 0.60769 0.12287
 N301 N 0.58854 0.45280 -0.06824
 N302 N 0.62465 0.42411 -0.08286
 N303 N 0.55512 0.55459 -0.10856
 N304 N 0.56432 0.58908 -0.14788
 N305 N 0.58940 0.55366 -0.06642
 N306 N 0.62305 0.58681 -0.07623
 N307 N 0.55396 0.45262 -0.10999
 N308 N 0.56566 0.42324 -0.15391
 Mn309 Mn 0.59015 0.50233 -0.00298
 C310 C 0.60957 0.40529 -0.13579
 C311 C 0.60666 0.60898 -0.12660
 N312 N 0.41607 0.55483 -0.06831
 N313 N 0.38016 0.58462 -0.08260
 N314 N 0.44778 0.45312 -0.10986
 N315 N 0.43754 0.41843 -0.14884
 N316 N 0.41469 0.45404 -0.06819
 N317 N 0.38099 0.42067 -0.07774
 N318 N 0.44944 0.55526 -0.10968
 N319 N 0.43737 0.58615 -0.15274
 Mn320 Mn 0.41610 0.50414 -0.00396
 Mn321 Mn 0.50155 0.50384 -0.11030
 Cl322 Cl 0.50311 0.50304 -0.00369
 C323 C 0.39447 0.60464 -0.13455
 C324 C 0.39584 0.39847 -0.12765
 C325 C 1.17209 0.14045 0.16900
 C326 C 1.15014 0.09820 0.17993
 H327 H 1.15862 0.16256 0.13210
 H328 H 1.16081 0.07685 0.21866
 C329 C 1.16383 0.62175 0.69602
 C330 C 1.14003 0.63746 0.64670
 H331 H 1.15461 0.58668 0.71451
 H332 H 1.15072 0.67097 0.62538
 C333 C 0.68686 0.12447 0.67262
 C334 C 0.63854 0.13156 0.67353
 H335 H 0.70132 0.09629 0.64454
 H336 H 0.62290 0.15601 0.70552
 C337 C 0.69266 0.62361 0.17496
 C338 C 0.64439 0.63041 0.16955
 H339 H 0.70950 0.59393 0.15167
 H340 H 0.62643 0.65649 0.19750
 C341 C 0.81784 -0.11282 0.18940
 C342 C 0.83804 -0.12915 0.13943
 H343 H 0.82892 -0.07790 0.20704
 H344 H 0.82575 -0.16267 0.11919
 C345 C 0.83147 0.38237 0.69991
 C346 C 0.85926 0.36480 0.65640
 H347 H 0.83553 0.42031 0.71113
 H348 H 0.85399 0.32859 0.63957
 C349 C 0.31004 -0.11837 0.67300
 C350 C 0.35829 -0.12580 0.67196
 H351 H 0.29416 -0.08903 0.64690
 H352 H 0.37552 -0.15152 0.70227
 C353 C 0.32310 0.38927 0.18391
 C354 C 0.36544 0.37253 0.16331
 H355 H 0.31433 0.42693 0.17518
 H356 H 0.37995 0.33774 0.17658
 C357 C 0.83879 0.12105 -0.20204
 C358 C 0.86256 0.13485 -0.15199
 H359 H 0.84792 0.08681 -0.22226
 H360 H 0.85200 0.16752 -0.12929
 C361 C 0.82938 0.63869 0.32505
 C362 C 0.84637 0.59355 0.32073
 H363 H 0.84794 0.66262 0.35661
 H364 H 0.83203 0.56857 0.28772
 C365 C 0.31364 0.12274 0.31032
 C366 C 0.35730 0.13653 0.33318
 H367 H 0.30270 0.08530 0.31650
 H368 H 0.37365 0.17101 0.32223
 C369 C 0.31759 0.62048 -0.18683
 C370 C 0.36276 0.63582 -0.17145
 H371 H 0.30789 0.58357 -0.17508
 H372 H 0.37760 0.66953 -0.18785
 C373 C 1.16692 -0.12000 -0.19457
 C374 C 1.14459 -0.13614 -0.14561
 H375 H 1.15737 -0.08472 -0.21246
 H376 H 1.15511 -0.17011 -0.12508
 C377 C 1.18066 0.38712 0.31383
 C378 C 1.15946 0.37009 0.36316
 H379 H 1.17002 0.42217 0.29619
 H380 H 1.17155 0.33655 0.38356
 C381 C 0.68131 -0.11446 0.33163
 C382 C 0.63344 -0.12381 0.33437
 H383 H 0.69687 -0.08407 0.35610
 H384 H 0.61641 -0.15059 0.30535
 C385 C 0.68953 0.38084 -0.16992
 C386 C 0.64087 0.37538 -0.17315
 H387 H 0.70542 0.40846 -0.14110
 H388 H 0.62408 0.35143 -0.20595
 C389 C 1.12282 0.17682 -0.17492
 C390 C 1.14044 0.13451 -0.15419
 H391 H 1.08460 0.18436 -0.16678
 H392 H 1.17628 0.12167 -0.16564
 C393 C 1.12115 0.67863 0.31504
 C394 C 1.13345 0.63348 0.33191
 H395 H 1.08414 0.69029 0.32377
 H396 H 1.16701 0.61708 0.31751
 C397 C 0.61256 0.16846 0.29582
 C398 C 0.62844 0.14557 0.34508
 H399 H 0.57629 0.16054 0.27771
 H400 H 0.66321 0.15561 0.36576
 C401 C 0.61487 0.67780 -0.19604
 C402 C 0.63492 0.64673 -0.15653
 H403 H 0.57548 0.67657 -0.20315
 H404 H 0.67278 0.65006 -0.14213
 C405 C 0.88072 -0.18618 -0.18568
 C406 C 0.87497 -0.13801 -0.18737
 H407 H 0.90873 -0.20145 -0.15626
 H408 H 0.85051 -0.12149 -0.22016
 C409 C 0.87713 0.33341 0.28614
 C410 C 0.87298 0.34452 0.34390
 H411 H 0.90616 0.34984 0.26066
 H412 H 0.84787 0.32415 0.37121
 C413 C 0.38866 -0.17693 0.31249
 C414 C 0.37053 -0.15112 0.35725
 H415 H 0.42434 -0.16780 0.29541
 H416 H 0.33653 -0.16200 0.37737
 C417 C 0.38504 0.32853 -0.19526
 C418 C 0.36685 0.35986 -0.15609
 H419 H 0.42373 0.33096 -0.20474
 H420 H 0.33015 0.35582 -0.13983
 C421 C 1.13871 -0.18049 0.18229
 C422 C 1.09376 -0.16231 0.18738
 H423 H 1.16200 -0.16419 0.14899
 H424 H 1.07061 -0.17232 0.22403
 C425 C 1.11808 0.32056 0.69569
 C426 C 1.12691 0.36827 0.69252
 H427 H 1.08748 0.30552 0.67013
 H428 H 1.15423 0.38503 0.72160
 C429 C 0.61410 -0.17112 0.69341
 C430 C 0.63218 -0.13923 0.65440
 H431 H 0.57544 -0.16899 0.70304
 H432 H 0.66895 -0.14252 0.63830
 C433 C 0.61310 0.32695 0.19124
 C434 C 0.63002 0.35113 0.14414
 H435 H 0.57764 0.33583 0.20880
 H436 H 0.66381 0.34024 0.12384
 C437 C 0.87415 0.18615 0.16027
 C438 C 0.86842 0.13807 0.16234
 H439 H 0.90254 0.20148 0.13279
 H440 H 0.84344 0.12182 0.19361
 C441 C 0.87345 0.66037 0.69829
 C442 C 0.86080 0.64146 0.64505
 H443 H 0.90698 0.64842 0.72042
 H444 H 0.83085 0.65713 0.61921
 C445 C 0.38384 0.17281 0.69990
 C446 C 0.36587 0.14794 0.65316
 H447 H 0.42072 0.16566 0.71634
 H448 H 0.33045 0.15712 0.63378
 C449 C 0.39243 0.66624 0.20420
 C450 C 0.37579 0.64544 0.15385
 H451 H 0.42853 0.65741 0.22194
 H452 H 0.34122 0.65660 0.13377
   
