data_POSCAR
  _audit_creation_date              2014-09-24
  _audit_creation_method            'ToBaCCo'
  _symmetry_space_group_name_H-M    'P1'
  _symmetry_Int_Tables_number       1
  _symmetry_cell_setting            triclinic
  loop_
  _symmetry_equiv_pos_as_xyz
 x,y,z
_cell_length_a 35.2599
_cell_length_b 33.9966
_cell_length_c 18.2466
_cell_angle_alpha 90.032800
_cell_angle_beta 89.917000
_cell_angle_gamma 122.832400
loop_
  _atom_site_label
  _atom_site_type_symbol
  _atom_site_fract_x
  _atom_site_fract_y
  _atom_site_fract_z
O1 O 0.47284 0.95431 0.56499
 O2 O 0.51861 1.04598 0.42333
 O3 O 0.47514 0.95545 0.42242
 O4 O 0.52006 1.04595 0.56605
 O5 O 0.58314 1.04698 0.56797
 O6 O 0.53945 0.95892 0.42089
 O7 O 0.58292 1.04962 0.42526
 O8 O 0.53603 0.95558 0.56329
 Cu9 Cu 0.49029 1.00020 0.49449
 Cu10 Cu 0.56678 1.00306 0.49459
 C11 C 0.49631 0.93874 0.58767
 C12 C 0.55858 1.06355 0.39975
 C13 C 0.49981 0.94204 0.39650
 C14 C 0.55935 1.06198 0.59162
 O15 O 0.03821 0.49151 0.57792
 O16 O -0.04824 0.44073 0.43331
 O17 O 0.03970 0.49388 0.43520
 O18 O -0.04949 0.44168 0.57601
 O19 O -0.05001 0.50618 0.57829
 O20 O 0.03615 0.55667 0.43295
 O21 O -0.05176 0.50355 0.43563
 O22 O 0.03764 0.55598 0.57560
 Cu23 Cu -0.00475 0.46058 0.50550
 Cu24 Cu -0.00720 0.53696 0.50550
 C25 C 0.05298 0.53254 0.60148
 C26 C -0.06515 0.46321 0.41021
 C27 C 0.05303 0.53418 0.40967
 C28 C -0.06477 0.46518 0.60201
 O29 O 0.47907 0.44201 0.57305
 O30 O 0.43654 0.48105 0.42960
 O31 O 0.49096 0.45108 0.43040
 O32 O 0.44547 0.49437 0.57184
 O33 O 0.51111 0.56168 0.57105
 O34 O 0.55457 0.52047 0.43246
 O35 O 0.49978 0.55069 0.42766
 O36 O 0.54444 0.50968 0.57393
 Cu37 Cu 0.45705 0.46074 0.50131
 Cu38 Cu 0.53301 0.54187 0.50074
 C39 C 0.51840 0.46813 0.59864
 C40 C 0.45997 0.52190 0.40344
 C41 C 0.53117 0.47940 0.40709
 C42 C 0.47143 0.53616 0.59591
 O43 O 0.39028 0.64748 -0.06868
 O44 O 0.38625 0.72046 -0.09589
 C45 C 0.36566 0.74090 -0.10702
 O46 O 0.33260 0.73346 -0.06757
 O47 O 0.25835 0.65068 -0.08041
 C48 C 0.23715 0.60671 -0.08894
 O49 O 0.24472 0.58052 -0.04999
 O50 O 0.31965 0.58575 -0.07805
 C51 C 0.36056 0.60866 -0.09794
 O52 O 0.39586 0.66783 0.07575
 O53 O 0.39488 0.74222 0.04850
 C54 C 0.36788 0.74734 0.08778
 O55 O 0.32546 0.72291 0.07902
 O56 O 0.24857 0.64272 0.06625
 C57 C 0.24440 0.60992 0.10619
 O58 O 0.26638 0.59103 0.09430
 O59 O 0.33987 0.59293 0.06607
 C60 C 0.37632 0.62554 0.09551
 Cr61 Cr 0.38936 0.69309 -0.00984
 Cr62 Cr 0.29249 0.68630 -0.00072
 Cr63 Cr 0.29384 0.59010 0.00781
 O64 O 0.32528 0.65645 -0.00101
 O65 O 0.59852 0.35264 -0.06653
 O66 O 0.60196 0.27940 -0.09487
 C67 C 0.62247 0.25891 -0.10671
 O68 O 0.65504 0.26552 -0.06690
 O69 O 0.72978 0.34787 -0.07908
 C70 C 0.75129 0.39187 -0.08744
 O71 O 0.74395 0.41819 -0.04833
 O72 O 0.66945 0.41369 -0.07638
 C73 C 0.62854 0.39127 -0.09603
 O74 O 0.59257 0.33167 0.07760
 O75 O 0.59275 0.25685 0.04935
 C76 C 0.61945 0.25125 0.08843
 O77 O 0.66189 0.27547 0.07984
 O78 O 0.73918 0.35531 0.06769
 C79 C 0.74360 0.38822 0.10771
 O80 O 0.72200 0.40752 0.09589
 O81 O 0.64897 0.40643 0.06787
 C82 C 0.61242 0.37398 0.09745
 Cr83 Cr 0.59890 0.30651 -0.00837
 Cr84 Cr 0.69525 0.31220 0.00038
 Cr85 Cr 0.69488 0.40893 0.00949
 O86 O 0.66297 0.34258 0.00047
 C87 C 0.50143 0.88038 -0.33665
 C88 C 0.47722 0.90052 -0.35744
 C89 C 0.43462 0.88366 -0.32572
 C90 C 0.41671 0.84753 -0.27351
 C91 C 0.44148 0.82769 -0.25316
 C92 C 0.48369 0.84425 -0.28518
 C93 C 0.42397 0.79206 -0.20037
 C94 C 0.38219 0.77623 -0.16643
 C95 C 0.35766 0.79600 -0.18743
 C96 C 0.37467 0.83118 -0.24073
 H97 H 0.41554 0.89884 -0.34114
 H98 H 0.50314 0.82943 -0.27013
 H99 H 0.44349 0.77744 -0.18456
 H100 H 0.35518 0.84595 -0.25567
 H101 H 0.53418 0.89250 -0.36032
 H102 H 0.32541 0.78449 -0.16229
 C103 C 0.10428 0.59828 -0.31935
 C104 C 0.08627 0.55207 -0.34366
 C105 C 0.10214 0.52583 -0.31161
 C106 C 0.13510 0.54530 -0.25640
 C107 C 0.15299 0.59180 -0.23328
 C108 C 0.13738 0.61795 -0.26504
 C109 C 0.18619 0.61148 -0.17869
 C110 C 0.20167 0.58522 -0.14599
 C111 C 0.18330 0.53878 -0.16880
 C112 C 0.15043 0.51905 -0.22372
 H113 H 0.08872 0.49012 -0.32904
 H114 H 0.15071 0.65364 -0.24777
 H115 H 0.19978 0.64724 -0.16143
 H116 H 0.13703 0.48329 -0.24063
 H117 H 0.09302 0.61959 -0.34250
 H118 H 0.19468 0.51781 -0.14474
 C119 C 0.48737 0.60069 -0.32365
 C120 C 0.45707 0.55484 -0.34997
 C121 C 0.41301 0.52900 -0.32086
 C122 C 0.39973 0.54865 -0.26661
 C123 C 0.43080 0.59448 -0.24070
 C124 C 0.47442 0.62014 -0.26970
 C125 C 0.41789 0.61401 -0.18604
 C126 C 0.37407 0.58848 -0.15674
 C127 C 0.34320 0.54302 -0.18344
 C128 C 0.35593 0.52330 -0.23766
 H129 H 0.38905 0.49379 -0.34025
 H130 H 0.49865 0.65533 -0.25062
 H131 H 0.44203 0.64910 -0.16637
 H132 H 0.33153 0.48817 -0.25677
 H133 H 0.52156 0.62190 -0.34442
 H134 H 0.30916 0.52239 -0.16195
 C135 C 0.61724 0.11075 -0.31287
 C136 C 0.57760 0.09851 -0.35084
 C137 C 0.55561 0.12163 -0.33371
 C138 C 0.57280 0.15632 -0.27931
 C139 C 0.61234 0.16795 -0.24082
 C140 C 0.63437 0.14503 -0.25821
 C141 C 0.62896 0.20200 -0.18531
 C142 C 0.60658 0.22472 -0.16778
 C143 C 0.56770 0.21332 -0.20751
 C144 C 0.55096 0.17945 -0.26258
 H145 H 0.52522 0.11283 -0.36289
 H146 H 0.66477 0.15352 -0.22943
 H147 H 0.65903 0.21044 -0.15543
 H148 H 0.52071 0.17110 -0.29172
 H149 H 0.63487 0.09353 -0.32499
 H150 H 0.54968 0.23014 -0.19539
 C151 C 0.88394 0.39960 -0.31838
 C152 C 0.90203 0.44579 -0.34286
 C153 C 0.88629 0.47217 -0.31072
 C154 C 0.85338 0.45284 -0.25529
 C155 C 0.83539 0.40635 -0.23204
 C156 C 0.85088 0.38008 -0.26385
 C157 C 0.80220 0.38682 -0.17727
 C158 C 0.78684 0.41322 -0.14455
 C159 C 0.80534 0.45966 -0.16747
 C160 C 0.83819 0.47924 -0.22256
 H161 H 0.89977 0.50787 -0.32826
 H162 H 0.83748 0.34438 -0.24648
 H163 H 0.78851 0.35105 -0.15991
 H164 H 0.85167 0.51501 -0.23958
 H165 H 0.89511 0.37819 -0.34160
 H166 H 0.79404 0.48073 -0.14341
 C167 C 0.50064 0.40597 -0.30980
 C168 C 0.53285 0.44904 -0.34248
 C169 C 0.57799 0.47230 -0.31920
 C170 C 0.59070 0.45242 -0.26456
 C171 C 0.55788 0.40907 -0.23251
 C172 C 0.51298 0.38627 -0.25542
 C173 C 0.57036 0.38911 -0.17803
 C174 C 0.61541 0.41180 -0.15475
 C175 C 0.64789 0.45485 -0.18725
 C176 C 0.63567 0.47495 -0.24152
 H177 H 0.60316 0.50540 -0.34400
 H178 H 0.48736 0.35309 -0.23144
 H179 H 0.54490 0.35596 -0.15368
 H180 H 0.66138 0.50812 -0.26538
 H181 H 0.46555 0.38723 -0.32624
 H182 H 0.68292 0.47326 -0.17055
 C183 C 0.88950 0.40177 0.31543
 C184 C 0.89934 0.44234 0.35320
 C185 C 0.87510 0.46301 0.33588
 C186 C 0.84181 0.44374 0.28131
 C187 C 0.83265 0.40337 0.24290
 C188 C 0.85656 0.38254 0.26065
 C189 C 0.80006 0.38480 0.18702
 C190 C 0.77638 0.40606 0.16908
 C191 C 0.78531 0.44572 0.20880
 C192 C 0.81772 0.46439 0.26421
 H193 H 0.88207 0.49410 0.36488
 H194 H 0.84996 0.35151 0.23195
 H195 H 0.79349 0.35413 0.15719
 H196 H 0.82418 0.49525 0.29330
 H197 H 0.90764 0.38512 0.32769
 H198 H 0.76768 0.46290 0.19639
 C199 C 0.62078 0.11944 0.32074
 C200 C 0.57585 0.09822 0.34506
 C201 C 0.54848 0.11207 0.31285
 C202 C 0.56554 0.14604 0.25724
 C203 C 0.61074 0.16711 0.23401
 C204 C 0.63805 0.15362 0.26611
 C205 C 0.62795 0.20127 0.17891
 C206 C 0.60052 0.21457 0.14582
 C207 C 0.55542 0.19305 0.16877
 C208 C 0.53813 0.15921 0.22419
 H209 H 0.51372 0.09617 0.33028
 H210 H 0.67278 0.16941 0.24877
 H211 H 0.66274 0.21732 0.16158
 H212 H 0.50333 0.14336 0.24119
 H213 H 0.64289 0.10981 0.34405
 H214 H 0.53360 0.20273 0.14444
 C215 C 0.59446 0.49972 0.32141
 C216 C 0.55167 0.46571 0.34969
 C217 C 0.52953 0.41976 0.32238
 C218 C 0.54997 0.40813 0.26757
 C219 C 0.59284 0.44285 0.23957
 C220 C 0.61475 0.48845 0.26699
 C221 C 0.61316 0.43157 0.18443
 C222 C 0.59136 0.38582 0.15662
 C223 C 0.54885 0.35138 0.18530
 C224 C 0.52835 0.36243 0.24008
 H225 H 0.49665 0.39319 0.34368
 H226 H 0.64761 0.51550 0.24627
 H227 H 0.64594 0.45848 0.16321
 H228 H 0.49556 0.33526 0.26080
 H229 H 0.61244 0.53547 0.34110
 H230 H 0.53113 0.31577 0.16503
 C231 C 0.09820 0.59560 0.31472
 C232 C 0.08845 0.55502 0.35235
 C233 C 0.11271 0.53440 0.33467
 C234 C 0.14599 0.55377 0.27992
 C235 C 0.15508 0.59417 0.24171
 C236 C 0.13111 0.61491 0.25976
 C237 C 0.18771 0.61289 0.18576
 C238 C 0.21150 0.59179 0.16753
 C239 C 0.20261 0.55206 0.20698
 C240 C 0.17016 0.53322 0.26248
 H241 H 0.10578 0.50330 0.36355
 H242 H 0.13767 0.64595 0.23121
 H243 H 0.19424 0.64361 0.15613
 H244 H 0.16374 0.50234 0.29138
 H245 H 0.08004 0.61221 0.32724
 H246 H 0.22033 0.53499 0.19431
 C247 C 0.51028 0.89443 0.30326
 C248 C 0.48222 0.90661 0.33733
 C249 C 0.43717 0.88482 0.31423
 C250 C 0.42030 0.85132 0.25812
 C251 C 0.44881 0.83946 0.22398
 C252 C 0.49375 0.86124 0.24699
 C253 C 0.43181 0.80589 0.16776
 C254 C 0.38647 0.78365 0.14570
 C255 C 0.35851 0.79577 0.18035
 C256 C 0.37528 0.82936 0.23579
 H257 H 0.41508 0.89373 0.34008
 H258 H 0.51611 0.85256 0.22158
 H259 H 0.45370 0.79671 0.14193
 H260 H 0.35296 0.83802 0.26140
 H261 H 0.54514 0.91072 0.31987
 H262 H 0.32349 0.77934 0.16448
 C263 C 0.39882 0.49979 0.31256
 C264 C 0.43990 0.53484 0.34439
 C265 C 0.46038 0.58126 0.31994
 C266 C 0.43975 0.59242 0.26494
 C267 C 0.39845 0.55674 0.23370
 C268 C 0.37839 0.51058 0.25782
 C269 C 0.37777 0.56766 0.17882
 C270 C 0.39769 0.61397 0.15441
 C271 C 0.43871 0.64930 0.18611
 C272 C 0.45952 0.63863 0.24072
 H273 H 0.49192 0.60862 0.34407
 H274 H 0.34680 0.48277 0.23451
 H275 H 0.34620 0.54002 0.15513
 H276 H 0.49109 0.66653 0.26395
 H277 H 0.38224 0.46365 0.32992
 H278 H 0.45496 0.68536 0.16853
   
