data_POSCAR
  _audit_creation_date              2014-09-24
  _audit_creation_method            'ToBaCCo'
  _symmetry_space_group_name_H-M    'P1'
  _symmetry_Int_Tables_number       1
  _symmetry_cell_setting            triclinic
  loop_
  _symmetry_equiv_pos_as_xyz
 x,y,z
_cell_length_a 38.9522
_cell_length_b 39.3624
_cell_length_c 12.3473
_cell_angle_alpha 89.972900
_cell_angle_beta 90.771800
_cell_angle_gamma 119.440600
loop_
  _atom_site_label
  _atom_site_type_symbol
  _atom_site_fract_x
  _atom_site_fract_y
  _atom_site_fract_z
C1 C 0.19876 0.46049 0.42631
 C2 C 0.19323 0.45603 0.54053
 C3 C 0.22262 0.45532 0.60628
 C4 C 0.25773 0.45969 0.56440
 C5 C 0.26155 0.45973 0.45001
 C6 C 0.23206 0.46017 0.38305
 H7 H 0.23515 0.45947 0.29656
 H8 H 0.21821 0.45131 0.69285
 C9 C 0.52798 -0.27098 0.45997
 C10 C 0.54351 -0.25820 0.56605
 C11 C 0.54582 -0.22425 0.60980
 C12 C 0.53192 -0.20234 0.55186
 C13 C 0.51703 -0.21492 0.44457
 C14 C 0.51463 -0.24896 0.40137
 H15 H 0.50402 -0.25671 0.31874
 H16 H 0.55809 -0.21590 0.69065
 C17 C 1.26719 0.80079 0.46616
 C18 C 1.26390 0.79585 0.58002
 C19 C 1.23357 0.76180 0.62453
 C20 C 1.20407 0.73294 0.55877
 C21 C 1.20541 0.73865 0.44522
 C22 C 1.23728 0.77180 0.40005
 H23 H 1.23744 0.77554 0.31314
 H24 H 1.23168 0.75912 0.71191
 C25 C 0.80804 0.54734 0.46626
 C26 C 0.80290 0.54212 0.57984
 C27 C 0.77332 0.54694 0.62907
 C28 C 0.74601 0.55306 0.56802
 C29 C 0.75108 0.55777 0.45426
 C30 C 0.78218 0.55544 0.40533
 H31 H 0.78637 0.56019 0.31886
 H32 H 0.77167 0.54536 0.71646
 C33 C 0.44902 0.25200 0.43607
 C34 C 0.46269 0.26383 0.54374
 C35 C 0.46991 0.23865 0.60917
 C36 C 0.46593 0.20326 0.57004
 C37 C 0.45266 0.19204 0.46057
 C38 C 0.44398 0.21652 0.39651
 H39 H 0.43314 0.20789 0.31410
 H40 H 0.47817 0.24612 0.69341
 C41 C 0.73490 0.20923 0.42809
 C42 C 0.73152 0.20350 0.54056
 C43 C 0.75595 0.23436 0.61020
 C44 C 0.78458 0.27088 0.57060
 C45 C 0.78960 0.27560 0.45590
 C46 C 0.76352 0.24498 0.38669
 H47 H 0.76718 0.24777 0.29970
 H48 H 0.75248 0.22963 0.69689
 O49 O 0.96032 0.54862 -0.19911
 O50 O 0.90977 0.49356 -0.12449
 C51 C 0.92336 0.52337 -0.18864
 O52 O 1.05745 0.46652 -0.18553
 O53 O 1.09937 0.51372 -0.06572
 C54 C 1.09214 0.48887 -0.14298
 O55 O 0.95028 0.43031 -0.24252
 O56 O 0.90415 0.43484 -0.13891
 C57 C 0.91447 0.42215 -0.22263
 O58 O 1.06846 0.59411 -0.15642
 O59 O 1.10473 0.57456 -0.05230
 C60 C 1.10168 0.59804 -0.12081
 Zr61 Zr 1.01036 0.55050 -0.12480
 O62 O 1.02043 0.56051 -0.29287
 O63 O 1.01405 0.60525 -0.09845
 Zr64 Zr 1.00198 0.46095 -0.14717
 O65 O 1.01282 0.46384 -0.31506
 O66 O 0.99014 0.40235 -0.15002
 O67 O 0.97262 0.49274 -0.16911
 O68 O 1.04073 0.52027 -0.14487
 O69 O 1.05414 0.58009 0.21634
 O70 O 1.09730 0.56585 0.12910
 C71 C 1.08924 0.58499 0.19997
 O72 O 0.93229 0.40958 0.16686
 O73 O 0.89611 0.42681 0.05422
 C74 C 0.89907 0.40536 0.12963
 O75 O 1.04187 0.44971 0.18479
 O76 O 1.09215 0.50482 0.10949
 C77 C 1.07901 0.47384 0.16890
 O78 O 0.94320 0.53153 0.18901
 O79 O 0.90153 0.48610 0.06449
 C80 C 0.90840 0.50924 0.14649
 Zr81 Zr 0.99910 0.53908 0.14441
 O82 O 0.99638 0.53285 0.31497
 O83 O 1.00062 0.59339 0.15794
 Zr84 Zr 0.99071 0.44959 0.12225
 O85 O 0.98861 0.44286 0.29245
 O86 O 0.98037 0.39186 0.10246
 Zr87 Zr 0.94198 0.47609 -0.02184
 Zr88 Zr 1.05868 0.52358 0.01794
 O89 O 1.02801 0.50722 0.16474
 O90 O 0.95924 0.47936 0.14244
 O91 O 1.04045 0.56583 0.02307
 O92 O 0.96123 0.43469 -0.02605
 O93 O 0.97104 0.53710 -0.00057
 O94 O 1.03059 0.46250 -0.00254
 H95 H 1.06068 0.52997 -0.20266
 H96 H 0.94091 0.40704 -0.03769
 H97 H 1.04321 0.51162 0.23324
 H98 H 0.95548 0.55083 -0.00174
 H99 H 1.01370 0.40198 -0.12051
 H100 H 1.00362 0.39341 0.06643
 H101 H 0.97154 0.45287 0.32006
 H102 H 0.97055 0.51013 0.33228
 H103 H 1.02173 0.61184 0.11005
 H104 H 1.01799 0.61761 -0.17053
 H105 H 0.99955 0.53740 -0.33156
 H106 H 1.01358 0.48792 -0.34117
 O107 O 0.40579 0.46054 0.16418
 O108 O 0.41531 0.51196 0.05643
 C109 C 0.39607 0.48592 0.12898
 O110 O 0.58321 0.53443 0.21921
 O111 O 0.57884 0.48219 0.12466
 C112 C 0.59430 0.50883 0.19902
 O113 O 0.51824 0.58068 0.19840
 O114 O 0.46913 0.56960 0.07493
 C115 C 0.49156 0.58792 0.15753
 O116 O 0.46346 0.40632 0.17725
 O117 O 0.52370 0.42322 0.10446
 C118 C 0.49362 0.40111 0.16308
 Zr119 Zr 0.45322 0.45147 0.11823
 O120 O 0.44412 0.44324 0.28686
 O121 O 0.40145 0.39823 0.08387
 Zr122 Zr 0.53583 0.53989 0.14908
 O123 O 0.52945 0.53431 0.31927
 O124 O 0.58507 0.59639 0.16823
 O125 O 0.47426 0.51091 0.14584
 O126 O 0.51239 0.48020 0.16248
 O127 O 0.48170 0.41396 -0.19533
 O128 O 0.53238 0.42628 -0.07687
 C129 C 0.50837 0.40669 -0.15553
 O130 O 0.53587 0.58741 -0.18894
 O131 O 0.47676 0.57167 -0.11061
 C132 C 0.50559 0.59238 -0.17436
 O133 O 0.59967 0.54062 -0.15195
 O134 O 0.58817 0.48638 -0.05441
 C135 C 0.60932 0.51509 -0.11841
 O136 O 0.42967 0.47018 -0.24490
 O137 O 0.42472 0.51468 -0.13572
 C138 C 0.41571 0.49306 -0.22247
 Zr139 Zr 0.46658 0.45659 -0.15082
 O140 O 0.47208 0.45201 -0.31948
 O141 O 0.41172 0.40425 -0.15865
 Zr142 Zr 0.54873 0.54505 -0.12072
 O143 O 0.55997 0.54828 -0.28879
 O144 O 0.59846 0.60040 -0.09124
 Zr145 Zr 0.46849 0.52415 -0.01663
 Zr146 Zr 0.53354 0.47223 0.01404
 O147 O 0.52751 0.48606 -0.14701
 O148 O 0.48955 0.51663 -0.16601
 O149 O 0.47331 0.43163 -0.00931
 O150 O 0.52891 0.56390 0.00722
 O151 O 0.43460 0.46311 -0.02810
 O152 O 0.56803 0.53341 0.02546
 H153 H 0.51920 0.47125 0.23031
 H154 H 0.53815 0.59227 0.00913
 H155 H 0.54029 0.47935 -0.20567
 H156 H 0.40584 0.45175 -0.04089
 H157 H 0.60554 0.59815 0.11829
 H158 H 0.60994 0.61062 -0.16308
 H159 H 0.53539 0.54300 -0.32739
 H160 H 0.49376 0.47749 -0.34287
 H161 H 0.41487 0.38412 -0.11871
 H162 H 0.38924 0.38777 0.15481
 H163 H 0.45344 0.46934 0.31925
 H164 H 0.50375 0.53218 0.33680
 O165 O 0.45628 0.05033 0.17427
 O166 O 0.50357 0.09292 0.05889
 C167 C 0.47826 0.08501 0.13521
 O168 O 0.55091 -0.03446 0.21438
 O169 O 0.49824 -0.08719 0.13410
 C170 C 0.52836 -0.07159 0.20031
 O171 O 0.58495 0.07145 0.18691
 O172 O 0.56586 0.10399 0.06769
 C173 C 0.58804 0.10318 0.14569
 O174 O 0.41084 -0.05900 0.18883
 O175 O 0.43179 -0.09899 0.11430
 C176 C 0.40749 -0.09314 0.17158
 Zr177 Zr 0.45313 -0.00334 0.12962
 O178 O 0.44957 -0.00154 0.30022
 O179 O 0.39625 -0.01011 0.10629
 Zr180 Zr 0.54614 0.01219 0.14771
 O181 O 0.53956 0.01422 0.31727
 O182 O 0.60521 0.02566 0.17430
 O183 O 0.51218 0.03961 0.14778
 O184 O 0.48746 -0.02844 0.16987
 O185 O 0.41338 -0.07395 -0.17276
 O186 O 0.43391 -0.10679 -0.05895
 C187 C 0.41033 -0.10577 -0.13233
 O188 O 0.58529 0.05593 -0.19573
 O189 O 0.56592 0.09608 -0.11395
 C190 C 0.58795 0.08988 -0.17916
 O191 O 0.54688 -0.05250 -0.15721
 O192 O 0.49800 -0.09563 -0.04609
 C193 C 0.52518 -0.08711 -0.11708
 O194 O 0.45938 0.03200 -0.23478
 O195 O 0.50468 0.08464 -0.13537
 C196 C 0.48070 0.06911 -0.21765
 Zr197 Zr 0.45369 -0.01478 -0.13995
 O198 O 0.44695 -0.02807 -0.30737
 O199 O 0.39761 -0.01838 -0.14310
 Zr200 Zr 0.54699 0.00067 -0.12415
 O201 O 0.54575 -0.00940 -0.29300
 O202 O 0.60640 0.01321 -0.11376
 Zr203 Zr 0.52077 0.05580 -0.01676
 Zr204 Zr 0.47972 -0.05838 0.02268
 O205 O 0.48823 -0.04116 -0.14061
 O206 O 0.51274 0.02593 -0.16490
 O207 O 0.43423 -0.04432 0.00495
 O208 O 0.56533 0.04051 0.00179
 O209 O 0.45889 0.02368 -0.01861
 O210 O 0.54183 -0.02625 0.02482
 H211 H 0.48066 -0.04376 0.23763
 H212 H 0.59346 0.06090 0.00010
 H213 H 0.48163 -0.06112 -0.19793
 H214 H 0.44437 0.03820 -0.03009
 H215 H 0.61403 0.01966 0.10586
 H216 H 0.60739 -0.00618 -0.06466
 H217 H 0.54102 0.01025 -0.33012
 H218 H 0.47376 -0.01816 -0.33587
 H219 H 0.38052 -0.03950 -0.09323
 H220 H 0.38670 -0.00889 0.17940
 H221 H 0.47457 0.02081 0.32664
 H222 H 0.54174 0.03972 0.33509
 C223 C 1.17248 0.46727 0.36027
 C224 C 1.17445 0.47332 0.25269
 C225 C 1.14556 0.48132 0.19473
 C226 C 1.10759 0.46508 0.22341
 H227 H 1.19832 0.47505 0.20537
 H228 H 1.15574 0.50009 0.12461
 H229 H 1.14970 0.47044 0.39960
 H230 H 1.09650 0.44355 0.28720
 C231 C 0.52800 0.69603 0.41377
 C232 C 0.50694 0.67602 0.32628
 C233 C 0.51009 0.64240 0.28571
 C234 C 0.48710 0.61996 0.20444
 H235 H 0.48650 0.68310 0.28579
 H236 H 0.53201 0.63635 0.32194
 H237 H 0.54574 0.68523 0.45311
 H238 H 0.46516 0.62607 0.16862
 C239 C 0.29950 -0.16555 0.42191
 C240 C 0.31320 -0.16306 0.32149
 C241 C 0.34842 -0.12696 0.28626
 C242 C 0.37303 -0.12826 0.21409
 H243 H 0.30070 -0.18811 0.26762
 H244 H 0.35469 -0.09930 0.32190
 H245 H 0.31673 -0.14064 0.47431
 H246 H 0.36745 -0.15637 0.18347
 C247 C 0.84332 0.55006 0.41359
 C248 C 0.84134 0.53192 0.32035
 C249 C 0.87670 0.53242 0.27688
 C250 C 0.87404 0.51024 0.19175
 H251 H 0.81319 0.51518 0.27871
 H252 H 0.90502 0.55055 0.31636
 H253 H 0.87126 0.56506 0.45723
 H254 H 0.84548 0.49188 0.15375
 C255 C 0.44151 0.27701 0.36094
 C256 C 0.47123 0.31107 0.32897
 C257 C 0.46490 0.33895 0.26404
 C258 C 0.49582 0.36947 0.22028
 H259 H 0.50105 0.31913 0.35470
 H260 H 0.43550 0.33511 0.25440
 H261 H 0.41166 0.26734 0.33258
 H262 H 0.52466 0.37172 0.22725
 C263 C 0.70930 0.17717 0.35389
 C264 C 0.68110 0.17833 0.29411
 C265 C 0.65051 0.14235 0.24212
 C266 C 0.61960 0.14062 0.18869
 H267 H 0.67886 0.20471 0.29127
 H268 H 0.65268 0.11605 0.25140
 H269 H 0.71012 0.15011 0.36038
 H270 H 0.61771 0.16688 0.17550
 C271 C 0.47475 0.18161 -0.35365
 C272 C 0.48338 0.15339 -0.37483
 C273 C 0.48857 0.13138 -0.28588
 C274 C 0.47825 0.09413 -0.30186
 H275 H 0.48697 0.14580 -0.45603
 H276 H 0.49823 0.14464 -0.20635
 H277 H 0.47587 0.18935 -0.26872
 H278 H 0.46596 0.08071 -0.37997
 C279 C 0.71456 0.55492 -0.38139
 C280 C 0.70048 0.53999 -0.28363
 C281 C 0.66566 0.54045 -0.24084
 C282 C 0.64618 0.51802 -0.15705
 H283 H 0.71213 0.52444 -0.23763
 H284 H 0.65481 0.55781 -0.28152
 H285 H 0.69898 0.56696 -0.42627
 H286 H 0.65636 0.49959 -0.11951
 C287 C 0.80685 0.29975 -0.35016
 C288 C 0.82757 0.33831 -0.36658
 C289 C 0.85248 0.36491 -0.27925
 C290 C 0.88461 0.39819 -0.30416
 H291 H 0.82725 0.35096 -0.44390
 H292 H 0.84697 0.35565 -0.19552
 H293 H 0.80601 0.29007 -0.26738
 H294 H 0.89201 0.40533 -0.38856
 C295 C 0.53183 -0.16930 -0.40135
 C296 C 0.53956 -0.15803 -0.29685
 C297 C 0.53802 -0.12321 -0.25864
 C298 C 0.53082 -0.11948 -0.15503
 H299 H 0.54504 -0.17486 -0.23696
 H300 H 0.54051 -0.10153 -0.31698
 H301 H 0.52313 -0.15224 -0.45146
 H302 H 0.52510 -0.14275 -0.09872
 C303 C 0.28663 0.46378 -0.35809
 C304 C 0.32556 0.48228 -0.37361
 C305 C 0.35274 0.48611 -0.28423
 C306 C 0.38972 0.49540 -0.30511
 H307 H 0.33802 0.49579 -0.45009
 H308 H 0.34188 0.47861 -0.20234
 H309 H 0.27699 0.45448 -0.27588
 H310 H 0.39952 0.49958 -0.38827
 C311 C 1.16975 0.69965 -0.38984
 C312 C 1.17253 0.68258 -0.29867
 C313 C 1.13686 0.65057 -0.25092
 C314 C 1.13813 0.63064 -0.16429
 H315 H 1.20093 0.69188 -0.25994
 H316 H 1.10870 0.64289 -0.28908
 H317 H 1.14111 0.68862 -0.42886
 H318 H 1.16623 0.63740 -0.12765
 C319 C 0.82628 0.53273 -0.35199
 C320 C 0.84006 0.50884 -0.38052
 C321 C 0.86511 0.50086 -0.30645
 C322 C 0.89550 0.52988 -0.25358
 H323 H 0.83098 0.49278 -0.45628
 H324 H 0.86094 0.47155 -0.30377
 H325 H 0.82994 0.54198 -0.26780
 H326 H 0.90233 0.55978 -0.26677
 C327 C 0.46689 0.29916 -0.41430
 C328 C 0.48815 0.31773 -0.32551
 C329 C 0.48844 0.35306 -0.28577
 C330 C 0.51110 0.37363 -0.20152
 H331 H 0.50592 0.30786 -0.28236
 H332 H 0.46882 0.36171 -0.32459
 H333 H 0.45273 0.31298 -0.45769
 H334 H 0.53106 0.36527 -0.16345
 C335 C 0.70202 0.16544 -0.41412
 C336 C 0.67694 0.16326 -0.33846
 C337 C 0.64607 0.12554 -0.29686
 C338 C 0.61848 0.12490 -0.23277
 H339 H 0.67854 0.18994 -0.30869
 H340 H 0.64619 0.09881 -0.31723
 H341 H 0.69911 0.13883 -0.44860
 H342 H 0.61904 0.15215 -0.21472
 C343 C 1.15879 0.45182 -0.41039
 C344 C 1.15886 0.46581 -0.31160
 C345 C 1.12329 0.46463 -0.26951
 C346 C 1.12602 0.48666 -0.18440
 H347 H 1.18606 0.48184 -0.26529
 H348 H 1.09526 0.44718 -0.31112
 H349 H 1.13130 0.43890 -0.45599
 H350 H 1.15443 0.50466 -0.14513
 C351 C 0.55331 0.71767 -0.36181
 C352 C 0.52509 0.68191 -0.33615
 C353 C 0.53271 0.65480 -0.27218
 C354 C 0.50207 0.62247 -0.23507
 H355 H 0.49525 0.67197 -0.36583
 H356 H 0.56266 0.66093 -0.25632
 H357 H 0.58291 0.72947 -0.32871
 H358 H 0.47252 0.61812 -0.24718
 C359 C 0.29107 -0.17319 -0.34553
 C360 C 0.31645 -0.17748 -0.28133
 C361 C 0.34726 -0.14304 -0.22487
 C362 C 0.37774 -0.14282 -0.17336
 H363 H 0.31628 -0.20508 -0.27783
 H364 H 0.34602 -0.11616 -0.23112
 H365 H 0.29266 -0.14497 -0.35203
 H366 H 0.37901 -0.16953 -0.16327
 C367 C 0.50372 -0.19348 0.37274
 C368 C 0.52854 -0.15706 0.34288
 C369 C 0.51576 -0.13501 0.27312
 C370 C 0.53893 -0.09659 0.26413
 H371 H 0.55861 -0.14276 0.37428
 H372 H 0.48716 -0.14973 0.23279
 H373 H 0.47410 -0.20877 0.33864
 H374 H 0.56678 -0.08236 0.30848
 C375 C 0.29278 0.45394 0.39933
 C376 C 0.31036 0.47134 0.30722
 C377 C 0.34259 0.46651 0.26185
 C378 C 0.36146 0.48643 0.17394
 H379 H 0.30201 0.49069 0.26675
 H380 H 0.35172 0.44775 0.30237
 H381 H 0.30255 0.43593 0.44133
 H382 H 0.35243 0.50570 0.13600
 C383 C 1.17280 0.71192 0.37209
 C384 C 1.16066 0.67379 0.36728
 C385 C 1.12662 0.64715 0.29914
 C386 C 1.12239 0.61287 0.26798
 H387 H 1.17612 0.66207 0.41438
 H388 H 1.10547 0.65590 0.27256
 H389 H 1.15935 0.72421 0.31921
 H390 H 1.14530 0.60575 0.28811
 C391 C 0.44474 0.15439 0.41150
 C392 C 0.45979 0.15326 0.31555
 C393 C 0.45656 0.11701 0.27051
 C394 C 0.47564 0.11841 0.17976
 H395 H 0.47697 0.18027 0.27201
 H396 H 0.44044 0.08986 0.31408
 H397 H 0.42839 0.12777 0.45716
 H398 H 0.49233 0.14614 0.13913
 C399 C 0.72335 0.56341 0.38324
 C400 C 0.68601 0.53502 0.37112
 C401 C 0.65710 0.53954 0.30336
 C402 C 0.62493 0.50777 0.26713
 H403 H 0.67661 0.50746 0.41186
 H404 H 0.66238 0.56837 0.28143
 H405 H 0.73414 0.59023 0.33792
 H406 H 0.62175 0.47927 0.28321
 C407 C 0.82550 0.30794 0.40726
 C408 C 0.82509 0.32478 0.31325
 C409 C 0.86206 0.35553 0.26675
 C410 C 0.86218 0.37442 0.17631
 H411 H 0.79743 0.31597 0.27068
 H412 H 0.88966 0.36292 0.30783
 H413 H 0.85330 0.31798 0.45033
 H414 H 0.83449 0.36770 0.13700
   
