data_POSCAR
  _audit_creation_date              2014-09-24
  _audit_creation_method            'ToBaCCo'
  _symmetry_space_group_name_H-M    'P1'
  _symmetry_Int_Tables_number       1
  _symmetry_cell_setting            triclinic
  loop_
  _symmetry_equiv_pos_as_xyz
 x,y,z
_cell_length_a 36.2748
_cell_length_b 35.7906
_cell_length_c 36.2941
_cell_angle_alpha 89.911900
_cell_angle_beta 89.980500
_cell_angle_gamma 90.028500
loop_
  _atom_site_label
  _atom_site_type_symbol
  _atom_site_fract_x
  _atom_site_fract_y
  _atom_site_fract_z
N1 N 0.58230 0.68398 0.60903
 N2 N 0.56789 0.66870 0.63872
 C3 C 0.53793 0.68844 0.64885
 C4 C 0.53359 0.71739 0.62417
 C5 C 0.56204 0.71392 0.59925
 H6 H 0.52056 0.68231 0.67232
 H7 H 0.56756 0.73179 0.57584
 Cu8 Cu 0.58978 0.62455 0.66110
 Cu9 Cu 0.62619 0.66398 0.58527
 Cu10 Cu 0.66565 0.58526 0.62478
 N11 N 0.61212 0.58040 0.68304
 N12 N 0.64184 0.56517 0.66866
 C13 C 0.65159 0.53521 0.68891
 C14 C 0.62662 0.53170 0.71731
 C15 C 0.60192 0.56062 0.71299
 H16 H 0.67501 0.51737 0.68340
 H17 H 0.57842 0.56670 0.73031
 N18 N 0.68566 0.60967 0.58035
 N19 N 0.67063 0.63965 0.56530
 C20 C 0.69051 0.64960 0.53547
 C21 C 0.71919 0.62470 0.53180
 C22 C 0.71549 0.59977 0.56049
 H23 H 0.68464 0.67314 0.51771
 H24 H 0.73323 0.57623 0.56637
 H25 H 0.61895 0.60939 0.60246
 H26 H 0.64848 0.63982 0.63197
 N27 N 0.91876 0.31549 0.10849
 N28 N 0.93317 0.33072 0.13817
 C29 C 0.96305 0.31089 0.14841
 C30 C 0.96729 0.28194 0.12378
 C31 C 0.93892 0.28548 0.09880
 H32 H 0.98039 0.31695 0.17190
 H33 H 0.93337 0.26764 0.07542
 Cu34 Cu 0.91136 0.37492 0.16041
 Cu35 Cu 0.87497 0.33564 0.08463
 Cu36 Cu 0.83568 0.41447 0.12390
 N37 N 0.88911 0.41913 0.18220
 N38 N 0.85947 0.43445 0.16775
 C39 C 0.84977 0.46441 0.18794
 C40 C 0.87467 0.46786 0.21639
 C41 C 0.89927 0.43886 0.21213
 H42 H 0.82641 0.48232 0.18239
 H43 H 0.92270 0.43271 0.22952
 N44 N 0.81567 0.39014 0.07951
 N45 N 0.83064 0.36012 0.06455
 C46 C 0.81077 0.35023 0.03475
 C47 C 0.78216 0.37521 0.03099
 C48 C 0.78589 0.40013 0.05961
 H49 H 0.81657 0.32666 0.01707
 H50 H 0.76820 0.42370 0.06542
 H51 H 0.88235 0.39020 0.10170
 H52 H 0.85267 0.35985 0.13125
 N53 N 0.41779 0.18477 -0.10891
 N54 N 0.43224 0.16945 -0.13852
 C55 C 0.46222 0.18919 -0.14869
 C56 C 0.46653 0.21819 -0.12413
 C57 C 0.43804 0.21474 -0.09925
 H58 H 0.47962 0.18305 -0.17212
 H59 H 0.43249 0.23265 -0.07593
 Cu60 Cu 0.41036 0.12527 -0.16074
 Cu61 Cu 0.37385 0.16478 -0.08514
 Cu62 Cu 0.33442 0.08599 -0.12438
 N63 N 0.38803 0.08108 -0.18252
 N64 N 0.35829 0.06586 -0.16812
 C65 C 0.34857 0.03587 -0.18828
 C66 C 0.37356 0.03230 -0.21664
 C67 C 0.39824 0.06125 -0.21236
 H68 H 0.32513 0.01803 -0.18275
 H69 H 0.42176 0.06731 -0.22969
 N70 N 0.31434 0.11045 -0.08009
 N71 N 0.32936 0.14046 -0.06514
 C72 C 0.30944 0.15043 -0.03539
 C73 C 0.28074 0.12552 -0.03165
 C74 C 0.28448 0.10055 -0.06023
 H75 H 0.31529 0.17399 -0.01771
 H76 H 0.26674 0.07699 -0.06603
 H77 H 0.38109 0.11017 -0.10208
 H78 H 0.35162 0.14055 -0.13177
 N79 N 0.08118 0.81499 0.39141
 N80 N 0.06676 0.83030 0.36175
 C81 C 0.03686 0.81048 0.35153
 C82 C 0.03263 0.78145 0.37616
 C83 C 0.06102 0.78493 0.40112
 H84 H 0.01951 0.81661 0.32805
 H85 H 0.06659 0.76701 0.42449
 Cu86 Cu 0.08854 0.87460 0.33950
 Cu87 Cu 0.12500 0.83509 0.41524
 Cu88 Cu 0.16426 0.91409 0.37595
 N89 N 0.11078 0.91891 0.31771
 N90 N 0.14043 0.93421 0.33214
 C91 C 0.15010 0.96426 0.31196
 C92 C 0.12517 0.96779 0.28354
 C93 C 0.10058 0.93874 0.28781
 H94 H 0.17345 0.98218 0.31750
 H95 H 0.07713 0.93263 0.27044
 N96 N 0.18432 0.88962 0.42031
 N97 N 0.16936 0.85954 0.43528
 C98 C 0.18926 0.84956 0.46506
 C99 C 0.21788 0.87455 0.46879
 C100 C 0.21412 0.89956 0.44018
 H101 H 0.18347 0.82593 0.48274
 H102 H 0.23181 0.92317 0.43436
 H103 H 0.11762 0.88971 0.39820
 H104 H 0.14726 0.85948 0.36861
 C105 C 0.09720 0.15224 0.12504
 N106 N 0.12363 0.15221 0.09857
 C107 C 0.15026 0.12558 0.09878
 N108 N 0.15044 0.09898 0.12546
 C109 C 0.12401 0.09900 0.15193
 N110 N 0.09739 0.12563 0.15172
 C111 C 0.40170 0.84811 0.62518
 N112 N 0.37521 0.84805 0.59878
 C113 C 0.34850 0.87458 0.59901
 N114 N 0.34828 0.90117 0.62563
 C115 C 0.37476 0.90122 0.65202
 N116 N 0.40147 0.87469 0.65179
 C117 C 0.90264 0.65171 0.37497
 N118 N 0.87622 0.65161 0.40145
 C119 C 0.84956 0.62499 0.40126
 N120 N 0.84933 0.59847 0.37457
 C121 C 0.87575 0.59857 0.34809
 N122 N 0.90240 0.62519 0.34829
 C123 C 0.59843 0.34903 -0.12546
 N124 N 0.59869 0.37564 -0.15214
 C125 C 0.62542 0.40218 -0.15242
 N126 N 0.65189 0.40211 -0.12601
 C127 C 0.65164 0.37551 -0.09932
 N128 N 0.62491 0.34897 -0.09905
 C129 C -0.00600 0.25531 0.12408
 C130 C 0.01767 0.23169 0.12432
 C131 C 0.04538 0.20402 0.12459
 C132 C 0.06904 0.18039 0.12480
 C133 C 0.50526 0.74541 0.62436
 C134 C 0.48150 0.76894 0.62453
 C135 C 0.45369 0.79650 0.62474
 C136 C 0.42996 0.82006 0.62493
 C137 C 1.00591 0.75481 0.37587
 C138 C 0.98223 0.73117 0.37564
 C139 C 0.95450 0.70350 0.37538
 C140 C 0.93083 0.67986 0.37519
 C141 C 0.49485 0.24625 -0.12445
 C142 C 0.51861 0.26980 -0.12470
 C143 C 0.54642 0.29739 -0.12497
 C144 C 0.57017 0.32096 -0.12519
 C145 C 0.12488 -0.00406 0.25529
 C146 C 0.12465 0.01957 0.23159
 C147 C 0.12440 0.04724 0.20384
 C148 C 0.12421 0.07087 0.18015
 C149 C 0.62636 0.50512 -0.25590
 C150 C 0.62615 0.48154 -0.23215
 C151 C 0.62591 0.45391 -0.20436
 C152 C 0.62569 0.43030 -0.18064
 C153 C 0.37383 1.00420 0.75515
 C154 C 0.37404 0.98060 0.73150
 C155 C 0.37430 0.95295 0.70381
 C156 C 0.37451 0.92933 0.68018
 C157 C 0.87491 0.49589 0.24467
 C158 C 0.87509 0.51941 0.26840
 C159 C 0.87530 0.54698 0.29617
 C160 C 0.87550 0.57052 0.31987
 C161 C 0.25272 0.12553 -0.00369
 C162 C 0.22921 0.12552 0.01979
 C163 C 0.20169 0.12553 0.04729
 C164 C 0.17821 0.12555 0.07079
 C165 C 0.74718 0.62472 0.50380
 C166 C 0.77066 0.62475 0.48030
 C167 C 0.79815 0.62481 0.45277
 C168 C 0.82162 0.62488 0.42926
 C169 C 0.75417 0.37524 0.00300
 C170 C 0.73068 0.37528 -0.02047
 C171 C 0.70316 0.37535 -0.04795
 C172 C 0.67965 0.37542 -0.07141
 C173 C 0.24590 0.87451 0.49674
 C174 C 0.26942 0.87450 0.52019
 C175 C 0.29696 0.87451 0.54765
 C176 C 0.32049 0.87453 0.57109
   
