data_POSCAR
  _audit_creation_date              2014-09-24
  _audit_creation_method            'ToBaCCo'
  _symmetry_space_group_name_H-M    'P1'
  _symmetry_Int_Tables_number       1
  _symmetry_cell_setting            triclinic
  loop_
  _symmetry_equiv_pos_as_xyz
 x,y,z
_cell_length_a 32.6361
_cell_length_b 32.4848
_cell_length_c 13.5566
_cell_angle_alpha 90.584300
_cell_angle_beta 90.351400
_cell_angle_gamma 119.752900
loop_
  _atom_site_label
  _atom_site_type_symbol
  _atom_site_fract_x
  _atom_site_fract_y
  _atom_site_fract_z
O1 O 0.16963 0.41613 0.43396
 O2 O 0.24914 0.40516 0.60479
 O3 O 0.18090 0.42333 0.63700
 O4 O 0.24769 0.41636 0.42515
 O5 O 0.29431 0.49423 0.43457
 O6 O 0.22483 0.50125 0.63882
 O7 O 0.29378 0.48326 0.61283
 O8 O 0.21280 0.49412 0.43385
 Cu9 Cu 0.20547 0.40816 0.52667
 Cu10 Cu 0.25847 0.50105 0.53001
 C11 C 0.17869 0.45565 0.39896
 C12 C 0.28620 0.44185 0.63443
 C13 C 0.19320 0.46345 0.67704
 C14 C 0.28405 0.45420 0.39765
 O15 O 0.58056 -0.24457 0.39691
 O16 O 0.55410 -0.18314 0.59590
 O17 O 0.55818 -0.26152 0.58180
 O18 O 0.57753 -0.16563 0.40745
 O19 O 0.50141 -0.20346 0.37028
 O20 O 0.48301 -0.29817 0.53677
 O21 O 0.47855 -0.22387 0.55339
 O22 O 0.50538 -0.28229 0.35205
 Cu23 Cu 0.57539 -0.20932 0.49919
 Cu24 Cu 0.48473 -0.25565 0.44694
 C25 C 0.54723 -0.27463 0.34200
 C26 C 0.51124 -0.19498 0.61077
 C27 C 0.51622 -0.29585 0.59002
 C28 C 0.54248 -0.16842 0.36002
 O29 O 1.22728 0.83300 0.40499
 O30 O 1.15324 0.75943 0.60672
 O31 O 1.22562 0.83817 0.60534
 O32 O 1.14227 0.75214 0.42666
 O33 O 1.18321 0.71469 0.41994
 O34 O 1.26904 0.80339 0.59760
 O35 O 1.19302 0.72066 0.60511
 O36 O 1.26664 0.79412 0.40264
 Cu37 Cu 1.18501 0.80122 0.50601
 Cu38 Cu 1.23282 0.75516 0.50476
 C39 C 1.25967 0.82650 0.36981
 C40 C 1.15991 0.72647 0.63832
 C41 C 1.26048 0.83446 0.63505
 C42 C 1.14627 0.71688 0.39915
 O43 O 0.82916 0.58321 0.39833
 O44 O 0.76015 0.58603 0.60798
 O45 O 0.84796 0.59991 0.58301
 O46 O 0.74287 0.56669 0.42266
 O47 O 0.71734 0.49244 0.46412
 O48 O 0.82407 0.52389 0.60541
 O49 O 0.74911 0.51610 0.65258
 O50 O 0.80772 0.50856 0.42935
 Cu51 Cu 0.79732 0.59170 0.50040
 Cu52 Cu 0.76937 0.50178 0.53644
 C53 C 0.83181 0.54622 0.38082
 C54 C 0.74436 0.55210 0.66818
 C55 C 0.85431 0.56720 0.61842
 C56 C 0.71110 0.52333 0.42098
 O57 O 0.41861 0.17593 0.56974
 O58 O 0.41804 0.26087 0.40130
 O59 O 0.41021 0.18119 0.38449
 O60 O 0.44671 0.26990 0.59112
 O61 O 0.52120 0.29401 0.55697
 O62 O 0.48581 0.20563 0.36022
 O63 O 0.49340 0.28816 0.36907
 O64 O 0.49486 0.20341 0.55000
 Cu65 Cu 0.41681 0.22085 0.49401
 Cu66 Cu 0.50626 0.25084 0.45737
 C67 C 0.45552 0.17366 0.58738
 C68 C 0.45424 0.28685 0.35172
 C69 C 0.44281 0.17917 0.33695
 C70 C 0.49070 0.29688 0.60884
 O71 O 0.83729 0.24030 0.57685
 O72 O 0.74945 0.15911 0.39664
 O73 O 0.82805 0.23657 0.38370
 O74 O 0.75855 0.15948 0.58481
 O75 O 0.71922 0.19833 0.59727
 O76 O 0.79170 0.27834 0.39615
 O77 O 0.71158 0.19961 0.40530
 O78 O 0.79906 0.28007 0.59187
 Cu79 Cu 0.79761 0.19538 0.48493
 Cu80 Cu 0.75185 0.24343 0.49969
 C81 C 0.83318 0.27372 0.61604
 C82 C 0.71575 0.16553 0.36979
 C83 C 0.82112 0.26945 0.35338
 C84 C 0.72610 0.16465 0.62344
 O85 O 0.99155 0.52472 -0.20476
 O86 O 1.03457 0.52998 0.22329
 O87 O 0.92872 0.51468 0.06643
 O88 O 1.06939 0.59369 -0.04713
 O89 O 0.95061 0.48935 0.19329
 O90 O 1.07569 0.55644 -0.16662
 O91 O 1.05045 0.58138 0.11443
 O92 O 0.92824 0.50424 -0.11727
 C93 C 0.95421 0.52549 -0.18826
 C94 C 1.04508 0.57128 0.20171
 C95 C 0.93366 0.51371 0.15694
 C96 C 1.07843 0.59342 -0.13403
 O97 O 1.05980 0.47100 -0.12262
 O98 O 0.95906 0.41343 0.11296
 O99 O 0.91458 0.41843 -0.09314
 O100 O 1.09493 0.52822 0.13568
 O101 O 1.04003 0.45693 0.13072
 O102 O 0.97622 0.43766 -0.18622
 O103 O 1.10968 0.53409 -0.03933
 O104 O 0.90228 0.42458 0.08701
 Co105 Co 1.02378 0.49726 -0.15278
 Co106 Co 0.99664 0.47447 0.15190
 Co107 Co 0.92722 0.46890 -0.01228
 Co108 Co 1.07490 0.55415 0.03754
 O109 O 1.00482 0.49821 0.00376
 C110 C 1.09980 0.49611 -0.08616
 C111 C 0.91640 0.39732 0.11348
 C112 C 0.93473 0.40933 -0.16172
 C113 C 1.08150 0.48554 0.15020
 O114 O 0.51197 0.45495 -0.19586
 O115 O 0.46006 0.50046 0.23150
 O116 O 0.52583 0.43311 0.09062
 O117 O 0.42111 0.47207 -0.07885
 O118 O 0.46312 0.43796 0.12237
 O119 O 0.46482 0.49686 -0.20784
 O120 O 0.42279 0.48028 0.09266
 O121 O 0.55662 0.44945 -0.08007
 C122 C 0.53206 0.43424 -0.15875
 C123 C 0.42101 0.48670 0.18382
 C124 C 0.48342 0.41397 0.11808
 C125 C 0.42527 0.47233 -0.16948
 O126 O 0.54212 0.57904 -0.17227
 O127 O 0.53225 0.49039 0.22945
 O128 O 0.61484 0.54062 -0.02453
 O129 O 0.48740 0.57569 0.07968
 O130 O 0.53822 0.56446 0.15699
 O131 O 0.58944 0.53500 -0.17346
 O132 O 0.47765 0.56523 -0.09953
 O133 O 0.58909 0.52703 0.13681
 Co134 Co 0.52613 0.51608 -0.17020
 Co135 Co 0.49965 0.50218 0.13488
 Co136 Co 0.56699 0.48895 0.02815
 Co137 Co 0.45811 0.52245 -0.00134
 O138 O 0.51579 0.50800 -0.00902
 C139 C 0.51039 0.58929 -0.15787
 C140 C 0.57522 0.50893 0.21852
 C141 C 0.62272 0.54556 -0.11368
 C142 C 0.52328 0.59145 0.13463
 O143 O 0.55636 0.03166 -0.19245
 O144 O 0.48744 -0.05082 0.17999
 O145 O 0.56322 0.09573 0.09681
 O146 O 0.45031 -0.10590 -0.08517
 O147 O 0.54458 0.03002 0.16599
 O148 O 0.51578 -0.05431 -0.14752
 O149 O 0.50377 -0.06958 0.04801
 O150 O 0.58989 0.08465 -0.07223
 C151 C 0.59230 0.06637 -0.15257
 C152 C 0.50857 -0.06807 0.13699
 C153 C 0.57385 0.07183 0.15151
 C154 C 0.48522 -0.09712 -0.13759
 O155 O 0.43162 -0.05892 -0.18602
 O156 O 0.47547 0.05261 0.14819
 O157 O 0.52165 0.09044 -0.15350
 O158 O 0.40980 -0.10501 0.09496
 O159 O 0.41769 -0.03457 0.13093
 O160 O 0.46987 0.02271 -0.21385
 O161 O 0.40139 -0.06297 -0.04457
 O162 O 0.48929 0.09352 0.01383
 Co163 Co 0.49408 -0.01321 -0.17113
 Co164 Co 0.48251 0.00031 0.13915
 Co165 Co 0.53655 0.08274 -0.02723
 Co166 Co 0.45341 -0.06325 0.00806
 O167 O 0.49458 0.00438 -0.01978
 C168 C 0.39604 -0.06873 -0.13546
 C169 C 0.47196 0.08304 0.09790
 C170 C 0.48722 0.06625 -0.20902
 C171 C 0.39465 -0.07958 0.14253
 N172 N 1.09953 0.42283 0.19252
 N173 N 1.12348 0.41458 0.26037
 C174 C 1.15007 0.45464 0.31330
 C175 C 1.14333 0.49069 0.27589
 C176 C 1.11030 0.46846 0.19971
 H177 H 1.15707 0.52632 0.30513
 H178 H 1.07445 0.39686 0.14513
 H179 H 1.12050 0.38144 0.27170
 N180 N 0.59197 0.66360 0.20358
 N181 N 0.59865 0.70162 0.26344
 C182 C 0.55638 0.69906 0.27300
 C183 C 0.52260 0.66117 0.21694
 C184 C 0.54610 0.63947 0.17661
 H185 H 0.48486 0.64759 0.21585
 H186 H 0.61731 0.65348 0.19111
 H187 H 0.62994 0.72437 0.30145
 N188 N 0.32375 -0.07881 0.20307
 N189 N 0.28805 -0.10354 0.26214
 C190 C 0.29026 -0.14170 0.29269
 C191 C 0.32887 -0.14172 0.24953
 C192 C 0.34926 -0.10086 0.19374
 H193 H 0.34209 -0.16588 0.26250
 H194 H 0.33121 -0.04656 0.17201
 H195 H 0.26383 -0.09321 0.28420
 N196 N 0.91509 0.57724 0.18763
 N197 N 0.88628 0.58463 0.24299
 C198 C 0.86544 0.54882 0.30686
 C199 C 0.88263 0.51771 0.29352
 C200 C 0.91423 0.53734 0.21698
 H201 H 0.87186 0.48451 0.33030
 H202 H 0.93376 0.59837 0.12827
 H203 H 0.88029 0.61319 0.23522
 N204 N 0.41430 0.34224 0.18005
 N205 N 0.40705 0.30989 0.24612
 C206 C 0.44890 0.31403 0.27201
 C207 C 0.48430 0.34972 0.21823
 C208 C 0.46078 0.36710 0.16171
 H209 H 0.52202 0.36454 0.22752
 H210 H 0.38825 0.34920 0.15352
 H211 H 0.37418 0.28703 0.27637
 N212 N 0.64191 0.06644 0.21419
 N213 N 0.67919 0.09093 0.27170
 C214 C 0.68111 0.13193 0.29808
 C215 C 0.64378 0.13418 0.25367
 C216 C 0.61977 0.09164 0.20139
 H217 H 0.63391 0.16124 0.26300
 H218 H 0.63118 0.03242 0.18633
 H219 H 0.70181 0.07878 0.29524
 N220 N 0.41831 0.06920 -0.27401
 N221 N 0.40951 0.10032 -0.32762
 C222 C 0.45151 0.13713 -0.35342
 C223 C 0.48786 0.13113 -0.31530
 C224 C 0.46536 0.08828 -0.26611
 H225 H 0.52547 0.15460 -0.32241
 H226 H 0.39249 0.03757 -0.24344
 H227 H 0.37593 0.09451 -0.34630
 N228 N 0.69438 0.53949 -0.09620
 N229 N 0.72607 0.53694 -0.16046
 C230 C 0.72193 0.55415 -0.24722
 C231 C 0.68712 0.56696 -0.24186
 C232 C 0.66952 0.55552 -0.14684
 H233 H 0.67218 0.57674 -0.30265
 H234 H 0.68739 0.52509 -0.02582
 H235 H 0.74757 0.52248 -0.14378
 N236 N 0.93345 0.33759 -0.22676
 N237 N 0.90533 0.29999 -0.29052
 C238 C 0.86708 0.30353 -0.31459
 C239 C 0.86922 0.34242 -0.26498
 C240 C 0.91144 0.36276 -0.21140
 H241 H 0.84508 0.35604 -0.27230
 H242 H 0.96693 0.34585 -0.20092
 H243 H 0.91441 0.27546 -0.31796
 N244 N 0.45286 -0.18147 -0.18127
 N245 N 0.45906 -0.20700 -0.24935
 C246 C 0.49766 -0.17839 -0.30132
 C247 C 0.51733 -0.13233 -0.26464
 C248 C 0.48715 -0.13596 -0.18909
 H249 H 0.54649 -0.10050 -0.29412
 H250 H 0.42414 -0.19478 -0.13373
 H251 H 0.43632 -0.24323 -0.26178
 N252 N 0.35184 0.40179 -0.22639
 N253 N 0.31177 0.39365 -0.27947
 C254 C 0.31904 0.43596 -0.31120
 C255 C 0.36356 0.47138 -0.28214
 C256 C 0.38280 0.44848 -0.23009
 H257 H 0.37918 0.50909 -0.29377
 H258 H 0.35549 0.37631 -0.18698
 H259 H 0.28141 0.36059 -0.28899
 N260 N 1.07321 0.66368 -0.18190
 N261 N 1.09642 0.70150 -0.24572
 C262 C 1.12966 0.69570 -0.29192
 C263 C 1.12786 0.65417 -0.26133
 C264 C 1.09211 0.63537 -0.19304
 H265 H 1.15000 0.63983 -0.28460
 H266 H 1.04614 0.65883 -0.13439
 H267 H 1.08919 0.72923 -0.25373
 N268 N 0.96705 0.58484 -0.31904
 N269 N 0.94066 0.59909 -0.36598
 C270 C 0.89710 0.57737 -0.32690
 C271 C 0.89612 0.54874 -0.25141
 C272 C 0.94051 0.55366 -0.24985
 H273 H 0.86546 0.52304 -0.21180
 H274 H 1.00157 0.59429 -0.33797
 H275 H 0.95091 0.61941 -0.42977
 N276 N 0.55514 0.37293 -0.18756
 N277 N 0.54404 0.33688 -0.24856
 C278 C 0.50792 0.33068 -0.30736
 C279 C 0.49569 0.36481 -0.28352
 C280 C 0.52694 0.39115 -0.20733
 H281 H 0.46969 0.37113 -0.31958
 H282 H 0.58270 0.38573 -0.13570
 H283 H 0.56167 0.31744 -0.25108
 N284 N 0.65905 0.06205 -0.22904
 N285 N 0.69441 0.08826 -0.28806
 C286 C 0.69541 0.12972 -0.30348
 C287 C 0.65948 0.13021 -0.25027
 C288 C 0.63744 0.08664 -0.20396
 H289 H 0.64867 0.15678 -0.25102
 H290 H 0.64898 0.02733 -0.20928
 H291 H 0.71595 0.07682 -0.32097
 N292 N 1.12928 0.44000 -0.09766
 N293 N 1.15092 0.42922 -0.16673
 C294 C 1.17131 0.46554 -0.22959
 C295 C 1.16308 0.50148 -0.19767
 C296 C 1.13559 0.48363 -0.11401
 H297 H 1.16969 0.53270 -0.23819
 H298 H 1.10648 0.41587 -0.04629
 H299 H 1.14920 0.39635 -0.17381
 N300 N 0.45791 0.61201 -0.23898
 N301 N 0.45884 0.64131 -0.31336
 C302 C 0.50406 0.66907 -0.33955
 C303 C 0.53313 0.65736 -0.28392
 C304 C 0.50230 0.62085 -0.22247
 H305 H 0.57090 0.67212 -0.28965
 H306 H 0.42706 0.58586 -0.20669
 H307 H 0.42909 0.64185 -0.34059
 N308 N 0.31126 -0.09048 -0.15113
 N309 N 0.27585 -0.11529 -0.21357
 C310 C 0.29064 -0.13401 -0.28482
 C311 C 0.33752 -0.12011 -0.26790
 C312 C 0.34926 -0.09241 -0.18276
 H313 H 0.35990 -0.12906 -0.31102
 H314 H 0.30940 -0.07233 -0.08882
 H315 H 0.24197 -0.11990 -0.20638
 N316 N 0.57402 -0.08573 0.16381
 N317 N 0.58409 -0.11070 0.22604
 C318 C 0.54860 -0.13144 0.29077
 C319 C 0.51494 -0.11860 0.26998
 C320 C 0.53238 -0.08971 0.18914
 H321 H 0.48137 -0.13049 0.30555
 H322 H 0.59510 -0.06674 0.10472
 H323 H 0.61356 -0.11519 0.22109
 N324 N 0.33710 0.42541 0.19909
 N325 N 0.30082 0.41654 0.25523
 C326 C 0.31503 0.45138 0.32363
 C327 C 0.36270 0.48346 0.31212
 C328 C 0.37518 0.46546 0.23223
 H329 H 0.38473 0.51557 0.35439
 H330 H 0.33568 0.40432 0.13901
 H331 H 0.26685 0.38763 0.24540
 N332 N 1.03768 0.63661 0.27646
 N333 N 1.06618 0.67703 0.32242
 C334 C 1.10615 0.67712 0.34781
 C335 C 1.10241 0.63432 0.31892
 C336 C 1.05820 0.60947 0.27418
 H337 H 1.12950 0.62435 0.32233
 H338 H 1.00617 0.62923 0.24151
 H339 H 1.05894 0.70470 0.33257
 N340 N 0.43329 0.13313 0.09522
 N341 N 0.42255 0.15656 0.16107
 C342 C 0.43212 0.14702 0.25223
 C343 C 0.44941 0.11601 0.24374
 C344 C 0.44988 0.10829 0.14345
 H345 H 0.46516 0.10543 0.30154
 H346 H 0.43179 0.13634 0.01888
 H347 H 0.41318 0.18204 0.14329
 N348 N 0.58887 0.46873 0.35749
 N349 N 0.62480 0.47106 0.40727
 C350 C 0.66491 0.50836 0.37536
 C351 C 0.65424 0.53075 0.30111
 C352 C 0.60547 0.50421 0.29225
 H353 H 0.67830 0.56146 0.25940
 H354 H 0.55370 0.44256 0.36674
 H355 H 0.62163 0.44785 0.46330
 N356 N 0.89527 0.31453 0.14294
 N357 N 0.87169 0.28172 0.20874
 C358 C 0.84734 0.29598 0.26600
 C359 C 0.85510 0.33980 0.23356
 C360 C 0.88620 0.35036 0.15551
 H361 H 0.84390 0.36270 0.26809
 H362 H 0.91932 0.31352 0.09381
 H363 H 0.87390 0.25092 0.21660
   
