data_POSCAR
  _audit_creation_date              2014-09-24
  _audit_creation_method            'ToBaCCo'
  _symmetry_space_group_name_H-M    'P1'
  _symmetry_Int_Tables_number       1
  _symmetry_cell_setting            triclinic
  loop_
  _symmetry_equiv_pos_as_xyz
 x,y,z
_cell_length_a 52.2921
_cell_length_b 52.2907
_cell_length_c 52.2383
_cell_angle_alpha 89.923800
_cell_angle_beta 89.929200
_cell_angle_gamma 89.909100
loop_
  _atom_site_label
  _atom_site_type_symbol
  _atom_site_fract_x
  _atom_site_fract_y
  _atom_site_fract_z
C1 C 0.16973 0.16866 0.20265
 C2 C 0.15878 0.19056 0.19167
 C3 C 0.16970 0.20151 0.16975
 C4 C 0.19160 0.19058 0.15879
 C5 C 0.20260 0.16868 0.16973
 C6 C 0.19165 0.15773 0.19167
 H7 H 0.14183 0.19910 0.20012
 H8 H 0.20002 0.19913 0.14183
 H9 H 0.20016 0.14078 0.20017
 C10 C -0.16917 0.83084 0.20352
 C11 C -0.15825 0.80894 0.19251
 C12 C -0.16920 0.79808 0.17061
 C13 C -0.19105 0.80910 0.15970
 C14 C -0.20199 0.83097 0.17067
 C15 C -0.19106 0.84184 0.19257
 H16 H -0.14133 0.80035 0.20093
 H17 H -0.19953 0.80068 0.14276
 H18 H -0.19959 0.85877 0.20103
 C19 C -0.16919 0.16958 -0.20316
 C20 C -0.19104 0.15865 -0.19210
 C21 C -0.20201 0.16965 -0.17023
 C22 C -0.19113 0.19158 -0.15942
 C23 C -0.16930 0.20252 -0.17044
 C24 C -0.15833 0.19153 -0.19230
 H25 H -0.19952 0.14167 -0.20044
 H26 H -0.19963 0.20010 -0.14250
 H27 H -0.14142 0.20006 -0.20081
 C28 C 0.16955 0.83087 -0.20277
 C29 C 0.15864 0.80900 -0.19173
 C30 C 0.16959 0.79807 -0.16982
 C31 C 0.19145 0.80901 -0.15894
 C32 C 0.20238 0.83086 -0.16994
 C33 C 0.19143 0.84179 -0.19185
 H34 H 0.14172 0.80046 -0.20013
 H35 H 0.19994 0.80054 -0.14198
 H36 H 0.19995 0.85871 -0.20033
 C37 C 0.16926 1.16939 0.79623
 C38 C 0.15828 1.19126 0.80724
 C39 C 0.16921 1.20216 0.82913
 C40 C 0.19111 1.19121 0.84002
 C41 C 0.20211 1.16937 0.82905
 C42 C 0.19119 1.15846 0.80716
 H43 H 0.14132 1.19979 0.79883
 H44 H 0.19958 1.19966 0.85695
 H45 H 0.19976 1.14155 0.79869
 C46 C 0.83148 0.83048 0.79765
 C47 C 0.80958 0.84143 0.80863
 C48 C 0.79864 0.83052 0.83056
 C49 C 0.80959 0.80864 0.84154
 C50 C 0.83149 0.79764 0.83060
 C51 C 0.84243 0.80857 0.80865
 H52 H 0.80104 0.85837 0.80017
 H53 H 0.80105 0.80022 0.85851
 H54 H 0.85938 0.80007 0.80016
 C55 C 0.16892 0.83039 1.20277
 C56 C 0.15800 0.80853 1.19178
 C57 C 0.16896 0.79763 1.16986
 C58 C 0.19084 0.80857 1.15892
 C59 C 0.20178 0.83040 1.16988
 C60 C 0.19082 0.84131 1.19180
 H61 H 0.14107 0.80000 1.20022
 H62 H 0.19933 0.80012 1.14197
 H63 H 0.19935 0.85820 1.20025
 C64 C 0.83019 1.16917 1.20320
 C65 C 0.80834 1.15823 1.19220
 C66 C 0.79745 1.16917 1.17027
 C67 C 0.80839 1.19104 1.15932
 C68 C 0.83021 1.20199 1.17027
 C69 C 0.84111 1.19106 1.19220
 H70 H 0.79981 1.14130 1.20065
 H71 H 0.79994 1.19952 1.14235
 H72 H 0.85801 1.19959 1.20066
 N73 N 0.47322 0.95477 0.97249
 N74 N 0.45385 0.93894 0.96924
 N75 N 0.52707 0.97255 0.95480
 N76 N 0.54655 0.96932 0.93902
 N77 N 0.52704 0.95479 0.97261
 N78 N 0.54650 0.93897 0.96945
 N79 N 0.47325 0.97252 0.95467
 N80 N 0.45391 0.96928 0.93880
 C81 C 0.44208 0.94828 0.94817
 C82 C 0.55838 0.94833 0.94845
 N83 N 0.52685 1.04542 0.97245
 N84 N 0.54624 1.06125 0.96923
 N85 N 0.47314 1.02761 0.95457
 N86 N 0.45382 1.03084 0.93864
 N87 N 0.47303 1.04538 0.97232
 N88 N 0.45363 1.06121 0.96897
 N89 N 0.52696 1.02764 0.95470
 N90 N 0.54642 1.03087 0.93891
 Mn91 Mn 0.50011 1.00008 0.95438
 C92 C 0.55817 1.05189 0.94826
 C93 C 0.44193 1.05186 0.94791
 N94 N 0.52685 0.95481 1.02775
 N95 N 0.54629 0.93900 1.03104
 N96 N 0.47294 0.97255 1.04538
 N97 N 0.45349 0.96931 1.06120
 N98 N 0.47303 0.95479 1.02763
 N99 N 0.45365 0.93895 1.03087
 N100 N 0.52676 0.97258 1.04549
 N101 N 0.54614 0.96938 1.06137
 Mn102 Mn 0.50004 0.95448 1.00012
 C103 C 0.55803 0.94838 1.05206
 C104 C 0.44175 0.94830 1.05185
 N105 N 0.47283 1.04540 1.02747
 N106 N 0.45340 1.06123 1.03067
 N107 N 0.52664 1.02767 1.04539
 N108 N 0.54604 1.03088 1.06122
 N109 N 0.52666 1.04543 1.02759
 N110 N 0.54606 1.06123 1.03079
 N111 N 0.47282 1.02764 1.04529
 N112 N 0.45338 1.03089 1.06111
 Mn113 Mn 0.49984 1.04571 0.99996
 Mn114 Mn 0.49979 1.00011 1.04570
 Cl115 Cl 0.49994 1.00010 1.00004
 C116 C 0.44154 1.05188 1.05170
 C117 C 0.55786 1.05187 1.05183
 N118 N 0.04510 0.47307 -0.02769
 N119 N 0.06092 0.45365 -0.03100
 N120 N 0.02737 0.52699 -0.04534
 N121 N 0.03063 0.54645 -0.06113
 N122 N 0.04512 0.52688 -0.02757
 N123 N 0.06096 0.54627 -0.03076
 N124 N 0.02735 0.47317 -0.04547
 N125 N 0.03060 0.45383 -0.06137
 C126 C 0.05159 0.44193 -0.05205
 C127 C 0.05162 0.55819 -0.05175
 N128 N -0.04550 0.52708 -0.02756
 N129 N -0.06134 0.54650 -0.03078
 N130 N -0.02774 0.47329 -0.04546
 N131 N -0.03099 0.45399 -0.06139
 N132 N -0.04552 0.47325 -0.02768
 N133 N -0.06139 0.45393 -0.03101
 N134 N -0.02771 0.52710 -0.04534
 N135 N -0.03094 0.54654 -0.06117
 Mn136 Mn -0.00018 0.50014 -0.04571
 C137 C -0.05197 0.55836 -0.05180
 C138 C -0.05203 0.44219 -0.05208
 N139 N 0.04507 0.52669 0.02757
 N140 N 0.06087 0.54609 0.03082
 N141 N 0.02726 0.47284 0.04524
 N142 N 0.03049 0.45339 0.06106
 N143 N 0.04505 0.47287 0.02746
 N144 N 0.06088 0.45344 0.03067
 N145 N 0.02729 0.52667 0.04536
 N146 N 0.03048 0.54605 0.06121
 Mn147 Mn 0.04539 0.49988 -0.00006
 C148 C 0.05149 0.55787 0.05186
 C149 C 0.05151 0.44157 0.05168
 N150 N -0.04557 0.47306 0.02747
 N151 N -0.06141 0.45367 0.03068
 N152 N -0.02780 0.52678 0.04536
 N153 N -0.03101 0.54615 0.06123
 N154 N -0.04555 0.52688 0.02759
 N155 N -0.06134 0.54633 0.03086
 N156 N -0.02782 0.47296 0.04524
 N157 N -0.03108 0.45351 0.06105
 Mn158 Mn -0.04584 0.50007 -0.00004
 Mn159 Mn -0.00027 0.49981 0.04561
 Cl160 Cl -0.00023 0.49997 -0.00005
 C161 C -0.05208 0.44177 0.05168
 C162 C -0.05199 0.55807 0.05190
 N163 N 0.95477 0.02742 0.52696
 N164 N 0.93896 0.03070 0.54640
 N165 N 0.97246 0.04507 0.47298
 N166 N 0.96913 0.06093 0.45358
 N167 N 0.95471 0.02732 0.47308
 N168 N 0.93881 0.03059 0.45374
 N169 N 0.97251 0.04517 0.52686
 N170 N 0.96927 0.06104 0.54623
 C171 C 0.94830 0.05172 0.55815
 C172 C 0.94810 0.05160 0.44185
 N173 N 1.04533 0.02728 0.47289
 N174 N 1.06118 0.03050 0.45346
 N175 N 1.02760 0.04515 0.52674
 N176 N 1.03085 0.06103 0.54608
 N177 N 1.04538 0.02738 0.52676
 N178 N 1.06123 0.03066 0.54612
 N179 N 1.02754 0.04504 0.47286
 N180 N 1.03078 0.06087 0.45342
 Mn181 Mn 1.00003 0.04541 0.49986
 C182 C 1.05181 0.05151 0.44159
 C183 C 1.05188 0.05170 0.55790
 N184 N 0.95478 -0.02777 0.47326
 N185 N 0.93893 -0.03105 0.45389
 N186 N 0.97261 -0.04545 0.52714
 N187 N 0.96940 -0.06125 0.54661
 N188 N 0.95483 -0.02767 0.52713
 N189 N 0.93901 -0.03089 0.54659
 N190 N 0.97256 -0.04554 0.47327
 N191 N 0.96932 -0.06142 0.45392
 Mn192 Mn 0.95447 -0.00018 0.50011
 C193 C 0.94829 -0.05209 0.44211
 C194 C 0.94839 -0.05188 0.55846
 N195 N 1.04544 -0.02771 0.52694
 N196 N 1.06129 -0.03092 0.54635
 N197 N 1.02765 -0.04557 0.47315
 N198 N 1.03089 -0.06143 0.45377
 N199 N 1.04540 -0.02781 0.47306
 N200 N 1.06122 -0.03110 0.45362
 N201 N 1.02770 -0.04547 0.52703
 N202 N 1.03097 -0.06127 0.54649
 Mn203 Mn 1.04569 -0.00022 0.49991
 Mn204 Mn 1.00013 -0.04581 0.50015
 Cl205 Cl 1.00008 -0.00020 0.50001
 C206 C 1.05197 -0.05191 0.55826
 C207 C 1.05188 -0.05212 0.44187
 C208 C 1.15913 0.15806 0.22399
 C209 C 1.14973 0.14869 0.24288
 C210 C 1.13852 0.13755 0.26545
 C211 C 1.15135 0.11808 0.27863
 C212 C 1.14049 0.10727 0.30058
 C213 C 1.11662 0.11583 0.30966
 C214 C 1.10387 0.13542 0.29625
 C215 C 1.11476 0.14618 0.27429
 C216 C 1.10509 0.10442 0.33302
 C217 C 1.09252 0.11995 0.35109
 C218 C 1.08169 0.10919 0.37308
 C219 C 1.08326 0.08281 0.37731
 C220 C 1.09569 0.06719 0.35946
 C221 C 1.10655 0.07790 0.33746
 C222 C 1.07214 0.07176 0.39998
 C223 C 1.06285 0.06252 0.41897
 H224 H 1.16979 0.11130 0.27198
 H225 H 1.15093 0.09247 0.31066
 H226 H 1.08533 0.14219 0.30255
 H227 H 1.10463 0.16120 0.26419
 H228 H 1.09137 0.14045 0.34839
 H229 H 1.07218 0.12146 0.38682
 H230 H 1.09695 0.04673 0.36251
 H231 H 1.11580 0.06541 0.32376
 C232 C 0.84143 -0.15863 0.22483
 C233 C 0.85081 -0.14931 0.24371
 C234 C 0.86199 -0.13819 0.26625
 C235 C 0.85307 -0.11469 0.27544
 C236 C 0.86388 -0.10390 0.29737
 C237 C 0.88379 -0.11650 0.31040
 C238 C 0.89264 -0.14012 0.30099
 C239 C 0.88179 -0.15088 0.27906
 C240 C 0.89525 -0.10508 0.33373
 C241 C 0.92183 -0.10615 0.33782
 C242 C 0.93258 -0.09540 0.35980
 C243 C 0.91694 -0.08346 0.37798
 C244 C 0.89049 -0.08230 0.37410
 C245 C 0.87970 -0.09302 0.35213
 C246 C 0.92802 -0.07241 0.40060
 C247 C 0.93727 -0.06314 0.41956
 H248 H 0.83780 -0.10467 0.26562
 H249 H 0.85688 -0.08554 0.30394
 H250 H 0.90770 -0.15044 0.31077
 H251 H 0.88878 -0.16913 0.27215
 H252 H 0.93434 -0.11500 0.32387
 H253 H 0.95309 -0.09634 0.36258
 H254 H 0.87820 -0.07317 0.38809
 H255 H 0.85916 -0.09218 0.34971
 C256 C 0.84144 0.15893 0.77554
 C257 C 0.85082 0.14951 0.75667
 C258 C 0.86198 0.13829 0.73413
 C259 C 0.88841 0.13423 0.73279
 C260 C 0.89927 0.12337 0.71088
 C261 C 0.88381 0.11641 0.68999
 C262 C 0.85725 0.12057 0.69154
 C263 C 0.84644 0.13144 0.71347
 C264 C 0.89531 0.10488 0.66669
 C265 C 0.88306 0.08456 0.65403
 C266 C 0.89387 0.07376 0.63206
 C267 C 0.91703 0.08312 0.62244
 C268 C 0.92938 0.10329 0.63489
 C269 C 0.91862 0.11411 0.65687
 C270 C 0.92808 0.07204 0.59976
 C271 C 0.93731 0.06277 0.58076
 H272 H 0.90061 0.13941 0.74871
 H273 H 0.91972 0.12012 0.71040
 H274 H 0.84488 0.11573 0.67567
 H275 H 0.82596 0.13458 0.71428
 H276 H 0.86529 0.07681 0.66131
 H277 H 0.88419 0.05810 0.62262
 H278 H 0.94728 0.11072 0.62755
 H279 H 0.92834 0.12993 0.66598
 C280 C 1.15893 -0.15853 0.77591
 C281 C 1.14952 -0.14916 0.75702
 C282 C 1.13831 -0.13802 0.73447
 C283 C 1.12839 -0.15376 0.71526
 C284 C 1.11751 -0.14296 0.69333
 C285 C 1.11643 -0.11623 0.69031
 C286 C 1.12646 -0.10057 0.70974
 C287 C 1.13732 -0.11142 0.73167
 C288 C 1.10493 -0.10475 0.66698
 C289 C 1.11626 -0.08335 0.65519
 C290 C 1.10548 -0.07262 0.63317
 C291 C 1.08324 -0.08309 0.62265
 C292 C 1.07180 -0.10433 0.63425
 C293 C 1.08256 -0.11511 0.65625
 C294 C 1.07221 -0.07208 0.59994
 C295 C 1.06298 -0.06287 0.58091
 H296 H 1.12914 -0.17438 0.71721
 H297 H 1.11027 -0.15552 0.67857
 H298 H 1.12562 -0.07994 0.70814
 H299 H 1.14488 -0.09906 0.74646
 H300 H 1.13366 -0.07514 0.66279
 H301 H 1.11453 -0.05622 0.62431
 H302 H 1.05454 -0.11254 0.62630
 H303 H 1.07320 -0.13135 0.66507
 C304 C 0.22394 1.15811 1.15911
 C305 C 0.24285 1.14879 1.14972
 C306 C 0.26544 1.13771 1.13852
 C307 C 0.28961 1.14717 1.14494
 C308 C 0.31157 1.13647 1.13403
 C309 C 0.30965 1.11611 1.11655
 C310 C 0.28525 1.10671 1.11025
 C311 C 0.26330 1.11747 1.12116
 C312 C 0.33297 1.10473 1.10495
 C313 C 0.33507 1.07809 1.10172
 C314 C 0.35707 1.06740 1.09086
 C315 C 0.37724 1.08316 1.08307
 C316 C 0.37534 1.10967 1.08616
 C317 C 0.35337 1.12040 1.09703
 C318 C 0.39992 1.07213 1.07197
 C319 C 0.41892 1.06290 1.06271
 H320 H 0.29148 1.16279 1.15841
 H321 H 0.33008 1.14389 1.13954
 H322 H 0.28311 1.09129 1.09661
 H323 H 0.24468 1.11004 1.11601
 H324 H 0.31986 1.06549 1.10792
 H325 H 0.35838 1.04684 1.08863
 H326 H 0.39081 1.12205 1.08013
 H327 H 0.35219 1.14099 1.09895
 C328 C 0.22488 0.84204 0.84122
 C329 C 0.24375 0.85139 0.85056
 C330 C 0.26629 0.86251 0.86169
 C331 C 0.26731 0.86721 0.88803
 C332 C 0.28923 0.87796 0.89888
 C333 C 0.31044 0.88415 0.88348
 C334 C 0.30920 0.87937 0.85700
 C335 C 0.28727 0.86861 0.84620
 C336 C 0.33375 0.89554 0.89497
 C337 C 0.34693 0.91534 0.88235
 C338 C 0.36887 0.92603 0.89319
 C339 C 0.37796 0.91708 0.91675
 C340 C 0.36500 0.89740 0.92946
 C341 C 0.34304 0.88669 0.91867
 C342 C 0.40058 0.92808 0.92786
 C343 C 0.41953 0.93729 0.93714
 H344 H 0.25115 0.86263 0.90019
 H345 H 0.28946 0.88172 0.91925
 H346 H 0.32533 0.88361 0.84469
 H347 H 0.28670 0.86498 0.82580
 H348 H 0.34008 0.92279 0.86427
 H349 H 0.37872 0.94131 0.88323
 H350 H 0.37191 0.89029 0.94767
 H351 H 0.33353 0.87126 0.92869
 C352 C 0.77552 0.84223 1.15946
 C353 C 0.75667 0.85161 1.15005
 C354 C 0.73415 0.86276 1.13880
 C355 C 0.71979 0.88075 1.15247
 C356 C 0.69786 0.89153 1.14158
 C357 C 0.69000 0.88441 1.11683
 C358 C 0.70460 0.86630 1.10325
 C359 C 0.72653 0.85557 1.11417
 C360 C 0.66666 0.89577 1.10528
 C361 C 0.64968 0.88054 1.09104
 C362 C 0.62767 0.89124 1.08023
 C363 C 0.62235 0.91727 1.08347
 C364 C 0.63912 0.93259 1.09756
 C365 C 0.66113 0.92193 1.10841
 C366 C 0.59966 0.92824 1.07238
 C367 C 0.58065 0.93743 1.06311
 H368 H 0.72548 0.88639 1.17158
 H369 H 0.68685 0.90515 1.15265
 H370 H 0.69924 0.86068 1.08405
 H371 H 0.73755 0.84170 1.10340
 H372 H 0.65322 0.86029 1.08857
 H373 H 0.61478 0.87919 1.06941
 H374 H 0.63521 0.95278 1.10013
 H375 H 0.67398 0.93422 1.11897
 C376 C 0.77553 1.15845 0.84108
 C377 C 0.75670 1.14909 0.85055
 C378 C 0.73420 1.13794 0.86184
 C379 C 0.73087 1.11140 0.86166
 C380 C 0.70898 1.10056 0.87256
 C381 C 0.69013 1.11616 0.88382
 C382 C 0.69369 1.14284 0.88393
 C383 C 0.71558 1.15363 0.87300
 C384 C 0.66682 1.10469 0.89534
 C385 C 0.65678 1.11424 0.91844
 C386 C 0.63478 1.10349 0.92921
 C387 C 0.62253 1.08308 0.91704
 C388 C 0.63237 1.07342 0.89408
 C389 C 0.65438 1.08412 0.88329
 C390 C 0.59983 1.07209 0.92808
 C391 C 0.58080 1.06288 0.93730
 H392 H 0.74520 1.09907 0.85313
 H393 H 0.70696 1.07995 0.87247
 H394 H 0.67938 1.15538 0.89213
 H395 H 0.71794 1.17421 0.87317
 H396 H 0.66611 1.12981 0.92835
 H397 H 0.62736 1.11106 0.94703
 H398 H 0.62299 1.05767 0.88447
 H399 H 0.66144 1.07656 0.86533
 C400 C 0.15847 0.22403 0.15853
 C401 C 0.14908 0.24291 0.14915
 C402 C 0.13791 0.26547 0.13798
 C403 C 0.11214 0.26558 0.13081
 C404 C 0.10127 0.28751 0.11997
 C405 C 0.11608 0.30964 0.11614
 C406 C 0.14199 0.30932 0.12341
 C407 C 0.15280 0.28738 0.13426
 C408 C 0.10457 0.33295 0.10463
 C409 C 0.11834 0.34760 0.08670
 C410 C 0.10753 0.36959 0.07594
 C411 C 0.08284 0.37724 0.08293
 C412 C 0.06897 0.36279 0.10072
 C413 C 0.07973 0.34079 0.11150
 C414 C 0.07177 0.39992 0.07190
 C415 C 0.06252 0.41893 0.06266
 H416 H 0.10045 0.24870 0.13355
 H417 H 0.08137 0.28704 0.11428
 H418 H 0.15380 0.32614 0.12103
 H419 H 0.17276 0.28752 0.13981
 H420 H 0.13736 0.34189 0.08076
 H421 H 0.11841 0.38059 0.06213
 H422 H 0.04986 0.36858 0.10632
 H423 H 0.06877 0.33011 0.12547
 C424 C -0.15817 0.22508 -0.15933
 C425 C -0.14887 0.24398 -0.15001
 C426 C -0.13780 0.26654 -0.13888
 C427 C -0.12416 0.26483 -0.11591
 C428 C -0.11344 0.28675 -0.10505
 C429 C -0.11621 0.31071 -0.11705
 C430 C -0.12995 0.31221 -0.14016
 C431 C -0.14067 0.29027 -0.15097
 C432 C -0.10484 0.33401 -0.10553
 C433 C -0.09294 0.35252 -0.12106
 C434 C -0.08223 0.37444 -0.11019
 C435 C -0.08329 0.37819 -0.08369
 C436 C -0.09509 0.35991 -0.06807
 C437 C -0.10579 0.33795 -0.07890
 C438 C -0.07228 0.40077 -0.07253
 C439 C -0.06305 0.41968 -0.06319
 H440 H -0.12176 0.24655 -0.10643
 H441 H -0.10269 0.28491 -0.08744
 H442 H -0.13271 0.33041 -0.14968
 H443 H -0.15126 0.29182 -0.16873
 H444 H -0.09160 0.34988 -0.14157
 H445 H -0.07308 0.38844 -0.12245
 H446 H -0.09608 0.36265 -0.04754
 H447 H -0.11510 0.32424 -0.06647
 C448 C 0.15841 0.77559 -0.15853
 C449 C 0.14906 0.75674 -0.14910
 C450 C 0.13792 0.73422 -0.13785
 C451 C 0.11211 0.73413 -0.13075
 C452 C 0.10127 0.71223 -0.11988
 C453 C 0.11613 0.69011 -0.11597
 C454 C 0.14207 0.69042 -0.12316
 C455 C 0.15287 0.71233 -0.13404
 C456 C 0.10463 0.66681 -0.10448
 C457 C 0.11834 0.65217 -0.08649
 C458 C 0.10754 0.63019 -0.07576
 C459 C 0.08292 0.62253 -0.08286
 C460 C 0.06911 0.63696 -0.10071
 C461 C 0.07987 0.65896 -0.11145
 C462 C 0.07187 0.59984 -0.07188
 C463 C 0.06263 0.58082 -0.06270
 H464 H 0.10039 0.75100 -0.13355
 H465 H 0.08134 0.71271 -0.11424
 H466 H 0.15393 0.67360 -0.12071
 H467 H 0.17286 0.71217 -0.13954
 H468 H 0.13729 0.65790 -0.08048
 H469 H 0.11836 0.61919 -0.06190
 H470 H 0.05006 0.63116 -0.10638
 H471 H 0.06896 0.66962 -0.12548
 C472 C -0.15803 0.77557 0.15935
 C473 C -0.14872 0.75670 0.14990
 C474 C -0.13766 0.73416 0.13863
 C475 C -0.11111 0.73211 0.13590
 C476 C -0.10034 0.71019 0.12498
 C477 C -0.11602 0.69002 0.11662
 C478 C -0.14270 0.69229 0.11943
 C479 C -0.15342 0.71422 0.13037
 C480 C -0.10461 0.66670 0.10507
 C481 C -0.11611 0.65497 0.08377
 C482 C -0.10539 0.63298 0.07296
 C483 C -0.08307 0.62240 0.08328
 C484 C -0.07147 0.63392 0.10445
 C485 C -0.08214 0.65593 0.11528
 C486 C -0.07211 0.59971 0.07219
 C487 C -0.06293 0.58070 0.06292
 H488 H -0.09873 0.74747 0.14217
 H489 H -0.07977 0.70917 0.12278
 H490 H -0.15526 0.67696 0.11350
 H491 H -0.17400 0.71558 0.13245
 H492 H -0.13322 0.66299 0.07526
 H493 H -0.11449 0.62425 0.05652
 H494 H -0.05421 0.62585 0.11263
 H495 H -0.07302 0.66430 0.13186
 C496 C 1.15867 0.15881 0.77492
 C497 C 1.14932 0.14945 0.75605
 C498 C 1.13817 0.13827 0.73353
 C499 C 1.14634 0.11422 0.72507
 C500 C 1.13555 0.10335 0.70317
 C501 C 1.11642 0.11641 0.68943
 C502 C 1.10834 0.14058 0.69811
 C503 C 1.11916 0.15142 0.72001
 C504 C 1.10496 0.10489 0.66615
 C505 C 1.07853 0.10692 0.66151
 C506 C 1.06777 0.09609 0.63957
 C507 C 1.08326 0.08312 0.62199
 C508 C 1.10956 0.08098 0.62643
 C509 C 1.12036 0.09177 0.64836
 C510 C 1.07217 0.07204 0.59938
 C511 C 1.06291 0.06276 0.58044
 H512 H 1.16100 0.10385 0.73544
 H513 H 1.14195 0.08458 0.69717
 H514 H 1.09390 0.15126 0.68777
 H515 H 1.11276 0.17009 0.72635
 H516 H 1.06612 0.11660 0.67500
 H517 H 1.04737 0.09780 0.63635
 H518 H 1.12173 0.07103 0.61290
 H519 H 1.14080 0.09017 0.65122
 C520 C 0.84207 -0.15893 0.77630
 C521 C 0.85142 -0.14954 0.75740
 C522 C 0.86256 -0.13834 0.73482
 C523 C 0.85584 -0.11348 0.72747
 C524 C 0.86660 -0.10258 0.70551
 C525 C 0.88426 -0.11643 0.69061
 C526 C 0.89090 -0.14141 0.69819
 C527 C 0.88010 -0.15227 0.72015
 C528 C 0.89566 -0.10490 0.66724
 C529 C 0.92169 -0.10862 0.66143
 C530 C 0.93237 -0.09779 0.63941
 C531 C 0.91722 -0.08314 0.62289
 C532 C 0.89132 -0.07931 0.62849
 C533 C 0.88059 -0.09010 0.65052
 C534 C 0.92821 -0.07209 0.60017
 C535 C 0.93742 -0.06286 0.58112
 H536 H 0.84232 -0.10250 0.73873
 H537 H 0.86135 -0.08321 0.70037
 H538 H 0.90417 -0.15268 0.68695
 H539 H 0.88538 -0.17156 0.72563
 H540 H 0.93385 -0.11963 0.67409
 H541 H 0.95246 -0.10082 0.63528
 H542 H 0.87940 -0.06805 0.61579
 H543 H 0.86043 -0.08717 0.65427
 C544 C 1.15831 -0.15905 0.22412
 C545 C 1.14894 -0.14969 0.24302
 C546 C 1.13778 -0.13854 0.26560
 C547 C 1.12542 -0.15407 0.28359
 C548 C 1.11461 -0.14326 0.30556
 C549 C 1.11605 -0.11674 0.30983
 C550 C 1.12851 -0.10129 0.29161
 C551 C 1.13929 -0.11214 0.26965
 C552 C 1.10464 -0.10524 0.33320
 C553 C 1.11746 -0.08567 0.34645
 C554 C 1.10674 -0.07490 0.36847
 C555 C 1.08308 -0.08351 0.37754
 C556 C 1.07016 -0.10294 0.36450
 C557 C 1.08085 -0.11376 0.34248
 C558 C 1.07207 -0.07243 0.40023
 C559 C 1.06286 -0.06316 0.41925
 H560 H 1.12421 -0.17455 0.28068
 H561 H 1.10545 -0.15570 0.31937
 H562 H 1.12964 -0.08078 0.29418
 H563 H 1.14876 -0.09993 0.25581
 H564 H 1.13595 -0.07893 0.33998
 H565 H 1.11694 -0.05991 0.37847
 H566 H 1.05179 -0.10970 0.37132
 H567 H 1.07036 -0.12854 0.33253
 C568 C 0.84076 0.15857 0.22455
 C569 C 0.85011 0.14921 0.24346
 C570 C 0.86127 0.13806 0.26604
 C571 C 0.88555 0.12683 0.26486
 C572 C 0.89643 0.11602 0.28679
 C573 C 0.88312 0.11629 0.31023
 C574 C 0.85871 0.12762 0.31121
 C575 C 0.84788 0.13843 0.28925
 C576 C 0.89466 0.10481 0.33355
 C577 C 0.87960 0.09045 0.35066
 C578 C 0.89047 0.07965 0.37260
 C579 C 0.91650 0.08305 0.37774
 C580 C 0.93164 0.09730 0.36086
 C581 C 0.92082 0.10810 0.33890
 C582 C 0.92765 0.07195 0.40035
 C583 C 0.93699 0.06265 0.41929
 H584 H 0.89605 0.12638 0.24697
 H585 H 0.91510 0.10715 0.28535
 H586 H 0.84813 0.12842 0.32902
 H587 H 0.82910 0.14714 0.29039
 H588 H 0.85949 0.08729 0.34691
 H589 H 0.87859 0.06860 0.38551
 H590 H 0.95180 0.10011 0.36470
 H591 H 0.93283 0.11932 0.32628
 C592 C 0.15798 0.22464 -0.15962
 C593 C 0.14861 0.24350 -0.15021
 C594 C 0.13748 0.26605 -0.13901
 C595 C 0.12092 0.26391 -0.11806
 C596 C 0.11013 0.28583 -0.10715
 C597 C 0.11581 0.31021 -0.11707
 C598 C 0.13248 0.31214 -0.13816
 C599 C 0.14323 0.29020 -0.14904
 C600 C 0.10442 0.33353 -0.10548
 C601 C 0.11917 0.35579 -0.10233
 C602 C 0.10843 0.37774 -0.09145
 C603 C 0.08284 0.37776 -0.08360
 C604 C 0.06800 0.35572 -0.08665
 C605 C 0.07870 0.33374 -0.09751
 C606 C 0.07181 0.40039 -0.07246
 C607 C 0.06259 0.41935 -0.06314
 H608 H 0.11640 0.24531 -0.11010
 H609 H 0.09764 0.28374 -0.09074
 H610 H 0.13696 0.33060 -0.14644
 H611 H 0.15597 0.29207 -0.16530
 H612 H 0.13910 0.35612 -0.10796
 H613 H 0.12011 0.39467 -0.08912
 H614 H 0.04814 0.35556 -0.08071
 H615 H 0.06677 0.31702 -0.09998
 C616 C -0.15860 0.22449 0.15903
 C617 C -0.14925 0.24335 0.14961
 C618 C -0.13811 0.26588 0.13839
 C619 C -0.13147 0.28664 0.15388
 C620 C -0.12066 0.30855 0.14301
 C621 C -0.11636 0.30998 0.11645
 C622 C -0.12311 0.28900 0.10103
 C623 C -0.13391 0.26710 0.11196
 C624 C -0.10491 0.33327 0.10487
 C625 C -0.11409 0.34292 0.08146
 C626 C -0.10336 0.36490 0.07063
 C627 C -0.08331 0.37750 0.08304
 C628 C -0.07401 0.36804 0.10630
 C629 C -0.08472 0.34608 0.11717
 C630 C -0.07232 0.40016 0.07193
 C631 C -0.06310 0.41916 0.06267
 H632 H -0.13472 0.28592 0.17436
 H633 H -0.11599 0.32450 0.15533
 H634 H -0.11974 0.28939 0.08058
 H635 H -0.13892 0.25111 0.09979
 H636 H -0.12982 0.33369 0.07169
 H637 H -0.11075 0.37210 0.05264
 H638 H -0.05844 0.37761 0.11603
 H639 H -0.07700 0.33894 0.13503
 C640 C -0.15793 0.77632 -0.15876
 C641 C -0.14860 0.75743 -0.14934
 C642 C -0.13750 0.73486 -0.13811
 C643 C -0.14807 0.72435 -0.11584
 C644 C -0.13738 0.70236 -0.10497
 C645 C -0.11593 0.69059 -0.11624
 C646 C -0.10542 0.70134 -0.13861
 C647 C -0.11616 0.72332 -0.14946
 C648 C -0.10459 0.66718 -0.10474
 C649 C -0.07788 0.66403 -0.10362
 C650 C -0.06724 0.64196 -0.09284
 C651 C -0.08312 0.62277 -0.08306
 C652 C -0.10971 0.62572 -0.08407
 C653 C -0.12039 0.64778 -0.09483
 C654 C -0.07215 0.60004 -0.07202
 C655 C -0.06295 0.58101 -0.06278
 H656 H -0.16456 0.73317 -0.10687
 H657 H -0.14569 0.69475 -0.08757
 H658 H -0.08913 0.69254 -0.14792
 H659 H -0.10788 0.73126 -0.16675
 H660 H -0.06522 0.67876 -0.11078
 H661 H -0.04664 0.63990 -0.09209
 H662 H -0.12218 0.61095 -0.07662
 H663 H -0.14101 0.64949 -0.09571
 C664 C 0.15779 0.77516 0.15863
 C665 C 0.14847 0.75631 0.14923
 C666 C 0.13738 0.73378 0.13802
 C667 C 0.11114 0.73290 0.13293
 C668 C 0.10034 0.71100 0.12208
 C669 C 0.11570 0.68968 0.11617
 C670 C 0.14208 0.69078 0.12135
 C671 C 0.15283 0.71269 0.13221
 C672 C 0.10425 0.66638 0.10471
 C673 C 0.11710 0.65302 0.08516
 C674 C 0.10634 0.63105 0.07443
 C675 C 0.08264 0.62213 0.08308
 C676 C 0.06969 0.63528 0.10250
 C677 C 0.08041 0.65726 0.11325
 C678 C 0.07163 0.59947 0.07208
 C679 C 0.06243 0.58048 0.06285
 H680 H 0.09902 0.74915 0.13728
 H681 H 0.08004 0.71087 0.11802
 H682 H 0.15435 0.67457 0.11734
 H683 H 0.17316 0.71315 0.13615
 H684 H 0.13531 0.65973 0.07794
 H685 H 0.11648 0.62105 0.05935
 H686 H 0.05136 0.62850 0.10939
 H687 H 0.07021 0.66692 0.12848
 C688 C 0.22463 1.15816 0.84024
 C689 C 0.24352 1.14881 0.84961
 C690 C 0.26608 1.13768 0.86079
 C691 C 0.29017 1.14290 0.85035
 C692 C 0.31212 1.13216 0.86122
 C693 C 0.31026 1.11601 0.88272
 C694 C 0.28593 1.11085 0.89305
 C695 C 0.26401 1.12164 0.88216
 C696 C 0.33357 1.10464 0.89431
 C697 C 0.33360 1.07911 0.90288
 C698 C 0.35558 1.06842 0.91375
 C699 C 0.37780 1.08308 0.91623
 C700 C 0.37797 1.10849 0.90779
 C701 C 0.35602 1.11921 0.89689
 C702 C 0.40042 1.07207 0.92742
 C703 C 0.41937 1.06285 0.93678
 H704 H 0.29198 1.15524 0.83377
 H705 H 0.33052 1.13623 0.85262
 H706 H 0.28390 1.09877 0.90978
 H707 H 0.24546 1.11752 0.89044
 H708 H 0.31673 1.06730 0.90085
 H709 H 0.35527 1.04870 0.92015
 H710 H 0.39505 1.12003 0.90969
 H711 H 0.35651 1.13900 0.89079
 C712 C 0.22431 0.84157 1.15868
 C713 C 0.24320 0.85091 1.14932
 C714 C 0.26578 0.86203 1.13817
 C715 C 0.28923 0.84922 1.13979
 C716 C 0.31119 0.86000 1.12897
 C717 C 0.30996 0.88379 1.11638
 C718 C 0.28627 0.89652 1.11487
 C719 C 0.26434 0.88569 1.12569
 C720 C 0.33327 0.89525 1.10488
 C721 C 0.33796 0.92166 1.10696
 C722 C 0.35994 0.93242 1.09617
 C723 C 0.37751 0.91695 1.08315
 C724 C 0.37301 0.89068 1.08094
 C725 C 0.35106 0.87988 1.09173
 C726 C 0.40016 0.92803 1.07209
 C727 C 0.41914 0.93728 1.06285
 H728 H 0.29057 0.83093 1.14947
 H729 H 0.32919 0.84990 1.13075
 H730 H 0.28464 0.91468 1.10503
 H731 H 0.24626 0.89573 1.12427
 H732 H 0.32481 0.93395 1.11725
 H733 H 0.36327 0.95278 1.09806
 H734 H 0.38646 0.87854 1.07083
 H735 H 0.34783 0.85955 1.08950
 C736 C 0.77500 1.15799 1.15902
 C737 C 0.75617 1.14867 1.14957
 C738 C 0.73369 1.13759 1.13828
 C739 C 0.73184 1.11106 1.13542
 C740 C 0.70998 1.10028 1.12449
 C741 C 0.68966 1.11593 1.11626
 C742 C 0.69174 1.14260 1.11920
 C743 C 0.71361 1.15333 1.13015
 C744 C 0.66639 1.10451 1.10473
 C745 C 0.65449 1.11612 1.08353
 C746 C 0.63253 1.10540 1.07276
 C747 C 0.62215 1.08296 1.08302
 C748 C 0.63385 1.07124 1.10408
 C749 C 0.65582 1.08192 1.11487
 C750 C 0.59948 1.07199 1.07200
 C751 C 0.58048 1.06281 1.06279
 H752 H 0.74731 1.09870 1.14158
 H753 H 0.70910 1.07972 1.12218
 H754 H 0.67630 1.15514 1.11337
 H755 H 0.71482 1.17390 1.13234
 H756 H 0.66235 1.13332 1.07508
 H757 H 0.62367 1.11458 1.05642
 H758 H 0.62594 1.05390 1.11222
 H759 H 0.66433 1.07271 1.13137
 C760 C 0.77614 0.84175 0.84178
 C761 C 0.75727 0.85114 0.85118
 C762 C 0.73473 0.86233 0.86237
 C763 C 0.72830 0.85699 0.88783
 C764 C 0.70636 0.86779 0.89870
 C765 C 0.69056 0.88411 0.88422
 C766 C 0.69723 0.88939 0.85865
 C767 C 0.71917 0.87855 0.84781
 C768 C 0.66721 0.89554 0.89572
 C769 C 0.66051 0.92111 0.89055
 C770 C 0.63847 0.93182 0.90131
 C771 C 0.62284 0.91714 0.91735
 C772 C 0.62934 0.89171 0.92264
 C773 C 0.65138 0.88096 0.91191
 C774 C 0.60011 0.92814 0.92833
 C775 C 0.58105 0.93735 0.93752
 H776 H 0.74026 0.84451 0.89929
 H777 H 0.70193 0.86362 0.91852
 H778 H 0.68529 0.90160 0.84691
 H779 H 0.72394 0.88275 0.82806
 H780 H 0.67247 0.93292 0.87844
 H781 H 0.63365 0.95155 0.89715
 H782 H 0.61733 0.88015 0.93498
 H783 H 0.65583 0.86115 0.91599
   
