data_POSCAR
  _audit_creation_date              2014-09-24
  _audit_creation_method            'ToBaCCo'
  _symmetry_space_group_name_H-M    'P1'
  _symmetry_Int_Tables_number       1
  _symmetry_cell_setting            triclinic
  loop_
  _symmetry_equiv_pos_as_xyz
 x,y,z
_cell_length_a 47.6222
_cell_length_b 25.4515
_cell_length_c 15.6443
_cell_angle_alpha 90.132600
_cell_angle_beta 89.967000
_cell_angle_gamma 89.991300
loop_
  _atom_site_label
  _atom_site_type_symbol
  _atom_site_fract_x
  _atom_site_fract_y
  _atom_site_fract_z
C1 C 0.72387 0.25936 0.54417
 C2 C 0.72403 0.25853 0.45349
 C3 C 0.74728 0.23825 0.40982
 C4 C 0.77072 0.21757 0.45315
 C5 C 0.77092 0.21867 0.54463
 C6 C 0.74735 0.23922 0.58781
 H7 H 0.74745 0.24027 0.65710
 H8 H 0.74657 0.23733 0.34053
 C9 C 0.22595 0.76510 0.54588
 C10 C 0.22695 0.77108 0.45644
 C11 C 0.25076 0.75459 0.41137
 C12 C 0.27360 0.73163 0.45364
 C13 C 0.27301 0.72610 0.54428
 C14 C 0.24870 0.74237 0.58870
 H15 H 0.24792 0.74019 0.65786
 H16 H 0.25112 0.75801 0.34227
 C17 C 0.27183 0.27676 -0.54328
 C18 C 0.27339 0.26880 -0.45431
 C19 C 0.25158 0.24298 -0.41199
 C20 C 0.22734 0.22608 -0.45582
 C21 C 0.22588 0.23339 -0.54647
 C22 C 0.24793 0.26012 -0.58793
 H23 H 0.24760 0.26455 -0.65685
 H24 H 0.25278 0.23972 -0.34299
 C25 C -0.22656 0.76989 -0.54409
 C26 C -0.22870 0.77839 -0.45541
 C27 C -0.25284 0.76215 -0.41175
 C28 C -0.27466 0.73522 -0.45413
 C29 C -0.27275 0.72772 -0.54477
 C30 C -0.24826 0.74439 -0.58754
 H31 H -0.24669 0.74089 -0.65647
 H32 H -0.25349 0.76700 -0.34289
 O33 O -0.03907 0.91002 0.15631
 O34 O -0.06994 0.95910 0.07689
 C35 C -0.06430 0.92484 0.13564
 O36 O 0.04014 1.09670 0.15203
 O37 O 0.07062 1.04640 0.07277
 C38 C 0.06520 1.08195 0.12968
 O39 O -0.03892 1.09062 0.16230
 O40 O -0.06984 1.04433 0.07821
 C41 C -0.06408 1.07667 0.13962
 O42 O 0.03996 0.90609 0.14956
 O43 O 0.07051 0.95692 0.07232
 C44 C 0.06512 0.92101 0.12851
 Zr45 Zr 0.00045 0.93471 0.10775
 O46 O 0.00343 0.93206 0.24266
 O47 O -0.00255 0.85175 0.10249
 Zr48 Zr 0.00052 1.06811 0.11033
 O49 O 0.00389 1.07040 0.24512
 O50 O -0.00285 1.15106 0.10698
 O51 O -0.02430 1.00132 0.12657
 O52 O 0.02468 1.00128 0.12439
 O53 O 0.03931 0.90653 -0.15030
 O54 O 0.07020 0.95679 -0.07287
 C55 C 0.06457 0.92099 -0.12932
 O56 O -0.03905 1.09346 -0.15525
 O57 O -0.06951 1.04683 -0.07145
 C58 C -0.06422 1.07995 -0.13212
 O59 O 0.03966 1.09747 -0.14809
 O60 O 0.07037 1.04734 -0.07047
 C61 C 0.06490 1.08318 -0.12668
 O62 O -0.03981 0.91281 -0.15631
 O63 O -0.07025 0.96035 -0.07278
 C64 C -0.06494 0.92734 -0.13381
 Zr65 Zr -0.00004 0.93593 -0.10767
 O66 O 0.00285 0.93528 -0.24270
 O67 O -0.00347 0.85298 -0.10664
 Zr68 Zr 0.00019 1.06929 -0.10499
 O69 O 0.00292 1.07330 -0.23980
 O70 O -0.00286 1.15219 -0.09731
 Zr71 Zr -0.04138 1.00211 0.00229
 Zr72 Zr 0.04206 1.00175 0.00054
 O73 O 0.02428 1.00254 -0.12264
 O74 O -0.02482 1.00282 -0.12271
 O75 O 0.02541 0.92498 -0.00061
 O76 O -0.02422 1.07825 0.00335
 O77 O -0.02433 0.92589 0.00035
 O78 O 0.02559 1.07870 0.00235
 H79 H 0.03715 1.00114 0.17505
 H80 H -0.03722 1.10866 0.00431
 H81 H 0.03669 1.00264 -0.17349
 H82 H -0.03734 0.89551 -0.00013
 H83 H 0.01405 1.16473 0.07771
 H84 H 0.01465 1.16541 -0.07092
 H85 H -0.01016 1.04674 -0.26309
 H86 H -0.01234 0.95795 -0.26488
 H87 H 0.01283 0.83908 -0.07471
 H88 H 0.01440 0.83846 0.07290
 H89 H -0.01154 0.95490 0.26598
 H90 H -0.00928 1.04388 0.26795
 O91 O 0.46117 0.41143 0.15797
 O92 O 0.43065 0.45821 0.07452
 C93 C 0.43600 0.42539 0.13549
 O94 O 0.54059 0.59623 0.14678
 O95 O 0.57112 0.54527 0.06917
 C96 C 0.56577 0.58153 0.12521
 O97 O 0.46146 0.59380 0.15351
 O98 O 0.43044 0.54448 0.07438
 C99 C 0.43625 0.57890 0.13289
 O100 O 0.54001 0.40522 0.14796
 O101 O 0.57091 0.45564 0.07083
 C102 C 0.56523 0.41976 0.12676
 Zr103 Zr 0.50052 0.43496 0.10733
 O104 O 0.50383 0.43457 0.24223
 O105 O 0.49687 0.35204 0.10601
 Zr106 Zr 0.50091 0.56816 0.10543
 O107 O 0.50379 0.57042 0.24040
 O108 O 0.49833 0.65118 0.10130
 O109 O 0.47581 0.50201 0.12352
 O110 O 0.52496 0.50130 0.12203
 O111 O 0.53923 0.40373 -0.15057
 O112 O 0.57039 0.45357 -0.07364
 C113 C 0.56457 0.41747 -0.12955
 O114 O 0.46171 0.59086 -0.16053
 O115 O 0.43092 0.54560 -0.07574
 C116 C 0.43645 0.57795 -0.13725
 O117 O 0.54044 0.59512 -0.15219
 O118 O 0.57096 0.54438 -0.07444
 C119 C 0.56551 0.58017 -0.13064
 O120 O 0.46039 0.40877 -0.15484
 O121 O 0.42992 0.45914 -0.07551
 C122 C 0.43531 0.42431 -0.13382
 Zr123 Zr 0.50012 0.43345 -0.10814
 O124 O 0.50277 0.43191 -0.24322
 O125 O 0.49682 0.35051 -0.10482
 Zr126 Zr 0.50092 0.56659 -0.10998
 O127 O 0.50403 0.56730 -0.24492
 O128 O 0.49797 0.64960 -0.10759
 Zr129 Zr 0.45885 0.50144 -0.00094
 Zr130 Zr 0.54243 0.50007 -0.00164
 O131 O 0.52480 0.49948 -0.12502
 O132 O 0.47557 0.50035 -0.12574
 O133 O 0.52546 0.42354 -0.00060
 O134 O 0.47642 0.57726 -0.00228
 O135 O 0.47577 0.42509 0.00006
 O136 O 0.52616 0.57715 -0.00252
 H137 H 0.53751 0.50133 0.17254
 H138 H 0.46365 0.60802 -0.00263
 H139 H 0.53728 0.49906 -0.17572
 H140 H 0.46279 0.39467 0.00070
 H141 H 0.51511 0.66415 0.07064
 H142 H 0.51459 0.66316 -0.07672
 H143 H 0.48980 0.54253 -0.26718
 H144 H 0.48709 0.45331 -0.26567
 H145 H 0.51319 0.33698 -0.07282
 H146 H 0.51316 0.33789 0.07414
 H147 H 0.48932 0.45873 0.26469
 H148 H 0.48856 0.54810 0.26329
 C149 C 0.34167 0.34009 0.31885
 C150 C 0.34569 0.29678 0.37281
 C151 C 0.32262 0.27581 0.41632
 C152 C 0.29587 0.29883 0.40843
 C153 C 0.29210 0.34210 0.35386
 C154 C 0.31499 0.36285 0.30856
 C155 C 0.36583 0.36174 0.27178
 C156 C 0.36172 0.40424 0.21624
 C157 C 0.38469 0.42421 0.17078
 C158 C 0.41178 0.40285 0.18205
 C159 C 0.41551 0.36037 0.23848
 C160 C 0.39255 0.33939 0.28297
 C161 C 0.31179 0.40580 0.25317
 C162 C 0.33475 0.42600 0.20747
 C163 C 0.37268 0.27529 0.38216
 C164 C 0.39576 0.29642 0.33830
 H165 H 0.29136 0.42379 0.24477
 H166 H 0.33138 0.45906 0.16520
 H167 H 0.37601 0.24199 0.42399
 H168 H 0.41625 0.27881 0.34747
 H169 H 0.32539 0.24142 0.45609
 H170 H 0.27146 0.35960 0.34727
 H171 H 0.38147 0.45685 0.12749
 H172 H 0.43617 0.34338 0.24730
 C173 C -0.15759 0.83515 0.31752
 C174 C -0.18111 0.86658 0.33579
 C175 C -0.20365 0.84477 0.38117
 C176 C -0.20294 0.79180 0.40623
 C177 C -0.17960 0.76040 0.38579
 C178 C -0.15655 0.78222 0.34274
 C179 C -0.13361 0.85810 0.27109
 C180 C -0.10972 0.82720 0.25516
 C181 C -0.08682 0.84944 0.21182
 C182 C -0.08818 0.90157 0.18221
 C183 C -0.11248 0.93168 0.19749
 C184 C -0.13507 0.91046 0.24333
 C185 C -0.13239 0.75243 0.32499
 C186 C -0.10929 0.77464 0.28252
 C187 C -0.18157 0.91911 0.30833
 C188 C -0.15903 0.94055 0.26221
 H189 H -0.13126 0.71167 0.34456
 H190 H -0.09101 0.75037 0.27049
 H191 H -0.19958 0.94374 0.32206
 H192 H -0.16032 0.98110 0.24159
 H193 H -0.22178 0.86870 0.39697
 H194 H -0.17922 0.71954 0.40516
 H195 H -0.06823 0.82601 0.19960
 H196 H -0.11360 0.97185 0.17491
 C197 C 0.65917 0.67001 0.30931
 C198 C 0.65404 0.70565 0.37603
 C199 C 0.67669 0.72531 0.42321
 C200 C 0.70448 0.70903 0.40536
 C201 C 0.70917 0.67428 0.33618
 C202 C 0.68659 0.65423 0.28876
 C203 C 0.63532 0.64858 0.26037
 C204 C 0.64039 0.61229 0.19446
 C205 C 0.61760 0.59127 0.14920
 C206 C 0.58986 0.60627 0.16956
 C207 C 0.58526 0.64328 0.23529
 C208 C 0.60790 0.66438 0.28107
 C209 C 0.69085 0.61805 0.22198
 C210 C 0.66813 0.59735 0.17574
 C211 C 0.62633 0.72078 0.39459
 C212 C 0.60363 0.70050 0.34787
 H213 H 0.71190 0.60540 0.20565
 H214 H 0.67231 0.56930 0.12510
 H215 H 0.62213 0.74829 0.44599
 H216 H 0.58257 0.71296 0.36450
 H217 H 0.67268 0.75399 0.47306
 H218 H 0.73025 0.66086 0.32167
 H219 H 0.62149 0.56278 0.09896
 H220 H 0.56408 0.65507 0.25189
 C221 C 0.15978 1.16749 0.30860
 C222 C 0.17321 1.13683 0.37081
 C223 C 0.19544 1.15853 0.41763
 C224 C 0.20451 1.21057 0.40254
 C225 C 0.19162 1.23973 0.33656
 C226 C 0.16884 1.21880 0.29085
 C227 C 0.13557 1.14561 0.26179
 C228 C 0.12143 1.17693 0.20168
 C229 C 0.09794 1.15630 0.15893
 C230 C 0.08918 1.10460 0.17516
 C231 C 0.10378 1.07340 0.23425
 C232 C 0.12687 1.09391 0.27859
 C233 C 0.15451 1.24858 0.22912
 C234 C 0.13111 1.22812 0.18567
 C235 C 0.16395 1.08520 0.38558
 C236 C 0.14129 1.06397 0.33981
 H237 H 0.16124 1.28829 0.21498
 H238 H 0.12050 1.25259 0.13920
 H239 H 0.17426 1.06107 0.43313
 H240 H 0.13481 1.02399 0.35307
 H241 H 0.20586 1.13475 0.46548
 H242 H 0.19817 1.27980 0.32428
 H243 H 0.08672 1.17993 0.11257
 H244 H 0.09686 1.03351 0.24638
 C245 C 0.65646 0.32330 -0.31369
 C246 C 0.68415 0.33483 -0.28964
 C247 C 0.70641 0.31289 -0.33631
 C248 C 0.70121 0.28027 -0.40789
 C249 C 0.67312 0.26834 -0.42935
 C250 C 0.65075 0.29003 -0.38313
 C251 C 0.63296 0.34644 -0.26514
 C252 C 0.60526 0.33462 -0.28899
 C253 C 0.58300 0.35713 -0.24325
 C254 C 0.58824 0.39160 -0.17440
 C255 C 0.61622 0.40272 -0.15103
 C256 C 0.63865 0.38017 -0.19615
 C257 C 0.62275 0.27895 -0.40492
 C258 C 0.60038 0.30089 -0.35863
 C259 C 0.68903 0.36854 -0.21994
 C260 C 0.66666 0.39092 -0.17409
 H261 H 0.61810 0.25330 -0.45844
 H262 H 0.57909 0.29152 -0.37772
 H263 H 0.71033 0.37787 -0.20086
 H264 H 0.67134 0.41689 -0.12100
 H265 H 0.72777 0.32303 -0.31891
 H266 H 0.66857 0.24052 -0.47980
 H267 H 0.56162 0.34838 -0.26226
 H268 H 0.62058 0.42915 -0.09825
 C269 C 0.15762 0.82984 -0.31161
 C270 C 0.18178 0.86026 -0.32595
 C271 C 0.20413 0.83856 -0.37253
 C272 C 0.20248 0.78678 -0.40339
 C273 C 0.17847 0.75631 -0.38700
 C274 C 0.15571 0.77799 -0.34214
 C275 C 0.13383 0.85279 -0.26401
 C276 C 0.10936 0.82293 -0.25163
 C277 C 0.08659 0.84534 -0.20758
 C278 C 0.08853 0.89673 -0.17457
 C279 C 0.11338 0.92582 -0.18673
 C280 C 0.13598 0.90427 -0.23224
 C281 C 0.13100 0.74915 -0.32773
 C282 C 0.10816 0.77134 -0.28366
 C283 C 0.18304 0.91178 -0.29370
 C284 C 0.16057 0.93334 -0.24726
 H285 H 0.12923 0.70922 -0.35124
 H286 H 0.08944 0.74785 -0.27443
 H287 H 0.20156 0.93561 -0.30432
 H288 H 0.16240 0.97319 -0.22336
 H289 H 0.22277 0.86176 -0.38514
 H290 H 0.17744 0.71621 -0.41029
 H291 H 0.06755 0.82274 -0.19818
 H292 H 0.11489 0.96566 -0.16246
 C293 C 0.34222 0.66522 -0.31862
 C294 C 0.31486 0.65139 -0.29402
 C295 C 0.29196 0.67233 -0.33879
 C296 C 0.29619 0.70637 -0.40890
 C297 C 0.32397 0.72084 -0.43050
 C298 C 0.34696 0.69992 -0.38655
 C299 C 0.36638 0.64319 -0.27203
 C300 C 0.39376 0.65717 -0.29651
 C301 C 0.41667 0.63600 -0.25208
 C302 C 0.41232 0.60117 -0.18342
 C303 C 0.38463 0.58789 -0.15962
 C304 C 0.36163 0.60862 -0.20385
 C305 C 0.37463 0.71312 -0.40918
 C306 C 0.39765 0.69202 -0.36501
 C307 C 0.31096 0.61646 -0.22563
 C308 C 0.33395 0.59543 -0.18128
 H309 H 0.37853 0.73982 -0.46172
 H310 H 0.41865 0.70310 -0.38461
 H311 H 0.28996 0.60527 -0.20621
 H312 H 0.33004 0.56860 -0.12894
 H313 H 0.27091 0.66030 -0.32114
 H314 H 0.32778 0.74970 -0.47984
 H315 H 0.43781 0.64654 -0.27113
 H316 H 0.38090 0.56121 -0.10692
 C317 C -0.15918 1.16594 -0.31252
 C318 C -0.18643 1.15296 -0.28571
 C319 C -0.20951 1.17205 -0.33176
 C320 C -0.20559 1.20308 -0.40564
 C321 C -0.17796 1.21743 -0.42913
 C322 C -0.15474 1.19831 -0.38370
 C323 C -0.13483 1.14476 -0.26562
 C324 C -0.10754 1.15736 -0.29281
 C325 C -0.08444 1.13658 -0.24853
 C326 C -0.08853 1.10330 -0.17762
 C327 C -0.11614 1.09145 -0.15115
 C328 C -0.13931 1.11195 -0.19497
 C329 C -0.12713 1.21032 -0.40876
 C330 C -0.10394 1.19016 -0.36413
 C331 C -0.19007 1.12016 -0.21442
 C332 C -0.16690 1.10000 -0.16981
 H333 H -0.12342 1.23516 -0.46378
 H334 H -0.08301 1.20017 -0.38587
 H335 H -0.21099 1.10971 -0.19323
 H336 H -0.17063 1.07465 -0.11543
 H337 H -0.23047 1.16027 -0.31267
 H338 H -0.17450 1.24324 -0.48313
 H339 H -0.06337 1.14595 -0.26977
 H340 H -0.11968 1.06608 -0.09665
 C341 C 0.65925 0.66815 -0.31051
 C342 C 0.67272 0.63797 -0.37350
 C343 C 0.69488 0.66013 -0.42002
 C344 C 0.70381 0.71220 -0.40401
 C345 C 0.69076 0.74097 -0.33757
 C346 C 0.66809 0.71954 -0.29201
 C347 C 0.63526 0.64561 -0.26347
 C348 C 0.62110 0.67641 -0.20244
 C349 C 0.59785 0.65513 -0.15938
 C350 C 0.58942 0.60322 -0.17596
 C351 C 0.60408 0.57250 -0.23585
 C352 C 0.62684 0.59376 -0.28082
 C353 C 0.65371 0.74883 -0.22950
 C354 C 0.63051 0.72776 -0.18587
 C355 C 0.66365 0.58630 -0.38917
 C356 C 0.64122 0.56443 -0.34318
 H357 H 0.66026 0.78860 -0.21479
 H358 H 0.61987 0.75185 -0.13874
 H359 H 0.67396 0.56257 -0.43748
 H360 H 0.63490 0.52442 -0.35713
 H361 H 0.70542 0.63657 -0.46814
 H362 H 0.69717 0.78108 -0.32458
 H363 H 0.58657 0.67841 -0.11249
 H364 H 0.59746 0.53240 -0.24813
 C365 C 0.15869 1.16949 -0.31125
 C366 C 0.15378 1.20440 -0.37882
 C367 C 0.17660 1.22361 -0.42574
 C368 C 0.20433 1.20749 -0.40685
 C369 C 0.20876 1.17329 -0.33708
 C370 C 0.18604 1.15383 -0.28978
 C371 C 0.13470 1.14874 -0.26226
 C372 C 0.13959 1.11332 -0.19531
 C373 C 0.11670 1.09300 -0.14991
 C374 C 0.08900 1.10766 -0.17125
 C375 C 0.08455 1.14380 -0.23802
 C376 C 0.10733 1.16433 -0.28389
 C377 C 0.19010 1.11846 -0.22207
 C378 C 0.16726 1.09848 -0.17569
 C379 C 0.12612 1.21935 -0.39834
 C380 C 0.10327 1.19963 -0.35167
 H381 H 0.21110 1.10591 -0.20503
 H382 H 0.17128 1.07105 -0.12427
 H383 H 0.12208 1.24629 -0.45044
 H384 H 0.08226 1.21193 -0.36908
 H385 H 0.17275 1.25192 -0.47601
 H386 H 0.22979 1.15996 -0.32176
 H387 H 0.12050 1.06523 -0.09876
 H388 H 0.06339 1.15530 -0.25534
 C389 C 0.34171 0.33453 -0.31331
 C390 C 0.34052 0.27989 -0.32604
 C391 C 0.31754 0.25824 -0.36970
 C392 C 0.29659 0.29116 -0.40320
 C393 C 0.29808 0.34576 -0.39037
 C394 C 0.32047 0.36769 -0.34443
 C395 C 0.36571 0.35748 -0.26697
 C396 C 0.36648 0.41192 -0.25213
 C397 C 0.38919 0.43341 -0.20706
 C398 C 0.41134 0.40109 -0.17949
 C399 C 0.41054 0.34678 -0.19605
 C400 C 0.38749 0.32458 -0.23870
 C401 C 0.32215 0.42204 -0.32921
 C402 C 0.34466 0.44375 -0.28320
 C403 C 0.36252 0.24818 -0.29579
 C404 C 0.38571 0.27020 -0.25343
 H405 H 0.30587 0.44799 -0.35275
 H406 H 0.34510 0.48583 -0.27247
 H407 H 0.36191 0.20604 -0.30559
 H408 H 0.40232 0.24440 -0.23169
 H409 H 0.31632 0.21618 -0.38018
 H410 H 0.28178 0.37089 -0.41618
 H411 H 0.38999 0.47533 -0.19507
 H412 H 0.42756 0.32187 -0.17431
 C413 C -0.15921 0.84211 -0.31714
 C414 C -0.15612 0.79444 -0.36144
 C415 C -0.17918 0.77349 -0.40501
 C416 C -0.20493 0.80048 -0.40635
 C417 C -0.20789 0.84798 -0.36120
 C418 C -0.18498 0.86906 -0.31626
 C419 C -0.13502 0.86404 -0.27047
 C420 C -0.13817 0.91128 -0.22502
 C421 C -0.11519 0.93159 -0.17988
 C422 C -0.08911 0.90532 -0.18094
 C423 C -0.08626 0.85829 -0.22765
 C424 C -0.10922 0.83726 -0.27203
 C425 C -0.18724 0.91652 -0.27069
 C426 C -0.16424 0.93723 -0.22567
 C427 C -0.13003 0.76871 -0.36142
 C428 C -0.10693 0.78986 -0.31768
 H429 H -0.20695 0.93776 -0.26962
 H430 H -0.16687 0.97385 -0.19113
 H431 H -0.12742 0.73199 -0.39572
 H432 H -0.08715 0.76883 -0.31934
 H433 H -0.17720 0.73617 -0.43791
 H434 H -0.22784 0.86848 -0.36192
 H435 H -0.11752 0.96808 -0.14475
 H436 H -0.06632 0.83774 -0.22855
 C437 C 0.34174 0.66617 0.31070
 C438 C 0.32418 0.63274 0.35806
 C439 C 0.30149 0.65429 0.40316
 C440 C 0.29625 0.70866 0.40041
 C441 C 0.31342 0.74143 0.35037
 C442 C 0.33655 0.72045 0.30645
 C443 C 0.36619 0.64398 0.26545
 C444 C 0.38430 0.67758 0.22025
 C445 C 0.40774 0.65627 0.17818
 C446 C 0.41253 0.60181 0.17971
 C447 C 0.39422 0.56868 0.22486
 C448 C 0.37110 0.58959 0.26865
 C449 C 0.35492 0.75271 0.25976
 C450 C 0.37847 0.73168 0.21775
 C451 C 0.32989 0.57859 0.36016
 C452 C 0.35288 0.55733 0.31581
 H453 H 0.35120 0.79465 0.25627
 H454 H 0.39219 0.75797 0.18290
 H455 H 0.31648 0.55243 0.39641
 H456 H 0.35654 0.51536 0.31898
 H457 H 0.28810 0.62915 0.44143
 H458 H 0.30938 0.78333 0.34874
 H459 H 0.42189 0.68161 0.14290
 H460 H 0.39833 0.52686 0.22695
 C461 C -0.16119 1.15417 0.31419
 C462 C -0.17177 1.12644 0.38462
 C463 C -0.19527 1.14611 0.42806
 C464 C -0.20762 1.19433 0.40374
 C465 C -0.19745 1.22007 0.33000
 C466 C -0.17412 1.20047 0.28565
 C467 C -0.13589 1.13473 0.27010
 C468 C -0.12527 1.16259 0.19964
 C469 C -0.10120 1.14391 0.15791
 C470 C -0.08786 1.09820 0.18698
 C471 C -0.09853 1.07074 0.25761
 C472 C -0.12273 1.08876 0.29940
 C473 C -0.16300 1.22706 0.21467
 C474 C -0.13902 1.20836 0.17223
 C475 C -0.15829 1.08017 0.41127
 C476 C -0.13414 1.06167 0.36943
 H477 H -0.17281 1.26284 0.19205
 H478 H -0.13107 1.23009 0.11787
 H479 H -0.16629 1.05838 0.46549
 H480 H -0.12429 1.02595 0.39215
 H481 H -0.20368 1.12428 0.48170
 H482 H -0.20654 1.25713 0.31009
 H483 H -0.09298 1.16441 0.10258
 H484 H -0.08821 1.03512 0.27893
 C485 C 0.65751 0.32734 0.30829
 C486 C 0.66021 0.27241 0.31099
 C487 C 0.68270 0.25019 0.35608
 C488 C 0.70144 0.28250 0.40157
 C489 C 0.69851 0.33743 0.39843
 C490 C 0.67672 0.36017 0.35079
 C491 C 0.63398 0.35092 0.26057
 C492 C 0.63180 0.40587 0.25550
 C493 C 0.60952 0.42804 0.20945
 C494 C 0.58903 0.39565 0.17164
 C495 C 0.59122 0.34075 0.17820
 C496 C 0.61402 0.31807 0.22142
 C497 C 0.67367 0.41496 0.34495
 C498 C 0.65175 0.43744 0.29738
 C499 C 0.64014 0.24086 0.26966
 C500 C 0.61729 0.26330 0.22632
 H501 H 0.68840 0.44070 0.37714
 H502 H 0.65023 0.47988 0.29411
 H503 H 0.64194 0.19845 0.27166
 H504 H 0.60212 0.23755 0.19609
 H505 H 0.68508 0.20786 0.35878
 H506 H 0.71320 0.36214 0.43294
 H507 H 0.60762 0.47041 0.20489
 H508 H 0.57547 0.31594 0.14857
 C509 C 0.15806 0.83469 0.31602
 C510 C 0.15489 0.78640 0.35817
 C511 C 0.17762 0.76567 0.40369
 C512 C 0.20310 0.79337 0.40840
 C513 C 0.20605 0.84162 0.36589
 C514 C 0.18352 0.86257 0.31944
 C515 C 0.13434 0.85629 0.26696
 C516 C 0.13763 0.90421 0.22390
 C517 C 0.11507 0.92441 0.17692
 C518 C 0.08920 0.89754 0.17409
 C519 C 0.08623 0.84963 0.21800
 C520 C 0.10882 0.82864 0.26412
 C521 C 0.18589 0.91069 0.27624
 C522 C 0.16333 0.93115 0.22916
 C523 C 0.12909 0.75978 0.35372
 C524 C 0.10640 0.78064 0.30770
 H525 H 0.20536 0.93265 0.27865
 H526 H 0.16601 0.96838 0.19671
 H527 H 0.12639 0.72258 0.38624
 H528 H 0.08683 0.75896 0.30604
 H529 H 0.17567 0.72786 0.43480
 H530 H 0.22582 0.86265 0.36931
 H531 H 0.11751 0.96160 0.14408
 H532 H 0.06641 0.82870 0.21612
   
