data_POSCAR
  _audit_creation_date              2014-09-24
  _audit_creation_method            'ToBaCCo'
  _symmetry_space_group_name_H-M    'P1'
  _symmetry_Int_Tables_number       1
  _symmetry_cell_setting            triclinic
  loop_
  _symmetry_equiv_pos_as_xyz
 x,y,z
_cell_length_a 42.9750
_cell_length_b 40.3813
_cell_length_c 42.0736
_cell_angle_alpha 88.422400
_cell_angle_beta 89.595600
_cell_angle_gamma 89.906500
loop_
  _atom_site_label
  _atom_site_type_symbol
  _atom_site_fract_x
  _atom_site_fract_y
  _atom_site_fract_z
C1 C 0.19894 0.52635 1.03539
 H2 H 0.20100 0.54620 1.01770
 C3 C 0.17659 0.52820 1.05931
 H4 H 0.16273 0.55053 1.06000
 C5 C 0.21642 0.47449 1.05585
 H6 H 0.23153 0.45323 1.05386
 C7 C 0.19413 0.47516 1.08026
 H8 H 0.19249 0.45377 1.09620
 N9 N 0.21827 0.49987 1.03403
 C10 C 0.29123 0.54522 0.97514
 H11 H 0.29077 0.53018 0.95427
 C12 C 0.31245 0.57133 0.97686
 H13 H 0.32829 0.57634 0.95719
 C14 C 0.27242 0.55585 1.02696
 H15 H 0.25746 0.54922 1.04685
 C16 C 0.29345 0.58182 1.02982
 H17 H 0.29399 0.59538 1.05166
 Zn18 Zn 0.24544 0.50045 0.99859
 N19 N 0.27164 0.53812 0.99993
 C20 C 0.21926 0.52625 0.94008
 N21 N 0.21945 0.50122 0.96241
 C22 C 0.19885 0.47579 0.96130
 C23 C 0.17705 0.47463 0.93700
 C24 C 0.19782 0.52601 0.91516
 C25 C 0.28992 0.45701 1.02443
 C26 C 0.31085 0.43052 1.02499
 C27 C 0.29349 0.41628 0.97260
 C28 C 0.27263 0.44280 0.97319
 N29 N 0.27127 0.46255 0.99885
 H30 H 0.23531 0.54667 0.94178
 H31 H 0.19909 0.45659 0.97975
 H32 H 0.16047 0.45447 0.93713
 H33 H 0.19815 0.54597 0.89746
 H34 H 0.28880 0.47352 1.04422
 H35 H 0.32592 0.42680 1.04530
 H36 H 0.29457 0.40098 0.95187
 H37 H 0.25813 0.44808 0.95280
 C38 C 0.31396 0.58967 1.00468
 C39 C 0.17314 0.50206 1.08209
 C40 C 0.31303 0.41000 0.99868
 C41 C 0.17625 0.49995 0.91346
 C42 C 0.79787 0.53269 -0.04303
 H43 H 0.79825 0.55079 -0.02454
 C44 C 0.82058 0.53357 -0.06694
 H45 H 0.83836 0.55252 -0.06665
 C46 C 0.77525 0.48483 -0.06453
 H47 H 0.75794 0.46546 -0.06309
 C48 C 0.79759 0.48474 -0.08886
 H49 H 0.79679 0.46563 -0.10638
 N50 N 0.77587 0.50852 -0.04217
 C51 C 0.70083 0.54294 0.01883
 H52 H 0.69991 0.52184 0.03523
 C53 C 0.67854 0.56790 0.02075
 H54 H 0.66055 0.56602 0.03887
 C55 C 0.72484 0.57034 -0.02545
 H56 H 0.74247 0.57070 -0.04389
 C57 C 0.70310 0.59618 -0.02412
 H58 H 0.70411 0.61635 -0.04161
 Zn59 Zn 0.74894 0.50638 -0.00635
 N60 N 0.72313 0.54431 -0.00423
 C61 C 0.77471 0.52703 0.05200
 N62 N 0.77448 0.50304 0.02994
 C63 C 0.79401 0.47662 0.03213
 C64 C 0.81436 0.47310 0.05762
 C65 C 0.79532 0.52494 0.07754
 C66 C 0.69990 0.47004 -0.03103
 C67 C 0.67748 0.44511 -0.03205
 C68 C 0.70168 0.41815 0.01342
 C69 C 0.72329 0.44393 0.01396
 N70 N 0.72211 0.46918 -0.00814
 H71 H 0.75954 0.54828 0.04937
 H72 H 0.79372 0.45819 0.01394
 H73 H 0.82901 0.45131 0.05912
 H74 H 0.79590 0.54493 0.09414
 H75 H 0.69917 0.49064 -0.04801
 H76 H 0.65956 0.44645 -0.05001
 H77 H 0.70253 0.39856 0.03150
 H78 H 0.74034 0.44405 0.03262
 C79 C 0.67923 0.59469 -0.00118
 C80 C 0.82086 0.50916 -0.09010
 C81 C 0.67818 0.41888 -0.00950
 C82 C 0.81571 0.49776 0.08055
 C83 C -0.03770 0.29321 0.45850
 H84 H -0.05542 0.29367 0.47689
 C85 C -0.04031 0.31395 0.43163
 H86 H -0.06099 0.32910 0.42960
 C87 C 0.00962 0.27123 0.43925
 H88 H 0.02948 0.25514 0.44271
 C89 C 0.00806 0.29164 0.41194
 H90 H 0.02740 0.29092 0.39541
 N91 N -0.01306 0.27242 0.46186
 C92 C -0.04524 0.19654 0.52977
 H93 H -0.02718 0.19803 0.54746
 C94 C -0.06844 0.17257 0.53311
 H95 H -0.06828 0.15590 0.55372
 C96 C -0.06686 0.21608 0.48110
 H97 H -0.06570 0.23247 0.46042
 C98 C -0.09053 0.19243 0.48349
 H99 H -0.10734 0.19085 0.46454
 Zn100 Zn -0.01065 0.24707 0.50022
 N101 N -0.04479 0.21765 0.50406
 C102 C -0.03198 0.27550 0.55798
 N103 N -0.01048 0.27714 0.53409
 C104 C 0.01175 0.30105 0.53311
 C105 C 0.01359 0.32397 0.55725
 C106 C -0.03097 0.29793 0.58269
 C107 C 0.02912 0.19734 0.47867
 C108 C 0.05531 0.17682 0.47840
 C109 C 0.07457 0.20488 0.52424
 C110 C 0.04806 0.22494 0.52357
 N111 N 0.02610 0.22102 0.50086
 H112 H -0.04990 0.25679 0.55804
 H113 H 0.02821 0.30217 0.51353
 H114 H 0.03141 0.34287 0.55588
 H115 H -0.04785 0.29576 0.60186
 H116 H 0.01103 0.19434 0.46123
 H117 H 0.05710 0.15786 0.46077
 H118 H 0.09192 0.20855 0.54234
 H119 H 0.04499 0.24340 0.54142
 C120 C -0.09124 0.16997 0.50955
 C121 C -0.01694 0.31410 0.40779
 C122 C 0.07845 0.18041 0.50145
 C123 C -0.00781 0.32246 0.58266
 C124 C 0.99741 0.69088 0.51769
 H125 H 0.98155 0.68922 0.49795
 C126 C 0.99620 0.66731 0.54248
 H127 H 0.97956 0.64727 0.54142
 C128 C 1.03837 0.71914 0.54282
 H129 H 1.05472 0.73940 0.54287
 C130 C 1.03795 0.69602 0.56820
 H131 H 1.05376 0.69903 0.58783
 N132 N 1.01769 0.71663 0.51865
 C133 C 0.97049 0.79684 0.46768
 H134 H 0.98757 0.80311 0.44949
 C135 C 0.94294 0.81504 0.46968
 H136 H 0.93921 0.83567 0.45317
 C137 C 0.95545 0.76321 0.51219
 H138 H 0.96055 0.74335 0.52905
 C139 C 0.92753 0.78056 0.51492
 H140 H 0.91122 0.77336 0.53358
 Zn141 Zn 1.01442 0.74869 0.48515
 N142 N 0.97618 0.77145 0.48873
 C143 C 0.99004 0.72459 0.42795
 N144 N 1.01567 0.72574 0.44666
 C145 C 1.04167 0.70804 0.43985
 C146 C 1.04260 0.68818 0.41327
 C147 C 0.98973 0.70452 0.40147
 C148 C 1.04751 0.80002 0.51258
 C149 C 1.07025 0.82446 0.51491
 C150 C 1.09038 0.80899 0.46366
 C151 C 1.06723 0.78486 0.46230
 N152 N 1.04664 0.78052 0.48677
 H153 H 0.96929 0.73810 0.43426
 H154 H 1.06154 0.70894 0.45545
 H155 H 1.06367 0.67451 0.40825
 H156 H 0.96855 0.70279 0.38786
 H157 H 1.03036 0.79662 0.53133
 H158 H 1.07037 0.83988 0.53555
 H159 H 1.10687 0.81166 0.44419
 H160 H 1.06566 0.76988 0.44153
 C161 C 0.92104 0.80702 0.49363
 C162 C 1.01619 0.67007 0.56852
 C163 C 1.09216 0.82913 0.49027
 C164 C 1.01611 0.68554 0.39406
 C165 C 0.47230 -0.01524 0.30985
 H166 H 0.48874 -0.03550 0.31176
 C167 C 0.44705 -0.01393 0.33081
 H168 H 0.44444 -0.03317 0.34906
 C169 C 0.45649 0.03494 0.28422
 H170 H 0.46042 0.05405 0.26617
 C171 C 0.43087 0.03723 0.30473
 H172 H 0.41502 0.05795 0.30192
 N173 N 0.47643 0.00883 0.28699
 C174 C 0.53261 -0.04315 0.21756
 H175 H 0.55370 -0.02855 0.21746
 C176 C 0.53056 -0.07074 0.19837
 H177 H 0.55027 -0.07636 0.18330
 C178 C 0.48101 -0.05142 0.23602
 H179 H 0.46163 -0.04363 0.25051
 C180 C 0.47760 -0.07862 0.21654
 H181 H 0.45575 -0.09187 0.21752
 Zn182 Zn 0.51168 0.00470 0.26013
 N183 N 0.50817 -0.03425 0.23614
 C184 C 0.56271 -0.02706 0.29017
 N185 N 0.54719 0.00221 0.28671
 C186 C 0.55487 0.02877 0.30427
 C187 C 0.57948 0.02670 0.32581
 C188 C 0.58700 -0.03039 0.31184
 C189 C 0.49090 0.04161 0.20821
 C190 C 0.49075 0.06606 0.18417
 C191 C 0.53726 0.08924 0.20653
 C192 C 0.53688 0.06387 0.22988
 N193 N 0.51374 0.04084 0.23042
 H194 H 0.55554 -0.04833 0.27710
 H195 H 0.54143 0.05138 0.30204
 H196 H 0.58506 0.04782 0.34002
 H197 H 0.59867 -0.05406 0.31486
 H198 H 0.47296 0.02284 0.20900
 H199 H 0.47256 0.06612 0.16648
 H200 H 0.55587 0.10730 0.20611
 H201 H 0.55531 0.06244 0.24715
 C202 C 0.50254 -0.08883 0.19707
 C203 C 0.42584 0.01252 0.32838
 C204 C 0.51414 0.09021 0.18316
 C205 C 0.59550 -0.00335 0.33002
 C206 C 0.53386 -0.02754 0.70347
 H207 H 0.51490 -0.04506 0.70248
 C208 C 0.55958 -0.03078 0.68340
 H209 H 0.56004 -0.05076 0.66677
 C210 C 0.55533 0.02072 0.72536
 H211 H 0.55335 0.04116 0.74123
 C212 C 0.58162 0.01827 0.70588
 H213 H 0.59993 0.03650 0.70765
 N214 N 0.53230 -0.00228 0.72410
 C215 C 0.46960 -0.03598 0.79970
 H216 H 0.45274 -0.01607 0.79877
 C217 C 0.46794 -0.06012 0.82400
 H218 H 0.44952 -0.05884 0.84163
 C219 C 0.51490 -0.06102 0.77859
 H220 H 0.53372 -0.06071 0.76144
 C221 C 0.51394 -0.08590 0.80236
 H222 H 0.53204 -0.10458 0.80330
 Zn223 Zn 0.49583 0.00030 0.74930
 N224 N 0.49305 -0.03657 0.77788
 C225 C 0.43948 -0.02232 0.72220
 N226 N 0.46181 0.00151 0.72113
 C227 C 0.46165 0.02613 0.69844
 C228 C 0.43830 0.02753 0.67557
 C229 C 0.41571 -0.02191 0.69970
 C230 C 0.51967 0.04190 0.79526
 C231 C 0.52040 0.06889 0.81523
 C232 C 0.47170 0.08780 0.79274
 C233 C 0.47224 0.06080 0.77268
 N234 N 0.49609 0.03860 0.77420
 H235 H 0.44033 -0.04196 0.74013
 H236 H 0.48002 0.04443 0.69788
 H237 H 0.43895 0.04694 0.65731
 H238 H 0.39808 -0.04105 0.70088
 H239 H 0.53785 0.02336 0.79664
 H240 H 0.53925 0.07115 0.83198
 H241 H 0.45244 0.10512 0.79163
 H242 H 0.45324 0.05722 0.75646
 C243 C 0.49062 -0.08514 0.82584
 C244 C 0.58400 -0.00774 0.68450
 C245 C 0.49607 0.09205 0.81421
 C246 C 0.41504 0.00315 0.67587
 C247 C 0.25513 0.01214 0.49773
 C248 C 0.75124 -0.02059 0.51188
 C249 C 0.49845 0.25359 0.99450
 C250 C 0.49392 0.75255 0.01602
 C251 C 0.99359 0.49778 0.23942
 C252 C 0.00110 0.49921 0.75087
 C253 C 0.15716 0.11372 0.50379
 C254 C 0.14655 0.12752 0.47451
 C255 C 0.12115 0.14947 0.47393
 C256 C 0.10603 0.15816 0.50220
 C257 C 0.11705 0.14505 0.53122
 C258 C 0.14226 0.12320 0.53208
 C259 C 0.18352 0.08930 0.50324
 C260 C 0.19432 0.07247 0.53075
 C261 C 0.21792 0.04887 0.52885
 C262 C 0.23251 0.04186 0.49969
 C263 C 0.22120 0.05822 0.47203
 C264 C 0.19716 0.08176 0.47362
 C265 C 0.16122 0.11918 0.44599
 C266 C 0.18605 0.09692 0.44557
 H267 H 0.15325 0.12988 0.42358
 H268 H 0.19642 0.09113 0.42283
 H269 H 0.11318 0.15993 0.45141
 H270 H 0.10572 0.15116 0.55338
 H271 H 0.22436 0.03539 0.55041
 H272 H 0.23017 0.05172 0.44891
 H273 H 0.14953 0.11393 0.55513
 H274 H 0.18428 0.07639 0.55389
 C275 C 0.60397 0.66549 0.00136
 C276 C 0.59810 0.63099 0.00074
 C277 C 0.62282 0.60842 -0.00037
 C278 C 0.65370 0.61939 -0.00125
 C279 C 0.65971 0.65353 -0.00175
 C280 C 0.63517 0.67638 -0.00027
 C281 C 0.57660 0.68858 0.00400
 C282 C 0.57943 0.72325 0.00568
 C283 C 0.55304 0.74331 0.00924
 C284 C 0.52289 0.72961 0.01197
 C285 C 0.52025 0.69507 0.00795
 C286 C 0.54644 0.67473 0.00493
 C287 C 0.56758 0.61904 0.00137
 C288 C 0.54233 0.64044 0.00315
 H289 H 0.56313 0.59266 0.00061
 H290 H 0.51916 0.62985 0.00373
 H291 H 0.61804 0.58206 -0.00063
 H292 H 0.68346 0.66248 -0.00256
 H293 H 0.55621 0.76985 0.01043
 H294 H 0.49785 0.68318 0.00678
 H295 H 0.64107 0.70233 -0.00022
 H296 H 0.60179 0.73533 0.00453
 C297 C 0.84039 -0.13050 0.50486
 C298 C 0.85078 -0.13898 0.47413
 C299 C 0.87636 -0.16028 0.47060
 C300 C 0.89235 -0.17286 0.49732
 C301 C 0.88155 -0.16496 0.52773
 C302 C 0.85587 -0.14429 0.53152
 C303 C 0.81446 -0.10585 0.50758
 C304 C 0.80346 -0.09476 0.53697
 C305 C 0.78198 -0.06899 0.53833
 C306 C 0.76970 -0.05379 0.51044
 C307 C 0.77992 -0.06598 0.48098
 C308 C 0.80192 -0.09164 0.47939
 C309 C 0.83625 -0.12532 0.44711
 C310 C 0.81244 -0.10204 0.44969
 H311 H 0.84401 -0.13199 0.42357
 H312 H 0.80263 -0.09142 0.42803
 H313 H 0.88416 -0.16663 0.44698
 H314 H 0.89360 -0.17394 0.54879
 H315 H 0.77689 -0.05924 0.56149
 H316 H 0.77220 -0.05431 0.45895
 H317 H 0.84912 -0.13884 0.55553
 H318 H 0.81217 -0.10449 0.55930
 C319 C 0.38507 0.33565 0.99726
 C320 C 0.38029 0.35722 0.97063
 C321 C 0.35599 0.38046 0.97086
 C322 C 0.33683 0.38346 0.99774
 C323 C 0.34163 0.36223 1.02418
 C324 C 0.36531 0.33848 1.02395
 C325 C 0.41200 0.31199 0.99644
 C326 C 0.41796 0.28832 1.02083
 C327 C 0.44472 0.26863 1.02012
 C328 C 0.46692 0.27250 0.99543
 C329 C 0.45926 0.29398 0.96958
 C330 C 0.43241 0.31368 0.96999
 C331 C 0.40048 0.35637 0.94440
 C332 C 0.42622 0.33537 0.94427
 H333 H 0.39685 0.37289 0.92402
 H334 H 0.44168 0.33634 0.92379
 H335 H 0.35283 0.39727 0.95059
 H336 H 0.32706 0.36413 1.04517
 H337 H 0.44758 0.25052 1.03920
 H338 H 0.47520 0.29635 0.94955
 H339 H 0.36821 0.32318 1.04514
 H340 H 0.40221 0.28458 1.04067
 C341 C 0.84373 0.08863 0.51255
 C342 C 0.83346 0.12079 0.50347
 C343 C 0.85460 0.14742 0.50263
 C344 C 0.88590 0.14245 0.51107
 C345 C 0.89577 0.11057 0.52036
 C346 C 0.87510 0.08408 0.52117
 C347 C 0.82077 0.06076 0.51255
 C348 C 0.82913 0.02800 0.52015
 C349 C 0.80733 0.00268 0.51976
 C350 C 0.77575 0.00844 0.51174
 C351 C 0.76755 0.04177 0.50414
 C352 C 0.78961 0.06757 0.50425
 C353 C 0.80221 0.12607 0.49533
 C354 C 0.78074 0.10008 0.49587
 H355 H 0.79421 0.15069 0.48847
 H356 H 0.75686 0.10549 0.48941
 H357 H 0.84666 0.17205 0.49568
 H358 H 0.91985 0.10590 0.52649
 H359 H 0.81641 -0.02143 0.52586
 H360 H 0.74381 0.04779 0.49765
 H361 H 0.88438 0.06031 0.52852
 H362 H 0.85257 0.02105 0.52638
 C363 C 0.38577 0.66291 0.01527
 C364 C 0.36713 0.66328 -0.01237
 C365 C 0.34365 0.63944 -0.01573
 C366 C 0.33806 0.61545 0.00837
 C367 C 0.35595 0.61574 0.03608
 C368 C 0.37952 0.63903 0.03953
 C369 C 0.41176 0.68752 0.01715
 C370 C 0.43256 0.68799 0.04277
 C371 C 0.45778 0.70962 0.04230
 C372 C 0.46347 0.73162 0.01624
 C373 C 0.44102 0.73312 -0.00812
 C374 C 0.41603 0.71067 -0.00832
 C375 C 0.37217 0.68729 -0.03650
 C376 C 0.39588 0.71066 -0.03439
 H377 H 0.35770 0.68786 -0.05751
 H378 H 0.39900 0.72846 -0.05390
 H379 H 0.32959 0.63961 -0.03704
 H380 H 0.35214 0.59735 0.05493
 H381 H 0.47395 0.70818 0.06193
 H382 H 0.44281 0.75107 -0.02749
 H383 H 0.39263 0.63767 0.06127
 H384 H 0.43041 0.67126 0.06306
 C385 C 0.16286 -0.09549 0.49659
 C386 C 0.14813 -0.10121 0.46727
 C387 C 0.12513 -0.12574 0.46536
 C388 C 0.11659 -0.14505 0.49228
 C389 C 0.13156 -0.13963 0.52119
 C390 C 0.15439 -0.11528 0.52338
 C391 C 0.18691 -0.06868 0.49773
 C392 C 0.20160 -0.05980 0.52602
 C393 C 0.22367 -0.03454 0.52594
 C394 C 0.23274 -0.01783 0.49750
 C395 C 0.21680 -0.02556 0.46948
 C396 C 0.19442 -0.05085 0.46932
 C397 C 0.15642 -0.08245 0.44002
 C398 C 0.17918 -0.05794 0.44099
 H399 H 0.14520 -0.08686 0.41754
 H400 H 0.18480 -0.04418 0.41922
 H401 H 0.11356 -0.12948 0.44293
 H402 H 0.12588 -0.15460 0.54218
 H403 H 0.23316 -0.02771 0.54858
 H404 H 0.22166 -0.01155 0.44768
 H405 H 0.16520 -0.11258 0.54620
 H406 H 0.19596 -0.07153 0.54864
 C407 C 0.60516 0.34584 0.99467
 C408 C 0.59811 0.38014 0.99414
 C409 C 0.62207 0.40363 0.99211
 C410 C 0.65327 0.39364 0.99147
 C411 C 0.66042 0.35976 0.99282
 C412 C 0.63670 0.33607 0.99414
 C413 C 0.57863 0.32162 0.99590
 C414 C 0.58276 0.28704 0.99513
 C415 C 0.55710 0.26576 0.99516
 C416 C 0.52636 0.27809 0.99549
 C417 C 0.52252 0.31261 0.99868
 C418 C 0.54800 0.33421 0.99777
 C419 C 0.56721 0.39090 0.99602
 C420 C 0.54274 0.36844 0.99820
 H421 H 0.56185 0.41714 0.99594
 H422 H 0.51923 0.37808 0.99963
 H423 H 0.61650 0.42985 0.99175
 H424 H 0.68445 0.35163 0.99254
 H425 H 0.56123 0.23935 0.99412
 H426 H 0.49977 0.32341 1.00191
 H427 H 0.64352 0.31035 0.99493
 H428 H 0.60556 0.27592 0.99403
 C429 C 0.51295 0.16269 1.10610
 C430 C 0.51339 0.12834 1.10008
 C431 C 0.51400 0.10506 1.12539
 C432 C 0.51491 0.11528 1.15689
 C433 C 0.51583 0.14920 1.16298
 C434 C 0.51466 0.17272 1.13792
 C435 C 0.51048 0.18664 1.07823
 C436 C 0.50803 0.22119 1.08135
 C437 C 0.50448 0.24214 1.05455
 C438 C 0.50280 0.22949 1.02368
 C439 C 0.50744 0.19506 1.02065
 C440 C 0.51017 0.17377 1.04734
 C441 C 0.51318 0.11732 1.06886
 C442 C 0.51203 0.13955 1.04307
 H443 H 0.51388 0.09104 1.06428
 H444 H 0.51184 0.12969 1.01936
 H445 H 0.51385 0.07879 1.12063
 H446 H 0.51668 0.15750 1.18722
 H447 H 0.50239 0.26855 1.05794
 H448 H 0.50907 0.18409 0.99760
 H449 H 0.51498 0.19851 1.14394
 H450 H 0.50835 0.23251 1.10426
 C451 C 0.00698 0.60103 0.64821
 C452 C 0.03686 0.61125 0.63751
 C453 C 0.03984 0.63390 0.61167
 C454 C 0.01337 0.64664 0.59621
 C455 C -0.01617 0.63698 0.60737
 C456 C -0.01940 0.61460 0.63299
 C457 C 0.00475 0.57610 0.67521
 C458 C -0.02375 0.56293 0.68621
 C459 C -0.02464 0.53919 0.71084
 C460 C 0.00269 0.52835 0.72626
 C461 C 0.03137 0.54059 0.71437
 C462 C 0.03255 0.56439 0.68938
 C463 C 0.06353 0.59867 0.65255
 C464 C 0.06142 0.57587 0.67800
 H465 H 0.08642 0.60654 0.64449
 H466 H 0.08276 0.56685 0.68875
 H467 H 0.06280 0.64115 0.60323
 H468 H -0.03699 0.64706 0.59642
 H469 H -0.04702 0.52882 0.71756
 H470 H 0.05300 0.53091 0.72389
 H471 H -0.04276 0.60841 0.64046
 H472 H -0.04566 0.56996 0.67568
 C473 C 0.49426 0.84844 -0.09237
 C474 C 0.49660 0.83569 -0.12328
 C475 C 0.49572 0.85737 -0.15005
 C476 C 0.49139 0.89155 -0.14637
 C477 C 0.48813 0.90386 -0.11572
 C478 C 0.48954 0.88271 -0.08908
 C479 C 0.49596 0.82480 -0.06441
 C480 C 0.49704 0.83551 -0.03301
 C481 C 0.49708 0.81284 -0.00754
 C482 C 0.49526 0.77835 -0.01220
 C483 C 0.49711 0.76764 -0.04389
 C484 C 0.49729 0.79047 -0.06981
 C485 C 0.49917 0.80140 -0.12717
 C486 C 0.49897 0.77925 -0.10103
 H487 H 0.50076 0.79150 -0.15080
 H488 H 0.50036 0.75295 -0.10532
 H489 H 0.49776 0.84765 -0.17374
 H490 H 0.48490 0.93014 -0.11230
 H491 H 0.49889 0.82316 0.01574
 H492 H 0.49765 0.74132 -0.04831
 H493 H 0.48651 0.89371 -0.06620
 H494 H 0.49831 0.86139 -0.02748
 C495 C 0.98300 0.38493 0.33033
 C496 C 0.96671 0.39115 0.35889
 C497 C 0.96614 0.36736 0.38375
 C498 C 0.98213 0.33698 0.38145
 C499 C 0.99806 0.33091 0.35269
 C500 C 0.99843 0.35438 0.32759
 C501 C 0.98421 0.41188 0.30502
 C502 C 0.99869 0.40822 0.27510
 C503 C 1.00106 0.43515 0.25346
 C504 C 0.99035 0.46680 0.26164
 C505 C 0.97266 0.46916 0.28985
 C506 C 0.97007 0.44255 0.31159
 C507 C 0.95192 0.42163 0.36311
 C508 C 0.95374 0.44686 0.34006
 H509 H 0.93934 0.42638 0.38495
 H510 H 0.94257 0.47031 0.34483
 H511 H 0.95479 0.37397 0.40572
 H512 H 1.00982 0.30765 0.34892
 H513 H 1.01162 0.43118 0.23047
 H514 H 0.96140 0.49232 0.29544
 H515 H 1.01130 0.34833 0.30642
 H516 H 1.00825 0.38482 0.26800
 C517 C 0.49323 0.83567 0.12892
 C518 C 0.52204 0.84063 0.14400
 C519 C 0.52497 0.86526 0.16676
 C520 C 0.49919 0.88467 0.17584
 C521 C 0.47007 0.87756 0.16239
 C522 C 0.46717 0.85371 0.13922
 C523 C 0.49191 0.81187 0.10223
 C524 C 0.46568 0.80886 0.08280
 C525 C 0.46656 0.78891 0.05634
 C526 C 0.49349 0.77076 0.04823
 C527 C 0.51889 0.77168 0.06931
 C528 C 0.51877 0.79313 0.09513
 C529 C 0.54778 0.82102 0.13619
 C530 C 0.54597 0.79725 0.11280
 H531 H 0.56975 0.82422 0.14821
 H532 H 0.56663 0.78296 0.10748
 H533 H 0.54734 0.86863 0.17792
 H534 H 0.44953 0.89178 0.16809
 H535 H 0.44639 0.78887 0.04105
 H536 H 0.53944 0.75697 0.06543
 H537 H 0.44435 0.85007 0.12943
 H538 H 0.44468 0.82288 0.08668
 C539 C -0.00112 0.39314 0.65764
 C540 C -0.03061 0.38309 0.64668
 C541 C -0.03271 0.35990 0.62245
 C542 C -0.00574 0.34627 0.60893
 C543 C 0.02339 0.35568 0.62049
 C544 C 0.02574 0.37869 0.64449
 C545 C 0.00016 0.41892 0.68263
 C546 C 0.02827 0.43233 0.69332
 C547 C 0.02829 0.45708 0.71575
 C548 C 0.00040 0.46870 0.72937
 C549 C -0.02783 0.45605 0.71782
 C550 C -0.02812 0.43135 0.69491
 C551 C -0.05779 0.39638 0.65981
 C552 C -0.05658 0.41981 0.68353
 H553 H -0.08039 0.38859 0.65157
 H554 H -0.07829 0.42938 0.69280
 H555 H -0.05537 0.35297 0.61368
 H556 H 0.04455 0.34498 0.61109
 H557 H 0.05044 0.46770 0.72204
 H558 H -0.04977 0.46623 0.72578
 H559 H 0.04881 0.38469 0.65240
 H560 H 0.05054 0.42479 0.68403
 C561 C 0.49616 0.16892 0.88295
 C562 C 0.47025 0.14754 0.88043
 C563 C 0.46978 0.12363 0.85686
 C564 C 0.49548 0.11951 0.83667
 C565 C 0.52133 0.14028 0.83944
 C566 C 0.52163 0.16491 0.86209
 C567 C 0.49614 0.19343 0.90906
 C568 C 0.51944 0.21754 0.91217
 C569 C 0.51985 0.23793 0.93845
 C570 C 0.49753 0.23425 0.96306
 C571 C 0.47248 0.21240 0.95811
 C572 C 0.47164 0.19219 0.93158
 C573 C 0.44566 0.14911 0.90236
 C574 C 0.44663 0.17051 0.92776
 H575 H 0.42586 0.13269 0.90051
 H576 H 0.42756 0.16995 0.94476
 H577 H 0.45006 0.10705 0.85521
 H578 H 0.54145 0.13724 0.82414
 H579 H 0.53795 0.25636 0.93904
 H580 H 0.45414 0.21021 0.97587
 H581 H 0.54235 0.17983 0.86355
 H582 H 0.53751 0.22111 0.89448
 C583 C 1.00934 0.61213 0.32160
 C584 C 1.02769 0.60626 0.34901
 C585 C 1.03020 0.63051 0.37199
 C586 C 1.01509 0.66118 0.36818
 C587 C 0.99783 0.66747 0.34042
 C588 C 0.99488 0.64329 0.31746
 C589 C 1.00565 0.58453 0.29874
 C590 C 0.98691 0.58694 0.27138
 C591 C 0.98296 0.55968 0.25193
 C592 C 0.99704 0.52899 0.25961
 C593 C 1.01784 0.52767 0.28535
 C594 C 1.02144 0.55442 0.30531
 C595 C 1.04307 0.57599 0.35373
 C596 C 1.04025 0.55073 0.33218
 H597 H 1.05735 0.57164 0.37458
 H598 H 1.05241 0.52763 0.33706
 H599 H 1.04316 0.62489 0.39348
 H600 H 0.98639 0.69111 0.33646
 H601 H 0.96899 0.56291 0.23081
 H602 H 1.03066 0.50502 0.29050
 H603 H 0.98103 0.64939 0.29683
 H604 H 0.97497 0.60955 0.26467
 C605 C 1.09914 0.50465 0.15020
 C606 C 1.12582 0.48523 0.15664
 C607 C 1.15042 0.48450 0.13434
 C608 C 1.14876 0.50264 0.10513
 C609 C 1.12144 0.52106 0.09896
 C610 C 1.09722 0.52204 0.12092
 C611 C 1.07339 0.50489 0.17425
 C612 C 1.04718 0.52537 0.17070
 C613 C 1.02267 0.52304 0.19221
 C614 C 1.02290 0.49984 0.21787
 C615 C 1.05077 0.48222 0.22372
 C616 C 1.07569 0.48412 0.20175
 C617 C 1.12749 0.46630 0.18507
 C618 C 1.10282 0.46546 0.20696
 H619 H 1.14790 0.45135 0.19018
 H620 H 1.10496 0.44984 0.22820
 H621 H 1.17107 0.47041 0.14045
 H622 H 1.11763 0.53374 0.07636
 H623 H 1.00275 0.53903 0.18820
 H624 H 1.05326 0.46704 0.24513
 H625 H 1.07683 0.53596 0.11399
 H626 H 1.04497 0.54338 0.15147
 C627 C 0.66070 -0.01643 0.61848
 C628 C 0.64964 0.01517 0.62692
 C629 C 0.62502 0.01790 0.64881
 C630 C 0.61130 -0.01052 0.66287
 C631 C 0.62333 -0.04173 0.65552
 C632 C 0.64766 -0.04473 0.63368
 C633 C 0.68540 -0.01833 0.59326
 C634 C 0.69575 -0.04842 0.58108
 C635 C 0.71723 -0.04892 0.55618
 C636 C 0.73020 -0.01952 0.54252
 C637 C 0.71989 0.01062 0.55541
 C638 C 0.69761 0.01142 0.58001
 C639 C 0.66293 0.04382 0.61316
 C640 C 0.68664 0.04199 0.59050
 H641 H 0.65473 0.06807 0.61986
 H642 H 0.69595 0.06492 0.58041
 H643 H 0.61595 0.04219 0.65415
 H644 H 0.61386 -0.06403 0.66670
 H645 H 0.72274 -0.07297 0.54697
 H646 H 0.72803 0.03405 0.54619
 H647 H 0.65579 -0.06941 0.62904
 H648 H 0.68677 -0.07196 0.58961
 C649 C -0.10436 0.50829 0.84061
 C650 C -0.11557 0.47826 0.85451
 C651 C -0.14018 0.47866 0.87670
 C652 C -0.15407 0.50866 0.88533
 C653 C -0.14331 0.53830 0.87100
 C654 C -0.11891 0.53819 0.84892
 C655 C -0.07754 0.50685 0.81762
 C656 C -0.06356 0.53537 0.80394
 C657 C -0.03875 0.53279 0.78260
 C658 C -0.02750 0.50169 0.77323
 C659 C -0.04014 0.47321 0.78855
 C660 C -0.06515 0.47552 0.81012
 C661 C -0.10206 0.44804 0.84632
 C662 C -0.07752 0.44669 0.82450
 H663 H -0.11064 0.42501 0.85689
 H664 H -0.06798 0.42266 0.81891
 H665 H -0.14808 0.45559 0.88778
 H666 H -0.15395 0.56173 0.87677
 H667 H -0.02819 0.55549 0.77356
 H668 H -0.03040 0.44909 0.78372
 H669 H -0.11188 0.56178 0.83863
 H670 H -0.07106 0.55998 0.80973
 C671 C 0.34955 0.01732 0.39568
 C672 C 0.35813 -0.01318 0.38227
 C673 C 0.38254 -0.01440 0.35997
 C674 C 0.39895 0.01437 0.35073
 C675 C 0.38999 0.04468 0.36354
 C676 C 0.36563 0.04622 0.38564
 C677 C 0.32411 0.01725 0.42037
 C678 C 0.31478 0.04588 0.43629
 C679 C 0.29198 0.04420 0.46008
 C680 C 0.27690 0.01417 0.46831
 C681 C 0.28674 -0.01459 0.45279
 C682 C 0.30972 -0.01321 0.42892
 C683 C 0.34260 -0.04239 0.39146
 C684 C 0.31894 -0.04240 0.41427
 H685 H 0.34906 -0.06572 0.38110
 H686 H 0.30790 -0.06576 0.42078
 H687 H 0.38882 -0.03788 0.34979
 H688 H 0.40235 0.06724 0.35703
 H689 H 0.28650 0.06653 0.47265
 H690 H 0.27738 -0.03852 0.46002
 H691 H 0.36002 0.07021 0.39478
 H692 H 0.32530 0.06969 0.43131
 C693 C 0.10424 0.49670 0.84241
 C694 C 0.11372 0.52741 0.85453
 C695 C 0.13750 0.52846 0.87728
 C696 C 0.15246 0.49928 0.88793
 C697 C 0.14386 0.46910 0.87476
 C698 C 0.12015 0.46775 0.85235
 C699 C 0.07785 0.49642 0.81928
 C700 C 0.06469 0.46699 0.80836
 C701 C 0.04031 0.46797 0.78665
 C702 C 0.02888 0.49829 0.77407
 C703 C 0.04048 0.52771 0.78685
 C704 C 0.06482 0.52701 0.80899
 C705 C 0.09939 0.55683 0.84389
 C706 C 0.07576 0.55667 0.82131
 H707 H 0.10672 0.58041 0.85298
 H708 H 0.06564 0.58014 0.81366
 H709 H 0.14383 0.55198 0.88722
 H710 H 0.15557 0.44631 0.88178
 H711 H 0.03029 0.44468 0.77982
 H712 H 0.03043 0.55133 0.77960
 H713 H 0.11477 0.44383 0.84304
 H714 H 0.07243 0.44291 0.81676
 C715 C 0.66246 -0.01542 0.40503
 C716 C 0.66687 0.00944 0.38105
 C717 C 0.64486 0.01360 0.35663
 C718 C 0.61903 -0.00750 0.35525
 C719 C 0.61532 -0.03279 0.37838
 C720 C 0.63657 -0.03665 0.40305
 C721 C 0.68551 -0.01800 0.43154
 C722 C 0.68216 -0.04057 0.45726
 C723 C 0.70341 -0.04125 0.48203
 C724 C 0.72880 -0.01914 0.48281
 C725 C 0.73370 0.00132 0.45535
 C726 C 0.71169 0.00311 0.43070
 C727 C 0.69328 0.02974 0.38152
 C728 C 0.71547 0.02626 0.40551
 H729 H 0.69694 0.04852 0.36299
 H730 H 0.73551 0.04253 0.40473
 H731 H 0.64796 0.03292 0.33848
 H732 H 0.59550 -0.04929 0.37765
 H733 H 0.69970 -0.05985 0.50042
 H734 H 0.75471 0.01574 0.45249
 H735 H 0.63221 -0.05643 0.42020
 H736 H 0.66312 -0.05788 0.45901
 C737 C 0.88575 0.49406 0.15402
 C738 C 0.89147 0.48029 0.12394
 C739 C 0.86862 0.48173 0.10041
 C740 C 0.83936 0.49588 0.10628
 C741 C 0.83335 0.50867 0.13645
 C742 C 0.85624 0.50796 0.15997
 C743 C 0.91170 0.49370 0.17777
 C744 C 0.90934 0.50798 0.20792
 C745 C 0.93511 0.50886 0.22811
 C746 C 0.96419 0.49634 0.21847
 C747 C 0.96535 0.47887 0.18993
 C748 C 0.94013 0.47864 0.16919
 C749 C 0.92007 0.46534 0.11727
 C750 C 0.94375 0.46418 0.13956
 H751 H 0.92428 0.45448 0.09435
 H752 H 0.96557 0.45255 0.13313
 H753 H 0.87409 0.47238 0.07713
 H754 H 0.81085 0.51920 0.14202
 H755 H 0.93231 0.51984 0.25111
 H756 H 0.98653 0.46623 0.18313
 H757 H 0.85040 0.51840 0.18257
 H758 H 0.88797 0.51896 0.21617
 C759 C 0.34670 0.00356 0.60116
 C760 C 0.35504 0.03343 0.61572
 C761 C 0.37708 0.03311 0.64022
 C762 C 0.39091 0.00330 0.65079
 C763 C 0.38209 -0.02634 0.63679
 C764 C 0.36029 -0.02629 0.61236
 C765 C 0.32359 0.00508 0.57461
 C766 C 0.31533 -0.02280 0.55723
 C767 C 0.29349 -0.02021 0.53297
 C768 C 0.27825 0.00996 0.52573
 C769 C 0.28814 0.03835 0.54163
 C770 C 0.31020 0.03605 0.56608
 C771 C 0.34128 0.06341 0.60582
 C772 C 0.31921 0.06466 0.58168
 H773 H 0.34758 0.08629 0.61702
 H774 H 0.30913 0.08846 0.57504
 H775 H 0.38331 0.05609 0.65127
 H776 H 0.39257 -0.04964 0.64432
 H777 H 0.28831 -0.04216 0.51978
 H778 H 0.27902 0.06249 0.53478
 H779 H 0.35447 -0.04989 0.60263
 H780 H 0.32572 -0.04679 0.56166
   
