data_POSCAR
  _audit_creation_date              2014-09-24
  _audit_creation_method            'ToBaCCo'
  _symmetry_space_group_name_H-M    'P1'
  _symmetry_Int_Tables_number       1
  _symmetry_cell_setting            triclinic
  loop_
  _symmetry_equiv_pos_as_xyz
 x,y,z
_cell_length_a 34.1749
_cell_length_b 34.8328
_cell_length_c 19.9025
_cell_angle_alpha 89.929800
_cell_angle_beta 90.080900
_cell_angle_gamma 119.489800
loop_
  _atom_site_label
  _atom_site_type_symbol
  _atom_site_fract_x
  _atom_site_fract_y
  _atom_site_fract_z
C1 C 0.44713 0.88206 0.49996
 C2 C 0.45342 0.90387 0.56190
 C3 C 0.47519 0.95044 0.56125
 C4 C 0.49452 0.97507 0.50205
 C5 C 0.48913 0.95163 0.44181
 C6 C 0.46418 0.90547 0.44002
 C7 C 0.52059 1.02485 0.50358
 C8 C 0.52737 1.05011 0.44461
 C9 C 0.55354 1.09668 0.44492
 C10 C 0.56919 1.11782 0.50738
 C11 C 0.56170 1.09375 0.56687
 C12 C 0.53927 1.04764 0.56411
 H13 H 0.42678 0.84654 0.49727
 H14 H 0.47862 0.96762 0.60761
 H15 H 0.50465 0.96860 0.39568
 H16 H 0.51363 1.03341 0.39787
 H17 H 0.58527 1.15338 0.51085
 H18 H 0.53722 1.03014 0.60993
 C19 C 0.11935 0.56818 0.49848
 C20 C 0.09658 0.56177 0.56011
 C21 C 0.04909 0.53899 0.55892
 C22 C 0.02460 0.51974 0.49954
 C23 C 0.04886 0.52534 0.43973
 C24 C 0.09584 0.55068 0.43837
 C25 C -0.02597 0.49400 0.50004
 C26 C -0.05096 0.48816 0.44068
 C27 C -0.09835 0.46269 0.43952
 C28 C -0.12074 0.44605 0.50116
 C29 C -0.09682 0.45258 0.56126
 C30 C -0.04974 0.47509 0.55986
 H31 H 0.15564 0.58571 0.49660
 H32 H 0.03119 0.53799 0.60407
 H33 H 0.03170 0.50968 0.39364
 H34 H -0.03363 0.50514 0.39552
 H35 H -0.15696 0.42670 0.50306
 H36 H -0.03208 0.47707 0.60594
 C37 C 0.44150 0.56171 0.49570
 C38 C 0.45495 0.55236 0.55770
 C39 C 0.47621 0.52635 0.55700
 C40 C 0.48084 0.50696 0.49728
 C41 C 0.46487 0.51569 0.43693
 C42 C 0.44711 0.54434 0.43545
 C43 C 0.50286 0.47853 0.49779
 C44 C 0.51961 0.47000 0.43804
 C45 C 0.53862 0.44229 0.43773
 C46 C 0.54418 0.42540 0.49863
 C47 C 0.52953 0.43449 0.55919
 C48 C 0.50752 0.45954 0.55803
 H49 H 0.42420 0.58063 0.49355
 H50 H 0.49107 0.52313 0.60294
 H51 H 0.46654 0.50105 0.39010
 H52 H 0.51788 0.48430 0.39085
 H53 H 0.56125 0.40617 0.49897
 H54 H 0.49377 0.46340 0.60469
 O55 O 0.40028 0.67278 -0.08117
 O56 O 0.40274 0.74712 -0.05665
 C57 C 0.37419 0.75401 -0.08761
 O58 O 0.33294 0.73568 -0.07247
 O59 O 0.25682 0.66364 -0.05452
 C60 C 0.25134 0.63185 -0.09195
 O61 O 0.27091 0.60952 -0.08242
 O62 O 0.34378 0.60439 -0.06521
 C63 C 0.37838 0.63247 -0.09674
 O64 O 0.40183 0.65753 0.05212
 O65 O 0.40169 0.73064 0.07666
 C66 C 0.38073 0.75067 0.09263
 O67 O 0.34620 0.74608 0.06165
 O68 O 0.27224 0.67162 0.07960
 C69 C 0.25176 0.63037 0.08922
 O70 O 0.25629 0.60331 0.05181
 O71 O 0.33152 0.60279 0.06899
 C72 C 0.37295 0.62346 0.08343
 Cr73 Cr 0.39915 0.70085 -0.00223
 Cr74 Cr 0.30325 0.70301 0.00341
 Cr75 Cr 0.30187 0.60741 -0.00656
 O76 O 0.33485 0.67047 -0.00177
 O77 O 0.59584 0.32041 -0.07824
 O78 O 0.60084 0.24974 -0.05295
 C79 C 0.63125 0.24562 -0.08345
 O80 O 0.67257 0.26718 -0.06862
 O81 O 0.74487 0.34300 -0.05189
 C82 C 0.74738 0.37362 -0.08949
 O83 O 0.72474 0.39295 -0.08012
 O84 O 0.64807 0.39072 -0.06281
 C85 C 0.61465 0.36071 -0.09412
 O86 O 0.59318 0.33517 0.05505
 O87 O 0.60078 0.26601 0.08026
 C88 C 0.62498 0.24943 0.09677
 O89 O 0.66042 0.25691 0.06563
 O90 O 0.73020 0.33462 0.08240
 C91 C 0.74743 0.37569 0.09169
 O92 O 0.73987 0.40076 0.05401
 O93 O 0.66124 0.39384 0.07137
 C94 C 0.62012 0.37025 0.08622
 Cr95 Cr 0.60013 0.29418 0.00101
 Cr96 Cr 0.70064 0.30150 0.00668
 Cr97 Cr 0.69241 0.39216 -0.00423
 O98 O 0.66430 0.32922 0.00109
 C99 C 0.41398 0.83132 -0.25501
 C100 C 0.42413 0.81410 -0.31137
 C101 C 0.43652 0.83770 -0.37155
 C102 C 0.43914 0.87945 -0.37701
 C103 C 0.42848 0.89620 -0.31924
 C104 C 0.41599 0.87230 -0.25905
 C105 C 0.40078 0.80613 -0.19374
 C106 C 0.38916 0.78331 -0.14415
 H107 H 0.42286 0.78243 -0.30870
 H108 H 0.44601 0.82366 -0.41259
 H109 H 0.42796 0.92697 -0.32037
 H110 H 0.40759 0.88567 -0.21580
 C111 C 0.17102 0.60144 -0.25741
 C112 C 0.19009 0.62436 -0.31685
 C113 C 0.16535 0.61231 -0.37654
 C114 C 0.12071 0.57670 -0.37830
 C115 C 0.10154 0.55496 -0.31690
 C116 C 0.12655 0.56713 -0.25736
 C117 C 0.19794 0.61197 -0.19743
 C118 C 0.22165 0.62085 -0.14848
 H119 H 0.22442 0.65137 -0.31729
 H120 H 0.18137 0.63185 -0.42069
 H121 H 0.06812 0.52665 -0.31480
 H122 H 0.11151 0.54894 -0.21160
 C123 C 0.42156 0.59439 -0.26134
 C124 C 0.42761 0.55754 -0.26110
 C125 C 0.44001 0.54443 -0.32006
 C126 C 0.44623 0.56781 -0.38098
 C127 C 0.44135 0.60586 -0.37930
 C128 C 0.42909 0.61882 -0.32025
 C129 C 0.40654 0.60679 -0.20190
 C130 C 0.39362 0.61796 -0.15329
 H131 H 0.42175 0.53829 -0.21566
 H132 H 0.44200 0.51441 -0.31807
 H133 H 0.44789 0.62661 -0.42301
 H134 H 0.42515 0.64785 -0.32075
 C135 C 0.59845 0.16516 -0.24680
 C136 C 0.62840 0.17995 -0.30099
 C137 C 0.61715 0.15605 -0.36098
 C138 C 0.57567 0.11701 -0.36757
 C139 C 0.54630 0.10174 -0.31218
 C140 C 0.55761 0.12575 -0.25221
 C141 C 0.60889 0.19175 -0.18717
 C142 C 0.61843 0.21550 -0.13880
 H143 H 0.66013 0.21042 -0.29730
 H144 H 0.64063 0.16835 -0.40249
 H145 H 0.51390 0.07208 -0.31603
 H146 H 0.53410 0.11411 -0.21067
 C147 C 0.82875 0.40996 -0.25415
 C148 C 0.86800 0.45097 -0.25763
 C149 C 0.89293 0.46425 -0.31713
 C150 C 0.87877 0.43672 -0.37403
 C151 C 0.83988 0.39509 -0.36947
 C152 C 0.81504 0.38186 -0.30992
 C153 C 0.80130 0.39749 -0.19465
 C154 C 0.77727 0.38685 -0.14594
 H155 H 0.87882 0.47305 -0.21485
 H156 H 0.92245 0.49666 -0.31937
 H157 H 0.82850 0.37293 -0.41212
 H158 H 0.78473 0.35001 -0.30774
 C159 C 0.56603 0.39458 -0.25759
 C160 C 0.54889 0.36523 -0.31169
 C161 C 0.53555 0.37755 -0.37056
 C162 C 0.53925 0.41949 -0.37613
 C163 C 0.55533 0.44829 -0.32075
 C164 C 0.56869 0.43591 -0.26193
 C165 C 0.58262 0.38295 -0.19891
 C166 C 0.59712 0.37303 -0.15064
 H167 H 0.54658 0.33312 -0.30882
 H168 H 0.52282 0.35448 -0.41203
 H169 H 0.55913 0.48099 -0.32380
 H170 H 0.58203 0.45894 -0.22043
 C171 C 0.82702 0.42674 0.25708
 C172 C 0.87232 0.43810 0.25701
 C173 C 0.89731 0.45130 0.31653
 C174 C 0.87732 0.45305 0.37794
 C175 C 0.83176 0.44278 0.37619
 C176 C 0.80703 0.42972 0.31652
 C177 C 0.80029 0.40998 0.19714
 C178 C 0.77680 0.39482 0.14821
 H179 H 0.88808 0.43563 0.21125
 H180 H 0.93152 0.45741 0.31441
 H181 H 0.81495 0.44557 0.42035
 H182 H 0.77203 0.42144 0.31698
 C183 C 0.58844 0.17185 0.26415
 C184 C 0.61594 0.18782 0.32075
 C185 C 0.60427 0.16326 0.38006
 C186 C 0.56452 0.12180 0.38443
 C187 C 0.53712 0.10622 0.32634
 C188 C 0.54900 0.13107 0.26703
 C189 C 0.60072 0.19793 0.20371
 C190 C 0.61166 0.22089 0.15425
 H191 H 0.64675 0.21927 0.31896
 H192 H 0.62785 0.17638 0.42134
 H193 H 0.50546 0.07571 0.32661
 H194 H 0.52716 0.11860 0.22357
 C195 C 0.57659 0.40647 0.25227
 C196 C 0.58702 0.45021 0.26313
 C197 C 0.57478 0.46208 0.32342
 C198 C 0.55207 0.43029 0.37364
 C199 C 0.54165 0.38643 0.36205
 C200 C 0.55385 0.37465 0.30182
 C201 C 0.59075 0.39434 0.19172
 C202 C 0.60347 0.38355 0.14249
 H203 H 0.60497 0.47518 0.22532
 H204 H 0.58369 0.49618 0.33119
 H205 H 0.52366 0.36113 0.39938
 H206 H 0.54575 0.34074 0.29404
 C207 C 0.17071 0.58415 0.25389
 C208 C 0.18584 0.57064 0.30970
 C209 C 0.16092 0.55851 0.36921
 C210 C 0.12052 0.55983 0.37369
 C211 C 0.10499 0.57235 0.31675
 C212 C 0.13000 0.58451 0.25729
 C213 C 0.19808 0.59958 0.19441
 C214 C 0.22202 0.61332 0.14571
 H215 H 0.21729 0.57018 0.30757
 H216 H 0.17342 0.54843 0.41188
 H217 H 0.07426 0.57413 0.31893
 H218 H 0.11806 0.59507 0.21448
 C219 C 0.42736 0.83117 0.25634
 C220 C 0.42696 0.87110 0.25993
 C221 C 0.44043 0.89611 0.31898
 C222 C 0.45430 0.88132 0.37523
 C223 C 0.45575 0.84175 0.37041
 C224 C 0.44234 0.81686 0.31137
 C225 C 0.41102 0.80393 0.19731
 C226 C 0.39708 0.78010 0.14896
 H227 H 0.41537 0.88245 0.21764
 H228 H 0.43851 0.92619 0.32147
 H229 H 0.46678 0.82981 0.41261
 H230 H 0.44294 0.78608 0.30905
 C231 C 0.41256 0.58262 0.24899
 C232 C 0.43615 0.61409 0.29856
 C233 C 0.44737 0.60150 0.35894
 C234 C 0.43509 0.55714 0.37072
 C235 C 0.41172 0.52571 0.32038
 C236 C 0.40043 0.53841 0.25987
 C237 C 0.39936 0.59583 0.18845
 C238 C 0.38778 0.60800 0.13941
 H239 H 0.44560 0.64837 0.29072
 H240 H 0.46594 0.62651 0.39638
 H241 H 0.40149 0.49128 0.32830
 H242 H 0.38187 0.51374 0.22197
   
