data_POSCAR
  _audit_creation_date              2014-09-24
  _audit_creation_method            'ToBaCCo'
  _symmetry_space_group_name_H-M    'P1'
  _symmetry_Int_Tables_number       1
  _symmetry_cell_setting            triclinic
  loop_
  _symmetry_equiv_pos_as_xyz
 x,y,z
_cell_length_a 56.0299
_cell_length_b 38.2543
_cell_length_c 40.7566
_cell_angle_alpha 89.179800
_cell_angle_beta 89.574300
_cell_angle_gamma 84.260800
loop_
  _atom_site_label
  _atom_site_type_symbol
  _atom_site_fract_x
  _atom_site_fract_y
  _atom_site_fract_z
C1 C 1.23293 0.22245 0.19781
 C2 C 1.24817 0.24804 0.18001
 C3 C 1.25997 0.26839 0.20037
 C4 C 1.25529 0.26146 0.23710
 C5 C 1.25066 0.20149 0.22116
 C6 C 1.26228 0.22184 0.24163
 C7 C 1.21645 0.24555 0.22054
 C8 C 1.22788 0.26633 0.24065
 H9 H 1.25056 0.24825 0.15362
 H10 H 1.26466 0.27813 0.25384
 H11 H 1.25468 0.17332 0.22125
 H12 H 1.19710 0.24560 0.22039
 C13 C 0.73497 -0.27580 0.19444
 C14 C 0.74938 -0.24904 0.17689
 C15 C 0.76014 -0.22764 0.19743
 C16 C 0.75529 -0.23476 0.23409
 C17 C 0.75307 -0.29540 0.21817
 C18 C 0.76348 -0.27398 0.23891
 C19 C 0.71750 -0.25379 0.21680
 C20 C 0.72785 -0.23196 0.23717
 H21 H 0.75217 -0.24887 0.15056
 H22 H 0.76395 -0.21736 0.25093
 H23 H 0.75821 -0.32334 0.21836
 H24 H 0.69837 -0.25602 0.21679
 C25 C 0.73336 0.22433 -0.30961
 C26 C 0.74686 0.25062 -0.32515
 C27 C 0.75883 0.27149 -0.30267
 C28 C 0.75441 0.26206 -0.26814
 C29 C 0.75048 0.20378 -0.28832
 C30 C 0.76242 0.22431 -0.26543
 C31 C 0.71705 0.24351 -0.28686
 C32 C 0.72814 0.26515 -0.26430
 H33 H 0.75003 0.25107 -0.35140
 H34 H 0.76304 0.27881 -0.25099
 H35 H 0.75099 0.17569 -0.28503
 H36 H 0.69843 0.23833 -0.28463
 C37 C 1.23276 -0.27689 -0.29788
 C38 C 1.24551 -0.24938 -0.31725
 C39 C 1.25937 -0.23005 -0.29852
 C40 C 1.25832 -0.23930 -0.26149
 C41 C 1.25290 -0.29836 -0.27897
 C42 C 1.26606 -0.27889 -0.25974
 C43 C 1.21836 -0.25544 -0.27179
 C44 C 1.23158 -0.23632 -0.25245
 H45 H 1.24368 -0.24517 -0.34332
 H46 H 1.26910 -0.22387 -0.24545
 H47 H 1.25580 -0.32677 -0.27979
 H48 H 1.19931 -0.25669 -0.26786
 C49 C 0.23764 0.22550 0.79973
 C50 C 0.25330 0.24550 0.81846
 C51 C 0.26599 0.26977 0.79951
 C52 C 0.26039 0.26901 0.76435
 C53 C 0.22123 0.25298 0.78073
 C54 C 0.23289 0.27592 0.76248
 C55 C 0.25384 0.20757 0.77289
 C56 C 0.26571 0.23026 0.75426
 H57 H 0.25667 0.23967 0.84416
 H58 H 0.26916 0.28761 0.74837
 H59 H 0.20186 0.25321 0.78064
 H60 H 0.25595 0.17970 0.76854
 C61 C 0.73834 0.71721 0.80468
 C62 C 0.75404 0.73858 0.82205
 C63 C 0.76488 0.76379 0.80168
 C64 C 0.75772 0.76209 0.76692
 C65 C 0.72112 0.74205 0.78805
 C66 C 0.73136 0.76705 0.76722
 C67 C 0.75353 0.70095 0.77872
 C68 C 0.76400 0.72537 0.75716
 H69 H 0.75921 0.73288 0.84726
 H70 H 0.76524 0.78186 0.75106
 H71 H 0.70205 0.73921 0.78860
 H72 H 0.76079 0.67372 0.77981
 C73 C 0.74000 0.21419 0.30448
 C74 C 0.75647 0.23651 0.32309
 C75 C 0.76727 0.25998 0.30399
 C76 C 0.76071 0.25865 0.26728
 C77 C 0.72260 0.24085 0.28606
 C78 C 0.73320 0.26420 0.26687
 C79 C 0.75608 0.19684 0.27729
 C80 C 0.76670 0.21994 0.25748
 H81 H 0.75963 0.23327 0.34919
 H82 H 0.76908 0.27795 0.25151
 H83 H 0.70331 0.24025 0.28719
 H84 H 0.75949 0.16888 0.27408
 C85 C 0.23685 0.72256 0.29865
 C86 C 0.25327 0.74465 0.31761
 C87 C 0.26476 0.76752 0.29870
 C88 C 0.25885 0.76593 0.26175
 C89 C 0.22012 0.74936 0.27941
 C90 C 0.23134 0.77219 0.26040
 C91 C 0.25327 0.70447 0.27219
 C92 C 0.26459 0.72694 0.25252
 H93 H 0.25597 0.74158 0.34381
 H94 H 0.26778 0.78477 0.24612
 H95 H 0.20077 0.74944 0.28009
 H96 H 0.25655 0.67641 0.26961
 O97 O 1.02915 0.06150 0.05088
 O98 O 1.05686 0.02406 0.02375
 C99 C 1.05108 0.04945 0.04389
 O100 O 0.96450 -0.05621 0.05782
 O101 O 0.93804 -0.02296 0.02450
 C102 C 0.94291 -0.04569 0.04807
 O103 O 1.03130 -0.05874 0.06353
 O104 O 1.05802 -0.03438 0.02942
 C105 C 1.05297 -0.05308 0.05486
 O106 O 0.96214 0.07105 0.04524
 O107 O 0.93691 0.03744 0.01858
 C108 C 0.94090 0.06322 0.03749
 Zr109 Zr 0.99640 0.04608 0.03301
 O110 O 0.99413 0.04739 0.08477
 O111 O 0.99760 0.10115 0.02962
 Zr112 Zr 0.99807 -0.04193 0.04104
 O113 O 0.99454 -0.03818 0.09262
 O114 O 1.00197 -0.09749 0.04470
 O115 O 1.01848 0.00054 0.04411
 O116 O 0.97616 0.00483 0.04230
 O117 O 0.96529 0.06000 -0.06831
 O118 O 0.93842 0.03304 -0.03638
 C119 C 0.94363 0.05430 -0.05990
 O120 O 1.03438 -0.07097 -0.05767
 O121 O 1.05939 -0.03943 -0.02831
 C122 C 1.05557 -0.06319 -0.04945
 O123 O 0.96724 -0.06649 -0.05722
 O124 O 0.93940 -0.02801 -0.03144
 C125 C 0.94525 -0.05435 -0.05061
 O126 O 1.03227 0.05127 -0.06722
 O127 O 1.05847 0.01920 -0.03274
 C128 C 1.05378 0.04106 -0.05696
 Zr129 Zr 0.99856 0.03854 -0.04923
 O130 O 0.99767 0.03318 -0.10085
 O131 O 0.99982 0.09348 -0.05441
 Zr132 Zr 1.00010 -0.04965 -0.04111
 O133 O 0.99907 -0.05597 -0.09255
 O134 O 1.00362 -0.10487 -0.03390
 Zr135 Zr 1.03415 -0.00539 -0.00289
 Zr136 Zr 0.96235 0.00199 -0.00537
 O137 O 0.97866 -0.00390 -0.05193
 O138 O 1.02090 -0.00831 -0.05095
 O139 O 0.97588 0.05139 -0.00953
 O140 O 1.02023 -0.05434 0.00131
 O141 O 1.01818 0.04658 -0.00791
 O142 O 0.97763 -0.05046 -0.00015
 H143 H 0.96497 0.00783 0.06122
 H144 H 1.03164 -0.07575 0.00367
 H145 H 0.96851 -0.00445 -0.07168
 H146 H 1.02835 0.06631 -0.00925
 H147 H 0.98812 -0.10612 0.03352
 H148 H 0.98875 -0.11126 -0.02313
 H149 H 1.01022 -0.04025 -0.10240
 H150 H 1.01253 0.01884 -0.10758
 H151 H 0.98589 0.10514 -0.04242
 H152 H 0.98575 0.11024 0.01294
 H153 H 0.99340 0.07250 0.09073
 H154 H 1.00336 -0.01832 0.09933
 O155 O 1.03041 0.55594 0.56003
 O156 O 1.05724 0.52089 0.52912
 C157 C 1.05209 0.54433 0.55137
 O158 O 0.96396 0.44136 0.56097
 O159 O 0.93751 0.47725 0.52981
 C160 C 0.94236 0.45309 0.55217
 O161 O 1.03097 0.43670 0.56536
 O162 O 1.05755 0.46228 0.53193
 C163 C 1.05261 0.44242 0.55659
 O164 O 0.96332 0.56903 0.55529
 O165 O 0.93723 0.53818 0.52706
 C166 C 0.94182 0.56263 0.54718
 Zr167 Zr 0.99713 0.54361 0.54138
 O168 O 0.99526 0.54155 0.59317
 O169 O 0.99938 0.59852 0.54121
 Zr170 Zr 0.99761 0.45551 0.54422
 O171 O 0.99484 0.45559 0.59601
 O172 O 1.00083 0.39988 0.54428
 O173 O 1.01873 0.49692 0.54927
 O174 O 0.97631 0.50261 0.54853
 O175 O 0.96473 0.56531 0.44181
 O176 O 0.93774 0.53666 0.47192
 C177 C 0.94302 0.55942 0.44972
 O178 O 1.03246 0.43402 0.44270
 O179 O 1.05865 0.46142 0.47410
 C180 C 1.05399 0.44030 0.45089
 O181 O 0.96537 0.43815 0.44558
 O182 O 0.93819 0.47504 0.47415
 C183 C 0.94358 0.44993 0.45345
 O184 O 1.03163 0.55483 0.44082
 O185 O 1.05792 0.51958 0.47265
 C186 C 1.05318 0.54319 0.44988
 Zr187 Zr 0.99800 0.54170 0.45869
 O188 O 0.99626 0.53987 0.40685
 O189 O 0.99997 0.59668 0.45648
 Zr190 Zr 0.99852 0.45335 0.46178
 O191 O 0.99651 0.44937 0.41019
 O192 O 1.00188 0.39783 0.46608
 Zr193 Zr 1.03364 0.49380 0.50164
 Zr194 Zr 0.96182 0.50342 0.50098
 O195 O 0.97747 0.50016 0.45387
 O196 O 1.01965 0.49461 0.45376
 O197 O 0.97607 0.55244 0.49952
 O198 O 1.01919 0.44514 0.50342
 O199 O 1.01834 0.54633 0.50008
 O200 O 0.97652 0.45045 0.50299
 H201 H 0.96535 0.50477 0.56774
 H202 H 1.03051 0.42352 0.50421
 H203 H 0.96698 0.50107 0.43435
 H204 H 1.02882 0.56572 0.49972
 H205 H 0.98635 0.39249 0.53368
 H206 H 0.98708 0.39095 0.47670
 H207 H 1.00599 0.46749 0.40066
 H208 H 1.01098 0.52598 0.39896
 H209 H 0.98647 0.60789 0.46961
 H210 H 0.98759 0.60915 0.52512
 H211 H 0.99507 0.56614 0.60058
 H212 H 1.00363 0.47507 0.60371
 O213 O 0.53177 0.05565 0.55707
 O214 O 0.55850 0.01691 0.52968
 C215 C 0.55346 0.04278 0.54957
 O216 O 0.46392 -0.05848 0.56493
 O217 O 0.43824 -0.02436 0.53117
 C218 C 0.44256 -0.04710 0.55487
 O219 O 0.53119 -0.06413 0.56946
 O220 O 0.55837 -0.04073 0.53529
 C221 C 0.55303 -0.05935 0.56066
 O222 O 0.46463 0.06882 0.55245
 O223 O 0.43839 0.03690 0.52572
 C224 C 0.44310 0.06230 0.54468
 Zr225 Zr 0.49829 0.04204 0.54008
 O226 O 0.49638 0.04276 0.59186
 O227 O 0.50070 0.09687 0.53754
 Zr228 Zr 0.49780 -0.04572 0.54782
 O229 O 0.49496 -0.04293 0.59952
 O230 O 0.49886 -0.10109 0.54897
 O231 O 0.51933 -0.00449 0.55085
 O232 O 0.47694 0.00201 0.54929
 O233 O 0.46659 0.05767 0.43918
 O234 O 0.43914 0.03167 0.47096
 C235 C 0.44474 0.05278 0.44753
 O236 O 0.53326 -0.07486 0.44841
 O237 O 0.55944 -0.04550 0.47797
 C238 C 0.55480 -0.06824 0.45619
 O239 O 0.46614 -0.06884 0.45034
 O240 O 0.43912 -0.02908 0.47602
 C241 C 0.44438 -0.05569 0.45689
 O242 O 0.53375 0.04609 0.43942
 O243 O 0.55933 0.01249 0.47356
 C244 C 0.55508 0.03473 0.44952
 Zr245 Zr 0.49979 0.03476 0.45752
 O246 O 0.49851 0.02942 0.40592
 O247 O 0.50225 0.08941 0.45203
 Zr248 Zr 0.49938 -0.05321 0.46571
 O249 O 0.49781 -0.05990 0.41437
 O250 O 0.50164 -0.10837 0.47284
 Zr251 Zr 0.53451 -0.01097 0.50362
 Zr252 Zr 0.46292 0.00021 0.50166
 O253 O 0.47888 -0.00656 0.45496
 O254 O 0.52105 -0.01302 0.45562
 O255 O 0.47768 0.04869 0.49756
 O256 O 0.51964 -0.05915 0.50791
 O257 O 0.51979 0.04164 0.49881
 O258 O 0.47699 -0.05277 0.50676
 H259 H 0.46580 0.00547 0.56822
 H260 H 0.53072 -0.08094 0.50997
 H261 H 0.46854 -0.00670 0.43536
 H262 H 0.53041 0.06081 0.49736
 H263 H 0.49890 -0.10801 0.57249
 H264 H 0.48817 -0.11347 0.48741
 H265 H 0.50829 -0.04344 0.40415
 H266 H 0.51327 0.01494 0.39901
 H267 H 0.48870 0.10172 0.46432
 H268 H 0.48996 0.10640 0.51972
 H269 H 0.49644 0.06770 0.59807
 H270 H 0.50389 -0.02320 0.60625
 O271 O 0.53328 0.55408 0.05762
 O272 O 0.56040 0.51585 0.03025
 C273 C 0.55506 0.54151 0.05027
 O274 O 0.46667 0.43741 0.06361
 O275 O 0.44056 0.47203 0.03096
 C276 C 0.44518 0.44863 0.05403
 O277 O 0.53343 0.43333 0.06934
 O278 O 0.56035 0.45781 0.03569
 C279 C 0.55515 0.43876 0.06080
 O280 O 0.46599 0.56563 0.05340
 O281 O 0.44016 0.53334 0.02628
 C282 C 0.44456 0.55865 0.04554
 Zr283 Zr 0.49990 0.53971 0.04081
 O284 O 0.49638 0.54199 0.09254
 O285 O 0.50197 0.59462 0.03836
 Zr286 Zr 0.50032 0.45164 0.04737
 O287 O 0.49648 0.45450 0.09897
 O288 O 0.50325 0.39607 0.05013
 O289 O 0.52141 0.49338 0.05110
 O290 O 0.47906 0.49894 0.04949
 O291 O 0.46824 0.55581 -0.06015
 O292 O 0.44104 0.52885 -0.02875
 C293 C 0.44649 0.55024 -0.05204
 O294 O 0.53619 0.42417 -0.05175
 O295 O 0.56204 0.45395 -0.02200
 C296 C 0.55764 0.43093 -0.04367
 O297 O 0.46902 0.42933 -0.05066
 O298 O 0.44168 0.46800 -0.02417
 C299 C 0.44718 0.44189 -0.04375
 O300 O 0.53535 0.54597 -0.05955
 O301 O 0.56130 0.51222 -0.02595
 C302 C 0.55678 0.53486 -0.04960
 Zr303 Zr 0.50154 0.53349 -0.04178
 O304 O 0.50044 0.52880 -0.09345
 O305 O 0.50335 0.58835 -0.04661
 Zr306 Zr 0.50205 0.44539 -0.03479
 O307 O 0.50104 0.43884 -0.08620
 O308 O 0.50342 0.39060 -0.02638
 Zr309 Zr 0.53674 0.48787 0.00379
 Zr310 Zr 0.46505 0.49754 0.00179
 O311 O 0.48109 0.49175 -0.04493
 O312 O 0.52332 0.48618 -0.04425
 O313 O 0.47927 0.54647 -0.00168
 O314 O 0.52231 0.43929 0.00737
 O315 O 0.52141 0.54028 -0.00039
 O316 O 0.47966 0.44473 0.00612
 H317 H 0.46782 0.50181 0.06837
 H318 H 0.53351 0.41761 0.00929
 H319 H 0.47085 0.49161 -0.06463
 H320 H 0.53181 0.55975 -0.00165
 H321 H 0.49093 0.38810 0.03549
 H322 H 0.50432 0.37976 -0.04835
 H323 H 0.51107 0.45605 -0.09615
 H324 H 0.51536 0.51480 -0.10047
 H325 H 0.48966 0.60018 -0.03426
 H326 H 0.49064 0.60424 0.02125
 H327 H 0.51134 0.53039 0.10218
 H328 H 0.50739 0.47141 0.10664
 C329 C 1.18522 0.16787 0.13767
 C330 C 1.18483 0.20460 0.13640
 C331 C 1.20128 0.22149 0.15437
 C332 C 1.21829 0.20224 0.17458
 C333 C 1.21951 0.16525 0.17424
 C334 C 1.20322 0.14834 0.15589
 C335 C 1.16603 0.15028 0.12197
 N336 N 1.16828 0.11491 0.11797
 N337 N 1.15037 0.09891 0.10564
 C338 C 1.12938 0.11759 0.09711
 N339 N 1.12718 0.15296 0.10095
 N340 N 1.14514 0.16897 0.11309
 C341 C 1.10923 0.09978 0.08427
 C342 C 1.08589 0.11711 0.08364
 C343 C 1.06685 0.10042 0.07131
 C344 C 1.07083 0.06626 0.05895
 C345 C 1.09413 0.04881 0.05981
 C346 C 1.11309 0.06531 0.07255
 H347 H 1.17140 0.22041 0.12220
 H348 H 1.20000 0.24994 0.15374
 H349 H 1.23230 0.14887 0.18868
 H350 H 1.20410 0.11995 0.15715
 H351 H 1.08230 0.14360 0.09272
 H352 H 1.04912 0.11458 0.07081
 H353 H 1.09772 0.02237 0.05058
 H354 H 1.13086 0.05126 0.07273
 C355 C 1.18453 0.65829 0.65386
 C356 C 1.18786 0.65663 0.68791
 C357 C 1.20407 0.67671 0.70263
 C358 C 1.21709 0.69961 0.68390
 C359 C 1.21450 0.70006 0.64952
 C360 C 1.19841 0.67952 0.63470
 C361 C 1.16588 0.63915 0.63884
 N362 N 1.16595 0.63299 0.60611
 N363 N 1.14855 0.61678 0.59266
 C364 C 1.13030 0.60638 0.61137
 N365 N 1.13027 0.61250 0.64407
 N366 N 1.14774 0.62846 0.65754
 C367 C 1.11052 0.58961 0.59639
 C368 C 1.08826 0.58992 0.61257
 C369 C 1.06923 0.57517 0.59797
 C370 C 1.07225 0.55929 0.56720
 C371 C 1.09463 0.55841 0.55127
 C372 C 1.11353 0.57370 0.56562
 H373 H 1.17772 0.64008 0.70331
 H374 H 1.20599 0.67513 0.72906
 H375 H 1.22446 0.71624 0.63374
 H376 H 1.19632 0.68107 0.60831
 H377 H 1.08539 0.60215 0.63626
 H378 H 1.05219 0.57608 0.61081
 H379 H 1.09741 0.54651 0.52741
 H380 H 1.13051 0.57298 0.55265
 C381 C 0.68855 0.16953 0.62871
 C382 C 0.68527 0.20622 0.63121
 C383 C 0.70109 0.22393 0.64944
 C384 C 0.72036 0.20546 0.66661
 C385 C 0.72512 0.16905 0.66066
 C386 C 0.70926 0.15135 0.64222
 C387 C 0.66948 0.15038 0.61450
 N388 N 0.67295 0.11520 0.60939
 N389 N 0.65502 0.09772 0.59921
 C390 C 0.63285 0.11467 0.59405
 N391 N 0.62948 0.14985 0.59886
 N392 N 0.64740 0.16731 0.60887
 C393 C 0.61258 0.09535 0.58399
 C394 C 0.58891 0.11114 0.58672
 C395 C 0.56968 0.09351 0.57662
 C396 C 0.57368 0.05981 0.56320
 C397 C 0.59731 0.04369 0.56099
 C398 C 0.61657 0.06121 0.57147
 H399 H 0.66991 0.22124 0.62019
 H400 H 0.69737 0.25214 0.65186
 H401 H 0.74062 0.15354 0.67052
 H402 H 0.71273 0.12315 0.63977
 H403 H 0.58521 0.13728 0.59656
 H404 H 0.55172 0.10673 0.57852
 H405 H 0.60096 0.01768 0.55081
 H406 H 0.63459 0.04831 0.56914
 C407 C 0.68953 0.66572 0.13459
 C408 C 0.68850 0.70247 0.13227
 C409 C 0.70434 0.72064 0.15007
 C410 C 0.72140 0.70266 0.17106
 C411 C 0.72337 0.66562 0.17164
 C412 C 0.70767 0.64743 0.15348
 C413 C 0.67057 0.64694 0.11975
 N414 N 0.67315 0.61139 0.11719
 N415 N 0.65526 0.59440 0.10615
 C416 C 0.63401 0.61226 0.09755
 N417 N 0.63152 0.64781 0.09986
 N418 N 0.64943 0.66479 0.11071
 C419 C 0.61377 0.59350 0.08653
 C420 C 0.59031 0.61037 0.08684
 C421 C 0.57114 0.59301 0.07607
 C422 C 0.57506 0.55857 0.06433
 C423 C 0.59847 0.54149 0.06438
 C424 C 0.61762 0.55871 0.07561
 H425 H 0.67493 0.71734 0.11755
 H426 H 0.70246 0.74909 0.14881
 H427 H 0.73618 0.65017 0.18684
 H428 H 0.70902 0.61905 0.15559
 H429 H 0.58674 0.63707 0.09538
 H430 H 0.55333 0.60693 0.07614
 H431 H 0.60200 0.51489 0.05555
 H432 H 0.63549 0.54502 0.07514
 C433 C 0.81088 -0.15994 0.15921
 C434 C 0.78928 -0.16303 0.14268
 C435 C 0.77249 -0.18424 0.15555
 C436 C 0.77685 -0.20266 0.18533
 C437 C 0.79799 -0.19859 0.20249
 C438 C 0.81486 -0.17753 0.18954
 C439 C 0.82963 -0.13996 0.14417
 N440 N 0.85164 -0.14070 0.15801
 N441 N 0.86893 -0.12440 0.14362
 C442 C 0.86497 -0.10661 0.11478
 N443 N 0.84287 -0.10553 0.10109
 N444 N 0.82559 -0.12190 0.11545
 C445 C 0.88463 -0.08990 0.09812
 C446 C 0.88030 -0.06897 0.06970
 C447 C 0.89912 -0.05425 0.05357
 C448 C 0.92271 -0.06039 0.06536
 C449 C 0.92696 -0.08105 0.09392
 C450 C 0.90816 -0.09551 0.11013
 H451 H 0.78555 -0.14976 0.11937
 H452 H 0.75617 -0.18655 0.14201
 H453 H 0.80197 -0.21279 0.22528
 H454 H 0.83127 -0.17568 0.20299
 H455 H 0.86237 -0.06405 0.05982
 H456 H 0.89522 -0.03841 0.03167
 H457 H 0.94486 -0.08617 0.10383
 H458 H 0.91219 -0.11149 0.13191
 C459 C 0.80922 0.33906 0.66112
 C460 C 0.78947 0.33208 0.64223
 C461 C 0.77267 0.31063 0.65453
 C462 C 0.77490 0.29563 0.68634
 C463 C 0.79416 0.30414 0.70585
 C464 C 0.81118 0.32529 0.69326
 C465 C 0.82816 0.35913 0.64666
 N466 N 0.84972 0.35949 0.66161
 N467 N 0.86722 0.37570 0.64756
 C468 C 0.86390 0.39231 0.61800
 N469 N 0.84225 0.39232 0.60325
 N470 N 0.82479 0.37601 0.61724
 C471 C 0.88376 0.40888 0.60163
 C472 C 0.87960 0.43008 0.57334
 C473 C 0.89853 0.44473 0.55740
 C474 C 0.92209 0.43823 0.56920
 C475 C 0.92620 0.41720 0.59758
 C476 C 0.90727 0.40286 0.61366
 H477 H 0.78722 0.34252 0.61748
 H478 H 0.75774 0.30630 0.63893
 H479 H 0.79723 0.29287 0.73010
 H480 H 0.82619 0.33023 0.70852
 H481 H 0.86170 0.43532 0.56344
 H482 H 0.89473 0.46084 0.53563
 H483 H 0.94409 0.41180 0.60748
 H484 H 0.91116 0.38662 0.63531
 C485 C 0.30903 -0.16204 0.65946
 C486 C 0.30091 -0.15736 0.69195
 C487 C 0.28425 -0.17865 0.70538
 C488 C 0.27580 -0.20559 0.68683
 C489 C 0.28413 -0.21006 0.65430
 C490 C 0.30022 -0.18831 0.64072
 C491 C 0.32721 -0.14075 0.64513
 N492 N 0.32846 -0.13573 0.61214
 N493 N 0.34572 -0.11859 0.59878
 C494 C 0.36262 -0.10604 0.61782
 N495 N 0.36130 -0.11082 0.65088
 N496 N 0.34387 -0.12771 0.66430
 C497 C 0.38265 -0.08909 0.60257
 C498 C 0.40464 -0.08900 0.61889
 C499 C 0.42411 -0.07531 0.60342
 C500 C 0.42183 -0.06081 0.57158
 C501 C 0.39962 -0.05997 0.55566
 C502 C 0.38031 -0.07428 0.57086
 H503 H 0.30732 -0.13709 0.70687
 H504 H 0.27804 -0.17382 0.73024
 H505 H 0.27888 -0.23104 0.63930
 H506 H 0.30643 -0.19290 0.61577
 H507 H 0.40701 -0.10039 0.64327
 H508 H 0.44096 -0.07608 0.61639
 H509 H 0.39732 -0.04896 0.53113
 H510 H 0.36355 -0.07386 0.55772
 C511 C 0.31203 0.33397 0.16206
 C512 C 0.29027 0.33182 0.14562
 C513 C 0.27311 0.31117 0.15843
 C514 C 0.27727 0.29237 0.18804
 C515 C 0.29865 0.29535 0.20503
 C516 C 0.31587 0.31586 0.19215
 C517 C 0.33101 0.35370 0.14729
 N518 N 0.35304 0.35225 0.16117
 N519 N 0.37048 0.36854 0.14716
 C520 C 0.36666 0.38705 0.11867
 N521 N 0.34455 0.38882 0.10493
 N522 N 0.32710 0.37244 0.11892
 C523 C 0.38646 0.40390 0.10251
 C524 C 0.38230 0.42570 0.07462
 C525 C 0.40127 0.44062 0.05901
 C526 C 0.42482 0.43380 0.07080
 C527 C 0.42888 0.41225 0.09883
 C528 C 0.40996 0.39760 0.11453
 H529 H 0.28665 0.34551 0.12248
 H530 H 0.25663 0.30971 0.14502
 H531 H 0.30250 0.28082 0.22768
 H532 H 0.33240 0.31696 0.20552
 H533 H 0.36440 0.43117 0.06476
 H534 H 0.39750 0.45717 0.03752
 H535 H 0.44675 0.40658 0.10874
 H536 H 0.41386 0.38093 0.13590
 C537 C 0.81504 0.17622 -0.19984
 C538 C 0.80966 0.15992 -0.22904
 C539 C 0.79230 0.17572 -0.25025
 C540 C 0.77995 0.20881 -0.24330
 C541 C 0.78577 0.22540 -0.21409
 C542 C 0.80285 0.20901 -0.19240
 C543 C 0.83372 0.15897 -0.17797
 N544 N 0.83320 0.16444 -0.14507
 N545 N 0.84999 0.14807 -0.12567
 C546 C 0.86803 0.12589 -0.13850
 N547 N 0.86854 0.12064 -0.17136
 N548 N 0.85168 0.13668 -0.19065
 C549 C 0.88713 0.10811 -0.11762
 C550 C 0.90990 0.09871 -0.13125
 C551 C 0.92814 0.08152 -0.11225
 C552 C 0.92394 0.07267 -0.07931
 C553 C 0.90111 0.08171 -0.06557
 C554 C 0.88290 0.09974 -0.08451
 H555 H 0.81885 0.13467 -0.23553
 H556 H 0.78940 0.16222 -0.27279
 H557 H 0.77671 0.25039 -0.20703
 H558 H 0.80675 0.22221 -0.17002
 H559 H 0.91371 0.10494 -0.15664
 H560 H 0.94552 0.07470 -0.12353
 H561 H 0.89748 0.07528 -0.04017
 H562 H 0.86544 0.10656 -0.07348
 C563 C 0.81683 0.68215 0.30655
 C564 C 0.81971 0.67686 0.27263
 C565 C 0.80244 0.69158 0.25069
 C566 C 0.78219 0.71236 0.26216
 C567 C 0.77944 0.71846 0.29587
 C568 C 0.79655 0.70317 0.31800
 C569 C 0.83500 0.66550 0.32948
 N570 N 0.82969 0.65988 0.36163
 N571 N 0.84615 0.64395 0.38179
 C572 C 0.86856 0.63327 0.37057
 N573 N 0.87379 0.63908 0.33851
 N574 N 0.85736 0.65472 0.31839
 C575 C 0.88718 0.61567 0.39234
 C576 C 0.91135 0.61497 0.38297
 C577 C 0.92924 0.59725 0.40206
 C578 C 0.92351 0.57938 0.43099
 C579 C 0.89934 0.58034 0.44078
 C580 C 0.88129 0.59861 0.42169
 H581 H 0.83510 0.66072 0.26303
 H582 H 0.80482 0.68665 0.22470
 H583 H 0.76375 0.73408 0.30513
 H584 H 0.79394 0.70781 0.34399
 H585 H 0.91652 0.62806 0.36067
 H586 H 0.94763 0.59706 0.39364
 H587 H 0.89439 0.56691 0.46301
 H588 H 0.86276 0.59869 0.42945
 C589 C 0.31709 0.17559 0.30639
 C590 C 0.31697 0.16631 0.27316
 C591 C 0.29921 0.18156 0.25219
 C592 C 0.28141 0.20681 0.26385
 C593 C 0.28177 0.21682 0.29679
 C594 C 0.29933 0.20104 0.31804
 C595 C 0.33573 0.15853 0.32845
 N596 N 0.33232 0.15731 0.36149
 N597 N 0.34909 0.14111 0.38101
 C598 C 0.36996 0.12575 0.36823
 N599 N 0.37334 0.12716 0.33525
 N600 N 0.35656 0.14308 0.31577
 C601 C 0.38886 0.10786 0.38943
 C602 C 0.41251 0.10254 0.37761
 C603 C 0.43052 0.08505 0.39677
 C604 C 0.42532 0.07198 0.42813
 C605 C 0.40167 0.07723 0.44012
 C606 C 0.38360 0.09533 0.42102
 H607 H 0.33039 0.14677 0.26343
 H608 H 0.29943 0.17372 0.22675
 H609 H 0.26816 0.23615 0.30628
 H610 H 0.29908 0.20886 0.34348
 H611 H 0.41718 0.11201 0.35347
 H612 H 0.44852 0.08129 0.38670
 H613 H 0.39718 0.06754 0.46427
 H614 H 0.36548 0.09898 0.43070
 C615 C 0.31970 0.67182 -0.19500
 C616 C 0.30307 0.69901 -0.18373
 C617 C 0.28597 0.71572 -0.20507
 C618 C 0.28496 0.70500 -0.23777
 C619 C 0.30154 0.67788 -0.24904
 C620 C 0.31888 0.66164 -0.22794
 C621 C 0.33797 0.65408 -0.17282
 N622 N 0.35819 0.63668 -0.18538
 N623 N 0.37478 0.62060 -0.16570
 C624 C 0.37176 0.62097 -0.13263
 N625 N 0.35145 0.63818 -0.11996
 N626 N 0.33490 0.65454 -0.13970
 C627 C 0.39058 0.60340 -0.11119
 C628 C 0.38537 0.59217 -0.07914
 C629 C 0.40344 0.57461 -0.05967
 C630 C 0.42703 0.56875 -0.07177
 C631 C 0.43216 0.58047 -0.10362
 C632 C 0.41415 0.59734 -0.12315
 H633 H 0.30338 0.70750 -0.15852
 H634 H 0.27316 0.73638 -0.19581
 H635 H 0.30112 0.66933 -0.27423
 H636 H 0.33142 0.64073 -0.23733
 H637 H 0.36730 0.59643 -0.06938
 H638 H 0.39903 0.56589 -0.03516
 H639 H 0.45012 0.57614 -0.11376
 H640 H 0.41876 0.60584 -0.14764
 C641 C 1.19245 -0.18626 -0.17291
 C642 C 1.20734 -0.16689 -0.19261
 C643 C 1.22162 -0.18352 -0.21740
 C644 C 1.22102 -0.21953 -0.22271
 C645 C 1.20768 -0.23922 -0.20139
 C646 C 1.19358 -0.22281 -0.17674
 C647 C 1.17400 -0.16864 -0.15087
 N648 N 1.15557 -0.18629 -0.13995
 N649 N 1.13769 -0.17021 -0.12250
 C650 C 1.13748 -0.13575 -0.11507
 N651 N 1.15609 -0.11809 -0.12550
 N652 N 1.17395 -0.13417 -0.14321
 C653 C 1.11682 -0.11766 -0.09730
 C654 C 1.11898 -0.08621 -0.08075
 C655 C 1.09919 -0.06894 -0.06463
 C656 C 1.07671 -0.08235 -0.06532
 C657 C 1.07460 -0.11386 -0.08179
 C658 C 1.09449 -0.13148 -0.09736
 H659 H 1.20696 -0.13870 -0.19011
 H660 H 1.23189 -0.16799 -0.23363
 H661 H 1.20732 -0.26720 -0.20482
 H662 H 1.18273 -0.23864 -0.16164
 H663 H 1.13598 -0.07505 -0.08015
 H664 H 1.10141 -0.04478 -0.05204
 H665 H 1.05758 -0.12495 -0.08262
 H666 H 1.09223 -0.15560 -0.11004
 C667 C 1.18416 0.33478 0.30425
 C668 C 1.17853 0.33228 0.27089
 C669 C 1.19343 0.31133 0.25006
 C670 C 1.21437 0.29236 0.26199
 C671 C 1.22105 0.29674 0.29468
 C672 C 1.20598 0.31770 0.31576
 C673 C 1.16624 0.35271 0.32685
 N674 N 1.17139 0.35830 0.35881
 N675 N 1.15442 0.37231 0.37923
 C676 C 1.13163 0.38091 0.36853
 N677 N 1.12664 0.37561 0.33659
 N678 N 1.14355 0.36186 0.31623
 C679 C 1.11220 0.39481 0.39095
 C680 C 1.08824 0.39226 0.38228
 C681 C 1.06952 0.40611 0.40231
 C682 C 1.07422 0.42326 0.43145
 C683 C 1.09821 0.42542 0.44053
 C684 C 1.11707 0.41105 0.42054
 H685 H 1.16214 0.34559 0.26096
 H686 H 1.18820 0.30919 0.22469
 H687 H 1.23721 0.28263 0.30436
 H688 H 1.21091 0.31931 0.34129
 H689 H 1.08387 0.37957 0.35982
 H690 H 1.05130 0.40402 0.39445
 H691 H 1.10242 0.43851 0.46284
 H692 H 1.13538 0.41338 0.42782
 C693 C 0.68242 -0.17032 0.30445
 C694 C 0.67527 -0.17470 0.27194
 C695 C 0.69055 -0.19324 0.24982
 C696 C 0.71336 -0.20810 0.25962
 C697 C 0.72125 -0.20169 0.29141
 C698 C 0.70586 -0.18299 0.31374
 C699 C 0.66466 -0.15484 0.32857
 N700 N 0.67129 -0.14439 0.35865
 N701 N 0.65479 -0.13187 0.38042
 C702 C 0.63105 -0.12973 0.37303
 N703 N 0.62455 -0.14011 0.34299
 N704 N 0.64097 -0.15234 0.32127
 C705 C 0.61232 -0.11642 0.39674
 C706 C 0.58861 -0.12418 0.39223
 C707 C 0.57024 -0.10971 0.41251
 C708 C 0.57501 -0.08681 0.43774
 C709 C 0.59889 -0.08005 0.44318
 C710 C 0.61743 -0.09488 0.42291
 H711 H 0.65755 -0.16458 0.26370
 H712 H 0.68425 -0.19663 0.22512
 H713 H 0.73883 -0.21242 0.29952
 H714 H 0.71194 -0.17979 0.33857
 H715 H 0.58411 -0.14108 0.37259
 H716 H 0.55213 -0.11573 0.40765
 H717 H 0.60318 -0.06258 0.46247
 H718 H 0.63557 -0.08852 0.42698
 C719 C 0.68382 0.32192 -0.19395
 C720 C 0.67480 0.31283 -0.22427
 C721 C 0.68967 0.29559 -0.24753
 C722 C 0.71426 0.28629 -0.24139
 C723 C 0.72372 0.29783 -0.21184
 C724 C 0.70859 0.31529 -0.18826
 C725 C 0.66671 0.33665 -0.16862
 N726 N 0.67375 0.35463 -0.14241
 N727 N 0.65765 0.36790 -0.12037
 C728 C 0.63398 0.36336 -0.12357
 N729 N 0.62717 0.34514 -0.14959
 N730 N 0.64313 0.33214 -0.17157
 C731 C 0.61547 0.37859 -0.10024
 C732 C 0.59210 0.36837 -0.10188
 C733 C 0.57370 0.38459 -0.08266
 C734 C 0.57805 0.41155 -0.06115
 C735 C 0.60165 0.42078 -0.05824
 C736 C 0.62022 0.40443 -0.07766
 H737 H 0.65598 0.31868 -0.23006
 H738 H 0.68157 0.28998 -0.27062
 H739 H 0.74240 0.29181 -0.20574
 H740 H 0.71609 0.32234 -0.16515
 H741 H 0.58781 0.34821 -0.11861
 H742 H 0.55586 0.37642 -0.08531
 H743 H 0.60564 0.44127 -0.04169
 H744 H 0.63805 0.41279 -0.07573
 C745 C 1.18967 0.16384 -0.14501
 C746 C 1.18881 0.20035 -0.14143
 C747 C 1.20539 0.21936 -0.15766
 C748 C 1.22288 0.20259 -0.17871
 C749 C 1.22477 0.16560 -0.18028
 C750 C 1.20834 0.14649 -0.16354
 C751 C 1.17020 0.14458 -0.13135
 N752 N 1.17337 0.10928 -0.12603
 N753 N 1.15531 0.09200 -0.11513
 C754 C 1.13329 0.10929 -0.10960
 N755 N 1.13016 0.14454 -0.11492
 N756 N 1.14825 0.16183 -0.12551
 C757 C 1.11305 0.09040 -0.09793
 C758 C 1.08934 0.10459 -0.10374
 C759 C 1.07009 0.08777 -0.09153
 C760 C 1.07413 0.05671 -0.07273
 C761 C 1.09788 0.04221 -0.06735
 C762 C 1.11715 0.05870 -0.08015
 H763 H 1.17491 0.21439 -0.12672
 H764 H 1.20381 0.24765 -0.15510
 H765 H 1.23839 0.15101 -0.19477
 H766 H 1.20963 0.11825 -0.16633
 H767 H 1.08566 0.12887 -0.11760
 H768 H 1.05204 0.09975 -0.09595
 H769 H 1.10159 0.01844 -0.05280
 H770 H 1.13526 0.04724 -0.07523
 C771 C 1.18943 0.66226 0.35658
 C772 C 1.19000 0.69846 0.36109
 C773 C 1.20640 0.71689 0.34374
 C774 C 1.22239 0.69988 0.32086
 C775 C 1.22266 0.66314 0.31782
 C776 C 1.20644 0.64459 0.33562
 C777 C 1.17010 0.64373 0.37183
 N778 N 1.17206 0.60811 0.37462
 N779 N 1.15400 0.59161 0.38678
 C780 C 1.13317 0.61007 0.39626
 N781 N 1.13128 0.64565 0.39356
 N782 N 1.14937 0.66213 0.38168
 C783 C 1.11273 0.59203 0.40882
 C784 C 1.08934 0.60905 0.40743
 C785 C 1.06995 0.59263 0.41981
 C786 C 1.07355 0.55906 0.43439
 C787 C 1.09691 0.54182 0.43555
 C788 C 1.11630 0.55803 0.42258
 H789 H 1.17735 0.71278 0.37744
 H790 H 1.20584 0.74502 0.34702
 H791 H 1.23464 0.64835 0.30117
 H792 H 1.20652 0.61663 0.33179
 H793 H 1.08599 0.63514 0.39673
 H794 H 1.05220 0.60668 0.41874
 H795 H 1.10021 0.51589 0.44661
 H796 H 1.13413 0.54429 0.42399
 C797 C 0.69349 0.15234 0.36199
 C798 C 0.71043 0.13519 0.34060
 C799 C 0.72653 0.15418 0.32309
 C800 C 0.72620 0.19084 0.32687
 C801 C 0.71047 0.20721 0.35041
 C802 C 0.69419 0.18834 0.36747
 C803 C 0.67392 0.13369 0.37632
 N804 N 0.65303 0.15205 0.38554
 N805 N 0.63463 0.13553 0.39630
 C806 C 0.63637 0.09993 0.39842
 N807 N 0.65737 0.08148 0.38961
 N808 N 0.67574 0.09803 0.37855
 C809 C 0.61561 0.08192 0.40974
 C810 C 0.61880 0.04826 0.42425
 C811 C 0.59906 0.03241 0.43658
 C812 C 0.57577 0.04966 0.43397
 C813 C 0.57257 0.08274 0.41836
 C814 C 0.59229 0.09882 0.40666
 H815 H 0.71042 0.10736 0.33607
 H816 H 0.73837 0.13986 0.30594
 H817 H 0.70989 0.23525 0.35426
 H818 H 0.68160 0.20222 0.38421
 H819 H 0.63658 0.03464 0.42693
 H820 H 0.60204 0.00687 0.44848
 H821 H 0.55488 0.09680 0.41618
 H822 H 0.58926 0.12464 0.39531
 C823 C 0.69381 0.65401 -0.13882
 C824 C 0.70707 0.63927 -0.16536
 C825 C 0.72253 0.65894 -0.18320
 C826 C 0.72590 0.69376 -0.17425
 C827 C 0.71325 0.70758 -0.14638
 C828 C 0.69738 0.68809 -0.12911
 C829 C 0.67468 0.63527 -0.12354
 N830 N 0.65501 0.65362 -0.11039
 N831 N 0.63675 0.63712 -0.09908
 C832 C 0.63748 0.60157 -0.10027
 N833 N 0.65732 0.58313 -0.11293
 N834 N 0.67549 0.59968 -0.12457
 C835 C 0.61682 0.58359 -0.08868
 C836 C 0.62002 0.54897 -0.07637
 C837 C 0.60043 0.53274 -0.06416
 C838 C 0.57725 0.55055 -0.06484
 C839 C 0.57399 0.58473 -0.07816
 C840 C 0.59361 0.60122 -0.08963
 H841 H 0.70435 0.61321 -0.17370
 H842 H 0.73053 0.64700 -0.20501
 H843 H 0.71465 0.73439 -0.13899
 H844 H 0.68733 0.70013 -0.10870
 H845 H 0.63774 0.53481 -0.07538
 H846 H 0.60342 0.50639 -0.05397
 H847 H 0.55636 0.59920 -0.07873
 H848 H 0.59062 0.62781 -0.09927
 C849 C 0.81534 -0.17237 -0.15796
 C850 C 0.81510 -0.17842 -0.19186
 C851 C 0.79807 -0.19835 -0.20552
 C852 C 0.78116 -0.21368 -0.18549
 C853 C 0.78122 -0.20654 -0.15156
 C854 C 0.79790 -0.18612 -0.13812
 C855 C 0.83399 -0.15276 -0.14301
 N856 N 0.83105 -0.13994 -0.11215
 N857 N 0.84817 -0.12363 -0.09808
 C858 C 0.86907 -0.11967 -0.11416
 N859 N 0.87198 -0.13234 -0.14509
 N860 N 0.85478 -0.14846 -0.15924
 C861 C 0.88847 -0.10261 -0.09801
 C862 C 0.91207 -0.10708 -0.11031
 C863 C 0.93049 -0.09174 -0.09469
 C864 C 0.92572 -0.07112 -0.06667
 C865 C 0.90209 -0.06638 -0.05450
 C866 C 0.88371 -0.08217 -0.06985
 H867 H 0.82823 -0.16796 -0.20790
 H868 H 0.79924 -0.20285 -0.23153
 H869 H 0.76805 -0.21598 -0.13501
 H870 H 0.79737 -0.18171 -0.11193
 H871 H 0.91639 -0.12279 -0.13184
 H872 H 0.94846 -0.09575 -0.10482
 H873 H 0.89782 -0.05070 -0.03293
 H874 H 0.86573 -0.07816 -0.05975
 C875 C 0.81609 0.32750 0.34572
 C876 C 0.81961 0.31479 0.31366
 C877 C 0.80346 0.29365 0.29986
 C878 C 0.78354 0.28437 0.31782
 C879 C 0.77965 0.29785 0.34958
 C880 C 0.79569 0.31922 0.36333
 C881 C 0.83405 0.34813 0.36100
 N882 N 0.82979 0.36356 0.39061
 N883 N 0.84638 0.38090 0.40477
 C884 C 0.86797 0.38341 0.38997
 N885 N 0.87214 0.36815 0.36031
 N886 N 0.85555 0.35095 0.34612
 C887 C 0.88696 0.40136 0.40610
 C888 C 0.91054 0.39736 0.39378
 C889 C 0.92875 0.41318 0.40920
 C890 C 0.92387 0.43376 0.43721
 C891 C 0.90023 0.43829 0.44936
 C892 C 0.88197 0.42206 0.43408
 H893 H 0.83504 0.32078 0.29927
 H894 H 0.80707 0.28380 0.27549
 H895 H 0.76419 0.29187 0.36389
 H896 H 0.79233 0.32868 0.38801
 H897 H 0.91509 0.38156 0.37237
 H898 H 0.94672 0.40930 0.39903
 H899 H 0.89589 0.45396 0.47091
 H900 H 0.86398 0.42574 0.44416
 C901 C 0.31491 -0.16863 0.34277
 C902 C 0.31892 -0.18188 0.31096
 C903 C 0.30227 -0.20154 0.29623
 C904 C 0.28137 -0.20886 0.31303
 C905 C 0.27697 -0.19467 0.34443
 C906 C 0.29349 -0.17470 0.35907
 C907 C 0.33340 -0.14991 0.35923
 N908 N 0.32852 -0.13270 0.38785
 N909 N 0.34548 -0.11710 0.40315
 C910 C 0.36808 -0.11827 0.39058
 N911 N 0.37288 -0.13534 0.36191
 N912 N 0.35593 -0.15076 0.34656
 C913 C 0.38734 -0.10205 0.40794
 C914 C 0.41144 -0.11057 0.39893
 C915 C 0.42979 -0.09579 0.41511
 C916 C 0.42458 -0.07175 0.44059
 C917 C 0.40045 -0.06301 0.44959
 C918 C 0.38203 -0.07821 0.43359
 H919 H 0.33514 -0.17750 0.29755
 H920 H 0.30627 -0.21198 0.27218
 H921 H 0.26079 -0.19919 0.35784
 H922 H 0.28973 -0.16476 0.38350
 H923 H 0.41624 -0.12893 0.37943
 H924 H 0.44812 -0.10304 0.40734
 H925 H 0.39579 -0.04448 0.46899
 H926 H 0.36364 -0.07101 0.44109
 C927 C 0.31660 0.33039 -0.15593
 C928 C 0.31685 0.32565 -0.19002
 C929 C 0.29984 0.30674 -0.20495
 C930 C 0.28238 0.29112 -0.18610
 C931 C 0.28194 0.29704 -0.15191
 C932 C 0.29867 0.31643 -0.13717
 C933 C 0.33530 0.34888 -0.13982
 N934 N 0.33226 0.36046 -0.10855
 N935 N 0.34944 0.37587 -0.09362
 C936 C 0.37047 0.38010 -0.10926
 N937 N 0.37346 0.36865 -0.14057
 N938 N 0.35623 0.35344 -0.15556
 C939 C 0.38996 0.39611 -0.09235
 C940 C 0.41357 0.39137 -0.10453
 C941 C 0.43210 0.40586 -0.08846
 C942 C 0.42745 0.42590 -0.06006
 C943 C 0.40382 0.43090 -0.04794
 C944 C 0.38530 0.41590 -0.06377
 H945 H 0.33033 0.33638 -0.20525
 H946 H 0.30138 0.30352 -0.23112
 H947 H 0.26837 0.28749 -0.13611
 H948 H 0.29778 0.31992 -0.11085
 H949 H 0.41781 0.37613 -0.12637
 H950 H 0.45008 0.40170 -0.09857
 H951 H 0.39967 0.44618 -0.02611
 H952 H 0.36729 0.42010 -0.05380
 C953 C 1.18559 -0.15836 0.19916
 C954 C 1.18097 -0.16151 0.23296
 C955 C 1.19668 -0.18246 0.25308
 C956 C 1.21747 -0.20078 0.24001
 C957 C 1.22311 -0.19587 0.20676
 C958 C 1.20724 -0.17485 0.18642
 C959 C 1.16694 -0.14019 0.17748
 N960 N 1.17119 -0.13442 0.14505
 N961 N 1.15374 -0.12001 0.12556
 C962 C 1.13130 -0.11105 0.13764
 N963 N 1.12717 -0.11662 0.17005
 N964 N 1.14458 -0.13083 0.18950
 C965 C 1.11144 -0.09637 0.11606
 C966 C 1.08753 -0.09567 0.12698
 C967 C 1.06862 -0.08210 0.10694
 C968 C 1.07312 -0.06850 0.07555
 C969 C 1.09703 -0.06909 0.06457
 C970 C 1.11598 -0.08311 0.08453
 H971 H 1.16473 -0.14876 0.24381
 H972 H 1.19214 -0.18538 0.27879
 H973 H 1.23902 -0.20984 0.19614
 H974 H 1.21141 -0.17282 0.16053
 H975 H 1.08334 -0.10584 0.15105
 H976 H 1.05046 -0.08189 0.11626
 H977 H 1.10113 -0.05881 0.04050
 H978 H 1.13419 -0.08320 0.07541
 C979 C 1.18726 0.34374 0.70026
 C980 C 1.18306 0.34228 0.73427
 C981 C 1.19893 0.32210 0.75474
 C982 C 1.21944 0.30300 0.74180
 C983 C 1.22478 0.30649 0.70830
 C984 C 1.20876 0.32671 0.68761
 C985 C 1.16821 0.36033 0.67835
 N986 N 1.17211 0.36483 0.64566
 N987 N 1.15430 0.37766 0.62601
 C988 C 1.13184 0.38616 0.63820
 N989 N 1.12805 0.38185 0.67085
 N990 N 1.14582 0.36925 0.69046
 C991 C 1.11168 0.39938 0.61656
 C992 C 1.08788 0.39939 0.62777
 C993 C 1.06873 0.41244 0.60793
 C994 C 1.07289 0.42618 0.57651
 C995 C 1.09668 0.42583 0.56508
 C996 C 1.11587 0.41234 0.58482
 H997 H 1.16694 0.35552 0.74500
 H998 H 1.19462 0.32012 0.78062
 H999 H 1.24047 0.29180 0.69782
 H1000 H 1.21259 0.32748 0.66155
 H1001 H 1.08400 0.38934 0.65199
 H1002 H 1.05066 0.41247 0.61755
 H1003 H 1.10050 0.43619 0.54094
 H1004 H 1.13399 0.41268 0.57547
 C1005 C 0.68384 -0.16676 0.70716
 C1006 C 0.67702 -0.17738 0.73863
 C1007 C 0.69305 -0.19778 0.75862
 C1008 C 0.71664 -0.20837 0.74804
 C1009 C 0.72413 -0.19546 0.71742
 C1010 C 0.70779 -0.17518 0.69705
 C1011 C 0.66538 -0.14877 0.68502
 N1012 N 0.67084 -0.13800 0.65415
 N1013 N 0.65366 -0.12359 0.63419
 C1014 C 0.63033 -0.11958 0.64422
 N1015 N 0.62501 -0.13014 0.67509
 N1016 N 0.64211 -0.14438 0.69498
 C1017 C 0.61082 -0.10463 0.62216
 C1018 C 0.58672 -0.10663 0.63125
 C1019 C 0.56809 -0.09246 0.61106
 C1020 C 0.57300 -0.07566 0.58125
 C1021 C 0.59710 -0.07378 0.57196
 C1022 C 0.61582 -0.08825 0.59214
 H1023 H 0.65897 -0.17069 0.74776
 H1024 H 0.68672 -0.20509 0.78267
 H1025 H 0.74197 -0.20293 0.70794
 H1026 H 0.71370 -0.16715 0.67299
 H1027 H 0.58214 -0.11922 0.65409
 H1028 H 0.54979 -0.09436 0.61908
 H1029 H 0.60154 -0.06100 0.54915
 H1030 H 0.63416 -0.08624 0.58440
 C1031 C 0.68683 0.33304 0.20595
 C1032 C 0.70884 0.31765 0.19339
 C1033 C 0.72476 0.29673 0.21365
 C1034 C 0.71883 0.29081 0.24664
 C1035 C 0.69760 0.30796 0.25959
 C1036 C 0.68181 0.32883 0.23953
 C1037 C 0.66827 0.35114 0.18417
 N1038 N 0.64568 0.35955 0.19576
 N1039 N 0.62837 0.37369 0.17612
 C1040 C 0.63286 0.38011 0.14395
 N1041 N 0.65553 0.37213 0.13232
 N1042 N 0.67288 0.35780 0.15200
 C1043 C 0.61317 0.39471 0.12215
 C1044 C 0.61795 0.40871 0.09100
 C1045 C 0.59913 0.42282 0.07089
 C1046 C 0.57515 0.42281 0.08138
 C1047 C 0.57042 0.40836 0.11235
 C1048 C 0.58918 0.39466 0.13252
 H1049 H 0.71330 0.32052 0.16766
 H1050 H 0.74102 0.28366 0.20311
 H1051 H 0.69284 0.30433 0.28513
 H1052 H 0.66525 0.34072 0.25021
 H1053 H 0.63623 0.40917 0.08231
 H1054 H 0.60339 0.43378 0.04716
 H1055 H 0.55219 0.40807 0.12129
 H1056 H 0.58483 0.38388 0.15629
 C1057 C 0.81238 0.18345 0.17661
 C1058 C 0.79253 0.16574 0.18576
 C1059 C 0.77745 0.17803 0.21146
 C1060 C 0.78185 0.20832 0.22873
 C1061 C 0.80107 0.22684 0.21860
 C1062 C 0.81622 0.21451 0.19296
 C1063 C 0.82961 0.16872 0.15134
 N1064 N 0.85001 0.18397 0.14474
 N1065 N 0.86630 0.16946 0.12375
 C1066 C 0.86289 0.13909 0.10836
 N1067 N 0.84231 0.12410 0.11458
 N1068 N 0.82603 0.13860 0.13562
 C1069 C 0.88197 0.12150 0.08714
 C1070 C 0.87845 0.09039 0.07061
 C1071 C 0.89731 0.07210 0.05328
 C1072 C 0.92012 0.08442 0.05233
 C1073 C 0.92333 0.11623 0.06774
 C1074 C 0.90449 0.13460 0.08482
 H1075 H 0.78883 0.14195 0.17351
 H1076 H 0.76235 0.16364 0.21779
 H1077 H 0.80495 0.25031 0.23096
 H1078 H 0.83124 0.22900 0.18641
 H1079 H 0.86130 0.07965 0.07174
 H1080 H 0.89425 0.04767 0.04166
 H1081 H 0.94062 0.12664 0.06724
 H1082 H 0.90784 0.15854 0.09707
 C1083 C 0.81108 0.68768 0.67999
 C1084 C 0.79404 0.66695 0.69323
 C1085 C 0.77843 0.67972 0.71804
 C1086 C 0.77913 0.71390 0.73047
 C1087 C 0.79541 0.73534 0.71571
 C1088 C 0.81138 0.72220 0.69115
 C1089 C 0.82901 0.67247 0.65587
 N1090 N 0.84940 0.68786 0.64950
 N1091 N 0.86633 0.67256 0.62982
 C1092 C 0.86355 0.64131 0.61557
 N1093 N 0.84297 0.62627 0.62151
 N1094 N 0.82611 0.64148 0.64128
 C1095 C 0.88309 0.62284 0.59573
 C1096 C 0.87918 0.59264 0.57804
 C1097 C 0.89808 0.57361 0.56147
 C1098 C 0.92138 0.58417 0.56249
 C1099 C 0.92515 0.61488 0.57945
 C1100 C 0.90622 0.63408 0.59574
 H1101 H 0.79306 0.64035 0.68497
 H1102 H 0.76553 0.66255 0.72694
 H1103 H 0.79689 0.76172 0.72377
 H1104 H 0.82419 0.73899 0.68120
 H1105 H 0.86157 0.58334 0.57739
 H1106 H 0.89456 0.55009 0.54863
 H1107 H 0.94284 0.62390 0.58052
 H1108 H 0.90988 0.65719 0.60909
 C1109 C 0.31408 0.19168 0.67733
 C1110 C 0.29216 0.17741 0.68237
 C1111 C 0.27622 0.19054 0.70679
 C1112 C 0.28178 0.21826 0.72671
 C1113 C 0.30322 0.23340 0.72091
 C1114 C 0.31924 0.22024 0.69653
 C1115 C 0.33194 0.17570 0.65344
 N1116 N 0.35383 0.18778 0.65025
 N1117 N 0.37045 0.17201 0.63043
 C1118 C 0.36592 0.14348 0.61290
 N1119 N 0.34391 0.13168 0.61575
 N1120 N 0.32729 0.14744 0.63559
 C1121 C 0.38508 0.12444 0.59279
 C1122 C 0.38060 0.09476 0.57467
 C1123 C 0.39925 0.07516 0.55806
 C1124 C 0.42281 0.08473 0.55937
 C1125 C 0.42708 0.11510 0.57651
 C1126 C 0.40846 0.13473 0.59293
 H1127 H 0.28749 0.15559 0.66792
 H1128 H 0.25957 0.17877 0.71022
 H1129 H 0.30810 0.25452 0.73599
 H1130 H 0.33593 0.23194 0.69331
 H1131 H 0.36278 0.08617 0.57390
 H1132 H 0.39534 0.05194 0.54504
 H1133 H 0.44496 0.12342 0.57782
 H1134 H 0.41258 0.15750 0.60646
 C1135 C 0.31317 0.68659 0.17600
 C1136 C 0.29277 0.66967 0.18420
 C1137 C 0.27671 0.68333 0.20828
 C1138 C 0.28061 0.71426 0.22489
 C1139 C 0.30033 0.73212 0.21543
 C1140 C 0.31650 0.71836 0.19146
 C1141 C 0.33139 0.67034 0.15267
 N1142 N 0.35260 0.68410 0.14803
 N1143 N 0.36957 0.66828 0.12874
 C1144 C 0.36607 0.63804 0.11319
 N1145 N 0.34474 0.62452 0.11749
 N1146 N 0.32778 0.64030 0.13683
 C1147 C 0.38562 0.61921 0.09352
 C1148 C 0.38173 0.58892 0.07594
 C1149 C 0.40068 0.56981 0.05944
 C1150 C 0.42398 0.58042 0.06038
 C1151 C 0.42769 0.61126 0.07716
 C1152 C 0.40875 0.63047 0.09341
 H1153 H 0.28943 0.64538 0.17255
 H1154 H 0.26128 0.66940 0.21397
 H1155 H 0.30380 0.75615 0.22712
 H1156 H 0.33188 0.73234 0.18551
 H1157 H 0.36413 0.57958 0.07537
 H1158 H 0.39719 0.54618 0.04675
 H1159 H 0.44536 0.62036 0.07820
 H1160 H 0.41243 0.65369 0.10659
   
