data_POSCAR
  _audit_creation_date              2014-09-24
  _audit_creation_method            'ToBaCCo'
  _symmetry_space_group_name_H-M    'P1'
  _symmetry_Int_Tables_number       1
  _symmetry_cell_setting            triclinic
  loop_
  _symmetry_equiv_pos_as_xyz
 x,y,z
_cell_length_a 24.7601
_cell_length_b 17.9988
_cell_length_c 18.0585
_cell_angle_alpha 90.127100
_cell_angle_beta 89.975700
_cell_angle_gamma 89.950200
loop_
  _atom_site_label
  _atom_site_type_symbol
  _atom_site_fract_x
  _atom_site_fract_y
  _atom_site_fract_z
C1 C 0.33852 0.33995 0.21234
 H2 H 0.34915 0.33260 0.26997
 C3 C 0.36972 0.38621 0.16732
 H4 H 0.40426 0.41463 0.19075
 C5 C 0.27949 0.31372 0.11241
 H6 H 0.24425 0.28564 0.09113
 C7 C 0.30929 0.35970 0.06566
 H8 H 0.29689 0.36594 0.00850
 N9 N 0.29391 0.30568 0.18462
 C10 C 0.16181 0.28572 0.34136
 H11 H 0.15115 0.22786 0.33428
 C12 C 0.13089 0.33119 0.38774
 H13 H 0.09651 0.30790 0.41657
 C14 C 0.22061 0.38585 0.31413
 H15 H 0.25562 0.40704 0.28557
 C16 C 0.19109 0.43305 0.36023
 H17 H 0.20347 0.49046 0.36610
 Zn18 Zn 0.24972 0.24877 0.24883
 N19 N 0.20615 0.31335 0.30647
 C20 C 0.28066 0.18524 0.38519
 N21 N 0.29407 0.19121 0.31240
 C22 C 0.33794 0.15531 0.28427
 C23 C 0.36943 0.10964 0.32961
 C24 C 0.31070 0.13985 0.43221
 C25 C 0.16030 0.21388 0.15792
 C26 C 0.12821 0.16889 0.11257
 C27 C 0.18699 0.06544 0.14030
 C28 C 0.21765 0.11214 0.18540
 N29 N 0.20454 0.18522 0.19230
 H30 H 0.24609 0.21465 0.40685
 H31 H 0.34787 0.16117 0.22623
 H32 H 0.40346 0.08003 0.30606
 H33 H 0.29907 0.13529 0.48985
 H34 H 0.15062 0.27214 0.16455
 H35 H 0.09402 0.19295 0.08394
 H36 H 0.19848 0.00762 0.13472
 H37 H 0.25253 0.09011 0.21367
 C38 C 0.14597 0.40564 0.39841
 C39 C 0.35465 0.39741 0.09322
 C40 C 0.14208 0.09393 0.10237
 C41 C 0.35533 0.10066 0.40438
 C42 C 0.84359 0.82951 0.20755
 H43 H 0.85903 0.81376 0.26129
 C44 C 0.87443 0.87530 0.16149
 H45 H 0.91292 0.89483 0.18201
 C46 C 0.77286 0.82671 0.11968
 H47 H 0.73335 0.80759 0.10329
 C48 C 0.80198 0.87246 0.07213
 H49 H 0.78434 0.88448 0.01872
 N50 N 0.79368 0.80656 0.18615
 C51 C 0.66135 0.78525 0.34157
 H52 H 0.65056 0.72746 0.33438
 C53 C 0.63011 0.83105 0.38725
 H54 H 0.59538 0.80803 0.41549
 C55 C 0.72097 0.88483 0.31553
 H56 H 0.75666 0.90535 0.28787
 C57 C 0.69109 0.93238 0.36084
 H58 H 0.70374 0.98964 0.36697
 Zn59 Zn 0.75027 0.74864 0.25036
 N60 N 0.70612 0.81257 0.30749
 C61 C 0.78166 0.68601 0.38682
 N62 N 0.79485 0.69180 0.31396
 C63 C 0.83842 0.65549 0.28546
 C64 C 0.86993 0.60973 0.33053
 C65 C 0.81169 0.64037 0.43361
 C66 C 0.66049 0.71169 0.16125
 C67 C 0.62894 0.66655 0.11546
 C68 C 0.69039 0.56504 0.13917
 C69 C 0.72064 0.61199 0.18451
 N70 N 0.70594 0.68425 0.19360
 H71 H 0.74718 0.71558 0.40861
 H72 H 0.84805 0.66102 0.22730
 H73 H 0.90373 0.57983 0.30673
 H74 H 0.80026 0.63570 0.49130
 H75 H 0.64935 0.76919 0.16986
 H76 H 0.59386 0.68991 0.08832
 H77 H 0.70306 0.50786 0.13211
 H78 H 0.75636 0.59075 0.21131
 C79 C 0.64536 0.90541 0.39809
 C80 C 0.85348 0.89912 0.09275
 C81 C 0.64438 0.59249 0.10300
 C82 C 0.85606 0.60094 0.40534
 C83 C 0.83849 0.34551 0.71440
 H84 H 0.84747 0.34130 0.77286
 C85 C 0.86980 0.39140 0.66929
 H86 H 0.90279 0.42270 0.69332
 C87 C 0.78361 0.31154 0.61230
 H88 H 0.74992 0.28058 0.59022
 C89 C 0.81341 0.35739 0.56546
 H90 H 0.80261 0.36092 0.50746
 N91 N 0.79594 0.30735 0.68556
 C92 C 0.66154 0.28712 0.83856
 H93 H 0.65012 0.22990 0.82908
 C94 C 0.62978 0.33207 0.88439
 H95 H 0.59448 0.30869 0.91095
 C96 C 0.72184 0.38674 0.81646
 H97 H 0.75758 0.40819 0.78996
 C98 C 0.69140 0.43349 0.86188
 H99 H 0.70402 0.49061 0.86933
 Zn100 Zn 0.75127 0.25032 0.74908
 N101 N 0.70716 0.31458 0.80672
 C102 C 0.77031 0.16212 0.87371
 N103 N 0.79424 0.19093 0.81271
 C104 C 0.84663 0.17542 0.79654
 C105 C 0.87706 0.12920 0.84271
 C106 C 0.79896 0.11596 0.92143
 C107 C 0.66196 0.21499 0.65799
 C108 C 0.63057 0.16955 0.61225
 C109 C 0.69161 0.06789 0.63762
 C110 C 0.72165 0.11508 0.68299
 N111 N 0.70678 0.18729 0.69167
 H112 H 0.72871 0.17521 0.88589
 H113 H 0.86458 0.19715 0.74652
 H114 H 0.91752 0.11598 0.82459
 H115 H 0.77807 0.09906 0.97109
 H116 H 0.65122 0.27277 0.66560
 H117 H 0.59576 0.19283 0.58437
 H118 H 0.70425 0.01063 0.63106
 H119 H 0.75748 0.09435 0.71019
 C120 C 0.64516 0.40599 0.89745
 C121 C 0.85674 0.39858 0.59407
 C122 C 0.64576 0.09519 0.60088
 C123 C 0.85354 0.09692 0.90668
 C124 C 0.33816 0.84525 0.71567
 H125 H 0.34806 0.83929 0.77370
 C126 C 0.36960 0.89106 0.67042
 H127 H 0.40355 0.92065 0.69404
 C128 C 0.28100 0.81546 0.61468
 H129 H 0.24650 0.78604 0.59295
 C130 C 0.31099 0.86097 0.56775
 H131 H 0.29940 0.86562 0.51012
 N132 N 0.29436 0.80938 0.68746
 C133 C 0.16068 0.78655 0.84219
 H134 H 0.15101 0.72833 0.83539
 C135 C 0.12858 0.83146 0.88769
 H136 H 0.09438 0.80738 0.91627
 C137 C 0.21800 0.88826 0.81494
 H138 H 0.25286 0.91033 0.78667
 C139 C 0.18731 0.93490 0.86020
 H140 H 0.19877 0.99269 0.86590
 Zn141 Zn 0.25001 0.75173 0.75094
 N142 N 0.20491 0.81523 0.80782
 C143 C 0.27985 0.68622 0.88705
 N144 N 0.29422 0.69441 0.81483
 C145 C 0.33876 0.65997 0.78688
 C146 C 0.36989 0.61336 0.83167
 C147 C 0.30959 0.63989 0.93357
 C148 C 0.16202 0.71540 0.65839
 C149 C 0.13102 0.67013 0.61201
 C150 C 0.19105 0.56792 0.63936
 C151 C 0.22065 0.61492 0.68547
 N152 N 0.20632 0.68749 0.69319
 H153 H 0.24468 0.71444 0.90852
 H154 H 0.34936 0.66745 0.72926
 H155 H 0.40437 0.58481 0.80806
 H156 H 0.29722 0.63355 0.99073
 H157 H 0.15146 0.77331 0.66554
 H158 H 0.09667 0.69362 0.58324
 H159 H 0.20334 0.51045 0.63344
 H160 H 0.25562 0.59349 0.71399
 C161 C 0.14240 0.90639 0.89807
 C162 C 0.35552 0.90018 0.59567
 C163 C 0.14598 0.59561 0.60124
 C164 C 0.35484 0.60198 0.90576
 C165 C -0.06080 -0.04823 0.04707
 C166 C -0.03284 -0.00013 0.00010
 C167 C -0.06106 0.04761 -0.04721
 C168 C -0.11824 0.04905 -0.04833
 C169 C -0.14538 -0.00153 -0.00100
 C170 C -0.11761 -0.05068 0.04664
 C171 C 0.02661 0.00004 0.00019
 C172 C 0.05503 -0.04605 -0.04898
 C173 C 0.11173 -0.04589 -0.04967
 C174 C 0.13956 0.00017 0.00023
 C175 C 0.11156 0.04617 0.05010
 C176 C 0.05485 0.04621 0.04938
 H177 H -0.03758 -0.08595 0.08116
 H178 H -0.03729 0.08597 -0.07964
 H179 H 0.03294 -0.08110 -0.08729
 H180 H 0.03262 0.08122 0.08766
 H181 H -0.18875 -0.00374 -0.00131
 H182 H 0.18333 0.00022 0.00025
 C183 C -0.05651 0.45182 0.54642
 C184 C -0.02841 0.50059 0.49998
 C185 C -0.05681 0.54895 0.45341
 C186 C -0.11348 0.54920 0.45336
 C187 C -0.14132 0.49959 0.49956
 C188 C -0.11316 0.45060 0.54604
 C189 C 0.03085 0.50076 0.49988
 C190 C 0.05910 0.45423 0.45112
 C191 C 0.11577 0.45415 0.45040
 C192 C 0.14375 0.50072 0.49976
 C193 C 0.11576 0.54730 0.54920
 C194 C 0.05908 0.54729 0.54858
 H195 H -0.03424 0.41414 0.58186
 H196 H -0.03475 0.58699 0.41814
 H197 H 0.03687 0.41898 0.41315
 H198 H 0.03683 0.58251 0.58663
 H199 H -0.18509 0.49913 0.49939
 H200 H 0.18751 0.50068 0.49973
 C201 C 0.44259 -0.04729 0.54734
 C202 C 0.47082 0.00060 0.50005
 C203 C 0.44248 0.04843 0.45278
 C204 C 0.38579 0.04918 0.45293
 C205 C 0.35790 0.00049 0.50010
 C206 C 0.38589 -0.04816 0.54722
 C207 C 0.53017 0.00054 0.49986
 C208 C 0.55836 -0.04581 0.45080
 C209 C 0.61507 -0.04596 0.44995
 C210 C 0.64310 0.00044 0.49937
 C211 C 0.61525 0.04686 0.54907
 C212 C 0.55854 0.04683 0.54869
 H213 H 0.46482 -0.08467 0.58312
 H214 H 0.46463 0.08579 0.41692
 H215 H 0.53607 -0.08091 0.41277
 H216 H 0.53639 0.08195 0.58694
 H217 H 0.31413 0.00045 0.50010
 H218 H 0.68685 0.00038 0.49918
 C219 C 0.44167 0.45023 0.04529
 C220 C 0.46999 0.49927 -0.00064
 C221 C 0.44178 0.54847 -0.04657
 C222 C 0.38508 0.54936 -0.04657
 C223 C 0.35705 0.49957 -0.00064
 C224 C 0.38497 0.44966 0.04531
 C225 C 0.52931 0.49927 -0.00040
 C226 C 0.55776 0.45375 -0.04996
 C227 C 0.61447 0.45363 -0.05022
 C228 C 0.64220 0.49917 0.00028
 C229 C 0.61409 0.54477 0.05042
 C230 C 0.55740 0.54475 0.04948
 H231 H 0.46386 0.41190 0.08010
 H232 H 0.46405 0.58676 -0.08129
 H233 H 0.53567 0.41932 -0.08881
 H234 H 0.53503 0.57922 0.08806
 H235 H 0.31330 0.49970 -0.00061
 H236 H 0.68595 0.49914 0.00055
   
