data_POSCAR
  _audit_creation_date              2014-09-24
  _audit_creation_method            'ToBaCCo'
  _symmetry_space_group_name_H-M    'P1'
  _symmetry_Int_Tables_number       1
  _symmetry_cell_setting            triclinic
  loop_
  _symmetry_equiv_pos_as_xyz
 x,y,z
_cell_length_a 48.6290
_cell_length_b 48.8618
_cell_length_c 48.7056
_cell_angle_alpha 89.994700
_cell_angle_beta 89.951800
_cell_angle_gamma 89.964100
loop_
  _atom_site_label
  _atom_site_type_symbol
  _atom_site_fract_x
  _atom_site_fract_y
  _atom_site_fract_z
N1 N 0.14267 0.16209 0.21919
 N2 N 0.16196 0.14317 0.21893
 C3 C 0.15790 0.12596 0.24019
 C4 C 0.13496 0.13475 0.25432
 C5 C 0.12570 0.15762 0.24059
 H6 H 0.17060 0.10844 0.24504
 H7 H 0.10803 0.17006 0.24575
 Cu8 Cu 0.19029 0.14317 0.19069
 Cu9 Cu 0.14090 0.19112 0.19182
 Cu10 Cu 0.19141 0.19099 0.14139
 N11 N 0.21859 0.14302 0.16239
 N12 N 0.21886 0.16190 0.14311
 C13 C 0.24028 0.15733 0.12615
 C14 C 0.25403 0.13443 0.13539
 C15 C 0.23986 0.12575 0.15834
 H16 H 0.24544 0.16972 0.10848
 H17 H 0.24467 0.10824 0.17105
 N18 N 0.16192 0.21870 0.14315
 N19 N 0.14270 0.21874 0.16236
 C20 C 0.12568 0.24009 0.15805
 C21 C 0.13469 0.25397 0.13514
 C22 C 0.15761 0.24003 0.12613
 H23 H 0.10805 0.24521 0.17059
 H24 H 0.17015 0.24510 0.10852
 H25 H 0.16019 0.16967 0.16086
 H26 H 0.18230 0.19179 0.18289
 N27 N -0.14290 0.83799 0.21882
 N28 N -0.16216 0.85692 0.21859
 C29 C -0.15804 0.87415 0.23978
 C30 C -0.13511 0.86538 0.25388
 C31 C -0.12592 0.84248 0.24017
 H32 H -0.17070 0.89170 0.24467
 H33 H -0.10828 0.83001 0.24534
 Cu34 Cu -0.19048 0.85695 0.19046
 Cu35 Cu -0.14119 0.80891 0.19158
 Cu36 Cu -0.19177 0.80899 0.14130
 N37 N -0.21881 0.85702 0.16230
 N38 N -0.21913 0.83812 0.14306
 C39 C -0.24059 0.84266 0.12619
 C40 C -0.25427 0.86559 0.13545
 C41 C -0.24004 0.87432 0.15831
 H42 H -0.24583 0.83022 0.10859
 H43 H -0.24483 0.89185 0.17101
 N44 N -0.16232 0.78127 0.14307
 N45 N -0.14308 0.78127 0.16222
 C46 C -0.12608 0.75990 0.15794
 C47 C -0.13514 0.74597 0.13512
 C48 C -0.15805 0.75990 0.12611
 H49 H -0.10845 0.75480 0.17045
 H50 H -0.17061 0.75478 0.10854
 H51 H -0.16054 0.83029 0.16062
 H52 H -0.18266 0.80824 0.18278
 N53 N -0.14330 0.16199 -0.21871
 N54 N -0.16252 0.14305 -0.21841
 C55 C -0.15843 0.12584 -0.23965
 C56 C -0.13554 0.13463 -0.25382
 C57 C -0.12637 0.15753 -0.24012
 H58 H -0.17107 0.10829 -0.24448
 H59 H -0.10878 0.17002 -0.24538
 Cu60 Cu -0.19080 0.14293 -0.19018
 Cu61 Cu -0.14163 0.19105 -0.19141
 Cu62 Cu -0.19212 0.19086 -0.14098
 N63 N -0.21910 0.14282 -0.16193
 N64 N -0.21945 0.16170 -0.14267
 C65 C -0.24088 0.15710 -0.12575
 C66 C -0.25453 0.13417 -0.13501
 C67 C -0.24031 0.12550 -0.15792
 H68 H -0.24615 0.16953 -0.10813
 H69 H -0.24505 0.10798 -0.17063
 N70 N -0.16273 0.21863 -0.14277
 N71 N -0.14351 0.21869 -0.16198
 C72 C -0.12655 0.24007 -0.15771
 C73 C -0.13560 0.25396 -0.13482
 C74 C -0.15847 0.23998 -0.12578
 H75 H -0.10894 0.24520 -0.17026
 H76 H -0.17102 0.24504 -0.10816
 H77 H -0.16088 0.16964 -0.16045
 H78 H -0.18308 0.19166 -0.18251
 N79 N 0.14325 0.83819 -0.21880
 N80 N 0.16252 0.85708 -0.21840
 C81 C 0.15869 0.87423 -0.23974
 C82 C 0.13587 0.86548 -0.25404
 C83 C 0.12652 0.84264 -0.24034
 H84 H 0.17148 0.89166 -0.24459
 H85 H 0.10893 0.83019 -0.24567
 Cu86 Cu 0.19063 0.85701 -0.19001
 Cu87 Cu 0.14131 0.80910 -0.19151
 Cu88 Cu 0.19162 0.80896 -0.14098
 N89 N 0.21891 0.85693 -0.16177
 N90 N 0.21912 0.83797 -0.14258
 C91 C 0.24061 0.84230 -0.12570
 C92 C 0.25445 0.86516 -0.13490
 C93 C 0.24029 0.87402 -0.15777
 H94 H 0.24578 0.82976 -0.10814
 H95 H 0.24524 0.89147 -0.17049
 N96 N 0.16205 0.78139 -0.14284
 N97 N 0.14290 0.78146 -0.16208
 C98 C 0.12586 0.76012 -0.15790
 C99 C 0.13479 0.74613 -0.13505
 C100 C 0.15767 0.76000 -0.12592
 H101 H 0.10831 0.75505 -0.17054
 H102 H 0.17017 0.75481 -0.10833
 H103 H 0.16049 0.83032 -0.16041
 H104 H 0.18275 0.80838 -0.18254
 N105 N 0.16231 1.14314 0.78141
 N106 N 0.14332 1.16233 0.78166
 C107 C 0.12619 1.15842 0.76028
 C108 C 0.13502 1.13560 0.74615
 C109 C 0.15789 1.12633 0.75998
 H110 H 0.10868 1.17113 0.75533
 H111 H 0.17035 1.10870 0.75486
 Cu112 Cu 0.14327 1.19047 0.80988
 Cu113 Cu 0.19134 1.14129 0.80882
 Cu114 Cu 0.19126 1.19154 0.85920
 N115 N 0.14323 1.21862 0.83809
 N116 N 0.16219 1.21887 0.85734
 C117 C 0.15774 1.24026 0.87418
 C118 C 0.13487 1.25406 0.86488
 C119 C 0.12608 1.23995 0.84200
 H120 H 0.17018 1.24538 0.89185
 H121 H 0.10859 1.24488 0.82923
 N122 N 0.21888 1.16212 0.85750
 N123 N 0.21890 1.14299 0.83832
 C124 C 0.24027 1.12601 0.84265
 C125 C 0.25415 1.13498 0.86553
 C126 C 0.24024 1.15780 0.87454
 H127 H 0.24543 1.10846 0.83013
 H128 H 0.24538 1.17029 0.89212
 H129 H 0.16977 1.16052 0.83989
 H130 H 0.19199 1.18254 0.81780
 N131 N 0.83830 0.85690 0.78122
 N132 N 0.85731 0.83772 0.78147
 C133 C 0.87452 0.84167 0.76015
 C134 C 0.86577 0.86453 0.74606
 C135 C 0.84283 0.87377 0.75984
 H136 H 0.89207 0.82898 0.75523
 H137 H 0.83042 0.89142 0.75475
 Cu138 Cu 0.85724 0.80948 0.80956
 Cu139 Cu 0.80918 0.85865 0.80858
 Cu140 Cu 0.80906 0.80832 0.85888
 N141 N 0.85719 0.78138 0.83777
 N142 N 0.83815 0.78106 0.85699
 C143 C 0.84259 0.75966 0.87380
 C144 C 0.86550 0.74594 0.86449
 C145 C 0.87434 0.76007 0.84165
 H146 H 0.83013 0.75451 0.89146
 H147 H 0.89190 0.75518 0.82892
 N148 N 0.78146 0.83773 0.85717
 N149 N 0.78150 0.85689 0.83802
 C150 C 0.76009 0.87385 0.84233
 C151 C 0.74612 0.86481 0.86517
 C152 C 0.76002 0.84199 0.87416
 H153 H 0.75497 0.89141 0.82983
 H154 H 0.75483 0.82945 0.89171
 H155 H 0.83068 0.83930 0.83977
 H156 H 0.80851 0.81733 0.81760
 N157 N 0.16149 0.85624 1.21832
 N158 N 0.14249 0.83710 1.21804
 C159 C 0.12526 0.84105 1.23936
 C160 C 0.13406 0.86385 1.25349
 C161 C 0.15701 0.87306 1.23973
 H162 H 0.10769 0.82839 1.24425
 H163 H 0.16952 0.89061 1.24492
 Cu164 Cu 0.14248 0.80897 1.18989
 Cu165 Cu 0.19063 0.85794 1.19098
 Cu166 Cu 0.19063 0.80765 1.14062
 N167 N 0.14248 0.78086 1.16173
 N168 N 0.16147 0.78050 1.14249
 C169 C 0.15698 0.75912 1.12568
 C170 C 0.13403 0.74549 1.13500
 C171 C 0.12524 0.75963 1.15785
 H172 H 0.16947 0.75387 1.10806
 H173 H 0.10768 0.75482 1.17060
 N174 N 0.21832 0.83695 1.14238
 N175 N 0.21832 0.85609 1.16155
 C176 C 0.23972 0.87303 1.15720
 C177 C 0.25362 0.86401 1.13432
 C178 C 0.23971 0.84121 1.12534
 H179 H 0.24485 0.89059 1.16969
 H180 H 0.24484 0.82871 1.10774
 H181 H 0.16926 0.83860 1.15990
 H182 H 0.19137 0.81657 1.18201
 N183 N 0.83832 1.14370 1.21837
 N184 N 0.85727 1.16291 1.21801
 C185 C 0.87455 1.15900 1.23926
 C186 C 0.86586 1.13619 1.25345
 C187 C 0.84290 1.12690 1.23978
 H188 H 0.89203 1.17176 1.24411
 H189 H 0.83046 1.10933 1.24505
 Cu190 Cu 0.85703 1.19128 1.19006
 Cu191 Cu 0.80912 1.14190 1.19117
 Cu192 Cu 0.80876 1.19200 1.14077
 N193 N 0.85688 1.21903 1.16153
 N194 N 0.83782 1.21924 1.14237
 C195 C 0.84214 1.24060 1.12548
 C196 C 0.86504 1.25438 1.13466
 C197 C 0.87398 1.24032 1.15749
 H198 H 0.82955 1.24577 1.10793
 H199 H 0.89151 1.24532 1.17017
 N200 N 0.78118 1.16264 1.14269
 N201 N 0.78131 1.14354 1.16190
 C202 C 0.75998 1.12649 1.15767
 C203 C 0.74596 1.13540 1.13482
 C204 C 0.75976 1.15825 1.12574
 H205 H 0.75498 1.10893 1.17021
 H206 H 0.75456 1.17068 1.10813
 H207 H 0.83062 1.16140 1.16012
 H208 H 0.80826 1.18338 1.18226
 O209 O 0.46086 0.95047 0.95194
 O210 O 0.43118 0.97646 0.97758
 C211 C 0.43618 0.95780 0.95939
 O212 O 0.53903 0.95201 1.05060
 O213 O 0.56858 0.97730 1.02416
 C214 C 0.56365 0.95938 1.04312
 O215 O 0.46105 0.94985 1.04836
 O216 O 0.43135 0.97649 1.02343
 C217 C 0.43640 0.95744 1.04117
 O218 O 0.53889 0.95258 0.94992
 O219 O 0.56857 0.97677 0.97721
 C220 C 0.56353 0.95938 0.95784
 Zr221 Zr 0.49998 0.96470 0.96586
 O222 O 0.50275 0.92153 0.96883
 O223 O 0.49903 0.96107 0.92262
 Zr224 Zr 0.50005 0.96500 1.03538
 O225 O 0.50301 0.92177 1.03534
 O226 O 0.49716 0.96533 1.07875
 O227 O 0.47547 0.95947 1.00063
 O228 O 0.52388 0.95996 1.00056
 O229 O 0.53901 1.04743 0.95053
 O230 O 0.56870 1.02249 0.97713
 C231 C 0.56369 1.04027 0.95808
 O232 O 0.46095 1.04959 1.04842
 O233 O 0.43140 1.02335 1.02302
 C234 C 0.43632 1.04218 1.04106
 O235 O 0.53880 1.04752 1.05028
 O236 O 0.56846 1.02221 1.02395
 C237 C 0.56343 1.04020 1.04279
 O238 O 0.46107 1.04934 0.95246
 O239 O 0.43145 1.02310 0.97787
 C240 C 0.43647 1.04191 0.95985
 Zr241 Zr 0.49996 1.03433 0.96565
 O242 O 0.50268 1.07758 0.96607
 O243 O 0.49740 1.03443 0.92226
 Zr244 Zr 0.49988 1.03435 1.03523
 O245 O 0.50262 1.07759 1.03507
 O246 O 0.49707 1.03395 1.07862
 Zr247 Zr 0.45933 0.99951 1.00047
 Zr248 Zr 0.54057 0.99967 1.00031
 O249 O 0.52368 1.03932 1.00041
 O250 O 0.47541 1.03957 1.00044
 O251 O 0.52431 0.99953 0.96020
 O252 O 0.47616 0.99965 1.04026
 O253 O 0.47629 0.99953 0.96071
 O254 O 0.52446 0.99973 1.04052
 H255 H 0.53651 0.94404 1.00058
 H256 H 0.46368 0.99970 1.05635
 H257 H 0.53611 1.05538 1.00040
 H258 H 0.46382 0.99966 0.94464
 H259 H 0.51269 0.97634 1.08578
 H260 H 0.51294 1.02342 1.08566
 H261 H 0.48718 1.08460 1.02389
 H262 H 0.48681 1.08458 0.97667
 H263 H 0.51298 1.02342 0.91523
 H264 H 0.49577 0.97959 0.91520
 H265 H 0.48504 0.91468 0.97611
 H266 H 0.48766 0.91468 1.02408
 O267 O 0.04795 0.53899 -0.04970
 O268 O 0.02242 0.56841 -0.02337
 C269 C 0.04053 0.56351 -0.04220
 O270 O -0.05067 0.46118 -0.04789
 O271 O -0.02419 0.43180 -0.02252
 C272 C -0.04315 0.43669 -0.04049
 O273 O -0.04853 0.53885 -0.04989
 O274 O -0.02339 0.56830 -0.02327
 C275 C -0.04129 0.56336 -0.04226
 O276 O 0.05013 0.46123 -0.04756
 O277 O 0.02280 0.43172 -0.02321
 C278 C 0.04222 0.43669 -0.04067
 Zr279 Zr 0.03414 0.50002 -0.03542
 O280 O 0.03106 0.49729 -0.07873
 O281 O 0.07741 0.50129 -0.03921
 Zr282 Zr -0.03548 0.49996 -0.03482
 O283 O -0.03575 0.49714 -0.07819
 O284 O -0.07893 0.50278 -0.03417
 O285 O -0.00069 0.52443 -0.04048
 O286 O -0.00062 0.47625 -0.04003
 O287 O 0.04958 0.46108 0.04768
 O288 O 0.02297 0.43162 0.02257
 C289 C 0.04196 0.43655 0.04047
 O290 O -0.04816 0.53893 0.04989
 O291 O -0.02320 0.56835 0.02301
 C292 C -0.04097 0.56344 0.04218
 O293 O -0.05031 0.46130 0.04788
 O294 O -0.02390 0.43185 0.02245
 C295 C -0.04280 0.43681 0.04048
 O296 O 0.04775 0.53871 0.04963
 O297 O 0.02214 0.56813 0.02343
 C298 C 0.04024 0.56320 0.04223
 Zr299 Zr 0.03456 0.49998 0.03453
 O300 O 0.03432 0.49726 0.07792
 O301 O 0.07801 0.50259 0.03444
 Zr302 Zr -0.03515 0.50005 0.03477
 O303 O -0.03477 0.49722 0.07815
 O304 O -0.07859 0.50291 0.03487
 Zr305 Zr -0.00039 0.54036 -0.00026
 Zr306 Zr -0.00026 0.45964 -0.00018
 O307 O -0.00027 0.47637 0.03962
 O308 O -0.00028 0.52439 0.03994
 O309 O 0.03993 0.47581 -0.00045
 O310 O -0.04028 0.52364 -0.00003
 O311 O 0.03944 0.52353 -0.00043
 O312 O -0.04054 0.47564 0.00003
 H313 H -0.00066 0.46370 -0.05600
 H314 H -0.05642 0.53602 0.00005
 H315 H -0.00027 0.46398 0.05572
 H316 H 0.05553 0.53595 -0.00034
 H317 H -0.08591 0.48707 -0.02341
 H318 H -0.08573 0.48749 0.02383
 H319 H -0.02393 0.51284 0.08518
 H320 H 0.02347 0.51290 0.08498
 H321 H 0.08508 0.48676 0.02389
 H322 H 0.08487 0.50268 -0.02042
 H323 H 0.02366 0.51489 -0.08555
 H324 H -0.02438 0.51234 -0.08535
 O325 O 1.05043 -0.04744 0.53852
 O326 O 1.02419 -0.02198 0.56812
 C327 C 1.04305 -0.04001 0.56313
 O328 O 1.04850 0.04991 0.46069
 O329 O 1.02339 0.02338 0.43110
 C330 C 1.04130 0.04233 0.43608
 O331 O 1.05038 0.04803 0.53868
 O332 O 1.02348 0.02327 0.56829
 C333 C 1.04262 0.04098 0.56330
 O334 O 1.04794 -0.04963 0.46073
 O335 O 1.02321 -0.02270 0.43113
 C336 C 1.04084 -0.04192 0.43613
 Zr337 Zr 1.03500 -0.03446 0.49966
 O338 O 1.07843 -0.03579 0.49702
 O339 O 1.03219 -0.07760 0.50082
 Zr340 Zr 1.03537 0.03494 0.49970
 O341 O 1.07882 0.03445 0.49689
 O342 O 1.03551 0.07818 0.50246
 O343 O 1.04056 0.00023 0.52410
 O344 O 1.04014 0.00021 0.47598
 O345 O 0.95239 -0.04959 0.46103
 O346 O 0.97758 -0.02318 0.43138
 C347 C 0.95966 -0.04209 0.43642
 O348 O 0.95031 0.04831 0.53859
 O349 O 0.97655 0.02286 0.56815
 C350 C 0.95769 0.04087 0.56317
 O351 O 0.95246 0.05055 0.46091
 O352 O 0.97786 0.02429 0.43134
 C353 C 0.95987 0.04315 0.43632
 O354 O 0.95045 -0.04738 0.53878
 O355 O 0.97715 -0.02240 0.56832
 C356 C 0.95813 -0.04024 0.56337
 Zr357 Zr 0.96538 -0.03418 0.49980
 O358 O 0.92193 -0.03356 0.49707
 O359 O 0.96536 -0.07743 0.50215
 Zr360 Zr 0.96563 0.03531 0.49971
 O361 O 0.92219 0.03540 0.49687
 O362 O 0.96618 0.07854 0.50262
 Zr363 Zr 1.00035 0.00043 0.54026
 Zr364 Zr 1.00029 0.00043 0.45916
 O365 O 0.96046 0.00057 0.47601
 O366 O 0.96013 0.00058 0.52418
 O367 O 1.00018 -0.03955 0.47527
 O368 O 1.00049 0.04009 0.52342
 O369 O 1.00024 -0.03925 0.52354
 O370 O 1.00053 0.04046 0.47526
 H371 H 1.05634 0.00009 0.46363
 H372 H 1.00045 0.05613 0.53586
 H373 H 0.94440 0.00060 0.46350
 H374 H 1.00031 -0.05530 0.53598
 H375 H 1.02441 0.08527 0.48700
 H376 H 0.97701 0.08554 0.48691
 H377 H 0.91508 0.02395 0.51204
 H378 H 0.91491 -0.02323 0.51308
 H379 H 0.97943 -0.08411 0.48907
 H380 H 1.05137 -0.08445 0.50056
 H381 H 1.08567 -0.02315 0.51112
 H382 H 1.08583 0.02386 0.51272
 C383 C 1.08697 0.08790 0.39208
 C384 C 1.07928 0.07974 0.36560
 C385 C 1.05918 0.05959 0.36225
 C386 C 1.04683 0.04759 0.38517
 C387 C 1.12386 0.12340 0.27730
 C388 C 1.07462 0.07590 0.41513
 C389 C 1.09190 0.09192 0.34177
 C390 C 1.10216 0.10189 0.32155
 C391 C 1.11393 0.11347 0.29770
 C392 C 1.05439 0.05556 0.41194
 H393 H 1.10252 0.10351 0.39491
 H394 H 1.05304 0.05310 0.34187
 H395 H 1.03137 0.03199 0.38183
 H396 H 1.08095 0.08248 0.43538
 C397 C 0.94152 -0.05890 0.36266
 C398 C 0.92147 -0.07910 0.36604
 C399 C 0.91393 -0.08748 0.39250
 C400 C 0.92638 -0.07564 0.41553
 C401 C 0.87667 -0.12261 0.27804
 C402 C 0.95398 -0.04708 0.38556
 C403 C 0.90880 -0.09117 0.34226
 C404 C 0.89849 -0.10110 0.32210
 C405 C 0.88665 -0.11266 0.29835
 C406 C 0.94657 -0.05528 0.41233
 H407 H 0.94750 -0.05223 0.34229
 H408 H 0.89839 -0.10311 0.39531
 H409 H 0.92013 -0.08234 0.43578
 H410 H 0.96935 -0.03140 0.38222
 C411 C 0.94025 0.05828 0.63701
 C412 C 0.92019 0.07850 0.63370
 C413 C 0.91221 0.08649 0.60726
 C414 C 0.92421 0.07423 0.58417
 C415 C 0.87617 0.12264 0.72192
 C416 C 0.95225 0.04602 0.61406
 C417 C 0.90786 0.09088 0.65754
 C418 C 0.89774 0.10098 0.67775
 C419 C 0.88606 0.11266 0.70155
 C420 C 0.94438 0.05382 0.58731
 H421 H 0.94665 0.05198 0.65736
 H422 H 0.89674 0.10221 0.60449
 H423 H 0.91778 0.08079 0.56394
 H424 H 0.96777 0.03045 0.61735
 C425 C 1.06027 -0.05761 0.63697
 C426 C 1.08026 -0.07791 0.63366
 C427 C 1.08827 -0.08588 0.60721
 C428 C 1.07638 -0.07353 0.58412
 C429 C 1.12422 -0.12241 0.72173
 C430 C 1.04839 -0.04526 0.61402
 C431 C 1.09253 -0.09037 0.65749
 C432 C 1.10264 -0.10056 0.67766
 C433 C 1.11433 -0.11234 0.70141
 C434 C 1.05630 -0.05303 0.58727
 H435 H 1.05383 -0.05131 0.65733
 H436 H 1.10368 -0.10166 0.60444
 H437 H 1.08283 -0.08010 0.56389
 H438 H 1.03291 -0.02964 0.61732
 C439 C 0.36226 1.05921 1.05916
 C440 C 0.36554 1.07924 1.07940
 C441 C 0.39207 1.08742 1.08706
 C442 C 0.41520 1.07559 1.07456
 C443 C 0.27703 1.12296 1.12426
 C444 C 0.38526 1.04740 1.04666
 C445 C 0.34160 1.09134 1.09212
 C446 C 0.32133 1.10129 1.10244
 C447 C 0.29744 1.11293 1.11429
 C448 C 0.41208 1.05540 1.05419
 H449 H 0.34187 1.05267 1.05304
 H450 H 0.39488 1.10290 1.10272
 H451 H 0.43547 1.08218 1.08092
 H452 H 0.38195 1.03188 1.03114
 C453 C 0.36217 0.94040 0.94167
 C454 C 0.36553 0.92056 0.92125
 C455 C 0.39209 0.91269 0.91329
 C456 C 0.41517 0.92464 0.92567
 C457 C 0.27740 0.87656 0.87629
 C458 C 0.38514 0.95235 0.95404
 C459 C 0.34168 0.90837 0.90858
 C460 C 0.32150 0.89832 0.89823
 C461 C 0.29773 0.88660 0.88632
 C462 C 0.41198 0.94465 0.94620
 H463 H 0.34176 0.94668 0.94804
 H464 H 0.39494 0.89733 0.89751
 H465 H 0.43546 0.91824 0.91912
 H466 H 0.38178 0.96768 0.96975
 C467 C 0.60785 0.91369 1.08854
 C468 C 0.63437 0.92162 1.08057
 C469 C 0.63768 0.94183 1.06052
 C470 C 0.61469 0.95413 1.04854
 C471 C 0.72274 0.87707 1.12442
 C472 C 0.58473 0.92599 1.07655
 C473 C 0.65826 0.90916 1.09287
 C474 C 0.67850 0.89897 1.10295
 C475 C 0.70235 0.88716 1.11458
 C476 C 0.58788 0.94640 1.05640
 H477 H 0.60504 0.89799 1.10399
 H478 H 0.65807 0.94810 1.05410
 H479 H 0.61800 0.96966 1.03302
 H480 H 0.56446 0.91945 1.08298
 C481 C 0.60770 1.08586 0.91233
 C482 C 0.63426 1.07798 0.92021
 C483 C 0.63766 1.05784 0.94032
 C484 C 0.61471 1.04560 0.95247
 C485 C 0.72250 1.12265 0.87606
 C486 C 0.58464 1.07361 0.92447
 C487 C 0.65812 1.09045 0.90778
 C488 C 0.67832 1.10066 0.89762
 C489 C 0.70213 1.11251 0.88592
 C490 C 0.58786 1.05330 0.94471
 H491 H 0.60483 1.10149 0.89681
 H492 H 0.65808 1.05159 0.94666
 H493 H 0.61810 1.03011 0.96801
 H494 H 0.56434 1.08010 0.91809
 C495 C 0.08731 0.39247 0.08628
 C496 C 0.07894 0.36612 0.07864
 C497 C 0.05866 0.36288 0.05858
 C498 C 0.04683 0.38579 0.04617
 C499 C 0.12277 0.27814 0.12323
 C500 C 0.07547 0.41551 0.07387
 C501 C 0.09112 0.34232 0.09120
 C502 C 0.10114 0.32217 0.10143
 C503 C 0.11280 0.29843 0.11322
 C504 C 0.05508 0.41244 0.05362
 H505 H 0.10298 0.39520 0.10184
 H506 H 0.05197 0.34261 0.05252
 H507 H 0.03112 0.38253 0.03076
 H508 H 0.08221 0.43566 0.08018
 C509 C -0.05977 0.36299 -0.05847
 C510 C -0.08004 0.36622 -0.07855
 C511 C -0.08847 0.39256 -0.08621
 C512 C -0.07668 0.41561 -0.07380
 C513 C -0.12374 0.27816 -0.12296
 C514 C -0.04800 0.38592 -0.04606
 C515 C -0.09217 0.34241 -0.09109
 C516 C -0.10217 0.32224 -0.10128
 C517 C -0.11381 0.29848 -0.11301
 C518 C -0.05630 0.41256 -0.05353
 H519 H -0.05303 0.34273 -0.05240
 H520 H -0.10412 0.39527 -0.10178
 H521 H -0.08346 0.43575 -0.08012
 H522 H -0.03229 0.38269 -0.03064
 C523 C 0.05810 0.63719 -0.05937
 C524 C 0.07831 0.63393 -0.07953
 C525 C 0.08623 0.60757 -0.08766
 C526 C 0.07398 0.58454 -0.07565
 C527 C 0.12285 0.72191 -0.12331
 C528 C 0.04585 0.61429 -0.04737
 C529 C 0.09081 0.65771 -0.09179
 C530 C 0.10102 0.67785 -0.10183
 C531 C 0.11282 0.70159 -0.11344
 C532 C 0.05362 0.58763 -0.05535
 H533 H 0.05180 0.65747 -0.05290
 H534 H 0.10188 0.60483 -0.10326
 H535 H 0.08046 0.56438 -0.08223
 H536 H 0.03028 0.61755 -0.03179
 C537 C -0.05858 0.63709 0.05937
 C538 C -0.07865 0.63381 0.07966
 C539 C -0.08641 0.60747 0.08794
 C540 C -0.07415 0.58444 0.07592
 C541 C -0.12324 0.72178 0.12329
 C542 C -0.04632 0.61419 0.04736
 C543 C -0.09117 0.65758 0.09187
 C544 C -0.10141 0.67773 0.10186
 C545 C -0.11323 0.70147 0.11343
 C546 C -0.05395 0.58754 0.05546
 H547 H -0.05241 0.65737 0.05279
 H548 H -0.10196 0.60475 0.10364
 H549 H -0.08055 0.56429 0.08258
 H550 H -0.03090 0.61745 0.03164
 C551 C 1.08795 0.08673 0.60732
 C552 C 1.07963 0.07909 0.63378
 C553 C 1.05948 0.05899 0.63712
 C554 C 1.04763 0.04658 0.61419
 C555 C 1.12301 0.12389 0.72192
 C556 C 1.07610 0.07431 0.58426
 C557 C 1.09166 0.09176 0.65760
 C558 C 1.10154 0.10208 0.67780
 C559 C 1.11307 0.11392 0.70159
 C560 C 1.05578 0.05407 0.58743
 H561 H 1.10356 0.10229 0.60452
 H562 H 1.05286 0.05291 0.65748
 H563 H 1.03200 0.03115 0.61752
 H564 H 1.08276 0.08063 0.56401
 C565 C 0.94154 -0.05858 0.63719
 C566 C 0.92141 -0.07870 0.63386
 C567 C 0.91304 -0.08625 0.60741
 C568 C 0.92479 -0.07372 0.58435
 C569 C 0.87791 -0.12369 0.72191
 C570 C 0.95329 -0.04605 0.61426
 C571 C 0.90941 -0.09143 0.65769
 C572 C 0.89951 -0.10179 0.67787
 C573 C 0.88792 -0.11368 0.70161
 C574 C 0.94507 -0.05344 0.58751
 H575 H 0.94821 -0.05258 0.65755
 H576 H 0.89746 -0.10185 0.60462
 H577 H 0.91809 -0.07997 0.56411
 H578 H 0.96891 -0.03061 0.61757
 C579 C 1.05799 -0.05978 0.36234
 C580 C 1.07794 -0.08010 0.36572
 C581 C 1.08582 -0.08812 0.39217
 C582 C 1.07377 -0.07585 0.41522
 C583 C 1.12200 -0.12449 0.27771
 C584 C 1.04595 -0.04751 0.38526
 C585 C 1.09021 -0.09261 0.34193
 C586 C 1.10027 -0.10283 0.32177
 C587 C 1.11197 -0.11459 0.29803
 C588 C 1.05368 -0.05537 0.41202
 H589 H 1.05175 -0.05338 0.34197
 H590 H 1.10130 -0.10383 0.39498
 H591 H 1.08023 -0.08234 0.43547
 H592 H 1.03057 -0.03180 0.38193
 C593 C 0.91447 0.08883 0.39225
 C594 C 0.92227 0.08064 0.36580
 C595 C 0.94223 0.06033 0.36248
 C596 C 0.95447 0.04831 0.38542
 C597 C 0.87800 0.12461 0.27768
 C598 C 0.92670 0.07681 0.41532
 C599 C 0.90993 0.09302 0.34197
 C600 C 0.89983 0.10314 0.32179
 C601 C 0.88808 0.11479 0.29801
 C602 C 0.94690 0.05642 0.41218
 H603 H 0.89893 0.10449 0.39502
 H604 H 0.94836 0.05374 0.34212
 H605 H 0.96984 0.03261 0.38212
 H606 H 0.92031 0.08343 0.43556
 C607 C 0.05941 0.36304 -0.05824
 C608 C 0.07948 0.36627 -0.07853
 C609 C 0.08771 0.39261 -0.08637
 C610 C 0.07584 0.41567 -0.07400
 C611 C 0.12283 0.27824 -0.12340
 C612 C 0.04754 0.38595 -0.04588
 C613 C 0.09149 0.34246 -0.09120
 C614 C 0.10136 0.32228 -0.10154
 C615 C 0.11288 0.29854 -0.11342
 C616 C 0.05557 0.41260 -0.05360
 H617 H 0.05286 0.34277 -0.05199
 H618 H 0.10324 0.39533 -0.10209
 H619 H 0.08239 0.43582 -0.08051
 H620 H 0.03196 0.38270 -0.03031
 C621 C -0.08789 0.39285 0.08648
 C622 C -0.07969 0.36653 0.07855
 C623 C -0.05975 0.36324 0.05815
 C624 C -0.04797 0.38613 0.04573
 C625 C -0.12306 0.27858 0.12301
 C626 C -0.07610 0.41587 0.07405
 C627 C -0.09171 0.34278 0.09118
 C628 C -0.10161 0.32264 0.10143
 C629 C -0.11315 0.29890 0.11315
 C630 C -0.05597 0.41276 0.05353
 H631 H -0.10335 0.39557 0.10227
 H632 H -0.05326 0.34297 0.05184
 H633 H -0.03248 0.38288 0.03006
 H634 H -0.08263 0.43603 0.08059
 C635 C -0.05873 0.63699 -0.05940
 C636 C -0.07871 0.63375 -0.07973
 C637 C -0.08660 0.60743 -0.08794
 C638 C -0.07447 0.58438 -0.07588
 C639 C -0.12246 0.72177 -0.12385
 C640 C -0.04660 0.61408 -0.04735
 C641 C -0.09093 0.65755 -0.09211
 C642 C -0.10092 0.67773 -0.10225
 C643 C -0.11251 0.70147 -0.11396
 C644 C -0.05428 0.58745 -0.05546
 H645 H -0.05249 0.65726 -0.05285
 H646 H -0.10212 0.60474 -0.10366
 H647 H -0.08090 0.56424 -0.08251
 H648 H -0.03118 0.61731 -0.03164
 C649 C 0.05753 0.63681 0.05944
 C650 C 0.07779 0.63354 0.07950
 C651 C 0.08585 0.60722 0.08756
 C652 C 0.07362 0.58418 0.07562
 C653 C 0.12197 0.72135 0.12340
 C654 C 0.04530 0.61390 0.04750
 C655 C 0.09013 0.65729 0.09179
 C656 C 0.10023 0.67741 0.10189
 C657 C 0.11194 0.70109 0.11356
 C658 C 0.05317 0.58727 0.05545
 H659 H 0.05119 0.65708 0.05299
 H660 H 0.10160 0.60451 0.10304
 H661 H 0.08022 0.56404 0.08211
 H662 H 0.02970 0.61714 0.03197
 C663 C 0.36266 1.05883 0.94190
 C664 C 0.36609 1.07905 0.92192
 C665 C 0.39257 1.08734 0.91427
 C666 C 0.41562 1.07542 0.92663
 C667 C 0.27827 1.12307 0.87745
 C668 C 0.38558 1.04692 0.95427
 C669 C 0.34234 1.09129 0.90942
 C670 C 0.32222 1.10137 0.89922
 C671 C 0.29854 1.11308 0.88746
 C672 C 0.41237 1.05507 0.94680
 H673 H 0.34225 1.05224 0.94792
 H674 H 0.39537 1.10298 0.89875
 H675 H 0.43590 1.08209 0.92036
 H676 H 0.38224 1.03126 0.96965
 C677 C 0.39238 0.91166 1.08632
 C678 C 0.36592 0.91970 1.07835
 C679 C 0.36255 0.93983 1.05828
 C680 C 0.38550 0.95196 1.04619
 C681 C 0.27782 0.87581 1.12244
 C682 C 0.41547 0.92379 1.07423
 C683 C 0.34212 0.90739 1.09069
 C684 C 0.32193 0.89733 1.10080
 C685 C 0.29816 0.88570 1.11248
 C686 C 0.41228 0.94410 1.05402
 H687 H 0.39514 0.89607 1.10188
 H688 H 0.34215 0.94621 1.05198
 H689 H 0.38219 0.96755 1.03073
 H690 H 0.43574 0.91734 1.08075
 C691 C 0.60737 1.08630 1.08770
 C692 C 0.63386 1.07851 1.07954
 C693 C 0.63728 1.05823 1.05961
 C694 C 0.61435 1.04572 1.04787
 C695 C 0.72180 1.12342 1.12300
 C696 C 0.58431 1.07379 1.07595
 C697 C 0.65764 1.09116 1.09160
 C698 C 0.67779 1.10148 1.10155
 C699 C 0.70151 1.11335 1.11311
 C700 C 0.58755 1.05333 1.05589
 H701 H 0.60455 1.10204 1.10310
 H702 H 0.65769 1.05208 1.05311
 H703 H 0.61770 1.03014 1.03240
 H704 H 0.56402 1.08022 1.08248
 C705 C 0.63734 0.94123 0.94100
 C706 C 0.63392 0.92129 0.92074
 C707 C 0.60745 0.91380 0.91233
 C708 C 0.58439 0.92626 0.92418
 C709 C 0.72193 0.87667 0.87705
 C710 C 0.61442 0.95368 0.95284
 C711 C 0.65770 0.90869 0.90860
 C712 C 0.67786 0.89844 0.89860
 C713 C 0.70161 0.88665 0.88699
 C714 C 0.58763 0.94636 0.94458
 H715 H 0.65775 0.94715 0.94767
 H716 H 0.60465 0.89833 0.89665
 H717 H 0.56411 0.92006 0.91747
 H718 H 0.61776 0.96900 0.96856
   
