data_POSCAR
  _audit_creation_date              2014-09-24
  _audit_creation_method            'ToBaCCo'
  _symmetry_space_group_name_H-M    'P1'
  _symmetry_Int_Tables_number       1
  _symmetry_cell_setting            triclinic
  loop_
  _symmetry_equiv_pos_as_xyz
 x,y,z
_cell_length_a 33.7974
_cell_length_b 24.3407
_cell_length_c 15.3170
_cell_angle_alpha 89.917900
_cell_angle_beta 89.950100
_cell_angle_gamma 90.078600
loop_
  _atom_site_label
  _atom_site_type_symbol
  _atom_site_fract_x
  _atom_site_fract_y
  _atom_site_fract_z
O1 O 0.79913 0.25997 0.41631
 O2 O 0.73259 0.31685 0.58391
 O3 O 0.79861 0.26013 0.58714
 O4 O 0.73331 0.31645 0.41691
 O5 O 0.69916 0.23896 0.41590
 O6 O 0.76496 0.18224 0.58478
 O7 O 0.69921 0.23880 0.58696
 O8 O 0.76506 0.18241 0.41768
 Cu9 Cu 0.76953 0.29599 0.50115
 Cu10 Cu 0.72846 0.20298 0.50131
 C11 C 0.79373 0.21116 0.38955
 C12 C 0.70416 0.28792 0.61291
 C13 C 0.79337 0.21115 0.61350
 C14 C 0.70471 0.28770 0.38874
 O15 O 0.20081 0.74024 0.41804
 O16 O 0.26775 0.68292 0.58462
 O17 O 0.20165 0.73980 0.58889
 O18 O 0.26630 0.68332 0.41768
 O19 O 0.30075 0.76056 0.41606
 O20 O 0.23536 0.81764 0.58550
 O21 O 0.30115 0.76093 0.58711
 O22 O 0.23516 0.81756 0.41840
 Cu23 Cu 0.23048 0.70395 0.50260
 Cu24 Cu 0.27176 0.79678 0.50176
 C25 C 0.20636 0.78897 0.39079
 C26 C 0.29629 0.71176 0.61308
 C27 C 0.20696 0.78882 0.61476
 C28 C 0.29492 0.71191 0.38898
 O29 O 0.23283 0.18328 -0.58624
 O30 O 0.29979 0.24020 -0.41968
 O31 O 0.23381 0.18380 -0.41933
 O32 O 0.29912 0.23918 -0.59076
 O33 O 0.26647 0.31767 -0.58734
 O34 O 0.19979 0.26127 -0.41903
 O35 O 0.26582 0.31771 -0.42043
 O36 O 0.20017 0.26176 -0.59019
 Cu37 Cu 0.26999 0.20398 -0.50402
 Cu38 Cu 0.22945 0.29724 -0.50430
 C39 C 0.20472 0.21249 -0.61564
 C40 C 0.29446 0.28896 -0.39265
 C41 C 0.20521 0.21260 -0.39145
 C42 C 0.29453 0.28837 -0.61676
 O43 O -0.26623 0.68219 -0.58173
 O44 O -0.20060 0.73875 -0.41221
 O45 O -0.26673 0.68223 -0.41472
 O46 O -0.20039 0.73918 -0.58309
 O47 O -0.23444 0.81661 -0.58193
 O48 O -0.30000 0.76024 -0.41194
 O49 O -0.23417 0.81658 -0.41482
 O50 O -0.30033 0.75959 -0.58295
 Cu51 Cu -0.22986 0.70295 -0.49792
 Cu52 Cu -0.27086 0.79587 -0.49803
 C53 C -0.29490 0.71080 -0.60978
 C54 C -0.20579 0.78770 -0.38596
 C55 C -0.29505 0.71119 -0.38565
 C56 C -0.20578 0.78799 -0.60998
 N57 N 0.04129 1.09900 -0.09443
 N58 N 0.06946 1.13527 -0.11125
 N59 N -0.04186 1.05882 -0.15189
 N60 N -0.07087 1.06600 -0.20819
 N61 N -0.04164 1.09829 -0.09354
 N62 N -0.07010 1.13410 -0.10963
 N63 N 0.04164 1.05940 -0.15257
 N64 N 0.07042 1.06696 -0.20943
 C65 C 0.08755 1.11424 -0.18276
 C66 C -0.08824 1.11292 -0.18091
 N67 N -0.04113 0.90167 -0.09246
 N68 N -0.06946 0.86549 -0.10827
 N69 N 0.04198 0.94151 -0.15179
 N70 N 0.07098 0.93424 -0.20818
 N71 N 0.04182 0.90218 -0.09303
 N72 N 0.07033 0.86641 -0.10885
 N73 N -0.04153 0.94102 -0.15118
 N74 N -0.07050 0.93341 -0.20741
 Mn75 Mn 0.00007 1.00018 -0.15271
 C76 C -0.08768 0.88634 -0.17977
 C77 C 0.08841 0.88742 -0.18048
 N78 N -0.04135 1.09860 0.09549
 N79 N -0.06985 1.13435 0.11165
 N80 N 0.04224 1.05990 0.15317
 N81 N 0.07142 1.06762 0.20891
 N82 N 0.04153 1.09934 0.09460
 N83 N 0.06970 1.13574 0.11012
 N84 N -0.04134 1.05931 0.15432
 N85 N -0.07022 1.06653 0.21101
 Mn86 Mn -0.00006 1.09950 0.00053
 C87 C -0.08776 1.11332 0.18351
 C88 C 0.08829 1.11489 0.18109
 N89 N 0.04210 0.90243 0.09595
 N90 N 0.07038 0.86639 0.11243
 N91 N -0.04105 0.94146 0.15504
 N92 N -0.06996 0.93401 0.21165
 N93 N -0.04082 0.90200 0.09665
 N94 N -0.06918 0.86595 0.11303
 N95 N 0.04246 0.94202 0.15410
 N96 N 0.07135 0.93467 0.21064
 Mn97 Mn 0.00048 0.90137 0.00178
 Mn98 Mn 0.00059 1.00068 0.15504
 Cl99 Cl 0.00027 1.00043 0.00116
 C100 C 0.08854 0.88754 0.18372
 C101 C -0.08725 0.88693 0.18455
 N102 N 0.54096 0.55791 0.15293
 N103 N 0.56962 0.56517 0.21012
 N104 N 0.45815 0.59767 0.09270
 N105 N 0.43001 0.63394 0.10889
 N106 N 0.45748 0.55802 0.15090
 N107 N 0.42848 0.56552 0.20715
 N108 N 0.54106 0.59749 0.09458
 N109 N 0.56939 0.63343 0.11153
 C110 C 0.58711 0.61227 0.18337
 C111 C 0.41157 0.61281 0.18000
 N112 N 0.45895 0.55906 -0.15502
 N113 N 0.43007 0.56669 -0.21161
 N114 N 0.54197 0.59816 -0.09439
 N115 N 0.57029 0.63441 -0.10978
 N116 N 0.54263 0.55885 -0.15300
 N117 N 0.57193 0.56648 -0.20860
 N118 N 0.45916 0.59832 -0.09629
 N119 N 0.43098 0.63449 -0.11253
 Mn120 Mn 0.50009 0.59858 -0.00085
 C121 C 0.41289 0.61375 -0.18413
 C122 C 0.58893 0.61356 -0.18064
 N123 N 0.45712 0.44024 0.15014
 N124 N 0.42786 0.43260 0.20585
 N125 N 0.54067 0.40082 0.09342
 N126 N 0.56906 0.36493 0.10970
 N127 N 0.54068 0.44006 0.15218
 N128 N 0.56946 0.43264 0.20895
 N129 N 0.45780 0.40088 0.09162
 N130 N 0.42951 0.36459 0.10719
 Mn131 Mn 0.49905 0.49905 0.15240
 C132 C 0.41088 0.38545 0.17809
 C133 C 0.58690 0.38580 0.18157
 N134 N 0.54245 0.44099 -0.15374
 N135 N 0.57159 0.43339 -0.20972
 N136 N 0.45875 0.40156 -0.09739
 N137 N 0.43036 0.36569 -0.11420
 N138 N 0.45887 0.44112 -0.15579
 N139 N 0.43017 0.43393 -0.21285
 N140 N 0.54159 0.40131 -0.09559
 N141 N 0.56962 0.36486 -0.11167
 Mn142 Mn 0.50073 0.50002 -0.15532
 Mn143 Mn 0.49970 0.40046 -0.00199
 Cl144 Cl 0.49989 0.49952 -0.00146
 C145 C 0.58830 0.38594 -0.18247
 C146 C 0.41264 0.38690 -0.18600
 N147 N 0.32147 0.36652 0.31053
 C148 C 0.32147 0.31145 0.32493
 N149 N 0.34999 0.28037 0.28660
 N150 N 0.37763 0.30362 0.23644
 C151 C 0.37808 0.35885 0.22411
 N152 N 0.34951 0.38984 0.26187
 N153 N -0.15292 0.78199 0.27974
 C154 C -0.17732 0.81318 0.32975
 N155 N -0.17286 0.86857 0.32882
 N156 N -0.14461 0.89197 0.28091
 C157 C -0.12016 0.86091 0.23113
 N158 N -0.12499 0.80551 0.23064
 N159 N 0.67214 0.63031 0.32911
 C160 C 0.67671 0.68569 0.32988
 N161 N 0.65254 0.71698 0.27941
 N162 N 0.62476 0.69355 0.22999
 C163 C 0.61982 0.63817 0.23060
 N164 N 0.64403 0.60702 0.28089
 N165 N 0.17770 1.13413 0.31293
 C166 C 0.17771 1.18925 0.32666
 N167 N 0.14915 1.22022 0.28822
 N168 N 0.12148 1.19683 0.23855
 C169 C 0.12102 1.14158 0.22687
 N170 N 0.14962 1.11068 0.26476
 N171 N 0.64843 0.28047 -0.29106
 C172 C 0.67724 0.31129 -0.32924
 N173 N 0.67760 0.36635 -0.31499
 N174 N 0.64967 0.38991 -0.26654
 C175 C 0.62084 0.35916 -0.22886
 N176 N 0.62091 0.30394 -0.24110
 N177 N 0.17399 0.86935 -0.32477
 C178 C 0.17864 0.81400 -0.32488
 N179 N 0.15440 0.78278 -0.27424
 N180 N 0.12645 0.80623 -0.22535
 C181 C 0.12141 0.86156 -0.22670
 N182 N 0.14571 0.89266 -0.27707
 N183 N 0.35226 0.71913 -0.29185
 C184 C 0.32345 0.68828 -0.32969
 N185 N 0.32332 0.63314 -0.31578
 N186 N 0.35147 0.60958 -0.26792
 C187 C 0.38029 0.64038 -0.23052
 N188 N 0.37997 0.69564 -0.24244
 N189 N -0.17372 1.13076 -0.32524
 C190 C -0.17828 1.18612 -0.32607
 N191 N -0.15401 1.21745 -0.27588
 N192 N -0.12612 1.19409 -0.22673
 C193 C -0.12118 1.13873 -0.22734
 N194 N -0.14550 1.10753 -0.27728
 N195 N 0.64944 0.71885 -0.28931
 C196 C 0.67812 0.68794 -0.32738
 N197 N 0.67838 0.63290 -0.31273
 N198 N 0.65039 0.60943 -0.26408
 C199 C 0.62166 0.64026 -0.22659
 N200 N 0.62187 0.69546 -0.23916
 N201 N 0.17279 1.13231 -0.32807
 C202 C 0.17692 1.18773 -0.33042
 N203 N 0.15244 1.21913 -0.28086
 N204 N 0.12477 1.19575 -0.23087
 C205 C 0.12028 1.14030 -0.22994
 N206 N 0.14480 1.10906 -0.27927
 N207 N 0.32749 0.36925 -0.33135
 C208 C 0.32291 0.31388 -0.33236
 N209 N 0.34708 0.28246 -0.28211
 N210 N 0.37490 0.30576 -0.23268
 C211 C 0.37986 0.36113 -0.23306
 N212 N 0.35565 0.39241 -0.28311
 N213 N -0.15312 0.78143 -0.27531
 C214 C -0.17747 0.81273 -0.32539
 N215 N -0.17311 0.86813 -0.32412
 N216 N -0.14501 0.89143 -0.27591
 C217 C -0.12059 0.86028 -0.22610
 N218 N -0.12533 0.80487 -0.22592
 N219 N 0.34739 0.71808 0.27777
 C220 C 0.32279 0.68685 0.32758
 N221 N 0.32651 0.63139 0.32528
 N222 N 0.35428 0.60795 0.27634
 C223 C 0.37894 0.63902 0.22684
 N224 N 0.37483 0.69451 0.22766
 N225 N -0.15358 1.21763 0.27883
 C226 C -0.17782 1.18621 0.32918
 N227 N -0.17322 1.13085 0.32837
 N228 N -0.14499 1.10774 0.28027
 C229 C -0.12071 1.13904 0.23015
 N230 N -0.12569 1.19439 0.22954
 N231 N 0.65222 0.28125 0.27787
 C232 C 0.67650 0.31264 0.32793
 N233 N 0.67213 0.36802 0.32649
 N234 N 0.64406 0.39121 0.27809
 C235 C 0.61973 0.35996 0.22828
 N236 N 0.62448 0.30458 0.22827
 N237 N 0.17380 0.86943 0.32865
 C238 C 0.17800 0.81403 0.33033
 N239 N 0.15357 0.78271 0.28050
 N240 N 0.12586 0.80613 0.23090
 C241 C 0.12129 0.86156 0.23063
 N242 N 0.14577 0.89273 0.28024
   
