data_POSCAR
  _audit_creation_date              2014-09-24
  _audit_creation_method            'ToBaCCo'
  _symmetry_space_group_name_H-M    'P1'
  _symmetry_Int_Tables_number       1
  _symmetry_cell_setting            triclinic
  loop_
  _symmetry_equiv_pos_as_xyz
 x,y,z
_cell_length_a 26.5249
_cell_length_b 26.2853
_cell_length_c 35.5134
_cell_angle_alpha 89.299800
_cell_angle_beta 91.239200
_cell_angle_gamma 87.374900
loop_
  _atom_site_label
  _atom_site_type_symbol
  _atom_site_fract_x
  _atom_site_fract_y
  _atom_site_fract_z
C1 C -0.00497 0.54611 1.02066
 C2 C 0.00673 0.54658 0.98152
 C3 C 0.01286 0.49945 0.96321
 C4 C 0.00342 0.45319 0.98107
 C5 C -0.01071 0.45236 1.01942
 C6 C -0.01576 0.49937 1.03803
 H7 H -0.02484 0.49932 1.06762
 H8 H 0.02160 0.49844 0.93352
 C9 C 0.45621 0.00079 0.51927
 C10 C 0.45441 0.00777 0.47976
 C11 C 0.49966 0.01102 0.46028
 C12 C 0.54735 0.00566 0.47877
 C13 C 0.54859 -0.00011 0.51882
 C14 C 0.50318 -0.00346 0.53809
 H15 H 0.50435 -0.00712 0.56856
 H16 H 0.49725 0.01495 0.42987
 C17 C 0.08551 0.03761 0.27610
 H18 H 0.07615 0.06780 0.25592
 C19 C 0.12993 0.03919 0.29778
 H20 H 0.15390 0.07107 0.29421
 C21 C 0.06635 -0.04095 0.30457
 H22 H 0.04145 -0.07227 0.30674
 C23 C 0.11024 -0.04074 0.32702
 H24 H 0.11874 -0.07214 0.34648
 N25 N 0.05438 -0.00169 0.28022
 C26 C -0.03835 -0.10006 0.22755
 H27 H -0.06839 -0.09345 0.24718
 C28 C -0.03634 -0.14491 0.20692
 H29 H -0.06543 -0.17198 0.21069
 C30 C 0.03634 -0.07335 0.19941
 H31 H 0.06473 -0.04530 0.19694
 C32 C 0.03958 -0.11754 0.17794
 H33 H 0.07062 -0.12311 0.15890
 Zn34 Zn -0.00600 -0.00395 0.25088
 N35 N -0.00277 -0.06498 0.22304
 C36 C -0.01205 0.04904 0.18016
 N37 N -0.01296 0.05365 0.21826
 C38 C -0.01984 0.09995 0.23449
 C39 C -0.02438 0.14419 0.21230
 C40 C -0.01615 0.09232 0.15689
 C41 C -0.05843 -0.00387 0.32023
 C42 C -0.10129 -0.00346 0.34240
 C43 C -0.15320 0.00189 0.28563
 C44 C -0.10935 0.00097 0.26455
 N45 N -0.06317 -0.00248 0.28201
 H46 H -0.00796 0.01191 0.16766
 H47 H -0.02119 0.10247 0.26485
 H48 H -0.02902 0.18068 0.22593
 H49 H -0.01467 0.08782 0.12667
 H50 H -0.02152 -0.00531 0.33368
 H51 H -0.09665 -0.00495 0.37276
 H52 H -0.18956 0.00417 0.27110
 H53 H -0.11203 0.00266 0.23411
 C54 C 0.00270 -0.15391 0.18139
 C55 C 0.14262 -0.00013 0.32391
 C56 C -0.14951 -0.00075 0.32512
 C57 C -0.02198 0.14078 0.17293
 C58 C -0.03563 0.09261 0.77952
 H59 H -0.06882 0.08380 0.76314
 C60 C -0.03652 0.13611 0.80171
 H61 H -0.07063 0.16033 0.80214
 C62 C 0.04914 0.07209 0.79851
 H63 H 0.08234 0.04676 0.79705
 C64 C 0.05011 0.11554 0.82072
 H65 H 0.08427 0.12327 0.83646
 N66 N 0.00666 0.06144 0.77857
 C67 C 0.10268 -0.03668 0.72237
 H68 H 0.09709 -0.06827 0.74126
 C69 C 0.14623 -0.03668 0.70101
 H70 H 0.17317 -0.06882 0.70346
 C71 C 0.07532 0.04395 0.69711
 H72 H 0.04778 0.07563 0.69624
 C73 C 0.11818 0.04535 0.67499
 H74 H 0.12309 0.07819 0.65697
 Zn75 Zn 0.00840 0.00250 0.74853
 N76 N 0.06776 0.00281 0.71956
 C77 C -0.04924 0.01330 0.67966
 N78 N -0.05037 0.00231 0.71716
 C79 C -0.09405 -0.00972 0.73381
 C80 C -0.13903 -0.01045 0.71271
 C81 C -0.09355 0.01401 0.65764
 C82 C 0.00753 -0.05257 0.81773
 C83 C 0.00625 -0.09620 0.84047
 C84 C 0.00765 -0.14737 0.78441
 C85 C 0.00812 -0.10273 0.76273
 N86 N 0.00883 -0.05660 0.77961
 H87 H -0.01419 0.02179 0.66665
 H88 H -0.09390 -0.01862 0.76364
 H89 H -0.17345 -0.01985 0.72653
 H90 H -0.09199 0.02324 0.62790
 H91 H 0.00706 -0.01551 0.83058
 H92 H 0.00537 -0.09221 0.87076
 H93 H 0.00742 -0.18373 0.77043
 H94 H 0.00813 -0.10476 0.73232
 C95 C 0.15420 0.00446 0.67659
 C96 C 0.00677 0.14810 0.82265
 C97 C 0.00662 -0.14441 0.82384
 C98 C -0.13917 0.00203 0.67417
 C99 C 0.00367 -0.32961 0.09050
 N100 N 0.03253 -0.33324 0.05948
 N101 N 0.02975 -0.37318 0.03688
 C102 C -0.00239 -0.41082 0.04406
 N103 N -0.02999 -0.40762 0.07587
 N104 N -0.02735 -0.36771 0.09843
 C105 C 0.00487 -0.28476 0.11471
 N106 N -0.02739 -0.27962 0.14369
 N107 N -0.02770 -0.23830 0.16500
 C108 C 0.00431 -0.20050 0.15828
 N109 N 0.03684 -0.20588 0.12939
 N110 N 0.03706 -0.24718 0.10796
 C111 C -0.02397 0.31977 0.08228
 N112 N -0.00973 0.31753 0.04589
 N113 N -0.00619 0.36002 0.02548
 C114 C -0.01687 0.40662 0.04034
 N115 N -0.03145 0.40837 0.07685
 N116 N -0.03491 0.36598 0.09738
 C117 C -0.02555 0.27319 0.10540
 N118 N -0.03519 0.27594 0.14270
 N119 N -0.03460 0.23387 0.16403
 C120 C -0.02445 0.18738 0.14891
 N121 N -0.01518 0.18473 0.11148
 N122 N -0.01564 0.22681 0.09014
 C123 C 0.32729 0.00264 0.58568
 N124 N 0.36661 -0.03112 0.59310
 N125 N 0.40737 -0.03187 0.57183
 C126 C 0.41017 0.00080 0.54210
 N127 N 0.37094 0.03481 0.53485
 N128 N 0.33022 0.03566 0.55620
 C129 C 0.28249 0.00343 0.60929
 N130 N 0.24467 0.03952 0.60386
 N131 N 0.20407 0.04005 0.62534
 C132 C 0.19964 0.00447 0.65302
 N133 N 0.23757 -0.03159 0.65835
 N134 N 0.27822 -0.03204 0.63697
 C135 C -0.31999 0.00324 0.58644
 N136 N -0.35434 -0.03256 0.59237
 N137 N -0.39593 -0.03370 0.57074
 C138 C -0.40466 0.00084 0.54233
 N139 N -0.37102 0.03762 0.53719
 N140 N -0.32920 0.03848 0.55859
 C141 C -0.27338 0.00345 0.60947
 N142 N -0.23424 0.03124 0.59856
 N143 N -0.19155 0.03065 0.61905
 C144 C -0.18651 0.00256 0.65140
 N145 N -0.22586 -0.02500 0.66238
 N146 N -0.26839 -0.02477 0.64170
 C147 C 0.00493 -0.32323 0.91439
 N148 N 0.02694 -0.36758 0.90250
 N149 N 0.02785 -0.40922 0.92430
 C150 C 0.00708 -0.40838 0.95904
 N151 N -0.01621 -0.36409 0.97019
 N152 N -0.01686 -0.32230 0.94856
 C153 C 0.00487 -0.27698 0.89077
 N154 N -0.00953 -0.23102 0.90501
 N155 N -0.00890 -0.18893 0.88378
 C156 C 0.00583 -0.19119 0.84740
 N157 N 0.02001 -0.23729 0.83317
 N158 N 0.01972 -0.27935 0.85448
 C159 C 0.00557 0.32409 0.91326
 N160 N 0.04923 0.34620 0.92290
 N161 N 0.04862 0.38742 0.94441
 C162 C 0.00437 0.40764 0.95728
 N163 N -0.03930 0.38577 0.94748
 N164 N -0.03870 0.34475 0.92582
 C165 C 0.00607 0.27859 0.88966
 N166 N -0.03782 0.26040 0.87630
 N167 N -0.03753 0.21909 0.85494
 C168 C 0.00661 0.19415 0.84627
 N169 N 0.05051 0.21237 0.85977
 N170 N 0.05026 0.25387 0.88096
 C171 C -0.32512 -0.00006 0.41323
 N172 N -0.37071 0.01569 0.39823
 N173 N -0.41159 0.01746 0.41940
 C174 C -0.40875 0.00384 0.45654
 N175 N -0.36306 -0.01304 0.47102
 N176 N -0.32209 -0.01466 0.44998
 C177 C -0.27973 -0.00074 0.39027
 N178 N -0.23351 -0.01167 0.40627
 N179 N -0.19221 -0.01159 0.38560
 C180 C -0.19548 -0.00072 0.34809
 N181 N -0.24183 0.01007 0.33214
 N182 N -0.28314 0.01019 0.35283
 C183 C 0.32063 0.00579 0.41469
 N184 N 0.32857 -0.02671 0.44444
 N185 N 0.37075 -0.02566 0.46542
 C186 C 0.40651 0.00805 0.45752
 N187 N 0.39869 0.04025 0.42756
 N188 N 0.35646 0.03930 0.40664
 C189 C 0.27439 0.00432 0.39129
 N190 N 0.26525 0.03866 0.36285
 N191 N 0.22344 0.03722 0.34150
 C192 C 0.18920 0.00129 0.34763
 N193 N 0.19850 -0.03309 0.37612
 N194 N 0.24024 -0.03158 0.39755
   
