data_POSCAR
  _audit_creation_date              2014-09-24
  _audit_creation_method            'ToBaCCo'
  _symmetry_space_group_name_H-M    'P1'
  _symmetry_Int_Tables_number       1
  _symmetry_cell_setting            triclinic
  loop_
  _symmetry_equiv_pos_as_xyz
 x,y,z
_cell_length_a 63.7096
_cell_length_b 63.8977
_cell_length_c 64.1117
_cell_angle_alpha 90.075300
_cell_angle_beta 90.001700
_cell_angle_gamma 90.016900
loop_
  _atom_site_label
  _atom_site_type_symbol
  _atom_site_fract_x
  _atom_site_fract_y
  _atom_site_fract_z
N1 N 0.28344 0.24105 0.22530
 N2 N 0.27457 0.25751 0.21680
 C3 C 0.28572 0.26324 0.19990
 C4 C 0.30253 0.24962 0.19763
 C5 C 0.30050 0.23573 0.21411
 H6 H 0.28182 0.27631 0.18996
 H7 H 0.31070 0.22277 0.21784
 Cu8 Cu 0.24934 0.26993 0.22865
 Cu9 Cu 0.27227 0.22773 0.25025
 Cu10 Cu 0.22802 0.25010 0.27241
 N11 N 0.22482 0.28258 0.24166
 N12 N 0.21660 0.27479 0.25875
 C13 C 0.19994 0.28645 0.26439
 C14 C 0.19751 0.30251 0.25006
 C15 C 0.21366 0.29950 0.23585
 H16 H 0.19040 0.28342 0.27798
 H17 H 0.21704 0.30886 0.22224
 N18 N 0.24184 0.22507 0.28394
 N19 N 0.25866 0.21654 0.27549
 C20 C 0.26427 0.19971 0.28681
 C21 C 0.25032 0.19746 0.30326
 C22 C 0.23631 0.21389 0.30086
 H23 H 0.27752 0.18979 0.28325
 H24 H 0.22305 0.21750 0.31071
 H25 H 0.24145 0.23695 0.24615
 H26 H 0.25850 0.25449 0.26220
 N27 N 0.71606 -0.24163 0.22462
 N28 N 0.72489 -0.25820 0.21626
 C29 C 0.71370 -0.26415 0.19945
 C30 C 0.69685 -0.25053 0.19702
 C31 C 0.69899 -0.23643 0.21343
 H32 H 0.71763 -0.27741 0.18976
 H33 H 0.68896 -0.22331 0.21710
 Cu34 Cu 0.75021 -0.27041 0.22814
 Cu35 Cu 0.72731 -0.22800 0.24942
 Cu36 Cu 0.77185 -0.24991 0.27145
 N37 N 0.77493 -0.28280 0.24102
 N38 N 0.78331 -0.27469 0.25791
 C39 C 0.80008 -0.28616 0.26353
 C40 C 0.80249 -0.30250 0.24940
 C41 C 0.78611 -0.29976 0.23532
 H42 H 0.80971 -0.28272 0.27697
 H43 H 0.78248 -0.30933 0.22190
 N44 N 0.75797 -0.22484 0.28288
 N45 N 0.74102 -0.21649 0.27451
 C46 C 0.73535 -0.19964 0.28583
 C47 C 0.74940 -0.19720 0.30216
 C48 C 0.76352 -0.21352 0.29973
 H49 H 0.72188 -0.18995 0.28247
 H50 H 0.77697 -0.21685 0.30942
 H51 H 0.75811 -0.23715 0.24517
 H52 H 0.74128 -0.25452 0.26157
 N53 N 0.71736 0.24110 0.77522
 N54 N 0.72626 0.25757 0.78374
 C55 C 0.71529 0.26315 0.80083
 C56 C 0.69857 0.24943 0.80318
 C57 C 0.70048 0.23563 0.78657
 H58 H 0.71918 0.27625 0.81077
 H59 H 0.69025 0.22268 0.78280
 Cu60 Cu 0.75101 0.27026 0.77124
 Cu61 Cu 0.72814 0.22807 0.74988
 Cu62 Cu 0.77194 0.25100 0.72719
 N63 N 0.77585 0.28279 0.75875
 N64 N 0.78352 0.27557 0.74114
 C65 C 0.80008 0.28733 0.73548
 C66 C 0.80319 0.30278 0.75045
 C67 C 0.78742 0.29928 0.76502
 H68 H 0.80933 0.28449 0.72164
 H69 H 0.78429 0.30825 0.77897
 N70 N 0.75798 0.22599 0.71556
 N71 N 0.74139 0.21724 0.72425
 C72 C 0.73581 0.20034 0.71296
 C73 C 0.74955 0.19826 0.69633
 C74 C 0.76338 0.21487 0.69853
 H75 H 0.72270 0.19029 0.71663
 H76 H 0.77662 0.21846 0.68864
 H77 H 0.75900 0.23749 0.75347
 H78 H 0.74157 0.25482 0.73773
 N79 N 0.28407 -0.24217 0.77404
 N80 N 0.27566 -0.25912 0.78204
 C81 C 0.28703 -0.26509 0.79872
 C82 C 0.30351 -0.25111 0.80136
 C83 C 0.30105 -0.23678 0.78531
 H84 H 0.28347 -0.27853 0.80828
 H85 H 0.31074 -0.22330 0.78207
 Cu86 Cu 0.25038 -0.27132 0.77003
 Cu87 Cu 0.27230 -0.22808 0.74976
 Cu88 Cu 0.22712 -0.24954 0.72838
 N89 N 0.22531 -0.28358 0.75763
 N90 N 0.21604 -0.27464 0.74166
 C91 C 0.19890 -0.28576 0.73644
 C92 C 0.19727 -0.30282 0.74977
 C93 C 0.21446 -0.30084 0.76301
 H94 H 0.18863 -0.28175 0.72365
 H95 H 0.21866 -0.31098 0.77580
 N96 N 0.24079 -0.22426 0.71714
 N97 N 0.25802 -0.21615 0.72522
 C98 C 0.26362 -0.19928 0.71394
 C99 C 0.24926 -0.19658 0.69792
 C100 C 0.23501 -0.21277 0.70052
 H101 H 0.27724 -0.18975 0.71715
 H102 H 0.22147 -0.21609 0.69093
 H103 H 0.24170 -0.23756 0.75457
 H104 H 0.25804 -0.25417 0.73696
 N105 N 0.71544 -0.24306 0.77291
 N106 N 0.72443 -0.25948 0.78142
 C107 C 0.71343 -0.26518 0.79843
 C108 C 0.69655 -0.25172 0.80058
 C109 C 0.69830 -0.23792 0.78406
 H110 H 0.71729 -0.27823 0.80844
 H111 H 0.68815 -0.22478 0.78072
 Cu112 Cu 0.74954 -0.27189 0.76934
 Cu113 Cu 0.72718 -0.22893 0.74870
 Cu114 Cu 0.77319 -0.24935 0.72821
 N115 N 0.77523 -0.28329 0.75748
 N116 N 0.78463 -0.27412 0.74172
 C117 C 0.80202 -0.28497 0.73672
 C118 C 0.80364 -0.30209 0.74997
 C119 C 0.78624 -0.30040 0.76295
 H120 H 0.81238 -0.28082 0.72405
 H121 H 0.78190 -0.31073 0.77556
 N122 N 0.75916 -0.22446 0.71665
 N123 N 0.74154 -0.21681 0.72432
 C124 C 0.73583 -0.20002 0.71298
 C125 C 0.75052 -0.19694 0.69735
 C126 C 0.76508 -0.21278 0.70021
 H127 H 0.72188 -0.19084 0.71580
 H128 H 0.77904 -0.21555 0.69106
 H129 H 0.74223 -0.25470 0.73617
 H130 H 0.75785 -0.23788 0.75428
 N131 N 0.28352 0.24165 0.77466
 N132 N 0.27403 0.25743 0.78382
 C133 C 0.28482 0.26278 0.80110
 C134 C 0.30207 0.24971 0.80275
 C135 C 0.30074 0.23651 0.78567
 H136 H 0.28071 0.27546 0.81151
 H137 H 0.31138 0.22396 0.78167
 Cu138 Cu 0.24901 0.26982 0.77163
 Cu139 Cu 0.27266 0.22858 0.74938
 Cu140 Cu 0.22787 0.25056 0.72772
 N141 N 0.22399 0.28220 0.75944
 N142 N 0.21606 0.27480 0.74200
 C143 C 0.19934 0.28641 0.73653
 C144 C 0.19656 0.30194 0.75136
 C145 C 0.21250 0.29875 0.76570
 H146 H 0.18984 0.28367 0.72282
 H147 H 0.21571 0.30806 0.77943
 N148 N 0.24216 0.22597 0.71569
 N149 N 0.25919 0.21763 0.72392
 C150 C 0.26492 0.20095 0.71241
 C151 C 0.25084 0.19859 0.69609
 C152 C 0.23663 0.21481 0.69873
 H153 H 0.27827 0.19113 0.71584
 H154 H 0.22315 0.21821 0.68911
 H155 H 0.25829 0.25508 0.73780
 H156 H 0.24163 0.23707 0.75362
 N157 N 0.28405 -0.24110 0.22499
 N158 N 0.27526 -0.25769 0.21658
 C159 C 0.28647 -0.26353 0.19975
 C160 C 0.30322 -0.24984 0.19741
 C161 C 0.30110 -0.23581 0.21380
 H162 H 0.28270 -0.27678 0.18997
 H163 H 0.31115 -0.22268 0.21741
 Cu164 Cu 0.25003 -0.27005 0.22846
 Cu165 Cu 0.27282 -0.22761 0.24983
 Cu166 Cu 0.22851 -0.24985 0.27196
 N167 N 0.22546 -0.28262 0.24141
 N168 N 0.21715 -0.27463 0.25838
 C169 C 0.20043 -0.28618 0.26401
 C170 C 0.19804 -0.30239 0.24980
 C171 C 0.21430 -0.29958 0.23567
 H172 H 0.19075 -0.28290 0.27745
 H173 H 0.21779 -0.30913 0.22220
 N174 N 0.24229 -0.22475 0.28341
 N175 N 0.25914 -0.21625 0.27497
 C176 C 0.26475 -0.19940 0.28630
 C177 C 0.25077 -0.19711 0.30272
 C178 C 0.23675 -0.21353 0.30032
 H179 H 0.27803 -0.18951 0.28278
 H180 H 0.22350 -0.21713 0.31017
 H181 H 0.25905 -0.25426 0.26191
 H182 H 0.24205 -0.23692 0.24566
 N183 N 0.71563 0.24159 0.22617
 N184 N 0.72498 0.25759 0.21726
 C185 C 0.71415 0.26304 0.20006
 C186 C 0.69702 0.24985 0.19820
 C187 C 0.69845 0.23645 0.21508
 H188 H 0.71820 0.27584 0.18981
 H189 H 0.68797 0.22368 0.21881
 Cu190 Cu 0.75001 0.26998 0.22946
 Cu191 Cu 0.72679 0.22813 0.25107
 Cu192 Cu 0.77201 0.24960 0.27243
 N193 N 0.77519 0.28210 0.24163
 N194 N 0.78367 0.27408 0.25849
 C195 C 0.80058 0.28548 0.26387
 C196 C 0.80291 0.30163 0.24962
 C197 C 0.78645 0.29892 0.23570
 H198 H 0.81030 0.28229 0.27730
 H199 H 0.78283 0.30849 0.22231
 N200 N 0.75782 0.22486 0.28421
 N201 N 0.74058 0.21676 0.27615
 C202 C 0.73487 0.20000 0.28752
 C203 C 0.74919 0.19736 0.30356
 C204 C 0.76351 0.21346 0.30093
 H205 H 0.72125 0.19045 0.28434
 H206 H 0.77724 0.21653 0.31034
 H207 H 0.74139 0.25438 0.26308
 H208 H 0.75771 0.23678 0.24644
 C209 C 0.24074 -0.01085 0.43600
 C210 C 0.24067 0.01062 0.43597
 C211 C 0.24649 0.01687 0.45586
 N212 N 0.25017 -0.00002 0.46799
 C213 C 0.24658 -0.01698 0.45590
 C214 C 0.24950 0.03784 0.46216
 C215 C 0.25290 0.04382 0.48313
 C216 C 0.26019 0.06328 0.48941
 C217 C 0.26017 0.06329 0.51085
 C218 C 0.25287 0.04383 0.51710
 N219 N 0.24841 0.03208 0.50010
 C220 C 0.24939 0.03790 0.53805
 C221 C 0.24632 0.01696 0.54437
 C222 C 0.24042 0.01080 0.56425
 C223 C 0.24045 -0.01067 0.56427
 C224 C 0.24637 -0.01690 0.54441
 N225 N 0.25003 0.00001 0.53230
 C226 C 0.24949 -0.03786 0.53813
 C227 C 0.25299 -0.04383 0.51717
 C228 C 0.26035 -0.06327 0.51092
 C229 C 0.26043 -0.06328 0.48947
 C230 C 0.25311 -0.04384 0.48320
 N231 N 0.24854 -0.03210 0.50017
 C232 C 0.24972 -0.03791 0.46223
 H233 H 0.23700 -0.02080 0.42283
 H234 H 0.23687 0.02048 0.42279
 H235 H 0.24060 -0.01790 0.50015
 H236 H 0.26493 0.07620 0.47957
 H237 H 0.26489 0.07622 0.52072
 H238 H 0.23658 0.02073 0.57740
 H239 H 0.23664 -0.02055 0.57744
 H240 H 0.26522 -0.07620 0.47963
 H241 H 0.24051 0.01785 0.50009
 H242 H 0.26507 -0.07618 0.52078
 C243 C 0.76035 0.06385 0.48922
 C244 C 0.76041 0.06391 0.51062
 C245 C 0.75403 0.04413 0.51683
 N246 N 0.75004 0.03204 0.49999
 C247 C 0.75394 0.04404 0.48310
 C248 C 0.75073 0.03793 0.53771
 C249 C 0.74704 0.01692 0.54357
 C250 C 0.73938 0.01068 0.56283
 C251 C 0.73936 -0.01084 0.56283
 C252 C 0.74700 -0.01716 0.54358
 N253 N 0.75168 -0.00014 0.53193
 C254 C 0.75068 -0.03819 0.53774
 C255 C 0.75388 -0.04451 0.51687
 C256 C 0.76017 -0.06434 0.51068
 C257 C 0.76006 -0.06440 0.48928
 C258 C 0.75371 -0.04460 0.48312
 N259 N 0.74988 -0.03250 0.50000
 C260 C 0.75033 -0.03837 0.46226
 C261 C 0.74664 -0.01736 0.45644
 C262 C 0.73886 -0.01109 0.43724
 C263 C 0.73892 0.01043 0.43724
 C264 C 0.74673 0.01672 0.45644
 N265 N 0.75142 -0.00031 0.46805
 C266 C 0.75052 0.03773 0.46225
 H267 H 0.76446 0.07693 0.47932
 H268 H 0.76457 0.07704 0.52047
 H269 H 0.75968 -0.00030 0.48203
 H270 H 0.73444 0.02059 0.57562
 H271 H 0.73440 -0.02070 0.57563
 H272 H 0.76433 -0.07743 0.52055
 H273 H 0.76412 -0.07753 0.47941
 H274 H 0.73391 0.02031 0.42447
 H275 H 0.75983 -0.00018 0.51789
 H276 H 0.73381 -0.02098 0.42448
 C277 C 0.43502 0.24360 -0.01088
 C278 C 0.43499 0.24354 0.01050
 C279 C 0.45528 0.24822 0.01674
 N280 N 0.46767 0.25115 -0.00012
 C281 C 0.45538 0.24814 -0.01704
 C282 C 0.46173 0.25073 0.03770
 C283 C 0.48287 0.25371 0.04383
 C284 C 0.48912 0.25987 0.06362
 C285 C 0.51069 0.25983 0.06371
 C286 C 0.51709 0.25381 0.04390
 N287 N 0.50001 0.24992 0.03196
 C288 C 0.53825 0.25076 0.03784
 C289 C 0.54479 0.24817 0.01693
 C290 C 0.56515 0.24364 0.01076
 C291 C 0.56518 0.24360 -0.01063
 C292 C 0.54489 0.24827 -0.01686
 N293 N 0.53249 0.25119 0.00001
 C294 C 0.53845 0.25080 -0.03780
 C295 C 0.51731 0.25374 -0.04394
 C296 C 0.51104 0.25990 -0.06371
 C297 C 0.48948 0.25984 -0.06379
 C298 C 0.48308 0.25381 -0.04400
 N299 N 0.50016 0.24993 -0.03207
 C300 C 0.46192 0.25074 -0.03795
 H301 H 0.42150 0.24081 -0.02072
 H302 H 0.42149 0.24055 0.02031
 H303 H 0.50012 0.24279 -0.01756
 H304 H 0.47919 0.26381 0.07675
 H305 H 0.52046 0.26362 0.07698
 H306 H 0.57866 0.24085 0.02059
 H307 H 0.57868 0.24062 -0.02045
 H308 H 0.47970 0.26362 -0.07706
 H309 H 0.50005 0.24277 0.01742
 H310 H 0.52097 0.26385 -0.07683
 C311 C 0.56539 0.75628 -0.01100
 C312 C 0.56539 0.75616 0.01039
 C313 C 0.54517 0.75110 0.01655
 N314 N 0.53283 0.74815 -0.00036
 C315 C 0.54510 0.75149 -0.01723
 C316 C 0.53872 0.74807 0.03742
 C317 C 0.51757 0.74479 0.04327
 C318 C 0.51119 0.73728 0.06255
 C319 C 0.48962 0.73750 0.06255
 C320 C 0.48339 0.74515 0.04329
 N321 N 0.50053 0.74960 0.03164
 C322 C 0.46233 0.74898 0.03747
 C323 C 0.45599 0.75236 0.01663
 C324 C 0.43609 0.75865 0.01056
 C325 C 0.43603 0.75881 -0.01083
 C326 C 0.45591 0.75264 -0.01711
 N327 N 0.46805 0.74863 -0.00030
 C328 C 0.46216 0.74971 -0.03805
 C329 C 0.48323 0.74621 -0.04412
 C330 C 0.48942 0.73965 -0.06380
 C331 C 0.51099 0.73951 -0.06389
 C332 C 0.51745 0.74577 -0.04417
 N333 N 0.50041 0.75000 -0.03229
 C334 C 0.53861 0.74884 -0.03815
 H335 H 0.57888 0.75932 -0.02079
 H336 H 0.57883 0.75924 0.02026
 H337 H 0.50052 0.75735 -0.01784
 H338 H 0.52106 0.73225 0.07534
 H339 H 0.47966 0.73268 0.07535
 H340 H 0.42295 0.76264 0.02050
 H341 H 0.42284 0.76296 -0.02063
 H342 H 0.52072 0.73546 -0.07711
 H343 H 0.50060 0.75773 0.01762
 H344 H 0.47945 0.73563 -0.07688
 C345 C -0.01107 0.43630 0.23858
 C346 C 0.01046 0.43629 0.23857
 C347 C 0.01669 0.45610 0.24486
 N348 N -0.00028 0.46817 0.24877
 C349 C -0.01726 0.45612 0.24489
 C350 C 0.03769 0.46236 0.24815
 C351 C 0.04359 0.48338 0.25181
 C352 C 0.06299 0.48967 0.25937
 C353 C 0.06297 0.51118 0.25943
 C354 C 0.04355 0.51745 0.25193
 N355 N 0.03184 0.50041 0.24727
 C356 C 0.03763 0.53847 0.24842
 C357 C 0.01663 0.54479 0.24527
 C358 C 0.01043 0.56470 0.23931
 C359 C -0.01110 0.56471 0.23932
 C360 C -0.01732 0.54481 0.24529
 N361 N -0.00035 0.53269 0.24899
 C362 C -0.03832 0.53850 0.24846
 C363 C -0.04422 0.51746 0.25197
 C364 C -0.06361 0.51115 0.25951
 C365 C -0.06358 0.48964 0.25948
 C366 C -0.04418 0.48339 0.25189
 N367 N -0.03248 0.50044 0.24731
 C368 C -0.03826 0.46237 0.24822
 H369 H -0.02101 0.42318 0.23450
 H370 H 0.02039 0.42317 0.23447
 H371 H -0.01834 0.50046 0.23924
 H372 H 0.07589 0.47979 0.26423
 H373 H 0.07586 0.52108 0.26432
 H374 H 0.02038 0.57787 0.23545
 H375 H -0.02103 0.57789 0.23546
 H376 H -0.07645 0.47973 0.26436
 H377 H 0.01769 0.50043 0.23922
 H378 H -0.07650 0.52102 0.26443
 C379 C -0.01073 0.56409 0.73880
 C380 C 0.01080 0.56409 0.73888
 C381 C 0.01698 0.54460 0.74608
 N382 N -0.00003 0.53273 0.75043
 C383 C -0.01698 0.54460 0.74595
 C384 C 0.03799 0.53850 0.74971
 C385 C 0.04389 0.51758 0.75394
 C386 C 0.06341 0.51149 0.76134
 C387 C 0.06343 0.48999 0.76182
 C388 C 0.04383 0.48349 0.75497
 N389 N 0.03207 0.50041 0.75007
 C390 C 0.03783 0.46237 0.75210
 C391 C 0.01682 0.45581 0.74942
 C392 C 0.01062 0.43536 0.74564
 C393 C -0.01091 0.43534 0.74556
 C394 C -0.01717 0.45579 0.74926
 N395 N -0.00019 0.46821 0.75184
 C396 C -0.03822 0.46234 0.75175
 C397 C -0.04420 0.48350 0.75452
 C398 C -0.06387 0.49009 0.76108
 C399 C -0.06373 0.51159 0.76065
 C400 C -0.04408 0.51761 0.75355
 N401 N -0.03229 0.50040 0.74981
 C402 C -0.03803 0.53853 0.74944
 H403 H -0.02063 0.57699 0.73405
 H404 H 0.02075 0.57699 0.73420
 H405 H -0.01793 0.50015 0.74216
 H406 H 0.07642 0.52147 0.76569
 H407 H 0.07651 0.48029 0.76655
 H408 H 0.02053 0.42177 0.74356
 H409 H -0.02076 0.42171 0.74343
 H410 H -0.07676 0.52161 0.76483
 H411 H 0.01783 0.50018 0.74220
 H412 H -0.07710 0.48048 0.76556
 C413 C 0.35032 0.25020 0.14986
 C414 C 0.33565 0.26654 0.15130
 C415 C 0.32018 0.26637 0.16676
 C416 C 0.31900 0.24985 0.18120
 C417 C 0.33374 0.23352 0.17974
 C418 C 0.34920 0.23370 0.16427
 C419 C 0.36672 0.25034 0.13337
 C420 C 0.37221 0.23179 0.12292
 C421 C 0.38764 0.23190 0.10743
 C422 C 0.39794 0.25058 0.10202
 C423 C 0.39244 0.26914 0.11246
 C424 C 0.37701 0.26903 0.12796
 C425 C 0.41435 0.25068 0.08556
 C426 C 0.41541 0.26711 0.07101
 C427 C 0.43079 0.26714 0.05547
 C428 C 0.44537 0.25075 0.05420
 C429 C 0.44445 0.23438 0.06871
 C430 C 0.42906 0.23432 0.08424
 H431 H 0.33594 0.27936 0.14027
 H432 H 0.30922 0.27927 0.16732
 H433 H 0.33341 0.22049 0.19047
 H434 H 0.36044 0.22100 0.16374
 H435 H 0.36434 0.21721 0.12649
 H436 H 0.39129 0.21741 0.09944
 H437 H 0.40031 0.28372 0.10887
 H438 H 0.37337 0.28352 0.13595
 H439 H 0.40415 0.27980 0.07147
 H440 H 0.43133 0.27990 0.04438
 H441 H 0.45566 0.22166 0.06796
 H442 H 0.42884 0.22161 0.09539
 C443 C 0.64979 0.74852 0.14999
 C444 C 0.64970 0.76402 0.16552
 C445 C 0.66512 0.76432 0.18102
 C446 C 0.68117 0.74911 0.18142
 C447 C 0.68113 0.73357 0.16577
 C448 C 0.66565 0.73329 0.15031
 C449 C 0.63343 0.74830 0.13347
 C450 C 0.62439 0.72936 0.12685
 C451 C 0.60897 0.72918 0.11133
 C452 C 0.60226 0.74795 0.10206
 C453 C 0.61134 0.76689 0.10866
 C454 C 0.62674 0.76706 0.12419
 C455 C 0.58586 0.74781 0.08558
 C456 C 0.57027 0.76340 0.08512
 C457 C 0.55498 0.76342 0.06950
 C458 C 0.55497 0.74787 0.05405
 C459 C 0.57036 0.73219 0.05451
 C460 C 0.58568 0.73216 0.07012
 H461 H 0.63751 0.77582 0.16585
 H462 H 0.66426 0.77658 0.19261
 H463 H 0.69301 0.72152 0.16521
 H464 H 0.66629 0.72128 0.13839
 H465 H 0.62900 0.71468 0.13391
 H466 H 0.60206 0.71437 0.10682
 H467 H 0.60678 0.78158 0.10159
 H468 H 0.63364 0.78187 0.12871
 H469 H 0.56978 0.77548 0.09698
 H470 H 0.54314 0.77558 0.06942
 H471 H 0.57052 0.72003 0.04272
 H472 H 0.59759 0.72008 0.06990
 C473 C 0.65066 0.25005 -0.14916
 C474 C 0.65186 0.23350 -0.16356
 C475 C 0.66739 0.23328 -0.17895
 C476 C 0.68212 0.24962 -0.18036
 C477 C 0.68091 0.26617 -0.16591
 C478 C 0.66537 0.26637 -0.15051
 C479 C 0.63414 0.25026 -0.13280
 C480 C 0.62382 0.26896 -0.12749
 C481 C 0.60823 0.26913 -0.11215
 C482 C 0.60260 0.25060 -0.10177
 C483 C 0.61293 0.23191 -0.10707
 C484 C 0.62852 0.23173 -0.12240
 C485 C 0.58604 0.25076 -0.08546
 C486 C 0.57130 0.23441 -0.08426
 C487 C 0.55582 0.23448 -0.06882
 C488 C 0.55482 0.25086 -0.05429
 C489 C 0.56940 0.26726 -0.05546
 C490 C 0.58488 0.26722 -0.07091
 H491 H 0.64061 0.22080 -0.16309
 H492 H 0.66776 0.22023 -0.18969
 H493 H 0.69187 0.27907 -0.16643
 H494 H 0.66503 0.27922 -0.13949
 H495 H 0.62755 0.28343 -0.13545
 H496 H 0.60034 0.28373 -0.10864
 H497 H 0.60919 0.21744 -0.09911
 H498 H 0.63641 0.21714 -0.12589
 H499 H 0.57160 0.22167 -0.09541
 H500 H 0.54461 0.22174 -0.06815
 H501 H 0.56880 0.28004 -0.04435
 H502 H 0.59614 0.27991 -0.07127
 C503 C 0.35099 0.74886 -0.15052
 C504 C 0.35101 0.76424 -0.16614
 C505 C 0.33570 0.76421 -0.18175
 C506 C 0.31992 0.74879 -0.18213
 C507 C 0.31997 0.73336 -0.16649
 C508 C 0.33532 0.73339 -0.15089
 C509 C 0.36723 0.74899 -0.13389
 C510 C 0.37642 0.73020 -0.12707
 C511 C 0.39176 0.73035 -0.11149
 C512 C 0.39827 0.74928 -0.10235
 C513 C 0.38905 0.76806 -0.10914
 C514 C 0.37372 0.76791 -0.12473
 C515 C 0.41462 0.74944 -0.08581
 C516 C 0.43016 0.76510 -0.08545
 C517 C 0.44555 0.76521 -0.06992
 C518 C 0.44570 0.74969 -0.05448
 C519 C 0.43025 0.73405 -0.05476
 C520 C 0.41484 0.73393 -0.07027
 H521 H 0.36305 0.77620 -0.16646
 H522 H 0.33636 0.77631 -0.19349
 H523 H 0.30814 0.72123 -0.16612
 H524 H 0.33473 0.72146 -0.13893
 H525 H 0.37199 0.71540 -0.13405
 H526 H 0.39880 0.71566 -0.10684
 H527 H 0.39347 0.78286 -0.10217
 H528 H 0.36670 0.78261 -0.12941
 H529 H 0.43058 0.77710 -0.09735
 H530 H 0.45741 0.77736 -0.06994
 H531 H 0.43016 0.72194 -0.04294
 H532 H 0.40295 0.72183 -0.06995
 C533 C 0.15011 0.35082 0.24962
 C534 C 0.16646 0.35097 0.23492
 C535 C 0.18182 0.33536 0.23508
 C536 C 0.18121 0.31918 0.24993
 C537 C 0.16482 0.31908 0.26464
 C538 C 0.14949 0.33471 0.26449
 C539 C 0.13375 0.36737 0.24942
 C540 C 0.12636 0.37607 0.26818
 C541 C 0.11088 0.39157 0.26800
 C542 C 0.10242 0.39871 0.24905
 C543 C 0.10985 0.39004 0.23029
 C544 C 0.12534 0.37456 0.23047
 C545 C 0.08586 0.41509 0.24886
 C546 C 0.08606 0.43100 0.23372
 C547 C 0.07042 0.44633 0.23350
 C548 C 0.05430 0.44604 0.24839
 C549 C 0.05407 0.43025 0.26357
 C550 C 0.06969 0.41490 0.26379
 H551 H 0.16753 0.36334 0.22344
 H552 H 0.19420 0.33615 0.22358
 H553 H 0.16364 0.30688 0.27625
 H554 H 0.13693 0.33401 0.27585
 H555 H 0.13276 0.37109 0.28301
 H556 H 0.10575 0.39818 0.28270
 H557 H 0.10341 0.39496 0.21545
 H558 H 0.13048 0.36794 0.21578
 H559 H 0.09846 0.43175 0.22219
 H560 H 0.07086 0.45846 0.22171
 H561 H 0.04176 0.42982 0.27521
 H562 H 0.06894 0.40271 0.27549
 C563 C 0.15030 0.64996 0.74994
 C564 C 0.16776 0.64844 0.76317
 C565 C 0.18317 0.66403 0.76324
 C566 C 0.18167 0.68146 0.74983
 C567 C 0.16411 0.68275 0.73647
 C568 C 0.14861 0.66728 0.73664
 C569 C 0.13386 0.63355 0.75000
 C570 C 0.11252 0.63907 0.75046
 C571 C 0.09700 0.62362 0.75054
 C572 C 0.10250 0.60234 0.74990
 C573 C 0.12384 0.59681 0.74932
 C574 C 0.13937 0.61227 0.74951
 C575 C 0.08602 0.58597 0.74984
 C576 C 0.08710 0.56908 0.73583
 C577 C 0.07143 0.55376 0.73567
 C578 C 0.05456 0.55493 0.74970
 C579 C 0.05354 0.57171 0.76382
 C580 C 0.06905 0.58717 0.76380
 H581 H 0.16936 0.63528 0.77369
 H582 H 0.19630 0.66212 0.77375
 H583 H 0.16203 0.69576 0.72592
 H584 H 0.13536 0.66874 0.72615
 H585 H 0.10787 0.65536 0.75098
 H586 H 0.08066 0.62829 0.75084
 H587 H 0.12849 0.58051 0.74897
 H588 H 0.15571 0.60761 0.74900
 H589 H 0.09991 0.56791 0.72479
 H590 H 0.07244 0.54097 0.72461
 H591 H 0.04072 0.57279 0.77487
 H592 H 0.06797 0.59991 0.77490
 C593 C -0.15064 0.65013 0.24925
 C594 C -0.15084 0.66563 0.26478
 C595 C -0.16625 0.68118 0.26486
 C596 C -0.18196 0.68173 0.24936
 C597 C -0.18165 0.66608 0.23381
 C598 C -0.16623 0.65052 0.23379
 C599 C -0.13420 0.63364 0.24917
 C600 C -0.13934 0.61278 0.24442
 C601 C -0.12386 0.59727 0.24439
 C602 C -0.10290 0.60228 0.24909
 C603 C -0.09777 0.62315 0.25381
 C604 C -0.11324 0.63865 0.25386
 C605 C -0.08643 0.58581 0.24902
 C606 C -0.07064 0.58567 0.26437
 C607 C -0.05506 0.57029 0.26422
 C608 C -0.05495 0.55478 0.24871
 C609 C -0.07071 0.55478 0.23344
 C610 C -0.08630 0.57015 0.23358
 H611 H -0.13919 0.66559 0.27708
 H612 H -0.16567 0.69268 0.27722
 H613 H -0.19322 0.66568 0.22149
 H614 H -0.16635 0.63893 0.22145
 H615 H -0.15540 0.60837 0.24105
 H616 H -0.12837 0.58129 0.24100
 H617 H -0.08171 0.62757 0.25716
 H618 H -0.10873 0.65463 0.25726
 H619 H -0.07048 0.59732 0.27665
 H620 H -0.04309 0.57041 0.27621
 H621 H -0.07081 0.54293 0.22133
 H622 H -0.09808 0.56999 0.22140
 C623 C -0.14979 0.35007 0.75137
 C624 C -0.15251 0.33723 0.73376
 C625 C -0.16783 0.32157 0.73351
 C626 C -0.18119 0.31848 0.75076
 C627 C -0.17851 0.33150 0.76833
 C628 C -0.16295 0.34692 0.76867
 C629 C -0.13331 0.36664 0.75167
 C630 C -0.13670 0.38570 0.76221
 C631 C -0.12122 0.40120 0.76250
 C632 C -0.10215 0.39816 0.75199
 C633 C -0.09871 0.37926 0.74138
 C634 C -0.11403 0.36360 0.74136
 C635 C -0.08589 0.41472 0.75198
 C636 C -0.07650 0.42103 0.73319
 C637 C -0.06122 0.43672 0.73314
 C638 C -0.05485 0.44608 0.75189
 C639 C -0.06405 0.43968 0.77071
 C640 C -0.07962 0.42425 0.77074
 H641 H -0.14300 0.33944 0.71994
 H642 H -0.16933 0.31226 0.71950
 H643 H -0.18809 0.32969 0.78212
 H644 H -0.16107 0.35618 0.78270
 H645 H -0.15146 0.38881 0.76997
 H646 H -0.12429 0.41577 0.77061
 H647 H -0.08401 0.37648 0.73336
 H648 H -0.11062 0.34901 0.73346
 H649 H -0.08118 0.41399 0.71854
 H650 H -0.05420 0.44148 0.71850
 H651 H -0.05918 0.44668 0.78533
 H652 H -0.08654 0.41951 0.78542
 C653 C 0.25030 0.14983 0.35102
 C654 C 0.23431 0.16494 0.35027
 C655 C 0.23430 0.18034 0.33482
 C656 C 0.25033 0.18107 0.31972
 C657 C 0.26634 0.16593 0.32054
 C658 C 0.26631 0.15051 0.33598
 C659 C 0.25027 0.13343 0.36741
 C660 C 0.25562 0.11266 0.36251
 C661 C 0.25554 0.09721 0.37792
 C662 C 0.25016 0.10217 0.39860
 C663 C 0.24484 0.12295 0.40351
 C664 C 0.24487 0.13840 0.38809
 C665 C 0.25006 0.08573 0.41498
 C666 C 0.23421 0.08532 0.43026
 C667 C 0.23407 0.06979 0.44559
 C668 C 0.24973 0.05438 0.44590
 C669 C 0.26561 0.05475 0.43077
 C670 C 0.26578 0.07028 0.41544
 H671 H 0.22160 0.16466 0.36148
 H672 H 0.22162 0.19157 0.33474
 H673 H 0.27904 0.16594 0.30936
 H674 H 0.27901 0.13925 0.33631
 H675 H 0.25953 0.10827 0.34666
 H676 H 0.25938 0.08129 0.37356
 H677 H 0.24094 0.12736 0.41936
 H678 H 0.24100 0.15432 0.39242
 H679 H 0.22173 0.09682 0.43018
 H680 H 0.22167 0.06967 0.45715
 H681 H 0.27790 0.04304 0.43089
 H682 H 0.27837 0.07035 0.40409
 C683 C 0.74985 0.15011 0.64898
 C684 C 0.73619 0.14878 0.66613
 C685 C 0.73609 0.16437 0.68144
 C686 C 0.74962 0.18171 0.67999
 C687 C 0.76327 0.18301 0.66279
 C688 C 0.76339 0.16739 0.64750
 C689 C 0.74996 0.13352 0.63272
 C690 C 0.76896 0.12638 0.62415
 C691 C 0.76905 0.11077 0.60886
 C692 C 0.75013 0.10197 0.60175
 C693 C 0.73113 0.10910 0.61033
 C694 C 0.73104 0.12468 0.62565
 C695 C 0.75021 0.08546 0.58540
 C696 C 0.73512 0.08558 0.56939
 C697 C 0.73526 0.07012 0.55395
 C698 C 0.75051 0.05429 0.55420
 C699 C 0.76554 0.05405 0.57018
 C700 C 0.76541 0.06950 0.58564
 H701 H 0.72578 0.13550 0.66788
 H702 H 0.72546 0.16262 0.69447
 H703 H 0.77382 0.19613 0.66095
 H704 H 0.77390 0.16901 0.63432
 H705 H 0.78381 0.13273 0.62943
 H706 H 0.78393 0.10577 0.60241
 H707 H 0.71630 0.10248 0.60534
 H708 H 0.71613 0.12999 0.63179
 H709 H 0.72337 0.09780 0.56863
 H710 H 0.72351 0.07052 0.54173
 H711 H 0.77739 0.04190 0.57063
 H712 H 0.77706 0.06881 0.59791
 C713 C 0.24953 -0.14913 0.64997
 C714 C 0.26541 -0.14969 0.66515
 C715 C 0.26532 -0.16502 0.68068
 C716 C 0.24931 -0.18018 0.68145
 C717 C 0.23339 -0.17954 0.66625
 C718 C 0.23352 -0.16422 0.65071
 C719 C 0.24966 -0.13286 0.63344
 C720 C 0.24442 -0.13801 0.61276
 C721 C 0.24454 -0.12270 0.59721
 C722 C 0.24986 -0.10189 0.60198
 C723 C 0.25510 -0.09675 0.62266
 C724 C 0.25502 -0.11206 0.63821
 C725 C 0.24989 -0.08558 0.58547
 C726 C 0.26563 -0.07013 0.58500
 C727 C 0.26553 -0.05468 0.56959
 C728 C 0.24971 -0.05438 0.55439
 C729 C 0.23406 -0.06981 0.55469
 C730 C 0.23412 -0.08526 0.57010
 H731 H 0.27811 -0.13843 0.66485
 H732 H 0.27791 -0.16493 0.69198
 H733 H 0.22073 -0.19079 0.66626
 H734 H 0.22089 -0.16403 0.63939
 H735 H 0.24054 -0.15396 0.60854
 H736 H 0.24075 -0.12723 0.58137
 H737 H 0.25894 -0.08080 0.62692
 H738 H 0.25882 -0.10755 0.65405
 H739 H 0.27815 -0.07013 0.59641
 H740 H 0.27781 -0.04296 0.56947
 H741 H 0.22170 -0.06974 0.54308
 H742 H 0.22164 -0.09676 0.57019
 C743 C 0.74940 -0.14947 0.34991
 C744 C 0.76303 -0.16669 0.35125
 C745 C 0.76301 -0.18215 0.33581
 C746 C 0.74937 -0.18077 0.31861
 C747 C 0.73572 -0.16352 0.31731
 C748 C 0.73573 -0.14807 0.33278
 C749 C 0.74948 -0.13303 0.36632
 C750 C 0.73056 -0.12433 0.37354
 C751 C 0.73064 -0.10894 0.38905
 C752 C 0.74965 -0.10186 0.39768
 C753 C 0.76857 -0.11052 0.39042
 C754 C 0.76848 -0.12594 0.37494
 C755 C 0.74976 -0.08554 0.41421
 C756 C 0.76494 -0.06955 0.41409
 C757 C 0.76511 -0.05426 0.42969
 C758 C 0.75012 -0.05467 0.44571
 C759 C 0.73489 -0.07053 0.44587
 C760 C 0.73471 -0.08584 0.43027
 H761 H 0.77354 -0.16838 0.36442
 H762 H 0.77362 -0.19524 0.33755
 H763 H 0.72510 -0.16174 0.30428
 H764 H 0.72524 -0.13485 0.33115
 H765 H 0.71565 -0.12961 0.36736
 H766 H 0.71582 -0.10242 0.39416
 H767 H 0.78346 -0.10556 0.39690
 H768 H 0.78333 -0.13217 0.36956
 H769 H 0.77655 -0.06872 0.40178
 H770 H 0.77693 -0.04207 0.42931
 H771 H 0.72318 -0.07105 0.45810
 H772 H 0.72298 -0.09808 0.43094
 C773 C 0.64951 0.74827 -0.15115
 C774 C 0.66961 0.73992 -0.14743
 C775 C 0.68480 0.73973 -0.16316
 C776 C 0.68037 0.74819 -0.18287
 C777 C 0.66040 0.75665 -0.18662
 C778 C 0.64509 0.75654 -0.17101
 C779 C 0.63327 0.74837 -0.13442
 C780 C 0.61886 0.76496 -0.13276
 C781 C 0.60351 0.76496 -0.11719
 C782 C 0.60234 0.74854 -0.10265
 C783 C 0.61686 0.73203 -0.10421
 C784 C 0.63202 0.73187 -0.11997
 C785 C 0.58602 0.74860 -0.08600
 C786 C 0.57684 0.72975 -0.07918
 C787 C 0.56159 0.72982 -0.06352
 C788 C 0.55495 0.74873 -0.05463
 C789 C 0.56392 0.76757 -0.06136
 C790 C 0.57942 0.76750 -0.07678
 H791 H 0.67376 0.73380 -0.13225
 H792 H 0.70015 0.73335 -0.15973
 H793 H 0.65646 0.76304 -0.20175
 H794 H 0.62970 0.76270 -0.17463
 H795 H 0.61951 0.77809 -0.14337
 H796 H 0.59243 0.77779 -0.11671
 H797 H 0.61668 0.71926 -0.09314
 H798 H 0.64262 0.71867 -0.12091
 H799 H 0.58120 0.71493 -0.08614
 H800 H 0.55477 0.71515 -0.05846
 H801 H 0.55902 0.78228 -0.05452
 H802 H 0.58640 0.78227 -0.08128
 C803 C 0.34986 0.25028 -0.14973
 C804 C 0.32962 0.25803 -0.14554
 C805 C 0.31417 0.25799 -0.16101
 C806 C 0.31848 0.24993 -0.18093
 C807 C 0.33862 0.24207 -0.18513
 C808 C 0.35417 0.24238 -0.16977
 C809 C 0.36637 0.25038 -0.13328
 C810 C 0.38112 0.23406 -0.13202
 C811 C 0.39671 0.23422 -0.11669
 C812 C 0.39781 0.25057 -0.10202
 C813 C 0.38298 0.26683 -0.10320
 C814 C 0.36756 0.26681 -0.11870
 C815 C 0.41431 0.25064 -0.08557
 C816 C 0.42338 0.26956 -0.07876
 C817 C 0.43875 0.26960 -0.06321
 C818 C 0.44560 0.25073 -0.05443
 C819 C 0.43676 0.23183 -0.06119
 C820 C 0.42116 0.23177 -0.07650
 H821 H 0.32558 0.26385 -0.13019
 H822 H 0.29871 0.26393 -0.15723
 H823 H 0.34251 0.23601 -0.20043
 H824 H 0.36967 0.23667 -0.17372
 H825 H 0.38054 0.22099 -0.14276
 H826 H 0.40802 0.22159 -0.11649
 H827 H 0.38312 0.27953 -0.09201
 H828 H 0.35669 0.27980 -0.11935
 H829 H 0.41880 0.28434 -0.08561
 H830 H 0.44547 0.28433 -0.05813
 H831 H 0.44182 0.21715 -0.05442
 H832 H 0.41428 0.21695 -0.08102
 C833 C 0.35108 0.74947 0.14972
 C834 C 0.35147 0.76457 0.16566
 C835 C 0.33601 0.76477 0.18111
 C836 C 0.31973 0.74988 0.18101
 C837 C 0.31939 0.73477 0.16503
 C838 C 0.33488 0.73456 0.14960
 C839 C 0.36748 0.74932 0.13327
 C840 C 0.37610 0.73035 0.12620
 C841 C 0.39155 0.73023 0.11072
 C842 C 0.39871 0.74907 0.10195
 C843 C 0.39007 0.76804 0.10901
 C844 C 0.37464 0.76816 0.12450
 C845 C 0.41509 0.74896 0.08547
 C846 C 0.43111 0.76412 0.08544
 C847 C 0.44645 0.76409 0.06986
 C848 C 0.44604 0.74893 0.05404
 C849 C 0.43017 0.73372 0.05404
 C850 C 0.41481 0.73374 0.06960
 H851 H 0.36392 0.77610 0.16634
 H852 H 0.33697 0.77661 0.19312
 H853 H 0.30715 0.72308 0.16427
 H854 H 0.33400 0.72289 0.13737
 H855 H 0.37113 0.71561 0.13288
 H856 H 0.39812 0.71539 0.10585
 H857 H 0.39500 0.78279 0.10232
 H858 H 0.36807 0.78301 0.12938
 H859 H 0.43193 0.77586 0.09761
 H860 H 0.45865 0.77590 0.07011
 H861 H 0.42967 0.72188 0.04194
 H862 H 0.40255 0.72202 0.06905
 C863 C 0.64963 0.25027 0.15029
 C864 C 0.66986 0.25818 0.14632
 C865 C 0.68518 0.25819 0.16192
 C866 C 0.68074 0.25001 0.18175
 C867 C 0.66063 0.24198 0.18573
 C868 C 0.64521 0.24225 0.17024
 C869 C 0.63326 0.25037 0.13371
 C870 C 0.61858 0.23399 0.13222
 C871 C 0.60312 0.23415 0.11676
 C872 C 0.60209 0.25055 0.10218
 C873 C 0.61686 0.26685 0.10358
 C874 C 0.63214 0.26684 0.11922
 C875 C 0.58571 0.25063 0.08561
 C876 C 0.57666 0.26955 0.07884
 C877 C 0.56137 0.26961 0.06323
 C878 C 0.55456 0.25075 0.05433
 C879 C 0.56340 0.23184 0.06103
 C880 C 0.57893 0.23177 0.07641
 H881 H 0.67400 0.26409 0.13105
 H882 H 0.70063 0.26424 0.15831
 H883 H 0.65667 0.23582 0.20096
 H884 H 0.62972 0.23643 0.17403
 H885 H 0.61911 0.22089 0.14289
 H886 H 0.59185 0.22148 0.11640
 H887 H 0.61678 0.27959 0.09247
 H888 H 0.64296 0.27988 0.12003
 H889 H 0.58118 0.28433 0.08579
 H890 H 0.55464 0.28433 0.05820
 H891 H 0.55838 0.21717 0.05417
 H892 H 0.58580 0.21696 0.08088
 C893 C -0.14948 0.65067 0.74994
 C894 C -0.14760 0.66819 0.73693
 C895 C -0.16305 0.68370 0.73686
 C896 C -0.18073 0.68224 0.75003
 C897 C -0.18238 0.66464 0.76320
 C898 C -0.16703 0.64902 0.76303
 C899 C -0.13316 0.63416 0.74984
 C900 C -0.13883 0.61293 0.74900
 C901 C -0.12341 0.59737 0.74874
 C902 C -0.10205 0.60275 0.74960
 C903 C -0.09639 0.62398 0.75057
 C904 C -0.11179 0.63954 0.75056
 C905 C -0.08570 0.58628 0.74954
 C906 C -0.06890 0.58720 0.76371
 C907 C -0.05351 0.57163 0.76374
 C908 C -0.05450 0.55502 0.74943
 C909 C -0.07121 0.55412 0.73519
 C910 C -0.08676 0.56955 0.73533
 H911 H -0.13426 0.66976 0.72657
 H912 H -0.16084 0.69687 0.72652
 H913 H -0.19560 0.66260 0.77357
 H914 H -0.16876 0.63571 0.77334
 H915 H -0.15519 0.60839 0.74829
 H916 H -0.12818 0.58111 0.74813
 H917 H -0.08002 0.62854 0.75109
 H918 H -0.10702 0.65579 0.75136
 H919 H -0.06785 0.59981 0.77497
 H920 H -0.04081 0.57251 0.77494
 H921 H -0.07218 0.54145 0.72399
 H922 H -0.09945 0.56859 0.72413
 C923 C -0.14987 0.35011 0.24927
 C924 C -0.16613 0.35014 0.23448
 C925 C -0.18141 0.33445 0.23458
 C926 C -0.18080 0.31829 0.24946
 C927 C -0.16446 0.31829 0.26423
 C928 C -0.14921 0.33400 0.26414
 C929 C -0.13365 0.36678 0.24917
 C930 C -0.12649 0.37558 0.26797
 C931 C -0.11117 0.39123 0.26788
 C932 C -0.10263 0.39842 0.24898
 C933 C -0.10982 0.38964 0.23018
 C934 C -0.12516 0.37401 0.23027
 C935 C -0.08622 0.41492 0.24889
 C936 C -0.08646 0.43083 0.23374
 C937 C -0.07091 0.44625 0.23355
 C938 C -0.05484 0.44604 0.24850
 C939 C -0.05459 0.43029 0.26371
 C940 C -0.07011 0.41485 0.26390
 H941 H -0.16721 0.36250 0.22299
 H942 H -0.19372 0.33517 0.22301
 H943 H -0.16329 0.30612 0.27587
 H944 H -0.13671 0.33339 0.27557
 H945 H -0.13297 0.37057 0.28276
 H946 H -0.10621 0.39792 0.28260
 H947 H -0.10331 0.39460 0.21539
 H948 H -0.13013 0.36731 0.21555
 H949 H -0.09881 0.43148 0.22215
 H950 H -0.07135 0.45835 0.22175
 H951 H -0.04230 0.42994 0.27539
 H952 H -0.06934 0.40268 0.27560
 C953 C 0.14946 0.35025 0.75210
 C954 C 0.15465 0.33998 0.73341
 C955 C 0.16984 0.32421 0.73320
 C956 C 0.18032 0.31853 0.75163
 C957 C 0.17518 0.32888 0.77030
 C958 C 0.15983 0.34450 0.77055
 C959 C 0.13327 0.36689 0.75231
 C960 C 0.11784 0.36733 0.76794
 C961 C 0.10242 0.38288 0.76800
 C962 C 0.10221 0.39847 0.75252
 C963 C 0.11782 0.39809 0.73700
 C964 C 0.13310 0.38242 0.73684
 C965 C 0.08573 0.41497 0.75248
 C966 C 0.07733 0.42234 0.73355
 C967 C 0.06189 0.43786 0.73349
 C968 C 0.05444 0.44615 0.75232
 C969 C 0.06259 0.43881 0.77124
 C970 C 0.07820 0.42344 0.77133
 H971 H 0.14676 0.34399 0.71900
 H972 H 0.17352 0.31667 0.71852
 H973 H 0.18285 0.32478 0.78479
 H974 H 0.15623 0.35227 0.78514
 H975 H 0.11747 0.35539 0.77991
 H976 H 0.09044 0.38246 0.77996
 H977 H 0.11839 0.41006 0.72508
 H978 H 0.14500 0.38260 0.72478
 H979 H 0.08246 0.41592 0.71878
 H980 H 0.05559 0.44329 0.71877
 H981 H 0.05694 0.44511 0.78590
 H982 H 0.08452 0.41837 0.78616
 C983 C 0.15031 0.64963 0.24946
 C984 C 0.16562 0.65032 0.23371
 C985 C 0.18109 0.66584 0.23381
 C986 C 0.18166 0.68103 0.24971
 C987 C 0.16634 0.68024 0.26550
 C988 C 0.15086 0.66475 0.26536
 C989 C 0.13380 0.63324 0.24929
 C990 C 0.11294 0.63827 0.25436
 C991 C 0.09739 0.62285 0.25424
 C992 C 0.10235 0.60204 0.24908
 C993 C 0.12322 0.59702 0.24401
 C994 C 0.13877 0.61245 0.24410
 C995 C 0.08580 0.58566 0.24898
 C996 C 0.08543 0.57023 0.23331
 C997 C 0.06979 0.55489 0.23317
 C998 C 0.05425 0.55474 0.24864
 C999 C 0.05458 0.57003 0.26434
 C1000 C 0.07021 0.58537 0.26451
 H1001 H 0.16545 0.63903 0.22110
 H1002 H 0.19248 0.66587 0.22133
 H1003 H 0.16620 0.69152 0.27807
 H1004 H 0.13945 0.66446 0.27787
 H1005 H 0.10858 0.65421 0.25810
 H1006 H 0.08140 0.62729 0.25787
 H1007 H 0.12760 0.58107 0.24029
 H1008 H 0.15476 0.60804 0.24043
 H1009 H 0.09704 0.57020 0.22098
 H1010 H 0.06970 0.54320 0.22092
 H1011 H 0.04275 0.57001 0.27648
 H1012 H 0.07025 0.59683 0.27696
 C1013 C 0.75066 -0.14899 0.65001
 C1014 C 0.76432 -0.16618 0.64859
 C1015 C 0.76430 -0.18170 0.66393
 C1016 C 0.75060 -0.18040 0.68108
 C1017 C 0.73695 -0.16316 0.68250
 C1018 C 0.73698 -0.14765 0.66715
 C1019 C 0.75063 -0.13256 0.63365
 C1020 C 0.73166 -0.12391 0.62654
 C1021 C 0.73163 -0.10854 0.61105
 C1022 C 0.75058 -0.10145 0.60233
 C1023 C 0.76956 -0.11006 0.60948
 C1024 C 0.76958 -0.12544 0.62495
 C1025 C 0.75055 -0.08519 0.58580
 C1026 C 0.76571 -0.06918 0.58581
 C1027 C 0.76574 -0.05394 0.57020
 C1028 C 0.75062 -0.05442 0.55430
 C1029 C 0.73541 -0.07030 0.55426
 C1030 C 0.73538 -0.08556 0.56985
 H1031 H 0.77483 -0.16783 0.63541
 H1032 H 0.77488 -0.19480 0.66213
 H1033 H 0.72634 -0.16145 0.69555
 H1034 H 0.72648 -0.13444 0.66885
 H1035 H 0.71679 -0.12921 0.63278
 H1036 H 0.71676 -0.10206 0.60604
 H1037 H 0.78440 -0.10509 0.60292
 H1038 H 0.78447 -0.13164 0.63025
 H1039 H 0.77741 -0.06830 0.59803
 H1040 H 0.77754 -0.04174 0.57048
 H1041 H 0.72360 -0.07086 0.54212
 H1042 H 0.72366 -0.09782 0.56927
 C1043 C 0.25086 -0.14961 0.35068
 C1044 C 0.26695 -0.15035 0.33572
 C1045 C 0.26694 -0.16573 0.32020
 C1046 C 0.25081 -0.18074 0.31923
 C1047 C 0.23470 -0.17993 0.33423
 C1048 C 0.23475 -0.16458 0.34976
 C1049 C 0.25087 -0.13328 0.36716
 C1050 C 0.24541 -0.13832 0.38779
 C1051 C 0.24535 -0.12293 0.40329
 C1052 C 0.25073 -0.10215 0.39851
 C1053 C 0.25621 -0.09712 0.37788
 C1054 C 0.25630 -0.11252 0.36238
 C1055 C 0.25057 -0.08576 0.41496
 C1056 C 0.26633 -0.07035 0.41559
 C1057 C 0.26608 -0.05484 0.43096
 C1058 C 0.25008 -0.05447 0.44598
 C1059 C 0.23439 -0.06985 0.44551
 C1060 C 0.23461 -0.08536 0.43013
 H1061 H 0.27974 -0.13919 0.33619
 H1062 H 0.27970 -0.16581 0.30909
 H1063 H 0.22191 -0.19105 0.33402
 H1064 H 0.22198 -0.16423 0.36090
 H1065 H 0.24146 -0.15425 0.39200
 H1066 H 0.24139 -0.12738 0.41910
 H1067 H 0.26009 -0.08119 0.37362
 H1068 H 0.26027 -0.10810 0.34657
 H1069 H 0.27899 -0.07042 0.40433
 H1070 H 0.27837 -0.04313 0.43122
 H1071 H 0.22191 -0.06972 0.45698
 H1072 H 0.22211 -0.09683 0.42991
 C1073 C 0.74958 0.14923 0.35072
 C1074 C 0.73595 0.14785 0.33355
 C1075 C 0.73582 0.16344 0.31828
 C1076 C 0.74931 0.18080 0.31981
 C1077 C 0.76294 0.18215 0.33702
 C1078 C 0.76308 0.16654 0.35227
 C1079 C 0.74969 0.13268 0.36696
 C1080 C 0.76870 0.12562 0.37556
 C1081 C 0.76879 0.11010 0.39089
 C1082 C 0.74988 0.10131 0.39800
 C1083 C 0.73087 0.10835 0.38938
 C1084 C 0.73078 0.12385 0.37402
 C1085 C 0.74997 0.08493 0.41441
 C1086 C 0.73489 0.08517 0.43043
 C1087 C 0.73504 0.06982 0.44594
 C1088 C 0.75029 0.05400 0.44573
 C1089 C 0.76531 0.05363 0.42974
 C1090 C 0.76517 0.06896 0.41422
 H1091 H 0.72558 0.13454 0.33175
 H1092 H 0.72525 0.16167 0.30520
 H1093 H 0.77342 0.19533 0.33891
 H1094 H 0.77355 0.16820 0.36548
 H1095 H 0.78354 0.13196 0.37028
 H1096 H 0.78368 0.10515 0.39738
 H1097 H 0.71606 0.10174 0.39437
 H1098 H 0.71587 0.12911 0.36785
 H1099 H 0.72314 0.09739 0.43115
 H1100 H 0.72331 0.07030 0.45816
 H1101 H 0.77715 0.04147 0.42933
 H1102 H 0.77681 0.06820 0.40194
 C1103 C 0.25049 0.15060 0.64862
 C1104 C 0.23450 0.16570 0.64938
 C1105 C 0.23461 0.18125 0.66473
 C1106 C 0.25076 0.18211 0.67969
 C1107 C 0.26678 0.16697 0.67884
 C1108 C 0.26662 0.15141 0.66351
 C1109 C 0.25032 0.13404 0.63235
 C1110 C 0.25565 0.11332 0.63738
 C1111 C 0.25549 0.09773 0.62208
 C1112 C 0.25005 0.10253 0.60138
 C1113 C 0.24473 0.12327 0.59636
 C1114 C 0.24485 0.13885 0.61167
 C1115 C 0.24990 0.08597 0.58511
 C1116 C 0.23400 0.08542 0.56989
 C1117 C 0.23386 0.06981 0.55460
 C1118 C 0.24958 0.05447 0.55429
 C1119 C 0.26551 0.05496 0.56938
 C1120 C 0.26567 0.07056 0.58466
 H1121 H 0.22170 0.16532 0.63827
 H1122 H 0.22193 0.19247 0.66482
 H1123 H 0.27956 0.16707 0.68993
 H1124 H 0.27932 0.14014 0.66315
 H1125 H 0.25962 0.10908 0.65325
 H1126 H 0.25933 0.08184 0.62652
 H1127 H 0.24079 0.12753 0.58049
 H1128 H 0.24098 0.15474 0.60726
 H1129 H 0.22149 0.09688 0.56998
 H1130 H 0.22144 0.06960 0.54307
 H1131 H 0.27783 0.04328 0.56923
 H1132 H 0.27830 0.07074 0.59596
   
