data_POSCAR
  _audit_creation_date              2014-09-24
  _audit_creation_method            'ToBaCCo'
  _symmetry_space_group_name_H-M    'P1'
  _symmetry_Int_Tables_number       1
  _symmetry_cell_setting            triclinic
  loop_
  _symmetry_equiv_pos_as_xyz
 x,y,z
_cell_length_a 28.9082
_cell_length_b 26.7566
_cell_length_c 27.6046
_cell_angle_alpha 84.502900
_cell_angle_beta 94.372700
_cell_angle_gamma 94.907500
loop_
  _atom_site_label
  _atom_site_type_symbol
  _atom_site_fract_x
  _atom_site_fract_y
  _atom_site_fract_z
C1 C 0.30801 0.32460 0.22917
 H2 H 0.31429 0.32476 0.26830
 C3 C 0.33767 0.35399 0.19826
 H4 H 0.36688 0.37609 0.21437
 C5 C 0.26398 0.29228 0.16155
 H6 H 0.23609 0.26720 0.14732
 C7 C 0.29275 0.32106 0.12931
 H8 H 0.28625 0.31824 0.09046
 N9 N 0.27184 0.29478 0.21050
 C10 C 0.17265 0.26760 0.32371
 H11 H 0.16882 0.22687 0.32757
 C12 C 0.14604 0.29496 0.35036
 H13 H 0.12248 0.27481 0.37542
 C14 C 0.20860 0.34308 0.28660
 H15 H 0.23233 0.36182 0.26111
 C16 C 0.18310 0.37186 0.31288
 H17 H 0.18788 0.41257 0.30772
 Zn18 Zn 0.23622 0.25279 0.25547
 N19 N 0.20322 0.29191 0.29264
 C20 C 0.28187 0.21258 0.34505
 N21 N 0.27899 0.21468 0.29548
 C22 C 0.30825 0.19026 0.27143
 C23 C 0.34182 0.16187 0.29717
 C24 C 0.31499 0.18436 0.37237
 C25 C 0.15874 0.22936 0.19110
 C26 C 0.12773 0.19851 0.16351
 C27 C 0.16489 0.12619 0.20238
 C28 C 0.19526 0.15839 0.22897
 N29 N 0.19245 0.20907 0.22206
 H30 H 0.25860 0.23274 0.36344
 H31 H 0.30519 0.19265 0.23198
 H32 H 0.36356 0.14165 0.27693
 H33 H 0.31680 0.18269 0.41182
 H34 H 0.15691 0.26977 0.18675
 H35 H 0.10279 0.21616 0.13767
 H36 H 0.16847 0.08601 0.20757
 H37 H 0.22146 0.14276 0.25461
 C38 C 0.15096 0.34790 0.34474
 C39 C 0.33007 0.35254 0.14744
 C40 C 0.13094 0.14602 0.16863
 C41 C 0.34585 0.15903 0.34843
 C42 C 0.81271 0.83699 0.22122
 H43 H 0.81473 0.84475 0.25910
 C44 C 0.84165 0.86537 0.18875
 H45 H 0.86556 0.89522 0.20209
 C46 C 0.78026 0.78745 0.15863
 H47 H 0.75702 0.75641 0.14709
 C48 C 0.80907 0.81416 0.12518
 H49 H 0.80540 0.80396 0.08809
 N50 N 0.78264 0.79899 0.20570
 C51 C 0.68684 0.76988 0.32274
 H52 H 0.68794 0.72950 0.32973
 C53 C 0.65912 0.79551 0.34969
 H54 H 0.63924 0.77455 0.37773
 C55 C 0.71063 0.84581 0.27687
 H56 H 0.72972 0.86508 0.24753
 C57 C 0.68312 0.87294 0.30274
 H58 H 0.68183 0.91278 0.29239
 Zn59 Zn 0.74794 0.75727 0.25182
 N60 N 0.71251 0.79532 0.28768
 C61 C 0.79562 0.72181 0.34231
 N62 N 0.79164 0.72125 0.29293
 C63 C 0.81961 0.69436 0.26977
 C64 C 0.85225 0.66531 0.29633
 C65 C 0.82796 0.69321 0.37041
 C66 C 0.67367 0.73055 0.18537
 C67 C 0.64467 0.69852 0.15710
 C68 C 0.68012 0.62751 0.20103
 C69 C 0.70852 0.66088 0.22831
 N70 N 0.70589 0.71144 0.21900
 H71 H 0.77372 0.74415 0.36005
 H72 H 0.81577 0.69470 0.23045
 H73 H 0.87249 0.64278 0.27675
 H74 H 0.83039 0.69348 0.40974
 H75 H 0.67169 0.77089 0.17935
 H76 H 0.62033 0.71446 0.12926
 H77 H 0.68302 0.58752 0.20923
 H78 H 0.73300 0.64625 0.25654
 C79 C 0.65722 0.84781 0.34027
 C80 C 0.84118 0.85329 0.14023
 C81 C 0.64871 0.64641 0.16367
 C82 C 0.85691 0.66458 0.34748
 C83 C 0.81120 0.33653 0.72806
 H84 H 0.81637 0.33718 0.76724
 C85 C 0.84042 0.36736 0.69772
 H86 H 0.86811 0.39114 0.71431
 C87 C 0.77081 0.30142 0.65983
 H88 H 0.74474 0.27459 0.64515
 C89 C 0.79918 0.33155 0.62817
 H90 H 0.79409 0.32799 0.58932
 N91 N 0.77717 0.30446 0.70881
 C92 C 0.68143 0.26827 0.82473
 H93 H 0.68030 0.22757 0.82825
 C94 C 0.65520 0.29295 0.85413
 H95 H 0.63353 0.27065 0.87970
 C96 C 0.70950 0.34621 0.78507
 H97 H 0.73009 0.36683 0.75761
 C98 C 0.68372 0.37237 0.81352
 H99 H 0.68507 0.41309 0.80795
 Zn100 Zn 0.74307 0.25955 0.75290
 N101 N 0.70841 0.29512 0.79158
 C102 C 0.79059 0.21919 0.84143
 N103 N 0.78750 0.22278 0.79186
 C104 C 0.81759 0.20063 0.76690
 C105 C 0.85208 0.17275 0.79155
 C106 C 0.82443 0.19129 0.86779
 C107 C 0.66753 0.23389 0.68664
 C108 C 0.63886 0.20221 0.65765
 C109 C 0.67770 0.13136 0.69730
 C110 C 0.70579 0.16439 0.72521
 N111 N 0.70130 0.21479 0.71837
 H112 H 0.76689 0.23785 0.86069
 H113 H 0.81444 0.20438 0.72743
 H114 H 0.87395 0.15523 0.76930
 H115 H 0.82582 0.18873 0.90730
 H116 H 0.66397 0.27403 0.68270
 H117 H 0.61328 0.21824 0.63127
 H118 H 0.68209 0.09150 0.70372
 H119 H 0.73152 0.14961 0.75198
 C120 C 0.65662 0.34586 0.84901
 C121 C 0.83461 0.36497 0.64689
 C122 C 0.64475 0.15043 0.66165
 C123 C 0.85616 0.16745 0.84315
 C124 C 0.31751 0.82983 0.73324
 H125 H 0.32318 0.83249 0.77213
 C126 C 0.34776 0.85708 0.70144
 H127 H 0.37656 0.88099 0.71608
 C128 C 0.27414 0.79386 0.66711
 H129 H 0.24610 0.76841 0.65380
 C130 C 0.30348 0.82043 0.63405
 H131 H 0.29628 0.81611 0.59559
 N132 N 0.28168 0.79878 0.71573
 C133 C 0.18484 0.77285 0.83139
 H134 H 0.18196 0.73212 0.83598
 C135 C 0.15899 0.79993 0.85899
 H136 H 0.13587 0.77943 0.88427
 C137 C 0.21673 0.84844 0.79051
 H138 H 0.23864 0.86715 0.76321
 C139 C 0.19134 0.87699 0.81716
 H140 H 0.19424 0.91765 0.81037
 Zn141 Zn 0.24605 0.75786 0.76149
 N142 N 0.21338 0.79735 0.79838
 C143 C 0.29139 0.71903 0.85161
 N144 N 0.28854 0.72000 0.80209
 C145 C 0.31720 0.69413 0.77875
 C146 C 0.34976 0.66496 0.80523
 C147 C 0.32344 0.69006 0.87964
 C148 C 0.16823 0.73422 0.69783
 C149 C 0.13710 0.70335 0.67039
 C150 C 0.17403 0.63102 0.70963
 C151 C 0.20447 0.66324 0.73610
 N152 N 0.20189 0.71393 0.72886
 H153 H 0.26886 0.74050 0.86949
 H154 H 0.31424 0.69572 0.73933
 H155 H 0.37091 0.64341 0.78562
 H156 H 0.32507 0.68912 0.91904
 H157 H 0.16662 0.77467 0.69319
 H158 H 0.11227 0.72091 0.64436
 H159 H 0.17747 0.59083 0.71497
 H160 H 0.23060 0.64761 0.76183
 C161 C 0.16240 0.85284 0.85225
 C162 C 0.34159 0.85171 0.65126
 C163 C 0.14021 0.65086 0.67574
 C164 C 0.35337 0.66289 0.85646
 C165 C 0.03387 -0.03618 -0.04565
 C166 C 0.06241 -0.00696 -0.00675
 C167 C 0.03712 0.02085 0.01868
 C168 C -0.01527 0.01655 0.00317
 C169 C -0.00181 -0.06727 -0.02009
 C170 C -0.02947 -0.04023 0.00742
 C171 C 0.00979 0.00151 -0.07695
 C172 C -0.01765 0.03143 -0.05202
 H173 H 0.09987 -0.00738 -0.00082
 H174 H -0.03709 0.03823 0.02355
 H175 H -0.00510 -0.10785 -0.02015
 H176 H 0.01070 0.00406 -0.11617
 C177 C 0.04420 0.46231 0.46797
 C178 C 0.07309 0.49630 0.50244
 C179 C 0.04757 0.52505 0.52657
 C180 C -0.00525 0.51684 0.51397
 C181 C 0.00936 0.43141 0.50020
 C182 C -0.01660 0.45961 0.52439
 C183 C 0.01504 0.49805 0.43416
 C184 C -0.01087 0.52680 0.45814
 H185 H 0.11069 0.49727 0.50751
 H186 H -0.02695 0.54016 0.53250
 H187 H 0.00577 0.39060 0.50370
 H188 H 0.01394 0.49856 0.39486
 C189 C 0.53756 -0.04107 0.45613
 C190 C 0.56772 -0.01171 0.49353
 C191 C 0.54321 0.01547 0.52056
 C192 C 0.49052 0.01085 0.50724
 C193 C 0.50147 -0.07315 0.48607
 C194 C 0.47652 -0.04599 0.51274
 C195 C 0.50976 -0.00172 0.42539
 C196 C 0.48515 0.02577 0.45207
 H197 H 0.60524 -0.01169 0.49672
 H198 H 0.47043 0.03309 0.52906
 H199 H 0.49760 -0.11378 0.48698
 H200 H 0.50783 0.00139 0.38594
 C201 C 0.53550 0.45314 -0.03709
 C202 C 0.56697 0.48206 -0.00031
 C203 C 0.54354 0.50944 0.02763
 C204 C 0.49068 0.50578 0.01550
 C205 C 0.49939 0.42161 -0.00690
 C206 C 0.47605 0.44881 0.02107
 C207 C 0.50808 0.49331 -0.06693
 C208 C 0.48470 0.52116 -0.03954
 H209 H 0.60447 0.48188 0.00166
 H210 H 0.47179 0.52917 0.03719
 H211 H 0.49333 0.38111 -0.00723
 H212 H 0.50564 0.49717 -0.10640
 C213 C 0.13473 -0.11620 -0.12095
 C214 C 0.11819 -0.13179 -0.07746
 C215 C 0.09002 -0.10109 -0.05116
 C216 C 0.06334 -0.06600 -0.07356
 H217 H 0.12723 -0.16739 -0.05877
 H218 H 0.08955 -0.10946 -0.01201
 H219 H 0.12951 -0.07841 -0.13702
 H220 H 0.06129 -0.05981 -0.11299
 C221 C 0.12419 0.37920 0.37213
 C222 C 0.08165 0.36428 0.38688
 C223 C 0.05423 0.39596 0.41298
 C224 C 0.07340 0.43114 0.44147
 H225 H 0.06461 0.32870 0.37707
 H226 H 0.01676 0.38829 0.41033
 H227 H 0.13906 0.41695 0.37754
 H228 H 0.11088 0.43766 0.44615
 C229 C 0.62703 -0.12622 0.36950
 C230 C 0.62857 -0.07598 0.37058
 C231 C 0.59956 -0.04949 0.40033
 C232 C 0.56478 -0.07133 0.42646
 H233 H 0.65339 -0.05188 0.35003
 H234 H 0.60752 -0.00918 0.40044
 H235 H 0.60378 -0.15023 0.39209
 H236 H 0.55479 -0.11113 0.42623
 C237 C 0.62923 0.37462 -0.12170
 C238 C 0.61417 0.35694 -0.07803
 C239 C 0.58767 0.38645 -0.04871
 C240 C 0.56141 0.42321 -0.06815
 H241 H 0.62375 0.32075 -0.06126
 H242 H 0.58877 0.37638 -0.00971
 H243 H 0.62345 0.41288 -0.13586
 H244 H 0.55786 0.43176 -0.10731
 C245 C -0.11175 0.14010 -0.13030
 C246 C -0.07651 0.11699 -0.15018
 C247 C -0.04617 0.08430 -0.12439
 C248 C -0.04573 0.06852 -0.07441
 H249 H -0.07109 0.12362 -0.18854
 H250 H -0.02169 0.07022 -0.14636
 H251 H -0.11345 0.13614 -0.09112
 H252 H -0.06759 0.08497 -0.05125
 C253 C -0.11028 0.63273 0.37777
 C254 C -0.07209 0.61745 0.36056
 C255 C -0.03987 0.58280 0.38760
 C256 C -0.04313 0.56307 0.43390
 H257 H -0.06333 0.63035 0.32382
 H258 H -0.01183 0.57334 0.36723
 H259 H -0.11822 0.62220 0.41516
 H260 H -0.06936 0.57400 0.45574
 C261 C 0.38029 0.12832 0.37750
 C262 C 0.42058 0.11895 0.36021
 C263 C 0.45435 0.08475 0.38500
 C264 C 0.45256 0.06309 0.43079
 H265 H 0.42943 0.13589 0.32460
 H266 H 0.48217 0.07725 0.36333
 H267 H 0.37165 0.11334 0.41374
 H268 H 0.42690 0.07264 0.45409
 C269 C 0.38624 0.63096 -0.11368
 C270 C 0.42630 0.61990 -0.13018
 C271 C 0.45830 0.58409 -0.10493
 C272 C 0.45378 0.56027 -0.06029
 H273 H 0.43630 0.63667 -0.16546
 H274 H 0.48701 0.57680 -0.12549
 H275 H 0.37664 0.61655 -0.07761
 H276 H 0.42727 0.56924 -0.03773
 C277 C -0.12699 -0.12006 0.10905
 C278 C -0.11611 -0.13672 0.06488
 C279 C -0.08360 -0.11190 0.03405
 C280 C -0.06496 -0.06203 0.03637
 H281 H -0.13022 -0.17331 0.05489
 H282 H -0.07439 -0.13301 0.00519
 H283 H -0.10713 -0.08727 0.12212
 H284 H -0.07956 -0.03807 0.05967
 C285 C -0.13340 0.39331 0.61265
 C286 C -0.10490 0.43357 0.62355
 C287 C -0.07102 0.45915 0.58996
 C288 C -0.05206 0.43533 0.55672
 H289 H -0.10700 0.44997 0.65753
 H290 H -0.05916 0.49765 0.59579
 H291 H -0.13398 0.38049 0.57656
 H292 H -0.06100 0.39547 0.55440
 C293 C 0.37574 -0.12154 0.61838
 C294 C 0.38392 -0.13787 0.57556
 C295 C 0.41998 -0.11465 0.54338
 C296 C 0.44026 -0.06780 0.54544
 H297 H 0.36565 -0.17225 0.56426
 H298 H 0.42861 -0.13746 0.51559
 H299 H 0.39690 -0.08980 0.63180
 H300 H 0.42917 -0.04343 0.57064
 C301 C 0.36172 0.38035 0.11252
 C302 C 0.39109 0.42000 0.12328
 C303 C 0.42434 0.44600 0.08925
 C304 C 0.44073 0.42385 0.05322
 H305 H 0.39022 0.43575 0.15780
 H306 H 0.43797 0.48345 0.09704
 H307 H 0.35977 0.36800 0.07617
 H308 H 0.42993 0.38480 0.04840
 C309 C 0.10234 0.11093 0.13772
 C310 C 0.06498 0.12324 0.10848
 C311 C 0.03995 0.08900 0.07445
 C312 C 0.06028 0.05256 0.05585
 H313 H 0.05107 0.15931 0.10946
 H314 H 0.00497 0.09736 0.06163
 H315 H 0.11305 0.07298 0.13928
 H316 H 0.09661 0.04739 0.06580
 C317 C 0.11177 0.61584 0.64471
 C318 C 0.07391 0.62783 0.61614
 C319 C 0.04907 0.59320 0.58238
 C320 C 0.07066 0.55909 0.56175
 H321 H 0.05935 0.66342 0.61791
 H322 H 0.01299 0.59893 0.57212
 H323 H 0.12295 0.57813 0.64561
 H324 H 0.10776 0.55691 0.56946
 C325 C 0.61689 0.11791 0.62768
 C326 C 0.63119 0.07437 0.61613
 C327 C 0.60750 0.04273 0.57918
 C328 C 0.56436 0.04758 0.55854
 H329 H 0.66410 0.06197 0.63194
 H330 H 0.62729 0.01306 0.56962
 H331 H 0.58587 0.13247 0.60914
 H332 H 0.54294 0.07469 0.57031
 C333 C 0.62050 0.61335 0.13054
 C334 C 0.63362 0.56856 0.12097
 C335 C 0.60937 0.53666 0.08454
 C336 C 0.56584 0.54149 0.06506
 H337 H 0.66592 0.55547 0.13778
 H338 H 0.62878 0.50685 0.07458
 H339 H 0.59037 0.62852 0.11065
 H340 H 0.54486 0.56858 0.07758
   
