data_POSCAR
  _audit_creation_date              2014-09-24
  _audit_creation_method            'ToBaCCo'
  _symmetry_space_group_name_H-M    'P1'
  _symmetry_Int_Tables_number       1
  _symmetry_cell_setting            triclinic
  loop_
  _symmetry_equiv_pos_as_xyz
 x,y,z
_cell_length_a 44.8733
_cell_length_b 11.1622
_cell_length_c 22.2388
_cell_angle_alpha 100.507400
_cell_angle_beta 91.259700
_cell_angle_gamma 94.314700
loop_
  _atom_site_label
  _atom_site_type_symbol
  _atom_site_fract_x
  _atom_site_fract_y
  _atom_site_fract_z
C1 C 0.65840 0.25326 0.50806
 C2 C 0.65941 0.24376 0.44597
 C3 C 0.68938 0.24995 0.43141
 N4 N 0.70657 0.26992 0.48362
 C5 C 0.68767 0.27127 0.53056
 C6 C 0.70021 0.24300 0.37125
 C7 C 0.73094 0.23438 0.35622
 C8 C 0.74231 0.24454 0.29958
 C9 C 0.77261 0.24720 0.30509
 C10 C 0.77957 0.22448 0.36278
 N11 N 0.75382 0.21760 0.39386
 C12 C 0.80891 0.20788 0.38476
 C13 C 0.81404 0.18681 0.44496
 C14 C 0.83740 0.12460 0.46231
 C15 C 0.83508 0.12582 0.52357
 C16 C 0.81041 0.18880 0.54207
 N17 N 0.79741 0.22546 0.49375
 C18 C 0.80142 0.21807 0.60346
 C19 C 0.77389 0.26844 0.61790
 C20 C 0.76762 0.33998 0.67346
 C21 C 0.73809 0.36419 0.66950
 C22 C 0.72727 0.30671 0.61177
 N23 N 0.74935 0.25097 0.58015
 C24 C 0.69677 0.28960 0.59326
 H25 H 0.63810 0.24693 0.53279
 H26 H 0.63983 0.23369 0.41599
 H27 H 0.74678 0.18994 0.53865
 H28 H 0.73062 0.25100 0.25750
 H29 H 0.78721 0.26340 0.26907
 H30 H 0.85416 0.08120 0.43355
 H31 H 0.85002 0.08519 0.55142
 H32 H 0.72579 0.41622 0.70529
 H33 H 0.75152 0.19697 0.43709
 H34 H 0.78280 0.37277 0.71252
 C35 C 0.17373 0.92884 0.44998
 C36 C 0.17538 0.94316 0.51270
 C37 C 0.19515 0.86163 0.52682
 N38 N 0.20621 0.80136 0.47578
 C39 C 0.19310 0.84159 0.42893
 C40 C 0.19652 0.81841 0.58219
 C41 C 0.22496 0.80613 0.60664
 C42 C 0.23724 0.87803 0.65990
 C43 C 0.26725 0.85987 0.66090
 C44 C 0.27228 0.77584 0.60845
 N45 N 0.24648 0.74649 0.57463
 C46 C 0.29953 0.72101 0.59503
 C47 C 0.30825 0.69606 0.53290
 C48 C 0.33386 0.64383 0.51089
 C49 C 0.33387 0.64396 0.44935
 C50 C 0.30825 0.69472 0.43455
 N51 N 0.29229 0.72410 0.48540
 C52 C 0.29832 0.70257 0.37444
 C53 C 0.26764 0.68118 0.35900
 C54 C 0.25471 0.60726 0.30641
 C55 C 0.22528 0.63442 0.30269
 C56 C 0.22150 0.72398 0.35306
 N57 N 0.24733 0.75120 0.38693
 C58 C 0.19541 0.78264 0.36826
 H59 H 0.15872 0.97059 0.42280
 H60 H 0.16147 0.99692 0.54435
 H61 H 0.25223 0.82456 0.42310
 H62 H 0.22624 0.94370 0.69214
 H63 H 0.28368 0.90519 0.69573
 H64 H 0.34888 0.59252 0.53303
 H65 H 0.34925 0.59731 0.41832
 H66 H 0.20889 0.59487 0.26682
 H67 H 0.24305 0.68233 0.53402
 H68 H 0.26592 0.54648 0.27234
 C69 C 0.30457 0.39451 -0.47496
 C70 C 0.31561 0.35845 -0.52941
 C71 C 0.29715 0.26465 -0.56681
 N72 N 0.29923 0.34001 -0.50987
 C73 C 0.27817 0.32867 -0.46628
 C74 C 0.29205 0.28935 -0.62602
 C75 C 0.26090 0.29846 -0.64200
 C76 C 0.24941 0.31600 -0.69764
 C77 C 0.21945 0.32680 -0.69188
 C78 C 0.21140 0.30007 -0.63549
 N79 N 0.23712 0.28757 -0.60411
 C80 C 0.18051 0.26780 -0.62201
 C81 C 0.16900 0.25800 -0.56312
 C82 C 0.14056 0.20608 -0.55367
 C83 C 0.13826 0.20690 -0.49204
 C84 C 0.16527 0.25825 -0.46509
 N85 N 0.18404 0.29014 -0.50844
 C86 C 0.17421 0.26631 -0.40268
 C87 C 0.20436 0.29785 -0.38726
 C88 C 0.21550 0.37144 -0.33341
 C89 C 0.24591 0.36414 -0.33300
 C90 C 0.25179 0.28166 -0.38514
 N91 N 0.22632 0.24218 -0.41803
 C92 C 0.27903 0.27992 -0.41247
 H93 H 0.31718 0.46133 -0.43380
 H94 H 0.33770 0.40526 -0.54589
 H95 H 0.22421 0.17726 -0.45869
 H96 H 0.25953 0.31405 -0.74073
 H97 H 0.20476 0.34383 -0.72815
 H98 H 0.12348 0.16496 -0.58780
 H99 H 0.11957 0.16723 -0.47048
 H100 H 0.26180 0.42367 -0.30185
 H101 H 0.23797 0.26436 -0.56083
 H102 H 0.20287 0.42733 -0.29969
 C103 C -0.34220 0.86058 -0.53933
 C104 C -0.35960 0.81438 -0.50009
 C105 C -0.34977 0.70951 -0.48472
 N106 N -0.34366 0.78648 -0.52686
 C107 C -0.31748 0.79556 -0.55789
 C108 C -0.33293 0.70867 -0.43014
 C109 C -0.30499 0.77492 -0.41657
 C110 C -0.30058 0.87049 -0.36679
 C111 C -0.27115 0.87574 -0.34679
 C112 C -0.25882 0.78090 -0.38399
 N113 N -0.27903 0.72231 -0.42752
 C114 C -0.22836 0.76486 -0.38423
 C115 C -0.21173 0.79191 -0.43274
 C116 C -0.18127 0.82125 -0.43012
 C117 C -0.17417 0.83785 -0.48754
 C118 C -0.20046 0.81416 -0.52351
 N119 N -0.22343 0.78837 -0.48906
 C120 C -0.20320 0.81210 -0.58720
 C121 C -0.23194 0.81314 -0.61679
 C122 C -0.23780 0.79315 -0.67959
 C123 C -0.26756 0.80457 -0.68877
 C124 C -0.28053 0.81271 -0.63222
 N125 N -0.25832 0.82817 -0.58857
 C126 C -0.31161 0.79409 -0.62028
 H127 H -0.34586 0.95301 -0.55503
 H128 H -0.37857 0.86361 -0.47468
 H129 H -0.26187 0.84901 -0.54194
 H130 H -0.31784 0.92234 -0.34401
 H131 H -0.26009 0.94127 -0.30951
 H132 H -0.16602 0.83295 -0.39070
 H133 H -0.15207 0.86536 -0.50067
 H134 H -0.27771 0.80250 -0.73335
 H135 H -0.27603 0.64210 -0.45870
 H136 H -0.22282 0.76929 -0.71647
 O137 O -0.03007 0.92171 0.11679
 O138 O 0.00782 0.86882 -0.17297
 O139 O -0.05816 0.87308 -0.09121
 O140 O 0.05657 0.84704 0.00961
 O141 O -0.04810 0.84670 -0.17704
 O142 O 0.01692 0.83855 0.06806
 O143 O 0.04083 0.82745 -0.10274
 O144 O -0.07479 0.87542 0.06519
 C145 C -0.05842 0.88985 0.11576
 C146 C 0.03226 0.82752 -0.15801
 C147 C -0.06671 0.81750 -0.14298
 C148 C 0.04547 0.82986 0.05995
 O149 O 0.00842 1.06764 0.07252
 O150 O -0.05076 1.07748 -0.10514
 O151 O -0.04581 1.03636 0.02541
 O152 O 0.04255 1.02086 -0.05644
 O153 O 0.01170 1.09183 -0.12332
 O154 O -0.04428 1.03597 0.02816
 O155 O 0.03860 1.03329 -0.00326
 O156 O -0.08650 0.98483 -0.04967
 Co157 Co -0.01499 0.92350 0.04247
 Co158 Co -0.02025 0.96727 -0.13594
 Co159 Co -0.06167 0.88196 -0.01515
 Co160 Co 0.02383 0.87320 -0.02830
 O161 O -0.01648 0.90356 -0.04994
 C162 C 0.03365 1.09000 0.05105
 C163 C -0.07746 1.07013 -0.08115
 C164 C -0.05798 1.12931 0.05290
 C165 C 0.03798 1.08313 -0.10181
 O166 O 0.47415 0.30692 0.07919
 O167 O 0.51358 0.29254 -0.11778
 O168 O 0.44822 0.30671 -0.11096
 O169 O 0.54115 0.36820 0.03654
 O170 O 0.45197 0.30997 -0.11625
 O171 O 0.52344 0.46190 0.12968
 O172 O 0.55762 0.38728 -0.08057
 O173 O 0.43556 0.26161 0.00943
 C174 C 0.44424 0.27579 0.06545
 C175 C 0.54284 0.30753 -0.12085
 C176 C 0.44772 0.23421 -0.16453
 C177 C 0.54479 0.41009 0.10000
 O178 O 0.51582 0.61450 0.06693
 O179 O 0.46468 0.55029 -0.12008
 O180 O 0.42985 0.48686 0.04129
 O181 O 0.52096 0.53999 -0.09635
 O182 O 0.51956 0.54066 -0.09855
 O183 O 0.46899 0.52834 0.10968
 O184 O 0.55061 0.56356 0.00497
 O185 O 0.42900 0.52595 -0.06124
 Co186 Co 0.49942 0.45603 0.06587
 Co187 Co 0.48693 0.42218 -0.10942
 Co188 Co 0.43886 0.39485 -0.03065
 Co189 Co 0.52745 0.43772 -0.03838
 O190 O 0.48454 0.43887 -0.01916
 C191 C 0.54218 0.63443 0.05048
 C192 C 0.43957 0.57598 -0.10184
 C193 C 0.44207 0.54015 0.09231
 C194 C 0.52559 0.61147 -0.13513
 C195 C 0.34563 0.31141 0.24069
 C196 C 0.37095 0.27935 0.26674
 C197 C 0.37188 0.25015 0.32412
 C198 C 0.34528 0.24642 0.35523
 C199 C 0.31790 0.28708 0.33390
 C200 C 0.31933 0.32500 0.27501
 O201 O 0.34964 0.32550 0.18263
 C202 C 0.37801 0.29885 0.17261
 C203 C 0.39211 0.27580 0.22404
 C204 C 0.42181 0.24994 0.22629
 C205 C 0.43791 0.24529 0.17283
 C206 C 0.42412 0.26152 0.11707
 C207 C 0.39369 0.29228 0.11754
 H208 H 0.39234 0.22506 0.34330
 H209 H 0.34689 0.21146 0.39727
 H210 H 0.30245 0.37206 0.25669
 H211 H 0.43247 0.23775 0.26864
 H212 H 0.46149 0.23124 0.17548
 H213 H 0.38287 0.31139 0.07683
 C214 C -0.14839 0.85736 0.29492
 C215 C -0.12415 0.80447 0.31418
 C216 C -0.12580 0.73914 0.36174
 C217 C -0.15304 0.73489 0.39170
 C218 C -0.17680 0.80590 0.37834
 C219 C -0.17358 0.86914 0.32921
 O220 O -0.14506 0.89203 0.24179
 C221 C -0.11755 0.86577 0.22847
 C222 C -0.10298 0.81854 0.27261
 C223 C -0.07270 0.79853 0.26990
 C224 C -0.05721 0.82869 0.21945
 C225 C -0.07297 0.86805 0.17149
 C226 C -0.10379 0.88045 0.17531
 H227 H -0.10770 0.68671 0.37262
 H228 H -0.15571 0.67465 0.42469
 H229 H -0.19008 0.92765 0.31779
 H230 H -0.06128 0.76585 0.30632
 H231 H -0.03344 0.81794 0.21679
 H232 H -0.11688 0.90229 0.13804
 C233 C 0.62049 0.78214 0.26664
 C234 C 0.63591 0.74897 0.21451
 C235 C 0.66237 0.69311 0.21513
 C236 C 0.67471 0.68413 0.27212
 C237 C 0.66528 0.75656 0.32652
 C238 C 0.63536 0.79385 0.32454
 O239 O 0.59163 0.79392 0.25431
 C240 C 0.58948 0.77141 0.19301
 C241 C 0.61664 0.75165 0.16735
 C242 C 0.62054 0.72840 0.10486
 C243 C 0.59503 0.71573 0.06647
 C244 C 0.56593 0.71263 0.09055
 C245 C 0.56308 0.74887 0.15517
 H246 H 0.67191 0.64970 0.17327
 H247 H 0.69329 0.62764 0.27318
 H248 H 0.62396 0.83130 0.36494
 H249 H 0.64255 0.71934 0.08633
 H250 H 0.59805 0.69730 0.01760
 H251 H 0.54138 0.74736 0.17563
 C252 C 0.11661 1.24941 0.26265
 C253 C 0.12976 1.18285 0.21386
 C254 C 0.15571 1.12518 0.21886
 C255 C 0.17024 1.14470 0.27601
 C256 C 0.16060 1.23049 0.32578
 C257 C 0.13223 1.27903 0.31980
 O258 O 0.08911 1.27709 0.24824
 C259 C 0.08553 1.22902 0.18858
 C260 C 0.11061 1.17594 0.16594
 C261 C 0.11314 1.12164 0.10583
 C262 C 0.08822 1.11491 0.06724
 C263 C 0.06018 1.15211 0.08926
 C264 C 0.05903 1.21494 0.15109
 H265 H 0.16423 1.06487 0.18044
 H266 H 0.19023 1.09780 0.28072
 H267 H 0.12328 1.34051 0.35720
 H268 H 0.13328 1.08050 0.08953
 H269 H 0.09031 1.06522 0.02172
 H270 H 0.03813 1.24323 0.17019
 C271 C 0.62687 0.28978 -0.31117
 C272 C 0.63239 0.19866 -0.27921
 C273 C 0.65933 0.14493 -0.28222
 C274 C 0.68056 0.18061 -0.32235
 C275 C 0.67472 0.26821 -0.35920
 C276 C 0.64772 0.32666 -0.35170
 O277 O 0.60120 0.33790 -0.29721
 C278 C 0.59022 0.27541 -0.25604
 C279 C 0.60821 0.18745 -0.24381
 C280 C 0.60228 0.12034 -0.19763
 C281 C 0.57786 0.15101 -0.16047
 C282 C 0.55952 0.24310 -0.17132
 C283 C 0.56530 0.30280 -0.22119
 H284 H 0.66393 0.07850 -0.25425
 H285 H 0.70146 0.13768 -0.32584
 H286 H 0.64293 0.39683 -0.37742
 H287 H 0.61715 0.05340 -0.18776
 H288 H 0.57471 0.11062 -0.12026
 H289 H 0.55359 0.38150 -0.22708
 C290 C 0.13876 0.76472 -0.30294
 C291 C 0.11378 0.75279 -0.34088
 C292 C 0.11470 0.74925 -0.40300
 C293 C 0.14261 0.76257 -0.42739
 C294 C 0.16935 0.78934 -0.38963
 C295 C 0.16731 0.78147 -0.32641
 O296 O 0.13201 0.77004 -0.24444
 C297 C 0.10217 0.76326 -0.24631
 C298 C 0.09031 0.75396 -0.30453
 C299 C 0.06038 0.76223 -0.31781
 C300 C 0.04136 0.77950 -0.26901
 C301 C 0.05242 0.78829 -0.20800
 C302 C 0.08334 0.77760 -0.19642
 H303 H 0.09461 0.73724 -0.43198
 H304 H 0.14300 0.75212 -0.47665
 H305 H 0.18668 0.79359 -0.29568
 H306 H 0.05224 0.76176 -0.36400
 H307 H 0.01813 0.79111 -0.27887
 H308 H 0.09260 0.78777 -0.15019
 C309 C 0.36502 0.68729 -0.29451
 C310 C 0.34971 0.69475 -0.24152
 C311 C 0.31885 0.68869 -0.24077
 C312 C 0.30318 0.67969 -0.29668
 C313 C 0.31816 0.69589 -0.35107
 C314 C 0.35004 0.69589 -0.34947
 O315 O 0.39422 0.67952 -0.28563
 C316 C 0.39723 0.68516 -0.22539
 C317 C 0.37073 0.70053 -0.19621
 C318 C 0.36834 0.70893 -0.13353
 C319 C 0.39383 0.68992 -0.10015
 C320 C 0.42043 0.65536 -0.13017
 C321 C 0.42276 0.66190 -0.19310
 H322 H 0.30716 0.69049 -0.19860
 H323 H 0.27904 0.67026 -0.29595
 H324 H 0.36356 0.71500 -0.38655
 H325 H 0.34717 0.72295 -0.11162
 H326 H 0.39168 0.68988 -0.05186
 H327 H 0.44235 0.63449 -0.21776
 C328 C -0.16497 1.16593 -0.24901
 C329 C -0.13907 1.23978 -0.24802
 C330 C -0.12925 1.28626 -0.29824
 C331 C -0.14871 1.27090 -0.34913
 C332 C -0.17788 1.21269 -0.34845
 C333 C -0.18571 1.15402 -0.29838
 O334 O -0.16641 1.10941 -0.20105
 C335 C -0.14120 1.15279 -0.16876
 C336 C -0.12481 1.23764 -0.19453
 C337 C -0.09813 1.29753 -0.16915
 C338 C -0.08581 1.25854 -0.11870
 C339 C -0.09873 1.15286 -0.09945
 C340 C -0.12842 1.10745 -0.12008
 H341 H -0.10689 1.32938 -0.29881
 H342 H -0.14145 1.30923 -0.38818
 H343 H -0.20679 1.09959 -0.29866
 H344 H -0.08661 1.36757 -0.18956
 H345 H -0.06403 1.29886 -0.10056
 H346 H -0.13956 1.03011 -0.10470
 C347 C 0.60847 0.66149 -0.32048
 C348 C 0.62542 0.64059 -0.27168
 C349 C 0.65580 0.62561 -0.27533
 C350 C 0.66937 0.63978 -0.33019
 C351 C 0.65245 0.66664 -0.38085
 C352 C 0.62104 0.66932 -0.37621
 O353 O 0.58051 0.68104 -0.30712
 C354 C 0.57957 0.67048 -0.24897
 C355 C 0.60624 0.64421 -0.22481
 C356 C 0.60905 0.62096 -0.16544
 C357 C 0.58293 0.61870 -0.13127
 C358 C 0.55526 0.64274 -0.15690
 C359 C 0.55422 0.67652 -0.21477
 H360 H 0.66895 0.60997 -0.23649
 H361 H 0.69335 0.63477 -0.33208
 H362 H 0.60685 0.69078 -0.41215
 H363 H 0.63011 0.59839 -0.14753
 H364 H 0.58411 0.59317 -0.08688
 H365 H 0.53331 0.69382 -0.23581
 C366 C 0.11390 1.23550 -0.28917
 C367 C 0.13059 1.18922 -0.24752
 C368 C 0.15877 1.15091 -0.25859
 C369 C 0.17130 1.16738 -0.31331
 C370 C 0.15656 1.22775 -0.35572
 C371 C 0.12646 1.25648 -0.34456
 O372 O 0.08611 1.25251 -0.27080
 C373 C 0.08569 1.21571 -0.21674
 C374 C 0.11274 1.17942 -0.20035
 C375 C 0.11771 1.13322 -0.14758
 C376 C 0.09321 1.11524 -0.11168
 C377 C 0.06418 1.14203 -0.12881
 C378 C 0.06068 1.19847 -0.18111
 H379 H 0.17071 1.10836 -0.22638
 H380 H 0.19338 1.13595 -0.32172
 H381 H 0.11389 1.29936 -0.37557
 H382 H 0.13956 1.10704 -0.13586
 H383 H 0.09678 1.07329 -0.07270
 H384 H 0.03891 1.21977 -0.19616
 C385 C 0.33500 0.21577 -0.29299
 C386 C 0.35563 0.15912 -0.33021
 C387 C 0.35350 0.14382 -0.39355
 C388 C 0.32832 0.18417 -0.41982
 C389 C 0.30619 0.24167 -0.38269
 C390 C 0.30950 0.25401 -0.31799
 O391 O 0.34341 0.23763 -0.23407
 C392 C 0.37000 0.19298 -0.23421
 C393 C 0.37783 0.13997 -0.29183
 C394 C 0.40511 0.09284 -0.30368
 C395 C 0.42613 0.10921 -0.25526
 C396 C 0.42016 0.17612 -0.19709
 C397 C 0.39111 0.21358 -0.18535
 H398 H 0.37096 0.10481 -0.42164
 H399 H 0.32562 0.16651 -0.46917
 H400 H 0.29326 0.29236 -0.28685
 H401 H 0.41064 0.05176 -0.34941
 H402 H 0.44835 0.08133 -0.26537
 H403 H 0.38604 0.26879 -0.14292
 C404 C -0.18400 0.71968 -0.24586
 C405 C -0.16756 0.62762 -0.27427
 C406 C -0.17408 0.56541 -0.33341
 C407 C -0.19797 0.60020 -0.36537
 C408 C -0.21341 0.70276 -0.33992
 C409 C -0.20725 0.76043 -0.27827
 O410 O -0.17140 0.77769 -0.19284
 C411 C -0.14626 0.72309 -0.18870
 C412 C -0.14264 0.63230 -0.23814
 C413 C -0.11514 0.58618 -0.25187
 C414 C -0.09033 0.63579 -0.21379
 C415 C -0.09333 0.73214 -0.16377
 C416 C -0.12214 0.76809 -0.14807
 H417 H -0.15981 0.49962 -0.35617
 H418 H -0.20193 0.55771 -0.41299
 H419 H -0.21753 0.84279 -0.25889
 H420 H -0.11206 0.52589 -0.29463
 H421 H -0.06833 0.60871 -0.22695
 H422 H -0.12502 0.84081 -0.11034
 C423 C 0.36875 0.75339 0.28697
 C424 C 0.35649 0.76590 0.23185
 C425 C 0.32623 0.77308 0.22197
 C426 C 0.30756 0.75950 0.27001
 C427 C 0.31926 0.73643 0.32684
 C428 C 0.35085 0.75051 0.33669
 O429 O 0.39641 0.71891 0.28333
 C430 C 0.40156 0.70876 0.22427
 C431 C 0.37800 0.74076 0.19148
 C432 C 0.37648 0.72449 0.12853
 C433 C 0.39938 0.66666 0.09756
 C434 C 0.42271 0.62170 0.12947
 C435 C 0.42463 0.64815 0.19400
 H436 H 0.31711 0.77940 0.17735
 H437 H 0.28397 0.76390 0.26106
 H438 H 0.36208 0.75489 0.38018
 H439 H 0.35761 0.75020 0.10397
 H440 H 0.39755 0.64956 0.04814
 H441 H 0.44155 0.61257 0.21959
 C442 C -0.14272 1.16812 0.24786
 C443 C -0.11601 1.22524 0.27332
 C444 C -0.11287 1.28031 0.33476
 C445 C -0.13814 1.27518 0.37097
 C446 C -0.16589 1.21198 0.34643
 C447 C -0.16741 1.15517 0.28376
 O448 O -0.14164 1.12445 0.18847
 C449 C -0.11352 1.15303 0.17611
 C450 C -0.09653 1.21216 0.22650
 C451 C -0.06584 1.24170 0.22372
 C452 C -0.05234 1.20896 0.16683
 C453 C -0.06966 1.14665 0.11484
 C454 C -0.10075 1.12251 0.11937
 H455 H -0.09194 1.32808 0.35396
 H456 H -0.13621 1.32315 0.41806
 H457 H -0.18699 1.09893 0.26322
 H458 H -0.05280 1.28819 0.26386
 H459 H -0.02877 1.23430 0.16291
 H460 H -0.11458 1.07814 0.07977
 C461 C 0.62959 0.19990 0.26205
 C462 C 0.63980 0.29265 0.22935
 C463 C 0.66919 0.36571 0.24014
 C464 C 0.68566 0.35824 0.29157
 C465 C 0.67886 0.26154 0.32179
 C466 C 0.65278 0.18213 0.30366
 O467 O 0.62112 0.27192 0.22149
 C468 C 0.59123 0.25148 0.20482
 C469 C 0.61922 0.30626 0.19000
 C470 C 0.62376 0.37574 0.13951
 C471 C 0.59893 0.40600 0.11046
 C472 C 0.57096 0.37715 0.13161
 C473 C 0.56776 0.29941 0.17472
 H474 H 0.67610 0.43303 0.21297
 H475 H 0.70525 0.42115 0.30498
 H476 H 0.64904 0.10219 0.32506
 H477 H 0.64589 0.40604 0.12704
 H478 H 0.60150 0.45710 0.07372
 H479 H 0.54524 0.26514 0.18253
 C480 C 0.14358 0.77984 0.23015
 C481 C 0.11679 0.74630 0.25356
 C482 C 0.11427 0.72041 0.31194
 C483 C 0.14049 0.72913 0.34808
 C484 C 0.16859 0.76573 0.32600
 C485 C 0.17018 0.78980 0.26560
 O486 O 0.14048 0.80561 0.17430
 C487 C 0.11109 0.78821 0.16264
 C488 C 0.09578 0.75140 0.20980
 C489 C 0.06493 0.73150 0.20898
 C490 C 0.04891 0.75248 0.15786
 C491 C 0.06381 0.79405 0.10886
 C492 C 0.09556 0.80982 0.11078
 H493 H 0.09273 0.69665 0.32938
 H494 H 0.13882 0.70985 0.39395
 H495 H 0.19122 0.81842 0.24760
 H496 H 0.05353 0.70247 0.24685
 H497 H 0.02475 0.73810 0.15724
 H498 H 0.10773 0.84133 0.07435
   
