data_POSCAR
  _audit_creation_date              2014-09-24
  _audit_creation_method            'ToBaCCo'
  _symmetry_space_group_name_H-M    'P1'
  _symmetry_Int_Tables_number       1
  _symmetry_cell_setting            triclinic
  loop_
  _symmetry_equiv_pos_as_xyz
 x,y,z
_cell_length_a 45.3518
_cell_length_b 45.2407
_cell_length_c 16.6074
_cell_angle_alpha 90.030300
_cell_angle_beta 90.719200
_cell_angle_gamma 119.236300
loop_
  _atom_site_label
  _atom_site_type_symbol
  _atom_site_fract_x
  _atom_site_fract_y
  _atom_site_fract_z
C1 C 0.12915 0.46394 0.45861
 C2 C 0.13347 0.47339 0.53813
 C3 C 0.16650 0.48212 0.55937
 N4 N 0.18253 0.47919 0.49417
 C5 C 0.15989 0.46830 0.43250
 C6 C 0.18328 0.49714 0.63334
 C7 C 0.21567 0.50137 0.65234
 C8 C 0.23602 0.51994 0.71704
 C9 C 0.26138 0.51168 0.72439
 C10 C 0.25612 0.48845 0.66356
 N11 N 0.22835 0.48252 0.62001
 C12 C 0.27335 0.46961 0.65508
 C13 C 0.27511 0.45630 0.57857
 C14 C 0.29477 0.44139 0.56011
 C15 C 0.29383 0.43786 0.47804
 C16 C 0.27410 0.45106 0.44828
 N17 N 0.26281 0.46233 0.50951
 C18 C 0.26980 0.45583 0.36567
 C19 C 0.24359 0.46153 0.33621
 C20 C 0.24029 0.46963 0.25723
 C21 C 0.21122 0.47212 0.25286
 C22 C 0.19777 0.46585 0.32945
 N23 N 0.21732 0.45891 0.37953
 C24 C 0.16792 0.46619 0.35130
 H25 H 0.10620 0.45593 0.42349
 H26 H 0.11442 0.47456 0.57418
 H27 H 0.21143 0.45016 0.43820
 H28 H 0.23218 0.53638 0.75775
 H29 H 0.28068 0.52112 0.77110
 H30 H 0.31022 0.43552 0.59974
 H31 H 0.30714 0.42775 0.44401
 H32 H 0.20142 0.47837 0.19965
 H33 H 0.21571 0.46254 0.57941
 H34 H 0.25705 0.47339 0.20777
 C35 C 0.51322 -0.32184 0.53653
 C36 C 0.51279 -0.32141 0.45388
 C37 C 0.53981 -0.29075 0.43092
 N38 N 0.55619 -0.27206 0.49704
 C39 C 0.54044 -0.29140 0.56176
 C40 C 0.54961 -0.28008 0.35041
 C41 C 0.56404 -0.24524 0.33092
 C42 C 0.58127 -0.23011 0.26091
 C43 C 0.58773 -0.19701 0.26245
 C44 C 0.57427 -0.19277 0.33313
 N45 N 0.56026 -0.22213 0.37485
 C46 C 0.57314 -0.16316 0.35582
 C47 C 0.56731 -0.15715 0.43588
 C48 C 0.55946 -0.13246 0.46001
 C49 C 0.55785 -0.13374 0.54239
 C50 C 0.56485 -0.15909 0.56569
 N51 N 0.57084 -0.17321 0.50065
 C52 C 0.56793 -0.16730 0.64594
 C53 C 0.57201 -0.19521 0.66631
 C54 C 0.58349 -0.19993 0.74015
 C55 C 0.57929 -0.23216 0.73890
 C56 C 0.56445 -0.24651 0.66487
 N57 N 0.56088 -0.22343 0.62052
 C58 C 0.55035 -0.28111 0.64316
 H59 H 0.49471 -0.34174 0.57367
 H60 H 0.49402 -0.34100 0.41521
 H61 H 0.54690 -0.22842 0.56717
 H62 H 0.58843 -0.24160 0.21334
 H63 H 0.60072 -0.17830 0.21651
 H64 H 0.55525 -0.11531 0.42237
 H65 H 0.55260 -0.11755 0.58071
 H66 H 0.58548 -0.24384 0.78827
 H67 H 0.54547 -0.22737 0.42594
 H68 H 0.59319 -0.18230 0.79031
 C69 C 1.15401 0.67714 0.48595
 C70 C 1.15970 0.67683 0.56655
 C71 C 1.19134 0.70436 0.58360
 N72 N 1.20534 0.72089 0.51448
 C73 C 1.18263 0.70419 0.45463
 C74 C 1.20759 0.71164 0.66085
 C75 C 1.24179 0.73680 0.67482
 C76 C 1.25962 0.74074 0.74635
 C77 C 1.29076 0.76882 0.73810
 C78 C 1.29118 0.78208 0.66258
 N79 N 1.26138 0.76213 0.62406
 C80 C 1.31988 0.81001 0.62862
 C81 C 1.32523 0.81158 0.54452
 C82 C 1.35651 0.82382 0.50898
 C83 C 1.35098 0.82228 0.42753
 C84 C 1.31664 0.81029 0.41551
 N85 N 1.30084 0.80292 0.48723
 C86 C 1.30061 0.80803 0.33974
 C87 C 1.26579 0.78467 0.32648
 C88 C 1.24711 0.78360 0.25845
 C89 C 1.21514 0.75674 0.26757
 C90 C 1.21474 0.74240 0.34153
 N91 N 1.24575 0.75934 0.37683
 C92 C 1.18640 0.71351 0.37239
 H93 H 1.13113 0.65920 0.45468
 H94 H 1.14249 0.65752 0.60681
 H95 H 1.25363 0.75209 0.42861
 H96 H 1.25142 0.72500 0.79931
 H97 H 1.31121 0.77747 0.78189
 H98 H 1.38072 0.83188 0.53831
 H99 H 1.37017 0.82919 0.38226
 H100 H 1.19445 0.74896 0.22474
 H101 H 1.25396 0.76743 0.56914
 H102 H 1.25534 0.80039 0.20731
 C103 C 0.82295 0.50219 0.55931
 C104 C 0.82080 0.49692 0.47777
 C105 C 0.79981 0.50865 0.44777
 N106 N 0.78960 0.52155 0.50815
 C107 C 0.80407 0.51799 0.57651
 C108 C 0.79246 0.50977 0.36530
 C109 C 0.76533 0.51448 0.33898
 C110 C 0.75974 0.52167 0.26093
 C111 C 0.72887 0.52066 0.26018
 C112 C 0.71621 0.51234 0.33747
 N113 N 0.73858 0.50855 0.38477
 C114 C 0.68351 0.50531 0.36043
 C115 C 0.67248 0.50009 0.44127
 C116 C 0.63963 0.48953 0.46494
 C117 C 0.64000 0.49006 0.54725
 C118 C 0.67323 0.50148 0.57212
 N119 N 0.69298 0.50780 0.50693
 C120 C 0.68538 0.51063 0.65258
 C121 C 0.71986 0.52304 0.67516
 C122 C 0.73468 0.53812 0.74849
 C123 C 0.76741 0.54416 0.74782
 C124 C 0.77169 0.53135 0.67559
 N125 N 0.74256 0.51859 0.63185
 C126 C 0.80104 0.52958 0.65398
 H127 H 0.83669 0.49492 0.60124
 H128 H 0.83312 0.48548 0.44475
 H129 H 0.73723 0.50401 0.57982
 H130 H 0.77566 0.52631 0.20927
 H131 H 0.71662 0.52440 0.20788
 H132 H 0.61757 0.48295 0.42760
 H133 H 0.61835 0.48435 0.58393
 H134 H 0.78549 0.55595 0.79661
 H135 H 0.73409 0.49813 0.44198
 H136 H 0.72343 0.54365 0.79907
 C137 C 0.44548 0.12683 0.45042
 C138 C 0.44663 0.12641 0.53280
 C139 C 0.46263 0.15998 0.55829
 N140 N 0.47033 0.18082 0.49455
 C141 C 0.46007 0.16055 0.42872
 C142 C 0.47284 0.17141 0.63835
 C143 C 0.47729 0.20321 0.66427
 C144 C 0.49279 0.21933 0.73593
 C145 C 0.49070 0.24857 0.73963
 C146 C 0.47428 0.24996 0.66952
 N147 N 0.46627 0.22212 0.62399
 C148 C 0.46407 0.27445 0.65236
 C149 C 0.45986 0.28264 0.57112
 C150 C 0.45572 0.30995 0.54772
 C151 C 0.45536 0.31043 0.46560
 C152 C 0.46113 0.28467 0.43980
 N153 N 0.46409 0.26783 0.50431
 C154 C 0.46588 0.27898 0.35795
 C155 C 0.47037 0.25182 0.33120
 C156 C 0.48178 0.24951 0.25549
 C157 C 0.48262 0.21950 0.25305
 C158 C 0.47148 0.20427 0.32708
 N159 N 0.46372 0.22393 0.37396
 C160 C 0.46754 0.17249 0.34934
 H161 H 0.43544 0.10495 0.41082
 H162 H 0.43737 0.10400 0.56971
 H163 H 0.45185 0.21730 0.42933
 H164 H 0.50457 0.21114 0.78113
 H165 H 0.50070 0.26666 0.78870
 H166 H 0.45526 0.32943 0.58428
 H167 H 0.45254 0.32882 0.42953
 H168 H 0.49050 0.21003 0.20256
 H169 H 0.45078 0.21457 0.57275
 H170 H 0.48911 0.26774 0.20727
 C171 C 0.69108 0.15284 0.44202
 C172 C 0.69186 0.15029 0.52409
 C173 C 0.71329 0.18264 0.55358
 N174 N 0.72594 0.20478 0.49225
 C175 C 0.71239 0.18658 0.42402
 C176 C 0.71848 0.19183 0.63599
 C177 C 0.74535 0.22295 0.66450
 C178 C 0.74790 0.23561 0.74178
 C179 C 0.77774 0.26577 0.74614
 C180 C 0.79285 0.27071 0.67140
 N181 N 0.77294 0.24432 0.62218
 C182 C 0.82437 0.29876 0.65038
 C183 C 0.83458 0.30543 0.56871
 C184 C 0.86772 0.32394 0.54297
 C185 C 0.86632 0.32717 0.46117
 C186 C 0.83249 0.30979 0.43915
 N187 N 0.81306 0.29630 0.50472
 C188 C 0.81986 0.30833 0.36018
 C189 C 0.78793 0.28225 0.33451
 C190 C 0.77195 0.28160 0.26220
 C191 C 0.74275 0.25077 0.25799
 C192 C 0.74175 0.23367 0.32800
 N193 N 0.76944 0.25289 0.37392
 C194 C 0.71670 0.20046 0.34632
 H195 H 0.67627 0.13228 0.40040
 H196 H 0.67787 0.12727 0.55814
 H197 H 0.77713 0.24502 0.42499
 H198 H 0.72995 0.22448 0.78991
 H199 H 0.78685 0.28231 0.79832
 H200 H 0.89060 0.33413 0.57934
 H201 H 0.88776 0.34043 0.42216
 H202 H 0.72447 0.24189 0.20886
 H203 H 0.77924 0.23978 0.56524
 H204 H 0.78057 0.30110 0.21678
 N205 N 1.04333 0.51351 -0.11622
 N206 N 1.06762 0.51664 -0.16456
 N207 N 0.96746 0.45753 -0.09551
 N208 N 0.94286 0.42746 -0.11918
 N209 N 0.97368 0.48019 -0.15171
 N210 N 0.95349 0.46643 -0.21446
 N211 N 1.03724 0.49009 -0.06215
 N212 N 1.05705 0.47670 -0.07262
 C213 C 1.07640 0.49404 -0.13533
 C214 C 0.93442 0.43368 -0.19361
 N215 N 0.95197 0.47302 0.13071
 N216 N 0.92750 0.45501 0.18116
 N217 N 1.02506 0.48695 0.10741
 N218 N 1.05057 0.48203 0.12812
 N219 N 1.02211 0.50728 0.15920
 N220 N 1.04535 0.51660 0.21665
 N221 N 0.95485 0.45327 0.07704
 N222 N 0.93248 0.42123 0.09023
 Mn223 Mn 0.99592 0.47153 0.00672
 C224 C 0.91523 0.42280 0.15452
 C225 C 1.06281 0.50060 0.19666
 N226 N 0.97450 0.54371 -0.15805
 N227 N 0.95562 0.53797 -0.22329
 N228 N 1.03787 0.59709 -0.07200
 N229 N 1.06102 0.62920 -0.07928
 N230 N 1.04397 0.57793 -0.12083
 N231 N 1.07162 0.59648 -0.16215
 N232 N 0.96804 0.56120 -0.10488
 N233 N 0.94429 0.56766 -0.13245
 Mn234 Mn 1.00917 0.52899 -0.13722
 C235 C 0.93681 0.55278 -0.20636
 C236 C 1.08220 0.62832 -0.13449
 N237 N 1.02264 0.57136 0.15249
 N238 N 1.04805 0.58568 0.20466
 N239 N 0.95520 0.55767 0.06674
 N240 N 0.93062 0.56537 0.07025
 N241 N 0.95199 0.53626 0.12377
 N242 N 0.92487 0.52831 0.16660
 N243 N 1.02528 0.59312 0.09685
 N244 N 1.05241 0.62279 0.10992
 Mn245 Mn 0.98723 0.52207 0.14243
 Mn246 Mn 0.99633 0.57748 -0.00338
 Cl247 Cl 0.99709 0.52494 0.00211
 C248 C 1.06619 0.61784 0.17763
 C249 C 0.91163 0.54644 0.13220
 N250 N 0.44611 0.41244 0.07964
 N251 N 0.44186 0.38160 0.08943
 N252 N 0.42911 0.46733 0.14031
 N253 N 0.41242 0.47502 0.19330
 N254 N 0.40839 0.44673 0.08475
 N255 N 0.37702 0.43973 0.09862
 N256 N 0.46715 0.43324 0.13437
 N257 N 0.47787 0.41723 0.18269
 C258 C 0.46198 0.38507 0.15381
 C259 C 0.37995 0.45767 0.16634
 N260 N 0.51018 0.55301 0.08681
 N261 N 0.52150 0.58452 0.11271
 N262 N 0.52857 0.49714 0.13418
 N263 N 0.54617 0.48722 0.17953
 N264 N 0.54790 0.51883 0.07991
 N265 N 0.57926 0.52444 0.08723
 N266 N 0.49097 0.53136 0.14163
 N267 N 0.48870 0.54752 0.20519
 Mn268 Mn 0.47893 0.48224 0.13833
 C269 C 0.50718 0.58052 0.18606
 C270 C 0.57772 0.50446 0.14944
 N271 N 0.40628 0.44739 -0.08917
 N272 N 0.37491 0.44156 -0.09982
 N273 N 0.46308 0.43403 -0.14885
 N274 N 0.46630 0.41734 -0.21010
 N275 N 0.44387 0.41291 -0.09350
 N276 N 0.43407 0.38128 -0.11515
 N277 N 0.42617 0.46876 -0.14320
 N278 N 0.40926 0.47850 -0.19111
 Mn279 Mn 0.42579 0.42952 -0.00446
 C280 C 0.37741 0.46134 -0.16366
 C281 C 0.44881 0.38464 -0.18747
 N282 N 0.54577 0.51935 -0.09309
 N283 N 0.57730 0.52734 -0.10837
 N284 N 0.48733 0.53197 -0.14463
 N285 N 0.48453 0.54805 -0.20769
 N286 N 0.50824 0.55355 -0.09054
 N287 N 0.52042 0.58499 -0.11701
 N288 N 0.52505 0.49804 -0.14759
 N289 N 0.54185 0.49097 -0.20146
 Mn290 Mn 0.52822 0.53659 -0.00410
 Mn291 Mn 0.47542 0.48313 -0.14633
 Cl292 Cl 0.47708 0.48300 -0.00410
 C293 C 0.57434 0.50929 -0.17599
 C294 C 0.50461 0.58094 -0.18944
 N295 N 0.45033 -0.04052 0.08736
 N296 N 0.41976 -0.06383 0.10988
 N297 N 0.50022 0.03422 0.13829
 N298 N 0.50574 0.05933 0.18762
 N299 N 0.47762 0.03028 0.08296
 N300 N 0.46716 0.05261 0.09311
 N301 N 0.47286 -0.03636 0.14327
 N302 N 0.45838 -0.05650 0.20454
 C303 C 0.42552 -0.07393 0.18258
 C304 C 0.48506 0.07066 0.15839
 N305 N 0.58895 0.04360 0.08759
 N306 N 0.61870 0.07077 0.10002
 N307 N 0.53962 -0.02862 0.14526
 N308 N 0.53407 -0.05249 0.19802
 N309 N 0.56036 -0.02761 0.08950
 N310 N 0.56924 -0.05106 0.10238
 N311 N 0.56721 0.04202 0.14113
 N312 N 0.58149 0.06784 0.19171
 Mn313 Mn 0.52004 0.00292 0.14263
 C314 C 0.61349 0.08562 0.16512
 C315 C 0.55251 -0.06637 0.17032
 N316 N 0.47729 0.02889 -0.08990
 N317 N 0.46722 0.05140 -0.10344
 N318 N 0.47209 -0.03905 -0.14298
 N319 N 0.45820 -0.06403 -0.19596
 N320 N 0.45009 -0.04198 -0.08847
 N321 N 0.42041 -0.06893 -0.10369
 N322 N 0.49955 0.03170 -0.14340
 N323 N 0.50519 0.05600 -0.19479
 Mn324 Mn 0.46335 -0.00605 -0.00211
 C325 C 0.48497 0.06818 -0.16898
 C326 C 0.42606 -0.08250 -0.17074
 N327 N 0.56056 -0.02838 -0.08459
 N328 N 0.57217 -0.04950 -0.09997
 N329 N 0.56682 0.04009 -0.14072
 N330 N 0.58130 0.06528 -0.19216
 N331 N 0.58860 0.04234 -0.08494
 N332 N 0.61846 0.06907 -0.09675
 N333 N 0.53882 -0.03075 -0.14059
 N334 N 0.53470 -0.05367 -0.19499
 Mn335 Mn 0.57496 0.00741 0.00202
 Mn336 Mn 0.51933 0.00058 -0.14270
 Cl337 Cl 0.51934 0.00110 -0.00003
 C338 C 0.55545 -0.06524 -0.16880
 C339 C 0.61347 0.08323 -0.16352
 C340 C 1.14503 0.46607 0.28606
 C341 C 1.13407 0.48868 0.28553
 C342 C 1.10728 0.48587 0.22989
 C343 C 1.09176 0.50393 0.24441
 H344 H 1.14338 0.50839 0.33142
 H345 H 1.09895 0.46780 0.18044
 H346 H 1.13703 0.44704 0.23884
 H347 H 1.09975 0.52114 0.29559
 C348 C 0.54383 0.69636 0.28703
 C349 C 0.53849 0.66473 0.29795
 C350 C 0.53059 0.64053 0.23051
 C351 C 0.51524 0.60740 0.24623
 H352 H 0.54008 0.65596 0.35758
 H353 H 0.53664 0.64951 0.16923
 H354 H 0.54443 0.70437 0.22532
 H355 H 0.50794 0.59912 0.30760
 C356 C 0.31950 -0.17091 0.27490
 C357 C 0.34608 -0.13988 0.28602
 C358 C 0.36831 -0.11953 0.22036
 C359 C 0.39980 -0.09598 0.23980
 H360 H 0.35262 -0.12906 0.34613
 H361 H 0.35986 -0.12460 0.15806
 H362 H 0.31164 -0.17938 0.21344
 H363 H 0.40804 -0.09319 0.30232
 C364 C 0.81352 0.50430 0.30594
 C365 C 0.83528 0.52901 0.25853
 C366 C 0.86141 0.52499 0.21584
 C367 C 0.88230 0.54809 0.16396
 H368 H 0.83553 0.55308 0.25640
 H369 H 0.86472 0.50340 0.23034
 H370 H 0.81435 0.48079 0.30942
 H371 H 0.87856 0.56915 0.14678
 C372 C 0.46609 0.30283 0.29602
 C373 C 0.48877 0.33594 0.29915
 C374 C 0.48720 0.36245 0.25005
 C375 C 0.46461 0.35685 0.19088
 H376 H 0.50826 0.34481 0.34566
 H377 H 0.50501 0.38833 0.26717
 H378 H 0.44679 0.29253 0.24939
 H379 H 0.44705 0.33150 0.17034
 C380 C 0.69170 0.17968 0.28383
 C381 C 0.69816 0.16118 0.23136
 C382 C 0.67152 0.13321 0.18297
 C383 C 0.63932 0.11612 0.20654
 H384 H 0.72373 0.16537 0.22669
 H385 H 0.67935 0.12448 0.13095
 H386 H 0.66661 0.17661 0.28891
 H387 H 0.63147 0.12323 0.26104
 C388 C 0.47945 0.15129 -0.30671
 C389 C 0.49245 0.13165 -0.33031
 C390 C 0.49840 0.10890 -0.27757
 C391 C 0.48114 0.09486 -0.21053
 H392 H 0.50066 0.13293 -0.39180
 H393 H 0.51573 0.10090 -0.30015
 H394 H 0.47660 0.15381 -0.24287
 H395 H 0.46261 0.10130 -0.18856
 C396 C 0.66144 0.50704 -0.28953
 C397 C 0.66344 0.53311 -0.24651
 C398 C 0.63502 0.53057 -0.19867
 C399 C 0.60262 0.51005 -0.21964
 H400 H 0.68572 0.55783 -0.24941
 H401 H 0.64108 0.54811 -0.14873
 H402 H 0.63796 0.48332 -0.28964
 H403 H 0.59616 0.49423 -0.27294
 C404 C 0.84561 0.32035 -0.28692
 C405 C 0.86611 0.35367 -0.29679
 C406 C 0.88934 0.37595 -0.23312
 C407 C 0.90876 0.40883 -0.24887
 H408 H 0.86550 0.36534 -0.35331
 H409 H 0.89125 0.36564 -0.17563
 H410 H 0.84371 0.31028 -0.22687
 H411 H 0.90632 0.41841 -0.30699
 C412 C 0.56301 -0.14792 -0.28931
 C413 C 0.58888 -0.12228 -0.25044
 C414 C 0.58403 -0.09857 -0.19817
 C415 C 0.55972 -0.09065 -0.21398
 H416 H 0.61434 -0.11793 -0.25875
 H417 H 0.60242 -0.08540 -0.15060
 H418 H 0.53731 -0.15330 -0.27957
 H419 H 0.54308 -0.10167 -0.26570
 C420 C 0.29201 0.46765 -0.27846
 C421 C 0.29225 0.43909 -0.25773
 C422 C 0.31748 0.43897 -0.20101
 C423 C 0.34956 0.46384 -0.20247
 H424 H 0.27457 0.41520 -0.28595
 H425 H 0.31101 0.41598 -0.16811
 H426 H 0.30557 0.48955 -0.23960
 H427 H 0.35657 0.48518 -0.24219
 C428 C 1.18950 0.69111 -0.27382
 C429 C 1.15890 0.68628 -0.25484
 C430 C 1.13662 0.65896 -0.20104
 C431 C 1.10952 0.65876 -0.17047
 H432 H 1.14885 0.70081 -0.28509
 H433 H 1.14078 0.63753 -0.19210
 H434 H 1.20100 0.67988 -0.23608
 H435 H 1.10637 0.68095 -0.17559
 C436 C 0.82683 0.53799 -0.28667
 C437 C 0.85945 0.54989 -0.30419
 C438 C 0.88469 0.55417 -0.24214
 C439 C 0.91230 0.55305 -0.26413
 H440 H 0.86783 0.55544 -0.36588
 H441 H 0.87957 0.55538 -0.17899
 H442 H 0.82042 0.53566 -0.22356
 H443 H 0.91567 0.54912 -0.32703
 C444 C 0.46083 0.29255 -0.28143
 C445 C 0.43797 0.30312 -0.27816
 C446 C 0.44087 0.32797 -0.21724
 C447 C 0.44220 0.35660 -0.24203
 H448 H 0.41879 0.29621 -0.32482
 H449 H 0.44557 0.32471 -0.15459
 H450 H 0.47652 0.29725 -0.22824
 H451 H 0.44111 0.36088 -0.30598
 C452 C 0.69430 0.16796 -0.30461
 C453 C 0.66079 0.15480 -0.31520
 C454 C 0.63454 0.12736 -0.26672
 C455 C 0.64064 0.11314 -0.20259
 H456 H 0.65165 0.16310 -0.36622
 H457 H 0.60872 0.11751 -0.28794
 H458 H 0.70470 0.16163 -0.25281
 H459 H 0.66594 0.12264 -0.17864
 C460 C 1.16846 0.50968 -0.31203
 C461 C 1.13806 0.48988 -0.28082
 C462 C 1.12166 0.50368 -0.22879
 C463 C 1.09801 0.48353 -0.17752
 H464 H 1.12488 0.46290 -0.29391
 H465 H 1.12791 0.52995 -0.23499
 H466 H 1.18344 0.53508 -0.28775
 H467 H 1.09329 0.45786 -0.16846
 C468 C 0.54399 0.69524 -0.29414
 C469 C 0.53851 0.66365 -0.30486
 C470 C 0.53055 0.64023 -0.23666
 C471 C 0.51312 0.60705 -0.25090
 H472 H 0.53981 0.65443 -0.36410
 H473 H 0.53800 0.64989 -0.17575
 H474 H 0.54418 0.70309 -0.23244
 H475 H 0.50438 0.59814 -0.31183
 C476 C 0.34564 -0.16427 -0.32242
 C477 C 0.34109 -0.15593 -0.24738
 C478 C 0.36752 -0.12719 -0.19981
 C479 C 0.40063 -0.11255 -0.21491
 H480 H 0.31624 -0.16832 -0.22121
 H481 H 0.35904 -0.11788 -0.15009
 H482 H 0.36928 -0.14734 -0.35041
 H483 H 0.40991 -0.12199 -0.26254
 C484 C 0.57931 -0.13614 0.29663
 C485 C 0.56449 -0.14209 0.22371
 C486 C 0.56403 -0.11443 0.17748
 C487 C 0.55497 -0.09353 0.21288
 H488 H 0.55081 -0.16758 0.19945
 H489 H 0.56825 -0.11310 0.11323
 H490 H 0.59300 -0.11015 0.31811
 H491 H 0.54751 -0.09735 0.27542
 C492 C 0.29469 0.45600 0.30763
 C493 C 0.32803 0.47574 0.32104
 C494 C 0.35538 0.47644 0.27201
 C495 C 0.35095 0.45702 0.20714
 H496 H 0.33627 0.49213 0.37370
 H497 H 0.38086 0.49351 0.29320
 H498 H 0.28519 0.44057 0.25382
 H499 H 0.32596 0.43982 0.18382
 C500 C 1.15789 0.69270 0.31615
 C501 C 1.14820 0.65988 0.30379
 C502 C 1.11633 0.63539 0.26332
 C503 C 1.09829 0.64381 0.21343
 H504 H 1.16258 0.64938 0.33267
 H505 H 1.10755 0.60887 0.27549
 H506 H 1.14403 0.70417 0.28977
 H507 H 1.10753 0.66983 0.19572
 C508 C 0.47344 0.15158 0.28938
 C509 C 0.49452 0.13955 0.30776
 C510 C 0.50000 0.11548 0.25882
 C511 C 0.48075 0.09777 0.19586
 H512 H 0.50831 0.14703 0.36462
 H513 H 0.51971 0.11040 0.28046
 H514 H 0.46104 0.14690 0.23106
 H515 H 0.46055 0.10184 0.17332
 C516 C 0.66031 0.50575 0.29733
 C517 C 0.63150 0.47772 0.27748
 C518 C 0.60346 0.47822 0.23248
 C519 C 0.60718 0.50299 0.18253
 H520 H 0.62618 0.45396 0.30515
 H521 H 0.57836 0.45740 0.24341
 H522 H 0.66613 0.53013 0.27288
 H523 H 0.63205 0.52282 0.16612
 C524 C 0.84094 0.33481 0.30134
 C525 C 0.85529 0.36778 0.32055
 C526 C 0.87720 0.39605 0.26740
 C527 C 0.88997 0.39282 0.19762
 H528 H 0.85083 0.37487 0.37965
 H529 H 0.88469 0.42119 0.29039
 H530 H 0.84281 0.32678 0.24120
 H531 H 0.88378 0.36820 0.17377
   
