data_POSCAR
  _audit_creation_date              2014-09-24
  _audit_creation_method            'ToBaCCo'
  _symmetry_space_group_name_H-M    'P1'
  _symmetry_Int_Tables_number       1
  _symmetry_cell_setting            triclinic
  loop_
  _symmetry_equiv_pos_as_xyz
 x,y,z
_cell_length_a 24.1765
_cell_length_b 24.1713
_cell_length_c 35.6060
_cell_angle_alpha 90.276200
_cell_angle_beta 90.143000
_cell_angle_gamma 90.014700
loop_
  _atom_site_label
  _atom_site_type_symbol
  _atom_site_fract_x
  _atom_site_fract_y
  _atom_site_fract_z
O1 O -0.05277 0.55049 0.96376
 O2 O -0.05322 0.44676 1.03603
 O3 O -0.04124 0.55474 1.03646
 O4 O -0.04100 0.44271 0.96328
 O5 O 0.05005 0.44471 0.96521
 O6 O 0.04985 0.55239 1.03547
 O7 O 0.03774 0.44494 1.03815
 O8 O 0.03831 0.55278 0.96284
 Cu9 Cu -0.05561 0.49861 0.99986
 Cu10 Cu 0.05254 0.49856 1.00038
 C11 C -0.00840 0.57049 0.95103
 C12 C -0.00909 0.42728 1.04971
 C13 C 0.00552 0.57300 1.04794
 C14 C 0.00582 0.42444 0.95216
 O15 O 0.55325 -0.05316 0.53568
 O16 O 0.44918 -0.05158 0.46318
 O17 O 0.55700 -0.03984 0.46314
 O18 O 0.44544 -0.04116 0.53604
 O19 O 0.44773 0.04996 0.53576
 O20 O 0.55501 0.05122 0.46575
 O21 O 0.44701 0.03953 0.46294
 O22 O 0.55530 0.03778 0.53850
 Cu23 Cu 0.50122 -0.05498 0.49939
 Cu24 Cu 0.50135 0.05318 0.50080
 C25 C 0.57300 -0.00924 0.54968
 C26 C 0.42926 -0.00702 0.45067
 C27 C 0.57528 0.00715 0.45248
 C28 C 0.42731 0.00543 0.54790
 C29 C -0.06772 0.01743 0.27157
 C30 C -0.02041 0.02471 0.24975
 C31 C -0.01348 0.07292 0.22881
 C32 C -0.05368 0.11482 0.22959
 C33 C -0.10113 0.10732 0.25203
 C34 C -0.10859 0.05855 0.27302
 C35 C 0.02236 -0.01815 0.24907
 C36 C 0.01465 -0.06594 0.22747
 C37 C 0.05540 -0.10724 0.22651
 C38 C 0.10404 -0.09985 0.24792
 C39 C 0.11200 -0.05185 0.26997
 C40 C 0.07068 -0.01110 0.27014
 H41 H -0.07176 -0.01980 0.28817
 H42 H 0.02282 0.07683 0.21125
 H43 H -0.02261 -0.07006 0.21072
 H44 H 0.07515 0.02564 0.28744
 H45 H -0.13237 0.13934 0.25313
 H46 H 0.13567 -0.13152 0.24745
 C47 C -0.01443 -0.07216 0.77076
 C48 C -0.02144 -0.02455 0.74923
 C49 C -0.06950 -0.01723 0.72798
 C50 C -0.11151 -0.05734 0.72815
 C51 C -0.10421 -0.10515 0.75021
 C52 C -0.05564 -0.11299 0.77158
 C53 C 0.02142 0.01826 0.74932
 C54 C 0.06934 0.01099 0.72804
 C55 C 0.11058 0.05185 0.72777
 C56 C 0.10303 0.10011 0.74960
 C57 C 0.05483 0.10763 0.77126
 C58 C 0.01413 0.06626 0.77072
 H59 H 0.02264 -0.07642 0.78768
 H60 H -0.07328 0.01937 0.71073
 H61 H 0.07357 -0.02597 0.71094
 H62 H -0.02278 0.07048 0.78770
 H63 H -0.13632 -0.13633 0.75081
 H64 H 0.13465 0.13183 0.74972
 C65 C 0.02485 -0.29293 0.12624
 C66 C 0.07038 -0.31268 0.10596
 C67 C 0.06298 -0.35643 0.08075
 C68 C 0.01045 -0.38073 0.07525
 C69 C -0.03513 -0.36030 0.09565
 C70 C -0.02799 -0.31635 0.12141
 C71 C 0.03276 -0.24654 0.15279
 C72 C -0.01261 -0.22643 0.17316
 C73 C -0.00485 -0.18174 0.19800
 C74 C 0.04774 -0.15683 0.20212
 C75 C 0.09271 -0.17801 0.18155
 C76 C 0.08551 -0.22283 0.15698
 C77 C -0.07239 -0.29518 0.14247
 C78 C -0.06481 -0.25109 0.16794
 C79 C 0.12258 -0.28821 0.11109
 C80 C 0.12999 -0.24393 0.13612
 H81 H -0.11336 -0.31274 0.13920
 H82 H -0.10021 -0.23596 0.18350
 H83 H 0.15798 -0.30326 0.09549
 H84 H 0.17086 -0.22600 0.13910
 H85 H 0.09848 -0.37124 0.06511
 H86 H -0.07565 -0.37863 0.09167
 H87 H -0.03968 -0.16631 0.21402
 H88 H 0.13304 -0.15870 0.18386
 C89 C -0.02644 0.30032 0.12982
 C90 C -0.07328 0.32281 0.11246
 C91 C -0.06672 0.36555 0.08664
 C92 C -0.01359 0.38570 0.07713
 C93 C 0.03321 0.36266 0.09501
 C94 C 0.02686 0.32009 0.12159
 C95 C -0.03345 0.25456 0.15668
 C96 C 0.01321 0.23181 0.17420
 C97 C 0.00628 0.18750 0.19914
 C98 C -0.04678 0.16498 0.20583
 C99 C -0.09305 0.18893 0.18813
 C100 C -0.08668 0.23382 0.16379
 C101 C 0.07260 0.29644 0.13995
 C102 C 0.06588 0.25326 0.16591
 C103 C -0.12596 0.30166 0.12078
 C104 C -0.13252 0.25772 0.14588
 H105 H 0.11397 0.31125 0.13409
 H106 H 0.10230 0.23606 0.17925
 H107 H -0.16240 0.31883 0.10744
 H108 H -0.17380 0.24217 0.15118
 H109 H -0.10349 0.38228 0.07341
 H110 H 0.07429 0.37756 0.08829
 H111 H 0.04225 0.17032 0.21303
 H112 H -0.13392 0.17167 0.19229
 C113 C 0.29484 0.02340 0.62694
 C114 C 0.31811 -0.02937 0.62148
 C115 C 0.36149 -0.03605 0.59544
 C116 C 0.38151 0.00990 0.57539
 C117 C 0.35737 0.06234 0.58151
 C118 C 0.31418 0.06930 0.60702
 C119 C 0.24902 0.03082 0.65378
 C120 C 0.22541 0.08350 0.65859
 C121 C 0.18100 0.09021 0.68336
 C122 C 0.16010 0.04481 0.70347
 C123 C 0.18500 -0.00767 0.69878
 C124 C 0.22927 -0.01494 0.67375
 C125 C 0.28986 0.12142 0.61279
 C126 C 0.24611 0.12837 0.63809
 C127 C 0.29736 -0.07416 0.64219
 C128 C 0.25380 -0.06705 0.66791
 H129 H 0.30460 0.15711 0.59747
 H130 H 0.22826 0.16919 0.64156
 H131 H 0.31482 -0.11508 0.63843
 H132 H 0.23894 -0.10275 0.68316
 H133 H 0.37973 -0.07650 0.59099
 H134 H 0.37188 0.09812 0.56616
 H135 H 0.16171 0.13048 0.68612
 H136 H 0.16979 -0.04284 0.71445
 C137 C -0.29849 -0.02803 0.62906
 C138 C -0.32152 -0.07457 0.61145
 C139 C -0.36482 -0.06754 0.58594
 C140 C -0.38500 -0.01421 0.57696
 C141 C -0.36143 0.03229 0.59509
 C142 C -0.31829 0.02545 0.62139
 C143 C -0.25216 -0.03554 0.65561
 C144 C -0.22890 0.01082 0.67341
 C145 C -0.18416 0.00339 0.69813
 C146 C -0.16175 -0.04985 0.70432
 C147 C -0.18611 -0.09579 0.68625
 C148 C -0.23142 -0.08893 0.66216
 C149 C -0.29409 0.07087 0.63999
 C150 C -0.25038 0.06366 0.66567
 C151 C -0.30034 -0.12743 0.61920
 C152 C -0.25584 -0.13446 0.64399
 H153 H -0.30891 0.11237 0.63456
 H154 H -0.23280 0.09985 0.67924
 H155 H -0.31791 -0.16365 0.60566
 H156 H -0.24031 -0.17587 0.64887
 H157 H -0.38194 -0.10410 0.57251
 H158 H -0.37634 0.07351 0.58877
 H159 H -0.16666 0.03911 0.71230
 H160 H -0.16892 -0.13678 0.69001
 C161 C -0.02694 -0.29777 0.87170
 C162 C -0.07275 -0.31718 0.89172
 C163 C -0.06568 -0.36041 0.91710
 C164 C -0.01318 -0.38439 0.92312
 C165 C 0.03266 -0.36440 0.90290
 C166 C 0.02584 -0.32106 0.87692
 C167 C -0.03443 -0.25176 0.84509
 C168 C 0.01123 -0.23198 0.82501
 C169 C 0.00389 -0.18757 0.80018
 C170 C -0.04854 -0.16248 0.79585
 C171 C -0.09383 -0.18335 0.81614
 C172 C -0.08707 -0.22799 0.84064
 C173 C 0.07053 -0.30026 0.85611
 C174 C 0.06333 -0.25661 0.83055
 C175 C -0.12486 -0.29276 0.88625
 C176 C -0.13187 -0.24879 0.86120
 H177 H 0.11146 -0.31775 0.85968
 H178 H 0.09895 -0.24173 0.81520
 H179 H -0.16048 -0.30755 0.90165
 H180 H -0.17266 -0.23083 0.85800
 H181 H -0.10138 -0.37490 0.93258
 H182 H 0.07316 -0.38249 0.90728
 H183 H 0.03897 -0.17246 0.78436
 H184 H -0.13406 -0.16393 0.81370
 C185 C 0.02513 0.29220 0.87247
 C186 C 0.07081 0.31182 0.89282
 C187 C 0.06346 0.35496 0.91852
 C188 C 0.01084 0.37874 0.92441
 C189 C -0.03485 0.35848 0.90389
 C190 C -0.02779 0.31516 0.87767
 C191 C 0.03293 0.24638 0.84547
 C192 C -0.01263 0.22634 0.82511
 C193 C -0.00504 0.18202 0.79998
 C194 C 0.04756 0.15733 0.79559
 C195 C 0.09279 0.17857 0.81604
 C196 C 0.08574 0.22304 0.84093
 C197 C -0.07235 0.29414 0.85655
 C198 C -0.06489 0.25059 0.83069
 C199 C 0.12308 0.28780 0.88728
 C200 C 0.13040 0.24406 0.86182
 H201 H -0.11338 0.31138 0.86011
 H202 H -0.10043 0.23550 0.81513
 H203 H 0.15861 0.30275 0.90293
 H204 H 0.17132 0.22642 0.85857
 H205 H 0.09906 0.36970 0.93421
 H206 H -0.07543 0.37645 0.90813
 H207 H -0.04006 0.16657 0.78404
 H208 H 0.13316 0.15947 0.81348
 C209 C -0.29228 0.02748 0.37380
 C210 C -0.31121 0.07270 0.39489
 C211 C -0.35441 0.06502 0.42027
 C212 C -0.37893 0.01252 0.42509
 C213 C -0.35930 -0.03273 0.40387
 C214 C -0.31595 -0.02531 0.37797
 C215 C -0.24650 0.03565 0.34707
 C216 C -0.22722 -0.00943 0.32592
 C217 C -0.18307 -0.00148 0.30095
 C218 C -0.15780 0.05098 0.29748
 C219 C -0.17819 0.09571 0.31877
 C220 C -0.22251 0.08832 0.34351
 C221 C -0.29563 -0.06940 0.35612
 C222 C -0.25213 -0.06157 0.33050
 C223 C -0.28650 0.12485 0.39037
 C224 C -0.24279 0.13250 0.36517
 H225 H -0.31341 -0.11032 0.35888
 H226 H -0.23763 -0.09674 0.31432
 H227 H -0.30091 0.16001 0.40660
 H228 H -0.22464 0.17331 0.36268
 H229 H -0.36865 0.10025 0.43654
 H230 H -0.37783 -0.07321 0.40732
 H231 H -0.16827 -0.03611 0.28435
 H232 H -0.15863 0.13595 0.31691
 C233 C 0.29777 -0.02448 0.37035
 C234 C 0.31793 -0.07078 0.38952
 C235 C 0.36110 -0.06405 0.41521
 C236 C 0.38428 -0.01141 0.42239
 C237 C 0.36360 0.03489 0.40296
 C238 C 0.32029 0.02843 0.37669
 C239 C 0.25170 -0.03161 0.34350
 C240 C 0.23107 0.01455 0.32433
 C241 C 0.18648 0.00756 0.29937
 C242 C 0.16200 -0.04504 0.29406
 C243 C 0.18380 -0.09083 0.31338
 C244 C 0.22863 -0.08440 0.33799
 C245 C 0.29872 0.07363 0.35672
 C246 C 0.25501 0.06678 0.33093
 C247 C 0.29426 -0.12303 0.38294
 C248 C 0.25023 -0.12970 0.35768
 H249 H 0.31562 0.11467 0.36114
 H250 H 0.23948 0.10279 0.31629
 H251 H 0.30964 -0.15903 0.39767
 H252 H 0.23282 -0.17062 0.35365
 H253 H 0.37615 -0.10014 0.43002
 H254 H 0.38107 0.07550 0.40822
 H255 H 0.17067 0.04305 0.28429
 H256 H 0.16487 -0.13123 0.31020
   
