data_POSCAR
  _audit_creation_date              2014-09-24
  _audit_creation_method            'ToBaCCo'
  _symmetry_space_group_name_H-M    'P1'
  _symmetry_Int_Tables_number       1
  _symmetry_cell_setting            triclinic
  loop_
  _symmetry_equiv_pos_as_xyz
 x,y,z
_cell_length_a 40.6013
_cell_length_b 34.2706
_cell_length_c 21.3330
_cell_angle_alpha 90.000000
_cell_angle_beta 89.835800
_cell_angle_gamma 89.892100
loop_
  _atom_site_label
  _atom_site_type_symbol
  _atom_site_fract_x
  _atom_site_fract_y
  _atom_site_fract_z
C1 C 0.68109 0.31531 0.50215
 C2 C 0.69696 0.30642 0.55827
 C3 C 0.72453 0.28176 0.55804
 C4 C 0.73550 0.26374 0.50188
 C5 C 0.71833 0.27252 0.44587
 C6 C 0.69196 0.29890 0.44599
 C7 C 0.76440 0.23606 0.50183
 C8 C 0.78173 0.22719 0.44579
 C9 C 0.80808 0.20068 0.44595
 C10 C 0.81869 0.18432 0.50229
 C11 C 0.80261 0.19334 0.55824
 C12 C 0.77514 0.21804 0.55797
 H13 H 0.66014 0.33506 0.50206
 H14 H 0.73716 0.27717 0.60194
 H15 H 0.72489 0.25901 0.40182
 H16 H 0.77528 0.24076 0.40178
 H17 H 0.83959 0.16450 0.50272
 H18 H 0.76246 0.22265 0.60191
 C19 C 0.18109 0.81550 0.50463
 C20 C 0.19704 0.80669 0.56070
 C21 C 0.22459 0.78202 0.56050
 C22 C 0.23547 0.76388 0.50444
 C23 C 0.21824 0.77256 0.44841
 C24 C 0.19187 0.79898 0.44848
 C25 C 0.26443 0.73629 0.50450
 C26 C 0.28170 0.72748 0.44844
 C27 C 0.30812 0.70115 0.44852
 C28 C 0.31891 0.68484 0.50468
 C29 C 0.30292 0.69376 0.56085
 C30 C 0.27532 0.71837 0.56067
 H31 H 0.16015 0.83526 0.50457
 H32 H 0.23727 0.77751 0.60437
 H33 H 0.22474 0.75897 0.40441
 H34 H 0.27520 0.74091 0.40438
 H35 H 0.33989 0.66513 0.50456
 H36 H 0.26260 0.72299 0.60461
 C37 C 0.31808 0.31507 -0.50182
 C38 C 0.30217 0.30606 -0.55774
 C39 C 0.27473 0.28138 -0.55731
 C40 C 0.26390 0.26343 -0.50104
 C41 C 0.28109 0.27235 -0.44513
 C42 C 0.30737 0.29876 -0.44551
 C43 C 0.23513 0.23569 -0.50080
 C44 C 0.21792 0.22679 -0.44466
 C45 C 0.19166 0.20026 -0.44470
 C46 C 0.18105 0.18388 -0.50099
 C47 C 0.19703 0.19291 -0.55702
 C48 C 0.22439 0.21765 -0.55687
 H49 H 0.33894 0.33483 -0.50213
 H50 H 0.26217 0.27674 -0.60121
 H51 H 0.27464 0.25893 -0.40098
 H52 H 0.22438 0.24037 -0.40069
 H53 H 0.16022 0.16404 -0.50133
 H54 H 0.23698 0.22227 -0.60089
 C55 C -0.18084 0.81591 -0.50331
 C56 C -0.19669 0.80710 -0.55946
 C57 C -0.22413 0.78240 -0.55940
 C58 C -0.23502 0.76425 -0.50339
 C59 C -0.21791 0.77295 -0.44727
 C60 C -0.19163 0.79938 -0.44721
 C61 C -0.26386 0.73660 -0.50365
 C62 C -0.28117 0.72766 -0.44769
 C63 C -0.30749 0.70132 -0.44804
 C64 C -0.31814 0.68511 -0.50435
 C65 C -0.30210 0.69415 -0.56032
 C66 C -0.27463 0.71877 -0.55994
 H67 H -0.15997 0.83568 -0.50316
 H68 H -0.23673 0.77788 -0.60333
 H69 H -0.22443 0.75935 -0.40330
 H70 H -0.27477 0.74101 -0.40353
 H71 H -0.33903 0.66540 -0.50463
 H72 H -0.26197 0.72343 -0.60387
 N73 N -0.03487 0.95833 0.11104
 N74 N -0.05791 0.95182 0.15338
 N75 N 0.03443 0.93046 0.06840
 N76 N 0.05578 0.90272 0.08276
 N77 N 0.03433 0.95784 0.11149
 N78 N 0.05561 0.94951 0.15618
 N79 N -0.03485 0.93082 0.06815
 N80 N -0.05792 0.90470 0.08034
 C81 C -0.07229 0.91866 0.13314
 C82 C 0.06915 0.91550 0.13698
 N83 N 0.03492 0.95824 -0.10995
 N84 N 0.05798 0.95167 -0.15227
 N85 N -0.03435 0.93055 -0.06731
 N86 N -0.05568 0.90288 -0.08164
 N87 N -0.03428 0.95793 -0.11041
 N88 N -0.05558 0.94966 -0.15507
 N89 N 0.03492 0.93073 -0.06706
 N90 N 0.05805 0.90456 -0.07921
 Mn91 Mn 0.00004 0.93022 0.00054
 C92 C 0.07241 0.91849 -0.13201
 C93 C -0.06908 0.91569 -0.13585
 N94 N 0.03446 1.04183 0.11110
 N95 N 0.05741 1.04829 0.15340
 N96 N -0.03468 1.06971 0.06833
 N97 N -0.05606 1.09747 0.08269
 N98 N -0.03474 1.04233 0.11142
 N99 N -0.05616 1.05068 0.15610
 N100 N 0.03459 1.06935 0.06820
 N101 N 0.05769 1.09541 0.08035
 Mn102 Mn -0.00021 1.00008 0.11174
 C103 C 0.07189 1.08142 0.13314
 C104 C -0.06961 1.08470 0.13690
 N105 N -0.03453 1.04192 -0.11002
 N106 N -0.05750 1.04843 -0.15230
 N107 N 0.03458 1.06962 -0.06725
 N108 N 0.05593 1.09731 -0.08158
 N109 N 0.03467 1.04224 -0.11035
 N110 N 0.05610 1.05052 -0.15499
 N111 N -0.03470 1.06943 -0.06712
 N112 N -0.05784 1.09554 -0.07924
 Mn113 Mn 0.00019 1.00008 -0.11067
 Mn114 Mn -0.00005 1.06995 0.00054
 Cl115 Cl -0.00001 1.00008 0.00054
 C116 C -0.07203 1.08159 -0.13202
 C117 C 0.06952 1.08450 -0.13577
 N118 N 0.53431 0.56961 -0.06885
 N119 N 0.55575 0.59721 -0.08310
 N120 N 0.46510 0.54188 -0.11108
 N121 N 0.44217 0.54854 -0.15340
 N122 N 0.46504 0.56940 -0.06818
 N123 N 0.44200 0.59564 -0.08035
 N124 N 0.53431 0.54226 -0.11199
 N125 N 0.55576 0.55047 -0.15663
 C126 C 0.56927 0.58438 -0.13732
 C127 C 0.42775 0.58177 -0.13314
 N128 N 0.46553 0.43053 -0.06822
 N129 N 0.44408 0.40291 -0.08211
 N130 N 0.53465 0.45826 -0.11172
 N131 N 0.55752 0.45163 -0.15442
 N132 N 0.53481 0.43074 -0.06882
 N133 N 0.55784 0.40453 -0.08137
 N134 N 0.46544 0.45788 -0.11136
 N135 N 0.44392 0.44965 -0.15563
 Mn136 Mn 0.49988 0.50007 -0.11203
 C137 C 0.43046 0.41573 -0.13609
 C138 C 0.57199 0.41841 -0.13440
 N139 N 0.46543 0.56961 0.06726
 N140 N 0.44399 0.59727 0.08166
 N141 N 0.53474 0.54189 0.10946
 N142 N 0.55769 0.54850 0.15170
 N143 N 0.53471 0.56940 0.06656
 N144 N 0.55770 0.59560 0.07865
 N145 N 0.46554 0.54225 0.11039
 N146 N 0.44415 0.55051 0.15515
 Mn147 Mn 0.49987 0.56992 -0.00080
 C148 C 0.43056 0.58446 0.13594
 C149 C 0.57202 0.58171 0.13140
 N150 N 0.53469 0.43053 0.06662
 N151 N 0.55614 0.40284 0.08066
 N152 N 0.46548 0.45825 0.11009
 N153 N 0.44258 0.45166 0.15271
 N154 N 0.46541 0.43074 0.06719
 N155 N 0.44241 0.40457 0.07965
 N156 N 0.53468 0.45789 0.10975
 N157 N 0.55614 0.44960 0.15415
 Mn158 Mn 0.50011 0.43022 -0.00081
 Mn159 Mn 0.50011 0.50007 0.11041
 Cl160 Cl 0.49999 0.50007 -0.00081
 C161 C 0.56967 0.41564 0.13471
 C162 C 0.42819 0.41847 0.13264
 C163 C 0.31523 0.32144 0.38450
 C164 C 0.32834 0.33460 0.33837
 C165 C 0.34596 0.35053 0.28732
 C166 C 0.36272 0.36475 0.24661
 C167 C 0.38411 0.38230 0.20264
 C168 C 0.40365 0.39822 0.16859
 C169 C -0.18434 0.82178 0.38599
 C170 C -0.17149 0.83495 0.33962
 C171 C -0.15416 0.85083 0.28823
 C172 C -0.13759 0.86501 0.24724
 C173 C -0.11634 0.88251 0.20306
 C174 C -0.09684 0.89841 0.16895
 C175 C 0.68491 0.67884 0.38195
 C176 C 0.67185 0.66570 0.33589
 C177 C 0.65426 0.64978 0.28499
 C178 C 0.63751 0.63554 0.24446
 C179 C 0.61612 0.61796 0.20076
 C180 C 0.59658 0.60201 0.16697
 C181 C 0.18411 1.17755 0.38529
 C182 C 0.17119 1.16450 0.33905
 C183 C 0.15381 1.14876 0.28780
 C184 C 0.13721 1.13471 0.24692
 C185 C 0.11594 1.11735 0.20285
 C186 C 0.09644 1.10156 0.16884
 C187 C 0.68451 0.32105 -0.38713
 C188 C 0.67151 0.33425 -0.34086
 C189 C 0.65400 0.35024 -0.28965
 C190 C 0.63732 0.36451 -0.24880
 C191 C 0.61600 0.38212 -0.20467
 C192 C 0.59650 0.39809 -0.17049
 C193 C 0.18471 0.82137 -0.38470
 C194 C 0.17185 0.83456 -0.33831
 C195 C 0.15448 0.85048 -0.28693
 C196 C 0.13787 0.86470 -0.24597
 C197 C 0.11657 0.88225 -0.20183
 C198 C 0.09702 0.89819 -0.16777
 C199 C 0.31529 0.67920 -0.38458
 C200 C 0.32825 0.66603 -0.33837
 C201 C 0.34573 0.65005 -0.28731
 C202 C 0.36240 0.63577 -0.24663
 C203 C 0.38372 0.61814 -0.20277
 C204 C 0.40323 0.60213 -0.16885
 C205 C -0.18448 1.17798 -0.38402
 C206 C -0.17156 1.16490 -0.33776
 C207 C -0.15414 1.14912 -0.28653
 C208 C -0.13750 1.13503 -0.24568
 C209 C -0.11618 1.11762 -0.20166
 C210 C -0.09664 1.10178 -0.16769
 C211 C 0.67650 0.68958 -0.39079
 C212 C 0.66228 0.67742 -0.34515
 C213 C 0.64468 0.66083 -0.29467
 C214 C 0.62879 0.64502 -0.25422
 C215 C 0.60917 0.62494 -0.21012
 C216 C 0.59149 0.60681 -0.17529
 C217 C 0.17657 1.18921 -0.39036
 C218 C 0.16241 1.17722 -0.34447
 C219 C 0.14483 1.16079 -0.29376
 C220 C 0.12895 1.14509 -0.25315
 C221 C 0.10934 1.12509 -0.20884
 C222 C 0.09169 1.10699 -0.17386
 C223 C 0.32328 0.31046 -0.38831
 C224 C 0.33744 0.32261 -0.34276
 C225 C 0.35501 0.33919 -0.29242
 C226 C 0.37089 0.35501 -0.25215
 C227 C 0.39052 0.37511 -0.20829
 C228 C 0.40821 0.39327 -0.17372
 C229 C -0.17578 0.81090 -0.38979
 C230 C -0.16165 0.82294 -0.34409
 C231 C -0.14411 0.83942 -0.29355
 C232 C -0.12828 0.85514 -0.25305
 C233 C -0.10874 0.87514 -0.20884
 C234 C -0.09116 0.89323 -0.17392
 C235 C 0.32403 0.68951 0.39108
 C236 C 0.33814 0.67742 0.34522
 C237 C 0.35560 0.66092 0.29442
 C238 C 0.37136 0.64516 0.25369
 C239 C 0.39086 0.62511 0.20924
 C240 C 0.40844 0.60696 0.17415
 C241 C -0.17675 1.18961 0.39165
 C242 C -0.16255 1.17762 0.34579
 C243 C -0.14493 1.16117 0.29505
 C244 C -0.12905 1.14545 0.25441
 C245 C -0.10943 1.12541 0.21005
 C246 C -0.09178 1.10726 0.17503
 C247 C 0.67614 0.31050 0.38860
 C248 C 0.66208 0.32257 0.34283
 C249 C 0.64466 0.33907 0.29218
 C250 C 0.62891 0.35484 0.25161
 C251 C 0.60941 0.37492 0.20741
 C252 C 0.59182 0.39311 0.17257
 C253 C 0.17594 0.81052 0.39111
 C254 C 0.16176 0.82258 0.34542
 C255 C 0.14420 0.83907 0.29486
 C256 C 0.12836 0.85481 0.25433
 C257 C 0.10882 0.87484 0.21007
 C258 C 0.09123 0.89297 0.17510
   
