data_POSCAR
  _audit_creation_date              2014-09-24
  _audit_creation_method            'ToBaCCo'
  _symmetry_space_group_name_H-M    'P1'
  _symmetry_Int_Tables_number       1
  _symmetry_cell_setting            triclinic
  loop_
  _symmetry_equiv_pos_as_xyz
 x,y,z
_cell_length_a 37.5524
_cell_length_b 35.9550
_cell_length_c 15.0091
_cell_angle_alpha 89.431500
_cell_angle_beta 90.509000
_cell_angle_gamma 117.655100
loop_
  _atom_site_label
  _atom_site_type_symbol
  _atom_site_fract_x
  _atom_site_fract_y
  _atom_site_fract_z
O1 O 0.19349 0.45278 0.40680
 O2 O 0.26878 0.47690 0.58440
 O3 O 0.19232 0.45385 0.58049
 O4 O 0.27014 0.47797 0.41092
 O5 O 0.28216 0.54424 0.40993
 O6 O 0.20329 0.51979 0.57812
 O7 O 0.28065 0.54310 0.58291
 O8 O 0.20428 0.51866 0.40570
 Cu9 Cu 0.22992 0.45871 0.49590
 Cu10 Cu 0.24379 0.53808 0.49390
 C11 C 0.18594 0.48140 0.37632
 C12 C 0.28784 0.51414 0.61347
 C13 C 0.18444 0.48252 0.60783
 C14 C 0.28964 0.51537 0.38215
 O15 O 0.62467 -0.17128 0.57829
 O16 O 0.62316 -0.24742 0.41709
 O17 O 0.62788 -0.17434 0.40625
 O18 O 0.62281 -0.24383 0.58993
 O19 O 0.55645 -0.27560 0.58405
 O20 O 0.56156 -0.20213 0.40422
 O21 O 0.55677 -0.27711 0.41165
 O22 O 0.55835 -0.20052 0.57701
 Cu23 Cu 0.63122 -0.20629 0.49884
 Cu24 Cu 0.55145 -0.24183 0.49442
 C25 C 0.59218 -0.17237 0.60461
 C26 C 0.58987 -0.27491 0.38613
 C27 C 0.59581 -0.17623 0.37405
 C28 C 0.58915 -0.27216 0.61697
 O29 O 1.20885 0.77374 0.58020
 O30 O 1.28986 0.81485 0.41471
 O31 O 1.21231 0.76895 0.40705
 O32 O 1.28665 0.81334 0.58772
 O33 O 1.28449 0.75136 0.60851
 O34 O 1.21499 0.70897 0.41825
 O35 O 1.29686 0.75758 0.43141
 O36 O 1.21037 0.71300 0.58487
 Cu37 Cu 1.24898 0.79864 0.49595
 Cu38 Cu 1.25347 0.72765 0.50817
 C39 C 1.19579 0.73666 0.61060
 C40 C 1.30823 0.79386 0.39731
 C41 C 1.20069 0.73134 0.38249
 C42 C 1.29711 0.78936 0.63088
 O43 O 0.77914 0.55344 0.41000
 O44 O 0.69965 0.51267 0.57932
 O45 O 0.77790 0.55479 0.58481
 O46 O 0.70149 0.51050 0.40799
 O47 O 0.70409 0.45039 0.41698
 O48 O 0.78308 0.49604 0.58838
 O49 O 0.70418 0.45363 0.58784
 O50 O 0.78292 0.49394 0.41488
 Cu51 Cu 0.73942 0.53896 0.49501
 Cu52 Cu 0.74429 0.46766 0.50277
 C53 C 0.79428 0.53056 0.38294
 C54 C 0.68773 0.47595 0.61104
 C55 C 0.79369 0.53294 0.61620
 C56 C 0.68899 0.47264 0.38438
 O57 O 0.41435 0.15347 0.59436
 O58 O 0.38600 0.20656 0.41537
 O59 O 0.41817 0.15594 0.41900
 O60 O 0.38493 0.20703 0.59039
 O61 O 0.44582 0.26114 0.59076
 O62 O 0.47899 0.20990 0.42627
 O63 O 0.44714 0.26014 0.42034
 O64 O 0.47442 0.20853 0.60161
 Cu65 Cu 0.39474 0.17522 0.50452
 Cu66 Cu 0.46781 0.23999 0.51006
 C67 C 0.44907 0.17246 0.62964
 C68 C 0.41188 0.24243 0.38761
 C69 C 0.45447 0.17496 0.39295
 C70 C 0.40995 0.24317 0.61861
 O71 O 0.75144 0.19909 0.44602
 O72 O 0.80239 0.27990 0.61699
 O73 O 0.73514 0.20883 0.61100
 O74 O 0.81627 0.26866 0.45201
 O75 O 0.78410 0.30368 0.40670
 O76 O 0.70209 0.24234 0.56213
 O77 O 0.76803 0.31247 0.57119
 O78 O 0.71775 0.23228 0.39915
 Cu79 Cu 0.77954 0.23569 0.53714
 Cu80 Cu 0.73972 0.27616 0.48023
 C81 C 0.72645 0.20224 0.39293
 C82 C 0.79404 0.31022 0.62251
 C83 C 0.70453 0.21509 0.61249
 C84 C 0.81379 0.29601 0.40191
 N85 N 1.03767 0.50292 -0.16225
 N86 N 1.06588 0.50826 -0.22076
 N87 N 0.94945 0.43859 -0.10873
 N88 N 0.91537 0.40368 -0.12120
 N89 N 0.95319 0.46713 -0.16845
 N90 N 0.92176 0.45304 -0.22190
 N91 N 1.03382 0.47412 -0.10318
 N92 N 1.05907 0.45907 -0.11927
 C93 C 1.07910 0.48094 -0.19176
 C94 C 0.89890 0.41351 -0.19267
 N95 N 0.95049 0.45954 0.14975
 N96 N 0.92566 0.43780 0.21456
 N97 N 1.03261 0.47051 0.08711
 N98 N 1.05925 0.45675 0.10028
 N99 N 1.03525 0.49695 0.14984
 N100 N 1.06395 0.50206 0.20752
 N101 N 0.94875 0.43447 0.08473
 N102 N 0.92349 0.39515 0.10440
 Mn103 Mn 0.99092 0.45403 -0.01014
 C104 C 0.90851 0.39790 0.18400
 C105 C 1.07868 0.47699 0.17486
 N106 N 0.95728 0.54805 -0.16261
 N107 N 0.92788 0.54009 -0.22003
 N108 N 1.04092 0.61074 -0.09456
 N109 N 1.06855 0.64972 -0.11000
 N110 N 1.04181 0.58544 -0.15611
 N111 N 1.07018 0.60642 -0.21498
 N112 N 0.95668 0.57233 -0.09847
 N113 N 0.92725 0.58227 -0.11117
 Mn114 Mn 0.99780 0.52601 -0.16321
 C115 C 0.90961 0.56167 -0.18703
 C116 C 1.08677 0.64624 -0.18441
 N117 N 1.03951 0.57978 0.15602
 N118 N 1.06945 0.59878 0.21356
 N119 N 0.95523 0.56841 0.09476
 N120 N 0.92637 0.57883 0.10943
 N121 N 0.95449 0.54130 0.15507
 N122 N 0.92479 0.53198 0.21169
 N123 N 1.03954 0.60675 0.09622
 N124 N 1.06917 0.64455 0.11084
 Mn125 Mn 0.99512 0.51951 0.15383
 Mn126 Mn 0.99791 0.58984 -0.00036
 Cl127 Cl 0.99544 0.52235 -0.00483
 C128 C 1.08765 0.63909 0.18347
 C129 C 0.90763 0.55560 0.18212
 N130 N 0.41745 0.39916 0.09537
 N131 N 0.39683 0.35821 0.11000
 N132 N 0.43421 0.48882 0.15609
 N133 N 0.42520 0.51081 0.21313
 N134 N 0.40525 0.47063 0.09708
 N135 N 0.37525 0.47911 0.11335
 N136 N 0.44572 0.41681 0.15602
 N137 N 0.44559 0.38859 0.21280
 C138 C 0.41506 0.35238 0.18333
 C139 C 0.38856 0.50452 0.18516
 N140 N 0.54757 0.55754 0.09341
 N141 N 0.57154 0.59753 0.10897
 N142 N 0.53097 0.46850 0.15425
 N143 N 0.54252 0.44919 0.21437
 N144 N 0.55836 0.48571 0.09219
 N145 N 0.58970 0.47947 0.10913
 N146 N 0.51999 0.54118 0.15530
 N147 N 0.52424 0.56984 0.21489
 Mn148 Mn 0.48264 0.47888 0.15638
 C149 C 0.55628 0.60478 0.18397
 C150 C 0.57879 0.45575 0.18402
 N151 N 0.40408 0.47170 -0.09595
 N152 N 0.37338 0.47937 -0.11112
 N153 N 0.44380 0.41837 -0.16009
 N154 N 0.44266 0.39041 -0.21771
 N155 N 0.41625 0.40034 -0.09840
 N156 N 0.39521 0.35955 -0.11301
 N157 N 0.43212 0.49027 -0.15645
 N158 N 0.42156 0.51152 -0.21374
 Mn159 Mn 0.41021 0.43503 -0.00048
 C160 C 0.38519 0.50469 -0.18384
 C161 C 0.41227 0.35409 -0.18751
 N162 N 0.55731 0.48667 -0.09933
 N163 N 0.58870 0.48103 -0.11807
 N164 N 0.51814 0.54314 -0.15777
 N165 N 0.52159 0.57279 -0.21523
 N166 N 0.54641 0.55860 -0.09659
 N167 N 0.56998 0.59888 -0.11050
 N168 N 0.52974 0.47091 -0.16199
 N169 N 0.54165 0.45390 -0.22526
 Mn170 Mn 0.55264 0.52217 -0.00263
 Mn171 Mn 0.48085 0.48070 -0.16016
 Cl172 Cl 0.48151 0.47912 -0.00181
 C173 C 0.57800 0.45970 -0.19543
 C174 C 0.55381 0.60735 -0.18358
 N175 N 0.43896 -0.05876 0.11796
 N176 N 0.40572 -0.09251 0.14106
 N177 N 0.49468 0.03336 0.16548
 N178 N 0.50324 0.06518 0.21906
 N179 N 0.46530 0.02818 0.11049
 N180 N 0.45245 0.05610 0.12658
 N181 N 0.46897 -0.05381 0.17066
 N182 N 0.45718 -0.08444 0.23036
 C183 C 0.41781 -0.10825 0.21043
 C184 C 0.47639 0.07852 0.19504
 N185 N 0.59982 0.05425 0.07867
 N186 N 0.63652 0.08459 0.09334
 N187 N 0.55145 -0.03744 0.15177
 N188 N 0.55164 -0.06558 0.20878
 N189 N 0.57596 -0.03187 0.08533
 N190 N 0.59366 -0.05587 0.09492
 N191 N 0.57655 0.04972 0.14720
 N192 N 0.59671 0.07760 0.20938
 Mn193 Mn 0.52281 -0.00224 0.15968
 C194 C 0.63375 0.09962 0.17368
 C195 C 0.57792 -0.07682 0.17156
 N196 N 0.45586 0.02324 -0.08352
 N197 N 0.44453 0.05296 -0.09199
 N198 N 0.45318 -0.06184 -0.13949
 N199 N 0.43467 -0.09340 -0.19487
 N200 N 0.42960 -0.06443 -0.07281
 N201 N 0.39465 -0.09863 -0.07981
 N202 N 0.47799 0.02421 -0.15176
 N203 N 0.48225 0.05424 -0.20825
 Mn204 Mn 0.44693 -0.01780 0.01801
 C205 C 0.46062 0.07122 -0.17132
 C206 C 0.39869 -0.11632 -0.15567
 N207 N 0.56640 -0.03689 -0.10289
 N208 N 0.58664 -0.05711 -0.12378
 N209 N 0.55949 0.04068 -0.16907
 N210 N 0.56827 0.07169 -0.22622
 N211 N 0.58956 0.04925 -0.11373
 N212 N 0.62026 0.08613 -0.13319
 N213 N 0.53627 -0.04598 -0.15835
 N214 N 0.53549 -0.07281 -0.21943
 Mn215 Mn 0.58324 0.00901 -0.01334
 Mn216 Mn 0.50659 -0.01109 -0.15544
 Cl217 Cl 0.51484 -0.00549 0.00232
 C218 C 0.56672 -0.07996 -0.19501
 C219 C 0.60617 0.09938 -0.20355
 N220 N 1.11521 0.43715 0.19991
 N221 N 1.14348 0.43702 0.25305
 C222 C 1.15556 0.47082 0.30606
 C223 C 1.13371 0.49168 0.28431
 N224 N 1.10887 0.46954 0.21790
 H225 H 1.13514 0.51954 0.31466
 N226 N 0.61281 0.67232 0.21510
 N227 N 0.62304 0.70473 0.26863
 C228 C 0.59053 0.69640 0.31863
 C229 C 0.55992 0.65767 0.29462
 N230 N 0.57523 0.64381 0.22990
 H231 H 0.52985 0.64119 0.32160
 N232 N 0.39812 -0.17606 0.28277
 N233 N 0.36828 -0.20380 0.33213
 C234 C 0.34191 -0.18844 0.34259
 C235 C 0.35624 -0.15069 0.29719
 N236 N 0.39125 -0.14418 0.26112
 H237 H 0.34328 -0.12936 0.29319
 N238 N 0.86309 0.58639 0.20921
 N239 N 0.83305 0.58092 0.26243
 C240 C 0.82529 0.54700 0.31371
 C241 C 0.85159 0.53184 0.29055
 N242 N 0.87464 0.55733 0.22528
 H243 H 0.85413 0.50539 0.31908
 N244 N 0.36994 0.27779 0.21173
 N245 N 0.36780 0.24753 0.26639
 C246 C 0.40141 0.26435 0.31719
 C247 C 0.42408 0.30563 0.29225
 N248 N 0.40352 0.31283 0.22659
 H249 H 0.45256 0.32842 0.31990
 N250 N 0.70422 0.13037 0.21460
 N251 N 0.72956 0.15656 0.27386
 C252 C 0.70872 0.17143 0.32151
 C253 C 0.66963 0.15343 0.28999
 N254 N 0.66820 0.12801 0.22334
 H255 H 0.64472 0.15784 0.31378
 N256 N 0.49599 0.14582 -0.19785
 N257 N 0.49493 0.17361 -0.25495
 C258 C 0.45992 0.15405 -0.30009
 C259 C 0.43925 0.11335 -0.26784
 N260 N 0.46267 0.10967 -0.20343
 H261 H 0.41171 0.08805 -0.29355
 N262 N 0.60867 0.41676 -0.24437
 N263 N 0.63908 0.42059 -0.29473
 C264 C 0.65564 0.45975 -0.32979
 C265 C 0.63440 0.47974 -0.29969
 N266 N 0.60529 0.45177 -0.24746
 H267 H 0.63962 0.51148 -0.31374
 N268 N 0.83585 0.40272 -0.25648
 N269 N 0.80736 0.37576 -0.30922
 C270 C 0.81425 0.34235 -0.31696
 C271 C 0.84752 0.34926 -0.26550
 N272 N 0.86006 0.38740 -0.22916
 H273 H 0.86348 0.33076 -0.26274
 N274 N 0.62202 -0.09033 -0.24530
 N275 N 0.63004 -0.11444 -0.29857
 C276 C 0.59489 -0.14188 -0.33566
 C277 C 0.56471 -0.13354 -0.30397
 N278 N 0.58324 -0.10100 -0.24780
 H279 H 0.53289 -0.14942 -0.31944
 N280 N 0.36845 0.55879 -0.23753
 N281 N 0.34243 0.56244 -0.29269
 C282 C 0.31750 0.52341 -0.32184
 C283 C 0.32871 0.49563 -0.28202
 N284 N 0.36037 0.51895 -0.22985
 H285 H 0.31637 0.46218 -0.29288
 N286 N 1.12521 0.72083 -0.21796
 N287 N 1.15375 0.74598 -0.27324
 C288 C 1.16399 0.72123 -0.32237
 C289 C 1.14092 0.68016 -0.29578
 N290 N 1.11718 0.68132 -0.23066
 H291 H 1.14134 0.65226 -0.32107
 N292 N 0.86320 0.59083 -0.21236
 N293 N 0.83226 0.58437 -0.26481
 C294 C 0.82500 0.55068 -0.31517
 C295 C 0.85240 0.53677 -0.29250
 N296 N 0.87566 0.56263 -0.22841
 H297 H 0.85555 0.51084 -0.32069
 N298 N 0.36670 0.27952 -0.21389
 N299 N 0.36464 0.24886 -0.26589
 C300 C 0.39823 0.26549 -0.31599
 C301 C 0.42075 0.30699 -0.29348
 N302 N 0.40020 0.31455 -0.22986
 H303 H 0.44947 0.32952 -0.32046
 N304 N 0.60982 0.15985 -0.28265
 N305 N 0.63538 0.19128 -0.33260
 C306 C 0.67051 0.18967 -0.32969
 C307 C 0.66594 0.15651 -0.27542
 N308 N 0.62763 0.13885 -0.24758
 H309 H 0.68711 0.14436 -0.26352
 N310 N 1.11160 0.43796 -0.22124
 N311 N 1.13919 0.43697 -0.27393
 C312 C 1.15324 0.47196 -0.32472
 C313 C 1.13327 0.49452 -0.30198
 N314 N 1.10753 0.47206 -0.23720
 H315 H 1.13684 0.52394 -0.32986
 N316 N 0.61163 0.67314 -0.21871
 N317 N 0.62235 0.70593 -0.27236
 C318 C 0.58903 0.70033 -0.31739
 C319 C 0.55732 0.66276 -0.29010
 N320 N 0.57297 0.64685 -0.22877
 H321 H 0.52656 0.64792 -0.31406
 N322 N 0.34907 -0.19019 -0.16126
 N323 N 0.32235 -0.21676 -0.21818
 C324 C 0.32351 -0.19416 -0.29145
 C325 C 0.35171 -0.15311 -0.27816
 N326 N 0.36683 -0.15200 -0.19638
 H327 H 0.36037 -0.12663 -0.32320
 N328 N 0.62410 -0.10599 0.18985
 N329 N 0.63009 -0.13209 0.24319
 C330 C 0.59909 -0.14792 0.30066
 C331 C 0.57391 -0.13065 0.28161
 N332 N 0.59074 -0.10460 0.21218
 H333 H 0.54699 -0.13535 0.31641
 N334 N 0.37875 0.56030 0.25231
 N335 N 0.35268 0.56446 0.30494
 C336 C 0.32215 0.52557 0.31810
 C337 C 0.33005 0.49743 0.27129
 N338 N 0.36544 0.52041 0.23092
 H339 H 0.31311 0.46350 0.27105
 N340 N 1.13178 0.71304 0.20436
 N341 N 1.16177 0.73863 0.25584
 C342 C 1.17015 0.71426 0.31197
 C343 C 1.14407 0.67259 0.29371
 N344 N 1.12060 0.67341 0.22612
 H345 H 1.14179 0.64477 0.32718
 N346 N 0.51111 0.15145 0.23559
 N347 N 0.50679 0.17765 0.29031
 C348 C 0.46923 0.15730 0.32323
 C349 C 0.45030 0.11773 0.28581
 N350 N 0.47750 0.11560 0.23099
 H351 H 0.42111 0.09212 0.30204
 N352 N 0.59853 0.40956 0.26700
 N353 N 0.62836 0.41292 0.31986
 C354 C 0.65528 0.45405 0.32179
 C355 C 0.64127 0.47577 0.26842
 N356 N 0.60605 0.44696 0.23540
 H357 H 0.65404 0.50942 0.25908
 N358 N 0.88922 0.32722 0.23605
 N359 N 0.86515 0.29964 0.29511
 C360 C 0.84509 0.31759 0.33536
 C361 C 0.85770 0.35725 0.29959
 N362 N 0.88524 0.36189 0.23794
 H363 H 0.84782 0.38022 0.31620
   
