data_POSCAR
  _audit_creation_date              2014-09-24
  _audit_creation_method            'ToBaCCo'
  _symmetry_space_group_name_H-M    'P1'
  _symmetry_Int_Tables_number       1
  _symmetry_cell_setting            triclinic
  loop_
  _symmetry_equiv_pos_as_xyz
 x,y,z
_cell_length_a 40.1192
_cell_length_b 40.0575
_cell_length_c 50.1043
_cell_angle_alpha 89.910100
_cell_angle_beta 90.047300
_cell_angle_gamma 90.029900
loop_
  _atom_site_label
  _atom_site_type_symbol
  _atom_site_fract_x
  _atom_site_fract_y
  _atom_site_fract_z
Si1 Si 1.24864 0.25137 0.25015
 Si2 Si 0.75039 -0.24915 0.25007
 Si3 Si 0.74860 0.24970 -0.24990
 Si4 Si 1.25057 -0.24999 -0.24984
 Si5 Si 0.25144 0.25041 0.74993
 Si6 Si 0.74961 0.75094 0.75005
 Si7 Si 0.75192 0.24916 0.25015
 Si8 Si 0.24945 0.74918 0.24997
 O9 O 1.05833 0.01671 0.03324
 O10 O 0.94396 -0.01735 0.03311
 O11 O 0.98400 0.05686 0.03295
 O12 O 1.01856 -0.05765 0.03330
 O13 O 0.93791 0.03874 0.01808
 O14 O 1.06463 -0.03943 0.01845
 O15 O 0.96241 -0.06362 0.01868
 O16 O 1.04004 0.06289 0.01841
 C17 C 1.05425 0.04688 0.03646
 C18 C 0.94806 -0.04750 0.03654
 C19 C 0.95384 0.05299 0.03611
 C20 C 1.04877 -0.05390 0.03644
 O21 O 1.05828 -0.01806 -0.03309
 O22 O 0.94426 0.01729 -0.03340
 O23 O 1.01910 0.05652 -0.03330
 O24 O 0.98334 -0.05760 -0.03303
 O25 O 0.93749 -0.03877 -0.01829
 O26 O 1.06500 0.03797 -0.01833
 O27 O 1.03940 -0.06409 -0.01841
 O28 O 0.96309 0.06334 -0.01881
 Co29 Co 1.05569 -0.00066 0.00006
 Co30 Co 0.94676 -0.00005 -0.00012
 Co31 Co 1.00153 0.05407 -0.00017
 Co32 Co 1.00095 -0.05492 0.00012
 O33 O 1.00123 -0.00040 -0.00003
 C34 C 1.05389 -0.04818 -0.03637
 C35 C 0.94845 0.04747 -0.03670
 C36 C 1.04924 0.05243 -0.03638
 C37 C 0.95323 -0.05328 -0.03626
 O38 O 1.06357 0.53958 0.51846
 O39 O 0.93660 0.46231 0.51930
 O40 O 0.96159 0.56451 0.51874
 O41 O 1.03865 0.43735 0.51898
 O42 O 0.94325 0.51848 0.53379
 O43 O 1.05740 0.48351 0.53341
 O44 O 0.98269 0.44379 0.53397
 O45 O 1.01765 0.55813 0.53331
 C46 C 1.04778 0.55396 0.53647
 C47 C 0.95256 0.44784 0.53725
 C48 C 0.94731 0.54869 0.53685
 C49 C 1.05327 0.45335 0.53680
 O50 O 1.06326 0.46220 0.48189
 O51 O 0.93650 0.53939 0.48210
 O52 O 1.03853 0.56445 0.48160
 O53 O 0.96121 0.43719 0.48245
 O54 O 0.94268 0.48323 0.46758
 O55 O 1.05687 0.51832 0.46691
 O56 O 1.01714 0.44345 0.46747
 O57 O 0.98245 0.55779 0.46709
 Co58 Co 1.05445 0.50090 0.50019
 Co59 Co 0.94560 0.50086 0.50067
 Co60 Co 1.00005 0.55536 0.50021
 Co61 Co 0.99993 0.44630 0.50070
 O62 O 1.00001 0.50085 0.50044
 C63 C 1.04720 0.44773 0.46404
 C64 C 0.95231 0.55365 0.46398
 C65 C 1.05297 0.54854 0.46366
 C66 C 0.94673 0.45304 0.46444
 O67 O 0.55579 0.01636 0.53262
 O68 O 0.44143 -0.01791 0.53186
 O69 O 0.48132 0.05629 0.53231
 O70 O 0.51598 -0.05814 0.53193
 O71 O 0.43532 0.03828 0.51713
 O72 O 0.56209 -0.03965 0.51737
 O73 O 0.45995 -0.06400 0.51714
 O74 O 0.53745 0.06268 0.51809
 C75 C 0.55185 0.04654 0.53598
 C76 C 0.44558 -0.04808 0.53511
 C77 C 0.45112 0.05244 0.53529
 C78 C 0.54611 -0.05413 0.53526
 O79 O 0.55611 -0.01774 0.46602
 O80 O 0.44206 0.01727 0.46557
 O81 O 0.51685 0.05680 0.46621
 O82 O 0.48107 -0.05738 0.46549
 O83 O 0.43510 -0.03890 0.48026
 O84 O 0.56266 0.03817 0.48125
 O85 O 0.53709 -0.06396 0.48025
 O86 O 0.46076 0.06319 0.48052
 Co87 Co 0.55330 -0.00070 0.49929
 Co88 Co 0.44435 -0.00033 0.49873
 Co89 Co 0.49906 0.05391 0.49925
 Co90 Co 0.49855 -0.05506 0.49873
 O91 O 0.49882 -0.00055 0.49900
 C92 C 0.55171 -0.04782 0.46249
 C93 C 0.44643 0.04743 0.46242
 C94 C 0.54701 0.05276 0.46321
 C95 C 0.45090 -0.05342 0.46231
 O96 O 0.56347 0.53848 0.01954
 O97 O 0.43665 0.46219 0.01966
 O98 O 0.46153 0.56432 0.01980
 O99 O 0.53857 0.43641 0.01803
 O100 O 0.44327 0.51815 0.03454
 O101 O 0.55723 0.48207 0.03336
 O102 O 0.48282 0.44289 0.03364
 O103 O 0.51759 0.55716 0.03451
 C104 C 0.54769 0.55273 0.03765
 C105 C 0.45282 0.44741 0.03732
 C106 C 0.44712 0.54837 0.03776
 C107 C 0.55339 0.45178 0.03607
 O108 O 0.56282 0.46229 -0.01875
 O109 O 0.43656 0.53965 -0.01711
 O110 O 0.53869 0.56453 -0.01690
 O111 O 0.46061 0.43738 -0.01761
 O112 O 0.44231 0.48370 -0.03201
 O113 O 0.55654 0.51872 -0.03248
 O114 O 0.51648 0.44386 -0.03311
 O115 O 0.48259 0.55840 -0.03176
 Co116 Co 0.55421 0.50042 0.00046
 Co117 Co 0.44548 0.50090 0.00123
 Co118 Co 0.50007 0.55520 0.00135
 Co119 Co 0.49963 0.44604 0.00029
 O120 O 0.49985 0.50063 0.00084
 C121 C 0.54658 0.44796 -0.03661
 C122 C 0.45247 0.55420 -0.03503
 C123 C 0.55278 0.54901 -0.03521
 C124 C 0.44617 0.45354 -0.03544
 C125 C 1.22265 0.22567 0.22891
 C126 C 1.20569 0.20895 0.21427
 C127 C 1.18581 0.18933 0.19628
 C128 C 1.18769 0.15446 0.19688
 C129 C 1.16948 0.13549 0.17855
 C130 C 1.14917 0.15121 0.15938
 C131 C 1.14712 0.18628 0.15921
 C132 C 1.16535 0.20518 0.17753
 C133 C 1.13107 0.13126 0.13906
 C134 C 1.09854 0.14006 0.13121
 C135 C 1.08219 0.12218 0.11115
 C136 C 1.09810 0.09531 0.09872
 C137 C 1.13023 0.08605 0.10666
 C138 C 1.14662 0.10387 0.12671
 C139 C 1.08202 0.07796 0.07715
 C140 C 1.06907 0.06366 0.05873
 H141 H 1.20345 0.14195 0.21133
 H142 H 1.17127 0.10853 0.17938
 H143 H 1.13210 0.19913 0.14446
 H144 H 1.16386 0.23218 0.17682
 H145 H 1.08578 0.16077 0.14057
 H146 H 1.05729 0.12953 0.10515
 H147 H 1.14283 0.06538 0.09706
 H148 H 1.17181 0.09677 0.13204
 C149 C 1.22512 0.72384 0.72888
 C150 C 1.20861 0.70673 0.71421
 C151 C 1.18928 0.68664 0.69619
 C152 C 1.20535 0.66697 0.67709
 C153 C 1.18669 0.64853 0.65875
 C154 C 1.15164 0.64957 0.65926
 C155 C 1.13570 0.66909 0.67878
 C156 C 1.15444 0.68752 0.69712
 C157 C 1.13190 0.63127 0.63894
 C158 C 1.10392 0.64631 0.62699
 C159 C 1.08626 0.62979 0.60693
 C160 C 1.09627 0.59803 0.59857
 C161 C 1.12374 0.58262 0.61060
 C162 C 1.14146 0.59911 0.63068
 C163 C 1.07901 0.58185 0.57702
 C164 C 1.06469 0.56884 0.55865
 H165 H 1.23232 0.66627 0.67612
 H166 H 1.19968 0.63414 0.64373
 H167 H 1.10877 0.67009 0.67987
 H168 H 1.14176 0.70267 0.71185
 H169 H 1.09622 0.67122 0.63265
 H170 H 1.06512 0.64199 0.59764
 H171 H 1.13166 0.55802 0.60428
 H172 H 1.16264 0.58674 0.63973
 C173 C 0.72269 0.22384 0.72876
 C174 C 0.70581 0.20716 0.71399
 C175 C 0.68597 0.18768 0.69579
 C176 C 0.66454 0.20367 0.67781
 C177 C 0.64626 0.18499 0.65934
 C178 C 0.64920 0.14999 0.65857
 C179 C 0.67052 0.13412 0.67695
 C180 C 0.68878 0.15286 0.69542
 C181 C 0.63082 0.13031 0.63817
 C182 C 0.64644 0.10355 0.62499
 C183 C 0.62968 0.08591 0.60500
 C184 C 0.59708 0.09468 0.59793
 C185 C 0.58115 0.12095 0.61115
 C186 C 0.59787 0.13865 0.63114
 C187 C 0.58050 0.07742 0.57649
 C188 C 0.56713 0.06320 0.55818
 H189 H 0.66231 0.23062 0.67782
 H190 H 0.63046 0.19801 0.64523
 H191 H 0.67303 0.10721 0.67708
 H192 H 0.70529 0.14022 0.70926
 H193 H 0.67192 0.09680 0.62964
 H194 H 0.64232 0.06573 0.59480
 H195 H 0.55591 0.12795 0.60585
 H196 H 0.58502 0.15883 0.64114
 C197 C 0.72512 0.72460 0.22873
 C198 C 0.70875 0.70733 0.21408
 C199 C 0.68961 0.68696 0.19613
 C200 C 0.70561 0.66997 0.17541
 C201 C 0.68704 0.65111 0.15729
 C202 C 0.65216 0.64905 0.15965
 C203 C 0.63633 0.66590 0.18076
 C204 C 0.65498 0.68475 0.19888
 C205 C 0.63236 0.63028 0.13965
 C206 C 0.60228 0.64348 0.12977
 C207 C 0.58449 0.62669 0.10991
 C208 C 0.59647 0.59651 0.09972
 C209 C 0.62606 0.58287 0.10971
 C210 C 0.64391 0.59962 0.12957
 C211 C 0.57908 0.58031 0.07825
 C212 C 0.56468 0.56737 0.05988
 H213 H 0.73241 0.67166 0.17305
 H214 H 0.69989 0.63884 0.14104
 H215 H 0.60957 0.66446 0.18326
 H216 H 0.64238 0.69779 0.21488
 H217 H 0.59298 0.66724 0.13685
 H218 H 0.56170 0.63754 0.10219
 H219 H 0.63553 0.55950 0.10194
 H220 H 0.66676 0.58864 0.13702
 C221 C 0.77686 -0.22332 0.22928
 C222 C 0.79416 -0.20667 0.21482
 C223 C 0.81447 -0.18729 0.19695
 C224 C 0.83569 -0.20340 0.17897
 C225 C 0.85425 -0.18480 0.16064
 C226 C 0.85177 -0.14977 0.16003
 C227 C 0.83073 -0.13376 0.17847
 C228 C 0.81219 -0.15244 0.19681
 C229 C 0.87014 -0.13020 0.13961
 C230 C 0.85453 -0.10341 0.12639
 C231 C 0.87117 -0.08601 0.10621
 C232 C 0.90361 -0.09508 0.09901
 C233 C 0.91956 -0.12134 0.11231
 C234 C 0.90296 -0.13880 0.13250
 C235 C 0.91996 -0.07815 0.07735
 C236 C 0.93310 -0.06411 0.05886
 H237 H 0.83748 -0.23039 0.17883
 H238 H 0.86984 -0.19788 0.14647
 H239 H 0.82860 -0.10682 0.17870
 H240 H 0.79583 -0.13972 0.21066
 H241 H 0.82914 -0.09649 0.13113
 H242 H 0.85854 -0.06582 0.09594
 H243 H 0.94469 -0.12853 0.10689
 H244 H 0.91576 -0.15903 0.14253
 C245 C 0.77437 0.27604 0.72902
 C246 C 0.79101 0.29319 0.71439
 C247 C 0.81044 0.31331 0.69634
 C248 C 0.84530 0.31254 0.69741
 C249 C 0.86409 0.33102 0.67909
 C250 C 0.84823 0.35053 0.65943
 C251 C 0.81317 0.35143 0.65877
 C252 C 0.79445 0.33293 0.67708
 C253 C 0.86806 0.36907 0.63921
 C254 C 0.85830 0.40115 0.63078
 C255 C 0.87616 0.41791 0.61087
 C256 C 0.90399 0.40286 0.59914
 C257 C 0.91418 0.37118 0.60765
 C258 C 0.89639 0.35439 0.62755
 C259 C 0.92141 0.41934 0.57772
 C260 C 0.93576 0.43264 0.55943
 H261 H 0.85794 0.29744 0.71224
 H262 H 0.89102 0.33011 0.68032
 H263 H 0.80020 0.36579 0.64366
 H264 H 0.76748 0.33357 0.67598
 H265 H 0.83687 0.41329 0.63959
 H266 H 0.86805 0.44244 0.60445
 H267 H 0.93559 0.35922 0.59861
 H268 H 0.90429 0.32956 0.63331
 C269 C 0.27686 -0.22414 0.72923
 C270 C 0.29399 -0.20749 0.71465
 C271 C 0.31404 -0.18808 0.69660
 C272 C 0.33576 -0.20413 0.67897
 C273 C 0.35401 -0.18555 0.66042
 C274 C 0.35069 -0.15061 0.65924
 C275 C 0.32917 -0.13465 0.67734
 C276 C 0.31095 -0.15331 0.69589
 C277 C 0.36870 -0.13111 0.63856
 C278 C 0.35255 -0.10499 0.62491
 C279 C 0.36891 -0.08761 0.60457
 C280 C 0.40160 -0.09605 0.59762
 C281 C 0.41808 -0.12166 0.61131
 C282 C 0.40175 -0.13909 0.63167
 C283 C 0.41775 -0.07905 0.57589
 C284 C 0.43074 -0.06489 0.55739
 H285 H 0.33819 -0.23107 0.67926
 H286 H 0.37000 -0.19861 0.64652
 H287 H 0.32639 -0.10777 0.67713
 H288 H 0.29418 -0.14065 0.70946
 H289 H 0.32698 -0.09856 0.62947
 H290 H 0.35589 -0.06792 0.59401
 H291 H 0.44341 -0.12835 0.60610
 H292 H 0.41497 -0.15880 0.64203
 C293 C 0.27444 0.27773 0.22926
 C294 C 0.29123 0.29492 0.21483
 C295 C 0.31090 0.31506 0.19704
 C296 C 0.34572 0.31327 0.19777
 C297 C 0.36474 0.33167 0.17958
 C298 C 0.34911 0.35209 0.16042
 C299 C 0.31410 0.35408 0.16014
 C300 C 0.29515 0.33566 0.17832
 C301 C 0.36910 0.37032 0.14018
 C302 C 0.36029 0.40289 0.13235
 C303 C 0.37813 0.41931 0.11228
 C304 C 0.40497 0.40341 0.09983
 C305 C 0.41427 0.37124 0.10778
 C306 C 0.39649 0.35479 0.12784
 C307 C 0.42219 0.41951 0.07820
 C308 C 0.43632 0.43250 0.05970
 H309 H 0.35814 0.29739 0.21220
 H310 H 0.39165 0.32993 0.18049
 H311 H 0.30133 0.36918 0.14539
 H312 H 0.26820 0.33707 0.17751
 H313 H 0.33958 0.41564 0.14170
 H314 H 0.37074 0.44423 0.10626
 H315 H 0.43491 0.35866 0.09817
 H316 H 0.40360 0.32957 0.13317
 C317 C 0.77467 0.22364 -0.22878
 C318 C 0.79157 0.20671 -0.21417
 C319 C 0.81135 0.18684 -0.19616
 C320 C 0.84497 0.19455 -0.19194
 C321 C 0.86375 0.17618 -0.17352
 C322 C 0.84911 0.14983 -0.15906
 C323 C 0.81539 0.14202 -0.16373
 C324 C 0.79667 0.16043 -0.18213
 C325 C 0.86857 0.13117 -0.13865
 C326 C 0.86469 0.09643 -0.13569
 C327 C 0.88197 0.07917 -0.11572
 C328 C 0.90337 0.09634 -0.09846
 C329 C 0.90775 0.13081 -0.10146
 C330 C 0.89052 0.14812 -0.12142
 C331 C 0.91990 0.07886 -0.07707
 C332 C 0.93322 0.06442 -0.05882
 H333 H 0.85660 0.21494 -0.20269
 H334 H 0.88973 0.18255 -0.17063
 H335 H 0.80325 0.12222 -0.15267
 H336 H 0.77062 0.15435 -0.18513
 H337 H 0.84832 0.08260 -0.14884
 H338 H 0.87839 0.05248 -0.11359
 H339 H 0.92411 0.14440 -0.08811
 H340 H 0.89371 0.17489 -0.12291
 C341 C 0.77574 0.72482 0.27156
 C342 C 0.79213 0.70769 0.28633
 C343 C 0.81125 0.68749 0.30445
 C344 C 0.84604 0.68665 0.30259
 C345 C 0.86462 0.66800 0.32092
 C346 C 0.84858 0.64997 0.34134
 C347 C 0.81357 0.65065 0.34279
 C348 C 0.79506 0.66932 0.32447
 C349 C 0.86824 0.63139 0.36158
 C350 C 0.85744 0.60003 0.37089
 C351 C 0.87514 0.58336 0.39091
 C352 C 0.90382 0.59779 0.40184
 C353 C 0.91506 0.62870 0.39243
 C354 C 0.89742 0.64541 0.37241
 C355 C 0.92108 0.58153 0.42338
 C356 C 0.93540 0.56849 0.44177
 H357 H 0.85880 0.70062 0.28714
 H358 H 0.89151 0.66763 0.31910
 H359 H 0.80053 0.63744 0.35850
 H360 H 0.76814 0.66994 0.32614
 H361 H 0.83531 0.58843 0.36270
 H362 H 0.86626 0.55942 0.39806
 H363 H 0.93715 0.64015 0.40086
 H364 H 0.90610 0.66970 0.36593
 C365 C 0.27467 0.22514 0.27100
 C366 C 0.29161 0.20801 0.28538
 C367 C 0.31145 0.18787 0.30306
 C368 C 0.34494 0.19587 0.30758
 C369 C 0.36376 0.17725 0.32577
 C370 C 0.34926 0.15037 0.33969
 C371 C 0.31571 0.14224 0.33469
 C372 C 0.29695 0.16091 0.31651
 C373 C 0.36864 0.13159 0.36000
 C374 C 0.36529 0.09674 0.36238
 C375 C 0.38230 0.07936 0.38240
 C376 C 0.40288 0.09656 0.40027
 C377 C 0.40681 0.13114 0.39781
 C378 C 0.38984 0.14856 0.37780
 C379 C 0.41890 0.07899 0.42178
 C380 C 0.43176 0.06448 0.44017
 H381 H 0.35640 0.21670 0.29726
 H382 H 0.38962 0.18386 0.32896
 H383 H 0.30371 0.12202 0.34535
 H384 H 0.27099 0.15462 0.31325
 H385 H 0.34947 0.08294 0.34878
 H386 H 0.37910 0.05259 0.38414
 H387 H 0.42254 0.14471 0.41164
 H388 H 0.39258 0.17542 0.37673
 C389 C 0.27609 0.72405 -0.22842
 C390 C 0.29259 0.70705 -0.21363
 C391 C 0.31186 0.68707 -0.19544
 C392 C 0.29568 0.66728 -0.17641
 C393 C 0.31424 0.64889 -0.15794
 C394 C 0.34929 0.65011 -0.15824
 C395 C 0.36534 0.66976 -0.17768
 C396 C 0.34670 0.68813 -0.19616
 C397 C 0.36890 0.63182 -0.13781
 C398 C 0.39671 0.64694 -0.12569
 C399 C 0.41426 0.63039 -0.10553
 C400 C 0.40429 0.59855 -0.09726
 C401 C 0.37698 0.58307 -0.10945
 C402 C 0.35938 0.59958 -0.12961
 C403 C 0.42145 0.58231 -0.07565
 C404 C 0.43568 0.56921 -0.05724
 H405 H 0.26870 0.66643 -0.17561
 H406 H 0.30116 0.63439 -0.14300
 H407 H 0.39228 0.67090 -0.17860
 H408 H 0.35945 0.70338 -0.21083
 H409 H 0.40437 0.67190 -0.13129
 H410 H 0.43528 0.64265 -0.09613
 H411 H 0.36910 0.55840 -0.10319
 H412 H 0.33833 0.58715 -0.13879
 C413 C 1.22415 -0.22421 -0.22904
 C414 C 1.20689 -0.20765 -0.21455
 C415 C 1.18665 -0.18839 -0.19660
 C416 C 1.16669 -0.20465 -0.17774
 C417 C 1.14820 -0.18612 -0.15938
 C418 C 1.14946 -0.15102 -0.15963
 C419 C 1.16924 -0.13489 -0.17893
 C420 C 1.18773 -0.15349 -0.19729
 C421 C 1.13114 -0.13145 -0.13923
 C422 C 1.14621 -0.10365 -0.12702
 C423 C 1.12968 -0.08620 -0.10687
 C424 C 1.09788 -0.09623 -0.09868
 C425 C 1.08244 -0.12352 -0.11096
 C426 C 1.09894 -0.14103 -0.13112
 C427 C 1.08168 -0.07918 -0.07705
 C428 C 1.06868 -0.06500 -0.05861
 H429 H 1.16584 -0.23167 -0.17695
 H430 H 1.13361 -0.19928 -0.14454
 H431 H 1.17042 -0.10790 -0.17982
 H432 H 1.20311 -0.14067 -0.21182
 H433 H 1.17115 -0.09595 -0.13255
 H434 H 1.14191 -0.06520 -0.09740
 H435 H 1.05780 -0.13146 -0.10477
 H436 H 1.08653 -0.16206 -0.14037
 C437 C 1.22266 0.27700 0.27139
 C438 C 1.20566 0.29368 0.28599
 C439 C 1.18565 0.31321 0.30390
 C440 C 1.16026 0.29790 0.31862
 C441 C 1.14172 0.31645 0.33694
 C442 C 1.14841 0.35059 0.34081
 C443 C 1.17371 0.36585 0.32564
 C444 C 1.19221 0.34724 0.30731
 C445 C 1.12979 0.36985 0.36121
 C446 C 1.14655 0.39258 0.37788
 C447 C 1.12937 0.40948 0.39799
 C448 C 1.09525 0.40394 0.40167
 C449 C 1.07822 0.38180 0.38492
 C450 C 1.09536 0.36486 0.36480
 C451 C 1.07803 0.41997 0.42328
 C452 C 1.06384 0.43290 0.44174
 H453 H 1.15510 0.27152 0.31622
 H454 H 1.12276 0.30388 0.34859
 H455 H 1.17917 0.39217 0.32796
 H456 H 1.21181 0.35932 0.29599
 H457 H 1.17312 0.39662 0.37586
 H458 H 1.14280 0.42645 0.41095
 H459 H 1.05179 0.37735 0.38761
 H460 H 1.08171 0.34783 0.35207
 C461 C 0.72380 -0.22340 0.27073
 C462 C 0.70640 -0.20684 0.28512
 C463 C 0.68594 -0.18760 0.30291
 C464 C 0.66631 -0.20385 0.32199
 C465 C 0.64756 -0.18531 0.34018
 C466 C 0.64827 -0.15020 0.33954
 C467 C 0.66774 -0.13408 0.32003
 C468 C 0.68646 -0.15270 0.30184
 C469 C 0.62969 -0.13058 0.35975
 C470 C 0.64438 -0.10241 0.37169
 C471 C 0.62765 -0.08496 0.39174
 C472 C 0.59604 -0.09537 0.40010
 C473 C 0.58095 -0.12301 0.38805
 C474 C 0.59765 -0.14052 0.36799
 C475 C 0.57973 -0.07841 0.42172
 C476 C 0.56663 -0.06438 0.44018
 H477 H 0.66588 -0.23087 0.32308
 H478 H 0.63323 -0.19844 0.35519
 H479 H 0.66848 -0.10710 0.31885
 H480 H 0.70159 -0.13988 0.28713
 H481 H 0.66918 -0.09441 0.36606
 H482 H 0.63961 -0.06368 0.40104
 H483 H 0.55647 -0.13125 0.39436
 H484 H 0.58553 -0.16186 0.35894
 C485 C 0.72247 0.27540 -0.22868
 C486 C 0.70543 0.29209 -0.21406
 C487 C 0.68538 0.31162 -0.19610
 C488 C 0.69109 0.34592 -0.19339
 C489 C 0.67256 0.36457 -0.17508
 C490 C 0.64804 0.34913 -0.15920
 C491 C 0.64222 0.31470 -0.16234
 C492 C 0.66079 0.29611 -0.18065
 C493 C 0.62928 0.36854 -0.13891
 C494 C 0.59512 0.36262 -0.13461
 C495 C 0.57789 0.37986 -0.11466
 C496 C 0.59454 0.40325 -0.09877
 C497 C 0.62839 0.40968 -0.10314
 C498 C 0.64566 0.39249 -0.12308
 C499 C 0.57728 0.41966 -0.07730
 C500 C 0.56311 0.43288 -0.05892
 H501 H 0.71006 0.35819 -0.20526
 H502 H 0.67735 0.39109 -0.17336
 H503 H 0.62388 0.30197 -0.15018
 H504 H 0.65627 0.26954 -0.18248
 H505 H 0.58171 0.34467 -0.14667
 H506 H 0.55169 0.37468 -0.11146
 H507 H 0.64158 0.42759 -0.09086
 H508 H 0.67202 0.39730 -0.12562
 C509 C 1.22604 0.22425 -0.22865
 C510 C 1.20960 0.20714 -0.21389
 C511 C 1.19035 0.18704 -0.19575
 C512 C 1.15551 0.18838 -0.19625
 C513 C 1.13690 0.16987 -0.17785
 C514 C 1.15295 0.14978 -0.15869
 C515 C 1.18800 0.14829 -0.15860
 C516 C 1.20654 0.16682 -0.17700
 C517 C 1.13335 0.13126 -0.13835
 C518 C 1.14272 0.09885 -0.13048
 C519 C 1.12506 0.08206 -0.11049
 C520 C 1.09783 0.09743 -0.09814
 C521 C 1.08804 0.12946 -0.10607
 C522 C 1.10564 0.14628 -0.12605
 C523 C 1.08056 0.08088 -0.07673
 C524 C 1.06621 0.06757 -0.05846
 H525 H 1.14273 0.20394 -0.21070
 H526 H 1.10996 0.17122 -0.17863
 H527 H 1.20111 0.13346 -0.14387
 H528 H 1.23351 0.16574 -0.17636
 H529 H 1.16367 0.08647 -0.13979
 H530 H 1.13282 0.05725 -0.10451
 H531 H 1.06709 0.14164 -0.09655
 H532 H 1.09809 0.17137 -0.13139
 C533 C 1.22505 0.72450 0.27018
 C534 C 1.20837 0.70758 0.28497
 C535 C 1.18889 0.68774 0.30323
 C536 C 1.20386 0.66157 0.31737
 C537 C 1.18544 0.64322 0.33600
 C538 C 1.15172 0.65083 0.34082
 C539 C 1.13679 0.67694 0.32627
 C540 C 1.15527 0.69526 0.30762
 C541 C 1.13254 0.63218 0.36143
 C542 C 1.11052 0.64907 0.37859
 C543 C 1.09345 0.63178 0.39865
 C544 C 1.09806 0.59737 0.40184
 C545 C 1.11959 0.58025 0.38467
 C546 C 1.13671 0.59750 0.36460
 C547 C 1.08159 0.57989 0.42327
 C548 C 1.06825 0.56546 0.44153
 H549 H 1.22992 0.65565 0.31427
 H550 H 1.19782 0.62361 0.34712
 H551 H 1.11080 0.68316 0.32925
 H552 H 1.14341 0.71546 0.29681
 H553 H 1.10710 0.67581 0.37695
 H554 H 1.07699 0.64534 0.41190
 H555 H 1.12336 0.55362 0.38693
 H556 H 1.15314 0.58369 0.35152
 C557 C 0.72611 0.22332 0.27150
 C558 C 0.70940 0.20642 0.28623
 C559 C 0.68983 0.18657 0.30433
 C560 C 0.70568 0.16543 0.32261
 C561 C 0.68687 0.14712 0.34098
 C562 C 0.65189 0.14977 0.34134
 C563 C 0.63617 0.17080 0.32265
 C564 C 0.65505 0.18908 0.30428
 C565 C 0.63205 0.13145 0.36164
 C566 C 0.60508 0.14708 0.37449
 C567 C 0.58726 0.13039 0.39440
 C568 C 0.59609 0.09785 0.40174
 C569 C 0.62258 0.08189 0.38885
 C570 C 0.64046 0.09855 0.36892
 C571 C 0.57860 0.08134 0.42306
 C572 C 0.56410 0.06802 0.44124
 H573 H 0.73261 0.16344 0.32291
 H574 H 0.69974 0.13153 0.35534
 H575 H 0.60928 0.17306 0.32221
 H576 H 0.64254 0.20537 0.29020
 H577 H 0.59829 0.17253 0.36961
 H578 H 0.56689 0.14302 0.40434
 H579 H 0.62960 0.05669 0.39437
 H580 H 0.66082 0.08571 0.35918
 C581 C 0.72396 0.72504 -0.22849
 C582 C 0.70728 0.70821 -0.21367
 C583 C 0.68773 0.68849 -0.19547
 C584 C 0.65452 0.69700 -0.19032
 C585 C 0.63599 0.67874 -0.17171
 C586 C 0.65048 0.65172 -0.15797
 C587 C 0.68376 0.64312 -0.16355
 C588 C 0.70224 0.66142 -0.18215
 C589 C 0.63134 0.63317 -0.13736
 C590 C 0.63425 0.59827 -0.13505
 C591 C 0.61725 0.58104 -0.11495
 C592 C 0.59711 0.59843 -0.09691
 C593 C 0.59370 0.63307 -0.09924
 C594 C 0.61066 0.65035 -0.11934
 C595 C 0.58086 0.58090 -0.07546
 C596 C 0.56775 0.56630 -0.05722
 H597 H 0.64305 0.71792 -0.20052
 H598 H 0.61032 0.68572 -0.16810
 H599 H 0.69577 0.62277 -0.15305
 H600 H 0.72799 0.65474 -0.18587
 H601 H 0.64964 0.58430 -0.14882
 H602 H 0.62005 0.55421 -0.11332
 H603 H 0.57831 0.64679 -0.08529
 H604 H 0.60826 0.67724 -0.12035
 C605 C 0.77570 -0.22288 -0.22909
 C606 C 0.79275 -0.20603 -0.21458
 C607 C 0.81283 -0.18646 -0.19666
 C608 C 0.84002 -0.20109 -0.18365
 C609 C 0.85860 -0.18268 -0.16521
 C610 C 0.85017 -0.14935 -0.15949
 C611 C 0.82305 -0.13472 -0.17297
 C612 C 0.80450 -0.15319 -0.19142
 C613 C 0.86894 -0.13036 -0.13894
 C614 C 0.85201 -0.10976 -0.12072
 C615 C 0.86946 -0.09310 -0.10058
 C616 C 0.90404 -0.09674 -0.09840
 C617 C 0.92120 -0.11676 -0.11666
 C618 C 0.90379 -0.13347 -0.13682
 C619 C 0.92169 -0.08088 -0.07686
 C620 C 0.93622 -0.06805 -0.05848
 H621 H 0.84655 -0.22689 -0.18744
 H622 H 0.87901 -0.19481 -0.15490
 H623 H 0.81619 -0.10901 -0.16924
 H624 H 0.78348 -0.14162 -0.20139
 H625 H 0.82516 -0.10722 -0.12158
 H626 H 0.85591 -0.07779 -0.08646
 H627 H 0.94798 -0.11973 -0.11516
 H628 H 0.91758 -0.14880 -0.15074
 C629 C 0.77787 0.27540 0.27108
 C630 C 0.79478 0.29225 0.28570
 C631 C 0.81460 0.31185 0.30379
 C632 C 0.81062 0.34653 0.30489
 C633 C 0.82871 0.36531 0.32342
 C634 C 0.85101 0.34961 0.34114
 C635 C 0.85517 0.31479 0.33959
 C636 C 0.83706 0.29607 0.32106
 C637 C 0.86903 0.36925 0.36174
 C638 C 0.90242 0.36194 0.36816
 C639 C 0.91883 0.37954 0.38837
 C640 C 0.90213 0.40465 0.40240
 C641 C 0.86909 0.41239 0.39594
 C642 C 0.85264 0.39485 0.37575
 C643 C 0.91847 0.42185 0.42396
 C644 C 0.93164 0.43613 0.44231
 H645 H 0.79329 0.35900 0.29161
 H646 H 0.82526 0.39211 0.32390
 H647 H 0.87177 0.30190 0.35319
 H648 H 0.84018 0.26921 0.32048
 H649 H 0.91583 0.34266 0.35753
 H650 H 0.94443 0.37338 0.39319
 H651 H 0.85588 0.43168 0.40676
 H652 H 0.82682 0.40076 0.37156
 C653 C 0.27375 -0.22583 0.26997
 C654 C 0.29028 -0.20866 0.28467
 C655 C 0.30952 -0.18854 0.30287
 C656 C 0.29331 -0.16899 0.32200
 C657 C 0.31181 -0.15052 0.34047
 C658 C 0.34689 -0.15136 0.34011
 C659 C 0.36297 -0.17079 0.32059
 C660 C 0.34439 -0.18925 0.30211
 C661 C 0.36650 -0.13278 0.36048
 C662 C 0.39488 -0.14730 0.37226
 C663 C 0.41253 -0.13044 0.39221
 C664 C 0.40215 -0.09882 0.40066
 C665 C 0.37423 -0.08395 0.38883
 C666 C 0.35652 -0.10078 0.36888
 C667 C 0.41955 -0.08219 0.42203
 C668 C 0.43394 -0.06876 0.44025
 H669 H 0.26633 -0.16840 0.32288
 H670 H 0.29865 -0.13623 0.35545
 H671 H 0.38991 -0.17166 0.31956
 H672 H 0.35723 -0.20429 0.28740
 H673 H 0.40296 -0.17206 0.36654
 H674 H 0.43401 -0.14228 0.40130
 H675 H 0.36596 -0.05948 0.39518
 H676 H 0.33505 -0.08873 0.35998
 C677 C 0.27776 0.27634 -0.22918
 C678 C 0.29477 0.29313 -0.21461
 C679 C 0.31462 0.31276 -0.19656
 C680 C 0.31072 0.34746 -0.19560
 C681 C 0.32875 0.36630 -0.17707
 C682 C 0.35091 0.35064 -0.15921
 C683 C 0.35501 0.31580 -0.16063
 C684 C 0.33695 0.29702 -0.17917
 C685 C 0.36883 0.37034 -0.13860
 C686 C 0.40215 0.36299 -0.13202
 C687 C 0.41845 0.38060 -0.11176
 C688 C 0.40169 0.40577 -0.09784
 C689 C 0.36872 0.41358 -0.10448
 C690 C 0.35239 0.39602 -0.12473
 C691 C 0.41789 0.42288 -0.07618
 C692 C 0.43102 0.43699 -0.05772
 H693 H 0.29348 0.35989 -0.20897
 H694 H 0.32535 0.39311 -0.17669
 H695 H 0.37150 0.30294 -0.14694
 H696 H 0.34001 0.27015 -0.17964
 H697 H 0.41560 0.34364 -0.14255
 H698 H 0.44399 0.37437 -0.10679
 H699 H 0.35547 0.43291 -0.09375
 H700 H 0.32662 0.40197 -0.12904
 C701 C 1.22467 -0.22655 0.22975
 C702 C 1.20769 -0.20992 0.21495
 C703 C 1.18781 -0.19047 0.19670
 C704 C 1.16224 -0.20573 0.18212
 C705 C 1.14388 -0.18730 0.16348
 C706 C 1.15087 -0.15328 0.15912
 C707 C 1.17637 -0.13807 0.17412
 C708 C 1.19470 -0.15656 0.19276
 C709 C 1.13223 -0.13406 0.13851
 C710 C 1.14895 -0.11128 0.12179
 C711 C 1.13169 -0.09413 0.10175
 C712 C 1.09750 -0.09943 0.09813
 C713 C 1.08055 -0.12172 0.11485
 C714 C 1.09776 -0.13892 0.13491
 C715 C 1.08007 -0.08283 0.07673
 C716 C 1.06568 -0.06936 0.05849
 H717 H 1.15681 -0.23201 0.18488
 H718 H 1.12476 -0.19989 0.15202
 H719 H 1.18210 -0.11186 0.17148
 H720 H 1.21443 -0.14447 0.20393
 H721 H 1.17553 -0.10730 0.12378
 H722 H 1.14511 -0.07707 0.08884
 H723 H 1.05408 -0.12602 0.11225
 H724 H 1.08409 -0.15595 0.14764
 C725 C 1.22495 0.27623 0.72906
 C726 C 1.20770 0.29286 0.71452
 C727 C 1.18746 0.31223 0.69654
 C728 C 1.18863 0.34714 0.69719
 C729 C 1.17012 0.36585 0.67884
 C730 C 1.15022 0.34985 0.65956
 C731 C 1.14889 0.31474 0.65933
 C732 C 1.16741 0.29610 0.67769
 C733 C 1.13175 0.36955 0.63923
 C734 C 1.09950 0.36002 0.63119
 C735 C 1.08282 0.37770 0.61114
 C736 C 1.09811 0.40513 0.59889
 C737 C 1.12997 0.41510 0.60701
 C738 C 1.14669 0.39748 0.62705
 C739 C 1.08169 0.42235 0.57737
 C740 C 1.06844 0.43659 0.55900
 H741 H 1.20408 0.35988 0.71171
 H742 H 1.17136 0.39283 0.67972
 H743 H 1.13421 0.30166 0.64452
 H744 H 1.16647 0.26908 0.67691
 H745 H 1.08718 0.33889 0.64041
 H746 H 1.05814 0.36978 0.60502
 H747 H 1.14210 0.43621 0.59757
 H748 H 1.17165 0.40518 0.63251
 C749 C 0.72331 -0.22348 0.72885
 C750 C 0.70609 -0.20703 0.71415
 C751 C 0.68582 -0.18792 0.69601
 C752 C 0.66209 -0.20405 0.68012
 C753 C 0.64336 -0.18587 0.66160
 C754 C 0.64817 -0.15125 0.65869
 C755 C 0.67181 -0.13519 0.67500
 C756 C 0.69051 -0.15344 0.69354
 C757 C 0.62930 -0.13226 0.63817
 C758 C 0.64531 -0.10776 0.62261
 C759 C 0.62797 -0.09098 0.60244
 C760 C 0.59443 -0.09839 0.59757
 C761 C 0.57813 -0.12234 0.61318
 C762 C 0.59542 -0.13917 0.63336
 C763 C 0.57711 -0.08227 0.57595
 C764 C 0.56283 -0.06920 0.55752
 H765 H 0.65839 -0.23077 0.68178
 H766 H 0.62572 -0.19905 0.64909
 H767 H 0.67580 -0.10852 0.67345
 H768 H 0.70882 -0.14070 0.70575
 H769 H 0.67146 -0.10219 0.62557
 H770 H 0.64087 -0.07259 0.59038
 H771 H 0.55215 -0.12825 0.60959
 H772 H 0.58230 -0.15759 0.64521
 C773 C 0.72589 0.27445 0.22850
 C774 C 0.70899 0.29047 0.21327
 C775 C 0.68926 0.30886 0.19429
 C776 C 0.67842 0.29320 0.17090
 C777 C 0.66033 0.31111 0.15185
 C778 C 0.65283 0.34504 0.15590
 C779 C 0.66344 0.36048 0.17966
 C780 C 0.68160 0.34249 0.19871
 C781 C 0.63464 0.36430 0.13515
 C782 C 0.60986 0.38751 0.14224
 C783 C 0.59283 0.40553 0.12254
 C784 C 0.60042 0.40063 0.09556
 C785 C 0.62508 0.37768 0.08835
 C786 C 0.64208 0.35964 0.10797
 C787 C 0.58316 0.41910 0.07514
 C788 C 0.56926 0.43421 0.05754
 H789 H 0.68417 0.26716 0.16730
 H790 H 0.65209 0.29839 0.13396
 H791 H 0.65837 0.38664 0.18322
 H792 H 0.68998 0.35489 0.21671
 H793 H 0.60335 0.39139 0.16297
 H794 H 0.57375 0.42321 0.12833
 H795 H 0.63125 0.37380 0.06753
 H796 H 0.66137 0.34237 0.10188
 C797 C 0.77777 0.22286 0.22927
 C798 C 0.79436 0.20572 0.21468
 C799 C 0.81364 0.18563 0.19661
 C800 C 0.79745 0.16555 0.17781
 C801 C 0.81598 0.14719 0.15935
 C802 C 0.85103 0.14872 0.15943
 C803 C 0.86709 0.16864 0.17867
 C804 C 0.84849 0.18698 0.19712
 C805 C 0.87059 0.13048 0.13896
 C806 C 0.89823 0.14571 0.12666
 C807 C 0.91569 0.12922 0.10649
 C808 C 0.90584 0.09730 0.09836
 C809 C 0.87871 0.08171 0.11073
 C810 C 0.86119 0.09817 0.13091
 C811 C 0.92293 0.08108 0.07673
 C812 C 0.93709 0.06799 0.05832
 H813 H 0.77047 0.16448 0.17714
 H814 H 0.80286 0.13250 0.14457
 H815 H 0.89403 0.17003 0.17943
 H816 H 0.86126 0.20246 0.21161
 H817 H 0.90581 0.17073 0.13214
 H818 H 0.93657 0.14156 0.09696
 H819 H 0.87090 0.05698 0.10460
 H820 H 0.84029 0.08563 0.14023
 C821 C 0.77546 0.72486 0.72896
 C822 C 0.79223 0.70788 0.71438
 C823 C 0.81184 0.68794 0.69643
 C824 C 0.79681 0.66209 0.68203
 C825 C 0.81540 0.64363 0.66366
 C826 C 0.84932 0.65084 0.65941
 C827 C 0.86431 0.67663 0.67423
 C828 C 0.84566 0.69505 0.69262
 C829 C 0.86864 0.63219 0.63902
 C830 C 0.89099 0.64905 0.62206
 C831 C 0.90803 0.63178 0.60206
 C832 C 0.90304 0.59746 0.59875
 C833 C 0.88125 0.58036 0.61576
 C834 C 0.86416 0.59758 0.63578
 C835 C 0.91929 0.58007 0.57729
 C836 C 0.93237 0.56566 0.55898
 H837 H 0.77060 0.65650 0.68472
 H838 H 0.80302 0.62428 0.65230
 H839 H 0.89045 0.68252 0.67164
 H840 H 0.85754 0.71501 0.70367
 H841 H 0.89464 0.67574 0.62380
 H842 H 0.92471 0.64530 0.58890
 H843 H 0.87721 0.55379 0.61338
 H844 H 0.84745 0.58383 0.64872
 C845 C 0.27680 0.22437 0.72846
 C846 C 0.29304 0.20728 0.71359
 C847 C 0.31189 0.18713 0.69528
 C848 C 0.29536 0.16896 0.67545
 C849 C 0.31355 0.15034 0.65694
 C850 C 0.34859 0.14969 0.65800
 C851 C 0.36498 0.16775 0.67821
 C852 C 0.34672 0.18636 0.69672
 C853 C 0.36790 0.13105 0.63761
 C854 C 0.39699 0.14493 0.62651
 C855 C 0.41434 0.12810 0.60645
 C856 C 0.40292 0.09719 0.59723
 C857 C 0.37429 0.08292 0.60839
 C858 C 0.35688 0.09971 0.62846
 C859 C 0.41999 0.08072 0.57572
 C860 C 0.43422 0.06750 0.55739
 H861 H 0.26841 0.16953 0.67408
 H862 H 0.30022 0.13712 0.64141
 H863 H 0.39190 0.16743 0.67974
 H864 H 0.35976 0.20032 0.71201
 H865 H 0.40586 0.16919 0.63285
 H866 H 0.43640 0.13944 0.59785
 H867 H 0.36525 0.05898 0.60141
 H868 H 0.33482 0.08819 0.63684
 C869 C 0.27417 0.72460 0.23004
 C870 C 0.29100 0.70766 0.21541
 C871 C 0.31057 0.68774 0.19732
 C872 C 0.29545 0.66207 0.18276
 C873 C 0.31396 0.64365 0.16429
 C874 C 0.34794 0.65068 0.16007
 C875 C 0.36302 0.67629 0.17505
 C876 C 0.34444 0.69468 0.19353
 C877 C 0.36725 0.63195 0.13964
 C878 C 0.39005 0.64865 0.12295
 C879 C 0.40720 0.63132 0.10300
 C880 C 0.40189 0.59707 0.09946
 C881 C 0.37961 0.58013 0.11618
 C882 C 0.36242 0.59742 0.13613
 C883 C 0.41843 0.57960 0.07810
 C884 C 0.43180 0.56521 0.05987
 H885 H 0.26920 0.65660 0.18540
 H886 H 0.30147 0.62445 0.15284
 H887 H 0.38920 0.68206 0.17252
 H888 H 0.35643 0.71450 0.20468
 H889 H 0.39402 0.67527 0.12486
 H890 H 0.42424 0.64474 0.09010
 H891 H 0.37530 0.55362 0.11364
 H892 H 0.34538 0.58375 0.14885
   
