data_POSCAR
  _audit_creation_date              2014-09-24
  _audit_creation_method            'ToBaCCo'
  _symmetry_space_group_name_H-M    'P1'
  _symmetry_Int_Tables_number       1
  _symmetry_cell_setting            triclinic
  loop_
  _symmetry_equiv_pos_as_xyz
 x,y,z
_cell_length_a 22.1337
_cell_length_b 22.2590
_cell_length_c 22.0057
_cell_angle_alpha 89.833900
_cell_angle_beta 89.997400
_cell_angle_gamma 90.031500
loop_
  _atom_site_label
  _atom_site_type_symbol
  _atom_site_fract_x
  _atom_site_fract_y
  _atom_site_fract_z
N1 N 0.56524 0.12186 0.02834
 N2 N 0.60768 0.15742 0.05007
 N3 N 0.44016 0.12041 -0.03499
 N4 N 0.39803 0.15561 -0.05823
 N5 N 0.43832 0.12159 0.02465
 N6 N 0.39494 0.15771 0.04358
 N7 N 0.56718 0.12073 -0.03131
 N8 N 0.61106 0.15555 -0.05179
 C9 C 0.63607 0.17779 -0.00035
 C10 C 0.36995 0.17825 -0.00871
 N11 N 0.44344 -0.03221 -0.12349
 N12 N 0.39984 -0.05442 -0.15754
 N13 N 0.57011 0.02718 -0.12202
 N14 N 0.61272 0.04692 -0.15921
 N15 N 0.57040 -0.03171 -0.11934
 N16 N 0.61579 -0.05427 -0.15657
 N17 N 0.44297 0.02675 -0.12524
 N18 N 0.39891 0.04632 -0.16061
 Mn19 Mn 0.50514 0.07428 -0.07890
 C20 C 0.37237 -0.00499 -0.18023
 C21 C 0.64048 -0.00354 -0.17976
 N22 N 0.43587 0.03168 0.11943
 N23 N 0.39158 0.05306 0.15319
 N24 N 0.56309 -0.02670 0.12471
 N25 N 0.60592 -0.04694 0.16113
 N26 N 0.56305 0.03224 0.12316
 N27 N 0.60857 0.05429 0.16089
 N28 N 0.43615 -0.02730 0.12100
 N29 N 0.39218 -0.04767 0.15599
 Mn30 Mn 0.50058 0.07732 0.07439
 C31 C 0.36457 0.00305 0.17538
 C32 C 0.63350 0.00296 0.18290
 N33 N 0.56778 -0.12117 -0.02520
 N34 N 0.61139 -0.15677 -0.04440
 N35 N 0.43893 -0.12073 0.03054
 N36 N 0.39494 -0.15565 0.05073
 N37 N 0.44098 -0.12160 -0.02907
 N38 N 0.39861 -0.15702 -0.05112
 N39 N 0.56605 -0.12018 0.03441
 N40 N 0.60852 -0.15509 0.05745
 Mn41 Mn 0.50566 -0.07704 -0.07472
 Mn42 Mn 0.50102 -0.07418 0.07818
 Cl43 Cl 0.50308 0.00013 -0.00023
 C44 C 0.63664 -0.17727 0.00771
 C45 C 0.37005 -0.17763 -0.00093
 N46 N 0.12604 0.43879 0.02372
 N47 N 0.16199 0.39538 0.04297
 N48 N 0.12215 0.56652 -0.03310
 N49 N 0.15556 0.61103 -0.05420
 N50 N 0.12375 0.56512 0.02653
 N51 N 0.15852 0.60853 0.04766
 N52 N 0.12448 0.44018 -0.03593
 N53 N 0.15932 0.39781 -0.05888
 C54 C 0.18218 0.37006 -0.00917
 C55 C 0.17770 0.63695 -0.00334
 N56 N -0.03096 0.56607 -0.12300
 N57 N -0.05330 0.60817 -0.15900
 N58 N 0.03033 0.44087 -0.12661
 N59 N 0.05144 0.39828 -0.16236
 N60 N -0.02898 0.43974 -0.12550
 N61 N -0.04987 0.39626 -0.16040
 N62 N 0.02832 0.56721 -0.12359
 N63 N 0.04836 0.61273 -0.16225
 Mn64 Mn 0.07677 0.50369 -0.08031
 C65 C -0.00432 0.63658 -0.18254
 C66 C 0.00095 0.37070 -0.18286
 N67 N 0.03336 0.56135 0.12106
 N68 N 0.05362 0.60485 0.15642
 N69 N -0.02347 0.43372 0.11915
 N70 N -0.04316 0.38987 0.15444
 N71 N 0.03583 0.43489 0.11825
 N72 N 0.05813 0.39173 0.15287
 N73 N -0.02593 0.55975 0.12190
 N74 N -0.04767 0.60189 0.15770
 Mn75 Mn 0.08028 0.50006 0.07290
 C76 C 0.00232 0.62981 0.17866
 C77 C 0.00829 0.36384 0.17479
 N78 N -0.11905 0.43582 -0.03103
 N79 N -0.15361 0.39216 -0.05204
 N80 N -0.11955 0.56037 0.03151
 N81 N -0.15389 0.60291 0.05478
 N82 N -0.12103 0.56220 -0.02810
 N83 N -0.15652 0.60609 -0.04707
 N84 N -0.11704 0.43419 0.02858
 N85 N -0.14992 0.38940 0.04980
 Mn86 Mn -0.07553 0.50099 -0.07740
 Mn87 Mn -0.07191 0.49695 0.07569
 Cl88 Cl 0.00245 0.50042 -0.00230
 C89 C -0.17221 0.36346 -0.00094
 C90 C -0.17642 0.63118 0.00529
 N91 N 0.03040 0.11975 0.43893
 N92 N 0.05340 0.15418 0.39591
 N93 N -0.03177 0.11906 0.56494
 N94 N -0.05272 0.15460 0.60809
 N95 N 0.02752 0.11728 0.56653
 N96 N 0.04851 0.15118 0.61078
 N97 N -0.02890 0.12073 0.43708
 N98 N -0.04788 0.15605 0.39267
 C99 C 0.00415 0.17630 0.36729
 C100 C -0.00194 0.17388 0.63650
 N101 N -0.12513 -0.03068 0.56097
 N102 N -0.16003 -0.05220 0.60446
 N103 N -0.12264 0.03010 0.43382
 N104 N -0.15847 0.05133 0.39071
 N105 N -0.12257 -0.02891 0.43330
 N106 N -0.15802 -0.04943 0.38990
 N107 N -0.12505 0.02833 0.56171
 N108 N -0.16002 0.04860 0.60578
 Mn109 Mn -0.07762 0.07512 0.49933
 C110 C -0.18135 -0.00232 0.63208
 C111 C -0.17986 0.00098 0.36352
 N112 N 0.11858 0.02500 0.56710
 N113 N 0.15454 0.04469 0.61057
 N114 N 0.12077 -0.03139 0.43815
 N115 N 0.15613 -0.05121 0.39417
 N116 N 0.12107 0.02757 0.43956
 N117 N 0.15648 0.04952 0.39675
 N118 N 0.11805 -0.03396 0.56602
 N119 N 0.15344 -0.05603 0.60885
 Mn120 Mn 0.07476 0.07281 0.50311
 C121 C 0.17551 -0.00646 0.63652
 C122 C 0.17778 -0.00001 0.36865
 N123 N -0.03157 -0.12121 0.43383
 N124 N -0.05221 -0.15513 0.38936
 N125 N 0.02503 -0.12445 0.56279
 N126 N 0.04452 -0.16026 0.60655
 N127 N -0.03427 -0.12339 0.56165
 N128 N -0.05679 -0.15846 0.60451
 N129 N 0.02773 -0.12217 0.43503
 N130 N 0.04908 -0.15699 0.39157
 Mn131 Mn -0.07882 -0.07645 0.49745
 Mn132 Mn 0.07338 -0.07848 0.50046
 Cl133 Cl -0.00211 -0.00176 0.50009
 C134 C -0.00142 -0.17687 0.36325
 C135 C -0.00715 -0.18096 0.63229
 C136 C -0.31453 0.22179 0.00170
 C137 C -0.28796 0.24323 -0.04867
 C138 C -0.24134 0.29107 -0.04902
 C139 C -0.21429 0.31249 0.00092
 H140 H -0.30276 0.22706 -0.09260
 H141 H -0.22980 0.31003 -0.09291
 H142 H -0.30208 0.23779 0.04622
 H143 H -0.22362 0.29389 0.04528
 C144 C 0.32051 0.77853 -0.00365
 C145 C 0.29347 0.75665 0.04622
 C146 C 0.24653 0.70907 0.04564
 C147 C 0.22032 0.68756 -0.00477
 H148 H 0.30795 0.77235 0.09044
 H149 H 0.23401 0.69034 0.08935
 H150 H 0.30822 0.76312 -0.04842
 H151 H 0.23069 0.70579 -0.04905
 C152 C 0.32084 0.22273 -0.01230
 C153 C 0.29621 0.24712 0.03757
 C154 C 0.24945 0.29487 0.03747
 C155 C 0.22589 0.32033 -0.01250
 H156 H 0.31190 0.23249 0.08183
 H157 H 0.23491 0.31057 0.08167
 H158 H 0.30649 0.23599 -0.05725
 H159 H 0.23914 0.30602 -0.05738
 C160 C -0.31403 0.77864 0.01069
 C161 C -0.28963 0.75499 -0.03965
 C162 C -0.24302 0.70726 -0.04043
 C163 C -0.21957 0.68117 0.00918
 H164 H -0.30555 0.77012 -0.08366
 H165 H -0.22869 0.69199 -0.08485
 H166 H -0.29947 0.76498 0.05545
 H167 H -0.23262 0.69502 0.05426
 C168 C -0.00043 -0.32079 0.22267
 C169 C 0.04898 -0.29332 0.24420
 C170 C 0.04798 -0.24610 0.29162
 C171 C -0.00236 -0.21988 0.31274
 H172 H 0.09303 -0.30752 0.22831
 H173 H 0.09128 -0.23327 0.31052
 H174 H -0.04498 -0.30876 0.23836
 H175 H -0.04624 -0.23051 0.29429
 C176 C 0.00229 0.32084 0.77355
 C177 C -0.04813 0.29396 0.75343
 C178 C -0.04916 0.24614 0.70665
 C179 C 0.00006 0.21734 0.68656
 H180 H -0.09158 0.30924 0.76994
 H181 H -0.09284 0.23498 0.68755
 H182 H 0.04629 0.30798 0.75695
 H183 H 0.04410 0.22631 0.70555
 C184 C 0.01057 0.31399 0.21868
 C185 C -0.03978 0.28999 0.24256
 C186 C -0.04103 0.24305 0.29043
 C187 C 0.00810 0.21953 0.31688
 H188 H -0.08334 0.30654 0.22759
 H189 H -0.08530 0.22870 0.30567
 H190 H 0.05489 0.29874 0.23207
 H191 H 0.05300 0.23273 0.30315
 C192 C -0.00835 -0.31834 0.77720
 C193 C 0.04292 -0.29066 0.75204
 C194 C 0.04215 -0.24613 0.70685
 C195 C -0.00992 -0.22218 0.68001
 H196 H 0.08724 -0.30502 0.76717
 H197 H 0.08581 -0.23033 0.69121
 H198 H -0.05317 -0.30443 0.76383
 H199 H -0.05435 -0.23580 0.69491
 C200 C 0.32136 -0.00806 0.77719
 C201 C 0.29502 0.04125 0.75430
 C202 C 0.24604 0.04081 0.70836
 C203 C 0.22045 -0.00892 0.68561
 H204 H 0.31111 0.08502 0.76841
 H205 H 0.23163 0.08429 0.69155
 H206 H 0.30688 -0.05248 0.76416
 H207 H 0.23325 -0.05311 0.70121
 C208 C -0.32074 0.00050 0.22265
 C209 C -0.29290 0.05195 0.24664
 C210 C -0.24707 0.05149 0.29082
 C211 C -0.22177 -0.00045 0.31631
 H212 H -0.30822 0.09577 0.23155
 H213 H -0.23134 0.09482 0.30663
 H214 H -0.30637 -0.04377 0.23657
 H215 H -0.23507 -0.04446 0.30084
 C216 C 0.31396 0.00475 0.21856
 C217 C 0.29152 -0.04523 0.24429
 C218 C 0.24399 -0.04613 0.29178
 C219 C 0.22164 0.00301 0.31865
 H220 H 0.30957 -0.08848 0.23103
 H221 H 0.22857 -0.08996 0.30667
 H222 H 0.29670 0.04866 0.22980
 H223 H 0.23648 0.04742 0.30571
 C224 C -0.31440 -0.00475 0.77986
 C225 C -0.28965 0.04716 0.75353
 C226 C -0.24579 0.04721 0.70743
 C227 C -0.22182 -0.00450 0.68041
 H228 H -0.30571 0.09070 0.76842
 H229 H -0.23105 0.09074 0.69097
 H230 H -0.29803 -0.04865 0.76734
 H231 H -0.23510 -0.04877 0.69536
   
