data_POSCAR
  _audit_creation_date              2014-09-24
  _audit_creation_method            'ToBaCCo'
  _symmetry_space_group_name_H-M    'P1'
  _symmetry_Int_Tables_number       1
  _symmetry_cell_setting            triclinic
  loop_
  _symmetry_equiv_pos_as_xyz
 x,y,z
_cell_length_a 14.1100
_cell_length_b 14.1948
_cell_length_c 22.2524
_cell_angle_alpha 87.024400
_cell_angle_beta 94.894800
_cell_angle_gamma 83.764500
loop_
  _atom_site_label
  _atom_site_type_symbol
  _atom_site_fract_x
  _atom_site_fract_y
  _atom_site_fract_z
C1 C -0.00199 0.29012 1.05161
 C2 C 0.01107 0.24924 0.99634
 C3 C 0.02152 0.30334 0.94387
 C4 C 0.02362 0.40197 0.94581
 C5 C 0.00691 0.44682 1.00003
 C6 C -0.00671 0.39110 1.05318
 C7 C -0.01927 0.43799 1.10650
 C8 C -0.02747 0.53629 1.10666
 C9 C -0.01138 0.59281 1.05554
 C10 C 0.00560 0.54746 1.00122
 C11 C 0.04458 0.45618 0.89528
 C12 C 0.04720 0.55343 0.89718
 C13 C 0.02203 0.60196 0.94815
 C14 C 0.01880 0.70245 0.94911
 C15 C -0.00106 0.74502 1.00287
 C16 C -0.01546 0.69342 1.05615
 H17 H -0.02271 0.40020 1.14937
 H18 H -0.04662 0.56659 1.14801
 H19 H 0.06194 0.42324 0.85418
 H20 H 0.07086 0.58931 0.85819
 H21 H 0.00947 0.17334 0.99316
 H22 H -0.00481 0.82168 1.00337
 C23 C 0.30700 -0.00697 0.55840
 C24 C 0.25197 -0.01872 0.50477
 C25 C 0.29088 -0.01868 0.44906
 C26 C 0.39029 -0.01292 0.44728
 C27 C 0.44744 -0.00070 0.50155
 C28 C 0.40482 0.00528 0.55694
 C29 C 0.46062 0.02467 0.60907
 C30 C 0.55685 0.03666 0.60724
 C31 C 0.60346 0.02279 0.55433
 C32 C 0.54697 0.00738 0.50024
 C33 C 0.43384 -0.01717 0.39293
 C34 C 0.53174 -0.01371 0.39202
 C35 C 0.58936 0.00050 0.44473
 C36 C 0.68828 0.00758 0.44360
 C37 C 0.74243 0.02376 0.49686
 C38 C 0.70336 0.02978 0.55278
 H39 H 0.42995 0.03266 0.65170
 H40 H 0.59354 0.05841 0.64790
 H41 H 0.39324 -0.02401 0.35032
 H42 H 0.56126 -0.02151 0.34910
 H43 H 0.17621 -0.02509 0.50621
 H44 H 0.81866 0.02625 0.49480
 C45 C 0.15672 -0.08948 0.30609
 H46 H 0.16385 -0.14284 0.27364
 C47 C 0.22853 -0.08967 0.35363
 H48 H 0.28739 -0.14602 0.35897
 C49 C 0.07310 0.04905 0.33950
 H50 H 0.01122 0.10193 0.33441
 C51 C 0.14441 0.05337 0.38612
 H52 H 0.13735 0.11009 0.41675
 N53 N 0.07874 -0.02293 0.30156
 C54 C -0.09720 -0.10099 0.14245
 H55 H -0.14198 -0.03376 0.13557
 C56 C -0.09604 -0.16179 0.09881
 H57 H -0.14115 -0.14333 0.05707
 C58 C 0.00856 -0.20747 0.21013
 H59 H 0.04693 -0.22623 0.25380
 C60 C 0.01596 -0.27545 0.16196
 H61 H 0.06840 -0.33741 0.16989
 Zn62 Zn -0.03392 -0.01813 0.24748
 N63 N -0.03879 -0.12356 0.19841
 C64 C 0.04130 0.07537 0.15732
 N65 N -0.03082 0.09028 0.19360
 C66 C -0.09040 0.17307 0.18775
 C67 C -0.08279 0.24123 0.14108
 C68 C 0.05318 0.14225 0.11148
 C69 C -0.11964 -0.07806 0.34550
 C70 C -0.17945 -0.07530 0.39214
 C71 C -0.27997 0.05455 0.33675
 C72 C -0.21953 0.04720 0.29005
 N73 N -0.13801 -0.01477 0.29681
 H74 H 0.08894 0.00985 0.16341
 H75 H -0.14421 0.18724 0.21845
 H76 H -0.13630 0.30244 0.13426
 H77 H 0.11153 0.12765 0.08344
 H78 H -0.05550 -0.12802 0.34942
 H79 H -0.16131 -0.12373 0.43171
 H80 H -0.34088 0.10864 0.33278
 H81 H -0.23775 0.09188 0.24930
 C82 C -0.03269 -0.25333 0.10724
 C83 C 0.22240 -0.01756 0.39441
 C84 C -0.25896 -0.00628 0.38907
 C85 C -0.00953 0.22696 0.10216
 C86 C -0.05683 0.16441 0.81348
 H87 H -0.12246 0.14194 0.79329
 C88 C -0.06051 0.23014 0.85796
 H89 H -0.12912 0.25844 0.87184
 C90 C 0.11296 0.14800 0.82483
 H91 H 0.18033 0.11224 0.81381
 C92 C 0.11247 0.21318 0.86978
 H93 H 0.17937 0.22802 0.89296
 N94 N 0.02901 0.12310 0.79888
 C95 C 0.15657 -0.07930 0.68069
 H96 H 0.12330 -0.14075 0.69507
 C97 C 0.21939 -0.08624 0.63555
 H98 H 0.23480 -0.15335 0.61533
 C99 C 0.17014 0.08535 0.68511
 H100 H 0.14666 0.15305 0.70218
 C101 C 0.23330 0.08151 0.64004
 H102 H 0.25906 0.14604 0.62310
 Zn103 Zn 0.02823 0.01496 0.75229
 N104 N 0.13225 0.00581 0.70387
 C105 C -0.08397 0.08781 0.64870
 N106 N -0.08559 0.02842 0.69835
 C107 C -0.16154 -0.02136 0.70528
 C108 C -0.23431 -0.02039 0.65833
 C109 C -0.15627 0.09312 0.60153
 C110 C 0.08655 -0.08885 0.86155
 C111 C 0.08563 -0.15845 0.90778
 C112 C -0.01305 -0.24321 0.84067
 C113 C -0.00721 -0.17313 0.79482
 N114 N 0.03742 -0.09493 0.80695
 H115 H -0.02453 0.12902 0.64473
 H116 H -0.16492 -0.06420 0.74634
 H117 H -0.28823 -0.06838 0.66286
 H118 H -0.15187 0.14033 0.56228
 H119 H 0.12486 -0.02859 0.87014
 H120 H 0.12498 -0.15051 0.95086
 H121 H -0.05770 -0.29906 0.83132
 H122 H -0.04161 -0.17984 0.75025
 C123 C 0.25700 -0.00479 0.61417
 C124 C 0.02487 0.25288 0.88757
 C125 C 0.03270 -0.23601 0.89884
 C126 C -0.23209 0.03653 0.60472
   
