data_POSCAR
  _audit_creation_date              2014-09-24
  _audit_creation_method            'ToBaCCo'
  _symmetry_space_group_name_H-M    'P1'
  _symmetry_Int_Tables_number       1
  _symmetry_cell_setting            triclinic
  loop_
  _symmetry_equiv_pos_as_xyz
 x,y,z
_cell_length_a 35.7090
_cell_length_b 11.4887
_cell_length_c 15.3987
_cell_angle_alpha 89.213900
_cell_angle_beta 89.942700
_cell_angle_gamma 79.127100
loop_
  _atom_site_label
  _atom_site_type_symbol
  _atom_site_fract_x
  _atom_site_fract_y
  _atom_site_fract_z
C1 C 0.85876 0.16733 0.45076
 C2 C 0.85903 0.17256 0.53917
 C3 C 0.82123 0.19017 0.56571
 N4 N 0.79792 0.19398 0.49643
 C5 C 0.82088 0.18045 0.42608
 C6 C 0.80892 0.21057 0.65219
 C7 C 0.77144 0.20679 0.68022
 C8 C 0.75613 0.25364 0.75775
 C9 C 0.71921 0.23674 0.76020
 C10 C 0.71271 0.17923 0.68438
 N11 N 0.74486 0.16114 0.63576
 C12 C 0.67704 0.14959 0.66220
 C13 C 0.66601 0.13256 0.57539
 C14 C 0.63135 0.10509 0.55119
 C15 C 0.63119 0.10085 0.46264
 C16 C 0.66622 0.12213 0.43453
 N17 N 0.68732 0.14277 0.50377
 C18 C 0.67660 0.13019 0.34595
 C19 C 0.71250 0.15004 0.31647
 C20 C 0.72096 0.17345 0.23061
 C21 C 0.75785 0.19149 0.22896
 C22 C 0.77129 0.17666 0.31343
 N23 N 0.74379 0.14856 0.36599
 C24 C 0.80830 0.18813 0.33924
 H25 H 0.88365 0.15623 0.40936
 H26 H 0.88428 0.16563 0.57919
 H27 H 0.74683 0.12297 0.43072
 H28 H 0.76965 0.29929 0.80623
 H29 H 0.69891 0.26768 0.81088
 H30 H 0.60796 0.09156 0.59220
 H31 H 0.60733 0.08605 0.42408
 H32 H 0.77298 0.21295 0.17182
 H33 H 0.74924 0.11256 0.57898
 H34 H 0.70265 0.17710 0.17437
 C35 C 0.36517 0.90799 0.45563
 C36 C 0.36558 0.91272 0.54403
 C37 C 0.32971 0.89910 0.57242
 N38 N 0.30704 0.89078 0.50323
 C39 C 0.32879 0.89513 0.43168
 C40 C 0.31751 0.90454 0.66029
 C41 C 0.28134 0.88086 0.68569
 C42 C 0.26430 0.90320 0.76658
 C43 C 0.23328 0.84861 0.76900
 C44 C 0.23234 0.79182 0.69061
 N45 N 0.26137 0.81293 0.64000
 C46 C 0.20704 0.71463 0.67080
 C47 C 0.20098 0.67774 0.58573
 C48 C 0.17616 0.60345 0.56483
 C49 C 0.17242 0.60889 0.47656
 C50 C 0.19741 0.67877 0.44480
 N51 N 0.21426 0.72227 0.51257
 C52 C 0.20188 0.71050 0.35607
 C53 C 0.23017 0.77573 0.32720
 C54 C 0.23372 0.81668 0.24262
 C55 C 0.26569 0.86693 0.23971
 C56 C 0.28130 0.85614 0.32227
 N57 N 0.25971 0.79989 0.37495
 C58 C 0.31619 0.89033 0.34491
 H59 H 0.38933 0.91343 0.41452
 H60 H 0.38972 0.92682 0.58200
 H61 H 0.26721 0.76917 0.43724
 H62 H 0.27318 0.95001 0.82062
 H63 H 0.21437 0.84779 0.82383
 H64 H 0.16064 0.55466 0.60831
 H65 H 0.15133 0.57120 0.44285
 H66 H 0.27655 0.90459 0.18232
 H67 H 0.27052 0.76776 0.58362
 H68 H 0.21627 0.80852 0.18672
 C69 C 0.15148 0.12086 -0.46057
 C70 C 0.15200 0.11827 -0.54974
 C71 C 0.17405 0.19873 -0.57743
 N72 N 0.18724 0.24975 -0.50768
 C73 C 0.17350 0.20223 -0.43600
 C74 C 0.18328 0.22002 -0.66533
 C75 C 0.21230 0.28420 -0.68855
 C76 C 0.21547 0.33414 -0.77017
 C77 C 0.24802 0.37921 -0.77031
 C78 C 0.26382 0.36112 -0.68752
 N79 N 0.24177 0.30183 -0.63816
 C80 C 0.29985 0.38757 -0.66375
 C81 C 0.31470 0.37243 -0.57817
 C82 C 0.35088 0.38623 -0.55229
 C83 C 0.35135 0.38209 -0.46323
 C84 C 0.31544 0.36738 -0.43726
 N85 N 0.29324 0.36157 -0.50739
 C86 C 0.30182 0.37628 -0.35127
 C87 C 0.26525 0.35493 -0.32825
 C88 C 0.24798 0.38436 -0.24905
 C89 C 0.21351 0.34927 -0.25059
 C90 C 0.21115 0.29306 -0.32904
 N91 N 0.24270 0.29797 -0.37674
 C92 C 0.18234 0.22753 -0.34907
 H93 H 0.13772 0.06507 -0.41910
 H94 H 0.13907 0.05949 -0.58917
 H95 H 0.25040 0.25163 -0.43350
 H96 H 0.19647 0.33710 -0.82517
 H97 H 0.25907 0.41589 -0.82765
 H98 H 0.37437 0.40190 -0.59209
 H99 H 0.37518 0.39208 -0.42261
 H100 H 0.19314 0.35935 -0.19789
 H101 H 0.24851 0.26334 -0.57752
 H102 H 0.25940 0.42372 -0.19420
 C103 C -0.13078 0.71450 -0.46304
 C104 C -0.13125 0.71621 -0.55235
 C105 C -0.16873 0.75933 -0.57728
 N106 N -0.19103 0.78201 -0.50627
 C107 C -0.16802 0.75424 -0.43670
 C108 C -0.18319 0.77507 -0.66297
 C109 C -0.22308 0.79368 -0.67692
 C110 C -0.24202 0.85511 -0.74708
 C111 C -0.27855 0.83362 -0.74595
 C112 C -0.28101 0.76110 -0.67436
 N113 N -0.24750 0.74018 -0.63075
 C114 C -0.31180 0.70320 -0.65739
 C115 C -0.32109 0.67711 -0.57088
 C116 C -0.34418 0.59868 -0.54489
 C117 C -0.34352 0.59558 -0.45566
 C118 C -0.31994 0.67193 -0.42997
 N119 N -0.30630 0.72154 -0.50053
 C120 C -0.30915 0.69046 -0.34355
 C121 C -0.27758 0.74452 -0.32602
 C122 C -0.27218 0.80135 -0.24936
 C123 C -0.23564 0.82268 -0.25133
 C124 C -0.21986 0.77898 -0.32930
 N125 N -0.24593 0.73433 -0.37568
 C126 C -0.18085 0.76484 -0.35025
 H127 H -0.10613 0.68284 -0.42249
 H128 H -0.10696 0.68365 -0.59303
 H129 H -0.24042 0.68286 -0.43108
 H130 H -0.23005 0.90520 -0.79636
 H131 H -0.30050 0.86443 -0.79381
 H132 H -0.35830 0.54394 -0.58526
 H133 H -0.35702 0.53795 -0.41512
 H134 H -0.22164 0.86101 -0.19964
 H135 H -0.24009 0.67782 -0.58078
 H136 H -0.29202 0.82042 -0.19592
 O137 O -0.04502 0.77563 0.15754
 O138 O -0.08728 0.89108 0.06498
 C139 C -0.07927 0.81782 0.12962
 O140 O 0.05486 1.13882 0.15200
 O141 O 0.09803 1.01499 0.06912
 C142 C 0.08955 1.09338 0.12867
 O143 O -0.05255 1.17311 0.14900
 O144 O -0.09129 1.07913 0.06688
 C145 C -0.08558 1.15019 0.12790
 O146 O 0.06245 0.72372 0.15764
 O147 O 0.10245 0.81987 0.07917
 C148 C 0.09584 0.74660 0.13932
 Zr149 Zr 0.00819 0.80075 0.10583
 O150 O 0.00922 0.78118 0.24254
 O151 O 0.00870 0.61664 0.09494
 Zr152 Zr 0.00250 1.10167 0.10130
 O153 O 0.00291 1.11578 0.23802
 O154 O -0.00413 1.28813 0.08747
 O155 O -0.02804 0.96460 0.11887
 O156 O 0.03732 0.93879 0.12209
 O157 O 0.06668 0.71891 -0.15430
 O158 O 0.10449 0.81087 -0.06822
 C159 C 0.09969 0.73694 -0.12764
 O160 O -0.04961 1.17266 -0.16933
 O161 O -0.08997 1.08101 -0.08850
 C162 C -0.08327 1.15353 -0.14907
 O163 O 0.05770 1.13233 -0.16446
 O164 O 0.09995 1.00824 -0.07658
 C165 C 0.09205 1.08687 -0.13845
 O166 O -0.04129 0.77088 -0.16819
 O167 O -0.08582 0.88934 -0.08431
 C168 C -0.07613 0.81342 -0.14536
 Zr169 Zr 0.01066 0.79837 -0.11269
 O170 O 0.01538 0.78197 -0.24903
 O171 O 0.01028 0.61462 -0.10172
 Zr172 Zr 0.00464 1.09813 -0.11704
 O173 O 0.00789 1.10782 -0.25415
 O174 O -0.00197 1.28480 -0.11004
 Zr175 Zr -0.04983 0.97193 -0.00872
 Zr176 Zr 0.06255 0.92709 -0.00200
 O177 O 0.04015 0.93488 -0.12897
 O178 O -0.02569 0.96155 -0.13403
 O179 O 0.04421 0.76302 -0.00091
 O180 O -0.03043 1.13391 -0.00985
 O181 O -0.02351 0.79182 -0.00504
 O182 O 0.03748 1.10850 -0.00644
 H183 H 0.05279 0.93468 0.17582
 H184 H -0.04982 1.20811 -0.01137
 H185 H 0.05688 0.92729 -0.18067
 H186 H -0.03987 0.73103 -0.00518
 H187 H 0.02069 1.30605 0.06848
 H188 H 0.02236 1.30297 -0.08851
 H189 H -0.00817 1.05418 -0.27754
 H190 H 0.00192 0.85723 -0.27516
 H191 H 0.03578 0.57505 -0.08089
 H192 H 0.03478 0.57792 0.07793
 H193 H -0.00372 0.85773 0.26630
 H194 H -0.01019 1.05367 0.26151
 O195 O 0.55958 0.66009 0.16223
 O196 O 0.59474 0.51598 0.07828
 C197 C 0.59153 0.59400 0.13914
 O198 O 0.42879 0.39985 0.15161
 O199 O 0.39596 0.55027 0.06608
 C200 C 0.39771 0.47072 0.12679
 O201 O 0.53492 0.27986 0.16001
 O202 O 0.58323 0.33734 0.08145
 C203 C 0.57062 0.27447 0.14101
 O204 O 0.45418 0.79254 0.14839
 O205 O 0.40732 0.73145 0.06870
 C206 C 0.41865 0.79675 0.12714
 Zr207 Zr 0.50417 0.67321 0.10755
 O208 O 0.49953 0.68320 0.24456
 O209 O 0.51986 0.84171 0.10244
 Zr210 Zr 0.48584 0.39288 0.10844
 O211 O 0.48141 0.39102 0.24542
 O212 O 0.47725 0.21569 0.10373
 O213 O 0.52794 0.49409 0.12712
 O214 O 0.46302 0.57044 0.12226
 O215 O 0.45784 0.79155 -0.15997
 O216 O 0.40992 0.73912 -0.07733
 C217 C 0.42241 0.80187 -0.13698
 O218 O 0.53801 0.28819 -0.16216
 O219 O 0.58375 0.33022 -0.06923
 C220 C 0.57289 0.27429 -0.13387
 O221 O 0.43154 0.40073 -0.16011
 O222 O 0.39741 0.55333 -0.08194
 C223 C 0.40009 0.47273 -0.14068
 O224 O 0.56252 0.65626 -0.16232
 O225 O 0.59619 0.51196 -0.07314
 C226 C 0.59392 0.58826 -0.13660
 Zr227 Zr 0.50639 0.67309 -0.11156
 O228 O 0.50450 0.68611 -0.24886
 O229 O 0.52165 0.84217 -0.10414
 Zr230 Zr 0.48769 0.39271 -0.11005
 O231 O 0.48420 0.37759 -0.24613
 O232 O 0.47971 0.21530 -0.09578
 Zr233 Zr 0.55152 0.46818 0.00208
 Zr234 Zr 0.44073 0.59839 -0.00464
 O235 O 0.46527 0.57088 -0.12882
 O236 O 0.53010 0.49403 -0.12609
 O237 O 0.47310 0.73416 -0.00385
 O238 O 0.51834 0.33479 0.00103
 O239 O 0.53931 0.65475 -0.00046
 O240 O 0.45155 0.41174 -0.00262
 H241 H 0.44655 0.58907 0.17394
 H242 H 0.53165 0.25092 0.00224
 H243 H 0.44959 0.59046 -0.18193
 H244 H 0.56103 0.69715 -0.00041
 H245 H 0.45246 0.21727 0.07463
 H246 H 0.45256 0.21801 -0.08107
 H247 H 0.49944 0.43287 -0.27148
 H248 H 0.51753 0.60887 -0.27161
 H249 H 0.49929 0.89821 -0.08192
 H250 H 0.49921 0.89578 0.07138
 H251 H 0.51414 0.60843 0.26941
 H252 H 0.50325 0.42257 0.26857
 N253 N 0.33035 0.55138 0.16037
 N254 N 0.30409 0.53390 0.22348
 C255 C 0.31999 0.43951 0.27256
 C256 C 0.35697 0.39724 0.24400
 C257 C 0.36223 0.46977 0.17409
 H258 H 0.37699 0.32145 0.26872
 H259 H 0.32575 0.61861 0.11298
 H260 H 0.27703 0.58616 0.23054
 N261 N -0.13919 0.74191 0.12708
 N262 N -0.16867 0.73386 0.18449
 C263 C -0.15888 0.76826 0.26359
 C264 C -0.12272 0.79772 0.25786
 C265 C -0.11176 0.78034 0.17178
 H266 H -0.10782 0.83774 0.30704
 H267 H -0.13946 0.72390 0.06083
 H268 H -0.19322 0.70250 0.16746
 N269 N 0.66113 0.58911 0.14162
 N270 N 0.68757 0.62459 0.19687
 C271 C 0.66938 0.66429 0.27074
 C272 C 0.63090 0.65750 0.26302
 C273 C 0.62701 0.61103 0.18132
 H274 H 0.60838 0.68587 0.30936
 H275 H 0.66721 0.55471 0.07967
 H276 H 0.71670 0.61485 0.18371
 N277 N 0.15770 1.10043 0.13485
 N278 N 0.18390 1.12847 0.19355
 C279 C 0.16495 1.17267 0.26527
 C280 C 0.12605 1.17096 0.25424
 C281 C 0.12292 1.12611 0.17123
 H282 H 0.10315 1.19934 0.29962
 H283 H 0.16476 1.06333 0.07408
 H284 H 0.21328 1.11394 0.18283
 N285 N 0.63170 0.12444 -0.13386
 N286 N 0.66194 0.09259 -0.19108
 C287 C 0.65119 0.14214 -0.26925
 C288 C 0.61378 0.20487 -0.26366
 C289 C 0.60300 0.19256 -0.17783
 H290 H 0.59875 0.26674 -0.31145
 H291 H 0.63337 0.11070 -0.06668
 H292 H 0.68899 0.04722 -0.17295
 N293 N 0.16691 0.63435 -0.12821
 N294 N 0.19614 0.63570 -0.18056
 C295 C 0.18290 0.67989 -0.25838
 C296 C 0.14346 0.70814 -0.25521
 C297 C 0.13440 0.67899 -0.17132
 H298 H 0.12473 0.75961 -0.30276
 H299 H 0.16951 0.61306 -0.06199
 H300 H 0.22463 0.61591 -0.16105
 N301 N 0.36883 0.97136 -0.15309
 N302 N 0.33770 0.99768 -0.20946
 C303 C 0.34404 0.92029 -0.27534
 C304 C 0.37909 0.84599 -0.26339
 C305 C 0.39356 0.88051 -0.18701
 H306 H 0.39048 0.76732 -0.29999
 H307 H 0.37021 1.00705 -0.09143
 H308 H 0.31448 1.06686 -0.20125
 N309 N -0.11338 1.31083 -0.25126
 N310 N -0.14447 1.32803 -0.30728
 C311 C -0.16519 1.24408 -0.28889
 C312 C -0.14838 1.17351 -0.22005
 C313 C -0.11555 1.21641 -0.20031
 H314 H -0.15554 1.09089 -0.19721
 H315 H -0.09069 1.35600 -0.25609
 H316 H -0.14784 1.38716 -0.36009
 N317 N 0.66408 0.56668 -0.14356
 N318 N 0.69086 0.59874 -0.20027
 C319 C 0.67229 0.64761 -0.27217
 C320 C 0.63340 0.64907 -0.26232
 C321 C 0.62959 0.59932 -0.18066
 H322 H 0.61070 0.68553 -0.30705
 H323 H 0.67025 0.52722 -0.08246
 H324 H 0.72022 0.58229 -0.18884
 N325 N 0.16007 1.09861 -0.14705
 N326 N 0.18487 1.13709 -0.20548
 C327 C 0.16501 1.17955 -0.27736
 C328 C 0.12679 1.16971 -0.26564
 C329 C 0.12509 1.12015 -0.18270
 H330 H 0.10320 1.19680 -0.31015
 H331 H 0.16809 1.05825 -0.08702
 H332 H 0.21420 1.12784 -0.19533
 N333 N 0.33580 0.56285 -0.19562
 N334 N 0.31067 0.53917 -0.25222
 C335 C 0.32346 0.43132 -0.28566
 C336 C 0.35880 0.38444 -0.24927
 C337 C 0.36547 0.47096 -0.19214
 H338 H 0.37705 0.30046 -0.26302
 H339 H 0.33293 0.64222 -0.16174
 H340 H 0.28529 0.59655 -0.26808
 N341 N -0.12740 0.69684 -0.15266
 N342 N -0.15527 0.68532 -0.20611
 C343 C -0.15302 0.75239 -0.27779
 C344 C -0.12213 0.80874 -0.26993
 C345 C -0.10687 0.77095 -0.18958
 H346 H -0.11314 0.87180 -0.31444
 H347 H -0.12282 0.65527 -0.09180
 H348 H -0.17554 0.63261 -0.19333
 N349 N 0.39117 0.97345 0.21586
 N350 N 0.36297 0.99993 0.27235
 C351 C 0.34257 0.91215 0.27385
 C352 C 0.35789 0.82862 0.21368
 C353 C 0.38872 0.86984 0.17879
 H354 H 0.35113 0.74185 0.20641
 H355 H 0.41270 1.02251 0.20653
 H356 H 0.35946 1.07287 0.31335
 N357 N -0.11967 1.30442 0.22448
 N358 N -0.14810 1.31458 0.28020
 C359 C -0.16492 1.21943 0.27338
 C360 C -0.14673 1.14576 0.20954
 C361 C -0.11816 1.20344 0.18047
 H362 H -0.15062 1.05685 0.19437
 H363 H -0.10009 1.36139 0.22116
 H364 H -0.15411 1.38163 0.32608
 N365 N 0.59731 0.08417 0.21649
 N366 N 0.62640 0.04440 0.26873
 C367 C 0.64637 0.13156 0.28005
 C368 C 0.62986 0.23002 0.23184
 C369 C 0.59901 0.19614 0.19278
 H370 H 0.63757 0.31679 0.23054
 H371 H 0.57646 0.03606 0.19907
 H372 H 0.63148 -0.03896 0.29896
 N373 N 0.13409 0.58563 0.22897
 N374 N 0.16259 0.57542 0.28494
 C375 C 0.17413 0.68047 0.29086
 C376 C 0.15204 0.76015 0.23462
 C377 C 0.12760 0.69622 0.19613
 H378 H 0.15174 0.85404 0.22750
 H379 H 0.11866 0.51918 0.21587
 H380 H 0.17257 0.49865 0.32076
   
