data_POSCAR
  _audit_creation_date              2014-09-24
  _audit_creation_method            'ToBaCCo'
  _symmetry_space_group_name_H-M    'P1'
  _symmetry_Int_Tables_number       1
  _symmetry_cell_setting            triclinic
  loop_
  _symmetry_equiv_pos_as_xyz
 x,y,z
_cell_length_a 51.0866
_cell_length_b 50.8409
_cell_length_c 47.9291
_cell_angle_alpha 90.070200
_cell_angle_beta 90.030500
_cell_angle_gamma 92.375100
loop_
  _atom_site_label
  _atom_site_type_symbol
  _atom_site_fract_x
  _atom_site_fract_y
  _atom_site_fract_z
O1 O -0.02621 0.29339 0.02463
 O2 O 0.02107 0.30173 -0.03329
 O3 O -0.02983 0.29816 -0.02925
 O4 O 0.02460 0.29906 0.02075
 O5 O 0.02637 0.25581 0.01763
 O6 O -0.02804 0.25499 -0.03330
 O7 O 0.02296 0.25855 -0.03659
 O8 O -0.02445 0.25021 0.02065
 Cu9 Cu -0.00278 0.30240 -0.00393
 Cu10 Cu -0.00059 0.25056 -0.00829
 C11 C -0.03342 0.27030 0.03240
 C12 C 0.03016 0.28148 -0.04476
 C13 C -0.03824 0.27655 -0.03980
 C14 C 0.03473 0.27771 0.02780
 O15 O 0.47378 0.77981 0.52580
 O16 O 0.52483 0.76692 0.47407
 O17 O 0.47386 0.76727 0.47309
 O18 O 0.52457 0.77933 0.52688
 O19 O 0.52276 0.73702 0.53744
 O20 O 0.47151 0.72512 0.48428
 O21 O 0.52245 0.72465 0.48475
 O22 O 0.47182 0.73767 0.53707
 Cu23 Cu 0.49949 0.77756 0.49881
 Cu24 Cu 0.49689 0.72687 0.51200
 C25 C 0.46422 0.76095 0.54037
 C26 C 0.53230 0.74363 0.47054
 C27 C 0.46402 0.74414 0.46956
 C28 C 0.53230 0.76021 0.54130
 O29 O 1.02723 0.72804 0.02942
 O30 O 0.97369 0.72808 -0.02260
 O31 O 1.02469 0.73151 -0.02469
 O32 O 0.97647 0.72227 0.03140
 O33 O 0.97411 0.76537 0.03567
 O34 O 1.02303 0.77465 -0.02062
 O35 O 0.97221 0.77125 -0.01823
 O36 O 1.02493 0.77113 0.03367
 Cu37 Cu 1.00071 0.72315 0.00291
 Cu38 Cu 0.99840 0.77492 0.00807
 C39 C 1.03507 0.74972 0.04051
 C40 C 0.96394 0.74982 -0.02927
 C41 C 1.03216 0.75453 -0.03230
 C42 C 0.96709 0.74214 0.04313
 O43 O 0.47337 0.21990 0.47126
 O44 O 0.52168 0.23269 0.52715
 O45 O 0.47070 0.23026 0.52429
 O46 O 0.52433 0.22182 0.47418
 O47 O 0.52464 0.26428 0.46442
 O48 O 0.47122 0.27281 0.51498
 O49 O 0.52235 0.27518 0.51754
 O50 O 0.47365 0.26246 0.46202
 Cu51 Cu 0.49750 0.22191 0.50020
 Cu52 Cu 0.49805 0.27296 0.48880
 C53 C 0.46516 0.23905 0.45725
 C54 C 0.53031 0.25608 0.53180
 C55 C 0.46174 0.25293 0.52809
 C56 C 0.53356 0.24157 0.46070
 O57 O 0.71025 -0.02568 0.02500
 O58 O 0.72222 0.02386 -0.03026
 O59 O 0.72079 -0.02743 -0.02805
 O60 O 0.71022 0.02533 0.02259
 O61 O 0.75249 0.02734 0.03249
 O62 O 0.76305 -0.02595 -0.01812
 O63 O 0.76443 0.02519 -0.02023
 O64 O 0.75248 -0.02392 0.03504
 Cu65 Cu 0.71165 -0.00112 -0.00374
 Cu66 Cu 0.76235 0.00082 0.00834
 C67 C 0.72939 -0.03320 0.03945
 C68 C 0.74543 0.03294 -0.03469
 C69 C 0.74363 -0.03575 -0.03170
 C70 C 0.72949 0.03533 0.03616
 O71 O 0.24986 0.52516 0.47228
 O72 O 0.25149 0.47587 0.52852
 O73 O 0.25101 0.52698 0.52660
 O74 O 0.24895 0.47394 0.47415
 O75 O 0.29219 0.47551 0.47243
 O76 O 0.29425 0.52874 0.52489
 O77 O 0.29473 0.47748 0.52682
 O78 O 0.29311 0.52651 0.47068
 Cu79 Cu 0.24598 0.50030 0.50057
 Cu80 Cu 0.29790 0.50218 0.49860
 C81 C 0.27129 0.53415 0.46187
 C82 C 0.27345 0.46836 0.53728
 C83 C 0.27295 0.53693 0.53465
 C84 C 0.27020 0.46581 0.46421
 O85 O 0.26601 1.02836 0.03302
 O86 O 0.28038 0.97950 -0.02108
 O87 O 0.27805 1.03063 -0.01963
 O88 O 0.26843 0.97739 0.03176
 O89 O 0.22639 0.97389 0.02100
 O90 O 0.23606 1.02710 -0.03049
 O91 O 0.23834 0.97595 -0.03182
 O92 O 0.22400 1.02490 0.02223
 Cu93 Cu 0.27744 1.00429 0.00708
 Cu94 Cu 0.22699 1.00010 -0.00591
 C95 C 0.24256 1.03499 0.03687
 C96 C 0.26179 0.96935 -0.03562
 C97 C 0.25868 1.03804 -0.03376
 C98 C 0.24578 0.96664 0.03521
 O99 O 0.82253 0.47883 0.47140
 O100 O 0.82245 0.52540 0.53024
 O101 O 0.82376 0.47456 0.52563
 O102 O 0.82154 0.52984 0.47627
 O103 O 0.77828 0.52698 0.47692
 O104 O 0.78052 0.47152 0.52642
 O105 O 0.77919 0.52254 0.53101
 O106 O 0.77928 0.47600 0.47224
 Cu107 Cu 0.82691 0.50239 0.50077
 Cu108 Cu 0.77497 0.49894 0.50173
 C109 C 0.80092 0.46954 0.46176
 C110 C 0.80080 0.53193 0.54060
 C111 C 0.80257 0.46370 0.53453
 C112 C 0.79958 0.53788 0.46825
 C113 C 0.22858 0.25876 0.25293
 C114 C 0.24958 0.24311 0.25175
 C115 C 0.25164 0.22181 0.23067
 C116 C 0.27185 0.24687 0.27144
 C117 C 0.22572 0.27787 0.27608
 C118 C 0.20802 0.25787 0.23103
 C119 C 0.23143 0.20250 0.22712
 C120 C 0.23385 0.18240 0.20744
 C121 C 0.25666 0.18117 0.19110
 C122 C 0.27702 0.20018 0.19515
 C123 C 0.27453 0.22030 0.21469
 C124 C 0.27920 0.22599 0.28841
 C125 C 0.30007 0.22938 0.30709
 C126 C 0.31426 0.25369 0.30876
 C127 C 0.30686 0.27450 0.29163
 C128 C 0.28597 0.27109 0.27300
 C129 C 0.22537 0.30490 0.27039
 C130 C 0.22500 0.32315 0.29224
 C131 C 0.22471 0.31458 0.32015
 C132 C 0.22377 0.28746 0.32570
 C133 C 0.22442 0.26925 0.30387
 C134 C 0.21465 0.26107 0.20278
 C135 C 0.19529 0.25924 0.18218
 C136 C 0.16884 0.25455 0.18953
 C137 C 0.16226 0.25163 0.21783
 C138 C 0.18164 0.25351 0.23842
 H139 H 0.21392 0.20284 0.23981
 H140 H 0.21811 0.16761 0.20562
 H141 H 0.29488 0.19953 0.18305
 H142 H 0.29047 0.23484 0.21725
 H143 H 0.26846 0.20719 0.28750
 H144 H 0.30458 0.21307 0.32046
 H145 H 0.28081 0.28732 0.25976
 H146 H 0.22614 0.31188 0.24905
 H147 H 0.22491 0.34389 0.28722
 H148 H 0.22320 0.28038 0.34701
 H149 H 0.22436 0.24842 0.30862
 H150 H 0.23489 0.26469 0.19667
 H151 H 0.20126 0.26095 0.16060
 H152 H 0.14206 0.24790 0.22403
 H153 H 0.17613 0.25102 0.26011
 H154 H 0.31736 0.29343 0.29257
 C155 C 0.75885 0.74159 0.25576
 C156 C 0.74242 0.76195 0.25794
 C157 C 0.74444 0.78472 0.23855
 C158 C 0.72151 0.76251 0.27940
 C159 C 0.75898 0.71999 0.27660
 C160 C 0.77802 0.74046 0.23256
 C161 C 0.76769 0.80028 0.23655
 C162 C 0.76977 0.82087 0.21729
 C163 C 0.74859 0.82650 0.19987
 C164 C 0.72515 0.81106 0.20225
 C165 C 0.72308 0.79053 0.22160
 C166 C 0.71938 0.78492 0.29620
 C167 C 0.69934 0.78616 0.31588
 C168 C 0.68107 0.76503 0.31919
 C169 C 0.68299 0.74267 0.30208
 C170 C 0.70302 0.74148 0.28230
 C171 C 0.75590 0.69375 0.26773
 C172 C 0.75601 0.67322 0.28708
 C173 C 0.75972 0.67848 0.31560
 C174 C 0.76288 0.70483 0.32448
 C175 C 0.76263 0.72538 0.30511
 C176 C 0.76969 0.74112 0.20467
 C177 C 0.78802 0.74277 0.18307
 C178 C 0.81496 0.74324 0.18891
 C179 C 0.82324 0.74167 0.21686
 C180 C 0.80488 0.74014 0.23846
 H181 H 0.78430 0.79626 0.24970
 H182 H 0.78806 0.83235 0.21588
 H183 H 0.70856 0.81415 0.18885
 H184 H 0.70502 0.77864 0.22282
 H185 H 0.73329 0.80146 0.29411
 H186 H 0.69814 0.80371 0.32859
 H187 H 0.70385 0.72434 0.26895
 H188 H 0.75312 0.68919 0.24582
 H189 H 0.75339 0.65313 0.27971
 H190 H 0.76514 0.70970 0.34635
 H191 H 0.76528 0.74550 0.31235
 H192 H 0.74900 0.74106 0.19969
 H193 H 0.78114 0.74397 0.16174
 H194 H 0.84380 0.74261 0.22229
 H195 H 0.81164 0.73974 0.25987
 H196 H 0.66877 0.72637 0.30334
 C197 C 0.73027 0.25761 0.23395
 C198 C 0.74925 0.27724 0.23504
 C199 C 0.77092 0.27935 0.21443
 C200 C 0.74956 0.29773 0.25708
 C201 C 0.70909 0.25546 0.25516
 C202 C 0.72985 0.23727 0.21167
 C203 C 0.78824 0.25891 0.21075
 C204 C 0.80853 0.26137 0.19119
 C205 C 0.81198 0.28452 0.17522
 C206 C 0.79460 0.30488 0.17910
 C207 C 0.77443 0.30242 0.19866
 C208 C 0.77147 0.30081 0.27456
 C209 C 0.77219 0.31981 0.29559
 C210 C 0.75110 0.33643 0.29926
 C211 C 0.72915 0.33327 0.28173
 C212 C 0.72845 0.31422 0.26064
 C213 C 0.68290 0.25660 0.24671
 C214 C 0.66281 0.25634 0.26649
 C215 C 0.66848 0.25453 0.29508
 C216 C 0.69477 0.25274 0.30350
 C217 C 0.71486 0.25303 0.28366
 C218 C 0.73017 0.24425 0.18333
 C219 C 0.73175 0.22489 0.16274
 C220 C 0.73234 0.19820 0.17008
 C221 C 0.73121 0.19121 0.19846
 C222 C 0.72986 0.21059 0.21902
 H223 H 0.78597 0.24103 0.22293
 H224 H 0.82105 0.24495 0.18841
 H225 H 0.79672 0.32284 0.16704
 H226 H 0.76130 0.31843 0.20127
 H227 H 0.78785 0.28813 0.27219
 H228 H 0.78906 0.32089 0.30923
 H229 H 0.71148 0.31231 0.24712
 H230 H 0.67806 0.25841 0.22481
 H231 H 0.64278 0.25783 0.25944
 H232 H 0.70004 0.25189 0.32531
 H233 H 0.73497 0.25189 0.29056
 H234 H 0.72968 0.26472 0.17718
 H235 H 0.73262 0.23075 0.14103
 H236 H 0.73226 0.17090 0.20495
 H237 H 0.72967 0.20481 0.24077
 H238 H 0.71259 0.34570 0.28423
 C239 C 0.26410 0.75536 0.24598
 C240 C 0.24515 0.73567 0.24631
 C241 C 0.22581 0.73211 0.22329
 C242 C 0.24264 0.71678 0.26982
 C243 C 0.28496 0.75746 0.26764
 C244 C 0.26480 0.77601 0.22405
 C245 C 0.19894 0.73092 0.22940
 C246 C 0.18046 0.72785 0.20805
 C247 C 0.18854 0.72590 0.18008
 C248 C 0.21545 0.72619 0.17410
 C249 C 0.23395 0.72928 0.19551
 C250 C 0.23965 0.72561 0.29736
 C251 C 0.23757 0.70756 0.31930
 C252 C 0.23847 0.68044 0.31409
 C253 C 0.24056 0.67163 0.28637
 C254 C 0.24260 0.68966 0.26447
 C255 C 0.30084 0.73622 0.27341
 C256 C 0.32039 0.73853 0.29381
 C257 C 0.32452 0.76223 0.30870
 C258 C 0.30905 0.78360 0.30234
 C259 C 0.28946 0.78125 0.28206
 C260 C 0.28771 0.78078 0.20845
 C261 C 0.28867 0.80015 0.18781
 C262 C 0.26689 0.81538 0.18255
 C263 C 0.24392 0.81061 0.19833
 C264 C 0.24300 0.79124 0.21902
 H265 H 0.19227 0.73261 0.25076
 H266 H 0.15993 0.72670 0.21361
 H267 H 0.22218 0.72433 0.15279
 H268 H 0.25461 0.72949 0.19042
 H269 H 0.23900 0.74645 0.30184
 H270 H 0.23559 0.71480 0.34043
 H271 H 0.24442 0.68248 0.24330
 H272 H 0.29821 0.71793 0.26195
 H273 H 0.33250 0.72191 0.29739
 H274 H 0.31201 0.80216 0.31326
 H275 H 0.27762 0.79796 0.27774
 H276 H 0.30477 0.76930 0.21210
 H277 H 0.30658 0.80332 0.17598
 H278 H 0.22647 0.82139 0.19472
 H279 H 0.22524 0.78808 0.23110
 H280 H 0.24034 0.65085 0.28144
 C281 C 0.76189 0.24800 0.73902
 C282 C 0.74067 0.23092 0.74099
 C283 C 0.71855 0.23143 0.72092
 C284 C 0.73823 0.21071 0.76336
 C285 C 0.78304 0.24856 0.76032
 C286 C 0.76494 0.26710 0.71562
 C287 C 0.70453 0.25431 0.71689
 C288 C 0.68332 0.25417 0.69841
 C289 C 0.67574 0.23106 0.68375
 C290 C 0.68958 0.20817 0.68825
 C291 C 0.71075 0.20834 0.70664
 C292 C 0.71552 0.20909 0.77981
 C293 C 0.71246 0.18981 0.80039
 C294 C 0.73208 0.17181 0.80506
 C295 C 0.75473 0.17317 0.78830
 C296 C 0.75770 0.19240 0.76755
 C297 C 0.80900 0.24506 0.75211
 C298 C 0.82896 0.24450 0.77201
 C299 C 0.82343 0.24782 0.80046
 C300 C 0.79738 0.25167 0.80864
 C301 C 0.77744 0.25226 0.78870
 C302 C 0.76351 0.25874 0.68769
 C303 C 0.76537 0.27711 0.66600
 C304 C 0.76930 0.30406 0.67177
 C305 C 0.77122 0.31233 0.69976
 C306 C 0.76918 0.29399 0.72142
 H307 H 0.70984 0.27214 0.72830
 H308 H 0.67266 0.27198 0.69622
 H309 H 0.68402 0.19006 0.67745
 H310 H 0.72116 0.19043 0.70969
 H311 H 0.70014 0.22284 0.77674
 H312 H 0.69473 0.18902 0.81281
 H313 H 0.77503 0.19280 0.75453
 H314 H 0.81372 0.24223 0.73031
 H315 H 0.84880 0.24142 0.76516
 H316 H 0.79214 0.25367 0.83036
 H317 H 0.75754 0.25524 0.79542
 H318 H 0.76073 0.23804 0.68270
 H319 H 0.76378 0.27023 0.64464
 H320 H 0.77355 0.33297 0.70509
 H321 H 0.77030 0.30085 0.74281
 H322 H 0.76987 0.15909 0.79065
 C323 C 0.23741 0.73454 0.75574
 C324 C 0.25632 0.75426 0.75517
 C325 C 0.27961 0.75275 0.73687
 C326 C 0.25454 0.77791 0.77322
 C327 C 0.21755 0.73333 0.77831
 C328 C 0.23637 0.71295 0.73469
 C329 C 0.29532 0.73078 0.73789
 C330 C 0.31618 0.72858 0.71937
 C331 C 0.32197 0.74840 0.69970
 C332 C 0.30656 0.77076 0.69918
 C333 C 0.28571 0.77297 0.71781
 C334 C 0.27498 0.78512 0.79159
 C335 C 0.27268 0.80649 0.80972
 C336 C 0.24996 0.82131 0.80945
 C337 C 0.22983 0.81432 0.79056
 C338 C 0.23213 0.79296 0.77253
 C339 C 0.19079 0.73373 0.77194
 C340 C 0.17217 0.73325 0.79334
 C341 C 0.18012 0.73199 0.82140
 C342 C 0.20688 0.73082 0.82761
 C343 C 0.22546 0.73165 0.80626
 C344 C 0.23782 0.71855 0.70601
 C345 C 0.23790 0.69816 0.68642
 C346 C 0.23618 0.67174 0.69514
 C347 C 0.23359 0.66620 0.72371
 C348 C 0.23378 0.68660 0.74331
 H349 H 0.29112 0.71513 0.75274
 H350 H 0.32768 0.71117 0.72023
 H351 H 0.30988 0.78623 0.68401
 H352 H 0.27375 0.79004 0.71671
 H353 H 0.29239 0.77369 0.79246
 H354 H 0.28843 0.81074 0.82430
 H355 H 0.21628 0.78794 0.75822
 H356 H 0.18438 0.73474 0.75044
 H357 H 0.15162 0.73340 0.78785
 H358 H 0.21343 0.72953 0.84904
 H359 H 0.24605 0.73094 0.81150
 H360 H 0.23895 0.73873 0.69878
 H361 H 0.23892 0.70317 0.66450
 H362 H 0.23188 0.64602 0.73092
 H363 H 0.23236 0.68178 0.76528
 H364 H 0.21213 0.82532 0.78988
 C365 C 0.25343 0.23507 0.74243
 C366 C 0.23468 0.25338 0.74162
 C367 C 0.23555 0.27526 0.72116
 C368 C 0.21213 0.25241 0.76122
 C369 C 0.25273 0.21391 0.76376
 C370 C 0.27541 0.23492 0.72208
 C371 C 0.25739 0.29283 0.71925
 C372 C 0.25794 0.31312 0.69955
 C373 C 0.23641 0.31635 0.68166
 C374 C 0.21455 0.29884 0.68389
 C375 C 0.21403 0.27862 0.70355
 C376 C 0.20795 0.27397 0.77870
 C377 C 0.18728 0.27315 0.79780
 C378 C 0.17011 0.25082 0.79946
 C379 C 0.17420 0.22939 0.78168
 C380 C 0.19488 0.23024 0.76257
 C381 C 0.25119 0.18751 0.75527
 C382 C 0.24947 0.16737 0.77505
 C383 C 0.24971 0.17324 0.80367
 C384 C 0.25165 0.19976 0.81218
 C385 C 0.25331 0.21991 0.79236
 C386 C 0.27087 0.23484 0.69316
 C387 C 0.29186 0.23437 0.67443
 C388 C 0.31776 0.23364 0.68434
 C389 C 0.32215 0.23308 0.71323
 C390 C 0.30122 0.23379 0.73190
 H391 H 0.27408 0.29071 0.73289
 H392 H 0.27542 0.32574 0.69818
 H393 H 0.19775 0.30081 0.67035
 H394 H 0.19696 0.26530 0.70477
 H395 H 0.22111 0.29122 0.77798
 H396 H 0.18533 0.28978 0.81160
 H397 H 0.19756 0.21355 0.74896
 H398 H 0.25076 0.18252 0.73329
 H399 H 0.24787 0.14712 0.76796
 H400 H 0.25127 0.20511 0.83401
 H401 H 0.25469 0.24021 0.79928
 H402 H 0.25107 0.23485 0.68510
 H403 H 0.28766 0.23391 0.65231
 H404 H 0.34187 0.23221 0.72139
 H405 H 0.30518 0.23354 0.75410
 H406 H 0.16135 0.21192 0.78258
 C407 C 0.72992 0.74550 0.76562
 C408 C 0.74711 0.72584 0.76833
 C409 C 0.74832 0.70420 0.74760
 C410 C 0.76644 0.72549 0.79149
 C411 C 0.72743 0.76579 0.78762
 C412 C 0.71275 0.74757 0.74069
 C413 C 0.72607 0.68819 0.74160
 C414 C 0.72671 0.66832 0.72158
 C415 C 0.75112 0.66291 0.70556
 C416 C 0.77420 0.68056 0.71404
 C417 C 0.77209 0.69999 0.73422
 C418 C 0.76804 0.70297 0.80817
 C419 C 0.78715 0.70178 0.82895
 C420 C 0.80532 0.72289 0.83311
 C421 C 0.80342 0.74566 0.81664
 C422 C 0.78427 0.74683 0.79589
 C423 C 0.73136 0.79250 0.78094
 C424 C 0.72975 0.81174 0.80163
 C425 C 0.72395 0.80454 0.82935
 C426 C 0.71919 0.77785 0.83578
 C427 C 0.72103 0.75860 0.81512
 C428 C 0.72321 0.74749 0.71359
 C429 C 0.70669 0.74790 0.69036
 C430 C 0.67949 0.74919 0.69376
 C431 C 0.66909 0.75013 0.72090
 C432 C 0.68561 0.74941 0.74413
 H433 H 0.70786 0.69128 0.75245
 H434 H 0.70898 0.65660 0.71731
 H435 H 0.79300 0.67835 0.70416
 H436 H 0.78927 0.71235 0.73915
 H437 H 0.75452 0.68625 0.80500
 H438 H 0.78805 0.68412 0.84146
 H439 H 0.78359 0.76427 0.78300
 H440 H 0.73601 0.79840 0.75975
 H441 H 0.73267 0.83220 0.79577
 H442 H 0.71434 0.77187 0.85690
 H443 H 0.71748 0.73808 0.82055
 H444 H 0.74415 0.74672 0.71042
 H445 H 0.71516 0.74716 0.66968
 H446 H 0.64818 0.75054 0.72431
 H447 H 0.67713 0.74955 0.76483
 H448 H 0.81649 0.76268 0.81973
 C449 C 0.23682 0.05352 0.05722
 C450 C 0.25617 0.06544 0.07424
 C451 C 0.25110 0.08554 0.09583
 C452 C 0.27073 0.09150 0.11563
 C453 C 0.26724 0.11071 0.13600
 C454 C 0.24404 0.12465 0.13685
 C455 C 0.22425 0.11849 0.11733
 C456 C 0.22776 0.09930 0.09688
 C457 C 0.23980 0.14539 0.15792
 C458 C 0.26041 0.15998 0.17043
 H459 H 0.27617 0.05937 0.07211
 H460 H 0.28885 0.08116 0.11541
 H461 H 0.28262 0.11429 0.15122
 H462 H 0.20617 0.12891 0.11759
 H463 H 0.21231 0.09583 0.08176
 H464 H 0.21982 0.15049 0.16212
 H465 H 0.21654 0.05834 0.05978
 H466 H 0.28024 0.15698 0.16354
 C467 C 0.80110 0.55076 0.56387
 C468 C 0.77807 0.55897 0.57620
 C469 C 0.77757 0.57860 0.59902
 C470 C 0.75484 0.58000 0.61531
 C471 C 0.75341 0.59854 0.63676
 C472 C 0.77473 0.61618 0.64220
 C473 C 0.79737 0.61492 0.62581
 C474 C 0.79879 0.59643 0.60436
 C475 C 0.77394 0.63625 0.66446
 C476 C 0.75190 0.63957 0.68083
 H477 H 0.75951 0.55016 0.56925
 H478 H 0.73814 0.56665 0.61147
 H479 H 0.73562 0.59905 0.64898
 H480 H 0.81396 0.62846 0.62943
 H481 H 0.81634 0.59665 0.59178
 H482 H 0.79114 0.64907 0.66763
 H483 H 0.82000 0.55798 0.57144
 H484 H 0.75208 0.65149 0.69321
 C485 C 0.72451 0.94713 0.06153
 C486 C 0.74491 0.93705 0.07710
 C487 C 0.74103 0.91709 0.09938
 C488 C 0.76223 0.90199 0.10708
 C489 C 0.75954 0.88302 0.12807
 C490 C 0.73557 0.87906 0.14223
 C491 C 0.71437 0.89421 0.13455
 C492 C 0.71705 0.91313 0.11347
 C493 C 0.73164 0.85886 0.16431
 C494 C 0.75221 0.84775 0.17885
 H495 H 0.76488 0.94326 0.07197
 H496 H 0.78091 0.90463 0.09652
 H497 H 0.77616 0.87128 0.13265
 H498 H 0.69568 0.89155 0.14507
 H499 H 0.70042 0.92480 0.10868
 H500 H 0.71165 0.85344 0.16992
 H501 H 0.70450 0.94009 0.06494
 H502 H 0.77201 0.85540 0.17540
 C503 C 0.27463 0.44891 0.55984
 C504 C 0.25211 0.43825 0.57270
 C505 C 0.25261 0.41845 0.59532
 C506 C 0.22985 0.40292 0.60067
 C507 C 0.22951 0.38381 0.62160
 C508 C 0.25207 0.37983 0.63767
 C509 C 0.27456 0.39596 0.63295
 C510 C 0.27491 0.41507 0.61200
 C511 C 0.25270 0.35958 0.65982
 C512 C 0.23606 0.33705 0.65995
 H513 H 0.23316 0.44385 0.56508
 H514 H 0.21226 0.40549 0.58851
 H515 H 0.21142 0.37257 0.62530
 H516 H 0.29202 0.39365 0.64540
 H517 H 0.29255 0.42728 0.60930
 H518 H 0.26732 0.36237 0.67598
 H519 H 0.29377 0.44265 0.56595
 H520 H 0.22179 0.33429 0.64343
 C521 C 0.94753 0.26629 0.05514
 C522 C 0.93598 0.28719 0.06865
 C523 C 0.91585 0.28354 0.09075
 C524 C 0.89927 0.30420 0.09642
 C525 C 0.87970 0.30143 0.11670
 C526 C 0.87629 0.27780 0.13181
 C527 C 0.89345 0.25749 0.12680
 C528 C 0.91302 0.26025 0.10651
 C529 C 0.85561 0.27384 0.15328
 C530 C 0.83280 0.28809 0.15388
 H531 H 0.94085 0.30707 0.06171
 H532 H 0.90135 0.32253 0.08497
 H533 H 0.86764 0.31801 0.12064
 H534 H 0.89160 0.23929 0.13852
 H535 H 0.92599 0.24422 0.10359
 H536 H 0.85841 0.25871 0.16871
 H537 H 0.94190 0.24620 0.06050
 H538 H 0.82998 0.30302 0.13823
 C539 C 0.44422 0.76652 0.56135
 C540 C 0.43276 0.74677 0.57807
 C541 C 0.41283 0.75172 0.59966
 C542 C 0.39639 0.73064 0.60865
 C543 C 0.37739 0.73437 0.62907
 C544 C 0.37473 0.75931 0.64129
 C545 C 0.39118 0.78039 0.63230
 C546 C 0.41017 0.77666 0.61184
 C547 C 0.35459 0.76421 0.66267
 C548 C 0.34327 0.74430 0.67936
 H549 H 0.43792 0.72658 0.57453
 H550 H 0.39801 0.71125 0.59957
 H551 H 0.36458 0.71778 0.63473
 H552 H 0.38952 0.79979 0.64134
 H553 H 0.42290 0.79327 0.60608
 H554 H 0.34951 0.78439 0.66606
 H555 H 0.43830 0.78661 0.56323
 H556 H 0.35077 0.72474 0.67814
 C557 C 0.05472 0.75055 0.06068
 C558 C 0.06755 0.72832 0.06962
 C559 C 0.08722 0.72958 0.09234
 C560 C 0.10710 0.71134 0.09288
 C561 C 0.12594 0.71221 0.11412
 C562 C 0.12505 0.73126 0.13539
 C563 C 0.10472 0.74896 0.13524
 C564 C 0.08603 0.74820 0.11398
 C565 C 0.14426 0.73282 0.15853
 C566 C 0.16944 0.72319 0.15688
 H567 H 0.06379 0.70965 0.05911
 H568 H 0.10814 0.69651 0.07672
 H569 H 0.14081 0.69767 0.11403
 H570 H 0.10331 0.76352 0.15165
 H571 H 0.07042 0.76193 0.11488
 H572 H 0.13887 0.74371 0.17693
 H573 H 0.06020 0.76956 0.06962
 H574 H 0.17614 0.71518 0.13734
 C575 C 0.54998 0.26133 0.55373
 C576 C 0.55891 0.24125 0.57063
 C577 C 0.57966 0.24507 0.59202
 C578 C 0.58214 0.22562 0.61247
 C579 C 0.60212 0.22771 0.63233
 C580 C 0.62036 0.24920 0.63190
 C581 C 0.61759 0.26895 0.61183
 C582 C 0.59756 0.26688 0.59194
 C583 C 0.64239 0.25154 0.65197
 C584 C 0.65314 0.22961 0.66440
 H585 H 0.54998 0.22165 0.56837
 H586 H 0.56855 0.20870 0.61309
 H587 H 0.60304 0.21253 0.64805
 H588 H 0.63133 0.28574 0.61113
 H589 H 0.59673 0.28204 0.57622
 H590 H 0.65157 0.27085 0.65521
 H591 H 0.55727 0.28143 0.55654
 H592 H 0.64576 0.21016 0.65837
 C593 C 0.75057 0.05158 0.94450
 C594 C 0.73097 0.06137 0.92749
 C595 C 0.73595 0.08121 0.90520
 C596 C 0.71638 0.08482 0.88516
 C597 C 0.72006 0.10339 0.86389
 C598 C 0.74341 0.11899 0.86236
 C599 C 0.76305 0.11531 0.88225
 C600 C 0.75933 0.09683 0.90361
 C601 C 0.74806 0.13885 0.84014
 C602 C 0.72775 0.15144 0.82680
 H603 H 0.71102 0.05361 0.93003
 H604 H 0.69822 0.07306 0.88582
 H605 H 0.70476 0.10513 0.84848
 H606 H 0.78120 0.12709 0.88152
 H607 H 0.77471 0.09532 0.91892
 H608 H 0.76814 0.14505 0.83567
 H609 H 0.77076 0.05816 0.94151
 H610 H 0.70783 0.14757 0.83382
 C611 C 0.27129 0.55339 0.43906
 C612 C 0.24842 0.56419 0.42920
 C613 C 0.24841 0.58282 0.40553
 C614 C 0.22866 0.60110 0.40377
 C615 C 0.22828 0.61904 0.38167
 C616 C 0.24761 0.61880 0.36079
 C617 C 0.26686 0.59997 0.36213
 C618 C 0.26734 0.58219 0.38427
 C619 C 0.24794 0.63722 0.33693
 C620 C 0.23688 0.66187 0.33783
 H621 H 0.23008 0.55969 0.43987
 H622 H 0.21360 0.60163 0.41964
 H623 H 0.21262 0.63270 0.38082
 H624 H 0.28168 0.59908 0.34603
 H625 H 0.28228 0.56773 0.38436
 H626 H 0.25908 0.63190 0.31873
 H627 H 0.29004 0.55941 0.43011
 H628 H 0.22861 0.66870 0.35718
 C629 C 0.26780 0.94968 0.94301
 C630 C 0.24819 0.93685 0.92717
 C631 C 0.25320 0.91629 0.90609
 C632 C 0.23238 0.89910 0.89796
 C633 C 0.23613 0.87937 0.87821
 C634 C 0.26082 0.87666 0.86576
 C635 C 0.28165 0.89386 0.87386
 C636 C 0.27791 0.91359 0.89367
 C637 C 0.26573 0.85571 0.84506
 C638 C 0.24584 0.84325 0.82919
 H639 H 0.22796 0.94121 0.93129
 H640 H 0.21318 0.90070 0.90723
 H641 H 0.21974 0.86605 0.87326
 H642 H 0.30087 0.89218 0.86464
 H643 H 0.29433 0.92681 0.89878
 H644 H 0.28587 0.85091 0.84149
 H645 H 0.28805 0.94473 0.94056
 H646 H 0.22621 0.85036 0.83057
 C647 C 0.80124 0.45109 0.43817
 C648 C 0.77816 0.44076 0.42607
 C649 C 0.77755 0.42212 0.40230
 C650 C 0.75445 0.41896 0.38656
 C651 C 0.75291 0.40140 0.36411
 C652 C 0.77447 0.38636 0.35713
 C653 C 0.79756 0.38955 0.37285
 C654 C 0.79909 0.40707 0.39530
 C655 C 0.77396 0.36739 0.33364
 C656 C 0.75101 0.35655 0.32162
 H657 H 0.75958 0.44730 0.43380
 H658 H 0.73758 0.43033 0.39152
 H659 H 0.73495 0.40009 0.35217
 H660 H 0.81442 0.37815 0.36797
 H661 H 0.81701 0.40829 0.40730
 H662 H 0.79271 0.36129 0.32608
 H663 H 0.82013 0.44620 0.42994
 H664 H 0.73216 0.36293 0.32852
 C665 C 0.04827 0.28472 0.93361
 C666 C 0.05942 0.26327 0.92045
 C667 C 0.07932 0.26564 0.89798
 C668 C 0.09434 0.24381 0.89210
 C669 C 0.11338 0.24499 0.87117
 C670 C 0.11760 0.26805 0.85532
 C671 C 0.10256 0.28988 0.86115
 C672 C 0.08350 0.28870 0.88211
 C673 C 0.13805 0.27037 0.83342
 C674 C 0.14857 0.24867 0.82017
 H675 H 0.05415 0.24358 0.92776
 H676 H 0.09158 0.22581 0.90402
 H677 H 0.12504 0.22798 0.86798
 H678 H 0.10544 0.30790 0.84929
 H679 H 0.07197 0.30577 0.88543
 H680 H 0.14418 0.29001 0.82682
 H681 H 0.05408 0.30459 0.92755
 H682 H 0.14013 0.22920 0.82428
 C683 C 0.55261 0.73830 0.44980
 C684 C 0.56402 0.75834 0.43340
 C685 C 0.58463 0.75433 0.41225
 C686 C 0.59027 0.77457 0.39302
 C687 C 0.60987 0.77208 0.37303
 C688 C 0.62454 0.74930 0.37204
 C689 C 0.61873 0.72888 0.39097
 C690 C 0.59912 0.73139 0.41104
 C691 C 0.64568 0.74615 0.35134
 C692 C 0.65979 0.76758 0.33982
 H693 H 0.55705 0.77807 0.43571
 H694 H 0.57935 0.79239 0.39338
 H695 H 0.61320 0.78789 0.35821
 H696 H 0.62971 0.71110 0.39055
 H697 H 0.59587 0.71549 0.42573
 H698 H 0.65137 0.72637 0.34661
 H699 H 0.55813 0.71815 0.44732
 H700 H 0.65619 0.78718 0.34736
 C701 C 0.94300 0.75087 0.94981
 C702 C 0.93139 0.72847 0.93740
 C703 C 0.91065 0.73006 0.91593
 C704 C 0.89225 0.70902 0.91273
 C705 C 0.87222 0.71021 0.89289
 C706 C 0.87037 0.73250 0.87570
 C707 C 0.88931 0.75312 0.87833
 C708 C 0.90921 0.75199 0.89821
 C709 C 0.84967 0.73478 0.85427
 C710 C 0.82571 0.72048 0.85484
 H711 H 0.93677 0.70921 0.94453
 H712 H 0.89325 0.69171 0.92578
 H713 H 0.85862 0.69346 0.89087
 H714 H 0.88864 0.77029 0.86501
 H715 H 0.92363 0.76815 0.89929
 H716 H 0.85353 0.74874 0.83761
 H717 H 0.93624 0.77012 0.94448
 H718 H 0.82183 0.70633 0.87130
 C719 C 0.44540 0.23382 0.43544
 C720 C 0.43358 0.25418 0.42133
 C721 C 0.41249 0.24977 0.40048
 C722 C 0.39522 0.26998 0.39550
 C723 C 0.37485 0.26656 0.37622
 C724 C 0.37163 0.24291 0.36107
 C725 C 0.38903 0.22276 0.36595
 C726 C 0.40934 0.22614 0.38533
 C727 C 0.35007 0.23820 0.34076
 C728 C 0.33626 0.25838 0.32854
 H729 H 0.43885 0.27434 0.42707
 H730 H 0.39722 0.28834 0.40695
 H731 H 0.36147 0.28231 0.37377
 H732 H 0.38700 0.20435 0.35458
 H733 H 0.42267 0.21037 0.38804
 H734 H 0.34587 0.21808 0.33431
 H735 H 0.43924 0.21353 0.43153
 H736 H 0.34250 0.27863 0.33244
 C737 C 0.74783 0.94310 0.94804
 C738 C 0.72684 0.92975 0.93482
 C739 C 0.72995 0.90865 0.91394
 C740 C 0.70892 0.89057 0.90923
 C741 C 0.71074 0.87075 0.88919
 C742 C 0.73369 0.86875 0.87328
 C743 C 0.75456 0.88712 0.87761
 C744 C 0.75281 0.90684 0.89782
 C745 C 0.73598 0.84857 0.85125
 C746 C 0.72193 0.82442 0.85171
 H747 H 0.70707 0.93432 0.94076
 H748 H 0.69095 0.89182 0.92107
 H749 H 0.69394 0.85749 0.88580
 H750 H 0.77227 0.88624 0.86529
 H751 H 0.76911 0.92092 0.90022
 H752 H 0.75029 0.85236 0.83492
 H753 H 0.76773 0.93761 0.94411
 H754 H 0.71029 0.81912 0.86987
 C755 C 0.26963 0.44525 0.44253
 C756 C 0.24629 0.43257 0.43370
 C757 C 0.24490 0.41315 0.41061
 C758 C 0.22369 0.39472 0.40953
 C759 C 0.22136 0.37654 0.38763
 C760 C 0.24014 0.37663 0.36618
 C761 C 0.26105 0.39541 0.36698
 C762 C 0.26351 0.41343 0.38898
 C763 C 0.23809 0.35814 0.34229
 C764 C 0.22528 0.33336 0.34379
 H765 H 0.22830 0.43658 0.44459
 H766 H 0.20886 0.39439 0.42568
 H767 H 0.20455 0.36289 0.38728
 H768 H 0.27556 0.39615 0.35049
 H769 H 0.27963 0.42789 0.38857
 H770 H 0.24874 0.36351 0.32347
 H771 H 0.28810 0.44005 0.43345
 H772 H 0.21748 0.32650 0.36360
 C773 C 0.26260 0.05849 0.94717
 C774 C 0.24241 0.06757 0.93049
 C775 C 0.24610 0.08954 0.91045
 C776 C 0.22865 0.09116 0.88798
 C777 C 0.23138 0.11164 0.86866
 C778 C 0.25162 0.13107 0.87155
 C779 C 0.26861 0.12989 0.89447
 C780 C 0.26597 0.10931 0.91372
 C781 C 0.25498 0.15315 0.85161
 C782 C 0.24683 0.15129 0.82384
 H783 H 0.22329 0.05752 0.93126
 H784 H 0.21289 0.07645 0.88529
 H785 H 0.21731 0.11242 0.85183
 H786 H 0.28405 0.14489 0.89744
 H787 H 0.27921 0.10930 0.93133
 H788 H 0.26567 0.17075 0.85866
 H789 H 0.28219 0.06723 0.94520
 H790 H 0.23919 0.13252 0.81600
 C791 C 0.79926 0.56025 0.44881
 C792 C 0.77611 0.56918 0.43739
 C793 C 0.77546 0.59182 0.41798
 C794 C 0.75433 0.59347 0.39943
 C795 C 0.75310 0.61454 0.38080
 C796 C 0.77297 0.63455 0.38051
 C797 C 0.79368 0.63330 0.39963
 C798 C 0.79501 0.61215 0.41812
 C799 C 0.77235 0.65726 0.36120
 C800 C 0.75959 0.65611 0.33540
 H801 H 0.75782 0.55844 0.44185
 H802 H 0.73879 0.57831 0.39925
 H803 H 0.73635 0.61528 0.36704
 H804 H 0.80899 0.64869 0.40016
 H805 H 0.81112 0.61209 0.43277
 H806 H 0.78398 0.67479 0.36667
 H807 H 0.81792 0.56946 0.44296
 H808 H 0.75072 0.63754 0.32844
 C809 C 0.05047 0.75788 0.94629
 C810 C 0.06186 0.73642 0.93349
 C811 C 0.08123 0.73884 0.91064
 C812 C 0.09825 0.71826 0.90645
 C813 C 0.11650 0.71938 0.88478
 C814 C 0.11796 0.74110 0.86667
 C815 C 0.10053 0.76144 0.87041
 C816 C 0.08240 0.76044 0.89230
 C817 C 0.13684 0.74256 0.84330
 C818 C 0.16105 0.73086 0.84456
 H819 H 0.05726 0.71677 0.94134
 H820 H 0.09743 0.70121 0.92002
 H821 H 0.12905 0.70295 0.88195
 H822 H 0.10103 0.77817 0.85643
 H823 H 0.06903 0.77627 0.89436
 H824 H 0.13222 0.75451 0.82541
 H825 H 0.05620 0.77773 0.93997
 H826 H 0.16707 0.72200 0.86394
 C827 C 0.55490 0.23774 0.44067
 C828 C 0.56475 0.25803 0.42356
 C829 C 0.58605 0.25473 0.40301
 C830 C 0.58838 0.27231 0.38053
 C831 C 0.60828 0.27000 0.36077
 C832 C 0.62641 0.25004 0.36319
 C833 C 0.62450 0.23287 0.38606
 C834 C 0.60449 0.23509 0.40575
 C835 C 0.64806 0.24730 0.34295
 C836 C 0.64667 0.25597 0.31535
 H837 H 0.55567 0.27691 0.42435
 H838 H 0.57470 0.28789 0.37820
 H839 H 0.60967 0.28421 0.34400
 H840 H 0.63850 0.21763 0.38869
 H841 H 0.60393 0.22172 0.42329
 H842 H 0.66498 0.23690 0.34973
 H843 H 0.56238 0.21821 0.43892
 H844 H 0.62840 0.26332 0.30777
 C845 C 0.93981 0.27701 0.94041
 C846 C 0.92988 0.25453 0.92668
 C847 C 0.90769 0.25513 0.90682
 C848 C 0.90531 0.23585 0.88591
 C849 C 0.88481 0.23613 0.86655
 C850 C 0.86617 0.25572 0.86788
 C851 C 0.86805 0.27442 0.88939
 C852 C 0.88858 0.27421 0.90864
 C853 C 0.84421 0.25688 0.84778
 C854 C 0.84512 0.24633 0.82088
 H855 H 0.93950 0.23613 0.92953
 H856 H 0.91949 0.22065 0.88439
 H857 H 0.88349 0.22079 0.85091
 H858 H 0.85366 0.28940 0.89121
 H859 H 0.88913 0.28878 0.92511
 H860 H 0.82759 0.26808 0.85384
 H861 H 0.93169 0.29592 0.93618
 H862 H 0.86305 0.23791 0.81375
 C863 C 0.44372 0.73897 0.44822
 C864 C 0.43491 0.75882 0.43087
 C865 C 0.41469 0.75458 0.40889
 C866 C 0.41221 0.77400 0.38838
 C867 C 0.39329 0.77109 0.36740
 C868 C 0.37614 0.74873 0.36668
 C869 C 0.37871 0.72921 0.38705
 C870 C 0.39762 0.73213 0.40807
 C871 C 0.35580 0.74490 0.34481
 C872 C 0.34520 0.76575 0.33024
 H873 H 0.44389 0.77842 0.43290
 H874 H 0.42514 0.79145 0.38843
 H875 H 0.39250 0.78621 0.35161
 H876 H 0.36577 0.71177 0.38695
 H877 H 0.39836 0.71694 0.42376
 H878 H 0.34776 0.72511 0.34150
 H879 H 0.43618 0.71891 0.44592
 H880 H 0.35101 0.78573 0.33601
 C881 C 0.24163 0.94559 0.05595
 C882 C 0.26216 0.93652 0.07205
 C883 C 0.25889 0.91568 0.09348
 C884 C 0.28111 0.90273 0.10245
 C885 C 0.27906 0.88318 0.12288
 C886 C 0.25461 0.87615 0.13484
 C887 C 0.23249 0.88951 0.12633
 C888 C 0.23453 0.90904 0.10585
 C889 C 0.25160 0.85582 0.15685
 C890 C 0.26906 0.83560 0.16029
 H891 H 0.28182 0.94453 0.06820
 H892 H 0.30018 0.90780 0.09364
 H893 H 0.29677 0.87413 0.12959
 H894 H 0.21352 0.88480 0.13557
 H895 H 0.21708 0.91913 0.10027
 H896 H 0.23473 0.85684 0.17031
 H897 H 0.22203 0.93698 0.05813
 H898 H 0.28549 0.83450 0.14617
 C899 C 0.80402 0.44208 0.55479
 C900 C 0.78181 0.42781 0.56417
 C901 C 0.78281 0.40696 0.58569
 C902 C 0.76264 0.38739 0.58675
 C903 C 0.76260 0.36781 0.60725
 C904 C 0.78272 0.36758 0.62731
 C905 C 0.80263 0.38742 0.62652
 C906 C 0.80277 0.40686 0.60591
 C907 C 0.78281 0.34794 0.65012
 C908 C 0.77020 0.32307 0.64833
 H909 H 0.76300 0.43154 0.55483
 H910 H 0.74681 0.38728 0.57169
 H911 H 0.74646 0.35337 0.60772
 H912 H 0.81810 0.38795 0.64201
 H913 H 0.81817 0.42210 0.60639
 H914 H 0.79429 0.35292 0.66851
 H915 H 0.82322 0.43722 0.56222
 H916 H 0.76160 0.31672 0.62867
 C917 C 0.72463 0.05619 0.05651
 C918 C 0.74486 0.07109 0.06914
 C919 C 0.73991 0.09186 0.08987
 C920 C 0.75770 0.11351 0.09223
 C921 C 0.75351 0.13342 0.11168
 C922 C 0.73157 0.13181 0.12940
 C923 C 0.71418 0.10980 0.12755
 C924 C 0.71818 0.09007 0.10787
 C925 C 0.72700 0.15202 0.15086
 C926 C 0.73552 0.17831 0.14792
 H927 H 0.76487 0.06841 0.06259
 H928 H 0.77479 0.11509 0.07887
 H929 H 0.76777 0.14970 0.11319
 H930 H 0.69740 0.10791 0.14132
 H931 H 0.70455 0.07322 0.10723
 H932 H 0.71541 0.14619 0.16889
 H933 H 0.70445 0.06039 0.06096
 H934 H 0.74396 0.18487 0.12828
 C935 C 0.27396 0.55831 0.55542
 C936 C 0.25144 0.56654 0.56882
 C937 C 0.25152 0.58814 0.58960
 C938 C 0.23074 0.58902 0.60869
 C939 C 0.22982 0.60931 0.62833
 C940 C 0.24966 0.62932 0.62915
 C941 C 0.27014 0.62877 0.60968
 C942 C 0.27117 0.60836 0.59016
 C943 C 0.24908 0.65146 0.64923
 C944 C 0.23636 0.64964 0.67501
 H945 H 0.23296 0.55601 0.56469
 H946 H 0.21514 0.57392 0.60840
 H947 H 0.21327 0.60953 0.64238
 H948 H 0.28544 0.64418 0.60959
 H949 H 0.28704 0.60887 0.57522
 H950 H 0.26048 0.66926 0.64422
 H951 H 0.29295 0.56717 0.56066
 H952 H 0.22782 0.63083 0.68163
 C953 C 0.94809 0.73767 0.06577
 C954 C 0.93462 0.75797 0.07804
 C955 C 0.91565 0.75323 0.10096
 C956 C 0.89473 0.76999 0.10402
 C957 C 0.87631 0.76576 0.12529
 C958 C 0.87869 0.74475 0.14409
 C959 C 0.90010 0.72853 0.14158
 C960 C 0.91836 0.73262 0.12017
 C961 C 0.85983 0.73988 0.16709
 C962 C 0.83374 0.74688 0.16559
 H963 H 0.93698 0.77769 0.06960
 H964 H 0.89250 0.78626 0.08976
 H965 H 0.86056 0.77922 0.12722
 H966 H 0.90263 0.71255 0.15613
 H967 H 0.93478 0.71988 0.11904
 H968 H 0.86643 0.72909 0.18504
 H969 H 0.94416 0.71755 0.07242
 H970 H 0.82639 0.75454 0.14615
 C971 C 0.43991 0.25641 0.54762
 C972 C 0.42926 0.23555 0.56344
 C973 C 0.40672 0.23792 0.58261
 C974 C 0.40302 0.21924 0.60392
 C975 C 0.38175 0.22040 0.62215
 C976 C 0.36358 0.24027 0.61933
 C977 C 0.36693 0.25860 0.59762
 C978 C 0.38831 0.25754 0.57948
 C979 C 0.34060 0.24183 0.63802
 C980 C 0.34052 0.23230 0.66535
 H981 H 0.43836 0.21670 0.56239
 H982 H 0.41665 0.20365 0.60648
 H983 H 0.37935 0.20537 0.63801
 H984 H 0.35297 0.27383 0.59473
 H985 H 0.38997 0.27177 0.56276
 H986 H 0.32394 0.25227 0.63056
 H987 H 0.43236 0.27589 0.54962
 H988 H 0.35841 0.22493 0.67389
 C989 C 0.05647 0.27892 0.04789
 C990 C 0.06684 0.25651 0.05960
 C991 C 0.08842 0.25807 0.08023
 C992 C 0.09028 0.23811 0.10023
 C993 C 0.11010 0.23944 0.12040
 C994 C 0.12860 0.26072 0.12074
 C995 C 0.12730 0.28015 0.10010
 C996 C 0.10739 0.27893 0.08009
 C997 C 0.14985 0.26296 0.14172
 C998 C 0.14780 0.25184 0.16831
 H999 H 0.05783 0.23736 0.05481
 H1000 H 0.07616 0.22161 0.10044
 H1001 H 0.11104 0.22362 0.13539
 H1002 H 0.14161 0.29647 0.09959
 H1003 H 0.10714 0.29417 0.06437
 H1004 H 0.16684 0.27546 0.13666
 H1005 H 0.06381 0.29824 0.05439
 H1006 H 0.12947 0.24214 0.17455
 C1007 C 0.55232 0.76531 0.56293
 C1008 C 0.56440 0.74490 0.57671
 C1009 C 0.58374 0.74934 0.59940
 C1010 C 0.60225 0.73027 0.60437
 C1011 C 0.62024 0.73334 0.62624
 C1012 C 0.61983 0.75549 0.64383
 C1013 C 0.60105 0.77436 0.63914
 C1014 C 0.58326 0.77145 0.61704
 C1015 C 0.63765 0.75859 0.66806
 C1016 C 0.66244 0.74802 0.66877
 H1017 H 0.56019 0.72482 0.56995
 H1018 H 0.60274 0.71288 0.59132
 H1019 H 0.63391 0.71799 0.62978
 H1020 H 0.60007 0.79136 0.65269
 H1021 H 0.56874 0.78614 0.61435
 H1022 H 0.63140 0.77045 0.68542
 H1023 H 0.55796 0.78559 0.56765
 H1024 H 0.67011 0.73928 0.65002
   
