data_POSCAR
  _audit_creation_date              2014-09-24
  _audit_creation_method            'ToBaCCo'
  _symmetry_space_group_name_H-M    'P1'
  _symmetry_Int_Tables_number       1
  _symmetry_cell_setting            triclinic
  loop_
  _symmetry_equiv_pos_as_xyz
 x,y,z
_cell_length_a 37.7085
_cell_length_b 32.5197
_cell_length_c 29.6287
_cell_angle_alpha 90.297000
_cell_angle_beta 89.513100
_cell_angle_gamma 88.903100
loop_
  _atom_site_label
  _atom_site_type_symbol
  _atom_site_fract_x
  _atom_site_fract_y
  _atom_site_fract_z
C1 C 1.21312 0.27537 0.33259
 H2 H 1.23066 0.25133 0.34472
 C3 C 1.18565 0.28977 0.36065
 H4 H 1.18294 0.27705 0.39417
 C5 C 1.19346 0.31843 0.27328
 H6 H 1.19574 0.32852 0.23879
 C7 C 1.16553 0.33366 0.30026
 H8 H 1.14745 0.35646 0.28645
 N9 N 1.21618 0.28911 0.28940
 C10 C 1.23601 0.19994 0.18176
 H11 H 1.26411 0.20286 0.17517
 C12 C 1.21689 0.16953 0.15962
 H13 H 1.23060 0.14954 0.13579
 C14 C 1.18473 0.22132 0.22296
 H15 H 1.17232 0.24077 0.24838
 C16 C 1.16465 0.19182 0.20140
 H17 H 1.13666 0.19031 0.20949
 Zn18 Zn 1.24743 0.25903 0.24986
 N19 N 1.21989 0.22434 0.21355
 C20 C 1.27220 0.18362 0.28582
 N21 N 1.27704 0.22487 0.28602
 C22 C 1.30092 0.24213 0.31400
 C23 C 1.32260 0.21756 0.34117
 C24 C 1.29252 0.15793 0.31328
 C25 C 1.25915 0.31728 0.17958
 C26 C 1.27947 0.34013 0.14918
 C27 C 1.33234 0.31319 0.18447
 C28 C 1.31115 0.29086 0.21385
 N29 N 1.27516 0.29333 0.21138
 H30 H 1.25179 0.17040 0.26530
 H31 H 1.30346 0.27521 0.31481
 H32 H 1.34223 0.23343 0.36048
 H33 H 1.28618 0.12572 0.31305
 H34 H 1.23062 0.31760 0.17661
 H35 H 1.26627 0.35827 0.12355
 H36 H 1.36086 0.31078 0.18779
 H37 H 1.32384 0.27069 0.23773
 C38 C 1.18084 0.16444 0.17028
 C39 C 1.16076 0.31842 0.34419
 C40 C 1.31667 0.33780 0.15103
 C41 C 1.31904 0.17417 0.34142
 C42 C 0.71346 -0.23089 0.32185
 H43 H 0.71792 -0.26305 0.32955
 C44 C 0.69346 -0.20591 0.35139
 H45 H 0.68251 -0.21924 0.38175
 C46 C 0.72268 -0.17452 0.27311
 H47 H 0.73388 -0.16246 0.24233
 C48 C 0.70299 -0.14836 0.30188
 H49 H 0.69890 -0.11649 0.29256
 N50 N 0.72748 -0.21500 0.28345
 C51 C 0.74049 -0.31528 0.18271
 H52 H 0.76860 -0.31473 0.17532
 C53 C 0.71871 -0.34107 0.15745
 H54 H 0.73043 -0.36023 0.13108
 C55 C 0.69084 -0.28894 0.22359
 H56 H 0.67981 -0.26824 0.24887
 C57 C 0.66818 -0.31416 0.19919
 H58 H 0.64005 -0.31281 0.20678
 Zn59 Zn 0.75556 -0.25023 0.24528
 N60 N 0.72630 -0.28936 0.21470
 C61 C 0.80320 -0.31526 0.27171
 N62 N 0.79097 -0.27657 0.28135
 C63 C 0.80607 -0.25380 0.31451
 C64 C 0.83563 -0.26890 0.33778
 C65 C 0.83268 -0.33158 0.29418
 C66 C 0.77474 -0.22141 0.15721
 C67 C 0.79579 -0.19970 0.12678
 C68 C 0.82523 -0.16841 0.18998
 C69 C 0.80386 -0.19076 0.21911
 N70 N 0.77978 -0.21743 0.20249
 H71 H 0.79075 -0.33332 0.24590
 H72 H 0.79573 -0.22330 0.32217
 H73 H 0.84785 -0.24968 0.36297
 H74 H 0.84198 -0.36237 0.28567
 H75 H 0.75494 -0.24192 0.14452
 H76 H 0.79249 -0.20401 0.09080
 H77 H 0.84470 -0.14784 0.20369
 H78 H 0.80691 -0.18725 0.25508
 C79 C 0.68185 -0.34004 0.16477
 C80 C 0.68789 -0.16402 0.34156
 C81 C 0.82185 -0.17366 0.14337
 C82 C 0.84992 -0.30792 0.32695
 C83 C 0.71152 0.26324 -0.18481
 H84 H 0.71049 0.23015 -0.18176
 C85 C 0.69063 0.28815 -0.15662
 H86 H 0.67367 0.27383 -0.13182
 C87 C 0.73531 0.32162 -0.22074
 H88 H 0.75304 0.33447 -0.24553
 C89 C 0.71462 0.34792 -0.19304
 H90 H 0.71602 0.38086 -0.19755
 N91 N 0.73277 0.28006 -0.21670
 C92 C 0.73933 0.17361 -0.30663
 H93 H 0.76743 0.16633 -0.30588
 C94 C 0.71631 0.14774 -0.32958
 H95 H 0.72716 0.12056 -0.34598
 C96 C 0.69150 0.21795 -0.28519
 H97 H 0.68199 0.24571 -0.26853
 C98 C 0.66768 0.19325 -0.30795
 H99 H 0.64005 0.20284 -0.30875
 Zn100 Zn 0.75827 0.24049 -0.25202
 N101 N 0.72649 0.20743 -0.28426
 C102 C 0.77335 0.16979 -0.19975
 N103 N 0.78391 0.20820 -0.21074
 C104 C 0.81169 0.22589 -0.18987
 C105 C 0.83162 0.20383 -0.15862
 C106 C 0.79175 0.14711 -0.16737
 C107 C 0.77511 0.29263 -0.32322
 C108 C 0.79678 0.31276 -0.35398
 C109 C 0.84681 0.27283 -0.32712
 C110 C 0.82403 0.25349 -0.29689
 N111 N 0.78918 0.26476 -0.29429
 H112 H 0.75015 0.15705 -0.21528
 H113 H 0.81877 0.25703 -0.19824
 H114 H 0.85473 0.21819 -0.14473
 H115 H 0.78234 0.11698 -0.15849
 H116 H 0.74693 0.29954 -0.32205
 H117 H 0.78407 0.33410 -0.37682
 H118 H 0.87455 0.26415 -0.32563
 H119 H 0.83446 0.22961 -0.27529
 C120 C 0.67976 0.15704 -0.32988
 C121 C 0.69143 0.33111 -0.16095
 C122 C 0.83380 0.30438 -0.35561
 C123 C 0.82174 0.16377 -0.14668
 C124 C 1.21601 -0.21480 -0.18542
 H125 H 1.21712 -0.24647 -0.17452
 C126 C 1.19982 -0.18485 -0.15775
 H127 H 1.18788 -0.19376 -0.12600
 C128 C 1.22976 -0.16457 -0.24012
 H129 H 1.24179 -0.15620 -0.27169
 C130 C 1.21337 -0.13388 -0.21397
 H131 H 1.21253 -0.10253 -0.22617
 N132 N 1.22964 -0.20448 -0.22643
 C133 C 1.20812 -0.28279 -0.33585
 H134 H 1.23108 -0.27599 -0.35634
 C135 C 1.17814 -0.29906 -0.35627
 H136 H 1.17866 -0.30509 -0.39223
 C137 C 1.18006 -0.28447 -0.26413
 H138 H 1.18071 -0.27850 -0.22830
 C139 C 1.14957 -0.30075 -0.28313
 H140 H 1.12709 -0.30711 -0.26147
 Zn141 Zn 1.24745 -0.24744 -0.26472
 N142 N 1.20842 -0.27523 -0.29061
 C143 C 1.26826 -0.32379 -0.22355
 N144 N 1.27584 -0.28336 -0.22871
 C145 C 1.30367 -0.26649 -0.20700
 C146 C 1.32599 -0.29067 -0.18024
 C147 C 1.28931 -0.34894 -0.19582
 C148 C 1.25855 -0.19841 -0.34174
 C149 C 1.27833 -0.17573 -0.37253
 C150 C 1.33148 -0.20874 -0.34423
 C151 C 1.31070 -0.23069 -0.31398
 N152 N 1.27503 -0.22398 -0.31192
 H153 H 1.24565 -0.33650 -0.24053
 H154 H 1.30888 -0.23412 -0.21112
 H155 H 1.34867 -0.27621 -0.16539
 H156 H 1.28210 -0.38070 -0.19147
 H157 H 1.23002 -0.19423 -0.34023
 H158 H 1.26484 -0.15449 -0.39492
 H159 H 1.36000 -0.21307 -0.34344
 H160 H 1.32338 -0.25208 -0.29128
 C161 C 1.14814 -0.30788 -0.32990
 C162 C 1.19760 -0.14404 -0.17269
 C163 C 1.31540 -0.18004 -0.37329
 C164 C 1.31893 -0.33263 -0.17369
 C165 C 0.25334 0.19558 0.68065
 H166 H 0.22490 0.19205 0.68261
 C167 C 0.27360 0.17035 0.65155
 H168 H 0.26059 0.14764 0.63095
 C169 C 0.30491 0.22920 0.70519
 H170 H 0.31723 0.25201 0.72610
 C171 C 0.32613 0.20445 0.67685
 H172 H 0.35451 0.20784 0.67781
 N173 N 0.26924 0.22382 0.70743
 C174 C 0.20906 0.23575 0.83251
 H175 H 0.21068 0.26861 0.83758
 C176 C 0.19160 0.21199 0.86434
 H177 H 0.18014 0.22725 0.89372
 C178 C 0.22373 0.17660 0.78898
 H179 H 0.23607 0.16282 0.75949
 C180 C 0.20711 0.15142 0.82048
 H181 H 0.20638 0.11881 0.81335
 Zn182 Zn 0.24101 0.25432 0.75032
 N183 N 0.22316 0.21813 0.79461
 C184 C 0.17228 0.29058 0.74514
 N185 N 0.20166 0.28008 0.72040
 C186 C 0.20188 0.28438 0.67469
 C187 C 0.17168 0.29931 0.65230
 C188 C 0.14149 0.30486 0.72417
 C189 C 0.29530 0.27679 0.80785
 C190 C 0.31829 0.30235 0.83099
 C191 C 0.28548 0.36129 0.80303
 C192 C 0.26336 0.33444 0.77958
 N193 N 0.26915 0.29302 0.78169
 H194 H 0.17217 0.28713 0.78123
 H195 H 0.22544 0.27603 0.65545
 H196 H 0.17282 0.30313 0.61606
 H197 H 0.11832 0.31170 0.74485
 H198 H 0.29882 0.24375 0.80980
 H199 H 0.33970 0.28882 0.85041
 H200 H 0.28138 0.39421 0.80009
 H201 H 0.24198 0.34665 0.75923
 C202 C 0.18932 0.16915 0.85810
 C203 C 0.31055 0.17451 0.64960
 C204 C 0.31386 0.34516 0.82823
 C205 C 0.14070 0.30951 0.67707
 C206 C 0.77330 0.72022 0.67410
 H207 H 0.74491 0.71921 0.66964
 C208 C 0.79600 0.70633 0.63956
 H209 H 0.78459 0.69439 0.60890
 C210 C 0.82235 0.73963 0.71805
 H211 H 0.83294 0.75391 0.74769
 C212 C 0.84600 0.72501 0.68499
 H213 H 0.87415 0.72660 0.69132
 N214 N 0.78669 0.73592 0.71283
 C215 C 0.70579 0.69071 0.76112
 H216 H 0.70339 0.69587 0.72526
 C217 C 0.68452 0.66143 0.78206
 H218 H 0.66629 0.64551 0.76066
 C219 C 0.73099 0.70836 0.83096
 H220 H 0.74834 0.72724 0.85059
 C221 C 0.71137 0.67838 0.85298
 H222 H 0.71607 0.67429 0.88851
 Zn223 Zn 0.75393 0.75709 0.75683
 N224 N 0.72808 0.71409 0.78572
 C225 C 0.68702 0.79015 0.73178
 N226 N 0.72263 0.79303 0.72610
 C227 C 0.73676 0.82088 0.69730
 C228 C 0.71472 0.84701 0.67227
 C229 C 0.66405 0.81520 0.70707
 C230 C 0.80453 0.76781 0.82455
 C231 C 0.82720 0.79017 0.85162
 C232 C 0.79491 0.85227 0.83150
 C233 C 0.77299 0.82869 0.80444
 N234 N 0.77894 0.78744 0.80028
 H235 H 0.67631 0.76820 0.75522
 H236 H 0.76526 0.82261 0.69364
 H237 H 0.72665 0.86919 0.65002
 H238 H 0.63580 0.81128 0.71134
 H239 H 0.80852 0.73491 0.82094
 H240 H 0.84841 0.77431 0.86926
 H241 H 0.79099 0.88533 0.83276
 H242 H 0.75213 0.84364 0.78551
 C243 C 0.68662 0.65462 0.82922
 C244 C 0.83302 0.70757 0.64517
 C245 C 0.82307 0.83304 0.85428
 C246 C 0.67771 0.84409 0.67655
 C247 C 0.76373 0.18913 0.18238
 H248 H 0.73505 0.19038 0.18169
 C249 C 0.78249 0.16151 0.15436
 H250 H 0.76832 0.14164 0.13159
 C251 C 0.81744 0.21305 0.21315
 H252 H 0.83121 0.23329 0.23563
 C253 C 0.83707 0.18566 0.18634
 H254 H 0.86558 0.18409 0.18989
 N255 N 0.78140 0.21360 0.21166
 C256 C 0.70779 0.23300 0.32372
 H257 H 0.70764 0.26621 0.32616
 C258 C 0.68671 0.21022 0.35291
 H259 H 0.67027 0.22621 0.37776
 C260 C 0.72964 0.17195 0.28850
 H261 H 0.74673 0.15704 0.26375
 C262 C 0.70911 0.14790 0.31727
 H263 H 0.70992 0.11478 0.31341
 Zn264 Zn 0.75544 0.24728 0.25275
 N265 N 0.72806 0.21376 0.29156
 C266 C 0.68986 0.28072 0.22265
 N267 N 0.72563 0.28410 0.21904
 C268 C 0.74014 0.31195 0.19043
 C269 C 0.71842 0.33876 0.16539
 C270 C 0.66728 0.30642 0.19796
 C271 C 0.80903 0.25254 0.31697
 C272 C 0.83523 0.27091 0.34283
 C273 C 0.81565 0.33703 0.31460
 C274 C 0.79015 0.31736 0.28884
 N275 N 0.78769 0.27575 0.28986
 H276 H 0.67861 0.25754 0.24412
 H277 H 0.76868 0.31354 0.18723
 H278 H 0.73074 0.36121 0.14384
 H279 H 0.63897 0.30221 0.20114
 H280 H 0.80621 0.21950 0.31755
 H281 H 0.85220 0.25200 0.36390
 H282 H 0.81754 0.37017 0.31287
 H283 H 0.77255 0.33541 0.26792
 C284 C 0.68684 0.16708 0.34955
 C285 C 0.81959 0.15972 0.15644
 C286 C 0.83873 0.31370 0.34183
 C287 C 0.68127 0.33636 0.16895
 C288 C 0.25950 0.68481 0.19520
 H289 H 0.23096 0.68653 0.19193
 C290 C 0.27978 0.66075 0.16487
 H291 H 0.26662 0.64392 0.13843
 C292 C 0.31147 0.70701 0.23160
 H293 H 0.32407 0.72595 0.25647
 C294 C 0.33257 0.68299 0.20258
 H295 H 0.36093 0.68249 0.20727
 N296 N 0.27560 0.70784 0.22732
 C297 C 0.19464 0.74612 0.32713
 H298 H 0.19724 0.77912 0.32476
 C299 C 0.17014 0.72966 0.35727
 H300 H 0.15394 0.75005 0.37826
 C301 C 0.21311 0.67938 0.30302
 H302 H 0.22999 0.66002 0.28185
 C303 C 0.18940 0.66160 0.33330
 H304 H 0.18797 0.62842 0.33499
 Zn305 Zn 0.24745 0.74642 0.26097
 N306 N 0.21516 0.72096 0.30042
 C307 C 0.18697 0.78231 0.21992
 N308 N 0.22291 0.77851 0.21854
 C309 C 0.24254 0.79773 0.18650
 C310 C 0.22601 0.82277 0.15460
 C311 C 0.16944 0.80729 0.18897
 C312 C 0.29735 0.76404 0.32794
 C313 C 0.31936 0.78870 0.35368
 C314 C 0.29388 0.84854 0.31743
 C315 C 0.27315 0.82253 0.29154
 N316 N 0.27577 0.78109 0.29648
 H317 H 0.17178 0.76631 0.24509
 H318 H 0.27111 0.79386 0.18616
 H319 H 0.24173 0.83824 0.12932
 H320 H 0.14095 0.81134 0.19146
 H321 H 0.29781 0.73106 0.33258
 H322 H 0.33598 0.77369 0.37846
 H323 H 0.29176 0.88108 0.31052
 H324 H 0.25495 0.83570 0.26742
 C325 C 0.16758 0.68691 0.36086
 C326 C 0.31694 0.66048 0.16770
 C327 C 0.31836 0.83199 0.34869
 C328 C 0.18907 0.82743 0.15573
 O329 O 1.05307 0.05731 0.09886
 O330 O 1.09454 0.03039 0.04916
 C331 C 1.08546 0.05186 0.08455
 O332 O 0.96132 -0.09099 0.06452
 O333 O 0.92074 -0.04705 0.03231
 C334 C 0.92906 -0.07998 0.05464
 O335 O 1.06018 -0.08467 0.07036
 O336 O 1.09780 -0.03861 0.03757
 C337 C 1.09151 -0.07106 0.06121
 O338 O 0.95355 0.06159 0.08955
 O339 O 0.91699 0.02476 0.04351
 C340 C 0.92253 0.05187 0.07463
 Zr341 Zr 1.00466 0.03993 0.06951
 O342 O 0.99932 0.02825 0.13944
 O343 O 1.00453 0.10421 0.08064
 Zr344 Zr 1.00991 -0.06193 0.05061
 O345 O 1.00747 -0.06657 0.12164
 O346 O 1.01562 -0.12650 0.04345
 O347 O 1.03908 -0.01103 0.06931
 O348 O 0.97597 -0.01345 0.06761
 O349 O 0.95552 0.08296 -0.05684
 O350 O 0.91822 0.03393 -0.02903
 C351 C 0.92425 0.06823 -0.04946
 O352 O 1.06225 -0.05892 -0.08941
 O353 O 1.09883 -0.02810 -0.03843
 C354 C 1.09335 -0.04974 -0.07441
 O355 O 0.96321 -0.07154 -0.08347
 O356 O 0.92164 -0.03720 -0.03987
 C357 C 0.93071 -0.06398 -0.07047
 O358 O 1.05518 0.08341 -0.06127
 O359 O 1.09549 0.04014 -0.02716
 C360 C 1.08736 0.07177 -0.05159
 Zr361 Zr 1.00613 0.05696 -0.04325
 O362 O 1.00298 0.06422 -0.11409
 O363 O 1.00562 0.12153 -0.03451
 Zr364 Zr 1.01120 -0.04478 -0.06259
 O365 O 1.00632 -0.02962 -0.13175
 O366 O 1.01849 -0.10696 -0.08211
 Zr367 Zr 1.06070 -0.00041 0.00468
 Zr368 Zr 0.95549 -0.00487 0.00256
 O369 O 0.97752 0.00591 -0.06167
 O370 O 1.04066 0.00870 -0.06088
 O371 O 0.97391 0.05496 0.01389
 O372 O 1.04134 -0.05981 -0.00688
 O373 O 1.03563 0.05720 0.01522
 O374 O 0.98005 -0.06291 -0.00799
 H375 H 0.95900 -0.01748 0.09286
 H376 H 1.05800 -0.08344 -0.01133
 H377 H 0.96097 0.00873 -0.08734
 H378 H 1.05004 0.08197 0.02008
 H379 H 1.00068 -0.13481 0.01783
 H380 H 1.01263 -0.12359 -0.05536
 H381 H 1.02865 -0.01662 -0.14133
 H382 H 1.02608 0.05522 -0.12721
 H383 H 0.99594 0.12705 -0.00387
 H384 H 1.00297 0.10834 0.11378
 H385 H 1.01892 0.00915 0.14775
 H386 H 1.00865 -0.09638 0.12832
 O387 O 0.94114 0.44836 0.41163
 O388 O 0.96575 0.40061 0.45971
 C389 C 0.94486 0.41124 0.42689
 O390 O 1.07477 0.55340 0.44534
 O391 O 1.03615 0.60305 0.47314
 C392 C 1.06575 0.59136 0.45372
 O393 O 1.06621 0.44044 0.43507
 O394 O 1.02793 0.39681 0.47085
 C395 C 1.05487 0.40416 0.44473
 O396 O 0.94471 0.56158 0.41081
 O397 O 0.97214 0.60692 0.45828
 C398 C 0.95209 0.59845 0.42402
 Zr399 Zr 0.96079 0.50417 0.43665
 O400 O 0.97860 0.50154 0.36891
 O401 O 0.90738 0.50841 0.41574
 Zr402 Zr 1.04709 0.49876 0.45615
 O403 O 1.05116 0.50130 0.38504
 O404 O 1.10280 0.49184 0.46072
 O405 O 1.00385 0.46368 0.43799
 O406 O 1.00634 0.53832 0.43828
 O407 O 0.92140 0.56389 0.56298
 O408 O 0.96136 0.60823 0.53207
 C409 C 0.93189 0.60041 0.55336
 O410 O 1.04360 0.44343 0.59741
 O411 O 1.01860 0.39805 0.54797
 C412 C 1.03718 0.40654 0.58357
 O413 O 1.04980 0.55663 0.59441
 O414 O 1.02545 0.60425 0.54626
 C415 C 1.04506 0.59399 0.58049
 O416 O 0.92087 0.45091 0.56928
 O417 O 0.95697 0.40182 0.53570
 C418 C 0.92939 0.41306 0.55968
 Zr419 Zr 0.94450 0.50607 0.54942
 O420 O 0.93992 0.50898 0.62049
 O421 O 0.88876 0.50603 0.54205
 Zr422 Zr 1.03105 0.50077 0.56868
 O423 O 1.01914 0.50582 0.63852
 O424 O 1.08589 0.49382 0.58224
 Zr425 Zr 0.99380 0.44035 0.50316
 Zr426 Zr 0.99758 0.56462 0.50253
 O427 O 0.98759 0.54027 0.56691
 O428 O 0.98533 0.46610 0.56789
 O429 O 0.94648 0.54177 0.49121
 O430 O 1.04470 0.46375 0.51398
 O431 O 0.94473 0.47046 0.49199
 O432 O 1.04721 0.53560 0.51395
 H433 H 1.01102 0.55707 0.41272
 H434 H 1.06511 0.44458 0.51832
 H435 H 0.98416 0.55965 0.59257
 H436 H 0.92258 0.45495 0.48846
 H437 H 1.10854 0.49275 0.49316
 H438 H 1.09848 0.51495 0.56471
 H439 H 1.00251 0.48369 0.64625
 H440 H 0.91417 0.51101 0.62728
 H441 H 0.88327 0.52154 0.51427
 H442 H 0.89253 0.50232 0.44239
 H443 H 0.95702 0.50394 0.35021
 H444 H 1.07688 0.50119 0.37794
 O445 O 0.54182 0.07100 0.58547
 O446 O 0.58421 0.03616 0.54332
 C447 C 0.57456 0.06185 0.57504
 O448 O 0.44687 -0.07849 0.56509
 O449 O 0.40781 -0.03658 0.52714
 C450 C 0.41528 -0.06852 0.55160
 O451 O 0.54381 -0.06939 0.58201
 O452 O 0.58517 -0.03379 0.54141
 C453 C 0.57621 -0.05998 0.57230
 O454 O 0.44333 0.07865 0.57176
 O455 O 0.40622 0.03811 0.53047
 C456 C 0.41213 0.06820 0.55820
 Zr457 Zr 0.49376 0.05271 0.55592
 O458 O 0.48626 0.05069 0.62676
 O459 O 0.49555 0.11766 0.55620
 Zr460 Zr 0.49575 -0.04990 0.55315
 O461 O 0.48869 -0.04509 0.62382
 O462 O 0.50114 -0.11464 0.55749
 O463 O 0.52636 0.00126 0.56513
 O464 O 0.46280 0.00103 0.56087
 O465 O 0.45012 0.08224 0.42314
 O466 O 0.40972 0.03935 0.45590
 C467 C 0.41797 0.07078 0.43155
 O468 O 0.55167 -0.07116 0.41977
 O469 O 0.58886 -0.03244 0.46285
 C470 C 0.58294 -0.06109 0.43323
 O471 O 0.45322 -0.07619 0.42049
 O472 O 0.41114 -0.03399 0.45396
 C473 C 0.42055 -0.06521 0.42899
 O474 O 0.54869 0.07779 0.42279
 O475 O 0.58738 0.03856 0.46460
 C476 C 0.58038 0.06761 0.43584
 Zr477 Zr 0.49896 0.05477 0.44208
 O478 O 0.49802 0.05202 0.37068
 O479 O 0.50048 0.11965 0.43978
 Zr480 Zr 0.50108 -0.04789 0.43887
 O481 O 0.50004 -0.03911 0.36811
 O482 O 0.50432 -0.11184 0.42634
 Zr483 Zr 0.55075 0.00234 0.50081
 Zr484 Zr 0.44422 0.00207 0.49425
 O485 O 0.46880 0.00345 0.43023
 O486 O 0.53266 0.00367 0.43357
 O487 O 0.46496 0.06167 0.49731
 O488 O 0.52916 -0.05679 0.49798
 O489 O 0.52706 0.06144 0.50133
 O490 O 0.46774 -0.05730 0.49382
 H491 H 0.44488 0.00030 0.58551
 H492 H 0.54492 -0.08148 0.49925
 H493 H 0.45309 0.00386 0.40357
 H494 H 0.54213 0.08597 0.50358
 H495 H 0.49119 -0.12611 0.52945
 H496 H 0.50633 -0.12524 0.45607
 H497 H 0.52462 -0.03385 0.35802
 H498 H 0.52149 0.04145 0.36027
 H499 H 0.49200 0.12975 0.46960
 H500 H 0.49445 0.12634 0.58831
 H501 H 0.50422 0.03115 0.63878
 H502 H 0.48810 -0.07368 0.63513
 O503 O 0.54723 0.57516 0.07387
 O504 O 0.58865 0.53545 0.03554
 C505 C 0.57975 0.56461 0.06399
 O506 O 0.44978 0.42410 0.06631
 O507 O 0.41075 0.46445 0.02629
 C508 C 0.41801 0.43412 0.05336
 O509 O 0.54727 0.42988 0.07922
 O510 O 0.58881 0.46380 0.03714
 C511 C 0.57982 0.43815 0.06866
 O512 O 0.44951 0.58043 0.06477
 O513 O 0.41063 0.53897 0.02755
 C514 C 0.41773 0.56959 0.05424
 Zr515 Zr 0.49900 0.55293 0.04884
 O516 O 0.49559 0.54654 0.11965
 O517 O 0.49925 0.61773 0.05533
 Zr518 Zr 0.49902 0.45070 0.05130
 O519 O 0.49391 0.45990 0.12173
 O520 O 0.50190 0.38632 0.06057
 O521 O 0.53099 0.50144 0.06023
 O522 O 0.46693 0.50251 0.05692
 O523 O 0.45372 0.57681 -0.08655
 O524 O 0.41298 0.53770 -0.04895
 C525 C 0.42141 0.56692 -0.07637
 O526 O 0.55287 0.42427 -0.08363
 O527 O 0.59144 0.46225 -0.04171
 C528 C 0.58456 0.43375 -0.07112
 O529 O 0.45440 0.42523 -0.08689
 O530 O 0.41308 0.46562 -0.04943
 C531 C 0.42192 0.43677 -0.07821
 O532 O 0.55312 0.56710 -0.09077
 O533 O 0.59127 0.53269 -0.04334
 C534 C 0.58469 0.55713 -0.07687
 Zr535 Zr 0.50276 0.55068 -0.06500
 O536 O 0.49990 0.54902 -0.13632
 O537 O 0.50738 0.61544 -0.06654
 Zr538 Zr 0.50287 0.44754 -0.06257
 O539 O 0.50228 0.44751 -0.13406
 O540 O 0.50551 0.38245 -0.06173
 Zr541 Zr 0.55449 0.49932 -0.00466
 Zr542 Zr 0.44739 0.50131 -0.00934
 O543 O 0.47197 0.49965 -0.07344
 O544 O 0.53506 0.49813 -0.07129
 O545 O 0.46935 0.56056 -0.00955
 O546 O 0.53174 0.44072 -0.00402
 O547 O 0.53180 0.55891 -0.00710
 O548 O 0.46954 0.44135 -0.00703
 H549 H 0.44945 0.50298 0.08211
 H550 H 0.54719 0.41580 -0.00242
 H551 H 0.45690 0.49993 -0.10068
 H552 H 0.54762 0.58287 -0.00776
 H553 H 0.50086 0.37376 0.03021
 H554 H 0.48511 0.37283 -0.04367
 H555 H 0.52457 0.45986 -0.14480
 H556 H 0.51890 0.53004 -0.14731
 H557 H 0.48876 0.62721 -0.04629
 H558 H 0.50807 0.62872 0.02641
 H559 H 0.49370 0.57486 0.13202
 H560 H 0.49240 0.43211 0.13505
 C561 C 1.16253 0.12156 0.10343
 C562 C 1.15951 0.13148 0.14950
 C563 C 1.13166 0.11343 0.17421
 C564 C 1.10845 0.08602 0.15363
 C565 C 1.11287 0.07497 0.10799
 C566 C 1.13955 0.09411 0.08319
 C567 C 1.16814 0.07492 0.05472
 C568 C 1.19345 0.10428 0.07704
 H569 H 1.12772 0.12040 0.20968
 H570 H 1.08702 0.07341 0.17347
 H571 H 1.16423 0.08121 0.01824
 H572 H 1.17340 0.04211 0.06322
 H573 H 1.20457 0.12708 0.05322
 H574 H 1.21330 0.08822 0.09859
 C575 C 1.09592 0.64558 0.67314
 C576 C 1.11600 0.67422 0.64950
 C577 C 1.10532 0.68336 0.60489
 C578 C 1.07926 0.65973 0.58321
 C579 C 1.06392 0.62614 0.60553
 C580 C 1.07114 0.62171 0.65162
 C581 C 1.08025 0.58490 0.67961
 C582 C 1.10730 0.61127 0.70333
 H583 H 1.11855 0.70694 0.58579
 H584 H 1.07379 0.66522 0.54789
 H585 H 1.09288 0.55930 0.65991
 H586 H 1.05791 0.57594 0.70197
 H587 H 1.13521 0.60099 0.69701
 H588 H 1.10040 0.61763 0.73927
 C589 C 0.66143 0.11173 0.60473
 C590 C 0.65394 0.13030 0.64681
 C591 C 0.61903 0.12704 0.66386
 C592 C 0.59347 0.10455 0.64073
 C593 C 0.60201 0.08402 0.59998
 C594 C 0.63595 0.08941 0.58183
 C595 C 0.66219 0.05794 0.56530
 C596 C 0.69005 0.08159 0.59078
 H597 H 0.61147 0.14114 0.69577
 H598 H 0.56717 0.10253 0.65544
 H599 H 0.66575 0.05904 0.52804
 H600 H 0.65738 0.02685 0.57932
 H601 H 0.71010 0.09565 0.56820
 H602 H 0.70111 0.06390 0.61962
 C603 C 0.66691 0.59861 0.11517
 C604 C 0.65754 0.63688 0.13465
 C605 C 0.62408 0.65372 0.12310
 C606 C 0.59953 0.63055 0.09876
 C607 C 0.60766 0.58988 0.08472
 C608 C 0.64261 0.57572 0.09070
 C609 C 0.65614 0.53603 0.10955
 C610 C 0.68262 0.56095 0.13626
 H611 H 0.61625 0.68438 0.13410
 H612 H 0.57361 0.64412 0.09241
 H613 H 0.66884 0.51611 0.08319
 H614 H 0.63617 0.52058 0.13111
 H615 H 0.71055 0.55528 0.12527
 H616 H 0.67804 0.56000 0.17336
 C617 C 0.88185 -0.16875 0.10836
 C618 C 0.84697 -0.15391 0.11254
 C619 C 0.83764 -0.11794 0.08878
 C620 C 0.86410 -0.09462 0.06732
 C621 C 0.90021 -0.10694 0.06969
 C622 C 0.90774 -0.14590 0.08753
 C623 C 0.93565 -0.16060 0.11944
 C624 C 0.90715 -0.18594 0.14220
 H625 H 0.81055 -0.10628 0.08974
 H626 H 0.85655 -0.06565 0.05193
 H627 H 0.94568 -0.13558 0.14136
 H628 H 0.95648 -0.17973 0.10222
 H629 H 0.90119 -0.17571 0.17731
 H630 H 0.91151 -0.21963 0.13782
 C631 C 0.84466 0.36483 0.59938
 C632 C 0.85580 0.32669 0.61734
 C633 C 0.89144 0.31424 0.60671
 C634 C 0.91523 0.34125 0.58548
 C635 C 0.90444 0.38167 0.57515
 C636 C 0.86836 0.39152 0.57977
 C637 C 0.85006 0.42885 0.59885
 C638 C 0.82405 0.39995 0.62063
 H639 H 0.90168 0.28400 0.61499
 H640 H 0.94252 0.33136 0.57998
 H641 H 0.83791 0.44833 0.57219
 H642 H 0.86631 0.44547 0.62393
 H643 H 0.79691 0.40347 0.60665
 H644 H 0.82537 0.39987 0.65812
 C645 C 0.32790 -0.11235 0.58910
 C646 C 0.33734 -0.15363 0.59735
 C647 C 0.37030 -0.16791 0.58004
 C648 C 0.39500 -0.14013 0.56290
 C649 C 0.38707 -0.09761 0.56200
 C650 C 0.35215 -0.08495 0.57135
 C651 C 0.33849 -0.05045 0.60039
 C652 C 0.31201 -0.08039 0.61992
 H653 H 0.37807 -0.20002 0.58261
 H654 H 0.42104 -0.15165 0.55284
 H655 H 0.32579 -0.02560 0.58020
 H656 H 0.35834 -0.03995 0.62527
 H657 H 0.28409 -0.07263 0.61109
 H658 H 0.31651 -0.08738 0.65615
 C659 C 0.32983 0.39777 0.09947
 C660 C 0.33929 0.35930 0.11749
 C661 C 0.37233 0.34220 0.10363
 C662 C 0.39705 0.36600 0.08014
 C663 C 0.38923 0.40733 0.06915
 C664 C 0.35413 0.42116 0.07552
 C665 C 0.33972 0.46041 0.09508
 C666 C 0.31337 0.43487 0.12153
 H667 H 0.38012 0.31129 0.11330
 H668 H 0.42308 0.35274 0.07306
 H669 H 0.32681 0.47978 0.06893
 H670 H 0.35917 0.47631 0.11675
 H671 H 0.28546 0.44010 0.11089
 H672 H 0.31769 0.43562 0.15860
 C673 C 0.84190 0.09615 -0.11294
 C674 C 0.84280 0.13935 -0.11359
 C675 C 0.86611 0.15833 -0.08302
 C676 C 0.89189 0.13494 -0.06014
 C677 C 0.89365 0.09201 -0.06540
 C678 C 0.86646 0.07302 -0.08881
 C679 C 0.86880 0.04028 -0.12421
 C680 C 0.84207 0.06560 -0.15087
 H681 H 0.86628 0.19134 -0.07872
 H682 H 0.91169 0.15060 -0.04062
 H683 H 0.85813 0.01064 -0.11211
 H684 H 0.89542 0.03802 -0.14058
 H685 H 0.81615 0.05022 -0.15433
 H686 H 0.85317 0.07820 -0.18270
 C687 C 0.89041 0.68587 0.39431
 C688 C 0.88273 0.67635 0.34922
 C689 C 0.90676 0.64951 0.32640
 C690 C 0.93285 0.62738 0.35037
 C691 C 0.93590 0.63203 0.39752
 C692 C 0.91648 0.66424 0.41797
 C693 C 0.89467 0.66463 0.46018
 C694 C 0.86630 0.68829 0.43446
 H695 H 0.90375 0.64311 0.29077
 H696 H 0.94830 0.60378 0.33276
 H697 H 0.90696 0.68325 0.48718
 H698 H 0.88640 0.63332 0.47021
 H699 H 0.86232 0.72039 0.44681
 H700 H 0.84156 0.67076 0.42975
 C701 C 0.33966 0.10552 0.36307
 C702 C 0.33981 0.14895 0.36769
 C703 C 0.36278 0.16436 0.40154
 C704 C 0.38730 0.13852 0.42357
 C705 C 0.38907 0.09634 0.41389
 C706 C 0.36336 0.08002 0.38601
 C707 C 0.36828 0.05114 0.34727
 C708 C 0.34278 0.07877 0.32164
 H709 H 0.36303 0.19632 0.41129
 H710 H 0.40580 0.15181 0.44702
 H711 H 0.35743 0.02033 0.35454
 H712 H 0.39574 0.05094 0.33328
 H713 H 0.31763 0.06313 0.31359
 H714 H 0.35541 0.09472 0.29272
 C715 C 0.34194 0.59788 -0.14610
 C716 C 0.34191 0.64115 -0.14375
 C717 C 0.36474 0.65860 -0.11133
 C718 C 0.39006 0.63420 -0.08852
 C719 C 0.39241 0.59154 -0.09607
 C720 C 0.36622 0.57371 -0.12238
 C721 C 0.36991 0.54305 -0.15977
 C722 C 0.34355 0.56946 -0.18592
 H723 H 0.36430 0.69125 -0.10444
 H724 H 0.40857 0.64887 -0.06609
 H725 H 0.35934 0.51261 -0.15016
 H726 H 0.39697 0.54214 -0.17502
 H727 H 0.31797 0.55390 -0.19160
 H728 H 0.35531 0.58399 -0.21632
 C729 C 1.15180 -0.08782 -0.16981
 C730 C 1.17658 -0.11273 -0.14739
 C731 C 1.17840 -0.10899 -0.10002
 C732 C 1.15278 -0.08520 -0.07605
 C733 C 1.12444 -0.06603 -0.09912
 C734 C 1.12597 -0.06561 -0.14626
 C735 C 1.09846 -0.07378 -0.18096
 C736 C 1.12688 -0.09807 -0.20694
 H737 H 1.19812 -0.12645 -0.08142
 H738 H 1.15324 -0.08509 -0.03950
 H739 H 1.08969 -0.04524 -0.19846
 H740 H 1.07671 -0.09336 -0.16830
 H741 H 1.13453 -0.08347 -0.23934
 H742 H 1.12157 -0.13155 -0.20915
 C743 C 1.13158 0.33420 0.41933
 C744 C 1.12946 0.33106 0.37219
 C745 C 1.09644 0.34114 0.35247
 C746 C 1.06930 0.36059 0.37818
 C747 C 1.07450 0.36969 0.42409
 C748 C 1.10481 0.35333 0.44468
 C749 C 1.13062 0.37282 0.47576
 C750 C 1.15993 0.35186 0.44805
 H751 H 1.09241 0.33683 0.31665
 H752 H 1.04587 0.37223 0.36118
 H753 H 1.12855 0.36073 0.51068
 H754 H 1.13059 0.40692 0.47321
 H755 H 1.17466 0.32773 0.46708
 H756 H 1.17684 0.37378 0.42937
 C757 C 0.63518 -0.15422 0.39260
 C758 C 0.66494 -0.13772 0.37149
 C759 C 0.67094 -0.09529 0.37874
 C760 C 0.64532 -0.07005 0.40146
 C761 C 0.61292 -0.08665 0.41604
 C762 C 0.60974 -0.12942 0.41352
 C763 C 0.58020 -0.15580 0.39788
 C764 C 0.60823 -0.18314 0.37507
 H765 H 0.69453 -0.08128 0.36519
 H766 H 0.64969 -0.03734 0.40453
 H767 H 0.56248 -0.14007 0.37333
 H768 H 0.56649 -0.17109 0.42640
 H769 H 0.60669 -0.18307 0.33760
 H770 H 0.61073 -0.21408 0.39061
 C771 C 0.63293 0.34259 -0.12282
 C772 C 0.66656 0.35719 -0.13349
 C773 C 0.67505 0.39670 -0.11693
 C774 C 0.64898 0.42170 -0.09471
 C775 C 0.61385 0.40795 -0.08985
 C776 C 0.60735 0.36722 -0.10217
 C777 C 0.57828 0.34890 -0.12924
 C778 C 0.60650 0.32172 -0.15185
 H779 H 0.70132 0.40871 -0.12226
 H780 H 0.65574 0.45237 -0.08379
 H781 H 0.56570 0.37125 -0.15277
 H782 H 0.55952 0.33139 -0.10792
 H783 H 0.61030 0.32837 -0.18833
 H784 H 0.60400 0.28863 -0.14340
 C785 C 1.13966 0.16334 -0.08836
 C786 C 1.16836 0.14537 -0.11247
 C787 C 1.17354 0.10229 -0.10756
 C788 C 1.14815 0.07835 -0.08515
 C789 C 1.11660 0.09671 -0.06837
 C790 C 1.11422 0.13956 -0.06767
 C791 C 1.08455 0.16812 -0.08006
 C792 C 1.11224 0.19439 -0.10287
 H793 H 1.19656 0.08661 -0.12195
 H794 H 1.15199 0.04528 -0.08397
 H795 H 1.07208 0.18315 -0.04994
 H796 H 1.06575 0.15432 -0.10428
 H797 H 1.11544 0.22466 -0.08595
 H798 H 1.10943 0.19575 -0.14018
 C799 C 1.10782 0.68297 0.39929
 C800 C 1.14298 0.66865 0.39397
 C801 C 1.15370 0.63438 0.41963
 C802 C 1.12852 0.61134 0.44312
 C803 C 1.09215 0.62212 0.44143
 C804 C 1.08282 0.66013 0.42262
 C805 C 1.05422 0.67090 0.39001
 C806 C 1.08150 0.69590 0.36452
 H807 H 1.18104 0.62356 0.41877
 H808 H 1.13717 0.58315 0.45935
 H809 H 1.03282 0.69015 0.40586
 H810 H 1.04493 0.64377 0.37074
 H811 H 1.07579 0.72955 0.36573
 H812 H 1.08806 0.68331 0.33043
 C813 C 0.62827 0.15837 0.38774
 C814 C 0.66227 0.14285 0.37790
 C815 C 0.67109 0.10325 0.39455
 C816 C 0.64501 0.07880 0.41546
 C817 C 0.60953 0.09317 0.41886
 C818 C 0.60262 0.13418 0.40711
 C819 C 0.57385 0.15332 0.37937
 C820 C 0.60211 0.17996 0.35819
 H821 H 0.69762 0.09056 0.38985
 H822 H 0.65209 0.04798 0.42625
 H823 H 0.55438 0.17118 0.40036
 H824 H 0.56213 0.13137 0.35504
 H825 H 0.59891 0.21307 0.36711
 H826 H 0.60677 0.17339 0.32172
 C827 C 0.66447 0.62181 -0.10023
 C828 C 0.66485 0.62550 -0.14788
 C829 C 0.64213 0.59827 -0.17125
 C830 C 0.61719 0.57428 -0.14806
 C831 C 0.61491 0.57521 -0.10077
 C832 C 0.64056 0.59693 -0.07756
 C833 C 0.63576 0.62616 -0.03913
 C834 C 0.66141 0.65384 -0.06359
 H835 H 0.64195 0.59593 -0.20753
 H836 H 0.59862 0.55634 -0.16727
 H837 H 0.64653 0.61344 -0.00719
 H838 H 0.60835 0.63926 -0.03662
 H839 H 0.68654 0.65749 -0.04477
 H840 H 0.64888 0.68304 -0.07544
 C841 C 0.88568 -0.15290 -0.12597
 C842 C 0.84964 -0.14249 -0.12198
 C843 C 0.84014 -0.10734 -0.09627
 C844 C 0.86647 -0.08151 -0.07928
 C845 C 0.90268 -0.08996 -0.08856
 C846 C 0.91153 -0.12726 -0.10981
 C847 C 0.93551 -0.13606 -0.14920
 C848 C 0.90711 -0.16435 -0.16688
 H849 H 0.81250 -0.09916 -0.09051
 H850 H 0.85838 -0.05432 -0.06031
 H851 H 0.96016 -0.15276 -0.13912
 H852 H 0.93963 -0.10858 -0.17067
 H853 H 0.91539 -0.19734 -0.16688
 H854 H 0.89475 -0.15337 -0.19868
 C855 C 0.89995 0.31884 0.37570
 C856 C 0.86514 0.33430 0.37046
 C857 C 0.85613 0.37146 0.39258
 C858 C 0.88239 0.39511 0.41264
 C859 C 0.91825 0.38213 0.41142
 C860 C 0.92607 0.34223 0.39611
 C861 C 0.95388 0.32742 0.36350
 C862 C 0.92543 0.30186 0.34125
 H863 H 0.82915 0.38346 0.39216
 H864 H 0.87485 0.42471 0.42710
 H865 H 0.97476 0.30845 0.38017
 H866 H 0.96394 0.35240 0.34162
 H867 H 0.92994 0.26820 0.34516
 H868 H 0.91896 0.31198 0.30643
 C869 C 0.37158 -0.15955 0.39260
 C870 C 0.34040 -0.14354 0.37281
 C871 C 0.33379 -0.10061 0.37927
 C872 C 0.35922 -0.07521 0.39918
 C873 C 0.39243 -0.09149 0.41173
 C874 C 0.39698 -0.13415 0.41070
 C875 C 0.42718 -0.16017 0.39365
 C876 C 0.39966 -0.18816 0.37356
 H877 H 0.30908 -0.08605 0.36939
 H878 H 0.35357 -0.04256 0.40254
 H879 H 0.44238 -0.17466 0.42156
 H880 H 0.44345 -0.14447 0.36769
 H881 H 0.39944 -0.21892 0.38972
 H882 H 0.40002 -0.18871 0.33602
 C883 C 0.33190 0.40586 -0.12381
 C884 C 0.34081 0.37230 -0.15188
 C885 C 0.37709 0.36443 -0.16049
 C886 C 0.40324 0.38627 -0.13752
 C887 C 0.39394 0.41646 -0.10480
 C888 C 0.35786 0.42728 -0.10064
 C889 C 0.33509 0.43183 -0.05943
 C890 C 0.30676 0.40849 -0.08469
 H891 H 0.38528 0.34013 -0.18369
 H892 H 0.43076 0.37800 -0.14408
 H893 H 0.32753 0.46448 -0.05253
 H894 H 0.34599 0.41476 -0.03005
 H895 H 0.28290 0.42774 -0.09230
 H896 H 0.30117 0.37789 -0.06994
 C897 C 1.14790 -0.16253 0.09115
 C898 C 1.17093 -0.14618 0.12297
 C899 C 1.17364 -0.10300 0.12526
 C900 C 1.14921 -0.07757 0.10204
 C901 C 1.12183 -0.09538 0.07700
 C902 C 1.12385 -0.13771 0.06897
 C903 C 1.09668 -0.17043 0.06727
 C904 C 1.12338 -0.19812 0.09143
 H905 H 1.19229 -0.08910 0.14808
 H906 H 1.14965 -0.04458 0.10719
 H907 H 1.09128 -0.18060 0.03216
 H908 H 1.07281 -0.16307 0.08827
 H909 H 1.13350 -0.22400 0.06999
 H910 H 1.11418 -0.20705 0.12559
 C911 C 1.08484 0.35315 0.67811
 C912 C 1.10810 0.32627 0.65481
 C913 C 1.09972 0.31769 0.60921
 C914 C 1.07293 0.34063 0.58672
 C915 C 1.05444 0.37297 0.60917
 C916 C 1.05934 0.37635 0.65590
 C917 C 1.06409 0.41248 0.68662
 C918 C 1.09193 0.38686 0.71105
 H919 H 1.11522 0.29527 0.59001
 H920 H 1.06954 0.33605 0.55079
 H921 H 1.04006 0.41919 0.70756
 H922 H 1.07573 0.43959 0.66980
 H923 H 1.08377 0.37882 0.74599
 H924 H 1.11920 0.39900 0.70763
 C925 C 0.61806 -0.12353 0.66351
 C926 C 0.65308 -0.13020 0.64897
 C927 C 0.66247 -0.11454 0.60599
 C928 C 0.63806 -0.09050 0.58091
 C929 C 0.60372 -0.08206 0.59808
 C930 C 0.59413 -0.10048 0.63875
 C931 C 0.57780 -0.08131 0.68002
 C932 C 0.60417 -0.10656 0.70729
 H933 H 0.68845 -0.12079 0.59153
 H934 H 0.64592 -0.07885 0.54822
 H935 H 0.54989 -0.09078 0.68514
 H936 H 0.58213 -0.04762 0.68207
 H937 H 0.59135 -0.13041 0.72826
 H938 H 0.62392 -0.08759 0.72517
 C939 C 0.62153 0.36967 0.15662
 C940 C 0.65675 0.36363 0.14237
 C941 C 0.66641 0.38185 0.10070
 C942 C 0.64207 0.40724 0.07674
 C943 C 0.60744 0.41479 0.09369
 C944 C 0.59773 0.39412 0.13302
 C945 C 0.58097 0.41086 0.17524
 C946 C 0.60712 0.38412 0.20119
 H947 H 0.69257 0.37658 0.08636
 H948 H 0.65028 0.42065 0.04504
 H949 H 0.55304 0.40108 0.17921
 H950 H 0.58522 0.44438 0.17969
 H951 H 0.59413 0.35910 0.22023
 H952 H 0.62663 0.40207 0.22071
 C953 C 0.86396 0.14393 0.09540
 C954 C 0.84019 0.13040 0.12839
 C955 C 0.83891 0.08766 0.13643
 C956 C 0.86482 0.06072 0.11716
 C957 C 0.89217 0.07664 0.09020
 C958 C 0.88926 0.11763 0.07693
 C959 C 0.91600 0.15058 0.07261
 C960 C 0.88794 0.17997 0.09230
 H961 H 0.81990 0.07568 0.16034
 H962 H 0.86504 0.02846 0.12603
 H963 H 0.92287 0.15724 0.03695
 H964 H 0.93904 0.14580 0.09526
 H965 H 0.87828 0.20307 0.06753
 H966 H 0.89583 0.19287 0.12533
 C967 C 0.84639 0.65435 0.58582
 C968 C 0.85756 0.68783 0.61144
 C969 C 0.89381 0.69837 0.60711
 C970 C 0.91841 0.67169 0.58464
 C971 C 0.90712 0.63400 0.56671
 C972 C 0.87045 0.62789 0.56492
 C973 C 0.84822 0.59121 0.57412
 C974 C 0.82176 0.62034 0.59704
 H975 H 0.90371 0.72554 0.62360
 H976 H 0.94636 0.67873 0.58504
 H977 H 0.86044 0.56919 0.59827
 H978 H 0.83789 0.57733 0.54262
 H979 H 0.81917 0.61519 0.63399
 H980 H 0.79628 0.62309 0.57862
 C981 C 0.35704 0.16168 0.58896
 C982 C 0.33255 0.14676 0.62041
 C983 C 0.32943 0.10348 0.62281
 C984 C 0.35398 0.07702 0.59995
 C985 C 0.38183 0.09351 0.57417
 C986 C 0.38068 0.13583 0.56649
 C987 C 0.40827 0.16784 0.56287
 C988 C 0.38225 0.19666 0.58769
 H989 H 0.30981 0.09015 0.64496
 H990 H 0.35287 0.04418 0.60538
 H991 H 0.41331 0.17704 0.52736
 H992 H 0.43232 0.16041 0.58288
 H993 H 0.37241 0.22238 0.56634
 H994 H 0.39245 0.20585 0.62115
 C995 C 0.37117 0.65477 0.11799
 C996 C 0.33953 0.63835 0.13382
 C997 C 0.33121 0.59891 0.11638
 C998 C 0.35549 0.57692 0.08752
 C999 C 0.38857 0.59379 0.07551
 C1000 C 0.39407 0.63381 0.09029
 C1001 C 0.42166 0.66586 0.09242
 C1002 C 0.39570 0.68997 0.12337
 H1003 H 0.30696 0.58421 0.12667
 H1004 H 0.34922 0.54620 0.07671
 H1005 H 0.42619 0.68066 0.05919
 H1006 H 0.44593 0.65501 0.11013
 H1007 H 0.38501 0.71869 0.10801
 H1008 H 0.40604 0.69332 0.15814
   
