data_POSCAR
  _audit_creation_date              2014-09-24
  _audit_creation_method            'ToBaCCo'
  _symmetry_space_group_name_H-M    'P1'
  _symmetry_Int_Tables_number       1
  _symmetry_cell_setting            triclinic
  loop_
  _symmetry_equiv_pos_as_xyz
 x,y,z
_cell_length_a 41.7402
_cell_length_b 41.0742
_cell_length_c 22.9841
_cell_angle_alpha 90.751000
_cell_angle_beta 90.063700
_cell_angle_gamma 89.837700
loop_
  _atom_site_label
  _atom_site_type_symbol
  _atom_site_fract_x
  _atom_site_fract_y
  _atom_site_fract_z
O1 O 0.28827 0.22537 0.22075
 O2 O 0.23078 0.28685 0.17402
 O3 O 0.28857 0.28854 0.21908
 O4 O 0.22861 0.22424 0.18663
 O5 O 0.21171 0.22801 0.27748
 O6 O 0.26854 0.29350 0.30770
 O7 O 0.21103 0.29070 0.26299
 O8 O 0.27143 0.23025 0.31154
 Cu9 Cu 0.26089 0.25588 0.19120
 Cu10 Cu 0.23887 0.26106 0.29886
 C11 C 0.29015 0.21759 0.27374
 C12 C 0.21069 0.29875 0.20965
 C13 C 0.28862 0.30181 0.26948
 C14 C 0.20987 0.21530 0.22711
 O15 O 0.78558 0.26899 0.26546
 O16 O 0.72342 0.20776 0.28849
 O17 O 0.78370 0.20594 0.25610
 O18 O 0.72492 0.27099 0.29084
 O19 O 0.71239 0.27365 0.19759
 O20 O 0.76907 0.20785 0.16383
 O21 O 0.70891 0.21068 0.19636
 O22 O 0.77298 0.27117 0.17221
 Cu23 Cu 0.75576 0.23804 0.28450
 Cu24 Cu 0.73958 0.24093 0.17316
 C25 C 0.78998 0.28051 0.21526
 C26 C 0.70503 0.19925 0.24702
 C27 C 0.78643 0.19604 0.20364
 C28 C 0.70872 0.28339 0.24970
 O29 O 0.73538 0.77760 0.66539
 O30 O 0.78853 0.71704 0.73170
 O31 O 0.73450 0.71463 0.67515
 O32 O 0.78946 0.77968 0.72383
 O33 O 0.76139 0.78464 0.80894
 O34 O 0.70741 0.71968 0.75731
 O35 O 0.76186 0.72146 0.81426
 O36 O 0.70876 0.78266 0.74796
 Cu37 Cu 0.76449 0.74686 0.69101
 Cu38 Cu 0.73219 0.75245 0.78999
 C39 C 0.71287 0.79023 0.69509
 C40 C 0.78449 0.70910 0.78432
 C41 C 0.71144 0.70634 0.70767
 C42 C 0.78656 0.79445 0.77672
 O43 O 0.21754 0.78150 0.73697
 O44 O 0.26991 0.71555 0.68352
 O45 O 0.21138 0.71919 0.72309
 O46 O 0.27640 0.77818 0.69898
 O47 O 0.29406 0.77000 0.78823
 O48 O 0.22855 0.71213 0.81292
 O49 O 0.28705 0.70749 0.77312
 O50 O 0.23559 0.77462 0.82637
 Cu51 Cu 0.24213 0.74938 0.70160
 Cu52 Cu 0.26312 0.74021 0.80909
 C53 C 0.21743 0.78914 0.79069
 C54 C 0.28742 0.70029 0.71918
 C55 C 0.20859 0.70597 0.77248
 C56 C 0.29633 0.78405 0.73960
 C57 C 1.03461 0.05955 0.05649
 C58 C 1.00557 0.07216 0.07769
 C59 C 0.97618 0.05725 0.06483
 C60 C 0.97564 0.02913 0.02843
 C61 C 1.00480 0.01604 0.00653
 C62 C 1.03437 0.03087 0.02167
 C63 C 1.06304 0.01624 0.00252
 C64 C 1.06273 -0.01152 -0.03270
 C65 C 1.03374 -0.02558 -0.05118
 C66 C 1.00442 -0.01196 -0.03065
 C67 C 0.94676 0.01332 0.01426
 C68 C 0.94631 -0.01382 -0.02261
 C69 C 0.97476 -0.02649 -0.04663
 C70 C 0.97446 -0.05356 -0.08545
 C71 C 1.00360 -0.06543 -0.10735
 C72 C 1.03319 -0.05313 -0.08881
 H73 H 1.08617 0.02574 0.01532
 H74 H 1.08566 -0.02168 -0.04508
 H75 H 0.92406 0.02155 0.03176
 H76 H 0.92331 -0.02486 -0.03144
 H77 H 1.00565 0.09488 0.10214
 H78 H 1.00330 -0.08427 -0.14069
 C79 C 0.47625 0.43978 0.42196
 C80 C 0.50642 0.42678 0.40845
 C81 C 0.53471 0.44059 0.43031
 C82 C 0.53289 0.46868 0.46652
 C83 C 0.50252 0.48183 0.48181
 C84 C 0.47411 0.46733 0.45955
 C85 C 0.44434 0.48104 0.47499
 C86 C 0.44239 0.50765 0.51284
 C87 C 0.47014 0.52233 0.53562
 C88 C 0.50056 0.50952 0.51960
 C89 C 0.56068 0.48433 0.48702
 C90 C 0.55879 0.51169 0.52318
 C91 C 0.52901 0.52436 0.54108
 C92 C 0.52685 0.55189 0.57875
 C93 C 0.49655 0.56326 0.59578
 C94 C 0.46828 0.54913 0.57478
 H95 H 0.42206 0.47148 0.45805
 H96 H 0.41873 0.51650 0.52401
 H97 H 0.58432 0.47595 0.47457
 H98 H 0.58111 0.52276 0.53656
 H99 H 0.50775 0.40445 0.38293
 H100 H 0.49482 0.58374 0.62578
 C101 C -0.03640 0.44719 0.07318
 C102 C -0.00808 0.43475 0.09711
 C103 C 0.02136 0.45054 0.09067
 C104 C 0.02281 0.47962 0.05844
 C105 C -0.00567 0.49291 0.03452
 C106 C -0.03537 0.47675 0.04221
 C107 C -0.06332 0.49076 0.01915
 C108 C -0.06214 0.51963 -0.01167
 C109 C -0.03298 0.53588 -0.02058
 C110 C -0.00439 0.52222 0.00222
 C111 C 0.05213 0.49516 0.04769
 C112 C 0.05349 0.52334 0.01489
 C113 C 0.02551 0.53759 -0.00771
 C114 C 0.02671 0.56628 -0.04123
 C115 C -0.00182 0.57959 -0.06270
 C116 C -0.03159 0.56505 -0.05263
 H117 H -0.08657 0.47972 0.02494
 H118 H -0.08445 0.52869 -0.02916
 H119 H 0.07455 0.48532 0.06336
 H120 H 0.07692 0.53351 0.00708
 H121 H -0.00882 0.41210 0.12069
 H122 H -0.00094 0.60244 -0.08573
 C123 C 0.52584 1.06827 0.45967
 C124 C 0.49653 1.08328 0.44706
 C125 C 0.46724 1.06932 0.46299
 C126 C 0.46721 1.03888 0.49130
 C127 C 0.49672 1.02360 0.50530
 C128 C 0.52612 1.03854 0.49016
 C129 C 0.55503 1.02293 0.50470
 C130 C 0.55513 0.99374 0.53463
 C131 C 0.52633 0.97848 0.55007
 C132 C 0.49683 0.99315 0.53419
 C133 C 0.43843 1.02301 0.50510
 C134 C 0.43856 0.99295 0.53228
 C135 C 0.46747 0.97740 0.54687
 C136 C 0.46780 0.94675 0.57445
 C137 C 0.49720 0.93285 0.59030
 C138 C 0.52632 0.94842 0.57938
 H139 H 0.57801 1.03293 0.49286
 H140 H 0.57815 0.98289 0.54424
 H141 H 0.41537 1.03335 0.49424
 H142 H 0.41559 0.98224 0.54213
 H143 H 0.49667 1.10693 0.42670
 H144 H 0.49752 0.90945 0.61152
 C145 C 1.18630 0.19196 0.21726
 C146 C 1.18039 0.17745 0.16305
 C147 C 1.15256 0.15579 0.15265
 C148 C 1.15367 0.13282 0.10699
 C149 C 1.12756 0.11235 0.09580
 C150 C 1.09955 0.11485 0.12972
 C151 C 1.09848 0.13785 0.17527
 C152 C 1.12450 0.15828 0.18638
 C153 C 1.07107 0.09407 0.11953
 C154 C 1.06457 0.07821 0.06679
 H155 H 1.19666 0.18183 0.12730
 H156 H 1.17495 0.13048 0.08030
 H157 H 1.12973 0.09440 0.06121
 H158 H 1.07718 0.14041 0.20187
 H159 H 1.12215 0.17642 0.22064
 H160 H 1.05380 0.09225 0.15449
 H161 H 1.17145 0.18556 0.25394
 H162 H 1.08122 0.08017 0.03105
 C163 C 0.68876 0.68157 0.68647
 C164 C 0.65888 0.67774 0.71250
 C165 C 0.63340 0.65724 0.68685
 C166 C 0.60145 0.66708 0.69393
 C167 C 0.57667 0.64905 0.66871
 C168 C 0.58326 0.62032 0.63734
 C169 C 0.61523 0.60997 0.63110
 C170 C 0.64015 0.62840 0.65549
 C171 C 0.55629 0.60262 0.61013
 C172 C 0.55569 0.56886 0.60206
 H173 H 0.65263 0.69320 0.74935
 H174 H 0.59570 0.68918 0.71802
 H175 H 0.55222 0.65750 0.67397
 H176 H 0.62108 0.58816 0.60636
 H177 H 0.66457 0.61995 0.65012
 H178 H 0.53541 0.61682 0.59844
 H179 H 0.69442 0.66849 0.64657
 H180 H 0.57629 0.55459 0.61480
 C181 C -0.18455 0.30472 0.20825
 C182 C -0.17749 0.31926 0.15530
 C183 C -0.15097 0.34287 0.14885
 C184 C -0.15197 0.36531 0.10336
 C185 C -0.12730 0.38795 0.09634
 C186 C -0.10091 0.38827 0.13453
 C187 C -0.09989 0.36571 0.17975
 C188 C -0.12442 0.34309 0.18662
 C189 C -0.07394 0.41140 0.12922
 C190 C -0.06629 0.42786 0.07832
 H191 H -0.19255 0.31406 0.11790
 H192 H -0.17211 0.36558 0.07359
 H193 H -0.12936 0.40531 0.06159
 H194 H -0.07972 0.36524 0.20946
 H195 H -0.12206 0.32551 0.22097
 H196 H -0.05828 0.41431 0.16655
 H197 H -0.17125 0.31150 0.24694
 H198 H -0.08147 0.42551 0.04042
 C199 C 0.32273 0.80711 0.73107
 C200 C 0.32697 0.82397 0.67931
 C201 C 0.35411 0.84641 0.66935
 C202 C 0.35144 0.86988 0.62576
 C203 C 0.37674 0.89116 0.61450
 C204 C 0.40549 0.88908 0.64635
 C205 C 0.40809 0.86566 0.68998
 C206 C 0.38285 0.84440 0.70117
 C207 C 0.43325 0.91064 0.63592
 C208 C 0.43795 0.92812 0.58492
 H209 H 0.30919 0.82130 0.64519
 H210 H 0.32957 0.87194 0.60063
 H211 H 0.37338 0.90932 0.58143
 H212 H 0.42999 0.86343 0.71499
 H213 H 0.38636 0.82609 0.73393
 H214 H 0.45161 0.91174 0.66924
 H215 H 0.33891 0.81103 0.76723
 H216 H 0.42012 0.92748 0.55084
 C217 C -0.19336 0.68583 -0.18849
 C218 C -0.16727 0.67283 -0.21911
 C219 C -0.14194 0.65199 -0.19356
 C220 C -0.11932 0.63763 -0.23115
 C221 C -0.09395 0.61922 -0.20927
 C222 C -0.09065 0.61453 -0.14927
 C223 C -0.11330 0.62880 -0.11137
 C224 C -0.13868 0.64732 -0.13326
 C225 C -0.06252 0.59612 -0.12797
 C226 C -0.06095 0.58183 -0.07329
 H227 H -0.16487 0.67871 -0.26475
 H228 H -0.12107 0.64095 -0.27774
 H229 H -0.07672 0.60873 -0.23937
 H230 H -0.11105 0.62666 -0.06471
 H231 H -0.15499 0.65850 -0.10247
 H232 H -0.04250 0.59270 -0.15745
 H233 H -0.19745 0.67978 -0.14353
 H234 H -0.08173 0.58234 -0.04528
 C235 C 0.31514 1.19417 0.28991
 C236 C 0.32229 1.18593 0.34711
 C237 C 0.35033 1.16529 0.36142
 C238 C 0.34981 1.14609 0.41140
 C239 C 0.37599 1.12621 0.42531
 C240 C 0.40348 1.12560 0.38969
 C241 C 0.40404 1.14525 0.34027
 C242 C 0.37795 1.16498 0.32640
 C243 C 0.43205 1.10512 0.40162
 C244 C 0.43717 1.08783 0.45272
 H245 H 0.30677 1.19433 0.38200
 H246 H 0.32889 1.14608 0.43924
 H247 H 0.37419 1.11131 0.46350
 H248 H 0.42493 1.14555 0.31231
 H249 H 0.37979 1.18035 0.28869
 H250 H 0.45039 1.10388 0.36832
 H251 H 0.32921 1.18379 0.25471
 H252 H 0.41931 1.08800 0.48663
 C253 C 1.19538 -0.18555 -0.18755
 C254 C 1.16865 -0.17635 -0.21985
 C255 C 1.14269 -0.15614 -0.19505
 C256 C 1.11096 -0.16395 -0.20925
 C257 C 1.08564 -0.14636 -0.18470
 C258 C 1.09160 -0.11992 -0.14713
 C259 C 1.12340 -0.11141 -0.13394
 C260 C 1.14883 -0.12963 -0.15738
 C261 C 1.06407 -0.10298 -0.12040
 C262 C 1.06289 -0.06935 -0.11067
 H263 H 1.16449 -0.18789 -0.26186
 H264 H 1.10574 -0.18429 -0.23819
 H265 H 1.06128 -0.15335 -0.19520
 H266 H 1.12857 -0.09136 -0.10437
 H267 H 1.17318 -0.12294 -0.14632
 H268 H 1.04317 -0.11759 -0.11113
 H269 H 1.19825 -0.17669 -0.14327
 H270 H 1.08367 -0.05486 -0.12092
 C271 C 0.68479 0.30892 0.26125
 C272 C 0.67752 0.32045 0.31702
 C273 C 0.65103 0.34378 0.32834
 C274 C 0.65170 0.36332 0.37885
 C275 C 0.62664 0.38503 0.39126
 C276 C 0.60011 0.38726 0.35355
 C277 C 0.59957 0.36773 0.30305
 C278 C 0.62455 0.34610 0.29069
 C279 C 0.57226 0.40886 0.36510
 C280 C 0.56554 0.42356 0.41887
 H281 H 0.69189 0.31247 0.35347
 H282 H 0.67178 0.36190 0.40863
 H283 H 0.62843 0.39997 0.43015
 H284 H 0.57938 0.36873 0.27345
 H285 H 0.62251 0.33072 0.25233
 H286 H 0.55513 0.41199 0.33012
 H287 H 0.67220 0.31853 0.22403
 H288 H 0.58221 0.42140 0.45456
 C289 C 0.81155 -0.17885 -0.19940
 C290 C 0.83975 -0.17263 -0.22907
 C291 C 0.86533 -0.15253 -0.20297
 C292 C 0.89720 -0.15961 -0.21755
 C293 C 0.92224 -0.14300 -0.19020
 C294 C 0.91587 -0.11823 -0.14929
 C295 C 0.88396 -0.11029 -0.13582
 C296 C 0.85881 -0.12755 -0.16215
 C297 C 0.94314 -0.10252 -0.11957
 C298 C 0.94428 -0.06929 -0.10596
 H299 H 0.84504 -0.18643 -0.26849
 H300 H 0.90276 -0.17878 -0.24877
 H301 H 0.94672 -0.14954 -0.20096
 H302 H 0.87849 -0.09158 -0.10367
 H303 H 0.83436 -0.12157 -0.15036
 H304 H 0.96408 -0.11752 -0.11208
 H305 H 0.79945 -0.19202 -0.21173
 H306 H 0.92331 -0.05442 -0.11361
 C307 C 0.31242 0.32647 0.28606
 C308 C 0.34006 0.33251 0.25402
 C309 C 0.36660 0.35258 0.27786
 C310 C 0.38774 0.36806 0.23981
 C311 C 0.41322 0.38671 0.26161
 C312 C 0.41815 0.39007 0.32185
 C313 C 0.39752 0.37375 0.35989
 C314 C 0.37206 0.35528 0.33818
 C315 C 0.44569 0.40944 0.34353
 C316 C 0.44740 0.42247 0.39995
 H317 H 0.34255 0.32191 0.21084
 H318 H 0.38443 0.36588 0.19318
 H319 H 0.42908 0.39862 0.23135
 H320 H 0.40134 0.37436 0.40642
 H321 H 0.35732 0.34242 0.36892
 H322 H 0.46495 0.41451 0.31341
 H323 H 0.30892 0.33869 0.32757
 H324 H 0.42713 0.42014 0.42876
 C325 C 0.18293 0.68500 -0.21796
 C326 C 0.17735 0.67080 -0.16388
 C327 C 0.14871 0.65098 -0.15045
 C328 C 0.13999 0.64714 -0.09198
 C329 C 0.11276 0.62935 -0.07711
 C330 C 0.09380 0.61459 -0.12061
 C331 C 0.10270 0.61813 -0.17907
 C332 C 0.12994 0.63593 -0.19394
 C333 C 0.06418 0.59635 -0.10713
 C334 C 0.05717 0.58368 -0.05248
 H335 H 0.19363 0.67620 -0.12828
 H336 H 0.15399 0.65849 -0.05760
 H337 H 0.10642 0.62796 -0.03164
 H338 H 0.08855 0.60697 -0.21343
 H339 H 0.13623 0.63746 -0.23942
 H340 H 0.04757 0.59159 -0.14250
 H341 H 0.16624 0.68109 -0.25336
 H342 H 0.07451 0.58566 -0.01772
 C343 C 0.67974 1.17791 0.25727
 C344 C 0.67424 1.16497 0.31240
 C345 C 0.64539 1.14616 0.32831
 C346 C 0.64641 1.12726 0.37866
 C347 C 0.61920 1.11088 0.39788
 C348 C 0.59002 1.11351 0.36752
 C349 C 0.58914 1.13196 0.31651
 C350 C 0.61646 1.14825 0.29713
 C351 C 0.56024 1.09729 0.38706
 C352 C 0.55588 1.08484 0.44279
 H353 H 0.69188 1.16905 0.34637
 H354 H 0.66842 1.12522 0.40342
 H355 H 0.62142 1.09616 0.43628
 H356 H 0.56705 1.13430 0.29212
 H357 H 0.61445 1.16315 0.25885
 H358 H 0.54060 1.09541 0.35633
 H359 H 0.66373 1.17204 0.22161
 H360 H 0.57465 1.08683 0.47498
 C361 C 0.18624 0.32091 0.18672
 C362 C 0.16304 0.33630 0.22088
 C363 C 0.13593 0.35371 0.19374
 C364 C 0.12349 0.38208 0.21987
 C365 C 0.09793 0.39874 0.19401
 C366 C 0.08407 0.38681 0.14213
 C367 C 0.09596 0.35793 0.11712
 C368 C 0.12173 0.34164 0.14235
 C369 C 0.05631 0.40276 0.11440
 C370 C 0.05006 0.43609 0.11858
 H371 H 0.16492 0.33588 0.26787
 H372 H 0.13376 0.39150 0.25997
 H373 H 0.08867 0.42044 0.21530
 H374 H 0.08532 0.34796 0.07775
 H375 H 0.13013 0.31924 0.12216
 H376 H 0.04103 0.38789 0.08673
 H377 H 0.18574 0.32416 0.14002
 H378 H 0.06685 0.45194 0.14088
 C379 C 0.69071 0.81291 0.66668
 C380 C 0.66760 0.83044 0.69774
 C381 C 0.64211 0.84939 0.66889
 C382 C 0.62910 0.87677 0.69739
 C383 C 0.60382 0.89410 0.67238
 C384 C 0.59072 0.88391 0.61878
 C385 C 0.60347 0.85630 0.59066
 C386 C 0.62910 0.83932 0.61516
 C387 C 0.56255 0.90026 0.59325
 C388 C 0.55620 0.93334 0.60128
 H389 H 0.66826 0.83047 0.74488
 H390 H 0.63842 0.88465 0.73926
 H391 H 0.59392 0.91477 0.69594
 H392 H 0.59343 0.84774 0.54977
 H393 H 0.63794 0.81771 0.59294
 H394 H 0.54671 0.88598 0.56567
 H395 H 0.69217 0.81520 0.61990
 H396 H 0.57361 0.94868 0.62316
 C397 C 0.81022 0.17112 0.18728
 C398 C 0.83485 0.16148 0.22439
 C399 C 0.86162 0.14034 0.20448
 C400 C 0.89157 0.14321 0.23180
 C401 C 0.91786 0.12517 0.21162
 C402 C 0.91476 0.10382 0.16376
 C403 C 0.88438 0.09974 0.13813
 C404 C 0.85811 0.11781 0.15828
 C405 C 0.94359 0.08625 0.14226
 C406 C 0.94625 0.07296 0.08616
 H407 H 0.83632 0.17244 0.26746
 H408 H 0.89483 0.16009 0.26792
 H409 H 0.94087 0.12843 0.23272
 H410 H 0.88057 0.08248 0.10292
 H411 H 0.83509 0.11387 0.13775
 H412 H 0.96410 0.08487 0.17108
 H413 H 0.80988 0.16247 0.14262
 H414 H 0.92638 0.07476 0.05622
 C415 C 0.30869 0.67444 0.69678
 C416 C 0.32976 0.65767 0.73291
 C417 C 0.35429 0.63442 0.71103
 C418 C 0.38087 0.62779 0.74634
 C419 C 0.40542 0.60738 0.72642
 C420 C 0.40397 0.59301 0.67074
 C421 C 0.37667 0.59849 0.63617
 C422 C 0.35208 0.61897 0.65615
 C423 C 0.43171 0.57326 0.65066
 C424 C 0.43728 0.56387 0.59286
 H425 H 0.33000 0.66374 0.77894
 H426 H 0.38303 0.63904 0.78906
 H427 H 0.42597 0.60335 0.75425
 H428 H 0.37396 0.58707 0.59386
 H429 H 0.33140 0.62238 0.62853
 H430 H 0.44990 0.56745 0.68262
 H431 H 0.30886 0.67010 0.65029
 H432 H 0.41966 0.56859 0.55957
   
