data_POSCAR
  _audit_creation_date              2014-09-24
  _audit_creation_method            'ToBaCCo'
  _symmetry_space_group_name_H-M    'P1'
  _symmetry_Int_Tables_number       1
  _symmetry_cell_setting            triclinic
  loop_
  _symmetry_equiv_pos_as_xyz
 x,y,z
_cell_length_a 72.7152
_cell_length_b 72.6668
_cell_length_c 26.3543
_cell_angle_alpha 89.968300
_cell_angle_beta 90.014600
_cell_angle_gamma 119.961800
loop_
  _atom_site_label
  _atom_site_type_symbol
  _atom_site_fract_x
  _atom_site_fract_y
  _atom_site_fract_z
O1 O 0.21787 0.47134 0.45174
 O2 O 0.25412 0.47156 0.54973
 O3 O 0.21813 0.47138 0.55036
 O4 O 0.25387 0.47158 0.45112
 O5 O 0.27125 0.50671 0.45106
 O6 O 0.23551 0.50651 0.55030
 O7 O 0.27150 0.50669 0.54968
 O8 O 0.23524 0.50647 0.45167
 Cu9 Cu 0.23424 0.46792 0.50075
 Cu10 Cu 0.25513 0.51014 0.50068
 C11 C 0.22037 0.48886 0.43536
 C12 C 0.26900 0.48916 0.56604
 C13 C 0.22072 0.48891 0.56687
 C14 C 0.26867 0.48918 0.43454
 O15 O 0.52816 -0.21774 0.55123
 O16 O 0.52824 -0.25379 0.45312
 O17 O 0.52817 -0.21792 0.45261
 O18 O 0.52817 -0.25366 0.55174
 O19 O 0.49307 -0.27123 0.55166
 O20 O 0.49307 -0.23550 0.45253
 O21 O 0.49314 -0.27137 0.45304
 O22 O 0.49306 -0.23531 0.55116
 Cu23 Cu 0.53173 -0.23401 0.50219
 Cu24 Cu 0.48954 -0.25513 0.50210
 C25 C 0.51060 -0.22036 0.56754
 C26 C 0.51071 -0.26874 0.43670
 C27 C 0.51062 -0.22062 0.43603
 C28 C 0.51062 -0.26856 0.56822
 O29 O 1.21826 0.74555 0.54743
 O30 O 1.25434 0.78173 0.44945
 O31 O 1.21854 0.74577 0.44882
 O32 O 1.25408 0.78147 0.54807
 O33 O 1.27172 0.76398 0.54816
 O34 O 1.23618 0.72828 0.44890
 O35 O 1.27199 0.76425 0.44953
 O36 O 1.23590 0.72804 0.54752
 Cu37 Cu 1.23453 0.76540 0.49843
 Cu38 Cu 1.25573 0.74437 0.49853
 C39 C 1.22091 0.73062 0.56381
 C40 C 1.26933 0.77918 0.43315
 C41 C 1.22129 0.73092 0.43233
 C42 C 1.26897 0.77882 0.56467
 O43 O 0.78320 0.53061 0.45194
 O44 O 0.74715 0.53096 0.54965
 O45 O 0.78279 0.53044 0.55055
 O46 O 0.74755 0.53108 0.45102
 O47 O 0.72967 0.49595 0.45078
 O48 O 0.76489 0.49532 0.55030
 O49 O 0.72926 0.49584 0.54941
 O50 O 0.76532 0.49548 0.45168
 Cu51 Cu 0.76698 0.53432 0.50082
 Cu52 Cu 0.74548 0.49210 0.50052
 C53 C 0.78041 0.51299 0.43552
 C54 C 0.73205 0.51346 0.56582
 C55 C 0.77986 0.51277 0.56699
 C56 C 0.73259 0.51362 0.43430
 O57 O 0.47156 0.25372 0.45198
 O58 O 0.47150 0.21745 0.54980
 O59 O 0.47163 0.25344 0.55059
 O60 O 0.47148 0.21777 0.45118
 O61 O 0.50659 0.23524 0.45109
 O62 O 0.50674 0.27090 0.55050
 O63 O 0.50660 0.23491 0.54972
 O64 O 0.50667 0.27119 0.45188
 Cu65 Cu 0.46800 0.23383 0.50091
 Cu66 Cu 0.51019 0.25482 0.50080
 C67 C 0.48912 0.26865 0.43561
 C68 C 0.48903 0.21998 0.56607
 C69 C 0.48921 0.26827 0.56710
 C70 C 0.48901 0.22042 0.43455
 O71 O 0.78291 0.25317 0.54937
 O72 O 0.74639 0.21725 0.45170
 O73 O 0.78225 0.25315 0.45077
 O74 O 0.74704 0.21729 0.55031
 O75 O 0.72948 0.23487 0.55154
 O76 O 0.76469 0.27073 0.45200
 O77 O 0.72883 0.23482 0.45292
 O78 O 0.76536 0.27076 0.55062
 Cu79 Cu 0.76642 0.23345 0.50042
 Cu80 Cu 0.74532 0.25457 0.50189
 C81 C 0.78038 0.26810 0.56629
 C82 C 0.73138 0.21990 0.43603
 C83 C 0.77949 0.26807 0.43480
 C84 C 0.73224 0.21996 0.56752
 N85 N 0.97763 0.52131 0.05440
 N86 N 0.96219 0.52555 0.06241
 N87 N 1.02221 0.53053 0.08941
 N88 N 1.03785 0.54095 0.12194
 N89 N 1.02230 0.54340 0.05426
 N90 N 1.03802 0.56296 0.06189
 N91 N 0.97757 0.50845 0.08952
 N92 N 0.96211 0.50356 0.12238
 C93 C 0.95265 0.51426 0.10474
 C94 C 1.04756 0.56107 0.10405
 N95 N 1.02188 0.47792 0.05429
 N96 N 1.03740 0.47378 0.06211
 N97 N 0.97731 0.46868 0.08946
 N98 N 0.96172 0.45825 0.12210
 N99 N 0.97721 0.45582 0.05431
 N100 N 0.96153 0.43625 0.06204
 N101 N 1.02195 0.49077 0.08941
 N102 N 1.03748 0.49573 0.12210
 Mn103 Mn 0.99976 0.49961 0.09000
 C104 C 1.04697 0.48509 0.10436
 C105 C 0.95203 0.43813 0.10427
 N106 N 1.02228 0.54343 -0.05513
 N107 N 1.03793 0.56301 -0.06302
 N108 N 0.97752 0.50847 -0.09014
 N109 N 0.96192 0.50345 -0.12266
 N110 N 0.97760 0.52132 -0.05498
 N111 N 0.96205 0.52541 -0.06259
 N112 N 1.02216 0.53055 -0.09026
 N113 N 1.03770 0.54098 -0.12302
 Mn114 Mn 0.99996 0.53259 -0.00036
 C115 C 1.04740 0.56112 -0.10531
 C116 C 0.95242 0.51406 -0.10475
 N117 N 0.97716 0.45582 -0.05509
 N118 N 0.96153 0.43623 -0.06298
 N119 N 1.02189 0.49079 -0.09025
 N120 N 1.03750 0.49585 -0.12280
 N121 N 1.02184 0.47794 -0.05511
 N122 N 1.03742 0.47389 -0.06276
 N123 N 0.97726 0.46870 -0.09019
 N124 N 0.96171 0.45828 -0.12294
 Mn125 Mn 0.99952 0.46666 -0.00040
 Mn126 Mn 0.99971 0.49963 -0.09076
 Cl127 Cl 0.99974 0.49962 -0.00038
 C128 C 0.95204 0.43813 -0.10525
 C129 C 1.04702 0.48525 -0.10493
 N130 N 0.47860 0.45648 0.05408
 N131 N 0.47453 0.43684 0.06202
 N132 N 0.46914 0.49170 0.08918
 N133 N 0.45868 0.49682 0.12182
 N134 N 0.45630 0.47890 0.05409
 N135 N 0.43671 0.47494 0.06187
 N136 N 0.49143 0.46931 0.08914
 N137 N 0.49646 0.45879 0.12191
 C138 C 0.48588 0.43865 0.10427
 C139 C 0.43856 0.48633 0.10406
 N140 N 0.52154 0.54410 0.05387
 N141 N 0.52561 0.56374 0.06177
 N142 N 0.53104 0.50889 0.08894
 N143 N 0.54154 0.50377 0.12150
 N144 N 0.54383 0.52168 0.05374
 N145 N 0.56343 0.52562 0.06137
 N146 N 0.50875 0.53128 0.08904
 N147 N 0.50376 0.54181 0.12182
 Mn148 Mn 0.50009 0.50030 0.08962
 C149 C 0.51431 0.56195 0.10409
 C150 C 0.56163 0.51425 0.10358
 N151 N 0.45621 0.47887 -0.05530
 N152 N 0.43660 0.47484 -0.06313
 N153 N 0.49131 0.46927 -0.09052
 N154 N 0.49641 0.45875 -0.12305
 N155 N 0.47853 0.45647 -0.05531
 N156 N 0.47458 0.43687 -0.06289
 N157 N 0.46902 0.49166 -0.09048
 N158 N 0.45850 0.49670 -0.12321
 Mn159 Mn 0.46719 0.46746 -0.00061
 C160 C 0.43839 0.48617 -0.10542
 C161 C 0.48593 0.43865 -0.10510
 N162 N 0.54377 0.52166 -0.05566
 N163 N 0.56338 0.52568 -0.06363
 N164 N 0.50863 0.53125 -0.09062
 N165 N 0.50351 0.54176 -0.12316
 N166 N 0.52146 0.54407 -0.05552
 N167 N 0.52543 0.56368 -0.06321
 N168 N 0.53092 0.50886 -0.09072
 N169 N 0.54139 0.50380 -0.12352
 Mn170 Mn 0.53287 0.53310 -0.00089
 Mn171 Mn 0.49997 0.50026 -0.09113
 Cl172 Cl 0.50003 0.50028 -0.00076
 C173 C 0.56152 0.51433 -0.10589
 C174 C 0.51403 0.56188 -0.10534
 N175 N 0.45572 -0.02269 0.05451
 N176 N 0.43613 -0.03831 0.06229
 N177 N 0.49077 0.02202 0.08964
 N178 N 0.49584 0.03763 0.12218
 N179 N 0.47799 0.02202 0.05443
 N180 N 0.47399 0.03764 0.06201
 N181 N 0.46854 -0.02265 0.08970
 N182 N 0.45805 -0.03821 0.12241
 C183 C 0.43794 -0.04784 0.10459
 C184 C 0.48532 0.04722 0.10422
 N185 N 0.54328 0.02214 0.05490
 N186 N 0.56288 0.03772 0.06289
 N187 N 0.50818 -0.02257 0.08994
 N188 N 0.50311 -0.03816 0.12259
 N189 N 0.52102 -0.02256 0.05488
 N190 N 0.52505 -0.03816 0.06268
 N191 N 0.53042 0.02209 0.08993
 N192 N 0.54087 0.03761 0.12274
 Mn193 Mn 0.49948 -0.00028 0.09035
 C194 C 0.56101 0.04722 0.10515
 C195 C 0.51367 -0.04774 0.10486
 N196 N 0.47807 0.02204 -0.05497
 N197 N 0.47399 0.03760 -0.06293
 N198 N 0.46868 -0.02263 -0.08995
 N199 N 0.45824 -0.03824 -0.12254
 N200 N 0.45582 -0.02267 -0.05489
 N201 N 0.43625 -0.03832 -0.06265
 N202 N 0.49091 0.02204 -0.09001
 N203 N 0.49594 0.03758 -0.12278
 Mn204 Mn 0.46668 -0.00033 -0.00023
 C205 C 0.48535 0.04714 -0.10517
 C206 C 0.43812 -0.04787 -0.10479
 N207 N 0.52111 -0.02257 -0.05452
 N208 N 0.52518 -0.03814 -0.06227
 N209 N 0.53055 0.02210 -0.08972
 N210 N 0.54102 0.03777 -0.12219
 N211 N 0.54335 0.02214 -0.05449
 N212 N 0.56292 0.03785 -0.06201
 N213 N 0.50832 -0.02256 -0.08972
 N214 N 0.50332 -0.03812 -0.12240
 Mn215 Mn 0.53241 -0.00021 0.00019
 Mn216 Mn 0.49961 -0.00026 -0.09040
 Cl217 Cl 0.49955 -0.00027 -0.00002
 C218 C 0.51387 -0.04769 -0.10456
 C219 C 0.56111 0.04743 -0.10420
 C220 C 1.20582 0.48876 0.39844
 C221 C 1.19330 0.48866 0.36824
 C222 C 1.17804 0.48851 0.33319
 C223 C 1.17492 0.50599 0.33051
 C224 C 1.15943 0.50552 0.29825
 C225 C 1.14680 0.48752 0.26824
 C226 C 1.15026 0.47013 0.27072
 C227 C 1.16577 0.47063 0.30301
 C228 C 1.12969 0.48668 0.23575
 C229 C 1.10980 0.46797 0.23285
 C230 C 1.09337 0.46745 0.20419
 C231 C 1.09657 0.48557 0.17796
 C232 C 1.11638 0.50416 0.17998
 C233 C 1.13284 0.50472 0.20865
 C234 C 1.07928 0.48532 0.15073
 C235 C 1.06462 0.48517 0.12897
 H236 H 1.18424 0.51986 0.35392
 H237 H 1.15696 0.51904 0.29778
 H238 H 1.14098 0.45615 0.24766
 H239 H 1.16805 0.45701 0.30478
 H240 H 1.10677 0.45391 0.25382
 H241 H 1.07806 0.45302 0.20314
 H242 H 1.11903 0.51828 0.15985
 H243 H 1.14804 0.51927 0.20962
 C244 C 0.51075 0.71681 0.39970
 C245 C 0.51081 0.70441 0.36942
 C246 C 0.51091 0.68931 0.33425
 C247 C 0.52858 0.69503 0.30323
 C248 C 0.52905 0.68004 0.27077
 C249 C 0.51183 0.65911 0.26896
 C250 C 0.49402 0.65362 0.29982
 C251 C 0.49360 0.66862 0.33225
 C252 C 0.51265 0.64288 0.23627
 C253 C 0.49449 0.62781 0.20993
 C254 C 0.49506 0.61195 0.18108
 C255 C 0.51376 0.61096 0.17811
 C256 C 0.53198 0.62606 0.20356
 C257 C 0.53146 0.64193 0.23240
 C258 C 0.51403 0.59396 0.15071
 C259 C 0.51420 0.57948 0.12883
 H260 H 0.54208 0.71100 0.30447
 H261 H 0.54287 0.68483 0.24706
 H262 H 0.48065 0.63758 0.29987
 H263 H 0.47989 0.66399 0.35630
 H264 H 0.47985 0.62828 0.21164
 H265 H 0.48085 0.60033 0.16155
 H266 H 0.54651 0.62536 0.20177
 H267 H 0.54562 0.65310 0.25277
 C268 C 0.28303 -0.20706 0.39826
 C269 C 0.29544 -0.19456 0.36805
 C270 C 0.31056 -0.17930 0.33301
 C271 C 0.30483 -0.16737 0.30188
 C272 C 0.31983 -0.15183 0.26963
 C273 C 0.34080 -0.14802 0.26814
 C274 C 0.34632 -0.16031 0.29910
 C275 C 0.33129 -0.17582 0.33132
 C276 C 0.35705 -0.13087 0.23571
 C277 C 0.37228 -0.13380 0.20960
 C278 C 0.38814 -0.11729 0.18100
 C279 C 0.38900 -0.09764 0.17806
 C280 C 0.37376 -0.09466 0.20328
 C281 C 0.35787 -0.11115 0.23187
 C282 C 0.40599 -0.08029 0.15090
 C283 C 0.42045 -0.06556 0.12918
 H284 H 0.28882 -0.16993 0.30289
 H285 H 0.31503 -0.14281 0.24584
 H286 H 0.36238 -0.15757 0.29939
 H287 H 0.33594 -0.18488 0.35546
 H288 H 0.37191 -0.14887 0.21130
 H289 H 0.39987 -0.11977 0.16164
 H290 H 0.37434 -0.07948 0.20151
 H291 H 0.34658 -0.10828 0.25207
 C292 C 0.79488 0.51286 0.39872
 C293 C 0.80733 0.51277 0.36862
 C294 C 0.82251 0.51269 0.33369
 C295 C 0.82513 0.49491 0.33059
 C296 C 0.84053 0.49513 0.29845
 C297 C 0.85357 0.51320 0.26899
 C298 C 0.85062 0.53090 0.27188
 C299 C 0.83520 0.53063 0.30404
 C300 C 0.87059 0.51377 0.23663
 C301 C 0.89070 0.53221 0.23430
 C302 C 0.90701 0.53247 0.20566
 C303 C 0.90346 0.51436 0.17889
 C304 C 0.88343 0.49603 0.18038
 C305 C 0.86709 0.49572 0.20902
 C306 C 0.92059 0.51436 0.15152
 C307 C 0.93513 0.51433 0.12960
 H308 H 0.81547 0.48098 0.35358
 H309 H 0.84259 0.48138 0.29765
 H310 H 0.86023 0.54493 0.24924
 H311 H 0.83330 0.54448 0.30614
 H312 H 0.89400 0.54625 0.25567
 H313 H 0.92249 0.54671 0.20502
 H314 H 0.88050 0.48192 0.15981
 H315 H 0.85172 0.48138 0.20955
 C316 C 0.48914 0.28319 0.39876
 C317 C 0.48913 0.29568 0.36862
 C318 C 0.48909 0.31088 0.33363
 C319 C 0.47157 0.30519 0.30208
 C320 C 0.47116 0.32026 0.26979
 C321 C 0.48829 0.34126 0.26868
 C322 C 0.50594 0.34673 0.30008
 C323 C 0.50631 0.33164 0.33233
 C324 C 0.48751 0.35756 0.23613
 C325 C 0.50577 0.37285 0.21044
 C326 C 0.50523 0.38876 0.18171
 C327 C 0.48646 0.38960 0.17820
 C328 C 0.46814 0.37430 0.20300
 C329 C 0.46864 0.35837 0.23173
 C330 C 0.48619 0.40663 0.15087
 C331 C 0.48601 0.42112 0.12902
 H332 H 0.45815 0.28916 0.30277
 H333 H 0.45746 0.31549 0.24565
 H334 H 0.51923 0.36281 0.30067
 H335 H 0.51991 0.33625 0.35680
 H336 H 0.52046 0.37250 0.21257
 H337 H 0.51951 0.40053 0.16268
 H338 H 0.45356 0.37487 0.20079
 H339 H 0.45440 0.34703 0.25159
 C340 C 0.71673 0.20546 0.39926
 C341 C 0.70417 0.19304 0.36919
 C342 C 0.68889 0.17787 0.33429
 C343 C 0.66804 0.17409 0.33409
 C344 C 0.65289 0.15868 0.30191
 C345 C 0.65839 0.14680 0.26951
 C346 C 0.67947 0.15092 0.26954
 C347 C 0.69460 0.16635 0.30174
 C348 C 0.64204 0.12977 0.23702
 C349 C 0.64150 0.11024 0.23157
 C350 C 0.62555 0.09386 0.20288
 C351 C 0.60997 0.09677 0.17917
 C352 C 0.61054 0.11624 0.18374
 C353 C 0.62647 0.13264 0.21244
 C354 C 0.59296 0.07951 0.15184
 C355 C 0.57850 0.06487 0.12996
 H356 H 0.66340 0.18283 0.35933
 H357 H 0.63674 0.15570 0.30334
 H358 H 0.68426 0.14222 0.24461
 H359 H 0.71070 0.16914 0.30159
 H360 H 0.65306 0.10742 0.25058
 H361 H 0.62519 0.07882 0.19985
 H362 H 0.59855 0.11866 0.16555
 H363 H 0.62661 0.14757 0.21539
 C364 C 0.48899 0.20619 -0.39912
 C365 C 0.48894 0.19366 -0.36897
 C366 C 0.48884 0.17839 -0.33400
 C367 C 0.47114 0.16631 -0.30317
 C368 C 0.47066 0.15078 -0.27096
 C369 C 0.48792 0.14711 -0.26921
 C370 C 0.50576 0.15954 -0.29987
 C371 C 0.50619 0.17505 -0.33205
 C372 C 0.48710 0.12998 -0.23678
 C373 C 0.50523 0.13301 -0.21037
 C374 C 0.50467 0.11653 -0.18172
 C375 C 0.48598 0.09682 -0.17902
 C376 C 0.46778 0.09373 -0.20455
 C377 C 0.46831 0.11019 -0.23319
 C378 C 0.48569 0.07950 -0.15174
 C379 C 0.48550 0.06482 -0.12991
 H380 H 0.45762 0.16876 -0.30438
 H381 H 0.45682 0.14165 -0.24739
 H382 H 0.51916 0.15691 -0.29996
 H383 H 0.51992 0.18422 -0.35597
 H384 H 0.51986 0.14813 -0.21187
 H385 H 0.51885 0.11909 -0.16212
 H386 H 0.45327 0.07850 -0.20296
 H387 H 0.45417 0.10724 -0.25362
 C388 C 0.71836 0.51361 -0.39939
 C389 C 0.70596 0.51378 -0.36926
 C390 C 0.69086 0.51400 -0.33431
 C391 C 0.67740 0.49580 -0.30631
 C392 C 0.66206 0.49573 -0.27418
 C393 C 0.65997 0.51390 -0.26969
 C394 C 0.67378 0.53222 -0.29749
 C395 C 0.68910 0.53224 -0.32959
 C396 C 0.64306 0.51359 -0.23743
 C397 C 0.64705 0.53142 -0.20820
 C398 C 0.63083 0.53140 -0.17963
 C399 C 0.61043 0.51358 -0.17986
 C400 C 0.60637 0.49567 -0.20825
 C401 C 0.62256 0.49564 -0.23680
 C402 C 0.59345 0.51390 -0.15252
 C403 C 0.57901 0.51413 -0.13066
 H404 H 0.67863 0.48159 -0.30967
 H405 H 0.65185 0.48148 -0.25283
 H406 H 0.67239 0.54635 -0.29544
 H407 H 0.69935 0.54638 -0.35131
 H408 H 0.66272 0.54537 -0.20740
 H409 H 0.63415 0.54535 -0.15779
 H410 H 0.59061 0.48183 -0.20892
 H411 H 0.61888 0.48179 -0.25943
 C412 C 0.79425 0.28175 -0.39892
 C413 C 0.80685 0.29410 -0.36879
 C414 C 0.82222 0.30914 -0.33384
 C415 C 0.81740 0.32234 -0.30496
 C416 C 0.83270 0.33762 -0.27278
 C417 C 0.85305 0.33991 -0.26911
 C418 C 0.85763 0.32636 -0.29781
 C419 C 0.84231 0.31110 -0.32996
 C420 C 0.86966 0.35676 -0.23677
 C421 C 0.88372 0.35279 -0.20840
 C422 C 0.89994 0.36897 -0.17980
 C423 C 0.90231 0.38930 -0.17911
 C424 C 0.88823 0.39333 -0.20662
 C425 C 0.87201 0.37719 -0.23522
 C426 C 0.91963 0.40625 -0.15180
 C427 C 0.93433 0.42068 -0.12996
 H428 H 0.80189 0.32096 -0.30766
 H429 H 0.82861 0.34764 -0.25073
 H430 H 0.87322 0.32791 -0.29641
 H431 H 0.84625 0.30105 -0.35236
 H432 H 0.88218 0.33718 -0.20832
 H433 H 0.91075 0.36567 -0.15864
 H434 H 0.88999 0.40904 -0.20660
 H435 H 0.86165 0.38084 -0.25717
 C436 C 0.51058 -0.20663 -0.39757
 C437 C 0.51059 -0.19416 -0.36738
 C438 C 0.51063 -0.17893 -0.33240
 C439 C 0.49330 -0.17557 -0.33069
 C440 C 0.49368 -0.16008 -0.29855
 C441 C 0.51146 -0.14770 -0.26769
 C442 C 0.52870 -0.15140 -0.26919
 C443 C 0.52827 -0.16691 -0.30136
 C444 C 0.51225 -0.13057 -0.23535
 C445 C 0.53106 -0.11080 -0.23164
 C446 C 0.53155 -0.09434 -0.20313
 C447 C 0.51331 -0.09740 -0.17788
 C448 C 0.49461 -0.11709 -0.18070
 C449 C 0.49407 -0.13358 -0.20921
 C450 C 0.51357 -0.08007 -0.15078
 C451 C 0.51374 -0.06538 -0.12911
 H452 H 0.47961 -0.18470 -0.35477
 H453 H 0.48030 -0.15742 -0.29884
 H454 H 0.54250 -0.14231 -0.24546
 H455 H 0.54178 -0.16938 -0.30239
 H456 H 0.54523 -0.10787 -0.25187
 H457 H 0.54608 -0.07911 -0.20146
 H458 H 0.48039 -0.11964 -0.16130
 H459 H 0.47944 -0.14869 -0.21081
 C460 C 0.28278 0.48923 -0.39909
 C461 C 0.29527 0.48927 -0.36891
 C462 C 0.31048 0.48929 -0.33392
 C463 C 0.30482 0.47180 -0.30223
 C464 C 0.31991 0.47141 -0.27000
 C465 C 0.34090 0.48854 -0.26910
 C466 C 0.34634 0.50617 -0.30062
 C467 C 0.33123 0.50651 -0.33282
 C468 C 0.35723 0.48779 -0.23667
 C469 C 0.37256 0.50608 -0.21117
 C470 C 0.38849 0.50556 -0.18257
 C471 C 0.38932 0.48677 -0.17901
 C472 C 0.37398 0.46842 -0.20362
 C473 C 0.35803 0.46890 -0.23221
 C474 C 0.40637 0.48651 -0.15182
 C475 C 0.42086 0.48633 -0.13007
 H476 H 0.28880 0.45837 -0.30278
 H477 H 0.31517 0.45773 -0.24576
 H478 H 0.36242 0.51947 -0.30137
 H479 H 0.33582 0.52008 -0.35740
 H480 H 0.37221 0.52079 -0.21334
 H481 H 0.40029 0.51986 -0.16368
 H482 H 0.37455 0.45382 -0.20137
 H483 H 0.34666 0.45463 -0.25194
 C484 C 1.20642 0.71609 -0.39930
 C485 C 1.19394 0.70363 -0.36915
 C486 C 1.17870 0.68845 -0.33417
 C487 C 1.16716 0.69430 -0.30205
 C488 C 1.15165 0.67926 -0.26980
 C489 C 1.14749 0.65815 -0.26930
 C490 C 1.15939 0.65252 -0.30126
 C491 C 1.17487 0.66757 -0.33348
 C492 C 1.13037 0.64189 -0.23681
 C493 C 1.13313 0.62632 -0.21175
 C494 C 1.11663 0.61047 -0.18309
 C495 C 1.09720 0.60996 -0.17903
 C496 C 1.09440 0.62554 -0.20321
 C497 C 1.11087 0.64141 -0.23186
 C498 C 1.07985 0.59300 -0.15179
 C499 C 1.06513 0.57857 -0.12999
 H500 H 1.17000 0.71042 -0.30228
 H501 H 1.14294 0.68415 -0.24522
 H502 H 1.15636 0.63634 -0.30232
 H503 H 1.18363 0.66284 -0.35839
 H504 H 1.14803 0.62641 -0.21431
 H505 H 1.11897 0.59848 -0.16454
 H506 H 1.07938 0.62522 -0.20057
 H507 H 1.10813 0.65297 -0.25124
 C508 C 0.79408 0.51252 -0.39567
 C509 C 0.80635 0.51231 -0.36525
 C510 C 0.82137 0.51207 -0.33012
 C511 C 0.83345 0.52960 -0.29882
 C512 C 0.84887 0.52981 -0.26672
 C513 C 0.85241 0.51246 -0.26559
 C514 C 0.83994 0.49477 -0.29664
 C515 C 0.82455 0.49461 -0.32871
 C516 C 0.86952 0.51307 -0.23359
 C517 C 0.86643 0.49479 -0.20773
 C518 C 0.88293 0.49515 -0.17966
 C519 C 0.90270 0.51377 -0.17705
 C520 C 0.90583 0.53211 -0.20201
 C521 C 0.88936 0.53179 -0.23006
 C522 C 0.92001 0.51386 -0.15041
 C523 C 0.93471 0.51395 -0.12906
 H524 H 0.83112 0.54321 -0.29965
 H525 H 0.85803 0.54354 -0.24283
 H526 H 0.84249 0.48131 -0.29720
 H527 H 0.81538 0.48101 -0.35302
 H528 H 0.85127 0.48022 -0.20923
 H529 H 0.88034 0.48086 -0.16047
 H530 H 0.92111 0.54657 -0.20046
 H531 H 0.89234 0.54603 -0.25011
 C532 C 0.48927 0.28265 -0.39560
 C533 C 0.48932 0.29506 -0.36521
 C534 C 0.48936 0.31023 -0.33010
 C535 C 0.47172 0.30466 -0.29910
 C536 C 0.47132 0.31979 -0.26704
 C537 C 0.48858 0.34070 -0.26565
 C538 C 0.50637 0.34603 -0.29640
 C539 C 0.50673 0.33089 -0.32843
 C540 C 0.48777 0.35711 -0.23370
 C541 C 0.50592 0.37230 -0.20754
 C542 C 0.50537 0.38835 -0.17952
 C543 C 0.48670 0.38942 -0.17725
 C544 C 0.46849 0.37421 -0.20250
 C545 C 0.46899 0.35814 -0.23051
 C546 C 0.48643 0.40657 -0.15066
 C547 C 0.48620 0.42112 -0.12935
 H548 H 0.45818 0.28871 -0.30013
 H549 H 0.45751 0.31514 -0.24338
 H550 H 0.51977 0.36206 -0.29675
 H551 H 0.52041 0.33540 -0.35250
 H552 H 0.52053 0.37177 -0.20878
 H553 H 0.51957 0.40006 -0.16011
 H554 H 0.45398 0.37497 -0.20121
 H555 H 0.45485 0.34688 -0.25079
 C556 C 0.71806 0.20552 -0.39507
 C557 C 0.70582 0.19307 -0.36457
 C558 C 0.69084 0.17785 -0.32930
 C559 C 0.68933 0.15798 -0.32386
 C560 C 0.67402 0.14270 -0.29177
 C561 C 0.65996 0.14708 -0.26473
 C562 C 0.66183 0.16723 -0.26985
 C563 C 0.67717 0.18250 -0.30197
 C564 C 0.64295 0.13043 -0.23283
 C565 C 0.62234 0.12760 -0.23340
 C566 C 0.60605 0.11126 -0.20538
 C567 C 0.61013 0.09756 -0.17636
 C568 C 0.63064 0.10043 -0.17489
 C569 C 0.64696 0.11676 -0.20292
 C570 C 0.59307 0.08010 -0.14972
 C571 C 0.57858 0.06528 -0.12840
 H572 H 0.69976 0.15418 -0.34509
 H573 H 0.67279 0.12726 -0.28921
 H574 H 0.65140 0.17116 -0.24908
 H575 H 0.67820 0.19783 -0.30593
 H576 H 0.61868 0.13766 -0.25660
 H577 H 0.59020 0.10911 -0.20700
 H578 H 0.63396 0.08991 -0.15253
 H579 H 0.66271 0.11870 -0.20123
 C580 C 1.20632 0.48884 -0.39586
 C581 C 1.19391 0.48878 -0.36548
 C582 C 1.17873 0.48871 -0.33036
 C583 C 1.16626 0.47076 -0.30055
 C584 C 1.15072 0.47029 -0.26846
 C585 C 1.14744 0.48779 -0.26585
 C586 C 1.16030 0.50588 -0.29541
 C587 C 1.17581 0.50631 -0.32746
 C588 C 1.13022 0.48694 -0.23387
 C589 C 1.13337 0.50491 -0.20647
 C590 C 1.11679 0.50436 -0.17838
 C591 C 1.09688 0.48587 -0.17728
 C592 C 1.09369 0.46783 -0.20379
 C593 C 1.11023 0.46833 -0.23187
 C594 C 1.07951 0.48563 -0.15060
 C595 C 1.06477 0.48545 -0.12923
 H596 H 1.16838 0.45704 -0.30252
 H597 H 1.14125 0.45624 -0.24574
 H598 H 1.15797 0.51948 -0.29481
 H599 H 1.18529 0.52023 -0.35061
 H600 H 1.14864 0.51938 -0.20678
 H601 H 1.11943 0.51842 -0.15799
 H602 H 1.07830 0.45348 -0.20342
 H603 H 1.10721 0.45435 -0.25311
 C604 C 0.51062 0.71781 -0.39659
 C605 C 0.51061 0.70541 -0.36619
 C606 C 0.51060 0.69024 -0.33107
 C607 C 0.49318 0.66962 -0.32907
 C608 C 0.49356 0.65449 -0.29700
 C609 C 0.51142 0.65979 -0.26651
 C610 C 0.52873 0.68067 -0.26823
 C611 C 0.52831 0.69579 -0.30034
 C612 C 0.51223 0.64339 -0.23448
 C613 C 0.53097 0.64227 -0.23149
 C614 C 0.53147 0.62621 -0.20338
 C615 C 0.51329 0.61109 -0.17782
 C616 C 0.49466 0.61225 -0.17990
 C617 C 0.49412 0.62830 -0.20801
 C618 C 0.51355 0.59395 -0.15111
 C619 C 0.51378 0.57941 -0.12970
 H620 H 0.47945 0.66513 -0.35293
 H621 H 0.48011 0.63849 -0.29710
 H622 H 0.54259 0.68530 -0.24478
 H623 H 0.54189 0.71171 -0.30161
 H624 H 0.54508 0.65346 -0.25200
 H625 H 0.54594 0.62539 -0.20225
 H626 H 0.48049 0.60062 -0.16024
 H627 H 0.47954 0.62889 -0.20908
 C628 C 0.28327 -0.20682 -0.39798
 C629 C 0.29559 -0.19445 -0.36749
 C630 C 0.31064 -0.17933 -0.33220
 C631 C 0.33131 -0.17599 -0.33020
 C632 C 0.34632 -0.16054 -0.29789
 C633 C 0.34084 -0.14817 -0.26717
 C634 C 0.31991 -0.15187 -0.26891
 C635 C 0.30492 -0.16735 -0.30126
 C636 C 0.35709 -0.13102 -0.23485
 C637 C 0.35804 -0.11124 -0.23152
 C638 C 0.37398 -0.09473 -0.20315
 C639 C 0.38915 -0.09776 -0.17768
 C640 C 0.38815 -0.11747 -0.18008
 C641 C 0.37223 -0.13402 -0.20845
 C642 C 0.40618 -0.08039 -0.15078
 C643 C 0.42066 -0.06564 -0.12925
 H644 H 0.33594 -0.18509 -0.35423
 H645 H 0.36236 -0.15788 -0.29798
 H646 H 0.31515 -0.14279 -0.24529
 H647 H 0.28896 -0.16980 -0.30253
 H648 H 0.34682 -0.10833 -0.25196
 H649 H 0.37468 -0.07949 -0.20178
 H650 H 0.39982 -0.11999 -0.16050
 H651 H 0.37176 -0.14914 -0.20979
 C652 C 0.51061 -0.20626 0.39870
 C653 C 0.51060 -0.19391 0.36820
 C654 C 0.51058 -0.17881 0.33289
 C655 C 0.49318 -0.17557 0.33084
 C656 C 0.49352 -0.16016 0.29847
 C657 C 0.51134 -0.14774 0.26774
 C658 C 0.52863 -0.15133 0.26953
 C659 C 0.52825 -0.16677 0.30194
 C660 C 0.51211 -0.13064 0.23533
 C661 C 0.53085 -0.11080 0.23194
 C662 C 0.53132 -0.09434 0.20349
 C663 C 0.51310 -0.09748 0.17798
 C664 C 0.49447 -0.11724 0.18045
 C665 C 0.49396 -0.13373 0.20890
 C666 C 0.51331 -0.08015 0.15099
 C667 C 0.51349 -0.06545 0.12939
 H668 H 0.47947 -0.18472 0.35487
 H669 H 0.48009 -0.15757 0.29852
 H670 H 0.54246 -0.14220 0.24590
 H671 H 0.54181 -0.16915 0.30324
 H672 H 0.54499 -0.10783 0.25241
 H673 H 0.54579 -0.07907 0.20207
 H674 H 0.48027 -0.11983 0.16084
 H675 H 0.47938 -0.14889 0.21028
 C676 C 0.28305 0.48926 0.39722
 C677 C 0.29544 0.48934 0.36676
 C678 C 0.31059 0.48943 0.33151
 C679 C 0.33131 0.50670 0.33027
 C680 C 0.34640 0.50640 0.29799
 C681 C 0.34096 0.48876 0.26653
 C682 C 0.31999 0.47161 0.26751
 C683 C 0.30492 0.47195 0.29983
 C684 C 0.35730 0.48801 0.23421
 C685 C 0.35816 0.46914 0.23009
 C686 C 0.37416 0.46868 0.20173
 C687 C 0.38948 0.48702 0.17704
 C688 C 0.38859 0.50578 0.18023
 C689 C 0.37260 0.50629 0.20860
 C690 C 0.40656 0.48678 0.15013
 C691 C 0.42107 0.48657 0.12857
 H692 H 0.33590 0.52026 0.35487
 H693 H 0.36247 0.51971 0.29867
 H694 H 0.31526 0.45793 0.24331
 H695 H 0.28892 0.45850 0.30051
 H696 H 0.34680 0.45490 0.24992
 H697 H 0.37478 0.45411 0.19974
 H698 H 0.40038 0.52008 0.16126
 H699 H 0.37221 0.52097 0.21054
 C700 C 1.20696 0.71654 0.39507
 C701 C 1.19459 0.70413 0.36470
 C702 C 1.17946 0.68897 0.32961
 C703 C 1.16775 0.69472 0.29778
 C704 C 1.15224 0.67963 0.26567
 C705 C 1.14823 0.65858 0.26506
 C706 C 1.16033 0.65306 0.29666
 C707 C 1.17582 0.66816 0.32873
 C708 C 1.13102 0.64224 0.23302
 C709 C 1.13378 0.62673 0.20771
 C710 C 1.11718 0.61075 0.17961
 C711 C 1.09763 0.61006 0.17639
 C712 C 1.09483 0.62558 0.20078
 C713 C 1.11141 0.64158 0.22887
 C714 C 1.08019 0.59299 0.14972
 C715 C 1.06539 0.57851 0.12836
 H716 H 1.17044 0.71079 0.29818
 H717 H 1.14336 0.68443 0.24135
 H718 H 1.15743 0.63692 0.29762
 H719 H 1.18471 0.66351 0.35345
 H720 H 1.14877 0.62696 0.20968
 H721 H 1.11951 0.59880 0.16086
 H722 H 1.07973 0.62513 0.19876
 H723 H 1.10868 0.65309 0.24848
 C724 C 0.48895 0.20608 0.39713
 C725 C 0.48890 0.19373 0.36658
 C726 C 0.48885 0.17862 0.33123
 C727 C 0.50631 0.17549 0.32868
 C728 C 0.50589 0.16005 0.29635
 C729 C 0.48794 0.14749 0.26615
 C730 C 0.47058 0.15098 0.26841
 C731 C 0.47105 0.16645 0.30078
 C732 C 0.48708 0.13034 0.23385
 C733 C 0.46838 0.11044 0.23110
 C734 C 0.46786 0.09394 0.20278
 C735 C 0.48598 0.09708 0.17678
 C736 C 0.50456 0.11690 0.17860
 C737 C 0.50512 0.13343 0.20692
 C738 C 0.48572 0.07971 0.14997
 C739 C 0.48552 0.06497 0.12854
 H740 H 0.52012 0.18474 0.35232
 H741 H 0.51937 0.15754 0.29603
 H742 H 0.45665 0.14174 0.24519
 H743 H 0.45744 0.16874 0.30248
 H744 H 0.45433 0.10746 0.25196
 H745 H 0.45343 0.07862 0.20186
 H746 H 0.51868 0.11949 0.15861
 H747 H 0.51967 0.14864 0.20781
 C748 C 0.71842 0.51386 0.39682
 C749 C 0.70621 0.51406 0.36622
 C750 C 0.69127 0.51429 0.33079
 C751 C 0.67810 0.49616 0.30229
 C752 C 0.66280 0.49604 0.26992
 C753 C 0.66048 0.51408 0.26570
 C754 C 0.67403 0.53234 0.29393
 C755 C 0.68930 0.53242 0.32628
 C756 C 0.64352 0.51365 0.23345
 C757 C 0.64736 0.53151 0.20452
 C758 C 0.63105 0.53142 0.17619
 C759 C 0.61073 0.51349 0.17635
 C760 C 0.60683 0.49553 0.20436
 C761 C 0.62311 0.49559 0.23269
 C762 C 0.59365 0.51377 0.14946
 C763 C 0.57914 0.51400 0.12796
 H764 H 0.67949 0.48204 0.30553
 H765 H 0.65278 0.48183 0.24823
 H766 H 0.67244 0.54637 0.29208
 H767 H 0.69934 0.54650 0.34840
 H768 H 0.66296 0.54555 0.20385
 H769 H 0.63424 0.54540 0.15462
 H770 H 0.59112 0.48161 0.20497
 H771 H 0.61956 0.48171 0.25510
 C772 C 0.79368 0.28250 0.39738
 C773 C 0.80593 0.29492 0.36686
 C774 C 0.82094 0.31010 0.33156
 C775 C 0.82452 0.33089 0.33073
 C776 C 0.83989 0.34600 0.29843
 C777 C 0.85193 0.34051 0.26655
 C778 C 0.84797 0.31947 0.26711
 C779 C 0.83258 0.30438 0.29944
 C780 C 0.86901 0.35687 0.23426
 C781 C 0.88864 0.35757 0.22973
 C782 C 0.90511 0.37359 0.20141
 C783 C 0.90219 0.38907 0.17717
 C784 C 0.88264 0.38834 0.18076
 C785 C 0.86614 0.37234 0.20910
 C786 C 0.91954 0.40616 0.15029
 C787 C 0.93427 0.42066 0.12875
 H788 H 0.81568 0.33551 0.35566
 H789 H 0.84276 0.36212 0.29944
 H790 H 0.85680 0.31471 0.24258
 H791 H 0.82993 0.28832 0.29980
 H792 H 0.89146 0.34609 0.24922
 H793 H 0.92023 0.37408 0.19910
 H794 H 0.88021 0.40025 0.16214
 H795 H 0.85114 0.37207 0.21137
   
