data_POSCAR
  _audit_creation_date              2014-09-24
  _audit_creation_method            'ToBaCCo'
  _symmetry_space_group_name_H-M    'P1'
  _symmetry_Int_Tables_number       1
  _symmetry_cell_setting            triclinic
  loop_
  _symmetry_equiv_pos_as_xyz
 x,y,z
_cell_length_a 12.3947
_cell_length_b 12.7199
_cell_length_c 12.7366
_cell_angle_alpha 90.421700
_cell_angle_beta 92.226500
_cell_angle_gamma 90.474100
loop_
  _atom_site_label
  _atom_site_type_symbol
  _atom_site_fract_x
  _atom_site_fract_y
  _atom_site_fract_z
Si1 Si -0.02414 0.50956 0.24061
 Si2 Si 0.01460 0.48555 0.77990
 Si3 Si 0.25108 -0.00724 0.51810
 Si4 Si 0.74536 0.00363 0.48955
 Si5 Si 0.50184 0.25370 1.00738
 Si6 Si 0.48541 0.74161 1.00684
 B7 B 1.01331 1.11573 0.05481
 B8 B 1.02275 1.09037 -0.07622
 B9 B 1.12024 1.04099 0.01160
 B10 B 1.05398 1.00528 0.12232
 B11 B 0.91751 1.02749 0.10040
 B12 B 0.89971 1.08271 -0.02069
 B13 B 0.97683 0.87882 -0.04471
 B14 B 0.96700 0.90468 0.08571
 B15 B 0.87084 0.95194 -0.00513
 B16 B 0.93676 0.99040 -0.11315
 B17 B 1.06966 0.96626 -0.09151
 B18 B 1.08970 0.91146 0.03131
 B19 B 0.59369 0.49764 0.42197
 B20 B 0.61857 0.49600 0.55739
 B21 B 0.57358 0.60602 0.49742
 B22 B 0.48300 0.57363 0.39799
 B23 B 0.47153 0.43837 0.39326
 B24 B 0.55857 0.39117 0.49132
 B25 B 0.39736 0.51033 0.58411
 B26 B 0.37384 0.51004 0.45181
 B27 B 0.42280 0.39677 0.51047
 B28 B 0.51067 0.43393 0.61044
 B29 B 0.51996 0.56480 0.61651
 B30 B 0.44082 0.61694 0.51661
 C31 C 1.01364 1.39837 0.15010
 C32 C 1.10794 1.40082 0.09971
 C33 C 1.12278 1.30091 0.06561
 C34 C 1.03467 1.24076 0.09274
 O35 O 0.96809 1.30178 0.14665
 H36 H 1.16187 1.46726 0.09286
 H37 H 1.19098 1.27848 0.02329
 C38 C 0.93844 0.65027 0.20714
 C39 C 0.83539 0.68811 0.21588
 C40 C 0.83838 0.79028 0.19147
 C41 C 0.94093 0.80988 0.16176
 O42 O 1.00339 0.72588 0.17553
 H43 H 0.76297 0.64936 0.23770
 H44 H 0.77059 0.84188 0.19245
 C45 C 1.05043 1.34741 -0.18724
 C46 C 1.15606 1.31950 -0.17584
 C47 C 1.15626 1.21561 -0.16282
 C48 C 1.05107 1.18586 -0.15202
 O49 O 0.98511 1.26572 -0.17367
 H50 H 1.22605 1.36882 -0.16156
 H51 H 1.22782 1.17384 -0.14388
 C52 C 0.98826 0.59186 -0.11972
 C53 C 0.89485 0.58930 -0.06624
 C54 C 0.87313 0.69118 -0.04219
 C55 C 0.95665 0.75286 -0.07777
 O56 O 1.02529 0.69103 -0.12794
 H57 H 0.84193 0.52247 -0.05698
 H58 H 0.80356 0.71504 -0.00152
 C59 C 1.16214 1.01396 0.39932
 C60 C 1.10133 1.10263 0.39921
 C61 C 1.06353 1.11269 0.29990
 C62 C 1.09856 1.02668 0.24327
 O63 O 1.16206 0.96639 0.30478
 H64 H 1.08894 1.15655 0.46379
 H65 H 1.00746 1.17252 0.27641
 C66 C 1.18891 0.94639 -0.35293
 C67 C 1.21654 0.85121 -0.31042
 C68 C 1.18133 0.84671 -0.21271
 C69 C 1.13446 0.94181 -0.19606
 O70 O 1.13805 1.00322 -0.28166
 H71 H 1.26602 0.79320 -0.34122
 H72 H 1.19360 0.78256 -0.15942
 C73 C 0.77183 1.02815 0.34856
 C74 C 0.68429 1.03834 0.28151
 C75 C 0.72413 1.04362 0.18537
 C76 C 0.83585 1.04216 0.19740
 O77 O 0.86406 1.02825 0.29887
 H78 H 0.59992 1.03285 0.30013
 H79 H 0.67260 1.03167 0.11742
 C80 C 0.84695 0.98917 -0.39745
 C81 C 0.91120 0.90272 -0.39357
 C82 C 0.93379 0.88717 -0.29197
 C83 C 0.89783 0.97243 -0.23703
 O84 O 0.84108 1.03497 -0.30225
 H85 H 0.93767 0.85214 -0.45495
 H86 H 0.98308 0.82471 -0.26393
 C87 C 1.40613 1.14291 0.01749
 C88 C 1.41716 1.06304 -0.05002
 C89 C 1.32099 1.01683 -0.05804
 C90 C 1.25222 1.06708 0.00975
 O91 O 1.30693 1.14666 0.05614
 H92 H 1.48253 1.04907 -0.09965
 H93 H 1.30928 0.95164 -0.10925
 C94 C 0.65116 1.23328 0.00843
 C95 C 0.71678 1.31623 -0.01178
 C96 C 0.81483 1.27590 -0.03073
 C97 C 0.80265 1.16784 -0.02844
 O98 O 0.70083 1.14324 -0.00890
 H99 H 0.69269 1.39689 -0.01922
 H100 H 0.88588 1.32339 -0.03855
 C101 C 1.33872 0.75992 0.01976
 C102 C 1.27083 0.67557 0.02160
 C103 C 1.17334 0.71558 0.04235
 C104 C 1.18557 0.82410 0.04936
 O105 O 1.28949 0.84831 0.04332
 H106 H 1.28968 0.59439 0.00695
 H107 H 1.10268 0.66716 0.04359
 C108 C 0.58960 0.84192 -0.02421
 C109 C 0.58974 0.88976 -0.11931
 C110 C 0.68593 0.94061 -0.12150
 C111 C 0.74453 0.91465 -0.03051
 O112 O 0.68384 0.85408 0.02886
 H113 H 0.52582 0.88911 -0.17950
 H114 H 0.70688 0.99353 -0.18235
 C115 C 0.84072 0.46194 0.27331
 C116 C 0.76806 0.45234 0.19126
 C117 C 0.67032 0.46684 0.23124
 C118 C 0.68758 0.48208 0.33784
 O119 O 0.79290 0.48082 0.36216
 H120 H 0.78736 0.46095 0.11049
 H121 H 0.59877 0.47772 0.18363
 C122 C 0.08513 0.50454 0.34400
 C123 C 0.07485 0.43430 0.42262
 C124 C 0.17443 0.42664 0.46687
 C125 C 0.24330 0.49438 0.41457
 O126 O 0.18619 0.54260 0.33811
 H127 H 0.00387 0.38967 0.44263
 H128 H 0.18962 0.38070 0.53564
 C129 C 0.89281 0.51018 0.69160
 C130 C 0.86617 0.61304 0.68417
 C131 C 0.76682 0.61610 0.64684
 C132 C 0.73792 0.51533 0.61572
 O133 O 0.81329 0.44772 0.65230
 H134 H 0.90705 0.67952 0.71686
 H135 H 0.71859 0.68578 0.65335
 C136 C 0.13506 0.53511 0.71378
 C137 C 0.12443 0.61674 0.64695
 C138 C 0.21743 0.61979 0.59903
 C139 C 0.28592 0.54362 0.64173
 O140 O 0.23220 0.48982 0.71127
 H141 H 0.05485 0.66275 0.62513
 H142 H 0.22419 0.66416 0.52850
 C143 C 0.51219 0.71375 0.14640
 C144 C 0.51473 0.79910 0.21131
 C145 C 0.49376 0.76161 0.30622
 C146 C 0.48346 0.65334 0.29728
 O147 O 0.49098 0.62518 0.19684
 H148 H 0.52122 0.88116 0.19026
 H149 H 0.49037 0.81216 0.37250
 C150 C 0.51050 0.64824 0.89918
 C151 C 0.59790 0.58551 0.90921
 C152 C 0.61668 0.55309 0.81086
 C153 C 0.53956 0.59897 0.74268
 O154 O 0.47408 0.65782 0.79918
 H155 H 0.64572 0.56986 0.98011
 H156 H 0.67646 0.49486 0.79531
 C157 C 0.46166 0.33323 0.12139
 C158 C 0.38200 0.40480 0.10990
 C159 C 0.36730 0.44204 0.20784
 C160 C 0.43956 0.39099 0.27588
 O161 O 0.49586 0.32131 0.22186
 H162 H 0.34181 0.42838 0.03722
 H163 H 0.31998 0.51019 0.22259
 C164 C 0.50089 0.28546 0.86117
 C165 C 0.55874 0.21797 0.80067
 C166 C 0.58128 0.26952 0.71401
 C167 C 0.52517 0.36141 0.71557
 O168 O 0.47815 0.37391 0.80870
 H169 H 0.59681 0.14531 0.82238
 H170 H 0.64048 0.24337 0.66277
 C171 C 0.70887 0.86446 0.46347
 C172 C 0.78465 0.80217 0.42142
 C173 C 0.75108 0.70348 0.43576
 C174 C 0.65065 0.70886 0.47692
 O175 O 0.62828 0.80876 0.49884
 H176 H 0.86229 0.82578 0.39333
 H177 H 0.80329 0.63854 0.42995
 C178 C 0.70253 0.13971 0.50214
 C179 C 0.78803 0.20739 0.50670
 C180 C 0.74584 0.30084 0.48982
 C181 C 0.63491 0.28920 0.47973
 O182 O 0.60764 0.18726 0.48386
 H183 H 0.87347 0.19039 0.51584
 H184 H 0.79532 0.36878 0.49226
 C185 C 0.35793 0.89523 0.51064
 C186 C 0.43580 0.90240 0.58968
 C187 C 0.46376 0.80252 0.61092
 C188 C 0.40987 0.73928 0.53625
 O189 O 0.34116 0.79641 0.47779
 H190 H 0.45992 0.97101 0.63600
 H191 H 0.52774 0.78231 0.66626
 C192 C 0.31350 0.12594 0.54429
 C193 C 0.30634 0.16512 0.64251
 C194 C 0.32742 0.26776 0.63544
 C195 C 0.36134 0.28588 0.53555
 O196 O 0.34990 0.19805 0.47713
 H197 H 0.28949 0.12226 0.71182
 H198 H 0.32450 0.32231 0.69919
   
