data_POSCAR
  _audit_creation_date              2014-09-24
  _audit_creation_method            'ToBaCCo'
  _symmetry_space_group_name_H-M    'P1'
  _symmetry_Int_Tables_number       1
  _symmetry_cell_setting            triclinic
  loop_
  _symmetry_equiv_pos_as_xyz
 x,y,z
_cell_length_a 33.3086
_cell_length_b 33.4217
_cell_length_c 33.3086
_cell_angle_alpha 90.000000
_cell_angle_beta 90.000000
_cell_angle_gamma 90.000000
loop_
  _atom_site_label
  _atom_site_type_symbol
  _atom_site_fract_x
  _atom_site_fract_y
  _atom_site_fract_z
Zn1 Zn 0.78154 0.71799 0.78153
 Zn2 Zn 0.78154 0.78200 0.71846
 Zn3 Zn 0.71847 0.71799 0.71846
 Zn4 Zn 0.71847 0.78200 0.78153
 O5 O 0.75001 0.75000 0.75000
 O6 O 0.83406 0.72597 0.77295
 O7 O 0.77296 0.77403 0.66594
 O8 O 0.72654 0.66565 0.72653
 O9 O 0.83406 0.77403 0.72705
 O10 O 0.77347 0.66565 0.77345
 O11 O 0.72705 0.72597 0.66594
 O12 O 0.66595 0.77402 0.77295
 O13 O 0.77347 0.83434 0.72654
 O14 O 0.66595 0.72597 0.72704
 O15 O 0.72655 0.83434 0.77346
 O16 O 0.72705 0.77402 0.83405
 O17 O 0.77296 0.72597 0.83405
 C18 C 0.85261 0.75000 0.75000
 C19 C 0.75001 0.75000 0.64739
 C20 C 0.75001 0.64708 0.74999
 C21 C 0.64740 0.75000 0.75000
 C22 C 0.75001 0.85291 0.75000
 C23 C 0.75000 0.74999 0.85260
 Zn24 Zn 0.21847 0.71800 0.71846
 Zn25 Zn 0.21847 0.78200 0.78153
 Zn26 Zn 0.28154 0.71799 0.78153
 Zn27 Zn 0.28154 0.78200 0.71846
 O28 O 0.25001 0.75000 0.75000
 O29 O 0.16595 0.72597 0.72705
 O30 O 0.22705 0.77402 0.83405
 O31 O 0.27347 0.66565 0.77345
 O32 O 0.16595 0.77402 0.77295
 O33 O 0.22655 0.66565 0.72653
 O34 O 0.27296 0.72596 0.83405
 O35 O 0.33406 0.77403 0.72705
 O36 O 0.22655 0.83434 0.77346
 O37 O 0.33406 0.72597 0.77295
 O38 O 0.27347 0.83434 0.72654
 O39 O 0.27295 0.77403 0.66594
 O40 O 0.22705 0.72597 0.66594
 C41 C 0.14740 0.75000 0.75000
 C42 C 0.25000 0.74999 0.85260
 C43 C 0.25001 0.64708 0.74999
 C44 C 0.35261 0.75000 0.75000
 C45 C 0.25001 0.85291 0.75000
 C46 C 0.25000 0.75000 0.64739
 Zn47 Zn 0.71847 0.21799 0.78153
 Zn48 Zn 0.78154 0.21799 0.71846
 Zn49 Zn 0.71847 0.28200 0.71846
 Zn50 Zn 0.78154 0.28200 0.78153
 O51 O 0.75001 0.25000 0.75000
 O52 O 0.72654 0.16565 0.77346
 O53 O 0.77296 0.22597 0.66594
 O54 O 0.66595 0.27402 0.72705
 O55 O 0.77347 0.16565 0.72654
 O56 O 0.66595 0.22597 0.77295
 O57 O 0.72705 0.27402 0.66594
 O58 O 0.77347 0.33434 0.77345
 O59 O 0.83406 0.22597 0.72705
 O60 O 0.72655 0.33434 0.72653
 O61 O 0.83406 0.27403 0.77295
 O62 O 0.77295 0.27403 0.83405
 O63 O 0.72705 0.22597 0.83405
 C64 C 0.75001 0.14708 0.75000
 C65 C 0.75000 0.24999 0.64739
 C66 C 0.64740 0.25000 0.75000
 C67 C 0.75001 0.35291 0.74999
 C68 C 0.85261 0.25000 0.75000
 C69 C 0.75000 0.25000 0.85260
 Zn70 Zn 0.28154 0.21799 0.71846
 Zn71 Zn 0.21847 0.21800 0.78153
 Zn72 Zn 0.28154 0.28200 0.78153
 Zn73 Zn 0.21847 0.28200 0.71846
 O74 O 0.25001 0.25000 0.75000
 O75 O 0.27347 0.16565 0.72654
 O76 O 0.22705 0.22597 0.83405
 O77 O 0.33406 0.27403 0.77295
 O78 O 0.22655 0.16565 0.77346
 O79 O 0.33406 0.22597 0.72705
 O80 O 0.27295 0.27403 0.83405
 O81 O 0.22655 0.33434 0.72653
 O82 O 0.16595 0.22597 0.77295
 O83 O 0.27347 0.33434 0.77345
 O84 O 0.16595 0.27402 0.72705
 O85 O 0.22705 0.27402 0.66594
 O86 O 0.27295 0.22596 0.66594
 C87 C 0.25001 0.14708 0.75000
 C88 C 0.25000 0.25000 0.85260
 C89 C 0.35261 0.25000 0.75000
 C90 C 0.25001 0.35291 0.74999
 C91 C 0.14740 0.25000 0.75000
 C92 C 0.25000 0.24999 0.64739
 Zn93 Zn 0.71846 0.71799 0.21846
 Zn94 Zn 0.78153 0.78199 0.21846
 Zn95 Zn 0.71846 0.78199 0.28153
 Zn96 Zn 0.78153 0.71799 0.28153
 O97 O 0.75000 0.74999 0.25000
 O98 O 0.72705 0.72596 0.16594
 O99 O 0.77346 0.83433 0.22653
 O100 O 0.66594 0.77402 0.27295
 O101 O 0.77295 0.77402 0.16594
 O102 O 0.66594 0.72596 0.22705
 O103 O 0.72653 0.83433 0.27345
 O104 O 0.77295 0.72596 0.33405
 O105 O 0.83405 0.77402 0.22705
 O106 O 0.72705 0.77402 0.33405
 O107 O 0.83405 0.72596 0.27295
 O108 O 0.77346 0.66565 0.27346
 O109 O 0.72654 0.66565 0.22654
 C110 C 0.75000 0.74999 0.14739
 C111 C 0.74999 0.85290 0.24999
 C112 C 0.64739 0.74999 0.25000
 C113 C 0.75000 0.74999 0.35260
 C114 C 0.85260 0.74999 0.25000
 C115 C 0.75000 0.64708 0.25000
 Zn116 Zn 0.28153 0.78199 0.21846
 Zn117 Zn 0.21846 0.71799 0.21846
 Zn118 Zn 0.28153 0.71799 0.28153
 Zn119 Zn 0.21846 0.78199 0.28153
 O120 O 0.25000 0.74999 0.25000
 O121 O 0.27295 0.77402 0.16594
 O122 O 0.22653 0.66565 0.22654
 O123 O 0.33405 0.72596 0.27295
 O124 O 0.22705 0.72596 0.16594
 O125 O 0.33405 0.77402 0.22704
 O126 O 0.27345 0.66565 0.27346
 O127 O 0.22705 0.77402 0.33405
 O128 O 0.16594 0.72596 0.22705
 O129 O 0.27295 0.72597 0.33405
 O130 O 0.16594 0.77402 0.27295
 O131 O 0.22653 0.83433 0.27345
 O132 O 0.27346 0.83433 0.22653
 C133 C 0.25000 0.74999 0.14739
 C134 C 0.24999 0.64708 0.25000
 C135 C 0.35260 0.74999 0.25000
 C136 C 0.25000 0.75000 0.35260
 C137 C 0.14739 0.74999 0.25000
 C138 C 0.24999 0.85290 0.24999
 Zn139 Zn 0.71846 0.28199 0.21846
 Zn140 Zn 0.78153 0.21799 0.21846
 Zn141 Zn 0.78153 0.28199 0.28153
 Zn142 Zn 0.71846 0.21799 0.28153
 O143 O 0.75000 0.24999 0.25000
 O144 O 0.72705 0.27402 0.16594
 O145 O 0.83405 0.22596 0.22705
 O146 O 0.77346 0.33433 0.27346
 O147 O 0.77295 0.22596 0.16594
 O148 O 0.72653 0.33433 0.22654
 O149 O 0.83405 0.27402 0.27295
 O150 O 0.72705 0.22596 0.33405
 O151 O 0.77346 0.16565 0.22653
 O152 O 0.77295 0.27402 0.33405
 O153 O 0.72653 0.16565 0.27345
 O154 O 0.66594 0.22596 0.27295
 O155 O 0.66594 0.27402 0.22705
 C156 C 0.75000 0.24999 0.14739
 C157 C 0.85260 0.24999 0.25000
 C158 C 0.74999 0.35290 0.25000
 C159 C 0.75000 0.24999 0.35260
 C160 C 0.74999 0.14708 0.24999
 C161 C 0.64739 0.24999 0.25000
 Zn162 Zn 0.21846 0.28199 0.21846
 Zn163 Zn 0.28153 0.21799 0.21846
 Zn164 Zn 0.28153 0.28199 0.28153
 Zn165 Zn 0.21846 0.21799 0.28153
 O166 O 0.25000 0.24999 0.25000
 O167 O 0.22705 0.27402 0.16594
 O168 O 0.33405 0.22596 0.22705
 O169 O 0.27346 0.33433 0.27346
 O170 O 0.27295 0.22597 0.16594
 O171 O 0.22653 0.33433 0.22654
 O172 O 0.33405 0.27402 0.27295
 O173 O 0.22705 0.22596 0.33405
 O174 O 0.27346 0.16565 0.22653
 O175 O 0.27295 0.27402 0.33405
 O176 O 0.22653 0.16565 0.27345
 O177 O 0.16594 0.22596 0.27295
 O178 O 0.16594 0.27402 0.22705
 C179 C 0.25000 0.25000 0.14739
 C180 C 0.35260 0.24999 0.25000
 C181 C 0.24999 0.35290 0.25000
 C182 C 0.25000 0.24999 0.35260
 C183 C 0.24999 0.14708 0.24999
 C184 C 0.14739 0.24999 0.25000
 C185 C -0.02200 0.75000 0.75000
 N186 N -0.04269 0.71611 0.75875
 N187 N -0.08270 0.71620 0.75908
 C188 C -0.10339 0.75000 0.75000
 N189 N -0.08270 0.78379 0.74091
 N190 N -0.04269 0.78388 0.74124
 C191 C 0.02201 0.75000 0.75000
 N192 N 0.04271 0.78388 0.75875
 N193 N 0.08271 0.78379 0.75908
 C194 C 0.10341 0.75000 0.75000
 N195 N 0.08271 0.71620 0.74091
 N196 N 0.04271 0.71611 0.74124
 C197 C 0.75001 -0.02198 0.75000
 N198 N 0.77482 -0.04264 0.72518
 N199 N 0.77482 -0.08250 0.72518
 C200 C 0.75001 -0.10316 0.75000
 N201 N 0.72519 -0.08250 0.77482
 N202 N 0.72519 -0.04264 0.77482
 C203 C 0.75001 0.02197 0.75000
 N204 N 0.72519 0.04263 0.77482
 N205 N 0.72519 0.08250 0.77482
 C206 C 0.75001 0.10316 0.75000
 N207 N 0.77482 0.08250 0.72518
 N208 N 0.77482 0.04263 0.72518
 C209 C 0.75000 0.74999 -0.02201
 N210 N 0.74125 0.78387 -0.04270
 N211 N 0.74092 0.78379 -0.08271
 C212 C 0.75000 0.74999 -0.10340
 N213 N 0.75909 0.71620 -0.08271
 N214 N 0.75875 0.71611 -0.04270
 C215 C 0.75000 0.74999 0.02200
 N216 N 0.74125 0.71611 0.04270
 N217 N 0.74091 0.71619 0.08270
 C218 C 0.75000 0.74999 0.10340
 N219 N 0.75908 0.78379 0.08270
 N220 N 0.75875 0.78387 0.04270
 C221 C 0.52201 0.75000 0.74999
 N222 N 0.54271 0.78388 0.75875
 N223 N 0.58271 0.78379 0.75908
 C224 C 0.60341 0.75000 0.74999
 N225 N 0.58271 0.71620 0.74091
 N226 N 0.54271 0.71611 0.74124
 C227 C 0.47800 0.75000 0.75000
 N228 N 0.45731 0.71611 0.75875
 N229 N 0.41730 0.71620 0.75908
 C230 C 0.39661 0.75000 0.75000
 N231 N 0.41730 0.78379 0.74091
 N232 N 0.45731 0.78388 0.74124
 C233 C 0.25001 -0.02198 0.75000
 N234 N 0.27482 -0.04264 0.72519
 N235 N 0.27483 -0.08250 0.72518
 C236 C 0.25001 -0.10316 0.75000
 N237 N 0.22519 -0.08250 0.77482
 N238 N 0.22519 -0.04264 0.77482
 C239 C 0.25001 0.02197 0.75000
 N240 N 0.22519 0.04263 0.77482
 N241 N 0.22519 0.08250 0.77482
 C242 C 0.25001 0.10316 0.75000
 N243 N 0.27483 0.08250 0.72518
 N244 N 0.27482 0.04263 0.72519
 C245 C 0.25000 0.74999 -0.02201
 N246 N 0.24125 0.78387 -0.04270
 N247 N 0.24092 0.78379 -0.08271
 C248 C 0.25000 0.74999 -0.10340
 N249 N 0.25909 0.71619 -0.08271
 N250 N 0.25875 0.71611 -0.04270
 C251 C 0.25000 0.74999 0.02200
 N252 N 0.24124 0.71611 0.04270
 N253 N 0.24091 0.71619 0.08270
 C254 C 0.25000 0.74999 0.10340
 N255 N 0.25908 0.78378 0.08270
 N256 N 0.25875 0.78387 0.04270
 C257 C -0.02200 0.25000 0.75000
 N258 N -0.04270 0.21611 0.74124
 N259 N -0.08270 0.21620 0.74091
 C260 C -0.10340 0.25000 0.75000
 N261 N -0.08270 0.28379 0.75908
 N262 N -0.04270 0.28388 0.75875
 C263 C 0.02201 0.25000 0.75000
 N264 N 0.04271 0.28388 0.74124
 N265 N 0.08271 0.28379 0.74091
 C266 C 0.10341 0.25000 0.75000
 N267 N 0.08271 0.21620 0.75908
 N268 N 0.04270 0.21611 0.75875
 C269 C 0.75001 0.52197 0.74999
 N270 N 0.72519 0.54263 0.72518
 N271 N 0.72519 0.58250 0.72517
 C272 C 0.75001 0.60316 0.74999
 N273 N 0.77482 0.58250 0.77481
 N274 N 0.77482 0.54263 0.77481
 C275 C 0.75001 0.47802 0.74999
 N276 N 0.77482 0.45736 0.77481
 N277 N 0.77482 0.41750 0.77481
 C278 C 0.75001 0.39684 0.74999
 N279 N 0.72519 0.41750 0.72517
 N280 N 0.72519 0.45736 0.72518
 C281 C 0.75000 0.25000 -0.02201
 N282 N 0.75875 0.28388 -0.04270
 N283 N 0.75909 0.28379 -0.08271
 C284 C 0.75000 0.25000 -0.10340
 N285 N 0.74092 0.21620 -0.08271
 N286 N 0.74125 0.21612 -0.04270
 C287 C 0.75000 0.25000 0.02200
 N288 N 0.75875 0.21611 0.04270
 N289 N 0.75908 0.21620 0.08270
 C290 C 0.75000 0.24999 0.10340
 N291 N 0.74091 0.28379 0.08270
 N292 N 0.74125 0.28388 0.04270
 C293 C 0.52201 0.25000 0.75000
 N294 N 0.54271 0.28388 0.74124
 N295 N 0.58271 0.28379 0.74091
 C296 C 0.60341 0.25000 0.75000
 N297 N 0.58271 0.21620 0.75908
 N298 N 0.54270 0.21611 0.75875
 C299 C 0.47800 0.25000 0.75000
 N300 N 0.45730 0.21611 0.74124
 N301 N 0.41730 0.21620 0.74091
 C302 C 0.39660 0.25000 0.75000
 N303 N 0.41730 0.28379 0.75908
 N304 N 0.45730 0.28388 0.75875
 C305 C 0.25001 0.52197 0.74999
 N306 N 0.22519 0.54263 0.72517
 N307 N 0.22519 0.58250 0.72517
 C308 C 0.25001 0.60316 0.74999
 N309 N 0.27483 0.58250 0.77481
 N310 N 0.27482 0.54263 0.77481
 C311 C 0.25001 0.47802 0.74999
 N312 N 0.27482 0.45736 0.77481
 N313 N 0.27483 0.41750 0.77481
 C314 C 0.25001 0.39684 0.74999
 N315 N 0.22519 0.41750 0.72517
 N316 N 0.22519 0.45736 0.72517
 C317 C 0.25000 0.25000 -0.02201
 N318 N 0.25875 0.28388 -0.04270
 N319 N 0.25909 0.28380 -0.08271
 C320 C 0.25000 0.25000 -0.10340
 N321 N 0.24092 0.21620 -0.08271
 N322 N 0.24125 0.21612 -0.04270
 C323 C 0.25000 0.25000 0.02200
 N324 N 0.25875 0.21612 0.04270
 N325 N 0.25908 0.21620 0.08270
 C326 C 0.25000 0.25000 0.10340
 N327 N 0.24091 0.28379 0.08270
 N328 N 0.24125 0.28388 0.04270
 C329 C -0.02201 0.74999 0.25000
 N330 N -0.04270 0.71611 0.25876
 N331 N -0.08271 0.71620 0.25909
 C332 C -0.10340 0.74999 0.25000
 N333 N -0.08271 0.78379 0.24090
 N334 N -0.04270 0.78387 0.24124
 C335 C 0.02200 0.74999 0.25000
 N336 N 0.04270 0.78388 0.25874
 N337 N 0.08270 0.78379 0.25908
 C338 C 0.10340 0.74999 0.25000
 N339 N 0.08270 0.71619 0.24091
 N340 N 0.04270 0.71611 0.24125
 C341 C 0.74999 -0.02198 0.24999
 N342 N 0.77481 -0.04264 0.22518
 N343 N 0.77481 -0.08251 0.22517
 C344 C 0.74999 -0.10317 0.24999
 N345 N 0.72518 -0.08251 0.27481
 N346 N 0.72518 -0.04264 0.27481
 C347 C 0.74999 0.02196 0.24999
 N348 N 0.72518 0.04263 0.27481
 N349 N 0.72518 0.08249 0.27481
 C350 C 0.74999 0.10315 0.24999
 N351 N 0.77481 0.08249 0.22517
 N352 N 0.77481 0.04263 0.22518
 C353 C 0.75000 0.75000 0.52200
 N354 N 0.75876 0.78388 0.54270
 N355 N 0.75909 0.78379 0.58270
 C356 C 0.75000 0.75000 0.60340
 N357 N 0.74092 0.71620 0.58270
 N358 N 0.74125 0.71612 0.54270
 C359 C 0.75000 0.75000 0.47799
 N360 N 0.75875 0.71611 0.45730
 N361 N 0.75909 0.71620 0.41729
 C362 C 0.75000 0.75000 0.39660
 N363 N 0.74091 0.78379 0.41729
 N364 N 0.74125 0.78388 0.45730
 C365 C 0.52200 0.74999 0.25000
 N366 N 0.54270 0.78387 0.25875
 N367 N 0.58270 0.78379 0.25908
 C368 C 0.60340 0.74999 0.25000
 N369 N 0.58270 0.71620 0.24091
 N370 N 0.54270 0.71611 0.24124
 C371 C 0.47799 0.74999 0.25000
 N372 N 0.45730 0.71611 0.25875
 N373 N 0.41729 0.71619 0.25908
 C374 C 0.39660 0.74999 0.25000
 N375 N 0.41729 0.78379 0.24091
 N376 N 0.45730 0.78387 0.24124
 C377 C 0.24999 -0.02198 0.24999
 N378 N 0.27481 -0.04264 0.22517
 N379 N 0.27481 -0.08251 0.22517
 C380 C 0.24999 -0.10317 0.24999
 N381 N 0.22518 -0.08251 0.27481
 N382 N 0.22518 -0.04264 0.27481
 C383 C 0.24999 0.02196 0.24999
 N384 N 0.22518 0.04263 0.27481
 N385 N 0.22518 0.08249 0.27481
 C386 C 0.24999 0.10315 0.24999
 N387 N 0.27481 0.08249 0.22517
 N388 N 0.27481 0.04263 0.22517
 C389 C 0.25000 0.75000 0.52200
 N390 N 0.25875 0.78388 0.54270
 N391 N 0.25909 0.78380 0.58270
 C392 C 0.25000 0.75000 0.60340
 N393 N 0.24092 0.71620 0.58270
 N394 N 0.24125 0.71612 0.54270
 C395 C 0.25000 0.75000 0.47799
 N396 N 0.25875 0.71612 0.45730
 N397 N 0.25909 0.71620 0.41729
 C398 C 0.25000 0.75000 0.39660
 N399 N 0.24091 0.78379 0.41729
 N400 N 0.24125 0.78388 0.45729
 C401 C -0.02201 0.24999 0.25000
 N402 N -0.04270 0.21611 0.24124
 N403 N -0.08271 0.21620 0.24090
 C404 C -0.10340 0.24999 0.25000
 N405 N -0.08271 0.28379 0.25909
 N406 N -0.04270 0.28387 0.25876
 C407 C 0.02200 0.24999 0.25000
 N408 N 0.04270 0.28387 0.24125
 N409 N 0.08270 0.28379 0.24091
 C410 C 0.10340 0.24999 0.25000
 N411 N 0.08270 0.21619 0.25908
 N412 N 0.04270 0.21611 0.25875
 C413 C 0.74999 0.52196 0.25000
 N414 N 0.72518 0.54263 0.22518
 N415 N 0.72518 0.58249 0.22518
 C416 C 0.74999 0.60315 0.25000
 N417 N 0.77481 0.58249 0.27482
 N418 N 0.77481 0.54263 0.27482
 C419 C 0.74999 0.47802 0.25000
 N420 N 0.77481 0.45736 0.27482
 N421 N 0.77481 0.41749 0.27482
 C422 C 0.74999 0.39683 0.25000
 N423 N 0.72518 0.41749 0.22518
 N424 N 0.72518 0.45736 0.22518
 C425 C 0.75000 0.24999 0.52200
 N426 N 0.74125 0.28387 0.54270
 N427 N 0.74092 0.28379 0.58270
 C428 C 0.75000 0.24999 0.60340
 N429 N 0.75909 0.21620 0.58270
 N430 N 0.75876 0.21611 0.54270
 C431 C 0.75000 0.24999 0.47799
 N432 N 0.74125 0.21611 0.45730
 N433 N 0.74091 0.21619 0.41729
 C434 C 0.75000 0.24999 0.39660
 N435 N 0.75908 0.28379 0.41729
 N436 N 0.75875 0.28387 0.45730
 C437 C 0.52200 0.24999 0.25000
 N438 N 0.54270 0.28387 0.24124
 N439 N 0.58270 0.28379 0.24091
 C440 C 0.60340 0.24999 0.25000
 N441 N 0.58270 0.21620 0.25908
 N442 N 0.54270 0.21611 0.25875
 C443 C 0.47799 0.24999 0.25000
 N444 N 0.45730 0.21611 0.24124
 N445 N 0.41729 0.21620 0.24091
 C446 C 0.39660 0.24999 0.25000
 N447 N 0.41729 0.28379 0.25908
 N448 N 0.45730 0.28387 0.25875
 C449 C 0.24999 0.52196 0.25000
 N450 N 0.22518 0.54263 0.22519
 N451 N 0.22518 0.58249 0.22518
 C452 C 0.24999 0.60315 0.25000
 N453 N 0.27481 0.58249 0.27482
 N454 N 0.27481 0.54263 0.27482
 C455 C 0.24999 0.47802 0.25000
 N456 N 0.27481 0.45736 0.27482
 N457 N 0.27481 0.41749 0.27482
 C458 C 0.24999 0.39683 0.25000
 N459 N 0.22518 0.41749 0.22518
 N460 N 0.22518 0.45736 0.22519
 C461 C 0.25000 0.24999 0.52200
 N462 N 0.24125 0.28387 0.54270
 N463 N 0.24092 0.28379 0.58270
 C464 C 0.25000 0.24999 0.60340
 N465 N 0.25909 0.21619 0.58270
 N466 N 0.25875 0.21611 0.54270
 C467 C 0.25000 0.24999 0.47799
 N468 N 0.24125 0.21611 0.45730
 N469 N 0.24091 0.21619 0.41729
 C470 C 0.25000 0.24999 0.39660
 N471 N 0.25908 0.28378 0.41729
 N472 N 0.25875 0.28387 0.45730
   
