data_POSCAR
  _audit_creation_date              2014-09-24
  _audit_creation_method            'ToBaCCo'
  _symmetry_space_group_name_H-M    'P1'
  _symmetry_Int_Tables_number       1
  _symmetry_cell_setting            triclinic
  loop_
  _symmetry_equiv_pos_as_xyz
 x,y,z
_cell_length_a 36.3955
_cell_length_b 35.9615
_cell_length_c 36.4130
_cell_angle_alpha 89.922300
_cell_angle_beta 89.988000
_cell_angle_gamma 90.042000
loop_
  _atom_site_label
  _atom_site_type_symbol
  _atom_site_fract_x
  _atom_site_fract_y
  _atom_site_fract_z
N1 N 0.58261 0.68379 0.60910
 N2 N 0.56822 0.66854 0.63867
 C3 C 0.53838 0.68820 0.64879
 C4 C 0.53410 0.71707 0.62424
 C5 C 0.56246 0.71362 0.59941
 H6 H 0.52105 0.68208 0.67216
 H7 H 0.56799 0.73145 0.57611
 Cu8 Cu 0.58997 0.62453 0.66089
 Cu9 Cu 0.62632 0.66387 0.58538
 Cu10 Cu 0.66552 0.58539 0.62461
 N11 N 0.61218 0.58053 0.68267
 N12 N 0.64177 0.56536 0.66830
 C13 C 0.65146 0.53549 0.68844
 C14 C 0.62658 0.53199 0.71675
 C15 C 0.60201 0.56081 0.71250
 H16 H 0.67479 0.51773 0.68291
 H17 H 0.57860 0.56687 0.72979
 N18 N 0.68550 0.60974 0.58037
 N19 N 0.67057 0.63964 0.56543
 C20 C 0.69040 0.64956 0.53573
 C21 C 0.71894 0.62474 0.53201
 C22 C 0.71521 0.59988 0.56055
 H23 H 0.68459 0.67304 0.51807
 H24 H 0.73285 0.57641 0.56636
 H25 H 0.61901 0.60952 0.60241
 H26 H 0.64850 0.63971 0.63189
 N27 N 0.91830 0.31527 0.10888
 N28 N 0.93228 0.32998 0.13886
 C29 C 0.96206 0.31022 0.14904
 C30 C 0.96666 0.28185 0.12407
 C31 C 0.93862 0.28565 0.09895
 H32 H 0.97909 0.31598 0.17270
 H33 H 0.93340 0.26826 0.07530
 Cu34 Cu 0.91025 0.37352 0.16160
 Cu35 Cu 0.87486 0.33555 0.08498
 Cu36 Cu 0.83587 0.41403 0.12407
 N37 N 0.88853 0.41805 0.18273
 N38 N 0.85944 0.43375 0.16791
 C39 C 0.85009 0.46387 0.18776
 C40 C 0.87466 0.46704 0.21636
 C41 C 0.89870 0.43771 0.21254
 H42 H 0.82719 0.48208 0.18186
 H43 H 0.92177 0.43129 0.23014
 N44 N 0.81601 0.39000 0.07971
 N45 N 0.83087 0.36009 0.06481
 C46 C 0.81111 0.35033 0.03504
 C47 C 0.78269 0.37528 0.03124
 C48 C 0.78641 0.40004 0.05981
 H49 H 0.81685 0.32685 0.01744
 H50 H 0.76882 0.42353 0.06560
 H51 H 0.88262 0.38960 0.10270
 H52 H 0.85210 0.35945 0.13128
 N53 N 0.41781 0.18452 -0.10916
 N54 N 0.43222 0.16926 -0.13866
 C55 C 0.46210 0.18891 -0.14881
 C56 C 0.46638 0.21779 -0.12434
 C57 C 0.43799 0.21436 -0.09954
 H58 H 0.47944 0.18280 -0.17214
 H59 H 0.43245 0.23220 -0.07630
 Cu60 Cu 0.41042 0.12526 -0.16080
 Cu61 Cu 0.37402 0.16463 -0.08546
 Cu62 Cu 0.33473 0.08616 -0.12454
 N63 N 0.38817 0.08126 -0.18248
 N64 N 0.35853 0.06611 -0.16813
 C65 C 0.34885 0.03625 -0.18820
 C66 C 0.37376 0.03268 -0.21647
 C67 C 0.39835 0.06151 -0.21222
 H68 H 0.32550 0.01848 -0.18269
 H69 H 0.42180 0.06753 -0.22948
 N70 N 0.31472 0.11053 -0.08041
 N71 N 0.32968 0.14041 -0.06552
 C72 C 0.30982 0.15035 -0.03588
 C73 C 0.28123 0.12554 -0.03215
 C74 C 0.28496 0.10068 -0.06062
 H75 H 0.31565 0.17381 -0.01827
 H76 H 0.26729 0.07722 -0.06639
 H77 H 0.38125 0.11027 -0.10232
 H78 H 0.35187 0.14047 -0.13194
 N79 N 0.08117 0.81559 0.39141
 N80 N 0.06634 0.83127 0.36229
 C81 C 0.03656 0.81151 0.35209
 C82 C 0.03282 0.78216 0.37617
 C83 C 0.06138 0.78537 0.40078
 H84 H 0.01896 0.81791 0.32900
 H85 H 0.06731 0.76717 0.42370
 Cu86 Cu 0.08742 0.87591 0.34057
 Cu87 Cu 0.12497 0.83547 0.41498
 Cu88 Cu 0.16398 0.91416 0.37597
 N89 N 0.11011 0.91957 0.31852
 N90 N 0.14006 0.93438 0.33252
 C91 C 0.14994 0.96405 0.31217
 C92 C 0.12486 0.96782 0.28409
 C93 C 0.09995 0.93932 0.28873
 H94 H 0.17356 0.98154 0.31737
 H95 H 0.07632 0.93351 0.27168
 N96 N 0.18415 0.88965 0.41998
 N97 N 0.16929 0.85966 0.43485
 C98 C 0.18921 0.84965 0.46445
 C99 C 0.21775 0.87451 0.46816
 C100 C 0.21392 0.89949 0.43974
 H101 H 0.18346 0.82611 0.48204
 H102 H 0.23150 0.92304 0.43398
 H103 H 0.11767 0.89005 0.39870
 H104 H 0.14636 0.86005 0.36825
 C105 C 0.09645 0.15295 0.12494
 C106 C 0.12367 0.15293 0.09771
 C107 C 0.15107 0.12558 0.09791
 C108 C 0.15125 0.09825 0.12537
 C109 C 0.12405 0.09824 0.15261
 C110 C 0.09666 0.12560 0.15237
 H111 H 0.12352 0.17409 0.07646
 H112 H 0.17245 0.07707 0.12554
 H113 H 0.07560 0.12560 0.17345
 C114 C 0.40268 0.84733 0.62513
 C115 C 0.37544 0.84728 0.59794
 C116 C 0.34798 0.87456 0.59809
 C117 C 0.34776 0.90191 0.62546
 C118 C 0.37498 0.90199 0.65267
 C119 C 0.40244 0.87470 0.65248
 H120 H 0.37562 0.82611 0.57676
 H121 H 0.32651 0.92303 0.62560
 H122 H 0.42351 0.87475 0.67353
 C123 C 0.90360 0.65248 0.37479
 C124 C 0.87638 0.65237 0.40201
 C125 C 0.84899 0.62497 0.40186
 C126 C 0.84885 0.59766 0.37446
 C127 C 0.87605 0.59773 0.34722
 C128 C 0.90342 0.62515 0.34741
 H129 H 0.87651 0.67352 0.42322
 H130 H 0.82765 0.57644 0.37433
 H131 H 0.92448 0.62522 0.32633
 C132 C 0.59784 0.34822 -0.12571
 C133 C 0.59806 0.37557 -0.15315
 C134 C 0.62552 0.40291 -0.15344
 C135 C 0.65276 0.40287 -0.12626
 C136 C 0.65257 0.37553 -0.09880
 C137 C 0.62510 0.34821 -0.09855
 H138 H 0.57697 0.37559 -0.17418
 H139 H 0.67402 0.42402 -0.12647
 H140 H 0.62494 0.32705 -0.07730
 C141 C -0.00664 0.25544 0.12423
 C142 C 0.01702 0.23200 0.12437
 C143 C 0.04469 0.20452 0.12455
 C144 C 0.06829 0.18103 0.12471
 C145 C 0.50590 0.74498 0.62446
 C146 C 0.48224 0.76841 0.62463
 C147 C 0.45454 0.79586 0.62480
 C148 C 0.43090 0.81931 0.62494
 C149 C 1.00630 0.75551 0.37579
 C150 C 0.98279 0.73189 0.37549
 C151 C 0.95525 0.70425 0.37519
 C152 C 0.93172 0.68065 0.37499
 C153 C 0.49460 0.24573 -0.12465
 C154 C 0.51827 0.26919 -0.12490
 C155 C 0.54597 0.29667 -0.12519
 C156 C 0.56962 0.32016 -0.12543
 C157 C 0.12469 -0.00426 0.25584
 C158 C 0.12455 0.01918 0.23216
 C159 C 0.12439 0.04667 0.20446
 C160 C 0.12424 0.07016 0.18082
 C161 C 0.62634 0.50551 -0.25658
 C162 C 0.62613 0.48202 -0.23293
 C163 C 0.62591 0.45451 -0.20526
 C164 C 0.62573 0.43100 -0.18163
 C165 C 0.37404 1.00468 0.75545
 C166 C 0.37427 0.98117 0.73189
 C167 C 0.37452 0.95363 0.70432
 C168 C 0.37474 0.93009 0.68078
 C169 C 0.87507 0.49508 0.24441
 C170 C 0.87536 0.51860 0.26795
 C171 C 0.87565 0.54615 0.29552
 C172 C 0.87586 0.56966 0.31908
 C173 C 0.25330 0.12556 -0.00427
 C174 C 0.22986 0.12556 0.01912
 C175 C 0.20244 0.12556 0.04652
 C176 C 0.17902 0.12556 0.06994
 C177 C 0.74683 0.62477 0.50410
 C178 C 0.77023 0.62478 0.48068
 C179 C 0.79763 0.62483 0.45325
 C180 C 0.82104 0.62488 0.42983
 C181 C 0.75481 0.37537 0.00333
 C182 C 0.73141 0.37543 -0.02009
 C183 C 0.70399 0.37548 -0.04749
 C184 C 0.68056 0.37551 -0.07088
 C185 C 0.24569 0.87447 0.49601
 C186 C 0.26913 0.87446 0.51939
 C187 C 0.29657 0.87447 0.54676
 C188 C 0.32000 0.87450 0.57015
   
