data_POSCAR
  _audit_creation_date              2014-09-24
  _audit_creation_method            'ToBaCCo'
  _symmetry_space_group_name_H-M    'P1'
  _symmetry_Int_Tables_number       1
  _symmetry_cell_setting            triclinic
  loop_
  _symmetry_equiv_pos_as_xyz
 x,y,z
_cell_length_a 38.8744
_cell_length_b 38.8888
_cell_length_c 15.4557
_cell_angle_alpha 89.516300
_cell_angle_beta 90.219800
_cell_angle_gamma 119.395500
loop_
  _atom_site_label
  _atom_site_type_symbol
  _atom_site_fract_x
  _atom_site_fract_y
  _atom_site_fract_z
C1 C 0.28563 0.40353 0.45243
 C2 C 0.28612 0.40196 0.54114
 C3 C 0.26690 0.42169 0.57093
 N4 N 0.25290 0.43337 0.50320
 C5 C 0.26447 0.42240 0.43095
 C6 C 0.26625 0.43297 0.65798
 C7 C 0.23662 0.44180 0.68604
 C8 C 0.23895 0.46335 0.75911
 C9 C 0.20570 0.46742 0.75989
 C10 C 0.18343 0.44790 0.68772
 N11 N 0.20239 0.43201 0.64377
 C12 C 0.14694 0.44545 0.66280
 C13 C 0.12927 0.42901 0.58254
 C14 C 0.08906 0.41012 0.56519
 C15 C 0.08510 0.40568 0.47712
 C16 C 0.12298 0.42157 0.44427
 N17 N 0.14989 0.43544 0.50872
 C18 C 0.13312 0.42811 0.35606
 C19 C 0.17056 0.43593 0.32694
 C20 C 0.18674 0.45138 0.24657
 C21 C 0.22308 0.45341 0.24426
 C22 C 0.22804 0.43937 0.32355
 N23 N 0.19566 0.42825 0.37279
 C24 C 0.25987 0.43345 0.34659
 H25 H 0.29924 0.39208 0.40883
 H26 H 0.30020 0.38890 0.57935
 H27 H 0.18940 0.41273 0.43111
 H28 H 0.26287 0.47642 0.80533
 H29 H 0.19958 0.48394 0.80744
 H30 H 0.06527 0.40187 0.61110
 H31 H 0.05771 0.39326 0.44115
 H32 H 0.24299 0.46335 0.18955
 H33 H 0.19176 0.41392 0.58972
 H34 H 0.17381 0.46020 0.19485
 C35 C 0.57471 -0.33493 0.46934
 C36 C 0.56930 -0.33580 0.55694
 C37 C 0.55599 -0.30924 0.57461
 N38 N 0.55218 -0.29328 0.49934
 C39 C 0.56285 -0.30945 0.43508
 C40 C 0.54061 -0.30463 0.65449
 C41 C 0.53123 -0.27399 0.66482
 C42 C 0.50785 -0.27170 0.72994
 C43 C 0.51079 -0.23512 0.72307
 C44 C 0.53602 -0.21583 0.65444
 N45 N 0.54845 -0.23962 0.61967
 C46 C 0.54982 -0.17606 0.63059
 C47 C 0.56892 -0.16034 0.55080
 C48 C 0.58768 -0.12085 0.52726
 C49 C 0.59748 -0.11911 0.44134
 C50 C 0.58333 -0.15772 0.41451
 N51 N 0.56636 -0.18274 0.48189
 C52 C 0.58055 -0.16997 0.32732
 C53 C 0.57088 -0.20892 0.30493
 C54 C 0.55700 -0.22574 0.22463
 C55 C 0.54988 -0.26399 0.22976
 C56 C 0.56011 -0.26955 0.31292
 N57 N 0.57326 -0.23557 0.35797
 C58 C 0.55692 -0.30526 0.34587
 H59 H 0.58431 -0.35271 0.43428
 H60 H 0.57324 -0.35555 0.59986
 H61 H 0.58534 -0.23002 0.41993
 H62 H 0.49123 -0.29333 0.77938
 H63 H 0.49685 -0.22370 0.76580
 H64 H 0.59300 -0.09593 0.56689
 H65 H 0.61182 -0.09255 0.40216
 H66 H 0.53767 -0.28524 0.17811
 H67 H 0.57127 -0.23111 0.57502
 H68 H 0.55135 -0.21233 0.16869
 C69 C 1.15747 0.68063 0.46961
 C70 C 1.15904 0.68075 0.55823
 C71 C 1.18669 0.71879 0.58280
 N72 N 1.20096 0.74196 0.51123
 C73 C 1.18346 0.71871 0.44212
 C74 C 1.19459 0.73339 0.66914
 C75 C 1.22045 0.77397 0.68505
 C76 C 1.22103 0.79435 0.75906
 C77 C 1.25464 0.83064 0.75489
 C78 C 1.27408 0.83120 0.67954
 N79 N 1.25260 0.79713 0.63627
 C80 C 1.31243 0.86068 0.65515
 C81 C 1.32407 0.86672 0.56732
 C82 C 1.36285 0.88643 0.53840
 C83 C 1.36134 0.88608 0.45013
 C84 C 1.32171 0.86672 0.42756
 N85 N 1.29885 0.85430 0.49942
 C86 C 1.30700 0.86051 0.34172
 C87 C 1.26966 0.82801 0.32159
 C88 C 1.24951 0.82330 0.24443
 C89 C 1.21609 0.78693 0.24843
 C90 C 1.21664 0.77032 0.32786
 N91 N 1.24927 0.79564 0.37234
 C92 C 1.18843 0.73180 0.35496
 H93 H 1.13833 0.65551 0.43025
 H94 H 1.14007 0.65583 0.59874
 H95 H 1.25925 0.78943 0.42979
 H96 H 1.20003 0.78431 0.81170
 H97 H 1.26422 0.85358 0.80304
 H98 H 1.38962 0.89858 0.57655
 H99 H 1.38671 0.89768 0.40765
 H100 H 1.19393 0.77415 0.19827
 H101 H 1.26264 0.78814 0.58327
 H102 H 1.25793 0.84387 0.19067
 C103 C 0.63531 0.49717 0.49383
 C104 C 0.64030 0.50095 0.58159
 C105 C 0.68055 0.52401 0.59620
 N106 N 0.70041 0.53371 0.52044
 C107 C 0.67269 0.51762 0.45782
 C108 C 0.69855 0.53736 0.67800
 C109 C 0.73764 0.54518 0.69319
 C110 C 0.76113 0.56670 0.76191
 C111 C 0.79608 0.56609 0.75470
 C112 C 0.79279 0.54352 0.68269
 N113 N 0.75726 0.53147 0.64473
 C114 C 0.82163 0.53361 0.65453
 C115 C 0.82334 0.52338 0.56725
 C116 C 0.84549 0.50666 0.53736
 C117 C 0.84033 0.50301 0.44958
 C118 C 0.81487 0.51712 0.42837
 N119 N 0.80466 0.52978 0.50018
 C120 C 0.80324 0.52001 0.34316
 C121 C 0.77300 0.52888 0.32427
 C122 C 0.76483 0.53843 0.24298
 C123 C 0.73002 0.53942 0.25027
 C124 C 0.71787 0.53009 0.33564
 N125 N 0.74442 0.52412 0.38028
 C126 C 0.68093 0.52235 0.36836
 H127 H 0.60742 0.48054 0.46060
 H128 H 0.61694 0.48778 0.62923
 H129 H 0.74022 0.51174 0.44188
 H130 H 0.75411 0.58181 0.81138
 H131 H 0.82120 0.58104 0.79736
 H132 H 0.86320 0.49741 0.57453
 H133 H 0.85370 0.49116 0.40638
 H134 H 0.71471 0.54491 0.19797
 H135 H 0.74549 0.51172 0.59362
 H136 H 0.78150 0.54297 0.18401
 C137 C 0.44272 0.32115 0.48801
 C138 C 0.43505 0.31358 0.40168
 C139 C 0.42042 0.27345 0.39172
 N140 N 0.41805 0.25601 0.46931
 C141 C 0.43117 0.28513 0.52878
 C142 C 0.40943 0.25370 0.31172
 C143 C 0.40723 0.21685 0.29874
 C144 C 0.39179 0.19355 0.22604
 C145 C 0.40147 0.16395 0.23235
 C146 C 0.42231 0.17003 0.30896
 N147 N 0.42525 0.20199 0.34937
 C148 C 0.44223 0.14966 0.33489
 C149 C 0.45745 0.15278 0.41954
 C150 C 0.48649 0.14369 0.44314
 C151 C 0.49167 0.14945 0.53058
 C152 C 0.46537 0.16157 0.55786
 N153 N 0.44473 0.16400 0.48965
 C154 C 0.46028 0.16996 0.64452
 C155 C 0.44605 0.19641 0.66306
 C156 C 0.43243 0.20035 0.74320
 C157 C 0.42438 0.23093 0.73588
 C158 C 0.43324 0.24499 0.65140
 N159 N 0.44598 0.22345 0.60715
 C160 C 0.43256 0.27895 0.61917
 H161 H 0.45657 0.35023 0.51630
 H162 H 0.44110 0.33542 0.35151
 H163 H 0.45837 0.22993 0.54548
 H164 H 0.37666 0.19837 0.17236
 H165 H 0.39517 0.14142 0.18459
 H166 H 0.50298 0.13475 0.40157
 H167 H 0.51312 0.14606 0.56915
 H168 H 0.41338 0.24165 0.78729
 H169 H 0.44361 0.21624 0.40151
 H170 H 0.42873 0.18311 0.80122
 C171 C 0.68578 0.14211 0.53352
 C172 C 0.68627 0.14616 0.44560
 C173 C 0.71763 0.18313 0.42593
 N174 N 0.73570 0.20220 0.49966
 C175 C 0.71606 0.17725 0.56582
 C176 C 0.72682 0.20024 0.34209
 C177 C 0.76187 0.23572 0.32349
 C178 C 0.76898 0.25739 0.24749
 C179 C 0.80721 0.28786 0.25177
 C180 C 0.82252 0.28393 0.33015
 N181 N 0.79476 0.25194 0.37326
 C182 C 0.86178 0.30853 0.35813
 C183 C 0.87356 0.30922 0.44498
 C184 C 0.91224 0.32747 0.47416
 C185 C 0.91049 0.32507 0.56293
 C186 C 0.87080 0.30550 0.58479
 N187 N 0.84831 0.29556 0.51265
 C188 C 0.85548 0.30072 0.66947
 C189 C 0.81575 0.27312 0.68902
 C190 C 0.79621 0.27359 0.76344
 C191 C 0.75895 0.24152 0.75955
 C192 C 0.75680 0.22179 0.68351
 N193 N 0.79147 0.24157 0.64026
 C194 C 0.72314 0.18679 0.65499
 H195 H 0.66491 0.11613 0.56909
 H196 H 0.66535 0.12416 0.40221
 H197 H 0.79917 0.23217 0.58429
 H198 H 0.74892 0.25165 0.19391
 H199 H 0.82201 0.31027 0.20245
 H200 H 0.93892 0.34155 0.43564
 H201 H 0.93553 0.33695 0.60640
 H202 H 0.73579 0.23434 0.80650
 H203 H 0.79939 0.23959 0.42902
 H204 H 0.80727 0.29523 0.81457
 O205 O 0.97931 0.55968 -0.13871
 O206 O 1.04771 0.60248 0.10446
 O207 O 0.93093 0.50960 0.09153
 O208 O 1.09767 0.58380 -0.05906
 O209 O 0.97652 0.56900 0.11025
 O210 O 1.05358 0.59771 -0.10636
 O211 O 1.09300 0.58677 0.09660
 O212 O 0.93214 0.50903 -0.06864
 C213 C 0.94351 0.53799 -0.12040
 C214 C 1.08312 0.61245 0.10993
 C215 C 0.94098 0.54456 0.10990
 C216 C 1.08888 0.60758 -0.09576
 O217 O 1.05704 0.53309 -0.15594
 O218 O 0.97608 0.50637 0.19194
 O219 O 0.95083 0.45259 -0.06773
 O220 O 1.05639 0.50620 0.10553
 O221 O 1.04723 0.54199 0.19510
 O222 O 0.98465 0.49661 -0.16797
 O223 O 1.06379 0.50358 -0.04601
 O224 O 0.95783 0.45867 0.09956
 Co225 Co 1.01866 0.54596 -0.12725
 Co226 Co 1.01209 0.55314 0.13889
 Co227 Co 0.94987 0.48717 0.01432
 Co228 Co 1.07245 0.54420 0.02352
 O229 O 1.01290 0.53246 0.01152
 C230 C 1.06481 0.50780 -0.12511
 C231 C 0.96302 0.47027 0.17607
 C232 C 0.96180 0.46143 -0.14492
 C233 C 1.05416 0.51443 0.18150
 O234 O 0.46349 0.43862 -0.17200
 O235 O 0.41298 0.45242 0.11581
 O236 O 0.46804 0.39351 0.02383
 O237 O 0.40656 0.46433 -0.04096
 O238 O 0.45153 0.41634 0.13671
 O239 O 0.43776 0.48192 -0.16053
 O240 O 0.41517 0.50867 0.07758
 O241 O 0.50579 0.42594 -0.11461
 C242 C 0.47807 0.41674 -0.16560
 C243 C 0.39855 0.47565 0.12294
 C244 C 0.44976 0.38781 0.09412
 C245 C 0.40539 0.46464 -0.12111
 O246 O 0.51051 0.54231 -0.11708
 O247 O 0.51645 0.48901 0.16776
 O248 O 0.56015 0.48223 -0.02772
 O249 O 0.49393 0.54895 0.04932
 O250 O 0.47642 0.51857 0.16530
 O251 O 0.53899 0.49935 -0.14370
 O252 O 0.45658 0.53975 -0.07885
 O253 O 0.52604 0.44519 0.11046
 Co254 Co 0.48754 0.48974 -0.13661
 Co255 Co 0.46568 0.46909 0.13256
 Co256 Co 0.51175 0.44056 -0.00206
 Co257 Co 0.45097 0.50467 0.00848
 O258 O 0.48113 0.47594 -0.00384
 C259 C 0.48918 0.55810 -0.11724
 C260 C 0.53703 0.47316 0.16046
 C261 C 0.56692 0.50033 -0.09879
 C262 C 0.49581 0.55068 0.12795
 O263 O 0.56659 0.05020 -0.17198
 O264 O 0.51761 -0.03611 0.17473
 O265 O 0.57878 0.08315 0.08766
 O266 O 0.52078 -0.06802 -0.08222
 O267 O 0.57069 0.03028 0.14993
 O268 O 0.56257 -0.01277 -0.13923
 O269 O 0.53551 -0.05685 0.06812
 O270 O 0.59461 0.07556 -0.05415
 C271 C 0.59747 0.07166 -0.13216
 C272 C 0.53468 -0.05355 0.14723
 C273 C 0.59220 0.06584 0.13430
 C274 C 0.55157 -0.04806 -0.12608
 O275 O 0.48434 -0.04753 -0.16704
 O276 O 0.51697 0.05431 0.15114
 O277 O 0.52642 0.07405 -0.11472
 O278 O 0.45971 -0.06828 0.09569
 O279 O 0.46480 -0.01346 0.13621
 O280 O 0.48812 0.01623 -0.16407
 O281 O 0.45096 -0.06689 -0.05259
 O282 O 0.50470 0.06931 0.02892
 Co283 Co 0.52509 0.00193 -0.14453
 Co284 Co 0.51797 0.00844 0.13700
 Co285 Co 0.54834 0.06897 -0.01198
 Co286 Co 0.49473 -0.05838 0.00627
 O287 O 0.52159 0.00525 -0.00343
 C288 C 0.45150 -0.06520 -0.13191
 C289 C 0.49881 0.06697 0.10729
 C290 C 0.49709 0.05135 -0.15969
 C291 C 0.44435 -0.04972 0.12879
 C292 C 1.10620 0.43186 0.29325
 C293 C 1.09082 0.45525 0.30936
 C294 C 1.07329 0.46748 0.23973
 C295 C 1.06381 0.49569 0.25321
 H296 H 1.09503 0.46891 0.37226
 H297 H 1.07135 0.45586 0.17526
 H298 H 1.10404 0.42033 0.22863
 H299 H 1.06589 0.50732 0.31769
 C300 C 0.54595 0.66241 0.28875
 C301 C 0.52484 0.62448 0.31510
 C302 C 0.51061 0.58905 0.26052
 C303 C 0.51510 0.58848 0.17469
 H304 H 0.51478 0.61787 0.38143
 H305 H 0.49387 0.56124 0.29474
 H306 H 0.55191 0.66832 0.22052
 H307 H 0.53108 0.61546 0.13759
 C308 C 0.33093 -0.11524 0.27304
 C309 C 0.35825 -0.07706 0.28280
 C310 C 0.39052 -0.05446 0.22065
 C311 C 0.40521 -0.07177 0.16948
 H312 H 0.35881 -0.06183 0.34159
 H313 H 0.40658 -0.02270 0.22807
 H314 H 0.32668 -0.12787 0.20907
 H315 H 0.39069 -0.10363 0.16549
 C316 C 0.82202 0.51059 0.27104
 C317 C 0.85322 0.53875 0.22917
 C318 C 0.87682 0.52821 0.17214
 C319 C 0.91272 0.55551 0.14579
 H320 H 0.86334 0.56950 0.24349
 H321 H 0.86657 0.49727 0.15965
 H322 H 0.81289 0.47979 0.26010
 H323 H 0.92342 0.58628 0.16099
 C324 C 0.40372 0.27502 0.23802
 C325 C 0.42713 0.28521 0.16811
 C326 C 0.43507 0.31885 0.11013
 C327 C 0.42853 0.34829 0.13351
 H328 H 0.44539 0.27166 0.15837
 H329 H 0.45312 0.32270 0.05373
 H330 H 0.38534 0.28819 0.24969
 H331 H 0.41263 0.34617 0.19227
 C332 C 0.69671 0.18252 0.27250
 C333 C 0.68482 0.14631 0.24224
 C334 C 0.65012 0.12674 0.18512
 C335 C 0.63051 0.08742 0.17865
 H336 H 0.69859 0.12969 0.26631
 H337 H 0.63855 0.14416 0.15457
 H338 H 0.68330 0.19941 0.24814
 H339 H 0.64131 0.07017 0.21297
 C340 C 0.47118 0.15356 -0.28522
 C341 C 0.46861 0.11790 -0.28742
 C342 C 0.48436 0.10360 -0.21735
 C343 C 0.47697 0.06621 -0.21722
 H344 H 0.45496 0.09878 -0.34237
 H345 H 0.50373 0.12409 -0.16909
 H346 H 0.48023 0.16959 -0.22483
 H347 H 0.45684 0.04593 -0.26487
 C348 C 0.67673 0.54104 -0.25291
 C349 C 0.64819 0.55055 -0.26605
 C350 C 0.61625 0.54306 -0.20469
 C351 C 0.60714 0.51946 -0.13499
 H352 H 0.64531 0.56115 -0.32925
 H353 H 0.59545 0.55220 -0.22684
 H354 H 0.68379 0.53669 -0.18735
 H355 H 0.62723 0.50991 -0.11068
 C356 C 0.88040 0.32711 -0.25961
 C357 C 0.90315 0.36606 -0.27101
 C358 C 0.92219 0.39291 -0.19775
 C359 C 0.94681 0.43120 -0.21283
 H360 H 0.90577 0.37886 -0.33486
 H361 H 0.91444 0.38186 -0.13203
 H362 H 0.87658 0.31491 -0.19477
 H363 H 0.95461 0.44147 -0.27910
 C364 C 0.53781 -0.15270 -0.31426
 C365 C 0.56307 -0.12170 -0.26745
 C366 C 0.54755 -0.10333 -0.20724
 C367 C 0.56997 -0.06730 -0.17454
 H368 H 0.59462 -0.11033 -0.27308
 H369 H 0.51612 -0.11888 -0.19350
 H370 H 0.50636 -0.16387 -0.30668
 H371 H 0.60077 -0.05014 -0.19291
 C372 C 0.29691 0.43853 -0.28319
 C373 C 0.33409 0.45003 -0.30923
 C374 C 0.36831 0.45855 -0.25347
 C375 C 0.36773 0.45083 -0.16846
 H376 H 0.34184 0.45727 -0.37663
 H377 H 0.39646 0.47279 -0.28684
 H378 H 0.29123 0.43711 -0.21446
 H379 H 0.34025 0.43644 -0.13284
 C380 C 1.17553 0.70826 -0.25913
 C381 C 1.17210 0.67231 -0.25008
 C382 C 1.14976 0.64415 -0.17965
 C383 C 1.11860 0.64331 -0.14077
 H384 H 1.18661 0.66271 -0.29594
 H385 H 1.15524 0.61963 -0.17002
 H386 H 1.16725 0.71969 -0.20436
 H387 H 1.11046 0.66557 -0.15646
 C388 C 0.85089 0.53518 -0.28810
 C389 C 0.84549 0.52703 -0.20288
 C390 C 0.87547 0.52422 -0.14876
 C391 C 0.91434 0.54586 -0.16389
 H392 H 0.81677 0.51697 -0.17397
 H393 H 0.86484 0.50292 -0.09614
 H394 H 0.87818 0.53936 -0.31588
 H395 H 0.92519 0.56886 -0.21294
 C396 C 0.43629 0.30760 -0.31966
 C397 C 0.42374 0.33401 -0.33126
 C398 C 0.43395 0.36738 -0.27188
 C399 C 0.46609 0.38235 -0.22141
 H400 H 0.40476 0.33120 -0.38525
 H401 H 0.41591 0.38151 -0.27436
 H402 H 0.44915 0.30735 -0.25761
 H403 H 0.48526 0.36950 -0.22100
 C404 C 0.69314 0.16200 -0.28621
 C405 C 0.69882 0.15488 -0.20348
 C406 C 0.66551 0.12722 -0.14802
 C407 C 0.63421 0.09527 -0.18043
 H408 H 0.72795 0.16945 -0.17482
 H409 H 0.66660 0.13389 -0.07983
 H410 H 0.66333 0.14623 -0.31094
 H411 H 0.63400 0.08753 -0.24765
 C412 C 1.12908 0.46156 -0.28299
 C413 C 1.10716 0.47714 -0.31440
 C414 C 1.08954 0.49585 -0.26119
 C415 C 1.08007 0.48701 -0.17794
 H416 H 1.10445 0.47971 -0.38357
 H417 H 1.08334 0.51711 -0.29319
 H418 H 1.13616 0.46492 -0.21484
 H419 H 1.08480 0.46479 -0.14604
 C420 C 0.52880 0.66629 -0.28000
 C421 C 0.55206 0.65264 -0.24891
 C422 C 0.53845 0.61766 -0.19187
 C423 C 0.50169 0.59616 -0.16047
 H424 H 0.58280 0.66690 -0.26805
 H425 H 0.55981 0.60792 -0.17972
 H426 H 0.50021 0.65610 -0.25109
 H427 H 0.47966 0.60517 -0.16880
 C428 C 0.34094 -0.11568 -0.28299
 C429 C 0.34381 -0.12796 -0.20311
 C430 C 0.37940 -0.10588 -0.14924
 C431 C 0.41556 -0.08552 -0.18405
 H432 H 0.32147 -0.15615 -0.17791
 H433 H 0.37598 -0.10918 -0.07963
 H434 H 0.36463 -0.08740 -0.30460
 H435 H 0.41951 -0.08435 -0.25352
 C436 C 0.58243 -0.14296 0.25597
 C437 C 0.56217 -0.12351 0.26109
 C438 C 0.55997 -0.09894 0.19055
 C439 C 0.54661 -0.07422 0.20995
 H440 H 0.54545 -0.12654 0.31942
 H441 H 0.56688 -0.10247 0.12450
 H442 H 0.59755 -0.14186 0.19638
 H443 H 0.54089 -0.07105 0.27729
 C444 C 0.29033 0.44006 0.28153
 C445 C 0.31432 0.47643 0.25011
 C446 C 0.34771 0.48679 0.19049
 C447 C 0.36280 0.46311 0.17474
 H448 H 0.30955 0.50046 0.26974
 H449 H 0.36180 0.51624 0.16274
 H450 H 0.29393 0.41515 0.26442
 H451 H 0.35049 0.43428 0.20465
 C452 C 1.16121 0.70379 0.28953
 C453 C 1.17473 0.69410 0.21943
 C454 C 1.14874 0.66117 0.16245
 C455 C 1.11096 0.65088 0.14736
 H456 H 1.20630 0.70736 0.20960
 H457 H 1.16096 0.64386 0.13540
 H458 H 1.13000 0.68780 0.30475
 H459 H 1.09918 0.66926 0.17033
 C460 C 0.45085 0.12766 0.26817
 C461 C 0.44574 0.09154 0.28387
 C462 C 0.46298 0.07258 0.23045
 C463 C 0.47523 0.08247 0.14845
 H464 H 0.43285 0.07722 0.34499
 H465 H 0.46736 0.05023 0.26296
 H466 H 0.46345 0.14273 0.20769
 H467 H 0.46903 0.10266 0.11195
 C468 C 0.64897 0.51490 0.30580
 C469 C 0.62320 0.52797 0.31820
 C470 C 0.58845 0.51711 0.26246
 C471 C 0.57222 0.48461 0.21374
 H472 H 0.62740 0.54728 0.37209
 H473 H 0.57464 0.53542 0.26569
 H474 H 0.64738 0.49878 0.24785
 H475 H 0.58475 0.46518 0.21233
 C476 C 0.89042 0.33616 0.29341
 C477 C 0.91141 0.37499 0.30751
 C478 C 0.93199 0.40278 0.23597
 C479 C 0.94939 0.44173 0.24834
 H480 H 0.91034 0.38659 0.37038
 H481 H 0.93014 0.39130 0.17140
 H482 H 0.88992 0.32512 0.22896
 H483 H 0.95104 0.45299 0.31305
   
