data_POSCAR
  _audit_creation_date              2014-09-24
  _audit_creation_method            'ToBaCCo'
  _symmetry_space_group_name_H-M    'P1'
  _symmetry_Int_Tables_number       1
  _symmetry_cell_setting            triclinic
  loop_
  _symmetry_equiv_pos_as_xyz
 x,y,z
_cell_length_a 34.5010
_cell_length_b 32.4991
_cell_length_c 33.2942
_cell_angle_alpha 85.141000
_cell_angle_beta 93.751500
_cell_angle_gamma 94.000800
loop_
  _atom_site_label
  _atom_site_type_symbol
  _atom_site_fract_x
  _atom_site_fract_y
  _atom_site_fract_z
C1 C 0.30341 0.31595 0.23714
 H2 H 0.30633 0.31688 0.26961
 C3 C 0.32878 0.34068 0.21286
 H4 H 0.35082 0.36112 0.22686
 C5 C 0.27140 0.28763 0.17963
 H6 H 0.24978 0.26610 0.16679
 C7 C 0.29611 0.31183 0.15423
 H8 H 0.29305 0.30862 0.12206
 N9 N 0.27531 0.29022 0.22028
 C10 C 0.18892 0.26529 0.31106
 H11 H 0.18716 0.23181 0.31382
 C12 C 0.16561 0.28673 0.33376
 H13 H 0.14575 0.26948 0.35380
 C14 C 0.21620 0.32831 0.28057
 H15 H 0.23560 0.34442 0.25949
 C16 C 0.19339 0.35098 0.30262
 H17 H 0.19614 0.38445 0.29880
 Zn18 Zn 0.24434 0.25505 0.25554
 N19 N 0.21393 0.28625 0.28550
 C20 C 0.27932 0.22304 0.33106
 N21 N 0.27911 0.22387 0.29012
 C22 C 0.30495 0.20304 0.27185
 C23 C 0.33181 0.17937 0.29486
 C24 C 0.30569 0.19961 0.35529
 C25 C 0.18266 0.23612 0.19930
 C26 C 0.15824 0.21102 0.17506
 C27 C 0.18921 0.15135 0.20719
 C28 C 0.21305 0.17757 0.23071
 N29 N 0.21006 0.21922 0.22569
 H30 H 0.25921 0.24059 0.34504
 H31 H 0.30440 0.20461 0.23923
 H32 H 0.35154 0.16232 0.27964
 H33 H 0.30557 0.19935 0.38783
 H34 H 0.18052 0.26931 0.19634
 H35 H 0.13765 0.22523 0.15313
 H36 H 0.19227 0.11831 0.21144
 H37 H 0.23412 0.16452 0.25271
 C38 C 0.16776 0.33019 0.32977
 C39 C 0.32542 0.33866 0.17079
 C40 C 0.16183 0.16805 0.17837
 C41 C 0.33234 0.17731 0.33718
 C42 C 0.80252 0.81568 0.23441
 H43 H 0.80523 0.81665 0.26688
 C44 C 0.82791 0.84057 0.21029
 H45 H 0.84883 0.86144 0.22517
 C46 C 0.77064 0.78770 0.17686
 H47 H 0.74915 0.76609 0.16394
 C48 C 0.79530 0.81206 0.15154
 H49 H 0.79209 0.80762 0.11966
 N50 N 0.77449 0.79004 0.21747
 C51 C 0.68785 0.76475 0.30798
 H52 H 0.68618 0.73127 0.31071
 C53 C 0.66463 0.78610 0.33085
 H54 H 0.64548 0.76878 0.35159
 C55 C 0.71527 0.82786 0.27782
 H56 H 0.73454 0.84404 0.25664
 C57 C 0.69261 0.85044 0.30011
 H58 H 0.69473 0.88390 0.29576
 Zn59 Zn 0.74348 0.75473 0.25258
 N60 N 0.71292 0.78579 0.28253
 C61 C 0.77829 0.72278 0.32817
 N62 N 0.77821 0.72357 0.28724
 C63 C 0.80412 0.70272 0.26910
 C64 C 0.83090 0.67905 0.29222
 C65 C 0.80458 0.69936 0.35252
 C66 C 0.68196 0.73574 0.19614
 C67 C 0.65762 0.71059 0.17188
 C68 C 0.68863 0.65098 0.20409
 C69 C 0.71238 0.67723 0.22764
 N70 N 0.70934 0.71888 0.22261
 H71 H 0.75813 0.74035 0.34206
 H72 H 0.80369 0.70427 0.23648
 H73 H 0.85069 0.66198 0.27711
 H74 H 0.80435 0.69915 0.38504
 H75 H 0.67977 0.76892 0.19317
 H76 H 0.63703 0.72476 0.14991
 H77 H 0.69172 0.61795 0.20837
 H78 H 0.73341 0.66422 0.24969
 C79 C 0.66701 0.82957 0.32724
 C80 C 0.82498 0.83909 0.16789
 C81 C 0.66126 0.66763 0.17522
 C82 C 0.83129 0.67702 0.33454
 C83 C 0.80427 0.31417 0.73675
 H84 H 0.80730 0.31475 0.76925
 C85 C 0.82942 0.33933 0.71259
 H86 H 0.85142 0.35972 0.72672
 C87 C 0.77215 0.28638 0.67902
 H88 H 0.75055 0.26492 0.66605
 C89 C 0.79665 0.31101 0.65374
 H90 H 0.79347 0.30819 0.62150
 N91 N 0.77620 0.28851 0.71973
 C92 C 0.69031 0.26250 0.81091
 H93 H 0.68882 0.22903 0.81370
 C94 C 0.66700 0.28375 0.83380
 H95 H 0.64800 0.26635 0.85464
 C96 C 0.71718 0.32572 0.78043
 H97 H 0.73622 0.34199 0.75908
 C98 C 0.69444 0.34819 0.80273
 H99 H 0.69629 0.38164 0.79823
 Zn100 Zn 0.74549 0.25288 0.75484
 N101 N 0.71511 0.28366 0.78525
 C102 C 0.78094 0.22009 0.82981
 N103 N 0.78050 0.22153 0.78893
 C104 C 0.80633 0.20123 0.77031
 C105 C 0.83342 0.17743 0.79278
 C106 C 0.80747 0.19651 0.85366
 C107 C 0.68363 0.23426 0.69870
 C108 C 0.65917 0.20931 0.67437
 C109 C 0.69047 0.14953 0.70576
 C110 C 0.71435 0.17560 0.72940
 N111 N 0.71121 0.21724 0.72480
 H112 H 0.76100 0.23756 0.84413
 H113 H 0.80543 0.20305 0.73766
 H114 H 0.85144 0.16027 0.77579
 H115 H 0.80729 0.19801 0.88591
 H116 H 0.68138 0.26743 0.69607
 H117 H 0.63841 0.22362 0.65268
 H118 H 0.69364 0.11650 0.70969
 H119 H 0.73556 0.16245 0.75117
 C120 C 0.66904 0.32721 0.83000
 C121 C 0.82590 0.33780 0.67046
 C122 C 0.66288 0.16637 0.67726
 C123 C 0.83471 0.17414 0.83561
 C124 C 0.30414 0.81426 0.73677
 H125 H 0.30740 0.81439 0.76931
 C126 C 0.32965 0.83909 0.71273
 H127 H 0.35217 0.85878 0.72699
 C128 C 0.27104 0.78794 0.67882
 H129 H 0.24888 0.76718 0.66570
 C130 C 0.29587 0.81227 0.65365
 H131 H 0.29239 0.80992 0.62136
 N132 N 0.27544 0.78949 0.71958
 C133 C 0.18900 0.76431 0.81024
 H134 H 0.18673 0.73083 0.81235
 C135 C 0.16607 0.78567 0.83339
 H136 H 0.14653 0.76835 0.85374
 C137 C 0.21754 0.82741 0.78123
 H138 H 0.23711 0.84360 0.76035
 C139 C 0.19519 0.85000 0.80383
 H140 H 0.19784 0.88348 0.80003
 Zn141 Zn 0.24411 0.75420 0.75437
 N142 N 0.21444 0.78533 0.78516
 C143 C 0.27881 0.72059 0.82925
 N144 N 0.27839 0.72174 0.78828
 C145 C 0.30378 0.70064 0.76968
 C146 C 0.33044 0.67644 0.79238
 C147 C 0.30499 0.69665 0.85318
 C148 C 0.18147 0.73805 0.69867
 C149 C 0.15597 0.71426 0.67424
 C150 C 0.18638 0.65306 0.70352
 C151 C 0.21132 0.67802 0.72732
 N152 N 0.20901 0.71979 0.72389
 H153 H 0.25909 0.73838 0.84351
 H154 H 0.30312 0.70253 0.73705
 H155 H 0.34987 0.65926 0.77692
 H156 H 0.30511 0.69626 0.88573
 H157 H 0.17982 0.77128 0.69706
 H158 H 0.13451 0.72940 0.65405
 H159 H 0.18955 0.62002 0.70580
 H160 H 0.23277 0.66392 0.74816
 C161 C 0.16911 0.82914 0.83048
 C162 C 0.32579 0.83816 0.67055
 C163 C 0.15856 0.67119 0.67614
 C164 C 0.33124 0.67413 0.83473
 C165 C 0.03465 -0.03479 -0.03308
 C166 C 0.05966 -0.00756 -0.00472
 C167 C 0.03840 0.01545 0.01701
 C168 C -0.00586 0.00930 0.00854
 C169 C 0.00650 -0.06085 -0.00588
 C170 C -0.01465 -0.03767 0.01584
 C171 C 0.00920 -0.00495 -0.05931
 C172 C -0.01197 0.01805 -0.03745
 H173 H 0.09126 -0.00677 -0.00184
 H174 H -0.02312 0.02813 0.02629
 H175 H 0.00343 -0.09445 -0.00411
 H176 H 0.00765 -0.00262 -0.09212
 C177 C 0.03323 0.46651 0.46592
 C178 C 0.05800 0.49418 0.49410
 C179 C 0.03646 0.51686 0.51588
 C180 C -0.00777 0.50996 0.50765
 C181 C 0.00554 0.44007 0.49334
 C182 C -0.01586 0.46293 0.51512
 C183 C 0.00725 0.49587 0.43975
 C184 C -0.01416 0.51855 0.46168
 H185 H 0.08962 0.49562 0.49668
 H186 H -0.02525 0.52851 0.52544
 H187 H 0.00308 0.40646 0.49537
 H188 H 0.00574 0.49834 0.40694
 C189 C 0.53350 -0.03514 0.46541
 C190 C 0.55898 -0.00812 0.49360
 C191 C 0.53813 0.01470 0.51593
 C192 C 0.49379 0.00859 0.50819
 C193 C 0.50578 -0.06140 0.49295
 C194 C 0.48506 -0.03839 0.51528
 C195 C 0.50770 -0.00513 0.43984
 C196 C 0.48697 0.01768 0.46231
 H197 H 0.59059 -0.00734 0.49592
 H198 H 0.47687 0.02727 0.52642
 H199 H 0.50276 -0.09499 0.49458
 H200 H 0.50573 -0.00244 0.40702
 C201 C 0.53351 0.46331 -0.03473
 C202 C 0.55869 0.49097 -0.00689
 C203 C 0.53758 0.51408 0.01488
 C204 C 0.49328 0.50760 0.00697
 C205 C 0.50580 0.43735 -0.00697
 C206 C 0.48480 0.46064 0.01479
 C207 C 0.50765 0.49277 -0.06093
 C208 C 0.48663 0.51587 -0.03902
 H209 H 0.59030 0.49190 -0.00433
 H210 H 0.47614 0.52651 0.02475
 H211 H 0.50296 0.40374 -0.00480
 H212 H 0.50580 0.49486 -0.09374
 C213 C 0.09990 -0.10249 -0.09910
 C214 C 0.08357 -0.13799 -0.11636
 C215 C 0.10606 -0.16034 -0.13918
 C216 C 0.14521 -0.14739 -0.14506
 C217 C 0.16135 -0.11169 -0.12749
 C218 C 0.13882 -0.08943 -0.10467
 C219 C 0.07674 -0.07923 -0.07590
 C220 C 0.05760 -0.05939 -0.05654
 H221 H 0.05342 -0.14829 -0.11234
 H222 H 0.09266 -0.18737 -0.15273
 H223 H 0.19152 -0.10125 -0.13099
 H224 H 0.15178 -0.06204 -0.09135
 C225 C 0.09815 0.39893 0.39944
 C226 C 0.11520 0.36344 0.41717
 C227 C 0.13768 0.34095 0.39450
 C228 C 0.14345 0.35373 0.35375
 C229 C 0.12605 0.38938 0.33618
 C230 C 0.10356 0.41179 0.35890
 C231 C 0.07534 0.42233 0.42286
 C232 C 0.05631 0.44215 0.44236
 H233 H 0.11128 0.35328 0.44857
 H234 H 0.15108 0.31396 0.40902
 H235 H 0.12950 0.39969 0.30476
 H236 H 0.09040 0.43916 0.34486
 C237 C 0.59793 -0.10226 0.39799
 C238 C 0.58178 -0.13816 0.38132
 C239 C 0.60420 -0.16041 0.35833
 C240 C 0.64309 -0.14695 0.35168
 C241 C 0.65903 -0.11082 0.36863
 C242 C 0.63658 -0.08867 0.39161
 C243 C 0.57493 -0.07922 0.42157
 C244 C 0.55603 -0.05955 0.44134
 H245 H 0.55184 -0.14889 0.38599
 H246 H 0.59096 -0.18780 0.34529
 H247 H 0.68902 -0.09998 0.36455
 H248 H 0.64939 -0.06098 0.40448
 C249 C 0.59897 0.39547 -0.10038
 C250 C 0.58321 0.35923 -0.11669
 C251 C 0.60599 0.33689 -0.13923
 C252 C 0.64484 0.35060 -0.14578
 C253 C 0.66040 0.38703 -0.12912
 C254 C 0.63760 0.40927 -0.10658
 C255 C 0.57558 0.41871 -0.07741
 C256 C 0.55637 0.43860 -0.05817
 H257 H 0.55330 0.34834 -0.11215
 H258 H 0.59303 0.30927 -0.15206
 H259 H 0.69035 0.39807 -0.13313
 H260 H 0.65012 0.43722 -0.09398
 C261 C -0.08646 0.09854 -0.09594
 C262 C -0.11891 0.11088 -0.07836
 C263 C -0.14487 0.13645 -0.10072
 C264 C -0.13920 0.15026 -0.14173
 C265 C -0.10542 0.13773 -0.15838
 C266 C -0.07966 0.11228 -0.13580
 C267 C -0.06053 0.07082 -0.07377
 C268 C -0.03853 0.04705 -0.05651
 H269 H -0.12464 0.10007 -0.04749
 H270 H -0.17037 0.14291 -0.08581
 H271 H -0.09722 0.14858 -0.18837
 H272 H -0.05426 0.10330 -0.14960
 C273 C -0.08886 0.59965 0.40453
 C274 C -0.12690 0.60117 0.41636
 C275 C -0.15272 0.62693 0.39407
 C276 C -0.14082 0.65136 0.35956
 C277 C -0.10231 0.65011 0.34838
 C278 C -0.07656 0.62441 0.37071
 C279 C -0.06282 0.57154 0.42594
 C280 C -0.04077 0.54759 0.44280
 H281 H -0.13677 0.58197 0.44238
 H282 H -0.18229 0.62688 0.40317
 H283 H -0.09211 0.66899 0.32233
 H284 H -0.04717 0.62349 0.36131
 C285 C 0.41237 0.09968 0.40655
 C286 C 0.42458 0.12462 0.37280
 C287 C 0.39878 0.15044 0.35071
 C288 C 0.36032 0.15163 0.36205
 C289 C 0.34853 0.12707 0.39653
 C290 C 0.37440 0.10118 0.41857
 C291 C 0.43840 0.07130 0.42757
 C292 C 0.46042 0.04709 0.44402
 H293 H 0.45391 0.12371 0.36324
 H294 H 0.40890 0.16943 0.32468
 H295 H 0.31901 0.12698 0.40575
 H296 H 0.36460 0.08183 0.44454
 C297 C 0.41148 0.59654 -0.09610
 C298 C 0.42346 0.62113 -0.13016
 C299 C 0.39756 0.64681 -0.15229
 C300 C 0.35922 0.64821 -0.14067
 C301 C 0.34762 0.62389 -0.10598
 C302 C 0.37359 0.59815 -0.08389
 C303 C 0.43772 0.56859 -0.07476
 C304 C 0.45991 0.54478 -0.05792
 H305 H 0.45273 0.62014 -0.13986
 H306 H 0.40754 0.66561 -0.17849
 H307 H 0.31818 0.62396 -0.09652
 H308 H 0.36396 0.57908 -0.05768
 C309 C -0.09475 -0.09275 0.09169
 C310 C -0.13193 -0.10505 0.07619
 C311 C -0.15857 -0.12686 0.10126
 C312 C -0.14857 -0.13706 0.14267
 C313 C -0.11096 -0.12346 0.15786
 C314 C -0.08444 -0.10171 0.13258
 C315 C -0.06672 -0.07234 0.06529
 C316 C -0.04307 -0.05610 0.04290
 H317 H -0.14034 -0.09796 0.04456
 H318 H -0.18730 -0.13455 0.08795
 H319 H -0.10075 -0.13125 0.18876
 H320 H -0.05553 -0.09262 0.14484
 C321 C -0.09390 0.40695 0.59276
 C322 C -0.08057 0.38907 0.63039
 C323 C -0.10673 0.36718 0.65596
 C324 C -0.14663 0.36281 0.64416
 C325 C -0.15982 0.38143 0.60649
 C326 C -0.13360 0.40333 0.58098
 C327 C -0.06665 0.42762 0.56565
 C328 C -0.04361 0.44413 0.54273
 H329 H -0.04987 0.39149 0.63970
 H330 H -0.09557 0.35273 0.68449
 H331 H -0.19040 0.37904 0.59677
 H332 H -0.14423 0.41706 0.55190
 C333 C 0.40673 -0.09366 0.59300
 C334 C 0.36695 -0.09618 0.58148
 C335 C 0.34051 -0.11777 0.60696
 C336 C 0.35356 -0.13717 0.64433
 C337 C 0.39356 -0.13390 0.65587
 C338 C 0.41994 -0.11233 0.63034
 C339 C 0.43415 -0.07328 0.56590
 C340 C 0.45727 -0.05699 0.54296
 H341 H 0.35642 -0.08183 0.55264
 H342 H 0.30986 -0.11930 0.59744
 H343 H 0.40460 -0.14896 0.68416
 H344 H 0.45071 -0.11075 0.63944
 C345 C 0.40630 0.40622 0.09276
 C346 C 0.36663 0.40277 0.08084
 C347 C 0.34019 0.38141 0.10646
 C348 C 0.35313 0.36316 0.14438
 C349 C 0.39301 0.36737 0.15632
 C350 C 0.41939 0.38872 0.13064
 C351 C 0.43376 0.42631 0.06555
 C352 C 0.45694 0.44235 0.04254
 H353 H 0.35619 0.41622 0.05157
 H354 H 0.30964 0.37914 0.09662
 H355 H 0.40397 0.35319 0.18504
 H356 H 0.45007 0.39101 0.14006
 C357 C 0.09473 0.09024 0.09765
 C358 C 0.13373 0.08329 0.10839
 C359 C 0.15536 0.10839 0.13484
 C360 C 0.13826 0.14091 0.15102
 C361 C 0.09893 0.14762 0.14017
 C362 C 0.07730 0.12238 0.11364
 C363 C 0.07318 0.06460 0.06965
 C364 C 0.05656 0.04251 0.04583
 H365 H 0.14757 0.05863 0.09602
 H366 H 0.18571 0.10285 0.14199
 H367 H 0.08485 0.17214 0.15241
 H368 H 0.04710 0.12802 0.10553
 C369 C 0.08981 0.59459 0.59564
 C370 C 0.10430 0.63414 0.58168
 C371 C 0.12591 0.65943 0.60807
 C372 C 0.13342 0.64540 0.64882
 C373 C 0.11806 0.60589 0.66273
 C374 C 0.09643 0.58066 0.63629
 C375 C 0.06988 0.56757 0.56785
 C376 C 0.05415 0.54463 0.54429
 H377 H 0.09956 0.64513 0.55022
 H378 H 0.13776 0.68943 0.59629
 H379 H 0.12291 0.59442 0.69402
 H380 H 0.08536 0.55008 0.64740
 C381 C 0.59536 0.08902 0.59644
 C382 C 0.57800 0.12094 0.61288
 C383 C 0.59978 0.14603 0.63942
 C384 C 0.63920 0.13941 0.64984
 C385 C 0.65624 0.10713 0.63321
 C386 C 0.63447 0.08216 0.60674
 C387 C 0.57362 0.06350 0.56848
 C388 C 0.55673 0.04155 0.54470
 H389 H 0.54772 0.12649 0.60510
 H390 H 0.58574 0.17036 0.65201
 H391 H 0.68665 0.10166 0.64004
 H392 H 0.64825 0.05768 0.59403
 C393 C 0.59418 0.58950 0.09478
 C394 C 0.63322 0.58267 0.10545
 C395 C 0.65485 0.60790 0.13178
 C396 C 0.63772 0.64043 0.14791
 C397 C 0.59837 0.64704 0.13710
 C398 C 0.57674 0.62168 0.11070
 C399 C 0.57259 0.56365 0.06700
 C400 C 0.55589 0.54138 0.04340
 H401 H 0.64707 0.55799 0.09314
 H402 H 0.68523 0.60243 0.13891
 H403 H 0.58427 0.67157 0.14930
 H404 H 0.54650 0.62722 0.10264
   
