data_POSCAR
  _audit_creation_date              2014-09-24
  _audit_creation_method            'ToBaCCo'
  _symmetry_space_group_name_H-M    'P1'
  _symmetry_Int_Tables_number       1
  _symmetry_cell_setting            triclinic
  loop_
  _symmetry_equiv_pos_as_xyz
 x,y,z
_cell_length_a 46.6071
_cell_length_b 45.9071
_cell_length_c 46.6320
_cell_angle_alpha 89.998900
_cell_angle_beta 90.005400
_cell_angle_gamma 90.041900
loop_
  _atom_site_label
  _atom_site_type_symbol
  _atom_site_fract_x
  _atom_site_fract_y
  _atom_site_fract_z
N1 N 0.59216 0.67084 0.61197
 N2 N 0.58100 0.65900 0.63506
 C3 C 0.55770 0.67438 0.64293
 C4 C 0.55400 0.69713 0.62372
 C5 C 0.57636 0.69411 0.60435
 H6 H 0.54431 0.66925 0.66115
 H7 H 0.58103 0.70791 0.58616
 Cu8 Cu 0.59805 0.62461 0.65251
 Cu9 Cu 0.62637 0.65531 0.59350
 Cu10 Cu 0.65711 0.59402 0.62425
 N11 N 0.61550 0.59022 0.66956
 N12 N 0.63858 0.57839 0.65840
 C13 C 0.64619 0.55509 0.67415
 C14 C 0.62680 0.55196 0.69660
 C15 C 0.60761 0.57483 0.69284
 H16 H 0.66453 0.54156 0.66941
 H17 H 0.58923 0.58001 0.70597
 N18 N 0.67267 0.61304 0.58968
 N19 N 0.66100 0.63638 0.57801
 C20 C 0.67649 0.64414 0.55486
 C21 C 0.69904 0.62476 0.55170
 C22 C 0.69587 0.60534 0.57422
 H23 H 0.67154 0.66243 0.54116
 H24 H 0.70958 0.58706 0.57918
 H25 H 0.62075 0.61276 0.60687
 H26 H 0.64372 0.63654 0.62986
 N27 N 0.90818 0.32808 0.11209
 N28 N 0.91898 0.33952 0.13552
 C29 C 0.94226 0.32412 0.14341
 C30 C 0.94637 0.30164 0.12385
 C31 C 0.92414 0.30501 0.10425
 H32 H 0.95516 0.32906 0.16202
 H33 H 0.91971 0.29181 0.08560
 Cu34 Cu 0.90164 0.37350 0.15348
 Cu35 Cu 0.87423 0.34392 0.09341
 Cu36 Cu 0.84361 0.40525 0.12407
 N37 N 0.88460 0.40839 0.16996
 N38 N 0.86192 0.42064 0.15840
 C39 C 0.85458 0.44419 0.17393
 C40 C 0.87373 0.44698 0.19652
 C41 C 0.89250 0.42380 0.19323
 H42 H 0.83676 0.45834 0.16892
 H43 H 0.91046 0.41841 0.20687
 N44 N 0.82822 0.38646 0.08932
 N45 N 0.83984 0.36309 0.07769
 C46 C 0.82444 0.35545 0.05443
 C47 C 0.80201 0.37496 0.05117
 C48 C 0.80515 0.39432 0.07375
 H49 H 0.82936 0.33714 0.04074
 H50 H 0.79148 0.41264 0.07868
 H51 H 0.88023 0.38622 0.10747
 H52 H 0.85633 0.36250 0.12959
 N53 N 0.40801 0.17148 -0.11204
 N54 N 0.41919 0.15961 -0.13511
 C55 C 0.44247 0.17503 -0.14301
 C56 C 0.44614 0.19784 -0.12386
 C57 C 0.42378 0.19481 -0.10448
 H58 H 0.45587 0.16988 -0.16121
 H59 H 0.41910 0.20864 -0.08633
 Cu60 Cu 0.40219 0.12512 -0.15245
 Cu61 Cu 0.37382 0.15589 -0.09353
 Cu62 Cu 0.34315 0.09444 -0.12413
 N63 N 0.38480 0.09064 -0.16941
 N64 N 0.36169 0.07880 -0.15825
 C65 C 0.35411 0.05546 -0.17398
 C66 C 0.37353 0.05238 -0.19630
 C67 C 0.39272 0.07518 -0.19264
 H68 H 0.33592 0.04165 -0.16931
 H69 H 0.41096 0.08030 -0.20602
 N70 N 0.32758 0.11348 -0.08959
 N71 N 0.33921 0.13689 -0.07799
 C72 C 0.32372 0.14465 -0.05485
 C73 C 0.30120 0.12520 -0.05164
 C74 C 0.30440 0.10574 -0.07412
 H75 H 0.32864 0.16299 -0.04119
 H76 H 0.29072 0.08740 -0.07903
 H77 H 0.37949 0.11332 -0.10680
 H78 H 0.35650 0.13698 -0.12985
 N79 N 0.09111 0.82896 0.38844
 N80 N 0.07951 0.84124 0.36581
 C81 C 0.05623 0.82581 0.35792
 C82 C 0.05292 0.80247 0.37665
 C83 C 0.07564 0.80535 0.39575
 H84 H 0.04281 0.83128 0.33983
 H85 H 0.08076 0.79143 0.41370
 Cu86 Cu 0.09597 0.87617 0.34878
 Cu87 Cu 0.12544 0.84443 0.40675
 Cu88 Cu 0.15602 0.90588 0.37622
 N89 N 0.11391 0.91017 0.33145
 N90 N 0.13733 0.92169 0.34230
 C91 C 0.14512 0.94481 0.32635
 C92 C 0.12556 0.94803 0.30418
 C93 C 0.10605 0.92557 0.30816
 H94 H 0.16381 0.95809 0.33052
 H95 H 0.08739 0.92088 0.29521
 N96 N 0.17177 0.88670 0.41059
 N97 N 0.16016 0.86328 0.42218
 C98 C 0.17575 0.85543 0.44523
 C99 C 0.19830 0.87484 0.44840
 C100 C 0.19503 0.89437 0.42599
 H101 H 0.17084 0.83708 0.45888
 H102 H 0.20869 0.91272 0.42109
 H103 H 0.11985 0.88718 0.39408
 H104 H 0.14203 0.86356 0.37018
 C105 C 0.11182 0.14982 0.11274
 C106 C 0.13650 0.13747 0.10059
 C107 C 0.14886 0.11308 0.11299
 C108 C 0.13670 0.10076 0.13767
 C109 C 0.11231 0.11296 0.14967
 C110 C 0.09980 0.13764 0.13713
 C111 C 0.09524 0.17347 0.10530
 N112 N 0.07364 0.17574 0.12460
 C113 C 0.07610 0.15407 0.14414
 C114 C 0.10527 0.09655 0.17338
 N115 N 0.12480 0.07487 0.17586
 C116 C 0.14411 0.07711 0.15427
 C117 C 0.17247 0.10585 0.09672
 N118 N 0.17453 0.12525 0.07495
 C119 C 0.15278 0.14468 0.07699
 H120 H 0.09858 0.18794 0.08727
 H121 H 0.06173 0.15058 0.16206
 H122 H 0.08735 0.10007 0.18774
 H123 H 0.16213 0.06263 0.15095
 H124 H 0.18704 0.08787 0.10039
 H125 H 0.14912 0.16265 0.06239
 C126 C 0.38776 0.85010 0.61278
 C127 C 0.36309 0.86244 0.60060
 C128 C 0.35070 0.88682 0.61298
 C129 C 0.36283 0.89916 0.63768
 C130 C 0.38722 0.88696 0.64971
 C131 C 0.39975 0.86229 0.63719
 C132 C 0.40435 0.82646 0.60536
 N133 N 0.42593 0.82420 0.62468
 C134 C 0.42345 0.84587 0.64423
 C135 C 0.39423 0.90338 0.67341
 N136 N 0.37469 0.92506 0.67586
 C137 C 0.35540 0.92280 0.65425
 C138 C 0.32711 0.89405 0.59669
 N139 N 0.32507 0.87463 0.57491
 C140 C 0.34683 0.85522 0.57698
 H141 H 0.40104 0.81199 0.58733
 H142 H 0.43780 0.84937 0.66216
 H143 H 0.41214 0.89989 0.68779
 H144 H 0.33738 0.93728 0.65090
 H145 H 0.31252 0.91202 0.60034
 H146 H 0.35050 0.83725 0.56240
 C147 C 0.88828 0.64960 0.38714
 C148 C 0.86364 0.63720 0.39933
 C149 C 0.85127 0.61277 0.38699
 C150 C 0.86341 0.60045 0.36229
 C151 C 0.88777 0.61271 0.35024
 C152 C 0.90028 0.63743 0.36273
 C153 C 0.90484 0.67330 0.39453
 N154 N 0.92640 0.67561 0.37520
 C155 C 0.92394 0.65392 0.35567
 C156 C 0.89478 0.59628 0.32654
 N157 N 0.87527 0.57455 0.32412
 C158 C 0.85600 0.57677 0.34574
 C159 C 0.82770 0.60549 0.40330
 N160 N 0.82565 0.62491 0.42505
 C161 C 0.84739 0.64439 0.42296
 H162 H 0.90151 0.68777 0.41256
 H163 H 0.93829 0.65046 0.33773
 H164 H 0.91267 0.59982 0.31214
 H165 H 0.83800 0.56224 0.34911
 H166 H 0.81314 0.58747 0.39966
 H167 H 0.85104 0.66238 0.43752
 C168 C 0.61260 0.35082 -0.11327
 C169 C 0.63734 0.36312 -0.10116
 C170 C 0.64977 0.38748 -0.11356
 C171 C 0.63761 0.39984 -0.13823
 C172 C 0.61316 0.38768 -0.15020
 C173 C 0.60058 0.36303 -0.13765
 C174 C 0.59595 0.32720 -0.10582
 N175 N 0.57432 0.32498 -0.12508
 C176 C 0.57682 0.34665 -0.14463
 C177 C 0.60614 0.40412 -0.17389
 N178 N 0.62574 0.42576 -0.17639
 C179 C 0.64507 0.42347 -0.15483
 C180 C 0.67342 0.39467 -0.09732
 N181 N 0.67545 0.37525 -0.07556
 C182 C 0.65363 0.35587 -0.07757
 H183 H 0.59928 0.31272 -0.08779
 H184 H 0.56244 0.35016 -0.16254
 H185 H 0.58818 0.40065 -0.18822
 H186 H 0.66315 0.43792 -0.15152
 H187 H 0.68805 0.41262 -0.10101
 H188 H 0.64993 0.33791 -0.06298
 C189 C 0.01161 0.23734 0.12407
 C190 C -0.00915 0.23748 0.10246
 C191 C -0.03068 0.25867 0.10232
 C192 C -0.03185 0.28023 0.12390
 C193 C -0.01066 0.27975 0.14555
 C194 C 0.01082 0.25851 0.14558
 C195 C 0.03369 0.21544 0.12422
 C196 C 0.05218 0.19709 0.12438
 H197 H -0.00873 0.22116 0.08568
 H198 H -0.04626 0.25788 0.08518
 H199 H -0.01040 0.29565 0.16263
 H200 H 0.02681 0.25860 0.16245
 C201 C 0.48795 0.76258 0.62417
 C202 C 0.50586 0.75951 0.60030
 C203 C 0.52733 0.73826 0.60013
 C204 C 0.53119 0.71972 0.62387
 C205 C 0.51300 0.72301 0.64777
 C206 C 0.49156 0.74430 0.64788
 C207 C 0.46588 0.78449 0.62433
 C208 C 0.44740 0.80285 0.62449
 H209 H 0.50322 0.77353 0.58179
 H210 H 0.54069 0.73631 0.58126
 H211 H 0.51538 0.70938 0.66652
 H212 H 0.47783 0.74652 0.66650
 C213 C 0.98825 0.73749 0.37580
 C214 C 1.00965 0.73699 0.39677
 C215 C 1.03101 0.75838 0.39709
 C216 C 1.03137 0.78080 0.37634
 C217 C 1.00957 0.78093 0.35530
 C218 C 0.98826 0.75948 0.35508
 C219 C 0.96626 0.71547 0.37556
 C220 C 0.94783 0.69703 0.37538
 H221 H 1.00984 0.72003 0.41294
 H222 H 1.04710 0.75709 0.41373
 H223 H 1.00868 0.79749 0.33886
 H224 H 0.97176 0.76008 0.33872
 C225 C 0.51219 0.26339 -0.12445
 C226 C 0.50856 0.24506 -0.14813
 C227 C 0.48711 0.22375 -0.14797
 C228 C 0.46894 0.22047 -0.12406
 C229 C 0.47281 0.23906 -0.10035
 C230 C 0.49429 0.26034 -0.10057
 C231 C 0.53429 0.28530 -0.12465
 C232 C 0.55280 0.30366 -0.12485
 H233 H 0.52228 0.24727 -0.16677
 H234 H 0.48473 0.21009 -0.16671
 H235 H 0.45947 0.23712 -0.08147
 H236 H 0.49694 0.27438 -0.08208
 C237 C 0.12530 0.01332 0.23795
 C238 C 0.10700 -0.01077 0.23599
 C239 C 0.10707 -0.03201 0.25748
 C240 C 0.12549 -0.02945 0.28129
 C241 C 0.14383 -0.00512 0.28300
 C242 C 0.14370 0.01609 0.26148
 C243 C 0.12514 0.03520 0.21585
 C244 C 0.12499 0.05354 0.19735
 H245 H 0.09269 -0.01316 0.21783
 H246 H 0.09282 -0.05045 0.25522
 H247 H 0.15815 -0.00221 0.30102
 H248 H 0.15792 0.03469 0.26324
 C249 C 0.62632 0.48742 -0.23838
 C250 C 0.64765 0.48725 -0.25943
 C251 C 0.64786 0.50851 -0.28089
 C252 C 0.62664 0.53045 -0.28172
 C253 C 0.60526 0.53027 -0.26025
 C254 C 0.60515 0.50896 -0.23883
 C255 C 0.62613 0.46549 -0.21632
 C256 C 0.62596 0.44712 -0.19785
 H257 H 0.66416 0.47064 -0.25927
 H258 H 0.66478 0.50748 -0.29670
 H259 H 0.58846 0.54646 -0.25971
 H260 H 0.58851 0.50929 -0.22261
 C261 C 0.37410 0.98674 0.73782
 C262 C 0.39782 1.00506 0.74144
 C263 C 0.39766 1.02640 0.76283
 C264 C 0.37372 1.02973 0.78096
 C265 C 0.34998 1.01115 0.77711
 C266 C 0.35019 0.98983 0.75569
 C267 C 0.37429 0.96480 0.71579
 C268 C 0.37446 0.94642 0.69733
 H269 H 0.41647 1.00282 0.72775
 H270 H 0.41642 1.04006 0.76521
 H271 H 0.33108 1.01311 0.79042
 H272 H 0.33168 0.97579 0.75305
 C273 C 0.87459 0.51280 0.26222
 C274 C 0.85092 0.51012 0.24397
 C275 C 0.85062 0.48876 0.22260
 C276 C 0.87404 0.46972 0.21918
 C277 C 0.89775 0.47263 0.23769
 C278 C 0.89799 0.49402 0.25903
 C279 C 0.87485 0.53477 0.28423
 C280 C 0.87505 0.55317 0.30267
 H281 H 0.83265 0.52452 0.24629
 H282 H 0.83190 0.48712 0.20900
 H283 H 0.91626 0.45861 0.23565
 H284 H 0.91646 0.49594 0.27302
 C285 C 0.23590 0.12522 0.01359
 C286 C 0.23927 0.10101 -0.00431
 C287 C 0.26047 0.10098 -0.02552
 C288 C 0.27865 0.12521 -0.02913
 C289 C 0.27505 0.14945 -0.01098
 C290 C 0.25382 0.14942 0.01020
 C291 C 0.21406 0.12521 0.03541
 C292 C 0.19578 0.12522 0.05369
 H293 H 0.22553 0.08212 -0.00184
 H294 H 0.26267 0.08183 -0.03884
 H295 H 0.28840 0.16859 -0.01319
 H296 H 0.25136 0.16831 0.02391
 C297 C 0.76434 0.62483 0.48646
 C298 C 0.76104 0.60067 0.50444
 C299 C 0.73984 0.60062 0.52565
 C300 C 0.72159 0.62479 0.52919
 C301 C 0.72512 0.64898 0.51095
 C302 C 0.74635 0.64897 0.48977
 C303 C 0.78616 0.62485 0.46463
 C304 C 0.80443 0.62487 0.44633
 H305 H 0.77482 0.58183 0.50203
 H306 H 0.73770 0.58151 0.53904
 H307 H 0.71172 0.66807 0.51310
 H308 H 0.74875 0.66782 0.47599
 C309 C 0.73686 0.37516 -0.01422
 C310 C 0.74022 0.39931 0.00375
 C311 C 0.76138 0.39928 0.02501
 C312 C 0.77954 0.37504 0.02858
 C313 C 0.77596 0.35087 0.01033
 C314 C 0.75476 0.35096 -0.01090
 C315 C 0.71503 0.37520 -0.03605
 C316 C 0.69673 0.37522 -0.05433
 H317 H 0.72650 0.41820 0.00133
 H318 H 0.76357 0.41837 0.03841
 H319 H 0.78928 0.33173 0.01249
 H320 H 0.75231 0.33211 -0.02467
 C321 C 0.26372 0.87468 0.51353
 C322 C 0.26038 0.89889 0.49564
 C323 C 0.23915 0.89897 0.47445
 C324 C 0.22090 0.87477 0.47086
 C325 C 0.22449 0.85053 0.48901
 C326 C 0.24574 0.85051 0.51017
 C327 C 0.28555 0.87465 0.53536
 C328 C 0.30383 0.87464 0.55365
 H329 H 0.27415 0.91775 0.49809
 H330 H 0.23697 0.91812 0.46113
 H331 H 0.21109 0.83141 0.48682
 H332 H 0.24818 0.83162 0.52388
   
