data_POSCAR
  _audit_creation_date              2014-09-24
  _audit_creation_method            'ToBaCCo'
  _symmetry_space_group_name_H-M    'P1'
  _symmetry_Int_Tables_number       1
  _symmetry_cell_setting            triclinic
  loop_
  _symmetry_equiv_pos_as_xyz
 x,y,z
_cell_length_a 25.4985
_cell_length_b 25.4364
_cell_length_c 25.5544
_cell_angle_alpha 90.106000
_cell_angle_beta 90.544200
_cell_angle_gamma 89.961300
loop_
  _atom_site_label
  _atom_site_type_symbol
  _atom_site_fract_x
  _atom_site_fract_y
  _atom_site_fract_z
O1 O -0.11554 0.09660 0.01480
 O2 O 0.14697 0.04119 -0.00973
 O3 O 0.03387 0.12357 0.07880
 O4 O 0.02774 0.13633 -0.06085
 O5 O 0.00613 0.08354 -0.13103
 O6 O 0.02407 0.05588 0.13804
 O7 O 0.09833 0.11664 0.00134
 O8 O -0.03946 0.14524 0.01614
 Zr9 Zr 0.02018 0.08881 0.00525
 O10 O 0.05288 0.04052 -0.04985
 O11 O -0.03165 0.05076 0.05313
 C12 C -0.09007 0.14063 0.01860
 C13 C 0.14236 0.09169 -0.00477
 C14 C 0.03368 0.10457 0.12584
 C15 C 0.02142 0.12802 -0.11053
 H16 H 0.08828 0.04620 0.06610
 O17 O 0.06021 0.03065 0.04414
 H18 H -0.05851 0.08875 -0.06105
 O19 O -0.03928 0.06058 -0.04232
 O20 O 0.11777 -0.09761 -0.01859
 O21 O -0.14511 -0.04128 0.00133
 O22 O 0.08027 -0.03002 0.12451
 O23 O 0.06000 0.00457 -0.14201
 O24 O -0.08130 0.02056 -0.13157
 O25 O -0.05821 0.00137 0.13811
 O26 O -0.02187 -0.13862 0.05415
 O27 O -0.03542 -0.12385 -0.08437
 O28 O -0.00283 -0.08533 0.12464
 O29 O -0.02436 -0.05678 -0.14393
 O30 O 0.13876 -0.03382 0.05596
 O31 O -0.12369 0.02373 0.07915
 O32 O -0.13640 0.02802 -0.06119
 O33 O 0.12823 -0.01434 -0.08505
 O34 O 0.04162 -0.14623 -0.01862
 O35 O -0.09686 -0.11671 -0.01084
 Zr36 Zr 0.09099 -0.01939 -0.01103
 Zr37 Zr -0.08836 0.01873 0.00523
 Zr38 Zr 0.00772 -0.01029 0.08942
 Zr39 Zr -0.00681 0.00909 -0.09519
 Zr40 Zr -0.01831 -0.08963 -0.01126
 O41 O -0.05879 -0.03182 -0.04987
 O42 O 0.04103 -0.06146 0.03622
 C43 C 0.09229 -0.14178 -0.01986
 C44 C -0.14104 -0.09166 -0.00589
 C45 C 0.12678 -0.03649 0.10525
 C46 C 0.10927 -0.00186 -0.13087
 C47 C -0.12770 0.02384 -0.11097
 C48 C -0.10562 0.01613 0.12616
 C49 C -0.01485 -0.13059 0.10379
 C50 C -0.03593 -0.10498 -0.13145
 H51 H -0.07679 -0.06091 0.06605
 O52 O -0.05157 -0.04159 0.04412
 H53 H 0.04972 -0.07513 -0.08496
 O54 O 0.03380 -0.05125 -0.05893
 O55 O 0.35565 0.54024 -0.00796
 O56 O 0.61931 0.59850 -0.00417
 O57 O 0.46857 0.63508 0.05930
 O58 O 0.47364 0.62768 -0.07950
 O59 O 0.49086 0.56459 -0.14176
 O60 O 0.48134 0.57774 0.12790
 O61 O 0.54297 0.64666 -0.01046
 O62 O 0.40408 0.61668 -0.00925
 Zr63 Zr 0.48280 0.58991 -0.00753
 O64 O 0.53947 0.55413 -0.05178
 O65 O 0.44427 0.53935 0.04103
 C66 C 0.35996 0.59107 -0.00939
 C67 C 0.59371 0.64245 -0.00863
 C68 C 0.46914 0.62336 0.10852
 C69 C 0.47756 0.61205 -0.12757
 H70 H 0.55403 0.58720 0.06541
 O71 O 0.53739 0.55949 0.04371
 H72 H 0.42069 0.55025 -0.07582
 O73 O 0.44701 0.53368 -0.05260
 O74 O 0.64859 0.45953 0.00665
 O75 O 0.38531 0.40206 -0.00177
 O76 O 0.56700 0.51994 0.13292
 O77 O 0.57300 0.51135 -0.13517
 O78 O 0.43228 0.48151 -0.13934
 O79 O 0.42702 0.49919 0.13075
 O80 O 0.53034 0.37293 0.07702
 O81 O 0.53113 0.36534 -0.06400
 O82 O 0.51535 0.43959 0.13646
 O83 O 0.51758 0.42251 -0.13294
 O84 O 0.63359 0.52657 0.07305
 O85 O 0.36773 0.48104 0.06459
 O86 O 0.37298 0.46664 -0.07387
 O87 O 0.63544 0.52648 -0.07059
 O88 O 0.59940 0.38368 0.00985
 O89 O 0.46137 0.35352 0.00258
 Zr90 Zr 0.59242 0.52005 -0.00007
 Zr91 Zr 0.41264 0.48030 -0.00373
 Zr92 Zr 0.49876 0.50593 0.08976
 Zr93 Zr 0.50305 0.49556 -0.09528
 Zr94 Zr 0.52116 0.41067 0.00370
 O95 O 0.46646 0.44077 -0.04827
 O96 O 0.55654 0.46728 0.04899
 C97 C 0.64364 0.40895 0.01087
 C98 C 0.41073 0.35789 -0.00007
 C99 C 0.61595 0.52398 0.12073
 C100 C 0.62004 0.52305 -0.11917
 C101 C 0.38479 0.47307 -0.12253
 C102 C 0.37970 0.49237 0.11267
 C103 C 0.52769 0.39160 0.12426
 C104 C 0.52835 0.37647 -0.11341
 H105 H 0.44582 0.42146 0.07131
 O106 O 0.46403 0.44626 0.04786
 H107 H 0.58590 0.44376 -0.06599
 O108 O 0.55860 0.46213 -0.04570
 O109 O -0.14463 0.54003 0.49533
 O110 O 0.11896 0.59627 0.48930
 O111 O -0.02798 0.63756 0.55811
 O112 O -0.02489 0.62619 0.41645
 O113 O -0.01293 0.55716 0.35907
 O114 O -0.01613 0.57919 0.62630
 O115 O 0.04313 0.64543 0.48431
 O116 O -0.09622 0.61632 0.49084
 Zr117 Zr -0.01748 0.58989 0.49078
 O118 O 0.03755 0.55119 0.44652
 O119 O -0.05442 0.53998 0.54160
 C120 C -0.14040 0.59084 0.49303
 C121 C 0.09373 0.64036 0.48417
 C122 C -0.02748 0.62520 0.60742
 C123 C -0.02192 0.60617 0.36975
 H124 H 0.05575 0.58772 0.56165
 O125 O 0.03836 0.55958 0.54112
 H126 H -0.08153 0.54782 0.42500
 O127 O -0.05490 0.53198 0.44847
 O128 O 0.14777 0.45767 0.50396
 O129 O -0.11587 0.40186 0.50495
 O130 O 0.07079 0.52220 0.63025
 O131 O 0.06801 0.50563 0.36357
 O132 O -0.07093 0.47535 0.36408
 O133 O -0.06888 0.50182 0.63310
 O134 O 0.03065 0.37302 0.57957
 O135 O 0.02793 0.36051 0.43810
 O136 O 0.01788 0.44166 0.63729
 O137 O 0.01459 0.41848 0.36977
 O138 O 0.13528 0.52861 0.56813
 O139 O -0.13084 0.48359 0.56941
 O140 O -0.12967 0.46431 0.43069
 O141 O 0.13272 0.52259 0.42515
 O142 O 0.09859 0.38190 0.50999
 O143 O -0.04010 0.35261 0.50828
 Zr144 Zr 0.09187 0.51827 0.49714
 Zr145 Zr -0.08812 0.47991 0.49961
 Zr146 Zr 0.00121 0.50701 0.58941
 Zr147 Zr -0.00012 0.49118 0.40666
 Zr148 Zr 0.02029 0.40867 0.50550
 O149 O -0.03609 0.43795 0.45498
 O150 O 0.05745 0.46654 0.54839
 C151 C 0.14279 0.40718 0.50904
 C152 C -0.09070 0.35751 0.50745
 C153 C 0.11911 0.52796 0.61628
 C154 C 0.11559 0.51769 0.37728
 C155 C -0.11800 0.46675 0.38156
 C156 C -0.11687 0.49575 0.61679
 C157 C 0.02887 0.39305 0.62629
 C158 C 0.02533 0.37237 0.38870
 H159 H -0.05309 0.42294 0.57494
 O160 O -0.03521 0.44665 0.55018
 H161 H 0.08341 0.44001 0.43365
 O162 O 0.05684 0.45889 0.45444
 O163 O 0.38381 0.09559 0.49627
 O164 O 0.64790 0.03998 0.50674
 O165 O 0.52425 0.12667 0.57684
 O166 O 0.53422 0.13386 0.43647
 O167 O 0.52180 0.07683 0.36729
 O168 O 0.50891 0.05955 0.63538
 O169 O 0.59830 0.11583 0.50723
 O170 O 0.45941 0.14439 0.50553
 Zr171 Zr 0.51999 0.08849 0.50334
 O172 O 0.55974 0.03758 0.45570
 O173 O 0.46214 0.05206 0.54535
 C174 C 0.40885 0.13965 0.50273
 C175 C 0.64269 0.09067 0.50793
 C176 C 0.51971 0.10792 0.62378
 C177 C 0.53339 0.12263 0.38699
 H178 H 0.58010 0.04833 0.57354
 O179 O 0.55486 0.03189 0.54896
 H180 H 0.44933 0.08476 0.42798
 O181 O 0.46652 0.05784 0.45020
 O182 O 0.62009 -0.09930 0.49912
 O183 O 0.35605 -0.04333 0.48636
 O184 O 0.56313 -0.02472 0.63345
 O185 O 0.57860 -0.00111 0.36712
 O186 O 0.43753 0.01239 0.35817
 O187 O 0.42551 0.00703 0.62808
 O188 O 0.47339 -0.13938 0.55839
 O189 O 0.47564 -0.12901 0.41711
 O190 O 0.48128 -0.07901 0.62547
 O191 O 0.49185 -0.06230 0.35821
 O192 O 0.63107 -0.03229 0.57505
 O193 O 0.36737 0.02493 0.56081
 O194 O 0.37226 0.02051 0.41955
 O195 O 0.63907 -0.01841 0.43278
 O196 O 0.54441 -0.14831 0.49206
 O197 O 0.40552 -0.11927 0.48384
 Zr198 Zr 0.59254 -0.02096 0.50132
 Zr199 Zr 0.41177 0.01735 0.49243
 Zr200 Zr 0.49671 -0.00710 0.58808
 Zr201 Zr 0.50608 0.00425 0.40513
 Zr202 Zr 0.48384 -0.09230 0.49078
 O203 O 0.44906 -0.03559 0.44503
 O204 O 0.53690 -0.06121 0.54359
 C205 C 0.59490 -0.14357 0.49589
 C206 C 0.36117 -0.09398 0.48298
 C207 C 0.61207 -0.03187 0.62223
 C208 C 0.62608 -0.00662 0.38488
 C209 C 0.38872 0.01346 0.37212
 C210 C 0.37950 0.01993 0.60992
 C211 C 0.47300 -0.12604 0.60747
 C212 C 0.47879 -0.11001 0.37019
 H213 H 0.41622 -0.05940 0.55833
 O214 O 0.44362 -0.04111 0.53822
 H215 H 0.56038 -0.07944 0.42483
 O216 O 0.54148 -0.05495 0.44817
 C217 C 0.23859 0.20516 -0.00288
 C218 C 0.28527 0.17814 -0.00460
 C219 C 0.28801 0.12371 -0.00674
 C220 C 0.24067 0.09582 -0.00703
 C221 C 0.19165 0.12251 -0.00511
 C222 C 0.19086 0.17821 -0.00303
 O223 O 0.24494 0.25696 -0.00104
 C224 C 0.29673 0.26259 -0.00157
 C225 C 0.32313 0.21553 -0.00366
 C226 C 0.37749 0.21213 -0.00439
 C227 C 0.40594 0.25924 -0.00297
 C228 C 0.37982 0.30860 -0.00096
 C229 C 0.32421 0.31001 -0.00025
 H230 H 0.32529 0.10339 -0.00806
 H231 H 0.24249 0.05331 -0.00847
 H232 H 0.15438 0.19995 -0.00155
 H233 H 0.39731 0.17453 -0.00602
 H234 H 0.44834 0.25708 -0.00367
 H235 H 0.30288 0.34679 0.00131
 C236 C 0.20771 0.73500 0.47926
 C237 C 0.18155 0.78158 0.47109
 C238 C 0.12739 0.78468 0.46585
 C239 C 0.09889 0.73780 0.46955
 C240 C 0.12478 0.68906 0.47856
 C241 C 0.18020 0.68786 0.48305
 O242 O 0.25923 0.74097 0.48425
 C243 C 0.26562 0.79249 0.47925
 C244 C 0.21926 0.81904 0.47121
 C245 C 0.21651 0.87330 0.46652
 C246 C 0.26353 0.90148 0.47046
 C247 C 0.31219 0.87515 0.47851
 C248 C 0.31301 0.81965 0.48276
 H249 H 0.10775 0.82190 0.45955
 H250 H 0.05660 0.73974 0.46576
 H251 H 0.20131 0.65159 0.49016
 H252 H 0.17946 0.89329 0.46053
 H253 H 0.26185 0.94387 0.46701
 H254 H 0.34918 0.79827 0.48941
 C255 C 0.76503 0.79633 -0.01296
 C256 C 0.71829 0.82310 -0.01055
 C257 C 0.71542 0.87745 -0.00690
 C258 C 0.76267 0.90553 -0.00541
 C259 C 0.81200 0.87919 -0.00794
 C260 C 0.81269 0.82344 -0.01214
 O261 O 0.75891 0.74448 -0.01484
 C262 C 0.70716 0.73853 -0.01357
 C263 C 0.68058 0.78548 -0.01111
 C264 C 0.62627 0.78853 -0.00870
 C265 C 0.59808 0.74122 -0.00859
 C266 C 0.62439 0.69194 -0.01058
 C267 C 0.67994 0.69088 -0.01335
 H268 H 0.67809 0.89758 -0.00475
 H269 H 0.76040 0.94792 -0.00221
 H270 H 0.84907 0.80153 -0.01387
 H271 H 0.60628 0.82602 -0.00661
 H272 H 0.55575 0.74318 -0.00631
 H273 H 0.70143 0.65420 -0.01486
 C274 C 0.79572 0.26211 0.50721
 C275 C 0.82203 0.21559 0.51524
 C276 C 0.87611 0.21265 0.52109
 C277 C 0.90441 0.25970 0.51853
 C278 C 0.87838 0.30850 0.51024
 C279 C 0.82305 0.30948 0.50457
 O280 O 0.74420 0.25596 0.50237
 C281 C 0.73799 0.20441 0.50749
 C282 C 0.78447 0.17804 0.51542
 C283 C 0.78736 0.12393 0.52150
 C284 C 0.74033 0.09565 0.51919
 C285 C 0.69159 0.12172 0.51091
 C286 C 0.69062 0.17710 0.50514
 H287 H 0.89583 0.17546 0.52734
 H288 H 0.94662 0.25789 0.52313
 H289 H 0.80188 0.34583 0.49803
 H290 H 0.82450 0.10418 0.52771
 H291 H 0.74212 0.05340 0.52395
 H292 H 0.65431 0.19828 0.49859
 C293 C 0.79637 0.23660 0.02075
 C294 C 0.82255 0.28300 0.02985
 C295 C 0.87658 0.28546 0.03714
 C296 C 0.90489 0.23821 0.03441
 C297 C 0.87899 0.18966 0.02450
 C298 C 0.82367 0.18909 0.01816
 O299 O 0.74511 0.24308 0.01354
 C300 C 0.73885 0.29472 0.01812
 C301 C 0.78503 0.32092 0.02810
 C302 C 0.78772 0.37526 0.03312
 C303 C 0.74090 0.40382 0.02755
 C304 C 0.69253 0.37787 0.01708
 C305 C 0.69175 0.32229 0.01260
 H306 H 0.89633 0.32251 0.04404
 H307 H 0.94707 0.23970 0.03949
 H308 H 0.80254 0.15302 0.01011
 H309 H 0.82459 0.39501 0.04076
 H310 H 0.74251 0.44618 0.03150
 H311 H 0.65578 0.30112 0.00434
 C312 C 0.76611 0.70293 0.49359
 C313 C 0.71934 0.67615 0.49373
 C314 C 0.71626 0.62173 0.49305
 C315 C 0.76341 0.59355 0.49240
 C316 C 0.81275 0.61997 0.49258
 C317 C 0.81362 0.67580 0.49290
 O318 O 0.76013 0.75478 0.49434
 C319 C 0.70841 0.76071 0.49495
 C320 C 0.68176 0.71376 0.49460
 C321 C 0.62745 0.71060 0.49503
 C322 C 0.59930 0.75787 0.49567
 C323 C 0.62570 0.80714 0.49588
 C324 C 0.68125 0.80831 0.49567
 H325 H 0.67886 0.60162 0.49311
 H326 H 0.76108 0.55104 0.49190
 H327 H 0.85002 0.69773 0.49310
 H328 H 0.60743 0.67309 0.49478
 H329 H 0.55689 0.75586 0.49599
 H330 H 0.70276 0.84500 0.49577
 C331 C 0.23785 0.29327 0.50933
 C332 C 0.28439 0.31938 0.51758
 C333 C 0.28734 0.37349 0.52430
 C334 C 0.24034 0.40201 0.52204
 C335 C 0.19165 0.37615 0.51316
 C336 C 0.19059 0.32077 0.50716
 O337 O 0.24389 0.24182 0.50295
 C338 C 0.29542 0.23539 0.50720
 C339 C 0.32189 0.28166 0.51618
 C340 C 0.37606 0.28429 0.52112
 C341 C 0.40421 0.23724 0.51659
 C342 C 0.37799 0.18870 0.50719
 C343 C 0.32259 0.18801 0.50263
 H344 H 0.32452 0.39311 0.53066
 H345 H 0.24205 0.44426 0.52706
 H346 H 0.15431 0.29975 0.49999
 H347 H 0.39598 0.32125 0.52804
 H348 H 0.44650 0.23887 0.52045
 H349 H 0.30122 0.15189 0.49549
 C350 C 0.20599 0.76231 -0.01815
 C351 C 0.17961 0.71540 -0.02283
 C352 C 0.12540 0.71240 -0.02781
 C353 C 0.09708 0.75970 -0.02758
 C354 C 0.12318 0.80887 -0.02246
 C355 C 0.17867 0.80989 -0.01799
 O356 O 0.25756 0.75636 -0.01322
 C357 C 0.26380 0.70454 -0.01479
 C358 C 0.21730 0.67773 -0.02060
 C359 C 0.21461 0.62324 -0.02267
 C360 C 0.26180 0.59515 -0.01871
 C361 C 0.31059 0.62172 -0.01275
 C362 C 0.31130 0.67743 -0.01083
 H363 H 0.10554 0.67495 -0.03132
 H364 H 0.05477 0.75779 -0.03099
 H365 H 0.19998 0.84646 -0.01362
 H366 H 0.17749 0.60303 -0.02718
 H367 H 0.26013 0.55266 -0.02051
 H368 H 0.34760 0.69909 -0.00628
 C369 C 0.02972 0.19110 0.24658
 C370 C 0.07124 0.22378 0.23588
 C371 C 0.10322 0.21728 0.19269
 C372 C 0.09141 0.17603 0.15830
 C373 C 0.04835 0.14211 0.16750
 C374 C 0.01758 0.14899 0.21295
 O375 O 0.00236 0.20685 0.28793
 C376 C 0.02710 0.25043 0.30331
 C377 C 0.06943 0.26232 0.27249
 C378 C 0.09878 0.30795 0.27856
 C379 C 0.08380 0.34315 0.31783
 C380 C 0.04057 0.33208 0.35039
 C381 C 0.01206 0.28469 0.34364
 H382 H 0.13515 0.24405 0.18482
 H383 H 0.11502 0.17124 0.12356
 H384 H -0.01634 0.12452 0.22004
 H385 H 0.13126 0.31679 0.25308
 H386 H 0.10557 0.37944 0.32269
 H387 H -0.02181 0.27605 0.36737
 C388 C 0.52863 0.28543 0.76927
 C389 C 0.55589 0.24371 0.79032
 C390 C 0.57705 0.24406 0.84044
 C391 C 0.56903 0.28897 0.87077
 C392 C 0.53982 0.33234 0.85092
 C393 C 0.52021 0.33095 0.79888
 O394 O 0.51008 0.27555 0.72144
 C395 C 0.52579 0.22648 0.71255
 C396 C 0.55377 0.20540 0.75375
 C397 C 0.57140 0.15379 0.75472
 C398 C 0.55961 0.12229 0.71137
 C399 C 0.53113 0.14291 0.66809
 C400 C 0.51446 0.19600 0.66830
 H401 H 0.59816 0.21054 0.85601
 H402 H 0.58499 0.28946 0.91020
 H403 H 0.49735 0.36310 0.78286
 H404 H 0.59274 0.13810 0.78801
 H405 H 0.57292 0.08181 0.71133
 H406 H 0.49212 0.21234 0.63594
 C407 C -0.03422 0.80808 0.74774
 C408 C -0.07454 0.77442 0.75988
 C409 C -0.10545 0.78065 0.80391
 C410 C -0.09369 0.82254 0.83765
 C411 C -0.05163 0.85736 0.82710
 C412 C -0.02214 0.85078 0.78073
 O413 O -0.00757 0.79259 0.70582
 C414 C -0.03148 0.74816 0.69154
 C415 C -0.07260 0.73541 0.72361
 C416 C -0.10057 0.68872 0.71884
 C417 C -0.08544 0.65341 0.67962
 C418 C -0.04349 0.66543 0.64571
 C419 C -0.01645 0.71386 0.65121
 H420 H -0.13647 0.75318 0.81293
 H421 H -0.11638 0.82699 0.87303
 H422 H 0.01105 0.87586 0.77249
 H423 H -0.13206 0.67915 0.74529
 H424 H -0.10609 0.61636 0.67586
 H425 H 0.01652 0.72328 0.62655
 C426 C 0.46472 0.71250 0.22633
 C427 C 0.43641 0.75377 0.20574
 C428 C 0.41523 0.75332 0.15557
 C429 C 0.42459 0.70892 0.12477
 C430 C 0.45503 0.66632 0.14435
 C431 C 0.47428 0.66761 0.19642
 O432 O 0.48414 0.72259 0.27367
 C433 C 0.46805 0.77138 0.28280
 C434 C 0.43883 0.79217 0.24229
 C435 C 0.42149 0.84394 0.24147
 C436 C 0.43509 0.87579 0.28414
 C437 C 0.46494 0.85525 0.32651
 C438 C 0.48104 0.80209 0.32626
 H439 H 0.39353 0.78655 0.14018
 H440 H 0.40909 0.70834 0.08516
 H441 H 0.49832 0.63613 0.21208
 H442 H 0.39932 0.85955 0.20867
 H443 H 0.42238 0.91643 0.28426
 H444 H 0.50459 0.78590 0.35784
 C445 C -0.02014 0.78067 0.22008
 C446 C -0.03928 0.73617 0.19611
 C447 C -0.05046 0.73308 0.14318
 C448 C -0.04171 0.77782 0.11316
 C449 C -0.02239 0.82534 0.13615
 C450 C -0.01173 0.82656 0.19093
 O451 O -0.00998 0.77352 0.27081
 C452 C -0.02311 0.72344 0.27853
 C453 C -0.04145 0.69929 0.23383
 C454 C -0.05596 0.64683 0.23162
 C455 C -0.05058 0.61738 0.27734
 C456 C -0.03079 0.64052 0.32412
 C457 C -0.01767 0.69473 0.32504
 H458 H -0.06493 0.69720 0.12540
 H459 H -0.05062 0.77495 0.07173
 H460 H 0.00347 0.86147 0.21004
 H461 H -0.07015 0.62896 0.19573
 H462 H -0.06135 0.57620 0.27604
 H463 H -0.00190 0.71322 0.35999
 C464 C 0.47036 0.69315 0.75013
 C465 C 0.43712 0.73184 0.76759
 C466 C 0.41558 0.73218 0.81698
 C467 C 0.42937 0.69144 0.85066
 C468 C 0.46354 0.65004 0.83472
 C469 C 0.48306 0.65013 0.78266
 O470 O 0.49046 0.70436 0.70339
 C471 C 0.46925 0.75099 0.69168
 C472 C 0.43601 0.76883 0.72984
 C473 C 0.41210 0.81779 0.72857
 C474 C 0.42354 0.85063 0.68658
 C475 C 0.45850 0.83444 0.64691
 C476 C 0.48096 0.78328 0.64867
 H477 H 0.39033 0.76378 0.82989
 H478 H 0.41271 0.69233 0.88952
 H479 H 0.50993 0.62009 0.76932
 H480 H 0.38667 0.83092 0.75965
 H481 H 0.40599 0.88940 0.68550
 H482 H 0.50864 0.77048 0.61940
 C483 C 0.53530 0.27230 0.21248
 C484 C 0.56273 0.29340 0.25409
 C485 C 0.58010 0.34514 0.25527
 C486 C 0.56847 0.37671 0.21188
 C487 C 0.54049 0.35618 0.16820
 C488 C 0.52424 0.30288 0.16818
 O489 O 0.51940 0.22327 0.22116
 C490 C 0.53721 0.21337 0.26928
 C491 C 0.56420 0.25506 0.29080
 C492 C 0.58421 0.25470 0.34145
 C493 C 0.57526 0.20991 0.37174
 C494 C 0.54634 0.16656 0.35138
 C495 C 0.52799 0.16795 0.29881
 H496 H 0.60092 0.36099 0.28887
 H497 H 0.58117 0.41728 0.21227
 H498 H 0.50201 0.28652 0.13572
 H499 H 0.60502 0.28821 0.35752
 H500 H 0.59015 0.20954 0.41157
 H501 H 0.50528 0.13590 0.28232
 C502 C 0.03061 0.21659 0.77327
 C503 C 0.05251 0.25997 0.79702
 C504 C 0.06557 0.26181 0.84962
 C505 C 0.05529 0.21726 0.87952
 C506 C 0.03227 0.17124 0.85684
 C507 C 0.02060 0.17092 0.80228
 O508 O 0.01852 0.22495 0.72317
 C509 C 0.03307 0.27464 0.71562
 C510 C 0.05422 0.29752 0.75976
 C511 C 0.06957 0.34984 0.76215
 C512 C 0.06213 0.38038 0.71727
 C513 C 0.03977 0.35831 0.67118
 C514 C 0.02586 0.30431 0.67002
 H515 H 0.08229 0.29675 0.86732
 H516 H 0.06552 0.21921 0.92071
 H517 H 0.00274 0.13717 0.78338
 H518 H 0.08565 0.36686 0.79767
 H519 H 0.07328 0.42146 0.71861
 H520 H 0.00789 0.28672 0.63565
 C521 C 0.24633 -0.01630 0.19119
 C522 C 0.23720 -0.05423 0.22825
 C523 C 0.19576 -0.08962 0.22499
 C524 C 0.16125 -0.08505 0.18231
 C525 C 0.16901 -0.04603 0.14373
 C526 C 0.21281 -0.01174 0.14755
 O527 O 0.28585 0.01566 0.20426
 C528 C 0.30170 -0.00246 0.25071
 C529 C 0.27289 -0.04518 0.26674
 C530 C 0.27994 -0.06899 0.31495
 C531 C 0.31817 -0.04799 0.34830
 C532 C 0.34856 -0.00386 0.33374
 C533 C 0.34103 0.01891 0.28356
 H534 H 0.18903 -0.11840 0.25533
 H535 H 0.12741 -0.11073 0.18012
 H536 H 0.21838 0.01958 0.11949
 H537 H 0.25655 -0.10235 0.32674
 H538 H 0.32485 -0.06683 0.38548
 H539 H 0.36382 0.05251 0.27129
 C540 C 0.29781 0.49575 0.76001
 C541 C 0.25199 0.50412 0.78648
 C542 C 0.24628 0.49573 0.83930
 C543 C 0.29032 0.48021 0.86733
 C544 C 0.34081 0.47654 0.84346
 C545 C 0.34419 0.48323 0.78808
 O546 O 0.29145 0.50135 0.70826
 C547 C 0.24076 0.51431 0.70307
 C548 C 0.21609 0.51790 0.75041
 C549 C 0.16426 0.53224 0.75626
 C550 C 0.13502 0.54081 0.71107
 C551 C 0.15681 0.53228 0.66070
 C552 C 0.21137 0.52072 0.65644
 H553 H 0.20889 0.50064 0.85843
 H554 H 0.28468 0.47446 0.90888
 H555 H 0.38123 0.47984 0.76799
 H556 H 0.14661 0.53597 0.79445
 H557 H 0.09414 0.55122 0.71584
 H558 H 0.22927 0.51394 0.61878
 C559 C 0.78479 0.00163 0.77249
 C560 C 0.73905 -0.00896 0.79830
 C561 C 0.73363 -0.00380 0.85186
 C562 C 0.77775 0.01120 0.88082
 C563 C 0.82741 0.01872 0.85658
 C564 C 0.83045 0.01479 0.80097
 O565 O 0.77948 -0.00262 0.72061
 C566 C 0.72941 -0.01679 0.71413
 C567 C 0.70377 -0.02213 0.76086
 C568 C 0.65183 -0.03725 0.76455
 C569 C 0.62399 -0.04509 0.71802
 C570 C 0.64752 -0.03606 0.66855
 C571 C 0.70181 -0.02328 0.66656
 H572 H 0.69659 -0.01112 0.87085
 H573 H 0.77315 0.01425 0.92279
 H574 H 0.86706 0.02072 0.78069
 H575 H 0.63303 -0.04192 0.80205
 H576 H 0.58299 -0.05572 0.72089
 H577 H 0.72093 -0.01561 0.62970
 C578 C 0.73664 0.50342 0.20837
 C579 C 0.71073 0.49514 0.25444
 C580 C 0.65769 0.50327 0.26071
 C581 C 0.62889 0.51822 0.21691
 C582 C 0.65238 0.52188 0.16663
 C583 C 0.70786 0.51597 0.16256
 O584 O 0.78853 0.49702 0.21374
 C585 C 0.79449 0.48370 0.26411
 C586 C 0.74744 0.48078 0.28952
 C587 C 0.74235 0.46579 0.34104
 C588 C 0.78801 0.45604 0.36927
 C589 C 0.83855 0.46403 0.34693
 C590 C 0.84170 0.47587 0.29237
 H591 H 0.63895 0.49823 0.29820
 H592 H 0.58722 0.52398 0.22234
 H593 H 0.72733 0.51902 0.12524
 H594 H 0.70434 0.46238 0.35925
 H595 H 0.78322 0.44512 0.40990
 H596 H 0.87906 0.48184 0.27350
 C597 C 0.22860 0.00329 0.78095
 C598 C 0.21028 0.03841 0.74421
 C599 C 0.16073 0.06059 0.74576
 C600 C 0.12833 0.04611 0.78695
 C601 C 0.14564 0.01003 0.82595
 C602 C 0.19697 -0.01135 0.82319
 O603 O 0.27644 -0.01455 0.77012
 C604 C 0.28814 0.00995 0.72567
 C605 C 0.24881 0.04288 0.70861
 C606 C 0.25114 0.07107 0.66230
 C607 C 0.29551 0.06434 0.63138
 C608 C 0.33650 0.02977 0.64698
 C609 C 0.33329 0.00296 0.69552
 H610 H 0.14728 0.08787 0.71606
 H611 H 0.08972 0.06378 0.78866
 H612 H 0.21128 -0.03894 0.85221
 H613 H 0.21938 0.09652 0.64983
 H614 H 0.29748 0.08549 0.59469
 H615 H 0.36364 -0.02407 0.70814
 C616 C 0.29071 0.50514 0.23074
 C617 C 0.24828 0.52867 0.20676
 C618 C 0.24618 0.54002 0.15381
 C619 C 0.28972 0.52673 0.12394
 C620 C 0.33467 0.50288 0.14711
 C621 C 0.33546 0.49237 0.20164
 O622 O 0.28257 0.49535 0.28125
 C623 C 0.23405 0.51319 0.28890
 C624 C 0.21185 0.53422 0.24437
 C625 C 0.16096 0.55336 0.24202
 C626 C 0.13088 0.54960 0.28719
 C627 C 0.15178 0.52682 0.33357
 C628 C 0.20466 0.50937 0.33491
 H629 H 0.21197 0.55803 0.13595
 H630 H 0.28861 0.53588 0.08258
 H631 H 0.36908 0.47406 0.22031
 H632 H 0.14454 0.56945 0.20627
 H633 H 0.09067 0.56340 0.28569
 H634 H 0.22123 0.49101 0.36950
 C635 C 0.80686 0.00062 0.24396
 C636 C 0.77799 0.04609 0.23922
 C637 C 0.78712 0.08367 0.20106
 C638 C 0.82717 0.07371 0.16543
 C639 C 0.85733 0.02700 0.16862
 C640 C 0.84785 -0.00976 0.20913
 O641 O 0.78878 -0.03130 0.28098
 C642 C 0.74754 -0.00536 0.29966
 C643 C 0.73962 0.04217 0.27513
 C644 C 0.69723 0.07460 0.28532
 C645 C 0.66101 0.05733 0.32207
 C646 C 0.66756 0.00853 0.34812
 C647 C 0.71204 -0.02311 0.33754
 H648 H 0.76319 0.11870 0.19784
 H649 H 0.83406 0.10190 0.13449
 H650 H 0.86955 -0.04630 0.21149
 H651 H 0.69162 0.11146 0.26490
 H652 H 0.62749 0.08207 0.33021
 H653 H 0.71756 -0.06078 0.35647
 C654 C 0.73973 0.51807 0.79442
 C655 C 0.72037 0.54527 0.75196
 C656 C 0.67121 0.56868 0.75087
 C657 C 0.63986 0.56284 0.79498
 C658 C 0.65787 0.53400 0.83906
 C659 C 0.70913 0.51226 0.83941
 O660 O 0.78635 0.49627 0.78540
 C661 C 0.79617 0.50980 0.73609
 C662 C 0.75667 0.53964 0.71420
 C663 C 0.75620 0.55532 0.66231
 C664 C 0.79817 0.53959 0.63136
 C665 C 0.83991 0.50910 0.65240
 C666 C 0.83943 0.49452 0.70594
 H667 H 0.65685 0.58934 0.71663
 H668 H 0.60081 0.57965 0.79435
 H669 H 0.72327 0.48907 0.87212
 H670 H 0.72422 0.57820 0.64596
 H671 H 0.79843 0.55172 0.59083
 H672 H 0.87063 0.47100 0.72287
   
