data_POSCAR
  _audit_creation_date              2014-09-24
  _audit_creation_method            'ToBaCCo'
  _symmetry_space_group_name_H-M    'P1'
  _symmetry_Int_Tables_number       1
  _symmetry_cell_setting            triclinic
  loop_
  _symmetry_equiv_pos_as_xyz
 x,y,z
_cell_length_a 22.8038
_cell_length_b 24.1844
_cell_length_c 23.1415
_cell_angle_alpha 87.926700
_cell_angle_beta 96.187100
_cell_angle_gamma 90.113900
loop_
  _atom_site_label
  _atom_site_type_symbol
  _atom_site_fract_x
  _atom_site_fract_y
  _atom_site_fract_z
C1 C 0.20595 1.23081 0.18612
 N2 N 0.17987 1.20895 0.23203
 C3 C 0.19949 1.16018 0.25840
 N4 N 0.24492 1.13327 0.23822
 C5 C 0.27098 1.15454 0.19240
 N6 N 0.25128 1.20328 0.16652
 C7 C 0.84094 0.72583 0.19230
 N8 N 0.79210 0.74627 0.15952
 C9 C 0.76534 0.79280 0.17495
 N10 N 0.78819 0.81935 0.22302
 C11 C 0.83706 0.79948 0.25598
 N12 N 0.86306 0.75266 0.24040
 C13 C 0.81036 1.25578 -0.18294
 N14 N 0.83664 1.24226 -0.23057
 C15 C 0.81700 1.19862 -0.26261
 N16 N 0.77079 1.16813 -0.24642
 C17 C 0.74442 1.18117 -0.19881
 N18 N 0.76448 1.22499 -0.16736
 C19 C 0.16178 0.73859 -0.18125
 N20 N 0.13368 0.76614 -0.22824
 C21 C 0.15631 0.81354 -0.24965
 N22 N 0.20797 0.83345 -0.22355
 C23 C 0.23678 0.80605 -0.17647
 N24 N 0.21328 0.75879 -0.15520
 C25 C 0.59540 1.07570 -0.01666
 H26 H 0.59582 1.07295 0.03016
 C27 C 0.63469 1.11077 -0.04194
 H28 H 0.66536 1.13506 -0.01425
 C29 C 0.55491 1.04696 -0.10937
 H30 H 0.52386 1.02173 -0.13533
 C31 C 0.59402 1.08127 -0.13660
 H32 H 0.59168 1.08281 -0.18356
 N33 N 0.55608 1.04522 -0.05040
 C34 C 0.42108 1.01695 0.06654
 H35 H 0.41986 0.97220 0.06845
 C36 C 0.38327 1.04702 0.09724
 H37 H 0.35260 1.02471 0.12194
 C38 C 0.46016 1.09974 0.02848
 H39 H 0.48902 1.12018 0.00045
 C40 C 0.42286 1.13144 0.05816
 H41 H 0.42389 1.17613 0.05322
 Zn42 Zn 0.50595 0.99954 -0.00957
 N43 N 0.45893 1.04353 0.03349
 C44 C 0.55843 0.95595 0.09948
 N45 N 0.55557 0.95198 0.04077
 C46 C 0.59236 0.91780 0.01624
 C47 C 0.63415 0.88576 0.05110
 C48 C 0.59973 0.92488 0.13594
 C49 C 0.41467 0.98851 -0.09854
 C50 C 0.37021 0.96170 -0.13309
 C51 C 0.40621 0.87429 -0.08946
 C52 C 0.45021 0.90281 -0.05586
 N53 N 0.45330 0.95894 -0.06064
 H54 H 0.53021 0.98464 0.11816
 H55 H 0.59025 0.91663 -0.03063
 H56 H 0.66419 0.86052 0.03024
 H57 H 0.60233 0.92947 0.18254
 H58 H 0.41753 1.03318 -0.10077
 H59 H 0.33916 0.98605 -0.16227
 H60 H 0.40480 0.82968 -0.08485
 H61 H 0.48068 0.88011 -0.02477
 C62 C 0.38409 1.10520 0.09340
 C63 C 0.63467 1.11370 -0.10252
 C64 C 0.36462 0.90404 -0.12784
 C65 C 0.63838 0.88936 0.11194
 C66 C -0.01489 0.56728 1.09279
 H67 H 0.03268 0.56653 1.10167
 C68 C -0.04765 0.60583 1.11924
 H69 H -0.02429 0.63472 1.14793
 C70 C -0.10153 0.53330 1.04007
 H71 H -0.12207 0.50617 1.00777
 C72 C -0.13608 0.57134 1.06546
 H73 H -0.18324 0.57269 1.05298
 N74 N -0.04203 0.53222 1.05388
 C75 C 0.08882 0.40388 1.04028
 H76 H 0.09227 0.40767 0.99404
 C77 C 0.11872 0.36148 1.07364
 H78 H 0.14448 0.33283 1.05194
 C79 C 0.04610 0.43427 1.12251
 H80 H 0.01625 0.46164 1.14090
 C81 C 0.07528 0.39237 1.15760
 H82 H 0.06822 0.38830 1.20310
 Zn83 Zn 0.00764 0.48861 1.01358
 N84 N 0.05323 0.43904 1.06493
 C85 C 0.11557 0.53891 0.98549
 N86 N 0.05567 0.53857 0.97544
 C87 C 0.02618 0.57730 0.93957
 C88 C 0.05686 0.61804 0.91129
 C89 C 0.14819 0.57921 0.95806
 C90 C -0.07246 0.40566 0.97995
 C91 C -0.10216 0.36815 0.94285
 C92 C -0.05804 0.41187 0.86259
 C93 C -0.02916 0.44858 0.90129
 N94 N -0.03684 0.44482 0.95878
 H95 H 0.13806 0.50861 1.01542
 H96 H -0.02153 0.57686 0.93364
 H97 H 0.03188 0.64920 0.88446
 H98 H 0.19582 0.57940 0.96667
 H99 H -0.07643 0.40265 1.02613
 H100 H -0.12825 0.33620 0.96157
 H101 H -0.05066 0.41476 0.81712
 H102 H 0.00073 0.47886 0.88553
 C103 C 0.11201 0.35516 1.13329
 C104 C -0.10924 0.60844 1.10539
 C105 C -0.09505 0.37095 0.88314
 C106 C 0.11885 0.61910 0.91996
 C107 C 1.00707 -0.04927 0.58883
 H108 H 0.95944 -0.05089 0.58616
 C109 C 1.04104 -0.08053 0.63182
 H110 H 1.01882 -0.10540 0.66257
 C111 C 1.09315 -0.01199 0.55360
 H112 H 1.11322 0.01553 0.52364
 C113 C 1.12891 -0.04240 0.59623
 H114 H 1.17642 -0.03847 0.59845
 N115 N 1.03339 -0.01651 0.55029
 C116 C 1.02510 0.12493 0.44259
 H117 H 0.99779 0.14710 0.46936
 C118 C 1.05733 0.15417 0.40330
 H119 H 1.05499 0.19892 0.40039
 C120 C 1.05986 0.03969 0.41193
 H121 H 1.05960 -0.00506 0.41485
 C122 C 1.09253 0.06707 0.37225
 H123 H 1.11628 0.04253 0.34430
 Zn124 Zn 0.98278 0.02493 0.49481
 N125 N 1.02736 0.06868 0.44634
 C126 C 0.96107 0.10321 0.57605
 N127 N 0.93424 0.06806 0.53701
 C128 C 0.87521 0.05850 0.53386
 C129 C 0.84097 0.08395 0.57183
 C130 C 0.92848 0.12964 0.61479
 C131 C 0.94381 -0.07883 0.45072
 C132 C 0.91275 -0.11317 0.41095
 C133 C 0.86678 -0.03207 0.36164
 C134 C 0.89885 0.00070 0.40222
 N135 N 0.93654 -0.02299 0.44557
 H136 H 1.00837 0.10877 0.57877
 H137 H 0.85493 0.02914 0.50383
 H138 H 0.79436 0.07450 0.56997
 H139 H 0.95167 0.15517 0.64715
 H140 H 0.97466 -0.09690 0.48485
 H141 H 0.91904 -0.15744 0.41634
 H142 H 0.83756 -0.01244 0.32691
 H143 H 0.89450 0.04527 0.39868
 C144 C 1.09208 0.12524 0.36790
 C145 C 1.10295 -0.07786 0.63542
 C146 C 0.87441 -0.08965 0.36495
 C147 C 0.86753 0.11954 0.61342
 C148 C 0.18505 0.27921 1.15617
 C149 C 0.13843 0.30791 1.16980
 H150 H 0.20754 0.29282 1.11935
 H151 H 0.11782 0.29601 1.20847
 C152 C -0.12878 0.67987 1.17564
 C153 C -0.14563 0.65225 1.12735
 H154 H -0.08910 0.66747 1.20290
 H155 H -0.18707 0.66269 1.10181
 C156 C -0.16844 0.29861 0.85243
 C157 C -0.12150 0.32961 0.84224
 H158 H -0.19100 0.30572 0.89031
 H159 H -0.10083 0.32434 0.80273
 C160 C 0.13291 0.68977 0.84277
 C161 C 0.15315 0.66321 0.89274
 H162 H 0.09199 0.67685 0.81901
 H163 H 0.19558 0.67443 0.91486
 C164 C 1.17192 0.13513 0.30356
 C165 C 1.12440 0.15612 0.32465
 H166 H 1.18992 0.09588 0.32109
 H167 H 1.10810 0.19680 0.30968
 C168 C 1.12398 -0.15785 0.70408
 C169 C 1.14094 -0.10948 0.68104
 H170 H 1.08250 -0.17598 0.68701
 H171 H 1.18389 -0.09252 0.69536
 C172 C 0.86307 -0.17206 0.30360
 C173 C 0.84288 -0.12319 0.31907
 H174 H 0.90307 -0.18947 0.32650
 H175 H 0.80439 -0.10461 0.29426
 C176 C 0.84713 0.18387 0.69071
 C177 C 0.83175 0.14036 0.65796
 H178 H 0.88517 0.20841 0.68210
 H179 H 0.79175 0.11779 0.66464
 C180 C 0.31692 1.12215 0.16868
 C181 C 0.34246 1.13947 0.12176
 H182 H 0.32855 1.08243 0.18977
 H183 H 0.33245 1.18050 0.10291
 C184 C 0.69716 1.14552 -0.17939
 C185 C 0.67716 1.15156 -0.12757
 H186 H 0.68171 1.11184 -0.20654
 H187 H 0.69574 1.18385 -0.09992
 C188 C 0.29124 0.82859 -0.14590
 C189 C 0.31422 0.87719 -0.16183
 H190 H 0.31046 0.80581 -0.10743
 H191 H 0.29253 0.90051 -0.19894
 C192 C 0.71457 0.81612 0.13710
 C193 C 0.68549 0.86098 0.15119
 H194 H 0.70188 0.79624 0.09651
 H195 H 0.69690 0.87837 0.19344
   
