data_POSCAR
  _audit_creation_date              2014-09-24
  _audit_creation_method            'ToBaCCo'
  _symmetry_space_group_name_H-M    'P1'
  _symmetry_Int_Tables_number       1
  _symmetry_cell_setting            triclinic
  loop_
  _symmetry_equiv_pos_as_xyz
 x,y,z
_cell_length_a 25.1063
_cell_length_b 25.0355
_cell_length_c 32.8746
_cell_angle_alpha 89.466800
_cell_angle_beta 91.217800
_cell_angle_gamma 88.397600
loop_
  _atom_site_label
  _atom_site_type_symbol
  _atom_site_fract_x
  _atom_site_fract_y
  _atom_site_fract_z
O1 O -0.04437 0.55130 0.95825
 O2 O -0.04617 0.44666 1.03608
 O3 O -0.04390 0.55100 1.03735
 O4 O -0.03545 0.44690 0.95746
 O5 O 0.05219 0.45004 0.96186
 O6 O 0.04386 0.54845 1.04242
 O7 O 0.04155 0.44435 1.04035
 O8 O 0.04323 0.55394 0.96347
 Cu9 Cu -0.05114 0.49890 0.99682
 Cu10 Cu 0.05383 0.49917 1.00251
 C11 C -0.00087 0.57133 0.94784
 C12 C -0.00317 0.42678 1.05134
 C13 C -0.00078 0.56749 1.05339
 C14 C 0.01049 0.43096 0.94607
 O15 O 0.45166 -0.05472 0.46019
 O16 O 0.55432 -0.04705 0.53884
 O17 O 0.45123 -0.04139 0.53797
 O18 O 0.55495 -0.03409 0.45887
 O19 O 0.54418 0.05361 0.45845
 O20 O 0.44756 0.04672 0.53849
 O21 O 0.55054 0.04095 0.53660
 O22 O 0.44081 0.03296 0.45895
 Cu23 Cu 0.50444 -0.05215 0.49848
 Cu24 Cu 0.49440 0.05137 0.49748
 C25 C 0.42757 -0.01308 0.44651
 C26 C 0.57107 -0.00265 0.55115
 C27 C 0.43186 0.00239 0.55178
 C28 C 0.56713 0.01183 0.44526
 C29 C -0.07741 0.01404 0.27034
 C30 C -0.02853 0.01954 0.25130
 C31 C -0.01725 0.06738 0.23134
 C32 C -0.05497 0.10981 0.22962
 C33 C -0.10391 0.10401 0.24908
 C34 C -0.11531 0.05639 0.26993
 C35 C 0.01115 -0.02477 0.25246
 C36 C 0.00028 -0.07273 0.23281
 C37 C 0.03834 -0.11490 0.23299
 C38 C 0.08710 -0.10866 0.25415
 C39 C 0.09823 -0.06080 0.27441
 C40 C 0.06002 -0.01879 0.27296
 H41 H -0.08492 -0.02270 0.28666
 H42 H 0.02040 0.07079 0.21613
 H43 H -0.03720 -0.07629 0.21623
 H44 H 0.06742 0.01817 0.28873
 H45 H -0.13305 0.13673 0.24814
 H46 H 0.11655 -0.14110 0.25477
 C47 C -0.00670 -0.06396 0.76929
 C48 C -0.01640 -0.01487 0.74944
 C49 C -0.06584 -0.00388 0.73025
 C50 C -0.10569 -0.04215 0.73018
 C51 C -0.09569 -0.09117 0.75072
 C52 C -0.04630 -0.10236 0.77051
 C53 C 0.02570 0.02475 0.74846
 C54 C 0.07330 0.01296 0.72857
 C55 C 0.11414 0.05008 0.72779
 C56 C 0.10694 0.09893 0.74809
 C57 C 0.05951 0.11096 0.76867
 C58 C 0.01873 0.07370 0.76815
 H59 H 0.03139 -0.07145 0.78472
 H60 H -0.07236 0.03377 0.71414
 H61 H 0.07776 -0.02470 0.71285
 H62 H -0.01773 0.08168 0.78436
 H63 H -0.12629 -0.12078 0.75112
 H64 H 0.13845 0.12758 0.74807
 C65 C 0.00312 -0.30337 0.13763
 C66 C -0.04631 -0.31847 0.12103
 C67 C -0.04831 -0.36172 0.09434
 C68 C -0.00130 -0.38977 0.08424
 C69 C 0.04687 -0.37412 0.10238
 N70 N 0.04783 -0.33185 0.12781
 C71 C 0.00959 -0.25559 0.16332
 N72 N 0.05870 -0.23399 0.16591
 C73 C 0.06879 -0.18990 0.18817
 C74 C 0.02796 -0.16447 0.20987
 C75 C -0.02298 -0.18640 0.20815
 C76 C -0.03235 -0.23190 0.18499
 H77 H -0.08624 -0.37224 0.08081
 H78 H 0.08416 -0.39459 0.09568
 H79 H 0.10848 -0.17415 0.18806
 H80 H -0.05546 -0.16869 0.22501
 H81 H -0.08274 -0.29624 0.12720
 H82 H -0.07168 -0.24843 0.18468
 C83 C -0.01435 0.29777 0.13363
 C84 C 0.03629 0.31573 0.12329
 C85 C 0.04036 0.35921 0.09655
 C86 C -0.00579 0.38473 0.07982
 C87 C -0.05552 0.36579 0.09153
 N88 N -0.05833 0.32352 0.11740
 C89 C -0.02249 0.25032 0.15992
 N90 N -0.07164 0.22858 0.15952
 C91 C -0.08308 0.18468 0.18190
 C92 C -0.04359 0.15945 0.20666
 C93 C 0.00724 0.18151 0.20815
 C94 C 0.01794 0.22694 0.18502
 H95 H 0.07962 0.37206 0.08844
 H96 H -0.09243 0.38392 0.07978
 H97 H -0.12267 0.16883 0.17949
 H98 H 0.03862 0.16387 0.22746
 H99 H 0.07251 0.29597 0.13460
 H100 H 0.05721 0.24339 0.18732
 C101 C 0.30320 0.00959 0.63496
 C102 C 0.32026 -0.04048 0.62014
 C103 C 0.36352 -0.04361 0.59393
 C104 C 0.38958 0.00290 0.58252
 C105 C 0.37211 0.05173 0.59899
 N106 N 0.32990 0.05378 0.62399
 C107 C 0.25523 0.01735 0.65995
 N108 N 0.23210 0.06715 0.66102
 C109 C 0.18776 0.07848 0.68258
 C110 C 0.16368 0.03826 0.70512
 C111 C 0.18715 -0.01339 0.70494
 C112 C 0.23287 -0.02403 0.68248
 H113 H 0.37549 -0.08201 0.58168
 H114 H 0.39106 0.08866 0.59127
 H115 H 0.17083 0.11870 0.68133
 H116 H 0.17053 -0.04544 0.72252
 H117 H 0.29953 -0.07655 0.62727
 H118 H 0.25059 -0.06389 0.68339
 C119 C -0.29869 -0.00702 0.63414
 C120 C -0.31975 0.04283 0.62044
 C121 C -0.36388 0.04481 0.59356
 C122 C -0.38691 -0.00267 0.58014
 C123 C -0.36512 -0.05142 0.59546
 N124 N -0.32229 -0.05220 0.62124
 C125 C -0.24999 -0.01338 0.66026
 N126 N -0.22508 -0.06239 0.66201
 C127 C -0.17989 -0.07254 0.68446
 C128 C -0.15662 -0.03183 0.70716
 C129 C -0.18189 0.01901 0.70635
 C130 C -0.22856 0.02841 0.68306
 H131 H -0.37904 0.08337 0.58262
 H132 H -0.38129 -0.08928 0.58647
 H133 H -0.16156 -0.11214 0.68366
 H134 H -0.16579 0.05138 0.72395
 H135 H -0.30176 0.07984 0.62914
 H136 H -0.24753 0.06768 0.68348
 C137 C -0.00989 -0.29535 0.86531
 C138 C 0.04036 -0.31411 0.87994
 C139 C 0.04381 -0.35838 0.90628
 C140 C -0.00257 -0.38389 0.91804
 C141 C -0.05179 -0.36430 0.90218
 N142 N -0.05413 -0.32109 0.87696
 C143 C -0.01725 -0.24677 0.83951
 N144 N -0.06577 -0.22100 0.83886
 C145 C -0.07614 -0.17572 0.81669
 C146 C -0.03623 -0.15343 0.79320
 C147 C 0.01388 -0.17989 0.79274
 C148 C 0.02352 -0.22648 0.81575
 H149 H 0.08253 -0.37193 0.91803
 H150 H -0.08866 -0.38259 0.91038
 H151 H -0.11519 -0.15654 0.81831
 H152 H 0.04551 -0.16478 0.77435
 H153 H 0.07650 -0.29409 0.87238
 H154 H 0.06219 -0.24644 0.81437
 C155 C 0.03283 0.30263 0.86288
 C156 C 0.07504 0.33634 0.87205
 C157 C 0.06696 0.37902 0.89817
 C158 C 0.01678 0.38897 0.91501
 C159 C -0.02525 0.35615 0.90340
 N160 N -0.01621 0.31411 0.87816
 C161 C 0.04109 0.25422 0.83798
 N162 N -0.00056 0.23454 0.81616
 C163 C 0.00441 0.18956 0.79344
 C164 C 0.05352 0.16123 0.79208
 C165 C 0.09671 0.18064 0.81470
 C166 C 0.09069 0.22684 0.83761
 H167 H 0.10036 0.40385 0.90564
 H168 H -0.06466 0.36272 0.91543
 H169 H -0.02992 0.17617 0.77634
 H170 H 0.13485 0.15935 0.81559
 H171 H 0.11410 0.32986 0.85940
 H172 H 0.12429 0.23985 0.85574
 C173 C -0.30548 0.03309 0.36301
 C174 C -0.34075 0.07589 0.37112
 C175 C -0.38300 0.06822 0.39702
 C176 C -0.39087 0.01790 0.41475
 C177 C -0.35632 -0.02463 0.40433
 N178 N -0.31484 -0.01602 0.37921
 C179 C -0.25776 0.04070 0.33813
 N180 N -0.23699 -0.00119 0.31699
 C181 C -0.19243 0.00305 0.29445
 C182 C -0.16559 0.05159 0.29264
 C183 C -0.18628 0.09508 0.31442
 C184 C -0.23210 0.08985 0.33711
 H185 H -0.40914 0.10206 0.40357
 H186 H -0.36123 -0.06417 0.41705
 H187 H -0.17813 -0.03147 0.27793
 H188 H -0.16620 0.13279 0.31493
 H189 H -0.33587 0.11506 0.35776
 H190 H -0.24611 0.12358 0.35465
 C191 C 0.29332 -0.03531 0.36703
 C192 C 0.32919 -0.07806 0.37561
 C193 C 0.37361 -0.07007 0.40055
 C194 C 0.38304 -0.01949 0.41687
 C195 C 0.34764 0.02293 0.40603
 N196 N 0.30408 0.01403 0.38183
 C197 C 0.24374 -0.04321 0.34292
 N198 N 0.22167 -0.00175 0.32073
 C199 C 0.17581 -0.00647 0.29839
 C200 C 0.14907 -0.05511 0.29780
 C201 C 0.17092 -0.09807 0.32086
 C202 C 0.21798 -0.09231 0.34340
 H203 H 0.40025 -0.10386 0.40748
 H204 H 0.35366 0.06265 0.41768
 H205 H 0.16058 0.02765 0.28088
 H206 H 0.15098 -0.13582 0.32229
 H207 H 0.32316 -0.11742 0.36330
 H208 H 0.23308 -0.12567 0.36180
   
