data_POSCAR
  _audit_creation_date              2014-09-24
  _audit_creation_method            'ToBaCCo'
  _symmetry_space_group_name_H-M    'P1'
  _symmetry_Int_Tables_number       1
  _symmetry_cell_setting            triclinic
  loop_
  _symmetry_equiv_pos_as_xyz
 x,y,z
_cell_length_a 22.3316
_cell_length_b 24.0473
_cell_length_c 23.0994
_cell_angle_alpha 89.043400
_cell_angle_beta 91.652400
_cell_angle_gamma 90.251900
loop_
  _atom_site_label
  _atom_site_type_symbol
  _atom_site_fract_x
  _atom_site_fract_y
  _atom_site_fract_z
O1 O 0.54104 0.11525 -0.00003
 O2 O 0.45463 -0.03516 -0.11086
 O3 O 0.62246 0.01062 -0.05740
 O4 O 0.35302 0.05798 0.00143
 O5 O 0.56450 -0.05478 -0.09663
 O6 O 0.43467 0.10822 0.00098
 O7 O 0.42206 0.04352 -0.07990
 O8 O 0.61859 0.07183 0.02979
 C9 C 0.59554 0.11523 0.00982
 C10 C 0.42978 0.01116 -0.12110
 C11 C 0.60839 -0.02054 -0.09909
 C12 C 0.37780 0.10683 0.00348
 O13 O 0.44288 0.04998 0.10320
 O14 O 0.53482 -0.11795 -0.00254
 O15 O 0.59579 -0.01611 0.09386
 O16 O 0.36861 -0.04129 -0.03895
 O17 O 0.43473 -0.09845 -0.01271
 O18 O 0.55044 0.06232 0.10806
 O19 O 0.40207 -0.02040 0.06295
 O20 O 0.61768 -0.07506 0.00881
 Co21 Co 0.49350 0.07669 0.04876
 Co22 Co 0.49743 -0.06979 -0.05146
 Co23 Co 0.60302 -0.00157 0.01757
 Co24 Co 0.41623 0.01283 -0.00666
 O25 O 0.50590 0.00089 0.00186
 C26 C 0.41055 0.00772 0.10701
 C27 C 0.58919 -0.11929 0.00626
 C28 C 0.57996 0.02069 0.12738
 C29 C 0.38176 -0.09024 -0.02742
 O30 O -0.12174 0.45413 -0.05053
 O31 O 0.04960 0.55762 0.11536
 O32 O 0.02496 0.38842 0.04959
 O33 O -0.10868 0.55870 0.01853
 O34 O 0.04322 0.45258 0.11304
 O35 O -0.11647 0.55624 -0.07083
 O36 O -0.04232 0.57534 0.09480
 O37 O -0.07932 0.41530 0.02342
 C38 C -0.12547 0.42396 -0.00605
 C39 C 0.00095 0.57857 0.12882
 C40 C 0.03237 0.40277 0.10122
 C41 C -0.13944 0.56885 -0.02466
 O42 O -0.01000 0.54414 -0.11604
 O43 O 0.11755 0.45359 0.02537
 O44 O -0.02594 0.36566 -0.05522
 O45 O 0.04028 0.62072 0.02324
 O46 O 0.11544 0.56107 0.02598
 O47 O -0.02147 0.44034 -0.11195
 O48 O -0.02898 0.61121 -0.05714
 O49 O 0.06405 0.42420 -0.04790
 Co50 Co -0.06162 0.49911 -0.07852
 Co51 Co 0.07362 0.50572 0.06320
 Co52 Co -0.00874 0.42510 -0.01250
 Co53 Co -0.03363 0.58530 0.01795
 O54 O -0.00449 0.50655 0.00216
 C55 C -0.00875 0.59491 -0.10450
 C56 C 0.11269 0.42541 -0.01988
 C57 C -0.03119 0.38785 -0.10749
 C58 C 0.09559 0.60972 0.01857
 O59 O -0.00177 -0.12207 0.45269
 O60 O 0.12022 0.05787 0.54479
 O61 O 0.08056 -0.02948 0.40692
 O62 O 0.01660 -0.06170 0.62889
 O63 O 0.11321 0.04763 0.43953
 O64 O 0.00782 -0.12131 0.55921
 O65 O 0.10439 -0.02075 0.58304
 O66 O -0.01807 -0.06707 0.37950
 C67 C -0.00836 -0.11497 0.39935
 C68 C 0.14001 0.01707 0.57289
 C69 C 0.12216 0.00411 0.41182
 C70 C 0.01739 -0.11089 0.61175
 O71 O -0.09157 -0.06080 0.56622
 O72 O 0.00352 0.09407 0.43587
 O73 O -0.07320 0.01758 0.41305
 O74 O 0.04186 0.05619 0.63281
 O75 O 0.01115 0.09992 0.55027
 O76 O -0.10370 -0.06058 0.45416
 O77 O -0.05266 0.01635 0.60175
 O78 O 0.01332 0.04379 0.35623
 Co79 Co -0.04271 -0.08476 0.50726
 Co80 Co 0.05722 0.06734 0.49310
 Co81 Co 0.00610 -0.00356 0.41550
 Co82 Co 0.02638 0.00056 0.58485
 O83 O 0.01172 -0.01283 0.50105
 C84 C -0.09469 -0.01908 0.59910
 C85 C 0.01042 0.09260 0.38056
 C86 C -0.11446 -0.01699 0.42311
 C87 C 0.02379 0.10147 0.60543
 C88 C -0.30339 0.26169 0.01299
 N89 N -0.35546 0.25977 -0.01895
 N90 N -0.38814 0.21311 -0.02060
 C91 C -0.36900 0.16661 0.00854
 N92 N -0.31690 0.16870 0.04000
 N93 N -0.28483 0.21530 0.04228
 C94 C -0.26464 0.31111 0.01363
 N95 N -0.21919 0.31408 0.05369
 N96 N -0.17750 0.35347 0.04993
 C97 C -0.17953 0.39153 0.00596
 N98 N -0.22612 0.38981 -0.03319
 N99 N -0.26820 0.35042 -0.02925
 C100 C 0.26013 0.78468 -0.01885
 N101 N 0.24222 0.83711 -0.03359
 N102 N 0.28214 0.87839 -0.03740
 C103 C 0.34132 0.86870 -0.02618
 N104 N 0.35899 0.81615 -0.01188
 N105 N 0.31924 0.77498 -0.00840
 C106 C 0.21672 0.73917 -0.01200
 N107 N 0.23632 0.68662 -0.00084
 N108 N 0.19762 0.64532 0.00808
 C109 C 0.13782 0.65507 0.00648
 N110 N 0.11806 0.70758 -0.00501
 N111 N 0.15683 0.74892 -0.01417
 C112 C 0.27597 0.25028 -0.02760
 N113 N 0.25226 0.19915 -0.03771
 N114 N 0.28459 0.15346 -0.02729
 C115 C 0.34192 0.15721 -0.00656
 N116 N 0.36591 0.20833 0.00304
 N117 N 0.33331 0.25404 -0.00674
 C118 C 0.23828 0.30004 -0.03441
 N119 N 0.25289 0.34730 -0.00583
 N120 N 0.21449 0.38953 -0.00491
 C121 C 0.16056 0.38652 -0.03344
 N122 N 0.14694 0.34002 -0.06374
 N123 N 0.18503 0.29755 -0.06415
 C124 C -0.31321 0.73403 -0.00128
 N125 N -0.36407 0.74088 -0.03407
 N126 N -0.39678 0.78674 -0.02941
 C127 C -0.37933 0.82754 0.00752
 N128 N -0.32838 0.82071 0.04011
 N129 N -0.29636 0.77443 0.03629
 C130 C -0.27488 0.68541 -0.00750
 N131 N -0.24228 0.66653 0.03895
 N132 N -0.20179 0.62692 0.03308
 C133 C -0.19156 0.60509 -0.01950
 N134 N -0.22478 0.62330 -0.06618
 N135 N -0.26616 0.66260 -0.06012
 C136 C -0.00559 -0.30153 0.25583
 N137 N 0.04160 -0.33701 0.25537
 N138 N 0.04292 -0.37763 0.21677
 C139 C -0.00352 -0.38467 0.17829
 N140 N -0.05124 -0.35010 0.18010
 N141 N -0.05219 -0.30920 0.21798
 C142 C -0.00505 -0.25309 0.29318
 N143 N -0.03594 -0.20679 0.27637
 N144 N -0.03584 -0.16214 0.30962
 C145 C -0.00535 -0.16254 0.36118
 N146 N 0.02545 -0.20889 0.37816
 N147 N 0.02613 -0.25328 0.34443
 C148 C -0.02712 0.27528 0.75715
 N149 N -0.01659 0.33017 0.74607
 N150 N -0.01971 0.36724 0.78844
 C151 C -0.03332 0.35040 0.84306
 N152 N -0.04483 0.29590 0.85342
 N153 N -0.04179 0.25918 0.81142
 C154 C -0.01747 0.23184 0.71445
 N155 N -0.01597 0.17831 0.73351
 N156 N -0.00363 0.13753 0.69790
 C157 C 0.00722 0.14830 0.64146
 N158 N 0.00492 0.20185 0.62155
 N159 N -0.00692 0.24311 0.65766
 C160 C 0.01663 0.27727 0.22725
 N161 N 0.01150 0.26622 0.16999
 N162 N 0.01692 0.30650 0.13050
 C163 C 0.02797 0.35959 0.14652
 N164 N 0.03311 0.37108 0.20392
 N165 N 0.02763 0.33049 0.24371
 C166 C 0.01192 0.23096 0.26913
 N167 N 0.01590 0.23833 0.32740
 N168 N 0.01374 0.19458 0.36381
 C169 C 0.00753 0.14225 0.34296
 N170 N 0.00316 0.13531 0.28493
 N171 N 0.00508 0.17873 0.24881
 C172 C 0.03082 -0.28575 0.77672
 N173 N 0.03203 -0.34029 0.76208
 N174 N 0.02140 -0.38015 0.80148
 C175 C 0.00831 -0.36671 0.85667
 N176 N 0.00855 -0.31221 0.87122
 N177 N 0.01973 -0.27262 0.83217
 C178 C 0.03506 -0.24094 0.73303
 N179 N 0.03583 -0.18716 0.74999
 N180 N 0.03238 -0.14575 0.71113
 C181 C 0.02771 -0.15654 0.65374
 N182 N 0.02790 -0.21033 0.63657
 N183 N 0.03154 -0.25184 0.67554
 C184 C 0.33899 0.02830 0.72596
 N185 N 0.33904 0.07032 0.76469
 N186 N 0.37180 0.06677 0.81390
 C187 C 0.40594 0.02110 0.82589
 N188 N 0.40809 -0.01933 0.78554
 N189 N 0.37497 -0.01605 0.73686
 C190 C 0.29382 0.02602 0.67857
 N191 N 0.27247 -0.02407 0.66080
 N192 N 0.22519 -0.02723 0.62446
 C193 C 0.19828 0.01972 0.60362
 N194 N 0.22068 0.06985 0.62010
 N195 N 0.26733 0.07300 0.65723
 C196 C -0.32283 0.01095 0.28349
 N197 N -0.33826 0.06136 0.26015
 N198 N -0.37376 0.06500 0.21275
 C199 C -0.39474 0.01828 0.18676
 N200 N -0.38049 -0.03195 0.21100
 N201 N -0.34564 -0.03556 0.25864
 C202 C -0.27474 0.00604 0.32825
 N203 N -0.26183 -0.04405 0.35367
 N204 N -0.21241 -0.05080 0.38684
 C205 C -0.17374 -0.00780 0.39531
 N206 N -0.18726 0.04252 0.37082
 N207 N -0.23690 0.04938 0.33813
 C208 C 0.30957 -0.01269 0.25531
 N209 N 0.30359 -0.04934 0.21126
 N210 N 0.33778 -0.04494 0.16493
 C211 C 0.37943 -0.00383 0.16118
 N212 N 0.38627 0.03190 0.20584
 N213 N 0.35203 0.02763 0.25196
 C214 C 0.26622 -0.01236 0.30217
 N215 N 0.26410 0.03121 0.33886
 N216 N 0.21993 0.03535 0.37623
 C217 C 0.17645 -0.00418 0.37851
 N218 N 0.17947 -0.04836 0.34280
 N219 N 0.22341 -0.05238 0.30534
 C220 C -0.28087 -0.01020 0.75824
 N221 N -0.32318 -0.05094 0.76135
 N222 N -0.35997 -0.05374 0.80588
 C223 C -0.35543 -0.01602 0.84892
 N224 N -0.31360 0.02492 0.84529
 N225 N -0.27712 0.02783 0.80084
 C226 C -0.23640 -0.00946 0.71253
 N227 N -0.19309 0.03038 0.71201
 N228 N -0.14912 0.02855 0.67434
 C229 C -0.14686 -0.01320 0.63570
 N230 N -0.19068 -0.05260 0.63558
 N231 N -0.23470 -0.05075 0.67327
   
