data_POSCAR
  _audit_creation_date              2014-09-24
  _audit_creation_method            'ToBaCCo'
  _symmetry_space_group_name_H-M    'P1'
  _symmetry_Int_Tables_number       1
  _symmetry_cell_setting            triclinic
  loop_
  _symmetry_equiv_pos_as_xyz
 x,y,z
_cell_length_a 27.6375
_cell_length_b 27.6375
_cell_length_c 27.6126
_cell_angle_alpha 89.834900
_cell_angle_beta 90.164200
_cell_angle_gamma 89.999000
loop_
  _atom_site_label
  _atom_site_type_symbol
  _atom_site_fract_x
  _atom_site_fract_y
  _atom_site_fract_z
O1 O -0.12522 0.06530 0.00112
 O2 O 0.12388 0.06536 -0.00197
 O3 O -0.00227 0.12439 0.06497
 O4 O 0.00087 0.12461 -0.06615
 O5 O 0.00078 0.06562 -0.12519
 O6 O -0.00222 0.06520 0.12422
 O7 O 0.06482 0.12449 -0.00216
 O8 O -0.06612 0.12441 0.00110
 Zr9 Zr -0.00066 0.08509 -0.00052
 O10 O 0.04316 0.04389 -0.04434
 O11 O -0.04449 0.04370 0.04341
 C12 C -0.11070 0.10989 0.00194
 C13 C 0.10943 0.10999 -0.00289
 C14 C -0.00306 0.10984 0.10965
 C15 C 0.00162 0.11025 -0.11082
 H16 H 0.06375 0.06416 0.06404
 O17 O 0.04305 0.04354 0.04338
 H18 H -0.06515 0.06434 -0.06495
 O19 O -0.04447 0.04365 -0.04422
 O20 O 0.12376 -0.06556 0.00161
 O21 O -0.12537 -0.06565 -0.00206
 O22 O 0.06491 -0.00203 0.12438
 O23 O 0.06463 0.00172 -0.12497
 O24 O -0.06632 -0.00164 -0.12507
 O25 O -0.06599 0.00145 0.12423
 O26 O 0.00099 -0.12481 0.06543
 O27 O -0.00258 -0.12457 -0.06570
 O28 O 0.00112 -0.06580 0.12445
 O29 O -0.00256 -0.06538 -0.12494
 O30 O 0.12391 -0.00192 0.06530
 O31 O -0.12518 0.00151 0.06501
 O32 O -0.12530 -0.00179 -0.06602
 O33 O 0.12377 0.00160 -0.06571
 O34 O 0.06466 -0.12467 0.00164
 O35 O -0.06634 -0.12474 -0.00190
 Zr36 Zr 0.08444 -0.00010 -0.00026
 Zr37 Zr -0.08589 -0.00016 -0.00045
 Zr38 Zr -0.00060 -0.00025 0.08491
 Zr39 Zr -0.00081 0.00005 -0.08563
 Zr40 Zr -0.00081 -0.08533 -0.00020
 O41 O -0.04467 -0.04394 -0.04429
 O42 O 0.04319 -0.04407 0.04368
 C43 C 0.10924 -0.11015 0.00250
 C44 C -0.11099 -0.11031 -0.00279
 C45 C 0.10948 -0.00284 0.10991
 C46 C 0.10925 0.00247 -0.11039
 C47 C -0.11089 -0.00256 -0.11064
 C48 C -0.11061 0.00232 0.10967
 C49 C 0.00190 -0.11043 0.11009
 C50 C -0.00341 -0.11000 -0.11036
 H51 H -0.06504 -0.06459 0.06412
 O52 O -0.04441 -0.04392 0.04345
 H53 H 0.06349 -0.06438 -0.06456
 O54 O 0.04287 -0.04376 -0.04395
 O55 O 0.37547 0.56600 0.00110
 O56 O 0.62464 0.56621 -0.00190
 O57 O 0.49837 0.62506 0.06502
 O58 O 0.50167 0.62519 -0.06601
 O59 O 0.50153 0.56621 -0.12507
 O60 O 0.49842 0.56586 0.12424
 O61 O 0.56552 0.62527 -0.00205
 O62 O 0.43458 0.62510 0.00113
 Zr63 Zr 0.50004 0.58577 -0.00044
 O64 O 0.54382 0.54455 -0.04429
 O65 O 0.45618 0.54437 0.04341
 C66 C 0.38999 0.61058 0.00195
 C67 C 0.61016 0.61084 -0.00279
 C68 C 0.49756 0.61048 0.10968
 C69 C 0.50244 0.61079 -0.11063
 H70 H 0.56447 0.56491 0.06412
 O71 O 0.54380 0.54428 0.04345
 H72 H 0.43555 0.56503 -0.06495
 O73 O 0.45623 0.54435 -0.04422
 O74 O 0.62455 0.43522 0.00164
 O75 O 0.37539 0.43506 -0.00217
 O76 O 0.56567 0.49874 0.12447
 O77 O 0.56526 0.50246 -0.12494
 O78 O 0.43427 0.49911 -0.12519
 O79 O 0.43467 0.50209 0.12421
 O80 O 0.50180 0.37596 0.06528
 O81 O 0.49829 0.37612 -0.06573
 O82 O 0.50190 0.43495 0.12437
 O83 O 0.49817 0.43527 -0.12498
 O84 O 0.62470 0.49888 0.06543
 O85 O 0.37549 0.50214 0.06497
 O86 O 0.37528 0.49902 -0.06616
 O87 O 0.62446 0.50247 -0.06570
 O88 O 0.56544 0.37612 0.00159
 O89 O 0.43452 0.37600 -0.00199
 Zr90 Zr 0.58522 0.50069 -0.00020
 Zr91 Zr 0.41479 0.50054 -0.00052
 Zr92 Zr 0.50012 0.50047 0.08491
 Zr93 Zr 0.49984 0.50070 -0.08563
 Zr94 Zr 0.49998 0.41544 -0.00027
 O95 O 0.45599 0.45672 -0.04435
 O96 O 0.54395 0.45669 0.04367
 C97 C 0.61003 0.39063 0.00248
 C98 C 0.38990 0.39045 -0.00290
 C99 C 0.61028 0.49797 0.11007
 C100 C 0.60989 0.50330 -0.11037
 C101 C 0.38963 0.49827 -0.11082
 C102 C 0.39003 0.50293 0.10964
 C103 C 0.50272 0.39039 0.10990
 C104 C 0.49742 0.39064 -0.11040
 H105 H 0.43572 0.43613 0.06403
 O106 O 0.45634 0.45682 0.04338
 H107 H 0.56426 0.43640 -0.06457
 O108 O 0.54365 0.45702 -0.04395
 O109 O -0.12489 0.56572 0.50104
 O110 O 0.12425 0.56555 0.49804
 O111 O -0.00194 0.62460 0.56497
 O112 O 0.00131 0.62483 0.43387
 O113 O 0.00127 0.56582 0.37480
 O114 O -0.00179 0.56542 0.62423
 O115 O 0.06515 0.62466 0.49784
 O116 O -0.06582 0.62477 0.50104
 Zr117 Zr -0.00032 0.58533 0.49949
 O118 O 0.04355 0.54405 0.45573
 O119 O -0.04406 0.54395 0.54345
 C120 C -0.11047 0.61037 0.50185
 C121 C 0.10974 0.61014 0.49710
 C122 C -0.00270 0.61004 0.60963
 C123 C 0.00210 0.61042 0.38923
 H124 H 0.06415 0.56439 0.56405
 O125 O 0.04348 0.54377 0.54338
 H126 H -0.06475 0.56464 0.43498
 O127 O -0.04406 0.54395 0.45570
 O128 O 0.12435 0.43461 0.50163
 O129 O -0.12479 0.43475 0.49784
 O130 O 0.06549 0.49834 0.62451
 O131 O 0.06508 0.50199 0.37505
 O132 O -0.06596 0.49861 0.37482
 O133 O -0.06553 0.50168 0.62423
 O134 O 0.00145 0.37540 0.56544
 O135 O -0.00202 0.37564 0.43432
 O136 O 0.00155 0.43440 0.62451
 O137 O -0.00213 0.43480 0.37505
 O138 O 0.12448 0.49842 0.56543
 O139 O -0.12471 0.50184 0.56497
 O140 O -0.12494 0.49859 0.43387
 O141 O 0.12423 0.50188 0.43432
 O142 O 0.06526 0.37552 0.50163
 O143 O -0.06569 0.37564 0.49805
 Zr144 Zr 0.08493 0.50009 0.49981
 Zr145 Zr -0.08545 0.50021 0.49949
 Zr146 Zr -0.00009 0.49998 0.58495
 Zr147 Zr -0.00039 0.50026 0.41434
 Zr148 Zr -0.00022 0.41494 0.49981
 O149 O -0.04418 0.45633 0.45574
 O150 O 0.04375 0.45612 0.54378
 C151 C 0.10987 0.39000 0.50249
 C152 C -0.11028 0.39016 0.49711
 C153 C 0.11010 0.49758 0.61009
 C154 C 0.10970 0.50278 0.38964
 C155 C -0.11058 0.49779 0.38921
 C156 C -0.11015 0.50260 0.60964
 C157 C 0.00229 0.38979 0.61010
 C158 C -0.00292 0.39017 0.38964
 H159 H -0.06451 0.43574 0.56406
 O160 O -0.04389 0.45641 0.54338
 H161 H 0.06401 0.43586 0.43544
 O162 O 0.04338 0.45649 0.45604
 O163 O 0.37586 0.06492 0.50203
 O164 O 0.62499 0.06482 0.49890
 O165 O 0.49887 0.12391 0.56594
 O166 O 0.50206 0.12405 0.43494
 O167 O 0.50199 0.06505 0.37586
 O168 O 0.49895 0.06475 0.62518
 O169 O 0.56588 0.12392 0.49877
 O170 O 0.43495 0.12401 0.50202
 Zr171 Zr 0.50042 0.08459 0.50049
 O172 O 0.54426 0.04334 0.45669
 O173 O 0.45659 0.04328 0.54443
 C174 C 0.39034 0.10953 0.50281
 C175 C 0.61046 0.10941 0.49797
 C176 C 0.49810 0.10938 0.61061
 C177 C 0.50285 0.10962 0.39033
 H178 H 0.56490 0.06367 0.56497
 O179 O 0.54423 0.04303 0.54430
 H180 H 0.43598 0.06389 0.43600
 O181 O 0.45667 0.04320 0.45672
 O182 O 0.62513 -0.06615 0.50240
 O183 O 0.37597 -0.06601 0.49879
 O184 O 0.56606 -0.00243 0.62530
 O185 O 0.56571 0.00132 0.37598
 O186 O 0.43482 -0.00212 0.37587
 O187 O 0.43514 0.00094 0.62519
 O188 O 0.50233 -0.12520 0.56624
 O189 O 0.49868 -0.12505 0.43519
 O190 O 0.50233 -0.06617 0.62531
 O191 O 0.49855 -0.06584 0.37599
 O192 O 0.62508 -0.00244 0.56623
 O193 O 0.37597 0.00101 0.56595
 O194 O 0.37582 -0.00219 0.43495
 O195 O 0.62492 0.00121 0.43518
 O196 O 0.56604 -0.12525 0.50241
 O197 O 0.43507 -0.12511 0.49892
 Zr198 Zr 0.58566 -0.00065 0.50066
 Zr199 Zr 0.41529 -0.00055 0.50050
 Zr200 Zr 0.50056 -0.00067 0.58583
 Zr201 Zr 0.50033 -0.00046 0.41534
 Zr202 Zr 0.50054 -0.08578 0.50067
 O203 O 0.45654 -0.04439 0.45670
 O204 O 0.54443 -0.04454 0.54464
 C205 C 0.61068 -0.11079 0.50322
 C206 C 0.39048 -0.11059 0.49799
 C207 C 0.61063 -0.00329 0.61084
 C208 C 0.61034 0.00214 0.39053
 C209 C 0.39025 -0.00299 0.39034
 C210 C 0.39051 0.00179 0.61062
 C211 C 0.50318 -0.11073 0.61085
 C212 C 0.49774 -0.11047 0.39054
 H213 H 0.43622 -0.06502 0.56498
 O214 O 0.45685 -0.04435 0.54431
 H215 H 0.56475 -0.06487 0.43628
 O216 O 0.54414 -0.04426 0.45690
 C217 C 0.14614 0.14665 -0.00395
 C218 C 0.17700 0.17748 -0.00446
 C219 C 0.21387 0.21428 -0.00461
 C220 C 0.22924 0.23483 -0.04840
 C221 C 0.26504 0.27064 -0.04840
 C222 C 0.28561 0.28602 -0.00462
 C223 C 0.27023 0.26544 0.03914
 C224 C 0.23445 0.22966 0.03914
 C225 C 0.32240 0.32288 -0.00447
 C226 C 0.35323 0.35375 -0.00396
 H227 H 0.21357 0.22322 -0.08244
 H228 H 0.27666 0.28631 -0.08245
 H229 H 0.28587 0.27705 0.07320
 H230 H 0.22283 0.21401 0.07321
 C231 C 0.14638 0.64674 0.49607
 C232 C 0.17727 0.67746 0.49562
 C233 C 0.21418 0.71407 0.49560
 C234 C 0.22954 0.73476 0.45189
 C235 C 0.26547 0.77038 0.45203
 C236 C 0.28613 0.78539 0.49588
 C237 C 0.27077 0.76468 0.53956
 C238 C 0.23486 0.72908 0.53943
 C239 C 0.32299 0.82206 0.49617
 C240 C 0.35385 0.85281 0.49681
 H241 H 0.21376 0.72338 0.41781
 H242 H 0.27711 0.78620 0.41806
 H243 H 0.28652 0.77606 0.57366
 H244 H 0.22323 0.71329 0.57342
 C245 C 0.85424 0.85495 -0.00375
 C246 C 0.82334 0.82408 -0.00426
 C247 C 0.78645 0.78721 -0.00441
 C248 C 0.76835 0.76927 0.03947
 C249 C 0.73255 0.73347 0.03946
 C250 C 0.71462 0.71539 -0.00443
 C251 C 0.73270 0.73333 -0.04834
 C252 C 0.76852 0.76915 -0.04833
 C253 C 0.67775 0.67850 -0.00430
 C254 C 0.64688 0.64761 -0.00381
 H255 H 0.78192 0.78295 0.07365
 H256 H 0.71887 0.71990 0.07363
 H257 H 0.71913 0.71964 -0.08250
 H258 H 0.78223 0.78273 -0.08248
 C259 C 0.85312 0.35353 0.49607
 C260 C 0.82238 0.32266 0.49562
 C261 C 0.78573 0.28577 0.49560
 C262 C 0.76777 0.26801 0.53958
 C263 C 0.73218 0.23210 0.53972
 C264 C 0.71442 0.21382 0.49587
 C265 C 0.73237 0.23157 0.45187
 C266 C 0.76799 0.26750 0.45174
 C267 C 0.67779 0.17693 0.49616
 C268 C 0.64705 0.14605 0.49679
 H269 H 0.78128 0.28191 0.57369
 H270 H 0.71852 0.21861 0.57393
 H271 H 0.71885 0.21765 0.41778
 H272 H 0.78166 0.28101 0.41754
 C273 C 0.85271 0.14653 0.00307
 C274 C 0.82199 0.17742 0.00367
 C275 C 0.78539 0.21434 0.00393
 C276 C 0.76357 0.22803 0.04753
 C277 C 0.72795 0.26396 0.04764
 C278 C 0.71408 0.28629 0.00416
 C279 C 0.73593 0.27261 -0.03942
 C280 C 0.77152 0.23670 -0.03953
 C281 C 0.67740 0.32314 0.00409
 C282 C 0.64664 0.35399 0.00360
 H283 H 0.77407 0.21094 0.08133
 H284 H 0.71125 0.27430 0.08152
 H285 H 0.72543 0.28966 -0.07323
 H286 H 0.78819 0.22636 -0.07343
 C287 C 0.85478 0.64512 0.50289
 C288 C 0.82391 0.67602 0.50354
 C289 C 0.78707 0.71293 0.50392
 C290 C 0.76538 0.72671 0.54760
 C291 C 0.72956 0.76253 0.54784
 C292 C 0.71525 0.78476 0.50441
 C293 C 0.73695 0.77098 0.46076
 C294 C 0.77275 0.73517 0.46052
 C295 C 0.67833 0.82160 0.50450
 C296 C 0.64743 0.85247 0.50415
 H297 H 0.77614 0.70977 0.58139
 H298 H 0.71305 0.77287 0.58181
 H299 H 0.72619 0.78788 0.42695
 H300 H 0.78923 0.72483 0.42653
 C301 C 0.14656 0.35331 0.50361
 C302 C 0.17743 0.32248 0.50416
 C303 C 0.21430 0.28569 0.50434
 C304 C 0.22827 0.26350 0.54789
 C305 C 0.26407 0.22770 0.54792
 C306 C 0.28604 0.21395 0.50440
 C307 C 0.27207 0.23616 0.46088
 C308 C 0.23629 0.27194 0.46085
 C309 C 0.32283 0.17708 0.50428
 C310 C 0.35366 0.14622 0.50381
 H311 H 0.21150 0.27386 0.58173
 H312 H 0.27459 0.21076 0.58179
 H313 H 0.28881 0.22580 0.42702
 H314 H 0.22577 0.28884 0.42697
 C315 C 0.14589 0.85325 0.00361
 C316 C 0.17679 0.82253 0.00410
 C317 C 0.21372 0.78593 0.00416
 C318 C 0.22846 0.76442 0.04777
 C319 C 0.26439 0.72880 0.04766
 C320 C 0.28566 0.71462 0.00395
 C321 C 0.27091 0.73615 -0.03964
 C322 C 0.23500 0.77175 -0.03953
 C323 C 0.32251 0.67794 0.00368
 C324 C 0.35336 0.64718 0.00308
 H325 H 0.21221 0.77515 0.08174
 H326 H 0.27556 0.71233 0.08156
 H327 H 0.28714 0.72542 -0.07363
 H328 H 0.22384 0.78818 -0.07344
 C329 C -0.00410 0.14647 0.14630
 C330 C -0.00460 0.17727 0.17713
 C331 C -0.00476 0.21404 0.21394
 C332 C 0.03851 0.22690 0.23713
 C333 C 0.03852 0.26269 0.27283
 C334 C -0.00474 0.28578 0.28553
 C335 C -0.04803 0.27291 0.26237
 C336 C -0.04804 0.23711 0.22664
 C337 C -0.00457 0.32265 0.32223
 C338 C -0.00403 0.35351 0.35301
 H339 H 0.07218 0.20931 0.22759
 H340 H 0.07220 0.27235 0.29050
 H341 H -0.08168 0.29054 0.27190
 H342 H -0.08170 0.22744 0.20894
 C343 C 0.49642 0.35397 0.85298
 C344 C 0.49599 0.32304 0.82229
 C345 C 0.49596 0.28605 0.78571
 C346 C 0.53981 0.26632 0.76982
 C347 C 0.53993 0.23034 0.73432
 C348 C 0.49619 0.21390 0.71455
 C349 C 0.45232 0.23361 0.73045
 C350 C 0.45220 0.26962 0.76597
 C351 C 0.49645 0.17694 0.67794
 C352 C 0.49702 0.14604 0.64723
 H353 H 0.57385 0.27875 0.78485
 H354 H 0.57406 0.21536 0.72229
 H355 H 0.41829 0.22117 0.71539
 H356 H 0.41809 0.28461 0.77801
 C357 C -0.00446 0.85339 0.85300
 C358 C -0.00492 0.82260 0.82220
 C359 C -0.00495 0.78582 0.78545
 C360 C 0.03892 0.76641 0.76925
 C361 C 0.03904 0.73067 0.73352
 C362 C -0.00471 0.71419 0.71384
 C363 C -0.04860 0.73359 0.73003
 C364 C -0.04873 0.76935 0.76578
 C365 C -0.00443 0.67744 0.67706
 C366 C -0.00383 0.64665 0.64626
 H367 H 0.07297 0.77889 0.78422
 H368 H 0.07319 0.71592 0.72125
 H369 H -0.08264 0.72109 0.71504
 H370 H -0.08285 0.78412 0.77806
 C371 C 0.49648 0.64705 0.14634
 C372 C 0.49595 0.67773 0.17725
 C373 C 0.49581 0.71429 0.21420
 C374 C 0.53901 0.72672 0.23773
 C375 C 0.53903 0.76228 0.27363
 C376 C 0.49584 0.78556 0.28617
 C377 C 0.45260 0.77314 0.26267
 C378 C 0.45259 0.73755 0.22674
 C379 C 0.49603 0.82223 0.32302
 C380 C 0.49659 0.85296 0.35387
 H381 H 0.57263 0.70895 0.22830
 H382 H 0.57265 0.77163 0.29157
 H383 H 0.41901 0.79094 0.27209
 H384 H 0.41898 0.72821 0.20876
 C385 C 0.00293 0.85480 0.14491
 C386 C 0.00349 0.82392 0.17587
 C387 C 0.00369 0.78705 0.21284
 C388 C -0.03932 0.77498 0.23674
 C389 C -0.03929 0.73911 0.27258
 C390 C 0.00375 0.71512 0.28471
 C391 C 0.04680 0.72720 0.26084
 C392 C 0.04677 0.76309 0.22497
 C393 C 0.00362 0.67813 0.32157
 C394 C 0.00313 0.64719 0.35245
 H395 H -0.07284 0.79325 0.22765
 H396 H -0.07278 0.73007 0.29079
 H397 H 0.08029 0.70889 0.26992
 H398 H 0.08024 0.77212 0.20673
 C399 C 0.50353 0.64550 0.85466
 C400 C 0.50418 0.67638 0.82383
 C401 C 0.50449 0.71326 0.78707
 C402 C 0.46142 0.73694 0.77454
 C403 C 0.46156 0.77277 0.73873
 C404 C 0.50477 0.78503 0.71533
 C405 C 0.54788 0.76138 0.72787
 C406 C 0.54774 0.72553 0.76371
 C407 C 0.50473 0.82179 0.67845
 C408 C 0.50426 0.85261 0.64755
 H409 H 0.42779 0.72769 0.79240
 H410 H 0.42804 0.79085 0.72926
 H411 H 0.58148 0.77062 0.70997
 H412 H 0.58123 0.70740 0.77316
 C413 C 0.50387 0.35369 0.14660
 C414 C 0.50444 0.32284 0.17748
 C415 C 0.50463 0.28604 0.21437
 C416 C 0.46189 0.27500 0.23920
 C417 C 0.46189 0.23914 0.27499
 C418 C 0.50464 0.21418 0.28607
 C419 C 0.54741 0.22522 0.26127
 C420 C 0.54741 0.26111 0.22546
 C421 C 0.50447 0.17723 0.32282
 C422 C 0.50394 0.14632 0.35364
 H423 H 0.42862 0.29407 0.23088
 H424 H 0.42863 0.23086 0.29397
 H425 H 0.58066 0.20610 0.26958
 H426 H 0.58064 0.26938 0.20644
 C427 C 0.00260 0.14507 0.85437
 C428 C 0.00317 0.17603 0.82347
 C429 C 0.00344 0.21305 0.78661
 C430 C -0.03981 0.23601 0.77323
 C431 C -0.03969 0.27193 0.73742
 C432 C 0.00369 0.28511 0.71478
 C433 C 0.04697 0.26218 0.72816
 C434 C 0.04685 0.22624 0.76399
 C435 C 0.00367 0.32206 0.67784
 C436 C 0.00326 0.35299 0.64691
 H437 H -0.07359 0.22613 0.79045
 H438 H -0.07337 0.28939 0.72738
 H439 H 0.08073 0.27206 0.71090
 H440 H 0.08051 0.20875 0.77402
 C441 C 0.14617 -0.00399 0.14661
 C442 C 0.17704 -0.00455 0.17748
 C443 C 0.21388 -0.00473 0.21433
 C444 C 0.23537 -0.04835 0.22888
 C445 C 0.27126 -0.04836 0.26469
 C446 C 0.28574 -0.00475 0.28604
 C447 C 0.26423 0.03884 0.27149
 C448 C 0.22836 0.03885 0.23570
 C449 C 0.32265 -0.00460 0.32281
 C450 C 0.35355 -0.00407 0.35365
 H451 H 0.22441 -0.08224 0.21256
 H452 H 0.28768 -0.08226 0.27570
 H453 H 0.27518 0.07275 0.28778
 H454 H 0.21197 0.07277 0.22470
 C455 C 0.35483 0.49729 0.85435
 C456 C 0.32388 0.49673 0.82343
 C457 C 0.28691 0.49646 0.78652
 C458 C 0.26910 0.54025 0.76797
 C459 C 0.23318 0.54012 0.73216
 C460 C 0.21485 0.49621 0.71469
 C461 C 0.23265 0.45240 0.73323
 C462 C 0.26859 0.45253 0.76906
 C463 C 0.17786 0.49622 0.67780
 C464 C 0.14690 0.49663 0.64689
 H465 H 0.28297 0.57444 0.78118
 H466 H 0.21971 0.57422 0.71811
 H467 H 0.21877 0.41823 0.72001
 H468 H 0.28207 0.41845 0.78313
 C469 C 0.85440 -0.00365 0.85465
 C470 C 0.82354 -0.00428 0.82379
 C471 C 0.78670 -0.00458 0.78699
 C472 C 0.76691 0.03916 0.77056
 C473 C 0.73109 0.03903 0.73474
 C474 C 0.71493 -0.00485 0.71525
 C475 C 0.73470 -0.04861 0.73168
 C476 C 0.77055 -0.04848 0.76752
 C477 C 0.67813 -0.00482 0.67841
 C478 C 0.64729 -0.00436 0.64753
 H479 H 0.77917 0.07329 0.78540
 H480 H 0.71601 0.07305 0.72226
 H481 H 0.72243 -0.08273 0.71681
 H482 H 0.78565 -0.08249 0.78001
 C483 C 0.64702 0.49687 0.14688
 C484 C 0.67791 0.49634 0.17782
 C485 C 0.71478 0.49617 0.21478
 C486 C 0.73773 0.45285 0.22797
 C487 C 0.77363 0.45284 0.26383
 C488 C 0.78672 0.49616 0.28666
 C489 C 0.76374 0.53945 0.27348
 C490 C 0.72788 0.53946 0.23764
 C491 C 0.82369 0.49631 0.32352
 C492 C 0.85463 0.49682 0.35442
 H493 H 0.72791 0.41917 0.21054
 H494 H 0.79115 0.41915 0.27373
 H495 H 0.77357 0.57316 0.29087
 H496 H 0.71039 0.57317 0.22774
 C497 C 0.14594 0.00348 0.85301
 C498 C 0.17688 0.00392 0.82233
 C499 C 0.21392 0.00396 0.78580
 C500 C 0.23799 -0.03910 0.77431
 C501 C 0.27397 -0.03921 0.73880
 C502 C 0.28606 0.00374 0.71464
 C503 C 0.26202 0.04683 0.72614
 C504 C 0.22602 0.04694 0.76166
 C505 C 0.32298 0.00346 0.67799
 C506 C 0.35386 0.00288 0.64725
 H507 H 0.22893 -0.07254 0.79275
 H508 H 0.29232 -0.07273 0.73018
 H509 H 0.27107 0.08025 0.70766
 H510 H 0.20763 0.08044 0.77028
 C511 C 0.35340 0.50397 0.14630
 C512 C 0.32261 0.50448 0.17713
 C513 C 0.28586 0.50464 0.21396
 C514 C 0.27516 0.46200 0.23932
 C515 C 0.23938 0.46198 0.27502
 C516 C 0.21412 0.50461 0.28555
 C517 C 0.22483 0.54729 0.26023
 C518 C 0.26063 0.54730 0.22450
 C519 C 0.17723 0.50443 0.32224
 C520 C 0.14637 0.50389 0.35300
 H521 H 0.29443 0.42880 0.23146
 H522 H 0.23139 0.42878 0.29437
 H523 H 0.20552 0.58046 0.26807
 H524 H 0.26861 0.58048 0.20510
 C525 C 0.85282 0.00340 0.14633
 C526 C 0.82214 0.00393 0.17724
 C527 C 0.78560 0.00409 0.21421
 C528 C 0.77476 -0.03866 0.23931
 C529 C 0.73920 -0.03867 0.27522
 C530 C 0.71433 0.00407 0.28617
 C531 C 0.72517 0.04685 0.26110
 C532 C 0.76076 0.04686 0.22518
 C533 C 0.67764 0.00387 0.32301
 C534 C 0.64691 0.00329 0.35386
 H535 H 0.79376 -0.07193 0.23111
 H536 H 0.73108 -0.07195 0.29438
 H537 H 0.70613 0.08009 0.26929
 H538 H 0.76886 0.08011 0.20597
 C539 C 0.64650 0.50436 0.85300
 C540 C 0.67731 0.50483 0.82222
 C541 C 0.71414 0.50488 0.78552
 C542 C 0.73790 0.46175 0.77368
 C543 C 0.77364 0.46163 0.73795
 C544 C 0.78576 0.50464 0.71390
 C545 C 0.76202 0.54780 0.72575
 C546 C 0.72626 0.54792 0.76150
 C547 C 0.82247 0.50435 0.67709
 C548 C 0.85324 0.50374 0.64627
 H549 H 0.72879 0.42828 0.79202
 H550 H 0.79177 0.42807 0.72905
 H551 H 0.77112 0.58125 0.70736
 H552 H 0.70809 0.58146 0.77038
   
