data_POSCAR
  _audit_creation_date              2014-09-24
  _audit_creation_method            'ToBaCCo'
  _symmetry_space_group_name_H-M    'P1'
  _symmetry_Int_Tables_number       1
  _symmetry_cell_setting            triclinic
  loop_
  _symmetry_equiv_pos_as_xyz
 x,y,z
_cell_length_a 62.0442
_cell_length_b 62.1759
_cell_length_c 62.0533
_cell_angle_alpha 89.760500
_cell_angle_beta 90.307500
_cell_angle_gamma 89.847900
loop_
  _atom_site_label
  _atom_site_type_symbol
  _atom_site_fract_x
  _atom_site_fract_y
  _atom_site_fract_z
C1 C 0.21663 0.51717 1.02663
 H2 H 0.21590 0.52933 1.01412
 C3 C 0.20221 0.51792 1.04379
 H4 H 0.19027 0.53061 1.04363
 C5 C 0.23229 0.48518 1.04033
 H6 H 0.24389 0.47231 1.03881
 C7 C 0.21815 0.48522 1.05776
 H8 H 0.22005 0.47264 1.06970
 N9 N 0.23136 0.50106 1.02526
 C10 C 0.28220 0.52610 0.98406
 H11 H 0.28253 0.51369 0.97189
 C12 C 0.29698 0.54295 0.98326
 H13 H 0.30846 0.54358 0.97019
 C14 C 0.26685 0.54015 1.01595
 H15 H 0.25542 0.53873 1.02893
 C16 C 0.28136 0.55730 1.01577
 H17 H 0.28090 0.56894 1.02869
 Zn18 Zn 0.24932 0.50065 1.00073
 N19 N 0.26749 0.52503 1.00018
 C20 C 0.23180 0.51614 0.96111
 N21 N 0.23105 0.50027 0.97623
 C22 C 0.21632 0.48417 0.97493
 C23 C 0.20172 0.48345 0.95776
 C24 C 0.21747 0.51606 0.94367
 C25 C 0.28249 0.47509 1.01732
 C26 C 0.29733 0.45821 1.01807
 C27 C 0.28132 0.44393 0.98558
 C28 C 0.26676 0.46112 0.98545
 N29 N 0.26756 0.47622 1.00124
 H30 H 0.24330 0.52906 0.96265
 H31 H 0.21581 0.47198 0.98741
 H32 H 0.18990 0.47068 0.95722
 H33 H 0.21843 0.52874 0.93170
 H34 H 0.28295 0.48749 1.02950
 H35 H 0.30898 0.45754 1.03111
 H36 H 0.28073 0.43231 0.97265
 H37 H 0.25516 0.46258 0.97249
 C38 C 0.29678 0.55878 0.99934
 C39 C 0.20258 0.50172 1.05985
 C40 C 0.29696 0.44239 1.00197
 C41 C 0.20213 0.49958 0.94186
 C42 C 0.78261 0.51547 -0.02771
 H43 H 0.78350 0.52792 -0.01561
 C44 C 0.79683 0.51569 -0.04506
 H45 H 0.80873 0.52835 -0.04613
 C46 C 0.76657 0.48333 -0.04037
 H47 H 0.75500 0.47055 -0.03830
 C48 C 0.78050 0.48291 -0.05797
 H49 H 0.77919 0.46998 -0.06953
 N50 N 0.76778 0.49953 -0.02575
 C51 C 0.71755 0.52629 0.01516
 H52 H 0.71712 0.51416 0.02771
 C53 C 0.70312 0.54353 0.01560
 H54 H 0.69150 0.54449 0.02852
 C55 C 0.73268 0.53912 -0.01742
 H56 H 0.74398 0.53717 -0.03044
 C57 C 0.71851 0.55662 -0.01763
 H58 H 0.71937 0.56821 -0.03066
 Zn59 Zn 0.75010 0.49989 -0.00100
 N60 N 0.73203 0.52446 -0.00110
 C61 C 0.76818 0.51622 0.03792
 N62 N 0.76873 0.50004 0.02325
 C63 C 0.78354 0.48394 0.02475
 C64 C 0.79845 0.48355 0.04167
 C65 C 0.78280 0.51645 0.05512
 C66 C 0.71681 0.47387 -0.01626
 C67 C 0.70234 0.45672 -0.01639
 C68 C 0.71894 0.44338 0.01636
 C69 C 0.73313 0.46079 0.01584
 N70 N 0.73191 0.47551 -0.00040
 H71 H 0.75667 0.52918 0.03614
 H72 H 0.78380 0.47143 0.01269
 H73 H 0.80995 0.47046 0.04270
 H74 H 0.78235 0.52965 0.06643
 H75 H 0.71594 0.48604 -0.02875
 H76 H 0.69025 0.45589 -0.02900
 H77 H 0.72028 0.43172 0.02931
 H78 H 0.74493 0.46260 0.02856
 C79 C 0.70343 0.55897 -0.00098
 C80 C 0.79592 0.49922 -0.06047
 C81 C 0.70326 0.44120 0.00010
 C82 C 0.79825 0.50000 0.05711
 C83 C -0.01617 0.28250 0.47322
 H84 H -0.02826 0.28349 0.48569
 C85 C -0.01673 0.29692 0.45593
 H86 H -0.02918 0.30911 0.45596
 C87 C 0.01545 0.26621 0.45976
 H88 H 0.02811 0.25435 0.46141
 C89 C 0.01560 0.28033 0.44220
 H90 H 0.02809 0.27819 0.43032
 N91 N -0.00035 0.26746 0.47476
 C92 C -0.02670 0.21731 0.51620
 H93 H -0.01428 0.21657 0.52849
 C94 C -0.04404 0.20308 0.51693
 H95 H -0.04478 0.19132 0.52982
 C96 C -0.04016 0.23296 0.48393
 H97 H -0.03840 0.24436 0.47089
 C98 C -0.05777 0.21901 0.48402
 H99 H -0.06964 0.22015 0.47121
 Zn100 Zn -0.00027 0.24951 0.49946
 N101 N -0.02512 0.23193 0.49993
 C102 C -0.01545 0.26750 0.53872
 N103 N 0.00048 0.26780 0.52374
 C104 C 0.01687 0.28222 0.52489
 C105 C 0.01778 0.29705 0.54169
 C106 C -0.01516 0.28205 0.55581
 C107 C 0.02480 0.21598 0.48340
 C108 C 0.04163 0.20108 0.48281
 C109 C 0.05625 0.21690 0.51522
 C110 C 0.03911 0.23152 0.51519
 N111 N 0.02389 0.23087 0.49935
 H112 H -0.02864 0.25630 0.53723
 H113 H 0.02916 0.28229 0.51259
 H114 H 0.03107 0.30828 0.54239
 H115 H -0.02820 0.28186 0.56733
 H116 H 0.01231 0.21565 0.47117
 H117 H 0.04216 0.18950 0.46984
 H118 H 0.06801 0.21742 0.52816
 H119 H 0.03782 0.24310 0.52804
 C120 C -0.05983 0.20375 0.50064
 C121 C -0.00062 0.29621 0.43992
 C122 C 0.05762 0.20135 0.49891
 C123 C 0.00155 0.29717 0.55738
 C124 C 0.98368 0.71756 0.52640
 H125 H 0.97148 0.71678 0.51390
 C126 C 0.98305 0.70323 0.54376
 H127 H 0.97034 0.69135 0.54443
 C128 C 1.01560 0.73343 0.54006
 H129 H 1.02847 0.74496 0.53838
 C130 C 1.01561 0.71938 0.55769
 H131 H 1.02831 0.72058 0.56965
 N132 N 0.99972 0.73234 0.52492
 C133 C 0.97413 0.78257 0.48271
 H134 H 0.98649 0.78281 0.47048
 C135 C 0.95712 0.79728 0.48170
 H136 H 0.95632 0.80859 0.46840
 C137 C 0.96038 0.76759 0.51499
 H138 H 0.96199 0.75634 0.52822
 C139 C 0.94308 0.78202 0.51461
 H140 H 0.93153 0.78169 0.52762
 Zn141 Zn 1.00004 0.75008 0.50008
 N142 N 0.97543 0.76809 0.49913
 C143 C 0.98481 0.73203 0.46075
 N144 N 1.00069 0.73162 0.47595
 C145 C 1.01698 0.71698 0.47509
 C146 C 1.01785 0.70208 0.45837
 C147 C 0.98505 0.71740 0.44372
 C148 C 1.02534 0.78334 0.51627
 C149 C 1.04221 0.79811 0.51693
 C150 C 1.05678 0.78195 0.48478
 C151 C 1.03959 0.76747 0.48473
 N152 N 1.02437 0.76836 0.50040
 H153 H 0.97169 0.74340 0.46201
 H154 H 1.02923 0.71683 0.48756
 H155 H 1.03106 0.69068 0.45790
 H156 H 0.97206 0.71770 0.43201
 H157 H 1.01285 0.78386 0.52836
 H158 H 1.04277 0.80978 0.52982
 H159 H 1.06852 0.78127 0.47195
 H160 H 1.03825 0.75583 0.47193
 C161 C 0.94138 0.79723 0.49788
 C162 C 0.99921 0.70398 0.55967
 C163 C 1.05818 0.79762 0.50098
 C164 C 1.00168 0.70208 0.44245
 C165 C 0.47383 -0.01645 0.28268
 H166 H 0.48622 -0.02869 0.28368
 C167 C 0.45660 -0.01679 0.29705
 H168 H 0.45593 -0.02933 0.30918
 C169 C 0.46028 0.01529 0.26616
 H170 H 0.46194 0.02796 0.25434
 C171 C 0.44279 0.01558 0.28024
 H172 H 0.43091 0.02830 0.27878
 N173 N 0.47528 -0.00066 0.26753
 C174 C 0.51615 -0.02725 0.21729
 H175 H 0.52830 -0.01482 0.21642
 C176 C 0.51689 -0.04460 0.20312
 H177 H 0.52955 -0.04466 0.19123
 C178 C 0.48421 -0.04056 0.23302
 H179 H 0.47136 -0.03883 0.24457
 C180 C 0.48424 -0.05818 0.21913
 H181 H 0.47169 -0.07002 0.22115
 Zn182 Zn 0.49982 -0.00083 0.24956
 N183 N 0.50008 -0.02560 0.23194
 C184 C 0.53923 -0.01647 0.26740
 N185 N 0.52433 -0.00039 0.26783
 C186 C 0.52583 0.01591 0.28229
 C187 C 0.54294 0.01661 0.29696
 C188 C 0.55661 -0.01642 0.28180
 C189 C 0.48351 0.02427 0.21589
 C190 C 0.48282 0.04103 0.20088
 C191 C 0.51537 0.05539 0.21673
 C192 C 0.51544 0.03833 0.23146
 N193 N 0.49958 0.02327 0.23085
 H194 H 0.53754 -0.02954 0.25612
 H195 H 0.51352 0.02827 0.28256
 H196 H 0.54363 0.02954 0.30858
 H197 H 0.56838 -0.02928 0.28111
 H198 H 0.47127 0.01192 0.21560
 H199 H 0.46976 0.04163 0.18925
 H200 H 0.52832 0.06702 0.21722
 H201 H 0.52837 0.03697 0.24310
 C202 C 0.50073 -0.06057 0.20367
 C203 C 0.44080 -0.00060 0.29597
 C204 C 0.49895 0.05684 0.20110
 C205 C 0.55859 0.00024 0.29690
 C206 C 0.52745 -0.01575 0.71908
 H207 H 0.51518 -0.02806 0.71841
 C208 C 0.54482 -0.01643 0.70489
 H209 H 0.54573 -0.02931 0.69324
 C210 C 0.54049 0.01656 0.73445
 H211 H 0.53855 0.02961 0.74571
 C212 C 0.55811 0.01652 0.72054
 H213 H 0.56982 0.02936 0.72159
 N214 N 0.52564 0.00053 0.73353
 C215 C 0.48351 -0.02409 0.78390
 H216 H 0.47122 -0.01171 0.78375
 C217 C 0.48249 -0.04086 0.79886
 H218 H 0.46912 -0.04146 0.80999
 C219 C 0.51591 -0.03815 0.76954
 H220 H 0.52916 -0.03678 0.75841
 C221 C 0.51551 -0.05523 0.78425
 H222 H 0.52853 -0.06686 0.78424
 Zn223 Zn 0.50070 0.00107 0.75094
 N224 N 0.49998 -0.02308 0.76957
 C225 C 0.46163 -0.01479 0.73275
 N226 N 0.47666 0.00109 0.73206
 C227 C 0.47568 0.01691 0.71690
 C228 C 0.45898 0.01732 0.70174
 C229 C 0.44463 -0.01500 0.71790
 C230 C 0.51628 0.02733 0.78382
 C231 C 0.51671 0.04472 0.79796
 C232 C 0.48449 0.05857 0.78076
 C233 C 0.48469 0.04091 0.76691
 N234 N 0.50053 0.02582 0.76859
 H235 H 0.46299 -0.02755 0.74455
 H236 H 0.48802 0.02917 0.71653
 H237 H 0.45839 0.03018 0.68994
 H238 H 0.43305 -0.02798 0.71846
 H239 H 0.52843 0.01487 0.78506
 H240 H 0.52921 0.04544 0.81018
 H241 H 0.47186 0.07052 0.77907
 H242 H 0.47206 0.03920 0.75502
 C243 C 0.49869 -0.05668 0.79924
 C244 C 0.56040 -0.00009 0.70543
 C245 C 0.50064 0.06062 0.79657
 C246 C 0.44321 0.00116 0.70206
 C247 C 0.28282 0.01573 0.47254
 H248 H 0.28362 0.02792 0.48491
 C249 C 0.29711 0.01637 0.45525
 H250 H 0.30898 0.02908 0.45451
 C251 C 0.26696 -0.01619 0.45914
 H252 H 0.25545 -0.02907 0.46091
 C253 C 0.28096 -0.01619 0.44160
 H254 H 0.27975 -0.02889 0.42977
 N255 N 0.26806 -0.00032 0.47412
 C256 C 0.21781 0.02483 0.51594
 H257 H 0.21769 0.01241 0.52819
 C258 C 0.20299 0.04171 0.51684
 H259 H 0.19171 0.04235 0.53007
 C260 C 0.23263 0.03888 0.48372
 H261 H 0.24386 0.03744 0.47057
 C262 C 0.21807 0.05607 0.48399
 H263 H 0.21830 0.06771 0.47097
 Zn264 Zn 0.25041 -0.00075 0.49888
 N265 N 0.23227 0.02374 0.49960
 C266 C 0.26859 0.01449 0.53816
 N267 N 0.26902 -0.00137 0.52313
 C268 C 0.28374 -0.01758 0.52426
 C269 C 0.29872 -0.01839 0.54110
 C270 C 0.28329 0.01431 0.55529
 C271 C 0.21705 -0.02598 0.48274
 C272 C 0.20221 -0.04279 0.48216
 C273 C 0.21857 -0.05740 0.51449
 C274 C 0.23312 -0.04028 0.51445
 N275 N 0.23215 -0.02506 0.49866
 H276 H 0.25716 0.02755 0.53668
 H277 H 0.28390 -0.02981 0.51192
 H278 H 0.31018 -0.03153 0.54179
 H279 H 0.28297 0.02729 0.56686
 H280 H 0.21647 -0.01349 0.47056
 H281 H 0.19043 -0.04330 0.46924
 H282 H 0.21931 -0.06914 0.52741
 H283 H 0.24486 -0.03898 0.52728
 C284 C 0.20289 0.05755 0.50064
 C285 C 0.29636 0.00020 0.43953
 C286 C 0.20276 -0.05873 0.49825
 C287 C 0.29869 -0.00224 0.55686
 C288 C 0.71719 0.01644 0.52788
 H289 H 0.71639 0.02887 0.51565
 C290 C 0.70292 0.01684 0.54518
 H291 H 0.69107 0.02962 0.54609
 C292 C 0.73304 -0.01583 0.54092
 H293 H 0.74456 -0.02872 0.53902
 C294 C 0.71905 -0.01607 0.55848
 H295 H 0.72028 -0.02899 0.57019
 N296 N 0.73195 0.00035 0.52613
 C297 C 0.78255 0.02624 0.48514
 H298 H 0.78287 0.01403 0.47277
 C299 C 0.79722 0.04320 0.48451
 H300 H 0.80859 0.04411 0.47137
 C301 C 0.76729 0.03970 0.51732
 H302 H 0.75593 0.03802 0.53034
 C303 C 0.78168 0.05695 0.51732
 H304 H 0.78121 0.06841 0.53041
 Zn305 Zn 0.74977 0.00043 0.50148
 N306 N 0.76792 0.02485 0.50131
 C307 C 0.73208 0.01668 0.46223
 N308 N 0.73138 0.00053 0.47706
 C309 C 0.71665 -0.01555 0.47549
 C310 C 0.70204 -0.01598 0.45831
 C311 C 0.71775 0.01689 0.44479
 C312 C 0.78303 -0.02545 0.51738
 C313 C 0.79782 -0.04239 0.51775
 C314 C 0.78159 -0.05604 0.48509
 C315 C 0.76709 -0.03880 0.48535
 N316 N 0.76801 -0.02400 0.50140
 H317 H 0.74358 0.02957 0.46398
 H318 H 0.71617 -0.02796 0.48775
 H319 H 0.69025 -0.02877 0.45754
 H320 H 0.71869 0.02977 0.43304
 H321 H 0.78358 -0.01328 0.52978
 H322 H 0.80952 -0.04333 0.53072
 H323 H 0.78088 -0.06743 0.47196
 H324 H 0.75542 -0.03708 0.47248
 C325 C 0.79698 0.05880 0.50081
 C326 C 0.70370 0.00040 0.56076
 C327 C 0.79730 -0.05792 0.50138
 C328 C 0.70244 0.00041 0.44268
 C329 C 0.48336 0.21732 1.02442
 H330 H 0.47107 0.21734 1.01198
 C331 C 0.48255 0.20225 1.04112
 H332 H 0.46935 0.19091 1.04160
 C333 C 0.51554 0.23211 1.03871
 H334 H 0.52863 0.24344 1.03745
 C335 C 0.51535 0.21731 1.05572
 H336 H 0.52837 0.21745 1.06740
 N337 N 0.49962 0.23191 1.02355
 C338 C 0.47472 0.28419 0.98351
 H339 H 0.48715 0.28481 0.97137
 C340 C 0.45782 0.29903 0.98297
 H341 H 0.45718 0.31085 0.97013
 C342 C 0.46064 0.26800 1.01506
 H343 H 0.46206 0.25620 1.02781
 C344 C 0.44343 0.28254 1.01514
 H345 H 0.43175 0.28174 1.02801
 Zn346 Zn 0.50014 0.25065 0.99947
 N347 N 0.47579 0.26902 0.99932
 C348 C 0.48442 0.23450 0.95952
 N349 N 0.50039 0.23319 0.97458
 C350 C 0.51644 0.21837 0.97297
 C351 C 0.51698 0.20421 0.95559
 C352 C 0.48432 0.22063 0.94187
 C353 C 0.52606 0.28285 1.01687
 C354 C 0.54307 0.29745 1.01790
 C355 C 0.55706 0.28250 0.98492
 C356 C 0.53975 0.26817 0.98451
 N357 N 0.52474 0.26856 1.00039
 H358 H 0.47154 0.24606 0.96131
 H359 H 0.52870 0.21740 0.98540
 H360 H 0.52969 0.19228 0.95482
 H361 H 0.47154 0.22200 0.92999
 H362 H 0.51372 0.28300 1.02912
 H363 H 0.54390 0.30858 1.03125
 H364 H 0.56861 0.28225 0.97190
 H365 H 0.53812 0.25709 0.97125
 C366 C 0.44193 0.29840 0.99900
 C367 C 0.49875 0.20204 1.05701
 C368 C 0.55880 0.29749 1.00171
 C369 C 0.50072 0.20517 0.93978
 C370 C 0.48256 0.78321 -0.02386
 H371 H 0.47036 0.78328 -0.01146
 C372 C 0.48161 0.79824 -0.04060
 H373 H 0.46840 0.80964 -0.04117
 C374 C 0.51466 0.76826 -0.03800
 H375 H 0.52778 0.75688 -0.03666
 C376 C 0.51433 0.78301 -0.05504
 H377 H 0.52727 0.78279 -0.06668
 N378 N 0.49884 0.76856 -0.02290
 C379 C 0.47441 0.71645 0.01723
 H380 H 0.48698 0.71580 0.02937
 C381 C 0.45754 0.70167 0.01779
 H382 H 0.45706 0.68987 0.03066
 C383 C 0.45996 0.73264 -0.01435
 H384 H 0.46122 0.74442 -0.02711
 C385 C 0.44277 0.71816 -0.01439
 H386 H 0.43095 0.71898 -0.02727
 Zn387 Zn 0.49961 0.74986 0.00123
 N388 N 0.47528 0.73159 0.00139
 C389 C 0.48424 0.76613 0.04113
 N390 N 0.50007 0.76737 0.02610
 C391 C 0.51611 0.78214 0.02771
 C392 C 0.51679 0.79631 0.04508
 C393 C 0.48429 0.78002 0.05877
 C394 C 0.52537 0.71752 -0.01607
 C395 C 0.54241 0.70287 -0.01709
 C396 C 0.55676 0.71785 0.01584
 C397 C 0.53942 0.73223 0.01624
 N398 N 0.52422 0.73186 0.00037
 H399 H 0.47137 0.75461 0.03935
 H400 H 0.52825 0.78305 0.01529
 H401 H 0.52949 0.80820 0.04585
 H402 H 0.47163 0.77870 0.07064
 H403 H 0.51289 0.71738 -0.02831
 H404 H 0.54311 0.69171 -0.03041
 H405 H 0.56846 0.71810 0.02884
 H406 H 0.53793 0.74336 0.02947
 C407 C 0.44147 0.70233 0.00177
 C408 C 0.49770 0.79834 -0.05644
 C409 C 0.55834 0.70282 -0.00092
 C410 C 0.50068 0.79542 0.06087
 C411 C 1.02644 0.48486 0.21722
 H412 H 1.01411 0.47261 0.21637
 C413 C 1.04355 0.48457 0.20272
 H414 H 1.04421 0.47206 0.19064
 C415 C 1.03992 0.51655 0.23345
 H416 H 1.03827 0.52919 0.24522
 C417 C 1.05730 0.51690 0.21924
 H418 H 1.06911 0.52962 0.22054
 N419 N 1.02500 0.50060 0.23228
 C420 C 0.98468 0.47383 0.28301
 H421 H 0.97243 0.48621 0.28387
 C422 C 0.98416 0.45640 0.29723
 H423 H 0.97148 0.45554 0.30911
 C424 C 1.01662 0.46053 0.26700
 H425 H 1.02943 0.46237 0.25543
 C426 C 1.01673 0.44283 0.28094
 H427 H 1.02947 0.43097 0.27964
 Zn428 Zn 1.00061 0.50035 0.25045
 N429 N 1.00065 0.47551 0.26818
 C430 C 0.96121 0.48467 0.23297
 N431 N 0.97596 0.50081 0.23236
 C432 C 0.97424 0.51715 0.21782
 C433 C 0.95706 0.51780 0.20321
 C434 C 0.94378 0.48468 0.21864
 C435 C 1.01702 0.52534 0.28386
 C436 C 1.01773 0.54203 0.29880
 C437 C 0.98498 0.55643 0.28314
 C438 C 0.98490 0.53943 0.26848
 N439 N 1.00085 0.52439 0.26904
 H440 H 0.96308 0.47158 0.24432
 H441 H 0.98643 0.52955 0.21741
 H442 H 0.95621 0.53073 0.19150
 H443 H 0.93215 0.47175 0.21945
 H444 H 1.02934 0.51299 0.28412
 H445 H 1.03087 0.54259 0.31033
 H446 H 0.97195 0.56805 0.28270
 H447 H 0.97188 0.53810 0.25694
 C448 C 1.00036 0.44061 0.29634
 C449 C 1.05926 0.50077 0.20358
 C450 C 1.00150 0.55782 0.29864
 C451 C 0.94159 0.50134 0.20343
 C452 C -0.02764 0.48222 0.78144
 H453 H -0.01536 0.46984 0.78212
 C454 C -0.04496 0.48156 0.79569
 H455 H -0.04583 0.46865 0.80741
 C456 C -0.04077 0.51463 0.76594
 H457 H -0.03888 0.52769 0.75459
 C458 C -0.05834 0.51462 0.77991
 H459 H -0.07007 0.52751 0.77882
 N460 N -0.02591 0.49852 0.76689
 C461 C 0.01573 0.47391 0.71623
 H462 H 0.02799 0.48626 0.71617
 C463 C 0.01665 0.45719 0.70133
 H464 H 0.02988 0.45661 0.69005
 C465 C -0.01644 0.45984 0.73103
 H466 H -0.02955 0.46119 0.74232
 C467 C -0.01615 0.44282 0.71641
 H468 H -0.02912 0.43120 0.71662
 Zn469 Zn -0.00111 0.49897 0.74928
 N470 N -0.00056 0.47489 0.73074
 C471 C 0.03823 0.48291 0.76700
 N472 N 0.02314 0.49878 0.76791
 C473 C 0.02432 0.51456 0.78297
 C474 C 0.04137 0.51499 0.79771
 C475 C 0.05556 0.48271 0.78146
 C476 C -0.01688 0.52546 0.71636
 C477 C -0.01734 0.54289 0.70211
 C478 C 0.01502 0.55642 0.71904
 C479 C 0.01484 0.53873 0.73300
 N480 N -0.00105 0.52377 0.73150
 H481 H 0.03678 0.47025 0.75523
 H482 H 0.01186 0.52674 0.78359
 H483 H 0.04185 0.52754 0.80976
 H484 H 0.06754 0.47007 0.78036
 H485 H -0.02908 0.51311 0.71526
 H486 H -0.02991 0.54375 0.68997
 H487 H 0.02770 0.56826 0.72059
 H488 H 0.02756 0.53689 0.74482
 C489 C 0.00050 0.44140 0.70122
 C490 C -0.06056 0.49797 0.79511
 C491 C -0.00121 0.55865 0.70331
 C492 C 0.05729 0.49891 0.79709
 C493 C 0.10866 0.15441 0.49938
 C494 C 0.11306 0.17580 0.50475
 C495 C 0.09650 0.19112 0.50456
 C496 C 0.07532 0.18521 0.49896
 C497 C 0.07110 0.16367 0.49355
 C498 C 0.08766 0.14840 0.49377
 C499 C 0.12555 0.13851 0.49978
 C500 C 0.13938 0.12485 0.50011
 C501 C 0.15548 0.10815 0.50050
 C502 C 0.17678 0.11264 0.49470
 C503 C 0.19226 0.09623 0.49482
 C504 C 0.18662 0.07512 0.50077
 C505 C 0.16517 0.07082 0.50662
 C506 C 0.14973 0.08723 0.50648
 H507 H 0.12927 0.18063 0.50909
 H508 H 0.10030 0.20762 0.50857
 H509 H 0.05492 0.15853 0.48950
 H510 H 0.08406 0.13186 0.48968
 H511 H 0.18140 0.12879 0.49007
 H512 H 0.20868 0.10009 0.49045
 H513 H 0.16022 0.05469 0.51094
 H514 H 0.13327 0.08355 0.51090
 C515 C 0.65699 0.61044 -0.00135
 C516 C 0.66695 0.60415 0.01797
 C517 C 0.68224 0.58759 0.01808
 C518 C 0.68776 0.57707 -0.00117
 C519 C 0.67782 0.58368 -0.02054
 C520 C 0.66253 0.60023 -0.02061
 C521 C 0.64064 0.62690 -0.00134
 C522 C 0.62667 0.64041 -0.00137
 C523 C 0.60967 0.65621 -0.00144
 C524 C 0.61390 0.67746 0.00457
 C525 C 0.59725 0.69268 0.00468
 C526 C 0.57615 0.68681 -0.00125
 C527 C 0.57210 0.66540 -0.00730
 C528 C 0.58876 0.65023 -0.00739
 H529 H 0.66279 0.61195 0.03297
 H530 H 0.68979 0.58305 0.03320
 H531 H 0.68149 0.57571 -0.03557
 H532 H 0.65484 0.60490 -0.03564
 H533 H 0.63005 0.68226 0.00918
 H534 H 0.60092 0.70908 0.00919
 H535 H 0.55599 0.66028 -0.01163
 H536 H 0.58529 0.63380 -0.01198
 C537 C 0.89053 -0.15563 0.49807
 C538 C 0.91139 -0.14979 0.49197
 C539 C 0.92786 -0.16515 0.49176
 C540 C 0.92370 -0.18661 0.49767
 C541 C 0.90264 -0.19236 0.50370
 C542 C 0.88616 -0.17695 0.50388
 C543 C 0.87379 -0.13959 0.49867
 C544 C 0.86011 -0.12580 0.49922
 C545 C 0.84421 -0.10893 0.49993
 C546 C 0.85034 -0.08815 0.50592
 C547 C 0.83508 -0.07161 0.50646
 C548 C 0.81342 -0.07562 0.50101
 C549 C 0.80739 -0.09658 0.49503
 C550 C 0.82270 -0.11313 0.49451
 H551 H 0.91497 -0.13331 0.48754
 H552 H 0.94396 -0.16013 0.48737
 H553 H 0.89888 -0.20879 0.50811
 H554 H 0.87006 -0.18165 0.50861
 H555 H 0.86696 -0.08471 0.51005
 H556 H 0.84031 -0.05560 0.51080
 H557 H 0.79081 -0.10022 0.49097
 H558 H 0.81778 -0.12917 0.48988
 C559 C 0.34422 0.39168 1.00142
 C560 C 0.35018 0.41258 1.00714
 C561 C 0.33480 0.42902 1.00742
 C562 C 0.31319 0.42479 1.00196
 C563 C 0.30732 0.40370 0.99627
 C564 C 0.32276 0.38725 0.99602
 C565 C 0.36026 0.37494 1.00089
 C566 C 0.37405 0.36126 1.00043
 C567 C 0.39092 0.34534 0.99988
 C568 C 0.41188 0.35146 0.99442
 C569 C 0.42842 0.33619 0.99406
 C570 C 0.42423 0.31453 0.99917
 C571 C 0.40309 0.30852 1.00462
 C572 C 0.38654 0.32384 1.00495
 H573 H 0.36677 0.41621 1.01125
 H574 H 0.33991 0.44514 1.01153
 H575 H 0.29078 0.39989 0.99221
 H576 H 0.31796 0.37111 0.99159
 H577 H 0.41546 0.36808 0.99055
 H578 H 0.44457 0.34140 0.99013
 H579 H 0.39931 0.29194 1.00841
 H580 H 0.37036 0.31893 1.00918
 C581 C 0.88876 0.15751 0.50085
 C582 C 0.89535 0.16713 0.52013
 C583 C 0.91188 0.18238 0.52005
 C584 C 0.92204 0.18819 0.50066
 C585 C 0.91511 0.17859 0.48134
 C586 C 0.89859 0.16335 0.48146
 C587 C 0.87239 0.14115 0.50102
 C588 C 0.85897 0.12716 0.50105
 C589 C 0.84332 0.11012 0.50098
 C590 C 0.82193 0.11422 0.50679
 C591 C 0.80682 0.09756 0.50674
 C592 C 0.81292 0.07658 0.50082
 C593 C 0.83447 0.07267 0.49502
 C594 C 0.84954 0.08933 0.49510
 H595 H 0.88784 0.16273 0.53523
 H596 H 0.91667 0.18967 0.53515
 H597 H 0.92280 0.18248 0.46620
 H598 H 0.89369 0.15590 0.46646
 H599 H 0.81694 0.13028 0.51133
 H600 H 0.79031 0.10113 0.51106
 H601 H 0.83976 0.05665 0.49072
 H602 H 0.86607 0.08596 0.49065
 C603 C 0.34391 0.60937 -0.00031
 C604 C 0.32251 0.61386 0.00515
 C605 C 0.30712 0.59746 0.00497
 C606 C 0.31296 0.57635 -0.00071
 C607 C 0.33452 0.57205 -0.00622
 C608 C 0.34985 0.58845 -0.00602
 C609 C 0.35991 0.62608 0.00015
 C610 C 0.37368 0.63972 0.00054
 C611 C 0.39053 0.65557 0.00103
 C612 C 0.38606 0.67707 -0.00410
 C613 C 0.40259 0.69234 -0.00382
 C614 C 0.42380 0.68626 0.00163
 C615 C 0.42809 0.66460 0.00679
 C616 C 0.41156 0.64939 0.00648
 H617 H 0.31773 0.63002 0.00958
 H618 H 0.29062 0.60132 0.00907
 H619 H 0.33961 0.55591 -0.01034
 H620 H 0.36640 0.58478 -0.01017
 H621 H 0.36982 0.68203 -0.00832
 H622 H 0.39874 0.70892 -0.00764
 H623 H 0.44430 0.65934 0.01072
 H624 H 0.41522 0.63277 0.01039
 C625 C 0.10908 -0.15558 0.50045
 C626 C 0.08809 -0.14946 0.50585
 C627 C 0.07158 -0.16469 0.50610
 C628 C 0.07584 -0.18630 0.50094
 C629 C 0.09702 -0.19231 0.49555
 C630 C 0.11353 -0.17703 0.49532
 C631 C 0.12590 -0.13970 0.49997
 C632 C 0.13965 -0.12604 0.49956
 C633 C 0.15563 -0.10932 0.49905
 C634 C 0.14957 -0.08833 0.49347
 C635 C 0.16490 -0.07193 0.49314
 C636 C 0.18657 -0.07629 0.49840
 C637 C 0.19253 -0.09745 0.50399
 C638 C 0.17714 -0.11387 0.50429
 H639 H 0.08445 -0.13288 0.50975
 H640 H 0.05540 -0.15948 0.50999
 H641 H 0.10085 -0.20886 0.49172
 H642 H 0.12974 -0.18194 0.49114
 H643 H 0.13294 -0.08462 0.48948
 H644 H 0.15972 -0.05575 0.48911
 H645 H 0.20912 -0.10136 0.50790
 H646 H 0.18202 -0.13007 0.50861
 C647 C 0.65701 0.38982 1.00129
 C648 C 0.66318 0.39990 1.02047
 C649 C 0.67841 0.41644 1.02014
 C650 C 0.68764 0.42314 1.00057
 C651 C 0.68148 0.41275 0.98140
 C652 C 0.66627 0.39621 0.98178
 C653 C 0.64074 0.37338 1.00156
 C654 C 0.62684 0.35986 1.00178
 C655 C 0.60993 0.34406 1.00203
 C656 C 0.58909 0.35005 1.00809
 C657 C 0.57251 0.33489 1.00810
 C658 C 0.57655 0.31348 1.00202
 C659 C 0.59759 0.30759 0.99600
 C660 C 0.61417 0.32280 0.99602
 H661 H 0.65603 0.39516 1.03565
 H662 H 0.68258 0.42430 1.03512
 H663 H 0.68850 0.41736 0.96613
 H664 H 0.66161 0.38851 0.96684
 H665 H 0.58561 0.36649 1.01268
 H666 H 0.55643 0.34002 1.01249
 H667 H 0.60127 0.29119 0.99147
 H668 H 0.63027 0.31799 0.99133
 C669 C 0.49888 0.10761 1.15382
 C670 C 0.49329 0.08667 1.14789
 C671 C 0.49328 0.07019 1.16326
 C672 C 0.49888 0.07443 1.18483
 C673 C 0.50450 0.09555 1.19065
 C674 C 0.50448 0.11203 1.17523
 C675 C 0.49891 0.12446 1.13785
 C676 C 0.49886 0.13827 1.12415
 C677 C 0.49870 0.15439 1.10745
 C678 C 0.49283 0.14877 1.08642
 C679 C 0.49278 0.16427 1.07006
 C680 C 0.49861 0.18566 1.07450
 C681 C 0.50449 0.19117 1.09571
 C682 C 0.50451 0.17562 1.11208
 H683 H 0.48901 0.08305 1.13135
 H684 H 0.48921 0.05405 1.15819
 H685 H 0.50865 0.09937 1.20716
 H686 H 0.50880 0.12821 1.18000
 H687 H 0.48839 0.13236 1.08264
 H688 H 0.48850 0.15943 1.05385
 H689 H 0.50883 0.20754 1.09969
 H690 H 0.50905 0.18015 1.12831
 C691 C -0.00077 0.65774 0.61139
 C692 C 0.01862 0.66369 0.60166
 C693 C 0.01866 0.67892 0.58502
 C694 C -0.00074 0.68838 0.57786
 C695 C -0.02013 0.68243 0.58790
 C696 C -0.02013 0.66721 0.60455
 C697 C -0.00085 0.64150 0.62798
 C698 C -0.00089 0.62766 0.64164
 C699 C -0.00090 0.61087 0.65767
 C700 C 0.01846 0.60097 0.66383
 C701 C 0.01841 0.58415 0.67885
 C702 C -0.00106 0.57699 0.68790
 C703 C -0.02043 0.58719 0.68174
 C704 C -0.02033 0.60401 0.66672
 H705 H 0.03369 0.65638 0.60676
 H706 H 0.03381 0.68291 0.57742
 H707 H -0.03529 0.68962 0.58294
 H708 H -0.03523 0.66273 0.61199
 H709 H 0.03358 0.60608 0.65684
 H710 H 0.03354 0.57645 0.68302
 H711 H -0.03564 0.58222 0.68861
 H712 H -0.03541 0.61158 0.66208
 C713 C 0.49784 0.89260 -0.15343
 C714 C 0.49189 0.91353 -0.14774
 C715 C 0.49211 0.92999 -0.16313
 C716 C 0.49829 0.92574 -0.18449
 C717 C 0.50423 0.90462 -0.19007
 C718 C 0.50399 0.88817 -0.17462
 C719 C 0.49774 0.87580 -0.13741
 C720 C 0.49762 0.86201 -0.12369
 C721 C 0.49743 0.84591 -0.10697
 C722 C 0.49163 0.85159 -0.08599
 C723 C 0.49162 0.83612 -0.06960
 C724 C 0.49744 0.81469 -0.07397
 C725 C 0.50322 0.80911 -0.09514
 C726 C 0.50320 0.82463 -0.11152
 H727 H 0.48719 0.91716 -0.13135
 H728 H 0.48777 0.94612 -0.15824
 H729 H 0.50884 0.90079 -0.20642
 H730 H 0.50859 0.87201 -0.17921
 H731 H 0.48723 0.86804 -0.08227
 H732 H 0.48742 0.84101 -0.05343
 H733 H 0.50754 0.79271 -0.09906
 H734 H 0.50768 0.82005 -0.12772
 C735 C 0.99974 0.34176 0.38851
 C736 C 0.98047 0.33665 0.39881
 C737 C 0.98026 0.32154 0.41554
 C738 C 0.99944 0.31113 0.42244
 C739 C 1.01873 0.31638 0.41152
 C740 C 1.01882 0.33154 0.39482
 C741 C 1.00000 0.35792 0.37184
 C742 C 1.00017 0.37169 0.35811
 C743 C 1.00032 0.38842 0.34201
 C744 C 0.98098 0.39530 0.33251
 C745 C 0.98101 0.41210 0.31747
 C746 C 1.00041 0.42225 0.31173
 C747 C 1.01980 0.41504 0.32120
 C748 C 1.01973 0.39825 0.33625
 H749 H 0.96553 0.34436 0.39391
 H750 H 0.96478 0.31768 0.42246
 H751 H 1.03411 0.30969 0.41637
 H752 H 1.03390 0.33553 0.38705
 H753 H 0.96587 0.38779 0.33685
 H754 H 0.96586 0.41710 0.31026
 H755 H 1.03495 0.42271 0.31735
 H756 H 1.03478 0.39311 0.34359
 C757 C 0.50099 0.88784 0.15876
 C758 C 0.48175 0.89420 0.16845
 C759 C 0.48164 0.91096 0.18341
 C760 C 0.50088 0.92188 0.18898
 C761 C 0.52021 0.91493 0.17913
 C762 C 0.52020 0.89815 0.16422
 C763 C 0.50093 0.87114 0.14278
 C764 C 0.50086 0.85738 0.12915
 C765 C 0.50075 0.84125 0.11258
 C766 C 0.48134 0.83534 0.10271
 C767 C 0.48127 0.82024 0.08608
 C768 C 0.50067 0.81088 0.07906
 C769 C 0.52008 0.81678 0.08924
 C770 C 0.52010 0.83187 0.10589
 H771 H 0.46672 0.88644 0.16418
 H772 H 0.46617 0.91583 0.18965
 H773 H 0.53563 0.92186 0.18328
 H774 H 0.53525 0.89322 0.15692
 H775 H 0.46627 0.84258 0.10769
 H776 H 0.46610 0.81628 0.07837
 H777 H 0.53524 0.80966 0.08439
 H778 H 0.53523 0.83633 0.11343
 C779 C 0.00161 0.34434 0.60788
 C780 C -0.00431 0.32310 0.61240
 C781 C -0.00426 0.30770 0.59602
 C782 C 0.00175 0.31337 0.57491
 C783 C 0.00772 0.33477 0.57058
 C784 C 0.00764 0.35012 0.58696
 C785 C 0.00137 0.36033 0.62457
 C786 C 0.00123 0.37406 0.63824
 C787 C 0.00114 0.39081 0.65417
 C788 C -0.00477 0.38632 0.67545
 C789 C -0.00496 0.40273 0.69080
 C790 C 0.00079 0.42386 0.68504
 C791 C 0.00671 0.42818 0.66359
 C792 C 0.00688 0.41177 0.64829
 H793 H -0.00897 0.31844 0.62856
 H794 H -0.00871 0.29131 0.59991
 H795 H 0.01209 0.33974 0.55445
 H796 H 0.01217 0.36655 0.58326
 H797 H -0.00921 0.37013 0.68017
 H798 H -0.00937 0.39885 0.70722
 H799 H 0.01090 0.44433 0.65856
 H800 H 0.01139 0.41544 0.63184
 C801 C 0.50036 0.11273 0.84192
 C802 C 0.51979 0.10572 0.83297
 C803 C 0.51988 0.08894 0.81804
 C804 C 0.50049 0.07894 0.81186
 C805 C 0.48101 0.08628 0.82077
 C806 C 0.48097 0.10304 0.83571
 C807 C 0.50037 0.12944 0.85789
 C808 C 0.50038 0.14320 0.87152
 C809 C 0.50039 0.15934 0.88807
 C810 C 0.51978 0.16867 0.89478
 C811 C 0.51989 0.18377 0.91142
 C812 C 0.50056 0.18973 0.92158
 C813 C 0.48111 0.18041 0.91455
 C814 C 0.48105 0.16531 0.89792
 H815 H 0.53489 0.11312 0.83765
 H816 H 0.53509 0.08385 0.81126
 H817 H 0.46587 0.07873 0.81657
 H818 H 0.46585 0.10828 0.84262
 H819 H 0.53484 0.16417 0.88725
 H820 H 0.53507 0.19084 0.91628
 H821 H 0.46601 0.18442 0.92224
 H822 H 0.46596 0.15811 0.89293
 C823 C 1.00179 0.65483 0.39203
 C824 C 0.99598 0.67613 0.38738
 C825 C 0.99600 0.69155 0.40374
 C826 C 1.00185 0.68584 0.42496
 C827 C 1.00769 0.66439 0.42942
 C828 C 1.00765 0.64902 0.41306
 C829 C 1.00163 0.63883 0.37534
 C830 C 1.00157 0.62511 0.36167
 C831 C 1.00160 0.60836 0.34574
 C832 C 0.99582 0.61289 0.32437
 C833 C 0.99579 0.59648 0.30900
 C834 C 1.00158 0.57534 0.31484
 C835 C 1.00736 0.57099 0.33639
 C836 C 1.00737 0.58739 0.35171
 H837 H 0.99145 0.68081 0.37114
 H838 H 0.99165 0.70797 0.39975
 H839 H 1.01195 0.65940 0.44563
 H840 H 1.01209 0.63256 0.41685
 H841 H 0.99137 0.62908 0.31957
 H842 H 0.99149 0.60038 0.29250
 H843 H 1.01157 0.55483 0.34148
 H844 H 1.01179 0.58369 0.36823
 C845 C 1.15700 0.50189 0.11090
 C846 C 1.16685 0.48269 0.10469
 C847 C 1.18200 0.48261 0.08810
 C848 C 1.18762 0.50183 0.07719
 C849 C 1.17757 0.52112 0.08395
 C850 C 1.16247 0.52109 0.10058
 C851 C 1.14091 0.50180 0.12752
 C852 C 1.12723 0.50170 0.14124
 C853 C 1.11065 0.50153 0.15737
 C854 C 1.10408 0.48208 0.16662
 C855 C 1.08751 0.48183 0.18180
 C856 C 1.07729 0.50107 0.18793
 C857 C 1.08416 0.52057 0.17868
 C858 C 1.10072 0.52078 0.16349
 H859 H 1.16258 0.46767 0.11247
 H860 H 1.18837 0.46717 0.08334
 H861 H 1.18172 0.53653 0.07702
 H862 H 1.15504 0.53610 0.10539
 H863 H 1.11168 0.46709 0.16201
 H864 H 1.08277 0.46660 0.18882
 H865 H 1.07642 0.53561 0.18283
 H866 H 1.10562 0.53592 0.15635
 C867 C 0.61190 -0.00004 0.65933
 C868 C 0.60553 -0.01931 0.66910
 C869 C 0.58895 -0.01933 0.68428
 C870 C 0.57852 -0.00003 0.68988
 C871 C 0.58520 0.01929 0.68011
 C872 C 0.60177 0.01926 0.66494
 C873 C 0.62843 -0.00011 0.64315
 C874 C 0.64205 -0.00012 0.62937
 C875 C 0.65804 -0.00008 0.61265
 C876 C 0.66375 -0.01931 0.60251
 C877 C 0.67877 -0.01920 0.58579
 C878 C 0.68825 0.00018 0.57896
 C879 C 0.68253 0.01941 0.58940
 C880 C 0.66752 0.01926 0.60613
 H881 H 0.61328 -0.03434 0.66489
 H882 H 0.58435 -0.03441 0.69170
 H883 H 0.57729 0.03435 0.68383
 H884 H 0.60650 0.03425 0.65739
 H885 H 0.65643 -0.03436 0.60737
 H886 H 0.68259 -0.03422 0.57790
 H887 H 0.68974 0.03455 0.58470
 H888 H 0.66322 0.03424 0.61388
 C889 C -0.15843 0.49826 0.88765
 C890 C -0.16787 0.51768 0.89396
 C891 C -0.18290 0.51799 0.91067
 C892 C -0.18867 0.49883 0.92130
 C893 C -0.17925 0.47935 0.91467
 C894 C -0.16422 0.47909 0.89797
 C895 C -0.14238 0.49808 0.87100
 C896 C -0.12871 0.49802 0.85727
 C897 C -0.11212 0.49806 0.84115
 C898 C -0.10200 0.51733 0.83547
 C899 C -0.08540 0.51735 0.82033
 C900 C -0.07867 0.49804 0.81067
 C901 C -0.08908 0.47876 0.81636
 C902 C -0.10569 0.47879 0.83150
 H903 H -0.16352 0.53262 0.88607
 H904 H -0.19006 0.53319 0.91521
 H905 H -0.18313 0.46438 0.92272
 H906 H -0.15692 0.46398 0.89328
 H907 H -0.10677 0.53233 0.84292
 H908 H -0.07751 0.53240 0.81654
 H909 H -0.08445 0.46368 0.80902
 H910 H -0.11343 0.46378 0.83578
 C911 C 0.38908 0.00000 0.34182
 C912 C 0.39584 -0.01942 0.33273
 C913 C 0.41251 -0.01962 0.31766
 C914 C 0.42266 -0.00035 0.31149
 C915 C 0.41559 0.01912 0.32058
 C916 C 0.39893 0.01927 0.33565
 C917 C 0.37241 0.00010 0.35786
 C918 C 0.35866 0.00013 0.37151
 C919 C 0.34250 0.00010 0.38806
 C920 C 0.33660 -0.01923 0.39800
 C921 C 0.32142 -0.01924 0.41457
 C922 C 0.31195 0.00014 0.42144
 C923 C 0.31786 0.01947 0.41121
 C924 C 0.33304 0.01943 0.39463
 H925 H 0.38831 -0.03443 0.33738
 H926 H 0.41740 -0.03482 0.31076
 H927 H 0.42326 0.03418 0.31639
 H928 H 0.39389 0.03439 0.34267
 H929 H 0.34391 -0.03428 0.39312
 H930 H 0.31745 -0.03434 0.42232
 H931 H 0.31067 0.03460 0.41595
 H932 H 0.33749 0.03448 0.38703
 C933 C 0.15548 0.49918 0.89036
 C934 C 0.16513 0.47994 0.89719
 C935 C 0.18045 0.48007 0.91380
 C936 C 0.18631 0.49948 0.92381
 C937 C 0.17664 0.51876 0.91669
 C938 C 0.16132 0.51859 0.90010
 C939 C 0.13926 0.49899 0.87371
 C940 C 0.12548 0.49888 0.85994
 C941 C 0.10881 0.49881 0.84373
 C942 C 0.09913 0.47945 0.83763
 C943 C 0.08251 0.47944 0.82232
 C944 C 0.07533 0.49883 0.81292
 C945 C 0.08529 0.51819 0.81905
 C946 C 0.10192 0.51816 0.83435
 H947 H 0.16074 0.46483 0.88974
 H948 H 0.18779 0.46500 0.91873
 H949 H 0.18058 0.53391 0.92427
 H950 H 0.15388 0.53356 0.89500
 H951 H 0.10427 0.46439 0.84487
 H952 H 0.07498 0.46431 0.81817
 H953 H 0.08032 0.53334 0.81191
 H954 H 0.10932 0.53324 0.83894
 C955 C 0.60976 0.00044 0.34392
 C956 C 0.59974 -0.01888 0.33827
 C957 C 0.58325 -0.01899 0.32283
 C958 C 0.57653 0.00028 0.31285
 C959 C 0.58683 0.01960 0.31853
 C960 C 0.60333 0.01966 0.33396
 C961 C 0.62630 0.00057 0.36026
 C962 C 0.63998 0.00063 0.37414
 C963 C 0.65608 0.00065 0.39091
 C964 C 0.66575 -0.01866 0.39751
 C965 C 0.68096 -0.01873 0.41422
 C966 C 0.68670 0.00054 0.42456
 C967 C 0.67700 0.01989 0.41769
 C968 C 0.66179 0.01993 0.40099
 H969 H 0.60453 -0.03385 0.34595
 H970 H 0.57545 -0.03408 0.31905
 H971 H 0.58220 0.03465 0.31094
 H972 H 0.61099 0.03471 0.33821
 H973 H 0.66147 -0.03367 0.38980
 H974 H 0.68833 -0.03384 0.41896
 H975 H 0.68085 0.03494 0.42551
 H976 H 0.65433 0.03495 0.39607
 C977 C 0.84502 0.50079 0.10851
 C978 C 0.85112 0.49468 0.08774
 C979 C 0.83592 0.49439 0.07105
 C980 C 0.81435 0.50022 0.07491
 C981 C 0.80837 0.50636 0.09586
 C982 C 0.82362 0.50663 0.11254
 C983 C 0.86079 0.50106 0.12559
 C984 C 0.87425 0.50118 0.13967
 C985 C 0.89061 0.50117 0.15620
 C986 C 0.90083 0.48192 0.16208
 C987 C 0.91723 0.48194 0.17761
 C988 C 0.92367 0.50125 0.18746
 C989 C 0.91315 0.52050 0.18157
 C990 C 0.89674 0.52044 0.16604
 H991 H 0.86766 0.49020 0.08442
 H992 H 0.84111 0.48990 0.05505
 H993 H 0.79186 0.51071 0.09939
 H994 H 0.81872 0.51134 0.12858
 H995 H 0.89629 0.46693 0.15449
 H996 H 0.92521 0.46691 0.18155
 H997 H 0.91756 0.53558 0.18904
 H998 H 0.88892 0.53544 0.16161
 C999 C 0.39271 -0.00008 0.65433
 C1000 C 0.41369 0.00563 0.64850
 C1001 C 0.43007 0.00611 0.66402
 C1002 C 0.42570 0.00088 0.68564
 C1003 C 0.40454 -0.00482 0.69136
 C1004 C 0.38816 -0.00528 0.67579
 C1005 C 0.37599 -0.00073 0.63819
 C1006 C 0.36224 -0.00125 0.62440
 C1007 C 0.34615 -0.00182 0.60763
 C1008 C 0.35196 -0.00778 0.58673
 C1009 C 0.33651 -0.00805 0.57027
 C1010 C 0.31499 -0.00233 0.57449
 C1011 C 0.30927 0.00357 0.59558
 C1012 C 0.32477 0.00381 0.61204
 H1013 H 0.41741 0.00960 0.63191
 H1014 H 0.44624 0.01024 0.65904
 H1015 H 0.40061 -0.00871 0.70791
 H1016 H 0.37196 -0.00969 0.68048
 H1017 H 0.36849 -0.01208 0.58312
 H1018 H 0.34150 -0.01234 0.55415
 H1019 H 0.29280 0.00782 0.59939
 H1020 H 0.32009 0.00842 0.62817
   
