data_POSCAR
  _audit_creation_date              2014-09-24
  _audit_creation_method            'ToBaCCo'
  _symmetry_space_group_name_H-M    'P1'
  _symmetry_Int_Tables_number       1
  _symmetry_cell_setting            triclinic
  loop_
  _symmetry_equiv_pos_as_xyz
 x,y,z
_cell_length_a 20.4331
_cell_length_b 20.2680
_cell_length_c 20.3353
_cell_angle_alpha 90.103900
_cell_angle_beta 90.036600
_cell_angle_gamma 89.831200
loop_
  _atom_site_label
  _atom_site_type_symbol
  _atom_site_fract_x
  _atom_site_fract_y
  _atom_site_fract_z
O1 O -0.16936 0.09224 0.00359
 O2 O 0.16722 0.08691 -0.00669
 O3 O -0.00242 0.17257 0.08510
 O4 O -0.00437 0.16850 -0.09200
 O5 O -0.00189 0.08607 -0.17023
 O6 O -0.00200 0.09354 0.16688
 O7 O 0.08823 0.16872 -0.00776
 O8 O -0.08911 0.17200 0.00013
 Zr9 Zr -0.00140 0.11659 -0.00232
 O10 O 0.05615 0.05799 -0.06201
 O11 O -0.05944 0.06253 0.06033
 C12 C -0.14967 0.15303 0.00117
 C13 C 0.14853 0.14815 -0.00866
 C14 C -0.00318 0.15402 0.14602
 C15 C -0.00174 0.14778 -0.15234
 H16 H 0.08668 0.08912 0.08385
 O17 O 0.05824 0.06035 0.05702
 H18 H -0.09107 0.08651 -0.08744
 O19 O -0.06265 0.05940 -0.05879
 O20 O 0.16383 -0.09205 0.00382
 O21 O -0.17162 -0.08540 0.00542
 O22 O 0.08984 0.00098 0.16662
 O23 O 0.08114 -0.00258 -0.16922
 O24 O -0.09632 -0.00762 -0.16594
 O25 O -0.08615 0.00601 0.17268
 O26 O -0.00185 -0.16816 0.09304
 O27 O -0.00823 -0.17180 -0.08471
 O28 O 0.00672 -0.08614 0.17097
 O29 O -0.00647 -0.09276 -0.16645
 O30 O 0.16832 -0.00010 0.08569
 O31 O -0.16771 0.00925 0.09415
 O32 O -0.17238 -0.00231 -0.08343
 O33 O 0.16369 -0.00607 -0.09290
 O34 O 0.08267 -0.17134 0.00535
 O35 O -0.09502 -0.16819 0.00592
 Zr36 Zr 0.11261 -0.00149 -0.00205
 Zr37 Zr -0.11716 0.00231 0.00378
 Zr38 Zr 0.00023 0.00254 0.11602
 Zr39 Zr -0.00591 -0.00243 -0.11467
 Zr40 Zr -0.00504 -0.11620 0.00337
 O41 O -0.06473 -0.06028 -0.05621
 O42 O 0.05717 -0.05936 0.05982
 C43 C 0.14327 -0.15253 0.00635
 C44 C -0.15526 -0.14713 0.00748
 C45 C 0.14998 0.00149 0.14682
 C46 C 0.14225 -0.00604 -0.15321
 C47 C -0.15654 -0.00793 -0.14484
 C48 C -0.14687 0.01018 0.15449
 C49 C 0.00569 -0.14783 0.15316
 C50 C -0.00694 -0.15327 -0.14576
 H51 H -0.08855 -0.08405 0.09307
 O52 O -0.06127 -0.05724 0.06322
 H53 H 0.08081 -0.09080 -0.08510
 O54 O 0.05349 -0.06137 -0.05785
 O55 O 0.32586 0.58758 0.00314
 O56 O 0.66304 0.59424 -0.00376
 O57 O 0.49757 0.67076 0.08997
 O58 O 0.49582 0.67186 -0.08769
 O59 O 0.49444 0.59211 -0.16890
 O60 O 0.49030 0.59003 0.16945
 O61 O 0.58100 0.67131 -0.00116
 O62 O 0.40428 0.66942 0.00608
 Zr63 Zr 0.49373 0.61720 0.00075
 O64 O 0.55387 0.56239 -0.05956
 O65 O 0.43512 0.56036 0.06027
 C66 C 0.34427 0.64864 0.00641
 C67 C 0.64202 0.65496 -0.00377
 C68 C 0.49523 0.65108 0.15069
 C69 C 0.49679 0.65277 -0.14867
 H70 H 0.58145 0.58940 0.08688
 O71 O 0.55369 0.56098 0.05908
 H72 H 0.40667 0.58891 -0.08660
 O73 O 0.43528 0.56075 -0.05913
 O74 O 0.66609 0.41419 0.00073
 O75 O 0.32979 0.40896 -0.00545
 O76 O 0.58386 0.50064 0.16784
 O77 O 0.58390 0.50719 -0.16991
 O78 O 0.40454 0.49908 -0.16883
 O79 O 0.40713 0.49890 0.16945
 O80 O 0.50090 0.33110 0.08718
 O81 O 0.49460 0.33322 -0.09158
 O82 O 0.50075 0.41138 0.16789
 O83 O 0.49482 0.41426 -0.17134
 O84 O 0.66472 0.50522 0.08996
 O85 O 0.32793 0.50010 0.08872
 O86 O 0.32745 0.49802 -0.08753
 O87 O 0.66426 0.50673 -0.08988
 O88 O 0.58703 0.33315 0.00092
 O89 O 0.41080 0.32940 -0.00337
 Zr90 Zr 0.61159 0.50333 -0.00035
 Zr91 Zr 0.38109 0.49960 0.00005
 Zr92 Zr 0.49545 0.50076 0.11519
 Zr93 Zr 0.49494 0.50253 -0.11640
 Zr94 Zr 0.49782 0.38546 -0.00138
 O95 O 0.43736 0.44118 -0.06046
 O96 O 0.55647 0.44224 0.05883
 C97 C 0.64731 0.35294 0.00025
 C98 C 0.35013 0.34815 -0.00616
 C99 C 0.64475 0.50462 0.15094
 C100 C 0.64460 0.50920 -0.15064
 C101 C 0.34399 0.49598 -0.14854
 C102 C 0.34671 0.49815 0.14963
 C103 C 0.50300 0.35056 0.14799
 C104 C 0.49417 0.35332 -0.15220
 H105 H 0.41040 0.41114 0.08616
 O106 O 0.43776 0.44025 0.05863
 H107 H 0.58389 0.41602 -0.08878
 O108 O 0.55567 0.44359 -0.06034
 O109 O -0.16681 0.59705 0.49876
 O110 O 0.16847 0.57896 0.50218
 O111 O 0.00294 0.66920 0.59071
 O112 O 0.00618 0.66994 0.41235
 O113 O 0.00050 0.59000 0.33160
 O114 O -0.00210 0.58807 0.67025
 O115 O 0.09481 0.66407 0.49915
 O116 O -0.08433 0.67425 0.50478
 Zr117 Zr 0.00219 0.61622 0.50122
 O118 O 0.05767 0.55677 0.44064
 O119 O -0.05924 0.56253 0.56095
 C120 C -0.14558 0.65743 0.50030
 C121 C 0.15437 0.64071 0.49891
 C122 C 0.00012 0.64900 0.65116
 C123 C 0.00653 0.65076 0.35135
 H124 H 0.08797 0.58221 0.58835
 O125 O 0.05868 0.55601 0.55982
 H126 H -0.08699 0.59151 0.41291
 O127 O -0.06019 0.56281 0.44160
 O128 O 0.16130 0.40278 0.49553
 O129 O -0.17378 0.41872 0.49929
 O130 O 0.08672 0.49352 0.66814
 O131 O 0.08139 0.50182 0.32955
 O132 O -0.09485 0.49781 0.33175
 O133 O -0.09068 0.50529 0.67065
 O134 O -0.00348 0.33005 0.58991
 O135 O -0.01250 0.32945 0.41163
 O136 O -0.00504 0.41052 0.67030
 O137 O -0.00945 0.41033 0.33167
 O138 O 0.16558 0.48510 0.58771
 O139 O -0.17015 0.51221 0.59038
 O140 O -0.17158 0.50338 0.41351
 O141 O 0.16233 0.49730 0.40825
 O142 O 0.07884 0.32551 0.49503
 O143 O -0.09833 0.33402 0.50159
 Zr144 Zr 0.11121 0.49389 0.49939
 Zr145 Zr -0.11742 0.50545 0.50135
 Zr146 Zr -0.00256 0.49925 0.61622
 Zr147 Zr -0.00541 0.50036 0.38464
 Zr148 Zr -0.00766 0.38330 0.50031
 O149 O -0.06554 0.44252 0.44140
 O150 O 0.05432 0.43636 0.55990
 C151 C 0.14003 0.34264 0.49179
 C152 C -0.15775 0.35682 0.50160
 C153 C 0.14680 0.48568 0.64878
 C154 C 0.14204 0.49895 0.34748
 C155 C -0.15506 0.49797 0.35236
 C156 C -0.15096 0.51130 0.65123
 C157 C -0.00265 0.34958 0.65087
 C158 C -0.01130 0.34932 0.35110
 H159 H -0.09277 0.41626 0.58886
 O160 O -0.06403 0.44272 0.56013
 H161 H 0.07833 0.41057 0.41087
 O162 O 0.05175 0.43846 0.44027
 O163 O 0.32720 0.08255 0.49555
 O164 O 0.66264 0.09750 0.50365
 O165 O 0.49023 0.16889 0.58977
 O166 O 0.49896 0.17045 0.41154
 O167 O 0.50266 0.09078 0.33042
 O168 O 0.49093 0.08814 0.66971
 O169 O 0.57881 0.17310 0.49861
 O170 O 0.40332 0.16622 0.49854
 Zr171 Zr 0.49386 0.11594 0.49981
 O172 O 0.55768 0.06268 0.44177
 O173 O 0.43468 0.05768 0.55697
 C174 C 0.34380 0.14440 0.49488
 C175 C 0.63995 0.15755 0.50187
 C176 C 0.49045 0.14904 0.65050
 C177 C 0.50245 0.15151 0.35065
 H178 H 0.57955 0.09021 0.58889
 O179 O 0.55334 0.06137 0.56015
 H180 H 0.41196 0.08556 0.40923
 O181 O 0.43961 0.05779 0.43794
 O182 O 0.67182 -0.08219 0.50433
 O183 O 0.33538 -0.09644 0.48879
 O184 O 0.58203 -0.00051 0.66985
 O185 O 0.59284 0.00759 0.33279
 O186 O 0.41608 -0.00105 0.32579
 O187 O 0.40347 0.00224 0.66439
 O188 O 0.50570 -0.16923 0.58737
 O189 O 0.50268 -0.16814 0.40894
 O190 O 0.49850 -0.08897 0.66783
 O191 O 0.50394 -0.08763 0.32882
 O192 O 0.66485 0.00643 0.59409
 O193 O 0.32855 -0.00599 0.58106
 O194 O 0.33454 -0.00709 0.40393
 O195 O 0.67036 0.00986 0.41551
 O196 O 0.59488 -0.16528 0.50199
 O197 O 0.41844 -0.17212 0.49885
 Zr198 Zr 0.61450 0.00499 0.50284
 Zr199 Zr 0.38440 -0.00457 0.49467
 Zr200 Zr 0.49484 0.00005 0.61455
 Zr201 Zr 0.50263 0.00114 0.38305
 Zr202 Zr 0.50412 -0.11513 0.49874
 O203 O 0.44435 -0.06172 0.43674
 O204 O 0.55924 -0.05715 0.56067
 C205 C 0.65475 -0.14385 0.50221
 C206 C 0.35744 -0.15666 0.49151
 C207 C 0.64329 0.00380 0.65425
 C208 C 0.65261 0.01112 0.35421
 C209 C 0.35513 -0.00284 0.34370
 C210 C 0.34362 -0.00002 0.64241
 C211 C 0.50345 -0.14966 0.64810
 C212 C 0.50302 -0.14854 0.34816
 H213 H 0.41279 -0.09035 0.58363
 O214 O 0.44055 -0.06155 0.55618
 H215 H 0.59172 -0.08330 0.41324
 O216 O 0.56241 -0.05628 0.44111
 C217 C 0.28658 0.25853 0.04632
 C218 C 0.23780 0.21033 0.04569
 C219 C 0.20043 0.19880 -0.01102
 C220 C 0.21413 0.23504 -0.06880
 C221 C 0.26456 0.28305 -0.06853
 C222 C 0.29984 0.29595 -0.00998
 C223 C 0.27910 0.31554 -0.12766
 N224 N 0.24456 0.30154 -0.18290
 N225 N 0.19647 0.25735 -0.18284
 C226 C 0.18002 0.22375 -0.12769
 H227 H 0.31365 0.26726 0.09131
 H228 H 0.22857 0.18236 0.09005
 H229 H 0.31768 0.35182 -0.13048
 H230 H 0.14107 0.18795 -0.13042
 C231 C 0.24440 -0.19712 0.50775
 C232 C 0.19662 -0.24554 0.51049
 C233 C 0.21056 -0.31176 0.49575
 C234 C 0.27654 -0.32908 0.47736
 C235 C 0.32490 -0.27843 0.47197
 C236 C 0.30884 -0.21179 0.48912
 C237 C 0.38748 -0.29653 0.44803
 N238 N 0.40219 -0.36006 0.43458
 N239 N 0.35859 -0.40755 0.44239
 C240 C 0.29699 -0.39463 0.46290
 H241 H 0.23048 -0.14733 0.52145
 H242 H 0.14787 -0.23056 0.52531
 H243 H 0.42522 -0.26188 0.43733
 H244 H 0.26666 -0.43720 0.46579
 C245 C 0.75795 0.69245 -0.00931
 C246 C 0.80743 0.73931 -0.00399
 C247 C 0.79336 0.80575 0.01035
 C248 C 0.72657 0.82331 0.02244
 C249 C 0.67565 0.77808 0.00684
 C250 C 0.69150 0.70990 -0.00428
 C251 C 0.61116 0.80387 0.00457
 N252 N 0.59803 0.86489 0.02839
 N253 N 0.64473 0.90261 0.05368
 C254 C 0.70821 0.88367 0.05229
 H255 H 0.77231 0.64179 -0.01850
 H256 H 0.85730 0.72290 -0.01205
 H257 H 0.57076 0.77849 -0.01760
 H258 H 0.74291 0.91514 0.07686
 C259 C 0.74860 0.20039 0.47303
 C260 C 0.79744 0.24772 0.47306
 C261 C 0.78855 0.30820 0.50512
 C262 C 0.72860 0.32100 0.53832
 C263 C 0.67641 0.27501 0.53372
 C264 C 0.68789 0.21245 0.50286
 C265 C 0.61587 0.29343 0.56229
 N266 N 0.61004 0.35067 0.59625
 N267 N 0.66053 0.39081 0.60487
 C268 C 0.71965 0.37738 0.57816
 H269 H 0.75812 0.15404 0.44810
 H270 H 0.84272 0.23687 0.44745
 H271 H 0.57291 0.26347 0.56059
 H272 H 0.75912 0.41004 0.59040
 C273 C 0.75272 0.30652 0.03966
 C274 C 0.80192 0.25860 0.03986
 C275 C 0.79919 0.20456 -0.00309
 C276 C 0.74711 0.20010 -0.04894
 C277 C 0.69593 0.24749 -0.04778
 C278 C 0.69877 0.30125 -0.00273
 C279 C 0.64479 0.24038 -0.09368
 N280 N 0.64557 0.19022 -0.13778
 N281 N 0.69469 0.14720 -0.14019
 C282 C 0.74568 0.15084 -0.09789
 H283 H 0.75599 0.34729 0.07406
 H284 H 0.84182 0.26307 0.07471
 H285 H 0.60495 0.27480 -0.09661
 H286 H 0.78522 0.11622 -0.10424
 C287 C 0.76299 -0.18841 0.53715
 C288 C 0.81259 -0.23602 0.53554
 C289 C 0.80735 -0.29197 0.49498
 C290 C 0.75424 -0.29561 0.44962
 C291 C 0.70473 -0.24630 0.45022
 C292 C 0.70763 -0.19398 0.49672
 C293 C 0.65578 -0.24896 0.40141
 N294 N 0.65599 -0.29779 0.35590
 N295 N 0.70271 -0.34349 0.35477
 C296 C 0.75202 -0.34359 0.39927
 H297 H 0.76711 -0.14770 0.57150
 H298 H 0.85340 -0.23100 0.56925
 H299 H 0.61892 -0.21136 0.39692
 H300 H 0.79052 -0.37918 0.39253
 C301 C 0.23045 0.18269 0.51719
 C302 C 0.18007 0.22890 0.51308
 C303 C 0.18970 0.28971 0.48223
 C304 C 0.24679 0.29824 0.44327
 C305 C 0.29699 0.24965 0.44456
 C306 C 0.29067 0.19380 0.48633
 C307 C 0.35004 0.25691 0.40097
 N308 N 0.35351 0.31000 0.36077
 N309 N 0.30684 0.35584 0.36008
 C310 C 0.25356 0.35145 0.39939
 H311 H 0.22253 0.13841 0.54564
 H312 H 0.13379 0.21783 0.53603
 H313 H 0.38725 0.21974 0.39605
 H314 H 0.21563 0.38762 0.39309
 C315 C 0.25638 0.71180 -0.04734
 C316 C 0.20750 0.75983 -0.04733
 C317 C 0.19330 0.79552 0.00989
 C318 C 0.22752 0.78143 0.06877
 C319 C 0.27770 0.73304 0.06862
 C320 C 0.29239 0.69872 0.00977
 C321 C 0.31065 0.71978 0.12791
 N322 N 0.29381 0.75283 0.18349
 N323 N 0.24630 0.79798 0.18371
 C324 C 0.21251 0.81332 0.12833
 H325 H 0.26687 0.68526 -0.09246
 H326 H 0.18109 0.76982 -0.09246
 H327 H 0.34908 0.68307 0.13067
 H328 H 0.17407 0.85000 0.13136
 C329 C -0.06540 0.27531 0.27121
 C330 C -0.06335 0.22864 0.22070
 C331 C -0.00326 0.20604 0.19620
 C332 C 0.05576 0.23055 0.22280
 C333 C 0.05368 0.27409 0.27715
 C334 C -0.00744 0.29819 0.29992
 C335 C 0.11324 0.29230 0.30663
 N336 N 0.17080 0.27191 0.28016
 N337 N 0.17273 0.23398 0.22667
 C338 C 0.11719 0.21276 0.19694
 H339 H -0.11239 0.29325 0.28839
 H340 H -0.10884 0.21016 0.20043
 H341 H 0.11462 0.32346 0.34957
 H342 H 0.12151 0.18135 0.15415
 C343 C 0.43682 0.21754 0.73556
 C344 C 0.43780 0.26725 0.78307
 C345 C 0.49529 0.30235 0.79621
 C346 C 0.55352 0.28583 0.76225
 C347 C 0.55358 0.23224 0.71746
 C348 C 0.49402 0.20004 0.70196
 C349 C 0.61379 0.21183 0.69074
 N350 N 0.66924 0.24569 0.70491
 N351 N 0.66852 0.29836 0.74414
 C352 C 0.61254 0.31987 0.77295
 H353 H 0.39122 0.19246 0.72504
 H354 H 0.39324 0.27894 0.80919
 H355 H 0.61732 0.16974 0.65842
 H356 H 0.61507 0.36217 0.80527
 C357 C -0.05555 0.70877 0.74085
 C358 C -0.05719 0.75622 0.79055
 C359 C -0.00208 0.79485 0.80386
 C360 C 0.05646 0.78419 0.76788
 C361 C 0.05771 0.73692 0.71656
 C362 C 0.00099 0.69948 0.70294
 C363 C 0.11646 0.72755 0.68157
 N364 N 0.17032 0.76296 0.69776
 N365 N 0.16947 0.80670 0.74668
 C366 C 0.11459 0.81824 0.78243
 H367 H -0.09897 0.67970 0.73119
 H368 H -0.10195 0.76349 0.81822
 H369 H 0.12031 0.69204 0.64204
 H370 H 0.11708 0.85368 0.82195
 C371 C 0.45266 -0.24571 0.29445
 C372 C 0.45207 -0.29649 0.24811
 C373 C 0.50072 -0.30057 0.19973
 C374 C 0.55410 -0.25560 0.20199
 C375 C 0.55567 -0.20532 0.25068
 C376 C 0.50389 -0.19999 0.29661
 C377 C 0.61072 -0.16372 0.25358
 N378 N 0.66128 -0.17305 0.21151
 N379 N 0.66058 -0.22112 0.16689
 C380 C 0.60900 -0.26258 0.16075
 H381 H 0.41172 -0.24098 0.32770
 H382 H 0.41123 -0.33049 0.24778
 H383 H 0.61507 -0.12511 0.28997
 H384 H 0.61247 -0.30185 0.12517
 C385 C -0.02531 0.69624 0.24285
 C386 C -0.02490 0.74480 0.19450
 C387 C 0.01157 0.80312 0.20217
 C388 C 0.05379 0.80869 0.25791
 C389 C 0.05500 0.75770 0.30604
 C390 C 0.01257 0.70253 0.29989
 C391 C 0.10173 0.76174 0.35681
 N392 N 0.14301 0.81373 0.36037
 N393 N 0.14192 0.86145 0.31569
 C394 C 0.09955 0.86028 0.26448
 H395 H -0.05693 0.65390 0.23619
 H396 H -0.05648 0.73801 0.15217
 H397 H 0.10806 0.72289 0.39206
 H398 H 0.10470 0.89801 0.22814
 C399 C 0.45534 -0.24735 0.70127
 C400 C 0.45320 -0.29441 0.75107
 C401 C 0.50122 -0.29585 0.80025
 C402 C 0.55400 -0.25060 0.79754
 C403 C 0.55611 -0.20276 0.74693
 C404 C 0.50563 -0.20063 0.69934
 C405 C 0.61038 -0.16030 0.74401
 N406 N 0.65906 -0.16563 0.78900
 N407 N 0.65737 -0.21090 0.83628
 C408 C 0.60679 -0.25367 0.84176
 H409 H 0.41680 -0.24657 0.66463
 H410 H 0.41329 -0.32951 0.75173
 H411 H 0.61536 -0.12414 0.70550
 H412 H 0.60930 -0.29098 0.87917
 C413 C 0.45922 0.20197 0.24907
 C414 C 0.45977 0.24946 0.19962
 C415 C 0.50713 0.29927 0.19918
 C416 C 0.55633 0.29986 0.24833
 C417 C 0.55518 0.25221 0.29924
 C418 C 0.50568 0.20327 0.29976
 C419 C 0.60578 0.25328 0.34615
 N420 N 0.65405 0.29881 0.34208
 N421 N 0.65546 0.34305 0.29386
 C422 C 0.60856 0.34490 0.24675
 H423 H 0.42149 0.16450 0.24843
 H424 H 0.42217 0.24806 0.16204
 H425 H 0.60873 0.21706 0.38454
 H426 H 0.61358 0.38030 0.20762
 C427 C -0.04305 0.29950 0.75466
 C428 C -0.04222 0.25054 0.80286
 C429 C 0.00079 0.19635 0.79843
 C430 C 0.04846 0.19568 0.74743
 C431 C 0.05059 0.24852 0.70165
 C432 C 0.00164 0.29811 0.70253
 C433 C 0.10465 0.25276 0.65936
 N434 N 0.15181 0.20564 0.66069
 N435 N 0.14858 0.15454 0.70139
 C436 C 0.09865 0.14792 0.74456
 H437 H -0.07931 0.33846 0.75778
 H438 H -0.07784 0.25339 0.84228
 H439 H 0.11100 0.29424 0.62672
 H440 H 0.10117 0.10763 0.77858
 C441 C 0.31005 -0.03199 0.23370
 C442 C 0.26027 -0.03043 0.18676
 C443 C 0.20175 0.00443 0.19809
 C444 C 0.19539 0.04223 0.25703
 C445 C 0.24854 0.04477 0.30172
 C446 C 0.30425 0.00395 0.29216
 C447 C 0.24547 0.09034 0.35379
 N448 N 0.19015 0.12520 0.36531
 N449 N 0.13823 0.11928 0.32652
 C450 C 0.13917 0.07997 0.27259
 H451 H 0.35291 -0.06228 0.22470
 H452 H 0.26685 -0.05848 0.14187
 H453 H 0.28740 0.10028 0.38375
 H454 H 0.09638 0.08139 0.24236
 C455 C 0.26102 0.50265 0.68842
 C456 C 0.30795 0.50571 0.73807
 C457 C 0.29283 0.49038 0.80402
 C458 C 0.22740 0.46715 0.81821
 C459 C 0.18331 0.45584 0.76500
 C460 C 0.19790 0.47943 0.70104
 C461 C 0.12623 0.41901 0.77694
 N462 N 0.10899 0.40275 0.83887
 N463 N 0.14583 0.41975 0.88983
 C464 C 0.20372 0.45117 0.88209
 H465 H 0.27413 0.51984 0.63977
 H466 H 0.35601 0.52367 0.72467
 H467 H 0.09634 0.40084 0.73744
 H468 H 0.22873 0.46145 0.92704
 C469 C 0.75916 -0.00165 0.69269
 C470 C 0.80751 -0.00712 0.74074
 C471 C 0.79180 -0.01140 0.80801
 C472 C 0.72376 -0.01306 0.82524
 C473 C 0.67551 0.00347 0.77737
 C474 C 0.69263 0.00415 0.70921
 C475 C 0.61201 0.01859 0.80056
 N476 N 0.59527 0.00514 0.86350
 N477 N 0.63780 -0.02146 0.90522
 C478 C 0.70103 -0.03165 0.88815
 H479 H 0.77463 -0.00116 0.64177
 H480 H 0.85795 -0.00766 0.72436
 H481 H 0.57588 0.04331 0.77097
 H482 H 0.73160 -0.05656 0.92334
 C483 C -0.19289 0.49945 0.23529
 C484 C -0.24099 0.50330 0.18663
 C485 C -0.30796 0.50745 0.20259
 C486 C -0.32497 0.50938 0.27111
 C487 C -0.27698 0.49341 0.31931
 C488 C -0.20920 0.49459 0.30223
 C489 C -0.29961 0.47703 0.38284
 N490 N -0.36241 0.48940 0.40009
 N491 N -0.40439 0.51627 0.35799
 C492 C -0.38772 0.52753 0.29459
 H493 H -0.14218 0.49968 0.21986
 H494 H -0.22496 0.50334 0.13587
 H495 H -0.26942 0.45231 0.41851
 H496 H -0.42316 0.55301 0.26473
 C497 C 0.30475 0.00497 0.75834
 C498 C 0.25717 0.00158 0.80711
 C499 C 0.19110 -0.00904 0.79173
 C500 C 0.17349 -0.01664 0.72396
 C501 C 0.22060 -0.00368 0.67398
 C502 C 0.28842 0.00209 0.69127
 C503 C 0.19691 0.00329 0.60887
 N504 N 0.13442 -0.01255 0.59386
 N505 N 0.09322 -0.03414 0.63931
 C506 C 0.11058 -0.03719 0.70338
 H507 H 0.35514 0.01063 0.77385
 H508 H 0.27280 0.00714 0.85772
 H509 H 0.22525 0.02352 0.56949
 H510 H 0.07517 -0.05812 0.73616
 C511 C 0.24962 0.53310 0.30332
 C512 C 0.29969 0.53211 0.25688
 C513 C 0.29461 0.49342 0.20007
 C514 C 0.23837 0.45342 0.19101
 C515 C 0.18567 0.45715 0.23645
 C516 C 0.19220 0.49649 0.29440
 C517 C 0.12919 0.41981 0.22234
 N518 N 0.12708 0.38004 0.16878
 N519 N 0.17800 0.37362 0.12870
 C520 C 0.23376 0.40802 0.13863
 H521 H 0.25489 0.56456 0.34580
 H522 H 0.34220 0.56296 0.26480
 H523 H 0.08688 0.41980 0.25333
 H524 H 0.27429 0.39814 0.10634
 C525 C 0.75401 -0.03278 0.30418
 C526 C 0.80250 -0.03303 0.25596
 C527 C 0.80338 0.01530 0.20676
 C528 C 0.75615 0.06658 0.20790
 C529 C 0.70647 0.06643 0.25652
 C530 C 0.70493 0.01562 0.30435
 C531 C 0.66105 0.11857 0.25681
 N532 N 0.66520 0.16735 0.21148
 N533 N 0.71222 0.16788 0.16625
 C534 C 0.75803 0.11947 0.16318
 H535 H 0.75372 -0.07174 0.34062
 H536 H 0.83868 -0.07223 0.25604
 H537 H 0.62322 0.12165 0.29345
 H538 H 0.79622 0.12365 0.12689
 C539 C -0.20257 0.46857 0.75290
 C540 C -0.25228 0.46759 0.79996
 C541 C -0.30385 0.51336 0.79797
 C542 C -0.30366 0.56269 0.74840
 C543 C -0.25251 0.56428 0.70107
 C544 C -0.20242 0.51568 0.70250
 C545 C -0.25201 0.61624 0.65519
 N546 N -0.30040 0.66208 0.65556
 N547 N -0.34876 0.66004 0.69927
 C548 C -0.35172 0.61232 0.74578
 H549 H -0.16460 0.43123 0.75503
 H550 H -0.25116 0.42983 0.83762
 H551 H -0.21292 0.62193 0.62010
 H552 H -0.39085 0.61447 0.78097
   
