data_POSCAR
  _audit_creation_date              2014-09-24
  _audit_creation_method            'ToBaCCo'
  _symmetry_space_group_name_H-M    'P1'
  _symmetry_Int_Tables_number       1
  _symmetry_cell_setting            triclinic
  loop_
  _symmetry_equiv_pos_as_xyz
 x,y,z
_cell_length_a 34.4632
_cell_length_b 35.6860
_cell_length_c 35.0254
_cell_angle_alpha 89.939100
_cell_angle_beta 91.470600
_cell_angle_gamma 87.333400
loop_
  _atom_site_label
  _atom_site_type_symbol
  _atom_site_fract_x
  _atom_site_fract_y
  _atom_site_fract_z
C1 C 0.76327 0.61263 1.05822
 C2 C 0.75851 0.64097 1.03042
 C3 C 0.77279 0.67653 1.03790
 C4 C 0.79223 0.68347 1.07268
 C5 C 0.79655 0.65512 1.10038
 C6 C 0.78201 0.61972 1.09320
 C7 C 0.74274 0.63194 0.99214
 C8 C 0.70746 0.64870 0.97804
 C9 C 0.69340 0.63963 0.94123
 C10 C 0.71505 0.61428 0.91876
 C11 C 0.75043 0.59768 0.93260
 C12 C 0.76391 0.60650 0.96927
 H13 H 0.75308 0.58488 1.05229
 H14 H 0.77008 0.69823 1.01619
 H15 H 0.69121 0.66852 0.99559
 H16 H 0.79137 0.59394 0.97981
 H17 H 0.81183 0.66038 1.12716
 H18 H 0.70438 0.60794 0.89025
 C19 C 0.72868 0.37652 0.46363
 C20 C 0.74694 0.35596 0.49366
 C21 C 0.78290 0.33694 0.48811
 C22 C 0.80086 0.33880 0.45287
 C23 C 0.78229 0.35945 0.42282
 C24 C 0.74623 0.37845 0.42821
 C25 C 0.73013 0.35719 0.53177
 C26 C 0.69441 0.34118 0.53845
 C27 C 0.67894 0.34249 0.57504
 C28 C 0.69924 0.36033 0.60465
 C29 C 0.73405 0.37710 0.59796
 C30 C 0.74977 0.37531 0.56151
 H31 H 0.70134 0.39193 0.46811
 H32 H 0.79739 0.32151 0.51147
 H33 H 0.67902 0.32740 0.51548
 H34 H 0.77708 0.38800 0.55618
 H35 H 0.79614 0.36122 0.39553
 H36 H 0.68789 0.36173 0.63319
 C37 C 0.22750 -0.12689 -0.03004
 C38 C 0.24193 -0.14286 0.00413
 C39 C 0.27661 -0.16503 0.00405
 C40 C 0.29623 -0.17174 -0.03015
 C41 C 0.28177 -0.15497 -0.06437
 C42 C 0.24727 -0.13216 -0.06398
 C43 C 0.22149 -0.13393 0.03979
 C44 C 0.18142 -0.13879 0.04215
 C45 C 0.16070 -0.12465 0.07330
 C46 C 0.18017 -0.10530 0.10238
 C47 C 0.22016 -0.09985 0.10008
 C48 C 0.24075 -0.11504 0.06909
 H49 H 0.20108 -0.10914 -0.03017
 H50 H 0.28778 -0.17786 0.03042
 H51 H 0.16603 -0.15216 0.01886
 H52 H 0.27140 -0.11032 0.06651
 H53 H 0.29665 -0.16016 -0.09084
 H54 H 0.16400 -0.09294 0.12571
 C55 C 0.25448 0.09610 0.55411
 C56 C 0.27029 0.12264 0.52996
 C57 C 0.30262 0.14251 0.54257
 C58 C 0.31871 0.13578 0.57929
 C59 C 0.30272 0.10954 0.60283
 C60 C 0.27112 0.08952 0.59060
 C61 C 0.25644 0.12579 0.48999
 C62 C 0.22005 0.14322 0.48002
 C63 C 0.20764 0.14466 0.44144
 C64 C 0.23127 0.12836 0.41355
 C65 C 0.26712 0.11040 0.42347
 C66 C 0.27964 0.10943 0.46163
 H67 H 0.23016 0.08021 0.54421
 H68 H 0.31556 0.16218 0.52367
 H69 H 0.20185 0.15547 0.50193
 H70 H 0.30728 0.09532 0.46935
 H71 H 0.31538 0.10431 0.63110
 H72 H 0.22114 0.12924 0.38401
 C73 C 0.10453 0.54187 0.20869
 C74 C 0.11959 0.51764 0.23755
 C75 C 0.13254 0.53277 0.27247
 C76 C 0.13107 0.57194 0.27786
 C77 C 0.11602 0.59562 0.24858
 C78 C 0.10283 0.58062 0.21405
 C79 C 0.12289 0.47684 0.22993
 C80 C 0.13843 0.46387 0.19534
 C81 C 0.13924 0.42557 0.18636
 C82 C 0.12418 0.40027 0.21181
 C83 C 0.10831 0.41277 0.24631
 C84 C 0.10847 0.45096 0.25565
 H85 H 0.09456 0.53058 0.18162
 H86 H 0.14473 0.51431 0.29470
 H87 H 0.14999 0.48359 0.17555
 H88 H 0.09574 0.46064 0.28204
 H89 H 0.11559 0.62578 0.25240
 H90 H 0.12464 0.37079 0.20444
 C91 C -0.11972 -0.04307 0.25835
 C92 C -0.13732 -0.01038 0.27345
 C93 C -0.14848 -0.01051 0.31184
 C94 C -0.14198 -0.04289 0.33453
 C95 C -0.12432 -0.07547 0.31874
 C96 C -0.11286 -0.07527 0.28053
 C97 C -0.13894 0.02451 0.25000
 C98 C -0.14781 0.02315 0.21057
 C99 C -0.14204 0.05400 0.18692
 C100 C -0.12848 0.08712 0.20284
 C101 C -0.11949 0.08901 0.24205
 C102 C -0.12532 0.05781 0.26554
 H103 H -0.10912 -0.04309 0.22948
 H104 H -0.16093 0.01487 0.32448
 H105 H -0.15721 -0.00268 0.19782
 H106 H -0.11696 0.05870 0.29553
 H107 H -0.11779 -0.09993 0.33652
 H108 H -0.12255 0.11052 0.18446
 C109 C 0.35233 0.46507 0.73478
 C110 C 0.33737 0.49819 0.75136
 C111 C 0.32759 0.49813 0.78992
 C112 C 0.33386 0.46576 0.81207
 C113 C 0.34941 0.43275 0.79559
 C114 C 0.35898 0.43252 0.75676
 C115 C 0.33841 0.53405 0.73056
 C116 C 0.32133 0.53878 0.69399
 C117 C 0.32458 0.57253 0.67411
 C118 C 0.34483 0.60187 0.69122
 C119 C 0.36211 0.59724 0.72761
 C120 C 0.35874 0.56328 0.74707
 H121 H 0.36159 0.46528 0.70544
 H122 H 0.31710 0.52393 0.80329
 H123 H 0.30580 0.51622 0.68087
 H124 H 0.37231 0.55936 0.77513
 H125 H 0.35590 0.40822 0.81327
 H126 H 0.34720 0.62825 0.67635
 C127 C 0.62071 1.03960 0.75486
 C128 C 0.63451 1.00683 0.77368
 C129 C 0.64758 1.00898 0.81186
 C130 C 0.64537 1.04310 0.83153
 C131 C 0.62969 1.07550 0.81306
 C132 C 0.61720 1.07367 0.77453
 C133 C 0.62841 0.96987 0.75603
 C134 C 0.64091 0.96114 0.71902
 C135 C 0.63229 0.92647 0.70231
 C136 C 0.61022 0.90130 0.72241
 C137 C 0.59745 0.91010 0.75925
 C138 C 0.60706 0.94399 0.77587
 H139 H 0.60939 1.03808 0.72576
 H140 H 0.65767 0.98365 0.82692
 H141 H 0.65740 0.98105 0.70358
 H142 H 0.59663 0.95071 0.80411
 H143 H 0.62638 1.10156 0.82875
 H144 H 0.60346 0.87477 0.70944
 C145 C -0.02463 0.22116 -0.13275
 C146 C 0.00279 0.23571 -0.15658
 C147 C -0.00730 0.26707 -0.17927
 C148 C -0.04499 0.28347 -0.17904
 C149 C -0.07291 0.26846 -0.15546
 C150 C -0.06241 0.23719 -0.13197
 C151 C 0.04217 0.21825 -0.15801
 C152 C 0.05042 0.18859 -0.18301
 C153 C 0.08882 0.17498 -0.18756
 C154 C 0.11918 0.19098 -0.16655
 C155 C 0.11095 0.22050 -0.14100
 C156 C 0.07220 0.23377 -0.13687
 H157 H -0.01675 0.19693 -0.11503
 H158 H 0.01394 0.27803 -0.19814
 H159 H 0.02720 0.17742 -0.20042
 H160 H 0.06527 0.25720 -0.11820
 H161 H -0.10238 0.28044 -0.15593
 H162 H 0.14905 0.18155 -0.17105
 C163 C 0.56403 0.24598 0.12393
 C164 C 0.53614 0.27012 0.14077
 C165 C 0.54623 0.30660 0.15150
 C166 C 0.58374 0.31868 0.14460
 C167 C 0.61057 0.29458 0.12662
 C168 C 0.60084 0.25827 0.11615
 C169 C 0.49540 0.25881 0.14113
 C170 C 0.48595 0.22299 0.15436
 C171 C 0.44806 0.21071 0.14854
 C172 C 0.42034 0.23368 0.12914
 C173 C 0.42956 0.26888 0.11537
 C174 C 0.46666 0.28180 0.12238
 H175 H 0.55636 0.21831 0.11447
 H176 H 0.52479 0.32561 0.16416
 H177 H 0.50802 0.20472 0.16820
 H178 H 0.47390 0.30865 0.11067
 H179 H 0.63912 0.30435 0.12078
 H180 H 0.39150 0.22353 0.12414
 C181 C 1.04302 0.73067 0.62161
 C182 C 1.01112 0.73971 0.64425
 C183 C 1.01193 0.77083 0.66839
 C184 C 1.04395 0.79342 0.66954
 C185 C 1.07615 0.78430 0.64697
 C186 C 1.07573 0.75298 0.62269
 C187 C 0.97374 0.72282 0.63637
 C188 C 0.96282 0.69050 0.65540
 C189 C 0.92479 0.67815 0.65027
 C190 C 0.89807 0.69852 0.62630
 C191 C 0.90941 0.73056 0.60693
 C192 C 0.94722 0.74211 0.61179
 H193 H 1.04151 0.70735 0.60194
 H194 H 0.98635 0.77902 0.68437
 H195 H 0.98331 0.67591 0.67482
 H196 H 0.95554 0.76740 0.59755
 H197 H 1.10057 0.80229 0.64676
 H198 H 0.86860 0.68950 0.62305
 C199 C 0.44977 0.74232 0.36564
 C200 C 0.47996 0.76283 0.35121
 C201 C 0.47184 0.79926 0.33707
 C202 C 0.43365 0.81465 0.33648
 C203 C 0.40390 0.79420 0.35143
 C204 C 0.41191 0.75822 0.36666
 C205 C 0.52007 0.74651 0.35136
 C206 C 0.52851 0.71167 0.33400
 C207 C 0.56672 0.69648 0.33400
 C208 C 0.59639 0.71596 0.35245
 C209 C 0.58826 0.75039 0.37008
 C210 C 0.55009 0.76589 0.36911
 H211 H 0.45588 0.71439 0.37711
 H212 H 0.49491 0.81491 0.32522
 H213 H 0.50555 0.69669 0.31995
 H214 H 0.54348 0.79251 0.38288
 H215 H 0.37449 0.80633 0.35086
 H216 H 0.62603 0.70443 0.35333
 C217 C 0.43318 -0.02495 0.28348
 H218 H 0.44161 0.00229 0.29320
 C219 C 0.44958 -0.05734 0.30132
 H220 H 0.47119 -0.05502 0.32407
 C221 C 0.39261 -0.06175 0.24453
 H222 H 0.36993 -0.06389 0.22302
 C223 C 0.40751 -0.09443 0.26205
 H224 H 0.39649 -0.12115 0.25343
 N225 N 0.40465 -0.02767 0.25604
 C226 C 0.38522 0.07577 0.18983
 H227 H 0.35530 0.07098 0.18211
 C228 C 0.40221 0.10766 0.17640
 H229 H 0.38499 0.12697 0.15828
 C230 C 0.44334 0.05673 0.22342
 H231 H 0.45915 0.03712 0.24215
 C232 C 0.46159 0.08857 0.21057
 H233 H 0.49128 0.09328 0.21947
 Zn234 Zn 0.37491 0.01463 0.23607
 N235 N 0.40542 0.05147 0.21364
 C236 C 0.35199 0.02758 0.31261
 N237 N 0.34631 0.03825 0.27548
 C238 C 0.32017 0.06653 0.26547
 C239 C 0.29876 0.08550 0.29330
 C240 C 0.33160 0.04622 0.34141
 C241 C 0.35341 -0.01222 0.16383
 C242 C 0.33079 -0.03164 0.13764
 C243 C 0.27952 -0.03183 0.18341
 C244 C 0.30312 -0.01226 0.20883
 N245 N 0.33951 -0.00335 0.19881
 H246 H 0.37229 0.00469 0.32009
 H247 H 0.31563 0.07417 0.23580
 H248 H 0.27787 0.10785 0.28510
 H249 H 0.33648 0.03752 0.37082
 H250 H 0.38274 -0.00560 0.15695
 H251 H 0.34246 -0.03951 0.11022
 H252 H 0.25110 -0.03974 0.19206
 H253 H 0.29310 -0.00583 0.23719
 C254 C 0.44058 0.11493 0.18763
 C255 C 0.43557 -0.09229 0.29142
 C256 C 0.29384 -0.04224 0.14763
 C257 C 0.30473 0.07562 0.33165
 C258 C 0.11468 1.03365 0.72281
 H259 H 0.11029 1.01815 0.69667
 C260 C 0.10293 1.07143 0.72433
 H261 H 0.08914 1.08491 0.69946
 C262 C 0.14046 1.03575 0.78615
 H263 H 0.15671 1.02214 0.80949
 C264 C 0.12828 1.07377 0.78916
 H265 H 0.13466 1.08913 0.81504
 N266 N 0.13381 1.01672 0.75305
 C267 C 0.13047 0.90057 0.71424
 H268 H 0.16113 0.89438 0.71025
 C269 C 0.10366 0.87333 0.70615
 H270 H 0.11377 0.84609 0.69601
 C271 C 0.08016 0.94338 0.73386
 H272 H 0.07131 0.97047 0.74531
 C273 C 0.05246 0.91689 0.72639
 H274 H 0.02213 0.92371 0.73167
 Zn275 Zn 0.15645 0.96882 0.74056
 N276 N 0.11829 0.93479 0.72763
 C277 C 0.16886 0.94230 0.81430
 N278 N 0.18707 0.94701 0.78086
 C279 C 0.22402 0.93295 0.77576
 C280 C 0.24430 0.91359 0.80541
 C281 C 0.18801 0.92338 0.84458
 C282 C 0.17331 0.97237 0.66183
 C283 C 0.18962 0.99077 0.63124
 C284 C 0.23403 1.01895 0.67614
 C285 C 0.21671 1.00056 0.70567
 N286 N 0.18649 0.97845 0.69819
 H287 H 0.13912 0.95279 0.81715
 H288 H 0.23744 0.93578 0.74842
 H289 H 0.27357 0.90229 0.80118
 H290 H 0.17281 0.91995 0.87093
 H291 H 0.14816 0.95587 0.65683
 H292 H 0.17768 0.98768 0.60259
 H293 H 0.25701 1.03767 0.68307
 H294 H 0.22545 1.00605 0.73494
 C295 C 0.06414 0.88158 0.71234
 C296 C 0.11012 1.09199 0.75741
 C297 C 0.21937 1.01535 0.63854
 C298 C 0.22622 0.90860 0.84022
 C299 C 0.60770 0.55783 0.25911
 H300 H 0.58743 0.54040 0.24426
 C301 C 0.59432 0.59127 0.27639
 H302 H 0.56367 0.59941 0.27498
 C303 C 0.67249 0.56919 0.27874
 H304 H 0.70296 0.56034 0.27947
 C305 C 0.66045 0.60253 0.29622
 H306 H 0.68161 0.61954 0.31048
 N307 N 0.64623 0.54741 0.26102
 C308 C 0.64211 0.45875 0.17930
 H309 H 0.66678 0.46853 0.16437
 C310 C 0.62234 0.42835 0.16484
 H311 H 0.63150 0.41550 0.13837
 C312 C 0.60283 0.46079 0.23392
 H313 H 0.59697 0.47212 0.26193
 C314 C 0.58179 0.43084 0.22011
 H315 H 0.55933 0.41958 0.23722
 Zn316 Zn 0.66898 0.50345 0.23956
 N317 N 0.63287 0.47352 0.21383
 C318 C 0.68472 0.48107 0.31633
 N319 N 0.69128 0.47265 0.27909
 C320 C 0.71169 0.44074 0.26916
 C321 C 0.72794 0.41664 0.29730
 C322 C 0.69979 0.45735 0.34533
 C323 C 0.69676 0.54303 0.17719
 C324 C 0.72462 0.55917 0.15476
 C325 C 0.77483 0.52591 0.19242
 C326 C 0.74614 0.51077 0.21437
 N327 N 0.70790 0.51946 0.20647
 H328 H 0.66733 0.50585 0.32365
 H329 H 0.71555 0.43419 0.23931
 H330 H 0.74472 0.39162 0.28923
 H331 H 0.69452 0.46448 0.37483
 H332 H 0.66621 0.55006 0.17195
 H333 H 0.71535 0.57828 0.13193
 H334 H 0.80518 0.51918 0.19923
 H335 H 0.75467 0.49312 0.23845
 C336 C 0.59269 0.41328 0.18611
 C337 C 0.62114 0.61376 0.29529
 C338 C 0.76424 0.55075 0.16269
 C339 C 0.72187 0.42483 0.33574
 C340 C 0.91882 0.43114 0.74189
 H341 H 0.92045 0.44817 0.71646
 C342 C 0.93427 0.39442 0.74191
 H343 H 0.94871 0.38359 0.71684
 C344 C 0.89388 0.42284 0.80365
 H345 H 0.87589 0.43330 0.82651
 C346 C 0.90961 0.38575 0.80508
 H347 H 0.90448 0.36814 0.82945
 N348 N 0.89801 0.44428 0.77187
 C349 C 0.86578 0.55805 0.73161
 H350 H 0.83486 0.55582 0.73498
 C351 C 0.87962 0.58983 0.71449
 H352 H 0.85919 0.61215 0.70520
 C353 C 0.92966 0.53088 0.73870
 H354 H 0.94886 0.50754 0.74772
 C355 C 0.94489 0.56262 0.72200
 H356 H 0.97590 0.56377 0.71825
 Zn357 Zn 0.86473 0.48643 0.75904
 N358 N 0.89057 0.52898 0.74238
 C359 C 0.84855 0.51364 0.83278
 N360 N 0.83213 0.50234 0.79923
 C361 C 0.79327 0.50758 0.79194
 C362 C 0.76947 0.52566 0.81850
 C363 C 0.82568 0.53180 0.86025
 C364 C 0.84038 0.48195 0.68136
 C365 C 0.82184 0.46546 0.65020
 C366 C 0.79197 0.42358 0.69381
 C367 C 0.81143 0.44049 0.72406
 N368 N 0.83477 0.46933 0.71742
 H369 H 0.87964 0.50998 0.83747
 H370 H 0.78091 0.49973 0.76464
 H371 H 0.73885 0.53097 0.81182
 H372 H 0.83931 0.54174 0.88627
 H373 H 0.86035 0.50378 0.67648
 H374 H 0.82679 0.47520 0.62152
 H375 H 0.77365 0.40051 0.69956
 H376 H 0.80858 0.43022 0.75288
 C377 C 0.91960 0.59206 0.70887
 C378 C 0.92881 0.37103 0.77311
 C379 C 0.79747 0.43599 0.65635
 C380 C 0.78573 0.53861 0.85265
 C381 C 0.28477 0.42955 -0.03098
 H382 H 0.28450 0.43436 -0.00055
 C383 C 0.30402 0.45395 -0.05418
 H384 H 0.31869 0.47729 -0.04158
 C385 C 0.26616 0.39370 -0.08477
 H386 H 0.25167 0.37004 -0.09662
 C387 C 0.28525 0.41743 -0.10906
 H388 H 0.28514 0.41191 -0.13944
 N389 N 0.26687 0.39968 -0.04636
 C390 C 0.21007 0.36437 0.05593
 H391 H 0.21817 0.33480 0.05405
 C392 C 0.19194 0.37829 0.08836
 H393 H 0.18620 0.35920 0.11136
 C394 C 0.20820 0.42509 0.02817
 H395 H 0.21421 0.44310 0.00443
 C396 C 0.19021 0.44031 0.06040
 H397 H 0.18276 0.47008 0.06166
 Zn398 Zn 0.24621 0.36421 -0.01292
 N399 N 0.21834 0.38779 0.02692
 C400 C 0.31656 0.35481 0.02854
 N401 N 0.28753 0.33593 0.01130
 C402 C 0.28608 0.29803 0.01463
 C403 C 0.31462 0.27774 0.03599
 C404 C 0.34579 0.33561 0.04985
 C405 C 0.17422 0.33603 -0.03324
 C406 C 0.14813 0.31336 -0.05204
 C407 C 0.20168 0.28267 -0.08469
 C408 C 0.22696 0.30612 -0.06525
 N409 N 0.21286 0.33212 -0.04003
 H410 H 0.31669 0.38490 0.02671
 H411 H 0.26208 0.28361 0.00203
 H412 H 0.31302 0.24767 0.03913
 H413 H 0.36843 0.35112 0.06371
 H414 H 0.16346 0.35707 -0.01353
 H415 H 0.11736 0.31695 -0.04674
 H416 H 0.21304 0.26226 -0.10486
 H417 H 0.25782 0.30357 -0.07020
 C418 C 0.18228 0.41681 0.09099
 C419 C 0.30492 0.44762 -0.09344
 C420 C 0.16175 0.28647 -0.07796
 C421 C 0.34463 0.29665 0.05392
 C422 C 0.81786 0.08093 1.02128
 H423 H 0.81868 0.07328 0.99142
 C424 C 0.83756 0.05828 1.04874
 H425 H 0.85380 0.03317 1.04000
 C426 C 0.79527 0.12254 1.06943
 H427 H 0.77868 0.14762 1.07743
 C428 C 0.81458 0.10065 1.09782
 H429 H 0.81269 0.10903 1.12743
 N430 N 0.79711 0.11234 1.03200
 C431 C 0.72262 0.07965 0.98079
 H432 H 0.72894 0.07427 1.01076
 C433 C 0.69731 0.05700 0.96072
 H434 H 0.68413 0.03418 0.97523
 C435 C 0.73152 0.11601 0.92532
 H436 H 0.74459 0.13919 0.91161
 C437 C 0.70650 0.09377 0.90404
 H438 H 0.70060 0.10002 0.87415
 Zn439 Zn 0.76837 0.14134 0.99438
 N440 N 0.73856 0.10904 0.96321
 C441 C 0.84088 0.16228 0.96699
 N442 N 0.80180 0.16919 0.96396
 C443 C 0.78615 0.19596 0.93961
 C444 C 0.81005 0.21641 0.91647
 C445 C 0.86576 0.18190 0.94428
 C446 C 0.70216 0.16011 1.03574
 C447 C 0.67659 0.18288 1.05652
 C448 C 0.71730 0.23503 1.04583
 C449 C 0.74213 0.21123 1.02503
 N450 N 0.73401 0.17455 1.02022
 H451 H 0.85284 0.14130 0.98678
 H452 H 0.75500 0.20139 0.93813
 H453 H 0.79734 0.23734 0.89691
 H454 H 0.89675 0.17562 0.94682
 H455 H 0.69668 0.13079 1.03236
 H456 H 0.65135 0.17089 1.06860
 H457 H 0.72382 0.26420 1.04965
 H458 H 0.76817 0.22188 1.01334
 C459 C 0.68869 0.06421 0.92214
 C460 C 0.83586 0.06796 1.08741
 C461 C 0.68419 0.22083 1.06169
 C462 C 0.85026 0.20918 0.91840
 C463 C 0.24512 0.60709 0.53265
 H464 H 0.21608 0.59860 0.52559
 C465 C 0.26388 0.59438 0.56653
 H466 H 0.24941 0.57561 0.58519
 C467 C 0.29799 0.64471 0.51899
 H468 H 0.31055 0.66582 0.50175
 C469 C 0.31749 0.63295 0.55248
 H470 H 0.34516 0.64440 0.56023
 N471 N 0.26214 0.63229 0.50999
 C472 C 0.19264 0.64774 0.40446
 H473 H 0.19110 0.67806 0.40563
 C474 C 0.17611 0.62953 0.37341
 H475 H 0.16189 0.64615 0.35079
 C476 C 0.21381 0.58963 0.43261
 H477 H 0.22895 0.57440 0.45562
 C478 C 0.19759 0.57012 0.40175
 H479 H 0.20015 0.53978 0.40105
 Zn480 Zn 0.23250 0.65867 0.47145
 N481 N 0.21087 0.62780 0.43331
 C482 C 0.29441 0.67197 0.42650
 N483 N 0.26553 0.69039 0.44569
 C484 C 0.26193 0.72851 0.44613
 C485 C 0.28921 0.74960 0.42775
 C486 C 0.32249 0.69186 0.40838
 C487 C 0.15475 0.67619 0.48980
 C488 C 0.12507 0.69005 0.51287
 C489 C 0.17231 0.72339 0.55003
 C490 C 0.20129 0.70883 0.52616
 N491 N 0.19211 0.68533 0.49701
 H492 H 0.29620 0.64162 0.42632
 H493 H 0.23836 0.74249 0.46110
 H494 H 0.28677 0.77995 0.42863
 H495 H 0.34579 0.67668 0.39404
 H496 H 0.14805 0.65657 0.46742
 H497 H 0.09562 0.68160 0.50769
 H498 H 0.18007 0.74105 0.57387
 H499 H 0.23135 0.71487 0.53192
 C500 C 0.17859 0.59020 0.37172
 C501 C 0.30009 0.60835 0.57701
 C502 C 0.13381 0.71321 0.54370
 C503 C 0.32027 0.73117 0.40936
 C504 C 0.80016 0.92183 0.48950
 H505 H 0.80441 0.92046 0.52017
 C506 C 0.82516 0.94236 0.46772
 H507 H 0.84792 0.95756 0.48179
 C508 C 0.76714 0.90211 0.43340
 H509 H 0.74488 0.88585 0.42003
 C510 C 0.79202 0.92182 0.41049
 H511 H 0.78839 0.92101 0.37972
 N512 N 0.77182 0.90208 0.47220
 C513 C 0.68848 0.87483 0.56068
 H514 H 0.68033 0.84825 0.54903
 C515 C 0.67135 0.88803 0.59404
 H516 H 0.65062 0.87110 0.60798
 C517 C 0.72482 0.92928 0.55633
 H518 H 0.74557 0.94541 0.54168
 C519 C 0.70824 0.94363 0.58976
 H520 H 0.71661 0.97050 0.60076
 Zn521 Zn 0.74146 0.86976 0.50186
 N522 N 0.71568 0.89478 0.54315
 C523 C 0.81328 0.82984 0.51811
 N524 N 0.77423 0.82999 0.52301
 C525 C 0.75825 0.80258 0.54378
 C526 C 0.78188 0.77488 0.56223
 C527 C 0.83792 0.80287 0.53625
 C528 C 0.66957 0.86903 0.46232
 C529 C 0.64004 0.85339 0.44039
 C530 C 0.68134 0.79732 0.43325
 C531 C 0.70995 0.81389 0.45549
 N532 N 0.70342 0.84895 0.46981
 H533 H 0.82562 0.85096 0.50071
 H534 H 0.72718 0.80228 0.54644
 H535 H 0.76897 0.75388 0.57957
 H536 H 0.86898 0.80396 0.53286
 H537 H 0.66528 0.89692 0.47401
 H538 H 0.61284 0.86917 0.43509
 H539 H 0.68677 0.76919 0.42249
 H540 H 0.73727 0.79867 0.46156
 C541 C 0.68194 0.92248 0.60945
 C542 C 0.82166 0.94199 0.42785
 C543 C 0.64574 0.81712 0.42589
 C544 C 0.82218 0.77544 0.55930
 C545 C -0.05616 0.25971 0.41839
 H546 H -0.04705 0.23246 0.42987
 C547 C -0.09022 0.27818 0.43111
 H548 H -0.10703 0.26530 0.45283
 C549 C -0.04748 0.30841 0.37372
 H550 H -0.03225 0.31934 0.34993
 C551 C -0.08113 0.32755 0.38544
 H552 H -0.09092 0.35343 0.37132
 N553 N -0.03580 0.27491 0.38987
 C554 C 0.07123 0.20729 0.37495
 H555 H 0.06690 0.20556 0.34431
 C556 C 0.10469 0.19109 0.39200
 H557 H 0.12579 0.17686 0.37405
 C558 C 0.04862 0.22860 0.43484
 H559 H 0.02674 0.24371 0.45114
 C560 C 0.08218 0.21261 0.45334
 H561 H 0.08605 0.21521 0.48397
 Zn562 Zn 0.00335 0.24645 0.36449
 N563 N 0.04398 0.22552 0.39624
 C564 C 0.04507 0.30813 0.34674
 N565 N 0.02804 0.27824 0.33042
 C566 C 0.02976 0.27174 0.29223
 C567 C 0.04808 0.29677 0.26871
 C568 C 0.06303 0.33413 0.32423
 C569 C -0.01541 0.17157 0.35176
 C570 C -0.03511 0.14226 0.33510
 C571 C -0.06761 0.18664 0.29153
 C572 C -0.04769 0.21535 0.30947
 N573 N -0.02169 0.20727 0.33860
 H574 H 0.04388 0.31214 0.37731
 H575 H 0.01715 0.24719 0.28000
 H576 H 0.04917 0.29174 0.23827
 H577 H 0.07579 0.35815 0.33755
 H578 H 0.00425 0.16582 0.37579
 H579 H -0.03008 0.11395 0.34591
 H580 H -0.08807 0.19331 0.26827
 H581 H -0.05306 0.24413 0.30030
 C582 C 0.11072 0.19374 0.43171
 C583 C -0.10323 0.31215 0.41372
 C584 C -0.06127 0.14961 0.30462
 C585 C 0.06431 0.32858 0.28467
 C586 C 1.00091 0.82169 0.09543
 H587 H 0.97076 0.82040 0.08667
 C588 C 1.02448 0.84656 0.07708
 H589 H 1.01230 0.86440 0.05434
 C590 C 1.05388 0.80066 0.13565
 H591 H 1.06498 0.78295 0.15891
 C592 C 1.07863 0.82473 0.11759
 H593 H 1.10876 0.82541 0.12696
 N594 N 1.01570 0.79977 0.12461
 C595 C 0.92448 0.72549 0.11728
 H596 H 0.94455 0.70161 0.12155
 C597 C 0.88701 0.71996 0.10264
 H598 H 0.87887 0.69192 0.09517
 C599 C 0.90981 0.79069 0.12349
 H600 H 0.91848 0.81803 0.13283
 C601 C 0.87223 0.78645 0.10867
 H602 H 0.85219 0.81064 0.10600
 Zn603 Zn 0.98397 0.76761 0.15265
 N604 N 0.93520 0.76048 0.12736
 C605 C 0.98585 0.82491 0.20701
 N606 N 0.97229 0.79033 0.20014
 C607 C 0.94458 0.77603 0.22229
 C608 C 0.92709 0.79816 0.25075
 C609 C 0.96908 0.84786 0.23475
 C610 C 1.02487 0.70651 0.12440
 C611 C 1.04782 0.67341 0.12422
 C612 C 1.04419 0.67070 0.19300
 C613 C 1.02126 0.70422 0.19192
 N614 N 1.01213 0.72122 0.15784
 H615 H 1.00749 0.83607 0.18900
 H616 H 0.93378 0.74872 0.21577
 H617 H 0.90307 0.78774 0.26631
 H618 H 0.97844 0.87625 0.23807
 H619 H 1.01744 0.72090 0.09782
 H620 H 1.05802 0.66205 0.09743
 H621 H 1.05147 0.65734 0.22016
 H622 H 1.01112 0.71676 0.21814
 C623 C 0.86035 0.75079 0.09848
 C624 C 1.06367 0.84832 0.08817
 C625 C 1.05779 0.65525 0.15863
 C626 C 0.93801 0.83519 0.25562
 C627 C 0.53814 0.27439 0.61590
 H628 H 0.51974 0.25869 0.59695
 C629 C 0.57074 0.29130 0.60177
 H630 H 0.57728 0.28899 0.57178
 C631 C 0.55351 0.29530 0.67859
 H632 H 0.54689 0.29608 0.70861
 C633 C 0.58585 0.31273 0.66571
 H634 H 0.60431 0.32724 0.68573
 N635 N 0.53043 0.27672 0.65378
 C636 C 0.45016 0.19219 0.64835
 H637 H 0.46450 0.17657 0.67151
 C638 C 0.42182 0.17536 0.62623
 H639 H 0.41528 0.14660 0.63226
 C640 C 0.43918 0.24929 0.61423
 H641 H 0.44546 0.27849 0.61063
 C642 C 0.41057 0.23336 0.59114
 H643 H 0.39474 0.25024 0.56969
 Zn644 Zn 0.49084 0.25220 0.67787
 N645 N 0.45792 0.22867 0.64243
 C646 C 0.46070 0.32414 0.69308
 N647 N 0.45980 0.28786 0.70475
 C648 C 0.43503 0.27747 0.73211
 C649 C 0.41097 0.30451 0.74997
 C650 C 0.43676 0.35176 0.70953
 C651 C 0.53958 0.19034 0.69108
 C652 C 0.56176 0.16279 0.71095
 C653 C 0.53958 0.18994 0.77014
 C654 C 0.51742 0.21700 0.74899
 N655 N 0.51735 0.21625 0.71011
 H656 H 0.47943 0.33165 0.67030
 H657 H 0.43378 0.24823 0.73992
 H658 H 0.39162 0.29625 0.77201
 H659 H 0.43807 0.38048 0.69984
 H660 H 0.53982 0.19104 0.66020
 H661 H 0.57870 0.14211 0.69509
 H662 H 0.53921 0.19029 0.80103
 H663 H 0.50081 0.23871 0.76366
 C664 C 0.40091 0.19635 0.59790
 C665 C 0.59490 0.31048 0.62720
 C666 C 0.56169 0.16226 0.75102
 C667 C 0.41154 0.34203 0.73839
 C668 C 0.43582 0.73228 0.92559
 H669 H 0.45172 0.70542 0.92671
 C670 C 0.40529 0.73948 0.95019
 H671 H 0.39810 0.71837 0.97076
 C672 C 0.42496 0.79205 0.89664
 H673 H 0.43236 0.81206 0.87512
 C674 C 0.39335 0.80013 0.92040
 H675 H 0.37698 0.82666 0.91763
 N676 N 0.44543 0.75848 0.89974
 C677 C 0.55771 0.70532 0.86992
 H678 H 0.55288 0.70404 0.83931
 C679 C 0.59221 0.68991 0.88631
 H680 H 0.61373 0.67675 0.86807
 C681 C 0.53556 0.72454 0.93063
 H682 H 0.51369 0.73861 0.94773
 C683 C 0.56996 0.70977 0.94821
 H684 H 0.57424 0.71206 0.97884
 Zn685 Zn 0.48456 0.74172 0.86560
 N686 N 0.52989 0.72163 0.89213
 C687 C 0.51462 0.81179 0.85044
 N688 N 0.50148 0.78025 0.83376
 C689 C 0.50596 0.77360 0.79581
 C690 C 0.52464 0.79907 0.77315
 C691 C 0.53342 0.83804 0.82878
 C692 C 0.47320 0.66732 0.84058
 C693 C 0.45494 0.63963 0.81962
 C694 C 0.41424 0.68792 0.78823
 C695 C 0.43283 0.71471 0.81025
 N696 N 0.46207 0.70408 0.83541
 H697 H 0.51172 0.81585 0.88086
 H698 H 0.49686 0.74767 0.78336
 H699 H 0.52898 0.79310 0.74321
 H700 H 0.54442 0.86261 0.84266
 H701 H 0.49552 0.65933 0.86163
 H702 H 0.46349 0.61036 0.82429
 H703 H 0.39094 0.69670 0.76843
 H704 H 0.42394 0.74407 0.80739
 C705 C 0.59855 0.69194 0.92602
 C706 C 0.38342 0.77336 0.94750
 C707 C 0.42533 0.64987 0.79310
 C708 C 0.53911 0.83133 0.78971
 N709 N 0.42364 -0.15032 0.31824
 N710 N 0.44793 -0.12526 0.31244
 N711 N 0.94565 0.30955 0.79559
 N712 N 0.93955 0.33198 0.76908
 N713 N 0.09618 1.15156 0.78455
 N714 N 0.10101 1.13155 0.75625
 N715 N 0.57517 0.66156 0.31500
 N716 N 0.60997 0.64817 0.31370
 N717 N 0.59593 0.35521 0.15483
 N718 N 0.57698 0.37796 0.17611
 N719 N 0.04104 0.82509 0.68823
 N720 N 0.03519 0.85476 0.70558
 N721 N 0.91184 0.64609 0.67013
 N722 N 0.93451 0.62340 0.68916
 N723 N 0.43605 0.17480 0.16041
 N724 N 0.45737 0.14954 0.17731
 N725 N 0.32965 0.46814 -0.15106
 N726 N 0.32647 0.47202 -0.11635
 N727 N 0.85237 0.95904 0.37136
 N728 N 0.84889 0.96197 0.40623
 N729 N 0.85609 0.04972 1.14977
 N730 N 0.85578 0.04387 1.11505
 N731 N 0.30685 0.57678 0.63683
 N732 N 0.31816 0.60123 0.61368
 N733 N 0.14634 0.58892 0.31172
 N734 N 0.16303 0.57071 0.33932
 N735 N 0.65403 0.04328 0.86812
 N736 N 0.66134 0.04143 0.90272
 N737 N 0.64615 0.91547 0.66551
 N738 N 0.66766 0.93548 0.64553
 N739 N 0.15528 0.41138 0.15171
 N740 N 0.16532 0.43243 0.12469
 N741 N -0.16173 0.32038 0.44819
 N742 N -0.14009 0.33018 0.42144
 N743 N 0.32578 0.80378 0.97007
 N744 N 0.35189 0.77905 0.97311
 N745 N 1.12271 0.87455 0.07239
 N746 N 1.08694 0.87477 0.06947
 N747 N 0.64306 0.32536 0.58234
 N748 N 0.62961 0.32702 0.61579
 N749 N 0.35204 0.15368 0.59402
 N750 N 0.36771 0.18140 0.57889
 N751 N 0.80726 0.71601 0.07890
 N752 N 0.82111 0.74679 0.08481
 N753 N 0.65779 0.65598 0.92522
 N754 N 0.63359 0.67621 0.94401
 N755 N 0.17131 0.16184 0.42864
 N756 N 0.14580 0.17781 0.44955
 N757 N 0.59761 0.10471 0.75524
 N758 N 0.58252 0.13306 0.77232
 N759 N 1.09167 0.60250 0.18551
 N760 N 1.08204 0.62164 0.15727
 N761 N 0.90927 0.89456 0.26358
 N762 N 0.91417 0.86139 0.27675
 N763 N 0.38034 0.40175 0.73996
 N764 N 0.38705 0.37010 0.75618
 N765 N 0.38265 0.62718 0.74481
 N766 N 0.40562 0.62096 0.77340
 N767 N -0.10077 0.12117 0.25696
 N768 N -0.08106 0.11893 0.28819
 N769 N 0.09071 0.38722 0.27142
 N770 N 0.08180 0.35472 0.26021
 N771 N 0.57486 0.88535 0.78081
 N772 N 0.56093 0.85578 0.76690
 N773 N 0.78790 0.59273 0.11828
 N774 N 0.79434 0.56739 0.14184
 N775 N 0.25693 1.06319 0.61680
 N776 N 0.23202 1.03909 0.60874
 N777 N 0.23053 0.88633 0.90297
 N778 N 0.24654 0.88863 0.87083
 N779 N 0.72803 0.40163 0.39891
 N780 N 0.73893 0.40027 0.36448
 N781 N 0.75271 0.39554 0.62902
 N782 N 0.77924 0.41854 0.62432
 N783 N 0.23908 -0.07668 0.12768
 N784 N 0.27269 -0.06492 0.12147
 N785 N 0.29049 0.09179 0.39543
 N786 N 0.28251 0.09516 0.35989
 N787 N 0.77406 0.57330 0.90931
 N788 N 0.76172 0.56108 0.87734
 N789 N 0.10744 0.74533 0.59766
 N790 N 0.10340 0.72351 0.56924
 N791 N 0.62705 0.23404 1.09569
 N792 N 0.65860 0.24528 1.08265
 N793 N 0.91087 0.21988 0.89233
 N794 N 0.87477 0.22885 0.89345
 N795 N 0.38218 0.73738 0.38339
 N796 N 0.34962 0.75259 0.39268
 N797 N 0.61916 0.76827 0.38982
 N798 N 0.61472 0.80050 0.40502
 N799 N 0.14189 0.23876 -0.12138
 N800 N 0.13378 0.26500 -0.09790
 N801 N 0.40229 0.29066 0.09213
 N802 N 0.37276 0.27584 0.07700
 N803 N 0.88311 0.75364 0.58389
 N804 N 0.84665 0.74970 0.58159
   
