data_POSCAR
  _audit_creation_date              2014-09-24
  _audit_creation_method            'ToBaCCo'
  _symmetry_space_group_name_H-M    'P1'
  _symmetry_Int_Tables_number       1
  _symmetry_cell_setting            triclinic
  loop_
  _symmetry_equiv_pos_as_xyz
 x,y,z
_cell_length_a 23.2028
_cell_length_b 24.4478
_cell_length_c 24.5345
_cell_angle_alpha 92.605000
_cell_angle_beta 87.529700
_cell_angle_gamma 88.919600
loop_
  _atom_site_label
  _atom_site_type_symbol
  _atom_site_fract_x
  _atom_site_fract_y
  _atom_site_fract_z
C1 C 0.34141 0.39706 1.39411
 C2 C 0.38117 0.41225 1.35304
 C3 C 0.43006 0.37979 1.34032
 C4 C 0.43938 0.33150 1.36731
 C5 C 0.40004 0.31619 1.40764
 C6 C 0.35120 0.34951 1.42159
 C7 C 0.28472 0.41332 1.40591
 N8 N 0.26098 0.37743 1.44032
 C9 C 0.30066 0.33819 1.44981
 C10 C 0.41138 0.26176 1.41642
 N11 N 0.45646 0.24462 1.38271
 C12 C 0.47392 0.28639 1.35233
 C13 C 0.45415 0.39671 1.29211
 N14 N 0.42114 0.43835 1.27520
 C15 C 0.37653 0.44852 1.31184
 H16 H 0.26094 0.44482 1.38618
 H17 H 0.29138 0.30077 1.47021
 H18 H 0.38483 0.23517 1.44062
 H19 H 0.50454 0.28245 1.31772
 H20 H 0.48966 0.37674 1.26844
 H21 H 0.34062 0.47627 1.30611
 C22 C 1.24403 0.64174 0.81239
 C23 C 1.22204 0.64258 0.75991
 C24 C 1.18429 0.68449 0.74762
 C25 C 1.16820 0.72585 0.78701
 C26 C 1.18922 0.72480 0.83894
 C27 C 1.22773 0.68281 0.85150
 C28 C 1.27195 0.60109 0.83913
 N29 N 1.27336 0.61744 0.89250
 C30 C 1.24619 0.66662 0.90088
 C31 C 1.15533 0.76078 0.87220
 N32 N 1.11542 0.78373 0.84117
 C33 C 1.12260 0.76272 0.78936
 C34 C 1.15950 0.66912 0.69960
 N35 N 1.18162 0.61944 0.68211
 C36 C 1.22006 0.60265 0.71822
 H37 H 1.28579 0.56110 0.82212
 H38 H 1.23638 0.68675 0.94052
 H39 H 1.15520 0.76478 0.91635
 H40 H 1.09230 0.76842 0.75762
 H41 H 1.12414 0.69007 0.68135
 H42 H 1.23987 0.56216 0.71742
 C43 C 0.72865 -0.17207 0.17331
 C44 C 0.70633 -0.16780 0.22758
 C45 C 0.66415 -0.20364 0.24450
 C46 C 0.64359 -0.24355 0.20782
 C47 C 0.66632 -0.24816 0.15464
 C48 C 0.70902 -0.21256 0.13743
 C49 C 0.75954 -0.13614 0.14218
 N50 N 0.75895 -0.15480 0.08941
 C51 C 0.72827 -0.20092 0.08564
 C52 C 0.63003 -0.28034 0.12474
 N53 N 0.58629 -0.29505 0.15864
 C54 C 0.59345 -0.27294 0.20934
 C55 C 0.64117 -0.18333 0.29390
 N56 N 0.66815 -0.13628 0.30761
 C57 C 0.70821 -0.12625 0.26768
 H58 H 0.77670 -0.09730 0.15604
 H59 H 0.71653 -0.22141 0.04777
 H60 H 0.63167 -0.28724 0.08077
 H61 H 0.56159 -0.27319 0.24291
 H62 H 0.60359 -0.19859 0.31557
 H63 H 0.73187 -0.08865 0.26500
 C64 C -0.17915 1.10372 -0.36636
 C65 C -0.13999 1.09857 -0.32473
 C66 C -0.09845 1.13783 -0.31642
 C67 C -0.09504 1.18245 -0.35027
 C68 C -0.13381 1.18787 -0.39137
 C69 C -0.17603 1.14811 -0.39953
 C70 C -0.23156 1.07937 -0.37446
 N71 N -0.25976 1.10754 -0.41185
 C72 C -0.22640 1.14956 -0.42728
 C73 C -0.12859 1.24031 -0.40955
 N74 N -0.08712 1.26570 -0.38123
 C75 C -0.06667 1.23121 -0.34469
 C76 C -0.07301 1.12732 -0.26795
 N77 N -0.09796 1.08243 -0.24765
 C78 C -0.13868 1.06452 -0.28163
 H79 H -0.25090 1.04858 -0.34953
 H80 H -0.24109 1.18310 -0.45089
 H81 H -0.15671 1.26018 -0.43705
 H82 H -0.03813 1.24278 -0.31253
 H83 H -0.04081 1.15156 -0.24797
 H84 H -0.16721 1.03093 -0.27394
 C85 C 0.69751 0.65892 0.68286
 C86 C 0.66117 0.66837 0.72955
 C87 C 0.62547 0.71444 0.73431
 C88 C 0.62446 0.75058 0.69167
 C89 C 0.65886 0.74032 0.64444
 C90 C 0.69641 0.69434 0.64025
 C91 C 0.73723 0.61806 0.66829
 N92 N 0.76035 0.62776 0.61825
 C93 C 0.73569 0.67388 0.59997
 C94 C 0.63989 0.77549 0.60618
 N95 N 0.59563 0.80651 0.62959
 C96 C 0.58610 0.79187 0.68162
 C97 C 0.59135 0.71086 0.78140
 N98 N 0.60518 0.66335 0.80429
 C99 C 0.64773 0.63686 0.77333
 H100 H 0.74993 0.58459 0.69291
 H101 H 0.74714 0.69220 0.56176
 H102 H 0.65230 0.77376 0.56307
 H103 H 0.54900 0.80496 0.70761
 H104 H 0.55685 0.73884 0.79616
 H105 H 0.66575 0.59692 0.78101
 C106 C 0.79464 0.38386 0.13208
 C107 C 0.82449 0.38345 0.18046
 C108 C 0.85426 0.33663 0.19365
 C109 C 0.85545 0.29001 0.15815
 C110 C 0.82586 0.29016 0.11016
 C111 C 0.79496 0.33751 0.09706
 C112 C 0.76202 0.42374 0.10952
 N113 N 0.74261 0.40253 0.06210
 C114 C 0.76221 0.35018 0.05339
 C115 C 0.83094 0.23786 0.08632
 N116 N 0.86341 0.20714 0.11851
 C117 C 0.87822 0.23814 0.16258
 C118 C 0.87787 0.34740 0.24344
 N119 N 0.86332 0.39974 0.26005
 C120 C 0.83102 0.42240 0.22204
 H121 H 0.75391 0.46527 0.12565
 H122 H 0.75439 0.32406 0.01776
 H123 H 0.80957 0.22247 0.05054
 H124 H 0.90030 0.22304 0.19705
 H125 H 0.90431 0.31972 0.26545
 H126 H 0.81375 0.46392 0.22457
 C127 C 0.25927 0.13512 0.85885
 C128 C 0.28504 0.13626 0.80613
 C129 C 0.31789 0.18058 0.79185
 C130 C 0.32730 0.22305 0.83021
 C131 C 0.30400 0.22104 0.88300
 C132 C 0.26868 0.17738 0.89713
 C133 C 0.22565 0.09711 0.88439
 N134 N 0.21433 0.11614 0.93644
 C135 C 0.24053 0.16451 0.94529
 C136 C 0.32618 0.26435 0.91286
 N137 N 0.36137 0.29209 0.87872
 C138 C 0.36210 0.26784 0.82819
 C139 C 0.34261 0.16881 0.74085
 N140 N 0.32625 0.11810 0.72423
 C141 C 0.29106 0.09757 0.76342
 H142 H 0.21100 0.05867 0.86683
 H143 H 0.23958 0.18804 0.98381
 H144 H 0.31830 0.27439 0.95599
 H145 H 0.38804 0.28049 0.79343
 H146 H 0.37403 0.19315 0.71949
 H147 H 0.27454 0.05645 0.76242
 C148 C 0.22550 0.85532 0.31017
 C149 C 0.18981 0.84790 0.26600
 C150 C 0.15382 0.80309 0.26258
 C151 C 0.15536 0.76354 0.30279
 C152 C 0.19278 0.77019 0.34520
 C153 C 0.22710 0.81652 0.34939
 C154 C 0.25419 0.90053 0.32982
 N155 N 0.27299 0.88940 0.37966
 C156 C 0.25698 0.83840 0.39215
 C157 C 0.18382 0.72845 0.37992
 N158 N 0.14192 0.69660 0.36020
 C159 C 0.12345 0.71736 0.31327
 C160 C 0.11993 0.81052 0.21823
 N161 N 0.13616 0.85762 0.19500
 C162 C 0.17847 0.88070 0.22363
 H163 H 0.25556 0.94030 0.31215
 H164 H 0.26087 0.82117 0.43175
 H165 H 0.20474 0.72262 0.41789
 H166 H 0.08904 0.70093 0.28946
 H167 H 0.08608 0.78421 0.20421
 H168 H 0.19801 0.91946 0.21523
 Zn169 Zn -0.06227 0.95955 0.05757
 Zn170 Zn 0.04713 0.94507 -0.00795
 Zn171 Zn -0.06591 0.95752 -0.05757
 Zn172 Zn -0.01458 1.05227 -0.00380
 O173 O -0.02285 0.97903 -0.00260
 O174 O -0.01847 0.92611 0.10463
 O175 O 0.05096 0.89039 -0.06084
 O176 O -0.13944 0.94764 -0.03637
 O177 O 0.06374 0.91422 0.05555
 O178 O -0.11905 0.91371 0.04229
 O179 O -0.03890 0.89472 -0.08863
 O180 O -0.02713 1.07780 -0.07125
 O181 O 0.10377 0.99334 -0.01983
 O182 O -0.06684 1.00482 -0.10974
 O183 O 0.05790 1.06929 0.01302
 O184 O -0.06411 1.08838 0.04545
 O185 O -0.09684 1.01824 0.09158
 C186 C 0.03352 0.90902 0.09956
 C187 C 0.01063 0.87178 -0.08970
 C188 C -0.15392 0.92073 0.00468
 C189 C -0.04934 1.05349 -0.11209
 C190 C 0.10433 1.04268 -0.00082
 C191 C -0.09646 1.06909 0.08302
 Zn192 Zn 0.55935 -0.01360 0.50417
 Zn193 Zn 0.43633 -0.01236 0.54293
 Zn194 Zn 0.48409 0.08648 0.51045
 Zn195 Zn 0.46681 -0.00177 0.42882
 O196 O 0.48752 0.01486 0.49644
 O197 O 0.55432 -0.07620 0.54162
 O198 O 0.42219 0.03199 0.60198
 O199 O 0.54627 0.10777 0.54484
 O200 O 0.46006 -0.07726 0.56290
 O201 O 0.60560 0.03496 0.53985
 O202 O 0.42355 0.10700 0.55513
 O203 O 0.47563 0.05590 0.38642
 O204 O 0.36813 -0.02151 0.51335
 O205 O 0.48086 0.12343 0.44971
 O206 O 0.39296 -0.02237 0.42517
 O207 O 0.51059 -0.05687 0.40028
 O208 O 0.59285 -0.03508 0.43767
 C209 C 0.50980 -0.09986 0.56092
 C210 C 0.40888 0.08220 0.59773
 C211 C 0.59360 0.08460 0.55554
 C212 C 0.47920 0.10651 0.40002
 C213 C 0.35538 -0.02715 0.46377
 C214 C 0.56500 -0.06136 0.40155
 Zn215 Zn 0.97145 0.50973 0.56446
 Zn216 Zn 0.99159 0.41732 0.48461
 Zn217 Zn 0.95561 0.52742 0.44665
 Zn218 Zn 1.07507 0.50980 0.48877
 O219 O 0.99864 0.49118 0.49577
 O220 O 0.94980 0.45273 0.60249
 O221 O 0.95188 0.40003 0.42579
 O222 O 0.89429 0.56597 0.47877
 O223 O 0.95922 0.38320 0.54183
 O224 O 0.90887 0.55193 0.56556
 O225 O 0.92730 0.48104 0.39574
 O226 O 1.08599 0.56087 0.43868
 O227 O 1.05962 0.38422 0.47106
 O228 O 0.99801 0.57555 0.40949
 O229 O 1.12257 0.45133 0.47055
 O230 O 1.10165 0.54114 0.55071
 O231 O 1.02212 0.54584 0.60400
 C232 C 0.94490 0.40241 0.58956
 C233 C 0.92872 0.42901 0.39086
 C234 C 0.87932 0.57255 0.52914
 C235 C 1.05133 0.58646 0.40945
 C236 C 1.11079 0.40074 0.46542
 C237 C 1.07494 0.55595 0.59539
 Zn238 Zn 0.46036 0.50262 0.94491
 Zn239 Zn 0.54497 0.55639 1.00647
 Zn240 Zn 0.43392 0.53140 1.05712
 Zn241 Zn 0.51742 0.44285 1.02911
 O242 O 0.49006 0.50737 1.01013
 O243 O 0.51121 0.52480 0.89348
 O244 O 0.53928 0.60311 1.06541
 O245 O 0.36470 0.52590 1.02796
 O246 O 0.54121 0.59421 0.94509
 O247 O 0.39530 0.54454 0.94434
 O248 O 0.44398 0.60169 1.07741
 O249 O 0.50420 0.43413 1.10025
 O250 O 0.61484 0.52313 1.00192
 O251 O 0.43377 0.49563 1.11923
 O252 O 0.59424 0.43616 1.01568
 O253 O 0.48077 0.38853 0.99419
 O254 O 0.43938 0.43372 0.92904
 C255 C 0.53710 0.57003 0.89837
 C256 C 0.49219 0.62268 1.08771
 C257 C 0.35474 0.54209 0.98078
 C258 C 0.46698 0.45737 1.13341
 C259 C 0.63034 0.47320 1.00485
 C260 C 0.44789 0.38998 0.95410
 N261 N 1.20659 0.37023 0.44716
 N262 N 1.15499 0.36018 0.45308
 N263 N 0.28617 0.58643 0.93118
 N264 N 0.29712 0.55761 0.96941
 N265 N -0.22515 0.87246 0.04822
 N266 N -0.21000 0.89838 0.00846
 N267 N 0.68497 0.10996 0.58670
 N268 N 0.63215 0.11638 0.58730
 N269 N 0.46889 0.19411 0.37034
 N270 N 0.47966 0.14540 0.35850
 N271 N 0.91814 0.31787 0.62340
 N272 N 0.92241 0.36781 0.63038
 N273 N 0.06728 0.80509 -0.14000
 N274 N 0.01946 0.82368 -0.12432
 N275 N 0.53864 0.68605 1.14214
 N276 N 0.49289 0.66824 1.12598
 N277 N 0.42519 0.45915 1.22287
 N278 N 0.46228 0.43895 1.18752
 N279 N 0.64655 -0.09724 0.34752
 N280 N 0.59329 -0.09803 0.36190
 N281 N -0.08740 1.05883 -0.19786
 N282 N -0.05721 1.08147 -0.16131
 N283 N 1.15768 0.58548 0.64166
 N284 N 1.10332 0.58668 0.63670
 N285 N 0.80830 0.59816 0.59490
 N286 N 0.82808 0.60326 0.54621
 N287 N 0.71531 0.43050 1.02807
 N288 N 0.69006 0.45907 0.99621
 N289 N 0.18538 1.09099 -0.02701
 N290 N 0.15829 1.06742 0.00887
 N291 N 0.28625 -0.07397 0.41582
 N292 N 0.29746 -0.03974 0.45195
 N293 N 0.55531 -0.17222 0.60281
 N294 N 0.51386 -0.15419 0.57915
 N295 N 1.12012 0.65184 0.38797
 N296 N 1.07209 0.63028 0.37761
 N297 N -0.13443 1.15457 0.11656
 N298 N -0.13390 1.10422 0.11728
 N299 N 0.39351 0.33812 0.89293
 N300 N 0.41860 0.34154 0.93795
 N301 N 0.57618 0.64292 0.85018
 N302 N 0.56341 0.59259 0.85103
 N303 N 0.35110 0.08776 0.67907
 N304 N 0.37868 0.11190 0.64159
 N305 N 0.11213 0.88155 0.15001
 N306 N 0.05790 0.88335 0.14469
 N307 N 0.88156 0.42761 0.30736
 N308 N 0.90612 0.40174 0.34403
   
