data_POSCAR
  _audit_creation_date              2014-09-24
  _audit_creation_method            'ToBaCCo'
  _symmetry_space_group_name_H-M    'P1'
  _symmetry_Int_Tables_number       1
  _symmetry_cell_setting            triclinic
  loop_
  _symmetry_equiv_pos_as_xyz
 x,y,z
_cell_length_a 20.1653
_cell_length_b 22.2141
_cell_length_c 22.5178
_cell_angle_alpha 90.260900
_cell_angle_beta 90.138600
_cell_angle_gamma 132.140700
loop_
  _atom_site_label
  _atom_site_type_symbol
  _atom_site_fract_x
  _atom_site_fract_y
  _atom_site_fract_z
O1 O 0.37459 0.57372 0.31662
 O2 O 0.22339 0.53698 0.29696
 C3 C 0.21069 0.57723 0.32677
 O4 O 0.25207 0.65094 0.31634
 O5 O 0.39961 0.80052 0.30053
 C6 C 0.46634 0.82332 0.33123
 O7 O 0.50895 0.80139 0.31935
 O8 O 0.51345 0.68860 0.29787
 C9 C 0.45785 0.62392 0.32753
 O10 O 0.40099 0.57760 0.19851
 O11 O 0.25430 0.54821 0.17912
 C12 C 0.21420 0.57254 0.16671
 O13 O 0.22526 0.62700 0.19758
 O14 O 0.37601 0.77457 0.18174
 C15 C 0.45922 0.82571 0.17185
 O16 O 0.51450 0.82830 0.20200
 O17 O 0.50942 0.70977 0.18035
 C18 C 0.46727 0.63601 0.16822
 Cr19 Cr 0.31569 0.56338 0.24790
 Cr20 Cr 0.31565 0.71192 0.24906
 Cr21 Cr 0.50681 0.75409 0.24987
 O22 O 0.37929 0.67645 0.24906
 O23 O 0.48597 0.31101 0.70178
 O24 O 0.49066 0.19836 0.68018
 C25 C 0.53332 0.17650 0.66824
 O26 O 0.60007 0.19932 0.69891
 O27 O 0.74746 0.34898 0.68312
 C28 C 0.78882 0.42271 0.67280
 O29 O 0.77611 0.46290 0.70272
 O30 O 0.62479 0.42594 0.68301
 C31 C 0.54153 0.37570 0.67211
 O32 O 0.49002 0.28973 0.81929
 O33 O 0.48520 0.17136 0.79751
 C34 C 0.54053 0.17396 0.82760
 O35 O 0.62375 0.22514 0.81770
 O36 O 0.77447 0.37283 0.80185
 C37 C 0.78497 0.42701 0.83256
 O38 O 0.74496 0.45144 0.82058
 O39 O 0.59822 0.42190 0.80109
 C40 C 0.53202 0.36345 0.83140
 Cr41 Cr 0.49273 0.24554 0.74971
 Cr42 Cr 0.68403 0.28790 0.75039
 Cr43 Cr 0.68366 0.43631 0.75176
 O44 O 0.62024 0.32327 0.75054
 C45 C 0.44605 -0.10135 0.40046
 C46 C 0.47269 -0.05071 0.44993
 C47 C 0.55043 -0.01960 0.48219
 C48 C 0.60014 -0.03967 0.46440
 C49 C 0.57303 -0.09032 0.41524
 C50 C 0.49581 -0.12174 0.38274
 C51 C 0.57713 0.03087 0.53173
 C52 C 0.52701 0.05061 0.54949
 C53 C 0.44927 0.01950 0.51723
 C54 C 0.42258 -0.03097 0.46768
 C55 C 0.39956 0.03956 0.53502
 C56 C 0.42665 0.09020 0.58420
 C57 C 0.50387 0.12160 0.61670
 C58 C 0.55364 0.10122 0.59897
 H59 H 0.38615 -0.12530 0.37609
 H60 H 0.65988 -0.01638 0.48862
 H61 H 0.61268 -0.10495 0.40274
 H62 H 0.63681 0.05473 0.55644
 H63 H 0.36290 -0.05483 0.44298
 H64 H 0.33982 0.01628 0.51081
 H65 H 0.38700 0.10481 0.59671
 H66 H 0.61354 0.12517 0.62334
 C67 C 1.12693 0.57829 0.40845
 C68 C 1.06354 0.53951 0.45411
 C69 C 1.01625 0.45726 0.46690
 C70 C 1.03327 0.41530 0.43385
 C71 C 1.09643 0.45430 0.38844
 C72 C 1.14388 0.53607 0.37515
 C73 C 0.95278 0.41830 0.51245
 C74 C 0.93597 0.46055 0.54544
 C75 C 0.98324 0.54280 0.53266
 C76 C 1.04672 0.58177 0.48709
 C77 C 0.96621 0.58474 0.56573
 C78 C 0.90305 0.54572 0.61114
 C79 C 0.85562 0.46394 0.62441
 C80 C 0.87258 0.42176 0.59109
 H81 H 1.16292 0.64136 0.39887
 H82 H 0.99768 0.35226 0.44308
 H83 H 1.10805 0.42023 0.36370
 H84 H 0.91652 0.35518 0.52223
 H85 H 1.08298 0.64489 0.47732
 H86 H 1.00179 0.64778 0.55650
 H87 H 0.89141 0.57976 0.63590
 H88 H 0.83661 0.35869 0.60065
 C89 C 0.43364 0.53364 0.40852
 C90 C 0.46624 0.51646 0.45418
 C91 C 0.55872 0.57241 0.46777
 C92 C 0.61691 0.64454 0.43553
 C93 C 0.58401 0.66116 0.39013
 C94 C 0.49218 0.60601 0.37603
 C95 C 0.59155 0.55542 0.51330
 C96 C 0.53309 0.48312 0.54547
 C97 C 0.44061 0.42716 0.53188
 C98 C 0.40777 0.44416 0.48635
 C99 C 0.38242 0.35504 0.56413
 C100 C 0.41534 0.33843 0.60952
 C101 C 0.50717 0.39359 0.62362
 C102 C 0.56570 0.46595 0.59112
 H103 H 0.36268 0.49046 0.39828
 H104 H 0.68796 0.68813 0.44537
 H105 H 0.63074 0.71742 0.36604
 H106 H 0.66252 0.59841 0.52367
 H107 H 0.33681 0.40117 0.47598
 H108 H 0.31137 0.31145 0.55429
 H109 H 0.36861 0.28217 0.63362
 H110 H 0.63665 0.50913 0.60136
 C111 C 0.43456 -0.11447 1.09017
 C112 C 0.46684 -0.05758 1.04493
 C113 C 0.55950 0.00042 1.03298
 C114 C 0.61820 0.00043 1.06644
 C115 C 0.58558 -0.05635 1.11143
 C116 C 0.49356 -0.11432 1.12388
 C117 C 0.59198 0.05742 0.98784
 C118 C 0.53296 0.05718 0.95445
 C119 C 0.44030 -0.00082 0.96640
 C120 C 0.40781 -0.05783 1.01153
 C121 C 0.38159 -0.00084 0.93295
 C122 C 0.41421 0.05596 0.88798
 C123 C 0.50622 0.11395 0.87553
 C124 C 0.56523 0.11408 0.90922
 H125 H 0.36343 -0.15875 1.09911
 H126 H 0.68941 0.04442 1.05786
 H127 H 0.63263 -0.05475 1.13652
 H128 H 0.66310 0.10191 0.97871
 H129 H 0.33670 -0.10231 1.02066
 H130 H 0.31038 -0.04483 0.94153
 H131 H 0.36714 0.05437 0.86291
 H132 H 0.63636 0.15838 0.90028
 C133 C 1.11378 0.56632 1.10257
 C134 C 1.05759 0.53373 1.05238
 C135 C 1.04382 0.47258 1.01826
 C136 C 1.08651 0.44511 1.03480
 C137 C 1.14292 0.47810 1.08446
 C138 C 1.15786 0.53943 1.11928
 C139 C 0.98784 0.44002 0.96802
 C140 C 0.94565 0.46810 0.95129
 C141 C 0.95964 0.52948 0.98532
 C142 C 1.01539 0.56182 1.03565
 C143 C 0.91744 0.55742 0.96847
 C144 C 0.86146 0.52462 0.91858
 C145 C 0.84662 0.46327 0.88442
 C146 C 0.88941 0.43552 0.90114
 H147 H 1.12365 0.61340 1.12803
 H148 H 1.07669 0.39826 1.00911
 H149 H 1.17494 0.45524 1.09524
 H150 H 0.97724 0.39298 0.94193
 H151 H 1.02599 0.60889 1.06172
 H152 H 0.92743 0.60445 0.99401
 H153 H 0.82938 0.54717 0.90695
 H154 H 0.87853 0.38811 0.87545
 C155 C 0.44683 0.53579 1.09896
 C156 C 0.47297 0.51743 1.04955
 C157 C 0.55026 0.58093 1.01767
 C158 C 0.60005 0.66163 1.03579
 C159 C 0.57341 0.67944 1.08489
 C160 C 0.49660 0.61688 1.11698
 C161 C 0.57641 0.56280 0.96816
 C162 C 0.52621 0.48194 0.95008
 C163 C 0.44892 0.41843 0.98196
 C164 C 0.42276 0.43656 1.03147
 C165 C 0.39916 0.33773 0.96384
 C166 C 0.42583 0.31994 0.91474
 C167 C 0.50263 0.38252 0.88265
 C168 C 0.55236 0.46359 0.90067
 H169 H 0.38721 0.48683 1.12300
 H170 H 0.65945 0.71105 1.01186
 H171 H 0.61302 0.74241 1.09762
 H172 H 0.63575 0.61157 0.94373
 H173 H 0.36343 0.38780 1.05590
 H174 H 0.33976 0.28831 0.98776
 H175 H 0.38625 0.25698 0.90200
 H176 H 0.61197 0.51257 0.87663
   
