data_POSCAR
  _audit_creation_date              2014-09-24
  _audit_creation_method            'ToBaCCo'
  _symmetry_space_group_name_H-M    'P1'
  _symmetry_Int_Tables_number       1
  _symmetry_cell_setting            triclinic
  loop_
  _symmetry_equiv_pos_as_xyz
 x,y,z
_cell_length_a 25.0418
_cell_length_b 25.0437
_cell_length_c 24.9617
_cell_angle_alpha 89.790600
_cell_angle_beta 90.218500
_cell_angle_gamma 89.993900
loop_
  _atom_site_label
  _atom_site_type_symbol
  _atom_site_fract_x
  _atom_site_fract_y
  _atom_site_fract_z
O1 O 0.57584 0.13527 0.00353
 O2 O 0.63478 0.06496 0.00319
 C3 C 0.62371 0.11547 0.00407
 O4 O 0.42647 -0.00394 0.13744
 O5 O 0.36731 -0.00108 0.06697
 C6 C 0.37855 -0.00361 0.11760
 O7 O 0.57576 0.00325 0.13727
 O8 O 0.63446 0.00057 0.06688
 C9 C 0.62360 0.00267 0.11755
 O10 O 0.42648 0.13582 -0.00431
 O11 O 0.36725 0.06595 0.00000
 C12 C 0.37855 0.11631 -0.00334
 Zr13 Zr 0.50071 0.09613 0.00269
 O14 O 0.49506 0.15065 0.06717
 O15 O 0.50296 0.16144 -0.05114
 Zr16 Zr 0.50088 0.00019 0.09764
 O17 O 0.49505 0.06014 0.15692
 O18 O 0.50714 -0.05972 0.15739
 O19 O 0.54876 0.05550 0.05757
 O20 O 0.45397 0.05506 0.05694
 O21 O 0.42550 0.00481 -0.13324
 O22 O 0.36657 0.00140 -0.06296
 C23 C 0.37764 0.00404 -0.11355
 O24 O 0.57530 -0.13398 -0.00188
 O25 O 0.63429 -0.06382 0.00135
 C26 C 0.62317 -0.11427 -0.00122
 O27 O 0.42571 -0.13379 0.00460
 O28 O 0.36667 -0.06358 0.00132
 C29 C 0.37781 -0.11406 0.00367
 O30 O 0.57536 -0.00168 -0.13288
 O31 O 0.63462 -0.00005 -0.06237
 C32 C 0.62332 -0.00168 -0.11303
 Zr33 Zr 0.50046 0.00131 -0.09366
 O34 O 0.49451 -0.05829 -0.15334
 O35 O 0.50547 0.06128 -0.15343
 Zr36 Zr 0.50062 -0.09447 0.00171
 O37 O 0.49447 -0.15379 -0.05822
 O38 O 0.50676 -0.15401 0.06188
 Zr39 Zr 0.58035 0.00086 0.00189
 Zr40 Zr 0.42072 0.00091 0.00187
 O41 O 0.45410 -0.05335 -0.05294
 O42 O 0.54825 -0.05399 -0.05344
 O43 O 0.45310 0.05628 -0.05311
 O44 O 0.54720 -0.05405 0.05653
 O45 O 0.54684 0.05581 -0.05262
 O46 O 0.45296 -0.05459 0.05699
 H47 H 0.42949 0.07699 0.07888
 H48 H 0.57122 -0.07649 0.07880
 H49 H 0.43027 -0.07554 -0.07549
 H50 H 0.57090 0.07786 -0.07501
 H51 H 0.47807 -0.08570 0.15107
 H52 H 0.47612 -0.14952 0.08634
 H53 H 0.52398 -0.14795 -0.08379
 H54 H 0.52481 -0.08315 -0.14822
 H55 H 0.47586 0.08670 -0.14730
 H56 H 0.50941 0.14667 -0.08715
 H57 H 0.52993 0.15123 0.08593
 H58 H 0.52505 0.08524 0.15146
 O59 O 0.00252 0.42621 -0.13710
 O60 O 0.00201 0.36723 -0.06652
 C61 C 0.00302 0.37834 -0.11719
 O62 O 0.13534 0.57581 0.00244
 O63 O 0.06497 0.63466 -0.00134
 C64 C 0.11548 0.62365 0.00150
 O65 O 0.13510 0.42575 -0.00451
 O66 O 0.06497 0.36643 -0.00239
 C67 C 0.11544 0.37776 -0.00429
 O68 O -0.00461 0.57543 -0.13697
 O69 O 0.00028 0.63447 -0.06696
 C70 C -0.00315 0.62338 -0.11752
 Zr71 Zr 0.00168 0.50083 -0.09733
 O72 O 0.06588 0.50662 -0.15216
 O73 O -0.05217 0.49928 -0.16277
 Zr74 Zr 0.09612 0.50092 -0.00098
 O75 O 0.15633 0.50701 -0.05999
 O76 O 0.15499 0.49476 0.05985
 O77 O 0.05636 0.45299 -0.05643
 O78 O 0.05553 0.54758 -0.05608
 O79 O -0.13403 0.57539 -0.00594
 O80 O -0.06399 0.63468 -0.00322
 C81 C -0.11445 0.62334 -0.00533
 O82 O -0.00301 0.42565 0.13350
 O83 O 0.00038 0.36673 0.06326
 C84 C -0.00226 0.37779 0.11384
 O85 O 0.00367 0.57486 0.13368
 O86 O 0.00157 0.63397 0.06323
 C87 C 0.00347 0.62275 0.11387
 O88 O -0.13432 0.42606 0.00086
 O89 O -0.06403 0.36720 -0.00036
 C90 C -0.11453 0.37825 0.00120
 Zr91 Zr -0.09459 0.50054 -0.00271
 O92 O -0.15468 0.50618 0.05643
 O93 O -0.15322 0.49545 -0.06381
 Zr94 Zr 0.00059 0.50048 0.09379
 O95 O -0.05923 0.50629 0.15322
 O96 O 0.06059 0.49440 0.15350
 Zr97 Zr 0.00091 0.42085 -0.00160
 Zr98 Zr 0.00043 0.58055 -0.00190
 O99 O -0.05414 0.54684 0.05246
 O100 O -0.05442 0.45282 0.05310
 O101 O -0.05410 0.54824 -0.05771
 O102 O 0.05532 0.45417 0.05343
 O103 O -0.05339 0.45422 -0.05690
 O104 O 0.05553 0.54854 0.05376
 H105 H 0.07765 0.57180 -0.07829
 H106 H 0.07751 0.43007 0.07586
 H107 H -0.07641 0.57075 0.07466
 H108 H -0.07567 0.43005 -0.07894
 H109 H 0.15015 0.52530 0.08436
 H110 H 0.08548 0.52463 0.14839
 H111 H -0.08450 0.47648 0.14760
 H112 H -0.14840 0.47720 0.08271
 H113 H -0.14722 0.52560 -0.08883
 H114 H -0.08751 0.48934 -0.14847
 H115 H 0.08505 0.47207 -0.15208
 H116 H 0.15002 0.47820 -0.08625
 O117 O -0.13597 -0.00297 0.57482
 O118 O -0.06567 -0.00268 0.63415
 C119 C -0.11618 -0.00357 0.62288
 O120 O 0.00260 -0.13575 0.42517
 O121 O -0.00107 -0.06547 0.36578
 C122 C 0.00169 -0.11595 0.37707
 O123 O -0.00429 -0.13636 0.57511
 O124 O -0.00202 -0.06635 0.63432
 C125 C -0.00403 -0.11680 0.62314
 O126 O -0.13598 0.00412 0.42507
 O127 O -0.06625 -0.00090 0.36575
 C128 C -0.11660 0.00257 0.37699
 Zr129 Zr -0.09640 -0.00216 0.49989
 O130 O -0.15124 -0.06639 0.49430
 O131 O -0.16147 0.05162 0.50139
 Zr132 Zr -0.00071 -0.09654 0.50022
 O133 O -0.05989 -0.15660 0.49422
 O134 O 0.05990 -0.15524 0.50655
 O135 O -0.05579 -0.05675 0.54819
 O136 O -0.05552 -0.05606 0.45322
 O137 O -0.00504 0.13364 0.42475
 O138 O -0.00183 0.06369 0.36557
 C139 C -0.00430 0.11411 0.37672
 O140 O 0.13391 0.00300 0.57510
 O141 O 0.06399 0.00054 0.63433
 C142 C 0.11440 0.00282 0.62313
 O143 O 0.13375 -0.00417 0.42569
 O144 O 0.06358 -0.00227 0.36624
 C145 C 0.11407 -0.00410 0.37761
 O146 O 0.00143 0.13343 0.57469
 O147 O -0.00111 0.06331 0.63427
 C148 C 0.00101 0.11377 0.62283
 Zr149 Zr -0.00180 0.09398 0.49981
 O150 O 0.05760 0.15387 0.49402
 O151 O -0.06214 0.15299 0.50466
 Zr152 Zr 0.09403 -0.00106 0.50029
 O153 O 0.15368 0.05853 0.49416
 O154 O 0.15307 -0.06131 0.50679
 Zr155 Zr -0.00096 -0.00131 0.58036
 Zr156 Zr -0.00137 -0.00100 0.41983
 O157 O 0.05302 0.05356 0.45349
 O158 O 0.05368 0.05399 0.54790
 O159 O -0.05678 0.05356 0.45206
 O160 O 0.05367 -0.05570 0.54712
 O161 O -0.05594 0.05284 0.54641
 O162 O 0.05395 -0.05601 0.45224
 H163 H -0.07773 -0.07817 0.42898
 H164 H 0.07599 -0.07777 0.57146
 H165 H 0.07527 0.07587 0.42949
 H166 H -0.07805 0.07514 0.57037
 H167 H 0.08415 -0.15053 0.47572
 H168 H 0.14826 -0.08588 0.47622
 H169 H 0.14736 0.08465 0.52306
 H170 H 0.08285 0.14854 0.52412
 H171 H -0.08734 0.14688 0.47465
 H172 H -0.14698 0.08713 0.51042
 H173 H -0.15146 -0.08537 0.52914
 H174 H -0.08618 -0.15022 0.52296
 C175 C -0.33263 0.15249 0.00475
 C176 C -0.29684 0.18465 0.00499
 C177 C -0.25602 0.22349 0.00489
 C178 C -0.22211 0.25762 0.00451
 C179 C -0.18351 0.29867 0.00372
 C180 C -0.15149 0.33457 0.00274
 C181 C 0.33418 0.84889 0.00446
 C182 C 0.29834 0.81678 0.00479
 C183 C 0.25739 0.77806 0.00480
 C184 C 0.22335 0.74406 0.00449
 C185 C 0.18459 0.70316 0.00376
 C186 C 0.15246 0.66734 0.00286
 C187 C 0.33500 0.15344 -0.00548
 C188 C 0.29914 0.18550 -0.00662
 C189 C 0.25807 0.22408 -0.00726
 C190 C 0.22387 0.25792 -0.00725
 C191 C 0.18490 0.29861 -0.00667
 C192 C 0.15261 0.33427 -0.00576
 C193 C -0.33321 0.84867 -0.00288
 C194 C -0.29744 0.81649 -0.00410
 C195 C -0.25660 0.77766 -0.00525
 C196 C -0.22263 0.74357 -0.00592
 C197 C -0.18391 0.70261 -0.00625
 C198 C -0.15172 0.66683 -0.00610
 C199 C 0.00458 -0.33370 0.15098
 C200 C 0.00506 -0.29800 0.18322
 C201 C 0.00514 -0.25727 0.22214
 C202 C 0.00483 -0.22342 0.25632
 C203 C 0.00405 -0.18487 0.29742
 C204 C 0.00311 -0.15289 0.33336
 C205 C 0.00376 0.33465 0.84586
 C206 C 0.00407 0.29857 0.81405
 C207 C 0.00407 0.25718 0.77583
 C208 C 0.00377 0.22269 0.74228
 C209 C 0.00309 0.18343 0.70187
 C210 C 0.00226 0.15098 0.66634
 C211 C -0.00375 0.33409 0.15109
 C212 C -0.00474 0.29814 0.18331
 C213 C -0.00553 0.25700 0.22211
 C214 C -0.00586 0.22275 0.25615
 C215 C -0.00580 0.18372 0.29709
 C216 C -0.00534 0.15136 0.33296
 C217 C -0.00468 -0.33698 0.84857
 C218 C -0.00570 -0.30096 0.81639
 C219 C -0.00637 -0.25976 0.77764
 C220 C -0.00649 -0.22547 0.74364
 C221 C -0.00611 -0.18641 0.70273
 C222 C -0.00538 -0.15405 0.66689
 C223 C 0.33394 0.00532 0.84917
 C224 C 0.29803 0.00600 0.81689
 C225 C 0.25699 0.00633 0.77798
 C226 C 0.22284 0.00619 0.74383
 C227 C 0.18392 0.00552 0.70279
 C228 C 0.15164 0.00452 0.66688
 C229 C -0.33662 0.00369 0.15130
 C230 C -0.30057 0.00444 0.18344
 C231 C -0.25942 0.00499 0.22225
 C232 C -0.22521 0.00512 0.25635
 C233 C -0.18624 0.00481 0.29737
 C234 C -0.15391 0.00407 0.33327
 C235 C 0.33491 -0.00530 0.15460
 C236 C 0.29885 -0.00623 0.18642
 C237 C 0.25745 -0.00677 0.22463
 C238 C 0.22295 -0.00677 0.25816
 C239 C 0.18368 -0.00628 0.29856
 C240 C 0.15123 -0.00547 0.33408
 C241 C -0.33321 -0.00292 0.84977
 C242 C -0.29765 -0.00369 0.81738
 C243 C -0.25711 -0.00430 0.77825
 C244 C -0.22343 -0.00456 0.74390
 C245 C -0.18504 -0.00456 0.70265
 C246 C -0.15313 -0.00428 0.66662
   
