data_POSCAR
  _audit_creation_date              2014-09-24
  _audit_creation_method            'ToBaCCo'
  _symmetry_space_group_name_H-M    'P1'
  _symmetry_Int_Tables_number       1
  _symmetry_cell_setting            triclinic
  loop_
  _symmetry_equiv_pos_as_xyz
 x,y,z
_cell_length_a 35.5408
_cell_length_b 35.5582
_cell_length_c 25.8946
_cell_angle_alpha 89.805900
_cell_angle_beta 89.779100
_cell_angle_gamma 92.499300
loop_
  _atom_site_label
  _atom_site_type_symbol
  _atom_site_fract_x
  _atom_site_fract_y
  _atom_site_fract_z
O1 O 0.03502 0.29265 -0.03644
 O2 O -0.04456 0.28911 0.05780
 O3 O 0.03187 0.28762 0.06270
 O4 O -0.03895 0.29410 -0.04339
 O5 O -0.04369 0.23197 -0.04287
 O6 O 0.02800 0.22589 0.05476
 O7 O -0.04419 0.22712 0.05640
 O8 O 0.02839 0.23072 -0.04256
 Cu9 Cu -0.00415 0.29738 0.01135
 Cu10 Cu -0.00857 0.22296 0.00608
 C11 C 0.04555 0.26156 -0.05447
 C12 C -0.05851 0.25709 0.07201
 C13 C 0.04366 0.25524 0.07393
 C14 C -0.05356 0.26331 -0.06051
 O15 O 0.54537 0.79245 0.45396
 O16 O 0.46739 0.78941 0.55204
 O17 O 0.54317 0.79200 0.55400
 O18 O 0.47021 0.79344 0.45065
 O19 O 0.46794 0.73131 0.45205
 O20 O 0.54096 0.72989 0.55024
 O21 O 0.46869 0.72744 0.55209
 O22 O 0.54098 0.73045 0.45220
 Cu23 Cu 0.50652 0.79820 0.50299
 Cu24 Cu 0.50416 0.72381 0.50131
 C25 C 0.55715 0.76122 0.43780
 C26 C 0.45451 0.75737 0.56801
 C27 C 0.55557 0.76043 0.56762
 C28 C 0.45619 0.76209 0.43468
 O29 O 1.03874 0.70303 0.05130
 O30 O 0.96783 0.71072 -0.05450
 O31 O 1.04318 0.71146 -0.04937
 O32 O 0.96265 0.70613 0.04398
 O33 O 0.97031 0.76755 0.05474
 O34 O 1.04255 0.77336 -0.04532
 O35 O 0.97029 0.77224 -0.04332
 O36 O 1.04316 0.76507 0.05357
 Cu37 Cu 1.00312 0.70139 -0.00252
 Cu38 Cu 1.00717 0.77543 0.00592
 C39 C 1.05416 0.73340 0.06866
 C40 C 0.95571 0.74310 -0.06472
 C41 C 1.05667 0.74386 -0.06291
 C42 C 0.95165 0.73688 0.06275
 O43 O 0.45637 0.20929 0.45771
 O44 O 0.53101 0.20862 0.55905
 O45 O 0.45489 0.20813 0.55775
 O46 O 0.53156 0.20996 0.45947
 O47 O 0.53086 0.27207 0.45924
 O48 O 0.45995 0.27024 0.56017
 O49 O 0.53265 0.27068 0.55751
 O50 O 0.45879 0.27127 0.46198
 Cu51 Cu 0.49316 0.20250 0.50865
 Cu52 Cu 0.49577 0.27705 0.51007
 C53 C 0.44414 0.24096 0.44406
 C54 C 0.54580 0.24017 0.57326
 C55 C 0.44350 0.23946 0.57379
 C56 C 0.54485 0.24185 0.44399
 O57 O 0.70451 -0.03862 0.03864
 O58 O 0.71015 0.04075 -0.05644
 O59 O 0.71104 -0.03448 -0.05938
 O60 O 0.70124 0.03714 0.04507
 O61 O 0.76328 0.04245 0.04837
 O62 O 0.77243 -0.03117 -0.04670
 O63 O 0.77205 0.04078 -0.05085
 O64 O 0.76575 -0.03012 0.05084
 Cu65 Cu 0.70023 0.00131 -0.00864
 Cu66 Cu 0.77424 0.00629 0.00148
 C67 C 0.73513 -0.04901 0.05848
 C68 C 0.74261 0.05416 -0.06982
 C69 C 0.74372 -0.04638 -0.06836
 C70 C 0.73130 0.05267 0.06324
 O71 O 0.20633 0.46004 0.54718
 O72 O 0.21445 0.53679 0.44842
 O73 O 0.21090 0.46098 0.44724
 O74 O 0.20738 0.53537 0.54847
 O75 O 0.26952 0.53641 0.55115
 O76 O 0.27255 0.46173 0.45654
 O77 O 0.27626 0.53397 0.45250
 O78 O 0.26831 0.46395 0.55432
 Cu79 Cu 0.20332 0.49830 0.49707
 Cu80 Cu 0.27762 0.49924 0.50425
 C81 C 0.23671 0.44836 0.56617
 C82 C 0.24729 0.54898 0.43488
 C83 C 0.24266 0.44757 0.43669
 C84 C 0.23848 0.54928 0.56552
 O85 O 0.28937 0.96736 -0.05754
 O86 O 0.28516 1.03609 0.05157
 O87 O 0.28832 0.96035 0.04367
 O88 O 0.28704 1.04147 -0.04740
 O89 O 0.22506 1.03387 -0.05014
 O90 O 0.22618 0.95874 0.04525
 O91 O 0.22321 1.03105 0.04756
 O92 O 0.22738 0.96174 -0.05382
 Cu93 Cu 0.29396 1.00144 -0.00192
 Cu94 Cu 0.21949 0.99560 -0.00284
 C95 C 0.25832 0.95256 -0.07367
 C96 C 0.25293 1.04690 0.06552
 C97 C 0.25706 0.94538 0.05906
 C98 C 0.25523 1.05206 -0.06283
 O99 O 0.79277 0.46958 0.44596
 O100 O 0.79399 0.54326 0.54823
 O101 O 0.79271 0.46781 0.54595
 O102 O 0.79324 0.54555 0.44783
 O103 O 0.73121 0.54246 0.45022
 O104 O 0.73067 0.46709 0.54469
 O105 O 0.73178 0.53964 0.54839
 O106 O 0.73063 0.46973 0.44634
 Cu107 Cu 0.79961 0.50682 0.49677
 Cu108 Cu 0.72513 0.50455 0.49740
 C109 C 0.76099 0.45606 0.43071
 C110 C 0.76258 0.55464 0.56430
 C111 C 0.76092 0.45343 0.56045
 C112 C 0.76173 0.55813 0.43412
 C113 C 0.23007 0.18276 0.17335
 C114 C 0.20053 0.20150 0.15021
 C115 C 0.18209 0.23085 0.17421
 C116 C 0.20154 0.25021 0.21455
 C117 C 0.23538 0.23565 0.23454
 C118 C 0.24951 0.20164 0.21428
 C119 C 0.28337 0.18895 0.23398
 C120 C 0.30109 0.20647 0.27563
 C121 C 0.28904 0.24067 0.29502
 C122 C 0.25543 0.25544 0.27451
 C123 C 0.18948 0.28447 0.23381
 C124 C 0.20764 0.30242 0.27473
 C125 C 0.24148 0.28965 0.29434
 C126 C 0.26093 0.30860 0.33506
 C127 C 0.28960 0.28943 0.35937
 C128 C 0.30798 0.25974 0.33613
 H129 H 0.29754 0.16588 0.21709
 H130 H 0.32356 0.19174 0.29308
 H131 H 0.16643 0.29874 0.21692
 H132 H 0.19373 0.32572 0.29153
 H133 H 0.18958 0.19094 0.11383
 H134 H 0.30056 0.30041 0.39557
 C135 C 0.74425 0.69776 0.33209
 C136 C 0.71525 0.71685 0.35624
 C137 C 0.69595 0.74572 0.33205
 C138 C 0.71315 0.76304 0.28786
 C139 C 0.74531 0.74689 0.26510
 C140 C 0.76173 0.71510 0.28828
 C141 C 0.79647 0.70379 0.26925
 C142 C 0.81181 0.71880 0.22377
 C143 C 0.79393 0.74722 0.19674
 C144 C 0.76132 0.76273 0.21901
 C145 C 0.70144 0.79739 0.26800
 C146 C 0.71656 0.81249 0.22235
 C147 C 0.74555 0.79488 0.19605
 C148 C 0.75917 0.80793 0.14724
 C149 C 0.78405 0.78489 0.12124
 C150 C 0.80717 0.76048 0.14786
 H151 H 0.81305 0.68419 0.29021
 H152 H 0.83761 0.70737 0.20996
 H153 H 0.68161 0.81397 0.28849
 H154 H 0.70482 0.83794 0.20785
 H155 H 0.70449 0.70602 0.39286
 H156 H 0.78641 0.78703 0.08000
 C157 C 0.80868 0.22856 0.18457
 C158 C 0.79458 0.19141 0.17880
 C159 C 0.75681 0.18053 0.18845
 C160 C 0.73648 0.20345 0.22230
 C161 C 0.75274 0.23910 0.23792
 C162 C 0.78862 0.25200 0.21825
 C163 C 0.80375 0.28703 0.23464
 C164 C 0.78359 0.31008 0.26679
 C165 C 0.74920 0.29757 0.28890
 C166 C 0.73314 0.26180 0.27348
 C167 C 0.70186 0.19118 0.24362
 C168 C 0.68178 0.21422 0.27568
 C169 C 0.69739 0.24873 0.29325
 C170 C 0.67781 0.27149 0.32821
 C171 C 0.69165 0.30862 0.33480
 C172 C 0.72899 0.32028 0.32349
 H173 H 0.83173 0.29709 0.22384
 H174 H 0.79505 0.33827 0.27230
 H175 H 0.69046 0.16300 0.23828
 H176 H 0.65353 0.20450 0.28551
 H177 H 0.81208 0.17113 0.16045
 H178 H 0.67387 0.32831 0.35390
 C179 C 0.32934 0.73159 0.30834
 C180 C 0.31895 0.69374 0.31814
 C181 C 0.28155 0.67986 0.31484
 C182 C 0.25710 0.69990 0.28262
 C183 C 0.26949 0.73556 0.26185
 C184 C 0.30556 0.75183 0.27548
 C185 C 0.31726 0.78632 0.25326
 C186 C 0.29330 0.80632 0.22228
 C187 C 0.25804 0.79088 0.20716
 C188 C 0.24562 0.75512 0.22779
 C189 C 0.22119 0.68508 0.26942
 C190 C 0.19723 0.70510 0.23850
 C191 C 0.20927 0.73904 0.21493
 C192 C 0.18548 0.75909 0.18185
 C193 C 0.19663 0.79645 0.16988
 C194 C 0.23389 0.81057 0.17404
 H195 H 0.34565 0.79767 0.25719
 H196 H 0.30285 0.83442 0.21151
 H197 H 0.21100 0.65762 0.28240
 H198 H 0.16859 0.69431 0.23587
 H199 H 0.33991 0.67636 0.33503
 H200 H 0.17620 0.81375 0.15144
 C201 C 0.68984 0.26106 0.66312
 C202 C 0.70715 0.29316 0.64013
 C203 C 0.73950 0.31183 0.65981
 C204 C 0.76112 0.29194 0.69581
 C205 C 0.74646 0.25699 0.71660
 C206 C 0.71124 0.24097 0.69919
 C207 C 0.70100 0.20390 0.71393
 C208 C 0.72177 0.18469 0.75009
 C209 C 0.75422 0.20140 0.77237
 C210 C 0.76797 0.23715 0.75320
 C211 C 0.79841 0.30342 0.70723
 C212 C 0.81922 0.28420 0.74325
 C213 C 0.80375 0.25256 0.76922
 C214 C 0.82470 0.23290 0.80596
 C215 C 0.81264 0.19578 0.81764
 C216 C 0.77580 0.18181 0.80882
 H217 H 0.67857 0.18806 0.69493
 H218 H 0.71351 0.15558 0.75752
 H219 H 0.81306 0.32564 0.68578
 H220 H 0.84862 0.29255 0.74696
 H221 H 0.69335 0.30552 0.60733
 H222 H 0.83146 0.17881 0.83971
 C223 C 0.32090 0.72660 0.68450
 C224 C 0.30605 0.68990 0.67678
 C225 C 0.26780 0.67976 0.68445
 C226 C 0.24668 0.70329 0.71657
 C227 C 0.26291 0.73879 0.73256
 C228 C 0.30029 0.75012 0.71726
 C229 C 0.31710 0.78256 0.73942
 C230 C 0.29660 0.80584 0.77104
 C231 C 0.25804 0.79848 0.78043
 C232 C 0.24190 0.76284 0.76457
 C233 C 0.21136 0.69156 0.73649
 C234 C 0.19048 0.71525 0.76667
 C235 C 0.20543 0.75043 0.78251
 C236 C 0.18511 0.77393 0.81544
 C237 C 0.19784 0.81158 0.81870
 C238 C 0.23481 0.82441 0.80603
 H239 H 0.34686 0.78934 0.73454
 H240 H 0.31221 0.82845 0.78938
 H241 H 0.20005 0.66324 0.73178
 H242 H 0.16219 0.70559 0.77675
 H243 H 0.32367 0.66949 0.65891
 H244 H 0.17939 0.83072 0.83733
 C245 C 0.22609 0.18575 0.83486
 C246 C 0.19003 0.19769 0.84625
 C247 C 0.17862 0.23405 0.83535
 C248 C 0.19899 0.25471 0.79660
 C249 C 0.23312 0.24057 0.77678
 C250 C 0.24696 0.20624 0.79641
 C251 C 0.28012 0.19281 0.77523
 C252 C 0.30105 0.21361 0.73907
 C253 C 0.28765 0.24663 0.71748
 C254 C 0.25326 0.26058 0.73680
 C255 C 0.18558 0.28778 0.77512
 C256 C 0.20620 0.30828 0.73818
 C257 C 0.23927 0.29476 0.71683
 C258 C 0.26018 0.31511 0.67827
 C259 C 0.29653 0.30346 0.66759
 C260 C 0.30830 0.26735 0.67911
 H261 H 0.29032 0.16568 0.78520
 H262 H 0.32832 0.20351 0.72960
 H263 H 0.15852 0.29809 0.78527
 H264 H 0.19607 0.33541 0.72813
 H265 H 0.17068 0.17862 0.86680
 H266 H 0.31569 0.32259 0.64678
 C267 C 0.73516 0.68472 0.68043
 C268 C 0.69922 0.69680 0.66838
 C269 C 0.68696 0.73252 0.68104
 C270 C 0.70737 0.75298 0.71947
 C271 C 0.74244 0.73980 0.73722
 C272 C 0.75577 0.70498 0.71889
 C273 C 0.78652 0.68968 0.74393
 C274 C 0.80684 0.70989 0.78116
 C275 C 0.79750 0.74646 0.79496
 C276 C 0.76340 0.76064 0.77521
 C277 C 0.69202 0.78346 0.74503
 C278 C 0.71241 0.80377 0.78201
 C279 C 0.74914 0.79458 0.79521
 C280 C 0.77041 0.81573 0.83207
 C281 C 0.80177 0.79901 0.85350
 C282 C 0.81855 0.76763 0.83217
 H283 H 0.79367 0.66084 0.73796
 H284 H 0.82823 0.69522 0.80142
 H285 H 0.66306 0.79043 0.73958
 H286 H 0.69781 0.82512 0.80251
 H287 H 0.68089 0.67850 0.64532
 H288 H 0.81436 0.81167 0.88762
 C289 C 0.24871 0.08155 0.09852
 C290 C 0.20712 0.09077 0.10601
 C291 C 0.20198 0.12248 0.13310
 C292 C 0.23859 0.14402 0.14969
 C293 C 0.25825 0.11325 0.18111
 C294 C 0.26428 0.08094 0.15382
 C295 C 0.26718 0.11687 0.07347
 C296 C 0.26200 0.14912 0.09997
 H297 H 0.18331 0.07225 0.09550
 H298 H 0.17409 0.12945 0.14602
 H299 H 0.26217 0.11407 0.22260
 H300 H 0.27509 0.05600 0.17172
 H301 H 0.28332 0.11651 0.03779
 H302 H 0.27386 0.17615 0.08684
 C303 C 0.75983 0.58891 0.59764
 C304 C 0.79623 0.60934 0.61689
 C305 C 0.78995 0.64162 0.64406
 C306 C 0.74770 0.64984 0.65066
 C307 C 0.73439 0.65083 0.59393
 C308 C 0.74000 0.61913 0.56705
 C309 C 0.73573 0.58191 0.64618
 C310 C 0.72943 0.61351 0.67362
 H311 H 0.82430 0.60100 0.60668
 H312 H 0.81298 0.66107 0.65453
 H313 H 0.72396 0.67554 0.57502
 H314 H 0.73309 0.61681 0.52634
 H315 H 0.72506 0.55422 0.65847
 H316 H 0.71334 0.61271 0.70936
 C317 C 0.73813 0.91317 0.08434
 C318 C 0.76821 0.89182 0.05557
 C319 C 0.77537 0.85809 0.07605
 C320 C 0.75087 0.84679 0.12366
 C321 C 0.75855 0.88007 0.16093
 C322 C 0.75168 0.91457 0.14055
 C323 C 0.70334 0.88585 0.08477
 C324 C 0.71006 0.85116 0.10514
 H325 H 0.78464 0.90335 0.02327
 H326 H 0.79931 0.84369 0.06164
 H327 H 0.76897 0.87678 0.19996
 H328 H 0.75586 0.94046 0.16227
 H329 H 0.67594 0.89298 0.07027
 H330 H 0.68835 0.82881 0.10778
 C331 C 0.23787 0.41306 0.59797
 C332 C 0.20092 0.39099 0.61187
 C333 C 0.20643 0.35786 0.63780
 C334 C 0.24839 0.35061 0.64886
 C335 C 0.26527 0.35211 0.59373
 C336 C 0.26049 0.38456 0.56808
 C337 C 0.25850 0.41884 0.64933
 C338 C 0.26395 0.38647 0.67565
 H339 H 0.17340 0.39882 0.59866
 H340 H 0.18347 0.33722 0.64400
 H341 H 0.27686 0.32826 0.57425
 H342 H 0.26939 0.38830 0.52814
 H343 H 0.26745 0.44627 0.66426
 H344 H 0.27761 0.38637 0.71308
 C345 C 0.90766 0.25314 0.10196
 C346 C 0.91343 0.23909 0.15727
 C347 C 0.88078 0.23234 0.18413
 C348 C 0.84479 0.24002 0.15372
 C349 C 0.85044 0.28097 0.13369
 C350 C 0.88362 0.28801 0.10749
 C351 C 0.88069 0.22357 0.07726
 C352 C 0.84811 0.21735 0.10316
 H353 H 0.94090 0.23525 0.17421
 H354 H 0.88051 0.22272 0.22396
 H355 H 0.82901 0.30174 0.13562
 H356 H 0.89046 0.31495 0.08913
 H357 H 0.88600 0.20946 0.04103
 H358 H 0.82563 0.20004 0.08615
 C359 C 0.41962 0.75279 0.60153
 C360 C 0.42601 0.73682 0.65579
 C361 C 0.39359 0.72938 0.68322
 C362 C 0.35728 0.73851 0.65433
 C363 C 0.36331 0.78012 0.63727
 C364 C 0.39606 0.78762 0.61018
 C365 C 0.39223 0.72411 0.57622
 C366 C 0.35987 0.71750 0.60237
 H367 H 0.45369 0.73216 0.67152
 H368 H 0.39373 0.71839 0.72236
 H369 H 0.34279 0.80142 0.64306
 H370 H 0.40349 0.81528 0.59443
 H371 H 0.39804 0.70920 0.54088
 H372 H 0.33772 0.69970 0.58567
 C373 C 0.08681 0.73410 0.10076
 C374 C 0.10163 0.69742 0.12343
 C375 C 0.13472 0.70284 0.15073
 C376 C 0.14907 0.74479 0.15413
 C377 C 0.15235 0.75543 0.09648
 C378 C 0.12030 0.75031 0.06936
 C379 C 0.08307 0.76017 0.14735
 C380 C 0.11515 0.76556 0.17490
 H381 H 0.09003 0.66959 0.11384
 H382 H 0.15137 0.67896 0.15996
 H383 H 0.17897 0.76221 0.07718
 H384 H 0.12036 0.75237 0.02772
 H385 H 0.05687 0.77242 0.15887
 H386 H 0.11613 0.78243 0.20977
 C387 C 0.58254 0.24285 0.60240
 C388 C 0.59289 0.28349 0.61895
 C389 C 0.62690 0.28782 0.64160
 C390 C 0.64919 0.25161 0.64500
 C391 C 0.62122 0.22490 0.67537
 C392 C 0.58649 0.21985 0.65240
 C393 C 0.61514 0.23127 0.56793
 C394 C 0.64954 0.23577 0.58993
 H395 H 0.57380 0.30648 0.61757
 H396 H 0.63587 0.31428 0.65945
 H397 H 0.62580 0.21501 0.71439
 H398 H 0.56313 0.20429 0.67079
 H399 H 0.61139 0.21954 0.52954
 H400 H 0.67501 0.22791 0.57015
 C401 C 0.74755 0.08640 0.89716
 C402 C 0.71232 0.10799 0.88254
 C403 C 0.72020 0.13984 0.85367
 C404 C 0.76251 0.14685 0.84086
 C405 C 0.78030 0.14749 0.89526
 C406 C 0.77347 0.11605 0.92338
 C407 C 0.76697 0.07851 0.84554
 C408 C 0.77476 0.10991 0.81638
 H409 H 0.68410 0.10040 0.89625
 H410 H 0.69862 0.15950 0.84480
 H411 H 0.79610 0.17122 0.91175
 H412 H 0.78628 0.11256 0.96089
 H413 H 0.77361 0.05054 0.83263
 H414 H 0.78801 0.10859 0.77863
 C415 C 0.25361 0.58370 0.40177
 C416 C 0.22194 0.61189 0.40141
 C417 C 0.23067 0.64403 0.37380
 C418 C 0.26988 0.64472 0.34751
 C419 C 0.29607 0.63861 0.39411
 C420 C 0.28801 0.60694 0.42132
 C421 C 0.26213 0.57613 0.34478
 C422 C 0.27053 0.60787 0.31654
 H423 H 0.19597 0.60802 0.42333
 H424 H 0.21228 0.66760 0.37348
 H425 H 0.31660 0.65916 0.40901
 H426 H 0.30344 0.60056 0.45614
 H427 H 0.26125 0.54820 0.32792
 H428 H 0.27685 0.60694 0.27554
 C429 C 0.25668 0.92200 0.89062
 C430 C 0.22050 0.92159 0.85815
 C431 C 0.21576 0.89112 0.82742
 C432 C 0.24680 0.86223 0.83208
 C433 C 0.28257 0.88710 0.81841
 C434 C 0.28811 0.91810 0.84995
 C435 C 0.25549 0.88479 0.92019
 C436 C 0.25057 0.85412 0.89016
 H437 H 0.20190 0.94498 0.85577
 H438 H 0.19345 0.88925 0.79888
 H439 H 0.29793 0.88554 0.78233
 H440 H 0.30953 0.94005 0.84196
 H441 H 0.26052 0.88249 0.96137
 H442 H 0.25094 0.82589 0.90630
 C443 C 0.75717 0.42051 0.39947
 C444 C 0.79299 0.40020 0.38420
 C445 C 0.78574 0.36651 0.35951
 C446 C 0.74325 0.35686 0.35078
 C447 C 0.72795 0.35802 0.40665
 C448 C 0.73432 0.39103 0.43112
 C449 C 0.73532 0.42474 0.34914
 C450 C 0.72813 0.39177 0.32391
 H451 H 0.82110 0.40934 0.39638
 H452 H 0.80784 0.34681 0.35413
 H453 H 0.71611 0.33370 0.42725
 H454 H 0.72605 0.39482 0.47111
 H455 H 0.72679 0.45158 0.33408
 H456 H 0.71344 0.39060 0.28723
 C457 C 0.08098 0.25884 0.91451
 C458 C 0.10811 0.23471 0.94448
 C459 C 0.14056 0.22886 0.91928
 C460 C 0.14330 0.24636 0.86454
 C461 C 0.10721 0.23250 0.83676
 C462 C 0.07486 0.23898 0.86265
 C463 C 0.10464 0.29504 0.90175
 C464 C 0.13770 0.28847 0.87635
 H465 H 0.10361 0.22560 0.98420
 H466 H 0.16371 0.21619 0.93903
 H467 H 0.10717 0.21918 0.79910
 H468 H 0.04727 0.23123 0.84714
 H469 H 0.09774 0.32280 0.91514
 H470 H 0.15919 0.31069 0.87045
 C471 C 0.59283 0.75940 0.40568
 C472 C 0.62744 0.77639 0.43368
 C473 C 0.66039 0.77319 0.40763
 C474 C 0.65666 0.75315 0.35526
 C475 C 0.63500 0.71552 0.36701
 C476 C 0.60260 0.71861 0.39370
 C477 C 0.59345 0.77867 0.35238
 C478 C 0.62651 0.77486 0.32546
 H479 H 0.62606 0.79050 0.47072
 H480 H 0.68698 0.78458 0.42261
 H481 H 0.64270 0.68869 0.35141
 H482 H 0.58409 0.69408 0.40114
 H483 H 0.56882 0.79048 0.33506
 H484 H 0.62802 0.78159 0.28466
 C485 C 0.92073 0.74769 0.90316
 C486 C 0.91354 0.78928 0.89219
 C487 C 0.88128 0.79479 0.86642
 C488 C 0.85740 0.75850 0.85458
 C489 C 0.88581 0.73539 0.82358
 C490 C 0.91871 0.72923 0.84950
 C491 C 0.88542 0.73231 0.93164
 C492 C 0.85270 0.73796 0.90658
 H493 H 0.93368 0.81246 0.89957
 H494 H 0.87502 0.82246 0.85177
 H495 H 0.88251 0.72801 0.78321
 H496 H 0.94213 0.71547 0.83177
 H497 H 0.88614 0.71738 0.96824
 H498 H 0.82562 0.72793 0.92200
 C499 C 0.40946 0.24370 0.41100
 C500 C 0.40074 0.28483 0.39919
 C501 C 0.36896 0.28876 0.37183
 C502 C 0.34684 0.25158 0.35944
 C503 C 0.37712 0.22983 0.32989
 C504 C 0.40956 0.22504 0.35748
 C505 C 0.37420 0.22701 0.43816
 C506 C 0.34186 0.23102 0.41148
 H507 H 0.41978 0.30889 0.40664
 H508 H 0.36233 0.31582 0.35569
 H509 H 0.37638 0.22417 0.28880
 H510 H 0.43440 0.21332 0.34043
 H511 H 0.37469 0.21267 0.47524
 H512 H 0.31483 0.22000 0.42589
 C513 C 0.74913 0.91833 0.90064
 C514 C 0.79100 0.91101 0.89182
 C515 C 0.79712 0.87852 0.86699
 C516 C 0.76109 0.85464 0.85385
 C517 C 0.73927 0.85038 0.90493
 C518 C 0.73303 0.88332 0.92909
 C519 C 0.73203 0.91586 0.84621
 C520 C 0.73881 0.88276 0.82124
 H521 H 0.81402 0.93119 0.89988
 H522 H 0.82514 0.87216 0.85370
 H523 H 0.72894 0.82344 0.92043
 H524 H 0.71729 0.88438 0.96504
 H525 H 0.71854 0.93904 0.82750
 H526 H 0.73210 0.87888 0.78074
 C527 C 0.24568 0.41207 0.40526
 C528 C 0.28684 0.40140 0.39813
 C529 C 0.29085 0.36890 0.37245
 C530 C 0.25357 0.34810 0.35694
 C531 C 0.23017 0.34490 0.40687
 C532 C 0.22608 0.37797 0.43186
 C533 C 0.22999 0.41190 0.34997
 C534 C 0.23479 0.37870 0.32418
 H535 H 0.31119 0.41956 0.40749
 H536 H 0.31839 0.36087 0.35959
 H537 H 0.21733 0.31857 0.42105
 H538 H 0.20982 0.37975 0.46729
 H539 H 0.21981 0.43674 0.33105
 H540 H 0.23040 0.37685 0.28284
 C541 C 0.25153 0.08645 0.90975
 C542 C 0.28734 0.11145 0.89925
 C543 C 0.28022 0.14499 0.87566
 C544 C 0.23815 0.14981 0.86285
 C545 C 0.22570 0.11428 0.83273
 C546 C 0.23260 0.08139 0.85702
 C547 C 0.22618 0.11210 0.94056
 C548 C 0.21973 0.14500 0.91684
 H549 H 0.31519 0.10501 0.91286
 H550 H 0.30197 0.16715 0.87134
 H551 H 0.21288 0.11504 0.79477
 H552 H 0.22573 0.05417 0.83976
 H553 H 0.21686 0.10645 0.97997
 H554 H 0.20632 0.16720 0.93764
 C555 C 0.75932 0.59411 0.40303
 C556 C 0.71824 0.60404 0.39315
 C557 C 0.71457 0.63672 0.36748
 C558 C 0.75195 0.65842 0.35455
 C559 C 0.77318 0.66161 0.40605
 C560 C 0.77700 0.62837 0.43112
 C561 C 0.77735 0.59529 0.34895
 C562 C 0.77294 0.62861 0.32306
 H563 H 0.69385 0.58545 0.40114
 H564 H 0.68737 0.64459 0.35333
 H565 H 0.78485 0.68804 0.42118
 H566 H 0.79192 0.62655 0.46749
 H567 H 0.78894 0.57092 0.33062
 H568 H 0.77910 0.63082 0.28212
 C569 C 0.08947 0.74849 0.90496
 C570 C 0.11706 0.77850 0.92751
 C571 C 0.14871 0.78474 0.89942
 C572 C 0.15025 0.76200 0.84868
 C573 C 0.14568 0.72106 0.86897
 C574 C 0.11365 0.71385 0.89765
 C575 C 0.08149 0.76233 0.85011
 C576 C 0.11304 0.76934 0.82094
 H577 H 0.11260 0.79343 0.96335
 H578 H 0.17163 0.80276 0.91421
 H579 H 0.16711 0.70042 0.86537
 H580 H 0.10776 0.68690 0.91645
 H581 H 0.05336 0.76595 0.83520
 H582 H 0.11169 0.77889 0.78116
 C583 C 0.57995 0.24583 0.41180
 C584 C 0.60817 0.27304 0.43858
 C585 C 0.64046 0.27965 0.41199
 C586 C 0.64216 0.25941 0.35935
 C587 C 0.63547 0.21770 0.37589
 C588 C 0.60246 0.21048 0.40236
 C589 C 0.57380 0.26278 0.35823
 C590 C 0.60613 0.26976 0.33096
 H591 H 0.60449 0.28371 0.47746
 H592 H 0.66410 0.29465 0.42986
 H593 H 0.65637 0.19650 0.37234
 H594 H 0.59505 0.18308 0.41898
 H595 H 0.54625 0.26830 0.34270
 H596 H 0.60611 0.28130 0.29210
 C597 C 0.91501 0.26143 0.90088
 C598 C 0.90202 0.29711 0.87340
 C599 C 0.87174 0.29032 0.84103
 C600 C 0.85819 0.24815 0.83847
 C601 C 0.89376 0.22720 0.82485
 C602 C 0.92308 0.23399 0.85712
 C603 C 0.87936 0.24562 0.92773
 C604 C 0.84995 0.23927 0.89584
 H605 H 0.91298 0.32530 0.88223
 H606 H 0.85647 0.31346 0.82549
 H607 H 0.89598 0.20923 0.79124
 H608 H 0.95024 0.22183 0.85097
 H609 H 0.87595 0.24426 0.96925
 H610 H 0.82192 0.23267 0.91099
 C611 C 0.42319 0.75943 0.39815
 C612 C 0.40726 0.79554 0.37542
 C613 C 0.37576 0.78896 0.34533
 C614 C 0.36398 0.74655 0.33938
 C615 C 0.39995 0.72806 0.32083
 C616 C 0.43048 0.73458 0.35130
 C617 C 0.38943 0.74063 0.42617
 C618 C 0.35884 0.73440 0.39630
 H619 H 0.41688 0.82367 0.38682
 H620 H 0.35824 0.81203 0.33540
 H621 H 0.40138 0.71175 0.28556
 H622 H 0.45782 0.72385 0.34201
 H623 H 0.38792 0.73709 0.46749
 H624 H 0.33187 0.72544 0.41312
 C625 C 0.25473 0.90967 0.09052
 C626 C 0.29078 0.88758 0.09669
 C627 C 0.28518 0.85425 0.12304
 C628 C 0.24429 0.84670 0.14266
 C629 C 0.23459 0.88230 0.17257
 C630 C 0.23993 0.91496 0.14551
 C631 C 0.22676 0.88131 0.06545
 C632 C 0.22183 0.84863 0.09170
 H633 H 0.31737 0.89558 0.07813
 H634 H 0.30686 0.83372 0.12452
 H635 H 0.22468 0.88180 0.21229
 H636 H 0.23461 0.94223 0.16208
 H637 H 0.21362 0.88553 0.02820
 H638 H 0.20586 0.82511 0.07484
 C639 C 0.75770 0.41719 0.59133
 C640 C 0.71656 0.40644 0.60561
 C641 C 0.71189 0.37319 0.63049
 C642 C 0.74836 0.35184 0.63821
 C643 C 0.76648 0.35002 0.58442
 C644 C 0.77143 0.38380 0.56026
 C645 C 0.77859 0.41528 0.64317
 C646 C 0.77325 0.38126 0.66825
 H647 H 0.69323 0.42490 0.60122
 H648 H 0.68487 0.36450 0.64734
 H649 H 0.77569 0.32415 0.56727
 H650 H 0.78505 0.38663 0.52276
 H651 H 0.79344 0.43931 0.66058
 H652 H 0.78244 0.37758 0.70775
 C653 C 0.73161 0.08581 0.09937
 C654 C 0.69480 0.10053 0.12164
 C655 C 0.70028 0.13239 0.15148
 C656 C 0.74242 0.14559 0.15759
 C657 C 0.76196 0.11043 0.17662
 C658 C 0.75651 0.07965 0.14651
 C659 C 0.74925 0.12003 0.07109
 C660 C 0.75444 0.15088 0.10068
 H661 H 0.66703 0.09000 0.10992
 H662 H 0.67658 0.14930 0.16071
 H663 H 0.77807 0.10965 0.21212
 H664 H 0.76795 0.05274 0.15638
 H665 H 0.75204 0.12169 0.02962
 H666 H 0.76196 0.17809 0.08356
 C667 C 0.24087 0.58356 0.59933
 C668 C 0.26238 0.61531 0.57026
 C669 C 0.26833 0.64698 0.59811
 C670 C 0.25345 0.64463 0.65413
 C671 C 0.21103 0.63426 0.64510
 C672 C 0.20453 0.60177 0.61720
 C673 C 0.26319 0.57731 0.64881
 C674 C 0.26961 0.60888 0.67720
 H675 H 0.26847 0.61460 0.52928
 H676 H 0.27863 0.67292 0.57986
 H677 H 0.18842 0.65321 0.65137
 H678 H 0.17666 0.59277 0.60392
 H679 H 0.27239 0.55001 0.66121
 H680 H 0.28433 0.60841 0.71384
 C681 C 0.91344 0.73982 0.08762
 C682 C 0.91402 0.75455 0.14326
 C683 C 0.87917 0.76131 0.16262
 C684 C 0.84635 0.75233 0.12502
 C685 C 0.85775 0.77590 0.07662
 C686 C 0.89190 0.76891 0.05721
 C687 C 0.88661 0.70466 0.08888
 C688 C 0.85156 0.71126 0.10821
 H689 H 0.93963 0.75958 0.16536
 H690 H 0.87531 0.77247 0.20115
 H691 H 0.84286 0.79888 0.06039
 H692 H 0.90347 0.78463 0.02431
 H693 H 0.89431 0.67713 0.07558
 H694 H 0.82947 0.68930 0.11115
 C695 C 0.40755 0.24241 0.60371
 C696 C 0.41266 0.26229 0.65570
 C697 C 0.37980 0.26888 0.68031
 C698 C 0.34423 0.25518 0.65114
 C699 C 0.34819 0.27274 0.59658
 C700 C 0.38107 0.26665 0.57263
 C701 C 0.38350 0.20632 0.61553
 C702 C 0.34992 0.21305 0.63945
 H703 H 0.43994 0.26998 0.67224
 H704 H 0.37909 0.28226 0.71791
 H705 H 0.32552 0.28544 0.57585
 H706 H 0.38629 0.27553 0.53295
 H707 H 0.39053 0.17854 0.60239
 H708 H 0.32819 0.19093 0.64435
 C709 C 0.07914 0.25054 0.10497
 C710 C 0.08891 0.20889 0.10957
 C711 C 0.12132 0.20327 0.13472
 C712 C 0.14292 0.23954 0.15237
 C713 C 0.14668 0.26441 0.10387
 C714 C 0.11371 0.27009 0.07934
 C715 C 0.07972 0.26446 0.16111
 C716 C 0.11277 0.25798 0.18640
 H717 H 0.07029 0.18523 0.09877
 H718 H 0.12875 0.17512 0.14574
 H719 H 0.17332 0.27690 0.09021
 H720 H 0.11233 0.28736 0.04478
 H721 H 0.05524 0.27490 0.18068
 H722 H 0.11502 0.26146 0.22788
 C723 C 0.59025 0.75739 0.60018
 C724 C 0.58373 0.73295 0.64848
 C725 C 0.61561 0.72655 0.67529
 C726 C 0.65173 0.74504 0.65196
 C727 C 0.65223 0.73207 0.59504
 C728 C 0.62027 0.73783 0.56878
 C729 C 0.61080 0.79366 0.61957
 C730 C 0.64336 0.78728 0.64602
 H731 H 0.55616 0.72211 0.66108
 H732 H 0.61516 0.71020 0.71079
 H733 H 0.67679 0.72174 0.57559
 H734 H 0.61759 0.73114 0.52803
 H735 H 0.60234 0.82177 0.60985
 H736 H 0.66289 0.81027 0.65637
   
