data_POSCAR
  _audit_creation_date              2014-09-24
  _audit_creation_method            'ToBaCCo'
  _symmetry_space_group_name_H-M    'P1'
  _symmetry_Int_Tables_number       1
  _symmetry_cell_setting            triclinic
  loop_
  _symmetry_equiv_pos_as_xyz
 x,y,z
_cell_length_a 52.1954
_cell_length_b 37.2149
_cell_length_c 22.8290
_cell_angle_alpha 90.045300
_cell_angle_beta 89.906400
_cell_angle_gamma 90.039300
loop_
  _atom_site_label
  _atom_site_type_symbol
  _atom_site_fract_x
  _atom_site_fract_y
  _atom_site_fract_z
O1 O 0.74121 0.29387 0.55537
 O2 O 0.78291 0.25496 0.44159
 O3 O 0.74121 0.29373 0.44162
 O4 O 0.78289 0.25510 0.55532
 O5 O 0.75948 0.20562 0.55549
 O6 O 0.71780 0.24424 0.44178
 O7 O 0.75952 0.20549 0.44176
 O8 O 0.71780 0.24439 0.55553
 Cu9 Cu 0.76440 0.27938 0.49845
 Cu10 Cu 0.73630 0.21997 0.49865
 C11 C 0.72228 0.27587 0.57442
 C12 C 0.77849 0.22344 0.42269
 C13 C 0.72227 0.27569 0.42276
 C14 C 0.77841 0.22366 0.57437
 O15 O 0.28237 0.75553 0.44493
 O16 O 0.24053 0.79453 0.55841
 O17 O 0.28217 0.75563 0.55867
 O18 O 0.24076 0.79446 0.44468
 O19 O 0.21726 0.74505 0.44459
 O20 O 0.25868 0.70622 0.55857
 O21 O 0.21705 0.74514 0.55832
 O22 O 0.25887 0.70613 0.44483
 Cu23 Cu 0.26382 0.77999 0.50170
 Cu24 Cu 0.23561 0.72068 0.50158
 C25 C 0.27787 0.72407 0.42595
 C26 C 0.22149 0.77664 0.57730
 C27 C 0.27761 0.72418 0.57760
 C28 C 0.22183 0.77649 0.42563
 O29 O 0.25906 0.29428 -0.55964
 O30 O 0.21747 0.25544 -0.44561
 O31 O 0.25916 0.29426 -0.44590
 O32 O 0.21735 0.25543 -0.55935
 O33 O 0.24073 0.20600 -0.55964
 O34 O 0.28256 0.24481 -0.44620
 O35 O 0.24087 0.20599 -0.44590
 O36 O 0.28245 0.24485 -0.55993
 Cu37 Cu 0.23591 0.27981 -0.50262
 Cu38 Cu 0.26400 0.22045 -0.50297
 C39 C 0.27802 0.27635 -0.57879
 C40 C 0.22197 0.22399 -0.42672
 C41 C 0.27810 0.27625 -0.42711
 C42 C 0.22174 0.22393 -0.57841
 O43 O -0.24108 0.79389 -0.55502
 O44 O -0.28295 0.75486 -0.44166
 O45 O -0.24128 0.79377 -0.44128
 O46 O -0.28274 0.75496 -0.55539
 O47 O -0.25928 0.70556 -0.55545
 O48 O -0.21784 0.74436 -0.44132
 O49 O -0.25952 0.70547 -0.44171
 O50 O -0.21763 0.74449 -0.55507
 Cu51 Cu -0.26436 0.77933 -0.49833
 Cu52 Cu -0.23621 0.72001 -0.49839
 C53 C -0.22210 0.77596 -0.57394
 C54 C -0.27853 0.72336 -0.42277
 C55 C -0.22237 0.77580 -0.42229
 C56 C -0.27820 0.72353 -0.57444
 N57 N 0.02709 0.96141 -0.10319
 N58 N 0.04561 0.95578 -0.14150
 N59 N -0.02680 0.93635 -0.06243
 N60 N -0.04540 0.91298 -0.07181
 N61 N -0.02678 0.96136 -0.10297
 N62 N -0.04536 0.95575 -0.14101
 N63 N 0.02711 0.93640 -0.06265
 N64 N 0.04567 0.91300 -0.07231
 C65 C 0.05708 0.92561 -0.12149
 C66 C -0.05685 0.92560 -0.12083
 N67 N -0.02678 0.96174 0.10426
 N68 N -0.04528 0.95617 0.14264
 N69 N 0.02711 0.93664 0.06369
 N70 N 0.04566 0.91328 0.07336
 N71 N 0.02708 0.96180 0.10405
 N72 N 0.04561 0.95630 0.14226
 N73 N -0.02680 0.93657 0.06390
 N74 N -0.04533 0.91315 0.07376
 Mn75 Mn 0.00016 0.93607 0.00063
 C76 C -0.05674 0.92589 0.12285
 C77 C 0.05708 0.92607 0.12235
 N78 N -0.02678 1.03873 -0.10328
 N79 N -0.04526 1.04427 -0.14157
 N80 N 0.02710 1.06395 -0.06311
 N81 N 0.04566 1.08734 -0.07292
 N82 N 0.02708 1.03878 -0.10346
 N83 N 0.04561 1.04431 -0.14179
 N84 N -0.02680 1.06390 -0.06293
 N85 N -0.04532 1.08731 -0.07271
 Mn86 Mn 0.00015 1.00007 -0.10383
 C87 C -0.05672 1.07454 -0.12175
 C88 C 0.05708 1.07457 -0.12199
 N89 N 0.02708 1.03918 0.10378
 N90 N 0.04561 1.04484 0.14193
 N91 N -0.02681 1.06413 0.06341
 N92 N -0.04541 1.08746 0.07295
 N93 N -0.02678 1.03911 0.10396
 N94 N -0.04536 1.04469 0.14215
 N95 N 0.02710 1.06419 0.06324
 N96 N 0.04567 1.08762 0.07274
 Mn97 Mn 0.00015 1.00046 0.10462
 Mn98 Mn 0.00015 1.06447 0.00015
 Cl99 Cl 0.00015 1.00027 0.00039
 C100 C 0.05709 1.07502 0.12182
 C101 C -0.05686 1.07482 0.12206
 N102 N 0.52687 0.46119 -0.10405
 N103 N 0.54544 0.45567 -0.14228
 N104 N 0.47293 0.43609 -0.06375
 N105 N 0.45439 0.41268 -0.07364
 N106 N 0.47301 0.46125 -0.10405
 N107 N 0.45454 0.45571 -0.14241
 N108 N 0.52684 0.43604 -0.06373
 N109 N 0.54540 0.41266 -0.07346
 C110 C 0.55687 0.42543 -0.12245
 C111 C 0.44304 0.42545 -0.12269
 N112 N 0.47286 0.46092 0.10319
 N113 N 0.45426 0.45534 0.14132
 N114 N 0.52675 0.43583 0.06261
 N115 N 0.54531 0.41243 0.07210
 N116 N 0.52673 0.46086 0.10319
 N117 N 0.54524 0.45523 0.14136
 N118 N 0.47284 0.43590 0.06259
 N119 N 0.45422 0.41256 0.07202
 Mn120 Mn 0.49984 0.43554 -0.00057
 C121 C 0.44275 0.42520 0.12113
 C122 C 0.55672 0.42505 0.12122
 N123 N 0.47309 0.53862 -0.10360
 N124 N 0.45453 0.54422 -0.14168
 N125 N 0.52697 0.56359 -0.06305
 N126 N 0.54555 0.58700 -0.07263
 N127 N 0.52695 0.53856 -0.10363
 N128 N 0.54549 0.54420 -0.14189
 N129 N 0.47306 0.56364 -0.06300
 N130 N 0.45448 0.58699 -0.07238
 Mn131 Mn 0.49998 0.49991 -0.10444
 C132 C 0.44304 0.57436 -0.12146
 C133 C 0.55698 0.57437 -0.12180
 N134 N 0.52681 0.53823 0.10361
 N135 N 0.54532 0.54374 0.14187
 N136 N 0.47298 0.56345 0.06333
 N137 N 0.45447 0.58689 0.07319
 N138 N 0.47295 0.53829 0.10364
 N139 N 0.45443 0.54388 0.14198
 N140 N 0.52688 0.56338 0.06329
 N141 N 0.54547 0.58673 0.07304
 Mn142 Mn 0.49984 0.49957 0.10401
 Mn143 Mn 0.49998 0.56394 0.00014
 Cl144 Cl 0.49991 0.49974 -0.00021
 C145 C 0.55684 0.57396 0.12204
 C146 C 0.44302 0.57415 0.12223
 N147 N 0.30713 0.34126 0.32425
 C148 C 0.32805 0.32307 0.30529
 N149 N 0.33189 0.28892 0.32393
 N150 N 0.31536 0.27348 0.36070
 C151 C 0.29447 0.29172 0.38023
 N152 N 0.29060 0.32584 0.36101
 C153 C 0.34679 0.34055 0.26912
 C154 C 0.36295 0.35562 0.24043
 C155 C 0.38265 0.37397 0.20832
 N156 N 0.39244 0.40522 0.22907
 N157 N 0.41142 0.42173 0.20078
 C158 C 0.42126 0.40752 0.15083
 N159 N 0.41137 0.37628 0.12996
 N160 N 0.39238 0.35975 0.15829
 N161 N -0.19196 0.84181 0.32738
 C162 C -0.17097 0.82367 0.30863
 N163 N -0.16712 0.78953 0.32733
 N164 N -0.18372 0.77404 0.36388
 C165 C -0.20469 0.79220 0.38301
 N166 N -0.20855 0.82633 0.36393
 C167 C -0.15224 0.84115 0.27243
 C168 C -0.13612 0.85621 0.24360
 C169 C -0.11650 0.87456 0.21119
 N170 N -0.10675 0.90593 0.23157
 N171 N -0.08788 0.92247 0.20293
 C172 C -0.07811 0.90817 0.15297
 N173 N -0.08795 0.87680 0.13248
 N174 N -0.10683 0.86024 0.16116
 N175 N 0.69195 0.65781 0.32630
 C176 C 0.67102 0.67597 0.30750
 N177 N 0.66713 0.71009 0.32634
 N178 N 0.68362 0.72555 0.36306
 C179 C 0.70453 0.70736 0.38224
 N180 N 0.70845 0.67325 0.36302
 C181 C 0.65235 0.65850 0.27123
 C182 C 0.63627 0.64345 0.24238
 C183 C 0.61666 0.62512 0.21003
 N184 N 0.60703 0.63945 0.16009
 N185 N 0.58813 0.62294 0.13150
 C186 C 0.57824 0.59161 0.15202
 N187 N 0.58798 0.57729 0.20188
 N188 N 0.60687 0.59379 0.23042
 N189 N 0.16773 1.21143 0.32504
 C190 C 0.17155 1.17730 0.30614
 N191 N 0.19251 1.15910 0.32473
 N192 N 0.20907 1.17449 0.36135
 C193 C 0.20522 1.20859 0.38081
 N194 N 0.18430 1.22683 0.36166
 C195 C 0.15280 1.15986 0.27003
 C196 C 0.13665 1.14481 0.24135
 C197 C 0.11699 1.12644 0.20922
 N198 N 0.10721 1.09516 0.22986
 N199 N 0.08830 1.07860 0.20152
 C200 C 0.07850 1.09279 0.15160
 N201 N 0.08837 1.12407 0.13084
 N202 N 0.10731 1.14065 0.15923
 N203 N 0.69223 0.34165 -0.32660
 C204 C 0.67128 0.32344 -0.30772
 N205 N 0.66745 0.28927 -0.32642
 N206 N 0.68400 0.27382 -0.36309
 C207 C 0.70493 0.29206 -0.38236
 N208 N 0.70879 0.32621 -0.36327
 C209 C 0.65256 0.34089 -0.27149
 C210 C 0.63643 0.35593 -0.24268
 C211 C 0.61678 0.37425 -0.21036
 N212 N 0.60704 0.35991 -0.16045
 N213 N 0.58811 0.37643 -0.13189
 C214 C 0.57830 0.40777 -0.15240
 N215 N 0.58815 0.42209 -0.20224
 N216 N 0.60707 0.40559 -0.23075
 N217 N 0.19235 0.84154 -0.32568
 C218 C 0.17137 0.82337 -0.30693
 N219 N 0.16750 0.78925 -0.32579
 N220 N 0.18403 0.77382 -0.36253
 C221 C 0.20498 0.79203 -0.38184
 N222 N 0.20890 0.82613 -0.36243
 C223 C 0.15266 0.84083 -0.27064
 C224 C 0.13654 0.85588 -0.24180
 C225 C 0.11691 0.87424 -0.20947
 N226 N 0.10724 0.86003 -0.15939
 N227 N 0.08834 0.87660 -0.13081
 C228 C 0.07848 0.90787 -0.15147
 N229 N 0.08826 0.92207 -0.20148
 N230 N 0.10715 0.90552 -0.23001
 N231 N 0.33237 0.71070 -0.32352
 C232 C 0.32850 0.67654 -0.30488
 N233 N 0.30753 0.65838 -0.32366
 N234 N 0.29100 0.67385 -0.36018
 C235 C 0.29490 0.70799 -0.37921
 N236 N 0.31584 0.72618 -0.36004
 C237 C 0.34722 0.65903 -0.26890
 C238 C 0.36336 0.64395 -0.24035
 C239 C 0.38304 0.62560 -0.20836
 N240 N 0.39282 0.59437 -0.22919
 N241 N 0.41177 0.57785 -0.20100
 C242 C 0.42159 0.59205 -0.15107
 N243 N 0.41172 0.62328 -0.13013
 N244 N 0.39275 0.63981 -0.15836
 N245 N -0.19162 1.15815 -0.32642
 C246 C -0.17068 1.17640 -0.30771
 N247 N -0.16681 1.21050 -0.32662
 N248 N -0.18333 1.22585 -0.36332
 C249 C -0.20425 1.20758 -0.38241
 N250 N -0.20814 1.17349 -0.36312
 C251 C -0.15200 1.15904 -0.27138
 C252 C -0.13593 1.14405 -0.24248
 C253 C -0.11635 1.12576 -0.21004
 N254 N -0.10672 1.14014 -0.16009
 N255 N -0.08787 1.12362 -0.13140
 C256 C -0.07805 1.09223 -0.15183
 N257 N -0.08780 1.07787 -0.20171
 N258 N -0.10662 1.09436 -0.23034
 N259 N 0.69229 0.65847 -0.32587
 C260 C 0.67133 0.67664 -0.30704
 N261 N 0.66748 0.71076 -0.32582
 N262 N 0.68402 0.72618 -0.36255
 C263 C 0.70495 0.70797 -0.38193
 N264 N 0.70884 0.67388 -0.36261
 C265 C 0.65261 0.65919 -0.27076
 C266 C 0.63649 0.64413 -0.24194
 C267 C 0.61685 0.62576 -0.20964
 N268 N 0.60717 0.64000 -0.15956
 N269 N 0.58825 0.62342 -0.13102
 C270 C 0.57839 0.59212 -0.15172
 N271 N 0.58818 0.57790 -0.20173
 N272 N 0.60708 0.59446 -0.23022
 N273 N 0.19209 1.15833 -0.32734
 C274 C 0.17118 1.17654 -0.30829
 N275 N 0.16732 1.21067 -0.32703
 N276 N 0.18381 1.22607 -0.36390
 C277 C 0.20469 1.20784 -0.38333
 N278 N 0.20858 1.17373 -0.36421
 C279 C 0.15253 1.15912 -0.27183
 C280 C 0.13645 1.14409 -0.24285
 C281 C 0.11686 1.12577 -0.21035
 N282 N 0.10712 1.09438 -0.23066
 N283 N 0.08825 1.07788 -0.20199
 C284 C 0.07846 1.09224 -0.15208
 N285 N 0.08830 1.12362 -0.13165
 N286 N 0.10719 1.14015 -0.16037
 N287 N 0.30813 0.34183 -0.32784
 C288 C 0.32906 0.32361 -0.30917
 N289 N 0.33291 0.28950 -0.32816
 N290 N 0.31637 0.27413 -0.36489
 C291 C 0.29546 0.29238 -0.38393
 N292 N 0.29159 0.32647 -0.36456
 C293 C 0.34774 0.34097 -0.27278
 C294 C 0.36382 0.35596 -0.24380
 C295 C 0.38339 0.37425 -0.21127
 N296 N 0.39317 0.40563 -0.23148
 N297 N 0.41201 0.42212 -0.20275
 C298 C 0.42171 0.40777 -0.15286
 N299 N 0.41183 0.37638 -0.13254
 N300 N 0.39298 0.35987 -0.16132
 N301 N -0.19242 0.84155 -0.32324
 C302 C -0.17148 0.82338 -0.30450
 N303 N -0.16763 0.78923 -0.32327
 N304 N -0.18416 0.77377 -0.35988
 C305 C -0.20508 0.79197 -0.37902
 N306 N -0.20896 0.82610 -0.35986
 C307 C -0.15275 0.84088 -0.26844
 C308 C -0.13659 0.85596 -0.23982
 C309 C -0.11691 0.87432 -0.20779
 N310 N -0.10712 0.90557 -0.22853
 N311 N -0.08815 0.92210 -0.20032
 C312 C -0.07832 0.90790 -0.15045
 N313 N -0.08821 0.87665 -0.12959
 N314 N -0.10719 0.86010 -0.15786
 N315 N 0.30792 0.65827 0.32697
 C316 C 0.32892 0.67642 0.30825
 N317 N 0.33280 0.71055 0.32709
 N318 N 0.31624 0.72602 0.36372
 C319 C 0.29525 0.70785 0.38281
 N320 N 0.29135 0.67374 0.36361
 C321 C 0.34762 0.65895 0.27197
 C322 C 0.36372 0.64389 0.24308
 C323 C 0.38332 0.62553 0.21063
 N324 N 0.39302 0.63985 0.16066
 N325 N 0.41189 0.62328 0.13195
 C326 C 0.42167 0.59190 0.15236
 N327 N 0.41186 0.57760 0.20226
 N328 N 0.39301 0.59415 0.23092
 N329 N -0.19237 1.15856 0.32566
 C330 C -0.17145 1.17679 0.30675
 N331 N -0.16761 1.21095 0.32549
 N332 N -0.18414 1.22635 0.36227
 C333 C -0.20503 1.20808 0.38175
 N334 N -0.20891 1.17395 0.36245
 C335 C -0.15272 1.15935 0.27051
 C336 C -0.13657 1.14432 0.24175
 C337 C -0.11689 1.12599 0.20955
 N338 N -0.10718 1.14023 0.15954
 N339 N -0.08820 1.12372 0.13111
 C340 C -0.07832 1.09248 0.15187
 N341 N -0.08814 1.07826 0.20181
 N342 N -0.10710 1.09475 0.23019
 N343 N 0.69214 0.34129 0.32396
 C344 C 0.67118 0.32305 0.30534
 N345 N 0.66737 0.28890 0.32414
 N346 N 0.68396 0.27352 0.36064
 C347 C 0.70490 0.29179 0.37965
 N348 N 0.70873 0.32592 0.36047
 C349 C 0.65242 0.34045 0.26930
 C350 C 0.63627 0.35546 0.24066
 C351 C 0.61660 0.37377 0.20857
 N352 N 0.60693 0.35953 0.15855
 N353 N 0.58799 0.37607 0.13018
 C354 C 0.57812 0.40733 0.15099
 N355 N 0.58790 0.42155 0.20094
 N356 N 0.60682 0.40504 0.22927
 N357 N 0.16719 0.78991 0.32637
 C358 C 0.17112 0.82403 0.30761
 N359 N 0.19207 0.84220 0.32648
 N360 N 0.20854 0.82676 0.36320
 C361 C 0.20458 0.79266 0.38234
 N362 N 0.18366 0.77446 0.36308
 C363 C 0.15248 0.84150 0.27135
 C364 C 0.13642 0.85655 0.24252
 C365 C 0.11684 0.87488 0.21020
 N366 N 0.10711 0.90624 0.23063
 N367 N 0.08824 0.92274 0.20214
 C368 C 0.07846 0.90841 0.15227
 N369 N 0.08829 0.87705 0.13171
 N370 N 0.10717 0.86053 0.16026
   
