data_POSCAR
  _audit_creation_date              2014-09-24
  _audit_creation_method            'ToBaCCo'
  _symmetry_space_group_name_H-M    'P1'
  _symmetry_Int_Tables_number       1
  _symmetry_cell_setting            triclinic
  loop_
  _symmetry_equiv_pos_as_xyz
 x,y,z
_cell_length_a 42.0410
_cell_length_b 42.5248
_cell_length_c 42.1518
_cell_angle_alpha 89.993300
_cell_angle_beta 89.974100
_cell_angle_gamma 95.156700
loop_
  _atom_site_label
  _atom_site_type_symbol
  _atom_site_fract_x
  _atom_site_fract_y
  _atom_site_fract_z
C1 C 0.06372 0.31940 -0.02700
 C2 C 0.07935 0.31901 0.00246
 C3 C 0.06273 0.31898 0.03118
 C4 C 0.02928 0.32050 0.03094
 C5 C 0.01277 0.32091 0.00165
 C6 C 0.03008 0.32148 -0.02733
 C7 C 0.01360 0.32674 -0.05558
 C8 C -0.01938 0.32740 -0.05585
 C9 C -0.03755 0.32258 -0.02793
 C10 C -0.02113 0.32118 0.00137
 C11 C 0.01210 0.32293 0.05925
 C12 C -0.02088 0.32343 0.05896
 C13 C -0.03832 0.32067 0.03042
 C14 C -0.07224 0.31986 0.03011
 C15 C -0.08784 0.32174 0.00076
 C16 C -0.07145 0.32177 -0.02833
 H17 H 0.02612 0.33124 -0.07776
 H18 H -0.03040 0.33246 -0.07823
 H19 H 0.02408 0.32512 0.08196
 H20 H -0.03246 0.32669 0.08148
 H21 H 0.10471 0.31608 0.00326
 H22 H -0.11373 0.31929 0.00043
 C23 C 0.44702 0.82590 0.52787
 C24 C 0.43038 0.82439 0.49907
 C25 C 0.44628 0.82508 0.46986
 C26 C 0.48012 0.82805 0.46927
 C27 C 0.49739 0.82918 0.49822
 C28 C 0.48086 0.82892 0.52758
 C29 C 0.49864 0.83206 0.55583
 C30 C 0.53180 0.83279 0.55542
 C31 C 0.54851 0.83035 0.52676
 C32 C 0.53128 0.82989 0.49781
 C33 C 0.49717 0.83030 0.44054
 C34 C 0.53031 0.83093 0.44014
 C35 C 0.54774 0.82940 0.46846
 C36 C 0.58124 0.82771 0.46823
 C37 C 0.59780 0.82776 0.49704
 C38 C 0.58203 0.82867 0.52623
 H39 H 0.48708 0.83404 0.57858
 H40 H 0.54420 0.83530 0.57788
 H41 H 0.48505 0.83162 0.41801
 H42 H 0.54214 0.83267 0.41733
 H43 H 0.40450 0.82089 0.49941
 H44 H 0.62324 0.82516 0.49675
 C45 C 0.93396 0.68333 0.02562
 C46 C 0.91833 0.68455 -0.00361
 C47 C 0.93482 0.68307 -0.03235
 C48 C 0.96800 0.67958 -0.03197
 C49 C 0.98440 0.67918 -0.00263
 C50 C 0.96721 0.68013 0.02626
 C51 C 0.98364 0.67726 0.05499
 C52 C 1.01657 0.67604 0.05544
 C53 C 1.03446 0.67781 0.02720
 C54 C 1.01815 0.67821 -0.00219
 C55 C 0.98507 0.67565 -0.06011
 C56 C 1.01799 0.67434 -0.05965
 C57 C 1.03543 0.67787 -0.03114
 C58 C 1.06942 0.67913 -0.03063
 C59 C 1.08493 0.67844 -0.00108
 C60 C 1.06817 0.67857 0.02762
 H61 H 0.97117 0.67573 0.07747
 H62 H 1.02785 0.67354 0.07825
 H63 H 0.97307 0.67322 -0.08280
 H64 H 1.02956 0.67024 -0.08199
 H65 H 0.89313 0.68823 -0.00399
 H66 H 1.11081 0.68075 -0.00015
 C67 C 0.41659 0.17571 0.47289
 C68 C 0.40026 0.17678 0.50176
 C69 C 0.41622 0.17618 0.53085
 C70 C 0.44957 0.17361 0.53125
 C71 C 0.46655 0.17289 0.50222
 C72 C 0.44994 0.17314 0.47297
 C73 C 0.46709 0.17050 0.44460
 C74 C 0.50016 0.17026 0.44483
 C75 C 0.51741 0.17279 0.47342
 C76 C 0.50034 0.17273 0.50245
 C77 C 0.46634 0.17143 0.55989
 C78 C 0.49940 0.17125 0.56011
 C79 C 0.51701 0.17329 0.53171
 C80 C 0.55082 0.17560 0.53177
 C81 C 0.56732 0.17606 0.50290
 C82 C 0.55124 0.17508 0.47379
 H83 H 0.45509 0.16859 0.42189
 H84 H 0.51206 0.16810 0.42228
 H85 H 0.45406 0.16985 0.58247
 H86 H 0.51102 0.16951 0.58286
 H87 H 0.37494 0.17995 0.50157
 H88 H 0.59322 0.17907 0.50307
 C89 C 0.71784 -0.06514 -0.03267
 C90 C 0.72062 -0.08139 -0.00401
 C91 C 0.70991 -0.06982 0.02479
 C92 C 0.69723 -0.04000 0.02542
 C93 C 0.69719 -0.02164 -0.00282
 C94 C 0.70750 -0.03425 -0.03187
 C95 C 0.71087 -0.01437 -0.05850
 C96 C 0.70366 0.01683 -0.05702
 C97 C 0.69138 0.02958 -0.02920
 C98 C 0.68901 0.01020 -0.00153
 C99 C 0.68728 -0.02682 0.05396
 C100 C 0.67884 0.00393 0.05508
 C101 C 0.68123 0.02331 0.02809
 C102 C 0.67726 0.05583 0.03042
 C103 C 0.67756 0.07404 0.00289
 C104 C 0.68471 0.06194 -0.02711
 H105 H 0.72118 -0.02210 -0.08036
 H106 H 0.70969 0.03105 -0.07770
 H107 H 0.68702 -0.03957 0.07612
 H108 H 0.67139 0.01279 0.07773
 H109 H 0.72910 -0.10476 -0.00429
 H110 H 0.67316 0.09866 0.00523
 C111 C 0.17993 0.42555 0.47299
 C112 C 0.17991 0.40965 0.50207
 C113 C 0.18001 0.42585 0.53098
 C114 C 0.17939 0.45910 0.53099
 C115 C 0.17973 0.47565 0.50175
 C116 C 0.17925 0.45880 0.47268
 C117 C 0.17766 0.47563 0.44409
 C118 C 0.17895 0.50843 0.44393
 C119 C 0.18190 0.52576 0.47234
 C120 C 0.18111 0.50919 0.50159
 C121 C 0.17802 0.47622 0.55942
 C122 C 0.17942 0.50904 0.55927
 C123 C 0.18217 0.52607 0.53067
 C124 C 0.18542 0.55952 0.53033
 C125 C 0.18650 0.57545 0.50124
 C126 C 0.18509 0.55920 0.47233
 H127 H 0.17526 0.46357 0.42151
 H128 H 0.17751 0.52006 0.42122
 H129 H 0.17575 0.46440 0.58214
 H130 H 0.17819 0.52091 0.58187
 H131 H 0.18160 0.38434 0.50220
 H132 H 0.19001 0.60104 0.50107
 C133 C 0.31569 0.93773 -0.02839
 C134 C 0.31579 0.92186 0.00087
 C135 C 0.31514 0.93782 0.02983
 C136 C 0.31548 0.97111 0.03003
 C137 C 0.31521 0.98785 0.00097
 C138 C 0.31639 0.97133 -0.02827
 C139 C 0.32098 0.98912 -0.05629
 C140 C 0.32035 1.02173 -0.05613
 C141 C 0.31524 1.03822 -0.02792
 C142 C 0.31447 1.02133 0.00117
 C143 C 0.31746 0.98819 0.05857
 C144 C 0.31692 1.02079 0.05876
 C145 C 0.31376 1.03781 0.03047
 C146 C 0.31259 1.07115 0.03061
 C147 C 0.31382 1.08726 0.00147
 C148 C 0.31376 1.07149 -0.02782
 H149 H 0.32603 0.97817 -0.07865
 H150 H 0.32485 1.03398 -0.07839
 H151 H 0.32021 0.97659 0.08112
 H152 H 0.31986 1.03255 0.08144
 H153 H 0.31391 0.89625 0.00133
 H154 H 0.31104 1.11238 0.00154
 C155 C 0.81413 0.56853 0.46824
 C156 C 0.81439 0.58478 0.49710
 C157 C 0.81459 0.56896 0.52618
 C158 C 0.81512 0.53574 0.52662
 C159 C 0.81459 0.51883 0.49759
 C160 C 0.81473 0.53531 0.46830
 C161 C 0.81602 0.51817 0.43990
 C162 C 0.81500 0.48539 0.44015
 C163 C 0.81255 0.46842 0.46882
 C164 C 0.81348 0.48533 0.49785
 C165 C 0.81672 0.51903 0.55526
 C166 C 0.81567 0.48623 0.55551
 C167 C 0.81286 0.46883 0.52713
 C168 C 0.80991 0.43537 0.52721
 C169 C 0.80872 0.41908 0.49833
 C170 C 0.80965 0.43500 0.46924
 H171 H 0.81799 0.52995 0.41714
 H172 H 0.81629 0.47351 0.41756
 H173 H 0.81895 0.53115 0.57782
 H174 H 0.81724 0.47468 0.57824
 H175 H 0.81296 0.61013 0.49693
 H176 H 0.80539 0.39348 0.49848
 O177 O 0.23603 0.20094 0.22921
 O178 O 0.21015 0.25729 0.28854
 O179 O 0.19448 0.24262 0.22999
 O180 O 0.25102 0.21488 0.28796
 O181 O 0.28815 0.25097 0.27113
 O182 O 0.23143 0.27893 0.21321
 O183 O 0.24750 0.29310 0.27159
 O184 O 0.27301 0.23717 0.21239
 Cu185 Cu 0.21918 0.22533 0.26061
 Cu186 Cu 0.26372 0.26863 0.24032
 C187 C 0.25888 0.20956 0.21047
 C188 C 0.22475 0.28475 0.29046
 C189 C 0.20329 0.26535 0.21151
 C190 C 0.27916 0.22837 0.28973
 O191 O 0.71098 0.74952 0.26862
 O192 O 0.76694 0.72090 0.21036
 O193 O 0.74989 0.70552 0.26842
 O194 O 0.72773 0.76483 0.21059
 O195 O 0.76730 0.79803 0.22811
 O196 O 0.78800 0.73960 0.28701
 O197 O 0.80546 0.75438 0.22922
 O198 O 0.74908 0.78409 0.28637
 Cu199 Cu 0.73501 0.73178 0.23770
 Cu200 Cu 0.78121 0.77245 0.25972
 C201 C 0.72048 0.77161 0.28757
 C202 C 0.79569 0.73305 0.20953
 C203 C 0.77257 0.71252 0.28781
 C204 C 0.74442 0.79121 0.20896
 O205 O 0.78623 0.24397 0.23110
 O206 O 0.72580 0.21493 0.29008
 O207 O 0.74165 0.19796 0.23313
 O208 O 0.77085 0.26089 0.28823
 O209 O 0.73677 0.29201 0.26809
 O210 O 0.70738 0.22880 0.21284
 O211 O 0.69204 0.24631 0.26981
 O212 O 0.75226 0.27512 0.21085
 Cu213 Cu 0.75952 0.22631 0.26268
 Cu214 Cu 0.71873 0.26368 0.23829
 C215 C 0.77945 0.26428 0.21064
 C216 C 0.69872 0.22602 0.29030
 C217 C 0.71983 0.20265 0.21332
 C218 C 0.75851 0.28707 0.28794
 O219 O 0.20672 0.74932 0.23338
 O220 O 0.26829 0.77943 0.29061
 O221 O 0.25092 0.79532 0.23371
 O222 O 0.22314 0.73327 0.29058
 O223 O 0.25688 0.70185 0.27034
 O224 O 0.28464 0.76403 0.21318
 O225 O 0.30170 0.74777 0.27019
 O226 O 0.24010 0.71754 0.21310
 Cu227 Cu 0.23393 0.76744 0.26423
 Cu228 Cu 0.27420 0.72965 0.23966
 C229 C 0.21306 0.72869 0.21309
 C230 C 0.29545 0.76850 0.29040
 C231 C 0.27207 0.79013 0.21332
 C232 C 0.23547 0.70707 0.29047
 O233 O 0.74080 0.20474 0.77164
 O234 O 0.77059 0.26452 0.71277
 O235 O 0.78687 0.24971 0.77052
 O236 O 0.72468 0.21928 0.71417
 O237 O 0.69196 0.25199 0.73397
 O238 O 0.75479 0.28369 0.78903
 O239 O 0.73735 0.29723 0.73158
 O240 O 0.70960 0.23878 0.79194
 Cu241 Cu 0.75901 0.23126 0.74030
 Cu242 Cu 0.72008 0.27121 0.76350
 C243 C 0.72078 0.21204 0.79233
 C244 C 0.75860 0.29090 0.71175
 C245 C 0.78136 0.27163 0.78971
 C246 C 0.69776 0.23064 0.71424
 O247 O 0.30520 0.75037 0.72994
 O248 O 0.24393 0.71980 0.78720
 O249 O 0.26042 0.70436 0.72983
 O250 O 0.28830 0.76615 0.78722
 O251 O 0.25465 0.79769 0.76708
 O252 O 0.22657 0.73584 0.70992
 O253 O 0.21034 0.75152 0.76726
 O254 O 0.27168 0.78209 0.70988
 Cu255 Cu 0.27786 0.73203 0.76052
 Cu256 Cu 0.23748 0.76993 0.73643
 C257 C 0.29884 0.77117 0.70986
 C258 C 0.21682 0.73080 0.78741
 C259 C 0.23887 0.70962 0.70987
 C260 C 0.27581 0.79229 0.78738
 O261 O 0.19503 0.24427 0.77499
 O262 O 0.25084 0.21638 0.71621
 O263 O 0.23656 0.20238 0.77511
 O264 O 0.21016 0.25891 0.71632
 O265 O 0.24769 0.29463 0.73304
 O266 O 0.27398 0.23840 0.79145
 O267 O 0.28821 0.25243 0.73261
 O268 O 0.23248 0.28010 0.79163
 Cu269 Cu 0.21936 0.22689 0.74404
 Cu270 Cu 0.26430 0.26997 0.76390
 C271 C 0.20425 0.26679 0.79356
 C272 C 0.27897 0.22988 0.71408
 C273 C 0.25975 0.21084 0.79347
 C274 C 0.22477 0.28635 0.71436
 O275 O 0.75434 0.71056 0.72403
 O276 O 0.73496 0.77128 0.78158
 O277 O 0.71608 0.75506 0.72437
 O278 O 0.77194 0.72563 0.78178
 O279 O 0.81098 0.75823 0.76244
 O280 O 0.75455 0.78839 0.70520
 O281 O 0.77462 0.80360 0.76268
 O282 O 0.79307 0.74350 0.70470
 Cu283 Cu 0.74039 0.73739 0.75483
 Cu284 Cu 0.78711 0.77675 0.73162
 C285 C 0.77700 0.71675 0.70440
 C286 C 0.75215 0.79741 0.78239
 C287 C 0.72569 0.77650 0.70477
 C288 C 0.80089 0.73711 0.78228
 C289 C 0.29362 0.12711 0.11021
 C290 C 0.31753 0.13799 0.08862
 C291 C 0.32433 0.11891 0.06283
 C292 C 0.30761 0.08887 0.05844
 C293 C 0.28369 0.07841 0.08061
 C294 C 0.27668 0.09738 0.10649
 C295 C 0.28554 0.14766 0.13669
 C296 C 0.26098 0.13718 0.15779
 C297 C 0.25273 0.15723 0.18235
 C298 C 0.26877 0.18763 0.18575
 C299 C 0.29367 0.19748 0.16458
 C300 C 0.30206 0.17766 0.13996
 C301 C 0.25251 0.08755 0.12831
 C302 C 0.24481 0.10709 0.15353
 C303 C 0.33385 0.16799 0.09295
 C304 C 0.32626 0.18748 0.11820
 H305 H 0.23923 0.06465 0.12572
 H306 H 0.22583 0.09869 0.16965
 H307 H 0.35242 0.17662 0.07649
 H308 H 0.33922 0.21057 0.12051
 H309 H 0.34287 0.12738 0.04622
 H310 H 0.26942 0.05619 0.07691
 H311 H 0.23352 0.14937 0.19844
 H312 H 0.30620 0.22078 0.16688
 C313 C 0.80218 0.62804 0.60649
 C314 C 0.82917 0.63417 0.58705
 C315 C 0.83380 0.61396 0.56151
 C316 C 0.81155 0.58797 0.55533
 C317 C 0.78473 0.58202 0.57514
 C318 C 0.77999 0.60193 0.60089
 C319 C 0.79649 0.64994 0.63257
 C320 C 0.76915 0.64420 0.65159
 C321 C 0.76332 0.66568 0.67570
 C322 C 0.78437 0.69297 0.68050
 C323 C 0.81190 0.69808 0.66145
 C324 C 0.81808 0.67665 0.63745
 C325 C 0.75314 0.59672 0.62069
 C326 C 0.74785 0.61746 0.64566
 C327 C 0.85056 0.66081 0.59307
 C328 C 0.84509 0.68171 0.61783
 H329 H 0.73589 0.57662 0.61664
 H330 H 0.72668 0.61276 0.66018
 H331 H 0.87148 0.66576 0.57825
 H332 H 0.86196 0.70220 0.62142
 H333 H 0.85423 0.61874 0.54599
 H334 H 0.76723 0.56239 0.56995
 H335 H 0.74200 0.66157 0.69013
 H336 H 0.82833 0.71893 0.66499
 C337 C 0.72370 0.87377 0.10480
 C338 C 0.69257 0.88050 0.09692
 C339 C 0.68795 0.90010 0.07078
 C340 C 0.71419 0.91212 0.05220
 C341 C 0.74509 0.90430 0.06004
 C342 C 0.75007 0.88579 0.08669
 C343 C 0.72879 0.85333 0.13224
 C344 C 0.76004 0.84729 0.14048
 C345 C 0.76480 0.82784 0.16649
 C346 C 0.73858 0.81349 0.18343
 C347 C 0.70734 0.81937 0.17476
 C348 C 0.70234 0.83982 0.14941
 C349 C 0.78093 0.87901 0.09553
 C350 C 0.78586 0.86032 0.12217
 C351 C 0.66673 0.86710 0.11504
 C352 C 0.67151 0.84688 0.14067
 H353 H 0.80145 0.88830 0.08179
 H354 H 0.81004 0.85568 0.12824
 H355 H 0.64258 0.87198 0.10915
 H356 H 0.65090 0.83674 0.15377
 H357 H 0.66398 0.90518 0.06426
 H358 H 0.76536 0.91335 0.04574
 H359 H 0.78883 0.82287 0.17289
 H360 H 0.68716 0.80826 0.18786
 C361 C 0.19539 0.36946 0.61278
 C362 C 0.16860 0.36155 0.59352
 C363 C 0.16302 0.38070 0.56735
 C364 C 0.18415 0.40740 0.56037
 C365 C 0.21094 0.41489 0.57987
 C366 C 0.21653 0.39615 0.60627
 C367 C 0.20195 0.34890 0.63974
 C368 C 0.22900 0.35658 0.65865
 C369 C 0.23570 0.33650 0.68366
 C370 C 0.21586 0.30859 0.68954
 C371 C 0.18857 0.30143 0.67055
 C372 C 0.18148 0.32156 0.64562
 C373 C 0.24317 0.40323 0.62593
 C374 C 0.24925 0.38383 0.65175
 C375 C 0.14834 0.33432 0.60049
 C376 C 0.15470 0.31463 0.62605
 H377 H 0.25960 0.42381 0.62118
 H378 H 0.27021 0.38999 0.66619
 H379 H 0.12759 0.32796 0.58583
 H380 H 0.13868 0.29366 0.63036
 H381 H 0.14265 0.37466 0.55207
 H382 H 0.22767 0.43497 0.57406
 H383 H 0.25685 0.34220 0.69796
 H384 H 0.17313 0.28005 0.67487
 C385 C 0.86765 0.29986 0.10955
 C386 C 0.89494 0.28353 0.10571
 C387 C 0.91512 0.29063 0.07969
 C388 C 0.90858 0.31430 0.05766
 C389 C 0.88084 0.33033 0.06208
 C390 C 0.86042 0.32326 0.08792
 C391 C 0.84577 0.29171 0.13627
 C392 C 0.81801 0.30747 0.13962
 C393 C 0.79674 0.29891 0.16445
 C394 C 0.80305 0.27473 0.18583
 C395 C 0.83134 0.25958 0.18240
 C396 C 0.85267 0.26785 0.15755
 C397 C 0.83267 0.33885 0.09233
 C398 C 0.81181 0.33108 0.11773
 C399 C 0.90118 0.25995 0.12763
 C400 C 0.88045 0.25230 0.15315
 H401 H 0.82684 0.35701 0.07583
 H402 H 0.79050 0.34346 0.12008
 H403 H 0.92218 0.24717 0.12493
 H404 H 0.88605 0.23383 0.16939
 H405 H 0.93518 0.27673 0.07591
 H406 H 0.87533 0.34863 0.04558
 H407 H 0.77509 0.31076 0.16683
 H408 H 0.83640 0.24086 0.19858
 C409 C 0.38795 0.80709 0.60973
 C410 C 0.41324 0.78844 0.60384
 C411 C 0.43304 0.79527 0.57751
 C412 C 0.42801 0.82085 0.55746
 C413 C 0.40280 0.83957 0.56393
 C414 C 0.38256 0.83269 0.58999
 C415 C 0.36606 0.79901 0.63646
 C416 C 0.33998 0.81682 0.64158
 C417 C 0.31841 0.80813 0.66616
 C418 C 0.32290 0.78190 0.68558
 C419 C 0.34967 0.76481 0.68054
 C420 C 0.37114 0.77307 0.65583
 C421 C 0.35661 0.85038 0.59628
 C422 C 0.33563 0.84254 0.62159
 C423 C 0.41777 0.76290 0.62397
 C424 C 0.39715 0.75542 0.64961
 H425 H 0.35220 0.87020 0.58124
 H426 H 0.31566 0.85653 0.62534
 H427 H 0.43725 0.74840 0.61972
 H428 H 0.40131 0.73535 0.66439
 H429 H 0.45189 0.78031 0.57211
 H430 H 0.39861 0.85899 0.54826
 H431 H 0.29794 0.82148 0.66986
 H432 H 0.35327 0.74447 0.69518
 C433 C 0.12610 0.69597 0.11051
 C434 C 0.10223 0.71596 0.10348
 C435 C 0.08306 0.70979 0.07663
 C436 C 0.08712 0.68346 0.05727
 C437 C 0.11101 0.66349 0.06477
 C438 C 0.13072 0.66975 0.09133
 C439 C 0.14729 0.70320 0.13794
 C440 C 0.17206 0.68403 0.14422
 C441 C 0.19307 0.69190 0.16945
 C442 C 0.18926 0.71862 0.18840
 C443 C 0.16372 0.73704 0.18225
 C444 C 0.14289 0.72965 0.15684
 C445 C 0.15533 0.65071 0.09877
 C446 C 0.17571 0.65779 0.12470
 C447 C 0.09838 0.74204 0.12311
 C448 C 0.11829 0.74869 0.14943
 H449 H 0.15914 0.63042 0.08418
 H450 H 0.19467 0.64275 0.12934
 H451 H 0.07997 0.75756 0.11796
 H452 H 0.11468 0.76919 0.16381
 H453 H 0.06528 0.72570 0.07043
 H454 H 0.11450 0.64348 0.04963
 H455 H 0.21262 0.67755 0.17401
 H456 H 0.16073 0.75780 0.19648
 C457 C 0.60932 0.19491 0.61382
 C458 C 0.61422 0.16862 0.59483
 C459 C 0.59433 0.16176 0.56855
 C460 C 0.56992 0.18113 0.56118
 C461 C 0.56545 0.20746 0.58039
 C462 C 0.58490 0.21430 0.60692
 C463 C 0.63081 0.20287 0.64084
 C464 C 0.62625 0.22949 0.65945
 C465 C 0.64747 0.23767 0.68436
 C466 C 0.67350 0.21982 0.69029
 C467 C 0.67738 0.19287 0.67171
 C468 C 0.65607 0.18427 0.64696
 C469 C 0.58083 0.24050 0.62631
 C470 C 0.60109 0.24790 0.65221
 C471 C 0.63932 0.15015 0.60214
 C472 C 0.65994 0.15789 0.62772
 H473 H 0.56200 0.25557 0.62126
 H474 H 0.59734 0.26850 0.66639
 H475 H 0.64333 0.12980 0.58770
 H476 H 0.67928 0.14330 0.63226
 H477 H 0.59806 0.14174 0.55351
 H478 H 0.54718 0.22286 0.57428
 H479 H 0.64439 0.25857 0.69835
 H480 H 0.69729 0.17894 0.67612
 C481 C 0.69503 0.12655 0.89617
 C482 C 0.70585 0.13590 0.92646
 C483 C 0.70229 0.11432 0.95149
 C484 C 0.68741 0.08344 0.94692
 C485 C 0.67508 0.07521 0.91650
 C486 C 0.67973 0.09631 0.89088
 C487 C 0.70032 0.14874 0.86941
 C488 C 0.69109 0.13892 0.83867
 C489 C 0.69767 0.15972 0.81308
 C490 C 0.71227 0.19029 0.81857
 C491 C 0.72049 0.20006 0.84953
 C492 C 0.71513 0.17918 0.87500
 C493 C 0.66987 0.08765 0.85996
 C494 C 0.67577 0.10846 0.83425
 C495 C 0.72059 0.16653 0.93110
 C496 C 0.72490 0.18791 0.90584
 H497 H 0.65805 0.06438 0.85550
 H498 H 0.66831 0.10063 0.81073
 H499 H 0.72894 0.17402 0.95446
 H500 H 0.73644 0.21130 0.91039
 H501 H 0.71244 0.12134 0.97433
 H502 H 0.66194 0.05240 0.91272
 H503 H 0.69138 0.15233 0.78910
 H504 H 0.73210 0.22355 0.85353
 C505 C 0.20240 0.61807 0.39061
 C506 C 0.22217 0.59379 0.39649
 C507 C 0.21589 0.57406 0.42282
 C508 C 0.18981 0.57821 0.44288
 C509 C 0.17001 0.60242 0.43645
 C510 C 0.17627 0.62253 0.41037
 C511 C 0.20980 0.63985 0.36383
 C512 C 0.19078 0.66487 0.35869
 C513 C 0.19877 0.68635 0.33408
 C514 C 0.22555 0.68290 0.31466
 C515 C 0.24388 0.65717 0.31970
 C516 C 0.23627 0.63574 0.34444
 C517 C 0.15739 0.64744 0.40406
 C518 C 0.16456 0.66829 0.37869
 C519 C 0.24821 0.59020 0.37633
 C520 C 0.25509 0.61076 0.35068
 H521 H 0.13716 0.65112 0.41911
 H522 H 0.14965 0.68745 0.37491
 H523 H 0.26358 0.57151 0.38058
 H524 H 0.27558 0.60734 0.33589
 H525 H 0.23160 0.55590 0.42818
 H526 H 0.15017 0.60589 0.45213
 H527 H 0.18446 0.70600 0.33038
 H528 H 0.26463 0.65438 0.30505
 C529 C 0.30334 0.87952 0.89027
 C530 C 0.32528 0.87244 0.91370
 C531 C 0.32977 0.89222 0.94023
 C532 C 0.31266 0.91920 0.94355
 C533 C 0.29057 0.92568 0.91964
 C534 C 0.28598 0.90608 0.89297
 C535 C 0.29774 0.85818 0.86284
 C536 C 0.27513 0.86478 0.83985
 C537 C 0.26895 0.84375 0.81449
 C538 C 0.28495 0.81607 0.81223
 C539 C 0.30806 0.81021 0.83520
 C540 C 0.31446 0.83113 0.86060
 C541 C 0.26385 0.91212 0.86926
 C542 C 0.25855 0.89186 0.84312
 C543 C 0.34199 0.84546 0.91035
 C544 C 0.33666 0.82515 0.88426
 H545 H 0.25030 0.93256 0.87104
 H546 H 0.24104 0.89723 0.82554
 H547 H 0.35907 0.83978 0.92824
 H548 H 0.34976 0.80439 0.88280
 H549 H 0.34697 0.88681 0.95814
 H550 H 0.27589 0.94520 0.92241
 H551 H 0.25104 0.84850 0.79707
 H552 H 0.32049 0.78899 0.83378
 C553 C 0.79190 0.37605 0.38775
 C554 C 0.81834 0.37181 0.40716
 C555 C 0.82465 0.39183 0.43328
 C556 C 0.80458 0.41573 0.44006
 C557 C 0.77814 0.41959 0.42043
 C558 C 0.77182 0.39996 0.39407
 C559 C 0.78452 0.35441 0.36090
 C560 C 0.75774 0.35828 0.34187
 C561 C 0.75011 0.33692 0.31712
 C562 C 0.76870 0.31146 0.31175
 C563 C 0.79582 0.30829 0.33073
 C564 C 0.80385 0.32972 0.35534
 C565 C 0.74548 0.40336 0.37426
 C566 C 0.73862 0.38292 0.34854
 C567 C 0.83753 0.34725 0.40042
 C568 C 0.83037 0.32652 0.37498
 H569 H 0.72988 0.42178 0.37886
 H570 H 0.71789 0.38615 0.33403
 H571 H 0.85801 0.34376 0.41519
 H572 H 0.84551 0.30760 0.37087
 H573 H 0.84477 0.38861 0.44865
 H574 H 0.76226 0.43753 0.42608
 H575 H 0.72908 0.33946 0.30281
 H576 H 0.81032 0.28883 0.32675
 C577 C 0.12085 0.30163 0.89352
 C578 C 0.13252 0.32375 0.91633
 C579 C 0.11310 0.33023 0.94212
 C580 C 0.08196 0.31496 0.94528
 C581 C 0.07073 0.29289 0.92185
 C582 C 0.09002 0.28621 0.89599
 C583 C 0.14170 0.29376 0.86705
 C584 C 0.13040 0.27089 0.84478
 C585 C 0.15071 0.26268 0.82031
 C586 C 0.18219 0.27706 0.81813
 C587 C 0.19290 0.30038 0.84040
 C588 C 0.17281 0.30870 0.86499
 C589 C 0.07938 0.26377 0.87298
 C590 C 0.09922 0.25626 0.84780
 C591 C 0.16361 0.33857 0.91320
 C592 C 0.18340 0.33119 0.88795
 H593 H 0.05563 0.25169 0.87461
 H594 H 0.09019 0.23860 0.83074
 H595 H 0.17286 0.35577 0.93061
 H596 H 0.20734 0.34292 0.88660
 H597 H 0.12217 0.34741 0.95966
 H598 H 0.04761 0.27966 0.92454
 H599 H 0.14217 0.24472 0.80334
 H600 H 0.21706 0.31158 0.83903
 C601 C 0.63730 0.80783 0.38704
 C602 C 0.64650 0.83449 0.40568
 C603 C 0.62736 0.84166 0.43152
 C604 C 0.59944 0.82221 0.43884
 C605 C 0.59061 0.79558 0.41989
 C606 C 0.60931 0.78842 0.39380
 C607 C 0.65790 0.79951 0.36055
 C608 C 0.64895 0.77255 0.34229
 C609 C 0.66908 0.76416 0.31778
 C610 C 0.69827 0.78218 0.31182
 C611 C 0.70669 0.80938 0.33016
 C612 C 0.68654 0.81818 0.35454
 C613 C 0.60098 0.76185 0.37476
 C614 C 0.62041 0.75411 0.34937
 C615 C 0.67500 0.85296 0.39854
 C616 C 0.69471 0.84491 0.37344
 H617 H 0.57940 0.74675 0.37970
 H618 H 0.61326 0.73325 0.33543
 H619 H 0.68235 0.87359 0.41272
 H620 H 0.71670 0.85957 0.36900
 H621 H 0.63443 0.86190 0.44637
 H622 H 0.56958 0.78010 0.42597
 H623 H 0.66242 0.74309 0.30396
 H624 H 0.72904 0.82345 0.32574
 C625 C 0.88093 0.70203 0.88471
 C626 C 0.87040 0.67646 0.90432
 C627 C 0.88866 0.66971 0.93092
 C628 C 0.91709 0.68843 0.93796
 C629 C 0.92728 0.71398 0.91805
 C630 C 0.90939 0.72077 0.89126
 C631 C 0.86130 0.70991 0.85733
 C632 C 0.87152 0.73584 0.83809
 C633 C 0.85221 0.74392 0.81277
 C634 C 0.82263 0.72658 0.80696
 C635 C 0.81302 0.70032 0.82622
 C636 C 0.83228 0.69188 0.85144
 C637 C 0.91903 0.74628 0.87125
 C638 C 0.90046 0.75365 0.84506
 C639 C 0.84152 0.65860 0.89729
 C640 C 0.82276 0.66620 0.87132
 H641 H 0.94099 0.76086 0.87603
 H642 H 0.90861 0.77371 0.83041
 H643 H 0.83316 0.63881 0.91221
 H644 H 0.80044 0.65207 0.86697
 H645 H 0.88061 0.65027 0.94645
 H646 H 0.94880 0.72886 0.92385
 H647 H 0.85974 0.76429 0.79826
 H648 H 0.79033 0.68678 0.82195
 C649 C 0.36127 0.19429 0.39089
 C650 C 0.35183 0.16800 0.40999
 C651 C 0.37061 0.16136 0.43624
 C652 C 0.39848 0.18090 0.44343
 C653 C 0.40757 0.20715 0.42405
 C654 C 0.38916 0.21384 0.39761
 C655 C 0.34105 0.20204 0.36392
 C656 C 0.35017 0.22868 0.34524
 C657 C 0.33033 0.23658 0.32029
 C658 C 0.30130 0.21832 0.31428
 C659 C 0.29278 0.19139 0.33299
 C660 C 0.31258 0.18315 0.35786
 C661 C 0.39771 0.24006 0.37814
 C662 C 0.37859 0.24731 0.35234
 C663 C 0.32349 0.14931 0.40280
 C664 C 0.30417 0.15678 0.37720
 H665 H 0.41922 0.25527 0.38305
 H666 H 0.38588 0.26791 0.33809
 H667 H 0.31596 0.12896 0.41732
 H668 H 0.28229 0.14197 0.37272
 H669 H 0.36338 0.14140 0.45142
 H670 H 0.42862 0.22264 0.43001
 H671 H 0.33707 0.25742 0.30617
 H672 H 0.27054 0.17714 0.32856
 C673 C 0.73486 0.88171 0.88567
 C674 C 0.75760 0.88414 0.91011
 C675 C 0.75220 0.90247 0.93681
 C676 C 0.72474 0.91917 0.93892
 C677 C 0.70268 0.91724 0.91357
 C678 C 0.70737 0.89809 0.88715
 C679 C 0.73952 0.86086 0.85844
 C680 C 0.71589 0.85689 0.83482
 C681 C 0.71987 0.83592 0.80966
 C682 C 0.74763 0.81990 0.80790
 C683 C 0.77136 0.82464 0.83126
 C684 C 0.76720 0.84472 0.85692
 C685 C 0.68465 0.89418 0.86267
 C686 C 0.68872 0.87375 0.83707
 C687 C 0.78503 0.86771 0.90768
 C688 C 0.78988 0.84851 0.88139
 H689 H 0.66327 0.90661 0.86358
 H690 H 0.67040 0.87106 0.81896
 H691 H 0.80281 0.86956 0.92635
 H692 H 0.81128 0.83613 0.88046
 H693 H 0.76955 0.90399 0.95592
 H694 H 0.68095 0.92909 0.91528
 H695 H 0.70169 0.83215 0.79149
 H696 H 0.79258 0.81196 0.82983
 C697 C 0.19546 0.36837 0.39174
 C698 C 0.21644 0.39527 0.39789
 C699 C 0.21078 0.41426 0.42409
 C700 C 0.18410 0.40681 0.44376
 C701 C 0.16313 0.37990 0.43715
 C702 C 0.16877 0.36050 0.41117
 C703 C 0.20207 0.34758 0.36496
 C704 C 0.18174 0.32008 0.35942
 C705 C 0.18883 0.29980 0.33460
 C706 C 0.21597 0.30698 0.31538
 C707 C 0.23570 0.33502 0.32098
 C708 C 0.22901 0.35525 0.34587
 C709 C 0.14867 0.33307 0.40456
 C710 C 0.15507 0.31318 0.37917
 C711 C 0.24298 0.40230 0.37806
 C712 C 0.24910 0.38269 0.35242
 H713 H 0.12800 0.32674 0.41936
 H714 H 0.13915 0.29209 0.37513
 H715 H 0.25929 0.42303 0.38253
 H716 H 0.26997 0.38884 0.33784
 H717 H 0.22741 0.43450 0.42962
 H718 H 0.14283 0.37389 0.45255
 H719 H 0.17347 0.27833 0.33051
 H720 H 0.25673 0.34075 0.30650
 C721 C 0.29541 0.12779 0.89272
 C722 C 0.31854 0.13899 0.91495
 C723 C 0.32528 0.11980 0.94066
 C724 C 0.30927 0.08933 0.94433
 C725 C 0.28629 0.07847 0.92140
 C726 C 0.27929 0.09758 0.89564
 C727 C 0.28719 0.14849 0.86644
 C728 C 0.26328 0.13772 0.84478
 C729 C 0.25477 0.15794 0.82049
 C730 C 0.26996 0.18878 0.81789
 C731 C 0.29428 0.19892 0.83956
 C732 C 0.30287 0.17896 0.86395
 C733 C 0.25584 0.08742 0.87323
 C734 C 0.24797 0.10714 0.84823
 C735 C 0.33406 0.16945 0.91138
 C736 C 0.32639 0.18908 0.88628
 H737 H 0.24320 0.06415 0.87521
 H738 H 0.22952 0.09850 0.83166
 H739 H 0.35205 0.17833 0.92833
 H740 H 0.33869 0.21253 0.88457
 H741 H 0.34317 0.12854 0.95780
 H742 H 0.27257 0.05584 0.92447
 H743 H 0.23605 0.14985 0.80398
 H744 H 0.30613 0.22258 0.83787
 C745 C 0.80003 0.62609 0.38710
 C746 C 0.82715 0.63292 0.40619
 C747 C 0.83232 0.61324 0.43202
 C748 C 0.81049 0.58707 0.43885
 C749 C 0.78350 0.58046 0.41940
 C750 C 0.77824 0.59982 0.39335
 C751 C 0.79380 0.64741 0.36066
 C752 C 0.76635 0.64094 0.34197
 C753 C 0.76000 0.66184 0.31751
 C754 C 0.78061 0.68931 0.31203
 C755 C 0.80826 0.69518 0.33079
 C756 C 0.81497 0.67430 0.35513
 C757 C 0.75125 0.59389 0.37388
 C758 C 0.74546 0.61406 0.34856
 C759 C 0.84812 0.65972 0.39951
 C760 C 0.84211 0.68008 0.37443
 H761 H 0.73431 0.57366 0.37843
 H762 H 0.72421 0.60879 0.33430
 H763 H 0.86913 0.66522 0.41405
 H764 H 0.85867 0.70071 0.37034
 H765 H 0.85288 0.61855 0.44725
 H766 H 0.76630 0.56073 0.42509
 H767 H 0.73859 0.65716 0.30333
 H768 H 0.82434 0.71618 0.32673
 C769 C 0.12910 0.69707 0.88929
 C770 C 0.10162 0.71320 0.89261
 C771 C 0.08168 0.70685 0.91893
 C772 C 0.08862 0.68409 0.94178
 C773 C 0.11661 0.66834 0.93797
 C774 C 0.13679 0.67465 0.91179
 C775 C 0.15071 0.70444 0.86219
 C776 C 0.17866 0.68892 0.85933
 C777 C 0.19974 0.69689 0.83419
 C778 C 0.19309 0.72032 0.81209
 C779 C 0.16455 0.73514 0.81499
 C780 C 0.14339 0.72743 0.84010
 C781 C 0.16473 0.65924 0.90785
 C782 C 0.18532 0.66626 0.88207
 C783 C 0.09493 0.73584 0.86986
 C784 C 0.11542 0.74278 0.84401
 H785 H 0.17091 0.64182 0.92501
 H786 H 0.20679 0.65408 0.88012
 H787 H 0.07377 0.74845 0.87216
 H788 H 0.10950 0.76058 0.82714
 H789 H 0.06145 0.72063 0.92224
 H790 H 0.12246 0.65078 0.95515
 H791 H 0.22162 0.68534 0.83226
 H792 H 0.15921 0.75329 0.79825
 C793 C 0.61086 0.19307 0.39219
 C794 C 0.58608 0.21232 0.39821
 C795 C 0.56634 0.20593 0.42463
 C796 C 0.57079 0.18013 0.44457
 C797 C 0.59559 0.16091 0.43810
 C798 C 0.61583 0.16737 0.41197
 C799 C 0.63254 0.20050 0.36518
 C800 C 0.65808 0.18203 0.35983
 C801 C 0.67938 0.19001 0.33485
 C802 C 0.67510 0.21613 0.31521
 C803 C 0.64889 0.23392 0.32054
 C804 C 0.62774 0.22641 0.34567
 C805 C 0.64128 0.14906 0.40551
 C806 C 0.66210 0.15632 0.37994
 C807 C 0.58190 0.23788 0.37801
 C808 C 0.60230 0.24474 0.35209
 H809 H 0.64537 0.12918 0.42058
 H810 H 0.68166 0.14183 0.37604
 H811 H 0.56281 0.25284 0.38238
 H812 H 0.59838 0.26480 0.33721
 H813 H 0.54781 0.22128 0.43005
 H814 H 0.59933 0.14132 0.45371
 H815 H 0.69943 0.17614 0.33091
 H816 H 0.64549 0.25421 0.30576
 C817 C 0.87005 0.30571 0.89058
 C818 C 0.89744 0.28943 0.89386
 C819 C 0.91727 0.29548 0.92031
 C820 C 0.91013 0.31786 0.94348
 C821 C 0.88241 0.33400 0.93950
 C822 C 0.86241 0.32807 0.91316
 C823 C 0.84835 0.29840 0.86355
 C824 C 0.82044 0.31401 0.86080
 C825 C 0.79917 0.30599 0.83587
 C826 C 0.80550 0.28232 0.81392
 C827 C 0.83402 0.26743 0.81665
 C828 C 0.85544 0.27527 0.84152
 C829 C 0.83458 0.34366 0.90927
 C830 C 0.81395 0.33675 0.88353
 C831 C 0.90400 0.26678 0.87106
 C832 C 0.88338 0.25985 0.84531
 H833 H 0.82847 0.36105 0.92648
 H834 H 0.79253 0.34901 0.88164
 H835 H 0.92509 0.25406 0.87331
 H836 H 0.88915 0.24197 0.82847
 H837 H 0.93739 0.28156 0.92361
 H838 H 0.87649 0.35139 0.95685
 H839 H 0.77731 0.31759 0.83409
 H840 H 0.83913 0.24912 0.80000
 C841 C 0.38557 0.80488 0.38945
 C842 C 0.41076 0.78611 0.39535
 C843 C 0.43099 0.79330 0.42126
 C844 C 0.42653 0.81936 0.44085
 C845 C 0.40136 0.83814 0.43442
 C846 C 0.38068 0.83090 0.40880
 C847 C 0.36333 0.79655 0.36309
 C848 C 0.33739 0.81454 0.35794
 C849 C 0.31556 0.80571 0.33365
 C850 C 0.31966 0.77919 0.31451
 C851 C 0.34626 0.76188 0.31960
 C852 C 0.36798 0.77026 0.34404
 C853 C 0.35482 0.84872 0.40252
 C854 C 0.33350 0.84064 0.37757
 C855 C 0.41482 0.76017 0.37559
 C856 C 0.39386 0.75246 0.35029
 H857 H 0.35079 0.86885 0.41726
 H858 H 0.31364 0.85477 0.37380
 H859 H 0.43421 0.74558 0.37986
 H860 H 0.39769 0.73212 0.33577
 H861 H 0.44983 0.77831 0.42665
 H862 H 0.39761 0.85794 0.44975
 H863 H 0.29522 0.81923 0.32990
 H864 H 0.34955 0.74131 0.30518
 C865 C 0.30062 0.87861 0.11177
 C866 C 0.27952 0.90167 0.10565
 C867 C 0.28473 0.92131 0.07912
 C868 C 0.31117 0.91845 0.05916
 C869 C 0.33228 0.89538 0.06578
 C870 C 0.32701 0.87525 0.09201
 C871 C 0.29444 0.85697 0.13887
 C872 C 0.31475 0.83304 0.14426
 C873 C 0.30789 0.81163 0.16923
 C874 C 0.28104 0.81420 0.18878
 C875 C 0.26144 0.83889 0.18347
 C876 C 0.26782 0.86011 0.15836
 C877 C 0.34720 0.85146 0.09855
 C878 C 0.34112 0.83065 0.12417
 C879 C 0.25332 0.90426 0.12587
 C880 C 0.24764 0.88391 0.15186
 H881 H 0.36764 0.84863 0.08349
 H882 H 0.35703 0.81236 0.12812
 H883 H 0.23693 0.92203 0.12143
 H884 H 0.22701 0.88655 0.16672
 H885 H 0.26800 0.93851 0.07363
 H886 H 0.35242 0.89287 0.05020
 H887 H 0.32314 0.79275 0.17313
 H888 H 0.24057 0.84095 0.19818
 C889 C 0.79189 0.37721 0.60935
 C890 C 0.77240 0.40165 0.60316
 C891 C 0.77885 0.42101 0.57662
 C892 C 0.80490 0.41643 0.55668
 C893 C 0.82439 0.39200 0.56334
 C894 C 0.81790 0.37220 0.58963
 C895 C 0.78437 0.35592 0.63648
 C896 C 0.80311 0.33075 0.64202
 C897 C 0.79506 0.30983 0.66713
 C898 C 0.76857 0.31410 0.68666
 C899 C 0.75050 0.33992 0.68112
 C900 C 0.75811 0.36072 0.65590
 C901 C 0.83647 0.34712 0.59627
 C902 C 0.82916 0.32670 0.62197
 C903 C 0.74650 0.40586 0.62331
 C904 C 0.73955 0.38580 0.64931
 H905 H 0.85660 0.34300 0.58125
 H906 H 0.84386 0.30743 0.62602
 H907 H 0.73135 0.42468 0.61881
 H908 H 0.71922 0.38972 0.66413
 H909 H 0.76333 0.43928 0.57106
 H910 H 0.84418 0.38818 0.54774
 H911 H 0.80915 0.29009 0.67121
 H912 H 0.72994 0.34334 0.69584
 C913 C 0.68867 0.11192 0.11459
 C914 C 0.70996 0.08911 0.10826
 C915 C 0.70512 0.06994 0.08144
 C916 C 0.67886 0.07293 0.06127
 C917 C 0.65716 0.09532 0.06844
 C918 C 0.66217 0.11515 0.09495
 C919 C 0.69518 0.13385 0.14137
 C920 C 0.67504 0.15796 0.14662
 C921 C 0.68256 0.18000 0.17088
 C922 C 0.70992 0.17787 0.18982
 C923 C 0.72918 0.15288 0.18484
 C924 C 0.72217 0.13108 0.16041
 C925 C 0.64196 0.13892 0.10157
 C926 C 0.64835 0.16003 0.12690
 C927 C 0.73637 0.08668 0.12821
 C928 C 0.74228 0.10721 0.15397
 H929 H 0.62142 0.14166 0.08664
 H930 H 0.63253 0.17842 0.13078
 H931 H 0.75287 0.06905 0.12360
 H932 H 0.76316 0.10484 0.16853
 H933 H 0.72249 0.05351 0.07550
 H934 H 0.63720 0.09804 0.05271
 H935 H 0.66755 0.19910 0.17460
 H936 H 0.75039 0.15112 0.19911
 C937 C 0.20416 0.61957 0.61101
 C938 C 0.22358 0.59497 0.60531
 C939 C 0.21680 0.57481 0.57939
 C940 C 0.19056 0.57889 0.55953
 C941 C 0.17109 0.60343 0.56580
 C942 C 0.17786 0.62395 0.59146
 C943 C 0.21209 0.64176 0.63734
 C944 C 0.19339 0.66706 0.64230
 C945 C 0.20182 0.68884 0.66655
 C946 C 0.22870 0.68539 0.68580
 C947 C 0.24675 0.65943 0.68089
 C948 C 0.23871 0.63770 0.65652
 C949 C 0.15934 0.64918 0.59757
 C950 C 0.16700 0.67040 0.62252
 C951 C 0.24981 0.59146 0.62524
 C952 C 0.25718 0.61241 0.65048
 H953 H 0.13898 0.65280 0.58268
 H954 H 0.15233 0.68978 0.62615
 H955 H 0.26493 0.57253 0.62114
 H956 H 0.27778 0.60902 0.66511
 H957 H 0.23227 0.55641 0.57415
 H958 H 0.15113 0.60685 0.55027
 H959 H 0.18772 0.70866 0.67014
 H960 H 0.26757 0.65661 0.69542
 C961 C 0.87757 0.70101 0.10727
 C962 C 0.86801 0.67534 0.08744
 C963 C 0.88701 0.66911 0.06119
 C964 C 0.91520 0.68848 0.05472
 C965 C 0.92429 0.71424 0.07471
 C966 C 0.90571 0.72045 0.10120
 C967 C 0.85733 0.70816 0.13445
 C968 C 0.86671 0.73407 0.15399
 C969 C 0.84694 0.74135 0.17923
 C970 C 0.81768 0.72327 0.18469
 C971 C 0.80884 0.69709 0.16507
 C972 C 0.82862 0.68940 0.13993
 C973 C 0.91444 0.74600 0.12145
 C974 C 0.89531 0.75264 0.14747
 C975 C 0.83941 0.65677 0.09400
 C976 C 0.82002 0.66372 0.11976
 H977 H 0.93613 0.76112 0.11704
 H978 H 0.90278 0.77271 0.16237
 H979 H 0.83177 0.63690 0.07890
 H980 H 0.79797 0.64903 0.12375
 H981 H 0.87978 0.64952 0.04555
 H982 H 0.94559 0.72962 0.06931
 H983 H 0.85391 0.76168 0.19400
 H984 H 0.78639 0.68302 0.16906
 C985 C 0.36043 0.19571 0.61232
 C986 C 0.35103 0.16927 0.59344
 C987 C 0.36986 0.16240 0.56728
 C988 C 0.39777 0.18186 0.55999
 C989 C 0.40676 0.20834 0.57909
 C990 C 0.38831 0.21524 0.60544
 C991 C 0.34028 0.20358 0.63931
 C992 C 0.34946 0.23029 0.65786
 C993 C 0.32976 0.23820 0.68292
 C994 C 0.30082 0.21989 0.68921
 C995 C 0.29220 0.19293 0.67059
 C996 C 0.31187 0.18466 0.64560
 C997 C 0.39687 0.24158 0.62472
 C998 C 0.37781 0.24893 0.65055
 C999 C 0.32271 0.15060 0.60080
 C1000 C 0.30343 0.15819 0.62641
 H1001 H 0.41836 0.25678 0.61967
 H1002 H 0.38514 0.26960 0.66469
 H1003 H 0.31519 0.13014 0.58644
 H1004 H 0.28160 0.14337 0.63106
 H1005 H 0.36272 0.14227 0.55232
 H1006 H 0.42783 0.22377 0.57304
 H1007 H 0.33657 0.25908 0.69697
 H1008 H 0.27002 0.17864 0.67523
 C1009 C 0.11913 0.30022 0.11239
 C1010 C 0.12795 0.32689 0.09362
 C1011 C 0.10866 0.33371 0.06782
 C1012 C 0.08095 0.31391 0.06065
 C1013 C 0.07240 0.28735 0.07978
 C1014 C 0.09131 0.28049 0.10582
 C1015 C 0.13996 0.29221 0.13877
 C1016 C 0.13144 0.26519 0.15711
 C1017 C 0.15183 0.25708 0.18150
 C1018 C 0.18083 0.27548 0.18730
 C1019 C 0.18879 0.30276 0.16891
 C1020 C 0.16841 0.31123 0.14462
 C1021 C 0.08337 0.25389 0.12495
 C1022 C 0.10306 0.24642 0.15023
 C1023 C 0.15627 0.34573 0.10060
 C1024 C 0.17618 0.33800 0.12564
 H1025 H 0.06193 0.23855 0.12015
 H1026 H 0.09623 0.22553 0.16423
 H1027 H 0.16332 0.36637 0.08632
 H1028 H 0.19801 0.35293 0.12995
 H1029 H 0.11548 0.35394 0.05284
 H1030 H 0.05149 0.27165 0.07384
 H1031 H 0.14550 0.23598 0.19538
 H1032 H 0.21098 0.31713 0.17321
 C1033 C 0.64031 0.81086 0.60644
 C1034 C 0.61185 0.79165 0.60115
 C1035 C 0.59246 0.79817 0.57539
 C1036 C 0.60102 0.82402 0.55532
 C1037 C 0.62943 0.84332 0.56118
 C1038 C 0.64929 0.83672 0.58666
 C1039 C 0.66160 0.80311 0.63256
 C1040 C 0.69070 0.82149 0.63710
 C1041 C 0.71147 0.81317 0.66120
 C1042 C 0.70313 0.78677 0.68070
 C1043 C 0.67349 0.76907 0.67615
 C1044 C 0.65279 0.77695 0.65197
 C1045 C 0.67829 0.85497 0.59233
 C1046 C 0.69867 0.84744 0.61708
 C1047 C 0.60372 0.76587 0.62130
 C1048 C 0.62379 0.75872 0.64637
 H1049 H 0.68549 0.87499 0.57725
 H1050 H 0.72100 0.86188 0.62036
 H1051 H 0.58178 0.75094 0.61750
 H1052 H 0.61675 0.73847 0.66120
 H1053 H 0.57109 0.78275 0.57042
 H1054 H 0.63632 0.86294 0.54547
 H1055 H 0.73418 0.82697 0.66451
 H1056 H 0.66686 0.74860 0.69085
   
