data_POSCAR
  _audit_creation_date              2014-09-24
  _audit_creation_method            'ToBaCCo'
  _symmetry_space_group_name_H-M    'P1'
  _symmetry_Int_Tables_number       1
  _symmetry_cell_setting            triclinic
  loop_
  _symmetry_equiv_pos_as_xyz
 x,y,z
_cell_length_a 22.9553
_cell_length_b 22.9542
_cell_length_c 31.3507
_cell_angle_alpha 89.903800
_cell_angle_beta 89.958800
_cell_angle_gamma 89.993500
loop_
  _atom_site_label
  _atom_site_type_symbol
  _atom_site_fract_x
  _atom_site_fract_y
  _atom_site_fract_z
O1 O 0.19737 0.36264 -0.03952
 O2 O 0.09247 0.40223 0.04405
 O3 O 0.19719 0.36194 0.04350
 O4 O 0.09257 0.40247 -0.04006
 O5 O 0.05781 0.31270 -0.04026
 O6 O 0.16280 0.27201 0.04357
 O7 O 0.05642 0.31305 0.04299
 O8 O 0.16384 0.27239 -0.03940
 Cu9 Cu 0.14811 0.39145 0.00205
 Cu10 Cu 0.10662 0.28352 0.00179
 C11 C 0.19836 0.31094 -0.05379
 C12 C 0.05700 0.36434 0.05816
 C13 C 0.19769 0.31020 0.05784
 C14 C 0.05825 0.36423 -0.05498
 O15 O 0.30591 0.86352 0.54050
 O16 O 0.41170 0.90224 0.45727
 O17 O 0.30638 0.86309 0.45762
 O18 O 0.41137 0.90223 0.54120
 O19 O 0.44552 0.81222 0.54119
 O20 O 0.33912 0.77254 0.45797
 O21 O 0.44576 0.81220 0.45769
 O22 O 0.33872 0.77299 0.54080
 Cu23 Cu 0.35576 0.89193 0.49912
 Cu24 Cu 0.39587 0.78345 0.49945
 C25 C 0.30428 0.81180 0.55483
 C26 C 0.44606 0.86369 0.44282
 C27 C 0.30483 0.81127 0.44358
 C28 C 0.44566 0.86373 0.55589
 O29 O 0.80563 0.64006 -0.04370
 O30 O 0.91034 0.60062 0.04009
 O31 O 0.80510 0.63944 0.03927
 O32 O 0.91076 0.60077 -0.04400
 O33 O 0.94560 0.69042 -0.04319
 O34 O 0.83815 0.72987 0.03947
 O35 O 0.94455 0.69059 0.04018
 O36 O 0.83843 0.73051 -0.04330
 Cu37 Cu 0.85488 0.61107 -0.00216
 Cu38 Cu 0.89527 0.71938 -0.00182
 C39 C 0.80395 0.69198 -0.05770
 C40 C 0.94443 0.63908 0.05500
 C41 C 0.80373 0.69109 0.05363
 C42 C 0.94573 0.63905 -0.05819
 O43 O 0.69826 0.13813 0.54303
 O44 O 0.59371 0.09811 0.45939
 O45 O 0.69887 0.13764 0.46002
 O46 O 0.59326 0.09839 0.54333
 O47 O 0.55864 0.18821 0.54276
 O48 O 0.66547 0.22794 0.45959
 O49 O 0.55896 0.18788 0.45926
 O50 O 0.66495 0.22847 0.54248
 Cu51 Cu 0.64920 0.10894 0.50147
 Cu52 Cu 0.60838 0.21715 0.50096
 C53 C 0.69934 0.18996 0.55706
 C54 C 0.55917 0.13633 0.44463
 C55 C 0.70013 0.18932 0.44558
 C56 C 0.55868 0.13679 0.55774
 O57 O 0.60159 0.09286 0.04100
 O58 O 0.64037 0.19914 -0.04193
 O59 O 0.60226 0.09359 -0.04297
 O60 O 0.64058 0.19801 0.04114
 O61 O 0.73106 0.16504 0.04116
 O62 O 0.69246 0.05996 -0.04294
 O63 O 0.73113 0.16716 -0.04154
 O64 O 0.69159 0.05869 0.04059
 Cu65 Cu 0.61203 0.14897 -0.00072
 Cu66 Cu 0.72060 0.10913 -0.00077
 C67 C 0.64012 0.05846 0.05547
 C68 C 0.69229 0.20145 -0.05584
 C69 C 0.64102 0.05971 -0.05775
 C70 C 0.69222 0.19909 0.05559
 O71 O 0.10079 0.40948 0.45865
 O72 O 0.13994 0.30464 0.54252
 O73 O 0.10068 0.40985 0.54264
 O74 O 0.14002 0.30414 0.45963
 O75 O 0.23045 0.33716 0.45946
 O76 O 0.19058 0.44423 0.54230
 O77 O 0.23038 0.33763 0.54231
 O78 O 0.19068 0.44388 0.45871
 Cu79 Cu 0.11121 0.35394 0.50086
 Cu80 Cu 0.21954 0.39435 0.50066
 C81 C 0.13920 0.44384 0.44391
 C82 C 0.19170 0.30328 0.55671
 C83 C 0.13909 0.44431 0.55714
 C84 C 0.19179 0.30257 0.44543
 O85 O 0.40307 0.91083 0.04312
 O86 O 0.36269 0.80757 -0.04131
 O87 O 0.40376 0.91186 -0.04113
 O88 O 0.36289 0.80606 0.04161
 O89 O 0.27303 0.84060 0.04190
 O90 O 0.31457 0.94793 -0.04049
 O91 O 0.27279 0.84203 -0.04112
 O92 O 0.31393 0.94701 0.04264
 Cu93 Cu 0.39221 0.85586 0.00058
 Cu94 Cu 0.28459 0.89801 0.00077
 C95 C 0.36526 0.94601 0.05770
 C96 C 0.31100 0.80730 -0.05566
 C97 C 0.36601 0.94730 -0.05545
 C98 C 0.31116 0.80532 0.05588
 O99 O 0.90484 0.59124 0.45800
 O100 O 0.86509 0.69673 0.54100
 O101 O 0.90442 0.59150 0.54187
 O102 O 0.86521 0.69635 0.45799
 O103 O 0.77484 0.66314 0.45809
 O104 O 0.81455 0.55701 0.54165
 O105 O 0.77473 0.66351 0.54096
 O106 O 0.81498 0.55673 0.45822
 Cu107 Cu 0.89403 0.64713 0.49972
 Cu108 Cu 0.78574 0.60650 0.49973
 C109 C 0.86653 0.55667 0.44352
 C110 C 0.81330 0.69802 0.55517
 C111 C 0.86599 0.55704 0.55649
 C112 C 0.81349 0.69754 0.44371
 C113 C 0.32378 0.14444 0.13937
 C114 C 0.35106 0.09882 0.16153
 C115 C 0.35942 0.10328 0.20585
 C116 C 0.34066 0.15308 0.22797
 C117 C 0.31640 0.19957 0.20489
 C118 C 0.30810 0.19567 0.16072
 C119 C 0.34548 0.15722 0.27510
 C120 C 0.29926 0.18080 0.29880
 C121 C 0.30423 0.18924 0.34291
 C122 C 0.35614 0.17394 0.36361
 C123 C 0.40160 0.14735 0.34081
 C124 C 0.39611 0.13928 0.29651
 H125 H 0.31777 0.14139 0.10515
 H126 H 0.37897 0.06739 0.22317
 H127 H 0.30365 0.23898 0.22143
 H128 H 0.25936 0.19324 0.28273
 H129 H 0.36003 0.18014 0.39776
 H130 H 0.43193 0.12084 0.27854
 C131 C 0.67822 0.85538 0.13683
 C132 C 0.65232 0.90110 0.15968
 C133 C 0.64492 0.89584 0.20406
 C134 C 0.66287 0.84518 0.22551
 C135 C 0.68593 0.79875 0.20183
 C136 C 0.69354 0.80348 0.15760
 C137 C 0.65851 0.84040 0.27261
 C138 C 0.70485 0.81651 0.29599
 C139 C 0.70046 0.80855 0.34022
 C140 C 0.64893 0.82432 0.36127
 C141 C 0.60333 0.85101 0.33871
 C142 C 0.60829 0.85878 0.29434
 H143 H 0.68381 0.85905 0.10259
 H144 H 0.62682 0.93179 0.22206
 H145 H 0.69840 0.75887 0.21795
 H146 H 0.74442 0.80371 0.27963
 H147 H 0.64549 0.81851 0.39551
 H148 H 0.57241 0.87752 0.27658
 C149 C 0.85680 0.32333 0.13852
 C150 C 0.90251 0.34994 0.16088
 C151 C 0.89795 0.35767 0.20523
 C152 C 0.84796 0.33897 0.22721
 C153 C 0.80137 0.31533 0.20399
 C154 C 0.80539 0.30768 0.15975
 C155 C 0.84380 0.34342 0.27433
 C156 C 0.82014 0.29714 0.29799
 C157 C 0.81221 0.30179 0.34219
 C158 C 0.82797 0.35344 0.36297
 C159 C 0.85457 0.39893 0.34016
 C160 C 0.86219 0.39377 0.29582
 H161 H 0.85997 0.31780 0.10426
 H162 H 0.93393 0.37672 0.22267
 H163 H 0.76187 0.30256 0.22047
 H164 H 0.80735 0.25745 0.28185
 H165 H 0.82217 0.35709 0.39718
 H166 H 0.88069 0.42964 0.27787
 C167 C 0.14573 0.67793 0.13764
 C168 C 0.10009 0.65134 0.16029
 C169 C 0.10520 0.64338 0.20466
 C170 C 0.15562 0.66148 0.22626
 C171 C 0.20196 0.68517 0.20272
 C172 C 0.19739 0.69337 0.15855
 C173 C 0.16034 0.65678 0.27336
 C174 C 0.18409 0.70308 0.29680
 C175 C 0.19256 0.69837 0.34094
 C176 C 0.17730 0.64658 0.36190
 C177 C 0.15067 0.60098 0.33935
 C178 C 0.14245 0.60627 0.29503
 H179 H 0.14222 0.68394 0.10344
 H180 H 0.06933 0.62477 0.22253
 H181 H 0.24171 0.69767 0.21893
 H182 H 0.19652 0.74285 0.28050
 H183 H 0.18352 0.64290 0.39607
 H184 H 0.12384 0.57041 0.27724
 C185 C 0.82581 0.35502 0.63894
 C186 C 0.80964 0.30375 0.66023
 C187 C 0.81719 0.29972 0.70450
 C188 C 0.84114 0.34613 0.72770
 C189 C 0.85994 0.39607 0.70573
 C190 C 0.85254 0.40068 0.66133
 C191 C 0.84590 0.34194 0.77480
 C192 C 0.89664 0.35988 0.79607
 C193 C 0.90206 0.35237 0.84042
 C194 C 0.85652 0.32622 0.86340
 C195 C 0.80459 0.31095 0.84282
 C196 C 0.79953 0.31886 0.79866
 H197 H 0.82030 0.35817 0.60468
 H198 H 0.80414 0.26032 0.72102
 H199 H 0.87878 0.43200 0.72333
 H200 H 0.93254 0.37801 0.77796
 H201 H 0.86029 0.32049 0.89762
 H202 H 0.75945 0.30661 0.78279
 C203 C 0.17683 0.64763 0.63769
 C204 C 0.19191 0.69972 0.65816
 C205 C 0.18361 0.70491 0.70227
 C206 C 0.16029 0.65875 0.72621
 C207 C 0.14253 0.60788 0.70502
 C208 C 0.15052 0.60217 0.66071
 C209 C 0.15574 0.66409 0.77328
 C210 C 0.10580 0.64536 0.79528
 C211 C 0.10075 0.65412 0.83951
 C212 C 0.14593 0.68185 0.86175
 C213 C 0.19735 0.69762 0.84056
 C214 C 0.20181 0.68891 0.79643
 H215 H 0.18292 0.64362 0.60353
 H216 H 0.19586 0.74497 0.71814
 H217 H 0.12418 0.57211 0.72316
 H218 H 0.07022 0.62546 0.77791
 H219 H 0.14244 0.68806 0.89593
 H220 H 0.24131 0.70170 0.77996
 C221 C 0.35601 0.17587 0.63923
 C222 C 0.30434 0.19159 0.66008
 C223 C 0.29969 0.18369 0.70429
 C224 C 0.34599 0.16014 0.72792
 C225 C 0.39639 0.14177 0.70636
 C226 C 0.40154 0.14934 0.66197
 C227 C 0.34131 0.15594 0.77507
 C228 C 0.36017 0.10605 0.79712
 C229 C 0.35188 0.10130 0.84143
 C230 C 0.32452 0.14667 0.86369
 C231 C 0.30867 0.19801 0.84244
 C232 C 0.31694 0.20225 0.79825
 H233 H 0.35963 0.18163 0.60500
 H234 H 0.25994 0.19639 0.72045
 H235 H 0.43227 0.12327 0.72426
 H236 H 0.37972 0.07027 0.77975
 H237 H 0.31854 0.14335 0.89791
 H238 H 0.30406 0.24172 0.78176
 C239 C 0.64832 0.82456 0.63739
 C240 C 0.69999 0.80896 0.65830
 C241 C 0.70456 0.81689 0.70248
 C242 C 0.65831 0.84068 0.72598
 C243 C 0.60792 0.85894 0.70438
 C244 C 0.60274 0.85113 0.66005
 C245 C 0.66320 0.84584 0.77300
 C246 C 0.64552 0.89672 0.79417
 C247 C 0.65356 0.90249 0.83843
 C248 C 0.68002 0.85712 0.86143
 C249 C 0.69507 0.80502 0.84096
 C250 C 0.68665 0.79968 0.79688
 H251 H 0.64476 0.81876 0.60319
 H252 H 0.74427 0.80424 0.71872
 H253 H 0.57212 0.87768 0.72223
 H254 H 0.62711 0.93244 0.77602
 H255 H 0.68604 0.86111 0.89559
 H256 H 0.69870 0.75949 0.78107
 C257 C 0.37974 -0.01695 0.09120
 C258 C 0.43055 -0.02055 0.11461
 C259 C 0.42560 0.02119 0.14529
 C260 C 0.37273 0.04781 0.13781
 O261 O 0.34472 0.02473 0.10506
 H262 H 0.46634 -0.05069 0.11031
 H263 H 0.45722 0.03198 0.16959
 C264 C 0.79831 0.73912 0.58920
 C265 C 0.83886 0.76875 0.61324
 C266 C 0.80732 0.79889 0.64261
 C267 C 0.74983 0.78579 0.63401
 O268 O 0.74418 0.74952 0.60153
 H269 H 0.88582 0.76756 0.61020
 H270 H 0.82415 0.82727 0.66723
 C271 C 0.62543 1.01949 0.09103
 C272 C 0.57910 1.02832 0.11824
 C273 C 0.58350 0.98560 0.14826
 C274 C 0.63189 0.95353 0.13685
 O275 O 0.65754 0.97409 0.10212
 H276 H 0.54677 1.06258 0.11679
 H277 H 0.55447 0.97817 0.17492
 C278 C 0.20648 0.26220 0.59091
 C279 C 0.16574 0.23277 0.61503
 C280 C 0.19708 0.20237 0.64442
 C281 C 0.25465 0.21510 0.63575
 O282 O 0.26055 0.25141 0.60320
 H283 H 0.11880 0.23424 0.61202
 H284 H 0.18006 0.17405 0.66909
 C285 C 1.01926 0.37873 0.09129
 C286 C 1.02244 0.42951 0.11473
 C287 C 0.98019 0.42452 0.14509
 C288 C 0.95372 0.37167 0.13740
 O289 O 0.97735 0.34368 0.10482
 H290 H 1.05266 0.46530 0.11069
 H291 H 0.96902 0.45607 0.16935
 C292 C 0.26276 0.79718 0.58876
 C293 C 0.23273 0.83803 0.61230
 C294 C 0.20207 0.80685 0.64166
 C295 C 0.21528 0.74925 0.63355
 O296 O 0.25210 0.74320 0.60138
 H297 H 0.23397 0.88495 0.60894
 H298 H 0.17331 0.82398 0.66596
 C299 C -0.01729 0.62434 0.09090
 C300 C -0.02653 0.57802 0.11808
 C301 C 0.01571 0.58245 0.14842
 C302 C 0.04793 0.63088 0.13721
 O303 O 0.02790 0.65648 0.10230
 H304 H -0.06073 0.54565 0.11640
 H305 H 0.02273 0.55340 0.17513
 C306 C 0.73999 0.20509 0.59136
 C307 C 0.76898 0.16461 0.61598
 C308 C 0.79888 0.19628 0.64539
 C309 C 0.78631 0.25376 0.63622
 O310 O 0.75057 0.25929 0.60337
 H311 H 0.76754 0.11763 0.61329
 H312 H 0.82680 0.17954 0.67036
 C313 C 0.70653 0.24142 0.91241
 C314 C 0.66652 0.27581 0.89121
 C315 C 0.69802 0.30596 0.86171
 C316 C 0.75493 0.28841 0.86758
 O317 O 0.76033 0.24927 0.89833
 H318 H 0.61988 0.27786 0.89613
 H319 H 0.68168 0.33746 0.83895
 C320 C 0.12429 0.48268 0.40830
 C321 C 0.07742 0.47416 0.38157
 C322 C 0.08160 0.51685 0.35150
 C323 C 0.13036 0.54864 0.36240
 O324 O 0.15645 0.52792 0.39689
 H325 H 0.04481 0.44019 0.38338
 H326 H 0.05218 0.52447 0.32513
 C327 C 0.29582 0.76716 0.90973
 C328 C 0.33633 0.73824 0.88516
 C329 C 0.30475 0.70860 0.85558
 C330 C 0.24725 0.72122 0.86459
 O331 O 0.24164 0.75676 0.89753
 H332 H 0.38330 0.73948 0.88805
 H333 H 0.32158 0.68066 0.83068
 C334 C 0.88158 0.51743 0.40832
 C335 C 0.92861 0.52546 0.38160
 C336 C 0.92431 0.48252 0.35184
 C337 C 0.87531 0.45114 0.36293
 O338 O 0.84920 0.47229 0.39722
 H339 H 0.96136 0.55930 0.38318
 H340 H 0.95372 0.47453 0.32551
 C341 C 0.23894 0.29611 0.91176
 C342 C 0.26772 0.33681 0.88716
 C343 C 0.29749 0.30540 0.85751
 C344 C 0.28506 0.24784 0.86651
 O345 O 0.24953 0.24202 0.89949
 H346 H 0.26621 0.38376 0.89005
 H347 H 0.32531 0.32236 0.83253
 C348 C 0.48526 0.87846 0.40743
 C349 C 0.47736 0.92558 0.38074
 C350 C 0.52014 0.92112 0.35081
 C351 C 0.55132 0.87192 0.36175
 O352 O 0.53019 0.84586 0.39613
 H353 H 0.44369 0.95850 0.38247
 H354 H 0.52817 0.95056 0.32447
 C355 C 0.76433 0.70655 0.91044
 C356 C 0.72970 0.66676 0.88932
 C357 C 0.69968 0.69846 0.85990
 C358 C 0.71752 0.75528 0.86571
 O359 O 0.75674 0.76043 0.89638
 H360 H 0.72734 0.62014 0.89429
 H361 H 0.66803 0.68231 0.83726
 C362 C 0.52028 0.12120 0.40921
 C363 C 0.52886 0.07440 0.38245
 C364 C 0.48603 0.07850 0.35253
 C365 C 0.45411 0.12713 0.36360
 O366 O 0.47489 0.15322 0.39800
 H367 H 0.56296 0.04190 0.38411
 H368 H 0.47842 0.04913 0.32617
 C369 C 0.62659 1.02109 0.90658
 C370 C 0.58032 1.02991 0.87937
 C371 C 0.58471 0.98710 0.84951
 C372 C 0.63312 0.95505 0.86099
 O373 O 0.65870 0.97567 0.89564
 H374 H 0.54799 1.06417 0.88078
 H375 H 0.55562 0.97961 0.82294
 C376 C 0.20660 0.26092 0.41166
 C377 C 0.16582 0.23090 0.38809
 C378 C 0.19707 0.19998 0.35899
 C379 C 0.25466 0.21301 0.36726
 O380 O 0.26064 0.25000 0.39930
 H381 H 0.11889 0.23230 0.39126
 H382 H 0.17999 0.17115 0.33475
 C383 C 0.38065 -0.01506 0.91137
 C384 C 0.43152 -0.01834 0.88795
 C385 C 0.42653 0.02370 0.85740
 C386 C 0.37364 0.05018 0.86501
 O387 O 0.34560 0.02672 0.89768
 H388 H 0.46733 -0.04851 0.89209
 H389 H 0.45810 0.03470 0.83305
 C390 C 0.79864 0.73839 0.40939
 C391 C 0.83929 0.76755 0.38502
 C392 C 0.80783 0.79768 0.35554
 C393 C 0.75029 0.78507 0.36442
 O394 O 0.74453 0.74909 0.39716
 H395 H 0.88625 0.76608 0.38793
 H396 H 0.82475 0.82579 0.33070
 C397 C -0.01620 0.62486 0.90883
 C398 C -0.01863 0.57379 0.88569
 C399 C 0.02380 0.57889 0.85550
 C400 C 0.04963 0.63212 0.86297
 O401 O 0.02543 0.66023 0.89527
 H402 H -0.04847 0.53770 0.88983
 H403 H 0.03550 0.54716 0.83149
 C404 C 0.74139 0.20406 0.41148
 C405 C 0.77094 0.16328 0.38756
 C406 C 0.80141 0.19455 0.35814
 C407 C 0.78860 0.25215 0.36660
 O408 O 0.75217 0.25810 0.39903
 H409 H 0.76950 0.11634 0.39071
 H410 H 0.82982 0.17749 0.33359
 C411 C 1.01996 0.37916 0.90921
 C412 C 1.02943 0.42521 0.88183
 C413 C 0.98698 0.42084 0.85163
 C414 C 0.95449 0.37273 0.86315
 O415 O 0.97452 0.34727 0.89809
 H416 H 1.06390 0.45730 0.88328
 H417 H 0.98002 0.44974 0.82481
 C418 C 0.26359 0.79641 0.40958
 C419 C 0.23399 0.83709 0.38554
 C420 C 0.20340 0.80569 0.35637
 C421 C 0.21620 0.74812 0.36508
 O422 O 0.25273 0.74231 0.39744
 H423 H 0.23544 0.88405 0.38847
 H424 H 0.17490 0.82266 0.33184
 C425 C 0.29585 0.76389 0.08974
 C426 C 0.33629 0.73360 0.11353
 C427 C 0.30467 0.70315 0.14274
 C428 C 0.24724 0.71671 0.13430
 O429 O 0.24169 0.75358 0.10207
 H430 H 0.38324 0.73454 0.11043
 H431 H 0.32139 0.67425 0.16714
 C432 C 0.88074 0.51805 0.59201
 C433 C 0.92790 0.52590 0.61857
 C434 C 0.92319 0.48338 0.64874
 C435 C 0.87383 0.45239 0.63803
 O436 O 0.84791 0.47339 0.60359
 H437 H 0.96101 0.55938 0.61663
 H438 H 0.95257 0.47541 0.67508
 C439 C 0.70689 0.23926 0.09023
 C440 C 0.66628 0.26773 0.11500
 C441 C 0.69784 0.29708 0.14478
 C442 C 0.75536 0.28470 0.13564
 O443 O 0.76100 0.24962 0.10248
 H444 H 0.61932 0.26628 0.11216
 H445 H 0.68100 0.32456 0.16996
 C446 C 0.12418 0.48334 0.59256
 C447 C 0.07732 0.47499 0.61941
 C448 C 0.08151 0.51786 0.64925
 C449 C 0.13029 0.54957 0.63809
 O450 O 0.15635 0.52864 0.60368
 H451 H 0.04469 0.44104 0.61782
 H452 H 0.05207 0.52567 0.67559
 C453 C 0.76275 0.70569 0.08785
 C454 C 0.73332 0.66492 0.11196
 C455 C 0.70342 0.69621 0.14162
 C456 C 0.71645 0.75377 0.13309
 O457 O 0.75244 0.75970 0.10041
 H458 H 0.73454 0.61799 0.10879
 H459 H 0.67527 0.67918 0.16638
 C460 C 0.51964 0.12197 0.59323
 C461 C 0.52776 0.07500 0.62003
 C462 C 0.48505 0.07948 0.65004
 C463 C 0.45369 0.12853 0.63903
 O464 O 0.47465 0.15448 0.60454
 H465 H 0.56151 0.04216 0.61832
 H466 H 0.47718 0.05010 0.67644
 C467 C 0.23831 0.29483 0.09211
 C468 C 0.26766 0.33511 0.11656
 C469 C 0.29759 0.30323 0.14590
 C470 C 0.28467 0.24583 0.13685
 O471 O 0.24869 0.24055 0.10414
 H472 H 0.26648 0.38210 0.11377
 H473 H 0.32583 0.31977 0.17071
 C474 C 0.48467 0.87853 0.59133
 C475 C 0.47666 0.92561 0.61794
 C476 C 0.51934 0.92109 0.64793
 C477 C 0.55061 0.87195 0.63708
 O478 O 0.52960 0.84595 0.60272
 H479 H 0.44303 0.95856 0.61612
 H480 H 0.52729 0.95052 0.67421
   
