data_POSCAR
  _audit_creation_date              2014-09-24
  _audit_creation_method            'ToBaCCo'
  _symmetry_space_group_name_H-M    'P1'
  _symmetry_Int_Tables_number       1
  _symmetry_cell_setting            triclinic
  loop_
  _symmetry_equiv_pos_as_xyz
 x,y,z
_cell_length_a 46.4979
_cell_length_b 45.0139
_cell_length_c 50.5912
_cell_angle_alpha 89.943900
_cell_angle_beta 90.037500
_cell_angle_gamma 121.641700
loop_
  _atom_site_label
  _atom_site_type_symbol
  _atom_site_fract_x
  _atom_site_fract_y
  _atom_site_fract_z
C1 C 0.03198 0.51952 1.30370
 C2 C 0.00078 0.50358 1.31683
 C3 C -0.03012 0.48894 1.30337
 C4 C -0.02996 0.48813 1.27528
 C5 C 0.00122 0.50396 1.26139
 C6 C 0.03227 0.51949 1.27555
 C7 C 0.06238 0.53184 1.26114
 C8 C 0.06243 0.53121 1.23371
 C9 C 0.03219 0.51655 1.21934
 C10 C 0.00126 0.50278 1.23320
 C11 C -0.06010 0.46891 1.26078
 C12 C -0.06001 0.46838 1.23337
 C13 C -0.02972 0.48672 1.21898
 C14 C -0.02950 0.48656 1.19081
 C15 C 0.00156 0.50006 1.17772
 C16 C 0.03206 0.51469 1.19147
 H17 H 0.08636 0.54123 1.27078
 H18 H 0.08655 0.54183 1.22392
 H19 H -0.08423 0.45288 1.27043
 H20 H -0.08405 0.45211 1.22366
 H21 H 0.00077 0.50542 1.33821
 H22 H 0.00237 0.50030 1.15629
 C23 C 0.47840 0.50917 1.30662
 C24 C 0.49033 0.49087 1.32034
 C25 C 0.50587 0.47531 1.30736
 C26 C 0.50831 0.47733 1.27922
 C27 C 0.49586 0.49564 1.26505
 C28 C 0.48086 0.51156 1.27883
 C29 C 0.46864 0.52943 1.26448
 C30 C 0.47060 0.53127 1.23705
 C31 C 0.48542 0.51585 1.22288
 C32 C 0.49799 0.49768 1.23696
 C33 C 0.52076 0.45977 1.26464
 C34 C 0.52362 0.46250 1.23727
 C35 C 0.51230 0.48120 1.22299
 C36 C 0.51470 0.48370 1.19509
 C37 C 0.50225 0.50172 1.18156
 C38 C 0.48741 0.51748 1.19494
 H39 H 0.45714 0.54198 1.27433
 H40 H 0.46019 0.54483 1.22710
 H41 H 0.52792 0.44305 1.27405
 H42 H 0.53445 0.44930 1.22743
 H43 H 0.48889 0.49031 1.34176
 H44 H 0.50379 0.50318 1.16015
 C45 C 0.48724 0.96651 1.30850
 C46 C 0.50252 0.99885 1.32145
 C47 C 0.52065 1.03078 1.30792
 C48 C 0.52219 1.03032 1.27981
 C49 C 0.50766 0.99795 1.26622
 C50 C 0.49097 0.96604 1.28061
 C51 C 0.48076 0.93480 1.26694
 C52 C 0.48425 0.93442 1.23972
 C53 C 0.49833 0.96527 1.22487
 C54 C 0.51037 0.99747 1.23813
 C55 C 0.53670 1.06120 1.26479
 C56 C 0.53954 1.06075 1.23749
 C57 C 0.52595 1.02921 1.22347
 C58 C 0.52932 1.02847 1.19547
 C59 C 0.51786 0.99619 1.18315
 C60 C 0.50203 0.96486 1.19719
 H61 H 0.47096 0.91026 1.27717
 H62 H 0.47633 0.90959 1.23050
 H63 H 0.54602 1.08635 1.27388
 H64 H 0.55335 1.08577 1.22774
 H65 H 0.50056 0.99913 1.34279
 H66 H 0.51946 0.99499 1.16182
 C67 C 0.96835 0.48744 0.69685
 C68 C 0.99872 0.50117 0.68305
 C69 C 1.03008 0.51668 0.69605
 C70 C 1.03044 0.51675 0.72426
 C71 C 0.99978 0.50383 0.73851
 C72 C 0.96868 0.48930 0.72471
 C73 C 0.93865 0.47685 0.73910
 C74 C 0.93891 0.47757 0.76655
 C75 C 0.96924 0.49103 0.78074
 C76 C 1.00004 0.50449 0.76669
 C77 C 1.05999 0.52636 0.73864
 C78 C 1.06017 0.52660 0.76612
 C79 C 1.03089 0.51752 0.78071
 C80 C 1.03096 0.51803 0.80892
 C81 C 0.99983 0.50334 0.82221
 C82 C 0.96938 0.49038 0.80864
 H83 H 0.91453 0.46619 0.72926
 H84 H 0.91490 0.46695 0.77654
 H85 H 1.08314 0.53255 0.72885
 H86 H 1.08344 0.53284 0.77575
 H87 H 0.99773 0.50078 0.66162
 H88 H 0.99920 0.50361 0.84364
 C89 C 0.52340 0.49094 0.69372
 C90 C 0.50757 0.50570 0.68029
 C91 C 0.49073 0.51924 0.69383
 C92 C 0.48917 0.51762 0.72179
 C93 C 0.50571 0.50341 0.73575
 C94 C 0.52311 0.49027 0.72169
 C95 C 0.54027 0.47743 0.73598
 C96 C 0.53927 0.47619 0.76346
 C97 C 0.52108 0.48778 0.77779
 C98 C 0.50476 0.50224 0.76384
 C99 C 0.47085 0.52904 0.73612
 C100 C 0.47007 0.52806 0.76360
 C101 C 0.48750 0.51553 0.77790
 C102 C 0.48751 0.51521 0.80589
 C103 C 0.50303 0.50009 0.81929
 C104 C 0.51936 0.48600 0.80574
 H105 H 0.55498 0.46849 0.72608
 H106 H 0.55328 0.46641 0.77336
 H107 H 0.45660 0.53856 0.72624
 H108 H 0.45524 0.53685 0.77349
 H109 H 0.50821 0.50648 0.65885
 H110 H 0.50243 0.49934 0.84073
 C111 C 0.48017 -0.03225 0.80247
 C112 C 0.49680 -0.00025 0.81609
 C113 C 0.50935 0.03158 0.80307
 C114 C 0.50523 0.03218 0.77549
 C115 C 0.49002 0.00056 0.76102
 C116 C 0.47816 -0.03166 0.77436
 C117 C 0.46688 -0.06190 0.75901
 C118 C 0.46394 -0.06126 0.73169
 C119 C 0.47285 -0.03019 0.71838
 C120 C 0.48706 0.00124 0.73306
 C121 C 0.51560 0.06359 0.76208
 C122 C 0.51210 0.06414 0.73483
 C123 C 0.49866 0.03341 0.71982
 C124 C 0.49617 0.03391 0.69194
 C125 C 0.48100 0.00250 0.67788
 C126 C 0.46914 -0.02947 0.69064
 H127 H 0.46095 -0.08636 0.76784
 H128 H 0.45515 -0.08539 0.72109
 H129 H 0.52632 0.08810 0.77258
 H130 H 0.51996 0.08900 0.72569
 H131 H 0.49872 0.00013 0.83747
 H132 H 0.47875 0.00298 0.65656
 O133 O 0.38152 0.65919 0.96990
 O134 O 0.38749 0.71978 0.97654
 C135 C 0.36796 0.72526 0.96258
 O136 O 0.33649 0.70997 0.96684
 O137 O 0.27724 0.65446 0.97605
 C138 C 0.27010 0.62644 0.96424
 O139 O 0.28407 0.60951 0.96999
 O140 O 0.33751 0.60614 0.97920
 C141 C 0.36388 0.62655 0.96584
 O142 O 0.38213 0.65104 1.02253
 O143 O 0.38465 0.70983 1.02935
 C144 C 0.37071 0.72726 1.03325
 O145 O 0.34637 0.72354 1.01914
 O146 O 0.28857 0.66656 1.02836
 C147 C 0.27106 0.63446 1.03427
 O148 O 0.27396 0.61131 1.02231
 O149 O 0.32876 0.61045 1.03161
 C150 C 0.36013 0.62547 1.03622
 Cr151 Cr 0.38211 0.68411 0.99955
 Cr152 Cr 0.31298 0.68760 0.99763
 Cr153 Cr 0.30713 0.61127 1.00072
 O154 O 0.33403 0.66094 0.99923
 O155 O 0.61967 0.33862 0.97191
 O156 O 0.61145 0.27743 0.98135
 C157 C 0.62998 0.27007 0.96792
 O158 O 0.66147 0.28468 0.97184
 O159 O 0.72175 0.33930 0.97964
 C160 C 0.73006 0.36693 0.96677
 O161 O 0.71728 0.38531 0.97137
 O162 O 0.66507 0.39141 0.97946
 C163 C 0.63822 0.37090 0.96666
 O164 O 0.62018 0.35014 1.02405
 O165 O 0.61528 0.29056 1.03355
 C166 C 0.62845 0.27259 1.03839
 O167 O 0.65236 0.27476 1.02460
 O168 O 0.71138 0.33091 1.03209
 C169 C 0.72988 0.36330 1.03679
 O170 O 0.72748 0.38623 1.02395
 O171 O 0.67406 0.39005 1.03219
 C172 C 0.64281 0.37613 1.03697
 Cr173 Cr 0.61851 0.31503 1.00268
 Cr174 Cr 0.68596 0.30848 1.00202
 Cr175 Cr 0.69484 0.38632 1.00176
 O176 O 0.66650 0.33667 1.00212
 O177 O 0.67892 0.39820 0.52659
 O178 O 0.73361 0.39692 0.51784
 C179 C 0.73745 0.37604 0.53218
 O180 O 0.71977 0.34319 0.52925
 O181 O 0.66203 0.28455 0.52328
 C182 C 0.63718 0.28100 0.53649
 O183 O 0.62288 0.29772 0.53112
 O184 O 0.62521 0.35576 0.52055
 C185 C 0.64781 0.38310 0.53237
 O186 O 0.66747 0.39600 0.47419
 O187 O 0.72049 0.39155 0.46563
 C188 C 0.73442 0.37411 0.46183
 O189 O 0.72870 0.34853 0.47639
 O190 O 0.66970 0.29156 0.47049
 C191 C 0.63820 0.27618 0.46614
 O192 O 0.61881 0.28296 0.47901
 O193 O 0.62350 0.34203 0.46843
 C194 C 0.64058 0.37403 0.46216
 Cr195 Cr 0.69908 0.39374 0.49616
 Cr196 Cr 0.69422 0.31797 0.49981
 Cr197 Cr 0.62447 0.32054 0.49974
 O198 O 0.67255 0.34406 0.49857
 O199 O 0.33206 0.60207 0.52317
 O200 O 0.27832 0.60514 0.53140
 C201 C 0.26387 0.62185 0.53615
 O202 O 0.26997 0.64870 0.52300
 O203 O 0.32865 0.70582 0.53035
 C204 C 0.36008 0.72156 0.53498
 O205 O 0.37994 0.71532 0.52227
 O206 O 0.37534 0.65585 0.53111
 C207 C 0.35843 0.62345 0.53607
 O208 O 0.32254 0.60316 0.47064
 O209 O 0.26726 0.60308 0.47898
 C210 C 0.26360 0.62482 0.46563
 O211 O 0.28043 0.65731 0.47021
 O212 O 0.33783 0.71574 0.47766
 C213 C 0.36337 0.72013 0.46487
 O214 O 0.37755 0.70323 0.46995
 O215 O 0.37580 0.64515 0.47868
 C216 C 0.35386 0.61862 0.46571
 Cr217 Cr 0.30106 0.60531 0.50105
 Cr218 Cr 0.30506 0.68087 0.50032
 Cr219 Cr 0.37527 0.67895 0.50051
 O220 O 0.32713 0.65507 0.50066
 C221 C 0.48750 0.55745 0.33627
 C222 C 0.47521 0.57361 0.35228
 C223 C 0.44031 0.55930 0.35503
 C224 C 0.41786 0.52903 0.34060
 C225 C 0.43023 0.51295 0.32447
 C226 C 0.46509 0.52698 0.32239
 C227 C 0.42866 0.57677 0.37313
 C228 C 0.39844 0.56019 0.38514
 C229 C 0.38783 0.57687 0.40498
 C230 C 0.35326 0.56147 0.41035
 C231 C 0.34216 0.57527 0.42975
 C232 C 0.36548 0.60472 0.44443
 C233 C 0.40011 0.62023 0.43902
 C234 C 0.41120 0.60642 0.41963
 H235 H 0.51450 0.56853 0.33484
 H236 H 0.49304 0.59698 0.36300
 H237 H 0.39085 0.51780 0.34151
 H238 H 0.41267 0.48946 0.31375
 H239 H 0.44651 0.60396 0.37744
 H240 H 0.38060 0.53300 0.38076
 H241 H 0.33473 0.53854 0.39955
 H242 H 0.31529 0.56260 0.43342
 H243 H 0.41879 0.64277 0.45009
 H244 H 0.43812 0.61848 0.41686
 C245 C 0.43622 0.90884 0.31683
 C246 C 0.41802 0.87926 0.33283
 C247 C 0.43213 0.87584 0.35628
 C248 C 0.46440 0.90311 0.36392
 C249 C 0.48244 0.93275 0.34813
 C250 C 0.46896 0.93587 0.32405
 C251 C 0.41236 0.84439 0.37299
 C252 C 0.42717 0.83156 0.38798
 C253 C 0.40863 0.80128 0.40596
 C254 C 0.42411 0.78293 0.41344
 C255 C 0.40892 0.75596 0.43195
 C256 C 0.37801 0.74698 0.44375
 C257 C 0.36219 0.76502 0.43600
 C258 C 0.37732 0.79190 0.41729
 H259 H 0.42429 0.91098 0.29913
 H260 H 0.39288 0.85894 0.32683
 H261 H 0.47561 0.90192 0.38234
 H262 H 0.50746 0.95293 0.35451
 H263 H 0.38508 0.83095 0.37207
 H264 H 0.45426 0.84321 0.38663
 H265 H 0.44831 0.78978 0.40515
 H266 H 0.42188 0.74272 0.43747
 H267 H 0.33843 0.75884 0.44476
 H268 H 0.36502 0.80601 0.41251
 C269 C 0.08863 0.56971 0.31445
 C270 C 0.11702 0.58553 0.33093
 C271 C 0.11905 0.56770 0.35293
 C272 C 0.09162 0.53401 0.35854
 C273 C 0.06337 0.51820 0.34209
 C274 C 0.06159 0.53547 0.31948
 C275 C 0.14916 0.58549 0.37036
 C276 C 0.15869 0.56795 0.38590
 C277 C 0.18716 0.58434 0.40499
 C278 C 0.19718 0.56304 0.41695
 C279 C 0.22226 0.57630 0.43632
 C280 C 0.23804 0.61134 0.44425
 C281 C 0.22851 0.63294 0.43202
 C282 C 0.20321 0.61960 0.41270
 H283 H 0.08741 0.58472 0.29821
 H284 H 0.13738 0.61187 0.32657
 H285 H 0.09140 0.51989 0.37592
 H286 H 0.04299 0.49201 0.34690
 H287 H 0.16402 0.61366 0.36967
 H288 H 0.14517 0.53979 0.38453
 H289 H 0.18523 0.53579 0.41152
 H290 H 0.22909 0.55895 0.44524
 H291 H 0.24007 0.66002 0.43779
 H292 H 0.19594 0.63689 0.40453
 C293 C 0.49991 0.43735 0.34439
 C294 C 0.51301 0.42235 0.36082
 C295 C 0.54589 0.42943 0.35709
 C296 C 0.56531 0.45142 0.33613
 C297 C 0.55215 0.46636 0.31959
 C298 C 0.51905 0.45921 0.32323
 C299 C 0.55871 0.41323 0.37542
 C300 C 0.59162 0.42663 0.38036
 C301 C 0.60398 0.41193 0.40047
 C302 C 0.63534 0.43417 0.41248
 C303 C 0.64736 0.42179 0.43228
 C304 C 0.62839 0.38669 0.44035
 C305 C 0.59747 0.36410 0.42770
 C306 C 0.58540 0.37654 0.40793
 H307 H 0.47434 0.43113 0.34789
 H308 H 0.49746 0.40541 0.37674
 H309 H 0.59059 0.45710 0.33231
 H310 H 0.56829 0.48432 0.30435
 H311 H 0.54006 0.39090 0.38668
 H312 H 0.61024 0.45086 0.37103
 H313 H 0.65032 0.46144 0.40691
 H314 H 0.67142 0.43987 0.44142
 H315 H 0.58240 0.33682 0.43321
 H316 H 0.56167 0.35829 0.39847
 C317 C 0.57140 0.08766 0.31874
 C318 C 0.58809 0.11715 0.33496
 C319 C 0.57129 0.12157 0.35621
 C320 C 0.53748 0.09541 0.36119
 C321 C 0.52078 0.06604 0.34497
 C322 C 0.53726 0.06180 0.32324
 C323 C 0.59024 0.15266 0.37351
 C324 C 0.57507 0.16469 0.38897
 C325 C 0.59293 0.19449 0.40761
 C326 C 0.57439 0.20755 0.41927
 C327 C 0.58918 0.23425 0.43799
 C328 C 0.62303 0.24865 0.44559
 C329 C 0.64184 0.23596 0.43374
 C330 C 0.62696 0.20905 0.41507
 H331 H 0.58563 0.08453 0.30322
 H332 H 0.61437 0.13644 0.33104
 H333 H 0.52386 0.09692 0.37793
 H334 H 0.49461 0.04677 0.34929
 H335 H 0.61749 0.16627 0.37277
 H336 H 0.54794 0.15254 0.38780
 H337 H 0.54814 0.19683 0.41405
 H338 H 0.57395 0.24346 0.44663
 H339 H 0.66793 0.24635 0.43926
 H340 H 0.64213 0.19942 0.40715
 C341 C 0.91592 0.48539 0.31185
 C342 C 0.88735 0.47439 0.32760
 C343 C 0.88225 0.45468 0.35052
 C344 C 0.90685 0.44702 0.35782
 C345 C 0.93535 0.45795 0.34213
 C346 C 0.94015 0.47682 0.31862
 C347 C 0.85201 0.44393 0.36707
 C348 C 0.83870 0.41589 0.38293
 C349 C 0.81008 0.40527 0.40135
 C350 C 0.79595 0.37268 0.41380
 C351 C 0.77089 0.36232 0.43294
 C352 C 0.75924 0.38434 0.44015
 C353 C 0.77264 0.41663 0.42725
 C354 C 0.79795 0.42713 0.40815
 H355 H 0.91954 0.50151 0.29476
 H356 H 0.86921 0.48142 0.32191
 H357 H 0.90464 0.43316 0.37592
 H358 H 0.95338 0.45095 0.34822
 H359 H 0.84025 0.45915 0.36542
 H360 H 0.84914 0.39933 0.38244
 H361 H 0.80478 0.35532 0.40904
 H362 H 0.76098 0.33717 0.44237
 H363 H 0.76430 0.43425 0.43247
 H364 H 0.80844 0.45274 0.39951
 C365 C 0.51385 0.43137 1.17725
 C366 C 0.52725 0.41648 1.16100
 C367 C 0.55676 0.43762 1.14623
 C368 C 0.57256 0.47416 1.14806
 C369 C 0.55918 0.48899 1.16440
 C370 C 0.52983 0.46773 1.17914
 C371 C 0.56867 0.42049 1.12796
 C372 C 0.59958 0.43655 1.11702
 C373 C 0.61005 0.41971 1.09720
 C374 C 0.64464 0.43337 1.09294
 C375 C 0.65545 0.41911 1.07362
 C376 C 0.63182 0.39096 1.05801
 C377 C 0.59721 0.37736 1.06228
 C378 C 0.58645 0.39164 1.08148
 H379 H 0.49079 0.41457 1.18812
 H380 H 0.51428 0.38831 1.15973
 H381 H 0.59461 0.49150 1.13641
 H382 H 0.57146 0.51713 1.16528
 H383 H 0.55106 0.39319 1.12377
 H384 H 0.61839 0.46282 1.12298
 H385 H 0.66338 0.45523 1.10456
 H386 H 0.68230 0.43029 1.07081
 H387 H 0.57828 0.35592 1.05046
 H388 H 0.55962 0.38110 1.08333
 C389 C 0.91709 0.48345 1.18101
 C390 C 0.88852 0.47181 1.16512
 C391 C 0.88302 0.45048 1.14317
 C392 C 0.90723 0.44190 1.13685
 C393 C 0.93590 0.45372 1.15257
 C394 C 0.94100 0.47411 1.17524
 C395 C 0.85278 0.43897 1.12650
 C396 C 0.83819 0.40918 1.11261
 C397 C 0.80907 0.39797 1.09470
 C398 C 0.78874 0.36249 1.08824
 C399 C 0.76245 0.35108 1.07000
 C400 C 0.75617 0.37504 1.05752
 C401 C 0.77628 0.41056 1.06422
 C402 C 0.80248 0.42194 1.08257
 H403 H 0.92094 0.50059 1.19743
 H404 H 0.87064 0.47948 1.17000
 H405 H 0.90447 0.42656 1.11951
 H406 H 0.95368 0.44606 1.14730
 H407 H 0.84170 0.45495 1.12652
 H408 H 0.84738 0.39164 1.11484
 H409 H 0.79345 0.34354 1.09716
 H410 H 0.74753 0.32355 1.06526
 H411 H 0.77222 0.42974 1.05490
 H412 H 0.81815 0.44962 1.08644
 C413 C 0.56613 0.06303 1.15886
 C414 C 0.57876 0.09123 1.14153
 C415 C 0.56871 0.11558 1.14343
 C416 C 0.54566 0.11110 1.16341
 C417 C 0.53292 0.08272 1.18083
 C418 C 0.54329 0.05844 1.17903
 C419 C 0.58311 0.14470 1.12399
 C420 C 0.57454 0.16883 1.12170
 C421 C 0.58946 0.19663 1.10121
 C422 C 0.57110 0.21148 1.09237
 C423 C 0.58386 0.23662 1.07225
 C424 C 0.61530 0.24740 1.06060
 C425 C 0.63418 0.23346 1.07014
 C426 C 0.62161 0.20866 1.09034
 H427 H 0.57484 0.04505 1.15676
 H428 H 0.59649 0.09390 1.12642
 H429 H 0.53702 0.12902 1.16571
 H430 H 0.51407 0.07916 1.19516
 H431 H 0.60113 0.14532 1.11013
 H432 H 0.55496 0.16752 1.13404
 H433 H 0.54650 0.20307 1.10066
 H434 H 0.56881 0.24706 1.06545
 H435 H 0.65884 0.24180 1.06203
 H436 H 0.63736 0.19926 1.09741
 C437 C 0.48811 0.57067 1.17912
 C438 C 0.47548 0.58641 1.16286
 C439 C 0.44787 0.56613 1.14604
 C440 C 0.43335 0.52969 1.14564
 C441 C 0.44597 0.51403 1.16190
 C442 C 0.47331 0.53436 1.17880
 C443 C 0.43637 0.58397 1.12808
 C444 C 0.40550 0.56803 1.11710
 C445 C 0.39467 0.58482 1.09751
 C446 C 0.35999 0.56995 1.09282
 C447 C 0.34868 0.58349 1.07332
 C448 C 0.37187 0.61216 1.05790
 C449 C 0.40660 0.62730 1.06278
 C450 C 0.41790 0.61374 1.08224
 H451 H 0.50960 0.58679 1.19175
 H452 H 0.48745 0.61453 1.16329
 H453 H 0.41292 0.51319 1.13231
 H454 H 0.43465 0.48600 1.16111
 H455 H 0.45398 0.61140 1.12434
 H456 H 0.38689 0.54157 1.12287
 H457 H 0.34154 0.54750 1.10412
 H458 H 0.32175 0.57115 1.07008
 H459 H 0.42520 0.64926 1.05116
 H460 H 0.44484 0.62538 1.08456
 C461 C 0.08165 0.51139 1.17663
 C462 C 0.10995 0.52283 1.16047
 C463 C 0.12033 0.55105 1.14311
 C464 C 0.10155 0.56745 1.14209
 C465 C 0.07334 0.55604 1.15828
 C466 C 0.06327 0.52804 1.17569
 C467 C 0.14939 0.56117 1.12531
 C468 C 0.16733 0.59266 1.11383
 C469 C 0.19490 0.60238 1.09455
 C470 C 0.21753 0.63788 1.08924
 C471 C 0.24261 0.64833 1.07004
 C472 C 0.24555 0.62341 1.05555
 C473 C 0.22314 0.58784 1.06103
 C474 C 0.19799 0.57739 1.08020
 H475 H 0.07379 0.48929 1.18963
 H476 H 0.12363 0.50942 1.16138
 H477 H 0.10780 0.58837 1.12831
 H478 H 0.05900 0.56872 1.15698
 H479 H 0.15646 0.54207 1.12215
 H480 H 0.16219 0.61275 1.11902
 H481 H 0.21560 0.65767 1.09984
 H482 H 0.25944 0.67596 1.06635
 H483 H 0.22454 0.56796 1.05010
 H484 H 0.18051 0.54974 1.08302
 C485 C 0.51054 0.92664 1.16648
 C486 C 0.49772 0.89771 1.14978
 C487 C 0.46275 0.87415 1.14767
 C488 C 0.44086 0.87921 1.16365
 C489 C 0.45372 0.90815 1.18038
 C490 C 0.48863 0.93222 1.18173
 C491 C 0.45019 0.84512 1.12839
 C492 C 0.41958 0.83024 1.11707
 C493 C 0.40770 0.80341 1.09598
 C494 C 0.38112 0.79839 1.07962
 C495 C 0.36921 0.77379 1.05928
 C496 C 0.38350 0.75338 1.05487
 C497 C 0.40978 0.75796 1.07150
 C498 C 0.42169 0.78260 1.09190
 H499 H 0.53755 0.94507 1.16719
 H500 H 0.51514 0.89429 1.13787
 H501 H 0.41384 0.86103 1.16326
 H502 H 0.43643 0.91218 1.19190
 H503 H 0.46794 0.83804 1.12181
 H504 H 0.40317 0.83976 1.12199
 H505 H 0.36969 0.81384 1.08243
 H506 H 0.34880 0.77084 1.04699
 H507 H 0.42107 0.74237 1.06887
 H508 H 0.44146 0.78478 1.10455
 C509 C 0.52655 0.43973 0.67879
 C510 C 0.53965 0.42487 0.66221
 C511 C 0.56543 0.44555 0.64408
 C512 C 0.57787 0.48160 0.64291
 C513 C 0.56477 0.49643 0.65955
 C514 C 0.53906 0.47563 0.67761
 C515 C 0.57687 0.42818 0.62565
 C516 C 0.60614 0.44501 0.61229
 C517 C 0.61624 0.42775 0.59259
 C518 C 0.65055 0.44329 0.58617
 C519 C 0.66093 0.42864 0.56687
 C520 C 0.63711 0.39822 0.55339
 C521 C 0.60273 0.38269 0.55981
 C522 C 0.59238 0.39732 0.57907
 H523 H 0.50622 0.42315 0.69225
 H524 H 0.52930 0.39701 0.66330
 H525 H 0.59685 0.49833 0.62866
 H526 H 0.57430 0.52409 0.65806
 H527 H 0.56057 0.40020 0.62352
 H528 H 0.62401 0.47232 0.61623
 H529 H 0.66942 0.46692 0.59608
 H530 H 0.68760 0.44135 0.56238
 H531 H 0.58366 0.35941 0.54967
 H532 H 0.56560 0.38517 0.58270
 C533 C 0.48949 0.07224 0.65981
 C534 C 0.50322 0.10221 0.64410
 C535 C 0.53806 0.12701 0.64458
 C536 C 0.55875 0.12177 0.66190
 C537 C 0.54502 0.09171 0.67747
 C538 C 0.51031 0.06673 0.67656
 C539 C 0.55174 0.15755 0.62657
 C540 C 0.58404 0.17555 0.61851
 C541 C 0.59743 0.20379 0.59846
 C542 C 0.62706 0.21201 0.58498
 C543 C 0.64016 0.23740 0.56521
 C544 C 0.62404 0.25546 0.55851
 C545 C 0.59493 0.24809 0.57257
 C546 C 0.58177 0.22257 0.59240
 H547 H 0.46265 0.05317 0.65877
 H548 H 0.48667 0.10567 0.63110
 H549 H 0.58550 0.14070 0.66361
 H550 H 0.56153 0.08777 0.69015
 H551 H 0.53386 0.16338 0.61815
 H552 H 0.60113 0.16761 0.62517
 H553 H 0.63985 0.19824 0.58941
 H554 H 0.66277 0.24255 0.55496
 H555 H 0.58209 0.26178 0.56809
 H556 H 0.55952 0.21788 0.60291
 C557 C 0.91410 0.43523 0.68159
 C558 C 0.88546 0.42000 0.66538
 C559 C 0.87921 0.44064 0.64832
 C560 C 0.90162 0.47714 0.64861
 C561 C 0.93027 0.49228 0.66473
 C562 C 0.93678 0.47144 0.68119
 C563 C 0.84920 0.42323 0.63069
 C564 C 0.84676 0.43772 0.60827
 C565 C 0.81743 0.42073 0.59006
 C566 C 0.81241 0.44204 0.57285
 C567 C 0.78615 0.42750 0.55447
 C568 C 0.76438 0.39111 0.55257
 C569 C 0.76928 0.36964 0.56985
 C570 C 0.79555 0.38427 0.58841
 H571 H 0.91889 0.41878 0.69413
 H572 H 0.86851 0.39192 0.66576
 H573 H 0.89718 0.49424 0.63664
 H574 H 0.94749 0.52031 0.66433
 H575 H 0.82902 0.39731 0.63620
 H576 H 0.86709 0.46351 0.60268
 H577 H 0.82898 0.47016 0.57358
 H578 H 0.78324 0.44489 0.54147
 H579 H 0.75308 0.34151 0.56882
 H580 H 0.79910 0.36687 0.60082
 C581 C 0.48623 0.57032 0.68059
 C582 C 0.47260 0.58532 0.66465
 C583 C 0.44787 0.56528 0.64563
 C584 C 0.43729 0.52982 0.64273
 C585 C 0.45079 0.51484 0.65878
 C586 C 0.47522 0.53490 0.67790
 C587 C 0.43529 0.58275 0.62834
 C588 C 0.40650 0.56549 0.61435
 C589 C 0.39449 0.58213 0.59558
 C590 C 0.36205 0.56139 0.58469
 C591 C 0.35012 0.57493 0.56573
 C592 C 0.37037 0.60968 0.55721
 C593 C 0.40260 0.63072 0.56841
 C594 C 0.41465 0.61712 0.58724
 H595 H 0.50560 0.58640 0.69487
 H596 H 0.48160 0.61276 0.66706
 H597 H 0.41934 0.51364 0.62770
 H598 H 0.44246 0.48760 0.65610
 H599 H 0.45032 0.61091 0.62771
 H600 H 0.39041 0.53754 0.61675
 H601 H 0.34595 0.53437 0.59060
 H602 H 0.32512 0.55801 0.55758
 H603 H 0.41893 0.65756 0.56214
 H604 H 0.44003 0.63407 0.59451
 C605 C 0.41924 0.91207 0.67852
 C606 C 0.40391 0.88227 0.66261
 C607 C 0.42196 0.87835 0.64206
 C608 C 0.45566 0.90532 0.63746
 C609 C 0.47099 0.93502 0.65346
 C610 C 0.45301 0.93850 0.67423
 C611 C 0.40432 0.84670 0.62521
 C612 C 0.42048 0.83536 0.61024
 C613 C 0.40339 0.80473 0.59230
 C614 C 0.42255 0.79180 0.58159
 C615 C 0.40835 0.76440 0.56340
 C616 C 0.37453 0.74918 0.55545
 C617 C 0.35510 0.76168 0.56645
 C618 C 0.36937 0.78926 0.58452
 H619 H 0.40476 0.91463 0.69413
 H620 H 0.37781 0.86222 0.66634
 H621 H 0.47014 0.90414 0.62125
 H622 H 0.49691 0.95545 0.64958
 H623 H 0.37704 0.83195 0.62596
 H624 H 0.44772 0.84863 0.61136
 H625 H 0.44882 0.80324 0.58708
 H626 H 0.42404 0.75539 0.55536
 H627 H 0.32904 0.75074 0.56057
 H628 H 0.35375 0.79877 0.59160
 C629 C 0.08758 0.56577 0.68610
 C630 C 0.11594 0.58169 0.66957
 C631 C 0.11738 0.56448 0.64698
 C632 C 0.08952 0.53130 0.64086
 C633 C 0.06110 0.51552 0.65719
 C634 C 0.05976 0.53222 0.68031
 C635 C 0.14738 0.58229 0.62946
 C636 C 0.15750 0.56472 0.61467
 C637 C 0.18633 0.58146 0.59600
 C638 C 0.20186 0.56312 0.58871
 C639 C 0.22755 0.57665 0.56980
 C640 C 0.23805 0.60875 0.55740
 C641 C 0.22273 0.62736 0.56487
 C642 C 0.19713 0.61389 0.58397
 H643 H 0.08694 0.58032 0.70289
 H644 H 0.13677 0.60760 0.67440
 H645 H 0.08920 0.51770 0.62313
 H646 H 0.04034 0.48976 0.65191
 H647 H 0.16199 0.61054 0.62954
 H648 H 0.14470 0.53664 0.61676
 H649 H 0.19386 0.53799 0.59752
 H650 H 0.23868 0.56153 0.56452
 H651 H 0.23013 0.65210 0.55566
 H652 H 0.18517 0.62838 0.58857
 C653 C 0.48427 0.56679 0.81977
 C654 C 0.47138 0.58214 0.83605
 C655 C 0.44656 0.56225 0.85507
 C656 C 0.43497 0.52646 0.85745
 C657 C 0.44771 0.51111 0.84100
 C658 C 0.47237 0.53110 0.82200
 C659 C 0.43502 0.58030 0.87279
 C660 C 0.40730 0.56370 0.88804
 C661 C 0.39663 0.58139 0.90694
 C662 C 0.36440 0.56173 0.91838
 C663 C 0.35362 0.57645 0.93724
 C664 C 0.37485 0.61134 0.94513
 C665 C 0.40698 0.63123 0.93354
 C666 C 0.41788 0.61642 0.91481
 H667 H 0.50387 0.58284 0.80562
 H668 H 0.48113 0.60980 0.83398
 H669 H 0.41681 0.51023 0.87234
 H670 H 0.43865 0.48364 0.84333
 H671 H 0.44998 0.60847 0.87269
 H672 H 0.39101 0.53568 0.88658
 H673 H 0.34752 0.53468 0.91287
 H674 H 0.32867 0.56040 0.94573
 H675 H 0.42407 0.65810 0.93935
 H676 H 0.44323 0.63249 0.90721
 C677 C 0.08885 0.56682 0.81798
 C678 C 0.11773 0.58264 0.83393
 C679 C 0.11958 0.56571 0.85657
 C680 C 0.09153 0.53295 0.86337
 C681 C 0.06256 0.51725 0.84759
 C682 C 0.06091 0.53360 0.82434
 C683 C 0.15024 0.58359 0.87339
 C684 C 0.16034 0.56625 0.88855
 C685 C 0.19002 0.58352 0.90643
 C686 C 0.20523 0.56501 0.91425
 C687 C 0.23181 0.57931 0.93244
 C688 C 0.24355 0.61238 0.94353
 C689 C 0.22855 0.63112 0.93549
 C690 C 0.20207 0.61687 0.91717
 H691 H 0.08799 0.58118 0.80111
 H692 H 0.13868 0.60827 0.82860
 H693 H 0.09152 0.51962 0.88118
 H694 H 0.04165 0.49180 0.85335
 H695 H 0.16545 0.61178 0.87241
 H696 H 0.14690 0.53805 0.88740
 H697 H 0.19629 0.53919 0.90644
 H698 H 0.24265 0.56408 0.93823
 H699 H 0.23685 0.65659 0.94372
 H700 H 0.19044 0.63159 0.91221
 C701 C 0.43178 0.90881 0.81206
 C702 C 0.41610 0.87898 0.82797
 C703 C 0.43287 0.87600 0.84992
 C704 C 0.46563 0.90385 0.85586
 C705 C 0.48134 0.93362 0.83995
 C706 C 0.46488 0.93653 0.81758
 C707 C 0.41466 0.84459 0.86700
 C708 C 0.43036 0.83435 0.88360
 C709 C 0.41270 0.80459 0.90229
 C710 C 0.43161 0.79250 0.91481
 C711 C 0.41693 0.76628 0.93395
 C712 C 0.38288 0.75147 0.94109
 C713 C 0.36369 0.76305 0.92824
 C714 C 0.37843 0.78944 0.90918
 H715 H 0.41739 0.91070 0.79601
 H716 H 0.39054 0.85831 0.82330
 H717 H 0.47908 0.90334 0.87312
 H718 H 0.50676 0.95425 0.84504
 H719 H 0.38746 0.82927 0.86523
 H720 H 0.45765 0.84807 0.88350
 H721 H 0.45806 0.80375 0.91003
 H722 H 0.43244 0.75794 0.94340
 H723 H 0.33746 0.75237 0.93342
 H724 H 0.36301 0.79842 0.90066
 C725 C 0.52194 0.43365 0.81852
 C726 C 0.53408 0.41741 0.83472
 C727 C 0.55816 0.43635 0.85443
 C728 C 0.56973 0.47202 0.85767
 C729 C 0.55771 0.48823 0.84137
 C730 C 0.53381 0.46923 0.82165
 C731 C 0.56892 0.41756 0.87209
 C732 C 0.59707 0.43364 0.88689
 C733 C 0.60718 0.41569 0.90604
 C734 C 0.63973 0.43474 0.91698
 C735 C 0.64996 0.42002 0.93630
 C736 C 0.62784 0.38575 0.94518
 C737 C 0.59543 0.36636 0.93398
 C738 C 0.58508 0.38118 0.91475
 H739 H 0.50292 0.41836 0.80378
 H740 H 0.52435 0.38986 0.83201
 H741 H 0.58723 0.48740 0.87319
 H742 H 0.56670 0.51558 0.84439
 H743 H 0.55313 0.38942 0.87233
 H744 H 0.61412 0.46151 0.88485
 H745 H 0.65727 0.46137 0.91079
 H746 H 0.67517 0.43568 0.94444
 H747 H 0.57769 0.33997 0.94053
 H748 H 0.55951 0.36565 0.90747
 C749 C 0.92181 0.49499 0.82684
 C750 C 0.89281 0.48201 0.84246
 C751 C 0.87979 0.45031 0.85618
 C752 C 0.89600 0.43138 0.85330
 C753 C 0.92505 0.44448 0.83778
 C754 C 0.93812 0.47632 0.82449
 C755 C 0.84926 0.43790 0.87294
 C756 C 0.84050 0.41445 0.89246
 C757 C 0.81061 0.40222 0.90983
 C758 C 0.79847 0.37077 0.92358
 C759 C 0.77178 0.35895 0.94144
 C760 C 0.75664 0.37848 0.94623
 C761 C 0.76840 0.40978 0.93219
 C762 C 0.79515 0.42160 0.91420
 H763 H 0.93167 0.51968 0.81669
 H764 H 0.88076 0.49700 0.84411
 H765 H 0.88631 0.40627 0.86261
 H766 H 0.93729 0.42969 0.83599
 H767 H 0.83406 0.44919 0.86922
 H768 H 0.85581 0.40333 0.89628
 H769 H 0.80994 0.35538 0.92070
 H770 H 0.76346 0.33474 0.95187
 H771 H 0.75746 0.42558 0.93553
 H772 H 0.80421 0.44640 0.90453
 C773 C 0.56108 0.08683 0.81776
 C774 C 0.57699 0.11620 0.83411
 C775 C 0.55821 0.12282 0.85232
 C776 C 0.52284 0.09991 0.85315
 C777 C 0.50703 0.07046 0.83693
 C778 C 0.52605 0.06368 0.81925
 C779 C 0.57641 0.15374 0.86988
 C780 C 0.56333 0.15740 0.89238
 C781 C 0.58154 0.18772 0.91033
 C782 C 0.56245 0.19575 0.92695
 C783 C 0.57824 0.22292 0.94519
 C784 C 0.61364 0.24249 0.94751
 C785 C 0.63288 0.23459 0.93079
 C786 C 0.61701 0.20747 0.91236
 H787 H 0.57609 0.08185 0.80419
 H788 H 0.60415 0.13351 0.83284
 H789 H 0.50706 0.10451 0.86604
 H790 H 0.47990 0.05290 0.83812
 H791 H 0.60179 0.17374 0.86418
 H792 H 0.53801 0.13761 0.89824
 H793 H 0.53511 0.18080 0.92591
 H794 H 0.56260 0.22816 0.95779
 H795 H 0.66017 0.24905 0.93217
 H796 H 0.63257 0.20145 0.90040
   
