data_POSCAR
  _audit_creation_date              2014-09-24
  _audit_creation_method            'ToBaCCo'
  _symmetry_space_group_name_H-M    'P1'
  _symmetry_Int_Tables_number       1
  _symmetry_cell_setting            triclinic
  loop_
  _symmetry_equiv_pos_as_xyz
 x,y,z
_cell_length_a 44.4516
_cell_length_b 44.4044
_cell_length_c 40.5196
_cell_angle_alpha 90.000000
_cell_angle_beta 90.000000
_cell_angle_gamma 90.046900
loop_
  _atom_site_label
  _atom_site_type_symbol
  _atom_site_fract_x
  _atom_site_fract_y
  _atom_site_fract_z
C1 C -0.09288 0.27659 -0.01734
 C2 C -0.09311 0.27648 0.01651
 C3 C -0.06420 0.28393 0.02659
 N4 N -0.04649 0.28883 -0.00001
 C5 C -0.06386 0.28407 -0.02689
 C6 C -0.05504 0.28756 0.05979
 C7 C -0.02486 0.29262 0.06946
 C8 C -0.01582 0.30148 0.10080
 C9 C 0.01513 0.30162 0.10080
 C10 C 0.02421 0.29285 0.06949
 N11 N -0.00028 0.28732 0.05063
 C12 C 0.05439 0.28796 0.05998
 C13 C 0.06388 0.28411 0.02699
 C14 C 0.09289 0.27660 0.01746
 C15 C 0.09312 0.27642 -0.01639
 C16 C 0.06422 0.28385 -0.02649
 N17 N 0.04652 0.28882 0.00009
 C18 C 0.05507 0.28741 -0.05970
 C19 C 0.02490 0.29246 -0.06938
 C20 C 0.01588 0.30125 -0.10074
 C21 C -0.01507 0.30140 -0.10075
 C22 C -0.02417 0.29270 -0.06941
 N23 N 0.00031 0.28720 -0.05054
 C24 C -0.05436 0.28784 -0.05989
 H25 H -0.11197 0.27186 -0.03311
 H26 H -0.11240 0.27167 0.03193
 H27 H 0.00019 0.27680 -0.02762
 H28 H -0.03006 0.30685 0.12165
 H29 H 0.02932 0.30710 0.12166
 H30 H 0.11197 0.27190 0.03324
 H31 H 0.11240 0.27157 -0.03180
 H32 H -0.02926 0.30684 -0.12162
 H33 H -0.00018 0.27686 0.02774
 H34 H 0.03013 0.30657 -0.12161
 C35 C 0.40685 0.77804 0.48363
 C36 C 0.40705 0.77822 0.51749
 C37 C 0.43613 0.78543 0.52706
 N38 N 0.45356 0.78997 0.50018
 C39 C 0.43582 0.78517 0.47360
 C40 C 0.44568 0.78910 0.56007
 C41 C 0.47592 0.79376 0.56958
 C42 C 0.48512 0.80223 0.60096
 C43 C 0.51608 0.80206 0.60085
 C44 C 0.52497 0.79351 0.56940
 N45 N 0.50035 0.78836 0.55060
 C46 C 0.55509 0.78865 0.55960
 C47 C 0.56427 0.78524 0.52644
 C48 C 0.59323 0.77811 0.51642
 C49 C 0.59304 0.77824 0.48256
 C50 C 0.56396 0.78542 0.47297
 N51 N 0.54654 0.78999 0.49984
 C52 C 0.55441 0.78903 0.43996
 C53 C 0.52418 0.79366 0.43044
 C54 C 0.51498 0.80209 0.39904
 C55 C 0.48403 0.80190 0.39916
 C56 C 0.47513 0.79339 0.43062
 N57 N 0.49974 0.78829 0.44943
 C58 C 0.44500 0.78854 0.44043
 H59 H 0.38754 0.77337 0.46819
 H60 H 0.38791 0.77369 0.53325
 H61 H 0.49989 0.77808 0.47244
 H62 H 0.47101 0.80756 0.62192
 H63 H 0.53041 0.80726 0.62169
 H64 H 0.61254 0.77347 0.53187
 H65 H 0.61217 0.77369 0.46681
 H66 H 0.46971 0.80706 0.37831
 H67 H 0.50019 0.77812 0.52761
 H68 H 0.52911 0.80740 0.37807
 C69 C 0.90711 0.72340 0.01745
 C70 C 0.90688 0.72358 -0.01640
 C71 C 0.93577 0.71615 -0.02651
 N72 N 0.95347 0.71118 0.00008
 C73 C 0.93611 0.71589 0.02697
 C74 C 0.94493 0.71260 -0.05971
 C75 C 0.97510 0.70756 -0.06940
 C76 C 0.98412 0.69876 -0.10076
 C77 C 1.01507 0.69862 -0.10076
 C78 C 1.02416 0.70731 -0.06943
 N79 N 0.99968 0.71280 -0.05055
 C80 C 1.05436 0.71217 -0.05990
 C81 C 1.06386 0.71594 -0.02690
 C82 C 1.09288 0.72342 -0.01735
 C83 C 1.09311 0.72352 0.01649
 C84 C 1.06420 0.71607 0.02658
 N85 N 1.04649 0.71117 -0.00002
 C86 C 1.05503 0.71244 0.05978
 C87 C 1.02485 0.70738 0.06944
 C88 C 1.01582 0.69851 0.10078
 C89 C 0.98487 0.69837 0.10079
 C90 C 0.97579 0.70715 0.06948
 N91 N 1.00028 0.71268 0.05061
 C92 C 0.94561 0.71204 0.05996
 H93 H 0.88803 0.72810 0.03323
 H94 H 0.88759 0.72844 -0.03181
 H95 H 1.00018 0.72314 0.02773
 H96 H 0.96987 0.69345 -0.12163
 H97 H 1.02925 0.69318 -0.12164
 H98 H 1.11197 0.72815 -0.03312
 H99 H 1.11240 0.72833 0.03192
 H100 H 0.97067 0.69289 0.12165
 H101 H 0.99981 0.72321 -0.02763
 H102 H 1.03006 0.69314 0.12164
 C103 C 0.40677 0.22189 0.51643
 C104 C 0.40696 0.22176 0.48257
 C105 C 0.43604 0.21458 0.47299
 N106 N 0.45346 0.21001 0.49986
 C107 C 0.43573 0.21477 0.52645
 C108 C 0.44559 0.21097 0.43997
 C109 C 0.47582 0.20633 0.43045
 C110 C 0.48501 0.19791 0.39906
 C111 C 0.51597 0.19809 0.39917
 C112 C 0.52487 0.20661 0.43063
 N113 N 0.50025 0.21171 0.44945
 C114 C 0.55499 0.21146 0.44045
 C115 C 0.56417 0.21483 0.47361
 C116 C 0.59314 0.22196 0.48364
 C117 C 0.59295 0.22178 0.51750
 C118 C 0.56386 0.21457 0.52707
 N119 N 0.54644 0.21003 0.50020
 C120 C 0.55431 0.21091 0.56008
 C121 C 0.52408 0.20625 0.56960
 C122 C 0.51487 0.19778 0.60098
 C123 C 0.48391 0.19795 0.60086
 C124 C 0.47503 0.20650 0.56941
 N125 N 0.49965 0.21164 0.55061
 C126 C 0.44491 0.21136 0.55961
 H127 H 0.38746 0.22653 0.53188
 H128 H 0.38783 0.22630 0.46682
 H129 H 0.49980 0.22188 0.52762
 H130 H 0.47089 0.19260 0.37809
 H131 H 0.53029 0.19293 0.37832
 H132 H 0.61246 0.22663 0.46820
 H133 H 0.61209 0.22631 0.53326
 H134 H 0.46959 0.19276 0.62171
 H135 H 0.50011 0.22192 0.47245
 H136 H 0.52899 0.19245 0.62194
 C137 C 0.72369 -0.09357 0.01628
 C138 C 0.72368 -0.09349 -0.01756
 C139 C 0.71601 -0.06452 -0.02730
 N140 N 0.71107 -0.04708 -0.00050
 C141 C 0.71603 -0.06466 0.02621
 C142 C 0.71218 -0.05512 -0.06039
 C143 C 0.70711 -0.02488 -0.06989
 C144 C 0.69815 -0.01573 -0.10115
 C145 C 0.69823 0.01524 -0.10111
 C146 C 0.70723 0.02426 -0.06982
 N147 N 0.71265 -0.00034 -0.05103
 C148 C 0.71236 0.05447 -0.06020
 C149 C 0.71606 0.06370 -0.02704
 C150 C 0.72361 0.09264 -0.01703
 C151 C 0.72349 0.09250 0.01681
 C152 C 0.71590 0.06351 0.02643
 N153 N 0.71109 0.04606 -0.00040
 C154 C 0.71205 0.05409 0.05944
 C155 C 0.70705 0.02389 0.06897
 C156 C 0.69819 0.01484 0.10026
 C157 C 0.69823 -0.01614 0.10027
 C158 C 0.70714 -0.02522 0.06896
 N159 N 0.71253 -0.00064 0.05012
 C160 C 0.71224 -0.05542 0.05936
 H161 H 0.72859 -0.11279 0.03181
 H162 H 0.72857 -0.11262 -0.03321
 H163 H 0.72302 -0.00059 0.02726
 H164 H 0.69261 -0.02992 -0.12201
 H165 H 0.69276 0.02950 -0.12192
 H166 H 0.72848 0.11191 -0.03251
 H167 H 0.72826 0.11163 0.03253
 H168 H 0.69281 -0.03038 0.12112
 H169 H 0.72321 -0.00041 -0.02820
 H170 H 0.69272 0.02907 0.12110
 C171 C 0.22209 0.40678 0.51764
 C172 C 0.22219 0.40663 0.48378
 C173 C 0.21505 0.43563 0.47380
 N174 N 0.21032 0.45335 0.50042
 C175 C 0.21492 0.43587 0.52726
 C176 C 0.21161 0.44485 0.44066
 C177 C 0.20677 0.47500 0.43085
 C178 C 0.19825 0.48390 0.39939
 C179 C 0.19813 0.51489 0.39926
 C180 C 0.20659 0.52410 0.43063
 N181 N 0.21194 0.49965 0.44964
 C182 C 0.21127 0.55437 0.44015
 C183 C 0.21488 0.56390 0.47317
 C184 C 0.22206 0.59300 0.48278
 C185 C 0.22219 0.59316 0.51665
 C186 C 0.21507 0.56414 0.52663
 N187 N 0.21031 0.54642 0.50002
 C188 C 0.21166 0.55492 0.55978
 C189 C 0.20685 0.52476 0.56960
 C190 C 0.19837 0.51584 0.60107
 C191 C 0.19825 0.48485 0.60120
 C192 C 0.20668 0.47565 0.56982
 N193 N 0.21200 0.50012 0.55080
 C194 C 0.21134 0.44539 0.56029
 H195 H 0.22665 0.38761 0.53336
 H196 H 0.22682 0.38732 0.46830
 H197 H 0.22219 0.50001 0.52779
 H198 H 0.19305 0.46956 0.37855
 H199 H 0.19283 0.52902 0.37829
 H200 H 0.22660 0.61218 0.46706
 H201 H 0.22683 0.61248 0.53212
 H202 H 0.19297 0.47071 0.62218
 H203 H 0.22216 0.49978 0.47263
 H204 H 0.19318 0.53017 0.62192
 C205 C 0.27651 0.90750 0.01681
 C206 C 0.27639 0.90736 -0.01704
 C207 C 0.28393 0.93630 -0.02705
 N208 N 0.28891 0.95394 -0.00040
 C209 C 0.28410 0.93649 0.02642
 C210 C 0.28764 0.94553 -0.06020
 C211 C 0.29277 0.97575 -0.06982
 C212 C 0.30177 0.98477 -0.10111
 C213 C 0.30185 1.01574 -0.10115
 C214 C 0.29289 1.02488 -0.06989
 N215 N 0.28734 1.00035 -0.05103
 C216 C 0.28782 1.05513 -0.06039
 C217 C 0.28399 1.06453 -0.02730
 C218 C 0.27632 1.09349 -0.01755
 C219 C 0.27630 1.09358 0.01629
 C220 C 0.28397 1.06467 0.02621
 N221 N 0.28893 1.04708 -0.00049
 C222 C 0.28775 1.05542 0.05936
 C223 C 0.29286 1.02522 0.06896
 C224 C 0.30176 1.01614 0.10027
 C225 C 0.30181 0.98516 0.10026
 C226 C 0.29295 0.97611 0.06896
 N227 N 0.28747 1.00064 0.05012
 C228 C 0.28795 0.94591 0.05944
 H229 H 0.27173 0.88837 0.03252
 H230 H 0.27152 0.88810 -0.03252
 H231 H 0.27697 1.00059 0.02726
 H232 H 0.30724 0.97051 -0.12192
 H233 H 0.30739 1.02994 -0.12201
 H234 H 0.27143 1.11263 -0.03320
 H235 H 0.27140 1.11279 0.03182
 H236 H 0.30727 0.97093 0.12109
 H237 H 0.27678 1.00041 -0.02820
 H238 H 0.30719 1.03037 0.12113
 C239 C 0.77780 0.40685 0.51665
 C240 C 0.77793 0.40700 0.48279
 C241 C 0.78512 0.43610 0.47318
 N242 N 0.78969 0.45359 0.50002
 C243 C 0.78493 0.43586 0.52664
 C244 C 0.78873 0.44563 0.44015
 C245 C 0.79340 0.47590 0.43063
 C246 C 0.80187 0.48511 0.39926
 C247 C 0.80175 0.51610 0.39939
 C248 C 0.79322 0.52500 0.43085
 N249 N 0.78805 0.50035 0.44964
 C250 C 0.78839 0.55515 0.44065
 C251 C 0.78495 0.56437 0.47380
 C252 C 0.77781 0.59338 0.48377
 C253 C 0.77790 0.59322 0.51763
 C254 C 0.78508 0.56413 0.52726
 N255 N 0.78968 0.54666 0.50042
 C256 C 0.78866 0.55461 0.56029
 C257 C 0.79332 0.52435 0.56981
 C258 C 0.80175 0.51516 0.60120
 C259 C 0.80163 0.48417 0.60107
 C260 C 0.79315 0.47525 0.56960
 N261 N 0.78800 0.49989 0.55080
 C262 C 0.78833 0.44509 0.55979
 H263 H 0.77316 0.38753 0.53213
 H264 H 0.77339 0.38782 0.46707
 H265 H 0.77780 0.50000 0.52779
 H266 H 0.80717 0.47097 0.37829
 H267 H 0.80695 0.53043 0.37855
 H268 H 0.77318 0.61269 0.46829
 H269 H 0.77334 0.61240 0.53335
 H270 H 0.80681 0.46984 0.62192
 H271 H 0.77783 0.50022 0.47263
 H272 H 0.80703 0.52930 0.62218
 O273 O 0.24462 0.20258 0.23700
 O274 O 0.22601 0.26604 0.29187
 O275 O 0.20337 0.24399 0.23757
 O276 O 0.26726 0.22463 0.29134
 O277 O 0.29682 0.25446 0.26200
 O278 O 0.23293 0.27381 0.20822
 O279 O 0.25556 0.29587 0.26253
 O280 O 0.27418 0.23240 0.20766
 Cu281 Cu 0.23234 0.23129 0.26741
 Cu282 Cu 0.26786 0.26714 0.23214
 C283 C 0.26238 0.20683 0.21293
 C284 C 0.23779 0.29162 0.28658
 C285 C 0.20742 0.26202 0.21370
 C286 C 0.29277 0.23644 0.28589
 O287 O 0.75537 0.79742 0.23699
 O288 O 0.77399 0.73395 0.29186
 O289 O 0.79662 0.75601 0.23756
 O290 O 0.73274 0.77536 0.29133
 O291 O 0.70318 0.74554 0.26199
 O292 O 0.76706 0.72618 0.20821
 O293 O 0.74443 0.70413 0.26251
 O294 O 0.72582 0.76759 0.20765
 Cu295 Cu 0.76766 0.76870 0.26740
 Cu296 Cu 0.73213 0.73285 0.23213
 C297 C 0.73762 0.79317 0.21292
 C298 C 0.76221 0.70837 0.28657
 C299 C 0.79258 0.73798 0.21369
 C300 C 0.70723 0.76355 0.28587
 O301 O 0.79735 0.24442 0.23703
 O302 O 0.73375 0.22577 0.29171
 O303 O 0.75588 0.20314 0.23742
 O304 O 0.77520 0.26707 0.29133
 O305 O 0.74555 0.29669 0.26192
 O306 O 0.72623 0.23276 0.20800
 O307 O 0.70409 0.25539 0.26230
 O308 O 0.76770 0.27403 0.20762
 Cu309 Cu 0.76854 0.23212 0.26734
 Cu310 Cu 0.73290 0.26771 0.23199
 C311 C 0.79321 0.26220 0.21295
 C312 C 0.70824 0.23759 0.28637
 C313 C 0.73795 0.20721 0.21347
 C314 C 0.76346 0.29261 0.28587
 O315 O 0.27377 0.76723 0.20799
 O316 O 0.25445 0.70331 0.26190
 O317 O 0.23230 0.72596 0.20760
 O318 O 0.29590 0.74460 0.26229
 O319 O 0.26624 0.77422 0.29170
 O320 O 0.20265 0.75558 0.23702
 O321 O 0.22479 0.73293 0.29132
 O322 O 0.24411 0.79685 0.23740
 Cu323 Cu 0.26709 0.73228 0.23198
 Cu324 Cu 0.23146 0.76788 0.26732
 C325 C 0.26204 0.79278 0.21346
 C326 C 0.23653 0.70738 0.28586
 C327 C 0.20679 0.73779 0.21294
 C328 C 0.29176 0.76240 0.28635
 O329 O 0.77402 0.26602 0.70815
 O330 O 0.75548 0.20231 0.76275
 O331 O 0.73279 0.22452 0.70854
 O332 O 0.79669 0.24383 0.76235
 O333 O 0.76712 0.27348 0.79185
 O334 O 0.70323 0.25417 0.73803
 O335 O 0.72592 0.23196 0.79224
 O336 O 0.74446 0.29567 0.73764
 Cu337 Cu 0.76773 0.23118 0.73247
 Cu338 Cu 0.73219 0.26681 0.76792
 C339 C 0.76222 0.29156 0.71356
 C340 C 0.73773 0.20643 0.78684
 C341 C 0.70728 0.23625 0.71407
 C342 C 0.79264 0.26177 0.78631
 O343 O 0.29677 0.74585 0.73802
 O344 O 0.23288 0.72653 0.79183
 O345 O 0.25554 0.70434 0.73763
 O346 O 0.27408 0.76806 0.79223
 O347 O 0.24452 0.79770 0.76274
 O348 O 0.22598 0.73399 0.70814
 O349 O 0.20331 0.75618 0.76234
 O350 O 0.26720 0.77550 0.70853
 Cu351 Cu 0.26780 0.73321 0.76791
 Cu352 Cu 0.23227 0.76884 0.73246
 C353 C 0.29272 0.76377 0.71405
 C354 C 0.20735 0.73825 0.78630
 C355 C 0.23777 0.70846 0.71355
 C356 C 0.26227 0.79359 0.78683
 O357 O 0.20269 0.24404 0.76320
 O358 O 0.26625 0.22543 0.70850
 O359 O 0.24411 0.20278 0.76281
 O360 O 0.22486 0.26671 0.70891
 O361 O 0.25456 0.29633 0.73833
 O362 O 0.27381 0.23240 0.79222
 O363 O 0.29596 0.25505 0.73791
 O364 O 0.23239 0.27366 0.79261
 Cu365 Cu 0.23148 0.23175 0.73289
 Cu366 Cu 0.26717 0.26735 0.76823
 C367 C 0.20686 0.26182 0.78728
 C368 C 0.29178 0.23726 0.71384
 C369 C 0.26204 0.20685 0.78675
 C370 C 0.23663 0.29226 0.71438
 O371 O 0.72618 0.76761 0.79220
 O372 O 0.74543 0.70368 0.73832
 O373 O 0.76761 0.72636 0.79260
 O374 O 0.70404 0.74496 0.73790
 O375 O 0.73374 0.77459 0.70849
 O376 O 0.79730 0.75598 0.76319
 O377 O 0.77513 0.73330 0.70890
 O378 O 0.75589 0.79724 0.76280
 Cu379 Cu 0.73282 0.73266 0.76822
 Cu380 Cu 0.76851 0.76826 0.73288
 C381 C 0.73795 0.79316 0.78674
 C382 C 0.76336 0.70775 0.71437
 C383 C 0.79314 0.73819 0.78727
 C384 C 0.70821 0.76276 0.71382
 C385 C 0.28618 0.07698 0.08356
 C386 C 0.28419 0.09618 0.10450
 C387 C 0.28110 0.11900 0.12851
 C388 C 0.27781 0.13875 0.14859
 C389 C 0.27320 0.16218 0.17158
 C390 C 0.26862 0.18244 0.19074
 C391 C 0.78723 0.57730 0.58595
 C392 C 0.78536 0.59651 0.60687
 C393 C 0.78236 0.61938 0.63082
 C394 C 0.77909 0.63922 0.65078
 C395 C 0.77445 0.66279 0.67357
 C396 C 0.76978 0.68319 0.69251
 C397 C 0.71381 0.92302 0.08355
 C398 C 0.71580 0.90381 0.10449
 C399 C 0.71889 0.88100 0.12850
 C400 C 0.72219 0.86125 0.14858
 C401 C 0.72680 0.83781 0.17157
 C402 C 0.73138 0.81755 0.19073
 C403 C 0.21276 0.42270 0.58596
 C404 C 0.21464 0.40350 0.60688
 C405 C 0.21764 0.38063 0.63083
 C406 C 0.22090 0.36079 0.65079
 C407 C 0.22554 0.33722 0.67358
 C408 C 0.23021 0.31682 0.69252
 C409 C 0.92336 0.28596 0.08393
 C410 C 0.90411 0.28395 0.10481
 C411 C 0.88123 0.28085 0.12875
 C412 C 0.86143 0.27757 0.14877
 C413 C 0.83794 0.27298 0.17170
 C414 C 0.81764 0.26843 0.19081
 C415 C 0.42304 0.78773 0.58574
 C416 C 0.40387 0.78588 0.60667
 C417 C 0.38103 0.78289 0.63061
 C418 C 0.36121 0.77962 0.65057
 C419 C 0.33766 0.77494 0.67333
 C420 C 0.31727 0.77024 0.69223
 C421 C 0.07664 0.71404 0.08392
 C422 C 0.09589 0.71605 0.10479
 C423 C 0.11876 0.71914 0.12874
 C424 C 0.13856 0.72242 0.14876
 C425 C 0.16205 0.72701 0.17169
 C426 C 0.18235 0.73157 0.19080
 C427 C 0.57696 0.21228 0.58575
 C428 C 0.59613 0.21413 0.60668
 C429 C 0.61896 0.21712 0.63063
 C430 C 0.63878 0.22039 0.65058
 C431 C 0.66234 0.22507 0.67334
 C432 C 0.68272 0.22978 0.69225
 C433 C 0.71394 0.07606 0.91563
 C434 C 0.71593 0.09532 0.89475
 C435 C 0.71903 0.11821 0.87082
 C436 C 0.72232 0.13805 0.85084
 C437 C 0.72693 0.16159 0.82796
 C438 C 0.73150 0.18193 0.80891
 C439 C 0.21268 0.57705 0.41447
 C440 C 0.21454 0.59624 0.39353
 C441 C 0.21753 0.61909 0.36955
 C442 C 0.22079 0.63891 0.34955
 C443 C 0.22543 0.66246 0.32672
 C444 C 0.23010 0.68283 0.30775
 C445 C 0.28606 0.92395 0.91563
 C446 C 0.28406 0.90469 0.89474
 C447 C 0.28097 0.88180 0.87081
 C448 C 0.27767 0.86197 0.85083
 C449 C 0.27307 0.83842 0.82795
 C450 C 0.26849 0.81808 0.80890
 C451 C 0.78732 0.42294 0.41448
 C452 C 0.78546 0.40375 0.39354
 C453 C 0.78246 0.38091 0.36956
 C454 C 0.77921 0.36109 0.34956
 C455 C 0.77457 0.33754 0.32673
 C456 C 0.76989 0.31716 0.30776
 C457 C 0.07667 0.28576 0.91617
 C458 C 0.09593 0.28371 0.89531
 C459 C 0.11881 0.28057 0.87139
 C460 C 0.13862 0.27725 0.85139
 C461 C 0.16212 0.27264 0.82849
 C462 C 0.18243 0.26806 0.80940
 C463 C 0.57705 0.78762 0.41428
 C464 C 0.59620 0.78575 0.39334
 C465 C 0.61901 0.78274 0.36938
 C466 C 0.63881 0.77944 0.34940
 C467 C 0.66233 0.77475 0.32662
 C468 C 0.68269 0.77003 0.30770
 C469 C 0.92333 0.71425 0.91616
 C470 C 0.90407 0.71630 0.89530
 C471 C 0.88118 0.71945 0.87137
 C472 C 0.86137 0.72276 0.85138
 C473 C 0.83787 0.72738 0.82848
 C474 C 0.81757 0.73195 0.80939
 C475 C 0.42295 0.21237 0.41430
 C476 C 0.40379 0.21424 0.39335
 C477 C 0.38099 0.21726 0.36939
 C478 C 0.36119 0.22055 0.34941
 C479 C 0.33767 0.22524 0.32663
 C480 C 0.31730 0.22996 0.30771
 C481 C 0.71368 0.92341 0.91533
 C482 C 0.71563 0.90424 0.89436
 C483 C 0.71873 0.88142 0.87038
 C484 C 0.72207 0.86162 0.85038
 C485 C 0.72679 0.83809 0.82756
 C486 C 0.73150 0.81772 0.80861
 C487 C 0.21331 0.42197 0.41519
 C488 C 0.21541 0.40266 0.39440
 C489 C 0.21864 0.37973 0.37054
 C490 C 0.22205 0.35988 0.35060
 C491 C 0.22679 0.33636 0.32775
 C492 C 0.23146 0.31605 0.30869
 C493 C 0.28632 0.07660 0.91533
 C494 C 0.28436 0.09577 0.89437
 C495 C 0.28127 0.11859 0.87038
 C496 C 0.27793 0.13839 0.85039
 C497 C 0.27321 0.16193 0.82757
 C498 C 0.26849 0.18230 0.80862
 C499 C 0.78668 0.57803 0.41518
 C500 C 0.78458 0.59734 0.39439
 C501 C 0.78135 0.62027 0.37054
 C502 C 0.77794 0.64011 0.35059
 C503 C 0.77321 0.66364 0.32774
 C504 C 0.76853 0.68395 0.30868
 C505 C 0.07701 0.71367 0.91444
 C506 C 0.09618 0.71563 0.89352
 C507 C 0.11902 0.71876 0.86961
 C508 C 0.13884 0.72214 0.84968
 C509 C 0.16240 0.72694 0.82696
 C510 C 0.18279 0.73172 0.80808
 C511 C 0.57787 0.21321 0.41499
 C512 C 0.59717 0.21534 0.39419
 C513 C 0.62010 0.21858 0.37033
 C514 C 0.63994 0.22197 0.35038
 C515 C 0.66346 0.22667 0.32752
 C516 C 0.68378 0.23131 0.30846
 C517 C 0.92299 0.28634 0.91445
 C518 C 0.90382 0.28438 0.89353
 C519 C 0.88098 0.28125 0.86962
 C520 C 0.86115 0.27787 0.84969
 C521 C 0.83759 0.27308 0.82697
 C522 C 0.81720 0.26829 0.80810
 C523 C 0.42213 0.78678 0.41497
 C524 C 0.40282 0.78466 0.39418
 C525 C 0.37989 0.78142 0.37032
 C526 C 0.36006 0.77802 0.35037
 C527 C 0.33653 0.77332 0.32751
 C528 C 0.31621 0.76868 0.30845
 C529 C 0.28644 0.92320 0.08508
 C530 C 0.28448 0.90399 0.10599
 C531 C 0.28137 0.88112 0.12992
 C532 C 0.27801 0.86129 0.14988
 C533 C 0.27327 0.83773 0.17267
 C534 C 0.26853 0.81734 0.19160
 C535 C 0.78662 0.42220 0.58525
 C536 C 0.78452 0.40288 0.60603
 C537 C 0.78129 0.37991 0.62985
 C538 C 0.77789 0.36002 0.64975
 C539 C 0.77317 0.33644 0.67254
 C540 C 0.76851 0.31607 0.69154
 C541 C 0.71356 0.07680 0.08508
 C542 C 0.71552 0.09601 0.10599
 C543 C 0.71863 0.11887 0.12993
 C544 C 0.72198 0.13871 0.14989
 C545 C 0.72673 0.16227 0.17268
 C546 C 0.73147 0.18265 0.19161
 C547 C 0.21338 0.57780 0.58524
 C548 C 0.21548 0.59713 0.60602
 C549 C 0.21871 0.62010 0.62984
 C550 C 0.22211 0.63999 0.64974
 C551 C 0.22683 0.66357 0.67253
 C552 C 0.23149 0.68395 0.69153
 C553 C 0.92296 0.71348 0.08563
 C554 C 0.90378 0.71541 0.10654
 C555 C 0.88093 0.71850 0.13044
 C556 C 0.86110 0.72187 0.15035
 C557 C 0.83753 0.72665 0.17306
 C558 C 0.81713 0.73144 0.19191
 C559 C 0.42203 0.21307 0.58508
 C560 C 0.40274 0.21516 0.60588
 C561 C 0.37983 0.21836 0.62977
 C562 C 0.36002 0.22172 0.64974
 C563 C 0.33652 0.22639 0.67264
 C564 C 0.31622 0.23100 0.69172
 C565 C 0.07704 0.28651 0.08564
 C566 C 0.09622 0.28459 0.10655
 C567 C 0.11907 0.28149 0.13045
 C568 C 0.13890 0.27812 0.15036
 C569 C 0.16247 0.27334 0.17307
 C570 C 0.18286 0.26855 0.19193
 C571 C 0.57796 0.78694 0.58506
 C572 C 0.59725 0.78485 0.60587
 C573 C 0.62016 0.78165 0.62976
 C574 C 0.63998 0.77829 0.64973
 C575 C 0.66348 0.77362 0.67263
 C576 C 0.68378 0.76901 0.69171
   
