data_POSCAR
  _audit_creation_date              2014-09-24
  _audit_creation_method            'ToBaCCo'
  _symmetry_space_group_name_H-M    'P1'
  _symmetry_Int_Tables_number       1
  _symmetry_cell_setting            triclinic
  loop_
  _symmetry_equiv_pos_as_xyz
 x,y,z
_cell_length_a 43.1577
_cell_length_b 43.1385
_cell_length_c 45.9307
_cell_angle_alpha 89.931300
_cell_angle_beta 90.000400
_cell_angle_gamma 89.710800
loop_
  _atom_site_label
  _atom_site_type_symbol
  _atom_site_fract_x
  _atom_site_fract_y
  _atom_site_fract_z
C1 C -0.08423 0.31656 0.00025
 C2 C -0.06810 0.32146 0.02619
 C3 C -0.03574 0.32374 0.02594
 C4 C -0.01874 0.31912 -0.00004
 C5 C -0.03557 0.31339 -0.02593
 C6 C -0.06805 0.31292 -0.02586
 C7 C 0.01615 0.31925 0.00005
 C8 C 0.03307 0.32395 -0.02594
 C9 C 0.06546 0.32191 -0.02616
 C10 C 0.08165 0.31715 -0.00023
 C11 C 0.06554 0.31342 0.02587
 C12 C 0.03308 0.31367 0.02595
 H13 H -0.10934 0.31500 0.00047
 H14 H -0.02415 0.32878 0.04624
 H15 H -0.02381 0.30859 -0.04622
 H16 H 0.02150 0.32884 -0.04631
 H17 H 0.10675 0.31574 -0.00045
 H18 H 0.02150 0.30882 0.04629
 C19 C 0.41637 0.81769 0.50022
 C20 C 0.43251 0.82247 0.52614
 C21 C 0.46487 0.82458 0.52591
 C22 C 0.48184 0.81999 0.49991
 C23 C 0.46497 0.81441 0.47402
 C24 C 0.43251 0.81405 0.47412
 C25 C 0.51673 0.81997 0.49999
 C26 C 0.53366 0.82461 0.47399
 C27 C 0.56604 0.82246 0.47375
 C28 C 0.58222 0.81760 0.49967
 C29 C 0.56612 0.81392 0.52578
 C30 C 0.53366 0.81431 0.52588
 H31 H 0.39128 0.81620 0.50045
 H32 H 0.47639 0.82946 0.54626
 H33 H 0.47661 0.80965 0.45367
 H34 H 0.52209 0.82956 0.45364
 H35 H 0.60732 0.81609 0.49944
 H36 H 0.52206 0.80951 0.54623
 C37 C 1.08419 0.68347 0.00034
 C38 C 1.06805 0.67862 0.02630
 C39 C 1.03568 0.67634 0.02603
 C40 C 1.01871 0.68090 0.00002
 C41 C 1.03555 0.68660 -0.02588
 C42 C 1.06803 0.68707 -0.02580
 C43 C 0.98382 0.68076 0.00009
 C44 C 0.96691 0.67596 -0.02588
 C45 C 0.93453 0.67798 -0.02613
 C46 C 0.91832 0.68284 -0.00024
 C47 C 0.93441 0.68667 0.02585
 C48 C 0.96686 0.68643 0.02596
 H49 H 1.10930 0.68504 0.00057
 H50 H 1.02408 0.67134 0.04635
 H51 H 1.02380 0.69135 -0.04619
 H52 H 0.97851 0.67100 -0.04621
 H53 H 0.89322 0.68424 -0.00048
 H54 H 0.97844 0.69136 0.04628
 C55 C 0.58364 0.18230 0.50046
 C56 C 0.56750 0.17747 0.52638
 C57 C 0.53514 0.17536 0.52615
 C58 C 0.51816 0.18001 0.50015
 C59 C 0.53504 0.18564 0.47425
 C60 C 0.56750 0.18600 0.47435
 C61 C 0.48327 0.18003 0.50022
 C62 C 0.46634 0.17546 0.47423
 C63 C 0.43397 0.17761 0.47399
 C64 C 0.41778 0.18239 0.49991
 C65 C 0.43388 0.18601 0.52601
 C66 C 0.46635 0.18561 0.52612
 H67 H 0.60872 0.18378 0.50068
 H68 H 0.52362 0.17044 0.54650
 H69 H 0.52340 0.19046 0.45391
 H70 H 0.47791 0.17058 0.45387
 H71 H 0.39268 0.18390 0.49968
 H72 H 0.47794 0.19036 0.54647
 C73 C 0.68293 -0.08288 0.00054
 C74 C 0.67818 -0.06662 0.02644
 C75 C 0.67601 -0.03420 0.02606
 C76 C 0.68060 -0.01734 -0.00001
 C77 C 0.68618 -0.03437 -0.02584
 C78 C 0.68653 -0.06683 -0.02562
 C79 C 0.68064 0.01757 -0.00009
 C80 C 0.67613 0.03449 -0.02618
 C81 C 0.67836 0.06688 -0.02655
 C82 C 0.68309 0.08308 -0.00064
 C83 C 0.68662 0.06699 0.02553
 C84 C 0.68621 0.03453 0.02574
 H85 H 0.68442 -0.10801 0.00077
 H86 H 0.67108 -0.02248 0.04635
 H87 H 0.69096 -0.02285 -0.04623
 H88 H 0.67121 0.02283 -0.04647
 H89 H 0.68464 0.10819 -0.00086
 H90 H 0.69092 0.02295 0.04615
 C91 C 0.18201 0.41756 0.50012
 C92 C 0.17713 0.43361 0.52609
 C93 C 0.17502 0.46600 0.52599
 C94 C 0.17972 0.48308 0.50008
 C95 C 0.18539 0.46629 0.47412
 C96 C 0.18576 0.43382 0.47409
 C97 C 0.17972 0.51797 0.50030
 C98 C 0.17503 0.53510 0.47439
 C99 C 0.17714 0.56747 0.47428
 C100 C 0.18201 0.58347 0.50025
 C101 C 0.18574 0.56718 0.52629
 C102 C 0.18538 0.53470 0.52626
 H103 H 0.18349 0.39245 0.50026
 H104 H 0.17008 0.47747 0.54638
 H105 H 0.19022 0.47802 0.45384
 H106 H 0.17009 0.52368 0.45400
 H107 H 0.18349 0.60857 0.50011
 H108 H 0.19021 0.52293 0.54654
 C109 C 0.31724 1.08293 -0.00033
 C110 C 0.32203 1.06660 0.02554
 C111 C 0.32412 1.03421 0.02520
 C112 C 0.31944 1.01739 -0.00083
 C113 C 0.31382 1.03444 -0.02668
 C114 C 0.31353 1.06694 -0.02651
 C115 C 0.31934 0.98247 -0.00084
 C116 C 0.32382 0.96555 -0.02689
 C117 C 0.32155 0.93316 -0.02718
 C118 C 0.31680 0.91697 -0.00123
 C119 C 0.31330 0.93307 0.02490
 C120 C 0.31376 0.96553 0.02504
 H121 H 0.31580 1.10805 0.00005
 H122 H 0.32903 1.02254 0.04552
 H123 H 0.30898 1.02286 -0.04702
 H124 H 0.32875 0.97719 -0.04720
 H125 H 0.31522 0.89186 -0.00139
 H126 H 0.30908 0.97712 0.04541
 C127 C 0.81803 0.58241 0.49988
 C128 C 0.82292 0.56630 0.52585
 C129 C 0.82504 0.53391 0.52574
 C130 C 0.82033 0.51689 0.49983
 C131 C 0.81464 0.53375 0.47387
 C132 C 0.81427 0.56623 0.47385
 C133 C 0.82033 0.48200 0.50006
 C134 C 0.82499 0.46494 0.47414
 C135 C 0.82287 0.43257 0.47403
 C136 C 0.81802 0.41650 0.50001
 C137 C 0.81432 0.43273 0.52604
 C138 C 0.81469 0.46520 0.52602
 H139 H 0.81654 0.60752 0.50002
 H140 H 0.82999 0.52238 0.54613
 H141 H 0.80980 0.52208 0.45359
 H142 H 0.82992 0.47641 0.45375
 H143 H 0.81653 0.39140 0.49987
 H144 H 0.80988 0.47692 0.54631
 O145 O 0.24076 0.27897 0.21521
 O146 O 0.29724 0.25000 0.26921
 O147 O 0.28418 0.23711 0.21529
 O148 O 0.25519 0.29332 0.26902
 O149 O 0.22105 0.25908 0.28468
 O150 O 0.24998 0.20273 0.23061
 O151 O 0.26296 0.21570 0.28453
 O152 O 0.20662 0.24473 0.23088
 Cu153 Cu 0.27271 0.26839 0.24063
 Cu154 Cu 0.23162 0.22718 0.25923
 C155 C 0.21428 0.26638 0.21369
 C156 C 0.28955 0.22794 0.28601
 C157 C 0.27197 0.21049 0.21379
 C158 C 0.23359 0.28559 0.28622
 O159 O 0.74997 0.79786 0.23030
 O160 O 0.77887 0.74142 0.28442
 O161 O 0.79329 0.75583 0.23060
 O162 O 0.73698 0.78483 0.28424
 O163 O 0.70268 0.75057 0.26896
 O164 O 0.75913 0.72163 0.21498
 O165 O 0.74470 0.70723 0.26880
 O166 O 0.71574 0.76354 0.21501
 Cu167 Cu 0.76831 0.77336 0.25894
 Cu168 Cu 0.72719 0.73221 0.24039
 C169 C 0.72797 0.79014 0.21349
 C170 C 0.76631 0.71492 0.28598
 C171 C 0.78561 0.73420 0.21344
 C172 C 0.71039 0.77259 0.28573
 O173 O 0.79756 0.24979 0.23011
 O174 O 0.74169 0.22088 0.28443
 O175 O 0.75569 0.20675 0.23045
 O176 O 0.78495 0.26247 0.28420
 O177 O 0.75048 0.29715 0.26931
 O178 O 0.72128 0.24129 0.21522
 O179 O 0.70728 0.25542 0.26919
 O180 O 0.76302 0.28439 0.21522
 Cu181 Cu 0.77337 0.23141 0.25880
 Cu182 Cu 0.73196 0.27298 0.24073
 C183 C 0.78964 0.27198 0.21347
 C184 C 0.71518 0.23362 0.28621
 C185 C 0.73390 0.21472 0.21346
 C186 C 0.77266 0.28915 0.28591
 O187 O 0.20235 0.75048 0.23007
 O188 O 0.25827 0.77938 0.28428
 O189 O 0.24425 0.79349 0.23027
 O190 O 0.21499 0.73781 0.28418
 O191 O 0.24943 0.70312 0.26937
 O192 O 0.27864 0.75893 0.21511
 O193 O 0.29266 0.74481 0.26912
 O194 O 0.23687 0.71585 0.21525
 Cu195 Cu 0.22657 0.76886 0.25870
 Cu196 Cu 0.26795 0.72727 0.24072
 C197 C 0.21026 0.72828 0.21348
 C198 C 0.28478 0.76663 0.28608
 C199 C 0.26602 0.78551 0.21329
 C200 C 0.22727 0.71112 0.28596
 O201 O 0.77957 0.25837 0.71600
 O202 O 0.75073 0.20216 0.77009
 O203 O 0.73798 0.21511 0.71607
 O204 O 0.79375 0.24407 0.76995
 O205 O 0.75925 0.27841 0.78531
 O206 O 0.70334 0.24950 0.73110
 O207 O 0.71617 0.23663 0.78512
 O208 O 0.74507 0.29271 0.73136
 Cu209 Cu 0.76908 0.22654 0.74151
 Cu210 Cu 0.72756 0.26787 0.75974
 C211 C 0.76683 0.28490 0.71430
 C212 C 0.72857 0.20999 0.78675
 C213 C 0.71130 0.22741 0.71442
 C214 C 0.78581 0.26576 0.78703
 O215 O 0.29668 0.75029 0.73103
 O216 O 0.24077 0.72139 0.78530
 O217 O 0.25498 0.70707 0.73139
 O218 O 0.28381 0.76321 0.78500
 O219 O 0.24924 0.79765 0.76986
 O220 O 0.22046 0.74137 0.71593
 O221 O 0.20625 0.75570 0.76983
 O222 O 0.26204 0.78466 0.71589
 Cu223 Cu 0.27246 0.73194 0.75971
 Cu224 Cu 0.23092 0.77322 0.74135
 C225 C 0.28872 0.77237 0.71428
 C226 C 0.21420 0.73402 0.78698
 C227 C 0.23322 0.71485 0.71430
 C228 C 0.27139 0.78985 0.78656
 O229 O 0.24959 0.29679 0.73068
 O230 O 0.27880 0.24064 0.78490
 O231 O 0.29306 0.25491 0.73100
 O232 O 0.23677 0.28389 0.78466
 O233 O 0.20255 0.24947 0.76954
 O234 O 0.25898 0.22055 0.71554
 O235 O 0.24472 0.20628 0.76944
 O236 O 0.21545 0.26229 0.71556
 Cu237 Cu 0.26809 0.27245 0.75934
 Cu238 Cu 0.22707 0.23109 0.74099
 C239 C 0.22757 0.28894 0.71396
 C240 C 0.26633 0.21411 0.78657
 C241 C 0.28542 0.23321 0.71391
 C242 C 0.21021 0.27158 0.78623
 O243 O 0.72129 0.75867 0.78461
 O244 O 0.75053 0.70260 0.73045
 O245 O 0.76335 0.71545 0.78442
 O246 O 0.70703 0.74446 0.73073
 O247 O 0.74109 0.77887 0.71523
 O248 O 0.79754 0.74991 0.76925
 O249 O 0.78464 0.73714 0.71529
 O250 O 0.75535 0.79307 0.76910
 Cu251 Cu 0.73202 0.72690 0.75908
 Cu252 Cu 0.77301 0.76831 0.74068
 C253 C 0.73375 0.78521 0.78624
 C254 C 0.77254 0.71049 0.71371
 C255 C 0.78990 0.72778 0.78597
 C256 C 0.71466 0.76620 0.71362
 C257 C 0.32190 0.08309 0.05275
 C258 C 0.31997 0.09737 0.07522
 C259 C 0.31573 0.11497 0.10150
 C260 C 0.29763 0.10297 0.12416
 C261 C 0.29044 0.12138 0.14830
 C262 C 0.30130 0.15188 0.14984
 C263 C 0.32005 0.16362 0.12754
 C264 C 0.32723 0.14521 0.10340
 C265 C 0.29153 0.17183 0.17323
 C266 C 0.28279 0.18913 0.19213
 H267 H 0.28836 0.07972 0.12277
 H268 H 0.27576 0.11214 0.16533
 H269 H 0.32840 0.18724 0.12844
 H270 H 0.34097 0.15483 0.08587
 C271 C 0.82287 0.58298 0.55294
 C272 C 0.82099 0.59738 0.57534
 C273 C 0.81678 0.61508 0.60156
 C274 C 0.79932 0.60284 0.62455
 C275 C 0.79207 0.62128 0.64864
 C276 C 0.80225 0.65204 0.64982
 C277 C 0.82039 0.66402 0.62719
 C278 C 0.82762 0.64558 0.60309
 C279 C 0.79237 0.67195 0.67317
 C280 C 0.78350 0.68921 0.69206
 H281 H 0.79055 0.57938 0.62344
 H282 H 0.77787 0.61186 0.66594
 H283 H 0.82821 0.68784 0.62781
 H284 H 0.84087 0.65537 0.58531
 C285 C 0.67838 0.91773 0.05222
 C286 C 0.68023 0.90345 0.07473
 C287 C 0.68440 0.88583 0.10105
 C288 C 0.70247 0.89780 0.12372
 C289 C 0.70962 0.87936 0.14789
 C290 C 0.69872 0.84887 0.14947
 C291 C 0.67998 0.83717 0.12716
 C292 C 0.67285 0.85561 0.10299
 C293 C 0.70845 0.82888 0.17288
 C294 C 0.71718 0.81154 0.19180
 H295 H 0.71178 0.92103 0.12230
 H296 H 0.72428 0.88856 0.16492
 H297 H 0.67160 0.81356 0.12808
 H298 H 0.65912 0.84602 0.08546
 C299 C 0.17719 0.41685 0.55319
 C300 C 0.17907 0.40239 0.57558
 C301 C 0.18330 0.38462 0.60179
 C302 C 0.17248 0.35410 0.60331
 C303 C 0.17973 0.33559 0.62740
 C304 C 0.19785 0.34752 0.65005
 C305 C 0.20800 0.37829 0.64888
 C306 C 0.20074 0.39680 0.62479
 C307 C 0.20774 0.32756 0.67340
 C308 C 0.21660 0.31026 0.69229
 H309 H 0.15925 0.34435 0.58552
 H310 H 0.17193 0.31176 0.62801
 H311 H 0.22218 0.38768 0.66619
 H312 H 0.20948 0.42028 0.62370
 C313 C 0.91620 0.32133 0.05192
 C314 C 0.90193 0.31954 0.07441
 C315 C 0.88439 0.31545 0.10074
 C316 C 0.85391 0.32661 0.10247
 C317 C 0.83562 0.31952 0.12669
 C318 C 0.84773 0.30122 0.14924
 C319 C 0.87846 0.29072 0.14786
 C320 C 0.89675 0.29782 0.12364
 C321 C 0.82796 0.29150 0.17272
 C322 C 0.81081 0.28278 0.19171
 H323 H 0.84402 0.33999 0.08475
 H324 H 0.81182 0.32759 0.12746
 H325 H 0.88799 0.27639 0.16509
 H326 H 0.92020 0.28882 0.12239
 C327 C 0.41590 0.82233 0.55329
 C328 C 0.40155 0.82040 0.57572
 C329 C 0.38390 0.81616 0.60197
 C330 C 0.39611 0.79828 0.62478
 C331 C 0.37771 0.79108 0.64890
 C332 C 0.34703 0.80172 0.65028
 C333 C 0.33508 0.82026 0.62782
 C334 C 0.35347 0.82745 0.60370
 C335 C 0.32716 0.79196 0.67366
 C336 C 0.30994 0.78320 0.69258
 H337 H 0.41952 0.78918 0.62352
 H338 H 0.38712 0.77658 0.66605
 H339 H 0.31132 0.82845 0.62859
 H340 H 0.34370 0.84103 0.58605
 C341 C 0.08374 0.67880 0.05202
 C342 C 0.09799 0.68063 0.07452
 C343 C 0.11552 0.68477 0.10084
 C344 C 0.10318 0.70251 0.12364
 C345 C 0.12146 0.70964 0.14784
 C346 C 0.15216 0.69906 0.14931
 C347 C 0.16424 0.68064 0.12686
 C348 C 0.14597 0.67353 0.10266
 C349 C 0.17192 0.70877 0.17278
 C350 C 0.18908 0.71749 0.19174
 H351 H 0.07976 0.71158 0.12231
 H352 H 0.11195 0.72405 0.16499
 H353 H 0.18802 0.67251 0.12771
 H354 H 0.15584 0.66006 0.08503
 C355 C 0.58411 0.17755 0.55353
 C356 C 0.59846 0.17944 0.57596
 C357 C 0.61611 0.18365 0.60220
 C358 C 0.64656 0.17240 0.60392
 C359 C 0.66496 0.17957 0.62802
 C360 C 0.65299 0.19805 0.65048
 C361 C 0.62229 0.20864 0.64911
 C362 C 0.60389 0.20146 0.62500
 C363 C 0.67286 0.20782 0.67384
 C364 C 0.69008 0.21657 0.69274
 H365 H 0.65635 0.15888 0.58627
 H366 H 0.68874 0.17142 0.62878
 H367 H 0.61287 0.22310 0.66626
 H368 H 0.58047 0.21053 0.62375
 C369 C 0.67863 0.08254 0.94768
 C370 C 0.68054 0.09683 0.92519
 C371 C 0.68477 0.11446 0.89891
 C372 C 0.70300 0.10240 0.87631
 C373 C 0.71021 0.12084 0.85220
 C374 C 0.69923 0.15141 0.85062
 C375 C 0.68035 0.16319 0.87286
 C376 C 0.67315 0.14476 0.89697
 C377 C 0.70901 0.17135 0.82727
 C378 C 0.71776 0.18865 0.80840
 H379 H 0.71237 0.07910 0.87773
 H380 H 0.72499 0.11156 0.83521
 H381 H 0.67190 0.18687 0.87194
 H382 H 0.65930 0.15442 0.91446
 C383 C 0.17720 0.58421 0.44718
 C384 C 0.17907 0.59861 0.42476
 C385 C 0.18326 0.61627 0.39849
 C386 C 0.17249 0.64691 0.39692
 C387 C 0.17968 0.66525 0.37275
 C388 C 0.19770 0.65303 0.35009
 C389 C 0.20780 0.62215 0.35131
 C390 C 0.20060 0.60380 0.37548
 C391 C 0.20753 0.67281 0.32665
 C392 C 0.21635 0.68996 0.30769
 H393 H 0.15934 0.65687 0.41473
 H394 H 0.17192 0.68916 0.37210
 H395 H 0.22191 0.61254 0.33399
 H396 H 0.20930 0.58023 0.37661
 C397 C 0.32127 0.91749 0.94710
 C398 C 0.31935 0.90318 0.92465
 C399 C 0.31512 0.88553 0.89842
 C400 C 0.32680 0.85524 0.89655
 C401 C 0.31961 0.83678 0.87250
 C402 C 0.30068 0.84852 0.85024
 C403 C 0.28965 0.87907 0.85175
 C404 C 0.29685 0.89754 0.87580
 C405 C 0.29092 0.82854 0.82696
 C406 C 0.28219 0.81121 0.80814
 H407 H 0.34068 0.84562 0.91405
 H408 H 0.32810 0.81312 0.87164
 H409 H 0.27484 0.88831 0.83475
 H410 H 0.28744 0.92082 0.87716
 C411 C 0.82280 0.41589 0.44693
 C412 C 0.82091 0.40155 0.42451
 C413 C 0.81671 0.38395 0.39826
 C414 C 0.79920 0.39639 0.37531
 C415 C 0.79199 0.37807 0.35117
 C416 C 0.80225 0.34724 0.34990
 C417 C 0.82043 0.33506 0.37249
 C418 C 0.82763 0.35337 0.39664
 C419 C 0.79241 0.32747 0.32650
 C420 C 0.78358 0.31032 0.30758
 H421 H 0.79038 0.41991 0.37648
 H422 H 0.77776 0.38766 0.33390
 H423 H 0.82832 0.31118 0.37181
 H424 H 0.84091 0.34342 0.41439
 C425 C 0.08208 0.32181 0.94669
 C426 C 0.09647 0.31988 0.92428
 C427 C 0.11421 0.31562 0.89807
 C428 C 0.10227 0.29761 0.87535
 C429 C 0.12081 0.29036 0.85131
 C430 C 0.15136 0.30108 0.84991
 C431 C 0.16302 0.31976 0.87227
 C432 C 0.14449 0.32700 0.89632
 C433 C 0.17141 0.29125 0.82664
 C434 C 0.18879 0.28245 0.80781
 H435 H 0.07899 0.28843 0.87663
 H436 H 0.11163 0.27574 0.83422
 H437 H 0.18668 0.32802 0.87149
 H438 H 0.15405 0.34068 0.91389
 C439 C 0.58264 0.82237 0.44660
 C440 C 0.59699 0.82047 0.42416
 C441 C 0.61466 0.81627 0.39790
 C442 C 0.60267 0.79831 0.37517
 C443 C 0.62113 0.79115 0.35106
 C444 C 0.65166 0.80190 0.34960
 C445 C 0.66339 0.82053 0.37197
 C446 C 0.64493 0.82768 0.39609
 C447 C 0.67165 0.79215 0.32624
 C448 C 0.68899 0.78341 0.30736
 H449 H 0.57939 0.78911 0.37649
 H450 H 0.61191 0.77657 0.33397
 H451 H 0.68703 0.82880 0.37114
 H452 H 0.65454 0.84132 0.41367
 C453 C 0.91793 0.67797 0.94671
 C454 C 0.90356 0.67982 0.92428
 C455 C 0.88584 0.68398 0.89803
 C456 C 0.89780 0.70190 0.87522
 C457 C 0.87928 0.70908 0.85113
 C458 C 0.84872 0.69838 0.84978
 C459 C 0.83703 0.67978 0.87224
 C460 C 0.85555 0.67262 0.89633
 C461 C 0.82869 0.70816 0.82646
 C462 C 0.81131 0.71693 0.80760
 H463 H 0.92109 0.71107 0.87646
 H464 H 0.88848 0.72363 0.83398
 H465 H 0.81337 0.67155 0.87150
 H466 H 0.84597 0.65901 0.91398
 C467 C 0.41736 0.17778 0.44683
 C468 C 0.40302 0.17973 0.42439
 C469 C 0.38534 0.18401 0.39814
 C470 C 0.35511 0.17252 0.39629
 C471 C 0.33664 0.17974 0.37218
 C472 C 0.34832 0.19850 0.34985
 C473 C 0.37882 0.20934 0.35134
 C474 C 0.39729 0.20211 0.37545
 C475 C 0.32832 0.20831 0.32650
 C476 C 0.31097 0.21709 0.30763
 H477 H 0.34553 0.15877 0.41384
 H478 H 0.31302 0.17140 0.37133
 H479 H 0.38801 0.22402 0.33428
 H480 H 0.42054 0.21137 0.37680
 C481 C 0.69123 0.91607 0.94782
 C482 C 0.69497 0.90110 0.92593
 C483 C 0.69944 0.88250 0.90025
 C484 C 0.68221 0.85535 0.89644
 C485 C 0.68758 0.83638 0.87227
 C486 C 0.71017 0.84449 0.85177
 C487 C 0.72709 0.87187 0.85535
 C488 C 0.72172 0.89085 0.87953
 C489 C 0.71726 0.82390 0.82801
 C490 C 0.72415 0.80635 0.80862
 H491 H 0.66499 0.84862 0.91238
 H492 H 0.67450 0.81517 0.86982
 H493 H 0.74475 0.87827 0.83973
 H494 H 0.73524 0.91173 0.88230
 C495 C 0.19062 0.41690 0.44744
 C496 C 0.19450 0.40200 0.42552
 C497 C 0.19912 0.38343 0.39984
 C498 C 0.18078 0.35718 0.39517
 C499 C 0.18627 0.33813 0.37106
 C500 C 0.21011 0.34525 0.35150
 C501 C 0.22816 0.37176 0.35595
 C502 C 0.22267 0.39081 0.38006
 C503 C 0.21720 0.32453 0.32784
 C504 C 0.22407 0.30687 0.30852
 H505 H 0.16258 0.35119 0.41038
 H506 H 0.17229 0.31760 0.36795
 H507 H 0.24678 0.37739 0.34106
 H508 H 0.23707 0.41098 0.38351
 C509 C 0.30905 0.08317 0.94834
 C510 C 0.30526 0.09813 0.92641
 C511 C 0.30074 0.11671 0.90069
 C512 C 0.31819 0.14369 0.89665
 C513 C 0.31279 0.16267 0.87244
 C514 C 0.28993 0.15474 0.85215
 C515 C 0.27279 0.12753 0.85598
 C516 C 0.27819 0.10854 0.88019
 C517 C 0.28283 0.17536 0.82837
 C518 C 0.27592 0.19293 0.80896
 H519 H 0.33562 0.15028 0.91242
 H520 H 0.32605 0.18375 0.86981
 H521 H 0.25492 0.12127 0.84053
 H522 H 0.26449 0.08780 0.88315
 C523 C 0.80939 0.58321 0.44721
 C524 C 0.80550 0.59817 0.42529
 C525 C 0.80085 0.61682 0.39962
 C526 C 0.77733 0.60945 0.37981
 C527 C 0.77182 0.62856 0.35571
 C528 C 0.78982 0.65512 0.35129
 C529 C 0.81363 0.66224 0.37087
 C530 C 0.81913 0.64312 0.39497
 C531 C 0.78271 0.67590 0.32762
 C532 C 0.77584 0.69360 0.30830
 H533 H 0.76297 0.58924 0.38324
 H534 H 0.75323 0.62294 0.34081
 H535 H 0.82756 0.68280 0.36778
 H536 H 0.83731 0.64911 0.41020
 C537 C 0.08407 0.69159 0.94899
 C538 C 0.09888 0.69540 0.92701
 C539 C 0.11731 0.69992 0.90124
 C540 C 0.10931 0.72304 0.88111
 C541 C 0.12818 0.72842 0.85687
 C542 C 0.15511 0.71069 0.85264
 C543 C 0.16287 0.68728 0.87255
 C544 C 0.14400 0.68190 0.89678
 C545 C 0.17562 0.71772 0.82883
 C546 C 0.19311 0.72454 0.80940
 H547 H 0.08880 0.73718 0.88439
 H548 H 0.12206 0.74672 0.84172
 H549 H 0.18373 0.67356 0.86960
 H550 H 0.15047 0.66403 0.91226
 C551 C 0.58449 0.19081 0.44775
 C552 C 0.59941 0.19464 0.42585
 C553 C 0.61797 0.19923 0.40017
 C554 C 0.60993 0.22224 0.37995
 C555 C 0.62890 0.22768 0.35579
 C556 C 0.65597 0.21013 0.35173
 C557 C 0.66377 0.18682 0.37174
 C558 C 0.64481 0.18138 0.39589
 C559 C 0.67655 0.21722 0.32799
 C560 C 0.69408 0.22409 0.30861
 H561 H 0.58930 0.23625 0.38309
 H562 H 0.62274 0.24590 0.34056
 H563 H 0.68474 0.17324 0.36892
 H564 H 0.65131 0.16360 0.41144
 C565 C 0.91592 0.30835 0.94893
 C566 C 0.90111 0.30451 0.92697
 C567 C 0.88269 0.29994 0.90121
 C568 C 0.85613 0.31811 0.89656
 C569 C 0.83727 0.31270 0.87234
 C570 C 0.84490 0.28910 0.85264
 C571 C 0.87171 0.27122 0.85705
 C572 C 0.89057 0.27663 0.88128
 C573 C 0.82439 0.28206 0.82884
 C574 C 0.80690 0.27524 0.80943
 H575 H 0.84976 0.33612 0.91189
 H576 H 0.81651 0.32653 0.86925
 H577 H 0.87773 0.25279 0.84205
 H578 H 0.91098 0.26237 0.88470
 C579 C 0.41552 0.80929 0.44752
 C580 C 0.40060 0.80549 0.42562
 C581 C 0.38205 0.80095 0.39994
 C582 C 0.39011 0.77800 0.37972
 C583 C 0.37114 0.77258 0.35557
 C584 C 0.34403 0.79010 0.35152
 C585 C 0.33621 0.81335 0.37152
 C586 C 0.35518 0.81877 0.39566
 C587 C 0.32344 0.78302 0.32780
 C588 C 0.30590 0.77616 0.30844
 H589 H 0.41076 0.76401 0.38285
 H590 H 0.37732 0.75441 0.34034
 H591 H 0.31522 0.82691 0.36872
 H592 H 0.34866 0.83651 0.41121
 C593 C 0.30860 0.91604 0.05151
 C594 C 0.30486 0.90111 0.07344
 C595 C 0.30038 0.88256 0.09916
 C596 C 0.31775 0.85534 0.10312
 C597 C 0.31238 0.83641 0.12732
 C598 C 0.28963 0.84462 0.14770
 C599 C 0.27257 0.87208 0.14396
 C600 C 0.27794 0.89102 0.11975
 C601 C 0.28253 0.82408 0.17148
 C602 C 0.27563 0.80658 0.19089
 H603 H 0.33509 0.84853 0.08728
 H604 H 0.32556 0.81514 0.12989
 H605 H 0.25478 0.87856 0.15948
 H606 H 0.26431 0.91195 0.11686
 C607 C 0.80950 0.41580 0.55271
 C608 C 0.80566 0.40092 0.57465
 C609 C 0.80107 0.38238 0.60038
 C610 C 0.77769 0.39011 0.62028
 C611 C 0.77226 0.37113 0.64446
 C612 C 0.79019 0.34435 0.64884
 C613 C 0.81386 0.33686 0.62916
 C614 C 0.81930 0.35584 0.60499
 C615 C 0.78313 0.32371 0.67258
 C616 C 0.77630 0.30611 0.69195
 H617 H 0.76339 0.41051 0.61688
 H618 H 0.75376 0.37704 0.65944
 H619 H 0.82774 0.31612 0.63223
 H620 H 0.83737 0.34958 0.58969
 C621 C 0.69131 0.08404 0.05209
 C622 C 0.69504 0.09898 0.07397
 C623 C 0.69951 0.11756 0.09963
 C624 C 0.72187 0.10906 0.12031
 C625 C 0.72724 0.12803 0.14446
 C626 C 0.71028 0.15555 0.14805
 C627 C 0.68762 0.16381 0.12759
 C628 C 0.68224 0.14485 0.10344
 C629 C 0.71738 0.17612 0.17177
 C630 C 0.72429 0.19363 0.19112
 H631 H 0.73543 0.08807 0.11754
 H632 H 0.74496 0.12151 0.16005
 H633 H 0.67450 0.18513 0.13003
 H634 H 0.66497 0.15170 0.08754
 C635 C 0.19058 0.58404 0.55294
 C636 C 0.19444 0.59888 0.57488
 C637 C 0.19903 0.61737 0.60059
 C638 C 0.22274 0.60989 0.62025
 C639 C 0.22818 0.62886 0.64440
 C640 C 0.20992 0.65537 0.64900
 C641 C 0.18592 0.66259 0.62956
 C642 C 0.18048 0.64363 0.60542
 C643 C 0.21695 0.67601 0.67269
 C644 C 0.22377 0.69362 0.69201
 H645 H 0.23730 0.58972 0.61668
 H646 H 0.24692 0.62315 0.65918
 H647 H 0.17178 0.68313 0.63279
 H648 H 0.16216 0.64969 0.59030
 C649 C 0.91733 0.69149 0.05242
 C650 C 0.90234 0.69532 0.07429
 C651 C 0.88367 0.69989 0.09993
 C652 C 0.85714 0.68186 0.10429
 C653 C 0.83803 0.68729 0.12837
 C654 C 0.84538 0.71076 0.14822
 C655 C 0.87216 0.72849 0.14409
 C656 C 0.89127 0.72306 0.12000
 C657 C 0.82462 0.71782 0.17187
 C658 C 0.80693 0.72468 0.19116
 H659 H 0.85098 0.66395 0.08884
 H660 H 0.81730 0.67357 0.13124
 H661 H 0.87797 0.74683 0.15921
 H662 H 0.91166 0.73721 0.11680
 C663 C 0.41684 0.19075 0.55262
 C664 C 0.40188 0.19454 0.57452
 C665 C 0.38326 0.19905 0.60019
 C666 C 0.35671 0.18106 0.60454
 C667 C 0.33765 0.18644 0.62867
 C668 C 0.34508 0.20984 0.64858
 C669 C 0.37188 0.22754 0.64445
 C670 C 0.39093 0.22215 0.62032
 C671 C 0.32437 0.21687 0.67227
 C672 C 0.30671 0.22371 0.69160
 H673 H 0.35049 0.16320 0.58906
 H674 H 0.31690 0.17275 0.63153
 H675 H 0.37774 0.24582 0.65961
 H676 H 0.41134 0.23628 0.61712
 C677 C 0.08259 0.30870 0.05248
 C678 C 0.09758 0.30494 0.07438
 C679 C 0.11623 0.30047 0.10004
 C680 C 0.10859 0.27740 0.12026
 C681 C 0.12769 0.27204 0.14438
 C682 C 0.15451 0.28973 0.14840
 C683 C 0.16190 0.31310 0.12840
 C684 C 0.14280 0.31846 0.10429
 C685 C 0.17527 0.28271 0.17207
 C686 C 0.19296 0.27588 0.19139
 H687 H 0.08817 0.26327 0.11715
 H688 H 0.12185 0.25378 0.15961
 H689 H 0.18266 0.32679 0.13118
 H690 H 0.14899 0.33629 0.08873
 C691 C 0.58316 0.80909 0.55238
 C692 C 0.59812 0.80524 0.57428
 C693 C 0.61674 0.80064 0.59995
 C694 C 0.60916 0.77738 0.61999
 C695 C 0.62823 0.77192 0.64412
 C696 C 0.65495 0.78971 0.64832
 C697 C 0.66228 0.81327 0.62850
 C698 C 0.64321 0.81873 0.60438
 C699 C 0.67568 0.78261 0.67200
 C700 C 0.69335 0.77574 0.69132
 H701 H 0.58882 0.76318 0.61674
 H702 H 0.62244 0.75351 0.65921
 H703 H 0.68297 0.82704 0.63142
 H704 H 0.64935 0.83671 0.58896
   
