data_POSCAR
  _audit_creation_date              2014-09-24
  _audit_creation_method            'ToBaCCo'
  _symmetry_space_group_name_H-M    'P1'
  _symmetry_Int_Tables_number       1
  _symmetry_cell_setting            triclinic
  loop_
  _symmetry_equiv_pos_as_xyz
 x,y,z
_cell_length_a 27.7623
_cell_length_b 29.3690
_cell_length_c 45.0687
_cell_angle_alpha 90.120500
_cell_angle_beta 91.821500
_cell_angle_gamma 88.442000
loop_
  _atom_site_label
  _atom_site_type_symbol
  _atom_site_fract_x
  _atom_site_fract_y
  _atom_site_fract_z
C1 C 0.04315 0.36365 0.98393
 C2 C 0.04879 0.36265 1.01423
 C3 C 0.03569 0.40574 1.02441
 N4 N 0.02378 0.43339 1.00122
 C5 C 0.02837 0.40769 0.97648
 C6 C 0.03168 0.41844 1.05461
 C7 C 0.02659 0.46480 1.06304
 C8 C 0.00515 0.48000 1.08874
 C9 C 0.00785 0.52657 1.08898
 C10 C 0.03137 0.53872 1.06356
 N11 N 0.04202 0.50082 1.04758
 C12 C 0.04324 0.58385 1.05591
 C13 C 0.05292 0.59547 1.02626
 C14 C 0.07676 0.63391 1.01759
 C15 C 0.07475 0.63441 0.98716
 C16 C 0.04998 0.59615 0.97825
 N17 N 0.03697 0.57216 1.00216
 C18 C 0.03612 0.58579 0.94862
 C19 C 0.01970 0.54234 0.94027
 C20 C -0.00415 0.53208 0.91368
 C21 C -0.01006 0.48567 0.91339
 C22 C 0.01004 0.46903 0.93990
 N23 N 0.02817 0.50375 0.95608
 C24 C 0.01522 0.42256 0.94753
 H25 H 0.04925 0.33512 0.96918
 H26 H 0.06063 0.33328 1.02724
 H27 H 0.05005 0.50064 0.97519
 H28 H -0.01164 0.45969 1.10533
 H29 H -0.00659 0.54891 1.10582
 H30 H 0.09361 0.65911 1.03176
 H31 H 0.08957 0.66014 0.97321
 H32 H -0.02647 0.46637 0.89546
 H33 H 0.06246 0.49923 1.02858
 H34 H -0.01553 0.55544 0.89613
 C35 C 0.63926 -0.02868 0.51194
 C36 C 0.63662 -0.04032 0.48252
 C37 C 0.58986 -0.02988 0.47252
 N38 N 0.56369 -0.01269 0.49497
 C39 C 0.59397 -0.01182 0.51907
 C40 C 0.57261 -0.03443 0.44278
 C41 C 0.52274 -0.03190 0.43502
 C42 C 0.50387 -0.02261 0.40671
 C43 C 0.45469 -0.02390 0.40824
 C44 C 0.44468 -0.03361 0.43746
 N45 N 0.48635 -0.03846 0.45370
 C46 C 0.39782 -0.03927 0.44796
 C47 C 0.38696 -0.03702 0.47830
 C48 C 0.34250 -0.04621 0.48968
 C49 C 0.34533 -0.03530 0.51927
 C50 C 0.39157 -0.02006 0.52503
 N51 N 0.41687 -0.02103 0.49990
 C52 C 0.40801 -0.00138 0.55232
 C53 C 0.45630 0.01100 0.55816
 C54 C 0.47184 0.03715 0.58209
 C55 C 0.52112 0.03983 0.58045
 C56 C 0.53439 0.01495 0.55569
 N57 N 0.49473 -0.00275 0.54237
 C58 C 0.58236 0.00697 0.54693
 H59 H 0.67095 -0.03227 0.52645
 H60 H 0.66582 -0.05485 0.46992
 H61 H 0.49458 -0.02666 0.52535
 H62 H 0.52344 -0.01504 0.38701
 H63 H 0.42919 -0.01787 0.38991
 H64 H 0.31097 -0.05850 0.47777
 H65 H 0.31624 -0.03739 0.53459
 H66 H 0.54451 0.05776 0.59588
 H67 H 0.48995 -0.04984 0.47553
 H68 H 0.45003 0.05256 0.59909
 C69 C 0.07471 0.00509 0.25610
 H70 H 0.08169 0.00140 0.23272
 C71 C 0.11319 0.00787 0.27677
 H72 H 0.14989 0.00595 0.26931
 C73 C 0.01854 0.01332 0.29440
 H74 H -0.01829 0.01602 0.30130
 C75 C 0.05576 0.01723 0.31563
 H76 H 0.04723 0.02214 0.33873
 N77 N 0.02846 0.00686 0.26528
 C78 C -0.06155 -0.06025 0.19790
 H79 H -0.09263 -0.03725 0.19832
 C80 C -0.06135 -0.09720 0.17841
 H81 H -0.09289 -0.10282 0.16428
 C82 C 0.01724 -0.08043 0.21586
 H83 H 0.04785 -0.07384 0.23042
 C84 C 0.01913 -0.11766 0.19653
 H85 H 0.05171 -0.13873 0.19615
 Zn86 Zn -0.02399 0.00337 0.23745
 N87 N -0.02209 -0.05175 0.21547
 C88 C -0.02061 0.04555 0.18128
 N89 N -0.02132 0.05337 0.21103
 C90 C -0.01960 0.09644 0.22213
 C91 C -0.01984 0.13385 0.20297
 C92 C -0.02065 0.08183 0.16140
 C93 C -0.09199 -0.03204 0.27457
 C94 C -0.13005 -0.03087 0.29407
 C95 C -0.14794 0.04701 0.27935
 C96 C -0.11006 0.04411 0.25975
 N97 N -0.08198 0.00550 0.25848
 H98 H -0.02017 0.01119 0.17279
 H99 H -0.01898 0.10174 0.24590
 H100 H -0.02014 0.16792 0.21220
 H101 H -0.02015 0.07474 0.13783
 H102 H -0.06898 -0.06224 0.27318
 H103 H -0.13636 -0.06035 0.30767
 H104 H -0.16887 0.07852 0.28107
 H105 H -0.10210 0.07335 0.24652
 C106 C -0.02010 -0.12579 0.17694
 C107 C 0.10369 0.01414 0.30691
 C108 C -0.15753 0.00950 0.29723
 C109 C -0.02113 0.12674 0.17212
 C110 C -0.01648 0.09845 0.77577
 H111 H -0.04405 0.09771 0.75831
 C112 C -0.00816 0.13904 0.79111
 H113 H -0.02968 0.16927 0.78544
 C114 C 0.04645 0.06065 0.80361
 H115 H 0.06770 0.02991 0.80819
 C116 C 0.05622 0.10052 0.81930
 H117 H 0.08471 0.10008 0.83628
 N118 N 0.01074 0.06033 0.78226
 C119 C 0.06016 -0.04397 0.72074
 H120 H 0.03309 -0.06953 0.72266
 C121 C 0.09981 -0.05230 0.70299
 H122 H 0.10250 -0.08414 0.69093
 C123 C 0.08903 0.02872 0.73392
 H124 H 0.08477 0.06032 0.74599
 C125 C 0.12929 0.02175 0.71651
 H126 H 0.15592 0.04794 0.71578
 Zn127 Zn 0.00234 0.00531 0.76107
 N128 N 0.05558 -0.00406 0.73591
 C129 C -0.05688 -0.00089 0.70833
 N130 N -0.05672 0.00821 0.73798
 C131 C -0.09852 0.01900 0.75173
 C132 C -0.14275 0.01784 0.73616
 C133 C -0.10031 -0.00159 0.69177
 C134 C 0.04062 -0.07217 0.79241
 C135 C 0.04094 -0.10773 0.81303
 C136 C -0.03907 -0.08357 0.82669
 C137 C -0.03761 -0.04825 0.80613
 N138 N 0.00148 -0.04344 0.78908
 H139 H -0.02348 -0.00815 0.69744
 H140 H -0.09771 0.02899 0.77478
 H141 H -0.17571 0.02566 0.74758
 H142 H -0.09995 -0.00994 0.66836
 H143 H 0.07214 -0.06713 0.77951
 H144 H 0.07284 -0.12954 0.81563
 H145 H -0.07126 -0.08716 0.83932
 H146 H -0.06795 -0.02484 0.80397
 C147 C 0.13524 -0.01929 0.70081
 C148 C 0.02883 0.14044 0.81306
 C149 C 0.00058 -0.11394 0.83049
 C150 C -0.14395 0.00688 0.70589
 C151 C 0.01971 -0.33884 0.07187
 C152 C 0.01689 -0.30509 0.09383
 C153 C 0.03737 -0.31351 0.12245
 C154 C 0.06070 -0.35553 0.12851
 C155 C 0.06320 -0.38911 0.10655
 C156 C 0.04251 -0.38146 0.07795
 C157 C 0.03392 -0.27993 0.14456
 C158 C 0.01015 -0.23805 0.13836
 C159 C -0.01018 -0.22972 0.10965
 C160 C -0.00668 -0.26323 0.08760
 C161 C -0.03369 -0.18790 0.10341
 C162 C -0.03704 -0.15450 0.12535
 C163 C -0.01721 -0.16226 0.15407
 C164 C 0.00637 -0.20433 0.16039
 H165 H 0.00239 -0.33250 0.05031
 H166 H 0.07689 -0.36251 0.15028
 H167 H 0.08196 -0.42103 0.11184
 H168 H 0.04958 -0.28642 0.16656
 H169 H -0.02241 -0.25677 0.06561
 H170 H -0.04923 -0.18088 0.08148
 H171 H -0.05446 -0.12214 0.11960
 H172 H 0.02144 -0.21100 0.18249
 C173 C 0.00116 0.34580 0.07235
 C174 C 0.00070 0.31121 0.09369
 C175 C 0.02895 0.31489 0.12018
 C176 C 0.05642 0.35369 0.12508
 C177 C 0.05671 0.38806 0.10369
 C178 C 0.02989 0.38422 0.07674
 C179 C 0.02948 0.27965 0.14119
 C180 C 0.00209 0.24078 0.13600
 C181 C -0.02677 0.23758 0.10968
 C182 C -0.02737 0.27281 0.08876
 C183 C -0.05427 0.19894 0.10453
 C184 C -0.05273 0.16337 0.12502
 C185 C -0.02357 0.16563 0.15106
 C186 C 0.00345 0.20480 0.15653
 H187 H -0.02144 0.34307 0.05238
 H188 H 0.07815 0.35722 0.14531
 H189 H 0.07929 0.41707 0.10781
 H190 H 0.05147 0.28230 0.16142
 H191 H -0.04923 0.27010 0.06847
 H192 H -0.07683 0.19610 0.08458
 H193 H -0.07466 0.13407 0.12054
 H194 H 0.02637 0.20683 0.17638
 C195 C 0.35532 -0.02582 0.59311
 C196 C 0.31689 -0.01727 0.61206
 C197 C 0.29507 0.02681 0.61308
 C198 C 0.31249 0.06166 0.59544
 C199 C 0.35028 0.05267 0.57637
 C200 C 0.37158 0.00893 0.57493
 C201 C 0.25563 0.03511 0.63121
 C202 C 0.23735 -0.00015 0.64815
 C203 C 0.25940 -0.04409 0.64733
 C204 C 0.29915 -0.05233 0.62941
 C205 C 0.24095 -0.07922 0.66424
 C206 C 0.20080 -0.07108 0.68161
 C207 C 0.17822 -0.02765 0.68243
 C208 C 0.19698 0.00773 0.66564
 H209 H 0.37158 -0.05971 0.59169
 H210 H 0.29621 0.09560 0.59594
 H211 H 0.36236 0.07959 0.56223
 H212 H 0.23874 0.06884 0.63182
 H213 H 0.31581 -0.08613 0.62863
 H214 H 0.25752 -0.11305 0.66400
 H215 H 0.18771 -0.09877 0.69469
 H216 H 0.17964 0.04124 0.66572
 C217 C -0.36994 -0.00140 0.59506
 C218 C -0.32851 0.00714 0.61272
 C219 C -0.29383 0.03730 0.60242
 C220 C -0.30207 0.05977 0.57526
 C221 C -0.34340 0.05124 0.55794
 C222 C -0.37704 0.01990 0.56734
 C223 C -0.25106 0.04385 0.61911
 C224 C -0.24252 0.02082 0.64607
 C225 C -0.27795 -0.00802 0.65693
 C226 C -0.32064 -0.01479 0.64015
 C227 C -0.26977 -0.03011 0.68425
 C228 C -0.22657 -0.02437 0.70040
 C229 C -0.19056 0.00304 0.68935
 C230 C -0.19887 0.02581 0.66222
 H231 H -0.39586 -0.02562 0.60235
 H232 H -0.27610 0.08325 0.56714
 H233 H -0.34856 0.06809 0.53667
 H234 H -0.22415 0.06637 0.61092
 H235 H -0.34739 -0.03756 0.64824
 H236 H -0.29659 -0.05213 0.69300
 H237 H -0.22071 -0.04226 0.72125
 H238 H -0.17137 0.04741 0.65378
 C239 C 0.01313 -0.33557 0.93059
 C240 C 0.01529 -0.30026 0.90981
 C241 C 0.04059 -0.30740 0.88339
 C242 C 0.06392 -0.34960 0.87847
 C243 C 0.06251 -0.38426 0.89963
 C244 C 0.03710 -0.37757 0.92582
 C245 C 0.04242 -0.27217 0.86247
 C246 C 0.02001 -0.22965 0.86791
 C247 C -0.00447 -0.22240 0.89462
 C248 C -0.00703 -0.25782 0.91526
 C249 C -0.02593 -0.17972 0.90033
 C250 C -0.02358 -0.14454 0.87971
 C251 C -0.00024 -0.15137 0.85272
 C252 C 0.02170 -0.19421 0.84708
 H253 H -0.00673 -0.33031 0.95070
 H254 H 0.08366 -0.35564 0.85842
 H255 H 0.08144 -0.41632 0.89567
 H256 H 0.06155 -0.27773 0.84210
 H257 H -0.02606 -0.25224 0.93566
 H258 H -0.04440 -0.17346 0.92083
 H259 H -0.03980 -0.11175 0.88509
 H260 H 0.03943 -0.20028 0.82631
 C261 C 0.04194 0.36369 0.91089
 C262 C 0.03188 0.32677 0.89207
 C263 C -0.01651 0.31449 0.88643
 C264 C -0.05397 0.33969 0.89945
 C265 C -0.04353 0.37572 0.91866
 C266 C 0.00437 0.38756 0.92472
 C267 C -0.02661 0.27653 0.86857
 C268 C 0.01108 0.25007 0.85680
 C269 C 0.05941 0.26251 0.86233
 C270 C 0.06947 0.30104 0.87965
 C271 C 0.09700 0.23561 0.85094
 C272 C 0.08692 0.19625 0.83473
 C273 C 0.03908 0.18323 0.82935
 C274 C 0.00124 0.21073 0.84015
 H275 H 0.07894 0.37278 0.91581
 H276 H -0.09122 0.33077 0.89539
 H277 H -0.07273 0.39387 0.92934
 H278 H -0.06368 0.26695 0.86443
 H279 H 0.10657 0.31034 0.88406
 H280 H 0.13423 0.24470 0.85488
 H281 H 0.11663 0.17595 0.82627
 H282 H -0.03576 0.20074 0.83637
 C283 C -0.35630 -0.00790 0.41778
 C284 C -0.32450 -0.01063 0.39426
 C285 C -0.32902 -0.04579 0.37297
 C286 C -0.36608 -0.07694 0.37517
 C287 C -0.39858 -0.07315 0.39814
 C288 C -0.39387 -0.03887 0.41987
 C289 C -0.29676 -0.04892 0.34965
 C290 C -0.26088 -0.01659 0.34695
 C291 C -0.25744 0.01942 0.36775
 C292 C -0.28885 0.02184 0.39146
 C293 C -0.22259 0.05252 0.36449
 C294 C -0.19105 0.04976 0.34103
 C295 C -0.19336 0.01355 0.32069
 C296 C -0.22841 -0.01956 0.32372
 H297 H -0.35304 0.01949 0.43385
 H298 H -0.37025 -0.10398 0.35897
 H299 H -0.42702 -0.09757 0.39929
 H300 H -0.29987 -0.07621 0.33350
 H301 H -0.28583 0.04919 0.40758
 H302 H -0.21960 0.08043 0.38015
 H303 H -0.16392 0.07534 0.33917
 H304 H -0.23045 -0.04739 0.30792
 C305 C 0.32226 -0.00878 0.42268
 C306 C 0.28625 -0.01091 0.40023
 C307 C 0.28573 -0.04838 0.38045
 C308 C 0.32084 -0.08341 0.38380
 C309 C 0.35654 -0.08102 0.40626
 C310 C 0.35764 -0.04362 0.42568
 C311 C 0.25033 -0.05009 0.35758
 C312 C 0.21521 -0.01502 0.35442
 C313 C 0.21542 0.02211 0.37450
 C314 C 0.25109 0.02404 0.39715
 C315 C 0.17967 0.05659 0.37173
 C316 C 0.14367 0.05411 0.34951
 C317 C 0.14327 0.01754 0.32940
 C318 C 0.17942 -0.01674 0.33175
 H319 H 0.32343 0.02030 0.43753
 H320 H 0.32095 -0.11241 0.36889
 H321 H 0.38385 -0.10798 0.40828
 H322 H 0.25004 -0.07871 0.34232
 H323 H 0.25137 0.05265 0.41241
 H324 H 0.17925 0.08522 0.38694
 H325 H 0.11604 0.08083 0.34794
 H326 H 0.17880 -0.04530 0.31647
   
