data_POSCAR
  _audit_creation_date              2014-09-24
  _audit_creation_method            'ToBaCCo'
  _symmetry_space_group_name_H-M    'P1'
  _symmetry_Int_Tables_number       1
  _symmetry_cell_setting            triclinic
  loop_
  _symmetry_equiv_pos_as_xyz
 x,y,z
_cell_length_a 17.9872
_cell_length_b 17.8989
_cell_length_c 29.2343
_cell_angle_alpha 79.530400
_cell_angle_beta 95.749900
_cell_angle_gamma 90.183000
loop_
  _atom_site_label
  _atom_site_type_symbol
  _atom_site_fract_x
  _atom_site_fract_y
  _atom_site_fract_z
O1 O -0.08117 0.59595 0.93986
 O2 O -0.12038 0.42235 1.02411
 O3 O -0.11265 0.56715 1.02694
 O4 O -0.09601 0.45027 0.93697
 O5 O 0.02350 0.42955 0.96154
 O6 O 0.00934 0.55734 1.04599
 O7 O -0.00035 0.41245 1.04924
 O8 O 0.03949 0.57448 0.95992
 Cu9 Cu -0.11473 0.51091 0.97959
 Cu10 Cu 0.03003 0.49189 1.00628
 C11 C -0.01345 0.61405 0.93535
 C12 C -0.06651 0.38831 1.05146
 C13 C -0.05438 0.58280 1.05147
 C14 C -0.03396 0.41814 0.93479
 O15 O 0.60255 -0.06386 0.56186
 O16 O 0.45319 -0.09316 0.47284
 O17 O 0.59742 -0.07610 0.47402
 O18 O 0.45901 -0.07165 0.55870
 O19 O 0.44914 0.05301 0.53714
 O20 O 0.58131 0.04750 0.44992
 O21 O 0.43572 0.03078 0.45137
 O22 O 0.59401 0.06020 0.53753
 Cu23 Cu 0.52937 -0.08857 0.51895
 Cu24 Cu 0.51377 0.06031 0.49149
 C25 C 0.62452 0.00262 0.56496
 C26 C 0.41764 -0.03683 0.44768
 C27 C 0.61314 -0.01467 0.44761
 C28 C 0.43109 -0.00818 0.56259
 C29 C -0.01627 -0.12992 0.22603
 C30 C -0.07902 -0.14238 0.25826
 C31 C -0.08491 -0.08667 0.28402
 C32 C -0.02726 -0.02303 0.27490
 C33 C -0.03193 -0.05081 0.19651
 C34 C -0.03738 0.00491 0.22187
 C35 C 0.05390 -0.12129 0.25910
 C36 C 0.04913 -0.06462 0.28416
 H37 H -0.11608 -0.19034 0.25982
 H38 H -0.03325 0.02271 0.29531
 H39 H -0.03253 -0.03907 0.15877
 H40 H 0.10321 -0.15715 0.26240
 C41 C 0.11593 0.07737 0.71438
 C42 C 0.09857 0.00102 0.74462
 C43 C 0.03783 0.00276 0.76873
 C44 C -0.00005 0.08177 0.76059
 C45 C 0.04310 0.10096 0.68337
 C46 C -0.01751 0.10290 0.70735
 C47 C 0.12369 0.13281 0.74859
 C48 C 0.06307 0.13558 0.77280
 H49 H 0.13155 -0.05024 0.74680
 H50 H -0.04951 0.08491 0.78001
 H51 H 0.03838 0.10603 0.64567
 H52 H 0.17194 0.16845 0.75193
 C53 C -0.00061 -0.28576 0.13284
 C54 C -0.06847 -0.27437 0.15062
 N55 N -0.13070 -0.30985 0.13572
 C56 C -0.12808 -0.35621 0.10379
 C57 C -0.05991 -0.36820 0.08628
 N58 N 0.00224 -0.33265 0.10148
 N59 N 0.06084 -0.24783 0.14600
 C60 C 0.05779 -0.19918 0.17641
 C61 C -0.00956 -0.18895 0.19555
 N62 N -0.07143 -0.22639 0.18147
 H63 H -0.17851 -0.38370 0.09244
 H64 H 0.10722 -0.16776 0.18473
 C65 C -0.02714 0.22638 0.14540
 C66 C -0.09324 0.18508 0.14204
 N67 N -0.15160 0.21480 0.11100
 C68 C -0.14628 0.28331 0.08239
 C69 C -0.07832 0.32263 0.08365
 N70 N -0.02084 0.29312 0.11573
 N71 N 0.03090 0.19761 0.17690
 C72 C 0.02647 0.12835 0.20457
 C73 C -0.03799 0.08510 0.19952
 N74 N -0.09668 0.11460 0.16843
 H75 H -0.19341 0.30488 0.05755
 H76 H 0.07433 0.10546 0.22835
 C77 C 0.29232 0.06859 0.62818
 C78 C 0.26983 0.00262 0.65683
 N79 N 0.30145 -0.06543 0.65511
 C80 C 0.35435 -0.07066 0.62567
 C81 C 0.37639 -0.00480 0.59639
 N82 N 0.34487 0.06341 0.59865
 N83 N 0.25985 0.13645 0.62946
 C84 C 0.20519 0.14120 0.65783
 C85 C 0.18159 0.07500 0.68615
 N86 N 0.21510 0.00731 0.68490
 H87 H 0.37826 -0.12574 0.62483
 H88 H 0.17920 0.19574 0.65761
 C89 C -0.22279 0.08997 0.62702
 C90 C -0.19331 0.02726 0.65986
 N91 N -0.22627 -0.04122 0.66173
 C92 C -0.28684 -0.05046 0.63177
 C93 C -0.31633 0.01188 0.59820
 N94 N -0.28384 0.08106 0.59723
 N95 N -0.18720 0.15754 0.62366
 C96 C -0.12275 0.16475 0.65107
 C97 C -0.09295 0.10174 0.68349
 N98 N -0.12935 0.03460 0.68729
 H99 H -0.31114 -0.10627 0.63400
 H100 H -0.09388 0.21835 0.64675
 C101 C -0.02821 -0.19691 0.85652
 C102 C 0.04503 -0.18823 0.84404
 N103 N 0.09653 -0.24424 0.86035
 C104 C 0.07841 -0.30869 0.88902
 C105 C 0.00520 -0.31797 0.90199
 N106 N -0.04672 -0.26167 0.88515
 N107 N -0.07916 -0.13994 0.84027
 C108 C -0.06005 -0.07466 0.81225
 C109 C 0.01351 -0.06591 0.79975
 N110 N 0.06386 -0.12356 0.81605
 H111 H 0.12100 -0.35215 0.90169
 H112 H -0.10231 -0.03107 0.79935
 C113 C 0.04623 0.28703 0.86715
 C114 C -0.01762 0.26542 0.84128
 N115 N -0.08540 0.29477 0.84585
 C116 C -0.09229 0.34469 0.87520
 C117 C -0.02847 0.36610 0.90149
 N118 N 0.03936 0.33640 0.89672
 N119 N 0.11409 0.25829 0.86231
 C120 C 0.12120 0.20925 0.83250
 C121 C 0.05739 0.18747 0.80633
 N122 N -0.01069 0.21597 0.81171
 H123 H -0.14713 0.36685 0.87826
 H124 H 0.17605 0.18690 0.82976
 C125 C -0.24940 -0.08507 0.37798
 C126 C -0.22223 -0.01694 0.35403
 N127 N -0.24984 0.05038 0.36053
 C128 C -0.30336 0.05275 0.38998
 C129 C -0.33035 -0.01540 0.41443
 N130 N -0.30237 -0.08281 0.40775
 N131 N -0.22235 -0.15238 0.37110
 C132 C -0.16957 -0.15476 0.34116
 C133 C -0.14203 -0.08658 0.31705
 N134 N -0.16901 -0.01921 0.32444
 H135 H -0.32404 0.10735 0.39457
 H136 H -0.14865 -0.20938 0.33685
 C137 C 0.23747 -0.01215 0.37174
 C138 C 0.23070 -0.08333 0.35821
 N139 N 0.28535 -0.13671 0.37296
 C140 C 0.34653 -0.12241 0.40101
 C141 C 0.35387 -0.05119 0.41482
 N142 N 0.29897 0.00256 0.39961
 N143 N 0.18193 0.04061 0.35722
 C144 C 0.11999 0.02546 0.32977
 C145 C 0.11328 -0.04583 0.31586
 N146 N 0.16940 -0.09818 0.33061
 H147 H 0.38895 -0.16641 0.41253
 H148 H 0.07768 0.06938 0.31828
   
