data_POSCAR
  _audit_creation_date              2014-09-24
  _audit_creation_method            'ToBaCCo'
  _symmetry_space_group_name_H-M    'P1'
  _symmetry_Int_Tables_number       1
  _symmetry_cell_setting            triclinic
  loop_
  _symmetry_equiv_pos_as_xyz
 x,y,z
_cell_length_a 29.2294
_cell_length_b 29.2295
_cell_length_c 29.2292
_cell_angle_alpha 75.487400
_cell_angle_beta 104.471400
_cell_angle_gamma 75.625200
loop_
  _atom_site_label
  _atom_site_type_symbol
  _atom_site_fract_x
  _atom_site_fract_y
  _atom_site_fract_z
O1 O 0.57497 0.48211 0.04769
 O2 O 0.44223 0.50052 0.03387
 O3 O 0.51911 0.42459 0.04880
 O4 O 0.49806 0.55801 0.03272
 O5 O 0.47951 0.57568 -0.04925
 O6 O 0.50056 0.44228 -0.03317
 O7 O 0.42365 0.51816 -0.04808
 O8 O 0.55640 0.49977 -0.03427
 Cu9 Cu 0.51043 0.48956 0.04903
 Cu10 Cu 0.48819 0.51071 -0.04945
 C11 C 0.58796 0.48848 0.00889
 C12 C 0.41066 0.51180 -0.00929
 C13 C 0.51272 0.41105 0.01036
 C14 C 0.48591 0.58923 -0.01082
 O15 O -0.04762 0.57629 0.48190
 O16 O -0.03375 0.44350 0.50046
 O17 O -0.03264 0.49929 0.55789
 O18 O -0.04869 0.52048 0.42442
 O19 O 0.03323 0.50207 0.44208
 O20 O 0.04927 0.48087 0.57554
 O21 O 0.04815 0.42505 0.51808
 O22 O 0.03428 0.55786 0.49952
 Cu23 Cu -0.04893 0.51172 0.48943
 Cu24 Cu 0.04948 0.48964 0.51054
 C25 C -0.00886 0.58937 0.48824
 C26 C 0.00939 0.41200 0.51176
 C27 C 0.01086 0.48718 0.58911
 C28 C -0.01027 0.51418 0.41086
 O29 O 0.50031 0.03390 0.55805
 O30 O 0.48173 0.04773 0.42525
 O31 O 0.42431 0.04883 0.48111
 O32 O 0.55772 0.03280 0.50221
 O33 O 0.57526 -0.04913 0.52081
 O34 O 0.44186 -0.03310 0.49970
 O35 O 0.49926 -0.03419 0.44387
 O36 O 0.51782 -0.04801 0.57668
 Cu37 Cu 0.48929 0.04907 0.48982
 Cu38 Cu 0.51028 -0.04937 0.51211
 C39 C 0.51154 -0.00923 0.58966
 C40 C 0.48800 0.00896 0.41227
 C41 C 0.41069 0.01041 0.48750
 C42 C 0.58888 -0.01071 0.51439
 C43 C 0.50335 -0.00768 -0.04516
 C44 C 0.49502 -0.04392 -0.00926
 C45 C 0.49138 -0.03589 0.03517
 C46 C 0.49585 0.00789 0.04425
 C47 C 0.50416 0.04415 0.00835
 C48 C 0.50780 0.03612 -0.03608
 H49 H 0.51400 0.06419 -0.06383
 H50 H 0.48515 -0.06395 0.06291
 C51 C -0.00813 0.50494 1.04419
 C52 C -0.04406 0.49665 1.00799
 C53 C -0.03499 0.49212 0.96422
 C54 C 0.00946 0.49567 0.95615
 C55 C 0.04540 0.50396 0.99235
 C56 C 0.03633 0.50849 1.03613
 H57 H 0.06410 0.51470 1.06415
 H58 H -0.06276 0.48591 0.93620
 C59 C 0.04370 0.00832 0.49562
 C60 C 0.00751 0.04417 0.50391
 C61 C -0.03626 0.03503 0.50839
 C62 C -0.04434 -0.00941 0.50478
 C63 C -0.00816 -0.04525 0.49647
 C64 C 0.03562 -0.03611 0.49200
 H65 H 0.06365 -0.06382 0.48580
 H66 H -0.06427 0.06273 0.51461
 C67 C -0.20420 0.50122 1.05653
 C68 C -0.25370 0.53174 1.01244
 C69 C -0.26850 0.48420 1.01836
 C70 C -0.21980 0.45362 1.06249
 C71 C -0.17927 0.48774 1.01904
 C72 C -0.19400 0.44018 1.02499
 C73 C -0.22803 0.51828 0.97500
 C74 C -0.24349 0.47075 0.98092
 C75 C -0.31893 0.48359 1.01643
 C76 C -0.36110 0.48477 1.01355
 C77 C -0.13027 0.49044 1.01749
 C78 C -0.09066 0.49313 1.01423
 H79 H -0.18745 0.51377 1.08760
 H80 H -0.27881 0.56940 1.00722
 H81 H -0.21700 0.42697 1.09843
 H82 H -0.16887 0.40255 1.03018
 H83 H -0.23093 0.54494 0.93902
 H84 H -0.26013 0.45820 0.94982
 C85 C 0.23020 0.47364 1.01820
 C86 C 0.25046 0.47333 0.97411
 C87 C 0.26977 0.51621 0.98153
 C88 C 0.25017 0.51650 1.02560
 C89 C 0.18055 0.51282 0.98106
 C90 C 0.19983 0.55570 0.98845
 C91 C 0.20003 0.51251 0.93691
 C92 C 0.22018 0.55545 0.94431
 C93 C 0.32023 0.51668 0.98341
 C94 C 0.36245 0.51534 0.98632
 C95 C 0.13157 0.51016 0.98273
 C96 C 0.09198 0.50748 0.98608
 H97 H 0.23383 0.43993 1.04857
 H98 H 0.27184 0.43945 0.96824
 H99 H 0.27126 0.51818 1.06209
 H100 H 0.17844 0.58956 0.99435
 H101 H 0.17882 0.51080 0.90048
 H102 H 0.21664 0.58913 0.91397
 C103 C 0.02489 -0.22920 0.51817
 C104 C -0.01261 -0.25495 0.53145
 C105 C -0.01825 -0.26974 0.48396
 C106 C 0.01926 -0.24465 0.47068
 C107 C -0.01909 -0.18047 0.48744
 C108 C -0.02474 -0.19519 0.43993
 C109 C -0.05664 -0.20548 0.50075
 C110 C -0.06231 -0.22107 0.45319
 C111 C -0.01623 -0.32021 0.48343
 C112 C -0.01327 -0.36243 0.48473
 C113 C -0.01762 -0.13145 0.49016
 C114 C -0.01439 -0.09184 0.49289
 H115 H 0.06075 -0.23207 0.54496
 H116 H -0.00757 -0.28008 0.56910
 H117 H 0.05047 -0.26126 0.45830
 H118 H -0.02976 -0.17004 0.40230
 H119 H -0.08782 -0.18879 0.51314
 H120 H -0.09814 -0.21830 0.42641
 C121 C 0.06278 0.19906 0.51170
 C122 C 0.02516 0.24955 0.47296
 C123 C 0.01860 0.26845 0.51626
 C124 C 0.05623 0.21880 0.55506
 C125 C 0.01889 0.17929 0.51282
 C126 C 0.01234 0.19816 0.55612
 C127 C -0.01866 0.22899 0.47408
 C128 C -0.02521 0.24856 0.51736
 C129 C 0.01683 0.31886 0.51680
 C130 C 0.01403 0.36103 0.51556
 C131 C 0.01715 0.13033 0.51015
 C132 C 0.01379 0.09075 0.50745
 H133 H 0.09891 0.17812 0.50931
 H134 H 0.03040 0.27123 0.43875
 H135 H 0.08698 0.21519 0.58839
 H136 H 0.00707 0.17647 0.59031
 H137 H -0.04945 0.23270 0.44072
 H138 H -0.06141 0.26939 0.51972
 C139 C 0.55634 -0.01358 -0.19865
 C140 C 0.55392 -0.05690 -0.21980
 C141 C 0.51591 -0.01840 -0.26945
 C142 C 0.51838 0.02484 -0.24906
 C143 C 0.51244 -0.01888 -0.18025
 C144 C 0.47450 0.01954 -0.22996
 C145 C 0.50996 -0.06219 -0.20054
 C146 C 0.47202 -0.02371 -0.25102
 C147 C 0.51642 -0.01652 -0.31990
 C148 C 0.51509 -0.01362 -0.36213
 C149 C 0.50971 -0.01723 -0.13129
 C150 C 0.50696 -0.01391 -0.09172
 H151 H 0.59100 -0.00942 -0.17654
 H152 H 0.58661 -0.08829 -0.21620
 H153 H 0.52188 0.06064 -0.26948
 H154 H 0.44178 0.05096 -0.23365
 H155 H 0.50644 -0.09794 -0.18000
 H156 H 0.43733 -0.02785 -0.27311
 C157 C 0.52135 -0.02251 0.22880
 C158 C 0.52943 0.01813 0.25210
 C159 C 0.48343 0.01841 0.26864
 C160 C 0.47537 -0.02223 0.24600
 C161 C 0.48684 0.01900 0.17940
 C162 C 0.44083 0.01929 0.19589
 C163 C 0.49493 0.05969 0.20195
 C164 C 0.44887 0.05999 0.21930
 C165 C 0.48292 0.01649 0.31910
 C166 C 0.48419 0.01362 0.36130
 C167 C 0.48953 0.01739 0.13042
 C168 C 0.49226 0.01411 0.09083
 H169 H 0.55123 -0.05643 0.23222
 H170 H 0.56588 0.01761 0.27577
 H171 H 0.46729 -0.05592 0.26459
 H172 H 0.40440 0.01979 0.17219
 H173 H 0.50301 0.09334 0.18324
 H174 H 0.41902 0.09388 0.21598
 C175 C 0.51742 -0.22709 0.02010
 C176 C 0.47073 -0.24347 0.01795
 C177 C 0.48036 -0.26683 -0.02177
 C178 C 0.52706 -0.25109 -0.01962
 C179 C 0.48429 -0.17781 -0.02226
 C180 C 0.49395 -0.20106 -0.06204
 C181 C 0.43756 -0.19348 -0.02443
 C182 C 0.44717 -0.21762 -0.06423
 C183 C 0.47984 -0.31727 -0.01963
 C184 C 0.48141 -0.35958 -0.01628
 C185 C 0.48744 -0.12912 -0.02029
 C186 C 0.49070 -0.08990 -0.01643
 H187 H 0.54638 -0.23049 0.05477
 H188 H 0.46114 -0.26141 0.05083
 H189 H 0.56387 -0.27536 -0.01759
 H190 H 0.50354 -0.18301 -0.09489
 H191 H 0.40078 -0.16918 -0.02643
 H192 H 0.41824 -0.21435 -0.09886
 C193 C 0.55780 0.19707 0.01434
 C194 C 0.51890 0.24752 -0.02291
 C195 C 0.51842 0.26711 0.02112
 C196 C 0.55738 0.21742 0.05846
 C197 C 0.51466 0.17809 0.02140
 C198 C 0.51417 0.19755 0.06552
 C199 C 0.47578 0.22785 -0.01585
 C200 C 0.47529 0.24809 0.02819
 C201 C 0.51887 0.31754 0.01908
 C202 C 0.51726 0.35986 0.01580
 C203 C 0.51160 0.12939 0.01938
 C204 C 0.50843 0.09015 0.01550
 H205 H 0.59171 0.17550 0.00864
 H206 H 0.52088 0.26856 -0.05928
 H207 H 0.59096 0.21374 0.08896
 H208 H 0.51215 0.17639 0.10182
 H209 H 0.44217 0.23163 -0.04639
 H210 H 0.44136 0.26965 0.03386
 C211 C -0.21420 0.01857 0.52639
 C212 C -0.25765 0.01947 0.48285
 C213 C -0.26721 -0.02171 0.51981
 C214 C -0.22443 -0.02263 0.56342
 C215 C -0.17823 -0.02233 0.51568
 C216 C -0.18762 -0.06361 0.55270
 C217 C -0.22103 -0.02142 0.47210
 C218 C -0.23130 -0.06267 0.50908
 C219 C -0.31764 -0.01951 0.52040
 C220 C -0.35994 -0.01616 0.51886
 C221 C -0.12953 -0.02045 0.51245
 C222 C -0.09031 -0.01662 0.50915
 H223 H -0.20665 0.05202 0.53344
 H224 H -0.28696 0.05369 0.45417
 H225 H -0.22641 -0.02310 0.60096
 H226 H -0.15820 -0.09779 0.58132
 H227 H -0.21908 -0.02094 0.43455
 H228 H -0.23892 -0.09609 0.50203
 C229 C 0.22738 -0.01635 0.52368
 C230 C 0.24668 -0.02247 0.48015
 C231 C 0.26671 0.02119 0.48160
 C232 C 0.24806 0.02731 0.52514
 C233 C 0.17767 0.02146 0.48524
 C234 C 0.19758 0.06520 0.48670
 C235 C 0.19628 0.01535 0.44168
 C236 C 0.21707 0.05909 0.44308
 C237 C 0.31717 0.01914 0.48123
 C238 C 0.35950 0.01585 0.48291
 C239 C 0.12896 0.01942 0.48824
 C240 C 0.08971 0.01551 0.49138
 H241 H 0.23111 -0.04737 0.55689
 H242 H 0.26737 -0.05853 0.47742
 H243 H 0.26993 0.03220 0.55947
 H244 H 0.17677 0.10119 0.48947
 H245 H 0.17439 0.01043 0.40739
 H246 H 0.21345 0.09006 0.40990
 C247 C 0.00483 0.47109 1.22698
 C248 C 0.02628 0.50521 1.25246
 C249 C -0.02097 0.51979 1.26694
 C250 C -0.04246 0.48566 1.24214
 C251 C -0.02120 0.51578 1.17802
 C252 C -0.06855 0.53038 1.19235
 C253 C 0.00028 0.54991 1.20283
 C254 C -0.04705 0.56456 1.21803
 C255 C -0.01896 0.52032 1.31735
 C256 C -0.01569 0.51873 1.35966
 C257 C -0.01916 0.51259 1.12936
 C258 C -0.01528 0.50931 1.09016
 H259 H 0.02614 0.43261 1.23015
 H260 H 0.06530 0.49493 1.27766
 H261 H -0.06006 0.45926 1.25888
 H262 H -0.10751 0.54060 1.16702
 H263 H 0.01790 0.57628 1.18612
 H264 H -0.06833 0.60301 1.21496
 C265 C 0.06221 0.49466 0.79898
 C266 C 0.06414 0.44799 0.78234
 C267 C 0.02181 0.48139 0.73312
 C268 C 0.01991 0.52798 0.74893
 C269 C 0.02233 0.48511 0.82219
 C270 C -0.01990 0.51844 0.77289
 C271 C 0.02424 0.43849 0.80644
 C272 C -0.01801 0.47186 0.75643
 C273 C 0.01965 0.48098 0.68265
 C274 C 0.01631 0.48261 0.64031
 C275 C 0.02041 0.48816 0.87091
 C276 C 0.01658 0.49136 0.91016
 H277 H 0.09514 0.50407 0.81710
 H278 H 0.09865 0.41898 0.78561
 H279 H 0.01808 0.56479 0.72470
 H280 H -0.05445 0.54748 0.76950
 H281 H 0.02604 0.40172 0.83070
 H282 H -0.05099 0.46246 0.73843
   
