data_POSCAR
  _audit_creation_date              2014-09-24
  _audit_creation_method            'ToBaCCo'
  _symmetry_space_group_name_H-M    'P1'
  _symmetry_Int_Tables_number       1
  _symmetry_cell_setting            triclinic
  loop_
  _symmetry_equiv_pos_as_xyz
 x,y,z
_cell_length_a 34.4330
_cell_length_b 19.5223
_cell_length_c 12.1952
_cell_angle_alpha 89.919500
_cell_angle_beta 90.221800
_cell_angle_gamma 90.744200
loop_
  _atom_site_label
  _atom_site_type_symbol
  _atom_site_fract_x
  _atom_site_fract_y
  _atom_site_fract_z
C1 C 0.71647 0.27236 0.56875
 C2 C 0.71096 0.27021 0.45293
 C3 C 0.74261 0.25236 0.38658
 C4 C 0.77903 0.23373 0.43005
 C5 C 0.78418 0.23427 0.54653
 C6 C 0.75226 0.25155 0.61251
 H7 H 0.75638 0.25567 0.70045
 H8 H 0.73803 0.24844 0.29881
 C9 C 0.22099 0.79014 0.56032
 C10 C 0.20992 0.77025 0.45311
 C11 C 0.23490 0.72929 0.39163
 C12 C 0.27098 0.70905 0.43258
 C13 C 0.28224 0.72754 0.54138
 C14 C 0.25708 0.76994 0.60201
 H15 H 0.26487 0.78820 0.68277
 H16 H 0.22636 0.71331 0.30980
 C17 C 0.30107 0.21027 -0.55374
 C18 C 0.30273 0.20933 -0.43885
 C19 C 0.27159 0.18255 -0.37968
 C20 C 0.23673 0.16282 -0.43122
 C21 C 0.23326 0.16851 -0.54832
 C22 C 0.26628 0.19189 -0.60767
 H23 H 0.26624 0.19247 -0.69635
 H24 H 0.27406 0.18023 -0.29091
 C25 C -0.22106 0.77558 -0.55982
 C26 C -0.21815 0.77779 -0.44388
 C27 C -0.24993 0.75565 -0.38019
 C28 C -0.28338 0.72632 -0.42796
 C29 C -0.28659 0.72431 -0.54457
 C30 C -0.25501 0.74862 -0.60774
 H31 H -0.25730 0.75087 -0.69616
 H32 H -0.24718 0.75522 -0.29156
 O33 O -0.03976 0.90670 0.24689
 O34 O -0.08916 0.96176 0.15746
 C35 C -0.07592 0.92338 0.23573
 O36 O 0.07103 1.13342 0.15633
 O37 O 0.10345 1.06672 0.03237
 C38 C 0.10256 1.11301 0.10835
 O39 O -0.03512 1.13322 0.22998
 O40 O -0.08647 1.07590 0.15002
 C41 C -0.07179 1.11758 0.22200
 O42 O 0.06466 0.88891 0.16712
 O43 O 0.10062 0.94867 0.03980
 C44 C 0.09715 0.90439 0.11846
 Zr45 Zr 0.00807 0.92733 0.14249
 O46 O 0.02281 0.91752 0.31022
 O47 O 0.00165 0.81980 0.13156
 Zr48 Zr 0.01233 1.10065 0.13303
 O49 O 0.02855 1.11098 0.29980
 O50 O 0.01184 1.20805 0.11213
 O51 O -0.02168 1.01651 0.17870
 O52 O 0.04453 1.01221 0.13833
 O53 O 0.03569 0.87774 -0.20465
 O54 O 0.08646 0.94339 -0.13957
 C55 C 0.07230 0.89373 -0.19881
 O56 O -0.06557 1.12951 -0.17091
 O57 O -0.10084 1.07290 -0.03881
 C58 C -0.09798 1.11386 -0.12220
 O59 O 0.04095 1.13045 -0.22361
 O60 O 0.08862 1.06383 -0.14825
 C61 C 0.07659 1.11043 -0.21597
 O62 O -0.07074 0.89425 -0.15827
 O63 O -0.10359 0.95925 -0.03355
 C64 C -0.10245 0.91519 -0.11279
 Zr65 Zr -0.01238 0.92267 -0.12652
 O66 O -0.02043 0.91803 -0.29858
 O67 O -0.01929 0.81499 -0.11417
 Zr68 Zr -0.00847 1.09596 -0.13646
 O69 O -0.01701 1.09467 -0.30848
 O70 O -0.00957 1.20437 -0.13427
 Zr71 Zr -0.05696 1.01504 0.03672
 Zr72 Zr 0.05660 1.00823 -0.03054
 O73 O 0.02102 1.00679 -0.17109
 O74 O -0.04570 1.01100 -0.13292
 O75 O 0.03166 0.90975 -0.01117
 O76 O -0.03122 1.11271 0.01775
 O77 O -0.03600 0.91448 0.02884
 O78 O 0.03639 1.10951 -0.02263
 H79 H 0.06610 1.01223 0.19228
 H80 H -0.04780 1.15347 0.02625
 H81 H 0.03330 1.00404 -0.24427
 H82 H -0.05460 0.87619 0.04203
 H83 H 0.01773 1.22773 0.18523
 H84 H 0.01505 1.22059 -0.10041
 H85 H -0.03980 1.06482 -0.32393
 H86 H -0.04180 0.94929 -0.31765
 H87 H 0.00378 0.79730 -0.07520
 H88 H 0.00621 0.80202 0.20656
 H89 H 0.03026 0.96371 0.33635
 H90 H 0.01429 1.07501 0.34099
 O91 O 0.44643 0.38391 0.20101
 O92 O 0.40271 0.45528 0.11756
 C93 C 0.41138 0.40709 0.18538
 O94 O 0.56570 0.61836 0.16422
 O95 O 0.60002 0.55201 0.04407
 C96 C 0.59790 0.59768 0.12066
 O97 O 0.45869 0.62442 0.21695
 O98 O 0.40846 0.56922 0.12826
 C99 C 0.42207 0.61162 0.20122
 O100 O 0.55600 0.37193 0.15907
 O101 O 0.59479 0.43354 0.04065
 C102 C 0.58965 0.38786 0.11665
 Zr103 Zr 0.50022 0.41404 0.12479
 O104 O 0.51177 0.40949 0.29528
 O105 O 0.49300 0.30627 0.11862
 Zr106 Zr 0.50757 0.58712 0.13261
 O107 O 0.51978 0.58466 0.30284
 O108 O 0.51010 0.69533 0.12836
 O109 O 0.47072 0.50345 0.16393
 O110 O 0.53813 0.49704 0.13441
 O111 O 0.53477 0.38533 -0.23566
 O112 O 0.58515 0.43851 -0.14494
 C113 C 0.57127 0.39849 -0.22092
 O114 O 0.43719 0.63390 -0.17685
 O115 O 0.39834 0.57363 -0.05724
 C116 C 0.40371 0.61886 -0.13328
 O117 O 0.54645 0.63146 -0.20804
 O118 O 0.59064 0.55629 -0.13600
 C119 C 0.58140 0.60778 -0.19776
 O120 O 0.42938 0.39724 -0.19355
 O121 O 0.39395 0.45831 -0.06941
 C122 C 0.39687 0.41481 -0.14957
 Zr123 Zr 0.48659 0.42175 -0.14894
 O124 O 0.47808 0.41618 -0.32035
 O125 O 0.48010 0.31381 -0.13819
 Zr126 Zr 0.49320 0.59482 -0.14081
 O127 O 0.48834 0.59874 -0.31392
 O128 O 0.49387 0.70313 -0.13448
 Zr129 Zr 0.43981 0.51005 0.01466
 Zr130 Zr 0.55396 0.49881 -0.03231
 O131 O 0.52190 0.50611 -0.17901
 O132 O 0.45467 0.51196 -0.15289
 O133 O 0.52741 0.40104 -0.02709
 O134 O 0.46758 0.60660 0.01035
 O135 O 0.45948 0.40878 0.00024
 O136 O 0.53519 0.60072 -0.01734
 H137 H 0.55841 0.49449 0.19208
 H138 H 0.45212 0.64866 0.01941
 H139 H 0.53554 0.50773 -0.25031
 H140 H 0.44048 0.37029 0.00410
 H141 H 0.51537 0.71034 0.20463
 H142 H 0.51407 0.71669 -0.08055
 H143 H 0.46340 0.57638 -0.33461
 H144 H 0.48013 0.46354 -0.34853
 H145 H 0.50623 0.29407 -0.12848
 H146 H 0.51277 0.28840 0.06781
 H147 H 0.49145 0.43590 0.33292
 H148 H 0.50053 0.55327 0.33693
 C149 C 0.33606 0.22979 0.38314
 C150 C 0.33900 0.29075 0.33476
 C151 C 0.37590 0.31531 0.28634
 C152 C 0.37785 0.37839 0.24481
 H153 H 0.31409 0.32428 0.33502
 H154 H 0.40078 0.28197 0.28260
 H155 H 0.36137 0.19755 0.38944
 H156 H 0.35194 0.40948 0.24602
 C157 C -0.19052 0.80061 0.36256
 C158 C -0.16585 0.85294 0.38117
 C159 C -0.13891 0.87645 0.29493
 C160 C -0.10319 0.89887 0.32005
 H161 H -0.16557 0.88002 0.45838
 H162 H -0.14790 0.87299 0.20976
 H163 H -0.19014 0.77726 0.28190
 H164 H -0.09306 0.89636 0.40421
 C165 C 0.67806 0.70529 0.40376
 C166 C 0.67500 0.68309 0.30006
 C167 C 0.63714 0.66088 0.25575
 C168 C 0.63481 0.62616 0.16178
 H169 H 0.70041 0.67589 0.24964
 H170 H 0.61113 0.67016 0.30308
 H171 H 0.65166 0.70605 0.45176
 H172 H 0.66104 0.61473 0.11679
 C173 C 0.19919 1.14540 0.39617
 C174 C 0.18841 1.16233 0.29355
 C175 C 0.14953 1.14099 0.25256
 C176 C 0.14024 1.14124 0.14600
 H177 H 0.20643 1.19449 0.24182
 H178 H 0.12830 1.12203 0.31108
 H179 H 0.17922 1.11231 0.44001
 H180 H 0.16205 1.15469 0.08561
 C181 C 0.68938 0.29653 -0.35388
 C182 C 0.66004 0.33873 -0.37457
 C183 C 0.63529 0.36246 -0.28515
 C184 C 0.59749 0.37000 -0.30266
 H185 H 0.65449 0.35942 -0.45507
 H186 H 0.64776 0.37204 -0.20481
 H187 H 0.69435 0.28410 -0.26811
 H188 H 0.58502 0.35493 -0.38099
 C189 C 0.19697 0.83569 -0.37096
 C190 C 0.16102 0.81809 -0.34001
 C191 C 0.13673 0.86444 -0.27479
 C192 C 0.09877 0.85099 -0.26329
 H193 H 0.14898 0.76887 -0.36489
 H194 H 0.14965 0.90996 -0.23827
 H195 H 0.20994 0.88311 -0.34146
 H196 H 0.08626 0.80636 -0.30358
 C197 C 0.31713 0.70216 -0.41263
 C198 C 0.32882 0.70952 -0.30835
 C199 C 0.36540 0.67856 -0.27207
 C200 C 0.36919 0.65568 -0.16982
 H201 H 0.31129 0.73403 -0.24704
 H202 H 0.38826 0.67004 -0.33131
 H203 H 0.33558 0.67076 -0.46249
 H204 H 0.34494 0.65910 -0.11366
 C205 C -0.17929 1.22486 -0.40221
 C206 C -0.17524 1.19648 -0.30238
 C207 C -0.13686 1.17863 -0.25742
 C208 C -0.13448 1.14244 -0.16436
 H209 H -0.20054 1.17929 -0.25700
 H210 H -0.11090 1.19132 -0.30356
 H211 H -0.15310 1.23770 -0.44698
 H212 H -0.16088 1.12937 -0.12039
 C213 C 0.68901 0.69675 -0.35595
 C214 C 0.67090 0.63671 -0.37618
 C215 C 0.64244 0.60588 -0.30040
 C216 C 0.61234 0.64120 -0.26209
 H217 H 0.67901 0.60637 -0.44656
 H218 H 0.64377 0.55108 -0.28664
 H219 H 0.68587 0.71865 -0.27473
 H220 H 0.60876 0.69423 -0.28601
 C221 C 0.20751 1.13897 -0.35983
 C222 C 0.16988 1.15404 -0.36852
 C223 C 0.14218 1.12528 -0.28919
 C224 C 0.10477 1.14192 -0.29147
 H225 H 0.15959 1.18858 -0.43159
 H226 H 0.15256 1.08872 -0.22913
 H227 H 0.21674 1.11309 -0.28539
 H228 H 0.09443 1.17854 -0.35146
 C229 C 0.33597 0.24035 -0.37951
 C230 C 0.33082 0.28965 -0.30487
 C231 C 0.36458 0.32553 -0.25750
 C232 C 0.36154 0.38057 -0.19239
 H233 H 0.30181 0.30558 -0.28317
 H234 H 0.39301 0.30632 -0.27841
 H235 H 0.36509 0.22759 -0.40534
 H236 H 0.33328 0.39925 -0.16899
 C237 C -0.18108 0.79541 -0.38812
 C238 C -0.17949 0.83052 -0.29412
 C239 C -0.14186 0.85029 -0.24570
 C240 C -0.13977 0.88900 -0.15551
 H241 H -0.20593 0.84739 -0.25516
 H242 H -0.11553 0.83510 -0.28712
 H243 H -0.15424 0.78098 -0.42756
 H244 H -0.16621 0.90502 -0.11553
 C245 C 0.29517 0.66727 0.35829
 C246 C 0.33164 0.68535 0.33372
 C247 C 0.35644 0.64186 0.26564
 C248 C 0.39495 0.65076 0.26885
 H249 H 0.34409 0.73162 0.36928
 H250 H 0.34339 0.60205 0.21515
 H251 H 0.28200 0.62272 0.31948
 H252 H 0.40737 0.68939 0.32293
 C253 C -0.19308 1.21257 0.35202
 C254 C -0.16277 1.17181 0.37121
 C255 C -0.13610 1.15326 0.28292
 C256 C -0.09823 1.14627 0.30345
 H257 H -0.15785 1.14771 0.44952
 H258 H -0.14758 1.14469 0.20107
 H259 H -0.19782 1.22721 0.26710
 H260 H -0.08655 1.15995 0.38326
 C261 C 0.67199 0.27815 0.39993
 C262 C 0.66719 0.30916 0.30260
 C263 C 0.62832 0.32450 0.25654
 C264 C 0.62554 0.35658 0.15962
 H265 H 0.69244 0.32805 0.25874
 H266 H 0.60255 0.31427 0.30490
 H267 H 0.64650 0.26073 0.44431
 H268 H 0.65198 0.36724 0.11417
 C269 C 0.17314 0.79348 0.40276
 C270 C 0.17101 0.81440 0.29862
 C271 C 0.13424 0.83978 0.25413
 C272 C 0.13286 0.87194 0.15758
 H273 H 0.19674 0.81566 0.24768
 H274 H 0.10828 0.83503 0.30383
 H275 H 0.14736 0.79630 0.45260
 H276 H 0.15916 0.87884 0.11002
   
