data_POSCAR
  _audit_creation_date              2014-09-24
  _audit_creation_method            'ToBaCCo'
  _symmetry_space_group_name_H-M    'P1'
  _symmetry_Int_Tables_number       1
  _symmetry_cell_setting            triclinic
  loop_
  _symmetry_equiv_pos_as_xyz
 x,y,z
_cell_length_a 44.5028
_cell_length_b 45.5338
_cell_length_c 8.8116
_cell_angle_alpha 90.001600
_cell_angle_beta 89.999100
_cell_angle_gamma 90.067700
loop_
  _atom_site_label
  _atom_site_type_symbol
  _atom_site_fract_x
  _atom_site_fract_y
  _atom_site_fract_z
C1 C 0.18706 0.22223 0.19350
 C2 C 0.17191 0.24898 0.17998
 C3 C 0.18715 0.27567 0.19375
 C4 C 0.21841 0.27594 0.22185
 C5 C 0.23408 0.24895 0.23585
 C6 C 0.21838 0.22194 0.22167
 C7 C 0.23442 0.19546 0.23598
 C8 C 0.26521 0.19550 0.26361
 C9 C 0.28124 0.22203 0.27803
 C10 C 0.26552 0.24900 0.26398
 C11 C 0.23439 0.30246 0.23623
 C12 C 0.26519 0.30250 0.26383
 C13 C 0.28118 0.27603 0.27808
 C14 C 0.31243 0.27584 0.30612
 C15 C 0.32769 0.24919 0.31977
 C16 C 0.31256 0.22240 0.30616
 H17 H 0.22324 0.17442 0.22589
 H18 H 0.27641 0.17449 0.27359
 H19 H 0.22318 0.32346 0.22626
 H20 H 0.27638 0.32353 0.27392
 H21 H 0.14789 0.24909 0.15821
 H22 H 0.35171 0.24936 0.34147
 C23 C 0.68701 0.22285 0.30500
 C24 C 0.67190 0.24962 0.31839
 C25 C 0.68717 0.27630 0.30469
 C26 C 0.71843 0.27654 0.27675
 C27 C 0.73407 0.24953 0.26290
 C28 C 0.71833 0.22253 0.27703
 C29 C 0.73436 0.19603 0.26287
 C30 C 0.76517 0.19605 0.23544
 C31 C 0.78117 0.22255 0.22111
 C32 C 0.76550 0.24954 0.23497
 C33 C 0.73445 0.30304 0.26238
 C34 C 0.76526 0.30303 0.23493
 C35 C 0.78121 0.27653 0.22086
 C36 C 0.81248 0.27626 0.19299
 C37 C 0.82766 0.24955 0.17958
 C38 C 0.81244 0.22284 0.19324
 H39 H 0.72316 0.17500 0.27293
 H40 H 0.77638 0.17505 0.22556
 H41 H 0.72327 0.32405 0.27224
 H42 H 0.77650 0.32404 0.22484
 H43 H 0.64786 0.24976 0.34003
 H44 H 0.85167 0.24956 0.15803
 C45 C 0.68774 0.72390 0.69455
 C46 C 0.67257 0.75061 0.68100
 C47 C 0.68780 0.77732 0.69437
 C48 C 0.71907 0.77761 0.72214
 C49 C 0.73474 0.75062 0.73612
 C50 C 0.71901 0.72363 0.72228
 C51 C 0.73496 0.69713 0.73644
 C52 C 0.76578 0.69713 0.76372
 C53 C 0.78181 0.72362 0.77785
 C54 C 0.76618 0.75063 0.76392
 C55 C 0.73508 0.80411 0.73623
 C56 C 0.76589 0.80413 0.76358
 C57 C 0.78191 0.77763 0.77785
 C58 C 0.81324 0.77731 0.80575
 C59 C 0.82835 0.75054 0.81917
 C60 C 0.81308 0.72386 0.80562
 H61 H 0.72372 0.67612 0.72654
 H62 H 0.77696 0.67611 0.77366
 H63 H 0.72388 0.82512 0.72624
 H64 H 0.77710 0.82516 0.77345
 H65 H 0.64855 0.75060 0.65953
 H66 H 0.85239 0.75040 0.84072
 C67 C 0.18652 0.72324 0.80780
 C68 C 0.17132 0.74996 0.82135
 C69 C 0.18651 0.77672 0.80773
 C70 C 0.21782 0.77704 0.77967
 C71 C 0.23351 0.75005 0.76568
 C72 C 0.21784 0.72301 0.77975
 C73 C 0.23391 0.69654 0.76545
 C74 C 0.26471 0.69660 0.73790
 C75 C 0.28066 0.72312 0.72360
 C76 C 0.26495 0.75009 0.73762
 C77 C 0.23388 0.80355 0.76528
 C78 C 0.26468 0.80357 0.73773
 C79 C 0.28064 0.77710 0.72352
 C80 C 0.31191 0.77685 0.69548
 C81 C 0.32711 0.75017 0.68193
 C82 C 0.31192 0.72345 0.69558
 H83 H 0.22275 0.67548 0.77546
 H84 H 0.27594 0.67561 0.72791
 H85 H 0.22271 0.82458 0.77522
 H86 H 0.27590 0.82459 0.72766
 H87 H 0.14727 0.74993 0.84303
 H88 H 0.35112 0.75020 0.66025
 O89 O 1.02962 -0.03362 0.09039
 O90 O 0.97126 0.02231 0.15470
 O91 O 0.97122 -0.03361 0.09023
 O92 O 1.02969 0.02235 0.15469
 O93 O 1.02970 0.03262 -0.09058
 O94 O 0.97123 -0.02332 -0.15503
 O95 O 0.97130 0.03260 -0.09056
 O96 O 1.02966 -0.02334 -0.15488
 Cu97 Cu 1.00045 -0.00672 0.14703
 Cu98 Cu 1.00048 0.00572 -0.14729
 C99 C 1.03936 -0.03805 -0.04292
 C100 C 0.96153 0.03701 0.04273
 C101 C 0.96147 -0.03803 -0.04309
 C102 C 1.03945 0.03706 0.04275
 O103 O 0.52904 0.46696 0.59061
 O104 O 0.47061 0.52280 0.65557
 O105 O 0.47064 0.46688 0.59081
 O106 O 0.52904 0.52288 0.65550
 O107 O 0.52900 0.53324 0.41032
 O108 O 0.47060 0.47723 0.34563
 O109 O 0.47060 0.53316 0.41039
 O110 O 0.52902 0.47732 0.34543
 Cu111 Cu 0.49983 0.49380 0.64766
 Cu112 Cu 0.49980 0.50633 0.35342
 C113 C 0.53877 0.46259 0.45723
 C114 C 0.46085 0.53753 0.54375
 C115 C 0.46088 0.46248 0.45749
 C116 C 0.53877 0.53764 0.54365
 O117 O 0.02973 0.52292 -0.15493
 O118 O -0.02875 0.46695 -0.09093
 O119 O -0.02870 0.52289 -0.15525
 O120 O 0.02965 0.46695 -0.09067
 O121 O 0.02962 0.47721 0.15462
 O122 O -0.02872 0.53315 0.09003
 O123 O -0.02880 0.47722 0.15435
 O124 O 0.02968 0.53318 0.09036
 Cu125 Cu 0.00049 0.49385 -0.14748
 Cu126 Cu 0.00045 0.50627 0.14687
 C127 C 0.03944 0.53763 -0.04290
 C128 C -0.03853 0.46252 0.04232
 C129 C -0.03844 0.53758 -0.04332
 C130 C 0.03935 0.46250 0.04269
 O131 O 0.47061 1.03374 0.59004
 O132 O 0.52906 0.97790 0.65464
 O133 O 0.52903 1.03382 0.58988
 O134 O 0.47063 0.97782 0.65480
 O135 O 0.47061 0.96747 0.40961
 O136 O 0.52902 1.02347 0.34469
 O137 O 0.52902 0.96755 0.40944
 O138 O 0.47058 1.02338 0.34485
 Cu139 Cu 0.49983 1.00690 0.64687
 Cu140 Cu 0.49980 0.99438 0.35262
 C141 C 0.46084 1.03810 0.45673
 C142 C 0.53879 0.96318 0.54276
 C143 C 0.53877 1.03821 0.45652
 C144 C 0.46087 0.96307 0.54298
 C145 C 1.13720 0.14947 0.14565
 N146 N 1.13422 0.13664 0.00755
 N147 N 1.11599 0.11367 -0.01084
 C148 C 1.10020 0.10283 0.10833
 N149 N 1.10323 0.11561 0.24652
 N150 N 1.12146 0.13858 0.26490
 C151 C 1.15567 0.17507 0.16376
 C152 C 1.17065 0.19698 0.17810
 C153 C 1.07943 0.07906 0.08676
 C154 C 1.06145 0.05960 0.06739
 C155 C 0.63675 0.64984 0.64695
 N156 N 0.62008 0.63974 0.76481
 N157 N 0.60178 0.61682 0.74647
 C158 C 0.59960 0.60331 0.60973
 N159 N 0.61632 0.61337 0.49196
 N160 N 0.63462 0.63629 0.51030
 C161 C 0.65531 0.67539 0.66470
 C162 C 0.67037 0.69724 0.67873
 C163 C 0.57879 0.57960 0.58794
 C164 C 0.56078 0.56016 0.56841
 C165 C -0.13656 0.35033 0.14478
 N166 N -0.13385 0.36342 0.00720
 N167 N -0.11556 0.38634 -0.01110
 C168 C -0.09942 0.39686 0.10764
 N169 N -0.10217 0.38381 0.24531
 N170 N -0.12046 0.36089 0.26361
 C171 C -0.15511 0.32478 0.16270
 C172 C -0.17016 0.30292 0.17691
 C173 C -0.07859 0.42058 0.08610
 C174 C -0.06057 0.44001 0.06680
 C175 C 0.36284 0.85094 0.64685
 N176 N 0.36543 0.86406 0.50931
 N177 N 0.38374 0.88697 0.49077
 C178 C 0.40000 0.89744 0.60922
 N179 N 0.39736 0.88435 0.74685
 N180 N 0.37905 0.86144 0.76539
 C181 C 0.34428 0.82539 0.66498
 C182 C 0.32924 0.80353 0.67931
 C183 C 0.42084 0.92113 0.58738
 C184 C 0.43885 0.94056 0.56781
 C185 C -0.13620 0.64975 -0.14638
 N186 N -0.12000 0.63928 -0.26498
 N187 N -0.10176 0.61636 -0.24662
 C188 C -0.09917 0.60321 -0.10911
 N189 N -0.11542 0.61365 0.00939
 N190 N -0.13366 0.63657 -0.00897
 C191 C -0.15468 0.67531 -0.16429
 C192 C -0.16965 0.69718 -0.17844
 C193 C -0.07840 0.57951 -0.08744
 C194 C -0.06043 0.56008 -0.06800
 C195 C 0.36261 1.14988 0.35344
 N196 N 0.37892 1.13952 0.23497
 N197 N 0.39727 1.11668 0.25338
 C198 C 0.39986 1.10351 0.39082
 N199 N 0.38350 1.11383 0.50920
 N200 N 0.36515 1.13667 0.49079
 C201 C 0.34404 1.17537 0.33551
 C202 C 0.32899 1.19720 0.32135
 C203 C 0.42073 1.07989 0.41255
 C204 C 0.43878 1.06054 0.43203
 C205 C 1.13678 -0.15053 -0.14529
 N206 N 1.13425 -0.13733 -0.00791
 N207 N 1.11609 -0.11435 0.01029
 C208 C 1.09992 -0.10386 -0.10835
 N209 N 1.10250 -0.11702 -0.24582
 N210 N 1.12066 -0.14001 -0.26402
 C211 C 1.15519 -0.17614 -0.16307
 C212 C 1.17013 -0.19805 -0.17715
 C213 C 1.07923 -0.08008 -0.08685
 C214 C 1.06131 -0.06060 -0.06752
 C215 C 0.63648 0.35043 0.35300
 N216 N 0.62005 0.36076 0.23489
 N217 N 0.60183 0.38369 0.25345
 C218 C 0.59949 0.39698 0.39069
 N219 N 0.61597 0.38669 0.50871
 N220 N 0.63419 0.36376 0.49014
 C221 C 0.65494 0.32486 0.33494
 C222 C 0.66990 0.30299 0.32070
 C223 C 0.57874 0.42069 0.41266
 C224 C 0.56077 0.44011 0.43233
 C225 C 0.86329 -0.15006 -0.14654
 N226 N 0.86610 -0.13709 -0.00871
 N227 N 0.88443 -0.11420 0.00980
 C228 C 0.90050 -0.10360 -0.10896
 N229 N 0.89765 -0.11653 -0.24688
 N230 N 0.87932 -0.13942 -0.26539
 C231 C 0.84473 -0.17560 -0.16466
 C232 C 0.82969 -0.19747 -0.17897
 C233 C 0.92137 -0.07992 -0.08722
 C234 C 0.93941 -0.06052 -0.06775
 C235 C 0.36318 0.35005 0.35420
 N236 N 0.36554 0.36338 0.49135
 N237 N 0.38377 0.38635 0.50971
 C238 C 0.40017 0.39670 0.39148
 N239 N 0.39776 0.38341 0.25424
 N240 N 0.37953 0.36044 0.23588
 C241 C 0.34470 0.32445 0.33631
 C242 C 0.32972 0.30255 0.32214
 C243 C 0.42093 0.42046 0.41322
 C244 C 0.43889 0.43993 0.43273
 C245 C 0.13684 0.65035 -0.14516
 N246 N 0.12070 0.63980 -0.26385
 N247 N 0.10256 0.61675 -0.24566
 C248 C 0.10002 0.60356 -0.10824
 N249 N 0.11621 0.61408 0.01036
 N250 N 0.13435 0.63712 -0.00783
 C251 C 0.15523 0.67601 -0.16294
 C252 C 0.17016 0.69796 -0.17703
 C253 C 0.07933 0.57973 -0.08672
 C254 C 0.06141 0.56021 -0.06742
 C255 C 0.63695 1.15024 0.35279
 N256 N 0.63419 1.13723 0.49054
 N257 N 0.61585 1.11434 0.50906
 C258 C 0.59972 1.10378 0.39038
 N259 N 0.60253 1.11675 0.25254
 N260 N 0.62087 1.13963 0.23402
 C261 C 0.65552 1.17577 0.33466
 C262 C 0.67056 1.19763 0.32034
 C263 C 0.57885 1.08011 0.41216
 C264 C 0.56082 1.06070 0.43171
 C265 C 0.13654 0.34987 0.14568
 N266 N 0.12032 0.36035 0.26417
 N267 N 0.10221 0.38337 0.24586
 C268 C 0.09978 0.39661 0.10853
 N269 N 0.11606 0.38616 -0.00986
 N270 N 0.13417 0.36314 0.00844
 C271 C 0.15493 0.32424 0.16358
 C272 C 0.16987 0.30234 0.17774
 C273 C 0.07914 0.42042 0.08687
 C274 C 0.06126 0.43993 0.06742
 C275 C 0.63690 0.85131 0.64604
 N276 N 0.62080 0.86185 0.76482
 N277 N 0.60248 0.88471 0.74638
 C278 C 0.59971 0.89771 0.60861
 N279 N 0.61585 0.88720 0.48992
 N280 N 0.63417 0.86435 0.50836
 C281 C 0.65545 0.82580 0.66407
 C282 C 0.67048 0.80397 0.67832
 C283 C 0.57886 0.92135 0.58692
 C284 C 0.56083 0.94073 0.56746
 C285 C 0.86339 0.14887 0.14549
 N286 N 0.87969 0.13853 0.26399
 N287 N 0.89803 0.11568 0.24568
 C288 C 0.90061 0.10249 0.10831
 N289 N 0.88426 0.11279 -0.01011
 N290 N 0.86592 0.13564 0.00820
 C291 C 0.84481 0.17437 0.16331
 C292 C 0.82977 0.19620 0.17738
 C293 C 0.92147 0.07885 0.08669
 C294 C 0.93950 0.05947 0.06731
 C295 C 0.36286 0.64948 0.64733
 N296 N 0.37915 0.63909 0.76577
 N297 N 0.39744 0.61621 0.74734
 C298 C 0.40000 0.60303 0.60990
 N299 N 0.38365 0.61339 0.49154
 N300 N 0.36536 0.63626 0.50998
 C301 C 0.34431 0.67498 0.66531
 C302 C 0.32927 0.69681 0.67953
 C303 C 0.42082 0.57937 0.58813
 C304 C 0.43883 0.55999 0.56859
   
