data_POSCAR
  _audit_creation_date              2014-09-24
  _audit_creation_method            'ToBaCCo'
  _symmetry_space_group_name_H-M    'P1'
  _symmetry_Int_Tables_number       1
  _symmetry_cell_setting            triclinic
  loop_
  _symmetry_equiv_pos_as_xyz
 x,y,z
_cell_length_a 31.3034
_cell_length_b 31.3648
_cell_length_c 31.2469
_cell_angle_alpha 89.935900
_cell_angle_beta 89.981400
_cell_angle_gamma 90.023300
loop_
  _atom_site_label
  _atom_site_type_symbol
  _atom_site_fract_x
  _atom_site_fract_y
  _atom_site_fract_z
N1 N 0.54580 0.08645 0.02025
 N2 N 0.57678 0.11103 0.03484
 N3 N 0.45594 0.08606 -0.02151
 N4 N 0.42492 0.11032 -0.03655
 N5 N 0.45595 0.08633 0.02052
 N6 N 0.42497 0.11079 0.03525
 N7 N 0.54579 0.08603 -0.02177
 N8 N 0.57674 0.11033 -0.03696
 C9 C 0.59586 0.12551 -0.00124
 C10 C 0.40581 0.12533 -0.00074
 N11 N 0.45567 -0.02131 -0.08558
 N12 N 0.42452 -0.03631 -0.10975
 N13 N 0.54562 0.02044 -0.08643
 N14 N 0.57615 0.03495 -0.11177
 N15 N 0.54553 -0.02139 -0.08570
 N16 N 0.57789 -0.03692 -0.11201
 N17 N 0.45577 0.02055 -0.08604
 N18 N 0.42470 0.03522 -0.11050
 Mn19 Mn 0.50080 0.05361 -0.05428
 C20 C 0.40541 -0.00063 -0.12488
 C21 C 0.59571 -0.00051 -0.12710
 N22 N 0.45615 0.02188 0.08642
 N23 N 0.42507 0.03679 0.11075
 N24 N 0.54612 -0.01975 0.08667
 N25 N 0.57663 -0.03426 0.11199
 N26 N 0.54604 0.02208 0.08596
 N27 N 0.57840 0.03761 0.11229
 N28 N 0.45629 -0.01998 0.08684
 N29 N 0.42532 -0.03473 0.11142
 Mn30 Mn 0.50096 0.05453 0.05364
 C31 C 0.40606 0.00106 0.12593
 C32 C 0.59621 0.00118 0.12734
 N33 N 0.54573 -0.08571 -0.02003
 N34 N 0.57672 -0.11009 -0.03487
 N35 N 0.45612 -0.08549 0.02231
 N36 N 0.42521 -0.10985 0.03751
 N37 N 0.45590 -0.08572 -0.01971
 N38 N 0.42487 -0.11023 -0.03428
 N39 N 0.54599 -0.08532 0.02199
 N40 N 0.57715 -0.10946 0.03693
 Mn41 Mn 0.50068 -0.05386 -0.05310
 Mn42 Mn 0.50115 -0.05297 0.05479
 Cl43 Cl 0.50088 0.00033 0.00027
 C44 C 0.59611 -0.12450 0.00105
 C45 C 0.40593 -0.12486 0.00179
 N46 N 0.08659 0.45492 0.02048
 N47 N 0.11086 0.42379 0.03522
 N48 N 0.08729 0.54493 -0.02082
 N49 N 0.11179 0.57600 -0.03537
 N50 N 0.08707 0.54459 0.02120
 N51 N 0.11143 0.57540 0.03643
 N52 N 0.08674 0.45526 -0.02155
 N53 N 0.11113 0.42438 -0.03657
 C54 C 0.12575 0.40495 -0.00076
 C55 C 0.12645 0.59478 0.00074
 N56 N -0.01941 0.54618 -0.08662
 N57 N -0.03395 0.57682 -0.11174
 N58 N 0.02190 0.45623 -0.08704
 N59 N 0.03663 0.42520 -0.11145
 N60 N -0.02005 0.45652 -0.08722
 N61 N -0.03504 0.42572 -0.11175
 N62 N 0.02250 0.54594 -0.08616
 N63 N 0.03807 0.57830 -0.11247
 Mn64 Mn 0.05494 0.50057 -0.05425
 C65 C 0.00157 0.59630 -0.12723
 C66 C 0.00071 0.40640 -0.12646
 N67 N 0.02167 0.54437 0.08613
 N68 N 0.03654 0.57515 0.11078
 N69 N -0.02074 0.45488 0.08522
 N70 N -0.03584 0.42383 0.10944
 N71 N 0.02121 0.45470 0.08539
 N72 N 0.03582 0.42352 0.10971
 N73 N -0.02027 0.54455 0.08593
 N74 N -0.03513 0.57544 0.11041
 Mn75 Mn 0.05447 0.49965 0.05364
 C76 C 0.00070 0.59432 0.12551
 C77 C -0.00015 0.40447 0.12429
 N78 N -0.08542 0.45629 -0.02230
 N79 N -0.10986 0.42552 -0.03751
 N80 N -0.08503 0.54552 0.02046
 N81 N -0.10935 0.57642 0.03554
 N82 N -0.08482 0.54598 -0.02156
 N83 N -0.10900 0.57721 -0.03625
 N84 N -0.08553 0.45586 0.01972
 N85 N -0.11002 0.42481 0.03428
 Mn86 Mn -0.05277 0.50126 -0.05476
 Mn87 Mn -0.05323 0.50019 0.05317
 Cl88 Cl 0.00086 0.50041 -0.00055
 C89 C -0.12479 0.40609 -0.00181
 C90 C -0.12388 0.59598 -0.00023
 N91 N 0.02005 0.08529 0.45501
 N92 N 0.03497 0.10960 0.42389
 N93 N -0.02204 0.08561 0.54494
 N94 N -0.03689 0.11021 0.57580
 N95 N 0.01991 0.08552 0.54502
 N96 N 0.03478 0.11005 0.57592
 N97 N -0.02190 0.08525 0.45492
 N98 N -0.03670 0.10954 0.42375
 C99 C -0.00083 0.12430 0.40460
 C100 C -0.00105 0.12503 0.59492
 N101 N -0.08724 -0.02118 0.54538
 N102 N -0.11182 -0.03580 0.57645
 N103 N -0.08706 0.02030 0.45512
 N104 N -0.11155 0.03499 0.42404
 N105 N -0.08710 -0.02157 0.45536
 N106 N -0.11160 -0.03653 0.42445
 N107 N -0.08717 0.02069 0.54512
 N108 N -0.11166 0.03573 0.57599
 Mn109 Mn -0.05487 0.05330 0.50001
 C110 C -0.12662 0.00011 0.59534
 C111 C -0.12643 -0.00087 0.40511
 N112 N 0.08496 0.02052 0.54540
 N113 N 0.10942 0.03538 0.57640
 N114 N 0.08509 -0.02154 0.45550
 N115 N 0.10967 -0.03638 0.42457
 N116 N 0.08507 0.02033 0.45540
 N117 N 0.10961 0.03515 0.42441
 N118 N 0.08491 -0.02135 0.54552
 N119 N 0.10932 -0.03615 0.57660
 Mn120 Mn 0.05283 0.05325 0.50021
 C121 C 0.12419 -0.00038 0.59566
 C122 C 0.12453 -0.00060 0.40538
 N123 N -0.02204 -0.08655 0.45570
 N124 N -0.03684 -0.11104 0.42472
 N125 N 0.01977 -0.08629 0.54573
 N126 N 0.03456 -0.11081 0.57672
 N127 N -0.02218 -0.08623 0.54572
 N128 N -0.03711 -0.11073 0.57669
 N129 N 0.01991 -0.08649 0.45572
 N130 N 0.03483 -0.11093 0.42478
 Mn131 Mn -0.05498 -0.05422 0.50055
 Mn132 Mn 0.05275 -0.05425 0.50062
 Cl133 Cl -0.00107 -0.00049 0.50035
 C134 C -0.00096 -0.12582 0.40564
 C135 C -0.00132 -0.12562 0.59585
 N136 N -0.32036 0.19848 -0.03949
 C137 C -0.30407 0.21348 -0.00222
 N138 N -0.32030 0.19911 0.03536
 N139 N -0.35193 0.17067 0.03567
 C140 C -0.36839 0.15570 -0.00159
 N141 N -0.35199 0.17003 -0.03918
 C142 C -0.27112 0.24530 -0.00253
 C143 C -0.24399 0.27259 -0.00261
 C144 C -0.21236 0.30571 -0.00248
 N145 N -0.19768 0.32170 0.03503
 N146 N -0.16939 0.35345 0.03522
 C147 C -0.15489 0.37029 -0.00210
 N148 N -0.16953 0.35414 -0.03963
 N149 N -0.19783 0.32238 -0.03982
 N150 N 0.32217 0.80196 0.03971
 C151 C 0.30575 0.78731 0.00235
 N152 N 0.32190 0.80198 -0.03514
 N153 N 0.35357 0.83038 -0.03529
 C154 C 0.37015 0.84500 0.00206
 N155 N 0.35384 0.83037 0.03957
 C156 C 0.27277 0.75553 0.00244
 C157 C 0.24562 0.72827 0.00229
 C158 C 0.21398 0.69517 0.00193
 N159 N 0.19955 0.67918 -0.03569
 N160 N 0.17126 0.64742 -0.03607
 C161 C 0.15652 0.63060 0.00116
 N162 N 0.17092 0.64675 0.03879
 N163 N 0.19921 0.67851 0.03916
 N164 N 0.32176 0.19840 0.03635
 C165 C 0.30540 0.21284 -0.00113
 N166 N 0.32168 0.19807 -0.03850
 N167 N 0.35343 0.16977 -0.03839
 C168 C 0.36996 0.15538 -0.00090
 N169 N 0.35350 0.17011 0.03647
 C170 C 0.27232 0.24450 -0.00124
 C171 C 0.24510 0.27168 -0.00123
 C172 C 0.21337 0.30468 -0.00114
 N173 N 0.19890 0.32128 -0.03851
 N174 N 0.17056 0.35298 -0.03840
 C175 C 0.15581 0.36913 -0.00091
 N176 N 0.17024 0.35236 0.03646
 N177 N 0.19857 0.32067 0.03634
 N178 N -0.31990 0.80260 -0.03644
 C179 C -0.30330 0.78823 0.00096
 N180 N -0.31939 0.80300 0.03841
 N181 N -0.35120 0.83123 0.03846
 C182 C -0.36797 0.84556 0.00105
 N183 N -0.35170 0.83083 -0.03640
 C184 C -0.27020 0.75660 0.00089
 C185 C -0.24298 0.72943 0.00074
 C186 C -0.21128 0.69641 0.00051
 N187 N -0.19682 0.67967 0.03781
 N188 N -0.16854 0.64792 0.03757
 C189 C -0.15385 0.63186 0.00002
 N190 N -0.16826 0.64878 -0.03728
 N191 N -0.19654 0.68053 -0.03704
 N192 N -0.03699 -0.32176 0.19842
 C193 C 0.00028 -0.30559 0.21340
 N194 N 0.03772 -0.32198 0.19908
 N195 N 0.03789 -0.35365 0.17067
 C196 C 0.00060 -0.36998 0.15572
 N197 N -0.03683 -0.35342 0.17002
 C198 C 0.00007 -0.27257 0.24514
 C199 C -0.00015 -0.24536 0.27235
 C200 C -0.00039 -0.21363 0.30539
 N201 N 0.03686 -0.19880 0.32176
 N202 N 0.03666 -0.17042 0.35346
 C203 C -0.00080 -0.15598 0.36985
 N204 N -0.03806 -0.17077 0.35332
 N205 N -0.03786 -0.19915 0.32161
 N206 N -0.03722 0.32253 0.80067
 C207 C 0.00002 0.30587 0.78615
 N208 N 0.03750 0.32192 0.80077
 N209 N 0.03774 0.35373 0.82900
 C210 C 0.00049 0.37056 0.84348
 N211 N -0.03699 0.35435 0.82890
 C212 C -0.00024 0.27265 0.75461
 C213 C -0.00046 0.24528 0.72756
 C214 C -0.00065 0.21336 0.69471
 N215 N 0.03662 0.19840 0.67852
 N216 N 0.03648 0.16985 0.64698
 C217 C -0.00096 0.15535 0.63057
 N218 N -0.03825 0.17027 0.64692
 N219 N -0.03809 0.19883 0.67847
 N220 N -0.03796 0.32030 0.19713
 C221 C -0.00067 0.30382 0.21176
 N222 N 0.03676 0.32004 0.19717
 N223 N 0.03691 0.35186 0.16888
 C224 C -0.00037 0.36851 0.15429
 N225 N -0.03782 0.35212 0.16883
 C226 C -0.00079 0.27072 0.24349
 C227 C -0.00082 0.24349 0.27074
 C228 C -0.00081 0.21178 0.30387
 N229 N 0.03655 0.19725 0.32028
 N230 N 0.03656 0.16895 0.35213
 C231 C -0.00080 0.15431 0.36862
 N232 N -0.03816 0.16879 0.35203
 N233 N -0.03817 0.19709 0.32019
 N234 N 0.03702 -0.32213 0.80197
 C235 C -0.00067 -0.30645 0.78757
 N236 N -0.03766 -0.32343 0.80243
 N237 N -0.03697 -0.35522 0.83076
 C238 C 0.00076 -0.37118 0.84513
 N239 N 0.03774 -0.35391 0.83029
 C240 C -0.00132 -0.27325 0.75592
 C241 C -0.00155 -0.24589 0.72880
 C242 C -0.00154 -0.21396 0.69586
 N243 N -0.03886 -0.19921 0.67957
 N244 N -0.03880 -0.17064 0.64796
 C245 C -0.00140 -0.15594 0.63159
 N246 N 0.03592 -0.17065 0.64805
 N247 N 0.03585 -0.19921 0.67966
 N248 N 0.32084 -0.03806 0.80257
 C249 C 0.30459 -0.00079 0.78776
 N250 N 0.32112 0.03651 0.80212
 N251 N 0.35300 0.03654 0.83036
 C252 C 0.36942 -0.00073 0.84513
 N253 N 0.35273 -0.03804 0.83082
 C254 C 0.27138 -0.00079 0.75613
 C255 C 0.24403 -0.00071 0.72898
 C256 C 0.21217 -0.00060 0.69598
 N257 N 0.19764 0.03674 0.67961
 N258 N 0.16918 0.03683 0.64790
 C259 C 0.15438 -0.00042 0.63150
 N260 N 0.16887 -0.03775 0.64804
 N261 N 0.19732 -0.03784 0.67975
 N262 N -0.32229 0.03667 0.19817
 C263 C -0.30677 -0.00092 0.21288
 N264 N -0.32383 -0.03787 0.19822
 N265 N -0.35555 -0.03723 0.16977
 C266 C -0.37134 0.00040 0.15509
 N267 N -0.35399 0.03733 0.16973
 C268 C -0.27367 -0.00147 0.24464
 C269 C -0.24638 -0.00160 0.27185
 C270 C -0.21454 -0.00145 0.30489
 N271 N -0.19986 -0.03864 0.32144
 N272 N -0.17137 -0.03845 0.35312
 C273 C -0.15668 -0.00107 0.36931
 N274 N -0.17133 0.03612 0.35260
 N275 N -0.19982 0.03593 0.32091
 N276 N 0.32153 0.03807 0.19880
 C277 C 0.30537 0.00071 0.21351
 N278 N 0.32195 -0.03650 0.19901
 N279 N 0.35380 -0.03635 0.17071
 C280 C 0.37014 0.00101 0.15603
 N281 N 0.35339 0.03823 0.17049
 C282 C 0.27214 0.00050 0.24516
 C283 C 0.24476 0.00025 0.27230
 C284 C 0.21284 -0.00003 0.30527
 N285 N 0.19833 -0.03743 0.32155
 N286 N 0.16978 -0.03765 0.35320
 C287 C 0.15485 -0.00047 0.36962
 N288 N 0.16932 0.03692 0.35316
 N289 N 0.19786 0.03714 0.32152
 N290 N -0.32417 0.03829 0.80197
 C291 C -0.30717 0.00128 0.78743
 N292 N -0.32278 -0.03625 0.80223
 N293 N -0.35452 -0.03679 0.83063
 C294 C -0.37182 0.00020 0.84516
 N295 N -0.35593 0.03777 0.83039
 C296 C -0.27402 0.00167 0.75571
 C297 C -0.24670 0.00161 0.72852
 C298 C -0.21483 0.00124 0.69551
 N299 N -0.20029 -0.03624 0.67956
 N300 N -0.17178 -0.03663 0.64788
 C301 C -0.15690 0.00047 0.63112
 N302 N -0.17140 0.03795 0.64724
 N303 N -0.19991 0.03833 0.67891
   
