data_POSCAR
  _audit_creation_date              2014-09-24
  _audit_creation_method            'ToBaCCo'
  _symmetry_space_group_name_H-M    'P1'
  _symmetry_Int_Tables_number       1
  _symmetry_cell_setting            triclinic
  loop_
  _symmetry_equiv_pos_as_xyz
 x,y,z
_cell_length_a 27.7895
_cell_length_b 27.6581
_cell_length_c 27.6566
_cell_angle_alpha 90.005700
_cell_angle_beta 89.914900
_cell_angle_gamma 89.909000
loop_
  _atom_site_label
  _atom_site_type_symbol
  _atom_site_fract_x
  _atom_site_fract_y
  _atom_site_fract_z
C1 C 0.16123 1.22618 0.22448
 C2 C 0.14102 1.26697 0.20216
 C3 C 0.16210 1.28642 0.16039
 C4 C 0.20397 1.26564 0.14108
 C5 C 0.22464 1.22485 0.16296
 C6 C 0.20319 1.20492 0.20480
 C7 C 0.13933 1.20532 0.26516
 C8 C 0.15873 1.16344 0.28607
 C9 C 0.20061 1.14256 0.26687
 C10 C 0.22295 1.16296 0.22620
 C11 C 0.26376 1.14125 0.20558
 C12 C 0.28469 1.16082 0.16385
 C13 C 0.26544 1.20266 0.14282
 H14 H 0.10833 1.28292 0.21664
 H15 H 0.21983 1.28056 0.10845
 H16 H 0.10663 1.22102 0.27989
 H17 H 0.21518 1.10987 0.28291
 H18 H 0.27863 1.10855 0.22127
 H19 H 0.28160 1.21722 0.11021
 C20 C 0.84027 0.77436 0.22507
 C21 C 0.86182 0.73378 0.20357
 C22 C 0.84187 0.71321 0.16185
 C23 C 0.79977 0.73263 0.14177
 C24 C 0.77777 0.77320 0.16283
 C25 C 0.79810 0.79427 0.20462
 C26 C 0.86106 0.79634 0.26568
 C27 C 0.84035 0.83802 0.28575
 C28 C 0.79826 0.85758 0.26579
 C29 C 0.77700 0.83603 0.22518
 C30 C 0.73597 0.85641 0.20377
 C31 C 0.71615 0.83570 0.16209
 C32 C 0.73673 0.79406 0.14191
 H33 H 0.89469 0.71888 0.21866
 H34 H 0.78477 0.71685 0.10919
 H35 H 0.89392 0.78167 0.28099
 H36 H 0.78268 0.89014 0.28119
 H37 H 0.72007 0.88896 0.21880
 H38 H 0.72142 0.77863 0.10933
 C39 C 0.83651 1.22444 -0.22499
 C40 C 0.85781 1.26510 -0.20357
 C41 C 0.83806 1.28524 -0.16149
 C42 C 0.79648 1.26535 -0.14090
 C43 C 0.77472 1.22471 -0.16182
 C44 C 0.79481 1.20404 -0.20402
 C45 C 0.85708 1.20283 -0.26603
 C46 C 0.83660 1.16107 -0.28600
 C47 C 0.79498 1.14106 -0.26551
 C48 C 0.77396 1.16221 -0.22447
 C49 C 0.73344 1.14135 -0.20255
 C50 C 0.71388 1.16166 -0.16047
 C51 C 0.73420 1.20338 -0.14038
 H52 H 0.89032 1.28045 -0.21893
 H53 H 0.78179 1.28090 -0.10802
 H54 H 0.88958 1.21786 -0.28175
 H55 H 0.77959 1.10844 -0.28083
 H56 H 0.71775 1.10874 -0.21751
 H57 H 0.71910 1.21851 -0.10750
 C58 C 0.16203 0.77570 -0.22601
 C59 C 0.14095 0.73481 -0.20479
 C60 C 0.16103 0.71426 -0.16309
 C61 C 0.20279 0.73403 -0.14275
 C62 C 0.22433 0.77492 -0.16352
 C63 C 0.20387 0.79595 -0.20530
 C64 C 0.14111 0.79769 -0.26659
 C65 C 0.16136 0.83963 -0.28635
 C66 C 0.20308 0.85952 -0.26616
 C67 C 0.22447 0.83801 -0.22559
 C68 C 0.26513 0.85873 -0.20395
 C69 C 0.28509 0.83808 -0.16229
 C70 C 0.26501 0.79614 -0.14235
 H71 H 0.10834 0.71966 -0.22007
 H72 H 0.21788 0.71826 -0.11018
 H73 H 0.10851 0.78289 -0.28218
 H74 H 0.21818 0.89230 -0.28141
 H75 H 0.28063 0.89151 -0.21879
 H76 H 0.28041 0.78074 -0.10978
 C77 C 0.57321 1.06525 -0.01196
 H78 H 0.57367 1.06503 0.02715
 C79 C 0.60680 1.09275 -0.03745
 H80 H 0.63315 1.11398 -0.01797
 C81 C 0.53957 1.03632 -0.08525
 H82 H 0.51411 1.01337 -0.10370
 C83 C 0.57262 1.06330 -0.11216
 H84 H 0.57225 1.06138 -0.15128
 N85 N 0.54047 1.03781 -0.03604
 C86 C 0.42671 1.01189 0.06942
 H87 H 0.42638 0.97277 0.06939
 C88 C 0.39295 1.03741 0.09682
 H89 H 0.36661 1.01794 0.11815
 C90 C 0.46008 1.08514 0.04002
 H91 H 0.48547 1.10356 0.01688
 C92 C 0.42687 1.11207 0.06688
 H93 H 0.42705 1.15118 0.06468
 Zn94 Zn 0.49990 0.99809 0.00184
 N95 N 0.45936 1.03594 0.04176
 C96 C 0.54010 0.95985 0.08860
 N97 N 0.54063 0.95822 0.03939
 C98 C 0.57324 0.93069 0.01503
 C99 C 0.60715 0.90330 0.04023
 C100 C 0.57348 0.93299 0.11523
 C101 C 0.42645 0.98486 -0.06516
 C102 C 0.39272 0.95967 -0.09268
 C103 C 0.42667 0.88466 -0.06347
 C104 C 0.45987 0.91128 -0.03647
 N105 N 0.45915 0.96049 -0.03784
 H106 H 0.51472 0.98287 0.10725
 H107 H 0.57341 0.93082 -0.02408
 H108 H 0.63345 0.88207 0.02052
 H109 H 0.57346 0.93507 0.15434
 H110 H 0.42614 1.02397 -0.06485
 H111 H 0.36642 0.97938 -0.11382
 H112 H 0.42691 0.84553 -0.06167
 H113 H 0.48532 0.89262 -0.01362
 C114 C 0.39283 1.08793 0.09526
 C115 C 0.60668 1.09153 -0.08799
 C116 C 0.39266 0.90913 -0.09159
 C117 C 0.60748 0.90473 0.09076
 C118 C -0.01149 0.57401 1.06622
 H119 H 0.02744 0.57443 1.06595
 C120 C -0.03684 0.60779 1.09381
 H121 H -0.01744 0.63426 1.11504
 C122 C -0.08444 0.54027 1.03734
 H123 H -0.10282 0.51469 1.01439
 C124 C -0.11121 0.57350 1.06440
 H125 H -0.15015 0.57316 1.06254
 N126 N -0.03548 0.54112 1.03877
 C127 C 0.06931 0.42659 1.01269
 H128 H 0.06929 0.42619 0.97357
 C129 C 0.09653 0.39269 1.03818
 H130 H 0.11774 0.36616 1.01869
 C131 C 0.04007 0.46030 1.08597
 H132 H 0.01708 0.48587 1.10442
 C133 C 0.06676 0.42695 1.11288
 H134 H 0.06457 0.42721 1.15199
 Zn135 Zn 0.00219 0.50026 0.99898
 N136 N 0.04182 0.45949 1.03677
 C137 C 0.08864 0.54038 0.96059
 N138 N 0.03967 0.54107 0.95910
 C139 C 0.01550 0.57388 0.93164
 C140 C 0.04066 0.60779 0.90415
 C141 C 0.11522 0.57376 0.93363
 C142 C -0.06463 0.42657 0.98568
 C143 C -0.09212 0.39280 0.96043
 C144 C -0.06295 0.42690 0.88547
 C145 C -0.03598 0.46013 0.91214
 N146 N -0.03735 0.45937 0.96136
 H147 H 0.10715 0.51485 0.98356
 H148 H -0.02343 0.57417 0.93187
 H149 H 0.02110 0.63423 0.88295
 H150 H 0.15415 0.57359 0.93558
 H151 H -0.06433 0.42623 1.02479
 H152 H -0.11326 0.36643 0.98011
 H153 H -0.06117 0.42718 0.84634
 H154 H -0.01316 0.48566 0.89351
 C155 C 0.09498 0.39267 1.08871
 C156 C -0.08713 0.60771 1.09266
 C157 C -0.09106 0.39280 0.90990
 C158 C 0.09095 0.60793 0.90541
 C159 C 1.06472 -0.01178 0.57288
 H160 H 1.06435 0.02734 0.57345
 C161 C 1.09219 -0.03725 0.60656
 H162 H 1.11323 -0.01776 0.63311
 C163 C 1.03623 -0.08508 0.53885
 H164 H 1.01348 -0.10354 0.51319
 C165 C 1.06318 -0.11197 0.57198
 H166 H 1.06143 -0.15110 0.57148
 N167 N 1.03753 -0.03587 0.53989
 C168 C 1.01156 0.06956 0.42571
 H169 H 0.97263 0.06945 0.42528
 C170 C 1.03694 0.09706 0.39193
 H171 H 1.01755 0.11837 0.36547
 C172 C 1.08448 0.04030 0.45937
 H173 H 1.10284 0.01720 0.48488
 C174 C 1.11127 0.06726 0.42615
 H175 H 1.15020 0.06516 0.42644
 Zn176 Zn 0.99791 0.00196 0.49914
 N177 N 1.03552 0.04194 0.45852
 C178 C 0.95952 0.08868 0.53957
 N179 N 0.95808 0.03947 0.54008
 C180 C 0.93073 0.01510 0.57280
 C181 C 0.90334 0.04029 0.60685
 C182 C 0.93266 0.11529 0.57309
 C183 C 0.98501 -0.06507 0.42522
 C184 C 0.96004 -0.09272 0.39135
 C185 C 0.88527 -0.06371 0.42553
 C186 C 0.91167 -0.03656 0.45886
 N187 N 0.96065 -0.03779 0.45810
 H188 H 0.98240 0.10734 0.51411
 H189 H 0.93099 -0.02402 0.57295
 H190 H 0.88224 0.02057 0.63324
 H191 H 0.93458 0.15441 0.57308
 H192 H 1.02394 -0.06464 0.42489
 H193 H 0.97974 -0.11386 0.36492
 H194 H 0.84632 -0.06205 0.42581
 H195 H 0.89300 -0.01375 0.48446
 C196 C 1.08722 0.09562 0.39196
 C197 C 1.09118 -0.08778 0.60628
 C198 C 0.90974 -0.09182 0.39134
 C199 C 0.90457 0.09081 0.60720
 C200 C 0.14022 0.32373 1.13689
 C201 C 0.12007 0.35577 1.11535
 C202 C -0.13496 0.67615 1.13916
 C203 C -0.11363 0.64434 1.11837
 C204 C -0.13774 0.32446 0.86245
 C205 C -0.11681 0.35623 0.88355
 C206 C 0.13825 0.67689 0.85936
 C207 C 0.11719 0.64482 0.87994
 C208 C 1.13526 0.14136 0.32326
 C209 C 1.11377 0.12099 0.35519
 C210 C 1.13753 -0.13586 0.67450
 C211 C 1.11680 -0.11442 0.64280
 C212 C 0.86283 -0.13884 0.32286
 C213 C 0.88368 -0.11775 0.35470
 C214 C 0.85883 0.13820 0.67647
 C215 C 0.87925 0.11709 0.64426
 C216 C 0.32411 1.13612 0.14074
 C217 C 0.35605 1.11458 0.12048
 C218 C 0.67479 1.13785 -0.13603
 C219 C 0.64313 1.11714 -0.11461
 C220 C 0.32433 0.86187 -0.13818
 C221 C 0.35610 0.88286 -0.11730
 C222 C 0.67651 0.85907 0.13810
 C223 C 0.64441 0.87945 0.11703
   
