data_POSCAR
  _audit_creation_date              2014-09-24
  _audit_creation_method            'ToBaCCo'
  _symmetry_space_group_name_H-M    'P1'
  _symmetry_Int_Tables_number       1
  _symmetry_cell_setting            triclinic
  loop_
  _symmetry_equiv_pos_as_xyz
 x,y,z
_cell_length_a 36.8547
_cell_length_b 31.9578
_cell_length_c 27.7299
_cell_angle_alpha 90.206600
_cell_angle_beta 90.026300
_cell_angle_gamma 89.972900
loop_
  _atom_site_label
  _atom_site_type_symbol
  _atom_site_fract_x
  _atom_site_fract_y
  _atom_site_fract_z
C1 C 0.30562 0.30684 0.23092
 H2 H 0.30749 0.30727 0.26986
 C3 C 0.32837 0.33235 0.20354
 H4 H 0.34777 0.35263 0.22139
 C5 C 0.27790 0.28012 0.16000
 H6 H 0.25846 0.25949 0.14312
 C7 C 0.30016 0.30514 0.13126
 H8 H 0.29750 0.30403 0.09236
 N9 N 0.28055 0.28201 0.20894
 C10 C 0.19494 0.26740 0.31638
 H11 H 0.19310 0.23366 0.31845
 C12 C 0.17210 0.29239 0.34459
 H13 H 0.15268 0.27795 0.36866
 C14 C 0.22223 0.32761 0.28225
 H15 H 0.24135 0.34131 0.25744
 C16 C 0.19991 0.35370 0.30975
 H17 H 0.20227 0.38736 0.30640
 Zn18 Zn 0.25003 0.24975 0.24927
 N19 N 0.21977 0.28528 0.28653
 C20 C 0.27798 0.21936 0.33851
 N21 N 0.28049 0.21733 0.28957
 C22 C 0.30542 0.19228 0.26760
 C23 C 0.32814 0.16672 0.29500
 C24 C 0.30021 0.19429 0.36728
 C25 C 0.19473 0.23245 0.18229
 C26 C 0.17169 0.20759 0.15419
 C27 C 0.19932 0.14612 0.18904
 C28 C 0.22183 0.17207 0.21642
 N29 N 0.21955 0.21441 0.21208
 H30 H 0.25866 0.24017 0.35538
 H31 H 0.30720 0.19175 0.22866
 H32 H 0.34743 0.14628 0.27718
 H33 H 0.29766 0.19554 0.40617
 H34 H 0.19304 0.26619 0.18018
 H35 H 0.15228 0.22215 0.13018
 H36 H 0.20152 0.11245 0.19243
 H37 H 0.24095 0.15826 0.24118
 C38 C 0.17478 0.33595 0.34138
 C39 C 0.32538 0.33174 0.15329
 C40 C 0.17418 0.16402 0.15748
 C41 C 0.32528 0.16749 0.34527
 C42 C 0.80650 0.80823 0.23033
 H43 H 0.80842 0.80871 0.26926
 C44 C 0.82898 0.83399 0.20287
 H45 H 0.84822 0.85447 0.22076
 C46 C 0.77886 0.78118 0.15953
 H47 H 0.75954 0.76034 0.14274
 C48 C 0.80084 0.80643 0.13067
 H49 H 0.79803 0.80519 0.09178
 N50 N 0.78157 0.78313 0.20846
 C51 C 0.69587 0.76820 0.31573
 H52 H 0.69412 0.73446 0.31779
 C53 C 0.67291 0.79311 0.34388
 H54 H 0.65350 0.77859 0.36790
 C55 C 0.72305 0.82853 0.28170
 H56 H 0.74218 0.84230 0.25696
 C57 C 0.70062 0.85452 0.30914
 H58 H 0.70289 0.88819 0.30582
 Zn59 Zn 0.75117 0.75076 0.24885
 N60 N 0.72071 0.78619 0.28598
 C61 C 0.77887 0.72043 0.33825
 N62 N 0.78164 0.71847 0.28933
 C63 C 0.80665 0.69341 0.26754
 C64 C 0.82913 0.66769 0.29509
 C65 C 0.80086 0.69520 0.36716
 C66 C 0.69595 0.73306 0.18183
 C67 C 0.67303 0.70804 0.15377
 C68 C 0.70088 0.64677 0.18877
 C69 C 0.72327 0.67289 0.21611
 N70 N 0.72083 0.71521 0.21169
 H71 H 0.75950 0.74123 0.35499
 H72 H 0.80861 0.69292 0.22861
 H73 H 0.84844 0.64720 0.27740
 H74 H 0.79807 0.69635 0.40603
 H75 H 0.69412 0.76679 0.17965
 H76 H 0.65356 0.72245 0.12971
 H77 H 0.70320 0.61312 0.19225
 H78 H 0.74242 0.65921 0.24094
 C79 C 0.67549 0.83667 0.34070
 C80 C 0.82588 0.83337 0.15258
 C81 C 0.67568 0.66449 0.15715
 C82 C 0.82596 0.66832 0.34533
 C83 C 0.80686 0.30616 0.73271
 H84 H 0.80885 0.30660 0.77164
 C85 C 0.82933 0.33190 0.70521
 H86 H 0.84865 0.35235 0.72294
 C87 C 0.77905 0.27926 0.66194
 H88 H 0.75967 0.25850 0.64516
 C89 C 0.80103 0.30451 0.63308
 H90 H 0.79822 0.30341 0.59421
 N91 N 0.78184 0.28115 0.71087
 C92 C 0.69623 0.26644 0.81832
 H93 H 0.69443 0.23271 0.82045
 C94 C 0.67328 0.29144 0.84638
 H95 H 0.65383 0.27700 0.87040
 C96 C 0.72348 0.32666 0.78414
 H97 H 0.74262 0.34036 0.75936
 C98 C 0.70107 0.35274 0.81149
 H99 H 0.70336 0.38640 0.80805
 Zn100 Zn 0.75142 0.24882 0.75128
 N101 N 0.72109 0.28433 0.78851
 C102 C 0.77920 0.21826 0.84054
 N103 N 0.78187 0.21637 0.79161
 C104 C 0.80679 0.19131 0.76967
 C105 C 0.82933 0.16551 0.79706
 C106 C 0.80122 0.19297 0.86935
 C107 C 0.69607 0.23150 0.68438
 C108 C 0.67308 0.20664 0.65621
 C109 C 0.70084 0.14516 0.69084
 C110 C 0.72330 0.17111 0.71830
 N111 N 0.72094 0.21346 0.71409
 H112 H 0.75988 0.23908 0.85737
 H113 H 0.80868 0.19090 0.73074
 H114 H 0.84856 0.14509 0.77902
 H115 H 0.79839 0.19422 0.90825
 H116 H 0.69431 0.26524 0.68238
 H117 H 0.65364 0.22121 0.63224
 H118 H 0.70312 0.11149 0.69411
 H119 H 0.74246 0.15729 0.74300
 C120 C 0.67589 0.33500 0.84306
 C121 C 0.82613 0.33134 0.65497
 C122 C 0.67567 0.16307 0.65933
 C123 C 0.82629 0.16604 0.84739
 C124 C 0.30557 0.80769 0.73202
 H125 H 0.30736 0.80821 0.77096
 C126 C 0.32828 0.83324 0.70464
 H127 H 0.34756 0.85366 0.72248
 C128 C 0.27811 0.78064 0.66109
 H129 H 0.25879 0.75985 0.64421
 C130 C 0.30033 0.80569 0.63234
 H131 H 0.29776 0.80446 0.59344
 N132 N 0.28064 0.78266 0.71003
 C133 C 0.19489 0.76771 0.81723
 H134 H 0.19321 0.73398 0.81940
 C135 C 0.17184 0.79263 0.84524
 H136 H 0.15243 0.77812 0.86926
 C137 C 0.22197 0.82802 0.78303
 H138 H 0.24109 0.84178 0.75826
 C139 C 0.19945 0.85403 0.81032
 H140 H 0.20164 0.88769 0.80686
 Zn141 Zn 0.25020 0.75029 0.75033
 N142 N 0.21971 0.78569 0.78744
 C143 C 0.27806 0.71991 0.83966
 N144 N 0.28072 0.71803 0.79072
 C145 C 0.30580 0.69318 0.76877
 C146 C 0.32854 0.66764 0.79618
 C147 C 0.30031 0.69486 0.86843
 C148 C 0.19509 0.73260 0.68318
 C149 C 0.17223 0.70758 0.65502
 C150 C 0.20007 0.64631 0.69002
 C151 C 0.22239 0.67242 0.71746
 N152 N 0.21993 0.71474 0.71308
 H153 H 0.25861 0.74056 0.85650
 H154 H 0.30767 0.69275 0.72984
 H155 H 0.34794 0.64734 0.77836
 H156 H 0.29764 0.69596 0.90732
 H157 H 0.19325 0.76633 0.68103
 H158 H 0.15280 0.72200 0.63091
 H159 H 0.20242 0.61265 0.69346
 H160 H 0.24153 0.65874 0.74232
 C161 C 0.17431 0.83620 0.84187
 C162 C 0.32540 0.83248 0.65437
 C163 C 0.17492 0.66403 0.65835
 C164 C 0.32553 0.66824 0.84643
 C165 C -0.04125 -0.03112 0.02389
 C166 C -0.02218 0.00026 -0.00064
 C167 C -0.04131 0.03163 -0.02517
 C168 C -0.07931 0.03138 -0.02557
 C169 C -0.09825 0.00024 -0.00063
 C170 C -0.07926 -0.03088 0.02431
 C171 C 0.01775 0.00027 -0.00063
 C172 C 0.03687 -0.03076 -0.02603
 C173 C 0.07487 -0.03051 -0.02637
 C174 C 0.09380 0.00023 -0.00054
 C175 C 0.07485 0.03099 0.02524
 C176 C 0.03685 0.03127 0.02481
 H177 H -0.02653 -0.05523 0.04315
 H178 H -0.02663 0.05575 -0.04443
 H179 H 0.02218 -0.05458 -0.04597
 H180 H 0.02214 0.05510 0.04474
 H181 H -0.12768 0.00024 -0.00062
 H182 H 0.12324 0.00022 -0.00050
 C183 C -0.04002 0.46848 0.52475
 C184 C -0.02094 0.49985 0.50021
 C185 C -0.04007 0.53123 0.47568
 C186 C -0.07807 0.53098 0.47528
 C187 C -0.09701 0.49985 0.50023
 C188 C -0.07802 0.46872 0.52518
 C189 C 0.01898 0.49986 0.50018
 C190 C 0.03808 0.46891 0.47464
 C191 C 0.07608 0.46919 0.47419
 C192 C 0.09503 0.49990 0.50005
 C193 C 0.07609 0.53059 0.52598
 C194 C 0.03809 0.53082 0.52565
 H195 H -0.02529 0.44437 0.54400
 H196 H -0.02538 0.55534 0.45641
 H197 H 0.02337 0.44512 0.45466
 H198 H 0.02340 0.55460 0.54567
 H199 H -0.12644 0.49985 0.50024
 H200 H 0.12447 0.49992 0.50000
 C201 C 0.46044 -0.03131 0.52459
 C202 C 0.47954 0.00002 0.49998
 C203 C 0.46043 0.03135 0.47535
 C204 C 0.42243 0.03110 0.47492
 C205 C 0.40348 0.00001 0.49991
 C206 C 0.42244 -0.03107 0.52494
 C207 C 0.51946 0.00000 0.50000
 C208 C 0.53856 -0.03081 0.47424
 C209 C 0.57656 -0.03057 0.47387
 C210 C 0.59551 -0.00004 0.50001
 C211 C 0.57657 0.03051 0.52614
 C212 C 0.53857 0.03079 0.52575
 H213 H 0.47516 -0.05540 0.54391
 H214 H 0.47512 0.05542 0.45604
 H215 H 0.52385 -0.05447 0.45406
 H216 H 0.52387 0.05447 0.54594
 H217 H 0.37405 0.00001 0.49988
 H218 H 0.62494 -0.00006 0.50001
 C219 C 0.46054 0.46825 0.02414
 C220 C 0.47966 0.49978 -0.00010
 C221 C 0.46057 0.53135 -0.02435
 C222 C 0.42257 0.53114 -0.02479
 C223 C 0.40360 0.49986 -0.00014
 C224 C 0.42254 0.46855 0.02453
 C225 C 0.51960 0.49975 -0.00005
 C226 C 0.53871 0.46857 -0.02519
 C227 C 0.57672 0.46881 -0.02554
 C228 C 0.59565 0.49971 0.00005
 C229 C 0.57670 0.53062 0.02559
 C230 C 0.53870 0.53091 0.02514
 H231 H 0.47523 0.44399 0.04320
 H232 H 0.47528 0.55558 -0.04339
 H233 H 0.52403 0.44463 -0.04496
 H234 H 0.52399 0.55486 0.04487
 H235 H 0.37417 0.49990 -0.00015
 H236 H 0.62508 0.49969 0.00009
 C237 C 0.15143 -0.13721 -0.12921
 C238 C 0.13289 -0.11406 -0.10523
 C239 C 0.11191 -0.08596 -0.07746
 C240 C 0.09466 -0.06114 -0.05402
 C241 C 0.15214 0.36260 0.37054
 C242 C 0.13377 0.38577 0.39472
 C243 C 0.11297 0.41386 0.42273
 C244 C 0.09582 0.43865 0.44636
 C245 C 0.65276 -0.13677 0.36986
 C246 C 0.63433 -0.11368 0.39407
 C247 C 0.61348 -0.08569 0.42215
 C248 C 0.59630 -0.06100 0.44588
 C249 C 0.65310 0.36167 -0.12801
 C250 C 0.63462 0.38491 -0.10406
 C251 C 0.61371 0.41313 -0.07636
 C252 C 0.59649 0.43806 -0.05301
 C253 C -0.15403 0.14069 -0.12650
 C254 C -0.13625 0.11669 -0.10274
 C255 C -0.11594 0.08779 -0.07539
 C256 C -0.09902 0.06244 -0.05245
 C257 C -0.15245 0.64045 0.37420
 C258 C -0.13479 0.61639 0.39800
 C259 C -0.11460 0.58743 0.42541
 C260 C -0.09775 0.56205 0.44839
 C261 C 0.34724 0.13990 0.37400
 C262 C 0.36519 0.11607 0.39770
 C263 C 0.38568 0.08733 0.42502
 C264 C 0.40271 0.06209 0.44798
 C265 C 0.34746 0.64059 -0.12487
 C266 C 0.36539 0.61665 -0.10127
 C267 C 0.38586 0.58776 -0.07415
 C268 C 0.40287 0.56235 -0.05141
 C269 C -0.15367 -0.14025 0.12532
 C270 C -0.13598 -0.11623 0.10154
 C271 C -0.11575 -0.08732 0.07416
 C272 C -0.09889 -0.06195 0.05120
 C273 C -0.15228 0.35921 0.62615
 C274 C -0.13464 0.38328 0.60238
 C275 C -0.11447 0.41225 0.57502
 C276 C -0.09764 0.43764 0.55206
 C277 C 0.34733 -0.13993 0.62566
 C278 C 0.36526 -0.11608 0.60200
 C279 C 0.38573 -0.08733 0.57473
 C280 C 0.40274 -0.06207 0.55183
 C281 C 0.34733 0.35934 0.12461
 C282 C 0.36529 0.38322 0.10102
 C283 C 0.38578 0.41204 0.07390
 C284 C 0.40281 0.43740 0.05116
 C285 C 0.15132 0.13749 0.12845
 C286 C 0.13280 0.11439 0.10439
 C287 C 0.11185 0.08635 0.07651
 C288 C 0.09461 0.06157 0.05298
 C289 C 0.15224 0.63735 0.62927
 C290 C 0.13385 0.61414 0.60516
 C291 C 0.11303 0.58600 0.57726
 C292 C 0.09585 0.56117 0.55371
 C293 C 0.65289 0.13657 0.63017
 C294 C 0.63443 0.11352 0.60595
 C295 C 0.61354 0.08557 0.57787
 C296 C 0.59634 0.06091 0.55414
 C297 C 0.65293 0.63778 0.12820
 C298 C 0.63449 0.61453 0.10422
 C299 C 0.61363 0.58630 0.07648
 C300 C 0.59644 0.56136 0.05310
   
