data_POSCAR
  _audit_creation_date              2014-09-24
  _audit_creation_method            'ToBaCCo'
  _symmetry_space_group_name_H-M    'P1'
  _symmetry_Int_Tables_number       1
  _symmetry_cell_setting            triclinic
  loop_
  _symmetry_equiv_pos_as_xyz
 x,y,z
_cell_length_a 28.8570
_cell_length_b 28.4222
_cell_length_c 28.8217
_cell_angle_alpha 90.161300
_cell_angle_beta 90.233500
_cell_angle_gamma 90.018000
loop_
  _atom_site_label
  _atom_site_type_symbol
  _atom_site_fract_x
  _atom_site_fract_y
  _atom_site_fract_z
N1 N 0.57568 0.70227 0.60850
 N2 N 0.55462 0.68041 0.64263
 C3 C 0.51498 0.70328 0.65261
 C4 C 0.51137 0.74125 0.62318
 C5 C 0.55030 0.73983 0.59567
 H6 H 0.49077 0.69344 0.67943
 H7 H 0.55964 0.76440 0.56869
 Cu8 Cu 0.58164 0.62477 0.67108
 Cu9 Cu 0.63505 0.68127 0.58426
 Cu10 Cu 0.67677 0.57472 0.62543
 N11 N 0.60958 0.56918 0.69866
 N12 N 0.64636 0.54932 0.68017
 C13 C 0.65829 0.51139 0.70544
 C14 C 0.62725 0.50756 0.74144
 C15 C 0.59678 0.54452 0.73638
 H16 H 0.68740 0.48855 0.69832
 H17 H 0.56763 0.55272 0.75844
 N18 N 0.70287 0.60675 0.57091
 N19 N 0.68751 0.64775 0.55579
 C20 C 0.71264 0.66078 0.51868
 C21 C 0.74522 0.62642 0.51041
 C22 C 0.73832 0.59270 0.54390
 H23 H 0.70755 0.69273 0.49902
 H24 H 0.75782 0.56053 0.54831
 H25 H 0.62081 0.61163 0.59779
 H26 H 0.65877 0.64230 0.64100
 N27 N 0.93124 0.30042 0.10360
 N28 N 0.94883 0.31881 0.14177
 C29 C 0.98633 0.29370 0.15465
 C30 C 0.99218 0.25798 0.12277
 C31 C 0.95688 0.26301 0.09085
 H32 H 1.00767 0.30074 0.18482
 H33 H 0.95014 0.24099 0.06089
 Cu34 Cu 0.92111 0.37413 0.17018
 Cu35 Cu 0.87568 0.32540 0.07392
 Cu36 Cu 0.81863 0.41491 0.13262
 N37 N 0.89214 0.42867 0.19887
 N38 N 0.85202 0.44458 0.18376
 C39 C 0.83941 0.48202 0.20948
 C40 C 0.87355 0.48985 0.24218
 C41 C 0.90650 0.45559 0.23471
 H42 H 0.80778 0.50190 0.20484
 H43 H 0.93831 0.45064 0.25406
 N44 N 0.79647 0.38873 0.07316
 N45 N 0.81864 0.35525 0.05038
 C46 C 0.79531 0.34547 0.01092
 C47 C 0.75698 0.37426 0.00899
 C48 C 0.75856 0.40127 0.04870
 H49 H 0.80519 0.31923 -0.01441
 H50 H 0.73399 0.42805 0.05891
 H51 H 0.87852 0.39371 0.10008
 H52 H 0.84833 0.34792 0.13521
 N53 N 0.42877 0.20051 -0.10671
 N54 N 0.44745 0.18068 -0.14346
 C55 C 0.48504 0.20563 -0.15610
 C56 C 0.48987 0.24274 -0.12560
 C57 C 0.45382 0.23866 -0.09469
 H58 H 0.50729 0.19749 -0.18514
 H59 H 0.44645 0.26163 -0.06566
 Cu60 Cu 0.42087 0.12420 -0.17105
 Cu61 Cu 0.37358 0.17533 -0.07710
 Cu62 Cu 0.32449 0.07567 -0.12663
 N63 N 0.39237 0.06889 -0.19902
 N64 N 0.35466 0.05008 -0.18146
 C65 C 0.34229 0.01246 -0.20719
 C66 C 0.37394 0.00770 -0.24254
 C67 C 0.40525 0.04385 -0.23659
 H68 H 0.31259 -0.00975 -0.20069
 H69 H 0.43504 0.05122 -0.25802
 N70 N 0.29905 0.10669 -0.07107
 N71 N 0.31775 0.14467 -0.05220
 C72 C 0.29267 0.15729 -0.01484
 C73 C 0.25677 0.12577 -0.01026
 C74 C 0.26159 0.09417 -0.04620
 H75 H 0.29993 0.18707 0.00746
 H76 H 0.23948 0.06431 -0.05353
 H77 H 0.38287 0.10627 -0.09772
 H78 H 0.34656 0.14417 -0.13622
 N79 N 0.06599 0.80379 0.39645
 N80 N 0.05027 0.81992 0.35663
 C81 C 0.01437 0.79304 0.34250
 C82 C 0.00758 0.75858 0.37534
 C83 C 0.04065 0.76622 0.40915
 H84 H -0.00548 0.79824 0.31102
 H85 H 0.04576 0.74623 0.44066
 Cu86 Cu 0.07799 0.87486 0.32768
 Cu87 Cu 0.11727 0.83341 0.42947
 Cu88 Cu 0.17534 0.92260 0.37188
 N89 N 0.10660 0.92981 0.29970
 N90 N 0.14513 0.94778 0.31673
 C91 C 0.15774 0.98503 0.29093
 C92 C 0.12540 0.99045 0.25607
 C93 C 0.09340 0.95506 0.26240
 H94 H 0.18790 1.00677 0.29725
 H95 H 0.06289 0.94838 0.24149
 N96 N 0.19950 0.89266 0.42860
 N97 N 0.17693 0.85932 0.45100
 C98 C 0.20164 0.84686 0.48879
 C99 C 0.24132 0.87377 0.49002
 C100 C 0.23909 0.90243 0.45164
 H101 H 0.19156 0.82030 0.51357
 H102 H 0.26422 0.92869 0.44161
 H103 H 0.11443 0.90054 0.40013
 H104 H 0.14867 0.85454 0.36897
 C105 C 0.09068 0.15902 0.12297
 N106 N 0.12381 0.15913 0.08970
 C107 C 0.15716 0.12549 0.08961
 N108 N 0.15738 0.09172 0.12280
 C109 C 0.12424 0.09159 0.15608
 N110 N 0.09089 0.12524 0.15616
 C111 C 0.40934 0.84040 0.62247
 N112 N 0.37596 0.84004 0.58916
 C113 C 0.34215 0.87323 0.58949
 N114 N 0.34174 0.90675 0.62311
 C115 C 0.37511 0.90710 0.65640
 N116 N 0.40890 0.87393 0.65608
 C117 C 0.90944 0.65917 0.37511
 N118 N 0.90886 0.62539 0.34174
 C119 C 0.87546 0.59176 0.34198
 N120 N 0.84266 0.59192 0.37560
 C121 C 0.84324 0.62570 0.40896
 N122 N 0.87664 0.65931 0.40871
 C123 C 0.59100 0.34289 -0.12579
 N124 N 0.62405 0.34279 -0.09217
 C125 C 0.65784 0.37600 -0.09214
 N126 N 0.65861 0.40931 -0.12577
 C127 C 0.62555 0.40941 -0.15941
 N128 N 0.59175 0.37620 -0.15941
 C129 C 0.02570 0.22439 0.12295
 C130 C 0.05538 0.19456 0.12301
 C131 C 0.47529 0.77604 0.62249
 C132 C 0.44511 0.80535 0.62228
 C133 C 0.97433 0.72470 0.37504
 C134 C 0.94475 0.69473 0.37496
 C135 C 0.52542 0.27811 -0.12574
 C136 C 0.55532 0.30772 -0.12580
 C137 C 0.12488 0.02601 0.22077
 C138 C 0.12454 0.05593 0.19122
 C139 C 0.62680 0.47420 -0.22487
 C140 C 0.62630 0.44463 -0.19497
 C141 C 0.37431 0.97228 0.72183
 C142 C 0.37466 0.94253 0.69195
 C143 C 0.87429 0.52584 0.27725
 C144 C 0.87486 0.55597 0.30676
 C145 C 0.22166 0.12570 0.02491
 C146 C 0.19220 0.12562 0.05444
 C147 C 0.77965 0.62606 0.47456
 C148 C 0.80863 0.62584 0.44456
 C149 C 0.72212 0.37522 -0.02670
 C150 C 0.69282 0.37573 -0.05661
 C151 C 0.27699 0.87316 0.52491
 C152 C 0.30682 0.87299 0.55431
   
