data_POSCAR
  _audit_creation_date              2014-09-24
  _audit_creation_method            'ToBaCCo'
  _symmetry_space_group_name_H-M    'P1'
  _symmetry_Int_Tables_number       1
  _symmetry_cell_setting            triclinic
  loop_
  _symmetry_equiv_pos_as_xyz
 x,y,z
_cell_length_a 19.3833
_cell_length_b 20.0830
_cell_length_c 19.6387
_cell_angle_alpha 89.850900
_cell_angle_beta 89.781500
_cell_angle_gamma 90.074100
loop_
  _atom_site_label
  _atom_site_type_symbol
  _atom_site_fract_x
  _atom_site_fract_y
  _atom_site_fract_z
C1 C 0.46656 0.98917 -0.56043
 C2 C 0.53227 1.02058 -0.56239
 C3 C 0.56454 1.03690 -0.50062
 C4 C 0.53658 1.01869 -0.43725
 C5 C 0.47179 0.98662 -0.43590
 C6 C 0.43852 0.97161 -0.49687
 H7 H 0.38628 0.95242 -0.49382
 H8 H 0.61690 1.05577 -0.50211
 C9 C -0.53549 1.43680 -0.01644
 C10 C -0.46656 1.43825 0.00752
 C11 C -0.43486 1.49990 0.01976
 C12 C -0.46870 1.56066 0.00857
 C13 C -0.53740 1.56019 -0.01617
 C14 C -0.56855 1.49804 -0.02926
 H15 H -0.62283 1.49728 -0.04214
 H16 H -0.38094 1.50070 0.03436
 C17 C -0.01037 0.43774 0.46279
 C18 C 0.00968 0.43616 0.53259
 C19 C 0.01813 0.49670 0.56774
 C20 C 0.00759 0.55906 0.53685
 C21 C -0.01219 0.56108 0.46768
 C22 C -0.02118 0.50087 0.43249
 H23 H -0.03189 0.50413 0.37845
 H24 H 0.03005 0.49512 0.62165
 O25 O -0.17558 1.00447 -0.08966
 O26 O 0.17778 0.99288 -0.08818
 O27 O 0.00180 1.08754 -0.17556
 O28 O 0.00209 0.90881 -0.17425
 O29 O 0.00061 0.82656 -0.09158
 O30 O 0.00196 1.17050 -0.09405
 O31 O 0.09564 0.99337 -0.17285
 O32 O -0.09213 1.00337 -0.17364
 Zr33 Zr 0.00130 0.99843 -0.11861
 O34 O 0.06180 0.93703 -0.05968
 O35 O -0.05997 1.06057 -0.06106
 C36 C -0.15540 1.00617 -0.15224
 C37 C 0.15860 0.99100 -0.15092
 C38 C 0.00154 1.14934 -0.15678
 C39 C 0.00240 0.84718 -0.15456
 H40 H 0.09419 1.08568 -0.08978
 O41 O 0.06369 1.05839 -0.06043
 H42 H -0.09211 0.91117 -0.08927
 O43 O -0.06196 0.93878 -0.06021
 O44 O 0.17663 0.99878 0.09240
 O45 O -0.17714 0.99995 0.09067
 O46 O 0.09833 1.16943 0.00173
 O47 O 0.09252 0.82591 -0.00038
 O48 O -0.09698 0.82826 0.00445
 O49 O -0.09110 1.17229 -0.00185
 O50 O 0.00251 1.08865 0.17703
 O51 O -0.00474 0.91032 0.17797
 O52 O 0.00466 1.17103 0.09448
 O53 O -0.00522 0.82737 0.09648
 O54 O 0.17933 1.08521 0.00275
 O55 O -0.17499 1.09044 -0.00165
 O56 O -0.17814 0.91235 0.00353
 O57 O 0.17622 0.90788 -0.00015
 O58 O 0.09312 0.99996 0.17633
 O59 O -0.09503 0.99935 0.17538
 Zr60 Zr 0.12024 0.99732 0.00187
 Zr61 Zr -0.11930 1.00057 0.00076
 Zr62 Zr 0.00268 1.11775 0.00050
 Zr63 Zr -0.00154 0.88014 0.00205
 Zr64 Zr -0.00039 0.99933 0.12116
 O65 O -0.06309 0.93905 0.06327
 O66 O 0.06328 1.05944 0.06316
 C67 C 0.15651 0.99976 0.15503
 C68 C -0.15807 0.99966 0.15345
 C69 C 0.16129 1.14717 0.00243
 C70 C 0.15616 0.84652 -0.00174
 C71 C -0.15996 0.85039 0.00530
 C72 C -0.15479 1.15187 -0.00250
 C73 C 0.00427 1.15027 0.15749
 C74 C -0.00657 0.84858 0.15917
 H75 H -0.08983 1.08925 0.09068
 O76 O -0.06041 1.06056 0.06192
 H77 H 0.08978 0.90892 0.09257
 O78 O 0.06071 0.93751 0.06339
 C79 C 0.31625 0.98978 0.28638
 C80 C 0.32209 0.93470 0.32927
 C81 C 0.37509 0.93201 0.37672
 C82 C 0.42292 0.98479 0.38231
 C83 C 0.41935 1.03764 0.33498
 C84 C 0.36597 1.04019 0.28759
 C85 C 0.25823 0.99491 0.24215
 C86 C 0.21021 0.99804 0.20405
 H87 H 0.28453 0.89473 0.32742
 H88 H 0.37767 0.88916 0.41024
 H89 H 0.45395 1.07986 0.33803
 H90 H 0.36193 1.08273 0.25378
 C91 C -0.32076 1.01577 0.28147
 C92 C -0.37078 0.96571 0.28504
 C93 C -0.42411 0.97017 0.33271
 C94 C -0.42703 1.02449 0.37801
 C95 C -0.37972 1.07732 0.36914
 C96 C -0.32681 1.07275 0.32141
 C97 C -0.26174 1.00805 0.23861
 C98 C -0.21273 1.00301 0.20167
 H99 H -0.36666 0.92179 0.25336
 H100 H -0.45863 0.92806 0.33819
 H101 H -0.38196 1.12108 0.40122
 H102 H -0.28906 1.11246 0.31759
 C103 C -0.31565 1.02190 -0.28221
 C104 C -0.36478 0.97100 -0.28333
 C105 C -0.41771 0.97252 -0.33116
 C106 C -0.42146 1.02487 -0.37904
 C107 C -0.37460 1.07846 -0.37325
 C108 C -0.32193 1.07675 -0.32535
 C109 C -0.25720 1.01650 -0.23866
 C110 C -0.20900 1.01159 -0.20101
 H111 H -0.36028 0.92857 -0.24944
 H112 H -0.45123 0.92953 -0.33442
 H113 H -0.37736 1.12092 -0.40725
 H114 H -0.28474 1.11705 -0.32363
 C115 C 0.32189 0.98155 -0.27891
 C116 C 0.33947 0.92249 -0.31212
 C117 C 0.39329 0.92239 -0.35933
 C118 C 0.42952 0.98148 -0.37355
 C119 C 0.41461 1.03938 -0.33650
 C120 C 0.36083 1.03937 -0.28927
 C121 C 0.26220 0.98385 -0.23629
 C122 C 0.21310 0.98682 -0.19923
 H123 H 0.30982 0.87742 -0.30370
 H124 H 0.40406 0.87742 -0.38778
 H125 H 0.44129 1.08562 -0.34753
 H126 H 0.34763 1.08512 -0.26316
 C127 C 0.32197 1.27793 -0.01244
 C128 C 0.32193 1.32298 -0.06663
 C129 C 0.37253 1.37220 -0.07099
 C130 C 0.42431 1.37784 -0.02084
 C131 C 0.42712 1.32855 0.03048
 C132 C 0.37587 1.27933 0.03488
 C133 C 0.26502 1.23232 -0.00475
 C134 C 0.21682 1.19447 -0.00025
 H135 H 0.28134 1.32155 -0.10440
 H136 H 0.36991 1.40727 -0.11291
 H137 H 0.46480 1.33130 0.07089
 H138 H 0.37669 1.24419 0.07682
 C139 C 0.31600 0.71532 -0.01569
 C140 C 0.36898 0.71527 0.03266
 C141 C 0.42136 0.66726 0.02966
 C142 C 0.42076 0.61791 -0.02138
 C143 C 0.36970 0.62210 -0.07245
 C144 C 0.31790 0.67010 -0.06944
 C145 C 0.25841 0.76017 -0.00956
 C146 C 0.21039 0.79810 -0.00543
 H147 H 0.36826 0.75057 0.07427
 H148 H 0.45826 0.66551 0.07082
 H149 H 0.36870 0.58690 -0.11415
 H150 H 0.27804 0.67053 -0.10798
 C151 C -0.32106 0.71913 0.01202
 C152 C -0.36347 0.71075 -0.04500
 C153 C -0.41551 0.66229 -0.04450
 C154 C -0.42552 0.62169 0.01309
 C155 C -0.38504 0.63278 0.07128
 C156 C -0.33318 0.68119 0.07072
 C157 C -0.26342 0.76456 0.00955
 C158 C -0.21529 0.80275 0.00760
 H159 H -0.35471 0.74000 -0.09066
 H160 H -0.44526 0.65395 -0.09026
 H161 H -0.39163 0.60182 0.11609
 H162 H -0.30103 0.68744 0.11527
 C163 C -0.31424 1.28426 0.00430
 C164 C -0.35825 1.29272 -0.05151
 C165 C -0.41152 1.33971 -0.04882
 C166 C -0.42120 1.37869 0.00977
 C167 C -0.37885 1.36759 0.06666
 C168 C -0.32577 1.32065 0.06392
 C169 C -0.25650 1.23925 0.00033
 C170 C -0.20879 1.20075 -0.00180
 H171 H -0.35008 1.26451 -0.09778
 H172 H -0.44273 1.34813 -0.09364
 H173 H -0.38519 1.39727 0.11222
 H174 H -0.29248 1.31414 0.10763
 C175 C -0.00642 1.28321 0.31561
 C176 C -0.05832 1.33129 0.31447
 C177 C -0.06248 1.37912 0.36580
 C178 C -0.01443 1.38067 0.41990
 C179 C 0.03468 1.32885 0.42322
 C180 C 0.03891 1.28093 0.37117
 C181 C -0.00002 1.23734 0.25900
 C182 C 0.00313 1.19895 0.21155
 H183 H -0.09482 1.33290 0.27283
 H184 H -0.10315 1.41590 0.36236
 H185 H 0.07361 1.32822 0.46254
 H186 H 0.07905 1.24351 0.37314
 C187 C 0.00819 1.28006 -0.31793
 C188 C 0.06848 1.31669 -0.33034
 C189 C 0.07084 1.36358 -0.38319
 C190 C 0.01296 1.37465 -0.42478
 C191 C -0.04620 1.33523 -0.41455
 C192 C -0.04855 1.28824 -0.36141
 C193 C 0.00448 1.23557 -0.25966
 C194 C 0.00254 1.19772 -0.21146
 H195 H 0.11297 1.31069 -0.29767
 H196 H 0.11676 1.39380 -0.38952
 H197 H -0.09189 1.34363 -0.44494
 H198 H -0.09545 1.26002 -0.35279
 C199 C 0.00937 0.71434 -0.31303
 C200 C 0.06763 0.67431 -0.32286
 C201 C 0.06899 0.62712 -0.37521
 C202 C 0.01210 0.61910 -0.41882
 C203 C -0.04492 0.66164 -0.41087
 C204 C -0.04626 0.70891 -0.35828
 C205 C 0.00635 0.75968 -0.25572
 C206 C 0.00434 0.79823 -0.20836
 H207 H 0.11127 0.67817 -0.28878
 H208 H 0.11343 0.59479 -0.37997
 H209 H -0.08990 0.65580 -0.44286
 H210 H -0.09158 0.73975 -0.35161
 C211 C -0.01489 0.71859 0.32060
 C212 C -0.07468 0.68138 0.33346
 C213 C -0.07590 0.63418 0.38604
 C214 C -0.01733 0.62339 0.42675
 C215 C 0.04115 0.66366 0.41634
 C216 C 0.04235 0.71094 0.36352
 C217 C -0.01176 0.76276 0.26215
 C218 C -0.00940 0.80037 0.21382
 H219 H -0.11952 0.68699 0.30119
 H220 H -0.12130 0.60326 0.39254
 H221 H 0.08735 0.65547 0.44604
 H222 H 0.08887 0.73964 0.35449
   
