data_POSCAR
  _audit_creation_date              2014-09-24
  _audit_creation_method            'ToBaCCo'
  _symmetry_space_group_name_H-M    'P1'
  _symmetry_Int_Tables_number       1
  _symmetry_cell_setting            triclinic
  loop_
  _symmetry_equiv_pos_as_xyz
 x,y,z
_cell_length_a 21.0416
_cell_length_b 20.7588
_cell_length_c 21.0895
_cell_angle_alpha 90.443300
_cell_angle_beta 90.641000
_cell_angle_gamma 90.227500
loop_
  _atom_site_label
  _atom_site_type_symbol
  _atom_site_fract_x
  _atom_site_fract_y
  _atom_site_fract_z
C1 C 0.18136 0.17652 0.28140
 C2 C 0.15613 0.22985 0.24993
 C3 C 0.18236 0.24993 0.19267
 C4 C 0.23431 0.21757 0.16705
 C5 C 0.25976 0.16415 0.19816
 C6 C 0.23348 0.14370 0.25556
 H7 H 0.11397 0.25342 0.26792
 H8 H 0.25291 0.23220 0.12153
 H9 H 0.25140 0.10057 0.27829
 C10 C -0.18539 0.80204 0.26995
 C11 C -0.16145 0.74633 0.24147
 C12 C -0.18270 0.72774 0.18084
 C13 C -0.22834 0.76480 0.14870
 C14 C -0.25251 0.82055 0.17749
 C15 C -0.23132 0.83869 0.23818
 H16 H -0.12365 0.71962 0.26466
 H17 H -0.24303 0.75178 0.10084
 H18 H -0.24853 0.88303 0.25943
 C19 C -0.20920 0.20248 -0.28897
 C20 C -0.26401 0.17245 -0.26601
 C21 C -0.28801 0.18988 -0.20666
 C22 C -0.25682 0.23799 -0.17029
 C23 C -0.20225 0.26847 -0.19398
 C24 C -0.17935 0.25114 -0.25358
 H25 H -0.28541 0.13253 -0.29218
 H26 H -0.27296 0.24927 -0.12286
 H27 H -0.13519 0.27204 -0.27013
 C28 C 0.17263 0.80955 -0.27962
 C29 C 0.15260 0.75178 -0.25222
 C30 C 0.18747 0.72469 -0.20201
 C31 C 0.24299 0.75587 -0.17938
 C32 C 0.26355 0.81371 -0.20726
 C33 C 0.22834 0.83993 -0.25747
 H34 H 0.10831 0.72951 -0.26781
 H35 H 0.26844 0.73676 -0.13875
 H36 H 0.24287 0.88567 -0.27743
 C37 C 0.20012 1.18378 0.72838
 C38 C 0.25121 1.15821 0.76297
 C39 C 0.27328 1.18885 0.81850
 C40 C 0.24476 1.24613 0.83913
 C41 C 0.19377 1.27255 0.80461
 C42 C 0.17154 1.24123 0.74922
 H43 H 0.27186 1.11264 0.74849
 H44 H 0.26008 1.26829 0.88348
 H45 H 0.13021 1.25982 0.72431
 C46 C 0.80497 0.83062 0.74212
 C47 C 0.74842 0.85051 0.77073
 C48 C 0.72484 0.81749 0.82342
 C49 C 0.75775 0.76417 0.84721
 C50 C 0.81415 0.74403 0.81834
 C51 C 0.83737 0.77699 0.76564
 H52 H 0.72447 0.89351 0.75413
 H53 H 0.74140 0.74077 0.88990
 H54 H 0.88237 0.76297 0.74501
 C55 C 0.20994 0.81779 1.28639
 C56 C 0.17187 0.77034 1.25668
 C57 C 0.19351 0.73888 1.20197
 C58 C 0.25295 0.75376 1.17754
 C59 C 0.29036 0.80137 1.20621
 C60 C 0.26932 0.83326 1.26092
 H61 H 0.12465 0.76001 1.27419
 H62 H 0.26813 0.73153 1.13350
 H63 H 0.29723 0.87260 1.28107
 C64 C 0.82088 1.18192 1.25943
 C65 C 0.76010 1.16521 1.23707
 C66 C 0.73024 1.20213 1.19026
 C67 C 0.76039 1.25661 1.16634
 C68 C 0.82095 1.27385 1.18864
 C69 C 0.85139 1.23664 1.23532
 H70 H 0.73721 1.12165 1.25378
 H71 H 0.73846 1.28322 1.12786
 H72 H 0.89929 1.24884 1.25087
 O73 O 0.53332 0.91747 0.91101
 O74 O 0.44446 0.94289 1.13127
 O75 O 0.63227 0.98520 1.05795
 O76 O 0.41714 0.91447 0.93390
 O77 O 0.56289 0.93593 1.11825
 O78 O 0.44211 0.96352 0.84710
 O79 O 0.41784 0.89528 1.04519
 O80 O 0.61779 0.96918 0.94436
 C81 C 0.59251 0.92037 0.91803
 C82 C 0.41958 0.89640 1.10362
 C83 C 0.61791 0.94104 1.09682
 C84 C 0.40461 0.92351 0.87578
 O85 O 0.45273 1.07180 0.90535
 O86 O 0.56944 1.05811 1.12962
 O87 O 0.56792 1.09256 0.93703
 O88 O 0.37279 1.01692 1.06947
 O89 O 0.44911 1.06588 1.12455
 O90 O 0.55418 1.02809 0.86215
 O91 O 0.37186 1.03571 0.95431
 O92 O 0.58030 1.10775 1.04376
 Co93 Co 0.49100 0.99410 0.91269
 Co94 Co 0.50588 1.00107 1.11437
 Co95 Co 0.59243 1.03597 0.99659
 Co96 Co 0.40367 0.96886 1.00131
 O97 O 0.50075 1.00218 1.00954
 C98 C 0.39585 1.07668 0.91866
 C99 C 0.58847 1.10595 1.10128
 C100 C 0.57866 1.07930 0.88111
 C101 C 0.39137 1.05900 1.10992
 O102 O 0.09079 0.44034 0.09991
 O103 O 0.04596 0.55740 -0.12809
 O104 O 0.08219 0.39792 -0.04728
 O105 O 0.04488 0.63986 0.05467
 O106 O 0.04160 0.43878 -0.12963
 O107 O 0.09219 0.55928 0.09873
 O108 O 0.08806 0.59747 -0.04480
 O109 O 0.04198 0.36029 0.05276
 C110 C 0.08361 0.38114 0.09064
 C111 C 0.08977 0.58980 -0.10263
 C112 C 0.08412 0.40528 -0.10485
 C113 C 0.08485 0.61853 0.09336
 O114 O -0.03350 0.56382 0.12003
 O115 O -0.07788 0.43868 -0.08565
 O116 O -0.07038 0.39551 0.03231
 O117 O -0.02025 0.65515 -0.06280
 O118 O -0.07376 0.56440 -0.08599
 O119 O -0.03359 0.43880 0.12136
 O120 O -0.06684 0.60533 0.02960
 O121 O -0.02975 0.34519 -0.06322
 Co122 Co 0.02761 0.50066 0.10130
 Co123 Co -0.01369 0.49976 -0.09786
 Co124 Co 0.00503 0.40463 -0.01150
 Co125 Co 0.00975 0.59436 -0.01108
 O126 O 0.01384 0.49951 0.00184
 C127 C -0.07164 0.59945 0.08880
 C128 C -0.07436 0.37705 -0.09342
 C129 C -0.07243 0.40210 0.09184
 C130 C -0.06566 0.62534 -0.09455
 O131 O 1.09320 0.07351 0.46585
 O132 O 0.86175 0.05736 0.55929
 O133 O 0.93655 0.01751 0.37073
 O134 O 1.05566 0.09085 0.58127
 O135 O 0.87783 0.06679 0.44161
 O136 O 1.13095 0.02728 0.56917
 O137 O 0.94727 0.10526 0.58554
 O138 O 1.05044 0.03529 0.38118
 C139 C 1.08421 0.07701 0.40787
 C140 C 0.88892 0.10365 0.58470
 C141 C 0.89833 0.06205 0.38628
 C142 C 1.11133 0.07740 0.59436
 O143 O 1.08254 -0.08243 0.54209
 O144 O 0.86865 -0.05681 0.43283
 O145 O 1.06720 -0.08489 0.42696
 O146 O 0.92820 -0.01810 0.62922
 O147 O 0.87038 -0.06459 0.55332
 O148 O 1.15224 -0.03399 0.45860
 O149 O 1.04438 -0.03438 0.62544
 O150 O 0.95633 -0.10453 0.41987
 Co151 Co 1.08353 -0.00498 0.50177
 Co152 Co 0.88126 0.00078 0.49713
 Co153 Co 1.00114 -0.03114 0.40815
 Co154 Co 0.99366 0.03310 0.59777
 O155 O 0.98641 0.00195 0.50362
 C156 C 1.07290 -0.08164 0.60051
 C157 C 0.89839 -0.10365 0.41217
 C158 C 1.12591 -0.07455 0.41907
 C159 C 0.88703 -0.05951 0.61067
 C160 C 1.14881 0.14988 0.33017
 C161 C 1.11879 0.12093 0.36913
 C162 C 0.84275 -0.17318 0.32311
 C163 C 0.86841 -0.14535 0.36663
 C164 C 0.82274 0.17509 0.66238
 C165 C 0.85320 0.14597 0.62393
 C166 C 1.13520 -0.15951 0.67711
 C167 C 1.10436 -0.12722 0.64080
 C168 C 0.30565 1.12884 1.16918
 C169 C 0.34512 1.09735 1.14210
 C170 C 0.31621 0.85064 0.81950
 C171 C 0.35789 0.88372 0.84319
 C172 C 0.70339 0.86178 1.14459
 C173 C 0.66556 0.89799 1.12064
 C174 C 0.66143 1.15176 0.82023
 C175 C 0.62179 1.11834 0.84512
 C176 C 0.15065 0.29823 0.15627
 C177 C 0.12142 0.33681 0.12566
 C178 C -0.16259 0.30999 -0.15517
 C179 C -0.12403 0.34204 -0.12606
 C180 C 0.15992 0.67092 -0.16842
 C181 C 0.13102 0.63028 -0.13946
 C182 C -0.14944 0.67727 0.14841
 C183 C -0.11640 0.63888 0.12146
 C184 C 1.17352 0.14851 0.67969
 C185 C 1.14757 0.11597 0.63909
 C186 C 0.83203 -0.13294 0.69606
 C187 C 0.85714 -0.09993 0.65662
 C188 C 1.18568 -0.14581 0.33450
 C189 C 1.16105 -0.11297 0.37476
 C190 C 0.85068 0.14240 0.30171
 C191 C 0.87416 0.10580 0.33944
 C192 C 0.15816 0.32536 -0.16826
 C193 C 0.12593 0.36525 -0.14168
 C194 C -0.14483 0.32367 0.15665
 C195 C -0.11402 0.36197 0.12738
 C196 C -0.14839 0.69918 -0.15338
 C197 C -0.11208 0.66310 -0.12733
 C198 C 0.15311 0.69647 0.16573
 C199 C 0.12148 0.66130 0.13257
 C200 C 0.31967 1.15617 0.85746
 C201 C 0.35604 1.12311 0.88752
 C202 C 0.34210 0.82721 1.17114
 C203 C 0.38046 0.85464 1.13947
 C204 C 0.67474 1.17665 1.15913
 C205 C 0.63235 1.14843 1.13225
 C206 C 0.67319 0.84539 0.85840
 C207 C 0.63356 0.87542 0.88690
   
