data_POSCAR
  _audit_creation_date              2014-09-24
  _audit_creation_method            'ToBaCCo'
  _symmetry_space_group_name_H-M    'P1'
  _symmetry_Int_Tables_number       1
  _symmetry_cell_setting            triclinic
  loop_
  _symmetry_equiv_pos_as_xyz
 x,y,z
_cell_length_a 43.6715
_cell_length_b 42.7444
_cell_length_c 43.7472
_cell_angle_alpha 90.039600
_cell_angle_beta 90.020500
_cell_angle_gamma 90.021000
loop_
  _atom_site_label
  _atom_site_type_symbol
  _atom_site_fract_x
  _atom_site_fract_y
  _atom_site_fract_z
N1 N 0.59037 0.67607 0.62005
 N2 N 0.58058 0.66125 0.64453
 C3 C 0.55489 0.67526 0.65473
 C4 C 0.54849 0.70002 0.63560
 C5 C 0.57129 0.69999 0.61385
 H6 H 0.54161 0.66788 0.67430
 H7 H 0.57358 0.71589 0.59477
 Cu8 Cu 0.60198 0.62462 0.66005
 Cu9 Cu 0.62654 0.66270 0.59752
 Cu10 Cu 0.66499 0.59742 0.62485
 N11 N 0.62370 0.58804 0.67521
 N12 N 0.64838 0.57756 0.66133
 C13 C 0.65857 0.55186 0.67594
 C14 C 0.63919 0.54615 0.70016
 C15 C 0.61730 0.56933 0.69917
 H16 H 0.67829 0.53818 0.66924
 H17 H 0.59804 0.57206 0.71449
 N18 N 0.67820 0.62073 0.58829
 N19 N 0.66355 0.64559 0.57790
 C20 C 0.67766 0.65582 0.55240
 C21 C 0.70220 0.63648 0.54667
 C22 C 0.70202 0.61451 0.56967
 H23 H 0.67046 0.67558 0.53876
 H24 H 0.71784 0.59525 0.57235
 H25 H 0.62408 0.61597 0.60954
 H26 H 0.64845 0.64168 0.63402
 N27 N 0.91250 0.32711 0.11693
 N28 N 0.92300 0.34091 0.14172
 C29 C 0.94804 0.32543 0.15158
 C30 C 0.95319 0.30085 0.13181
 C31 C 0.93040 0.30246 0.11014
 H32 H 0.96146 0.33151 0.17151
 H33 H 0.92709 0.28690 0.09091
 Cu34 Cu 0.90275 0.37776 0.15834
 Cu35 Cu 0.87646 0.34188 0.09517
 Cu36 Cu 0.83988 0.40727 0.12445
 N37 N 0.88207 0.41457 0.17449
 N38 N 0.85746 0.42589 0.16110
 C39 C 0.84798 0.45144 0.17640
 C40 C 0.86768 0.45625 0.20053
 C41 C 0.88908 0.43261 0.19880
 H42 H 0.82845 0.46567 0.17026
 H43 H 0.90837 0.42909 0.21391
 N44 N 0.82563 0.38514 0.08755
 N45 N 0.83967 0.36026 0.07639
 C46 C 0.82490 0.35073 0.05100
 C47 C 0.80056 0.37055 0.04612
 C48 C 0.80154 0.39211 0.06951
 H49 H 0.83142 0.33102 0.03694
 H50 H 0.78602 0.41150 0.07292
 H51 H 0.88024 0.38819 0.10835
 H52 H 0.85559 0.36243 0.13249
 N53 N 0.41283 0.17765 -0.11515
 N54 N 0.42269 0.16411 -0.14031
 C55 C 0.44812 0.17894 -0.14998
 C56 C 0.45428 0.20292 -0.12984
 C57 C 0.43161 0.20156 -0.10798
 H58 H 0.46139 0.17264 -0.16992
 H59 H 0.42915 0.21661 -0.08825
 Cu60 Cu 0.40200 0.12796 -0.15778
 Cu61 Cu 0.37669 0.16300 -0.09342
 Cu62 Cu 0.34024 0.09750 -0.12269
 N63 N 0.38181 0.09046 -0.17304
 N64 N 0.35771 0.07868 -0.15917
 C65 C 0.34859 0.05272 -0.17404
 C66 C 0.36802 0.04813 -0.19841
 C67 C 0.38889 0.07230 -0.19724
 H68 H 0.32947 0.03810 -0.16748
 H69 H 0.40788 0.07612 -0.21264
 N70 N 0.32591 0.11971 -0.08600
 N71 N 0.33976 0.14467 -0.07472
 C72 C 0.32450 0.15431 -0.04962
 C73 C 0.30007 0.13442 -0.04515
 C74 C 0.30152 0.11283 -0.06843
 H75 H 0.33061 0.17425 -0.03567
 H76 H 0.28591 0.09357 -0.07221
 H77 H 0.38092 0.11699 -0.10730
 H78 H 0.35537 0.14271 -0.13058
 N79 N 0.08950 0.82566 0.38685
 N80 N 0.07879 0.84025 0.36263
 C81 C 0.05317 0.82570 0.35301
 C82 C 0.04778 0.80081 0.37224
 C83 C 0.07107 0.80130 0.39350
 H84 H 0.03931 0.83278 0.33372
 H85 H 0.07421 0.78542 0.41249
 Cu86 Cu 0.09914 0.87707 0.34630
 Cu87 Cu 0.12603 0.83989 0.40831
 Cu88 Cu 0.16297 0.90537 0.37919
 N89 N 0.12031 0.91330 0.32983
 N90 N 0.14530 0.92436 0.34273
 C91 C 0.15514 0.94941 0.32681
 C92 C 0.13518 0.95407 0.30282
 C93 C 0.11341 0.93091 0.30527
 H94 H 0.17520 0.96317 0.33227
 H95 H 0.09404 0.92728 0.29028
 N96 N 0.17726 0.88285 0.41585
 N97 N 0.16325 0.85784 0.42682
 C98 C 0.17818 0.84806 0.45201
 C99 C 0.20256 0.86783 0.45697
 C100 C 0.20145 0.88963 0.43383
 H101 H 0.17168 0.82826 0.46595
 H102 H 0.21694 0.90908 0.43058
 H103 H 0.12277 0.88648 0.39597
 H104 H 0.14657 0.86080 0.37094
 N105 N 0.11349 0.11309 0.11379
 N106 N 0.34749 0.84574 0.65556
 N107 N 0.84792 0.65744 0.34830
 N108 N 0.65627 0.34635 -0.15270
 C109 C 0.01849 0.23536 0.13237
 N110 N 0.01595 0.20979 0.15053
 N111 N 0.03595 0.18636 0.14811
 C112 C 0.05906 0.18780 0.12746
 N113 N 0.06165 0.21342 0.10938
 N114 N 0.04166 0.23684 0.11179
 C115 C -0.00435 0.25946 0.13328
 C116 C -0.02407 0.27918 0.13307
 C117 C 0.07920 0.16163 0.12331
 C118 C 0.09543 0.13922 0.11912
 C119 C 0.47458 0.75803 0.64073
 N120 N 0.45156 0.75557 0.62005
 N121 N 0.42682 0.77368 0.62234
 C122 C 0.42438 0.79479 0.64536
 N123 N 0.44742 0.79728 0.66601
 N124 N 0.47216 0.77918 0.66373
 C125 C 0.50081 0.73791 0.63878
 C126 C 0.52266 0.72075 0.63729
 C127 C 0.39724 0.81342 0.64852
 C128 C 0.37419 0.82864 0.65160
 C129 C 0.97591 0.74305 0.36710
 N130 N 0.95208 0.74622 0.38673
 N131 N 0.92722 0.72837 0.38376
 C132 C 0.92545 0.70680 0.36107
 N133 N 0.94931 0.70359 0.34148
 N134 N 0.97416 0.72144 0.34445
 C135 C 1.00205 0.76325 0.36943
 C136 C 1.02371 0.78068 0.37096
 C137 C 0.89811 0.68865 0.35697
 C138 C 0.87487 0.67392 0.35310
 C139 C 0.52761 0.26169 -0.13469
 N140 N 0.55094 0.25914 -0.11438
 N141 N 0.57588 0.27688 -0.11724
 C142 C 0.57823 0.29771 -0.14049
 N143 N 0.55487 0.30032 -0.16076
 N144 N 0.52993 0.28258 -0.15790
 C145 C 0.50142 0.24155 -0.13248
 C146 C 0.47974 0.22415 -0.13105
 C147 C 0.60571 0.31567 -0.14445
 C148 C 0.62911 0.33018 -0.14816
 C149 C 0.13495 0.02011 0.23578
 N150 N 0.15206 0.01624 0.21019
 N151 N 0.14914 0.03591 0.18674
 C152 C 0.12902 0.06003 0.18818
 N153 N 0.11200 0.06396 0.21381
 N154 N 0.11491 0.04430 0.23725
 C155 C 0.13625 -0.00248 0.25997
 C156 C 0.13633 -0.02203 0.27980
 C157 C 0.12420 0.07973 0.16209
 C158 C 0.11946 0.09555 0.13977
 C159 C 0.64352 0.47382 -0.24205
 N160 N 0.62249 0.45053 -0.24379
 N161 N 0.62444 0.42576 -0.22540
 C162 C 0.64746 0.42355 -0.20470
 N163 N 0.66846 0.44687 -0.20292
 N164 N 0.66652 0.47164 -0.22131
 C165 C 0.64191 0.50003 -0.26247
 C166 C 0.64063 0.52181 -0.27992
 C167 C 0.65020 0.39633 -0.18571
 C168 C 0.65286 0.37319 -0.17018
 C169 C 0.36404 0.97488 0.74204
 N170 N 0.34162 0.97340 0.72062
 N171 N 0.33906 0.94840 0.70259
 C172 C 0.35884 0.92412 0.70542
 N173 N 0.38131 0.92563 0.72678
 N174 N 0.38387 0.95064 0.74482
 C175 C 0.36590 1.00110 0.76245
 C176 C 0.36708 1.02275 0.78008
 C177 C 0.35517 0.89655 0.68706
 C178 C 0.35173 0.87304 0.67218
 C179 C 0.86348 0.52897 0.26069
 N180 N 0.83923 0.53188 0.27984
 N181 N 0.83681 0.55669 0.29815
 C182 C 0.85857 0.57933 0.29786
 N183 N 0.88285 0.57639 0.27876
 N184 N 0.88528 0.55158 0.26045
 C185 C 0.86538 0.50297 0.24001
 C186 C 0.86662 0.48147 0.22222
 C187 C 0.85517 0.60679 0.31645
 C188 C 0.85194 0.63021 0.33150
 C189 C 0.23412 0.13430 0.02066
 N190 N 0.23579 0.11363 0.04410
 N191 N 0.21264 0.11080 0.06374
 C192 C 0.18711 0.12855 0.06053
 N193 N 0.18548 0.14931 0.03715
 N194 N 0.20864 0.15213 0.01750
 C195 C 0.25797 0.13552 -0.00186
 C196 C 0.27748 0.13556 -0.02133
 C197 C 0.16129 0.12382 0.08025
 C198 C 0.13920 0.11909 0.09613
 C199 C 0.76014 0.64176 0.47381
 N200 N 0.78133 0.66490 0.47206
 N201 N 0.79943 0.66729 0.44765
 C202 C 0.79691 0.64660 0.42426
 N203 N 0.77575 0.62344 0.42603
 N204 N 0.75765 0.62104 0.45044
 C205 C 0.74005 0.63973 0.49968
 C206 C 0.72291 0.63819 0.52123
 C207 C 0.81554 0.64995 0.39745
 C208 C 0.83079 0.65323 0.37468
 C209 C 0.74168 0.36550 -0.02601
 N210 N 0.74496 0.38514 -0.05012
 N211 N 0.72718 0.38209 -0.07471
 C212 C 0.70559 0.35931 -0.07592
 N213 N 0.70227 0.33971 -0.05178
 N214 N 0.72005 0.34276 -0.02719
 C215 C 0.76184 0.36781 -0.00020
 C216 C 0.77926 0.36931 0.02113
 C217 C 0.68747 0.35510 -0.10298
 C218 C 0.67276 0.35119 -0.12600
 C219 C 0.26183 0.86289 0.52878
 N220 N 0.28093 0.83806 0.53172
 N221 N 0.29883 0.83532 0.55625
 C222 C 0.29818 0.85733 0.57858
 N223 N 0.27913 0.88220 0.57561
 N224 N 0.26123 0.88494 0.55108
 C225 C 0.24150 0.86505 0.50310
 C226 C 0.22395 0.86650 0.48187
 C227 C 0.31634 0.85360 0.60567
 C228 C 0.33107 0.85010 0.62875
   
