data_POSCAR
  _audit_creation_date              2014-09-24
  _audit_creation_method            'ToBaCCo'
  _symmetry_space_group_name_H-M    'P1'
  _symmetry_Int_Tables_number       1
  _symmetry_cell_setting            triclinic
  loop_
  _symmetry_equiv_pos_as_xyz
 x,y,z
_cell_length_a 42.4408
_cell_length_b 42.4618
_cell_length_c 42.4602
_cell_angle_alpha 89.990000
_cell_angle_beta 89.999800
_cell_angle_gamma 90.005500
loop_
  _atom_site_label
  _atom_site_type_symbol
  _atom_site_fract_x
  _atom_site_fract_y
  _atom_site_fract_z
C1 C 0.27679 0.23676 0.23629
 C2 C 0.26330 0.22326 0.26325
 C3 C 0.23665 0.23660 0.27659
 C4 C 0.22318 0.26358 0.26312
 C5 C 0.23652 0.27691 0.23648
 C6 C 0.26348 0.26342 0.22299
 C7 C 0.30263 0.22886 0.21833
 N8 N 0.30511 0.25009 0.19466
 C9 C 0.28143 0.27132 0.19715
 C10 C 0.21859 0.30277 0.22860
 N11 N 0.19489 0.30524 0.24981
 C12 C 0.19734 0.28154 0.27102
 C13 C 0.22874 0.21863 0.30241
 N14 N 0.24994 0.19493 0.30486
 C15 C 0.27117 0.19740 0.28118
 H16 H 0.31844 0.20921 0.22214
 H17 H 0.27762 0.29097 0.18135
 H18 H 0.22242 0.31859 0.20896
 H19 H 0.18151 0.27772 0.29065
 H20 H 0.20909 0.22245 0.31823
 H21 H 0.29080 0.18157 0.27734
 C22 C 0.72264 -0.23709 0.23578
 C23 C 0.73614 -0.22360 0.26274
 C24 C 0.76288 -0.23685 0.27599
 C25 C 0.77644 -0.26374 0.26245
 C26 C 0.76310 -0.27708 0.23580
 C27 C 0.73604 -0.26368 0.22239
 C28 C 0.69671 -0.22926 0.21791
 N29 N 0.69429 -0.25047 0.19420
 C30 C 0.71807 -0.27161 0.19658
 C31 C 0.78112 -0.30285 0.22783
 N32 N 0.80487 -0.30524 0.24902
 C33 C 0.80237 -0.28160 0.27028
 C34 C 0.77077 -0.21891 0.30183
 N35 N 0.74947 -0.19531 0.30438
 C36 C 0.72820 -0.19782 0.28074
 H37 H 0.68084 -0.20967 0.22182
 H38 H 0.72196 -0.29123 0.18074
 H39 H 0.77728 -0.31865 0.20818
 H40 H 0.81820 -0.27772 0.28992
 H41 H 0.79046 -0.22269 0.31760
 H42 H 0.70849 -0.18207 0.27698
 C43 C 0.72357 0.23765 0.76360
 C44 C 0.73717 0.22411 0.73673
 C45 C 0.76386 0.23743 0.72345
 C46 C 0.77728 0.26445 0.73689
 C47 C 0.76384 0.27783 0.76347
 C48 C 0.73683 0.26436 0.77690
 C49 C 0.69767 0.22976 0.78148
 N50 N 0.69512 0.25105 0.80509
 C51 C 0.71879 0.27231 0.80267
 C52 C 0.78173 0.30372 0.77136
 N53 N 0.80549 0.30614 0.75020
 C54 C 0.80314 0.28240 0.72903
 C55 C 0.77185 0.21942 0.69769
 N56 N 0.75066 0.19571 0.69522
 C57 C 0.72936 0.19822 0.71883
 H58 H 0.68190 0.21007 0.77764
 H59 H 0.72257 0.29200 0.81843
 H60 H 0.77780 0.31957 0.79096
 H61 H 0.81903 0.27852 0.70944
 H62 H 0.79154 0.22322 0.68192
 H63 H 0.70971 0.18240 0.72264
 C64 C 0.27691 -0.23778 0.76453
 C65 C 0.26342 -0.22428 0.73758
 C66 C 0.23665 -0.23749 0.72436
 C67 C 0.22304 -0.26434 0.73794
 C68 C 0.23637 -0.27769 0.76459
 C69 C 0.26347 -0.26433 0.77796
 C70 C 0.30286 -0.22997 0.78239
 N71 N 0.30526 -0.25116 0.80611
 C72 C 0.28144 -0.27227 0.80378
 C73 C 0.21830 -0.30343 0.77259
 N74 N 0.19454 -0.30578 0.75142
 C75 C 0.19706 -0.28216 0.73013
 C76 C 0.22878 -0.21955 0.69850
 N77 N 0.25013 -0.19599 0.69592
 C78 C 0.27140 -0.19852 0.71955
 H79 H 0.31876 -0.21040 0.77845
 H80 H 0.27753 -0.29187 0.81964
 H81 H 0.22212 -0.31922 0.79226
 H82 H 0.18123 -0.27826 0.71051
 H83 H 0.20906 -0.22330 0.68275
 H84 H 0.29115 -0.18280 0.72328
 C85 C 0.72273 -0.23728 0.76443
 C86 C 0.73623 -0.22377 0.73748
 C87 C 0.76296 -0.23702 0.72422
 C88 C 0.77651 -0.26392 0.73775
 C89 C 0.76317 -0.27728 0.76439
 C90 C 0.73612 -0.26388 0.77781
 C91 C 0.69680 -0.22946 0.78231
 N92 N 0.69437 -0.25069 0.80600
 C93 C 0.71814 -0.27183 0.80362
 C94 C 0.78119 -0.30306 0.77235
 N95 N 0.80493 -0.30544 0.75116
 C96 C 0.80244 -0.28178 0.72990
 C97 C 0.77084 -0.21907 0.69838
 N98 N 0.74954 -0.19546 0.69584
 C99 C 0.72828 -0.19798 0.71949
 H100 H 0.68093 -0.20987 0.77841
 H101 H 0.72202 -0.29147 0.81945
 H102 H 0.77735 -0.31888 0.79200
 H103 H 0.81827 -0.27789 0.71027
 H104 H 0.79053 -0.22284 0.68261
 H105 H 0.70857 -0.18223 0.72326
 C106 C 0.27727 0.23693 0.76372
 C107 C 0.26367 0.22337 0.73685
 C108 C 0.23694 0.23663 0.72361
 C109 C 0.22348 0.26361 0.73709
 C110 C 0.23691 0.27701 0.76365
 C111 C 0.26397 0.26360 0.77704
 C112 C 0.30322 0.22909 0.78156
 N113 N 0.30575 0.25038 0.80518
 C114 C 0.28203 0.27158 0.80279
 C115 C 0.21896 0.30285 0.77156
 N116 N 0.19517 0.30524 0.75044
 C117 C 0.19757 0.28151 0.72927
 C118 C 0.22895 0.21862 0.69785
 N119 N 0.25019 0.19496 0.69534
 C120 C 0.27152 0.19751 0.71892
 H121 H 0.31903 0.20945 0.77768
 H122 H 0.27822 0.29126 0.81857
 H123 H 0.22286 0.31871 0.79114
 H124 H 0.18167 0.27762 0.70971
 H125 H 0.20922 0.22239 0.68212
 H126 H 0.29121 0.18173 0.72269
 C127 C 0.27698 -0.23759 0.23566
 C128 C 0.26350 -0.22410 0.26262
 C129 C 0.23672 -0.23730 0.27584
 C130 C 0.22310 -0.26414 0.26226
 C131 C 0.23642 -0.27748 0.23561
 C132 C 0.26351 -0.26413 0.22223
 C133 C 0.30293 -0.22979 0.21780
 N134 N 0.30531 -0.25097 0.19407
 C135 C 0.28148 -0.27207 0.19640
 C136 C 0.21833 -0.30320 0.22760
 N137 N 0.19457 -0.30556 0.24877
 C138 C 0.19712 -0.28195 0.27007
 C139 C 0.22887 -0.21938 0.30171
 N140 N 0.25023 -0.19583 0.30430
 C141 C 0.27150 -0.19836 0.28066
 H142 H 0.31884 -0.21024 0.22174
 H143 H 0.27755 -0.29165 0.18054
 H144 H 0.22213 -0.31899 0.20793
 H145 H 0.18129 -0.27805 0.28970
 H146 H 0.20915 -0.22313 0.31746
 H147 H 0.29125 -0.18265 0.27693
 C148 C 0.72406 0.23747 0.23639
 C149 C 0.73755 0.22399 0.26336
 C150 C 0.76415 0.23738 0.27675
 C151 C 0.77758 0.26441 0.26332
 C152 C 0.76424 0.27773 0.23666
 C153 C 0.73732 0.26417 0.22312
 C154 C 0.69827 0.22951 0.21840
 N155 N 0.69577 0.25075 0.19473
 C156 C 0.71939 0.27204 0.19726
 C157 C 0.78211 0.30364 0.22880
 N158 N 0.80577 0.30614 0.25007
 C159 C 0.80337 0.28243 0.27128
 C160 C 0.77205 0.21942 0.30258
 N161 N 0.75089 0.19566 0.30498
 C162 C 0.72970 0.19810 0.28126
 H163 H 0.68250 0.20981 0.22217
 H164 H 0.72318 0.29171 0.18147
 H165 H 0.77824 0.31944 0.20915
 H166 H 0.81917 0.27860 0.29094
 H167 H 0.79166 0.22328 0.31843
 H168 H 0.71011 0.18224 0.27738
 O169 O 0.22406 0.02986 0.46948
 O170 O 0.22418 -0.03149 0.53083
 O171 O 0.22407 0.02986 0.53082
 O172 O 0.22419 -0.03147 0.46947
 O173 O 0.27630 -0.03137 0.46947
 O174 O 0.27618 0.02996 0.53081
 O175 O 0.27629 -0.03139 0.53082
 O176 O 0.27617 0.02997 0.46948
 Cu177 Cu 0.21887 -0.00083 0.50015
 Cu178 Cu 0.28149 -0.00070 0.50015
 C179 C 0.25009 0.04027 0.45913
 C180 C 0.25025 -0.04179 0.54118
 C181 C 0.25011 0.04027 0.54116
 C182 C 0.25026 -0.04177 0.45911
 O183 O 0.72428 0.03067 0.53082
 O184 O 0.72392 -0.03065 0.46947
 O185 O 0.72393 -0.03067 0.53083
 O186 O 0.72429 0.03069 0.46949
 O187 O 0.77639 0.03039 0.46949
 O188 O 0.77604 -0.03097 0.53083
 O189 O 0.77603 -0.03095 0.46947
 O190 O 0.77639 0.03038 0.53082
 Cu191 Cu 0.71885 0.00003 0.50015
 Cu192 Cu 0.78147 -0.00032 0.50015
 C193 C 0.75040 0.04088 0.54116
 C194 C 0.74991 -0.04114 0.45911
 C195 C 0.74992 -0.04117 0.54119
 C196 C 0.75040 0.04090 0.45914
 O197 O 0.46986 0.22451 0.02961
 O198 O 0.53122 0.22479 -0.03173
 O199 O 0.53122 0.22464 0.02961
 O200 O 0.46984 0.22465 -0.03173
 O201 O 0.46973 0.27673 -0.03162
 O202 O 0.53111 0.27673 0.02972
 O203 O 0.53111 0.27687 -0.03163
 O204 O 0.46974 0.27659 0.02973
 Cu205 Cu 0.50054 0.21939 -0.00108
 Cu206 Cu 0.50041 0.28199 -0.00094
 C207 C 0.45945 0.25050 0.04003
 C208 C 0.54152 0.25087 -0.04203
 C209 C 0.54152 0.25068 0.04002
 C210 C 0.45942 0.25069 -0.04202
 O211 O 0.53059 0.72301 0.03076
 O212 O 0.46921 0.72286 -0.03058
 O213 O 0.53059 0.72296 -0.03059
 O214 O 0.46922 0.72291 0.03076
 O215 O 0.46914 0.77499 0.03072
 O216 O 0.53051 0.77505 -0.03064
 O217 O 0.46913 0.77495 -0.03062
 O218 O 0.53051 0.77510 0.03071
 Cu219 Cu 0.49991 0.71768 0.00010
 Cu220 Cu 0.49982 0.78027 0.00004
 C221 C 0.54091 0.74908 0.04109
 C222 C 0.45881 0.74888 -0.04095
 C223 C 0.54091 0.74901 -0.04097
 C224 C 0.45882 0.74894 0.04109
 O225 O 0.03019 0.47011 0.22335
 O226 O -0.03119 0.53145 0.22314
 O227 O 0.03020 0.53145 0.22304
 O228 O -0.03116 0.47010 0.22345
 O229 O -0.03109 0.47035 0.27553
 O230 O 0.03028 0.53170 0.27513
 O231 O -0.03111 0.53169 0.27522
 O232 O 0.03027 0.47036 0.27544
 Cu233 Cu -0.00050 0.50076 0.21799
 Cu234 Cu -0.00041 0.50106 0.28058
 C235 C 0.04058 0.45988 0.24943
 C236 C -0.04151 0.54192 0.24914
 C237 C 0.04061 0.54191 0.24902
 C238 C -0.04147 0.45985 0.24956
 O239 O 0.03028 0.53142 0.72514
 O240 O -0.03110 0.47008 0.72479
 O241 O -0.03110 0.53143 0.72507
 O242 O 0.03027 0.47009 0.72487
 O243 O 0.03020 0.46985 0.77696
 O244 O -0.03117 0.53119 0.77715
 O245 O -0.03116 0.46984 0.77687
 O246 O 0.03022 0.53118 0.77723
 Cu247 Cu -0.00041 0.50078 0.71971
 Cu248 Cu -0.00049 0.50050 0.78231
 C249 C 0.04062 0.54164 0.75124
 C250 C -0.04148 0.45960 0.75077
 C251 C -0.04150 0.54166 0.75114
 C252 C 0.04059 0.45961 0.75088
 C253 C 0.32845 0.25010 0.17131
 C254 C 0.34851 0.25012 0.15122
 C255 C 0.37200 0.25017 0.12768
 C256 C 0.39205 0.25022 0.10759
 C257 C 0.41552 0.25030 0.08404
 C258 C 0.43557 0.25039 0.06394
 C259 C 0.67215 0.74948 0.17217
 C260 C 0.65204 0.74943 0.15212
 C261 C 0.62849 0.74936 0.12863
 C262 C 0.60840 0.74928 0.10858
 C263 C 0.58488 0.74920 0.08507
 C264 C 0.56481 0.74913 0.06499
 C265 C 0.67296 0.25106 -0.17288
 C266 C 0.65282 0.25109 -0.15286
 C267 C 0.62925 0.25110 -0.12942
 C268 C 0.60912 0.25108 -0.10939
 C269 C 0.58556 0.25103 -0.08593
 C270 C 0.56545 0.25097 -0.06589
 C271 C 0.32740 0.74879 -0.17185
 C272 C 0.34753 0.74877 -0.15182
 C273 C 0.37110 0.74876 -0.12836
 C274 C 0.39122 0.74876 -0.10833
 C275 C 0.41478 0.74879 -0.08486
 C276 C 0.43489 0.74883 -0.06482
 C277 C 0.17156 0.32859 0.24980
 C278 C 0.15150 0.34869 0.24978
 C279 C 0.12802 0.37222 0.24973
 C280 C 0.10798 0.39232 0.24966
 C281 C 0.08451 0.41587 0.24958
 C282 C 0.06446 0.43597 0.24951
 C283 C 0.17234 0.67224 0.75149
 C284 C 0.15215 0.65226 0.75154
 C285 C 0.12851 0.62887 0.75154
 C286 C 0.10834 0.60890 0.75152
 C287 C 0.08472 0.58549 0.75145
 C288 C 0.06457 0.56548 0.75137
 C289 C -0.17298 0.67274 0.24898
 C290 C -0.15283 0.65272 0.24895
 C291 C -0.12925 0.62928 0.24895
 C292 C -0.10912 0.60927 0.24897
 C293 C -0.08555 0.58581 0.24901
 C294 C -0.06544 0.56577 0.24906
 C295 C -0.17244 0.32825 0.75023
 C296 C -0.15238 0.34836 0.75027
 C297 C -0.12891 0.37191 0.75034
 C298 C -0.10887 0.39202 0.75042
 C299 C -0.08540 0.41558 0.75053
 C300 C -0.06535 0.43568 0.75064
 C301 C 0.24992 0.17156 0.32817
 C302 C 0.24991 0.15146 0.34822
 C303 C 0.24992 0.12792 0.37169
 C304 C 0.24994 0.10781 0.39173
 C305 C 0.24999 0.08427 0.41520
 C306 C 0.25004 0.06417 0.43525
 C307 C 0.75072 0.17231 0.67194
 C308 C 0.75075 0.15219 0.65192
 C309 C 0.75074 0.12861 0.62849
 C310 C 0.75070 0.10849 0.60848
 C311 C 0.75062 0.08492 0.58504
 C312 C 0.75053 0.06480 0.56502
 C313 C 0.25017 -0.17269 0.67253
 C314 C 0.25023 -0.15266 0.65241
 C315 C 0.25028 -0.12920 0.62885
 C316 C 0.25030 -0.10917 0.60874
 C317 C 0.25031 -0.08570 0.58520
 C318 C 0.25029 -0.06566 0.56509
 C319 C 0.74945 -0.17200 0.32775
 C320 C 0.74947 -0.15197 0.34786
 C321 C 0.74952 -0.12851 0.37141
 C322 C 0.74958 -0.10849 0.39152
 C323 C 0.74968 -0.08503 0.41508
 C324 C 0.74978 -0.06500 0.43519
 C325 C 0.67222 0.74924 -0.17197
 C326 C 0.65209 0.74919 -0.15194
 C327 C 0.62853 0.74913 -0.12847
 C328 C 0.60842 0.74909 -0.10842
 C329 C 0.58489 0.74905 -0.08493
 C330 C 0.56480 0.74903 -0.06486
 C331 C 0.32793 0.25044 -0.17283
 C332 C 0.34809 0.25051 -0.15282
 C333 C 0.37168 0.25058 -0.12939
 C334 C 0.39181 0.25063 -0.10937
 C335 C 0.41538 0.25067 -0.08592
 C336 C 0.43549 0.25069 -0.06588
 C337 C 0.32745 0.74897 0.17204
 C338 C 0.34758 0.74893 0.15200
 C339 C 0.37115 0.74890 0.12854
 C340 C 0.39126 0.74889 0.10851
 C341 C 0.41481 0.74890 0.08503
 C342 C 0.43491 0.74891 0.06498
 C343 C 0.67247 0.25069 0.17135
 C344 C 0.65243 0.25066 0.15123
 C345 C 0.62897 0.25065 0.12767
 C346 C 0.60893 0.25065 0.10756
 C347 C 0.58546 0.25066 0.08401
 C348 C 0.56540 0.25068 0.06392
 C349 C -0.17292 0.67253 0.75119
 C350 C -0.15278 0.65250 0.75123
 C351 C -0.12921 0.62906 0.75126
 C352 C -0.10909 0.60903 0.75126
 C353 C -0.08553 0.58557 0.75124
 C354 C -0.06542 0.56552 0.75121
 C355 C -0.17220 0.32829 0.25009
 C356 C -0.15218 0.34843 0.25008
 C357 C -0.12876 0.37203 0.25003
 C358 C -0.10876 0.39218 0.24995
 C359 C -0.08533 0.41577 0.24983
 C360 C -0.06531 0.43591 0.24971
 C361 C 0.17181 0.32856 0.75047
 C362 C 0.15171 0.34861 0.75052
 C363 C 0.12817 0.37209 0.75059
 C364 C 0.10808 0.39215 0.75064
 C365 C 0.08456 0.41565 0.75072
 C366 C 0.06448 0.43573 0.75080
 C367 C 0.17236 0.67247 0.24871
 C368 C 0.15216 0.65251 0.24867
 C369 C 0.12852 0.62913 0.24867
 C370 C 0.10834 0.60916 0.24870
 C371 C 0.08472 0.58575 0.24878
 C372 C 0.06457 0.56575 0.24887
 C373 C 0.74953 -0.17214 0.67248
 C374 C 0.74953 -0.15209 0.65238
 C375 C 0.74956 -0.12861 0.62884
 C376 C 0.74961 -0.10857 0.60873
 C377 C 0.74970 -0.08509 0.58519
 C378 C 0.74979 -0.06504 0.56510
 C379 C 0.25029 -0.17255 0.32769
 C380 C 0.25033 -0.15254 0.34782
 C381 C 0.25035 -0.12910 0.37139
 C382 C 0.25035 -0.10909 0.39151
 C383 C 0.25033 -0.08565 0.41508
 C384 C 0.25030 -0.06562 0.43519
 C385 C 0.75090 0.17229 0.32828
 C386 C 0.75088 0.15218 0.34832
 C387 C 0.75083 0.12862 0.37178
 C388 C 0.75075 0.10850 0.39180
 C389 C 0.75064 0.08494 0.41525
 C390 C 0.75054 0.06483 0.43529
 C391 C 0.25012 0.17158 0.67205
 C392 C 0.25008 0.15147 0.65202
 C393 C 0.25005 0.12792 0.62856
 C394 C 0.25004 0.10781 0.60853
 C395 C 0.25005 0.08427 0.58507
 C396 C 0.25007 0.06417 0.56503
   
