data_POSCAR
  _audit_creation_date              2014-09-24
  _audit_creation_method            'ToBaCCo'
  _symmetry_space_group_name_H-M    'P1'
  _symmetry_Int_Tables_number       1
  _symmetry_cell_setting            triclinic
  loop_
  _symmetry_equiv_pos_as_xyz
 x,y,z
_cell_length_a 32.3588
_cell_length_b 32.1503
_cell_length_c 31.4280
_cell_angle_alpha 89.660100
_cell_angle_beta 90.568100
_cell_angle_gamma 90.392100
loop_
  _atom_site_label
  _atom_site_type_symbol
  _atom_site_fract_x
  _atom_site_fract_y
  _atom_site_fract_z
C1 C 0.43561 0.26504 0.00611
 C2 C 0.44093 0.26854 -0.03713
 C3 C 0.40342 0.28134 -0.05390
 N4 N 0.37525 0.28513 -0.02265
 C5 C 0.39486 0.27554 0.01419
 C6 C 0.39537 0.28915 -0.09735
 C7 C 0.35861 0.30801 -0.11182
 C8 C 0.34639 0.31042 -0.15414
 C9 C 0.31442 0.33842 -0.15620
 C10 C 0.30809 0.35229 -0.11507
 N11 N 0.33473 0.33315 -0.08820
 C12 C 0.28470 0.38760 -0.10489
 C13 C 0.27309 0.39736 -0.06292
 C14 C 0.25541 0.43438 -0.05052
 C15 C 0.24960 0.43142 -0.00724
 C16 C 0.26379 0.39251 0.00531
 N17 N 0.27770 0.37172 -0.02896
 C18 C 0.26446 0.37625 0.04743
 C19 C 0.28840 0.34131 0.05925
 C20 C 0.28487 0.32064 0.09791
 C21 C 0.31658 0.29235 0.10013
 C22 C 0.33867 0.29653 0.06283
 N23 N 0.32134 0.32643 0.03803
 C24 C 0.37604 0.27569 0.05477
 H25 H 0.45954 0.25688 0.02884
 H26 H 0.46924 0.26300 -0.05420
 H27 H 0.33467 0.33995 0.01141
 H28 H 0.36070 0.29548 -0.18097
 H29 H 0.29934 0.34941 -0.18500
 H30 H 0.24823 0.46101 -0.07042
 H31 H 0.23775 0.45601 0.01238
 H32 H 0.32332 0.27183 0.12670
 H33 H 0.34159 0.34297 -0.05755
 H34 H 0.26244 0.32622 0.12252
 C35 C 0.72815 0.55754 0.01430
 C36 C 0.72446 0.55292 -0.02890
 C37 C 0.70993 0.59038 -0.04472
 N38 N 0.70504 0.61787 -0.01302
 C39 C 0.71631 0.59795 0.02314
 C40 C 0.70541 0.59997 -0.08822
 C41 C 0.68082 0.63282 -0.10324
 C42 C 0.67899 0.64639 -0.14508
 C43 C 0.64889 0.67651 -0.14695
 C44 C 0.63379 0.68065 -0.10603
 N45 N 0.65325 0.65376 -0.07970
 C46 C 0.59916 0.70437 -0.09514
 C47 C 0.58959 0.71463 -0.05280
 C48 C 0.55269 0.73167 -0.03983
 C49 C 0.55596 0.73673 0.00351
 C50 C 0.59507 0.72309 0.01551
 N51 N 0.61555 0.70984 -0.01913
 C52 C 0.61192 0.72322 0.05743
 C53 C 0.64780 0.70110 0.06910
 C54 C 0.66897 0.70627 0.10733
 C55 C 0.69887 0.67601 0.10920
 C56 C 0.69498 0.65320 0.07216
 N57 N 0.66371 0.66861 0.04792
 C58 C 0.71759 0.61696 0.06348
 H59 H 0.73775 0.53345 0.03632
 H60 H 0.73143 0.52513 -0.04667
 H61 H 0.65022 0.65441 0.02159
 H62 H 0.69658 0.63492 -0.17162
 H63 H 0.63852 0.69281 -0.17530
 H64 H 0.52597 0.73893 -0.05944
 H65 H 0.53154 0.74803 0.02350
 H66 H 0.72031 0.67073 0.13530
 H67 H 0.64427 0.64619 -0.04896
 H68 H 0.66282 0.72890 0.13180
 C69 C 0.75119 0.43357 1.04772
 C70 C 0.76104 0.43137 1.00529
 C71 C 0.74740 0.39279 0.99100
 N72 N 0.72977 0.37146 1.02344
 C73 C 0.73167 0.39648 1.05793
 C74 C 0.75063 0.37766 0.94879
 C75 C 0.72698 0.34375 0.93330
 C76 C 0.73318 0.32467 0.89438
 C77 C 0.70070 0.29724 0.88809
 C78 C 0.67556 0.30051 0.92323
 N79 N 0.69171 0.32899 0.95051
 C80 C 0.63722 0.27991 0.92813
 C81 C 0.61562 0.28094 0.96677
 C82 C 0.57394 0.27177 0.97173
 C83 C 0.56677 0.27171 1.01450
 C84 C 0.60388 0.28226 1.03380
 N85 N 0.63382 0.28764 1.00485
 C86 C 0.61030 0.28263 1.07765
 C87 C 0.64308 0.30460 1.09696
 C88 C 0.65428 0.30275 1.13957
 C89 C 0.68486 0.33236 1.14539
 C90 C 0.69190 0.35045 1.10592
 N91 N 0.66626 0.33354 1.07677
 C92 C 0.71666 0.38569 1.09860
 H93 H 0.75703 0.45975 1.06846
 H94 H 0.77530 0.45618 0.98719
 H95 H 0.66099 0.34533 1.04633
 H96 H 0.75797 0.33076 0.87228
 H97 H 0.69562 0.27790 0.86043
 H98 H 0.55082 0.26594 0.94737
 H99 H 0.53760 0.26512 1.02978
 H100 H 0.69966 0.34036 1.17531
 H101 H 0.67678 0.34186 0.97634
 H102 H 0.64110 0.28321 1.16413
 C103 C 0.25702 0.56314 1.03924
 C104 C 0.25518 0.56640 0.99558
 C105 C 0.26579 0.60719 0.98533
 N106 N 0.27379 0.62877 1.02125
 C107 C 0.26894 0.60186 1.05409
 C108 C 0.26795 0.62454 0.94380
 C109 C 0.28961 0.66190 0.93486
 C110 C 0.28722 0.68298 0.89633
 C111 C 0.31644 0.71430 0.89774
 C112 C 0.33591 0.71161 0.93712
 N113 N 0.31937 0.67956 0.95960
 C114 C 0.37127 0.73522 0.94880
 C115 C 0.38621 0.73678 0.99138
 C116 C 0.42541 0.74939 1.00461
 C117 C 0.42656 0.74540 1.04825
 C118 C 0.38820 0.73033 1.06015
 N119 N 0.36352 0.72557 1.02554
 C120 C 0.37635 0.72104 1.10224
 C121 C 0.33952 0.69969 1.11208
 C122 C 0.32391 0.69558 1.15285
 C123 C 0.29496 0.66402 1.15149
 C124 C 0.29375 0.64985 1.10993
 N125 N 0.32042 0.67226 1.08603
 C126 C 0.27536 0.61207 1.09721
 H127 H 0.25115 0.53532 1.05785
 H128 H 0.24838 0.54094 0.97429
 H129 H 0.33123 0.66350 1.05648
 H130 H 0.26736 0.67567 0.86944
 H131 H 0.32348 0.73582 0.87216
 H132 H 0.45131 0.75885 0.98532
 H133 H 0.45286 0.75194 1.06875
 H134 H 0.27882 0.65097 1.17851
 H135 H 0.33177 0.66667 0.98720
 H136 H 0.33452 0.71156 1.18119
 C137 C 0.00080 0.24355 0.42751
 C138 C -0.04140 0.24803 0.43033
 C139 C -0.05491 0.26206 0.39093
 N140 N -0.02269 0.26568 0.36403
 C141 C 0.01156 0.25489 0.38633
 C142 C -0.09617 0.27178 0.38015
 C143 C -0.10706 0.29186 0.34182
 C144 C -0.14734 0.29629 0.32708
 C145 C -0.14669 0.32733 0.29673
 C146 C -0.10603 0.34078 0.29382
 N147 N -0.08204 0.31842 0.32070
 C148 C -0.09378 0.37864 0.27512
 C149 C -0.05220 0.38806 0.26618
 C150 C -0.03742 0.42668 0.25378
 C151 C 0.00463 0.42268 0.24961
 C152 C 0.01400 0.38159 0.25947
 N153 N -0.02093 0.36049 0.26911
 C154 C 0.05395 0.36378 0.26012
 C155 C 0.06295 0.32675 0.28289
 C156 C 0.09987 0.30545 0.27996
 C157 C 0.09933 0.27492 0.31093
 C158 C 0.06206 0.27832 0.33196
 N159 N 0.04003 0.30998 0.31463
 C160 C 0.05209 0.25593 0.36946
 H161 H 0.02094 0.23462 0.45359
 H162 H -0.05989 0.24250 0.45835
 H163 H 0.01411 0.32333 0.32791
 H164 H -0.17473 0.28117 0.33948
 H165 H -0.17344 0.34081 0.28113
 H166 H -0.05498 0.45493 0.24919
 H167 H 0.02563 0.44788 0.24207
 H168 H 0.12417 0.25355 0.31814
 H169 H -0.05270 0.32727 0.33086
 H170 H 0.12520 0.31217 0.25870
 C171 C -0.03111 0.57962 0.75061
 C172 C 0.01129 0.58134 0.75041
 C173 C 0.02222 0.62224 0.74095
 N174 N -0.01208 0.64534 0.73537
 C175 C -0.04455 0.61927 0.74071
 C176 C 0.06293 0.63833 0.73766
 C177 C 0.07176 0.67602 0.71612
 C178 C 0.10948 0.69657 0.71792
 C179 C 0.10760 0.72856 0.68855
 C180 C 0.06882 0.72656 0.66949
 N181 N 0.04715 0.69447 0.68656
 C182 C 0.05688 0.75038 0.63347
 C183 C 0.01587 0.75073 0.61752
 C184 C 0.00382 0.76103 0.57627
 C185 C -0.03834 0.75537 0.57405
 C186 C -0.05044 0.74197 0.61398
 N187 N -0.01745 0.73967 0.64055
 C188 C -0.09117 0.73194 0.62574
 C189 C -0.10064 0.71422 0.66535
 C190 C -0.14004 0.71163 0.68205
 C191 C -0.13835 0.68266 0.71444
 C192 C -0.09803 0.66829 0.71616
 N193 N -0.07515 0.68846 0.68686
 C194 C -0.08612 0.63081 0.73572
 H195 H -0.04988 0.55211 0.75596
 H196 H 0.03117 0.55476 0.75485
 H197 H -0.04693 0.67836 0.67564
 H198 H 0.13605 0.68850 0.73739
 H199 H 0.13252 0.74986 0.68087
 H200 H 0.02321 0.76983 0.54985
 H201 H -0.05770 0.75978 0.54613
 H202 H -0.16451 0.67072 0.73203
 H203 H 0.02000 0.68191 0.67422
 H204 H -0.16764 0.72660 0.66993
 C205 C 0.99674 0.55989 0.25143
 C206 C 1.03852 0.55507 0.25819
 C207 C 1.05246 0.59119 0.27735
 N208 N 1.02093 0.61826 0.28174
 C209 C 0.98663 0.59917 0.26621
 C210 C 1.09369 0.59895 0.29022
 C211 C 1.10511 0.63271 0.31634
 C212 C 1.14540 0.64630 0.32315
 C213 C 1.14407 0.67586 0.35471
 C214 C 1.10312 0.67896 0.36654
 N215 N 1.07961 0.65261 0.34310
 C216 C 1.08889 0.70360 0.40017
 C217 C 1.04659 0.70967 0.40844
 C218 C 1.03122 0.72450 0.44635
 C219 C 0.98942 0.72907 0.44046
 C220 C 0.98082 0.71741 0.39886
 N221 N 1.01587 0.70549 0.37945
 C222 C 0.94166 0.71904 0.37854
 C223 C 0.93349 0.69802 0.34008
 C224 C 0.89803 0.70324 0.31573
 C225 C 0.89979 0.67467 0.28336
 C226 C 0.93635 0.65290 0.28883
 N227 N 0.95672 0.66727 0.32350
 C228 C 0.94661 0.61714 0.26553
 H229 H 0.97650 0.53630 0.23830
 H230 H 1.05642 0.52778 0.25074
 H231 H 0.98156 0.65271 0.33828
 H232 H 1.17294 0.63530 0.30763
 H233 H 1.17034 0.69228 0.36825
 H234 H 1.04832 0.73094 0.47538
 H235 H 0.96810 0.73907 0.46455
 H236 H 0.87620 0.66956 0.25925
 H237 H 1.04904 0.64463 0.34896
 H238 H 0.87300 0.72462 0.32138
 C239 C 1.02876 0.25206 0.56528
 C240 C 0.98655 0.25222 0.56755
 C241 C 0.97684 0.27030 0.60617
 N242 N 1.01175 0.28199 0.62698
 C243 C 1.04333 0.27113 0.60184
 C244 C 0.93671 0.27458 0.62289
 C245 C 0.92872 0.30061 0.65771
 C246 C 0.89212 0.30042 0.68012
 C247 C 0.89529 0.33195 0.70943
 C248 C 0.93367 0.35056 0.70386
 N249 N 0.95379 0.33145 0.67213
 C250 C 0.94707 0.38660 0.72538
 C251 C 0.98813 0.40242 0.72360
 C252 C 1.00050 0.44231 0.73504
 C253 C 1.04253 0.44459 0.72922
 C254 C 1.05443 0.40618 0.71417
 N255 N 1.02127 0.38037 0.71113
 C256 C 1.09540 0.39515 0.70433
 C257 C 1.10533 0.35751 0.68415
 C258 C 1.14473 0.34103 0.68160
 C259 C 1.14185 0.30675 0.65543
 C260 C 1.10095 0.30389 0.64235
 N261 N 1.07900 0.33484 0.65993
 C262 C 1.08537 0.27562 0.61206
 H263 H 1.04674 0.24009 0.53924
 H264 H 0.96599 0.24100 0.54282
 H265 H 1.04920 0.34334 0.65127
 H266 H 0.86572 0.28004 0.67544
 H267 H 0.87165 0.34077 0.73172
 H268 H 0.98137 0.46771 0.74539
 H269 H 1.06203 0.47152 0.73492
 H270 H 1.16714 0.28709 0.64600
 H271 H 0.98048 0.34235 0.65766
 H272 H 1.17268 0.35298 0.69643
 C273 C 0.43671 -0.03398 0.25995
 C274 C 0.43309 0.00848 0.25543
 C275 C 0.39244 0.01818 0.26483
 N276 N 0.37118 -0.01686 0.27437
 C277 C 0.39822 -0.04861 0.27195
 C278 C 0.37524 0.05858 0.26486
 C279 C 0.33829 0.06810 0.28586
 C280 C 0.31798 0.10576 0.28188
 C281 C 0.28689 0.10538 0.31145
 C282 C 0.28908 0.06746 0.33245
 N283 N 0.32044 0.04487 0.31668
 C284 C 0.26578 0.05700 0.36857
 C285 C 0.26313 0.01574 0.38456
 C286 C 0.25005 0.00387 0.42487
 C287 C 0.25202 -0.03881 0.42661
 C288 C 0.26670 -0.05144 0.38762
 N289 N 0.27301 -0.01825 0.36187
 C290 C 0.27440 -0.09289 0.37620
 C291 C 0.29774 -0.10357 0.34036
 C292 C 0.30211 -0.14384 0.32546
 C293 C 0.33522 -0.14333 0.29828
 C294 C 0.34982 -0.10273 0.29717
 N295 N 0.32647 -0.07867 0.32234
 C296 C 0.38818 -0.09054 0.28040
 H297 H 0.46451 -0.05193 0.25555
 H298 H 0.45806 0.02961 0.24763
 H299 H 0.33506 -0.04950 0.33339
 H300 H 0.32571 0.13141 0.26089
 H301 H 0.26590 0.13064 0.31773
 H302 H 0.24150 0.02344 0.45115
 H303 H 0.24476 -0.05817 0.45384
 H304 H 0.34868 -0.17014 0.28318
 H305 H 0.33281 0.01831 0.33056
 H306 H 0.28516 -0.17123 0.33562
 C307 C 0.56281 -0.04363 0.74419
 C308 C 0.56498 -0.00108 0.74891
 C309 C 0.60408 0.01120 0.73583
 N310 N 0.62580 -0.02250 0.72368
 C311 C 0.60053 -0.05592 0.72826
 C312 C 0.61957 0.05263 0.73472
 C313 C 0.65539 0.06433 0.71238
 C314 C 0.67458 0.10288 0.71620
 C315 C 0.70436 0.10502 0.68536
 C316 C 0.70257 0.06772 0.66368
 N317 N 0.67262 0.04304 0.68025
 C318 C 0.72590 0.05903 0.62729
 C319 C 0.72926 0.01833 0.61101
 C320 C 0.74521 0.00762 0.57174
 C321 C 0.74564 -0.03496 0.57049
 C322 C 0.72873 -0.04873 0.60833
 N323 N 0.71910 -0.01629 0.63318
 C324 C 0.72566 -0.09066 0.62053
 C325 C 0.69962 -0.10495 0.65335
 C326 C 0.69751 -0.14559 0.66801
 C327 C 0.66467 -0.14756 0.69577
 C328 C 0.64825 -0.10786 0.69775
 N329 N 0.66960 -0.08226 0.67166
 C330 C 0.61133 -0.09738 0.71868
 H331 H 0.53633 -0.06320 0.75111
 H332 H 0.53996 0.01827 0.75948
 H333 H 0.66035 -0.05272 0.66237
 H334 H 0.66699 0.12746 0.73814
 H335 H 0.72440 0.13137 0.67896
 H336 H 0.75504 0.02775 0.54607
 H337 H 0.75655 -0.05361 0.54439
 H338 H 0.65344 -0.17521 0.71185
 H339 H 0.66054 0.01623 0.66654
 H340 H 0.71644 -0.17141 0.65829
 C341 C 0.26728 1.03898 0.56372
 C342 C 0.26618 0.99630 0.56678
 C343 C 0.27584 0.98624 0.60876
 N344 N 0.28266 1.02124 0.63127
 C345 C 0.27790 1.05337 0.60377
 C346 C 0.27703 0.94563 0.62646
 C347 C 0.29804 0.93656 0.66488
 C348 C 0.29489 0.89913 0.68661
 C349 C 0.32314 0.90079 0.71963
 C350 C 0.34266 0.93926 0.71718
 N351 N 0.32719 0.96090 0.68367
 C352 C 0.37761 0.95060 0.74188
 C353 C 0.39250 0.99213 0.74402
 C354 C 0.43158 1.00492 0.75743
 C355 C 0.43286 1.04760 0.75304
 C356 C 0.39461 1.05935 0.73718
 N357 N 0.36994 1.02559 0.73224
 C358 C 0.38277 1.10044 0.72710
 C359 C 0.34566 1.10979 0.70559
 C360 C 0.32961 1.14954 0.70151
 C361 C 0.30104 1.14823 0.66879
 C362 C 0.30060 1.10776 0.65387
 N363 N 0.32725 1.08444 0.67701
 C364 C 0.28296 1.09543 0.61481
 H365 H 0.26165 1.05728 0.53524
 H366 H 0.26013 0.97535 0.54061
 H367 H 0.33877 1.05586 0.66787
 H368 H 0.27517 0.87290 0.67873
 H369 H 0.32957 0.87595 0.74209
 H370 H 0.45728 0.98591 0.76762
 H371 H 0.45911 1.06758 0.75993
 H372 H 0.28477 1.17462 0.65539
 H373 H 0.33996 0.98779 0.67074
 H374 H 0.33984 1.17719 0.71816
 C375 C 0.56970 1.02272 0.25325
 C376 C 0.57302 0.98034 0.25372
 C377 C 0.61321 0.97150 0.26664
 N378 N 0.63407 1.00702 0.27513
 C379 C 0.60737 1.03811 0.26728
 C380 C 0.63108 0.93161 0.26872
 C381 C 0.66825 0.92416 0.29120
 C382 C 0.69055 0.88770 0.28900
 C383 C 0.72234 0.89117 0.31828
 C384 C 0.71846 0.92965 0.33757
 N385 N 0.68537 0.94953 0.32092
 C386 C 0.74189 0.94248 0.37336
 C387 C 0.74143 0.98379 0.38925
 C388 C 0.75480 0.99624 0.42938
 C389 C 0.74797 1.03841 0.43188
 C390 C 0.73054 1.05033 0.39336
 N391 N 0.72703 1.01709 0.36724
 C392 C 0.71850 1.09127 0.38251
 C393 C 0.69609 1.10085 0.34514
 C394 C 0.69146 1.14049 0.32806
 C395 C 0.66232 1.13749 0.29581
 C396 C 0.64959 1.09633 0.29489
 N397 N 0.67037 1.07429 0.32484
 C398 C 0.61694 1.08046 0.26981
 H399 H 0.54241 1.04027 0.24456
 H400 H 0.54808 0.95904 0.24616
 H401 H 0.66309 1.04442 0.33516
 H402 H 0.68399 0.86104 0.26911
 H403 H 0.74499 0.86747 0.32555
 H404 H 0.76684 0.97713 0.45498
 H405 H 0.75444 1.05792 0.45913
 H406 H 0.65065 1.16291 0.27653
 H407 H 0.67190 0.97589 0.33350
 H408 H 0.70668 1.16873 0.33863
 O409 O 0.89023 0.82086 0.46977
 O410 O 0.81095 0.85747 0.54348
 O411 O 0.86366 0.79805 0.54380
 O412 O 0.83798 0.88440 0.47077
 O413 O 0.79237 0.84390 0.43827
 O414 O 0.81494 0.75943 0.51357
 O415 O 0.76317 0.82019 0.51008
 O416 O 0.84409 0.77946 0.43932
 Cu417 Cu 0.85561 0.84435 0.50964
 Cu418 Cu 0.79932 0.79668 0.47149
 C419 C 0.88111 0.79244 0.44339
 C420 C 0.77359 0.84558 0.53910
 C421 C 0.84299 0.76441 0.54156
 C422 C 0.80955 0.87924 0.44320
 O423 O 0.20607 0.13955 0.53842
 O424 O 0.11522 0.16575 0.47043
 O425 O 0.17449 0.11039 0.46799
 O426 O 0.14479 0.19103 0.54242
 O427 O 0.18022 0.23877 0.50712
 O428 O 0.21399 0.15591 0.43428
 O429 O 0.15364 0.21083 0.43488
 O430 O 0.24211 0.18780 0.50451
 Cu431 Cu 0.15643 0.14692 0.50813
 Cu432 Cu 0.20133 0.20277 0.46640
 C433 C 0.23948 0.15996 0.53303
 C434 C 0.11893 0.19355 0.44172
 C435 C 0.20031 0.11900 0.43930
 C436 C 0.15615 0.22854 0.53715
 O437 O 0.11444 0.84640 0.53521
 O438 O 0.19863 0.86823 0.45807
 O439 O 0.12832 0.82927 0.45686
 O440 O 0.17656 0.90028 0.53135
 O441 O 0.21520 0.85001 0.55802
 O442 O 0.16260 0.77601 0.48421
 O443 O 0.23189 0.81379 0.48417
 O444 O 0.15197 0.79516 0.56183
 Cu445 Cu 0.15129 0.86644 0.49321
 Cu446 Cu 0.19442 0.80485 0.52567
 C447 C 0.11876 0.81569 0.56071
 C448 C 0.22920 0.84330 0.45766
 C449 C 0.13610 0.79087 0.45796
 C450 C 0.20447 0.88810 0.55663
 O451 O 0.87723 0.17584 0.53136
 O452 O 0.79240 0.14425 0.45823
 O453 O 0.85110 0.20135 0.45761
 O454 O 0.82009 0.11728 0.53130
 O455 O 0.77782 0.16011 0.56381
 O456 O 0.80898 0.24383 0.49088
 O457 O 0.75134 0.18783 0.49137
 O458 O 0.83516 0.21878 0.56401
 Cu459 Cu 0.83948 0.15518 0.49152
 Cu460 Cu 0.78916 0.20678 0.53105
 C461 C 0.87088 0.20366 0.55903
 C462 C 0.75721 0.16099 0.46274
 C463 C 0.83542 0.23715 0.46224
 C464 C 0.79296 0.12411 0.55919
 O465 O 0.47662 0.88459 0.83145
 O466 O 0.53671 0.78895 0.85480
 O467 O 0.54167 0.85027 0.79873
 O468 O 0.47300 0.82379 0.88912
 O469 O 0.43292 0.78708 0.84598
 O470 O 0.50083 0.81333 0.75651
 O471 O 0.49578 0.75386 0.81097
 O472 O 0.43618 0.84773 0.78883
 Cu473 Cu 0.51091 0.84067 0.84800
 Cu474 Cu 0.46198 0.79733 0.79636
 C475 C 0.44676 0.88233 0.80501
 C476 C 0.52607 0.75512 0.83671
 C477 C 0.53270 0.83592 0.76214
 C478 C 0.44227 0.79964 0.88312
 O479 O 0.53810 0.19757 0.13357
 O480 O 0.46707 0.11543 0.16618
 O481 O 0.46518 0.17520 0.10969
 O482 O 0.54027 0.13872 0.18843
 O483 O 0.51556 0.18048 0.23748
 O484 O 0.44101 0.21973 0.15642
 O485 O 0.44145 0.15797 0.21400
 O486 O 0.51509 0.24065 0.18232
 Cu487 Cu 0.50499 0.15249 0.14463
 Cu488 Cu 0.47499 0.20395 0.20236
 C489 C 0.53920 0.23265 0.15195
 C490 C 0.44286 0.12236 0.19661
 C491 C 0.44137 0.20477 0.11899
 C492 C 0.54089 0.15279 0.22610
 O493 O 0.46752 0.21165 0.85650
 O494 O 0.52730 0.11831 0.82872
 O495 O 0.54114 0.18439 0.87657
 O496 O 0.46134 0.15386 0.79748
 O497 O 0.49338 0.19404 0.75075
 O498 O 0.57290 0.22272 0.82811
 O499 O 0.55977 0.15502 0.77966
 O500 O 0.50141 0.24827 0.80825
 Cu501 Cu 0.49621 0.16328 0.84475
 Cu502 Cu 0.53583 0.20717 0.78686
 C503 C 0.47439 0.24583 0.83728
 C504 C 0.55293 0.12059 0.79866
 C505 C 0.56972 0.20981 0.86603
 C506 C 0.46416 0.16949 0.76026
 O507 O 0.45288 0.79436 0.15273
 O508 O 0.53092 0.87567 0.17717
 O509 O 0.52061 0.82003 0.11693
 O510 O 0.45907 0.85544 0.20778
 O511 O 0.49334 0.81240 0.25012
 O512 O 0.55353 0.77608 0.15938
 O513 O 0.56443 0.83175 0.21918
 O514 O 0.48642 0.75206 0.19646
 Cu515 Cu 0.48766 0.84082 0.15929
 Cu516 Cu 0.52792 0.78872 0.21033
 C517 C 0.45675 0.75913 0.17097
 C518 C 0.56019 0.86774 0.20323
 C519 C 0.54682 0.79141 0.12257
 C520 C 0.46608 0.84015 0.24448
 O521 O 0.87446 0.54809 0.80890
 O522 O 0.85101 0.47259 0.89575
 O523 O 0.90546 0.47604 0.83282
 O524 O 0.83284 0.54829 0.87856
 O525 O 0.78136 0.52141 0.84067
 O526 O 0.85629 0.45067 0.79100
 O527 O 0.80316 0.44483 0.85395
 O528 O 0.82311 0.52088 0.77115
 Cu529 Cu 0.87134 0.51341 0.85761
 Cu530 Cu 0.81116 0.48138 0.81045
 C531 C 0.85152 0.54757 0.77561
 C532 C 0.82142 0.44688 0.88968
 C533 C 0.89396 0.45216 0.80322
 C534 C 0.79503 0.54699 0.86834
 O535 O 0.17117 0.47044 0.11080
 O536 O 0.14288 0.53241 0.20581
 O537 O 0.19999 0.53747 0.14656
 O538 O 0.11345 0.46518 0.17047
 O539 O 0.15509 0.42708 0.21059
 O540 O 0.24078 0.49873 0.18705
 O541 O 0.18499 0.49353 0.24466
 O542 O 0.21246 0.43227 0.15122
 Cu543 Cu 0.15251 0.50497 0.15425
 Cu544 Cu 0.20231 0.45873 0.20209
 C545 C 0.19781 0.44177 0.11484
 C546 C 0.15944 0.52311 0.24151
 C547 C 0.23528 0.53001 0.16295
 C548 C 0.11928 0.43484 0.19585
 O549 O 0.85322 0.45541 0.20440
 O550 O 0.81768 0.52572 0.11801
 O551 O 0.88217 0.52343 0.17069
 O552 O 0.79250 0.45530 0.14897
 O553 O 0.75577 0.49009 0.19565
 O554 O 0.84455 0.55843 0.21635
 O555 O 0.78001 0.56023 0.16402
 O556 O 0.81577 0.49131 0.24956
 Cu557 Cu 0.84029 0.48673 0.15569
 Cu558 Cu 0.79546 0.52903 0.21075
 C559 C 0.84019 0.46175 0.24187
 C560 C 0.79146 0.55374 0.12620
 C561 C 0.87892 0.55149 0.19856
 C562 C 0.75899 0.46112 0.16872
 O563 O 0.17991 0.52578 0.87826
 O564 O 0.14903 0.46254 0.78479
 O565 O 0.20836 0.45915 0.84315
 O566 O 0.12237 0.53098 0.81919
 O567 O 0.16360 0.56892 0.77870
 O568 O 0.24857 0.49736 0.80179
 O569 O 0.19040 0.50098 0.74494
 O570 O 0.22114 0.56358 0.83763
 Cu571 Cu 0.16066 0.49080 0.83541
 Cu572 Cu 0.20991 0.53662 0.78676
 C573 C 0.20632 0.55483 0.87391
 C574 C 0.16461 0.47133 0.74882
 C575 C 0.24334 0.46658 0.82655
 C576 C 0.12832 0.56177 0.79446
 N577 N 0.24360 0.39662 0.08179
 N578 N 0.21340 0.42158 0.07786
 N579 N 0.74069 0.59833 0.09793
 N580 N 0.77228 0.57578 0.09189
 N581 N 0.77361 0.40027 0.91723
 N582 N 0.80572 0.42242 0.92411
 N583 N 0.24994 0.60326 0.90784
 N584 N 0.22078 0.57667 0.91066
 N585 N 0.08631 0.23731 0.39207
 N586 N 0.08323 0.20725 0.41846
 N587 N 0.08956 0.77002 0.60997
 N588 N 0.08500 0.80199 0.58629
 N589 N 0.90798 0.74102 0.39782
 N590 N 0.91378 0.77329 0.42047
 N591 N 0.90187 0.25378 0.60342
 N592 N 0.90516 0.22036 0.58224
 N593 N 0.39700 0.09283 0.24579
 N594 N 0.41884 0.08866 0.21278
 N595 N 0.59754 0.08653 0.75328
 N596 N 0.57349 0.08392 0.78490
 N597 N 0.39941 0.91655 0.76143
 N598 N 0.42609 0.91928 0.79130
 N599 N 0.61004 0.89670 0.24965
 N600 N 0.58608 0.90092 0.21755
 N601 N 0.42495 0.28404 0.87485
 N602 N 0.45225 0.28261 0.84779
 N603 N 0.57255 0.71276 0.87437
 N604 N 0.54769 0.71741 0.84487
 N605 N 0.40322 0.72579 0.13333
 N606 N 0.42777 0.72639 0.16349
 N607 N 0.58387 0.25554 0.10103
 N608 N 0.56661 0.26373 0.13603
 N609 N 0.27727 0.12425 0.58569
 N610 N 0.27515 0.15220 0.55881
 N611 N 0.72292 0.12118 0.41043
 N612 N 0.72306 0.15018 0.43589
 N613 N 0.75289 0.88143 0.59958
 N614 N 0.74263 0.86403 0.56479
 N615 N 0.26573 0.87708 0.40303
 N616 N 0.26133 0.84724 0.42725
 N617 N 0.12524 0.42256 0.70982
 N618 N 0.15372 0.44819 0.71161
 N619 N 0.12223 0.57121 0.28251
 N620 N 0.15000 0.54539 0.27936
 N621 N 0.87883 0.40845 0.27389
 N622 N 0.85269 0.43592 0.27657
 N623 N 0.88500 0.60270 0.74097
 N624 N 0.85672 0.57706 0.74220
 N625 N 0.72973 0.57709 0.88234
 N626 N 0.76786 0.57288 0.89113
 N627 N 0.27927 0.41516 0.86469
 N628 N 0.27791 0.44059 0.83526
 N629 N 0.27066 0.58320 0.12650
 N630 N 0.26988 0.55650 0.15477
 N631 N 0.72180 0.41142 0.13037
 N632 N 0.72390 0.43531 0.16078
 N633 N 0.87927 0.73295 0.59705
 N634 N 0.85100 0.73133 0.57063
 N635 N 0.87515 0.26941 0.40927
 N636 N 0.84734 0.27110 0.43566
 N637 N 0.11221 0.24788 0.59069
 N638 N 0.13796 0.25974 0.56282
 N639 N 0.11844 0.72618 0.42547
 N640 N 0.11227 0.76477 0.43075
 N641 N 0.58395 0.87282 0.72448
 N642 N 0.55823 0.84439 0.72622
 N643 N 0.41711 0.88117 0.27876
 N644 N 0.44373 0.85398 0.28054
 N645 N 0.59283 0.10678 0.24285
 N646 N 0.56863 0.13460 0.25632
 N647 N 0.40997 0.13067 0.72987
 N648 N 0.43447 0.16006 0.72802
 N649 N 0.59141 0.74390 0.09157
 N650 N 0.56769 0.77492 0.08674
 N651 N 0.39629 0.25573 0.09034
 N652 N 0.41711 0.22272 0.08558
 N653 N 0.61875 0.25858 0.89245
 N654 N 0.59541 0.22704 0.89857
 N655 N 0.39327 0.75510 0.91442
 N656 N 0.41963 0.78438 0.91895
 N657 N 0.76251 0.90965 0.39618
 N658 N 0.79454 0.91416 0.41950
 N659 N 0.25647 0.91187 0.60485
 N660 N 0.22466 0.91878 0.58196
 N661 N 0.24690 0.09086 0.39059
 N662 N 0.21583 0.08584 0.41446
 N663 N 0.74526 0.09373 0.60612
 N664 N 0.77735 0.09002 0.58345
 N665 N 0.91237 0.59670 0.24498
 N666 N 0.91496 0.57328 0.21273
 N667 N 0.91609 0.40848 0.74851
 N668 N 0.92452 0.42846 0.78223
 N669 N 0.09757 0.61502 0.75379
 N670 N 0.09415 0.58713 0.78246
 N671 N 0.08835 0.38515 0.24080
 N672 N 0.08453 0.41125 0.21039
   
