data_POSCAR
  _audit_creation_date              2014-09-24
  _audit_creation_method            'ToBaCCo'
  _symmetry_space_group_name_H-M    'P1'
  _symmetry_Int_Tables_number       1
  _symmetry_cell_setting            triclinic
  loop_
  _symmetry_equiv_pos_as_xyz
 x,y,z
_cell_length_a 20.8240
_cell_length_b 20.8240
_cell_length_c 54.0552
_cell_angle_alpha 89.753900
_cell_angle_beta 90.246100
_cell_angle_gamma 119.844600
loop_
  _atom_site_label
  _atom_site_type_symbol
  _atom_site_fract_x
  _atom_site_fract_y
  _atom_site_fract_z
Si1 Si 0.00223 0.00055 0.50013
 Si2 Si 1.00061 0.00216 0.16656
 Si3 Si -0.00216 0.99778 0.83334
 O4 O 0.40619 -0.05626 -0.02473
 O5 O 0.53358 -0.05565 0.02353
 O6 O 0.40412 -0.06446 0.02337
 O7 O 0.52686 -0.06521 -0.02453
 O8 O 0.58928 0.05686 -0.02494
 O9 O 0.46333 0.05761 0.02321
 O10 O 0.59279 0.06642 0.02311
 O11 O 0.46859 0.06581 -0.02491
 Cu12 Cu 0.46170 -0.07242 -0.00057
 Cu13 Cu 0.53448 0.07370 -0.00092
 C14 C 0.41595 0.00536 -0.03300
 C15 C 0.58528 0.00619 0.03152
 C16 C 0.41189 -0.00400 0.03147
 C17 C 0.57926 -0.00501 -0.03290
 O18 O -0.05620 0.40613 0.69142
 O19 O -0.05559 0.53352 0.64316
 O20 O -0.06440 0.40406 0.64332
 O21 O -0.06515 0.52680 0.69122
 O22 O 0.05692 0.58922 0.69163
 O23 O 0.05767 0.46327 0.64348
 O24 O 0.06649 0.59273 0.64358
 O25 O 0.06587 0.46853 0.69159
 Cu26 Cu -0.07236 0.46164 0.66725
 Cu27 Cu 0.07376 0.53442 0.66761
 C28 C 0.00543 0.41589 0.69969
 C29 C 0.00625 0.58522 0.63517
 C30 C -0.00394 0.41183 0.63522
 C31 C -0.00494 0.57920 0.69958
 O32 O 0.46651 0.40988 0.30928
 O33 O 0.59313 0.53610 0.35748
 O34 O 0.47272 0.40686 0.35737
 O35 O 0.59574 0.53029 0.30941
 O36 O 0.53616 0.59307 0.30920
 O37 O 0.40994 0.46645 0.35740
 O38 O 0.53035 0.59568 0.35728
 O39 O 0.40693 0.47266 0.30932
 Cu40 Cu 0.53805 0.46475 0.33340
 Cu41 Cu 0.46481 0.53799 0.33329
 C42 C 0.41474 0.42005 0.30112
 C43 C 0.58303 0.58780 0.36556
 C44 C 0.42011 0.41467 0.36557
 C45 C 0.58786 0.58297 0.30113
 C46 C 0.05583 0.31243 0.59008
 C47 C -0.01278 0.25669 0.58127
 C48 C -0.07798 0.25276 0.58971
 C49 C -0.07481 0.30380 0.60704
 C50 C -0.01463 0.06078 0.51987
 C51 C 0.05918 0.36371 0.60745
 C52 C -0.01649 0.20245 0.56403
 C53 C -0.01878 0.15687 0.54984
 C54 C -0.01876 0.10418 0.53351
 C55 C -0.00622 0.35965 0.61623
 H56 H 0.10669 0.31587 0.58368
 H57 H -0.13135 0.20985 0.58305
 H58 H -0.12625 0.29908 0.61338
 H59 H 0.11276 0.40594 0.61416
 C60 C 0.74779 0.66847 0.25595
 C61 C 0.74382 0.72981 0.24738
 C62 C 0.68772 0.74252 0.25597
 C63 C 0.63615 0.69439 0.27326
 C64 C 0.94048 0.92485 0.18629
 C65 C 0.69645 0.62039 0.27320
 C66 C 0.79836 0.78058 0.23024
 C67 C 0.84416 0.82412 0.21613
 C68 C 0.89702 0.87711 0.19989
 C69 C 0.64027 0.63299 0.28218
 H70 H 0.79098 0.65813 0.24946
 H71 H 0.68424 0.78998 0.24947
 H72 H 0.59367 0.70563 0.27981
 H73 H 0.70123 0.57364 0.27965
 C74 C 0.32928 0.07938 -0.07842
 C75 C 0.26802 0.01417 -0.08680
 C76 C 0.25575 -0.05443 -0.07801
 C77 C 0.30425 -0.05775 -0.06070
 C78 C 0.07122 0.01424 -0.14795
 C79 C 0.37772 0.07623 -0.06115
 C80 C 0.21686 0.01778 -0.10396
 C81 C 0.17295 0.01977 -0.11809
 C82 C 0.11944 0.01913 -0.13435
 C83 C 0.36557 0.00765 -0.05197
 H84 H 0.33927 0.13274 -0.08507
 H85 H 0.20836 -0.10530 -0.08436
 H86 H 0.29334 -0.11132 -0.05400
 H87 H 0.42440 0.12768 -0.05485
 C88 C 0.08146 0.74577 0.58996
 C89 C 0.01648 0.74208 0.58120
 C90 C -0.05236 0.68602 0.58969
 C91 C -0.05615 0.63418 0.60706
 C92 C 0.01918 0.93989 0.51987
 C93 C 0.07785 0.69416 0.60729
 C94 C 0.02059 0.79690 0.56398
 C95 C 0.02312 0.84294 0.54980
 C96 C 0.02326 0.89612 0.53350
 C97 C 0.00903 0.63799 0.61616
 H98 H 0.13500 0.78894 0.58355
 H99 H -0.10306 0.68276 0.58304
 H100 H -0.10989 0.59170 0.61352
 H101 H 0.12913 0.69871 0.61388
 C102 C 0.31451 0.26091 0.25603
 C103 C 0.25836 0.27372 0.24734
 C104 C 0.25447 0.33499 0.25582
 C105 C 0.30594 0.38290 0.27308
 C106 C 0.06107 0.07929 0.18625
 C107 C 0.36622 0.30888 0.27333
 C108 C 0.20368 0.22311 0.23019
 C109 C 0.15775 0.17972 0.21607
 C110 C 0.10471 0.12689 0.19983
 C111 C 0.36218 0.37021 0.28216
 H112 H 0.31794 0.21350 0.24960
 H113 H 0.21124 0.34540 0.24925
 H114 H 0.30121 0.42960 0.27946
 H115 H 0.40875 0.29757 0.27996
 C116 C 0.66445 -0.08046 -0.07781
 C117 C 0.72567 -0.01555 -0.08641
 C118 C 0.73835 0.05332 -0.07795
 C119 C 0.69033 0.05723 -0.06075
 C120 C 0.92053 -0.01893 -0.14706
 C121 C 0.61649 -0.07674 -0.06065
 C122 C 0.77638 -0.01981 -0.10344
 C123 C 0.81986 -0.02249 -0.11744
 C124 C 0.87281 -0.02283 -0.13356
 C125 C 0.62908 -0.00787 -0.05179
 H126 H 0.65414 -0.13403 -0.08421
 H127 H 0.78572 0.10396 -0.08448
 H128 H 0.70157 0.11100 -0.05429
 H129 H 0.56985 -0.12796 -0.05417
 C130 C 0.25282 -0.07804 0.07698
 C131 C 0.25675 -0.01284 0.08541
 C132 C 0.31249 0.05577 0.07661
 C133 C 0.36377 0.05912 0.05924
 C134 C 0.06084 -0.01469 0.14681
 C135 C 0.30387 -0.07487 0.05965
 C136 C 0.20251 -0.01656 0.10266
 C137 C 0.15693 -0.01885 0.11685
 C138 C 0.10424 -0.01882 0.13317
 C139 C 0.35971 -0.00628 0.05046
 H140 H 0.20991 -0.13141 0.08363
 H141 H 0.31593 0.10663 0.08301
 H142 H 0.40600 0.11270 0.05253
 H143 H 0.29914 -0.12631 0.05331
 C144 C 0.66853 0.74773 0.41074
 C145 C 0.72987 0.74376 0.41930
 C146 C 0.74258 0.68766 0.41072
 C147 C 0.69445 0.63609 0.39343
 C148 C 0.92491 0.94042 0.48039
 C149 C 0.62045 0.69639 0.39349
 C150 C 0.78064 0.79830 0.43644
 C151 C 0.82418 0.84410 0.45056
 C152 C 0.87717 0.89696 0.46680
 C153 C 0.63305 0.64020 0.38451
 H154 H 0.65819 0.79091 0.41722
 H155 H 0.79005 0.68418 0.41722
 H156 H 0.70569 0.59360 0.38688
 H157 H 0.57370 0.70117 0.38704
 C158 C 0.07944 0.32922 0.74510
 C159 C 0.01423 0.26796 0.75348
 C160 C -0.05437 0.25569 0.74469
 C161 C -0.05769 0.30419 0.72739
 C162 C 0.01430 0.07115 0.81463
 C163 C 0.07629 0.37766 0.72784
 C164 C 0.01784 0.21680 0.77065
 C165 C 0.01983 0.17289 0.78478
 C166 C 0.01919 0.11937 0.80104
 C167 C 0.00771 0.36550 0.71866
 H168 H 0.13280 0.33921 0.75175
 H169 H -0.10524 0.20830 0.75105
 H170 H -0.11126 0.29328 0.72068
 H171 H 0.12774 0.42434 0.72154
 C172 C 0.74583 0.08140 0.07673
 C173 C 0.74214 0.01641 0.08548
 C174 C 0.68608 -0.05242 0.07700
 C175 C 0.63424 -0.05621 0.05963
 C176 C 0.93995 0.01912 0.14682
 C177 C 0.69422 0.07779 0.05940
 C178 C 0.79696 0.02053 0.10271
 C179 C 0.84301 0.02305 0.11689
 C180 C 0.89618 0.02319 0.13319
 C181 C 0.63805 0.00897 0.05052
 H182 H 0.78900 0.13494 0.08314
 H183 H 0.68282 -0.10312 0.08364
 H184 H 0.59176 -0.10995 0.05316
 H185 H 0.69877 0.12907 0.05281
 C186 C 0.33505 0.25441 0.41087
 C187 C 0.27378 0.25830 0.41935
 C188 C 0.26097 0.31445 0.41066
 C189 C 0.30895 0.36616 0.39336
 C190 C 0.07936 0.06101 0.48044
 C191 C 0.38297 0.30588 0.39361
 C192 C 0.22317 0.20362 0.43650
 C193 C 0.17978 0.15769 0.45061
 C194 C 0.12695 0.10465 0.46685
 C195 C 0.37027 0.36212 0.38453
 H196 H 0.34546 0.21118 0.41744
 H197 H 0.21357 0.31788 0.41709
 H198 H 0.29763 0.40869 0.38673
 H199 H 0.42966 0.30115 0.38723
 C200 C -0.08040 0.66439 0.74450
 C201 C -0.01549 0.72561 0.75310
 C202 C 0.05339 0.73829 0.74464
 C203 C 0.05729 0.69027 0.72744
 C204 C -0.01887 0.92047 0.81374
 C205 C -0.07667 0.61643 0.72734
 C206 C -0.01975 0.77631 0.77012
 C207 C -0.02243 0.81980 0.78413
 C208 C -0.02277 0.87275 0.80025
 C209 C -0.00781 0.62902 0.71848
 H210 H -0.13397 0.65408 0.75089
 H211 H 0.10402 0.78566 0.75116
 H212 H 0.11106 0.70151 0.72098
 H213 H -0.12790 0.56979 0.72086
   
