data_POSCAR
  _audit_creation_date              2014-09-24
  _audit_creation_method            'ToBaCCo'
  _symmetry_space_group_name_H-M    'P1'
  _symmetry_Int_Tables_number       1
  _symmetry_cell_setting            triclinic
  loop_
  _symmetry_equiv_pos_as_xyz
 x,y,z
_cell_length_a 24.5513
_cell_length_b 25.9627
_cell_length_c 25.6990
_cell_angle_alpha 88.291500
_cell_angle_beta 89.431400
_cell_angle_gamma 90.900800
loop_
  _atom_site_label
  _atom_site_type_symbol
  _atom_site_fract_x
  _atom_site_fract_y
  _atom_site_fract_z
C1 C 0.17695 0.15690 0.22778
 C2 C 0.22153 0.15280 0.19363
 C3 C 0.22174 0.17696 0.14390
 C4 C 0.17847 0.20949 0.13066
 C5 C 0.13447 0.21604 0.16496
 C6 C 0.13287 0.18776 0.21245
 H7 H 0.25398 0.12719 0.20435
 H8 H 0.18009 0.23166 0.09450
 H9 H 0.09846 0.19172 0.23854
 C10 C -0.15461 0.82470 0.23211
 C11 C -0.20887 0.84182 0.23120
 C12 C -0.24393 0.82689 0.19164
 C13 C -0.22625 0.79238 0.15465
 C14 C -0.17444 0.77035 0.15736
 C15 C -0.13832 0.78774 0.19555
 H16 H -0.22289 0.87007 0.25819
 H17 H -0.25392 0.78290 0.12381
 H18 H -0.09816 0.77142 0.19742
 C19 C -0.15369 0.17190 -0.23436
 C20 C -0.17489 0.13196 -0.20103
 C21 C -0.20068 0.14357 -0.15323
 C22 C -0.19956 0.19497 -0.13691
 C23 C -0.17513 0.23388 -0.16812
 C24 C -0.15366 0.22248 -0.21665
 H25 H -0.17603 0.09288 -0.21450
 H26 H -0.21694 0.20494 -0.09968
 H27 H -0.13450 0.25360 -0.23944
 C28 C 0.13786 0.83347 -0.21287
 C29 C 0.18296 0.86639 -0.20559
 C30 C 0.22437 0.85336 -0.16992
 C31 C 0.22025 0.80514 -0.14299
 C32 C 0.17474 0.77270 -0.14922
 C33 C 0.13328 0.78768 -0.18300
 H34 H 0.18619 0.90121 -0.22934
 H35 H 0.25129 0.79275 -0.11606
 H36 H 0.09833 0.76232 -0.18742
 C37 C 0.17206 1.14609 0.78197
 C38 C 0.13847 1.18711 0.79564
 C39 C 0.15592 1.22379 0.83198
 C40 C 0.20835 1.21918 0.85356
 C41 C 0.24132 1.17749 0.84136
 C42 C 0.22212 1.14067 0.80717
 H43 H 0.09913 1.19040 0.77760
 H44 H 0.22340 1.24738 0.88031
 H45 H 0.24773 1.10830 0.79931
 C46 C 0.82147 0.84830 0.76745
 C47 C 0.77987 0.85609 0.80420
 C48 C 0.77959 0.82963 0.85248
 C49 C 0.81895 0.79230 0.86280
 C50 C 0.85977 0.78161 0.82603
 C51 C 0.86159 0.81144 0.77914
 H52 H 0.74996 0.88560 0.79722
 H53 H 0.81636 0.77087 0.89940
 H54 H 0.89337 0.80533 0.75085
 C55 C 0.14810 0.82150 1.23363
 C56 C 0.14109 0.77154 1.21515
 C57 C 0.15834 0.75903 1.16533
 C58 C 0.18526 0.79612 1.13353
 C59 C 0.19336 0.84623 1.15136
 C60 C 0.17271 0.85949 1.20041
 H61 H 0.12008 0.74199 1.23861
 H62 H 0.20071 0.78585 1.09562
 H63 H 0.17981 0.89812 1.21395
 C64 C 0.86565 1.16894 1.21918
 C65 C 0.86738 1.21368 1.18626
 C66 C 0.82359 1.22605 1.15308
 C67 C 0.77928 1.19152 1.15104
 C68 C 0.77779 1.14636 1.18179
 C69 C 0.82006 1.13546 1.21601
 H70 H 0.90138 1.24031 1.18795
 H71 H 0.74573 1.19893 1.12500
 H72 H 0.81653 1.10051 1.23974
 O73 O 0.42385 1.10303 1.08303
 O74 O 0.36914 1.06392 1.02338
 C75 C 0.37839 1.09779 1.05813
 O76 O 0.61110 1.07771 0.92993
 O77 O 0.65024 1.02050 0.98764
 C78 C 0.65296 1.05486 0.95003
 O79 O 0.46197 1.10930 0.91264
 O80 O 0.38685 1.06328 0.94240
 C81 C 0.40962 1.10096 0.91590
 O82 O 0.56865 1.07371 1.11981
 O83 O 0.63050 1.02335 1.07830
 C84 C 0.61687 1.05511 1.11387
 Zr85 Zr 0.49851 1.06354 1.07405
 O86 O 0.52004 1.14285 1.07452
 O87 O 0.47454 1.06594 1.15328
 Zr88 Zr 0.52666 1.06499 0.94483
 O89 O 0.54904 1.14401 0.94274
 O90 O 0.53508 1.06461 0.86275
 O91 O 0.46791 1.08086 1.00071
 O92 O 0.56010 1.06702 1.01832
 O93 O 0.54065 0.90476 1.12006
 O94 O 0.61654 0.93923 1.07834
 C95 C 0.59316 0.91047 1.11426
 O96 O 0.43137 0.91812 0.90419
 O97 O 0.37273 0.97537 0.94029
 C98 C 0.38422 0.93964 0.90823
 O99 O 0.58157 0.90227 0.92828
 O100 O 0.63503 0.93829 0.99085
 C101 C 0.62739 0.90793 0.95256
 O102 O 0.39209 0.91810 1.08443
 O103 O 0.35336 0.97620 1.02754
 C104 C 0.35022 0.93967 1.06287
 Zr105 Zr 0.47666 0.93415 1.07278
 O106 O 0.47127 0.85298 1.06695
 O107 O 0.45453 0.92492 1.15221
 Zr108 Zr 0.50456 0.93548 0.94383
 O109 O 0.49653 0.85408 0.94669
 O110 O 0.51621 0.93535 0.86215
 Zr111 Zr 0.42373 1.01105 0.99385
 Zr112 Zr 0.57951 0.98849 1.02381
 O113 O 0.53504 0.91902 1.01725
 O114 O 0.44162 0.93185 0.99919
 O115 O 0.53174 0.99213 1.09229
 O116 O 0.47209 1.00719 0.92607
 O117 O 0.44006 1.00558 1.07407
 O118 O 0.56425 0.99355 0.94324
 H119 H 0.58961 1.09287 1.02310
 H120 H 0.45431 1.01177 0.89184
 H121 H 0.55458 0.88617 1.02229
 H122 H 0.40987 1.00965 1.09940
 H123 H 0.56632 1.04253 0.85462
 H124 H 0.54984 0.95558 0.85401
 H125 H 0.45943 0.84524 0.95982
 H126 H 0.43695 0.84470 1.04891
 H127 H 0.45161 0.95989 1.16595
 H128 H 0.49330 1.03764 1.17207
 H129 H 0.49425 1.16159 1.05179
 H130 H 0.52543 1.16092 0.96825
 O131 O 0.11219 0.56047 -0.08218
 O132 O 0.06215 0.62128 -0.04038
 C133 C 0.10203 0.60762 -0.07009
 O134 O -0.10404 0.44248 -0.10818
 O135 O -0.06926 0.37748 -0.05670
 C136 C -0.10050 0.39446 -0.09365
 O137 O -0.06966 0.58287 -0.11348
 O138 O -0.02606 0.63248 -0.05370
 C139 C -0.05248 0.62673 -0.09665
 O140 O 0.09117 0.41744 -0.08775
 O141 O 0.02496 0.36577 -0.04864
 C142 C 0.06656 0.37328 -0.07958
 Zr143 Zr 0.06988 0.49098 -0.06056
 O144 O 0.08329 0.49089 -0.14209
 O145 O 0.15428 0.48368 -0.04634
 Zr146 Zr -0.06507 0.50829 -0.07866
 O147 O -0.05701 0.50449 -0.16048
 O148 O -0.14844 0.52604 -0.08743
 O149 O 0.01090 0.54544 -0.07844
 O150 O -0.00304 0.45587 -0.08051
 O151 O 0.06010 0.41054 0.09921
 O152 O 0.01158 0.36144 0.04220
 C153 C 0.04144 0.36685 0.08318
 O154 O -0.10900 0.57679 0.07448
 O155 O -0.04264 0.62983 0.03747
 C156 C -0.08714 0.62181 0.06462
 O157 O -0.13050 0.43383 0.06847
 O158 O -0.07795 0.37272 0.02990
 C159 C -0.11887 0.38651 0.05808
 O160 O 0.08119 0.55268 0.10296
 O161 O 0.04934 0.61773 0.04950
 C162 C 0.07770 0.60079 0.08863
 Zr163 Zr 0.04867 0.48617 0.06897
 O164 O 0.03768 0.47935 0.15069
 O165 O 0.13405 0.47926 0.07721
 Zr166 Zr -0.08571 0.50306 0.05110
 O167 O -0.09402 0.49584 0.13320
 O168 O -0.17111 0.51130 0.04564
 Zr169 Zr 0.00297 0.57390 -0.00268
 Zr170 Zr -0.01923 0.42071 -0.00700
 O171 O -0.02666 0.45008 0.06823
 O172 O -0.01349 0.54023 0.07166
 O173 O 0.06311 0.44099 0.00443
 O174 O -0.07875 0.55165 -0.01430
 O175 O 0.07523 0.53204 0.00675
 O176 O -0.09240 0.46138 -0.01639
 H177 H -0.00299 0.43480 -0.11202
 H178 H -0.10600 0.57899 -0.01957
 H179 H -0.03544 0.42687 0.09857
 H180 H 0.11027 0.55059 0.01175
 H181 H -0.16985 0.49932 -0.06757
 H182 H -0.17839 0.53386 0.01493
 H183 H -0.07804 0.52716 0.14839
 H184 H 0.01306 0.50714 0.16098
 H185 H 0.14474 0.44628 0.06205
 H186 H 0.15968 0.44991 -0.02842
 H187 H 0.06998 0.52390 -0.15697
 H188 H -0.02122 0.52008 -0.17012
 O189 O 1.06579 -0.10597 0.58696
 O190 O 1.01914 -0.04847 0.63601
 C191 C 1.04767 -0.08955 0.63085
 O192 O 1.12750 0.07483 0.43811
 O193 O 1.07607 0.03654 0.37538
 C194 C 1.11614 0.06540 0.39007
 O195 O 1.11057 0.06862 0.58325
 O196 O 1.03998 0.03647 0.63452
 C197 C 1.08714 0.05932 0.62802
 O198 O 1.08498 -0.11088 0.44324
 O199 O 1.06059 -0.05375 0.37820
 C200 C 1.08278 -0.09601 0.39480
 Zr201 Zr 1.05679 -0.07513 0.51061
 O202 O 1.14170 -0.08657 0.51756
 O203 O 1.04336 -0.15581 0.51739
 Zr204 Zr 1.08489 0.05202 0.50752
 O205 O 1.16950 0.03874 0.51306
 O206 O 1.09976 0.13234 0.51199
 O207 O 1.07371 -0.01275 0.55678
 O208 O 1.08791 -0.01424 0.46542
 O209 O 0.90856 -0.08220 0.41566
 O210 O 0.97516 -0.04158 0.36545
 C211 C 0.93470 -0.07380 0.37175
 O212 O 0.91919 0.10893 0.55621
 O213 O 0.94683 0.05344 0.62150
 C214 C 0.92167 0.09408 0.60479
 O215 O 0.94931 0.11145 0.41301
 O216 O 0.99030 0.05063 0.36329
 C217 C 0.96540 0.09385 0.36880
 O218 O 0.87734 -0.06952 0.55909
 O219 O 0.92953 -0.03281 0.62233
 C220 C 0.88795 -0.05949 0.60719
 Zr221 Zr 0.92289 -0.05041 0.49024
 O222 O 0.84285 -0.02810 0.47066
 O223 O 0.89557 -0.12797 0.49575
 Zr224 Zr 0.95138 0.07617 0.48824
 O225 O 0.86787 0.08448 0.47033
 O226 O 0.95947 0.15727 0.48825
 Zr227 Zr 0.99195 0.00205 0.57646
 Zr228 Zr 1.01663 -0.00082 0.42250
 O229 O 0.93512 0.01375 0.44207
 O230 O 0.91957 0.01563 0.53444
 O231 O 0.99524 -0.07381 0.45569
 O232 O 1.01331 0.07443 0.54249
 O233 O 0.98054 -0.07143 0.54488
 O234 O 1.02766 0.07339 0.45225
 H235 H 1.12247 -0.02008 0.44634
 H236 H 1.01697 0.10429 0.56540
 H237 H 0.90932 0.01837 0.41294
 H238 H 0.97012 -0.10155 0.56760
 H239 H 1.08845 0.14868 0.47860
 H240 H 0.99823 0.16518 0.49483
 H241 H 0.84665 0.07718 0.50272
 H242 H 0.82637 -0.01314 0.50197
 H243 H 0.92854 -0.14927 0.49528
 H244 H 1.01793 -0.16545 0.48957
 H245 H 1.15224 -0.07698 0.55309
 H246 H 1.17415 0.01011 0.53879
 N247 N 1.20460 0.08899 0.34783
 N248 N 1.22149 0.11350 0.30127
 C249 C 1.17653 0.12996 0.27612
 C250 C 1.13065 0.11557 0.30544
 C251 C 1.14998 0.08995 0.34927
 H252 H 1.08836 0.12137 0.29570
 H253 H 1.23020 0.07175 0.37523
 H254 H 1.26221 0.11982 0.29051
 N255 N 0.96212 -0.12419 0.29621
 N256 N 0.93788 -0.15459 0.25893
 C257 C 0.88342 -0.15363 0.26653
 C258 C 0.87234 -0.12370 0.30994
 C259 C 0.92263 -0.10613 0.32699
 H260 H 0.83310 -0.11494 0.32670
 H261 H 1.00391 -0.11711 0.29905
 H262 H 0.95930 -0.17073 0.22833
 N263 N 0.88830 0.17823 0.63178
 N264 N 0.86933 0.20043 0.67687
 C265 C 0.86551 0.16316 0.71473
 C266 C 0.88237 0.11665 0.69436
 C267 C 0.89667 0.12808 0.64265
 H268 H 0.88557 0.07979 0.71474
 H269 H 0.89615 0.19823 0.59657
 H270 H 0.85681 0.23862 0.67817
 N271 N 1.04549 -0.17236 0.68014
 N272 N 1.06905 -0.19284 0.72157
 C273 C 1.09808 -0.15579 0.74523
 C274 C 1.09158 -0.10932 0.71776
 C275 C 1.05821 -0.12184 0.67690
 H276 H 1.11170 -0.07262 0.72372
 H277 H 1.02311 -0.19329 0.65333
 H278 H 1.06812 -0.23227 0.73076
 N279 N 0.30349 1.15441 1.03134
 N280 N 0.25930 1.17701 1.05555
 C281 C 0.26325 1.16721 1.10737
 C282 C 0.31103 1.14021 1.11693
 C283 C 0.33412 1.13267 1.06872
 H284 H 0.32584 1.12453 1.15348
 H285 H 0.30891 1.15193 0.99115
 H286 H 0.22672 1.19284 1.03520
 N287 N 0.31800 0.96026 0.83996
 N288 N 0.27260 0.93659 0.81840
 C289 C 0.26837 0.88794 0.83886
 C290 C 0.31192 0.87983 0.87275
 C291 C 0.34133 0.92571 0.87218
 H292 H 0.31993 0.84650 0.89758
 H293 H 0.32933 0.99899 0.83408
 H294 H 0.24610 0.95605 0.79352
 N295 N 0.61709 0.86731 1.19957
 N296 N 0.66117 0.84718 1.22088
 C297 C 0.70206 0.85003 1.18549
 C298 C 0.68358 0.87319 1.14016
 C299 C 0.62962 0.88351 1.15052
 H300 H 0.70626 0.88099 1.10442
 H301 H 0.57949 0.87019 1.21854
 H302 H 0.66270 0.83070 1.25839
 N303 N 0.73823 1.02965 0.90603
 N304 N 0.77777 1.05425 0.87426
 C305 C 0.77013 1.10554 0.87638
 C306 C 0.72554 1.11435 0.90882
 C307 C 0.70648 1.06618 0.92589
 H308 H 0.70612 1.15077 0.91532
 H309 H 0.73145 0.98983 0.90884
 H310 H 0.80742 1.03516 0.85315
 N311 N 0.03919 0.31929 0.16780
 N312 N 0.06336 0.27919 0.18963
 C313 C 0.09284 0.25552 0.15299
 C314 C 0.08560 0.28143 0.10531
 C315 C 0.05181 0.32164 0.11671
 H316 H 0.10581 0.27523 0.06849
 H317 H 0.01693 0.34621 0.18826
 H318 H 0.06263 0.27099 0.22965
 N319 N -0.16486 0.37021 -0.16307
 N320 N -0.18641 0.32774 -0.18157
 C321 C -0.17116 0.28730 -0.15139
 C322 C -0.13806 0.30463 -0.11195
 C323 C -0.13470 0.35747 -0.12121
 H324 H -0.11575 0.28176 -0.08363
 H325 H -0.16861 0.40676 -0.18070
 H326 H -0.20846 0.32630 -0.21610
 N327 N 0.19175 0.64302 -0.10169
 N328 N 0.21150 0.68748 -0.12063
 C329 C 0.17088 0.72178 -0.12251
 C330 C 0.12344 0.69839 -0.10335
 C331 C 0.13846 0.64858 -0.09078
 H332 H 0.08308 0.71451 -0.10136
 H333 H 0.21429 0.60944 -0.09703
 H334 H 0.25134 0.69330 -0.13442
 N335 N -0.17437 0.66567 0.06830
 N336 N -0.19784 0.70331 0.09281
 C337 C -0.16020 0.72850 0.12094
 C338 C -0.10973 0.70509 0.11325
 C339 C -0.12107 0.66531 0.07952
 H340 H -0.07140 0.71344 0.13186
 H341 H -0.19531 0.63906 0.04587
 H342 H -0.23976 0.70900 0.09192
 N343 N 1.17270 0.05874 0.67581
 N344 N 1.19553 0.08170 0.71518
 C345 C 1.15805 0.11049 0.73930
 C346 C 1.10847 0.10496 0.71346
 C347 C 1.12011 0.07178 0.67336
 H348 H 1.07079 0.12482 0.72045
 H349 H 1.19369 0.03618 0.64953
 H350 H 1.23709 0.07945 0.72273
 N351 N 0.79889 -0.07325 0.65252
 N352 N 0.78072 -0.09795 0.69861
 C353 C 0.82354 -0.12234 0.72037
 C354 C 0.86948 -0.11291 0.68923
 C355 C 0.85239 -0.08211 0.64787
 H356 H 0.91071 -0.12520 0.69636
 H357 H 0.77522 -0.05039 0.62780
 H358 H 0.74034 -0.09837 0.71165
 N359 N 1.10974 -0.18209 0.36808
 N360 N 1.12617 -0.20551 0.32279
 C361 C 1.13227 -0.16845 0.28503
 C362 C 1.11985 -0.12081 0.30553
 C363 C 1.10512 -0.13145 0.35716
 H364 H 1.11885 -0.08374 0.28518
 H365 H 1.10004 -0.20162 0.40315
 H366 H 1.13452 -0.24470 0.32087
 N367 N 0.97847 0.16887 0.30747
 N368 N 0.95014 0.19013 0.26538
 C369 C 0.90717 0.15855 0.25579
 C370 C 0.90864 0.11636 0.29076
 C371 C 0.95315 0.12446 0.32191
 H372 H 0.87985 0.08466 0.29573
 H373 H 1.01165 0.18618 0.32555
 H374 H 0.96044 0.22557 0.24748
 N375 N 0.05184 0.31976 -0.15599
 N376 N 0.07499 0.28131 -0.17983
 C377 C 0.11975 0.26687 -0.15320
 C378 C 0.12515 0.29841 -0.11027
 C379 C 0.08100 0.33103 -0.11365
 H380 H 0.15598 0.29732 -0.08038
 H381 H 0.01693 0.33850 -0.16915
 H382 H 0.06019 0.26627 -0.21427
 N383 N -0.20647 0.34119 0.07891
 N384 N -0.22215 0.29491 0.10412
 C385 C -0.17679 0.27246 0.12321
 C386 C -0.13178 0.30326 0.10965
 C387 C -0.15208 0.34516 0.08204
 H388 H -0.08933 0.29618 0.11781
 H389 H -0.23266 0.36693 0.06024
 H390 H -0.26259 0.28270 0.10928
 N391 N -0.04456 0.67852 -0.17883
 N392 N -0.06913 0.72203 -0.20066
 C393 C -0.10326 0.74102 -0.16451
 C394 C -0.09939 0.71066 -0.11877
 C395 C -0.06282 0.67241 -0.12959
 H396 H -0.12211 0.71347 -0.08275
 H397 H -0.01907 0.65380 -0.19873
 H398 H -0.06401 0.73382 -0.23957
 N399 N 0.13975 0.62326 0.16008
 N400 N 0.16297 0.66471 0.17897
 C401 C 0.14949 0.70592 0.14909
 C402 C 0.11565 0.69021 0.10947
 C403 C 0.11022 0.63738 0.11828
 H404 H 0.09523 0.71406 0.08067
 H405 H 0.14301 0.58621 0.17664
 H406 H 0.18581 0.66492 0.21306
 N407 N 0.38009 1.18827 0.88444
 N408 N 0.33414 1.20908 0.86803
 C409 C 0.29644 1.17123 0.86312
 C410 C 0.31933 1.12463 0.87715
 C411 C 0.37222 1.13694 0.89030
 H412 H 0.29981 1.08692 0.87875
 H413 H 0.41541 1.20912 0.89313
 H414 H 0.32907 1.24835 0.85989
 N415 N 0.25127 0.95365 1.07832
 N416 N 0.21005 0.92958 1.10260
 C417 C 0.22707 0.88344 1.12055
 C418 C 0.28164 0.87801 1.10790
 C419 C 0.29547 0.92355 1.08126
 H420 H 0.30786 0.84620 1.11803
 H421 H 0.24938 0.99070 1.06148
 H422 H 0.17117 0.94472 1.10704
 N423 N 0.65295 1.07629 1.20073
 N424 N 0.69676 1.09948 1.21900
 C425 C 0.73070 1.11131 1.17878
 C426 C 0.70833 1.09417 1.13322
 C427 C 0.65915 1.07237 1.14891
 H428 H 0.72355 1.10052 1.09382
 H429 H 0.61884 1.06503 1.22313
 H430 H 0.70162 1.10980 1.25768
 N431 N 0.71233 0.86162 0.97114
 N432 N 0.75229 0.84059 0.94500
 C433 C 0.74062 0.84321 0.89384
 C434 C 0.69041 0.86642 0.88729
 C435 C 0.67420 0.87754 0.93734
 H436 H 0.67024 0.87672 0.85129
 H437 H 0.71209 0.86626 1.01135
 H438 H 0.78813 0.82745 0.96204
   
