data_POSCAR
  _audit_creation_date              2014-09-24
  _audit_creation_method            'ToBaCCo'
  _symmetry_space_group_name_H-M    'P1'
  _symmetry_Int_Tables_number       1
  _symmetry_cell_setting            triclinic
  loop_
  _symmetry_equiv_pos_as_xyz
 x,y,z
_cell_length_a 22.2300
_cell_length_b 23.7083
_cell_length_c 39.5880
_cell_angle_alpha 89.701500
_cell_angle_beta 90.495200
_cell_angle_gamma 117.694500
loop_
  _atom_site_label
  _atom_site_type_symbol
  _atom_site_fract_x
  _atom_site_fract_y
  _atom_site_fract_z
Zn1 Zn 0.93597 0.02431 1.01145
 Zn2 Zn 1.08111 0.05150 1.01828
 Zn3 Zn 0.97237 -0.08283 1.01080
 Zn4 Zn 1.00922 0.00595 0.95251
 O5 O 0.99952 -0.00020 0.99830
 O6 O 0.97050 0.09187 1.03934
 O7 O 1.11177 0.00861 1.04473
 O8 O 0.89532 -0.11537 1.03409
 O9 O 1.07776 0.11155 1.04413
 O10 O 0.86617 -0.03780 1.03390
 O11 O 1.03279 -0.09132 1.03766
 O12 O 0.98406 -0.06903 0.93254
 O13 O 1.14703 0.09354 0.98841
 O14 O 0.95540 -0.13596 0.97567
 O15 O 1.09463 0.05806 0.93937
 O16 O 0.95600 0.03449 0.93314
 O17 O 0.90026 0.04714 0.97618
 C18 C 1.03002 0.12462 1.05113
 C19 C 1.08827 -0.05046 1.05076
 C20 C 0.85507 -0.09365 1.04224
 C21 C 0.96077 -0.12510 0.94413
 C22 C 1.14777 0.09257 0.95642
 C23 C 0.91248 0.04951 0.94476
 Zn24 Zn 0.05764 0.96069 0.50882
 Zn25 Zn -0.07580 0.95795 0.52142
 Zn26 Zn 0.04953 1.08340 0.51263
 Zn27 Zn -0.01113 0.99481 0.45393
 O28 O 0.00513 0.99944 0.49928
 O29 O 0.01878 0.89679 0.53831
 O30 O -0.09033 1.00970 0.54863
 O31 O 0.13020 1.10362 0.53272
 O32 O -0.08082 0.89363 0.54743
 O33 O 0.13721 1.01379 0.52746
 O34 O 0.00026 1.10358 0.54201
 O35 O 0.02081 1.07138 0.43461
 O36 O -0.14835 0.92517 0.49357
 O37 O 0.06821 1.13755 0.47752
 O38 O -0.09910 0.95417 0.44373
 O39 O 0.02452 0.95210 0.43167
 O40 O 0.07566 0.92630 0.47253
 C41 C -0.03842 0.87262 0.55276
 C42 C -0.05743 1.06866 0.55513
 C43 C 0.16198 1.07124 0.53704
 C44 C 0.05328 1.12734 0.44632
 C45 C -0.15195 0.92671 0.46163
 C46 C 0.05860 0.92470 0.44175
 O47 O 0.40672 0.74250 0.21241
 O48 O 0.28970 0.73368 0.22949
 C49 C 0.23930 0.69343 0.21239
 O50 O 0.21456 0.63379 0.21634
 O51 O 0.22556 0.52878 0.22136
 C52 C 0.26878 0.52504 0.20191
 O53 O 0.33208 0.55927 0.20543
 O54 O 0.44076 0.66749 0.21490
 C55 C 0.44250 0.71754 0.20194
 O56 O 0.43959 0.73862 0.27786
 O57 O 0.32105 0.72404 0.29497
 C58 C 0.25884 0.69218 0.30190
 O59 O 0.21753 0.64535 0.28414
 O60 O 0.23665 0.54405 0.28874
 C61 C 0.27543 0.51836 0.29144
 O62 O 0.32637 0.53227 0.27239
 O63 O 0.43261 0.64190 0.28163
 C64 C 0.45845 0.69973 0.29019
 Cr65 Cr 0.36266 0.73126 0.25355
 Cr66 Cr 0.22728 0.58998 0.25256
 Cr67 Cr 0.38066 0.60163 0.24378
 O68 O 0.32376 0.64096 0.24995
 O69 O 0.77644 0.44032 0.79420
 O70 O 0.78850 0.34218 0.77481
 C71 C 0.74737 0.28906 0.78790
 O72 O 0.68534 0.25793 0.77917
 O73 O 0.56609 0.25286 0.76958
 C74 C 0.55080 0.28364 0.79100
 O75 O 0.58050 0.34395 0.79245
 O76 O 0.68646 0.45765 0.78972
 C77 C 0.74089 0.46556 0.80437
 O78 O 0.77859 0.47836 0.72920
 O79 O 0.78848 0.37800 0.70954
 C80 C 0.76358 0.32089 0.69969
 O81 O 0.71111 0.27630 0.71291
 O82 O 0.59499 0.27930 0.70397
 C83 C 0.55834 0.30745 0.70295
 O84 O 0.56176 0.34763 0.72505
 O85 O 0.67016 0.45768 0.72253
 C86 C 0.73283 0.48994 0.71616
 Cr87 Cr 0.77924 0.40789 0.75182
 Cr88 Cr 0.64105 0.27005 0.74169
 Cr89 Cr 0.62688 0.40010 0.75722
 O90 O 0.68263 0.35959 0.75015
 C91 C 0.04379 0.17905 0.07330
 C92 C 0.11001 0.22265 0.08235
 C93 C 0.12640 0.27762 0.10446
 N94 N 0.19233 0.32087 0.10936
 N95 N 0.20886 0.37034 0.12983
 C96 C 0.16010 0.37847 0.14628
 N97 N 0.09401 0.33521 0.14138
 N98 N 0.07741 0.28573 0.12076
 C99 C 0.17857 0.43158 0.17017
 C100 C 0.24604 0.47743 0.17471
 H101 H 0.15213 0.21686 0.07250
 H102 H 0.13905 0.43296 0.18542
 H103 H 0.00144 0.18576 0.08192
 H104 H 0.28498 0.47605 0.15898
 C105 C 0.79501 0.86488 0.06213
 C106 C 0.74744 0.88347 0.07297
 C107 C 0.69085 0.84249 0.09512
 N108 N 0.64563 0.86217 0.10543
 N109 N 0.59559 0.82641 0.12638
 C110 C 0.58891 0.76963 0.13781
 N111 N 0.63392 0.74983 0.12736
 N112 N 0.68390 0.78554 0.10640
 C113 C 0.53591 0.73106 0.16223
 C114 C 0.48963 0.75033 0.17421
 H115 H 0.75267 0.92968 0.06580
 H116 H 0.53531 0.68807 0.17205
 H117 H 0.78912 0.81837 0.06916
 H118 H 0.49023 0.79317 0.16414
 C119 C 0.12607 0.92864 0.07394
 C120 C 0.10228 0.86472 0.08246
 C121 C 0.13694 0.84342 0.10732
 N122 N 0.11097 0.78050 0.11458
 N123 N 0.14090 0.76028 0.13745
 C124 C 0.19792 0.80228 0.15397
 N125 N 0.22397 0.86524 0.14669
 N126 N 0.19404 0.88547 0.12379
 C127 C 0.23116 0.78053 0.17945
 C128 C 0.20660 0.71619 0.18721
 H129 H 0.05582 0.82891 0.07102
 H130 H 0.27602 0.81594 0.19225
 H131 H 0.17268 0.96458 0.08519
 H132 H 0.16214 0.68089 0.17410
 C133 C 0.94520 0.81922 0.57617
 C134 C 0.88240 0.78750 0.59194
 C135 C 0.86643 0.73413 0.61537
 N136 N 0.80289 0.70175 0.62807
 N137 N 0.78747 0.65319 0.64923
 C138 C 0.83505 0.63525 0.65857
 N139 N 0.89873 0.66782 0.64599
 N140 N 0.91413 0.71633 0.62474
 C141 C 0.81832 0.58150 0.68189
 C142 C 0.75204 0.54390 0.69285
 H143 H 0.84338 0.80162 0.58671
 H144 H 0.85857 0.57096 0.69021
 H145 H 0.98376 0.80429 0.58091
 H146 H 0.71190 0.55397 0.68376
 C147 C 0.22872 0.09926 0.55393
 C148 C 0.25742 0.15895 0.56923
 C149 C 0.32018 0.18221 0.58960
 N150 N 0.34209 0.23692 0.60752
 N151 N 0.39677 0.25674 0.62742
 C152 C 0.43173 0.22269 0.63010
 N153 N 0.41031 0.16839 0.61185
 N154 N 0.35554 0.14849 0.59200
 C155 C 0.48984 0.24208 0.65351
 C156 C 0.50740 0.29248 0.67594
 H157 H 0.23139 0.18782 0.56786
 H158 H 0.51640 0.21366 0.65458
 H159 H 0.25438 0.07012 0.55591
 H160 H 0.47958 0.31978 0.67520
 C161 C 0.91066 0.09511 0.57822
 C162 C 0.93310 0.16006 0.58326
 C163 C 0.89344 0.18227 0.60412
 N164 N 0.91524 0.24545 0.60930
 N165 N 0.87901 0.26522 0.62804
 C166 C 0.81947 0.22246 0.64212
 N167 N 0.79773 0.15951 0.63682
 N168 N 0.83388 0.13983 0.61819
 C169 C 0.77925 0.24210 0.66396
 C170 C 0.79911 0.30520 0.67289
 H171 H 0.97891 0.19479 0.57107
 H172 H 0.73376 0.20447 0.67499
 H173 H 0.86436 0.06109 0.59036
 H174 H 0.84455 0.34321 0.66208
 C175 C 0.21205 0.13295 0.93918
 C176 C 0.22247 0.12384 0.90545
 C177 C 0.28749 0.16292 0.88849
 N178 N 0.30156 0.14234 0.85917
 N179 N 0.36015 0.17696 0.84344
 C180 C 0.40675 0.23374 0.85629
 N181 N 0.39241 0.25473 0.88545
 N182 N 0.33398 0.21978 0.90137
 C183 C 0.47082 0.27274 0.83841
 C184 C 0.49348 0.24616 0.81341
 H185 H 0.18291 0.08496 0.89145
 H186 H 0.49981 0.32278 0.84463
 H187 H 0.25321 0.16898 0.95385
 H188 H 0.46589 0.19532 0.80888
 C189 C 0.93606 0.82202 0.91988
 C190 C 0.90695 0.75829 0.92967
 C191 C 0.86849 0.70700 0.90538
 N192 N 0.85634 0.64636 0.91185
 N193 N 0.82058 0.59973 0.89007
 C194 C 0.79474 0.61194 0.86133
 N195 N 0.80604 0.67236 0.85516
 N196 N 0.84239 0.71904 0.87672
 C197 C 0.75691 0.56172 0.83646
 C198 C 0.76610 0.50773 0.83385
 H199 H 0.91059 0.74584 0.95570
 H200 H 0.72762 0.57105 0.81726
 H201 H 0.93568 0.83361 0.89338
 H202 H 0.80083 0.50159 0.85102
 C203 C 0.87503 0.06868 0.92061
 C204 C 0.85107 0.11159 0.92871
 C205 C 0.81949 0.13363 0.90262
 N206 N 0.82909 0.19444 0.90298
 N207 N 0.80388 0.21576 0.87826
 C208 C 0.76747 0.17675 0.85255
 N209 N 0.75657 0.11553 0.85260
 N210 N 0.78262 0.09449 0.87705
 C211 C 0.74059 0.20014 0.82488
 C212 C 0.77387 0.26362 0.81478
 H213 H 0.86183 0.13394 0.95336
 H214 H 0.69632 0.16632 0.81104
 H215 H 0.87119 0.05256 0.89473
 H216 H 0.82177 0.29571 0.82662
 C217 C 0.78137 0.89621 0.44481
 C218 C 0.77582 0.87651 0.41135
 C219 C 0.71153 0.84893 0.39249
 N220 N 0.70443 0.81221 0.36513
 N221 N 0.64760 0.78862 0.34675
 C222 C 0.59611 0.80164 0.35479
 N223 N 0.60340 0.83898 0.38199
 N224 N 0.66004 0.86197 0.40066
 C225 C 0.53445 0.77717 0.33375
 C226 C 0.51509 0.72258 0.31437
 H227 H 0.82024 0.87963 0.39863
 H228 H 0.50371 0.80168 0.33375
 H229 H 0.73637 0.88754 0.45894
 H230 H 0.54228 0.69492 0.31724
 C231 C 0.07218 0.18087 0.42279
 C232 C 0.12810 0.24010 0.42809
 C233 C 0.14593 0.29180 0.40334
 N234 N 0.21129 0.33762 0.40008
 N235 N 0.22775 0.38369 0.37710
 C236 C 0.17923 0.38593 0.35686
 N237 N 0.11379 0.34073 0.36052
 N238 N 0.09749 0.29428 0.38316
 C239 C 0.19601 0.43645 0.33154
 C240 C 0.26056 0.46942 0.31758
 H241 H 0.16151 0.24729 0.44952
 H242 H 0.15519 0.44519 0.32209
 H243 H 0.04340 0.17209 0.39945
 H244 H 0.29993 0.45677 0.32469
 C245 C 0.07644 0.88892 0.41704
 C246 C 0.11482 0.85829 0.42572
 C247 C 0.12784 0.81846 0.40150
 N248 N 0.17683 0.80103 0.40819
 N249 N 0.18987 0.76578 0.38625
 C250 C 0.15382 0.74597 0.35697
 N251 N 0.10402 0.76248 0.35054
 N252 N 0.09134 0.79817 0.37237
 C253 C 0.17066 0.71052 0.33157
 C254 C 0.23442 0.71294 0.33122
 H255 H 0.13671 0.86424 0.45082
 H256 H 0.13591 0.68893 0.31060
 H257 H 0.05714 0.88516 0.39148
 H258 H 0.27129 0.73974 0.35060
   
