data_POSCAR
  _audit_creation_date              2014-09-24
  _audit_creation_method            'ToBaCCo'
  _symmetry_space_group_name_H-M    'P1'
  _symmetry_Int_Tables_number       1
  _symmetry_cell_setting            triclinic
  loop_
  _symmetry_equiv_pos_as_xyz
 x,y,z
_cell_length_a 29.8977
_cell_length_b 29.4267
_cell_length_c 28.5007
_cell_angle_alpha 87.761900
_cell_angle_beta 89.607600
_cell_angle_gamma 89.679600
loop_
  _atom_site_label
  _atom_site_type_symbol
  _atom_site_fract_x
  _atom_site_fract_y
  _atom_site_fract_z
C1 C 0.20243 0.22847 0.24260
 C2 C 0.20771 0.26710 0.21279
 C3 C 0.23323 0.26498 0.17203
 C4 C 0.25501 0.22385 0.16141
 C5 C 0.24873 0.18577 0.19073
 C6 C 0.22249 0.18810 0.23127
 C7 C 0.17380 0.21896 0.27978
 N8 N 0.17634 0.17371 0.29148
 C9 C 0.20593 0.15472 0.26143
 C10 C 0.26884 0.14958 0.17028
 N11 N 0.28823 0.16421 0.12928
 C12 C 0.28069 0.20989 0.12383
 C13 C 0.22381 0.30424 0.14545
 N14 N 0.19373 0.32977 0.16929
 C15 C 0.18439 0.30735 0.21066
 H16 H 0.14975 0.24246 0.29406
 H17 H 0.21346 0.11873 0.26019
 H18 H 0.27020 0.11505 0.18488
 H19 H 0.29177 0.23101 0.09407
 H20 H 0.23393 0.31104 0.10931
 H21 H 0.15860 0.31725 0.23517
 C22 C -0.19289 0.79348 0.26558
 C23 C -0.18888 0.75974 0.23251
 C24 C -0.22285 0.75362 0.20054
 C25 C -0.26167 0.78074 0.20205
 C26 C -0.26538 0.81367 0.23497
 C27 C -0.23066 0.82042 0.26635
 C28 C -0.16293 0.81123 0.29619
 N29 N -0.18159 0.84857 0.31559
 C30 C -0.22295 0.85447 0.29657
 C31 C -0.30366 0.83808 0.22577
 N32 N -0.32422 0.82080 0.18803
 C33 C -0.29815 0.78590 0.17299
 C34 C -0.20736 0.72277 0.16910
 N35 N -0.16535 0.70956 0.18184
 C36 C -0.15363 0.73242 0.22022
 H37 H -0.12947 0.79836 0.30266
 H38 H -0.24435 0.88390 0.30039
 H39 H -0.31340 0.86889 0.24282
 H40 H -0.30447 0.76624 0.14244
 H41 H -0.22453 0.71215 0.13809
 H42 H -0.12117 0.73054 0.23683
 C43 C -0.15544 0.19288 -0.20590
 C44 C -0.15249 0.22643 -0.17299
 C45 C -0.18765 0.23442 -0.14228
 C46 C -0.22722 0.20881 -0.14545
 C47 C -0.23029 0.17723 -0.17997
 C48 C -0.19432 0.16883 -0.20973
 C49 C -0.12438 0.17420 -0.23526
 N50 N -0.14365 0.13866 -0.25630
 C51 C -0.18696 0.13608 -0.24185
 C52 C -0.26990 0.15529 -0.17439
 N53 N -0.29230 0.17217 -0.13725
 C54 C -0.26590 0.20447 -0.11847
 C55 C -0.17328 0.26766 -0.11292
 N56 N -0.13065 0.27903 -0.12548
 C57 C -0.11817 0.25436 -0.16245
 H58 H -0.09021 0.18540 -0.24060
 H59 H -0.21052 0.11035 -0.25169
 H60 H -0.27987 0.12615 -0.19384
 H61 H -0.27376 0.22280 -0.08724
 H62 H -0.19211 0.28231 -0.08462
 H63 H -0.08617 0.25672 -0.18042
 C64 C 0.20127 0.77819 -0.28697
 C65 C 0.19526 0.75208 -0.24522
 C66 C 0.22320 0.75814 -0.20747
 C67 C 0.25758 0.79031 -0.21125
 C68 C 0.26305 0.81646 -0.25222
 C69 C 0.23445 0.81057 -0.29029
 C70 C 0.17401 0.78518 -0.32508
 N71 N 0.18861 0.82200 -0.35138
 C72 C 0.22593 0.83746 -0.32990
 C73 C 0.29499 0.84857 -0.24382
 N74 N 0.30836 0.84345 -0.19833
 C75 C 0.28610 0.80712 -0.17864
 C76 C 0.20533 0.73394 -0.16948
 N77 N 0.16701 0.71414 -0.18329
 C78 C 0.16069 0.72465 -0.22952
 H79 H 0.14397 0.76602 -0.33117
 H80 H 0.24231 0.86949 -0.33830
 H81 H 0.30770 0.87355 -0.26935
 H82 H 0.28814 0.79560 -0.14216
 H83 H 0.21760 0.73314 -0.13381
 H84 H 0.13172 0.71512 -0.24942
 C85 C 0.19326 1.17572 0.76603
 C86 C 0.23130 1.17674 0.79445
 C87 C 0.23696 1.21208 0.82402
 C88 C 0.20488 1.24629 0.82620
 C89 C 0.16682 1.24562 0.79884
 C90 C 0.16094 1.20966 0.76773
 C91 C 0.17808 1.14326 0.73711
 N92 N 0.13662 1.15513 0.72126
 C93 C 0.12635 1.19656 0.73882
 C94 C 0.14017 1.28125 0.81349
 N95 N 0.16094 1.30175 0.84970
 C96 C 0.20109 1.28106 0.85624
 C97 C 0.27267 1.20170 0.85243
 N98 N 0.28932 1.16084 0.84062
 C99 C 0.26408 1.14496 0.80540
 H100 H 0.19647 1.11299 0.72809
 H101 H 0.09506 1.21460 0.73328
 H102 H 0.10703 1.28975 0.80071
 H103 H 0.22626 1.29065 0.88108
 H104 H 0.28373 1.22079 0.88190
 H105 H 0.26759 1.11158 0.79103
 C106 C 0.76325 0.79861 0.73004
 C107 C 0.73143 0.80269 0.76624
 C108 C 0.73321 0.77366 0.80570
 C109 C 0.76609 0.73939 0.80898
 C110 C 0.79602 0.73453 0.77252
 C111 C 0.79525 0.76472 0.73334
 C112 C 0.77436 0.82616 0.69148
 N113 N 0.81258 0.80998 0.67140
 C114 C 0.82542 0.77236 0.69730
 C115 C 0.82556 0.70089 0.78586
 N116 N 0.81537 0.68490 0.83023
 C117 C 0.77898 0.70910 0.84469
 C118 C 0.70055 0.78761 0.83634
 N119 N 0.67818 0.82354 0.81606
 C120 C 0.69746 0.83348 0.77356
 H121 H 0.75825 0.85820 0.68183
 H122 H 0.85557 0.75273 0.69156
 H123 H 0.85291 0.68939 0.76422
 H124 H 0.76520 0.70827 0.87990
 H125 H 0.69425 0.77341 0.87137
 H126 H 0.68788 0.86156 0.75001
 C127 C 0.22009 0.80669 1.27333
 C128 C 0.25698 0.80607 1.24267
 C129 C 0.25608 0.77949 1.20382
 C130 C 0.21982 0.75052 1.19708
 C131 C 0.18345 0.75073 1.22762
 C132 C 0.18287 0.78044 1.26524
 C133 C 0.20796 0.83796 1.30551
 N134 N 0.16343 0.83420 1.31509
 C135 C 0.14835 0.79729 1.29242
 C136 C 0.15240 0.72114 1.21053
 N137 N 0.16957 0.70269 1.17124
 C138 C 0.21022 0.72120 1.16211
 C139 C 0.28974 0.79464 1.17393
 N140 N 0.31065 0.83017 1.19341
 C141 C 0.29206 0.83583 1.23645
 H142 H 0.22978 0.86387 1.31839
 H143 H 0.11366 0.78716 1.29071
 H144 H 0.11993 0.71320 1.22568
 H145 H 0.23147 0.71328 1.13259
 H146 H 0.29554 0.78369 1.13856
 H147 H 0.30097 0.86219 1.26008
 C148 C 0.78435 1.19096 1.23693
 C149 C 0.75206 1.18738 1.20139
 C150 C 0.74810 1.22164 1.16684
 C151 C 0.77535 1.26019 1.16771
 C152 C 0.80595 1.26417 1.20341
 C153 C 0.81088 1.22919 1.23776
 C154 C 0.80006 1.16108 1.27173
 N155 N 0.83632 1.17970 1.29261
 C156 C 0.84204 1.22203 1.27257
 C157 C 0.83173 1.30152 1.19228
 N158 N 0.81792 1.32026 1.15052
 C159 C 0.78337 1.29518 1.13514
 C160 C 0.71722 1.20782 1.13493
 N161 N 0.70091 1.16674 1.14983
 C162 C 0.72271 1.15350 1.18991
 H163 H 0.78771 1.12701 1.27910
 H164 H 0.86679 1.24643 1.28272
 H165 H 0.86122 1.31179 1.21092
 H166 H 0.76823 1.29940 1.10083
 H167 H 0.70772 1.22604 1.10275
 H168 H 0.71789 1.12135 1.20901
 O169 O 0.54533 0.97452 0.90251
 O170 O 0.46829 0.95938 1.09459
 O171 O 0.55485 0.92866 1.04019
 O172 O 0.40288 0.94582 0.95393
 O173 O 0.54937 0.97380 1.09493
 O174 O 0.46194 0.96217 0.90637
 O175 O 0.41575 0.94691 1.04362
 O176 O 0.55352 0.92864 0.95977
 C177 C 0.55721 0.93628 0.91729
 C178 C 0.43194 0.94130 1.08384
 C179 C 0.55943 0.93508 1.08212
 C180 C 0.42326 0.94399 0.91318
 O181 O 0.45521 1.05170 0.92376
 O182 O 0.53599 1.05807 1.06240
 O183 O 0.59098 1.01556 0.95430
 O184 O 0.40743 1.01676 1.01846
 O185 O 0.45183 1.04583 1.07196
 O186 O 0.53569 1.05822 0.93084
 O187 O 0.40773 1.02180 0.97314
 O188 O 0.59109 1.01612 1.03796
 Co189 Co 0.49970 1.00992 0.92395
 Co190 Co 0.50151 1.00854 1.07354
 Co191 Co 0.56776 0.97384 0.99807
 Co192 Co 0.44227 0.97119 0.98989
 O193 O 0.50257 0.99561 0.99936
 C194 C 0.41690 1.05108 0.94051
 C195 C 0.57700 1.05284 1.05505
 C196 C 0.57663 1.05286 0.93698
 C197 C 0.41396 1.04323 1.05310
 O198 O 0.03559 0.46463 0.09048
 O199 O 0.05365 0.55744 -0.08146
 O200 O 0.07888 0.44473 -0.00973
 O201 O 0.05549 0.58921 0.02632
 O202 O 0.06091 0.47345 -0.08021
 O203 O 0.04439 0.54884 0.08850
 O204 O 0.01793 0.61052 -0.04648
 O205 O 0.07690 0.45083 0.02965
 C206 C 0.07378 0.45361 0.07427
 C207 C 0.04758 0.59878 -0.07498
 C208 C 0.08722 0.44945 -0.05467
 C209 C 0.06685 0.57846 0.06692
 O210 O -0.04468 0.55978 0.07195
 O211 O -0.02775 0.46482 -0.08182
 O212 O -0.04003 0.43094 0.01985
 O213 O -0.05803 0.57865 -0.01811
 O214 O -0.03524 0.55231 -0.08557
 O215 O -0.05211 0.47659 0.07553
 O216 O -0.02023 0.62512 0.03997
 O217 O 0.01173 0.41574 -0.04095
 Co218 Co -0.00258 0.51278 0.07434
 Co219 Co 0.01223 0.51204 -0.07545
 Co220 Co 0.01863 0.44359 0.01441
 Co221 Co -0.00102 0.57887 0.00649
 O222 O 0.00860 0.51142 -0.00055
 C223 C -0.04452 0.60332 0.07206
 C224 C -0.01853 0.42406 -0.07051
 C225 C -0.06327 0.44274 0.05328
 C226 C -0.06336 0.57457 -0.06173
 O227 O 1.05083 0.07004 0.45019
 O228 O 0.92070 0.05240 0.55879
 O229 O 0.97235 0.07291 0.43098
 O230 O 1.03714 0.01258 0.59117
 O231 O 0.91016 0.06328 0.46895
 O232 O 1.05242 0.06637 0.53946
 O233 O 0.95798 0.00278 0.60273
 O234 O 1.02983 0.03903 0.38425
 C235 C 1.05587 0.06793 0.40545
 C236 C 0.93420 0.03855 0.59840
 C237 C 0.93245 0.08392 0.43767
 C238 C 1.05172 0.05212 0.58147
 O239 O 1.08808 -0.01663 0.53695
 O240 O 0.90189 -0.02326 0.46302
 O241 O 1.02161 -0.04147 0.42306
 O242 O 0.96126 -0.07593 0.55476
 O243 O 0.90365 -0.03310 0.55079
 O244 O 1.08060 -0.01583 0.45201
 O245 O 1.03808 -0.06598 0.53901
 O246 O 0.94772 -0.00506 0.40427
 Co247 Co 1.06080 0.02419 0.49530
 Co248 Co 0.91702 0.01433 0.50974
 Co249 Co 0.99797 0.01541 0.43289
 Co250 Co 0.99866 -0.02901 0.56676
 O251 O 0.98965 0.00464 0.50287
 C252 C 1.07804 -0.05743 0.54255
 C253 C 0.91278 -0.02417 0.42028
 C254 C 1.06264 -0.04415 0.42696
 C255 C 0.92009 -0.07169 0.55840
 C256 C 1.09843 0.08536 0.33322
 C257 C 1.12959 0.10937 0.30616
 C258 C 1.14799 0.15000 0.32120
 C259 C 1.13501 0.16576 0.36592
 C260 C 1.10256 0.14133 0.39366
 C261 C 1.08511 0.09973 0.37746
 C262 C 1.08891 0.16000 0.43633
 N263 N 1.10886 0.19785 0.45163
 N264 N 1.14156 0.21851 0.42737
 C265 C 1.15553 0.20359 0.38536
 H266 H 1.08551 0.05423 0.31959
 H267 H 1.13809 0.09669 0.27205
 H268 H 1.06214 0.14603 0.45762
 H269 H 1.18327 0.22094 0.36831
 C270 C 0.90899 -0.08181 0.36050
 C271 C 0.88641 -0.11534 0.33740
 C272 C 0.83990 -0.12124 0.34299
 C273 C 0.81646 -0.09271 0.37436
 C274 C 0.83908 -0.05627 0.39472
 C275 C 0.88603 -0.05238 0.38958
 C276 C 0.81382 -0.02501 0.42013
 N277 N 0.76999 -0.03295 0.42934
 N278 N 0.74995 -0.07016 0.41502
 C279 C 0.77185 -0.10067 0.38865
 H280 H 0.94500 -0.07961 0.35645
 H281 H 0.90569 -0.13574 0.31376
 H282 H 0.82850 0.00568 0.43254
 H283 H 0.75436 -0.13125 0.38019
 C284 C 0.87180 0.07692 0.63654
 C285 C 0.85195 0.10058 0.67217
 C286 C 0.87599 0.11105 0.71223
 C287 C 0.91985 0.09286 0.71844
 C288 C 0.94002 0.06775 0.68218
 C289 C 0.91606 0.06122 0.64001
 C290 C 0.98321 0.04999 0.68996
 N291 N 1.00407 0.05578 0.73132
 N292 N 0.98452 0.07774 0.76587
 C293 C 0.94303 0.09593 0.76110
 H294 H 0.85217 0.07114 0.60552
 H295 H 0.81819 0.11328 0.66701
 H296 H 1.00050 0.03077 0.66440
 H297 H 0.92822 0.11112 0.79139
 C298 C 1.09074 -0.12843 0.58894
 C299 C 1.11737 -0.15844 0.61500
 C300 C 1.16429 -0.15472 0.61449
 C301 C 1.18397 -0.12363 0.58066
 C302 C 1.15644 -0.09195 0.55482
 C303 C 1.10939 -0.09288 0.56135
 C304 C 1.17695 -0.06198 0.52171
 N305 N 1.22169 -0.06433 0.51414
 N306 N 1.24719 -0.09499 0.53693
 C307 C 1.22984 -0.12501 0.56934
 H308 H 1.05484 -0.13154 0.59306
 H309 H 1.10013 -0.18194 0.63876
 H310 H 1.15790 -0.03796 0.50033
 H311 H 1.25185 -0.15078 0.58446
 C312 C 0.38902 1.12082 1.07287
 C313 C 0.35747 1.15175 1.08920
 C314 C 0.31421 1.13744 1.10180
 C315 C 0.30102 1.09262 1.09140
 C316 C 0.33277 1.06131 1.07398
 C317 C 0.37784 1.07517 1.06660
 C318 C 0.31818 1.01681 1.06597
 N319 N 0.27469 1.00548 1.07286
 N320 N 0.24462 1.03550 1.08716
 C321 C 0.25623 1.07864 1.09641
 H322 H 0.42288 1.13242 1.06616
 H323 H 0.36818 1.18592 1.09615
 H324 H 0.34057 0.99055 1.05490
 H325 H 0.23014 1.10189 1.10669
 C326 C 0.39729 0.87198 0.88350
 C327 C 0.36693 0.84763 0.85785
 C328 C 0.33860 0.86938 0.82457
 C329 C 0.34182 0.91766 0.81736
 C330 C 0.37465 0.94189 0.84205
 C331 C 0.40123 0.91892 0.87636
 C332 C 0.37785 0.98922 0.83399
 N333 N 0.34831 1.01134 0.80535
 N334 N 0.31539 0.98938 0.78494
 C335 C 0.31066 0.94367 0.79055
 H336 H 0.41676 0.85422 0.91050
 H337 H 0.36557 0.81115 0.86425
 H338 H 0.40329 1.00885 0.85059
 H339 H 0.28132 0.92900 0.77570
 C340 C 0.61244 0.87090 1.08980
 C341 C 0.64054 0.84170 1.11527
 C342 C 0.64064 0.84105 1.16451
 C343 C 0.60632 0.86558 1.18786
 C344 C 0.57780 0.89586 1.16172
 C345 C 0.58287 0.90039 1.11227
 C346 C 0.54398 0.91892 1.18594
 N347 N 0.53867 0.91155 1.23288
 N348 N 0.56446 0.88224 1.25715
 C349 C 0.59763 0.85866 1.23623
 H350 H 0.61593 0.87216 1.05192
 H351 H 0.66516 0.82284 1.09586
 H352 H 0.52058 0.94136 1.16809
 H353 H 0.61575 0.83357 1.25737
 C354 C 0.63468 1.11203 0.94743
 C355 C 0.66512 1.14443 0.92961
 C356 C 0.66937 1.15306 0.88090
 C357 C 0.63810 1.13291 0.85087
 C358 C 0.61055 1.09733 0.86832
 C359 C 0.60808 1.08732 0.91723
 C360 C 0.58778 1.07176 0.83558
 N361 N 0.58714 1.08547 0.78961
 N362 N 0.60871 1.12261 0.77413
 C363 C 0.63407 1.14692 0.80325
 H364 H 0.63317 1.10503 0.98484
 H365 H 0.68791 1.15968 0.95373
 H366 H 0.57220 1.04019 0.84587
 H367 H 0.65130 1.17668 0.78903
 C368 C 0.08996 0.39111 0.13095
 C369 C 0.11898 0.36001 0.15264
 C370 C 0.16551 0.36523 0.14901
 C371 C 0.18278 0.40440 0.12484
 C372 C 0.15301 0.43608 0.10233
 C373 C 0.10632 0.42834 0.10422
 C374 C 0.17109 0.47468 0.07886
 N375 N 0.21600 0.48099 0.07813
 N376 N 0.24386 0.45143 0.09941
 C377 C 0.22879 0.41343 0.12280
 H378 H 0.05436 0.38447 0.13283
 H379 H 0.10490 0.33040 0.17088
 H380 H 0.14988 0.49986 0.06132
 H381 H 0.25284 0.39104 0.14011
 C382 C -0.09098 0.39374 -0.09583
 C383 C -0.11937 0.35800 -0.10559
 C384 C -0.10311 0.31341 -0.10636
 C385 C -0.05758 0.30446 -0.09608
 C386 C -0.02803 0.34089 -0.08899
 C387 C -0.04530 0.38598 -0.08744
 C388 C 0.01794 0.33063 -0.08460
 N389 N 0.03222 0.28679 -0.08340
 N390 N 0.00381 0.25245 -0.08669
 C391 C -0.04058 0.25977 -0.09284
 H392 H -0.10501 0.42768 -0.09425
 H393 H -0.15404 0.36525 -0.11388
 H394 H 0.04291 0.35671 -0.08315
 H395 H -0.06221 0.23059 -0.09483
 C396 C 0.12102 0.61831 -0.10960
 C397 C 0.15042 0.64594 -0.13555
 C398 C 0.13678 0.68850 -0.15339
 C399 C 0.09323 0.70457 -0.14317
 C400 C 0.06289 0.67653 -0.11664
 C401 C 0.07694 0.63242 -0.10019
 C402 C 0.01947 0.69368 -0.10887
 N403 N 0.00809 0.73600 -0.12536
 N404 N 0.03695 0.76245 -0.14922
 C405 C 0.07912 0.74821 -0.15862
 H406 H 0.13288 0.58517 -0.09708
 H407 H 0.18382 0.63358 -0.14294
 H408 H -0.00581 0.67437 -0.09012
 H409 H 0.10128 0.77128 -0.17778
 C410 C -0.06492 0.67132 0.11549
 C411 C -0.09362 0.69701 0.14267
 C412 C -0.13599 0.68079 0.15583
 C413 C -0.14943 0.63740 0.14185
 C414 C -0.12112 0.61189 0.11237
 C415 C -0.07772 0.62867 0.10009
 C416 C -0.13818 0.57112 0.09553
 N417 N -0.17866 0.55557 0.11040
 N418 N -0.20364 0.57807 0.14062
 C419 C -0.19037 0.61838 0.15693
 H420 H -0.03222 0.68493 0.10650
 H421 H -0.08292 0.73019 0.15314
 H422 H -0.12071 0.55173 0.06999
 H423 H -0.21181 0.63486 0.18182
 C424 C 1.06781 0.12551 0.61985
 C425 C 1.08644 0.15085 0.65553
 C426 C 1.11121 0.12956 0.69212
 C427 C 1.11289 0.08116 0.69466
 C428 C 1.09734 0.05577 0.65676
 C429 C 1.07333 0.07807 0.61929
 C430 C 1.10688 0.00865 0.65808
 N431 N 1.12433 -0.01196 0.69721
 N432 N 1.13346 0.01125 0.73503
 C433 C 1.12789 0.05692 0.73526
 H434 H 1.04931 0.14321 0.59210
 H435 H 1.08359 0.18755 0.65293
 H436 H 1.10148 -0.01226 0.62857
 H437 H 1.13468 0.07378 0.76745
 C438 C 0.91122 -0.13873 0.61314
 C439 C 0.88484 -0.16775 0.64136
 C440 C 0.83789 -0.16782 0.63732
 C441 C 0.81842 -0.14248 0.59907
 C442 C 0.84544 -0.11302 0.57012
 C443 C 0.89195 -0.10911 0.57921
 C444 C 0.82508 -0.08967 0.53188
 N445 N 0.78107 -0.09559 0.52309
 N446 N 0.75604 -0.12384 0.54950
 C447 C 0.77327 -0.14783 0.58673
 H448 H 0.94672 -0.13727 0.62026
 H449 H 0.90127 -0.18715 0.66936
 H450 H 0.84392 -0.06819 0.50774
 H451 H 0.75182 -0.17208 0.60510
 C452 C 1.07678 -0.12026 0.39396
 C453 C 1.10056 -0.14994 0.36558
 C454 C 1.13773 -0.13498 0.33869
 C455 C 1.14801 -0.08763 0.33782
 C456 C 1.12686 -0.05857 0.37003
 C457 C 1.09016 -0.07496 0.39796
 C458 C 1.14185 -0.01318 0.37082
 N459 N 1.17198 0.00282 0.33866
 N460 N 1.18773 -0.02306 0.30510
 C461 C 1.17599 -0.06725 0.30294
 H462 H 1.04834 -0.13313 0.41403
 H463 H 1.09071 -0.18530 0.36605
 H464 H 1.12981 0.01048 0.39569
 H465 H 1.18754 -0.08537 0.27292
 C466 C 0.86275 0.11170 0.39995
 C467 C 0.83961 0.13208 0.36246
 C468 C 0.86138 0.15956 0.32812
 C469 C 0.90862 0.16596 0.33256
 C470 C 0.93166 0.14702 0.37252
 C471 C 0.90908 0.11733 0.40511
 C472 C 0.97700 0.15789 0.37793
 N473 N 0.99915 0.18137 0.34330
 N474 N 0.97898 0.19460 0.30358
 C475 C 0.93483 0.18717 0.29676
 H476 H 0.84415 0.08947 0.42403
 H477 H 0.80389 0.12663 0.36077
 H478 H 0.99485 0.14858 0.40963
 H479 H 0.92140 0.19654 0.26272
 C480 C 0.11091 0.41282 -0.12754
 C481 C 0.12382 0.37371 -0.15008
 C482 C 0.14565 0.33790 -0.12574
 C483 C 0.15437 0.34237 -0.07684
 C484 C 0.14343 0.38353 -0.05478
 C485 C 0.11809 0.41762 -0.07913
 C486 C 0.15752 0.38868 -0.00852
 N487 N 0.17594 0.35314 0.01620
 N488 N 0.18117 0.31274 -0.00255
 C489 C 0.17049 0.30597 -0.04790
 H490 H 0.09235 0.43825 -0.14796
 H491 H 0.11727 0.37182 -0.18727
 H492 H 0.15500 0.42101 0.00755
 H493 H 0.17369 0.27190 -0.06028
 C494 C -0.08198 0.37005 0.09104
 C495 C -0.11025 0.34044 0.11560
 C496 C -0.15545 0.35120 0.12200
 C497 C -0.17286 0.39199 0.10099
 C498 C -0.14383 0.42212 0.07535
 C499 C -0.09784 0.41152 0.07191
 C500 C -0.16203 0.46135 0.05345
 N501 N -0.20633 0.47051 0.05813
 N502 N -0.23332 0.44312 0.08349
 C503 C -0.21806 0.40429 0.10530
 H504 H -0.04683 0.36118 0.08854
 H505 H -0.09657 0.30902 0.13063
 H506 H -0.14147 0.48426 0.03217
 H507 H -0.24136 0.38347 0.12562
 C508 C -0.08346 0.62545 -0.12760
 C509 C -0.11243 0.65243 -0.15414
 C510 C -0.15843 0.65499 -0.14341
 C511 C -0.17488 0.62689 -0.10487
 C512 C -0.14418 0.60131 -0.07592
 C513 C -0.09816 0.60082 -0.08769
 C514 C -0.16097 0.57485 -0.03778
 N515 N -0.20567 0.57221 -0.03026
 N516 N -0.23459 0.59360 -0.05885
 C517 C -0.22084 0.62006 -0.09618
 H518 H -0.04848 0.62496 -0.13782
 H519 H -0.09752 0.67303 -0.18222
 H520 H -0.13910 0.55532 -0.01465
 H521 H -0.24617 0.63350 -0.11969
 C522 C 0.11149 0.64868 0.07260
 C523 C 0.13463 0.67994 0.09864
 C524 C 0.14882 0.66852 0.14418
 C525 C 0.14306 0.62358 0.16237
 C526 C 0.12003 0.59127 0.13579
 C527 C 0.10186 0.60475 0.09118
 C528 C 0.11663 0.54658 0.15500
 N529 N 0.13423 0.53564 0.19771
 N530 N 0.15522 0.56620 0.22266
 C531 C 0.16033 0.60975 0.20641
 H532 H 0.09868 0.66011 0.03865
 H533 H 0.13990 0.71402 0.08401
 H534 H 0.10154 0.51974 0.13625
 H535 H 0.17840 0.63294 0.22776
 C536 C 0.34021 1.06779 0.91504
 C537 C 0.31007 1.09301 0.88753
 C538 C 0.32202 1.13542 0.86745
 C539 C 0.36467 1.15356 0.87671
 C540 C 0.39501 1.12838 0.90562
 C541 C 0.38327 1.08420 0.92298
 C542 C 0.43618 1.14847 0.91619
 N543 N 0.44686 1.18987 0.89688
 N544 N 0.41918 1.21252 0.86787
 C545 C 0.37856 1.19574 0.85699
 H546 H 0.33069 1.03403 0.92785
 H547 H 0.27721 1.07922 0.88139
 H548 H 0.45960 1.13216 0.94025
 H549 H 0.35779 1.21538 0.83277
 C550 C 0.40684 0.86652 1.11614
 C551 C 0.37633 0.83977 1.14198
 C552 C 0.34285 0.85959 1.16948
 C553 C 0.34127 0.90793 1.17160
 C554 C 0.37530 0.93448 1.14920
 C555 C 0.40653 0.91383 1.11913
 C556 C 0.37578 0.98152 1.15596
 N557 N 0.34199 1.00126 1.17981
 N558 N 0.30766 0.97709 1.19687
 C559 C 0.30577 0.93136 1.19297
 H560 H 0.43025 0.85027 1.09286
 H561 H 0.37797 0.80319 1.13941
 H562 H 0.40252 1.00274 1.14221
 H563 H 0.27581 0.91447 1.20529
 C564 C 0.65011 1.06794 1.09168
 C565 C 0.67935 1.09480 1.11631
 C566 C 0.66889 1.14011 1.12513
 C567 C 0.62796 1.15880 1.10796
 C568 C 0.59903 1.13204 1.08094
 C569 C 0.60934 1.08546 1.07446
 C570 C 0.56091 1.15321 1.06101
 N571 N 0.55077 1.19683 1.07069
 N572 N 0.57619 1.22077 1.09873
 C573 C 0.61422 1.20322 1.11786
 H574 H 0.65900 1.03261 1.08728
 H575 H 0.71053 1.08005 1.12882
 H576 H 0.53945 1.13606 1.03714
 H577 H 0.63287 1.22407 1.14107
 C578 C 0.61841 0.92500 0.86067
 C579 C 0.64827 0.89776 0.83660
 C580 C 0.64395 0.85033 0.83810
 C581 C 0.60688 0.83034 0.86241
 C582 C 0.57702 0.85808 0.88793
 C583 C 0.58354 0.90571 0.88769
 C584 C 0.54076 0.83724 0.91175
 N585 N 0.53464 0.79176 0.90955
 N586 N 0.56209 0.76587 0.88493
 C587 C 0.59776 0.78360 0.86108
 H588 H 0.62391 0.96140 0.85996
 H589 H 0.67605 0.91376 0.81798
 H590 H 0.51671 0.85671 0.93127
 H591 H 0.61789 0.76108 0.84050
   
