data_POSCAR
  _audit_creation_date              2014-09-24
  _audit_creation_method            'ToBaCCo'
  _symmetry_space_group_name_H-M    'P1'
  _symmetry_Int_Tables_number       1
  _symmetry_cell_setting            triclinic
  loop_
  _symmetry_equiv_pos_as_xyz
 x,y,z
_cell_length_a 11.7165
_cell_length_b 10.5201
_cell_length_c 17.3189
_cell_angle_alpha 81.406300
_cell_angle_beta 84.084600
_cell_angle_gamma 43.887200
loop_
  _atom_site_label
  _atom_site_type_symbol
  _atom_site_fract_x
  _atom_site_fract_y
  _atom_site_fract_z
O1 O 0.23715 0.39117 1.04657
 O2 O 0.04038 0.35611 0.91019
 O3 O 0.13378 0.51991 0.90149
 O4 O 0.13586 0.23483 1.05521
 O5 O -0.11119 0.48611 1.09264
 O6 O -0.11107 0.77002 0.94105
 O7 O -0.20624 0.60905 0.94701
 O8 O -0.01028 0.64027 1.08468
 Cu9 Cu 0.16165 0.35023 0.97445
 Cu10 Cu -0.13420 0.65145 1.02020
 C11 C 0.14546 0.52262 1.08921
 C12 C -0.11552 0.47600 0.90525
 C13 C 0.01017 0.69410 0.89504
 C14 C 0.01252 0.31236 1.10004
 O15 O 0.49568 0.07127 0.61885
 O16 O 0.57632 -0.23511 0.49069
 O17 O 0.74445 -0.16517 0.52185
 O18 O 0.34564 0.00235 0.57655
 O19 O 0.22331 0.24573 0.48931
 O20 O 0.62953 0.03024 0.41453
 O21 O 0.43972 -0.00125 0.39758
 O22 O 0.44032 0.26006 0.51617
 Cu23 Cu 0.55735 -0.10496 0.56168
 Cu24 Cu 0.41788 0.16082 0.44589
 C25 C 0.46614 0.21022 0.58902
 C26 C 0.50893 -0.16312 0.42364
 C27 C 0.75564 -0.10033 0.45693
 C28 C 0.21667 0.15260 0.54147
 C29 C 0.20082 -0.22305 0.28973
 C30 C -0.20252 0.24062 0.70886
 N31 N 0.39437 -0.50031 0.20871
 N32 N 0.37856 -0.56583 0.15579
 C33 C 0.21718 -0.45768 0.14498
 C34 C 0.12718 -0.31888 0.19279
 C35 C 0.24285 -0.34992 0.23319
 H36 H -0.00533 -0.20567 0.19477
 H37 H 0.50728 -0.55619 0.22559
 H38 H 0.47667 -0.68029 0.12676
 N39 N -0.04504 0.12987 0.27240
 N40 N -0.09284 0.26865 0.22211
 C41 C 0.01405 0.20020 0.16241
 C42 C 0.13355 0.00989 0.17440
 C43 C 0.09207 -0.03059 0.24492
 H44 H 0.24160 -0.08617 0.13942
 H45 H -0.10127 0.14726 0.32630
 H46 H -0.19238 0.40760 0.23076
 N47 N -0.07553 0.13956 0.57469
 N48 N 0.03009 0.12431 0.52874
 C49 C 0.06189 0.20773 0.55776
 C50 C -0.02968 0.28178 0.62470
 C51 C -0.11688 0.23617 0.63423
 H52 H -0.01550 0.33747 0.66582
 H53 H -0.10082 0.06382 0.57047
 H54 H 0.09415 0.03894 0.48380
 N55 N -0.45772 0.31333 0.74689
 N56 N -0.54623 0.29289 0.71365
 C57 C -0.52105 0.29496 0.63632
 C58 C -0.41852 0.31842 0.61873
 C59 C -0.36707 0.30993 0.69055
 H60 H -0.36826 0.31031 0.56168
 H61 H -0.45620 0.31742 0.80643
 H62 H -0.60363 0.25890 0.74524
 N63 N 0.05846 -0.11052 0.72595
 N64 N 0.11654 -0.26072 0.77888
 C65 C 0.00433 -0.19638 0.83558
 C66 C -0.12344 -0.00659 0.82192
 C67 C -0.08996 0.04383 0.75110
 H68 H -0.22639 0.08136 0.86018
 H69 H 0.12365 -0.12217 0.67675
 H70 H 0.22473 -0.39789 0.77276
 N71 N -0.37677 0.52821 0.78102
 N72 N -0.35294 0.58777 0.83293
 C73 C -0.19124 0.45968 0.85043
 C74 C -0.10873 0.31220 0.80831
 C75 C -0.23032 0.36033 0.76451
 H76 H 0.02189 0.18664 0.80926
 H77 H -0.49160 0.60312 0.75719
 H78 H -0.44608 0.71468 0.85532
 N79 N 0.15904 -0.28824 0.43407
 N80 N 0.04375 -0.26068 0.47677
 C81 C -0.08516 -0.17358 0.43028
 C82 C -0.05032 -0.14641 0.35496
 C83 C 0.10661 -0.22122 0.35882
 H84 H -0.13262 -0.07265 0.30519
 H85 H 0.26903 -0.34841 0.45777
 H86 H 0.05149 -0.29493 0.53715
 N87 N 0.48067 -0.44566 0.35888
 N88 N 0.56317 -0.42965 0.39546
 C89 C 0.49213 -0.25606 0.37838
 C90 C 0.36131 -0.15934 0.32874
 C91 C 0.35328 -0.28120 0.31903
 H92 H 0.26907 -0.01167 0.31263
 H93 H 0.50162 -0.56156 0.36764
 H94 H 0.65712 -0.53104 0.43625
   
