data_POSCAR
  _audit_creation_date              2014-09-24
  _audit_creation_method            'ToBaCCo'
  _symmetry_space_group_name_H-M    'P1'
  _symmetry_Int_Tables_number       1
  _symmetry_cell_setting            triclinic
  loop_
  _symmetry_equiv_pos_as_xyz
 x,y,z
_cell_length_a 12.7397
_cell_length_b 12.7397
_cell_length_c 33.2272
_cell_angle_alpha 89.498700
_cell_angle_beta 90.501200
_cell_angle_gamma 119.663600
loop_
  _atom_site_label
  _atom_site_type_symbol
  _atom_site_fract_x
  _atom_site_fract_y
  _atom_site_fract_z
Si1 Si 0.00514 0.00195 0.50002
 Si2 Si 1.00195 0.00514 0.16664
 Si3 Si -0.00615 0.99385 0.83333
 O4 O 0.34771 -0.08543 -0.03878
 O5 O 0.55988 -0.08303 0.03761
 O6 O 0.34112 -0.11250 0.03923
 O7 O 0.53722 -0.11555 -0.04018
 O8 O 0.64124 0.08390 -0.03969
 O9 O 0.43489 0.08688 0.03664
 O10 O 0.65384 0.11645 0.03802
 O11 O 0.45149 0.11391 -0.04153
 Cu12 Cu 0.43704 -0.11826 -0.00045
 Cu13 Cu 0.55480 0.11944 -0.00177
 C14 C 0.36368 0.01460 -0.05311
 C15 C 0.64338 0.01793 0.05084
 C16 C 0.35248 -0.01319 0.05097
 C17 C 0.62415 -0.01716 -0.05286
 O18 O 0.08688 0.43489 0.63002
 O19 O 0.08390 0.64124 0.70636
 O20 O 0.11391 0.45149 0.70820
 O21 O 0.11645 0.65384 0.62864
 O22 O -0.08303 0.55988 0.62906
 O23 O -0.08543 0.34771 0.70544
 O24 O -0.11555 0.53722 0.70685
 O25 O -0.11250 0.34111 0.62744
 Cu26 Cu 0.11944 0.55480 0.66844
 Cu27 Cu -0.11826 0.43704 0.66712
 C28 C -0.01319 0.35248 0.61570
 C29 C -0.01716 0.62415 0.71953
 C30 C 0.01460 0.36368 0.71978
 C31 C 0.01793 0.64338 0.61583
 O32 O 0.65104 0.56469 0.37158
 O33 O 0.44186 0.35695 0.29522
 O34 O 0.65982 0.54577 0.29373
 O35 O 0.46210 0.34653 0.37322
 O36 O 0.35695 0.44186 0.37145
 O37 O 0.56469 0.65104 0.29509
 O38 O 0.34653 0.46210 0.29345
 O39 O 0.54577 0.65982 0.37294
 Cu40 Cu 0.56331 0.44381 0.33347
 Cu41 Cu 0.44381 0.56331 0.33319
 C42 C 0.63379 0.64820 0.38520
 C43 C 0.35809 0.37449 0.28135
 C44 C 0.64820 0.63379 0.28147
 C45 C 0.37448 0.35809 0.38531
 N46 N 0.09314 0.18870 0.55339
 C47 C -0.00892 0.10687 0.53429
 N48 N -0.11391 0.10631 0.54136
 N49 N -0.11576 0.18538 0.56713
 C50 C -0.01278 0.26770 0.58619
 N51 N 0.09152 0.26779 0.57877
 N52 N 0.81481 0.90613 0.21986
 C53 C 0.89710 0.88601 0.20104
 N54 N 0.89703 0.78091 0.20807
 N55 N 0.81700 0.69927 0.23353
 C56 C 0.73414 0.71978 0.25228
 N57 N 0.73471 0.82468 0.24492
 N58 N 0.21266 0.11328 -0.12781
 C59 C 0.10781 0.00852 -0.13389
 N60 N 0.08912 -0.09246 -0.11394
 N61 N 0.17168 -0.09012 -0.08875
 C62 C 0.27636 0.01384 -0.08236
 N63 N 0.29546 0.11589 -0.10219
 N64 N 0.12249 0.89459 0.54229
 C65 C 0.01796 0.89490 0.53442
 N66 N -0.08490 0.81212 0.55276
 N67 N -0.08454 0.73124 0.57813
 C68 C 0.01924 0.73040 0.58634
 N69 N 0.12307 0.81371 0.56807
 N70 N 0.19181 0.10441 0.21940
 C71 C 0.10831 0.12428 0.20066
 N72 N 0.10746 0.22855 0.20782
 N73 N 0.18786 0.30962 0.23334
 C74 C 0.27188 0.28931 0.25203
 N75 N 0.27222 0.18528 0.24451
 N76 N 0.77012 -0.12261 -0.12547
 C77 C 0.87445 -0.01850 -0.13285
 N78 N 0.89426 0.08444 -0.11456
 N79 N 0.81331 0.08455 -0.08970
 C80 C 0.70923 -0.01880 -0.08198
 N81 N 0.68897 -0.12272 -0.10019
 N82 N 0.10631 -0.11391 0.12530
 C83 C 0.10687 -0.00892 0.13238
 N84 N 0.18870 0.09315 0.11328
 N85 N 0.26779 0.09152 0.08790
 C86 C 0.26770 -0.01278 0.08047
 N87 N 0.18538 -0.11576 0.09954
 N88 N 0.90613 0.81481 0.44681
 C89 C 0.88601 0.89710 0.46562
 N90 N 0.78091 0.89703 0.45860
 N91 N 0.69927 0.81700 0.43313
 C92 C 0.71978 0.73414 0.41439
 N93 N 0.82468 0.73471 0.42175
 N94 N 0.11328 0.21266 0.79448
 C95 C 0.00852 0.10781 0.80056
 N96 N -0.09246 0.08912 0.78060
 N97 N -0.09012 0.17168 0.75542
 C98 C 0.01384 0.27636 0.74903
 N99 N 0.11589 0.29546 0.76886
 N100 N 0.81212 -0.08490 0.11391
 C101 C 0.89490 0.01796 0.13225
 N102 N 0.89459 0.12249 0.12438
 N103 N 0.81371 0.12307 0.09860
 C104 C 0.73040 0.01924 0.08033
 N105 N 0.73124 -0.08454 0.08853
 N106 N 0.10441 0.19181 0.44727
 C107 C 0.12428 0.10831 0.46601
 N108 N 0.22855 0.10746 0.45884
 N109 N 0.30962 0.18786 0.43333
 C110 C 0.28931 0.27188 0.41464
 N111 N 0.18528 0.27222 0.42215
 N112 N -0.12261 0.77012 0.79214
 C113 C -0.01850 0.87445 0.79951
 N114 N 0.08444 0.89426 0.78123
 N115 N 0.08455 0.81331 0.75637
 C116 C -0.01880 0.70923 0.74865
 N117 N -0.12272 0.68896 0.76686
   
