data_POSCAR
  _audit_creation_date              2014-09-24
  _audit_creation_method            'ToBaCCo'
  _symmetry_space_group_name_H-M    'P1'
  _symmetry_Int_Tables_number       1
  _symmetry_cell_setting            triclinic
  loop_
  _symmetry_equiv_pos_as_xyz
 x,y,z
_cell_length_a 34.6164
_cell_length_b 36.8069
_cell_length_c 35.1938
_cell_angle_alpha 86.121600
_cell_angle_beta 94.909600
_cell_angle_gamma 94.090800
loop_
  _atom_site_label
  _atom_site_type_symbol
  _atom_site_fract_x
  _atom_site_fract_y
  _atom_site_fract_z
C1 C 0.21664 0.28337 0.28310
 C2 C 0.24293 0.30665 0.25673
 C3 C 0.26403 0.28650 0.23597
 C4 C 0.25707 0.24501 0.24335
 C5 C 0.19160 0.25786 0.25684
 C6 C 0.21286 0.23784 0.23609
 C7 C 0.24387 0.25852 0.30772
 C8 C 0.26496 0.23850 0.28682
 H9 H 0.24461 0.33630 0.25455
 H10 H 0.27433 0.22867 0.22639
 H11 H 0.16003 0.25565 0.25500
 H12 H 0.24598 0.25666 0.33877
 C13 C 0.71707 0.78341 0.28338
 C14 C 0.74340 0.80661 0.25699
 C15 C 0.76444 0.78639 0.23625
 C16 C 0.75738 0.74492 0.24365
 C17 C 0.69195 0.75793 0.25713
 C18 C 0.71316 0.73783 0.23639
 C19 C 0.74423 0.75851 0.30801
 C20 C 0.76526 0.73841 0.28713
 H21 H 0.74511 0.83626 0.25475
 H22 H 0.77459 0.72853 0.22670
 H23 H 0.66039 0.75578 0.25531
 H24 H 0.74628 0.75661 0.33906
 C25 C 0.71799 0.28501 0.78216
 C26 C 0.74294 0.30716 0.75729
 C27 C 0.76508 0.28607 0.73555
 C28 C 0.75840 0.24677 0.74246
 C29 C 0.69281 0.25939 0.75596
 C30 C 0.71413 0.23935 0.73519
 C31 C 0.74498 0.25992 0.80694
 C32 C 0.76612 0.23988 0.78601
 H33 H 0.74459 0.33683 0.75512
 H34 H 0.77566 0.23037 0.72553
 H35 H 0.66125 0.25706 0.75427
 H36 H 0.74684 0.25786 0.83798
 C37 C 0.21666 0.78348 0.78272
 C38 C 0.24297 0.80670 0.75632
 C39 C 0.26405 0.78651 0.73560
 C40 C 0.25704 0.74503 0.74301
 C41 C 0.19159 0.75795 0.75648
 C42 C 0.21283 0.73788 0.73576
 C43 C 0.24386 0.75863 0.80737
 C44 C 0.26493 0.73856 0.78649
 H45 H 0.24472 0.83636 0.75415
 H46 H 0.27428 0.72866 0.72607
 H47 H 0.16002 0.75572 0.75471
 H48 H 0.24595 0.75678 0.83841
 C49 C 0.06034 0.05145 0.01165
 H50 H 0.06059 0.05439 -0.01912
 C51 C 0.08364 0.07543 0.03437
 H52 H 0.10205 0.09684 0.02112
 C53 C 0.03515 0.02076 0.06659
 H54 H 0.01560 0.00003 0.07905
 C55 C 0.05797 0.04414 0.09032
 H56 H 0.05619 0.04106 0.12097
 N57 N 0.03689 0.02464 0.02801
 C58 C 0.01396 -0.05712 -0.05693
 H59 H -0.01747 -0.05936 -0.05906
 C60 C 0.03419 -0.07884 -0.07838
 H61 H 0.01834 -0.09780 -0.09723
 C62 C 0.07314 -0.03005 -0.02941
 H63 H 0.08823 -0.01143 -0.00989
 C64 C 0.09449 -0.05127 -0.05033
 H65 H 0.12595 -0.04865 -0.04714
 Zn66 Zn 0.00405 -0.00506 -0.00483
 N67 N 0.03359 -0.03303 -0.03338
 C68 C -0.02688 0.02687 -0.07627
 N69 N -0.02637 0.02670 -0.03752
 C70 C -0.04681 0.05036 -0.02046
 C71 C -0.06973 0.07485 -0.04252
 C72 C -0.04947 0.05098 -0.09943
 C73 C -0.01124 -0.06354 0.04832
 C74 C -0.03371 -0.08756 0.07128
 C75 C -0.09119 -0.05962 0.04265
 C76 C -0.06767 -0.03611 0.02027
 N77 N -0.02837 -0.03796 0.02403
 H78 H -0.00975 0.00849 -0.08931
 H79 H -0.04538 0.05002 0.01039
 H80 H -0.08615 0.09339 -0.02867
 H81 H -0.04996 0.05086 -0.13024
 H82 H 0.02001 -0.06476 0.05033
 H83 H -0.01979 -0.10730 0.09116
 H84 H -0.12237 -0.05752 0.04000
 H85 H -0.08088 -0.01627 0.00016
 C86 C 0.07482 -0.07579 -0.07510
 C87 C 0.08235 0.07176 0.07406
 C88 C -0.07402 -0.08531 0.06865
 C89 C -0.07118 0.07507 -0.08235
 C90 C 0.05992 0.55047 0.51256
 H91 H 0.06008 0.55336 0.48177
 C92 C 0.08324 0.57453 0.53517
 H93 H 0.10157 0.59594 0.52183
 C94 C 0.03494 0.51984 0.56762
 H95 H 0.01546 0.49910 0.58017
 C96 C 0.05778 0.54330 0.59125
 H97 H 0.05609 0.54027 0.62191
 N98 N 0.03656 0.52366 0.52903
 C99 C 0.01363 0.44183 0.44415
 H100 H -0.01780 0.43955 0.44205
 C101 C 0.03388 0.42019 0.42263
 H102 H 0.01805 0.40124 0.40376
 C103 C 0.07279 0.46897 0.47164
 H104 H 0.08787 0.48759 0.49116
 C105 C 0.09415 0.44783 0.45065
 H106 H 0.12562 0.45050 0.45380
 Zn107 Zn 0.00370 0.49389 0.49628
 N108 N 0.03324 0.46593 0.46771
 C109 C -0.02733 0.52577 0.42484
 N110 N -0.02677 0.52561 0.46359
 C111 C -0.04720 0.54927 0.48067
 C112 C -0.07015 0.57375 0.45863
 C113 C -0.04995 0.54986 0.40170
 C114 C -0.01156 0.43548 0.54957
 C115 C -0.03405 0.41147 0.57253
 C116 C -0.09152 0.43931 0.54376
 C117 C -0.06799 0.46282 0.52138
 N118 N -0.02869 0.46101 0.52520
 H119 H -0.01021 0.50739 0.41179
 H120 H -0.04573 0.54894 0.51152
 H121 H -0.08655 0.59229 0.47250
 H122 H -0.05048 0.54973 0.37089
 H123 H 0.01970 0.43428 0.55163
 H124 H -0.02013 0.39177 0.59247
 H125 H -0.12271 0.44138 0.54105
 H126 H -0.08120 0.48260 0.50121
 C127 C 0.07450 0.42332 0.42584
 C128 C 0.08207 0.57093 0.57487
 C129 C -0.07436 0.41368 0.56983
 C130 C -0.07165 0.57395 0.41880
 C131 C 0.56129 0.05180 0.51210
 H132 H 0.56144 0.05466 0.48132
 C133 C 0.58466 0.07584 0.53470
 H134 H 0.60301 0.09721 0.52134
 C135 C 0.53627 0.02124 0.56719
 H136 H 0.51675 0.00054 0.57975
 C137 C 0.55916 0.04469 0.59080
 H138 H 0.55747 0.04168 0.62146
 N139 N 0.53788 0.02503 0.52859
 C140 C 0.51473 -0.05689 0.44385
 H141 H 0.48330 -0.05911 0.44178
 C142 C 0.53490 -0.07866 0.42240
 H143 H 0.51901 -0.09764 0.40361
 C144 C 0.57397 -0.02980 0.47123
 H145 H 0.58911 -0.01116 0.49069
 C146 C 0.59526 -0.05107 0.45031
 H147 H 0.62672 -0.04848 0.45345
 Zn148 Zn 0.50496 -0.00471 0.49588
 N149 N 0.53442 -0.03277 0.46733
 C150 C 0.47383 0.02707 0.42443
 N151 N 0.47450 0.02700 0.46318
 C152 C 0.45412 0.05071 0.48026
 C153 C 0.43108 0.07511 0.45821
 C154 C 0.45111 0.05108 0.40128
 C155 C 0.48962 -0.06308 0.54920
 C156 C 0.46709 -0.08710 0.57210
 C157 C 0.40966 -0.05922 0.54326
 C158 C 0.43324 -0.03571 0.52094
 N159 N 0.47253 -0.03754 0.52482
 H160 H 0.49090 0.00865 0.41138
 H161 H 0.45567 0.05045 0.51111
 H162 H 0.41469 0.09366 0.47208
 H163 H 0.45046 0.05085 0.37047
 H164 H 0.52087 -0.06430 0.55129
 H165 H 0.48097 -0.10684 0.59203
 H166 H 0.37847 -0.05715 0.54049
 H167 H 0.42006 -0.01592 0.50076
 C168 C 0.57553 -0.07563 0.42561
 C169 C 0.58348 0.07227 0.57440
 C170 C 0.42677 -0.08489 0.56932
 C171 C 0.42943 0.07519 0.41838
 C172 C 0.56060 0.55142 0.01204
 H173 H 0.56085 0.55439 -0.01873
 C174 C 0.58386 0.57541 0.03479
 H175 H 0.60223 0.59686 0.02156
 C176 C 0.53545 0.52064 0.06695
 H177 H 0.51592 0.49987 0.07939
 C178 C 0.55823 0.54403 0.09071
 H179 H 0.55644 0.54091 0.12135
 N180 N 0.53719 0.52456 0.02837
 C181 C 0.51451 0.44292 -0.05673
 H182 H 0.48308 0.44061 -0.05888
 C183 C 0.53483 0.42135 -0.07826
 H184 H 0.51905 0.40243 -0.09720
 C185 C 0.57360 0.47005 -0.02909
 H186 H 0.58863 0.48864 -0.00950
 C187 C 0.59503 0.44899 -0.05009
 H188 H 0.62649 0.45168 -0.04688
 Zn189 Zn 0.50442 0.49485 -0.00451
 N190 N 0.53406 0.46698 -0.03309
 C191 C 0.47343 0.52680 -0.07594
 N192 N 0.47398 0.52661 -0.03718
 C193 C 0.45351 0.55022 -0.02008
 C194 C 0.43050 0.57466 -0.04211
 C195 C 0.45074 0.55086 -0.09906
 C196 C 0.48908 0.43635 0.04864
 C197 C 0.46655 0.41234 0.07157
 C198 C 0.40912 0.44023 0.04274
 C199 C 0.43269 0.46372 0.02040
 N200 N 0.47199 0.46190 0.02427
 H201 H 0.49058 0.50846 -0.08900
 H202 H 0.45497 0.54986 0.01077
 H203 H 0.41404 0.59314 -0.02822
 H204 H 0.45020 0.55074 -0.12987
 H205 H 0.52033 0.43514 0.05073
 H206 H 0.48044 0.39263 0.09151
 H207 H 0.37793 0.44232 0.04001
 H208 H 0.41951 0.48353 0.00024
 C209 C 0.57545 0.42452 -0.07497
 C210 C 0.58257 0.57170 0.07447
 C211 C 0.42624 0.41458 0.06883
 C212 C 0.42898 0.57488 -0.08194
 C213 C 0.19399 -0.19482 -0.19494
 C214 C 0.17548 -0.17686 -0.17659
 C215 C 0.15394 -0.15572 -0.15512
 C216 C 0.13566 -0.13756 -0.13678
 C217 C 0.11437 -0.11617 -0.11532
 C218 C 0.09629 -0.09781 -0.09699
 C219 C 0.19394 0.30501 0.30549
 C220 C 0.17539 0.32287 0.32389
 C221 C 0.15380 0.34389 0.34545
 C222 C 0.13546 0.36194 0.36386
 C223 C 0.11412 0.38318 0.38543
 C224 C 0.09600 0.40142 0.40385
 C225 C 0.69444 -0.19486 0.30574
 C226 C 0.67597 -0.17689 0.32410
 C227 C 0.65447 -0.15571 0.34558
 C228 C 0.63622 -0.13752 0.36392
 C229 C 0.61498 -0.11609 0.38539
 C230 C 0.59694 -0.09770 0.40372
 C231 C 0.69523 0.30661 -0.19543
 C232 C 0.67664 0.32442 -0.17701
 C233 C 0.65499 0.34537 -0.15543
 C234 C 0.63660 0.36335 -0.13700
 C235 C 0.61519 0.38452 -0.11542
 C236 C 0.59702 0.40269 -0.09698
 C237 C -0.20751 0.21394 -0.19642
 C238 C -0.18577 0.19234 -0.18093
 C239 C -0.16069 0.16718 -0.16187
 C240 C -0.13962 0.14583 -0.14482
 C241 C -0.11537 0.12101 -0.12396
 C242 C -0.09502 0.09997 -0.10540
 C243 C -0.20828 0.71258 0.30476
 C244 C -0.18647 0.69105 0.32027
 C245 C -0.16133 0.66595 0.33934
 C246 C -0.14022 0.64464 0.35639
 C247 C -0.11591 0.61985 0.37723
 C248 C -0.09553 0.59883 0.39577
 C249 C 0.29162 0.21284 0.30444
 C250 C 0.31361 0.19147 0.31993
 C251 C 0.33898 0.16655 0.33898
 C252 C 0.36029 0.14541 0.35600
 C253 C 0.38482 0.12079 0.37683
 C254 C 0.40538 0.09992 0.39536
 C255 C 0.29153 0.71286 -0.19587
 C256 C 0.31346 0.69144 -0.18036
 C257 C 0.33876 0.66647 -0.16131
 C258 C 0.36001 0.64527 -0.14428
 C259 C 0.38447 0.62060 -0.12346
 C260 C 0.40498 0.59967 -0.10494
 C261 C -0.20938 -0.19701 0.20942
 C262 C -0.18779 -0.18220 0.18719
 C263 C -0.16289 -0.16378 0.16143
 C264 C -0.14197 -0.14716 0.13969
 C265 C -0.11788 -0.12665 0.11458
 C266 C -0.09768 -0.10828 0.09345
 C267 C -0.21011 0.30191 0.71022
 C268 C -0.18846 0.31674 0.68805
 C269 C -0.16347 0.33518 0.66238
 C270 C -0.14248 0.35181 0.64071
 C271 C -0.11832 0.37232 0.61568
 C272 C -0.09806 0.39071 0.59460
 C273 C 0.29042 -0.19686 0.70897
 C274 C 0.31219 -0.18202 0.68693
 C275 C 0.33731 -0.16356 0.66140
 C276 C 0.35841 -0.14689 0.63986
 C277 C 0.38268 -0.12634 0.61496
 C278 C 0.40301 -0.10791 0.59399
 C279 C 0.29029 0.30315 0.20926
 C280 C 0.31197 0.31796 0.18710
 C281 C 0.33699 0.33634 0.16143
 C282 C 0.35801 0.35291 0.13976
 C283 C 0.38222 0.37334 0.11470
 C284 C 0.40251 0.39166 0.09361
 C285 C 0.19501 0.21180 0.21008
 C286 C 0.17944 0.19011 0.18856
 C287 C 0.16044 0.16481 0.16366
 C288 C 0.14356 0.14331 0.14268
 C289 C 0.12303 0.11826 0.11843
 C290 C 0.10485 0.09699 0.09803
 C291 C 0.19495 0.71171 0.70993
 C292 C 0.17934 0.68988 0.68857
 C293 C 0.16029 0.66443 0.66387
 C294 C 0.14337 0.64281 0.64305
 C295 C 0.12279 0.61763 0.61899
 C296 C 0.10458 0.59626 0.59872
 C297 C 0.69634 0.21312 0.70938
 C298 C 0.68079 0.19126 0.68804
 C299 C 0.66177 0.16578 0.66335
 C300 C 0.64485 0.14414 0.64254
 C301 C 0.62427 0.11895 0.61849
 C302 C 0.60604 0.09759 0.59823
 C303 C 0.69525 0.71180 0.21042
 C304 C 0.67964 0.69009 0.18894
 C305 C 0.66061 0.66478 0.16407
 C306 C 0.64372 0.64327 0.14310
 C307 C 0.62319 0.61821 0.11887
 C308 C 0.60503 0.59694 0.09846
   
