data_POSCAR
  _audit_creation_date              2014-09-24
  _audit_creation_method            'ToBaCCo'
  _symmetry_space_group_name_H-M    'P1'
  _symmetry_Int_Tables_number       1
  _symmetry_cell_setting            triclinic
  loop_
  _symmetry_equiv_pos_as_xyz
 x,y,z
_cell_length_a 64.9876
_cell_length_b 37.9217
_cell_length_c 22.1193
_cell_angle_alpha 89.982500
_cell_angle_beta 89.899000
_cell_angle_gamma 90.124500
loop_
  _atom_site_label
  _atom_site_type_symbol
  _atom_site_fract_x
  _atom_site_fract_y
  _atom_site_fract_z
C1 C 0.74987 0.25074 0.47195
 C2 C 0.74976 0.25086 0.53363
 C3 C 0.73181 0.26408 0.56858
 C4 C 0.76759 0.23779 0.56903
 C5 C 0.76662 0.23350 0.43702
 C6 C 0.73327 0.26790 0.43652
 C7 C 0.73457 0.29037 0.61228
 C8 C 0.71774 0.30394 0.64392
 C9 C 0.69760 0.29134 0.63286
 C10 C 0.69511 0.26407 0.58991
 C11 C 0.71201 0.25057 0.55847
 C12 C 0.78743 0.25138 0.55914
 C13 C 0.80423 0.23792 0.59093
 C14 C 0.80149 0.21083 0.63370
 C15 C 0.78149 0.19805 0.64473
 C16 C 0.76471 0.21151 0.61284
 C17 C 0.77176 0.19807 0.44727
 C18 C 0.78802 0.18248 0.41576
 C19 C 0.79935 0.20194 0.37289
 C20 C 0.79375 0.23715 0.36156
 C21 C 0.77750 0.25270 0.39318
 C22 C 0.72250 0.24855 0.39276
 C23 C 0.70635 0.26402 0.36075
 C24 C 0.70075 0.29928 0.37162
 C25 C 0.71198 0.31888 0.41438
 C26 C 0.72814 0.30338 0.44628
 H27 H 0.74978 0.30093 0.62106
 H28 H 0.72063 0.32462 0.67661
 H29 H 0.68009 0.25311 0.57993
 H30 H 0.70962 0.22971 0.52578
 H31 H 0.78991 0.27218 0.52636
 H32 H 0.81937 0.24858 0.58158
 H33 H 0.74950 0.20088 0.62142
 H34 H 0.76327 0.18257 0.48007
 H35 H 0.79179 0.15526 0.42534
 H36 H 0.80205 0.25287 0.32870
 H37 H 0.77367 0.28001 0.38432
 H38 H 0.72633 0.22121 0.38428
 H39 H 0.69812 0.24820 0.32798
 H40 H 0.70821 0.34615 0.42361
 H41 H 0.73655 0.31897 0.47902
 H42 H 0.77879 0.17735 0.67753
 C43 C 0.25000 0.74994 0.47024
 C44 C 0.25008 0.74993 0.53192
 C45 C 0.23350 0.76730 0.56731
 C46 C 0.26675 0.73259 0.56684
 C47 C 0.26783 0.73675 0.43481
 C48 C 0.23209 0.76319 0.43530
 C49 C 0.22848 0.80280 0.55728
 C50 C 0.21231 0.81849 0.58902
 C51 C 0.20096 0.79907 0.63188
 C52 C 0.20647 0.76380 0.64307
 C53 C 0.22263 0.74814 0.61123
 C54 C 0.27768 0.75176 0.61050
 C55 C 0.29391 0.73612 0.64196
 C56 C 0.29943 0.70087 0.63066
 C57 C 0.28805 0.68145 0.58802
 C58 C 0.27181 0.69711 0.55665
 C59 C 0.26493 0.71047 0.39106
 C60 C 0.28170 0.69696 0.35903
 C61 C 0.30171 0.70969 0.36985
 C62 C 0.30447 0.73675 0.41260
 C63 C 0.28768 0.75026 0.44453
 C64 C 0.21224 0.74980 0.44567
 C65 C 0.19540 0.76329 0.41405
 C66 C 0.19812 0.79022 0.37096
 C67 C 0.21813 0.80285 0.35955
 C68 C 0.23494 0.78936 0.39127
 H69 H 0.23697 0.81825 0.52442
 H70 H 0.20861 0.84576 0.57955
 H71 H 0.19815 0.74811 0.67594
 H72 H 0.22638 0.72079 0.61992
 H73 H 0.27392 0.77909 0.61930
 H74 H 0.30225 0.75182 0.67466
 H75 H 0.26328 0.68165 0.52400
 H76 H 0.24970 0.69990 0.38262
 H77 H 0.27898 0.67628 0.32627
 H78 H 0.31962 0.74736 0.42180
 H79 H 0.29018 0.77106 0.47726
 H80 H 0.20977 0.72908 0.47861
 H81 H 0.18026 0.75275 0.42370
 H82 H 0.22081 0.82344 0.32653
 H83 H 0.25016 0.79986 0.38232
 H84 H 0.29175 0.65420 0.57846
 C85 C 0.24995 0.24914 -0.46998
 C86 C 0.25004 0.24918 -0.53167
 C87 C 0.26681 0.26642 -0.56673
 C88 C 0.23339 0.23198 -0.56697
 C89 C 0.23199 0.23590 -0.43493
 C90 C 0.26782 0.26229 -0.43470
 C91 C 0.27200 0.30186 -0.55670
 C92 C 0.28827 0.31747 -0.58832
 C93 C 0.29964 0.29803 -0.63122
 C94 C 0.29390 0.26272 -0.64225
 C95 C 0.27764 0.24719 -0.61048
 C96 C 0.22264 0.25126 -0.61073
 C97 C 0.20645 0.23577 -0.64264
 C98 C 0.20070 0.20044 -0.63174
 C99 C 0.21200 0.18093 -0.58887
 C100 C 0.22820 0.19651 -0.55711
 C101 C 0.23473 0.20963 -0.39114
 C102 C 0.21786 0.19605 -0.35944
 C103 C 0.19782 0.20865 -0.37058
 C104 C 0.19529 0.23581 -0.41351
 C105 C 0.21220 0.24935 -0.44505
 C106 C 0.28763 0.24876 -0.44461
 C107 C 0.30447 0.26231 -0.41297
 C108 C 0.30179 0.28945 -0.37032
 C109 C 0.28182 0.30219 -0.35928
 C110 C 0.26500 0.28863 -0.39102
 H111 H 0.26353 0.31737 -0.52397
 H112 H 0.29197 0.34474 -0.57863
 H113 H 0.30207 0.24677 -0.67501
 H114 H 0.27375 0.21987 -0.61918
 H115 H 0.22654 0.27860 -0.61930
 H116 H 0.19833 0.25175 -0.67538
 H117 H 0.23661 0.18096 -0.52438
 H118 H 0.24991 0.19910 -0.38236
 H119 H 0.22061 0.17538 -0.32666
 H120 H 0.18024 0.24658 -0.42328
 H121 H 0.20983 0.27018 -0.47781
 H122 H 0.29006 0.22791 -0.47729
 H123 H 0.31959 0.25169 -0.42233
 H124 H 0.27917 0.32293 -0.32658
 H125 H 0.24981 0.29923 -0.38244
 H126 H 0.20830 0.15364 -0.57929
 C127 C -0.25036 0.75032 -0.47156
 C128 C -0.25042 0.75038 -0.53325
 C129 C -0.23372 0.76753 -0.56860
 C130 C -0.26718 0.73332 -0.56833
 C131 C -0.26819 0.73683 -0.43625
 C132 C -0.23249 0.76374 -0.43655
 C133 C -0.22852 0.80300 -0.55893
 C134 C -0.21227 0.81850 -0.59079
 C135 C -0.20094 0.79891 -0.63357
 C136 C -0.20669 0.76357 -0.64427
 C137 C -0.22294 0.74816 -0.61226
 C138 C -0.27799 0.75276 -0.61174
 C139 C -0.29424 0.73741 -0.64363
 C140 C -0.29998 0.70204 -0.63306
 C141 C -0.28864 0.68239 -0.59047
 C142 C -0.27238 0.69783 -0.55874
 C143 C -0.26527 0.71028 -0.39307
 C144 C -0.28204 0.69626 -0.36148
 C145 C -0.30215 0.70869 -0.37215
 C146 C -0.30484 0.73619 -0.41435
 C147 C -0.28804 0.75017 -0.44577
 C148 C -0.21263 0.75050 -0.44666
 C149 C -0.19581 0.76437 -0.41531
 C150 C -0.19855 0.79153 -0.37274
 C151 C -0.21857 0.80398 -0.36150
 C152 C -0.23537 0.79012 -0.39295
 H153 H -0.23696 0.81861 -0.52627
 H154 H -0.20856 0.84580 -0.58137
 H155 H -0.19855 0.74752 -0.67693
 H156 H -0.22684 0.72082 -0.62068
 H157 H -0.27409 0.78012 -0.62011
 H158 H -0.30239 0.75351 -0.67613
 H159 H -0.26393 0.68216 -0.52628
 H160 H -0.25004 0.69984 -0.38477
 H161 H -0.27916 0.67536 -0.32923
 H162 H -0.31995 0.74685 -0.42370
 H163 H -0.29053 0.77119 -0.47808
 H164 H -0.21014 0.72964 -0.47928
 H165 H -0.18065 0.75395 -0.42481
 H166 H -0.22128 0.82473 -0.32886
 H167 H -0.25060 0.80051 -0.38421
 H168 H -0.29234 0.65506 -0.58114
 N169 N 0.02133 0.96313 -0.10703
 N170 N 0.03698 0.95912 -0.14450
 N171 N -0.02195 0.93840 -0.06486
 N172 N -0.03732 0.91617 -0.07355
 N173 N -0.02198 0.96321 -0.10630
 N174 N -0.03737 0.95854 -0.14435
 N175 N 0.02135 0.93832 -0.06559
 N176 N 0.03703 0.91673 -0.07372
 C177 C 0.04658 0.93006 -0.12314
 C178 C -0.04680 0.92914 -0.12322
 N179 N -0.02163 0.96175 0.10780
 N180 N -0.03728 0.95735 0.14515
 N181 N 0.02153 0.93731 0.06465
 N182 N 0.03683 0.91493 0.07242
 N183 N 0.02165 0.96153 0.10707
 N184 N 0.03703 0.95631 0.14489
 N185 N -0.02180 0.93753 0.06538
 N186 N -0.03758 0.91595 0.07271
 Mn187 Mn -0.00022 0.93746 -0.00012
 C188 C -0.04705 0.92868 0.12269
 C189 C 0.04636 0.92719 0.12259
 N190 N -0.02179 1.03921 -0.10467
 N191 N -0.03723 1.04438 -0.14233
 N192 N 0.02164 1.06328 -0.06306
 N193 N 0.03706 1.08550 -0.07129
 N194 N 0.02150 1.03909 -0.10553
 N195 N 0.03682 1.04418 -0.14384
 N196 N -0.02165 1.06342 -0.06223
 N197 N -0.03699 1.08575 -0.06983
 Mn198 Mn -0.00024 1.00116 -0.10660
 C199 C -0.04656 1.07346 -0.11991
 C200 C 0.04638 1.07318 -0.12180
 N201 N 0.02186 1.03744 0.10857
 N202 N 0.03757 1.04143 0.14566
 N203 N -0.02147 1.06245 0.06800
 N204 N -0.03709 1.08413 0.07633
 N205 N -0.02144 1.03763 0.10941
 N206 N -0.03703 1.04172 0.14706
 N207 N 0.02187 1.06228 0.06719
 N208 N 0.03761 1.08387 0.07498
 Mn209 Mn 0.00012 0.99959 0.10891
 Mn210 Mn 0.00010 1.06329 0.00250
 Cl211 Cl -0.00006 1.00037 0.00116
 C212 C 0.04722 1.07049 0.12412
 C213 C -0.04662 1.07083 0.12584
 N214 N 0.52203 0.56155 -0.06614
 N215 N 0.53740 0.58381 -0.07480
 N216 N 0.47882 0.53664 -0.10820
 N217 N 0.46323 0.54065 -0.14573
 N218 N 0.47873 0.56145 -0.06678
 N219 N 0.46307 0.58304 -0.07499
 N220 N 0.52213 0.53677 -0.10760
 N221 N 0.53757 0.54148 -0.14563
 C222 C 0.54695 0.57089 -0.12446
 C223 C 0.45358 0.56970 -0.12442
 N224 N 0.47866 0.43647 -0.06415
 N225 N 0.46326 0.41423 -0.07218
 N226 N 0.52208 0.46077 -0.10596
 N227 N 0.53751 0.45564 -0.14379
 N228 N 0.52196 0.43654 -0.06351
 N229 N 0.53731 0.41425 -0.07129
 N230 N 0.47879 0.46067 -0.10663
 N231 N 0.46346 0.45556 -0.14476
 Mn232 Mn 0.50046 0.49871 -0.10781
 C233 C 0.45393 0.42653 -0.12259
 C234 C 0.54687 0.42657 -0.12149
 N235 N 0.47846 0.56242 0.06344
 N236 N 0.46311 0.58472 0.07118
 N237 N 0.52160 0.53818 0.10653
 N238 N 0.53716 0.54272 0.14400
 N239 N 0.52178 0.56241 0.06410
 N240 N 0.53749 0.58413 0.07154
 N241 N 0.47832 0.53820 0.10587
 N242 N 0.46288 0.54333 0.14368
 Mn243 Mn 0.50025 0.56238 -0.00136
 C244 C 0.45354 0.57240 0.12134
 C245 C 0.54690 0.57147 0.12159
 N246 N 0.52164 0.43751 0.06674
 N247 N 0.53732 0.41594 0.07497
 N248 N 0.47823 0.46227 0.10744
 N249 N 0.46252 0.45815 0.14468
 N250 N 0.47831 0.43743 0.06609
 N251 N 0.46263 0.41570 0.07405
 N252 N 0.52153 0.46231 0.10815
 N253 N 0.53711 0.45832 0.14571
 Mn254 Mn 0.50014 0.43656 0.00132
 Mn255 Mn 0.49991 0.50024 0.10770
 Cl256 Cl 0.50019 0.49947 -0.00006
 C257 C 0.54678 0.42930 0.12442
 C258 C 0.45296 0.42900 0.12325
 N259 N 0.34380 0.30874 0.26948
 C260 C 0.34944 0.34247 0.28115
 N261 N 0.33839 0.36153 0.32152
 N262 N 0.32222 0.34725 0.34949
 C263 C 0.31647 0.31335 0.33825
 N264 N 0.32763 0.29448 0.29747
 C265 C 0.36714 0.35759 0.25213
 C266 C 0.38214 0.37030 0.22839
 C267 C 0.40010 0.38550 0.20090
 N268 N 0.40875 0.37042 0.15144
 N269 N 0.42560 0.38433 0.12649
 C270 C 0.43435 0.41376 0.15027
 N271 N 0.42565 0.42881 0.19974
 N272 N 0.40881 0.41490 0.22466
 N273 N -0.16210 0.86211 0.31876
 C274 C -0.15106 0.84288 0.27862
 N275 N -0.15674 0.80915 0.26718
 N276 N -0.17295 0.79504 0.29520
 C277 C -0.18409 0.81409 0.33578
 N278 N -0.17830 0.84799 0.34676
 C279 C -0.13328 0.85780 0.24974
 C280 C -0.11821 0.87036 0.22622
 C281 C -0.10015 0.88544 0.19915
 N282 N -0.09117 0.91427 0.22400
 N283 N -0.07424 0.92808 0.19947
 C284 C -0.06573 0.91348 0.14931
 N285 N -0.07476 0.88463 0.12444
 N286 N -0.09170 0.87081 0.14899
 N287 N 0.65593 0.69184 0.26767
 C288 C 0.65029 0.65805 0.27888
 N289 N 0.66131 0.63879 0.31894
 N290 N 0.67746 0.65292 0.34705
 C291 C 0.68321 0.68687 0.33627
 N292 N 0.67208 0.70596 0.29580
 C293 C 0.63260 0.64308 0.24978
 C294 C 0.61762 0.63043 0.22605
 C295 C 0.59966 0.61522 0.19875
 N296 N 0.59071 0.58628 0.22345
 N297 N 0.57389 0.57231 0.19869
 C298 C 0.56546 0.58685 0.14843
 N299 N 0.57446 0.61582 0.12370
 N300 N 0.59129 0.62979 0.14849
 N301 N 0.15662 1.18991 0.26909
 C302 C 0.15096 1.15619 0.28072
 N303 N 0.16197 1.13706 0.32098
 N304 N 0.17813 1.15127 0.34889
 C305 C 0.18390 1.18517 0.33771
 N306 N 0.17278 1.20411 0.29702
 C307 C 0.13324 1.14117 0.25187
 C308 C 0.11822 1.12855 0.22830
 C309 C 0.10022 1.11350 0.20104
 N310 N 0.09143 1.08419 0.22497
 N311 N 0.07454 1.07043 0.20028
 C312 C 0.06588 1.08556 0.15089
 N313 N 0.07472 1.11489 0.12694
 N314 N 0.09162 1.12865 0.15165
 N315 N 0.66736 0.34595 -0.26915
 C316 C 0.64811 0.33406 -0.28087
 N317 N 0.64554 0.30756 -0.32122
 N318 N 0.66173 0.29343 -0.34911
 C319 C 0.68116 0.30525 -0.33790
 N320 N 0.68355 0.33182 -0.29705
 C321 C 0.63064 0.34984 -0.25191
 C322 C 0.61592 0.36333 -0.22811
 C323 C 0.59836 0.37962 -0.20043
 N324 N 0.58986 0.36573 -0.14967
 N325 N 0.57346 0.38077 -0.12433
 C326 C 0.56502 0.41017 -0.14894
 N327 N 0.57358 0.42404 -0.19971
 N328 N 0.58998 0.40901 -0.22503
 N329 N 0.16142 0.86337 -0.32022
 C330 C 0.15028 0.84435 -0.27988
 N331 N 0.15584 0.81065 -0.26787
 N332 N 0.17204 0.79638 -0.29550
 C333 C 0.18327 0.81526 -0.33616
 N334 N 0.17762 0.84909 -0.34783
 C335 C 0.13253 0.85944 -0.25128
 C336 C 0.11751 0.87208 -0.22783
 C337 C 0.09950 0.88710 -0.20056
 N338 N 0.09074 0.91633 -0.22456
 N339 N 0.07387 0.93006 -0.19976
 C340 C 0.06519 0.91500 -0.15018
 N341 N 0.07401 0.88575 -0.12618
 N342 N 0.09088 0.87201 -0.15100
 N343 N 0.34458 0.68927 -0.26961
 C344 C 0.35014 0.65557 -0.28165
 N345 N 0.33900 0.63657 -0.32190
 N346 N 0.32280 0.65086 -0.34937
 C347 C 0.31715 0.68468 -0.33764
 N348 N 0.32838 0.70355 -0.29710
 C349 C 0.36786 0.64044 -0.25309
 C350 C 0.38286 0.62778 -0.22960
 C351 C 0.40082 0.61274 -0.20223
 N352 N 0.40962 0.58350 -0.22614
 N353 N 0.42644 0.56974 -0.20122
 C354 C 0.43502 0.58479 -0.15159
 N355 N 0.42617 0.61405 -0.12767
 N356 N 0.40935 0.62781 -0.15261
 N357 N -0.16699 1.15469 -0.26591
 C358 C -0.14770 1.16649 -0.27773
 N359 N -0.14505 1.19305 -0.31801
 N360 N -0.16119 1.20733 -0.34574
 C361 C -0.18059 1.19557 -0.33424
 N362 N -0.18313 1.16898 -0.29365
 C363 C -0.13027 1.15054 -0.24900
 C364 C -0.11559 1.13693 -0.22543
 C365 C -0.09805 1.12056 -0.19801
 N366 N -0.08951 1.13439 -0.14737
 N367 N -0.07311 1.11930 -0.12230
 C368 C -0.06471 1.08990 -0.14709
 N369 N -0.07330 1.07608 -0.19774
 N370 N -0.08970 1.09117 -0.22279
 N371 N 0.64527 0.69060 -0.32534
 C372 C 0.64797 0.66378 -0.28568
 N373 N 0.66727 0.65213 -0.27432
 N374 N 0.68339 0.66680 -0.30195
 C375 C 0.68084 0.69368 -0.34201
 N376 N 0.66140 0.70526 -0.35295
 C377 C 0.63057 0.64758 -0.25677
 C378 C 0.61591 0.63389 -0.23285
 C379 C 0.59840 0.61757 -0.20475
 N380 N 0.59009 0.58781 -0.22845
 N381 N 0.57370 0.57283 -0.20271
 C382 C 0.56510 0.58713 -0.15244
 N383 N 0.57347 0.61690 -0.12875
 N384 N 0.58985 0.63188 -0.15449
 N385 N 0.14512 1.19176 -0.32351
 C386 C 0.14767 1.16528 -0.28308
 N387 N 0.16691 1.15346 -0.27134
 N388 N 0.18311 1.16763 -0.29930
 C389 C 0.18072 1.19416 -0.34013
 N390 N 0.16133 1.20592 -0.35145
 C391 C 0.13017 1.14951 -0.25395
 C392 C 0.11545 1.13606 -0.22995
 C393 C 0.09787 1.11986 -0.20193
 N394 N 0.08927 1.09057 -0.22641
 N395 N 0.07287 1.07562 -0.20072
 C396 C 0.06453 1.08949 -0.14972
 N397 N 0.07318 1.11881 -0.12524
 N398 N 0.08958 1.13375 -0.15094
 N399 N 0.33344 0.34576 -0.27020
 C400 C 0.35270 0.33398 -0.28201
 N401 N 0.35530 0.30740 -0.32221
 N402 N 0.33912 0.29307 -0.34988
 C403 C 0.31975 0.30480 -0.33839
 N404 N 0.31726 0.33142 -0.29789
 C405 C 0.37016 0.34992 -0.25321
 C406 C 0.38487 0.36347 -0.22949
 C407 C 0.40243 0.37974 -0.20179
 N408 N 0.41099 0.40903 -0.22649
 N409 N 0.42740 0.42403 -0.20110
 C410 C 0.43579 0.41020 -0.15020
 N411 N 0.42717 0.38088 -0.12551
 N412 N 0.41076 0.36589 -0.15090
 N413 N -0.16706 0.84831 -0.27293
 C414 C -0.14775 0.83679 -0.28484
 N415 N -0.14507 0.81024 -0.32507
 N416 N -0.16120 0.79571 -0.35265
 C417 C -0.18062 0.80718 -0.34103
 N418 N -0.18319 0.83377 -0.30052
 C419 C -0.13034 0.85284 -0.25590
 C420 C -0.11568 0.86643 -0.23193
 C421 C -0.09818 0.88266 -0.20375
 N422 N -0.08980 0.91241 -0.22737
 N423 N -0.07344 0.92733 -0.20155
 C424 C -0.06493 0.91296 -0.15127
 N425 N -0.07336 0.88319 -0.12767
 N426 N -0.08972 0.86828 -0.15349
 N427 N 0.35514 0.69186 0.32085
 C428 C 0.35246 0.66535 0.28055
 N429 N 0.33316 0.65359 0.26896
 N430 N 0.31703 0.66787 0.29695
 C431 C 0.31961 0.69441 0.33756
 N432 N 0.33901 0.70613 0.34883
 C433 C 0.36987 0.64940 0.25154
 C434 C 0.38454 0.63581 0.22774
 C435 C 0.40206 0.61944 0.20008
 N436 N 0.41041 0.59004 0.22473
 N437 N 0.42681 0.57497 0.19946
 C438 C 0.43539 0.58881 0.14872
 N439 N 0.42698 0.61823 0.12406
 N440 N 0.41058 0.63331 0.14934
 N441 N -0.16103 1.13779 0.32487
 C442 C -0.14996 1.15682 0.28437
 N443 N -0.15558 1.19049 0.27237
 N444 N -0.17177 1.20472 0.30013
 C445 C -0.18293 1.18582 0.34093
 N446 N -0.17722 1.15203 0.35262
 C447 C -0.13225 1.14174 0.25550
 C448 C -0.11727 1.12910 0.23178
 C449 C -0.09932 1.11403 0.20419
 N450 N -0.09077 1.12912 0.15453
 N451 N -0.07396 1.11531 0.12940
 C452 C -0.06516 1.08599 0.15317
 N453 N -0.07377 1.07092 0.20285
 N454 N -0.09057 1.08473 0.22795
 N455 N 0.65584 0.31037 0.27086
 C456 C 0.65020 0.34408 0.28249
 N457 N 0.66122 0.36326 0.32278
 N458 N 0.67737 0.34912 0.35069
 C459 C 0.68309 0.31530 0.33938
 N460 N 0.67199 0.29625 0.29879
 C461 C 0.63250 0.35902 0.25357
 C462 C 0.61752 0.37156 0.22987
 C463 C 0.59956 0.38651 0.20238
 N464 N 0.59072 0.41573 0.22621
 N465 N 0.57390 0.42941 0.20122
 C466 C 0.56535 0.41429 0.15161
 N467 N 0.57423 0.38504 0.12778
 N468 N 0.59107 0.37136 0.15278
 N469 N 0.14463 0.80795 0.32271
 C470 C 0.14730 0.83427 0.28197
 N471 N 0.16659 0.84595 0.26989
 N472 N 0.18274 0.83177 0.29780
 C473 C 0.18018 0.80541 0.33884
 N474 N 0.16078 0.79378 0.35061
 C475 C 0.12987 0.85011 0.25299
 C476 C 0.11520 0.86365 0.22918
 C477 C 0.09770 0.88001 0.20150
 N478 N 0.08934 0.90944 0.22607
 N479 N 0.07299 0.92455 0.20075
 C480 C 0.06446 0.91070 0.15003
 N481 N 0.07287 0.88125 0.12545
 N482 N 0.08922 0.86615 0.15079
   
