data_POSCAR
  _audit_creation_date              2014-09-24
  _audit_creation_method            'ToBaCCo'
  _symmetry_space_group_name_H-M    'P1'
  _symmetry_Int_Tables_number       1
  _symmetry_cell_setting            triclinic
  loop_
  _symmetry_equiv_pos_as_xyz
 x,y,z
_cell_length_a 28.6270
_cell_length_b 28.6017
_cell_length_c 28.5995
_cell_angle_alpha 90.016400
_cell_angle_beta 90.046900
_cell_angle_gamma 90.079300
loop_
  _atom_site_label
  _atom_site_type_symbol
  _atom_site_fract_x
  _atom_site_fract_y
  _atom_site_fract_z
N1 N 0.35189 0.35622 1.35422
 N2 N 1.14505 0.64549 0.85542
 N3 N 0.64574 -0.14737 0.14441
 N4 N -0.14306 1.14499 -0.35361
 N5 N 0.64357 0.64741 0.64530
 N6 N 0.85378 0.35449 0.14573
 N7 N 0.35514 0.14267 0.85350
 N8 N 0.14689 0.85470 0.35618
 Zn9 Zn 0.05715 0.97201 0.01090
 Zn10 Zn -0.03647 0.96268 -0.03554
 Zn11 Zn -0.02771 1.00930 0.05815
 Zn12 Zn 0.00968 1.05664 -0.02682
 O13 O 0.00057 1.00008 0.00159
 O14 O 0.06121 0.91691 -0.01794
 O15 O -0.08975 0.94534 -0.00689
 O16 O 0.00597 0.98783 0.10641
 O17 O -0.00769 0.90935 -0.05263
 O18 O 0.06909 0.96021 0.07119
 O19 O -0.08271 0.98017 0.06206
 O20 O -0.01176 1.10485 0.00692
 O21 O -0.05368 0.99119 -0.08898
 O22 O -0.03961 1.06960 0.07002
 O23 O -0.01940 1.06042 -0.08188
 O24 O 0.06989 1.06863 -0.03893
 O25 O 0.10522 1.00576 -0.01078
 C26 C 0.03286 0.89412 -0.04321
 C27 C -0.10521 0.95470 0.03362
 C28 C 0.04538 0.96775 0.10781
 C29 C -0.03189 1.10623 0.04634
 C30 C -0.04453 1.03176 -0.10446
 C31 C 0.10653 1.04503 -0.03121
 Zn32 Zn 0.51112 0.05931 0.52656
 Zn33 Zn 0.55885 -0.02506 0.48840
 Zn34 Zn 0.46526 -0.03481 0.53458
 Zn35 Zn 0.47389 0.01225 0.44121
 O36 O 0.50220 0.00286 0.49777
 O37 O 0.57137 0.07158 0.53847
 O38 O 0.56318 -0.08013 0.51734
 O39 O 0.44793 -0.00670 0.58807
 O40 O 0.60685 0.00897 0.50992
 O41 O 0.48219 0.06260 0.58175
 O42 O 0.49414 -0.08802 0.55154
 O43 O 0.41894 -0.01696 0.43710
 O44 O 0.57054 -0.03704 0.42809
 O45 O 0.41206 -0.05217 0.50581
 O46 O 0.50748 -0.00915 0.39289
 O47 O 0.46166 0.07254 0.42974
 O48 O 0.48910 0.10756 0.49322
 C49 C 0.60809 0.04821 0.53047
 C50 C 0.53479 -0.10305 0.54240
 C51 C 0.45703 0.03371 0.60397
 C52 C 0.39653 -0.04261 0.46537
 C53 C 0.54675 -0.02949 0.39148
 C54 C 0.46890 0.10905 0.45381
 Zn55 Zn 1.02568 0.51050 0.44400
 Zn56 Zn 1.03577 0.46423 0.53765
 Zn57 Zn 0.98860 0.55750 0.52913
 Zn58 Zn 0.94158 0.47213 0.49199
 O59 O 0.99798 0.50099 0.50078
 O60 O 1.08065 0.48167 0.43946
 O61 O 1.05307 0.49301 0.59098
 O62 O 1.01017 0.60584 0.49563
 O63 O 1.08896 0.44747 0.50854
 O64 O 1.03771 0.57080 0.43232
 O65 O 1.01757 0.56153 0.58418
 O66 O 0.89335 0.50555 0.51378
 O67 O 1.00772 0.41063 0.55501
 O68 O 0.92837 0.56912 0.54102
 O69 O 0.93833 0.41698 0.52108
 O70 O 0.92925 0.46016 0.43174
 O71 O 0.99158 0.48906 0.39601
 C72 C 1.10376 0.45670 0.46775
 C73 C 1.04329 0.53336 0.60659
 C74 C 1.03037 0.60733 0.45626
 C75 C 0.89186 0.54511 0.53368
 C76 C 0.96728 0.39472 0.54609
 C77 C 0.95242 0.46839 0.39490
 Zn78 Zn 0.55592 0.52631 0.98950
 Zn79 Zn 0.46244 0.53544 1.03612
 Zn80 Zn 0.47086 0.48890 0.94238
 Zn81 Zn 0.50850 0.44158 1.02722
 O82 O 0.49934 0.49814 0.99890
 O83 O 0.56022 0.58121 1.01868
 O84 O 0.40909 0.55275 1.00752
 O85 O 0.50413 0.51096 0.89416
 O86 O 0.49139 0.58874 1.05336
 O87 O 0.56741 0.53867 0.92925
 O88 O 0.41575 0.51763 0.93871
 O89 O 0.48717 0.39336 0.99333
 O90 O 0.44517 0.50676 1.08944
 O91 O 0.45929 0.42857 0.93022
 O92 O 0.47939 0.43761 1.08221
 O93 O 0.56874 0.42971 1.03922
 O94 O 0.60410 0.49247 1.01071
 C95 C 0.53199 0.60395 1.04402
 C96 C 0.39342 0.54316 0.96712
 C97 C 0.54342 0.53135 0.89272
 C98 C 0.46716 0.39193 0.95383
 C99 C 0.45422 0.46614 1.10480
 C100 C 0.60541 0.45321 1.03118
 C101 C 1.22699 0.40720 0.41669
 C102 C 1.23087 0.40464 0.36797
 C103 C 1.27200 0.38837 0.34745
 C104 C 1.30991 0.37447 0.37544
 C105 C 1.30586 0.37736 0.42438
 C106 C 1.26461 0.39366 0.44489
 C107 C 1.18426 0.42389 0.43721
 C108 C 1.14781 0.43843 0.45243
 H109 H 1.20196 0.41500 0.34581
 H110 H 1.27405 0.38594 0.30973
 H111 H 1.33468 0.36697 0.44658
 H112 H 1.26203 0.39560 0.48263
 C113 C 0.27013 0.59388 0.91723
 C114 C 0.26588 0.59639 0.86853
 C115 C 0.22473 0.61297 0.84826
 C116 C 0.18717 0.62724 0.87645
 C117 C 0.19161 0.62452 0.92537
 C118 C 0.23289 0.60790 0.94565
 C119 C 0.31286 0.57673 0.93745
 C120 C 0.34933 0.56181 0.95230
 H121 H 0.29450 0.58568 0.84620
 H122 H 0.22239 0.61527 0.81055
 H123 H 0.16305 0.63521 0.94773
 H124 H 0.23576 0.60602 0.98337
 C125 C -0.22855 0.90359 0.08322
 C126 C -0.23310 0.90139 0.13190
 C127 C -0.27441 0.88491 0.15196
 C128 C -0.31184 0.87044 0.12357
 C129 C -0.30706 0.87275 0.07467
 C130 C -0.26563 0.88928 0.05461
 C131 C -0.18574 0.92085 0.06321
 C132 C -0.14926 0.93589 0.04846
 H133 H -0.20462 0.91232 0.15438
 H134 H -0.27702 0.88293 0.18967
 H135 H -0.33551 0.86191 0.05216
 H136 H -0.26252 0.89092 0.01689
 C137 C 0.73228 0.09675 0.58091
 C138 C 0.76641 0.06476 0.59519
 C139 C 0.80761 0.08062 0.61619
 C140 C 0.81511 0.12869 0.62322
 C141 C 0.78086 0.16061 0.60831
 C142 C 0.73969 0.14471 0.58731
 C143 C 0.68886 0.08021 0.56158
 C144 C 0.65214 0.06594 0.54660
 H145 H 0.76096 0.02756 0.59054
 H146 H 0.83361 0.05546 0.62718
 H147 H 0.78566 0.19777 0.61376
 H148 H 0.71338 0.16975 0.57667
 C149 C 0.41515 0.23206 0.40623
 C150 C 0.44307 0.26963 0.39187
 C151 C 0.42230 0.31066 0.37528
 C152 C 0.37338 0.31452 0.37288
 C153 C 0.34567 0.27670 0.38765
 C154 C 0.36645 0.23578 0.40423
 C155 C 0.43605 0.18940 0.42270
 C156 C 0.45202 0.15302 0.43669
 H157 H 0.48080 0.26713 0.39332
 H158 H 0.44429 0.33942 0.36421
 H159 H 0.30795 0.27863 0.38561
 H160 H 0.34451 0.20689 0.41516
 C161 C 0.92179 0.26947 0.59682
 C162 C 0.91611 0.26232 0.64490
 C163 C 0.89557 0.22108 0.66128
 C164 C 0.88038 0.18653 0.62971
 C165 C 0.88694 0.19367 0.58153
 C166 C 0.90748 0.23491 0.56521
 C167 C 0.93982 0.31325 0.57970
 C168 C 0.95333 0.35029 0.56475
 H169 H 0.92675 0.28897 0.66966
 H170 H 0.89049 0.21656 0.69851
 H171 H 0.87573 0.16743 0.55662
 H172 H 0.91153 0.24015 0.52791
 C173 C 0.08314 0.77065 -0.09325
 C174 C 0.05480 0.73327 -0.10735
 C175 C 0.07512 0.69194 -0.12380
 C176 C 0.12400 0.68757 -0.12626
 C177 C 0.15212 0.72525 -0.11184
 C178 C 0.13180 0.76645 -0.09542
 C179 C 0.06284 0.81346 -0.07638
 C180 C 0.04786 0.84999 -0.06167
 H181 H 0.01710 0.73610 -0.10572
 H182 H 0.05282 0.66331 -0.13461
 H183 H 0.18981 0.72296 -0.11394
 H184 H 0.15406 0.79517 -0.08464
 C185 C 0.58299 0.72734 1.09391
 C186 C 0.55491 0.76503 1.10743
 C187 C 0.57552 0.80639 1.12360
 C188 C 0.62442 0.81049 1.12637
 C189 C 0.65228 0.77251 1.11253
 C190 C 0.63168 0.73126 1.09638
 C191 C 0.56240 0.68454 1.07719
 C192 C 0.54719 0.64803 1.06254
 H193 H 0.51720 0.76242 1.10554
 H194 H 0.55341 0.83527 1.13396
 H195 H 0.68997 0.77459 1.11486
 H196 H 0.65374 0.70231 1.08603
 C197 C 0.40306 0.41684 1.22828
 C198 C 0.38894 0.44562 1.26527
 C199 C 0.37234 0.42573 1.30678
 C200 C 0.36976 0.37687 1.31173
 C201 C 0.38405 0.34832 1.27438
 C202 C 0.40061 0.36820 1.23299
 C203 C 0.42037 0.43668 1.18540
 C204 C 0.43544 0.45134 1.14887
 H205 H 0.39077 0.48331 1.26203
 H206 H 0.36164 0.44836 1.33516
 H207 H 0.38188 0.31063 1.27712
 H208 H 0.41140 0.34560 1.20458
 C209 C 0.59429 -0.08343 0.26850
 C210 C 0.60858 -0.05567 0.23081
 C211 C 0.62500 -0.07667 0.18981
 C212 C 0.62728 -0.12565 0.18609
 C213 C 0.61259 -0.15320 0.22404
 C214 C 0.59619 -0.13220 0.26494
 C215 C 0.57792 -0.06233 0.31113
 C216 C 0.56394 -0.04629 0.34749
 H217 H 0.60721 -0.01790 0.23318
 H218 H 0.63601 -0.05480 0.16094
 H219 H 0.61454 -0.19096 0.22223
 H220 H 0.58530 -0.15402 0.29393
 C221 C -0.09437 1.07920 -0.22928
 C222 C -0.06255 1.09371 -0.26351
 C223 C -0.07856 1.11477 -0.30461
 C224 C -0.12662 1.12166 -0.31193
 C225 C -0.15838 1.10645 -0.27762
 C226 C -0.14232 1.08539 -0.23654
 C227 C -0.07761 1.06038 -0.18572
 C228 C -0.06296 1.04625 -0.14880
 H229 H -0.02535 1.08930 -0.25816
 H230 H -0.05350 1.12598 -0.33065
 H231 H -0.19553 1.11178 -0.28226
 H232 H -0.16724 1.07464 -0.21014
 C233 C 1.09369 0.58360 0.73008
 C234 C 1.09614 0.63230 0.73432
 C235 C 1.11259 0.65261 0.77558
 C236 C 1.12678 0.62445 0.81326
 C237 C 1.12408 0.57553 0.80883
 C238 C 1.10759 0.55521 0.76745
 C239 C 1.07671 0.56332 0.68725
 C240 C 1.06189 0.54835 0.65071
 H241 H 1.08551 0.65460 0.70560
 H242 H 1.11488 0.69032 0.77791
 H243 H 1.13472 0.55319 0.83747
 H244 H 1.10575 0.51749 0.76458
 C245 C 0.76855 0.59428 0.58493
 C246 C 0.76389 0.59680 0.63357
 C247 C 0.72276 0.61391 0.65339
 C248 C 0.68566 0.62868 0.62476
 C249 C 0.69052 0.62590 0.57591
 C250 C 0.73176 0.60877 0.55610
 C251 C 0.81137 0.57713 0.56503
 C252 C 0.84783 0.56263 0.54984
 H253 H 0.79219 0.58580 0.65620
 H254 H 0.72006 0.61623 0.69107
 H255 H 0.66232 0.63696 0.55324
 H256 H 0.73501 0.60694 0.51841
 C257 C 0.72954 0.40409 1.08079
 C258 C 0.76391 0.43574 1.09545
 C259 C 0.80499 0.41944 1.11623
 C260 C 0.81213 0.37125 1.12265
 C261 C 0.77766 0.33967 1.10732
 C262 C 0.73661 0.35602 1.08654
 C263 C 0.68620 0.42103 1.06177
 C264 C 0.64950 0.43549 1.04705
 H265 H 0.75872 0.47303 1.09130
 H266 H 0.83117 0.44435 1.12755
 H267 H 0.78218 0.30243 1.11231
 H268 H 0.71011 0.33124 1.07560
 C269 C 0.23048 1.09358 -0.08192
 C270 C 0.23770 1.14158 -0.08805
 C271 C 0.27881 1.15774 -0.10887
 C272 C 0.31321 1.12604 -0.12386
 C273 C 0.30585 1.07790 -0.11721
 C274 C 0.26470 1.06178 -0.09638
 C275 C 0.18720 1.07686 -0.06256
 C276 C 0.15055 1.06259 -0.04749
 H277 H 0.21132 1.16648 -0.07727
 H278 H 0.28349 1.19495 -0.11403
 H279 H 0.33197 1.05289 -0.12827
 H280 H 0.25938 1.02453 -0.09196
 C281 C 0.27296 -0.09370 0.41619
 C282 C 0.26819 -0.09660 0.36757
 C283 C 0.22673 -0.11324 0.34788
 C284 C 0.18939 -0.12716 0.37660
 C285 C 0.19438 -0.12406 0.42544
 C286 C 0.23596 -0.10739 0.44513
 C287 C 0.31592 -0.07640 0.43587
 C288 C 0.35247 -0.06137 0.45049
 H289 H 0.29662 -0.08615 0.34485
 H290 H 0.22395 -0.11582 0.31021
 H291 H 0.16601 -0.13446 0.44819
 H292 H 0.23925 -0.10519 0.48280
 C293 C 0.58395 -0.22668 0.59317
 C294 C 0.55495 -0.26364 0.60694
 C295 C 0.57452 -0.30519 0.62375
 C296 C 0.62330 -0.31018 0.62690
 C297 C 0.65208 -0.27289 0.61287
 C298 C 0.63251 -0.23146 0.59609
 C299 C 0.56437 -0.18371 0.57589
 C300 C 0.54975 -0.14714 0.56095
 H301 H 0.51732 -0.26034 0.60474
 H302 H 0.55171 -0.33352 0.63423
 H303 H 0.68971 -0.27567 0.61549
 H304 H 0.65527 -0.20305 0.58558
 C305 C 1.08392 0.73049 0.40863
 C306 C 1.13261 0.73419 0.40612
 C307 C 1.15332 0.77516 0.38946
 C308 C 1.12554 0.81303 0.37513
 C309 C 1.07664 0.80920 0.37811
 C310 C 1.05594 0.76813 0.39477
 C311 C 1.06307 0.68777 0.42509
 C312 C 1.04715 0.65134 0.43909
 H313 H 1.15458 0.70523 0.41668
 H314 H 1.19100 0.77706 0.38698
 H315 H 1.05460 0.83801 0.36739
 H316 H 1.01822 0.76565 0.39663
 C317 C -0.08136 1.23038 0.09572
 C318 C -0.08737 1.23722 0.14379
 C319 C -0.10811 1.27824 0.16029
 C320 C -0.12314 1.31291 0.12884
 C321 C -0.11644 1.30600 0.08064
 C322 C -0.09571 1.26495 0.06419
 C323 C -0.06241 1.18706 0.07862
 C324 C -0.04773 1.15035 0.06407
 H325 H -0.07667 1.21057 0.16847
 H326 H -0.11330 1.28258 0.19753
 H327 H -0.12754 1.33234 0.05584
 H328 H -0.09136 1.25994 0.02690
 C329 C 0.41900 0.26733 0.90391
 C330 C 0.40478 0.23260 0.93533
 C331 C 0.38447 0.19133 0.91874
 C332 C 0.37806 0.18437 0.87051
 C333 C 0.39301 0.21917 0.83915
 C334 C 0.41333 0.26041 0.85579
 C335 C 0.43744 0.31087 0.92116
 C336 C 0.45171 0.34771 0.93587
 H337 H 0.40888 0.23766 0.97266
 H338 H 0.37341 0.16489 0.94347
 H339 H 0.38802 0.21478 0.80188
 H340 H 0.42395 0.28718 0.83118
 C341 C 0.59084 0.58492 0.76955
 C342 C 0.60461 0.55676 0.73198
 C343 C 0.62133 0.57730 0.69088
 C344 C 0.62445 0.62622 0.68695
 C345 C 0.61017 0.65419 0.72474
 C346 C 0.59346 0.63364 0.76574
 C347 C 0.57441 0.56420 0.81232
 C348 C 0.56048 0.54828 0.84875
 H349 H 0.60267 0.51902 0.73455
 H350 H 0.63202 0.55512 0.66214
 H351 H 0.61276 0.69190 0.72275
 H352 H 0.58296 0.65575 0.79465
 C353 C 0.40583 0.07895 0.72900
 C354 C 0.43712 0.09320 0.76387
 C355 C 0.42043 0.11341 0.80510
 C356 C 0.37222 0.11968 0.81191
 C357 C 0.34099 0.10459 0.77702
 C358 C 0.35773 0.08438 0.73580
 C359 C 0.42327 0.06112 0.68532
 C360 C 0.43835 0.04768 0.64835
 H361 H 0.47443 0.08933 0.75890
 H362 H 0.44508 0.12455 0.83160
 H363 H 0.30374 0.10947 0.78127
 H364 H 0.33322 0.07378 0.70891
 C365 C 0.09434 0.91592 0.23117
 C366 C 0.09647 0.86725 0.23566
 C367 C 0.11335 0.84715 0.27682
 C368 C 0.12828 0.87552 0.31411
 C369 C 0.12586 0.92441 0.30943
 C370 C 0.10896 0.94450 0.26816
 C371 C 0.07738 0.93611 0.18833
 C372 C 0.06295 0.95149 0.15185
 H373 H 0.08535 0.84481 0.20720
 H374 H 0.11540 0.80945 0.27937
 H375 H 0.13705 0.94689 0.33778
 H376 H 0.10742 0.98221 0.26506
 C377 C 0.90307 0.41890 0.27059
 C378 C 0.85507 0.41286 0.26340
 C379 C 0.83881 0.39226 0.22215
 C380 C 0.87042 0.37739 0.18759
 C381 C 0.91853 0.38410 0.19486
 C382 C 0.93474 0.40470 0.23614
 C383 C 0.91995 0.43781 0.31407
 C384 C 0.93448 0.45249 0.35083
 H385 H 0.83027 0.42346 0.28995
 H386 H 0.80163 0.38705 0.21753
 H387 H 0.94346 0.37314 0.16862
 H388 H 0.97198 0.40908 0.24140
   
