data_POSCAR
  _audit_creation_date              2014-09-24
  _audit_creation_method            'ToBaCCo'
  _symmetry_space_group_name_H-M    'P1'
  _symmetry_Int_Tables_number       1
  _symmetry_cell_setting            triclinic
  loop_
  _symmetry_equiv_pos_as_xyz
 x,y,z
_cell_length_a 24.8880
_cell_length_b 25.3451
_cell_length_c 59.6736
_cell_angle_alpha 85.136400
_cell_angle_beta 90.746400
_cell_angle_gamma 118.505300
loop_
  _atom_site_label
  _atom_site_type_symbol
  _atom_site_fract_x
  _atom_site_fract_y
  _atom_site_fract_z
C1 C -0.12287 0.03786 0.51196
 C2 C -0.16833 -0.00357 0.49550
 C3 C -0.14530 -0.03211 0.48333
 C4 C -0.07840 -0.01530 0.48844
 C5 C -0.10285 -0.00266 0.52614
 C6 C -0.08046 -0.03121 0.51397
 C7 C -0.06637 0.08112 0.49754
 C8 C -0.04285 0.05413 0.48510
 H9 H -0.21555 -0.01297 0.49493
 H10 H -0.05888 -0.03761 0.47852
 H11 H -0.11206 -0.01323 0.54411
 H12 H -0.04687 0.12964 0.49721
 C13 C 1.01096 -0.08128 0.19128
 C14 C 1.05413 -0.08294 0.17346
 C15 C 1.08824 -0.02864 0.16122
 C16 C 1.07479 0.02163 0.16778
 C17 C 1.05005 -0.03267 0.20464
 C18 C 1.08579 0.02382 0.19188
 C19 C 0.97226 -0.05808 0.17817
 C20 C 1.00497 -0.00476 0.16563
 H21 H 1.06001 -0.12213 0.17184
 H22 H 1.10130 0.06552 0.15765
 H23 H 1.05586 -0.03945 0.22249
 H24 H 0.92281 -0.08376 0.17794
 C25 C 0.10318 1.02382 0.84416
 C26 C 0.10527 1.07640 0.82852
 C27 C 0.05356 1.06057 0.81636
 C28 C 0.00527 0.99368 0.82082
 C29 C 0.04456 1.00044 0.85846
 C30 C -0.00666 0.98584 0.84644
 C31 C 0.09059 0.97458 0.82880
 C32 C 0.03962 0.95820 0.81655
 H33 H 0.14232 1.12217 0.82813
 H34 H -0.03684 0.97999 0.81101
 H35 H 0.04537 1.00380 0.87647
 H36 H 0.12067 0.95499 0.82759
 O37 O 0.50021 0.00327 -0.01641
 O38 O 0.61384 0.00284 0.02411
 O39 O 0.50648 -0.00256 0.02722
 O40 O 0.59857 -0.00658 -0.01879
 O41 O 0.64996 0.09292 -0.02306
 O42 O 0.55303 0.09695 0.02308
 O43 O 0.66175 0.10237 0.02048
 O44 O 0.55119 0.10283 -0.02048
 Cu45 Cu 0.54992 -0.01050 0.00455
 Cu46 Cu 0.60928 0.10867 -0.00020
 C47 C 0.50700 0.05350 -0.02547
 C48 C 0.65756 0.05300 0.02901
 C49 C 0.51227 0.04702 0.03268
 C50 C 0.63941 0.04171 -0.02894
 O51 O -0.12451 0.51314 0.64505
 O52 O -0.10673 0.41337 0.69059
 O53 O -0.10972 0.51638 0.68837
 O54 O -0.13731 0.40477 0.64860
 O55 O -0.03832 0.44725 0.64034
 O56 O -0.01078 0.56234 0.67977
 O57 O -0.00753 0.45968 0.68249
 O58 O -0.02545 0.55477 0.63700
 Cu59 Cu -0.12930 0.45764 0.66910
 Cu60 Cu -0.01071 0.51000 0.65931
 C61 C -0.07735 0.55070 0.63318
 C62 C -0.05340 0.41965 0.69400
 C63 C -0.05632 0.55927 0.69045
 C64 C -0.09311 0.40706 0.63752
 O65 O 0.53951 0.54760 0.31302
 O66 O 0.40866 0.44787 0.35187
 O67 O 0.50821 0.55221 0.35418
 O68 O 0.43531 0.45275 0.30976
 O69 O 0.48066 0.39857 0.32054
 O70 O 0.55764 0.50203 0.36490
 O71 O 0.45749 0.39744 0.36313
 O72 O 0.58536 0.49399 0.32394
 Cu73 Cu 0.46841 0.50555 0.33134
 Cu74 Cu 0.52479 0.44273 0.34437
 C75 C 0.58430 0.53679 0.31169
 C76 C 0.41060 0.40471 0.36377
 C77 C 0.54632 0.54550 0.36673
 C78 C 0.44515 0.40885 0.30748
 N79 N -0.15868 0.15605 0.52813
 C80 C -0.15855 0.14875 0.55091
 N81 N -0.15372 0.10130 0.56088
 N82 N -0.14709 0.06343 0.54851
 C83 C -0.14505 0.07150 0.52567
 N84 N -0.15227 0.11792 0.51572
 C85 C -0.15347 0.19518 0.56428
 C86 C -0.14508 0.23420 0.57625
 C87 C -0.13208 0.28003 0.59115
 N88 N -0.17762 0.27925 0.60359
 N89 N -0.16494 0.31997 0.61832
 C90 C -0.10631 0.36257 0.62122
 N91 N -0.06075 0.36329 0.60872
 N92 N -0.07346 0.32253 0.59398
 N93 N 0.92565 0.80739 0.23941
 C94 C 0.88151 0.76181 0.22887
 N95 N 0.88336 0.76469 0.20608
 N96 N 0.92721 0.81261 0.19419
 C97 C 0.97053 0.85943 0.20469
 N98 N 0.96929 0.85527 0.22756
 C99 C 0.82917 0.71618 0.24162
 C100 C 0.78475 0.68113 0.25297
 C101 C 0.73211 0.64238 0.26712
 N102 N 0.68454 0.65420 0.26831
 N103 N 0.63706 0.62041 0.28243
 C104 C 0.63585 0.57390 0.29589
 N105 N 0.68352 0.56215 0.29460
 N106 N 0.73095 0.59592 0.28050
 N107 N 0.20146 -0.00266 -0.11451
 C108 C 0.25188 0.05192 -0.11487
 N109 N 0.25450 0.09855 -0.12872
 N110 N 0.20778 0.09053 -0.14184
 C111 C 0.15711 0.03560 -0.14146
 N112 N 0.15500 -0.01065 -0.12756
 C113 C 0.30100 0.05901 -0.10051
 C114 C 0.33968 0.06064 -0.08782
 C115 C 0.38324 0.05901 -0.07223
 N116 N 0.43113 0.11071 -0.06640
 N117 N 0.47062 0.10876 -0.05150
 C118 C 0.46346 0.05511 -0.04193
 N119 N 0.41546 0.00340 -0.04782
 N120 N 0.37598 0.00537 -0.06272
 N121 N -0.07616 0.82496 0.52270
 C122 C -0.07381 0.81860 0.54545
 N123 N -0.06952 0.86320 0.55753
 N124 N -0.06899 0.91211 0.54730
 C125 C -0.07237 0.91848 0.52458
 N126 N -0.07552 0.87415 0.51242
 C127 C -0.07810 0.76483 0.55709
 C128 C -0.08137 0.72161 0.56836
 C129 C -0.08313 0.67322 0.58318
 N130 N -0.13418 0.63562 0.59589
 N131 N -0.13332 0.59515 0.61152
 C132 C -0.08117 0.59142 0.61501
 N133 N -0.03043 0.62884 0.60213
 N134 N -0.03132 0.66911 0.58653
 N135 N 0.18417 0.11345 0.23418
 C136 C 0.22283 0.16495 0.22186
 N137 N 0.21505 0.17044 0.19938
 N138 N 0.17017 0.12518 0.18953
 C139 C 0.13153 0.07310 0.20187
 N140 N 0.13952 0.06845 0.22438
 C141 C 0.27014 0.21280 0.23301
 C142 C 0.30735 0.25072 0.24398
 C143 C 0.34801 0.29396 0.25848
 N144 N 0.34484 0.34525 0.26039
 N145 N 0.37714 0.38237 0.27570
 C146 C 0.41349 0.36939 0.28972
 N147 N 0.41708 0.31821 0.28767
 N148 N 0.38463 0.28097 0.27234
 N149 N 0.85940 0.00691 -0.14342
 C150 C 0.85087 -0.00612 -0.12080
 N151 N 0.88549 -0.02679 -0.10944
 N152 N 0.92850 -0.03270 -0.12019
 C153 C 0.93828 -0.01853 -0.14275
 N154 N 0.90248 0.00082 -0.15423
 C155 C 0.80935 0.00573 -0.10842
 C156 C 0.77661 0.01501 -0.09650
 C157 C 0.73890 0.02350 -0.08077
 N158 N 0.69070 -0.02525 -0.07029
 N159 N 0.65883 -0.01878 -0.05404
 C160 C 0.67415 0.03662 -0.04756
 N161 N 0.72228 0.08565 -0.05816
 N162 N 0.75434 0.07912 -0.07445
 N163 N 0.22229 0.05192 0.12219
 C164 C 0.23636 0.00788 0.11845
 N165 N 0.20080 -0.04867 0.12825
 N166 N 0.15297 -0.06072 0.14155
 C167 C 0.13888 -0.01664 0.14545
 N168 N 0.17446 0.03986 0.13549
 C169 C 0.28835 0.02072 0.10437
 C170 C 0.33126 0.02939 0.09254
 C171 C 0.38056 0.03584 0.07831
 N172 N 0.42161 0.09031 0.06813
 N173 N 0.46514 0.09475 0.05404
 C174 C 0.46893 0.04481 0.04972
 N175 N 0.42802 -0.00937 0.06010
 N176 N 0.38474 -0.01377 0.07415
 N177 N 0.80797 0.84179 0.44780
 C178 C 0.74729 0.82263 0.44581
 N179 N 0.72195 0.85235 0.45556
 N180 N 0.75617 0.89939 0.46715
 C181 C 0.81699 0.91850 0.46929
 N182 N 0.84212 0.88876 0.45936
 C183 C 0.71052 0.77152 0.43350
 C184 C 0.68004 0.72905 0.42290
 C185 C 0.64379 0.67973 0.40971
 N186 N 0.59740 0.67998 0.39767
 N187 N 0.56556 0.63620 0.38446
 C188 C 0.57882 0.59049 0.38284
 N189 N 0.62508 0.59002 0.39505
 N190 N 0.65702 0.63394 0.40828
 N191 N 0.06874 0.20300 0.78819
 C192 C 0.01419 0.18366 0.77806
 N193 N -0.02654 0.12406 0.78011
 N194 N -0.01339 0.08509 0.79206
 C195 C 0.04101 0.10415 0.80232
 N196 N 0.08189 0.16395 0.80016
 C197 C 0.00002 0.22551 0.76499
 C198 C -0.01134 0.26051 0.75364
 C199 C -0.02286 0.30264 0.73950
 N200 N -0.08071 0.29345 0.73625
 N201 N -0.09090 0.33135 0.72216
 C202 C -0.04346 0.37963 0.71087
 N203 N 0.01427 0.38871 0.71431
 N204 N 0.02441 0.35097 0.72837
 N205 N 0.88195 0.01548 0.13858
 C206 C 0.90933 0.04826 0.11905
 N207 N 0.96993 0.06762 0.11538
 N208 N 1.00177 0.05358 0.13070
 C209 C 0.97386 0.01950 0.15010
 N210 N 0.91357 0.00133 0.15378
 C211 C 0.87227 0.05630 0.10188
 C212 C 0.83717 0.05857 0.08819
 C213 C 0.79222 0.05748 0.07261
 N214 N 0.79447 0.10940 0.06356
 N215 N 0.75139 0.10784 0.04970
 C216 C 0.70446 0.05435 0.04452
 N217 N 0.70234 0.00244 0.05363
 N218 N 0.74543 0.00402 0.06748
 N219 N 0.08310 0.09857 0.44307
 C220 C 0.11000 0.15969 0.44217
 N221 N 0.08702 0.18548 0.45534
 N222 N 0.03869 0.15150 0.46894
 C223 C 0.01134 0.09038 0.46997
 N224 N 0.03449 0.06442 0.45675
 C225 C 0.16214 0.19770 0.42759
 C226 C 0.20595 0.23274 0.41589
 C227 C 0.25813 0.27661 0.40245
 N228 N 0.25613 0.32346 0.39037
 N229 N 0.30494 0.36494 0.37826
 C230 C 0.35753 0.36113 0.37795
 N231 N 0.35938 0.31426 0.39013
 N232 N 0.31061 0.27283 0.40224
 N233 N 0.04256 0.84152 0.78462
 C234 C -0.00647 0.82591 0.77149
 N235 N -0.04139 0.85352 0.77311
 N236 N -0.02733 0.89566 0.78746
 C237 C 0.02208 0.91139 0.80063
 N238 N 0.05652 0.88339 0.79887
 C239 C -0.02016 0.78050 0.75627
 C240 C -0.02821 0.74193 0.74408
 C241 C -0.03541 0.69564 0.73013
 N242 N -0.09103 0.64711 0.72828
 N243 N -0.09730 0.60342 0.71583
 C244 C -0.04815 0.60650 0.70492
 N245 N 0.00758 0.65510 0.70685
 N246 N 0.01384 0.69883 0.71932
   
