data_POSCAR
  _audit_creation_date              2014-09-24
  _audit_creation_method            'ToBaCCo'
  _symmetry_space_group_name_H-M    'P1'
  _symmetry_Int_Tables_number       1
  _symmetry_cell_setting            triclinic
  loop_
  _symmetry_equiv_pos_as_xyz
 x,y,z
_cell_length_a 35.3847
_cell_length_b 36.6025
_cell_length_c 36.3598
_cell_angle_alpha 90.551600
_cell_angle_beta 89.829600
_cell_angle_gamma 90.259300
loop_
  _atom_site_label
  _atom_site_type_symbol
  _atom_site_fract_x
  _atom_site_fract_y
  _atom_site_fract_z
C1 C 0.32120 0.36615 1.37015
 C2 C 0.33474 0.38158 1.33710
 C3 C 0.36493 0.36595 1.31767
 C4 C 0.38254 0.33485 1.33164
 C5 C 0.37008 0.31830 1.36436
 C6 C 0.33965 0.33470 1.38354
 H7 H 0.32230 0.40612 1.32624
 H8 H 0.40708 0.32452 1.31720
 H9 H 0.32787 0.32081 1.40701
 C10 C 1.17235 0.62614 0.87808
 C11 C 1.15574 0.65890 0.89101
 C12 C 1.12526 0.67497 0.87248
 C13 C 1.11105 0.65804 0.84059
 C14 C 1.12698 0.62562 0.82693
 C15 C 1.15735 0.60997 0.84576
 H16 H 1.16514 0.67140 0.91646
 H17 H 1.08774 0.67038 0.82610
 H18 H 1.17069 0.58630 0.83343
 C19 C 0.67432 -0.12804 0.12022
 C20 C 0.65638 -0.16019 0.10723
 C21 C 0.62702 -0.17703 0.12723
 C22 C 0.61429 -0.16060 0.16001
 C23 C 0.63100 -0.12826 0.17318
 C24 C 0.66040 -0.11207 0.15303
 H25 H 0.66645 -0.17367 0.08255
 H26 H 0.59269 -0.17396 0.17630
 H27 H 0.67157 -0.08624 0.16288
 C28 C -0.17877 1.13618 -0.36174
 C29 C -0.16318 1.16900 -0.37518
 C30 C -0.13111 1.18509 -0.35910
 C31 C -0.11389 1.16797 -0.32931
 C32 C -0.12883 1.13545 -0.31495
 C33 C -0.16085 1.11955 -0.33154
 H34 H -0.17484 1.18166 -0.39937
 H35 H -0.08923 1.18046 -0.31676
 H36 H -0.17314 1.09556 -0.31904
 C37 C 0.66547 0.63117 0.62726
 C38 C 0.65083 0.61814 0.66040
 C39 C 0.62095 0.63622 0.67802
 C40 C 0.60601 0.66806 0.66249
 C41 C 0.62030 0.68199 0.62900
 C42 C 0.64962 0.66224 0.61134
 H43 H 0.66324 0.59427 0.67289
 H44 H 0.58431 0.68240 0.67774
 H45 H 0.66074 0.67066 0.58504
 C46 C 0.83280 0.37164 0.12427
 C47 C 0.84956 0.33984 0.10989
 C48 C 0.87934 0.32226 0.12840
 C49 C 0.89195 0.33772 0.16193
 C50 C 0.87601 0.36994 0.17615
 C51 C 0.84671 0.38692 0.15706
 H52 H 0.83789 0.32811 0.08495
 H53 H 0.91543 0.32588 0.17656
 H54 H 0.83350 0.41105 0.16875
 C55 C 0.33790 0.12643 0.87965
 C56 C 0.34967 0.10878 0.84681
 C57 C 0.37924 0.12295 0.82529
 C58 C 0.39799 0.15480 0.83707
 C59 C 0.38719 0.17288 0.86952
 C60 C 0.35760 0.15838 0.89075
 H61 H 0.33416 0.08552 0.83608
 H62 H 0.42120 0.16555 0.82092
 H63 H 0.35024 0.17237 0.91604
 C64 C 0.17098 0.86876 0.37043
 C65 C 0.15202 0.88596 0.34113
 C66 C 0.11920 0.87091 0.32562
 C67 C 0.10366 0.83907 0.34039
 C68 C 0.12093 0.82200 0.37022
 C69 C 0.15450 0.83664 0.38490
 H70 H 0.16233 0.91135 0.32988
 H71 H 0.07836 0.82729 0.32832
 H72 H 0.16809 0.82182 0.40672
 Zn73 Zn 0.05045 0.97702 0.01004
 Zn74 Zn 0.01706 1.04459 -0.02004
 Zn75 Zn -0.02342 0.97347 -0.03083
 Zn76 Zn -0.01899 1.00938 0.04376
 O77 O 0.00621 1.00091 0.00069
 O78 O 0.09200 1.00221 -0.00381
 O79 O -0.00277 1.04874 -0.06440
 O80 O -0.00123 0.93097 -0.04382
 O81 O 0.06628 1.05244 -0.02555
 O82 O 0.05292 0.93417 -0.01360
 O83 O -0.03393 0.99693 -0.07321
 O84 O -0.06442 0.98830 0.04402
 O85 O -0.00050 1.08278 0.00536
 O86 O -0.06838 0.96142 -0.01062
 O87 O -0.02722 1.05685 0.05344
 O88 O 0.00511 0.99169 0.08276
 O89 O 0.05610 0.96672 0.05790
 C90 C 0.09517 1.03349 -0.01837
 C91 C -0.02359 1.02833 -0.08416
 C92 C 0.03046 0.91733 -0.03508
 C93 C -0.08249 0.96907 0.02071
 C94 C -0.01866 1.08519 0.03536
 C95 C 0.03568 0.97402 0.08579
 Zn96 Zn 0.50614 0.04651 0.51829
 Zn97 Zn 0.54639 -0.01919 0.49027
 Zn98 Zn 0.46961 -0.02788 0.52437
 Zn99 Zn 0.47955 0.00791 0.45096
 O100 O 0.50028 0.00179 0.49615
 O101 O 0.55455 0.05708 0.52929
 O102 O 0.54960 -0.06123 0.51366
 O103 O 0.45434 -0.00534 0.56614
 O104 O 0.58392 0.00790 0.50845
 O105 O 0.48139 0.04905 0.56096
 O106 O 0.49317 -0.06917 0.53873
 O107 O 0.43621 -0.01602 0.44640
 O108 O 0.55826 -0.02931 0.44340
 O109 O 0.42735 -0.04239 0.50030
 O110 O 0.50827 -0.00890 0.41401
 O111 O 0.46926 0.05453 0.44103
 O112 O 0.48858 0.08357 0.49117
 C113 C 0.58461 0.03877 0.52451
 C114 C 0.52682 -0.07987 0.53290
 C115 C 0.46108 0.02658 0.57870
 C116 C 0.41676 -0.03602 0.46760
 C117 C 0.54028 -0.02433 0.41375
 C118 C 0.47362 0.08386 0.45946
 Zn119 Zn 1.01963 0.50915 0.45738
 Zn120 Zn 1.02554 0.47259 0.53087
 Zn121 Zn 0.98805 0.54573 0.52429
 Zn122 Zn 0.95082 0.47983 0.49332
 O123 O 0.99619 0.50179 0.50155
 O124 O 1.06425 0.48687 0.45490
 O125 O 1.03914 0.49533 0.57304
 O126 O 1.00487 0.58357 0.49793
 O127 O 1.06893 0.45897 0.50842
 O128 O 1.02904 0.55639 0.44866
 O129 O 1.01141 0.54907 0.56758
 O130 O 0.91137 0.50609 0.50886
 O131 O 1.00160 0.43099 0.54435
 O132 O 0.93913 0.55449 0.53372
 O133 O 0.94677 0.43759 0.51626
 O134 O 0.94261 0.46933 0.44617
 O135 O 0.99324 0.49179 0.41865
 C136 C 1.08225 0.46665 0.47688
 C137 C 1.03175 0.52708 0.58555
 C138 C 1.02180 0.58512 0.46715
 C139 C 0.90950 0.53636 0.52600
 C140 C 0.96859 0.41942 0.53664
 C141 C 0.96176 0.47503 0.41728
 Zn142 Zn 0.51186 0.45476 1.02005
 Zn143 Zn 0.47083 0.52623 1.03071
 Zn144 Zn 0.54680 0.52330 0.99379
 Zn145 Zn 0.48019 0.49235 0.95539
 O146 O 0.50223 0.49926 1.00014
 O147 O 0.48829 0.44921 1.06282
 O148 O 0.49277 0.56838 1.04697
 O149 O 0.58708 0.49773 1.00771
 O150 O 0.45743 0.50109 1.07152
 O151 O 0.56100 0.44720 1.02888
 O152 O 0.54900 0.56385 1.02044
 O153 O 0.50594 0.51294 0.91841
 O154 O 0.42707 0.53854 1.00833
 O155 O 0.55505 0.53700 0.94737
 O156 O 0.43440 0.51189 0.95385
 O157 O 0.47380 0.44522 0.94322
 O158 O 0.49662 0.41718 0.99177
 C159 C 0.46644 0.46920 1.08197
 C160 C 0.52602 0.58052 1.04137
 C161 C 0.59001 0.46671 1.02263
 C162 C 0.53634 0.53146 0.91812
 C163 C 0.41475 0.53049 0.97640
 C164 C 0.48114 0.41608 0.96035
 C165 C 1.22351 0.40822 0.42352
 C166 C 1.25059 0.38946 0.44408
 C167 C 1.28291 0.37579 0.42665
 C168 C 1.28895 0.38080 0.38858
 C169 C 1.26113 0.40049 0.36940
 N170 N 1.22989 0.41318 0.38702
 C171 C 1.18813 0.42319 0.43963
 N172 N 1.16795 0.44712 0.41918
 C173 C 1.13464 0.46150 0.43074
 C174 C 1.11927 0.45177 0.46494
 C175 C 1.13953 0.42724 0.48673
 C176 C 1.17386 0.41281 0.47420
 H177 H 1.30368 0.36250 0.44363
 H178 H 1.26279 0.40446 0.34005
 H179 H 1.12012 0.48033 0.41294
 H180 H 1.12862 0.41880 0.51319
 H181 H 1.24755 0.38576 0.47339
 H182 H 1.18826 0.39326 0.49119
 C183 C 0.26953 0.58024 0.92693
 C184 C 0.24412 0.55769 0.90776
 C185 C 0.21169 0.57261 0.89251
 C186 C 0.20386 0.61025 0.89617
 C187 C 0.22925 0.63137 0.91768
 N188 N 0.26101 0.61614 0.93186
 C189 C 0.30608 0.56610 0.94035
 N190 N 0.32267 0.58145 0.97060
 C191 C 0.35691 0.57022 0.98324
 C192 C 0.37680 0.54252 0.96458
 C193 C 0.36018 0.52661 0.93327
 C194 C 0.32502 0.53821 0.92115
 H195 H 0.19245 0.55408 0.87863
 H196 H 0.22553 0.66044 0.92147
 H197 H 0.36884 0.58338 1.00736
 H198 H 0.37446 0.50524 0.91790
 H199 H 0.24909 0.52867 0.90457
 H200 H 0.31342 0.52610 0.89635
 C201 C -0.22711 0.91376 0.06844
 C202 C -0.25355 0.89400 0.04744
 C203 C -0.28632 0.88052 0.06424
 C204 C -0.29340 0.88677 0.10205
 C205 C -0.26620 0.90750 0.12161
 N206 N -0.23455 0.91991 0.10465
 C207 C -0.19107 0.92826 0.05337
 N208 N -0.17109 0.95220 0.07466
 C209 C -0.13701 0.96588 0.06445
 C210 C -0.12053 0.95532 0.03086
 C211 C -0.14062 0.93092 0.00810
 C212 C -0.17582 0.91724 0.01924
 H213 H -0.30650 0.86630 0.04695
 H214 H -0.26859 0.91240 0.15086
 H215 H -0.12270 0.98471 0.08290
 H216 H -0.12887 0.92191 -0.01797
 H217 H -0.24959 0.88921 0.01832
 H218 H -0.19009 0.89772 0.00160
 C219 C 0.72298 0.09140 0.58895
 C220 C 0.74847 0.06826 0.60666
 C221 C 0.78071 0.08294 0.62326
 C222 C 0.78816 0.12082 0.62215
 C223 C 0.76127 0.14292 0.60437
 N224 N 0.72992 0.12792 0.58882
 C225 C 0.68822 0.07736 0.57124
 N226 N 0.65728 0.09928 0.56965
 C227 C 0.62418 0.08797 0.55428
 C228 C 0.62099 0.05270 0.53908
 C229 C 0.65291 0.03005 0.53956
 C230 C 0.68646 0.04221 0.55559
 H231 H 0.80034 0.06415 0.63562
 H232 H 0.76406 0.17233 0.60392
 H233 H 0.60035 0.10641 0.55431
 H234 H 0.65184 0.00267 0.52803
 H235 H 0.74348 0.03912 0.60812
 H236 H 0.71076 0.02436 0.55535
 C237 C 0.41787 0.21913 0.40121
 C238 C 0.41973 0.22805 0.36387
 C239 C 0.40429 0.26075 0.35183
 C240 C 0.38680 0.28528 0.37674
 C241 C 0.38627 0.27527 0.41419
 N242 N 0.40170 0.24319 0.42519
 C243 C 0.43302 0.18421 0.41508
 N244 N 0.44523 0.18231 0.45050
 C245 C 0.45891 0.15093 0.46508
 C246 C 0.46040 0.11874 0.44374
 C247 C 0.44769 0.12008 0.40726
 C248 C 0.43403 0.15260 0.39287
 H249 H 0.40481 0.26561 0.32255
 H250 H 0.37476 0.29325 0.43511
 H251 H 0.46810 0.15106 0.49345
 H252 H 0.44798 0.09590 0.38986
 H253 H 0.43307 0.21010 0.34396
 H254 H 0.42354 0.15258 0.36496
 C255 C 0.91047 0.28613 0.59816
 C256 C 0.87149 0.28106 0.60358
 C257 C 0.85816 0.24828 0.61779
 C258 C 0.88343 0.22047 0.62699
 C259 C 0.92232 0.22705 0.62249
 N260 N 0.93471 0.25924 0.60826
 C261 C 0.92546 0.31995 0.58146
 N262 N 0.96079 0.33212 0.59030
 C263 C 0.97559 0.36344 0.57613
 C264 C 0.95440 0.38441 0.55153
 C265 C 0.91837 0.37171 0.54147
 C266 C 0.90395 0.33962 0.55616
 H267 H 0.82803 0.24477 0.62185
 H268 H 0.94276 0.20633 0.62940
 H269 H 1.00363 0.37208 0.58439
 H270 H 0.90111 0.38659 0.52220
 H271 H 0.85137 0.30225 0.59727
 H272 H 0.87636 0.33023 0.54733
 C273 C 0.07839 0.77656 -0.08983
 C274 C 0.05416 0.74869 -0.10257
 C275 C 0.06936 0.71550 -0.11462
 C276 C 0.10857 0.70980 -0.11390
 C277 C 0.13171 0.73815 -0.10049
 N278 N 0.11628 0.77022 -0.08898
 C279 C 0.06434 0.81242 -0.07641
 N280 N 0.08736 0.83303 -0.05454
 C281 C 0.07712 0.86633 -0.04119
 C282 C 0.04171 0.88108 -0.04986
 C283 C 0.01755 0.86054 -0.07268
 C284 C 0.02874 0.82629 -0.08606
 H285 H 0.05038 0.69411 -0.12403
 H286 H 0.16211 0.73512 -0.09973
 H287 H 0.09679 0.88120 -0.02384
 H288 H -0.00990 0.87095 -0.08029
 H289 H 0.02382 0.75196 -0.10269
 H290 H 0.00988 0.81143 -0.10419
 C291 C 0.58456 0.71725 1.09561
 C292 C 0.62308 0.72570 1.09099
 C293 C 0.63666 0.76000 1.10127
 C294 C 0.61209 0.78659 1.11551
 C295 C 0.57362 0.77741 1.11911
 N296 N 0.56099 0.74351 1.10914
 C297 C 0.56907 0.68085 1.08505
 N298 N 0.53154 0.67710 1.07715
 C299 C 0.51631 0.64486 1.06503
 C300 C 0.53958 0.61438 1.05939
 C301 C 0.57782 0.61728 1.06884
 C302 C 0.59251 0.65008 1.08212
 H303 H 0.66662 0.76546 1.09848
 H304 H 0.55357 0.79721 1.12959
 H305 H 0.48657 0.64354 1.05824
 H306 H 0.59653 0.59411 1.06563
 H307 H 0.64278 0.70642 1.07911
 H308 H 0.62200 0.65103 1.08971
 C309 C 0.40527 0.40908 1.21564
 C310 C 0.39954 0.37130 1.21936
 C311 C 0.38600 0.35752 1.25244
 C312 C 0.37774 0.38113 1.28194
 C313 C 0.38238 0.41889 1.27671
 N314 N 0.39599 0.43175 1.24418
 C315 C 0.42164 0.42444 1.18150
 N316 N 0.41270 0.45904 1.17112
 C317 C 0.42670 0.47421 1.13975
 C318 C 0.45134 0.45425 1.11686
 C319 C 0.46143 0.41889 1.12765
 C320 C 0.44686 0.40404 1.15978
 H321 H 0.38179 0.32832 1.25491
 H322 H 0.37619 0.43806 1.29874
 H323 H 0.41840 0.50167 1.13266
 H324 H 0.48068 0.40253 1.11124
 H325 H 0.40515 0.35244 1.19693
 H326 H 0.45580 0.37700 1.16766
 C327 C 0.59741 -0.08202 0.27677
 C328 C 0.63594 -0.08420 0.26771
 C329 C 0.64676 -0.09932 0.23399
 C330 C 0.61942 -0.11218 0.20909
 C331 C 0.58120 -0.10933 0.21906
 N332 N 0.57130 -0.09436 0.25208
 C333 C 0.58436 -0.06626 0.31221
 N334 N 0.54911 -0.05163 0.31431
 C335 C 0.53487 -0.03733 0.34606
 C336 C 0.55634 -0.03768 0.37850
 C337 C 0.59273 -0.05271 0.37699
 C338 C 0.60682 -0.06699 0.34401
 H339 H 0.67658 -0.10123 0.22751
 H340 H 0.55924 -0.11855 0.20046
 H341 H 0.50655 -0.02630 0.34602
 H342 H 0.61014 -0.05389 0.40139
 H343 H 0.65758 -0.07389 0.28605
 H344 H 0.63454 -0.07932 0.34387
 C345 C -0.08093 1.08936 -0.21789
 C346 C -0.08451 1.12741 -0.22081
 C347 C -0.10010 1.14225 -0.25238
 C348 C -0.11229 1.11944 -0.28125
 C349 C -0.10900 1.08144 -0.27696
 N350 N -0.09366 1.06753 -0.24579
 C351 C -0.06417 1.07284 -0.18478
 N352 N -0.07646 1.03954 -0.17310
 C353 C -0.06326 1.02405 -0.14173
 C354 C -0.03629 1.04249 -0.12007
 C355 C -0.02238 1.07617 -0.13252
 C356 C -0.03606 1.09128 -0.16474
 H357 H -0.10322 1.17161 -0.25388
 H358 H -0.11809 1.06284 -0.29852
 H359 H -0.07448 0.99787 -0.13332
 H360 H -0.00115 1.09120 -0.11713
 H361 H -0.07607 1.14562 -0.19868
 H362 H -0.02464 1.11717 -0.17377
 C363 C 1.08779 0.57749 0.72591
 C364 C 1.09711 0.55485 0.75551
 C365 C 1.10966 0.57052 0.78848
 C366 C 1.11286 0.60864 0.79224
 C367 C 1.10286 0.63025 0.76213
 N368 N 1.09074 0.61438 0.73033
 C369 C 1.07390 0.56286 0.69025
 N370 N 1.05412 0.58552 0.66805
 C371 C 1.04053 0.57468 0.63479
 C372 C 1.04680 0.53896 0.62176
 C373 C 1.06750 0.51514 0.64394
 C374 C 1.08113 0.52694 0.67813
 H375 H 1.11637 0.55283 0.81123
 H376 H 1.10526 0.65971 0.76357
 H377 H 1.02491 0.59409 0.61860
 H378 H 1.07323 0.48743 0.63488
 H379 H 1.09412 0.52548 0.75371
 H380 H 1.09762 0.50826 0.69433
 C381 C 0.76573 0.58702 0.57914
 C382 C 0.73344 0.59115 0.55722
 C383 C 0.70034 0.60496 0.57297
 C384 C 0.69927 0.61410 0.61050
 C385 C 0.73195 0.60901 0.63153
 N386 N 0.76402 0.59618 0.61547
 C387 C 0.80203 0.57429 0.56366
 N388 N 0.83479 0.58721 0.57853
 C389 C 0.86929 0.57628 0.56628
 C390 C 0.87219 0.55018 0.53791
 C391 C 0.83876 0.53635 0.52228
 C392 C 0.80366 0.54850 0.53490
 H393 H 0.67567 0.60875 0.55588
 H394 H 0.73232 0.61630 0.66045
 H395 H 0.89435 0.58736 0.57933
 H396 H 0.83976 0.51604 0.50045
 H397 H 0.73402 0.58487 0.52808
 H398 H 0.77818 0.53708 0.52296
 C399 C 0.73390 0.41631 1.07466
 C400 C 0.76292 0.43994 1.08659
 C401 C 0.79544 0.42543 1.10237
 C402 C 0.79920 0.38753 1.10622
 C403 C 0.76965 0.36490 1.09383
 N404 N 0.73816 0.37965 1.07886
 C405 C 0.69788 0.42994 1.05952
 N406 N 0.66657 0.40832 1.06190
 C407 C 0.63216 0.41908 1.04967
 C408 C 0.62774 0.45363 1.03386
 C409 C 0.65984 0.47602 1.03024
 C410 C 0.69489 0.46430 1.04294
 H411 H 0.81759 0.44380 1.11165
 H412 H 0.77109 0.33556 1.09691
 H413 H 0.60827 0.40080 1.05278
 H414 H 0.65781 0.50278 1.01798
 H415 H 0.76031 0.46929 1.08482
 H416 H 0.71922 0.48194 1.03948
 C417 C 0.23932 1.08909 -0.06573
 C418 C 0.25095 1.12548 -0.06131
 C419 C 0.28385 1.13760 -0.07852
 C420 C 0.30588 1.11363 -0.10032
 C421 C 0.29384 1.07677 -0.10237
 N422 N 0.26147 1.06575 -0.08543
 C423 C 0.20276 1.07592 -0.05093
 N424 N 0.19837 1.03994 -0.04252
 C425 C 0.16477 1.02590 -0.03080
 C426 C 0.13283 1.04839 -0.02792
 C427 C 0.13686 1.08553 -0.03634
 C428 C 0.17162 1.09936 -0.04775
 H429 H 0.29029 1.16641 -0.07615
 H430 H 0.31022 1.05635 -0.11689
 H431 H 0.16279 0.99704 -0.02481
 H432 H 0.11297 1.10387 -0.03466
 H433 H 0.23460 1.14473 -0.04512
 H434 H 0.17351 1.12783 -0.05528
 C435 C 0.27634 -0.09143 0.40977
 C436 C 0.26392 -0.08207 0.37456
 C437 C 0.22942 -0.09516 0.36173
 C438 C 0.20604 -0.11729 0.38390
 C439 C 0.21943 -0.12523 0.41958
 N440 N 0.25350 -0.11226 0.43130
 C441 C 0.31336 -0.07867 0.42414
 N442 N 0.31925 -0.07705 0.46119
 C443 C 0.35224 -0.06448 0.47598
 C444 C 0.38144 -0.05212 0.45297
 C445 C 0.37630 -0.05460 0.41482
 C446 C 0.34270 -0.06814 0.40035
 H447 H 0.22237 -0.08882 0.33363
 H448 H 0.20264 -0.14068 0.43884
 H449 H 0.35525 -0.06330 0.50558
 H450 H 0.39841 -0.04618 0.39600
 H451 H 0.28036 -0.06461 0.35675
 H452 H 0.34021 -0.07048 0.37081
 C453 C 0.58177 -0.21677 0.58761
 C454 C 0.61717 -0.23028 0.57693
 C455 C 0.62967 -0.26349 0.59041
 C456 C 0.60694 -0.28448 0.61429
 C457 C 0.57095 -0.27018 0.62333
 N458 N 0.55958 -0.23738 0.60997
 C459 C 0.56810 -0.18082 0.57483
 N460 N 0.53026 -0.17393 0.57388
 C461 C 0.51613 -0.14173 0.56146
 C462 C 0.54070 -0.11440 0.54865
 C463 C 0.57971 -0.12063 0.55043
 C464 C 0.59347 -0.15342 0.56374
 H465 H 0.65809 -0.27137 0.58302
 H466 H 0.55115 -0.28520 0.64012
 H467 H 0.48584 -0.13785 0.56085
 H468 H 0.59978 -0.10003 0.54165
 H469 H 0.63538 -0.21556 0.55824
 H470 H 0.62373 -0.15683 0.56555
 C471 C 1.07387 0.72340 0.41277
 C472 C 1.05067 0.75410 0.40868
 C473 C 1.06602 0.78631 0.39471
 C474 C 1.10442 0.78809 0.38528
 C475 C 1.12665 0.75685 0.38980
 N476 N 1.11097 0.72561 0.40295
 C477 C 1.05892 0.68844 0.42669
 N478 N 1.07405 0.65664 0.41388
 C479 C 1.06213 0.62345 0.42584
 C480 C 1.03385 0.62101 0.45287
 C481 C 1.01810 0.65347 0.46672
 C482 C 1.03037 0.68721 0.45355
 H483 H 1.04802 0.80991 0.39145
 H484 H 1.15629 0.75709 0.38233
 H485 H 1.07528 0.59909 0.41471
 H486 H 0.99633 0.65279 0.48771
 H487 H 1.02088 0.75307 0.41546
 H488 H 1.01831 0.71199 0.46493
 C489 C -0.07301 1.22463 0.08617
 C490 C -0.08853 1.25001 0.06196
 C491 C -0.10417 1.28220 0.07582
 C492 C -0.10438 1.28972 0.11396
 C493 C -0.08818 1.26330 0.13713
 N494 N -0.07363 1.23188 0.12289
 C495 C -0.05738 1.18954 0.07285
 N496 N -0.05991 1.15961 0.09469
 C497 C -0.04725 1.12621 0.08367
 C498 C -0.03073 1.12160 0.04878
 C499 C -0.02691 1.15236 0.02627
 C500 C -0.04018 1.18627 0.03815
 H501 H -0.11488 1.30158 0.05619
 H502 H -0.08855 1.26649 0.16671
 H503 H -0.05044 1.10331 0.10204
 H504 H -0.01413 1.15015 -0.00075
 H505 H -0.08927 1.24489 0.03261
 H506 H -0.03674 1.20963 0.02042
 C507 C 0.43435 0.27642 0.90146
 C508 C 0.42762 0.26879 0.86409
 C509 C 0.41298 0.23480 0.85367
 C510 C 0.40526 0.20815 0.88020
 C511 C 0.41362 0.21641 0.91709
 N512 N 0.42765 0.24981 0.92662
 C513 C 0.44791 0.31265 0.91457
 N514 N 0.46446 0.31524 0.94827
 C515 C 0.47605 0.34767 0.96301
 C516 C 0.47070 0.38032 0.94376
 C517 C 0.45381 0.37831 0.90892
 C518 C 0.44235 0.34468 0.89429
 H519 H 0.40683 0.22970 0.82491
 H520 H 0.40883 0.19644 0.93837
 H521 H 0.48883 0.34790 0.99002
 H522 H 0.44884 0.40279 0.89320
 H523 H 0.43352 0.28862 0.84297
 H524 H 0.42825 0.34423 0.86795
 C525 C 0.58419 0.59526 0.78176
 C526 C 0.59279 0.63258 0.77835
 C527 C 0.60397 0.64620 0.74427
 C528 C 0.60687 0.62268 0.71375
 C529 C 0.59750 0.58569 0.71817
 N530 N 0.58632 0.57311 0.75154
 C531 C 0.57264 0.57944 0.81728
 N532 N 0.54767 0.55104 0.81753
 C533 C 0.53585 0.53518 0.84924
 C534 C 0.54981 0.54753 0.88328
 C535 C 0.57620 0.57627 0.88357
 C536 C 0.58753 0.59239 0.85070
 H537 H 0.61111 0.67488 0.74190
 H538 H 0.59908 0.56684 0.69509
 H539 H 0.51567 0.51291 0.84779
 H540 H 0.58771 0.58662 0.90922
 H541 H 0.59061 0.65112 0.80163
 H542 H 0.60813 0.61433 0.85146
 C543 C 0.40830 0.07497 0.72099
 C544 C 0.40020 0.05213 0.75091
 C545 C 0.39056 0.06765 0.78494
 C546 C 0.38915 0.10578 0.78934
 C547 C 0.39725 0.12753 0.75871
 N548 N 0.40661 0.11183 0.72599
 C549 C 0.42036 0.06085 0.68448
 N550 N 0.43848 0.08426 0.66148
 C551 C 0.45109 0.07401 0.62768
 C552 C 0.44571 0.03804 0.61493
 C553 C 0.42645 0.01346 0.63781
 C554 C 0.41369 0.02472 0.67256
 H555 H 0.38497 0.04988 0.80799
 H556 H 0.39589 0.15702 0.76061
 H557 H 0.46555 0.09403 0.61096
 H558 H 0.42150 -0.01450 0.62899
 H559 H 0.40215 0.02274 0.74860
 H560 H 0.39856 0.00537 0.68945
 C561 C 0.07819 0.91871 0.22704
 C562 C 0.08245 0.94066 0.25866
 C563 C 0.09502 0.92496 0.29122
 C564 C 0.10277 0.88746 0.29242
 C565 C 0.09739 0.86636 0.26046
 N566 N 0.08586 0.88236 0.22888
 C567 C 0.06723 0.93429 0.19135
 N568 N 0.08163 0.91939 0.15988
 C569 C 0.07268 0.93214 0.12603
 C570 C 0.04721 0.96116 0.12247
 C571 C 0.03178 0.97673 0.15456
 C572 C 0.04190 0.96355 0.18903
 H573 H 0.09912 0.94208 0.31536
 H574 H 0.10362 0.83743 0.26028
 H575 H 0.08488 0.91910 0.10197
 H576 H 0.01188 0.99905 0.15301
 H577 H 0.07738 0.96978 0.25797
 H578 H 0.02935 0.97557 0.21346
 C579 C 0.91157 0.41409 0.27957
 C580 C 0.90306 0.37670 0.27639
 C581 C 0.89195 0.36226 0.24250
 C582 C 0.88895 0.38500 0.21187
 C583 C 0.89799 0.42218 0.21607
 N584 N 0.90922 0.43561 0.24933
 C585 C 0.92317 0.43032 0.31511
 N586 N 0.95011 0.45701 0.31594
 C587 C 0.96261 0.47212 0.34806
 C588 C 0.94744 0.46064 0.38180
 C589 C 0.91891 0.43388 0.38133
 C590 C 0.90685 0.41859 0.34816
 H591 H 0.88513 0.33344 0.24030
 H592 H 0.89636 0.44043 0.19288
 H593 H 0.98444 0.49290 0.34722
 H594 H 0.90635 0.42423 0.40666
 H595 H 0.90537 0.35872 0.29973
 H596 H 0.88480 0.39799 0.34838
   
