data_POSCAR
  _audit_creation_date              2014-09-24
  _audit_creation_method            'ToBaCCo'
  _symmetry_space_group_name_H-M    'P1'
  _symmetry_Int_Tables_number       1
  _symmetry_cell_setting            triclinic
  loop_
  _symmetry_equiv_pos_as_xyz
 x,y,z
_cell_length_a 22.8771
_cell_length_b 22.8675
_cell_length_c 27.3934
_cell_angle_alpha 90.065300
_cell_angle_beta 90.155100
_cell_angle_gamma 90.369100
loop_
  _atom_site_label
  _atom_site_type_symbol
  _atom_site_fract_x
  _atom_site_fract_y
  _atom_site_fract_z
O1 O 0.05428 0.55600 1.04763
 O2 O 0.05549 0.44379 0.95309
 O3 O 0.04022 0.55953 0.95185
 O4 O 0.04163 0.44336 1.04614
 O5 O -0.05500 0.44573 1.04748
 O6 O -0.05639 0.55764 0.95290
 O7 O -0.04113 0.44189 0.95173
 O8 O -0.04235 0.55837 1.04599
 Cu9 Cu 0.05667 0.50161 0.99892
 Cu10 Cu -0.05749 0.49996 0.99874
 C11 C 0.00651 0.57701 1.06245
 C12 C 0.00797 0.42272 0.93706
 C13 C -0.00890 0.57867 0.93701
 C14 C -0.00719 0.42477 1.06245
 O15 O 0.44446 -0.05314 0.45308
 O16 O 0.55706 -0.05529 0.54785
 O17 O 0.44282 -0.04378 0.54763
 O18 O 0.55883 -0.04350 0.45338
 O19 O 0.55550 0.05317 0.45175
 O20 O 0.44371 0.05298 0.54642
 O21 O 0.56025 0.04126 0.54813
 O22 O 0.44367 0.04353 0.45388
 Cu23 Cu 0.50075 -0.05851 0.50047
 Cu24 Cu 0.50215 0.05650 0.50117
 C25 C 0.42410 -0.00514 0.43797
 C26 C 0.57864 -0.00781 0.56347
 C27 C 0.42319 0.00519 0.56231
 C28 C 0.57684 0.00547 0.43691
 C29 C -0.07698 0.01259 0.27137
 C30 C -0.02275 0.02378 0.24979
 C31 C -0.01187 0.07810 0.22817
 C32 C -0.05528 0.12122 0.22696
 C33 C -0.10939 0.10995 0.24968
 C34 C -0.12034 0.05576 0.27247
 C35 C 0.02272 -0.02149 0.24985
 C36 C 0.01178 -0.07583 0.22813
 C37 C 0.05512 -0.11902 0.22709
 C38 C 0.10924 -0.10776 0.25006
 C39 C 0.12028 -0.05354 0.27292
 C40 C 0.07697 -0.01032 0.27167
 H41 H -0.08506 -0.02980 0.28775
 H42 H 0.03045 0.08643 0.21182
 H43 H -0.03057 -0.08415 0.21161
 H44 H 0.08511 0.03209 0.28813
 H45 H -0.14285 0.14322 0.24964
 H46 H 0.14265 -0.14109 0.25014
 C47 C -0.01266 -0.07804 0.77194
 C48 C -0.02303 -0.02406 0.74978
 C49 C -0.07710 -0.01335 0.72778
 C50 C -0.12082 -0.05672 0.72678
 C51 C -0.11040 -0.11058 0.75009
 C52 C -0.05644 -0.12133 0.77326
 C53 C 0.02277 0.02142 0.74973
 C54 C 0.07670 0.01062 0.72773
 C55 C 0.12036 0.05405 0.72658
 C56 C 0.11001 0.10807 0.74971
 C57 C 0.05621 0.11891 0.77286
 C58 C 0.01249 0.07554 0.77172
 H59 H 0.02956 -0.08597 0.78863
 H60 H -0.08478 0.02882 0.71101
 H61 H 0.08432 -0.03166 0.71108
 H62 H -0.02962 0.08355 0.78839
 H63 H -0.14414 -0.14400 0.75022
 H64 H 0.14369 0.14155 0.74970
 C65 C 0.02128 -0.28008 0.15042
 C66 C 0.00270 -0.22681 0.13100
 C67 C 0.01380 -0.17469 0.15599
 C68 C 0.00858 -0.37508 0.09625
 C69 C 0.06212 -0.22874 0.22040
 C70 C 0.05100 -0.28102 0.19520
 C71 C 0.01334 -0.33275 0.12227
 C72 C 0.04368 -0.17495 0.20098
 H73 H -0.01955 -0.22544 0.09605
 H74 H -0.00005 -0.13398 0.13960
 H75 H 0.08474 -0.23041 0.25513
 H76 H 0.06607 -0.32199 0.21035
 C77 C -0.02172 0.28211 0.15041
 C78 C -0.05143 0.28314 0.19506
 C79 C -0.06246 0.23092 0.22022
 C80 C -0.00920 0.37696 0.09627
 C81 C -0.01408 0.17676 0.15603
 C82 C -0.00307 0.22882 0.13107
 C83 C -0.01389 0.33471 0.12228
 C84 C -0.04394 0.17710 0.20088
 H85 H -0.06656 0.32413 0.21014
 H86 H -0.08506 0.23265 0.25486
 H87 H -0.00017 0.13603 0.13970
 H88 H 0.01916 0.22738 0.09621
 C89 C 0.28019 0.02031 0.64943
 C90 C 0.22652 0.00201 0.63004
 C91 C 0.17478 0.01313 0.65517
 C92 C 0.37491 0.00732 0.59553
 C93 C 0.23004 0.06098 0.71958
 C94 C 0.28192 0.04982 0.69426
 C95 C 0.33259 0.01219 0.62131
 C96 C 0.17585 0.04276 0.70023
 H97 H 0.22456 -0.02008 0.59505
 H98 H 0.13375 -0.00056 0.63884
 H99 H 0.23231 0.08339 0.75438
 H100 H 0.32323 0.06467 0.70940
 C101 C -0.28105 -0.02319 0.64947
 C102 C -0.28259 -0.05242 0.69438
 C103 C -0.23058 -0.06352 0.71976
 C104 C -0.37578 -0.01024 0.59519
 C105 C -0.17559 -0.01621 0.65524
 C106 C -0.22745 -0.00514 0.63007
 C107 C -0.33353 -0.01513 0.62124
 C108 C -0.17646 -0.04554 0.70039
 H109 H -0.32384 -0.06709 0.70952
 H110 H -0.23269 -0.08571 0.75461
 H111 H -0.13463 -0.00273 0.63890
 H112 H -0.22563 0.01672 0.59502
 C113 C -0.02388 -0.28114 0.85112
 C114 C -0.00516 -0.22749 0.87028
 C115 C -0.01593 -0.17577 0.84493
 C116 C -0.01124 -0.37568 0.90548
 C117 C -0.06427 -0.23097 0.78074
 C118 C -0.05347 -0.28285 0.80629
 C119 C -0.01601 -0.33347 0.87946
 C120 C -0.04560 -0.17682 0.79985
 H121 H 0.01700 -0.22554 0.90527
 H122 H -0.00191 -0.13475 0.86108
 H123 H -0.08674 -0.23323 0.74595
 H124 H -0.06863 -0.32413 0.79134
 C125 C 0.02357 0.27933 0.84998
 C126 C 0.00524 0.22580 0.86941
 C127 C 0.01608 0.17387 0.84433
 C128 C 0.01048 0.37437 0.90377
 C129 C 0.06376 0.22864 0.77986
 C130 C 0.05288 0.28073 0.80515
 C131 C 0.01549 0.33193 0.87800
 C132 C 0.04543 0.17460 0.79923
 H133 H -0.01671 0.22409 0.90440
 H134 H 0.00233 0.13295 0.86067
 H135 H 0.08598 0.23065 0.74505
 H136 H 0.06774 0.32193 0.78997
 C137 C -0.28091 0.02109 0.34887
 C138 C -0.28216 0.05083 0.30420
 C139 C -0.23004 0.06224 0.27908
 C140 C -0.37554 0.00785 0.40300
 C141 C -0.17555 0.01419 0.34339
 C142 C -0.22751 0.00280 0.36829
 C143 C -0.33341 0.01287 0.37697
 C144 C -0.17611 0.04407 0.29850
 H145 H -0.32325 0.06569 0.28905
 H146 H -0.23193 0.08485 0.24442
 H147 H -0.13474 0.00056 0.35979
 H148 H -0.22591 -0.01944 0.40318
 C149 C 0.28103 -0.01931 0.34999
 C150 C 0.28212 -0.04904 0.30526
 C151 C 0.22995 -0.06025 0.27991
 C152 C 0.37598 -0.00684 0.40432
 C153 C 0.17569 -0.01198 0.34409
 C154 C 0.22772 -0.00079 0.36922
 C155 C 0.33362 -0.01142 0.37829
 C156 C 0.17611 -0.04190 0.29915
 H157 H 0.32314 -0.06407 0.29025
 H158 H 0.23174 -0.08289 0.24522
 H159 H 0.13494 0.00181 0.36034
 H160 H 0.22623 0.02145 0.40415
   
