data_POSCAR
  _audit_creation_date              2014-09-24
  _audit_creation_method            'ToBaCCo'
  _symmetry_space_group_name_H-M    'P1'
  _symmetry_Int_Tables_number       1
  _symmetry_cell_setting            triclinic
  loop_
  _symmetry_equiv_pos_as_xyz
 x,y,z
_cell_length_a 21.6102
_cell_length_b 21.6111
_cell_length_c 53.5810
_cell_angle_alpha 80.828300
_cell_angle_beta 94.614900
_cell_angle_gamma 120.061900
loop_
  _atom_site_label
  _atom_site_type_symbol
  _atom_site_fract_x
  _atom_site_fract_y
  _atom_site_fract_z
C1 C -0.00241 0.15336 0.52599
 H2 H 0.05026 0.16091 0.52356
 C3 C -0.01172 0.19284 0.54199
 H4 H 0.03392 0.23099 0.55189
 C5 C -0.12663 0.09210 0.51684
 H6 H -0.17112 0.05202 0.50722
 C7 C -0.13841 0.13046 0.53289
 H8 H -0.19212 0.11984 0.53570
 N9 N -0.05948 0.10346 0.51410
 C10 C -0.02002 -0.07227 0.50883
 H11 H -0.01708 -0.07020 0.48862
 C12 C -0.02249 -0.13076 0.52526
 H13 H -0.02053 -0.17342 0.51775
 C14 C -0.03110 -0.02204 0.54334
 H15 H -0.03681 0.01892 0.55037
 C16 C -0.03342 -0.07913 0.56034
 H17 H -0.03999 -0.08120 0.58035
 Zn18 Zn -0.03810 0.04955 0.49535
 N19 N -0.02529 -0.01991 0.51807
 C20 C 0.10238 0.10547 0.47561
 N21 N 0.04556 0.11593 0.47655
 C22 C 0.04536 0.17522 0.46347
 C23 C 0.10276 0.22573 0.44797
 C24 C 0.16105 0.15481 0.46019
 C25 C -0.17241 -0.06285 0.48239
 C26 C -0.22045 -0.11082 0.46626
 C27 C -0.14616 -0.03039 0.43083
 C28 C -0.09949 0.01551 0.44757
 N29 N -0.11243 -0.00197 0.47288
 H30 H 0.10157 0.05826 0.48632
 H31 H -0.00043 0.18224 0.46468
 H32 H 0.10117 0.27173 0.43712
 H33 H 0.20534 0.14536 0.45890
 H34 H -0.18060 -0.07638 0.50263
 H35 H -0.26615 -0.16086 0.47416
 H36 H -0.13335 -0.01701 0.41083
 H37 H -0.05102 0.06302 0.44032
 C38 C -0.03035 -0.13459 0.55122
 C39 C -0.08031 0.18071 0.54576
 C40 C -0.20618 -0.09511 0.44026
 C41 C 0.16073 0.21506 0.44607
 C42 C 1.21278 0.08972 0.13558
 H43 H 1.22001 0.14282 0.13601
 C44 C 1.25685 0.08142 0.12043
 H45 H 1.29812 0.12823 0.10911
 C46 C 1.14824 -0.03652 0.14909
 H47 H 1.10530 -0.08219 0.16010
 C48 C 1.19117 -0.04728 0.13404
 H49 H 1.18107 -0.10139 0.13336
 N50 N 1.15898 0.03113 0.14914
 C51 C 0.98217 0.07121 0.15211
 H52 H 0.97743 0.06965 0.17217
 C53 C 0.92794 0.06987 0.13565
 H54 H 0.88179 0.06818 0.14299
 C55 C 1.04472 0.06884 0.11819
 H56 H 1.08858 0.06550 0.11149
 C57 C 0.99210 0.06790 0.10114
 H58 H 0.99634 0.06474 0.08142
 Zn59 Zn 1.09918 0.05006 0.16669
 N60 N 1.03835 0.06918 0.14323
 C61 C 1.14832 0.18576 0.18434
 N62 N 1.15915 0.12896 0.18421
 C63 C 1.21311 0.12434 0.19771
 C64 C 1.25725 0.17676 0.21288
 C65 C 1.19132 0.23949 0.19942
 C66 C 0.98223 -0.08823 0.18135
 C67 C 0.92813 -0.14111 0.19785
 C68 C 0.99269 -0.07472 0.23230
 C69 C 1.04517 -0.02305 0.21522
 N70 N 1.03854 -0.02989 0.19019
 H71 H 1.10525 0.18835 0.17339
 H72 H 1.22040 0.07854 0.19722
 H73 H 1.29864 0.17134 0.22415
 H74 H 1.18113 0.28340 0.20017
 H75 H 0.97730 -0.09151 0.16128
 H76 H 0.88187 -0.18568 0.19053
 H77 H 0.99713 -0.06721 0.25202
 H78 H 1.08914 0.02425 0.22189
 C79 C 0.93239 0.06668 0.11001
 C80 C 1.24538 0.01229 0.11936
 C81 C 0.93284 -0.13333 0.22348
 C82 C 1.24568 0.23429 0.21403
 C83 C 0.04454 0.86930 0.86979
 H84 H -0.00120 0.81639 0.86854
 C85 C 0.10188 0.87632 0.88537
 H86 H 0.10030 0.82874 0.89622
 C87 C 0.10146 0.99616 0.85771
 H88 H 0.10064 1.04254 0.84699
 C89 C 0.16008 1.00563 0.87320
 H90 H 0.20431 1.05945 0.87453
 N91 N 0.04472 0.92877 0.85671
 C92 C -0.17328 0.88909 0.85064
 H93 H -0.18140 0.89445 0.83040
 C94 C -0.22137 0.88891 0.86673
 H95 H -0.26705 0.89322 0.85884
 C96 C -0.10047 0.88375 0.88554
 H97 H -0.05201 0.88482 0.89284
 C98 C -0.14723 0.88289 0.90223
 H99 H -0.13460 0.88238 0.92223
 Zn100 Zn -0.03889 0.91131 0.83782
 N101 N -0.11332 0.88829 0.86021
 C102 C -0.12724 0.78013 0.81624
 N103 N -0.06011 0.83604 0.81905
 C104 C -0.00297 0.84334 0.80722
 C105 C -0.01217 0.79460 0.79122
 C106 C -0.13890 0.73004 0.80017
 C107 C -0.02088 1.05121 0.82436
 C108 C -0.02330 1.10724 0.80792
 C109 C -0.03401 1.04476 0.77283
 C110 C -0.03173 0.98997 0.78983
 N111 N -0.02605 0.99361 0.81511
 H112 H -0.17178 0.77562 0.82581
 H113 H 0.04967 0.88854 0.80971
 H114 H 0.03353 0.80220 0.78137
 H115 H -0.19260 0.68686 0.79730
 H116 H -0.01803 1.05203 0.84456
 H117 H -0.02141 1.15182 0.81543
 H118 H -0.04048 1.04029 0.75281
 H119 H -0.03738 0.94332 0.78280
 C120 C -0.20719 0.88747 0.89272
 C121 C 0.15977 0.94507 0.88733
 C122 C -0.03103 1.10325 0.78194
 C123 C -0.08073 0.73803 0.78736
 C124 C 0.39151 -0.03184 -0.01929
 C125 C 0.36909 -0.02394 0.00312
 C126 C 0.40989 -0.01620 0.02517
 C127 C 0.47615 -0.01422 0.02484
 C128 C 0.49854 -0.02430 0.00236
 C129 C 0.45554 -0.03421 -0.01973
 C130 C 0.47768 -0.04625 -0.04156
 C131 C 0.54071 -0.04901 -0.04166
 C132 C 0.58477 -0.03794 -0.02013
 C133 C 0.56405 -0.02439 0.00196
 C134 C 0.52059 -0.00230 0.04627
 C135 C 0.58618 0.00028 0.04559
 C136 C 0.60877 -0.01087 0.02366
 C137 C 0.67485 -0.00896 0.02276
 C138 C 0.69368 -0.02442 0.00116
 C139 C 0.64917 -0.03986 -0.02005
 H140 H 0.44595 -0.05442 -0.05869
 H141 H 0.55509 -0.05909 -0.05887
 H142 H 0.50532 0.00597 0.06368
 H143 H 0.61876 0.01031 0.06251
 H144 H 0.31901 -0.02373 0.00341
 H145 H 0.74387 -0.02439 0.00085
 C146 C -0.09043 0.57542 0.69011
 C147 C -0.08614 0.61887 0.66730
 C148 C -0.08252 0.59869 0.64420
 C149 C -0.08575 0.53204 0.64361
 C150 C -0.08816 0.48832 0.66670
 C151 C -0.08949 0.51055 0.69010
 C152 C -0.08909 0.46778 0.71276
 C153 C -0.08639 0.40482 0.71247
 C154 C -0.08592 0.38140 0.68950
 C155 C -0.08819 0.42279 0.66640
 C156 C -0.08614 0.50819 0.62064
 C157 C -0.08892 0.44249 0.62034
 C158 C -0.08945 0.39926 0.64301
 C159 C -0.09046 0.33341 0.64299
 C160 C -0.08631 0.29418 0.66581
 C161 C -0.08276 0.31794 0.68891
 H162 H -0.08985 0.48325 0.73094
 H163 H -0.08528 0.37424 0.73042
 H164 H -0.08493 0.53994 0.60269
 H165 H -0.08961 0.42630 0.60216
 H166 H -0.08452 0.66981 0.66755
 H167 H -0.08474 0.24484 0.66556
 C168 C 0.41059 0.42716 0.30838
 C169 C 0.36988 0.39407 0.33042
 C170 C 0.39249 0.42438 0.35285
 C171 C 0.45662 0.49081 0.35331
 C172 C 0.49953 0.52392 0.33122
 C173 C 0.47695 0.49145 0.30872
 C174 C 0.52129 0.52399 0.28729
 C175 C 0.58697 0.58700 0.28799
 C176 C 0.60975 0.62074 0.30994
 C177 C 0.56514 0.58953 0.33163
 C178 C 0.47895 0.52497 0.37516
 C179 C 0.54208 0.59080 0.37528
 C180 C 0.58606 0.62380 0.35375
 C181 C 0.65056 0.69014 0.35368
 C182 C 0.69497 0.71921 0.33246
 C183 C 0.67594 0.68492 0.31085
 H184 H 0.50588 0.50045 0.26987
 H185 H 0.61947 0.60956 0.27106
 H186 H 0.44730 0.50141 0.39229
 H187 H 0.55662 0.61525 0.39250
 H188 H 0.31973 0.34376 0.33012
 H189 H 0.74523 0.76939 0.33278
 C190 C -0.09015 0.21616 0.56440
 C191 C -0.09415 0.24545 0.58106
 C192 C -0.09499 0.27843 0.60164
 C193 C -0.09357 0.30478 0.62003
 C194 C 0.87406 0.81949 0.24045
 C195 C 0.82588 0.78397 0.25542
 C196 C 0.77127 0.74642 0.27379
 C197 C 0.72661 0.71718 0.29022
 C198 C 0.21572 -0.04712 -0.09479
 C199 C 0.25977 -0.04278 -0.07883
 C200 C 0.30828 -0.03917 -0.05909
 C201 C 0.34734 -0.03626 -0.04140
 C202 C -0.03988 0.80327 0.56866
 C203 C -0.04965 0.75267 0.58438
 C204 C -0.06198 0.69581 0.60401
 C205 C -0.07211 0.64988 0.62177
 C206 C 0.28583 0.28372 0.23186
 C207 C 0.31820 0.32152 0.24793
 C208 C 0.35383 0.36181 0.26791
 C209 C 0.38154 0.39312 0.28588
 C210 C 0.75367 -0.10209 -0.09141
 C211 C 0.72359 -0.08998 -0.07645
 C212 C 0.69356 -0.07336 -0.05786
 C213 C 0.67163 -0.05816 -0.04113
 C214 C 0.28549 0.00294 0.10158
 C215 C 0.31782 -0.00255 0.08555
 C216 C 0.35338 -0.00733 0.06560
 C217 C 0.38099 -0.01105 0.04765
 C218 C 0.75620 0.85727 0.42500
 C219 C 0.72580 0.81494 0.41007
 C220 C 0.69542 0.76814 0.39150
 C221 C 0.67325 0.73094 0.37477
 C222 C -0.04050 0.15588 0.76450
 C223 C -0.05020 0.19672 0.74877
 C224 C -0.06243 0.24128 0.72913
 C225 C -0.07247 0.27712 0.71136
 C226 C 0.87347 0.05497 0.09308
 C227 C 0.82517 0.04224 0.07814
 C228 C 0.77042 0.02507 0.05979
 C229 C 0.72564 0.00956 0.04338
 C230 C 0.21674 0.26340 0.42825
 C231 C 0.26083 0.30327 0.41233
 C232 C 0.30935 0.34831 0.39263
 C233 C 0.34839 0.38457 0.37496
 C234 C -0.09046 0.69279 0.76871
 C235 C -0.09437 0.65956 0.75204
 C236 C -0.09512 0.62578 0.73146
 C237 C -0.09363 0.60089 0.71307
   
