data_POSCAR
  _audit_creation_date              2014-09-24
  _audit_creation_method            'ToBaCCo'
  _symmetry_space_group_name_H-M    'P1'
  _symmetry_Int_Tables_number       1
  _symmetry_cell_setting            triclinic
  loop_
  _symmetry_equiv_pos_as_xyz
 x,y,z
_cell_length_a 25.2319
_cell_length_b 25.2895
_cell_length_c 25.1858
_cell_angle_alpha 90.000000
_cell_angle_beta 89.999600
_cell_angle_gamma 90.000000
loop_
  _atom_site_label
  _atom_site_type_symbol
  _atom_site_fract_x
  _atom_site_fract_y
  _atom_site_fract_z
Zn1 Zn 0.79199 0.70794 0.79131
 Zn2 Zn 0.79199 0.79206 0.70869
 Zn3 Zn 0.70780 0.70856 0.70798
 Zn4 Zn 0.70780 0.79144 0.79202
 O5 O 0.74989 0.75000 0.75000
 O6 O 0.86133 0.71788 0.77982
 O7 O 0.78168 0.78110 0.63917
 O8 O 0.71939 0.63933 0.71751
 O9 O 0.86133 0.78212 0.72017
 O10 O 0.78070 0.63899 0.78021
 O11 O 0.71745 0.72128 0.63866
 O12 O 0.63854 0.78192 0.78005
 O13 O 0.78070 0.86101 0.71979
 O14 O 0.63855 0.71809 0.71995
 O15 O 0.71939 0.86068 0.78249
 O16 O 0.71745 0.77872 0.86134
 O17 O 0.78168 0.71890 0.86083
 C18 C 0.88590 0.75000 0.75000
 C19 C 0.74941 0.75157 0.61435
 C20 C 0.75014 0.61447 0.74865
 C21 C 0.61400 0.75000 0.75000
 C22 C 0.75014 0.88554 0.75135
 C23 C 0.74941 0.74843 0.88565
 Zn24 Zn 0.20802 0.70794 0.70870
 Zn25 Zn 0.20801 0.79206 0.79130
 Zn26 Zn 0.29220 0.70856 0.79202
 Zn27 Zn 0.29220 0.79144 0.70797
 O28 O 0.25011 0.75000 0.75000
 O29 O 0.13867 0.71788 0.72018
 O30 O 0.21832 0.78110 0.86083
 O31 O 0.28061 0.63933 0.78249
 O32 O 0.13867 0.78212 0.77982
 O33 O 0.21930 0.63899 0.71979
 O34 O 0.28255 0.72128 0.86134
 O35 O 0.36146 0.78192 0.71995
 O36 O 0.21930 0.86101 0.78021
 O37 O 0.36146 0.71809 0.78005
 O38 O 0.28061 0.86068 0.71751
 O39 O 0.28255 0.77872 0.63865
 O40 O 0.21832 0.71890 0.63917
 C41 C 0.11410 0.75000 0.75000
 C42 C 0.25060 0.75157 0.88565
 C43 C 0.24986 0.61447 0.75135
 C44 C 0.38600 0.75000 0.75000
 C45 C 0.24987 0.88554 0.74865
 C46 C 0.25060 0.74843 0.61435
 Zn47 Zn 0.70780 0.20856 0.79202
 Zn48 Zn 0.79199 0.20794 0.70869
 Zn49 Zn 0.70780 0.29144 0.70798
 Zn50 Zn 0.79199 0.29206 0.79131
 O51 O 0.74989 0.25000 0.75000
 O52 O 0.71939 0.13933 0.78249
 O53 O 0.78168 0.21890 0.63917
 O54 O 0.63854 0.28192 0.71995
 O55 O 0.78070 0.13899 0.71979
 O56 O 0.63854 0.21808 0.78005
 O57 O 0.71745 0.27872 0.63865
 O58 O 0.78070 0.36101 0.78021
 O59 O 0.86133 0.21788 0.72017
 O60 O 0.71939 0.36068 0.71751
 O61 O 0.86133 0.28212 0.77982
 O62 O 0.78168 0.28110 0.86083
 O63 O 0.71745 0.22128 0.86134
 C64 C 0.75014 0.11447 0.75135
 C65 C 0.74941 0.24843 0.61435
 C66 C 0.61400 0.25000 0.75000
 C67 C 0.75014 0.38554 0.74865
 C68 C 0.88590 0.25000 0.75000
 C69 C 0.74941 0.25157 0.88565
 Zn70 Zn 0.29220 0.20856 0.70797
 Zn71 Zn 0.20801 0.20794 0.79130
 Zn72 Zn 0.29220 0.29144 0.79202
 Zn73 Zn 0.20801 0.29206 0.70870
 O74 O 0.25011 0.25000 0.75000
 O75 O 0.28061 0.13933 0.71751
 O76 O 0.21832 0.21890 0.86083
 O77 O 0.36146 0.28192 0.78005
 O78 O 0.21930 0.13899 0.78021
 O79 O 0.36146 0.21809 0.71995
 O80 O 0.28255 0.27872 0.86135
 O81 O 0.21930 0.36101 0.71979
 O82 O 0.13867 0.21788 0.77982
 O83 O 0.28061 0.36068 0.78249
 O84 O 0.13867 0.28212 0.72018
 O85 O 0.21832 0.28110 0.63917
 O86 O 0.28255 0.22128 0.63865
 C87 C 0.24987 0.11447 0.74865
 C88 C 0.25060 0.24843 0.88565
 C89 C 0.38600 0.25000 0.75000
 C90 C 0.24986 0.38554 0.75135
 C91 C 0.11410 0.25000 0.75000
 C92 C 0.25060 0.25157 0.61435
 Zn93 Zn 0.70803 0.70734 0.20930
 Zn94 Zn 0.79218 0.79046 0.20696
 Zn95 Zn 0.70803 0.79266 0.29070
 Zn96 Zn 0.79218 0.70954 0.29304
 O97 O 0.75011 0.75000 0.25000
 O98 O 0.71724 0.71785 0.13940
 O99 O 0.78205 0.86015 0.21670
 O100 O 0.63871 0.78309 0.27874
 O101 O 0.78106 0.77799 0.13804
 O102 O 0.63871 0.71691 0.22126
 O103 O 0.72035 0.86132 0.27910
 O104 O 0.78105 0.72200 0.36196
 O105 O 0.86143 0.77910 0.21719
 O106 O 0.71724 0.78215 0.36060
 O107 O 0.86143 0.72090 0.28281
 O108 O 0.78205 0.63985 0.28330
 O109 O 0.72035 0.63868 0.22090
 C110 C 0.74894 0.74763 0.11414
 C111 C 0.75148 0.88543 0.24774
 C112 C 0.61413 0.75000 0.25000
 C113 C 0.74894 0.75237 0.38586
 C114 C 0.88598 0.75000 0.25000
 C115 C 0.75148 0.61457 0.25225
 Zn116 Zn 0.29197 0.79266 0.20930
 Zn117 Zn 0.20782 0.70954 0.20696
 Zn118 Zn 0.29197 0.70734 0.29070
 Zn119 Zn 0.20782 0.79046 0.29304
 O120 O 0.24989 0.75000 0.25000
 O121 O 0.28276 0.78215 0.13940
 O122 O 0.21795 0.63985 0.21670
 O123 O 0.36129 0.71691 0.27874
 O124 O 0.21894 0.72201 0.13804
 O125 O 0.36129 0.78309 0.22126
 O126 O 0.27965 0.63868 0.27910
 O127 O 0.21894 0.77799 0.36196
 O128 O 0.13857 0.72090 0.21719
 O129 O 0.28276 0.71784 0.36060
 O130 O 0.13857 0.77909 0.28281
 O131 O 0.21795 0.86015 0.28330
 O132 O 0.27965 0.86132 0.22090
 C133 C 0.25106 0.75237 0.11414
 C134 C 0.24851 0.61457 0.24774
 C135 C 0.38587 0.75000 0.25000
 C136 C 0.25105 0.74763 0.38586
 C137 C 0.11402 0.75000 0.25000
 C138 C 0.24851 0.88543 0.25226
 Zn139 Zn 0.70803 0.29266 0.20930
 Zn140 Zn 0.79218 0.20954 0.20696
 Zn141 Zn 0.79218 0.29046 0.29304
 Zn142 Zn 0.70803 0.20734 0.29070
 O143 O 0.75011 0.25000 0.25000
 O144 O 0.71724 0.28215 0.13940
 O145 O 0.86143 0.22090 0.21719
 O146 O 0.78205 0.36015 0.28330
 O147 O 0.78106 0.22200 0.13804
 O148 O 0.72035 0.36132 0.22090
 O149 O 0.86143 0.27910 0.28281
 O150 O 0.71724 0.21785 0.36060
 O151 O 0.78205 0.13985 0.21670
 O152 O 0.78105 0.27799 0.36196
 O153 O 0.72035 0.13868 0.27910
 O154 O 0.63871 0.21691 0.27874
 O155 O 0.63871 0.28309 0.22126
 C156 C 0.74894 0.25237 0.11414
 C157 C 0.88598 0.25000 0.25000
 C158 C 0.75148 0.38543 0.25225
 C159 C 0.74894 0.24763 0.38586
 C160 C 0.75148 0.11457 0.24774
 C161 C 0.61413 0.25000 0.25000
 Zn162 Zn 0.20782 0.29046 0.20696
 Zn163 Zn 0.29197 0.20734 0.20930
 Zn164 Zn 0.29197 0.29266 0.29070
 Zn165 Zn 0.20782 0.20954 0.29304
 O166 O 0.24989 0.25000 0.25000
 O167 O 0.21894 0.27799 0.13804
 O168 O 0.36129 0.21691 0.22126
 O169 O 0.27965 0.36132 0.27910
 O170 O 0.28276 0.21785 0.13940
 O171 O 0.21795 0.36015 0.21670
 O172 O 0.36129 0.28309 0.27874
 O173 O 0.21894 0.22201 0.36196
 O174 O 0.27965 0.13868 0.22090
 O175 O 0.28276 0.28215 0.36060
 O176 O 0.21795 0.13985 0.28330
 O177 O 0.13857 0.22090 0.28281
 O178 O 0.13857 0.27909 0.21719
 C179 C 0.25106 0.24763 0.11414
 C180 C 0.38587 0.25000 0.25000
 C181 C 0.24851 0.38543 0.24774
 C182 C 0.25105 0.25237 0.38586
 C183 C 0.24851 0.11457 0.25226
 C184 C 0.11402 0.25000 0.25000
 C185 C -0.02770 0.70209 0.75050
 C186 C -0.05577 0.75000 0.75000
 C187 C -0.02770 0.79792 0.74950
 C188 C 0.02771 0.79792 0.75050
 C189 C 0.05577 0.75000 0.75000
 C190 C 0.02771 0.70209 0.74950
 H191 H -0.04869 0.66472 0.75070
 H192 H -0.04869 0.83528 0.74930
 H193 H 0.04869 0.83528 0.75070
 H194 H 0.04869 0.66472 0.74930
 C195 C 0.78413 -0.02762 0.71762
 C196 C 0.75031 -0.05590 0.75169
 C197 C 0.71657 -0.02764 0.78587
 C198 C 0.71657 0.02764 0.78587
 C199 C 0.75031 0.05590 0.75169
 C200 C 0.78413 0.02762 0.71762
 H201 H 0.81063 -0.04815 0.69081
 H202 H 0.69002 -0.04821 0.81261
 H203 H 0.69002 0.04821 0.81261
 H204 H 0.81063 0.04815 0.69081
 C205 C 0.79707 0.74675 -0.02774
 C206 C 0.74914 0.74763 -0.05595
 C207 C 0.70102 0.74791 -0.02796
 C208 C 0.70087 0.74657 0.02756
 C209 C 0.74884 0.74693 0.05575
 C210 C 0.79693 0.74739 0.02774
 H211 H 0.83459 0.74668 -0.04866
 H212 H 0.66363 0.74838 -0.04909
 H213 H 0.66338 0.74645 0.04853
 H214 H 0.83434 0.74752 0.04884
 C215 C 0.52770 0.79792 0.75050
 C216 C 0.55573 0.75000 0.75000
 C217 C 0.52770 0.70208 0.74950
 C218 C 0.47231 0.70208 0.75050
 C219 C 0.44427 0.75000 0.75000
 C220 C 0.47231 0.79792 0.74950
 H221 H 0.54869 0.83529 0.75070
 H222 H 0.54869 0.66472 0.74930
 H223 H 0.45131 0.66472 0.75070
 H224 H 0.45131 0.83529 0.74930
 C225 C 0.28344 -0.02764 0.71413
 C226 C 0.24970 -0.05590 0.74831
 C227 C 0.21587 -0.02762 0.78237
 C228 C 0.21587 0.02762 0.78237
 C229 C 0.24970 0.05590 0.74831
 C230 C 0.28344 0.02764 0.71413
 H231 H 0.30998 -0.04821 0.68739
 H232 H 0.18937 -0.04815 0.80918
 H233 H 0.18937 0.04815 0.80918
 H234 H 0.30998 0.04821 0.68739
 C235 C 0.29898 0.75210 -0.02796
 C236 C 0.25086 0.75238 -0.05595
 C237 C 0.20293 0.75325 -0.02774
 C238 C 0.20307 0.75261 0.02774
 C239 C 0.25116 0.75307 0.05575
 C240 C 0.29913 0.75343 0.02756
 H241 H 0.33637 0.75164 -0.04909
 H242 H 0.16541 0.75331 -0.04866
 H243 H 0.16566 0.75247 0.04884
 H244 H 0.33662 0.75356 0.04853
 C245 C -0.02770 0.20209 0.74950
 C246 C -0.05577 0.25000 0.75000
 C247 C -0.02770 0.29791 0.75050
 C248 C 0.02771 0.29791 0.74950
 C249 C 0.05577 0.25000 0.75000
 C250 C 0.02771 0.20209 0.75050
 H251 H -0.04869 0.16472 0.74930
 H252 H -0.04869 0.33528 0.75070
 H253 H 0.04869 0.33528 0.74930
 H254 H 0.04869 0.16472 0.75070
 C255 C 0.71656 0.52764 0.71413
 C256 C 0.75031 0.55590 0.74831
 C257 C 0.78413 0.52762 0.78238
 C258 C 0.78413 0.47238 0.78238
 C259 C 0.75031 0.44410 0.74831
 C260 C 0.71656 0.47236 0.71413
 H261 H 0.69002 0.54821 0.68740
 H262 H 0.81063 0.54815 0.80919
 H263 H 0.81063 0.45185 0.80919
 H264 H 0.69002 0.45179 0.68740
 C265 C 0.79707 0.25325 -0.02774
 C266 C 0.74914 0.25238 -0.05595
 C267 C 0.70102 0.25209 -0.02796
 C268 C 0.70087 0.25342 0.02756
 C269 C 0.74884 0.25307 0.05575
 C270 C 0.79693 0.25261 0.02774
 H271 H 0.83459 0.25332 -0.04866
 H272 H 0.66363 0.25162 -0.04909
 H273 H 0.66338 0.25355 0.04853
 H274 H 0.83434 0.25248 0.04884
 C275 C 0.52770 0.29792 0.74950
 C276 C 0.55573 0.25000 0.75000
 C277 C 0.52770 0.20208 0.75050
 C278 C 0.47230 0.20208 0.74950
 C279 C 0.44427 0.25000 0.75000
 C280 C 0.47231 0.29792 0.75050
 H281 H 0.54869 0.33529 0.74930
 H282 H 0.54869 0.16472 0.75070
 H283 H 0.45131 0.16472 0.74930
 H284 H 0.45131 0.33529 0.75070
 C285 C 0.21587 0.52762 0.71763
 C286 C 0.24970 0.55590 0.75169
 C287 C 0.28344 0.52764 0.78587
 C288 C 0.28344 0.47236 0.78587
 C289 C 0.24970 0.44410 0.75169
 C290 C 0.21587 0.47238 0.71763
 H291 H 0.18937 0.54815 0.69082
 H292 H 0.30998 0.54821 0.81260
 H293 H 0.30998 0.45179 0.81260
 H294 H 0.18937 0.45185 0.69082
 C295 C 0.29898 0.24790 -0.02796
 C296 C 0.25086 0.24762 -0.05595
 C297 C 0.20293 0.24675 -0.02774
 C298 C 0.20307 0.24739 0.02774
 C299 C 0.25116 0.24693 0.05575
 C300 C 0.29913 0.24657 0.02756
 H301 H 0.33637 0.24836 -0.04909
 H302 H 0.16541 0.24669 -0.04866
 H303 H 0.16566 0.24753 0.04884
 H304 H 0.33661 0.24644 0.04853
 C305 C -0.02770 0.74952 0.29812
 C306 C -0.05574 0.75000 0.25000
 C307 C -0.02770 0.75048 0.20188
 C308 C 0.02769 0.74951 0.20188
 C309 C 0.05574 0.75000 0.25000
 C310 C 0.02769 0.75049 0.29812
 H311 H -0.04868 0.74934 0.33564
 H312 H -0.04868 0.75066 0.16436
 H313 H 0.04868 0.74932 0.16436
 H314 H 0.04868 0.75068 0.33564
 C315 C 0.78570 -0.02768 0.21342
 C316 C 0.75185 -0.05594 0.24751
 C317 C 0.71808 -0.02761 0.28158
 C318 C 0.71808 0.02760 0.28158
 C319 C 0.75185 0.05594 0.24751
 C320 C 0.78570 0.02767 0.21342
 H321 H 0.81221 -0.04830 0.18668
 H322 H 0.69149 -0.04807 0.30835
 H323 H 0.69149 0.04807 0.30835
 H324 H 0.81221 0.04829 0.18668
 C325 C 0.79707 0.75326 0.52774
 C326 C 0.74914 0.75238 0.55595
 C327 C 0.70102 0.75209 0.52796
 C328 C 0.70087 0.75343 0.47244
 C329 C 0.74884 0.75307 0.44425
 C330 C 0.79693 0.75262 0.47226
 H331 H 0.83459 0.75332 0.54866
 H332 H 0.66363 0.75163 0.54909
 H333 H 0.66338 0.75355 0.45147
 H334 H 0.83434 0.75248 0.45116
 C335 C 0.52770 0.79791 0.25048
 C336 C 0.55578 0.75000 0.25000
 C337 C 0.52770 0.70209 0.24952
 C338 C 0.47229 0.70209 0.25049
 C339 C 0.44421 0.75000 0.25000
 C340 C 0.47229 0.79791 0.24951
 H341 H 0.54867 0.83529 0.25066
 H342 H 0.54867 0.66471 0.24934
 H343 H 0.45133 0.66471 0.25067
 H344 H 0.45133 0.83529 0.24933
 C345 C 0.28192 -0.02761 0.21843
 C346 C 0.24815 -0.05594 0.25249
 C347 C 0.21430 -0.02768 0.28659
 C348 C 0.21430 0.02767 0.28659
 C349 C 0.24815 0.05594 0.25249
 C350 C 0.28192 0.02760 0.21843
 H351 H 0.30851 -0.04807 0.19165
 H352 H 0.18779 -0.04830 0.31332
 H353 H 0.18779 0.04829 0.31332
 H354 H 0.30851 0.04807 0.19165
 C355 C 0.29898 0.74790 0.52796
 C356 C 0.25086 0.74762 0.55595
 C357 C 0.20293 0.74675 0.52774
 C358 C 0.20307 0.74739 0.47226
 C359 C 0.25116 0.74693 0.44425
 C360 C 0.29913 0.74657 0.47243
 H361 H 0.33637 0.74836 0.54909
 H362 H 0.16541 0.74669 0.54866
 H363 H 0.16566 0.74753 0.45116
 H364 H 0.33661 0.74644 0.45147
 C365 C -0.02770 0.24952 0.20188
 C366 C -0.05574 0.25000 0.25000
 C367 C -0.02770 0.25048 0.29812
 C368 C 0.02769 0.24951 0.29812
 C369 C 0.05574 0.25000 0.25000
 C370 C 0.02769 0.25049 0.20188
 H371 H -0.04868 0.24934 0.16436
 H372 H -0.04868 0.25066 0.33564
 H373 H 0.04868 0.24932 0.33564
 H374 H 0.04868 0.25068 0.16436
 C375 C 0.71808 0.52760 0.21842
 C376 C 0.75185 0.55594 0.25249
 C377 C 0.78570 0.52767 0.28658
 C378 C 0.78570 0.47232 0.28658
 C379 C 0.75185 0.44406 0.25249
 C380 C 0.71808 0.47239 0.21842
 H381 H 0.69149 0.54807 0.19164
 H382 H 0.81220 0.54829 0.31332
 H383 H 0.81220 0.45170 0.31332
 H384 H 0.69149 0.45193 0.19164
 C385 C 0.79707 0.24674 0.52774
 C386 C 0.74914 0.24762 0.55595
 C387 C 0.70102 0.24791 0.52796
 C388 C 0.70087 0.24657 0.47244
 C389 C 0.74884 0.24693 0.44425
 C390 C 0.79693 0.24738 0.47226
 H391 H 0.83459 0.24668 0.54866
 H392 H 0.66363 0.24837 0.54909
 H393 H 0.66338 0.24645 0.45147
 H394 H 0.83434 0.24752 0.45116
 C395 C 0.52770 0.29791 0.24952
 C396 C 0.55578 0.25000 0.25000
 C397 C 0.52770 0.20209 0.25048
 C398 C 0.47229 0.20209 0.24951
 C399 C 0.44421 0.25000 0.25000
 C400 C 0.47229 0.29791 0.25049
 H401 H 0.54867 0.33529 0.24934
 H402 H 0.54867 0.16471 0.25066
 H403 H 0.45133 0.16471 0.24933
 H404 H 0.45133 0.33529 0.25067
 C405 C 0.21430 0.52767 0.21341
 C406 C 0.24815 0.55594 0.24751
 C407 C 0.28192 0.52760 0.28157
 C408 C 0.28192 0.47239 0.28157
 C409 C 0.24815 0.44406 0.24751
 C410 C 0.21430 0.47232 0.21341
 H411 H 0.18779 0.54829 0.18668
 H412 H 0.30851 0.54807 0.30835
 H413 H 0.30851 0.45193 0.30835
 H414 H 0.18779 0.45170 0.18668
 C415 C 0.29898 0.25210 0.52796
 C416 C 0.25086 0.25238 0.55595
 C417 C 0.20293 0.25325 0.52774
 C418 C 0.20307 0.25261 0.47226
 C419 C 0.25116 0.25307 0.44425
 C420 C 0.29913 0.25343 0.47243
 H421 H 0.33637 0.25164 0.54909
 H422 H 0.16541 0.25331 0.54866
 H423 H 0.16566 0.25247 0.45116
 H424 H 0.33661 0.25356 0.45147
   
