data_POSCAR
  _audit_creation_date              2014-09-24
  _audit_creation_method            'ToBaCCo'
  _symmetry_space_group_name_H-M    'P1'
  _symmetry_Int_Tables_number       1
  _symmetry_cell_setting            triclinic
  loop_
  _symmetry_equiv_pos_as_xyz
 x,y,z
_cell_length_a 29.1007
_cell_length_b 31.5466
_cell_length_c 29.6125
_cell_angle_alpha 88.871700
_cell_angle_beta 90.766900
_cell_angle_gamma 89.479400
loop_
  _atom_site_label
  _atom_site_type_symbol
  _atom_site_fract_x
  _atom_site_fract_y
  _atom_site_fract_z
C1 C 0.19631 0.19258 0.24135
 N2 N 0.18812 0.23246 0.22482
 C3 C 0.21008 0.24712 0.18744
 N4 N 0.24043 0.22140 0.16638
 C5 C 0.24906 0.18137 0.18221
 N6 N 0.22671 0.16738 0.21960
 C7 C -0.20946 0.80150 0.25471
 N8 N -0.19492 0.76544 0.23480
 C9 C -0.21737 0.74992 0.19831
 N10 N -0.25443 0.77137 0.18090
 C11 C -0.27014 0.80728 0.20044
 N12 N -0.24755 0.82191 0.23760
 C13 C -0.15202 0.18157 -0.22172
 N14 N -0.19581 0.16848 -0.21515
 C15 C -0.22036 0.18202 -0.17919
 N16 N -0.20083 0.21029 -0.15067
 C17 C -0.15720 0.22389 -0.15739
 N18 N -0.13271 0.20881 -0.19239
 C19 C 0.18074 0.78865 -0.25594
 N20 N 0.16117 0.75749 -0.23018
 C21 C 0.18319 0.74168 -0.19266
 N22 N 0.22448 0.75750 -0.18078
 C23 C 0.24460 0.78874 -0.20522
 N24 N 0.22256 0.80418 -0.24306
 C25 C 0.15836 1.20067 0.77144
 N26 N 0.19526 1.18412 0.79411
 C27 C 0.21341 1.20339 0.83049
 N28 N 0.19415 1.23991 0.84506
 C29 C 0.15731 1.25761 0.82247
 N30 N 0.13976 1.23773 0.78560
 C31 C 0.80402 0.79994 0.73081
 N32 N 0.82572 0.76948 0.75630
 C33 C 0.80598 0.75267 0.79368
 N34 N 0.76424 0.76729 0.80656
 C35 C 0.74183 0.79760 0.78119
 N36 N 0.76184 0.81370 0.74347
 C37 C 0.20495 0.80784 1.26380
 N38 N 0.18740 0.77526 1.23987
 C39 C 0.20697 0.76262 1.20082
 N40 N 0.24468 0.78351 1.18556
 C41 C 0.26274 0.81626 1.20901
 N42 N 0.24265 0.82807 1.24797
 C43 C 0.83214 1.18471 1.20679
 N44 N 0.79846 1.16819 1.18074
 C45 C 0.77289 1.19285 1.15235
 N46 N 0.78148 1.23483 1.14883
 C47 C 0.81501 1.25256 1.17473
 N48 N 0.84001 1.22724 1.20417
 O49 O 0.53681 0.95912 0.89134
 O50 O 0.44907 0.97885 1.06665
 O51 O 0.56461 0.94415 1.00397
 O52 O 0.42871 0.93623 0.93525
 O53 O 0.53236 0.96390 1.06406
 O54 O 0.45207 0.97128 0.87807
 O55 O 0.43798 0.93750 1.01312
 O56 O 0.59104 0.98122 0.93563
 C57 C 0.57716 0.95603 0.90627
 C58 C 0.43616 0.94356 1.05378
 C59 C 0.55644 0.93720 1.04429
 C60 C 0.43065 0.94071 0.89389
 O61 O 0.45839 1.04989 0.89120
 O62 O 0.54762 1.04581 1.04332
 O63 O 0.56455 1.05512 0.96515
 O64 O 0.40509 1.02048 1.01391
 O65 O 0.46361 1.05740 1.03548
 O66 O 0.54650 1.04239 0.89631
 O67 O 0.40272 1.02017 0.93135
 O68 O 0.60939 1.01189 1.01952
 Co69 Co 0.49860 1.00498 0.89731
 Co70 Co 0.49780 1.00989 1.04474
 Co71 Co 0.56041 0.99935 0.98502
 Co72 Co 0.42434 0.98010 0.97378
 O73 O 0.49306 0.99703 0.97157
 C74 C 0.41712 1.04870 0.90389
 C75 C 0.59071 1.03818 1.04817
 C76 C 0.56726 1.06465 0.92437
 C77 C 0.42126 1.05388 1.03029
 O78 O 0.06255 0.47506 0.08195
 O79 O 0.00877 0.54484 -0.06933
 O80 O 0.05113 0.44254 0.00243
 O81 O 0.01391 0.61584 0.05488
 O82 O 0.01515 0.46274 -0.06057
 O83 O 0.05528 0.55795 0.07357
 O84 O 0.04098 0.57887 -0.01252
 O85 O 0.02814 0.41223 0.07492
 C86 C 0.06069 0.43528 0.09289
 C87 C 0.03786 0.57153 -0.05451
 C88 C 0.04807 0.44276 -0.04025
 C89 C 0.04749 0.59792 0.07855
 O90 O -0.02673 0.55188 0.11321
 O91 O -0.07325 0.46147 -0.03476
 O92 O -0.05403 0.44479 0.06715
 O93 O -0.04277 0.59656 -0.02111
 O94 O -0.07900 0.54070 -0.04356
 O95 O -0.01983 0.47497 0.12084
 O96 O -0.06250 0.57540 0.05506
 O97 O -0.02887 0.41406 -0.00285
 Co98 Co 0.01571 0.51458 0.09091
 Co99 Co -0.03041 0.50291 -0.04611
 Co100 Co -0.00094 0.44841 0.03712
 Co101 Co -0.00940 0.57233 0.02467
 O102 O -0.01155 0.50915 0.02243
 C103 C -0.06067 0.57122 0.09646
 C104 C -0.06339 0.42320 -0.02686
 C105 C -0.05203 0.45217 0.10767
 C106 C -0.07494 0.58028 -0.04314
 O107 O 1.06503 0.06151 0.46499
 O108 O 0.92219 0.05726 0.52943
 O109 O 0.96801 0.01881 0.39598
 O110 O 1.04264 0.00617 0.60760
 O111 O 0.93407 0.06081 0.44361
 O112 O 1.06261 0.05015 0.55127
 O113 O 0.98253 0.04745 0.57236
 O114 O 1.04963 0.02034 0.40878
 C115 C 1.06559 0.05463 0.42346
 C116 C 0.94517 0.06607 0.56374
 C117 C 0.94895 0.05389 0.40497
 C118 C 1.06760 0.03836 0.59305
 O119 O 1.09191 -0.02871 0.53925
 O120 O 0.90889 -0.01807 0.44075
 O121 O 1.04551 -0.06025 0.44740
 O122 O 0.95645 -0.02836 0.58131
 O123 O 0.90469 -0.02275 0.52569
 O124 O 1.09880 -0.01681 0.45859
 O125 O 1.03076 -0.05951 0.55565
 O126 O 0.96456 -0.06156 0.43047
 Co127 Co 1.07215 0.01534 0.50238
 Co128 Co 0.92535 0.01789 0.48546
 Co129 Co 1.00693 -0.01925 0.42599
 Co130 Co 1.00819 -0.00477 0.55825
 O131 O 0.99866 0.00128 0.49122
 C132 C 1.07298 -0.06098 0.55473
 C133 C 0.92281 -0.05303 0.42701
 C134 C 1.08697 -0.05256 0.44594
 C135 C 0.91757 -0.03655 0.56431
 C136 C 1.13754 0.20069 0.29990
 C137 C 1.17171 0.17641 0.27858
 C138 C 1.17962 0.13450 0.29413
 C139 C 1.15294 0.11656 0.32837
 C140 C 1.11791 0.14069 0.34876
 C141 C 1.11101 0.18301 0.33462
 C142 C 1.08984 0.12153 0.38183
 C143 C 1.09631 0.07844 0.39338
 C144 C 1.13177 0.05534 0.37326
 C145 C 1.16004 0.07421 0.34144
 H146 H 1.20581 0.11502 0.27881
 H147 H 1.08449 0.20219 0.34976
 H148 H 1.06220 0.13932 0.39699
 H149 H 1.18673 0.05529 0.32619
 H150 H 1.13051 0.23316 0.28923
 H151 H 1.13721 0.02211 0.38179
 C152 C 0.85994 -0.19863 0.30285
 C153 C 0.81683 -0.18089 0.29003
 C154 C 0.80205 -0.14383 0.31157
 C155 C 0.83050 -0.12387 0.34327
 C156 C 0.87465 -0.14069 0.35377
 C157 C 0.88859 -0.17859 0.33402
 C158 C 0.90450 -0.11868 0.38277
 C159 C 0.89045 -0.08011 0.40155
 C160 C 0.84545 -0.06505 0.39255
 C161 C 0.81593 -0.08654 0.36365
 H162 H 0.76883 -0.12977 0.30306
 H163 H 0.92207 -0.19232 0.34194
 H164 H 0.93893 -0.13081 0.38952
 H165 H 0.78206 -0.07335 0.35639
 H166 H 0.87261 -0.22731 0.28759
 H167 H 0.83341 -0.03559 0.40660
 C168 C 0.92129 0.15291 0.74752
 C169 C 0.87506 0.16491 0.74066
 C170 C 0.85451 0.15985 0.69803
 C171 C 0.87939 0.14172 0.66290
 C172 C 0.92504 0.12735 0.67077
 C173 C 0.94598 0.13387 0.71299
 C174 C 0.94814 0.10515 0.63700
 C175 C 0.92625 0.09753 0.59529
 C176 C 0.88210 0.11484 0.58691
 C177 C 0.85883 0.13648 0.62042
 H178 H 0.81907 0.16972 0.69238
 H179 H 0.98110 0.12353 0.71956
 H180 H 0.98189 0.09174 0.64422
 H181 H 0.82413 0.14783 0.61359
 H182 H 0.93778 0.15684 0.78016
 H183 H 0.86431 0.10965 0.55517
 C184 C 1.10980 -0.20255 0.69868
 C185 C 1.15661 -0.19332 0.70650
 C186 C 1.17806 -0.16414 0.67706
 C187 C 1.15293 -0.14318 0.64229
 C188 C 1.10535 -0.15056 0.63698
 C189 C 1.08440 -0.18105 0.66472
 C190 C 1.07929 -0.12601 0.60545
 C191 C 1.10046 -0.09422 0.57917
 C192 C 1.14846 -0.08967 0.58243
 C193 C 1.17436 -0.11371 0.61377
 H194 H 1.21421 -0.15705 0.68150
 H195 H 1.04807 -0.18757 0.66090
 H196 H 1.04235 -0.12993 0.60330
 H197 H 1.21094 -0.10806 0.61686
 H198 H 1.09198 -0.22507 0.72008
 H199 H 1.16579 -0.06565 0.56252
 C200 C 0.28246 1.11080 1.17213
 C201 C 0.27867 1.15393 1.15897
 C202 C 0.30431 1.16849 1.12159
 C203 C 0.33295 1.14058 1.09809
 C204 C 0.33512 1.09731 1.11123
 C205 C 0.30991 1.08281 1.14824
 C206 C 0.36302 1.06923 1.08756
 C207 C 0.39022 1.08399 1.05195
 C208 C 0.38890 1.12706 1.03944
 C209 C 0.35986 1.15513 1.06193
 H210 H 0.30248 1.20154 1.11092
 H211 H 0.31157 1.04976 1.15891
 H212 H 0.36470 1.03600 1.09766
 H213 H 0.35888 1.18823 1.05147
 H214 H 0.26350 1.09817 1.20051
 H215 H 0.40998 1.13880 1.01213
 C216 C 0.30561 0.79037 0.85200
 C217 C 0.28520 0.80705 0.81179
 C218 C 0.30414 0.84388 0.79197
 C219 C 0.33984 0.86547 0.81414
 C220 C 0.35731 0.84966 0.85603
 C221 C 0.34107 0.81144 0.87380
 C222 C 0.38919 0.87324 0.88067
 C223 C 0.40397 0.91271 0.86419
 C224 C 0.38878 0.92711 0.82123
 C225 C 0.35689 0.90371 0.79642
 H226 H 0.28965 0.85710 0.76079
 H227 H 0.35461 0.79855 0.90552
 H228 H 0.40102 0.86171 0.91360
 H229 H 0.34430 0.91630 0.76423
 H230 H 0.29314 0.76160 0.86800
 H231 H 0.39974 0.95752 0.80784
 C232 C 0.67381 0.86570 1.20264
 C233 C 0.69271 0.83046 1.18071
 C234 C 0.67510 0.82023 1.13753
 C235 C 0.64170 0.84620 1.11572
 C236 C 0.62369 0.88163 1.13814
 C237 C 0.63929 0.89057 1.18187
 C238 C 0.59226 0.90893 1.11558
 C239 C 0.58043 0.90273 1.06997
 C240 C 0.59798 0.86710 1.04806
 C241 C 0.62768 0.83861 1.07102
 H242 H 0.68902 0.79346 1.11964
 H243 H 0.62589 0.91772 1.19948
 H244 H 0.57975 0.93685 1.13253
 H245 H 0.64131 0.81173 1.05315
 H246 H 0.68588 0.87446 1.23591
 H247 H 0.58975 0.86199 1.01282
 C248 C 0.71560 1.13656 0.79924
 C249 C 0.73618 1.16449 0.82999
 C250 C 0.71385 1.17187 0.87128
 C251 C 0.67403 1.14930 0.88290
 C252 C 0.65506 1.12036 0.85218
 C253 C 0.67538 1.11511 0.81006
 C254 C 0.61757 1.09539 0.86489
 C255 C 0.59968 1.09758 0.90868
 C256 C 0.61748 1.12763 0.93846
 C257 C 0.65410 1.15354 0.92556
 H258 H 0.72870 1.19322 0.89560
 H259 H 0.66111 1.09316 0.78604
 H260 H 0.60440 1.07215 0.84165
 H261 H 0.66798 1.17567 0.94960
 H262 H 0.73104 1.13040 0.76691
 H263 H 0.60393 1.13020 0.97219
 C264 C 0.20605 0.29705 0.12082
 C265 C 0.19638 0.28837 0.16648
 C266 C 0.16908 0.31716 0.19026
 C267 C 0.14834 0.35203 0.16775
 C268 C 0.15555 0.35852 0.12099
 C269 C 0.18577 0.33182 0.09825
 C270 C 0.12984 0.38954 0.09712
 C271 C 0.09695 0.41381 0.11935
 C272 C 0.09201 0.40923 0.16617
 C273 C 0.11784 0.37869 0.19039
 H274 H 0.16181 0.31116 0.22561
 H275 H 0.19195 0.33661 0.06251
 H276 H 0.13276 0.39251 0.06080
 H277 H 0.11198 0.37427 0.22622
 H278 H 0.22724 0.27565 0.10173
 H279 H 0.06597 0.42728 0.18344
 C280 C -0.08988 0.24949 -0.11388
 C281 C -0.13600 0.25491 -0.12732
 C282 C -0.16014 0.29164 -0.11510
 C283 C -0.13757 0.32367 -0.09129
 C284 C -0.09107 0.31779 -0.07797
 C285 C -0.06776 0.28038 -0.08881
 C286 C -0.06801 0.34999 -0.05540
 C287 C -0.09006 0.38883 -0.04729
 C288 C -0.13616 0.39470 -0.06074
 C289 C -0.15998 0.36210 -0.08204
 H290 H -0.19555 0.29618 -0.12612
 H291 H -0.03204 0.27555 -0.07904
 H292 H -0.03217 0.34545 -0.04581
 H293 H -0.19551 0.36730 -0.09222
 H294 H -0.07083 0.22138 -0.12316
 H295 H -0.15369 0.42446 -0.05479
 C296 C 0.17511 0.70801 -0.11644
 C297 C 0.16163 0.71012 -0.16228
 C298 C 0.12802 0.68219 -0.17808
 C299 C 0.10804 0.65262 -0.14829
 C300 C 0.12122 0.65158 -0.10209
 C301 C 0.15496 0.67923 -0.08662
 C302 C 0.09976 0.62360 -0.07184
 C303 C 0.06525 0.59639 -0.08709
 C304 C 0.05359 0.59648 -0.13338
 C305 C 0.07469 0.62441 -0.16368
 H306 H 0.11767 0.68330 -0.21340
 H307 H 0.16553 0.67884 -0.05138
 H308 H 0.10906 0.62387 -0.03626
 H309 H 0.06428 0.62451 -0.19895
 H310 H 0.20083 0.72926 -0.10327
 H311 H 0.02684 0.57602 -0.14602
 C312 C -0.21201 0.70340 0.13093
 C313 C -0.19910 0.71199 0.17573
 C314 C -0.16624 0.68565 0.19783
 C315 C -0.14444 0.65291 0.17467
 C316 C -0.15588 0.64614 0.12887
 C317 C -0.19055 0.67077 0.10769
 C318 C -0.13076 0.61649 0.10435
 C319 C -0.09371 0.59410 0.12477
 C320 C -0.08458 0.59905 0.17106
 C321 C -0.10982 0.62819 0.19586
 H322 H -0.15639 0.69152 0.23257
 H323 H -0.19994 0.66579 0.07267
 H324 H -0.13826 0.61280 0.06868
 H325 H -0.10088 0.63272 0.23106
 H326 H -0.23740 0.72299 0.11317
 H327 H -0.05626 0.58214 0.18755
 C328 C 1.10376 0.19622 0.70768
 C329 C 1.13910 0.17842 0.73518
 C330 C 1.15435 0.13678 0.72660
 C331 C 1.13404 0.11304 0.69247
 C332 C 1.09929 0.13153 0.66454
 C333 C 1.08454 0.17320 0.67227
 C334 C 1.07916 0.10752 0.63025
 C335 C 1.09168 0.06478 0.62556
 C336 C 1.12543 0.04643 0.65398
 C337 C 1.14719 0.07063 0.68668
 H338 H 1.18105 0.12190 0.74750
 H339 H 1.05756 0.18769 0.65147
 H340 H 1.05255 0.12142 0.60850
 H341 H 1.17349 0.05591 0.70814
 H342 H 1.09110 0.22807 0.71318
 H343 H 1.13503 0.01337 0.65067
 C344 C 0.87413 -0.18921 0.68792
 C345 C 0.82765 -0.17912 0.69591
 C346 C 0.80696 -0.14513 0.67121
 C347 C 0.83312 -0.11981 0.64197
 C348 C 0.88047 -0.12864 0.63713
 C349 C 0.90029 -0.16404 0.65912
 C350 C 0.90755 -0.10133 0.61126
 C351 C 0.88785 -0.06570 0.58934
 C352 C 0.84041 -0.05819 0.59211
 C353 C 0.81322 -0.08489 0.61867
 H354 H 0.77105 -0.13715 0.67597
 H355 H 0.93640 -0.17158 0.65508
 H356 H 0.94411 -0.10760 0.60835
 H357 H 0.77689 -0.07783 0.62163
 H358 H 0.89124 -0.21545 0.70552
 H359 H 0.82477 -0.03093 0.57499
 C360 C 1.13945 -0.19392 0.31501
 C361 C 1.18223 -0.17718 0.30216
 C362 C 1.20034 -0.14316 0.32679
 C363 C 1.17482 -0.12427 0.36099
 C364 C 1.13068 -0.13964 0.37132
 C365 C 1.11391 -0.17522 0.34908
 C366 C 1.10317 -0.11789 0.40200
 C367 C 1.11905 -0.08057 0.42194
 C368 C 1.16421 -0.06729 0.41377
 C369 C 1.19186 -0.08894 0.38354
 H370 H 1.23355 -0.13011 0.31835
 H371 H 1.08033 -0.18774 0.35694
 H372 H 1.06850 -0.12862 0.40826
 H373 H 1.22585 -0.07700 0.37642
 H374 H 1.12454 -0.22042 0.29751
 H375 H 1.17741 -0.03888 0.42904
 C376 C 0.85595 0.11309 0.22866
 C377 C 0.85798 0.15725 0.23535
 C378 C 0.88433 0.17229 0.27184
 C379 C 0.90485 0.14345 0.30308
 C380 C 0.90171 0.09933 0.29589
 C381 C 0.87826 0.08462 0.25803
 C382 C 0.91971 0.07037 0.32795
 C383 C 0.93831 0.08471 0.36856
 C384 C 0.94200 0.12843 0.37565
 C385 C 0.92625 0.15767 0.34268
 H386 H 0.88623 0.20604 0.27778
 H387 H 0.87558 0.05093 0.25206
 H388 H 0.91619 0.03658 0.32281
 H389 H 0.92892 0.19127 0.34903
 H390 H 0.83698 0.10013 0.20048
 H391 H 0.95642 0.13987 0.40701
 C392 C 0.09658 0.31183 -0.18351
 C393 C 0.13646 0.29500 -0.16197
 C394 C 0.15400 0.31561 -0.12361
 C395 C 0.13095 0.35072 -0.10589
 C396 C 0.09004 0.36602 -0.12691
 C397 C 0.07367 0.34688 -0.16614
 C398 C 0.06501 0.39889 -0.10717
 C399 C 0.07973 0.41590 -0.06599
 C400 C 0.12163 0.40197 -0.04656
 C401 C 0.14717 0.36978 -0.06643
 H402 H 0.18486 0.30376 -0.10655
 H403 H 0.04244 0.35833 -0.18279
 H404 H 0.03251 0.40914 -0.12225
 H405 H 0.17869 0.35874 -0.05003
 H406 H 0.08213 0.29735 -0.21331
 H407 H 0.13389 0.41513 -0.01523
 C408 C -0.19854 0.32026 0.13518
 C409 C -0.17417 0.29569 0.16805
 C410 C -0.13677 0.31433 0.19091
 C411 C -0.12096 0.35459 0.17741
 C412 C -0.14349 0.37686 0.14151
 C413 C -0.18334 0.36033 0.12209
 C414 C -0.12364 0.41331 0.12282
 C415 C -0.08076 0.42713 0.13856
 C416 C -0.06082 0.40761 0.17718
 C417 C -0.08092 0.37156 0.19662
 H418 H -0.11797 0.29658 0.21699
 H419 H -0.20137 0.37736 0.09499
 H420 H -0.13910 0.42834 0.09298
 H421 H -0.06336 0.35524 0.22449
 H422 H -0.22824 0.30785 0.11762
 H423 H -0.02752 0.41761 0.18957
 C424 C -0.11950 0.73020 -0.17192
 C425 C -0.16694 0.72357 -0.17680
 C426 C -0.18753 0.68969 -0.15336
 C427 C -0.16052 0.66221 -0.12578
 C428 C -0.11297 0.66997 -0.12051
 C429 C -0.09283 0.70395 -0.14364
 C430 C -0.08599 0.64335 -0.09259
 C431 C -0.10524 0.60803 -0.07086
 C432 C -0.15213 0.59952 -0.07698
 C433 C -0.17981 0.62685 -0.10379
 H434 H -0.22408 0.68429 -0.15737
 H435 H -0.05638 0.71006 -0.14010
 H436 H -0.04953 0.64950 -0.08865
 H437 H -0.21607 0.62014 -0.10768
 H438 H -0.10309 0.75632 -0.18947
 H439 H -0.16736 0.57219 -0.06055
 C440 C 0.20492 0.71793 0.13363
 C441 C 0.18661 0.73016 0.17536
 C442 C 0.14617 0.71028 0.19038
 C443 C 0.12360 0.68039 0.16376
 C444 C 0.14178 0.66921 0.12154
 C445 C 0.18279 0.68778 0.10711
 C446 C 0.11790 0.64056 0.09409
 C447 C 0.07598 0.62364 0.10846
 C448 C 0.05853 0.63454 0.15056
 C449 C 0.08230 0.66241 0.17822
 H450 H 0.13125 0.71872 0.22238
 H451 H 0.19734 0.67958 0.07490
 H452 H 0.13095 0.63255 0.06118
 H453 H 0.06781 0.67068 0.21043
 H454 H 0.23604 0.73214 0.12088
 H455 H 0.02595 0.62198 0.16169
 C456 C 0.25301 1.17528 0.90052
 C457 C 0.25299 1.18313 0.85372
 C458 C 0.28804 1.16597 0.82752
 C459 C 0.32157 1.13926 0.84720
 C460 C 0.31991 1.12908 0.89388
 C461 C 0.28622 1.14819 0.92052
 C462 C 0.35126 1.09927 0.91261
 C463 C 0.38476 1.08070 0.88532
 C464 C 0.38737 1.09264 0.83956
 C465 C 0.35574 1.12138 0.82051
 H466 H 0.28813 1.17221 0.79136
 H467 H 0.28473 1.14117 0.95643
 H468 H 0.34969 1.09053 0.94815
 H469 H 0.35758 1.12915 0.78477
 H470 H 0.22590 1.18810 0.92108
 H471 H 0.41315 1.07870 0.81820
 C472 C 0.31218 0.88113 1.20886
 C473 C 0.30087 0.84180 1.19013
 C474 C 0.32402 0.82865 1.15141
 C475 C 0.35600 0.85528 1.13031
 C476 C 0.36549 0.89558 1.14823
 C477 C 0.34413 0.90774 1.18812
 C478 C 0.39448 0.92368 1.12483
 C479 C 0.41325 0.91212 1.08332
 C480 C 0.40535 0.87114 1.06713
 C481 C 0.37718 0.84296 1.09044
 H482 H 0.31605 0.79833 1.13672
 H483 H 0.35107 0.93837 1.20255
 H484 H 0.40021 0.95522 1.13753
 H485 H 0.37062 0.81210 1.07639
 H486 H 0.29515 0.89215 1.23879
 H487 H 0.41972 0.86135 1.03538
 C488 C 0.74240 1.16993 1.07825
 C489 C 0.73734 1.17285 1.12506
 C490 C 0.70254 1.15033 1.14694
 C491 C 0.67373 1.12367 1.12248
 C492 C 0.68068 1.11879 1.07568
 C493 C 0.71435 1.14278 1.05364
 C494 C 0.65427 1.08957 1.05196
 C495 C 0.61967 1.06682 1.07395
 C496 C 0.61154 1.07310 1.11983
 C497 C 0.63895 1.10089 1.14422
 H498 H 0.69902 1.15253 1.18325
 H499 H 0.71976 1.13969 1.01772
 H500 H 0.66015 1.08488 1.01633
 H501 H 0.63300 1.10455 1.17998
 H502 H 0.76971 1.18675 1.06127
 H503 H 0.58459 1.05590 1.13691
 C504 C 0.66690 0.83573 0.76999
 C505 C 0.70153 0.81967 0.79920
 C506 C 0.70163 0.83078 0.84483
 C507 C 0.66935 0.85996 0.86055
 C508 C 0.63484 0.87652 0.83088
 C509 C 0.63321 0.86333 0.78592
 C510 C 0.60385 0.90723 0.84622
 C511 C 0.60831 0.92277 0.89016
 C512 C 0.64262 0.90601 0.91933
 C513 C 0.67252 0.87448 0.90486
 H514 H 0.72896 0.81929 0.86725
 H515 H 0.60716 0.87579 0.76265
 H516 H 0.57745 0.92015 0.82357
 H517 H 0.69882 0.86219 0.92797
 H518 H 0.66671 0.82778 0.73457
 H519 H 0.64611 0.91711 0.95358
   
