data_POSCAR
  _audit_creation_date              2014-09-24
  _audit_creation_method            'ToBaCCo'
  _symmetry_space_group_name_H-M    'P1'
  _symmetry_Int_Tables_number       1
  _symmetry_cell_setting            triclinic
  loop_
  _symmetry_equiv_pos_as_xyz
 x,y,z
_cell_length_a 24.7635
_cell_length_b 24.7667
_cell_length_c 24.7948
_cell_angle_alpha 90.012400
_cell_angle_beta 90.085100
_cell_angle_gamma 120.100300
loop_
  _atom_site_label
  _atom_site_type_symbol
  _atom_site_fract_x
  _atom_site_fract_y
  _atom_site_fract_z
C1 C 0.53328 0.09577 0.07252
 H2 H 0.57817 0.09850 0.06955
 C3 C 0.52683 0.13872 0.10411
 H4 H 0.56737 0.17474 0.12501
 C5 C 0.42728 0.04770 0.04585
 H6 H 0.38912 0.01328 0.02176
 C7 C 0.41859 0.08960 0.07732
 H8 H 0.37362 0.08664 0.07602
 N9 N 0.48384 0.05123 0.04442
 C10 C 0.52619 -0.09721 0.01624
 H11 H 0.52448 -0.09950 -0.02735
 C12 C 0.53517 -0.14015 0.04568
 H13 H 0.53920 -0.17577 0.02392
 C14 C 0.51686 -0.05115 0.09676
 H15 H 0.50768 -0.01775 0.11657
 C16 C 0.52561 -0.09318 0.12776
 H17 H 0.52255 -0.09163 0.17122
 Zn18 Zn 0.49977 -0.00101 -0.00032
 N19 N 0.51767 -0.05363 0.04203
 C20 C 0.62156 0.04868 -0.04577
 N21 N 0.56849 0.05211 -0.04426
 C22 C 0.56389 0.09707 -0.07173
 C23 C 0.61361 0.14049 -0.10280
 C24 C 0.67247 0.09105 -0.07673
 C25 C 0.37726 -0.09726 -0.01835
 C26 C 0.32548 -0.13975 -0.04838
 C27 C 0.38245 -0.09067 -0.12977
 C28 C 0.43308 -0.04924 -0.09811
 N29 N 0.42947 -0.05291 -0.04346
 H30 H 0.62507 0.01390 -0.02219
 H31 H 0.52167 0.09968 -0.06873
 H32 H 0.60927 0.17671 -0.12334
 H33 H 0.71439 0.08797 -0.07558
 H34 H 0.37651 -0.10059 0.02518
 H35 H 0.28596 -0.17608 -0.02687
 H36 H 0.38803 -0.08795 -0.17315
 H37 H 0.47588 -0.01535 -0.11741
 C38 C 0.53613 -0.13794 0.10245
 C39 C 0.46865 0.13563 0.10777
 C40 C 0.32645 -0.13626 -0.10532
 C41 C 0.66876 0.13754 -0.10653
 C42 C -0.09675 0.46710 0.59524
 H43 H -0.09949 0.42222 0.59839
 C44 C -0.14007 0.47333 0.56393
 H45 H -0.17636 0.43265 0.54337
 C46 C -0.04817 0.57335 0.62108
 H47 H -0.01335 0.61174 0.64471
 C48 C -0.09043 0.58183 0.58987
 H49 H -0.08727 0.62688 0.59090
 N50 N -0.05176 0.51677 0.62277
 C51 C 0.09696 0.47446 0.64965
 H52 H 0.09994 0.47660 0.69321
 C53 C 0.13940 0.46515 0.61983
 H54 H 0.17537 0.46127 0.64122
 C55 C 0.04967 0.48307 0.56955
 H56 H 0.01601 0.49214 0.55004
 C57 C 0.09118 0.47396 0.53817
 H58 H 0.08899 0.47672 0.49474
 Zn59 Zn 0.00115 0.50122 0.66707
 N60 N 0.05301 0.48278 0.62426
 C61 C -0.04807 0.37983 0.71322
 N62 N -0.05131 0.43300 0.71176
 C63 C -0.09573 0.43796 0.73972
 C64 C -0.13880 0.38852 0.77124
 C65 C -0.09010 0.32918 0.74462
 C66 C 0.09772 0.62390 0.68359
 C67 C 0.14078 0.67600 0.71297
 C68 C 0.09324 0.61997 0.79511
 C69 C 0.05115 0.56898 0.76414
 N70 N 0.05386 0.57195 0.70941
 H71 H -0.01378 0.37600 0.68921
 H72 H -0.09827 0.48022 0.73669
 H73 H -0.17471 0.39310 0.79205
 H74 H -0.08735 0.28708 0.74334
 H75 H 0.10016 0.62421 0.64002
 H76 H 0.17663 0.71549 0.69113
 H77 H 0.09141 0.61555 0.83859
 H78 H 0.01750 0.52649 0.78399
 C79 C 0.13629 0.46360 0.56310
 C80 C -0.13695 0.53150 0.56000
 C81 C 0.13841 0.67525 0.76979
 C82 C -0.13597 0.33330 0.77496
 C83 C 0.56245 0.46608 0.40599
 H84 H 0.52013 0.42120 0.40306
 C85 C 0.61202 0.47262 0.43749
 H86 H 0.60746 0.43216 0.45840
 C87 C 0.62061 0.57197 0.37931
 H88 H 0.62438 0.61006 0.35524
 C89 C 0.67138 0.58075 0.41069
 H90 H 0.71351 0.62570 0.40936
 N91 N 0.56737 0.51543 0.37794
 C92 C 0.37616 0.47260 0.35016
 H93 H 0.37535 0.47416 0.30657
 C94 C 0.32433 0.46364 0.37970
 H95 H 0.28451 0.45945 0.35803
 C96 C 0.43205 0.48235 0.43057
 H97 H 0.47481 0.49172 0.45029
 C98 C 0.38136 0.47361 0.46167
 H99 H 0.38624 0.47688 0.50511
 Zn100 Zn 0.49890 0.49936 0.33334
 N101 N 0.42846 0.48134 0.37584
 C102 C 0.42653 0.37749 0.28764
 N103 N 0.48309 0.43071 0.28918
 C104 C 0.53263 0.43554 0.26157
 C105 C 0.52629 0.38591 0.23035
 C106 C 0.41794 0.32666 0.25651
 C107 C 0.52568 0.62197 0.31571
 C108 C 0.53485 0.67366 0.28580
 C109 C 0.52538 0.61630 0.20423
 C110 C 0.51643 0.56575 0.23570
 N111 N 0.51711 0.56957 0.29041
 H112 H 0.38826 0.37382 0.31134
 H113 H 0.57750 0.47787 0.26460
 H114 H 0.56687 0.39043 0.20972
 H115 H 0.37292 0.28461 0.25764
 H116 H 0.52386 0.62297 0.35928
 H117 H 0.53895 0.71363 0.30713
 H118 H 0.52229 0.61116 0.16082
 H119 H 0.50716 0.52290 0.21626
 C120 C 0.32588 0.46290 0.43646
 C121 C 0.66733 0.53079 0.44109
 C122 C 0.53600 0.67190 0.22907
 C123 C 0.46813 0.33061 0.22659
 C124 C 0.18548 0.45967 0.52926
 C125 C 0.23958 0.52486 0.51532
 C126 C 0.28484 0.52469 0.48466
 C127 C 0.27278 0.45935 0.47009
 C128 C 0.26203 0.42538 0.52453
 C129 C 0.21660 0.42552 0.55536
 C130 C 0.16211 0.42634 0.47451
 C131 C 0.20751 0.42615 0.44367
 H132 H 0.24206 0.56783 0.52860
 H133 H 0.32584 0.56752 0.47177
 H134 H 0.28471 0.39933 0.53617
 H135 H 0.20104 0.39907 0.59256
 H136 H 0.11333 0.40072 0.46269
 H137 H 0.19634 0.39984 0.40634
 C138 C 0.53982 0.81251 0.13601
 C139 C 0.57444 0.83597 0.19024
 C140 C 0.57444 0.79044 0.22108
 C141 C 0.53977 0.72496 0.19518
 C142 C 0.47452 0.71387 0.18162
 C143 C 0.47454 0.75927 0.15096
 C144 C 0.57250 0.78021 0.10939
 C145 C 0.57245 0.73466 0.14023
 H146 H 0.60072 0.88481 0.20175
 H147 H 0.60125 0.80146 0.25814
 H148 H 0.43161 0.67341 0.19515
 H149 H 0.43165 0.75743 0.13831
 H150 H 0.59846 0.79520 0.07194
 H151 H 0.59784 0.71142 0.12828
 C152 C 0.27577 0.81656 0.86224
 C153 C 0.28629 0.76485 0.85014
 C154 C 0.23845 0.71697 0.81801
 C155 C 0.18831 0.72891 0.80350
 C156 C 0.16557 0.73961 0.85462
 C157 C 0.21355 0.78789 0.88693
 C158 C 0.26696 0.83850 0.80973
 C159 C 0.21896 0.79027 0.77740
 H160 H 0.32659 0.76225 0.86397
 H161 H 0.23999 0.67566 0.80569
 H162 H 0.11648 0.71997 0.86425
 H163 H 0.20192 0.80698 0.92150
 H164 H 0.28686 0.88739 0.79914
 H165 H 0.20102 0.80158 0.74183
 C166 C 0.81315 0.53614 0.52764
 C167 C 0.82427 0.60192 0.51450
 C168 C 0.77658 0.60172 0.48671
 C169 C 0.72199 0.53576 0.47352
 C170 C 0.75283 0.50348 0.44436
 C171 C 0.80039 0.50403 0.47219
 C172 C 0.74996 0.50358 0.55680
 C173 C 0.70274 0.50374 0.52897
 H174 H 0.86595 0.64534 0.52475
 H175 H 0.77803 0.64495 0.47658
 H176 H 0.73947 0.48341 0.40426
 H177 H 0.82766 0.48478 0.45547
 H178 H 0.74335 0.48367 0.59691
 H179 H 0.65618 0.48433 0.54572
 C180 C 0.46375 0.18528 0.14021
 C181 C 0.39780 0.17346 0.15366
 C182 C 0.39762 0.22093 0.18143
 C183 C 0.46342 0.27602 0.19428
 C184 C 0.49645 0.24583 0.22334
 C185 C 0.49628 0.19847 0.19553
 C186 C 0.49555 0.24838 0.11089
 C187 C 0.49503 0.29538 0.13870
 H188 H 0.35458 0.13137 0.14375
 H189 H 0.35418 0.21885 0.19189
 H190 H 0.51668 0.25939 0.26338
 H191 H 0.51597 0.17157 0.21224
 H192 H 0.51530 0.25509 0.07072
 H193 H 0.51397 0.34187 0.12189
 C194 C -0.27658 0.18749 0.86128
 C195 C -0.22160 0.17678 0.84859
 C196 C -0.17407 0.22450 0.82090
 C197 C -0.18572 0.27870 0.80735
 C198 C -0.24885 0.24734 0.77789
 C199 C -0.29591 0.19975 0.80563
 C200 C -0.24623 0.25082 0.89034
 C201 C -0.19880 0.29808 0.86260
 H202 H -0.21961 0.13539 0.85912
 H203 H -0.13203 0.22339 0.81114
 H204 H -0.25553 0.26040 0.73769
 H205 H -0.34244 0.17217 0.78874
 H206 H -0.25973 0.25750 0.93033
 H207 H -0.17180 0.34474 0.87933
   
