data_POSCAR
  _audit_creation_date              2014-09-24
  _audit_creation_method            'ToBaCCo'
  _symmetry_space_group_name_H-M    'P1'
  _symmetry_Int_Tables_number       1
  _symmetry_cell_setting            triclinic
  loop_
  _symmetry_equiv_pos_as_xyz
 x,y,z
_cell_length_a 24.5596
_cell_length_b 24.8541
_cell_length_c 23.9719
_cell_angle_alpha 90.065200
_cell_angle_beta 89.242900
_cell_angle_gamma 87.723400
loop_
  _atom_site_label
  _atom_site_type_symbol
  _atom_site_fract_x
  _atom_site_fract_y
  _atom_site_fract_z
C1 C 0.14916 0.19162 0.24155
 C2 C 0.15032 0.23660 0.20558
 C3 C 0.18847 0.23768 0.16245
 C4 C 0.22619 0.19442 0.15470
 C5 C 0.22628 0.15067 0.19064
 C6 C 0.18714 0.14905 0.23426
 C7 C 0.11907 0.18083 0.28936
 N8 N 0.13749 0.13284 0.31038
 C9 C 0.17946 0.11344 0.27780
 C10 C 0.27219 0.11875 0.17725
 N11 N 0.29854 0.14187 0.13380
 C12 C 0.27109 0.18811 0.11995
 C13 C 0.18062 0.28581 0.13438
 N14 N 0.13871 0.31398 0.15951
 C15 C 0.11980 0.28453 0.20287
 H16 H 0.08849 0.20733 0.30909
 H17 H 0.20442 0.07767 0.28675
 H18 H 0.28754 0.08398 0.20021
 H19 H 0.28552 0.21747 0.09045
 H20 H 0.20242 0.29849 0.09744
 H21 H 0.08514 0.29628 0.22912
 C22 C -0.15636 0.80601 0.24689
 C23 C -0.15764 0.76174 0.20997
 C24 C -0.19630 0.76100 0.16831
 C25 C -0.23463 0.80414 0.16312
 C26 C -0.23459 0.84725 0.20012
 C27 C -0.19479 0.84837 0.24228
 C28 C -0.12537 0.81607 0.29348
 N29 N -0.14359 0.86346 0.31658
 C30 C -0.18642 0.88318 0.28642
 C31 C -0.28064 0.87942 0.18879
 N32 N -0.30724 0.85720 0.14558
 C33 C -0.27984 0.81115 0.12993
 C34 C -0.18805 0.71326 0.13896
 N35 N -0.14556 0.68514 0.16209
 C36 C -0.12665 0.71421 0.20525
 H37 H -0.09418 0.78939 0.31104
 H38 H -0.21141 0.91858 0.29738
 H39 H -0.29568 0.91396 0.21279
 H40 H -0.29424 0.78252 0.09996
 H41 H -0.21015 0.70076 0.10270
 H42 H -0.09174 0.70239 0.23016
 C43 C -0.14410 0.18892 -0.20675
 C44 C -0.15052 0.22519 -0.16206
 C45 C -0.19169 0.21927 -0.12279
 C46 C -0.22839 0.17780 -0.12878
 C47 C -0.22376 0.14298 -0.17431
 C48 C -0.18070 0.14831 -0.21364
 C49 C -0.10899 0.18765 -0.25210
 N50 N -0.12288 0.14727 -0.28633
 C51 C -0.16719 0.12340 -0.26424
 C52 C -0.26980 0.11238 -0.17310
 N53 N -0.30091 0.12745 -0.12793
 C54 C -0.27631 0.16747 -0.10087
 C55 C -0.18828 0.26085 -0.08468
 N56 N -0.14710 0.29212 -0.10122
 C57 C -0.12357 0.27074 -0.14814
 H58 H -0.07794 0.21622 -0.26132
 H59 H -0.18952 0.09242 -0.28464
 H60 H -0.28182 0.08458 -0.20505
 H61 H -0.29437 0.19073 -0.06664
 H62 H -0.21391 0.26799 -0.04818
 H63 H -0.08846 0.28638 -0.16950
 C64 C 0.14696 0.80888 -0.20650
 C65 C 0.15104 0.77141 -0.16281
 C66 C 0.19232 0.77433 -0.12428
 C67 C 0.23134 0.81377 -0.12997
 C68 C 0.22913 0.84956 -0.17462
 C69 C 0.18602 0.84740 -0.21325
 C70 C 0.11215 0.81313 -0.25106
 N71 N 0.12859 0.85323 -0.28471
 C72 C 0.17427 0.87394 -0.26303
 C73 C 0.27669 0.87791 -0.17305
 N74 N 0.30618 0.86057 -0.12841
 C75 C 0.27921 0.82129 -0.10215
 C76 C 0.18659 0.73232 -0.08715
 N77 N 0.14389 0.70356 -0.10351
 C78 C 0.12159 0.72704 -0.14937
 H79 H 0.07956 0.78655 -0.26033
 H80 H 0.19869 0.90373 -0.28329
 H81 H 0.29047 0.90606 -0.20412
 H82 H 0.29533 0.79695 -0.06827
 H83 H 0.21178 0.72306 -0.05148
 H84 H 0.08581 0.71359 -0.17036
 C85 C 0.19394 1.13786 0.75977
 C86 C 0.22591 1.14326 0.80668
 C87 C 0.21048 1.17932 0.84840
 C88 C 0.16243 1.21098 0.84290
 C89 C 0.13074 1.20616 0.79566
 C90 C 0.14657 1.16927 0.75379
 C91 C 0.20170 1.10761 0.71246
 N92 N 0.16026 1.12044 0.67815
 C93 C 0.12598 1.15793 0.70204
 C94 C 0.09230 1.24776 0.79670
 N95 N 0.10022 1.27713 0.84315
 C96 C 0.14261 1.25532 0.87186
 C97 C 0.25053 1.17654 0.88821
 N98 N 0.28923 1.13992 0.87048
 C99 C 0.27474 1.11940 0.82081
 H100 H 0.23509 1.07907 0.70320
 H101 H 0.08959 1.17545 0.68322
 H102 H 0.06507 1.25940 0.76325
 H103 H 0.16151 1.27400 0.90716
 H104 H 0.25102 1.19825 0.92736
 H105 H 0.29730 1.08822 0.79765
 C106 C 0.84804 0.89463 0.81184
 C107 C 0.81383 0.88745 0.85785
 C108 C 0.82092 0.84266 0.89170
 C109 C 0.86217 0.80417 0.87901
 C110 C 0.89549 0.81044 0.83223
 C111 C 0.88845 0.85597 0.79856
 C112 C 0.84040 0.92660 0.76585
 N113 N 0.87491 0.90797 0.72556
 C114 C 0.90445 0.86490 0.74422
 C115 C 0.92081 0.76123 0.82094
 N116 N 0.90351 0.72648 0.85983
 C117 C 0.86802 0.75153 0.89547
 C118 C 0.77452 0.83915 0.92427
 N119 N 0.73981 0.87984 0.90932
 C120 C 0.76319 0.90995 0.86944
 H121 H 0.80797 0.95679 0.75985
 H122 H 0.93072 0.83879 0.71849
 H123 H 0.94526 0.75027 0.78444
 H124 H 0.84407 0.73160 0.92695
 H125 H 0.76462 0.80691 0.95251
 H126 H 0.74319 0.94328 0.84778
 C127 C 0.15460 0.87674 1.18270
 C128 C 0.19990 0.86809 1.14751
 C129 C 0.19994 0.82856 1.10666
 C130 C 0.15515 0.79592 1.10193
 C131 C 0.11107 0.80348 1.13818
 C132 C 0.11019 0.84469 1.17768
 C133 C 0.14875 0.90376 1.23257
 N134 N 0.10206 0.88850 1.25733
 C135 C 0.07793 0.85289 1.22414
 C136 C 0.07831 0.76067 1.13205
 N137 N 0.10122 0.72821 1.09240
 C138 C 0.14759 0.74917 1.07273
 C139 C 0.25041 0.82714 1.08114
 N140 N 0.28054 0.86420 1.10637
 C141 C 0.25045 0.88947 1.14700
 H142 H 0.17993 0.92592 1.25304
 H143 H 0.04438 0.82847 1.23693
 H144 H 0.04138 0.75283 1.15531
 H145 H 0.17512 0.72999 1.04256
 H146 H 0.26414 0.80168 1.04665
 H147 H 0.26386 0.92199 1.17289
 C148 C 0.83004 1.12270 1.18434
 C149 C 0.78710 1.13192 1.14789
 C150 C 0.78869 1.17278 1.10882
 C151 C 0.83314 1.20622 1.10735
 C152 C 0.87464 1.19872 1.14567
 C153 C 0.87356 1.15624 1.18369
 C154 C 0.83368 1.09176 1.23142
 N155 N 0.87820 1.10612 1.25924
 C156 C 0.90308 1.14540 1.23085
 C157 C 0.90821 1.24121 1.14059
 N158 N 0.88830 1.27322 1.09955
 C159 C 0.84304 1.25246 1.07826
 C160 C 0.73963 1.17410 1.08160
 N161 N 0.70884 1.13595 1.10489
 C162 C 0.73726 1.10983 1.14518
 H163 H 0.80250 1.06639 1.24805
 H164 H 0.93557 1.16898 1.24693
 H165 H 0.94423 1.24848 1.16459
 H166 H 0.81827 1.27097 1.04606
 H167 H 0.72712 1.20058 1.04791
 H168 H 0.72304 1.07650 1.16970
 O169 O 0.57066 0.96202 0.89500
 O170 O 0.42915 0.97254 1.11130
 O171 O 0.59804 0.95125 1.06654
 O172 O 0.40132 0.95029 0.94076
 O173 O 0.52008 0.93010 1.09943
 O174 O 0.47971 0.92438 0.90640
 O175 O 0.40916 0.93451 1.03680
 O176 O 0.59336 0.93014 0.97247
 C177 C 0.60057 0.93071 0.92203
 C178 C 0.40331 0.93771 1.08735
 C179 C 0.56960 0.91950 1.09429
 C180 C 0.43031 0.91670 0.91282
 O181 O 0.43653 1.02243 0.88976
 O182 O 0.56135 1.02733 1.11205
 O183 O 0.60082 1.03847 0.94272
 O184 O 0.39589 1.04551 1.05874
 O185 O 0.47182 1.06828 1.09363
 O186 O 0.52541 1.06039 0.90256
 O187 O 0.40545 1.06017 0.96292
 O188 O 0.58494 1.06075 1.03602
 Co189 Co 0.50268 0.99250 0.90931
 Co190 Co 0.49598 0.99914 1.09303
 Co191 Co 0.58565 0.99536 1.00437
 Co192 Co 0.41169 0.99733 1.00013
 O193 O 0.49898 0.99610 1.00147
 C194 C 0.40711 1.05825 0.91188
 C195 C 0.58778 1.06118 1.08671
 C196 C 0.57376 1.06969 0.91130
 C197 C 0.42296 1.07888 1.08529
 O198 O 0.05741 0.45096 0.10099
 O199 O 0.05073 0.54537 -0.09712
 O200 O 0.03940 0.36720 -0.05338
 O201 O -0.00441 0.61429 0.05491
 O202 O 0.05274 0.44762 -0.08923
 O203 O 0.04481 0.55457 0.10041
 O204 O 0.04683 0.59503 -0.02543
 O205 O 0.08628 0.42508 0.01721
 C206 C 0.09202 0.42495 0.06961
 C207 C 0.06759 0.58434 -0.07123
 C208 C 0.05181 0.39699 -0.09675
 C209 C 0.03370 0.60270 0.08764
 O210 O -0.06347 0.54802 0.10226
 O211 O -0.05759 0.45189 -0.09469
 O212 O -0.00203 0.38361 0.05586
 O213 O -0.04502 0.62937 -0.05213
 O214 O -0.05971 0.54986 -0.09048
 O215 O -0.05039 0.44448 0.10273
 O216 O -0.09234 0.57233 0.01892
 O217 O -0.05258 0.40154 -0.02365
 Co218 Co -0.00295 0.49949 0.09401
 Co219 Co -0.00339 0.49866 -0.08464
 Co220 Co 0.01612 0.42000 -0.00698
 Co221 Co -0.02203 0.57702 -0.00692
 O222 O -0.00326 0.49880 0.00553
 C223 C -0.09824 0.57337 0.07146
 C224 C -0.07384 0.41254 -0.06858
 C225 C -0.03958 0.39610 0.09019
 C226 C -0.05955 0.60090 -0.09541
 O227 O 1.10395 0.01529 0.44595
 O228 O 0.93400 0.09245 0.53488
 O229 O 0.95502 0.02766 0.36230
 O230 O 1.06054 0.05142 0.59783
 O231 O 0.93513 0.07044 0.43912
 O232 O 1.11540 0.00128 0.54455
 O233 O 0.95705 0.05788 0.61322
 O234 O 1.03353 0.06276 0.41682
 C235 C 1.08399 0.05793 0.42379
 C236 C 0.93541 0.09581 0.58626
 C237 C 0.92326 0.06226 0.38907
 C238 C 1.10642 0.04191 0.57530
 O239 O 1.06575 -0.09532 0.53737
 O240 O 0.89123 -0.02683 0.46241
 O241 O 1.04781 -0.03208 0.37660
 O242 O 0.95503 -0.04587 0.61147
 O243 O 0.89198 -0.00365 0.56119
 O244 O 1.05483 -0.08480 0.44372
 O245 O 1.05909 -0.05156 0.61326
 O246 O 0.95825 -0.06086 0.41505
 Co247 Co 1.07892 -0.03818 0.49344
 Co248 Co 0.92028 0.03002 0.49961
 Co249 Co 0.99448 0.00167 0.42034
 Co250 Co 1.00740 0.00226 0.59874
 O251 O 1.00217 -0.00312 0.50641
 C252 C 1.07218 -0.09402 0.58820
 C253 C 0.90994 -0.06282 0.43024
 C254 C 1.06433 -0.07653 0.39417
 C255 C 0.90597 -0.03771 0.59792
 N256 N 1.12693 0.11572 0.36004
 N257 N 1.11943 0.10023 0.40848
 N258 N 0.86799 -0.12059 0.36624
 N259 N 0.87652 -0.10659 0.41488
 N260 N 0.89408 0.14284 0.66268
 N261 N 0.90939 0.14168 0.61333
 N262 N 1.11263 -0.14115 0.66450
 N263 N 1.09794 -0.13962 0.61535
 N264 N 0.34906 1.13245 1.12097
 N265 N 0.39820 1.12624 1.11028
 N266 N 0.35727 0.86814 0.87836
 N267 N 0.40680 0.87303 0.88376
 N268 N 0.64235 0.86754 1.13383
 N269 N 0.59324 0.87465 1.12431
 N270 N 0.64797 1.11860 0.87767
 N271 N 0.59836 1.11260 0.88146
 N272 N 0.11161 0.36055 0.13846
 N273 N 0.12674 0.38364 0.09361
 N274 N -0.12545 0.33406 -0.07019
 N275 N -0.10857 0.37564 -0.09498
 N276 N 0.12046 0.66187 -0.07306
 N277 N 0.10282 0.62102 -0.09819
 N278 N -0.11834 0.63860 0.14013
 N279 N -0.13325 0.61500 0.09582
 N280 N 1.15440 0.09861 0.63047
 N281 N 1.15019 0.07609 0.58528
 N282 N 0.86996 -0.07928 0.67425
 N283 N 0.86445 -0.06591 0.62538
 N284 N 1.09591 -0.11285 0.31024
 N285 N 1.09083 -0.11697 0.36093
 N286 N 0.88210 0.10054 0.31193
 N287 N 0.88449 0.09695 0.36276
 N288 N 0.08442 0.32653 -0.15202
 N289 N 0.07089 0.37441 -0.14809
 N290 N -0.08691 0.31890 0.07946
 N291 N -0.07083 0.35457 0.11271
 N292 N -0.08917 0.67542 -0.14267
 N293 N -0.08254 0.62631 -0.14298
 N294 N 0.07893 0.68089 0.07371
 N295 N 0.06472 0.64503 0.10809
 N296 N 0.33241 1.11921 0.90241
 N297 N 0.36783 1.08720 0.87986
 N298 N 0.33040 0.88129 1.08578
 N299 N 0.35875 0.91308 1.11378
 N300 N 0.65978 1.11883 1.08379
 N301 N 0.63046 1.08798 1.11257
 N302 N 0.68659 0.88830 0.92958
 N303 N 0.65095 0.91136 0.89890
   
