data_POSCAR
  _audit_creation_date              2014-09-24
  _audit_creation_method            'ToBaCCo'
  _symmetry_space_group_name_H-M    'P1'
  _symmetry_Int_Tables_number       1
  _symmetry_cell_setting            triclinic
  loop_
  _symmetry_equiv_pos_as_xyz
 x,y,z
_cell_length_a 52.0038
_cell_length_b 51.8766
_cell_length_c 51.9967
_cell_angle_alpha 89.911600
_cell_angle_beta 90.000100
_cell_angle_gamma 90.084100
loop_
  _atom_site_label
  _atom_site_type_symbol
  _atom_site_fract_x
  _atom_site_fract_y
  _atom_site_fract_z
N1 N 0.59471 0.66589 0.61479
 N2 N 0.58498 0.65563 0.63582
 C3 C 0.56409 0.66923 0.64293
 C4 C 0.56078 0.68895 0.62542
 C5 C 0.58041 0.68636 0.60783
 H6 H 0.55217 0.66512 0.65948
 H7 H 0.58400 0.69842 0.59122
 Cu8 Cu 0.60066 0.62527 0.65121
 Cu9 Cu 0.62514 0.65195 0.59788
 Cu10 Cu 0.65237 0.59724 0.62523
 N11 N 0.61546 0.59439 0.66643
 N12 N 0.63575 0.58345 0.65598
 C13 C 0.64216 0.56242 0.66976
 C14 C 0.62494 0.56020 0.68979
 C15 C 0.60820 0.58064 0.68724
 H16 H 0.65809 0.54974 0.66554
 H17 H 0.59203 0.58508 0.69953
 N18 N 0.66632 0.61413 0.59417
 N19 N 0.65596 0.63494 0.58378
 C20 C 0.66987 0.64185 0.56300
 C21 C 0.68977 0.62459 0.56034
 C22 C 0.68709 0.60729 0.58028
 H23 H 0.66590 0.65822 0.55073
 H24 H 0.69939 0.59100 0.58432
 H25 H 0.61982 0.61435 0.60992
 H26 H 0.64121 0.63509 0.62992
 N27 N 0.90607 0.33340 0.11433
 N28 N 0.91651 0.34434 0.13464
 C29 C 0.93726 0.33063 0.14193
 C30 C 0.93978 0.31021 0.12519
 C31 C 0.91981 0.31240 0.10794
 H32 H 0.94953 0.33508 0.15813
 H33 H 0.91557 0.29970 0.09200
 Cu34 Cu 0.90136 0.37515 0.14945
 Cu35 Cu 0.87540 0.34709 0.09766
 Cu36 Cu 0.84816 0.40174 0.12492
 N37 N 0.88605 0.40545 0.16510
 N38 N 0.86506 0.41569 0.15536
 C39 C 0.85813 0.43614 0.16966
 C40 C 0.87571 0.43872 0.18930
 C41 C 0.89318 0.41904 0.18600
 H42 H 0.84155 0.44818 0.16608
 H43 H 0.90970 0.41493 0.19794
 N44 N 0.83406 0.38474 0.09409
 N45 N 0.84442 0.36395 0.08372
 C46 C 0.83055 0.35710 0.06294
 C47 C 0.81066 0.37438 0.06026
 C48 C 0.81332 0.39164 0.08017
 H49 H 0.83458 0.34082 0.05062
 H50 H 0.80109 0.40799 0.08413
 H51 H 0.88020 0.38485 0.10883
 H52 H 0.86014 0.36408 0.13018
 N53 N 0.40527 0.16607 -0.11421
 N54 N 0.41535 0.15552 -0.13488
 C55 C 0.43625 0.16915 -0.14198
 C56 C 0.43916 0.18922 -0.12489
 C57 C 0.41929 0.18683 -0.10754
 H58 H 0.44839 0.16493 -0.15833
 H59 H 0.41525 0.19932 -0.09141
 Cu60 Cu 0.40004 0.12498 -0.15012
 Cu61 Cu 0.37464 0.15230 -0.09755
 Cu62 Cu 0.34734 0.09769 -0.12477
 N63 N 0.38480 0.09438 -0.16536
 N64 N 0.36414 0.08377 -0.15523
 C65 C 0.35741 0.06305 -0.16928
 C66 C 0.37486 0.06061 -0.18906
 C67 C 0.39202 0.08067 -0.18612
 H68 H 0.34099 0.05081 -0.16549
 H69 H 0.40839 0.08493 -0.19824
 N70 N 0.33327 0.11466 -0.09395
 N71 N 0.34368 0.13545 -0.08360
 C72 C 0.32979 0.14235 -0.06285
 C73 C 0.30984 0.12509 -0.06019
 C74 C 0.31249 0.10779 -0.08006
 H75 H 0.33383 0.15867 -0.05058
 H76 H 0.30017 0.09146 -0.08405
 H77 H 0.37966 0.11476 -0.10932
 H78 H 0.35898 0.13555 -0.13007
 N79 N 0.09413 0.83344 0.38554
 N80 N 0.08398 0.84408 0.36489
 C81 C 0.06316 0.83035 0.35772
 C82 C 0.06026 0.81025 0.37485
 C83 C 0.08009 0.81266 0.39225
 H84 H 0.05101 0.83465 0.34139
 H85 H 0.08394 0.80031 0.40859
 Cu86 Cu 0.09923 0.87476 0.34966
 Cu87 Cu 0.12471 0.84741 0.40226
 Cu88 Cu 0.15193 0.90219 0.37506
 N89 N 0.11448 0.90543 0.33444
 N90 N 0.13517 0.91602 0.34453
 C91 C 0.14182 0.93685 0.33056
 C92 C 0.12442 0.93929 0.31075
 C93 C 0.10733 0.91916 0.31363
 H94 H 0.15800 0.94934 0.33453
 H95 H 0.09096 0.91494 0.30153
 N96 N 0.16598 0.88524 0.40594
 N97 N 0.15563 0.86439 0.41632
 C98 C 0.16957 0.85751 0.43706
 C99 C 0.18947 0.87485 0.43971
 C100 C 0.18676 0.89216 0.41981
 H101 H 0.16560 0.84115 0.44934
 H102 H 0.19902 0.90853 0.41579
 H103 H 0.11960 0.88528 0.39070
 H104 H 0.14028 0.86466 0.36998
 C105 C 0.10496 0.12545 0.14443
 C106 C 0.08598 0.14462 0.14427
 C107 C 0.08605 0.16368 0.12518
 C108 C 0.10506 0.16377 0.10610
 C109 C 0.12418 0.14474 0.10596
 C110 C 0.12417 0.12547 0.12520
 C111 C 0.10510 0.10626 0.16345
 C112 C 0.12416 0.08722 0.16340
 C113 C 0.14321 0.08717 0.14437
 C114 C 0.14336 0.10621 0.12521
 C115 C 0.16235 0.10637 0.10607
 C116 C 0.16231 0.12549 0.08703
 C117 C 0.14332 0.14461 0.08696
 H118 H 0.07117 0.14474 0.15896
 H119 H 0.10492 0.17863 0.09141
 H120 H 0.09042 0.10610 0.17828
 H121 H 0.15787 0.07232 0.14453
 H122 H 0.17715 0.09166 0.10594
 H123 H 0.14347 0.15933 0.07212
 C124 C 0.39446 0.87495 0.64446
 C125 C 0.41346 0.85579 0.64432
 C126 C 0.41342 0.83675 0.62524
 C127 C 0.39439 0.83669 0.60617
 C128 C 0.37524 0.85572 0.60602
 C129 C 0.37524 0.87495 0.62523
 C130 C 0.39431 0.89411 0.66346
 C131 C 0.37524 0.91316 0.66340
 C132 C 0.35618 0.91322 0.64437
 C133 C 0.35603 0.89420 0.62522
 C134 C 0.33704 0.89406 0.60607
 C135 C 0.33708 0.87497 0.58705
 C136 C 0.35610 0.85587 0.58701
 H137 H 0.42827 0.85565 0.65900
 H138 H 0.39452 0.82186 0.59149
 H139 H 0.40898 0.89425 0.67828
 H140 H 0.34151 0.92806 0.64450
 H141 H 0.32223 0.90876 0.60593
 H142 H 0.35596 0.84117 0.57219
 C143 C 0.89474 0.62486 0.35546
 C144 C 0.91374 0.64409 0.35558
 C145 C 0.91369 0.66318 0.37461
 C146 C 0.89463 0.66320 0.39367
 C147 C 0.87548 0.64412 0.39384
 C148 C 0.87550 0.62484 0.37466
 C149 C 0.89461 0.60565 0.33650
 C150 C 0.87554 0.58655 0.33656
 C151 C 0.85645 0.58647 0.35558
 C152 C 0.85629 0.60553 0.37469
 C153 C 0.83726 0.60566 0.39382
 C154 C 0.83727 0.62479 0.41280
 C155 C 0.85630 0.64394 0.41282
 H156 H 0.92857 0.64424 0.34091
 H157 H 0.89474 0.67807 0.40831
 H158 H 0.90930 0.60552 0.32169
 H159 H 0.84178 0.57159 0.35546
 H160 H 0.82245 0.59091 0.39397
 H161 H 0.85614 0.65867 0.42761
 C162 C 0.60584 0.37501 -0.14451
 C163 C 0.58681 0.35582 -0.14434
 C164 C 0.58686 0.33673 -0.12526
 C165 C 0.60589 0.33664 -0.10622
 C166 C 0.62506 0.35567 -0.10610
 C167 C 0.62507 0.37497 -0.12532
 C168 C 0.60599 0.39422 -0.16352
 C169 C 0.62509 0.41329 -0.16351
 C170 C 0.64419 0.41330 -0.14450
 C171 C 0.64432 0.39423 -0.12534
 C172 C 0.66334 0.39403 -0.10620
 C173 C 0.66327 0.37487 -0.08718
 C174 C 0.64422 0.35577 -0.08712
 H175 H 0.57197 0.35570 -0.15900
 H176 H 0.60573 0.32175 -0.09154
 H177 H 0.59128 0.39438 -0.17832
 H178 H 0.65889 0.42815 -0.14465
 H179 H 0.67819 0.40873 -0.10607
 H180 H 0.64434 0.34102 -0.07230
 C181 C 0.01052 0.22336 0.14692
 C182 C 0.01566 0.25276 0.14588
 C183 C -0.00546 0.25539 0.12538
 C184 C -0.01090 0.22629 0.12642
 C185 C 0.03023 0.21955 0.12526
 C186 C 0.00913 0.22216 0.10476
 C187 C 0.03568 0.24864 0.12421
 C188 C 0.01426 0.25157 0.10371
 C189 C -0.02534 0.27535 0.12548
 C190 C -0.04171 0.29175 0.12545
 C191 C 0.05013 0.19963 0.12521
 C192 C 0.06650 0.18325 0.12518
 H193 H 0.00922 0.21152 0.16468
 H194 H 0.01809 0.26560 0.16277
 H195 H -0.03028 0.21734 0.12730
 H196 H 0.00672 0.20932 0.08786
 H197 H 0.05507 0.25757 0.12330
 H198 H 0.01557 0.26338 0.08594
 C199 C 0.48133 0.76919 0.60094
 C200 C 0.50825 0.77179 0.61346
 C201 C 0.50490 0.74486 0.62537
 C202 C 0.47830 0.74196 0.61284
 C203 C 0.46927 0.78080 0.62527
 C204 C 0.46593 0.75388 0.63717
 C205 C 0.49587 0.78372 0.63779
 C206 C 0.49283 0.75649 0.64969
 C207 C 0.52473 0.72480 0.62548
 C208 C 0.54111 0.70837 0.62552
 C209 C 0.44938 0.80077 0.62524
 C210 C 0.43300 0.81717 0.62524
 H211 H 0.47636 0.77467 0.58090
 H212 H 0.52586 0.77895 0.60371
 H213 H 0.47132 0.72457 0.60255
 H214 H 0.44831 0.74674 0.64691
 H215 H 0.50285 0.80114 0.64804
 H216 H 0.49782 0.75104 0.66973
 C217 C 0.96959 0.74301 0.35672
 C218 C 0.97665 0.76021 0.38002
 C219 C 1.00527 0.75536 0.37452
 C220 C 0.99851 0.73846 0.35122
 C221 C 0.96957 0.71935 0.37453
 C222 C 0.99818 0.71449 0.36904
 C223 C 0.97633 0.73623 0.39783
 C224 C 1.00525 0.73169 0.39233
 C225 C 1.02520 0.77539 0.37455
 C226 C 1.04164 0.79181 0.37465
 C227 C 0.94966 0.69931 0.37455
 C228 C 0.93327 0.68284 0.37458
 H229 H 0.95468 0.74740 0.34208
 H230 H 0.96800 0.77922 0.38453
 H231 H 1.00783 0.73957 0.33205
 H232 H 1.00678 0.69545 0.36453
 H233 H 0.96698 0.73508 0.41700
 H234 H 1.02014 0.72724 0.40697
 C235 C 0.53235 0.25564 -0.10963
 C236 C 0.50407 0.25969 -0.10120
 C237 C 0.49515 0.24498 -0.12523
 C238 C 0.52312 0.24062 -0.13366
 C239 C 0.53096 0.28079 -0.12519
 C240 C 0.52204 0.26609 -0.14922
 C241 C 0.50299 0.28515 -0.11676
 C242 C 0.49376 0.27014 -0.14078
 C243 C 0.47520 0.22506 -0.12522
 C244 C 0.45877 0.20869 -0.12513
 C245 C 0.55089 0.30073 -0.12520
 C246 C 0.56728 0.31715 -0.12523
 H247 H 0.54846 0.24996 -0.09682
 H248 H 0.49645 0.25679 -0.08146
 H249 H 0.53115 0.22207 -0.14059
 H250 H 0.52967 0.26896 -0.16896
 H251 H 0.49495 0.30369 -0.10980
 H252 H 0.47764 0.27581 -0.15358
 C253 C 0.12137 0.03645 0.24815
 C254 C 0.10182 0.01395 0.24996
 C255 C 0.12418 -0.00473 0.25491
 C256 C 0.14373 0.01746 0.25341
 C257 C 0.12418 0.03121 0.21922
 C258 C 0.14655 0.01255 0.22416
 C259 C 0.10463 0.00904 0.22071
 C260 C 0.12700 -0.00994 0.22598
 C261 C 0.12414 -0.02474 0.27479
 C262 C 0.12419 -0.04118 0.29118
 C263 C 0.12417 0.05119 0.19934
 C264 C 0.12416 0.06763 0.18296
 H265 H 0.11906 0.05575 0.25704
 H266 H 0.08344 0.01426 0.26081
 H267 H 0.15981 0.02065 0.26709
 H268 H 0.16494 0.01223 0.21331
 H269 H 0.08856 0.00583 0.20703
 H270 H 0.12933 -0.02925 0.21710
 C271 C 0.64791 0.47562 -0.23701
 C272 C 0.62944 0.47645 -0.26038
 C273 C 0.62479 0.50524 -0.25528
 C274 C 0.64327 0.50472 -0.23222
 C275 C 0.62495 0.46933 -0.21950
 C276 C 0.62031 0.49811 -0.21439
 C277 C 0.60648 0.46984 -0.24255
 C278 C 0.60183 0.49893 -0.23776
 C279 C 0.62468 0.52526 -0.27523
 C280 C 0.62471 0.54169 -0.29165
 C281 C 0.62503 0.44935 -0.19954
 C282 C 0.62508 0.43292 -0.18312
 H283 H 0.66684 0.46576 -0.23643
 H284 H 0.63322 0.46773 -0.27950
 H285 H 0.65843 0.51924 -0.22815
 H286 H 0.61656 0.50674 -0.19524
 H287 H 0.59136 0.45525 -0.24655
 H288 H 0.58288 0.50874 -0.23827
 C289 C 0.39693 0.98881 0.72319
 C290 C 0.37648 1.01034 0.72587
 C291 C 0.37520 1.00496 0.75491
 C292 C 0.39564 0.98374 0.75253
 C293 C 0.37523 0.96908 0.71923
 C294 C 0.37395 0.96370 0.74826
 C295 C 0.35478 0.99029 0.72161
 C296 C 0.35351 0.98522 0.75095
 C297 C 0.37513 1.02489 0.77482
 C298 C 0.37504 1.04122 0.79127
 C299 C 0.37524 0.94913 0.69935
 C300 C 0.37524 0.93273 0.68297
 H301 H 0.41478 0.99004 0.71153
 H302 H 0.37753 1.02975 0.71693
 H303 H 0.41244 0.98128 0.76547
 H304 H 0.37291 0.94429 0.75722
 H305 H 0.33798 0.99275 0.70868
 H306 H 0.33567 0.98398 0.76262
 C307 C 0.86913 0.53519 0.25237
 C308 C 0.89275 0.51876 0.24466
 C309 C 0.87572 0.49454 0.24522
 C310 C 0.85209 0.51067 0.25260
 C311 C 0.87560 0.53050 0.28082
 C312 C 0.85855 0.50629 0.28137
 C313 C 0.89922 0.51438 0.27342
 C314 C 0.88218 0.48985 0.27367
 C315 C 0.87581 0.47450 0.22539
 C316 C 0.87583 0.45810 0.20900
 C317 C 0.87556 0.55050 0.30068
 C318 C 0.87554 0.56693 0.31703
 H319 H 0.86376 0.55407 0.24386
 H320 H 0.90679 0.52365 0.22933
 H321 H 0.83272 0.50892 0.24380
 H322 H 0.84449 0.50140 0.29668
 H323 H 0.91860 0.51613 0.28220
 H324 H 0.88754 0.47097 0.28216
 C325 C 0.21499 0.13711 0.00432
 C326 C 0.24188 0.14973 0.00693
 C327 C 0.25400 0.12528 -0.00444
 C328 C 0.22741 0.11266 -0.00737
 C329 C 0.21820 0.12537 0.03126
 C330 C 0.23032 0.10092 0.01989
 C331 C 0.24478 0.13799 0.03419
 C332 C 0.25721 0.11354 0.02251
 C333 C 0.27392 0.12521 -0.02433
 C334 C 0.29031 0.12514 -0.04070
 C335 C 0.19826 0.12544 0.05113
 C336 C 0.18187 0.12548 0.06748
 H337 H 0.19738 0.14679 -0.00291
 H338 H 0.24687 0.16979 0.00137
 H339 H 0.22053 0.10226 -0.02470
 H340 H 0.22533 0.08086 0.02546
 H341 H 0.25168 0.14839 0.05152
 H342 H 0.27482 0.10386 0.02973
 C343 C 0.75231 0.62322 0.46328
 C344 C 0.74969 0.60286 0.48497
 C345 C 0.74558 0.62472 0.50444
 C346 C 0.74789 0.64508 0.48306
 C347 C 0.78133 0.62474 0.46864
 C348 C 0.77721 0.64660 0.48811
 C349 C 0.77902 0.60438 0.49002
 C350 C 0.77459 0.62624 0.50979
 C351 C 0.72567 0.62468 0.52440
 C352 C 0.70930 0.62464 0.54080
 C353 C 0.80126 0.62475 0.44872
 C354 C 0.81767 0.62476 0.43235
 H355 H 0.74337 0.62197 0.44394
 H356 H 0.73813 0.58489 0.48392
 H357 H 0.73485 0.66180 0.48044
 H358 H 0.78876 0.66458 0.48917
 H359 H 0.79203 0.58764 0.49266
 H360 H 0.78351 0.62749 0.52915
 C361 C 0.74336 0.39152 -0.03189
 C362 C 0.73896 0.39821 -0.00320
 C363 C 0.75488 0.37448 0.00443
 C364 C 0.75959 0.36778 -0.02395
 C365 C 0.71910 0.37459 -0.03130
 C366 C 0.73502 0.35085 -0.02367
 C367 C 0.71439 0.38128 -0.00292
 C368 C 0.73062 0.35755 0.00503
 C369 C 0.77480 0.37444 0.02434
 C370 C 0.79117 0.37441 0.04072
 C371 C 0.69920 0.37470 -0.05122
 C372 C 0.68283 0.37479 -0.06762
 H373 H 0.74836 0.40548 -0.04731
 H374 H 0.74083 0.41767 0.00546
 H375 H 0.77841 0.36224 -0.03234
 H376 H 0.73317 0.33138 -0.03230
 H377 H 0.69558 0.38682 0.00550
 H378 H 0.72565 0.34359 0.02046
 C379 C 0.25735 0.89247 0.53143
 C380 C 0.26189 0.89858 0.50261
 C381 C 0.24542 0.87504 0.49544
 C382 C 0.24058 0.86893 0.52396
 C383 C 0.28121 0.87504 0.53118
 C384 C 0.26474 0.85151 0.52402
 C385 C 0.28606 0.88115 0.50267
 C386 C 0.26929 0.85762 0.49520
 C387 C 0.22546 0.87498 0.47556
 C388 C 0.20903 0.87491 0.45921
 C389 C 0.30114 0.87501 0.55109
 C390 C 0.31752 0.87498 0.56748
 H391 H 0.25268 0.90679 0.54656
 H392 H 0.26048 0.91792 0.49357
 H393 H 0.22163 0.86392 0.53246
 H394 H 0.26614 0.83216 0.53305
 H395 H 0.30500 0.88617 0.49416
 H396 H 0.27396 0.84331 0.48006
   
