data_POSCAR
  _audit_creation_date              2014-09-24
  _audit_creation_method            'ToBaCCo'
  _symmetry_space_group_name_H-M    'P1'
  _symmetry_Int_Tables_number       1
  _symmetry_cell_setting            triclinic
  loop_
  _symmetry_equiv_pos_as_xyz
 x,y,z
_cell_length_a 29.6138
_cell_length_b 34.9514
_cell_length_c 29.6138
_cell_angle_alpha 90.000000
_cell_angle_beta 90.000000
_cell_angle_gamma 90.000000
loop_
  _atom_site_label
  _atom_site_type_symbol
  _atom_site_fract_x
  _atom_site_fract_y
  _atom_site_fract_z
Si1 Si 1.25002 0.25000 0.24999
 Si2 Si 0.75002 -0.25000 0.24999
 Si3 Si 0.75002 0.25000 -0.25001
 Si4 Si 1.25002 -0.25000 -0.25001
 Si5 Si 0.25002 0.25000 0.74999
 Si6 Si 0.75002 0.75000 0.74999
 Si7 Si 0.75002 0.25000 0.24999
 Si8 Si 0.25002 0.75000 0.24999
 N9 N 1.08092 0.03929 0.04955
 N10 N 1.11061 0.06671 0.05706
 N11 N 1.04944 -0.04120 0.08076
 N12 N 1.05745 -0.06821 0.11091
 N13 N 1.08079 -0.04120 0.04941
 N14 N 1.11095 -0.06821 0.05742
 N15 N 1.04958 0.03929 0.08089
 N16 N 1.05709 0.06671 0.11058
 C17 C 1.09516 0.08373 0.09513
 C18 C 1.09580 -0.08507 0.09577
 N19 N 0.92073 -0.04059 0.04916
 N20 N 0.89085 -0.06786 0.05663
 N21 N 0.95227 0.03963 0.08087
 N22 N 0.94456 0.06683 0.11084
 N23 N 0.92100 0.03981 0.04945
 N24 N 0.89121 0.06710 0.05716
 N25 N 0.95208 -0.04079 0.08050
 N26 N 0.94438 -0.06820 0.11014
 Mn27 Mn 1.00083 -0.00077 0.08126
 C28 C 0.90620 -0.08502 0.09465
 C29 C 0.90648 0.08392 0.09543
 N30 N 1.08053 -0.04079 -0.04796
 N31 N 1.11017 -0.06820 -0.05565
 N32 N 1.04948 0.03981 -0.07903
 N33 N 1.05719 0.06710 -0.10882
 N34 N 1.08090 0.03963 -0.04776
 N35 N 1.11087 0.06683 -0.05547
 N36 N 1.04919 -0.04059 -0.07930
 N37 N 1.05666 -0.06786 -0.10919
 Mn38 Mn 1.08129 -0.00077 0.00080
 C39 C 1.09468 -0.08502 -0.09383
 C40 C 1.09546 0.08392 -0.09355
 N41 N 0.92086 0.04013 -0.04783
 N42 N 0.89082 0.06723 -0.05571
 N43 N 0.95195 -0.04035 -0.07942
 N44 N 0.94413 -0.06748 -0.10942
 N45 N 0.92061 -0.04035 -0.04809
 N46 N 0.89061 -0.06748 -0.05590
 N47 N 0.95220 0.04013 -0.07918
 N48 N 0.94432 0.06723 -0.10921
 Mn49 Mn 0.92031 -0.00025 0.00069
 Mn50 Mn 1.00072 -0.00025 -0.07972
 Cl51 Cl 1.00079 -0.00051 0.00076
 C52 C 0.90606 0.08412 -0.09397
 C53 C 0.90588 -0.08437 -0.09415
 N54 N 1.08053 0.54078 0.54794
 N55 N 1.11017 0.56819 0.55563
 N56 N 1.04948 0.46018 0.57901
 N57 N 1.05719 0.43289 0.60881
 N58 N 1.08090 0.46036 0.54774
 N59 N 1.11087 0.43316 0.55546
 N60 N 1.04919 0.54058 0.57929
 N61 N 1.05666 0.56785 0.60917
 C62 C 1.09468 0.58501 0.59381
 C63 C 1.09546 0.41607 0.59354
 N64 N 0.92086 0.45986 0.54782
 N65 N 0.89082 0.43276 0.55569
 N66 N 0.95195 0.54034 0.57941
 N67 N 0.94413 0.56748 0.60940
 N68 N 0.92061 0.54034 0.54807
 N69 N 0.89061 0.56748 0.55589
 N70 N 0.95220 0.45986 0.57916
 N71 N 0.94432 0.43276 0.60920
 Mn72 Mn 1.00072 0.50024 0.57970
 C73 C 0.90606 0.41587 0.59395
 C74 C 0.90588 0.58436 0.59413
 N75 N 1.08092 0.46070 0.45043
 N76 N 1.11061 0.43328 0.44293
 N77 N 1.04944 0.54120 0.41923
 N78 N 1.05745 0.56820 0.38907
 N79 N 1.08079 0.54120 0.45058
 N80 N 1.11095 0.56820 0.44256
 N81 N 1.04958 0.46070 0.41909
 N82 N 1.05709 0.43328 0.38940
 Mn83 Mn 1.08129 0.50076 0.49918
 C84 C 1.09516 0.41626 0.40486
 C85 C 1.09580 0.58506 0.40422
 N86 N 0.92073 0.54058 0.45082
 N87 N 0.89085 0.56785 0.44336
 N88 N 0.95227 0.46036 0.41911
 N89 N 0.94456 0.43316 0.38915
 N90 N 0.92100 0.46018 0.45053
 N91 N 0.89121 0.43289 0.44282
 N92 N 0.95208 0.54078 0.41948
 N93 N 0.94438 0.56820 0.38984
 Mn94 Mn 0.92031 0.50024 0.49930
 Mn95 Mn 1.00083 0.50076 0.41873
 Cl96 Cl 1.00079 0.50050 0.49922
 C97 C 0.90620 0.58501 0.40534
 C98 C 0.90648 0.41607 0.40455
 N99 N 0.57919 0.04013 0.54782
 N100 N 0.60923 0.06723 0.55569
 N101 N 0.54810 -0.04035 0.57941
 N102 N 0.55592 -0.06748 0.60940
 N103 N 0.57944 -0.04035 0.54807
 N104 N 0.60943 -0.06748 0.55589
 N105 N 0.54785 0.04013 0.57916
 N106 N 0.55572 0.06723 0.60920
 C107 C 0.59399 0.08412 0.59395
 C108 C 0.59417 -0.08437 0.59413
 N109 N 0.41951 -0.04079 0.54794
 N110 N 0.38987 -0.06820 0.55563
 N111 N 0.45056 0.03981 0.57901
 N112 N 0.44285 0.06710 0.60881
 N113 N 0.41914 0.03963 0.54774
 N114 N 0.38918 0.06683 0.55546
 N115 N 0.45086 -0.04059 0.57929
 N116 N 0.44339 -0.06786 0.60917
 Mn117 Mn 0.49933 -0.00025 0.57970
 C118 C 0.40537 -0.08502 0.59381
 C119 C 0.40458 0.08392 0.59354
 N120 N 0.57932 -0.04059 0.45082
 N121 N 0.60920 -0.06786 0.44336
 N122 N 0.54777 0.03963 0.41911
 N123 N 0.55549 0.06683 0.38915
 N124 N 0.57905 0.03981 0.45053
 N125 N 0.60884 0.06710 0.44282
 N126 N 0.54797 -0.04079 0.41948
 N127 N 0.55567 -0.06820 0.38984
 Mn128 Mn 0.57973 -0.00025 0.49929
 C129 C 0.59384 -0.08502 0.40534
 C130 C 0.59357 0.08392 0.40455
 N131 N 0.41912 0.03929 0.45043
 N132 N 0.38943 0.06671 0.44293
 N133 N 0.45061 -0.04120 0.41923
 N134 N 0.44260 -0.06821 0.38907
 N135 N 0.41926 -0.04120 0.45058
 N136 N 0.38910 -0.06821 0.44256
 N137 N 0.45046 0.03929 0.41909
 N138 N 0.44296 0.06671 0.38940
 Mn139 Mn 0.41876 -0.00077 0.49918
 Mn140 Mn 0.49921 -0.00077 0.41873
 Cl141 Cl 0.49925 -0.00051 0.49922
 C142 C 0.40489 0.08373 0.40486
 C143 C 0.40425 -0.08507 0.40422
 N144 N 0.57932 0.54058 0.04916
 N145 N 0.60920 0.56785 0.05663
 N146 N 0.54777 0.46036 0.08087
 N147 N 0.55549 0.43316 0.11084
 N148 N 0.57905 0.46018 0.04945
 N149 N 0.60884 0.43289 0.05716
 N150 N 0.54797 0.54078 0.08050
 N151 N 0.55567 0.56819 0.11014
 C152 C 0.59384 0.58501 0.09465
 C153 C 0.59357 0.41607 0.09543
 N154 N 0.41912 0.46070 0.04955
 N155 N 0.38943 0.43328 0.05706
 N156 N 0.45061 0.54120 0.08076
 N157 N 0.44260 0.56820 0.11091
 N158 N 0.41926 0.54120 0.04941
 N159 N 0.38910 0.56820 0.05742
 N160 N 0.45046 0.46070 0.08089
 N161 N 0.44296 0.43328 0.11058
 Mn162 Mn 0.49921 0.50076 0.08126
 C163 C 0.40489 0.41626 0.09513
 C164 C 0.40425 0.58506 0.09577
 N165 N 0.57919 0.45986 -0.04783
 N166 N 0.60923 0.43276 -0.05571
 N167 N 0.54810 0.54034 -0.07942
 N168 N 0.55592 0.56748 -0.10942
 N169 N 0.57944 0.54034 -0.04809
 N170 N 0.60943 0.56748 -0.05590
 N171 N 0.54785 0.45986 -0.07918
 N172 N 0.55572 0.43276 -0.10921
 Mn173 Mn 0.57973 0.50024 0.00069
 C174 C 0.59399 0.41587 -0.09397
 C175 C 0.59416 0.58436 -0.09415
 N176 N 0.41951 0.54078 -0.04796
 N177 N 0.38987 0.56819 -0.05565
 N178 N 0.45056 0.46018 -0.07903
 N179 N 0.44285 0.43289 -0.10882
 N180 N 0.41914 0.46036 -0.04776
 N181 N 0.38918 0.43316 -0.05547
 N182 N 0.45086 0.54058 -0.07930
 N183 N 0.44339 0.56785 -0.10919
 Mn184 Mn 0.41876 0.50076 0.00080
 Mn185 Mn 0.49933 0.50024 -0.07972
 Cl186 Cl 0.49925 0.50050 0.00076
 C187 C 0.40537 0.58501 -0.09383
 C188 C 0.40458 0.41607 -0.09355
 C189 C 1.16634 0.17168 0.16631
 C190 C 1.12528 0.15789 0.18310
 C191 C 1.10149 0.12983 0.15936
 C192 C 1.21502 0.21965 0.21498
 C193 C 1.15939 0.12983 0.10146
 C194 C 1.18313 0.15789 0.12525
 C195 C 1.19247 0.19830 0.19244
 C196 C 1.11865 0.11518 0.11862
 H197 H 1.11209 0.16830 0.21494
 H198 H 1.07015 0.11909 0.17332
 H199 H 1.17335 0.11909 0.07012
 H200 H 1.21497 0.16830 0.11206
 C201 C 1.16614 0.67221 0.66590
 C202 C 1.18282 0.65877 0.62463
 C203 C 1.15897 0.63098 0.60054
 C204 C 1.21499 0.71974 0.71495
 C205 C 1.10116 0.63057 0.65855
 C206 C 1.12507 0.65836 0.68259
 C207 C 1.19237 0.69856 0.69227
 C208 C 1.11822 0.61626 0.61760
 H209 H 1.21467 0.66924 0.61152
 H210 H 1.17284 0.62049 0.56905
 H211 H 1.06982 0.61976 0.67242
 H212 H 1.11197 0.66852 0.71458
 C213 C 0.66618 0.17129 0.66615
 C214 C 0.62501 0.15755 0.68280
 C215 C 0.60098 0.12972 0.65882
 C216 C 0.71494 0.21944 0.71490
 C217 C 0.65885 0.12972 0.60095
 C218 C 0.68284 0.15755 0.62498
 C219 C 0.69239 0.19798 0.69236
 C220 C 0.61794 0.11521 0.61791
 H221 H 0.61186 0.16788 0.71470
 H222 H 0.56954 0.11911 0.67268
 H223 H 0.67271 0.11911 0.56951
 H224 H 0.71473 0.16788 0.61183
 C225 C 0.66593 0.67221 0.16611
 C226 C 0.62467 0.65877 0.18279
 C227 C 0.60057 0.63098 0.15894
 C228 C 0.71498 0.71975 0.21496
 C229 C 0.65858 0.63057 0.10113
 C230 C 0.68262 0.65836 0.12504
 C231 C 0.69230 0.69856 0.19234
 C232 C 0.61763 0.61626 0.11819
 H233 H 0.61155 0.66924 0.21463
 H234 H 0.56908 0.62049 0.17281
 H235 H 0.67246 0.61976 0.06979
 H236 H 0.71462 0.66852 0.11194
 C237 C 0.83412 -0.17221 0.16611
 C238 C 0.87538 -0.15878 0.18279
 C239 C 0.89947 -0.13098 0.15894
 C240 C 0.78507 -0.21975 0.21496
 C241 C 0.84147 -0.13057 0.10113
 C242 C 0.81742 -0.15837 0.12504
 C243 C 0.80774 -0.19857 0.19234
 C244 C 0.88241 -0.11627 0.11819
 H245 H 0.88849 -0.16925 0.21463
 H246 H 0.93097 -0.12050 0.17281
 H247 H 0.82759 -0.11977 0.06979
 H248 H 0.78543 -0.16852 0.11194
 C249 C 0.83387 0.32870 0.66615
 C250 C 0.87504 0.34244 0.68280
 C251 C 0.89907 0.37027 0.65882
 C252 C 0.78511 0.28055 0.71490
 C253 C 0.84119 0.37027 0.60095
 C254 C 0.81721 0.34244 0.62498
 C255 C 0.80766 0.30201 0.69236
 C256 C 0.88211 0.38478 0.61791
 H257 H 0.88819 0.33211 0.71469
 H258 H 0.93051 0.38088 0.67268
 H259 H 0.82734 0.38088 0.56951
 H260 H 0.78532 0.33211 0.61183
 C261 C 0.33390 -0.17221 0.66590
 C262 C 0.37498 -0.15837 0.68259
 C263 C 0.39889 -0.13057 0.65855
 C264 C 0.28506 -0.21975 0.71495
 C265 C 0.34108 -0.13098 0.60054
 C266 C 0.31723 -0.15878 0.62463
 C267 C 0.30767 -0.19857 0.69227
 C268 C 0.38182 -0.11627 0.61760
 H269 H 0.38807 -0.16852 0.71458
 H270 H 0.43022 -0.11977 0.67242
 H271 H 0.32720 -0.12050 0.56905
 H272 H 0.28538 -0.16925 0.61152
 C273 C 0.33371 0.32831 0.16631
 C274 C 0.37477 0.34210 0.18310
 C275 C 0.39856 0.37016 0.15936
 C276 C 0.28503 0.28034 0.21498
 C277 C 0.34065 0.37016 0.10146
 C278 C 0.31692 0.34210 0.12525
 C279 C 0.30758 0.30169 0.19244
 C280 C 0.38140 0.38481 0.11862
 H281 H 0.38795 0.33169 0.21494
 H282 H 0.42990 0.38090 0.17332
 H283 H 0.32670 0.38090 0.07012
 H284 H 0.28507 0.33169 0.11206
 C285 C 0.83387 0.17129 -0.16616
 C286 C 0.81721 0.15755 -0.12500
 C287 C 0.84119 0.12972 -0.10096
 C288 C 0.78511 0.21944 -0.21492
 C289 C 0.89907 0.12972 -0.15884
 C290 C 0.87504 0.15755 -0.18282
 C291 C 0.80766 0.19798 -0.19237
 C292 C 0.88211 0.11521 -0.11792
 H293 H 0.78532 0.16788 -0.11185
 H294 H 0.82734 0.11911 -0.06953
 H295 H 0.93051 0.11911 -0.17270
 H296 H 0.88819 0.16788 -0.21471
 C297 C 0.83412 0.67221 0.33387
 C298 C 0.81742 0.65836 0.37494
 C299 C 0.84147 0.63057 0.39885
 C300 C 0.78507 0.71975 0.28503
 C301 C 0.89947 0.63098 0.34105
 C302 C 0.87538 0.65877 0.31720
 C303 C 0.80774 0.69856 0.30764
 C304 C 0.88241 0.61626 0.38179
 H305 H 0.78543 0.66852 0.38804
 H306 H 0.82759 0.61976 0.43019
 H307 H 0.93097 0.62049 0.32717
 H308 H 0.88849 0.66924 0.28535
 C309 C 0.33371 0.17168 0.33368
 C310 C 0.31692 0.15789 0.37474
 C311 C 0.34065 0.12983 0.39853
 C312 C 0.28503 0.21965 0.28500
 C313 C 0.39856 0.12983 0.34062
 C314 C 0.37477 0.15789 0.31689
 C315 C 0.30758 0.19830 0.30754
 C316 C 0.38140 0.11518 0.38136
 H317 H 0.28507 0.16830 0.38792
 H318 H 0.32670 0.11909 0.42986
 H319 H 0.42990 0.11909 0.32667
 H320 H 0.38795 0.16830 0.28504
 C321 C 0.33390 0.67221 -0.16591
 C322 C 0.31723 0.65877 -0.12465
 C323 C 0.34108 0.63098 -0.10056
 C324 C 0.28506 0.71975 -0.21497
 C325 C 0.39889 0.63057 -0.15856
 C326 C 0.37498 0.65836 -0.18261
 C327 C 0.30767 0.69856 -0.19229
 C328 C 0.38182 0.61626 -0.11762
 H329 H 0.28538 0.66924 -0.11154
 H330 H 0.32720 0.62049 -0.06907
 H331 H 0.43022 0.61976 -0.17244
 H332 H 0.38807 0.66852 -0.21460
 C333 C 1.16614 -0.17221 -0.16591
 C334 C 1.18282 -0.15878 -0.12465
 C335 C 1.15897 -0.13098 -0.10056
 C336 C 1.21499 -0.21975 -0.21497
 C337 C 1.10116 -0.13057 -0.15856
 C338 C 1.12507 -0.15837 -0.18261
 C339 C 1.19237 -0.19857 -0.19229
 C340 C 1.11822 -0.11627 -0.11762
 H341 H 1.21467 -0.16925 -0.11154
 H342 H 1.17284 -0.12050 -0.06907
 H343 H 1.06982 -0.11977 -0.17244
 H344 H 1.11197 -0.16852 -0.21460
 C345 C 1.16634 0.32831 0.33368
 C346 C 1.18313 0.34210 0.37474
 C347 C 1.15939 0.37016 0.39853
 C348 C 1.21502 0.28034 0.28500
 C349 C 1.10149 0.37016 0.34062
 C350 C 1.12528 0.34210 0.31689
 C351 C 1.19247 0.30169 0.30754
 C352 C 1.11865 0.38481 0.38136
 H353 H 1.21497 0.33169 0.38792
 H354 H 1.17335 0.38090 0.42986
 H355 H 1.07015 0.38090 0.32667
 H356 H 1.11209 0.33169 0.28504
 C357 C 0.66593 -0.17221 0.33387
 C358 C 0.68262 -0.15837 0.37494
 C359 C 0.65858 -0.13057 0.39885
 C360 C 0.71498 -0.21975 0.28503
 C361 C 0.60057 -0.13098 0.34105
 C362 C 0.62467 -0.15878 0.31719
 C363 C 0.69230 -0.19857 0.30764
 C364 C 0.61763 -0.11627 0.38179
 H365 H 0.71462 -0.16852 0.38804
 H366 H 0.67246 -0.11977 0.43019
 H367 H 0.56908 -0.12050 0.32717
 H368 H 0.61155 -0.16925 0.28535
 C369 C 0.66618 0.32870 -0.16616
 C370 C 0.68284 0.34244 -0.12500
 C371 C 0.65885 0.37027 -0.10096
 C372 C 0.71494 0.28055 -0.21492
 C373 C 0.60098 0.37027 -0.15884
 C374 C 0.62501 0.34244 -0.18282
 C375 C 0.69239 0.30201 -0.19237
 C376 C 0.61794 0.38478 -0.11792
 H377 H 0.71473 0.33211 -0.11185
 H378 H 0.67271 0.38088 -0.06953
 H379 H 0.56954 0.38088 -0.17270
 H380 H 0.61186 0.33211 -0.21471
 C381 C 1.16681 0.17144 -0.16569
 C382 C 1.12540 0.15792 -0.18193
 C383 C 1.10165 0.12998 -0.15790
 C384 C 1.21510 0.21953 -0.21483
 C385 C 1.16029 0.12950 -0.10077
 C386 C 1.18400 0.15744 -0.12487
 C387 C 1.19275 0.19811 -0.19210
 C388 C 1.11915 0.11517 -0.11737
 H389 H 1.11187 0.16846 -0.21356
 H390 H 1.07001 0.11951 -0.17145
 H391 H 1.17453 0.11863 -0.06963
 H392 H 1.21610 0.16762 -0.11208
 C393 C 1.16807 0.67248 0.33194
 C394 C 1.12693 0.65864 0.31529
 C395 C 1.10293 0.63071 0.33923
 C396 C 1.21677 0.72096 0.28325
 C397 C 1.16078 0.63071 0.39708
 C398 C 1.18473 0.65864 0.37309
 C399 C 1.19424 0.69939 0.30578
 C400 C 1.11986 0.61615 0.38016
 H401 H 1.11374 0.66899 0.28342
 H402 H 1.07151 0.62008 0.32536
 H403 H 1.17466 0.62008 0.42851
 H404 H 1.21659 0.66899 0.38628
 C405 C 0.66571 0.17144 0.33320
 C406 C 0.68194 0.15792 0.37461
 C407 C 0.65792 0.12998 0.39836
 C408 C 0.71485 0.21953 0.28492
 C409 C 0.60079 0.12950 0.33973
 C410 C 0.62488 0.15744 0.31601
 C411 C 0.69211 0.19811 0.30726
 C412 C 0.61738 0.11517 0.38087
 H413 H 0.71358 0.16846 0.38815
 H414 H 0.67147 0.11952 0.43000
 H415 H 0.56964 0.11863 0.32548
 H416 H 0.61209 0.16762 0.28391
 C417 C 0.66618 0.67156 -0.16616
 C418 C 0.68286 0.65785 -0.12501
 C419 C 0.65891 0.63001 -0.10101
 C420 C 0.71496 0.71955 -0.21495
 C421 C 0.60102 0.63001 -0.15889
 C422 C 0.62503 0.65785 -0.18284
 C423 C 0.69240 0.69816 -0.19238
 C424 C 0.61803 0.61549 -0.11801
 H425 H 0.71476 0.66818 -0.11187
 H426 H 0.67278 0.61938 -0.06958
 H427 H 0.56960 0.61938 -0.17276
 H428 H 0.61188 0.66818 -0.21474
 C429 C 0.83387 -0.17157 -0.16616
 C430 C 0.87502 -0.15786 -0.18284
 C431 C 0.89903 -0.13001 -0.15889
 C432 C 0.78508 -0.21955 -0.21495
 C433 C 0.84114 -0.13001 -0.10101
 C434 C 0.81719 -0.15786 -0.12501
 C435 C 0.80765 -0.19817 -0.19238
 C436 C 0.88202 -0.11550 -0.11801
 H437 H 0.88816 -0.16819 -0.21474
 H438 H 0.93045 -0.11939 -0.17276
 H439 H 0.82727 -0.11939 -0.06958
 H440 H 0.78529 -0.16819 -0.11187
 C441 C 0.83434 0.32855 0.33320
 C442 C 0.87516 0.34255 0.31601
 C443 C 0.89926 0.37049 0.33973
 C444 C 0.78520 0.28046 0.28492
 C445 C 0.84213 0.37001 0.39836
 C446 C 0.81810 0.34207 0.37461
 C447 C 0.80794 0.30188 0.30726
 C448 C 0.88266 0.38482 0.38087
 H449 H 0.88795 0.33237 0.28391
 H450 H 0.93040 0.38136 0.32548
 H451 H 0.82858 0.38048 0.43000
 H452 H 0.78647 0.33153 0.38815
 C453 C 0.33198 -0.17249 0.33194
 C454 C 0.37312 -0.15865 0.31529
 C455 C 0.39711 -0.13071 0.33923
 C456 C 0.28328 -0.22097 0.28325
 C457 C 0.33926 -0.13071 0.39708
 C458 C 0.31532 -0.15865 0.37308
 C459 C 0.30581 -0.19939 0.30578
 C460 C 0.38019 -0.11616 0.38016
 H461 H 0.38631 -0.16900 0.28342
 H462 H 0.42854 -0.12009 0.32536
 H463 H 0.32539 -0.12009 0.42851
 H464 H 0.28346 -0.16900 0.38628
 C465 C 0.33324 0.32855 -0.16569
 C466 C 0.37464 0.34208 -0.18193
 C467 C 0.39840 0.37001 -0.15790
 C468 C 0.28495 0.28046 -0.21483
 C469 C 0.33976 0.37049 -0.10077
 C470 C 0.31605 0.34255 -0.12487
 C471 C 0.30730 0.30188 -0.19210
 C472 C 0.38090 0.38482 -0.11737
 H473 H 0.38818 0.33153 -0.21356
 H474 H 0.43003 0.38048 -0.17145
 H475 H 0.32552 0.38136 -0.06963
 H476 H 0.28394 0.33237 -0.11208
 C477 C 1.16807 -0.17249 0.16804
 C478 C 1.12693 -0.15865 0.18470
 C479 C 1.10293 -0.13071 0.16075
 C480 C 1.21677 -0.22097 0.21674
 C481 C 1.16078 -0.13071 0.10290
 C482 C 1.18473 -0.15865 0.12690
 C483 C 1.19424 -0.19939 0.19420
 C484 C 1.11986 -0.11616 0.11983
 H485 H 1.11374 -0.16900 0.21656
 H486 H 1.07151 -0.12009 0.17462
 H487 H 1.17466 -0.12009 0.07148
 H488 H 1.21659 -0.16900 0.11371
 C489 C 1.16681 0.32855 0.66568
 C490 C 1.12541 0.34208 0.68191
 C491 C 1.10165 0.37001 0.65788
 C492 C 1.21510 0.28046 0.71482
 C493 C 1.16029 0.37049 0.60076
 C494 C 1.18400 0.34255 0.62485
 C495 C 1.19275 0.30188 0.69208
 C496 C 1.11915 0.38482 0.61735
 H497 H 1.11187 0.33153 0.71354
 H498 H 1.07001 0.38048 0.67144
 H499 H 1.17453 0.38136 0.56961
 H500 H 1.21611 0.33237 0.61206
 C501 C 0.66618 -0.17157 0.66615
 C502 C 0.68286 -0.15786 0.62499
 C503 C 0.65891 -0.13001 0.60099
 C504 C 0.71496 -0.21955 0.71493
 C505 C 0.60102 -0.13002 0.65888
 C506 C 0.62503 -0.15786 0.68283
 C507 C 0.69240 -0.19817 0.69236
 C508 C 0.61803 -0.11550 0.61799
 H509 H 0.71476 -0.16819 0.61185
 H510 H 0.67278 -0.11939 0.56956
 H511 H 0.56960 -0.11939 0.67274
 H512 H 0.61188 -0.16819 0.71472
 C513 C 0.66571 0.32855 0.16678
 C514 C 0.68194 0.34207 0.12537
 C515 C 0.65792 0.37001 0.10162
 C516 C 0.71485 0.28046 0.21507
 C517 C 0.60079 0.37049 0.16026
 C518 C 0.62488 0.34255 0.18397
 C519 C 0.69211 0.30188 0.19272
 C520 C 0.61738 0.38482 0.11912
 H521 H 0.71358 0.33153 0.11184
 H522 H 0.67147 0.38048 0.06998
 H523 H 0.56964 0.38136 0.17450
 H524 H 0.61209 0.33237 0.21607
 C525 C 0.83434 0.17144 0.16678
 C526 C 0.87516 0.15744 0.18397
 C527 C 0.89926 0.12950 0.16026
 C528 C 0.78520 0.21953 0.21507
 C529 C 0.84213 0.12998 0.10162
 C530 C 0.81810 0.15792 0.12537
 C531 C 0.80794 0.19811 0.19272
 C532 C 0.88266 0.11517 0.11912
 H533 H 0.88795 0.16762 0.21607
 H534 H 0.93040 0.11863 0.17450
 H535 H 0.82858 0.11951 0.06998
 H536 H 0.78647 0.16846 0.11184
 C537 C 0.83387 0.67156 0.66615
 C538 C 0.87502 0.65785 0.68283
 C539 C 0.89903 0.63001 0.65888
 C540 C 0.78508 0.71955 0.71493
 C541 C 0.84114 0.63001 0.60099
 C542 C 0.81719 0.65785 0.62499
 C543 C 0.80765 0.69816 0.69236
 C544 C 0.88202 0.61549 0.61799
 H545 H 0.88816 0.66818 0.71472
 H546 H 0.93045 0.61938 0.67274
 H547 H 0.82727 0.61938 0.56956
 H548 H 0.78529 0.66818 0.61185
 C549 C 0.33323 0.17144 0.66568
 C550 C 0.37464 0.15792 0.68191
 C551 C 0.39839 0.12998 0.65788
 C552 C 0.28495 0.21953 0.71482
 C553 C 0.33976 0.12950 0.60076
 C554 C 0.31605 0.15744 0.62485
 C555 C 0.30730 0.19811 0.69208
 C556 C 0.38090 0.11517 0.61735
 H557 H 0.38818 0.16846 0.71354
 H558 H 0.43003 0.11951 0.67144
 H559 H 0.32551 0.11863 0.56961
 H560 H 0.28394 0.16762 0.61206
 C561 C 0.33198 0.67248 0.16804
 C562 C 0.37312 0.65864 0.18470
 C563 C 0.39711 0.63071 0.16075
 C564 C 0.28328 0.72096 0.21674
 C565 C 0.33926 0.63070 0.10290
 C566 C 0.31532 0.65864 0.12690
 C567 C 0.30581 0.69938 0.19420
 C568 C 0.38019 0.61615 0.11983
 H569 H 0.38631 0.66899 0.21656
 H570 H 0.42854 0.62008 0.17463
 H571 H 0.32539 0.62008 0.07148
 H572 H 0.28346 0.66899 0.11371
   
