data_POSCAR
  _audit_creation_date              2014-09-24
  _audit_creation_method            'ToBaCCo'
  _symmetry_space_group_name_H-M    'P1'
  _symmetry_Int_Tables_number       1
  _symmetry_cell_setting            triclinic
  loop_
  _symmetry_equiv_pos_as_xyz
 x,y,z
_cell_length_a 32.0834
_cell_length_b 32.4291
_cell_length_c 38.3872
_cell_angle_alpha 89.933300
_cell_angle_beta 89.968600
_cell_angle_gamma 90.050900
loop_
  _atom_site_label
  _atom_site_type_symbol
  _atom_site_fract_x
  _atom_site_fract_y
  _atom_site_fract_z
Zr1 Zr 0.24749 0.24762 0.31127
 O2 O 0.27930 0.27967 0.35126
 O3 O 0.20752 0.20920 0.33994
 O4 O 0.20638 0.28640 0.33942
 O5 O 0.32550 0.17608 0.29791
 O6 O 0.17542 0.32512 0.29697
 O7 O 0.28705 0.20792 0.34011
 O8 O 0.16807 0.17907 0.29753
 O9 O 0.19319 0.25043 0.28099
 O10 O 0.24686 0.19417 0.28081
 O11 O 0.25235 0.30232 0.28187
 O12 O 0.30367 0.24864 0.28250
 Zr13 Zr 0.25205 0.25152 0.18892
 Zr14 Zr 0.19962 0.30311 0.24979
 Zr15 Zr 0.30053 0.19652 0.25035
 Zr16 Zr 0.19409 0.19799 0.24965
 O17 O 0.36647 0.19921 0.24969
 O18 O 0.12921 0.21024 0.24762
 O19 O 0.24770 0.19632 0.21808
 O20 O 0.19657 0.25065 0.21821
 O21 O 0.25319 0.30556 0.21886
 O22 O 0.30600 0.24910 0.21956
 C23 C 0.17789 0.18553 0.32959
 C24 C 0.31609 0.18318 0.32994
 C25 C 0.18150 0.31511 0.32898
 O26 O 0.13385 0.30009 0.24674
 O27 O 0.18059 0.32957 0.20235
 O28 O 0.21380 0.29252 0.16014
 C29 C 0.18849 0.32096 0.17031
 O30 O 0.33340 0.32390 0.29722
 Zr31 Zr 0.30573 0.30137 0.25067
 O32 O 0.29179 0.29048 0.16036
 O33 O 0.20708 0.36787 0.25270
 O34 O 0.29734 0.36622 0.25130
 O35 O 0.37097 0.29083 0.25003
 O36 O 0.32824 0.32407 0.20285
 C37 C 0.31934 0.31650 0.17081
 O38 O 0.21878 0.22110 0.14882
 O39 O 0.29304 0.13169 0.25115
 O40 O 0.28990 0.20988 0.16053
 O41 O 0.32199 0.17213 0.20304
 O42 O 0.19949 0.13285 0.25187
 O43 O 0.17119 0.17139 0.20282
 C44 C 0.31498 0.18136 0.17098
 H45 H 0.24648 0.16855 0.29486
 H46 H 0.17176 0.25118 0.20289
 H47 H 0.33195 0.24802 0.20564
 H48 H 0.25344 0.32683 0.29719
 H49 H 0.11445 0.18432 0.25359
 H50 H 0.12354 0.32886 0.24772
 H51 H 0.17884 0.38012 0.25135
 H52 H 0.32439 0.37904 0.24508
 H53 H 0.17153 0.12162 0.25744
 H54 H 0.32139 0.11972 0.25256
 H55 H 0.37671 0.17039 0.24897
 H56 H 0.38471 0.31727 0.24396
 H57 H 0.14697 0.15352 0.20815
 H58 H 0.22993 0.23127 0.12627
 H59 H 0.26826 0.26929 0.37378
 H60 H 0.35312 0.34642 0.29149
 Zr61 Zr 0.75256 0.75219 0.31086
 O62 O 0.72094 0.72001 0.35098
 O63 O 0.79240 0.79081 0.33940
 O64 O 0.79381 0.71362 0.33907
 O65 O 0.67410 0.82324 0.29743
 O66 O 0.82498 0.67502 0.29669
 O67 O 0.71277 0.79167 0.33965
 O68 O 0.83161 0.82118 0.29687
 O69 O 0.80686 0.74965 0.28053
 O70 O 0.75286 0.80561 0.28029
 O71 O 0.74801 0.69743 0.28160
 O72 O 0.69637 0.75078 0.28218
 Zr73 Zr 0.74794 0.74809 0.18851
 Zr74 Zr 0.80074 0.69691 0.24946
 Zr75 Zr 0.69919 0.80289 0.24990
 Zr76 Zr 0.80563 0.80206 0.24906
 O77 O 0.63327 0.79980 0.24932
 O78 O 0.87058 0.79018 0.24697
 O79 O 0.75200 0.80334 0.21755
 O80 O 0.80343 0.74936 0.21774
 O81 O 0.74716 0.69408 0.21859
 O82 O 0.69401 0.75025 0.21923
 C83 C 0.82190 0.81464 0.32896
 C84 C 0.68357 0.81622 0.32946
 C85 C 0.81880 0.68501 0.32868
 O86 O 0.86649 0.70033 0.24641
 O87 O 0.82004 0.67059 0.20206
 O88 O 0.78655 0.70736 0.15979
 C89 C 0.81212 0.67914 0.17000
 O90 O 0.66713 0.67532 0.29712
 Zr91 Zr 0.69461 0.69802 0.25047
 O92 O 0.70832 0.70887 0.16012
 O93 O 0.79365 0.63210 0.25247
 O94 O 0.70341 0.63322 0.25123
 O95 O 0.62931 0.70821 0.24994
 O96 O 0.67211 0.67514 0.20277
 C97 C 0.68090 0.68273 0.17068
 O98 O 0.78094 0.77862 0.14822
 O99 O 0.70630 0.86776 0.25053
 O100 O 0.70989 0.78959 0.16010
 O101 O 0.67762 0.82716 0.20258
 O102 O 0.79980 0.86716 0.25111
 O103 O 0.82835 0.82876 0.20214
 C104 C 0.68468 0.81800 0.17054
 H105 H 0.75310 0.83123 0.29427
 H106 H 0.82824 0.74898 0.20241
 H107 H 0.66805 0.75119 0.20534
 H108 H 0.74705 0.67292 0.29698
 H109 H 0.88520 0.81619 0.25284
 H110 H 0.87698 0.67162 0.24748
 H111 H 0.82198 0.62002 0.25115
 H112 H 0.67643 0.62022 0.24510
 H113 H 0.82768 0.87858 0.25664
 H114 H 0.67788 0.87957 0.25197
 H115 H 0.62286 0.82856 0.24853
 H116 H 0.61569 0.68170 0.24398
 H117 H 0.85245 0.84680 0.20740
 H118 H 0.76980 0.76835 0.12573
 H119 H 0.73191 0.73048 0.37346
 H120 H 0.64753 0.65269 0.29146
 Zr121 Zr 0.75263 0.24752 -0.31122
 O122 O 0.72114 0.27942 -0.35151
 O123 O 0.79256 0.20882 -0.33960
 O124 O 0.79391 0.28613 -0.33949
 O125 O 0.67411 0.17642 -0.29753
 O126 O 0.82494 0.32491 -0.29716
 O127 O 0.71279 0.20787 -0.33987
 O128 O 0.83169 0.17872 -0.29696
 O129 O 0.80686 0.25032 -0.28086
 O130 O 0.75290 0.19424 -0.28047
 O131 O 0.74796 0.30238 -0.28210
 O132 O 0.69639 0.24894 -0.28253
 Zr133 Zr 0.74779 0.25214 -0.18885
 Zr134 Zr 0.80061 0.30317 -0.24994
 Zr135 Zr 0.69919 0.19698 -0.25010
 Zr136 Zr 0.80562 0.19804 -0.24923
 O137 O 0.63326 0.19989 -0.24951
 O138 O 0.87055 0.21011 -0.24717
 O139 O 0.75194 0.19678 -0.21773
 O140 O 0.80332 0.25087 -0.21806
 O141 O 0.74699 0.30601 -0.21910
 O142 O 0.69391 0.24972 -0.21958
 C143 C 0.82205 0.18509 -0.32907
 C144 C 0.68356 0.18334 -0.32958
 C145 C 0.81884 0.31484 -0.32912
 O146 O 0.86636 0.29991 -0.24680
 O147 O 0.81975 0.32984 -0.20266
 O148 O 0.78624 0.29318 -0.16026
 C149 C 0.81175 0.32145 -0.17057
 O150 O 0.66707 0.32428 -0.29768
 Zr151 Zr 0.69451 0.30182 -0.25098
 O152 O 0.70810 0.29135 -0.16059
 O153 O 0.79350 0.36794 -0.25320
 O154 O 0.70328 0.36664 -0.25195
 O155 O 0.62923 0.29143 -0.25043
 O156 O 0.67194 0.32487 -0.20333
 C157 C 0.68070 0.31742 -0.17122
 O158 O 0.78077 0.22188 -0.14847
 O159 O 0.70634 0.13213 -0.25055
 O160 O 0.70971 0.21068 -0.16034
 O161 O 0.67755 0.17287 -0.20273
 O162 O 0.79979 0.13292 -0.25105
 O163 O 0.82829 0.17161 -0.20222
 C164 C 0.68454 0.18219 -0.17071
 H165 H 0.75316 0.16855 -0.29438
 H166 H 0.82810 0.25140 -0.20271
 H167 H 0.66792 0.24879 -0.20570
 H168 H 0.74702 0.32682 -0.29755
 H169 H 0.88520 0.18410 -0.25295
 H170 H 0.87684 0.32864 -0.24796
 H171 H 0.82181 0.38011 -0.25189
 H172 H 0.67629 0.37960 -0.24584
 H173 H 0.82769 0.12153 -0.25653
 H174 H 0.67793 0.12024 -0.25195
 H175 H 0.62287 0.17111 -0.24862
 H176 H 0.61557 0.31792 -0.24450
 H177 H 0.85241 0.15361 -0.20742
 H178 H 0.76958 0.23224 -0.12602
 H179 H 0.73218 0.26884 -0.37393
 H180 H 0.64741 0.34684 -0.29208
 Zr181 Zr 0.24648 0.75502 -0.31112
 O182 O 0.27823 0.72401 -0.35172
 O183 O 0.20684 0.79455 -0.33911
 O184 O 0.20534 0.71661 -0.33984
 O185 O 0.32524 0.82543 -0.29649
 O186 O 0.17425 0.67719 -0.29784
 O187 O 0.28623 0.79561 -0.33925
 O188 O 0.16716 0.82317 -0.29624
 O189 O 0.19213 0.75163 -0.28087
 O190 O 0.24613 0.80769 -0.27975
 O191 O 0.25104 0.69968 -0.28244
 O192 O 0.30258 0.75290 -0.28227
 Zr193 Zr 0.25068 0.74825 -0.18857
 Zr194 Zr 0.19827 0.69829 -0.25038
 Zr195 Zr 0.29970 0.80427 -0.24931
 Zr196 Zr 0.19327 0.80334 -0.24869
 O197 O 0.36562 0.80122 -0.24852
 O198 O 0.12832 0.79132 -0.24669
 O199 O 0.24680 0.80403 -0.21704
 O200 O 0.19536 0.75006 -0.21801
 O201 O 0.25164 0.69485 -0.21934
 O202 O 0.30472 0.75109 -0.21918
 C203 C 0.17710 0.81801 -0.32850
 C204 C 0.31570 0.81983 -0.32875
 C205 C 0.18048 0.68762 -0.32973
 O206 O 0.13250 0.70149 -0.24740
 O207 O 0.17896 0.67073 -0.20342
 O208 O 0.21105 0.70744 -0.16051
 C209 C 0.18572 0.67906 -0.17108
 O210 O 0.33203 0.67759 -0.29783
 Zr211 Zr 0.30427 0.69954 -0.25110
 O212 O 0.29007 0.70829 -0.16064
 O213 O 0.20539 0.63358 -0.25430
 O214 O 0.29535 0.63477 -0.25277
 O215 O 0.36953 0.71006 -0.25029
 O216 O 0.32660 0.67564 -0.20361
 C217 C 0.31761 0.68246 -0.17144
 O218 O 0.21804 0.77803 -0.14777
 O219 O 0.29268 0.86914 -0.24920
 O220 O 0.28886 0.78931 -0.15966
 O221 O 0.32121 0.82765 -0.20172
 O222 O 0.19902 0.86849 -0.25005
 O223 O 0.17061 0.82914 -0.20145
 C224 C 0.31417 0.81789 -0.16979
 H225 H 0.24595 0.83364 -0.29335
 H226 H 0.17043 0.74934 -0.20281
 H227 H 0.33064 0.75175 -0.20522
 H228 H 0.25208 0.67549 -0.29812
 H229 H 0.11369 0.81743 -0.25220
 H230 H 0.12204 0.67278 -0.24880
 H231 H 0.17709 0.62137 -0.25309
 H232 H 0.32223 0.62162 -0.24660
 H233 H 0.17112 0.87991 -0.25547
 H234 H 0.32111 0.88099 -0.25053
 H235 H 0.37609 0.82996 -0.24740
 H236 H 0.38322 0.68355 -0.24443
 H237 H 0.14650 0.84723 -0.20649
 H238 H 0.22914 0.76713 -0.12546
 H239 H 0.26723 0.73503 -0.37401
 H240 H 0.35178 0.65508 -0.29227
 Zr241 Zr 1.25205 1.25269 0.81122
 O242 O 1.21975 1.22127 0.85142
 O243 O 1.29209 1.29101 0.83981
 O244 O 1.29182 1.21329 0.84017
 O245 O 1.17687 1.32707 0.79662
 O246 O 1.32630 1.17720 0.79807
 O247 O 1.21154 1.29193 0.83929
 O248 O 1.33230 1.32043 0.79740
 O249 O 1.30670 1.24969 0.78137
 O250 O 1.25366 1.30598 0.78037
 O251 O 1.24740 1.19780 0.78231
 O252 O 1.19623 1.25231 0.78205
 Zr253 Zr 1.24825 1.24762 0.68894
 Zr254 Zr 1.30052 1.19689 0.75064
 Zr255 Zr 1.20043 1.30420 0.74944
 Zr256 Zr 1.30653 1.30166 0.74943
 O257 O 1.13452 1.30195 0.74847
 O258 O 1.37129 1.28871 0.74767
 O259 O 1.25335 1.30323 0.71740
 O260 O 1.30365 1.24883 0.71839
 O261 O 1.24697 1.19409 0.71956
 O262 O 1.19426 1.25113 0.71937
 C263 C 1.32213 1.31424 0.82944
 C264 C 1.18475 1.31876 0.82872
 C265 C 1.31885 1.18642 0.83005
 O266 O 1.36635 1.19932 0.74749
 O267 O 1.32127 1.17126 0.70364
 O268 O 1.28543 1.20508 0.66092
 C269 C 1.31241 1.17842 0.67155
 O270 O 1.16626 1.17800 0.79798
 Zr271 Zr 1.19410 1.19908 0.75095
 O272 O 1.20845 1.20859 0.66066
 O273 O 1.29258 1.13227 0.75430
 O274 O 1.20178 1.13416 0.75229
 O275 O 1.12887 1.20957 0.74987
 O276 O 1.17157 1.17581 0.70338
 C277 C 1.18072 1.18284 0.67128
 O278 O 1.28217 1.27727 0.64874
 O279 O 1.20837 1.36901 0.74970
 O280 O 1.21009 1.28844 0.65984
 O281 O 1.18153 1.32974 0.70168
 O282 O 1.30117 1.36682 0.75115
 O283 O 1.33053 1.32801 0.70281
 C284 C 1.18733 1.31908 0.66976
 H285 H 1.25429 1.33169 0.79424
 H286 H 1.32849 1.24818 0.70309
 H287 H 1.16841 1.25240 0.70534
 H288 H 1.24630 1.17340 0.79782
 H289 H 1.38630 1.31439 0.75388
 H290 H 1.37663 1.17056 0.74910
 H291 H 1.32083 1.11998 0.75340
 H292 H 1.17449 1.12156 0.74652
 H293 H 1.32894 1.37802 0.75735
 H294 H 1.18013 1.38134 0.75045
 H295 H 1.12468 1.33085 0.74703
 H296 H 1.11516 1.18289 0.74464
 H297 H 1.35451 1.34607 0.70843
 H298 H 1.27112 1.26680 0.62628
 H299 H 1.23048 1.23191 0.87393
 H300 H 1.14676 1.15514 0.79278
 Zr301 Zr 0.74801 0.74722 0.81160
 O302 O 0.78026 0.77868 0.85172
 O303 O 0.70789 0.70900 0.84029
 O304 O 0.70823 0.78666 0.84047
 O305 O 0.82319 0.67282 0.79719
 O306 O 0.67376 0.82270 0.79829
 O307 O 0.78856 0.70808 0.83978
 O308 O 0.66762 0.67970 0.79796
 O309 O 0.69340 0.75015 0.78176
 O310 O 0.74643 0.69385 0.78092
 O311 O 0.75267 0.80207 0.78256
 O312 O 0.80385 0.74752 0.78242
 Zr313 Zr 0.75191 0.75207 0.68933
 Zr314 Zr 0.69958 0.80291 0.75090
 Zr315 Zr 0.79968 0.69558 0.74995
 Zr316 Zr 0.69360 0.69813 0.74996
 O317 O 0.86560 0.69777 0.74901
 O318 O 0.62884 0.71097 0.74799
 O319 O 0.74680 0.69649 0.71792
 O320 O 0.69649 0.75092 0.71879
 O321 O 0.75315 0.80567 0.71979
 O322 O 0.80586 0.74863 0.71977
 C323 C 0.67774 0.68594 0.82998
 C324 C 0.81536 0.68124 0.82927
 C325 C 0.68120 0.81352 0.83028
 O326 O 0.63374 0.80045 0.74784
 O327 O 0.67880 0.82839 0.70383
 O328 O 0.71465 0.79449 0.66119
 C329 C 0.68762 0.82111 0.67176
 O330 O 0.83373 0.82187 0.79818
 Zr331 Zr 0.80598 0.80072 0.75120
 O332 O 0.79175 0.79102 0.66095
 O333 O 0.70751 0.86754 0.75430
 O334 O 0.79828 0.86564 0.75226
 O335 O 0.87123 0.79028 0.75021
 O336 O 0.82864 0.82380 0.70358
 C337 C 0.81954 0.81669 0.67151
 O338 O 0.71808 0.72232 0.64922
 O339 O 0.79165 0.63078 0.75037
 O340 O 0.79019 0.71131 0.66032
 O341 O 0.81879 0.67009 0.70224
 O342 O 0.69892 0.63298 0.75208
 O343 O 0.66983 0.67162 0.70340
 C344 C 0.81305 0.68075 0.67030
 H345 H 0.74577 0.66819 0.79489
 H346 H 0.67166 0.75152 0.70350
 H347 H 0.83174 0.74734 0.70577
 H348 H 0.75375 0.82649 0.79799
 H349 H 0.61384 0.68527 0.75425
 H350 H 0.62346 0.82921 0.74933
 H351 H 0.67926 0.87982 0.75339
 H352 H 0.82558 0.87822 0.74646
 H353 H 0.67111 0.62184 0.75828
 H354 H 0.81988 0.61843 0.75116
 H355 H 0.87543 0.66886 0.74768
 H356 H 0.88493 0.81697 0.74493
 H357 H 0.64591 0.65348 0.70904
 H358 H 0.72914 0.73276 0.62673
 H359 H 0.76950 0.76808 0.87427
 H360 H 0.85313 0.84482 0.79293
 Zr361 Zr 1.25234 0.74716 0.18863
 O362 O 1.22024 0.77876 0.14848
 O363 O 1.29230 0.70882 0.15999
 O364 O 1.29229 0.78647 0.15976
 O365 O 1.17682 0.67296 0.20299
 O366 O 1.32688 0.82240 0.20191
 O367 O 1.21180 0.70811 0.16043
 O368 O 1.33230 0.67922 0.20237
 O369 O 1.30694 0.74997 0.21850
 O370 O 1.25366 0.69378 0.21937
 O371 O 1.24786 0.80201 0.21760
 O372 O 1.19644 0.74763 0.21773
 Zr373 Zr 1.24829 0.75198 0.31083
 Zr374 Zr 1.30092 0.80272 0.24930
 Zr375 Zr 1.20035 0.69565 0.25024
 Zr376 Zr 1.30648 0.69792 0.25035
 O377 O 1.13445 0.69803 0.25118
 O378 O 1.37129 0.71069 0.25219
 O379 O 1.25321 0.69642 0.28231
 O380 O 1.30377 0.75069 0.28146
 O381 O 1.24731 0.80561 0.28034
 O382 O 1.19435 0.74867 0.28038
 C383 C 1.32223 0.68551 0.17033
 C384 C 1.18486 0.68132 0.17091
 C385 C 1.31941 0.81325 0.16993
 O386 O 1.36674 0.80015 0.25251
 O387 O 1.32166 0.82818 0.29639
 O388 O 1.28552 0.79432 0.33898
 C389 C 1.31266 0.82092 0.32845
 O390 O 1.16688 0.82210 0.20189
 Zr391 Zr 1.19448 0.80080 0.24891
 O392 O 1.20857 0.79098 0.33918
 O393 O 1.29330 0.86737 0.24573
 O394 O 1.20246 0.86571 0.24772
 O395 O 1.12920 0.79049 0.24990
 O396 O 1.17190 0.82397 0.29652
 C397 C 1.18093 0.81679 0.32862
 O398 O 1.28202 0.72213 0.35097
 O399 O 1.20799 0.63081 0.24988
 O400 O 1.20993 0.71129 0.33985
 O401 O 1.18129 0.67010 0.29798
 O402 O 1.30087 0.63278 0.24850
 O403 O 1.33020 0.67140 0.29696
 C404 C 1.18708 0.68073 0.32989
 H405 H 1.25422 0.66811 0.20545
 H406 H 1.32857 0.75125 0.29679
 H407 H 1.16846 0.74743 0.29438
 H408 H 1.24691 0.82644 0.20213
 H409 H 1.38620 0.68498 0.24597
 H410 H 1.37713 0.82889 0.25094
 H411 H 1.32160 0.87958 0.24668
 H412 H 1.17522 0.87836 0.25351
 H413 H 1.32862 0.62153 0.24233
 H414 H 1.17969 0.61857 0.24912
 H415 H 1.12449 0.66914 0.25258
 H416 H 1.11560 0.81720 0.25517
 H417 H 1.35414 0.65332 0.29135
 H418 H 1.27101 0.73255 0.37346
 H419 H 1.23096 0.76818 0.12594
 H420 H 1.14748 0.84501 0.20712
 Zr421 Zr 0.74841 1.25283 0.18848
 O422 O 0.78042 1.22157 0.14812
 O423 O 0.70844 1.29149 0.16005
 O424 O 0.70844 1.21363 0.15950
 O425 O 0.82424 1.32674 0.20316
 O426 O 0.67377 1.17746 0.20156
 O427 O 0.78922 1.29205 0.16045
 O428 O 0.66858 1.32089 0.20260
 O429 O 0.69379 1.24987 0.21841
 O430 O 0.74722 1.30594 0.21946
 O431 O 0.75273 1.19775 0.21730
 O432 O 0.80427 1.25196 0.21760
 Zr433 Zr 0.75237 1.24694 0.31080
 Zr434 Zr 0.69964 1.19686 0.24904
 Zr435 Zr 0.80050 1.30369 0.25032
 Zr436 Zr 0.69437 1.30167 0.25047
 O437 O 0.86639 1.30110 0.25123
 O438 O 0.62954 1.28903 0.25229
 O439 O 0.74762 1.30274 0.28244
 O440 O 0.69694 1.24863 0.28141
 O441 O 0.75323 1.19358 0.28006
 O442 O 0.80632 1.25041 0.28029
 C443 C 0.67857 1.31480 0.17051
 C444 C 0.81628 1.31867 0.17103
 C445 C 0.68130 1.18677 0.16959
 O446 O 0.63383 1.19965 0.25218
 O447 O 0.67864 1.17105 0.29604
 O448 O 0.71485 1.20440 0.33877
 C449 C 0.68760 1.17796 0.32815
 O450 O 0.83364 1.17751 0.20150
 Zr451 Zr 0.80608 1.19854 0.24860
 O452 O 0.79209 1.20761 0.33892
 O453 O 0.70715 1.13221 0.24530
 O454 O 0.79793 1.13366 0.24718
 O455 O 0.87138 1.20876 0.24955
 O456 O 0.82868 1.17491 0.29608
 C457 C 0.81969 1.18184 0.32822
 O458 O 0.71875 1.27648 0.35115
 O459 O 0.79296 1.36853 0.25022
 O460 O 0.79083 1.28746 0.33995
 O461 O 0.81963 1.32882 0.29816
 O462 O 0.70022 1.36680 0.24890
 O463 O 0.67068 1.32786 0.29719
 C464 C 0.81378 1.31805 0.33007
 H465 H 0.74674 1.33172 0.20563
 H466 H 0.67212 1.24802 0.29673
 H467 H 0.83221 1.25148 0.29428
 H468 H 0.75366 1.17343 0.20176
 H469 H 0.61469 1.31483 0.24621
 H470 H 0.62334 1.17096 0.25050
 H471 H 0.67882 1.12006 0.24618
 H472 H 0.82513 1.12089 0.25289
 H473 H 0.67252 1.37820 0.24278
 H474 H 0.82128 1.38074 0.24950
 H475 H 0.87644 1.32994 0.25277
 H476 H 0.88496 1.18199 0.25470
 H477 H 0.64681 1.34607 0.29165
 H478 H 0.72977 1.26580 0.37355
 H479 H 0.76971 1.23243 0.12566
 H480 H 0.85301 1.15455 0.20664
 N481 N 0.57451 1.04374 0.03760
 N482 N 0.60380 1.07084 0.04593
 N483 N 0.54503 0.95710 0.06147
 N484 N 0.55400 0.93125 0.08684
 N485 N 0.57448 0.95680 0.03768
 N486 N 0.60426 0.93048 0.04632
 N487 N 0.54484 1.04362 0.06121
 N488 N 0.55310 1.07035 0.08607
 C489 C 0.58954 1.08758 0.07606
 C490 C 0.59057 0.91437 0.07683
 N491 N 0.42559 0.95664 0.03800
 N492 N 0.39651 0.92934 0.04637
 N493 N 0.45509 1.04336 0.06137
 N494 N 0.44601 1.06907 0.08679
 N495 N 0.42556 1.04355 0.03767
 N496 N 0.39563 1.06964 0.04643
 N497 N 0.45531 0.95689 0.06153
 N498 N 0.44730 0.93002 0.08640
 Mn499 Mn 0.50007 1.00024 0.06154
 C500 C 0.41095 0.91263 0.07644
 C501 C 0.40931 1.08575 0.07691
 N502 N 0.57432 0.95639 -0.03778
 N503 N 0.60359 0.92936 -0.04617
 N504 N 0.54485 1.04296 -0.06159
 N505 N 0.55374 1.06891 -0.08694
 N506 N 0.57434 1.04331 -0.03786
 N507 N 0.60405 1.06975 -0.04651
 N508 N 0.54459 0.95646 -0.06131
 N509 N 0.55281 0.92975 -0.08620
 Mn510 Mn 0.57488 1.00006 -0.00010
 C511 C 0.58928 0.91260 -0.07626
 C512 C 0.59029 1.08588 -0.07697
 N513 N 0.42547 1.04348 -0.03782
 N514 N 0.39630 1.07062 -0.04620
 N515 N 0.45475 0.95663 -0.06119
 N516 N 0.44568 0.93058 -0.08638
 N517 N 0.42530 0.95653 -0.03740
 N518 N 0.39543 0.93019 -0.04585
 N519 N 0.45508 1.04317 -0.06147
 N520 N 0.44690 1.06984 -0.08644
 Mn521 Mn 0.42502 1.00006 0.00012
 Mn522 Mn 0.49982 0.99980 -0.06154
 Cl523 Cl 0.49995 1.00005 -0.00000
 C524 C 0.41056 1.08720 -0.07642
 C525 C 0.40905 0.91381 -0.07625
 N526 N 1.04394 0.54520 0.56117
 N527 N 1.06980 0.55480 0.58657
 N528 N 0.95600 0.57373 0.53782
 N529 N 0.92884 0.60278 0.54634
 N530 N 0.95639 0.54447 0.56153
 N531 N 0.92967 0.55278 0.58664
 N532 N 1.04377 0.57429 0.53730
 N533 N 1.06964 0.60440 0.54593
 C534 C 1.08612 0.59137 0.57648
 C535 C 0.91224 0.58884 0.57666
 N536 N 0.95602 0.54441 0.43861
 N537 N 0.93018 0.55357 0.41310
 N538 N 1.04356 0.57392 0.46191
 N539 N 1.07082 0.60296 0.45350
 N540 N 1.04349 0.54453 0.43838
 N541 N 1.07053 0.55273 0.41348
 N542 N 0.95583 0.57357 0.46234
 N543 N 0.92970 0.60334 0.45349
 Mn544 Mn 0.99977 0.57428 0.49984
 C545 C 0.91348 0.58997 0.42296
 C546 C 1.08779 0.58887 0.42342
 N547 N 0.95703 0.45552 0.56165
 N548 N 0.93106 0.44634 0.58709
 N549 N 1.04453 0.42676 0.53772
 N550 N 1.07166 0.39765 0.54615
 N551 N 1.04453 0.45614 0.56128
 N552 N 1.07148 0.44782 0.58620
 N553 N 0.95680 0.42641 0.53786
 N554 N 0.93054 0.39667 0.54659
 Mn555 Mn 1.00049 0.50033 0.56157
 C556 C 0.91429 0.40998 0.57712
 C557 C 1.08864 0.41165 0.57624
 N558 N 1.04361 0.45563 0.43844
 N559 N 1.06939 0.44645 0.41288
 N560 N 0.95621 0.42618 0.46242
 N561 N 0.92934 0.39679 0.45398
 N562 N 0.95609 0.45550 0.43876
 N563 N 0.92932 0.44690 0.41378
 N564 N 1.04398 0.42655 0.46229
 N565 N 1.07017 0.39682 0.45350
 Mn566 Mn 0.99981 0.50003 0.43839
 Mn567 Mn 1.00038 0.42608 0.50008
 Cl568 Cl 1.00011 0.50018 0.49998
 C569 C 1.08624 0.41012 0.42285
 C570 C 0.91237 0.41059 0.42377
 N571 N 1.04465 0.42662 0.03737
 N572 N 1.07180 0.39755 0.04598
 N573 N 0.95705 0.45615 0.06092
 N574 N 0.93094 0.44743 0.08636
 N575 N 0.95673 0.42685 0.03731
 N576 N 0.93014 0.39740 0.04620
 N577 N 1.04452 0.45603 0.06088
 N578 N 1.07133 0.44783 0.08593
 C579 C 1.08860 0.41168 0.07616
 C580 C 0.91387 0.41115 0.07664
 N581 N 0.95723 0.57444 0.03733
 N582 N 0.93001 0.60347 0.04591
 N583 N 1.04468 0.54468 0.06073
 N584 N 1.07094 0.55316 0.08606
 N585 N 1.04513 0.57401 0.03709
 N586 N 1.07190 0.60329 0.04586
 N587 N 0.95725 0.54494 0.06083
 N588 N 0.93033 0.55305 0.08583
 Mn589 Mn 1.00086 0.50046 0.06095
 C590 C 0.91308 0.58923 0.07606
 C591 C 1.08817 0.58933 0.07624
 N592 N 0.95653 0.42694 -0.03831
 N593 N 0.92915 0.39802 -0.04682
 N594 N 1.04428 0.45610 -0.06192
 N595 N 1.07064 0.44750 -0.08715
 N596 N 1.04441 0.42679 -0.03825
 N597 N 1.07109 0.39742 -0.04690
 N598 N 0.95683 0.45636 -0.06188
 N599 N 0.92991 0.44827 -0.08688
 Mn600 Mn 1.00058 0.42633 -0.00048
 C601 C 0.91239 0.41220 -0.07700
 C602 C 1.08761 0.41126 -0.07725
 N603 N 1.04547 0.57423 -0.03861
 N604 N 1.07232 0.60351 -0.04764
 N605 N 0.95742 0.54508 -0.06184
 N606 N 0.93074 0.55350 -0.08686
 N607 N 0.95744 0.57444 -0.03828
 N608 N 0.93051 0.60367 -0.04678
 N609 N 1.04484 0.54497 -0.06228
 N610 N 1.07077 0.55367 -0.08790
 Mn611 Mn 1.00133 0.57477 -0.00062
 Mn612 Mn 1.00084 0.50062 -0.06209
 Cl613 Cl 1.00092 0.50055 -0.00056
 C614 C 1.08833 0.58979 -0.07827
 C615 C 0.91373 0.58968 -0.07694
 N616 N 0.57392 1.04286 0.53808
 N617 N 0.60357 1.06944 0.54663
 N618 N 0.54466 0.95616 0.56189
 N619 N 0.55430 0.93092 0.58756
 N620 N 0.57407 0.95606 0.53803
 N621 N 0.60442 0.93054 0.54694
 N622 N 0.54432 1.04267 0.56177
 N623 N 0.55305 1.06891 0.58692
 C624 C 0.58967 1.08587 0.57696
 C625 C 0.59119 0.91464 0.57764
 N626 N 0.42507 0.95521 0.53844
 N627 N 0.39495 0.92935 0.54760
 N628 N 0.45437 1.04215 0.56191
 N629 N 0.44485 1.06750 0.58748
 N630 N 0.42488 1.04216 0.53816
 N631 N 0.39457 1.06775 0.54704
 N632 N 0.45455 0.95567 0.56222
 N633 N 0.44511 0.93055 0.58808
 Mn634 Mn 0.49950 0.99916 0.56207
 C635 C 0.40834 0.91370 0.57842
 C636 C 0.40793 1.08377 0.57763
 N637 N 0.57410 0.95590 0.46256
 N638 N 0.60386 0.92953 0.45386
 N639 N 0.54462 1.04254 0.43881
 N640 N 0.55437 1.06749 0.41293
 N641 N 0.57407 1.04277 0.46259
 N642 N 0.60455 1.06811 0.45342
 N643 N 0.54447 0.95599 0.43894
 N644 N 0.55325 0.92990 0.41370
 Mn645 Mn 0.57442 0.99939 0.50033
 C646 C 0.58995 0.91312 0.42352
 C647 C 0.59137 1.08379 0.42262
 N648 N 0.42496 1.04239 0.46269
 N649 N 0.39527 1.06889 0.45409
 N650 N 0.45463 0.95597 0.43905
 N651 N 0.44513 0.93085 0.41331
 N652 N 0.42519 0.95557 0.46287
 N653 N 0.39492 0.92998 0.45385
 N654 N 0.45463 1.04246 0.43908
 N655 N 0.44595 1.06877 0.41394
 Mn656 Mn 0.42463 0.99881 0.50053
 Mn657 Mn 0.49957 0.99925 0.43885
 Cl658 Cl 0.49952 0.99914 0.50045
 C659 C 0.40925 1.08552 0.42381
 C660 C 0.40828 0.91433 0.42312
 N661 N 1.07497 1.04254 0.53792
 N662 N 1.10442 1.06923 0.54658
 N663 N 1.04472 0.95631 0.56170
 N664 N 1.05276 0.93042 0.58720
 N665 N 1.07459 0.95569 0.53830
 N666 N 1.10384 0.92895 0.54740
 N667 N 1.04507 1.04254 0.56128
 N668 N 1.05320 1.06898 0.58630
 C669 C 1.08985 1.08583 0.57660
 C670 C 1.08921 0.91306 0.57777
 N671 N 0.92586 0.95631 0.53795
 N672 N 0.89653 0.92946 0.54657
 N673 N 0.95597 1.04286 0.56117
 N674 N 0.94832 1.06970 0.58600
 N675 N 0.92606 1.04305 0.53784
 N676 N 0.89706 1.07027 0.54637
 N677 N 0.95560 0.95659 0.56143
 N678 N 0.94749 0.93014 0.58650
 Mn679 Mn 1.00032 0.99958 0.56152
 C680 C 0.91101 0.91305 0.57671
 C681 C 0.91194 1.08698 0.57628
 N682 N 1.07475 0.95567 0.46280
 N683 N 1.10417 0.92905 0.45401
 N684 N 1.04503 1.04226 0.43922
 N685 N 1.05244 1.06940 0.41454
 N686 N 1.07497 1.04243 0.46253
 N687 N 1.10379 1.06994 0.45412
 N688 N 1.04498 0.95600 0.43934
 N689 N 1.05318 0.92981 0.41414
 Mn690 Mn 1.07542 0.99906 0.50038
 C691 C 1.08972 0.91279 0.42381
 C692 C 1.08875 1.08681 0.42430
 N693 N 0.92611 1.04276 0.46242
 N694 N 0.89665 1.06928 0.45349
 N695 N 0.95593 0.95610 0.43926
 N696 N 0.94826 0.92933 0.41439
 N697 N 0.92594 0.95599 0.46255
 N698 N 0.89682 0.92889 0.45393
 N699 N 0.95593 1.04239 0.43899
 N700 N 0.94769 1.06843 0.41363
 Mn701 Mn 0.92540 0.99952 0.50020
 Mn702 Mn 1.00048 0.99920 0.43907
 Cl703 Cl 1.00041 0.99933 0.50029
 C704 C 0.91109 1.08543 0.42321
 C705 C 0.91175 0.91217 0.42402
 N706 N 0.57416 0.54322 0.03745
 N707 N 0.60355 0.56999 0.04604
 N708 N 0.54419 0.45664 0.06088
 N709 N 0.55183 0.42974 0.08571
 N710 N 0.57408 0.45648 0.03751
 N711 N 0.60308 0.42925 0.04599
 N712 N 0.54443 0.54293 0.06095
 N713 N 0.55262 0.56929 0.08603
 C714 C 0.58912 0.58637 0.07619
 C715 C 0.58821 0.41248 0.07592
 N716 N 0.42536 0.45653 0.03742
 N717 N 0.39610 0.42956 0.04597
 N718 N 0.45535 0.54299 0.06089
 N719 N 0.44802 0.57012 0.08554
 N720 N 0.42543 0.54324 0.03758
 N721 N 0.39669 0.57078 0.04593
 N722 N 0.45514 0.45673 0.06087
 N723 N 0.44713 0.43012 0.08584
 Mn724 Mn 0.49976 0.49982 0.06105
 C725 C 0.41068 0.41300 0.07602
 C726 C 0.41177 0.58759 0.07572
 N727 N 0.57406 0.45677 -0.03783
 N728 N 0.60342 0.43003 -0.04649
 N729 N 0.54404 0.54336 -0.06111
 N730 N 0.55130 0.57080 -0.08558
 N731 N 0.57396 0.54346 -0.03779
 N732 N 0.60263 0.57120 -0.04595
 N733 N 0.54434 0.45711 -0.06133
 N734 N 0.55252 0.43082 -0.08646
 Mn735 Mn 0.57465 0.49997 -0.00018
 C736 C 0.58900 0.41373 -0.07667
 C737 C 0.58751 0.58828 -0.07563
 N738 N 0.42519 0.54336 -0.03778
 N739 N 0.39554 0.56972 -0.04660
 N740 N 0.45529 0.45692 -0.06124
 N741 N 0.44794 0.42978 -0.08588
 N742 N 0.42537 0.45662 -0.03789
 N743 N 0.39662 0.42904 -0.04621
 N744 N 0.45492 0.54320 -0.06130
 N745 N 0.44642 0.56923 -0.08661
 Mn746 Mn 0.42474 0.49994 -0.00016
 Mn747 Mn 0.49966 0.50015 -0.06140
 Cl748 Cl 0.49970 0.49997 -0.00017
 C749 C 0.40976 0.58600 -0.07690
 C750 C 0.41169 0.41226 -0.07602
 N751 N 0.37425 1.13830 0.15589
 C752 C 0.33922 1.15798 0.14526
 N753 N 0.32747 1.15483 0.11133
 N754 N 0.34983 1.13216 0.08907
 C755 C 0.38491 1.11247 0.09997
 N756 N 0.39671 1.11616 0.13369
 N757 N 0.85223 0.61937 0.65374
 C758 C 0.83557 0.65609 0.64413
 N759 N 0.84293 0.67031 0.61133
 N760 N 0.86664 0.64870 0.58926
 C761 C 0.88352 0.61206 0.59920
 N762 N 0.87555 0.59775 0.63171
 N763 N 0.62531 0.86093 0.15553
 C764 C 0.66039 0.84138 0.14485
 N765 N 0.67225 0.84487 0.11096
 N766 N 0.64994 0.86775 0.08879
 C767 C 0.61483 0.88733 0.09975
 N768 N 0.60291 0.88329 0.13342
 N769 N 1.15739 0.32968 0.61086
 C770 C 1.16503 0.34390 0.64357
 N771 N 1.14881 0.38083 0.65311
 N772 N 1.12561 0.40262 0.63111
 C773 C 1.11734 0.38830 0.59869
 N774 N 1.13381 0.35147 0.58882
 N775 N 0.62503 1.13941 -0.15565
 C776 C 0.66017 1.15890 -0.14500
 N777 N 0.67204 1.15540 -0.11112
 N778 N 0.64967 1.13253 -0.08894
 C779 C 0.61452 1.11298 -0.09987
 N780 N 0.60257 1.11706 -0.13352
 N781 N 1.14828 0.61917 0.34659
 C782 C 1.16465 0.65606 0.35607
 N783 N 1.15702 0.67043 0.38874
 N784 N 1.13328 0.64880 0.41081
 C785 C 1.11665 0.61202 0.40100
 N786 N 1.12492 0.59754 0.36863
 N787 N 0.32673 0.84469 -0.11015
 C788 C 0.33874 0.84083 -0.14397
 N789 N 0.37417 0.85990 -0.15462
 N790 N 0.39673 0.88218 -0.13258
 C791 C 0.38464 0.88666 -0.09900
 N792 N 0.34922 0.86750 -0.08805
 N793 N 0.84377 0.32844 0.38902
 C794 C 0.83621 0.34273 0.35629
 N795 N 0.85251 0.37968 0.34677
 N796 N 0.87568 0.40144 0.36881
 C797 C 0.88385 0.38707 0.40126
 N798 N 0.86733 0.35020 0.41111
 N799 N 1.15962 0.33163 0.11104
 C800 C 1.16577 0.34545 0.14410
 N801 N 1.14763 0.38139 0.15387
 N802 N 1.12413 0.40264 0.13171
 C803 C 1.11735 0.38870 0.09891
 N804 N 1.13567 0.35283 0.08884
 N805 N 0.62752 0.86301 0.65670
 C806 C 0.66320 0.84445 0.64613
 N807 N 0.67500 0.84808 0.61223
 N808 N 0.65201 0.87012 0.58995
 C809 C 0.61627 0.88866 0.60078
 N810 N 0.60447 0.88456 0.63447
 N811 N 1.16445 0.66592 -0.11285
 C812 C 1.16393 0.65691 -0.14754
 N813 N 1.13918 0.62548 -0.15855
 N814 N 1.11599 0.60409 -0.13619
 C815 C 1.11589 0.61343 -0.10179
 N816 N 1.14061 0.64477 -0.09042
 N817 N 0.67505 1.15073 0.38771
 C818 C 0.66324 1.15432 0.35381
 N819 N 0.62764 1.13548 0.34331
 N820 N 0.60469 1.11378 0.36558
 C821 C 0.61650 1.10976 0.39929
 N822 N 0.65217 1.12854 0.41004
 N823 N 0.85350 0.61903 0.15365
 C824 C 0.83515 0.65486 0.14383
 N825 N 0.84139 0.66881 0.11077
 N826 N 0.86560 0.64783 0.08864
 C827 C 0.88413 0.61206 0.09876
 N828 N 0.87727 0.59799 0.13155
 N829 N 0.32461 1.15098 0.61215
 C830 C 0.33662 1.15483 0.64596
 N831 N 0.37226 1.13616 0.65649
 N832 N 0.39507 1.11432 0.63431
 C833 C 0.38305 1.11000 0.60071
 N834 N 0.34735 1.12864 0.58991
 N835 N 0.84075 0.33234 -0.11137
 C836 C 0.83462 0.34602 -0.14451
 N837 N 0.85297 0.38184 -0.15450
 N838 N 0.87666 0.40310 -0.13248
 C839 C 0.88341 0.38929 -0.09962
 N840 N 0.86488 0.35355 -0.08933
 N841 N 0.32485 0.84767 0.38803
 C842 C 0.33685 0.84429 0.35417
 N843 N 0.37254 0.86307 0.34379
 N844 N 0.39539 0.88458 0.36616
 C845 C 0.38338 0.88842 0.39982
 N846 N 0.34763 0.86967 0.41046
 N847 N 1.11696 1.14569 0.34665
 C848 C 1.15377 1.16303 0.35579
 N849 N 1.16875 1.15664 0.38849
 N850 N 1.14782 1.13304 0.41103
 C851 C 1.11111 1.11546 0.40158
 N852 N 1.09597 1.12251 0.36917
 N853 N 0.66827 0.65717 -0.11120
 C854 C 0.65329 0.66394 -0.14384
 N855 N 0.61610 0.64737 -0.15294
 N856 N 0.59478 0.62447 -0.13046
 C857 C 0.60994 0.61699 -0.09813
 N858 N 0.64699 0.63386 -0.08870
 N859 N 0.83163 1.15642 0.61200
 C860 C 0.84626 1.16248 0.64485
 N861 N 0.88290 1.14494 0.65419
 N862 N 0.90406 1.12194 0.63170
 C863 C 0.88929 1.11527 0.59911
 N864 N 0.85274 1.13301 0.58949
 N865 N 0.38341 0.64626 0.15327
 C866 C 0.34646 0.66327 0.14414
 N867 N 0.33148 0.65680 0.11147
 N868 N 0.35255 0.63342 0.08894
 C869 C 0.38940 0.61615 0.09838
 N870 N 0.40454 0.62329 0.13076
 N871 N 1.12242 0.86263 0.65827
 C872 C 1.15530 0.83940 0.64788
 N873 N 1.16607 0.83968 0.61353
 N874 N 1.14514 0.86290 0.59072
 C875 C 1.11235 0.88610 0.60145
 N876 N 1.10126 0.88526 0.63550
 N877 N 0.61739 0.35434 0.15372
 C878 C 0.65425 0.33723 0.14442
 N879 N 0.66894 0.34355 0.11160
 N880 N 0.64768 0.36685 0.08910
 C881 C 0.61091 0.38419 0.09869
 N882 N 0.59608 0.37723 0.13124
 N883 N 0.83132 0.84306 0.38797
 C884 C 0.84606 0.83711 0.35513
 N885 N 0.88280 0.85462 0.34591
 N886 N 0.90395 0.87747 0.36851
 C887 C 0.88907 0.88404 0.40109
 N888 N 0.85241 0.86634 0.41059
 N889 N 0.38336 0.35351 -0.15353
 C890 C 0.34636 0.33651 -0.14439
 N891 N 0.33135 0.34299 -0.11172
 N892 N 0.35243 0.36639 -0.08920
 C893 C 0.38931 0.38367 -0.09865
 N894 N 0.40449 0.37650 -0.13103
 N895 N 1.15692 0.33021 -0.11194
 C896 C 1.16151 0.34292 -0.14550
 N897 N 1.14288 0.37841 -0.15574
 N898 N 1.12029 0.40037 -0.13349
 C899 C 1.11512 0.38757 -0.10017
 N900 N 1.13385 0.35209 -0.08965
 N901 N 0.62222 0.85618 0.34564
 C902 C 0.65879 0.83878 0.35552
 N903 N 0.67242 0.84479 0.38869
 N904 N 0.65038 0.86789 0.41088
 C905 C 0.61385 0.88543 0.40070
 N906 N 0.60014 0.87885 0.36779
 N907 N 0.85724 0.62168 -0.15504
 C908 C 0.83873 0.65725 -0.14492
 N909 N 0.84377 0.67030 -0.11153
 N910 N 0.86717 0.64865 -0.08929
 C911 C 0.88580 0.61310 -0.09970
 N912 N 0.88016 0.59997 -0.13284
 N913 N 0.32702 1.15428 0.38912
 C914 C 0.34077 1.16048 0.35599
 N915 N 0.37734 1.14310 0.34610
 N916 N 0.39930 1.12023 0.36821
 C917 C 0.38547 1.11344 0.40108
 N918 N 0.34895 1.13097 0.41128
 N919 N 1.15747 0.67012 0.11145
 C920 C 1.16167 0.65733 0.14502
 N921 N 1.14278 0.62187 0.15509
 N922 N 1.12031 0.60003 0.13268
 C923 C 1.11554 0.61290 0.09934
 N924 N 1.13452 0.64835 0.08899
 N925 N 0.67221 1.15454 0.61130
 C926 C 0.65867 1.16068 0.64448
 N927 N 0.62210 1.14331 0.65452
 N928 N 0.59995 1.12050 0.63252
 C929 C 0.61357 1.11378 0.59960
 N930 N 0.65009 1.13130 0.58925
 N931 N 0.84402 0.33031 0.11158
 C932 C 0.83978 0.34279 0.14522
 N933 N 0.85894 0.37803 0.15546
 N934 N 0.88163 0.39995 0.13316
 C935 C 0.88642 0.38739 0.09975
 N936 N 0.86720 0.35214 0.08924
 N937 N 0.32877 0.84133 0.61311
 C938 C 0.33811 0.84136 0.64775
 N939 N 0.37080 0.86467 0.65872
 N940 N 0.39316 0.88689 0.63636
 C941 C 0.38362 0.88733 0.60199
 N942 N 0.35093 0.86417 0.59068
 N943 N 0.33005 1.15825 -0.11059
 C944 C 0.34349 1.16375 -0.14390
 N945 N 0.37935 1.14520 -0.15405
 N946 N 0.40093 1.12189 -0.13203
 C947 C 0.38736 1.11574 -0.09899
 N948 N 0.35157 1.13447 -0.08852
 N949 N 0.85927 0.62442 0.34437
 C950 C 0.84181 0.66055 0.35449
 N951 N 0.84685 0.67316 0.38799
 N952 N 0.86920 0.65055 0.41031
 C953 C 0.88672 0.61442 0.39992
 N954 N 0.88117 0.60177 0.36664
 N955 N 0.62065 1.14572 0.15358
 C956 C 0.65664 1.16416 0.14350
 N957 N 0.67022 1.15854 0.11025
 N958 N 0.64872 1.13476 0.08819
 C959 C 0.61279 1.11613 0.09860
 N960 N 0.59908 1.12240 0.13156
 N961 N 1.14085 0.62649 0.65459
 C962 C 1.15769 0.66294 0.64440
 N963 N 1.15209 0.67560 0.61094
 N964 N 1.12979 0.65269 0.58878
 C965 C 1.11287 0.61623 0.59929
 N966 N 1.11901 0.60357 0.63250
 N967 N 0.62063 0.85469 -0.15384
 C968 C 0.65653 0.83621 -0.14369
 N969 N 0.66996 0.84174 -0.11041
 N970 N 0.64841 0.86548 -0.08836
 C971 C 0.61256 0.88413 -0.09882
 N972 N 0.59901 0.87796 -0.13184
 N973 N 1.14092 0.37570 0.34446
 C974 C 1.15842 0.33962 0.35471
 N975 N 1.15325 0.32704 0.38824
 N976 N 1.13075 0.34963 0.41044
 C977 C 1.11316 0.38570 0.39991
 N978 N 1.11885 0.39833 0.36661
 N979 N 0.38003 0.85433 0.15397
 C980 C 0.34407 0.83588 0.14389
 N981 N 0.33052 0.84149 0.11065
 N982 N 0.35201 0.86531 0.08857
 C983 C 0.38788 0.88396 0.09897
 N984 N 0.40158 0.87769 0.13193
 N985 N 0.84729 0.32672 0.61167
 C986 C 0.84191 0.33936 0.64513
 N987 N 0.85923 0.37555 0.65533
 N988 N 0.88134 0.39823 0.63319
 C989 C 0.88725 0.38555 0.59997
 N990 N 0.86984 0.34938 0.58948
 N991 N 1.17079 1.15466 0.61219
 C992 C 1.15689 1.15968 0.64539
 N993 N 1.12066 1.14151 0.65506
 N994 N 1.09911 1.11892 0.63256
 C995 C 1.11310 1.11333 0.59960
 N996 N 1.14932 1.13161 0.58966
 N997 N 0.67035 0.65506 0.11148
 C998 C 0.65683 0.65980 0.14481
 N999 N 0.62070 0.64156 0.15466
 N1000 N 0.59890 0.61913 0.13222
 C1001 C 0.61252 0.61380 0.09913
 N1002 N 0.64863 0.63217 0.08900
 N1003 N 1.12095 0.85815 0.34493
 C1004 C 1.15706 0.83980 0.35458
 N1005 N 1.17073 0.84437 0.38788
 N1006 N 1.14917 0.86715 0.41054
 C1007 C 1.11306 0.88559 0.40063
 N1008 N 1.09932 0.88047 0.36755
 N1009 N 0.62061 0.35873 -0.15523
 C1010 C 0.65665 0.34040 -0.14537
 N1011 N 0.67011 0.34505 -0.11203
 N1012 N 0.64840 0.36793 -0.08953
 C1013 C 0.61238 0.38636 -0.09966
 N1014 N 0.59883 0.38113 -0.13277
 N1015 N 0.87956 1.14008 0.34427
 C1016 C 0.84359 1.15859 0.35407
 N1017 N 0.83011 1.15407 0.38745
 N1018 N 0.85172 1.13120 0.41004
 C1019 C 0.88769 1.11261 0.39999
 N1020 N 0.90125 1.11766 0.36683
 N1021 N 0.37754 0.64064 -0.15567
 C1022 C 0.34158 0.65908 -0.14570
 N1023 N 0.32831 0.65447 -0.11227
 N1024 N 0.35011 0.63160 -0.08980
 C1025 C 0.38608 0.61311 -0.10002
 N1026 N 0.39942 0.61824 -0.13323
 N1027 N 0.82982 0.84453 0.61234
 C1028 C 0.84355 0.83962 0.64559
 N1029 N 0.87982 0.85766 0.65526
 N1030 N 0.90155 0.88007 0.63271
 C1031 C 0.88772 0.88558 0.59971
 N1032 N 0.85148 0.86741 0.58976
 N1033 N 0.32958 0.34429 0.11159
 C1034 C 0.34335 0.33933 0.14482
 N1035 N 0.37963 0.35736 0.15447
 N1036 N 0.40133 0.37982 0.13194
 C1037 C 0.38745 0.38539 0.09896
 N1038 N 0.35121 0.36722 0.08901
   
