data_POSCAR
  _audit_creation_date              2014-09-24
  _audit_creation_method            'ToBaCCo'
  _symmetry_space_group_name_H-M    'P1'
  _symmetry_Int_Tables_number       1
  _symmetry_cell_setting            triclinic
  loop_
  _symmetry_equiv_pos_as_xyz
 x,y,z
_cell_length_a 24.8651
_cell_length_b 24.8647
_cell_length_c 24.9174
_cell_angle_alpha 90.124100
_cell_angle_beta 90.124300
_cell_angle_gamma 90.000100
loop_
  _atom_site_label
  _atom_site_type_symbol
  _atom_site_fract_x
  _atom_site_fract_y
  _atom_site_fract_z
O1 O 0.44877 1.04472 -0.55135
 O2 O 0.55359 1.04475 -0.44680
 O3 O 0.55349 1.04408 -0.55136
 O4 O 0.44883 1.04413 -0.44684
 O5 O 0.44889 0.95518 -0.44706
 O6 O 0.55342 0.95513 -0.55144
 O7 O 0.55365 0.95582 -0.44689
 O8 O 0.44870 0.95578 -0.55157
 Cu9 Cu 0.50118 1.05339 -0.49906
 Cu10 Cu 0.50117 0.94650 -0.49925
 C11 C 0.43105 1.00029 -0.56913
 C12 C 0.57132 1.00034 -0.42917
 C13 C 0.57107 0.99955 -0.56907
 C14 C 0.43119 0.99962 -0.42933
 O15 O -0.55462 1.44730 -0.04410
 O16 O -0.44979 1.55211 -0.04444
 O17 O -0.44988 1.44740 -0.04486
 O18 O -0.55454 1.55209 -0.04495
 O19 O -0.55432 1.55254 0.04379
 O20 O -0.44951 1.44770 0.04390
 O21 O -0.44957 1.55241 0.04432
 O22 O -0.55426 1.44775 0.04464
 Cu23 Cu -0.50226 1.49968 -0.05354
 Cu24 Cu -0.50191 1.50013 0.05311
 C25 C -0.57211 1.42981 0.00037
 C26 C -0.43197 1.56991 -0.00007
 C27 C -0.43199 1.42989 -0.00051
 C28 C -0.57209 1.57003 -0.00064
 O29 O 0.04493 0.44854 0.44873
 O30 O 0.04491 0.55343 0.55320
 O31 O 0.04425 0.44867 0.55324
 O32 O 0.04432 0.55326 0.44864
 O33 O -0.04463 0.55321 0.44848
 O34 O -0.04469 0.44876 0.55294
 O35 O -0.04403 0.55352 0.55304
 O36 O -0.04401 0.44849 0.44843
 Cu37 Cu 0.05357 0.50098 0.50098
 Cu38 Cu -0.05331 0.50101 0.50071
 C39 C 0.00051 0.43081 0.43092
 C40 C 0.00048 0.57119 0.57078
 C41 C -0.00028 0.43106 0.57072
 C42 C -0.00019 0.57084 0.43088
 O43 O -0.13844 1.00164 -0.07307
 O44 O 0.13852 0.99822 -0.07266
 O45 O -0.00177 1.07275 -0.13824
 O46 O 0.00177 0.92717 -0.13858
 O47 O 0.00181 0.86145 -0.07320
 O48 O -0.00175 1.13841 -0.07253
 O49 O 0.07279 0.99822 -0.13831
 O50 O -0.07278 1.00168 -0.13852
 Zr51 Zr 0.00003 0.99994 -0.09472
 O52 O 0.04888 0.95112 -0.04898
 O53 O -0.04877 1.04873 -0.04890
 C54 C -0.12236 1.00244 -0.12253
 C55 C 0.12239 0.99745 -0.12217
 C56 C -0.00256 1.12233 -0.12205
 C57 C 0.00257 0.87757 -0.12264
 H58 H 0.07153 1.07146 -0.07130
 O59 O 0.04860 1.04849 -0.04848
 H60 H -0.07145 0.92841 -0.07185
 O61 O -0.04849 0.95136 -0.04887
 O62 O 0.13863 1.00167 0.07262
 O63 O -0.13833 0.99813 0.07221
 O64 O 0.07283 1.13842 0.00196
 O65 O 0.07289 0.86144 -0.00221
 O66 O -0.07268 0.86142 0.00111
 O67 O -0.07275 1.13838 -0.00177
 O68 O 0.00194 1.07267 0.13812
 O69 O -0.00156 0.92712 0.13778
 O70 O 0.00186 1.13838 0.07274
 O71 O -0.00159 0.86142 0.07209
 O72 O 0.13855 1.07275 0.00190
 O73 O -0.13841 1.07266 -0.00203
 O74 O -0.13838 0.92710 0.00118
 O75 O 0.13858 0.92714 -0.00196
 O76 O 0.07297 1.00165 0.13806
 O77 O -0.07258 0.99812 0.13784
 Zr78 Zr 0.09480 0.99994 -0.00009
 Zr79 Zr -0.09461 0.99989 -0.00037
 Zr80 Zr 0.00006 1.09462 0.00000
 Zr81 Zr 0.00010 0.90521 -0.00045
 Zr82 Zr 0.00016 0.99990 0.09426
 O83 O -0.04868 0.95108 0.04829
 O84 O 0.04893 1.04874 0.04867
 C85 C 0.12255 1.00244 0.12207
 C86 C -0.12218 0.99733 0.12172
 C87 C 0.12243 1.12234 0.00278
 C88 C 0.12248 0.87754 -0.00290
 C89 C -0.12227 0.87752 0.00190
 C90 C -0.12233 1.12225 -0.00269
 C91 C 0.00270 1.12226 0.12219
 C92 C -0.00235 0.87753 0.12161
 H93 H -0.07139 1.07139 0.07119
 O94 O -0.04844 1.04845 0.04826
 H95 H 0.07166 0.92840 0.07105
 O96 O 0.04869 0.95136 0.04817
 C97 C 0.31522 1.00143 0.31497
 N98 N 0.29568 1.04876 0.29626
 N99 N 0.25782 1.04933 0.25831
 C100 C 0.23837 1.00257 0.23794
 N101 N 0.25792 0.95525 0.25665
 N102 N 0.29577 0.95468 0.29459
 C103 C 0.35599 1.00083 0.35580
 C104 C 0.39025 1.00045 0.39009
 C105 C 0.19760 1.00308 0.19712
 C106 C 0.16333 1.00308 0.16283
 C107 C -0.31385 0.99831 0.31477
 N108 N -0.28202 0.95452 0.30801
 N109 N -0.24446 0.95392 0.26993
 C110 C -0.23763 0.99708 0.23746
 N111 N -0.26947 1.04086 0.24422
 N112 N -0.30702 1.04146 0.28230
 C113 C -0.35431 0.99894 0.35574
 C114 C -0.38835 0.99935 0.39011
 C115 C -0.19704 0.99662 0.19663
 C116 C -0.16288 0.99665 0.16238
 C117 C -0.31501 1.00150 -0.31547
 N118 N -0.28253 0.95828 -0.30830
 N119 N -0.24465 0.95885 -0.27038
 C120 C -0.23808 1.00266 -0.23851
 N121 N -0.27055 1.04589 -0.24568
 N122 N -0.30844 1.04532 -0.28360
 C123 C -0.35579 1.00089 -0.35629
 C124 C -0.39007 1.00051 -0.39058
 C125 C -0.19737 1.00313 -0.19762
 C126 C -0.16314 1.00311 -0.16330
 C127 C 0.31528 0.99848 -0.31401
 N128 N 0.29490 1.04522 -0.29465
 N129 N 0.25696 1.04466 -0.25696
 C130 C 0.23825 0.99734 -0.23750
 N131 N 0.25862 0.95058 -0.25686
 N132 N 0.29656 0.95115 -0.29456
 C133 C 0.35611 0.99908 -0.35460
 C134 C 0.39041 0.99946 -0.38872
 C135 C 0.19742 0.99682 -0.19691
 C136 C 0.16314 0.99681 -0.16278
 C137 C 0.31459 1.31575 0.00196
 N138 N 0.32856 1.26302 0.00231
 N139 N 0.29083 1.22496 0.00305
 C140 C 0.23799 1.23849 0.00353
 N141 N 0.22402 1.29122 0.00320
 N142 N 0.26175 1.32928 0.00245
 C143 C 0.35522 1.35672 0.00117
 C144 C 0.38939 1.39112 0.00066
 C145 C 0.19735 1.19753 0.00380
 C146 C 0.16316 1.16315 0.00362
 C147 C 0.31464 0.68413 -0.00202
 N148 N 0.26180 0.67061 -0.00250
 N149 N 0.22407 0.70868 -0.00322
 C150 C 0.23804 0.76140 -0.00354
 N151 N 0.29089 0.77492 -0.00307
 N152 N 0.32862 0.73686 -0.00235
 C153 C 0.35527 0.64315 -0.00130
 C154 C 0.38942 0.60874 -0.00085
 C155 C 0.19741 0.80238 -0.00382
 C156 C 0.16322 0.83674 -0.00367
 C157 C -0.31566 0.68534 0.00096
 N158 N -0.26637 0.67504 -0.01988
 N159 N -0.22827 0.71273 -0.01923
 C160 C -0.23829 0.76184 0.00232
 N161 N -0.28758 0.77215 0.02317
 N162 N -0.32568 0.73445 0.02252
 C163 C -0.35666 0.64473 0.00034
 C164 C -0.39107 0.61059 -0.00000
 C165 C -0.19739 0.80254 0.00264
 C166 C -0.16306 0.83676 0.00255
 C167 C -0.31574 1.31441 -0.00178
 N168 N -0.26301 1.32838 -0.00212
 N169 N -0.22495 1.29064 -0.00282
 C170 C -0.23848 1.23780 -0.00327
 N171 N -0.29120 1.22383 -0.00294
 N172 N -0.32926 1.26157 -0.00224
 C173 C -0.35671 1.35504 -0.00108
 C174 C -0.39111 1.38920 -0.00067
 C175 C -0.19751 1.19717 -0.00355
 C176 C -0.16314 1.16298 -0.00342
 C177 C 0.00179 1.31487 0.31513
 N178 N -0.03096 1.27143 0.31884
 N179 N -0.03032 1.23352 0.28096
 C180 C 0.00310 1.23789 0.23825
 N181 N 0.03586 1.28133 0.23454
 N182 N 0.03523 1.31924 0.27242
 C183 C 0.00112 1.35569 0.35592
 C184 C 0.00070 1.38998 0.39018
 C185 C 0.00349 1.19721 0.19733
 C186 C 0.00341 1.16300 0.16299
 C187 C -0.00161 1.31527 -0.31384
 N188 N -0.03515 1.27246 -0.31830
 N189 N -0.03580 1.23458 -0.28055
 C190 C -0.00295 1.23839 -0.23718
 N191 N 0.03058 1.28120 -0.23272
 N192 N 0.03123 1.31908 -0.27047
 C193 C -0.00093 1.35605 -0.35448
 C194 C -0.00049 1.39031 -0.38863
 C195 C -0.00335 1.19747 -0.19668
 C196 C -0.00328 1.16313 -0.16262
 C197 C 0.00165 0.68494 -0.31560
 N198 N 0.04064 0.68525 -0.27745
 N199 N 0.04123 0.72317 -0.23955
 C200 C 0.00286 0.76192 -0.23870
 N201 N -0.03612 0.76161 -0.27685
 N202 N -0.03672 0.72370 -0.31474
 C203 C 0.00102 0.64413 -0.35639
 C204 C 0.00064 0.60983 -0.39066
 C205 C 0.00329 0.80261 -0.19779
 C206 C 0.00324 0.83683 -0.16344
 C207 C -0.00139 0.68584 0.31465
 N208 N 0.03689 0.68629 0.27596
 N209 N 0.03627 0.72383 0.23787
 C210 C -0.00268 0.76202 0.23729
 N211 N -0.04097 0.76156 0.27596
 N212 N -0.04035 0.72402 0.31406
 C213 C -0.00075 0.64540 0.35563
 C214 C -0.00035 0.61139 0.39003
 C215 C -0.00309 0.80262 0.19647
 C216 C -0.00303 0.83679 0.16224
   
