data_POSCAR
  _audit_creation_date              2014-09-24
  _audit_creation_method            'ToBaCCo'
  _symmetry_space_group_name_H-M    'P1'
  _symmetry_Int_Tables_number       1
  _symmetry_cell_setting            triclinic
  loop_
  _symmetry_equiv_pos_as_xyz
 x,y,z
_cell_length_a 56.1466
_cell_length_b 56.1839
_cell_length_c 56.2598
_cell_angle_alpha 90.006700
_cell_angle_beta 90.010200
_cell_angle_gamma 90.011200
loop_
  _atom_site_label
  _atom_site_type_symbol
  _atom_site_fract_x
  _atom_site_fract_y
  _atom_site_fract_z
O1 O 0.32195 0.35475 0.02301
 O2 O 0.35443 0.32228 -0.02333
 O3 O 0.32184 0.35510 -0.02301
 O4 O 0.35459 0.32201 0.02271
 O5 O 0.32691 0.29416 0.02270
 O6 O 0.29382 0.32764 -0.02325
 O7 O 0.32673 0.29443 -0.02355
 O8 O 0.29391 0.32724 0.02298
 Cu9 Cu 0.34097 0.34128 -0.00015
 Cu10 Cu 0.30753 0.30807 -0.00030
 C11 C 0.30228 0.34676 0.03080
 C12 C 0.34635 0.30270 -0.03123
 C13 C 0.30209 0.34731 -0.03084
 C14 C 0.34656 0.30235 0.03042
 O15 O 0.67823 0.64530 0.02286
 O16 O 0.64573 0.67773 -0.02351
 O17 O 0.67828 0.64486 -0.02316
 O18 O 0.64563 0.67808 0.02253
 O19 O 0.67335 0.70590 0.02245
 O20 O 0.70633 0.67229 -0.02348
 O21 O 0.67346 0.70554 -0.02379
 O22 O 0.70630 0.67276 0.02275
 Cu23 Cu 0.65920 0.65875 -0.00031
 Cu24 Cu 0.69268 0.69191 -0.00054
 C25 C 0.69791 0.65327 0.03061
 C26 C 0.65382 0.69727 -0.03144
 C27 C 0.69802 0.65261 -0.03103
 C28 C 0.65370 0.69775 0.03020
 O29 O 0.67817 0.35470 0.97708
 O30 O 0.64565 0.32225 1.02340
 O31 O 0.67822 0.35509 1.02309
 O32 O 0.64555 0.32195 0.97736
 O33 O 0.67324 0.29411 0.97742
 O34 O 0.70625 0.32766 1.02338
 O35 O 0.67336 0.29442 1.02367
 O36 O 0.70622 0.32722 0.97715
 Cu37 Cu 0.65913 0.34124 1.00022
 Cu38 Cu 0.69258 0.30806 1.00043
 C39 C 0.69785 0.34672 0.96931
 C40 C 0.65373 0.30269 1.03133
 C41 C 0.69796 0.34733 1.03095
 C42 C 0.65360 0.30228 0.96967
 O43 O 0.32200 0.64510 0.97719
 O44 O 0.35458 0.67766 1.02343
 O45 O 0.32201 0.64480 1.02321
 O46 O 0.35463 0.67787 0.97739
 O47 O 0.32693 0.70570 0.97743
 O48 O 0.29397 0.67223 1.02348
 O49 O 0.32687 0.70547 1.02368
 O50 O 0.29395 0.67258 0.97724
 Cu51 Cu 0.34107 0.65862 1.00030
 Cu52 Cu 0.30762 0.69179 1.00048
 C53 C 0.30231 0.65306 0.96943
 C54 C 0.34652 0.69723 1.03132
 C55 C 0.30227 0.65257 1.03107
 C56 C 0.34657 0.69752 0.96968
 O57 O -0.02329 0.35445 0.32215
 O58 O 0.02319 0.32210 0.35463
 O59 O 0.02284 0.35470 0.32191
 O60 O -0.02293 0.32191 0.35494
 O61 O -0.02311 0.29389 0.32754
 O62 O 0.02291 0.32702 0.29411
 O63 O 0.02322 0.29406 0.32719
 O64 O -0.02344 0.32676 0.29436
 Cu65 Cu -0.00005 0.34106 0.34114
 Cu66 Cu -0.00011 0.30762 0.30801
 C67 C -0.03118 0.34635 0.30260
 C68 C 0.03102 0.30246 0.34668
 C69 C 0.03059 0.34667 0.30228
 C70 C -0.03074 0.30216 0.34717
 O71 O 0.02331 0.67766 0.64523
 O72 O -0.02321 0.64535 0.67768
 O73 O -0.02280 0.67785 0.64484
 O74 O 0.02293 0.64510 0.67799
 O75 O 0.02296 0.67282 0.70575
 O76 O -0.02300 0.70589 0.67221
 O77 O -0.02338 0.67307 0.70544
 O78 O 0.02332 0.70573 0.67264
 Cu79 Cu 0.00006 0.65872 0.65870
 Cu80 Cu -0.00003 0.69219 0.69180
 C81 C 0.03114 0.69732 0.65317
 C82 C -0.03112 0.65347 0.69720
 C83 C -0.03061 0.69761 0.65258
 C84 C 0.03065 0.65315 0.69762
 O85 O 1.02324 0.64544 0.32224
 O86 O 0.97680 0.67780 0.35476
 O87 O 0.97710 0.64524 0.32199
 O88 O 1.02291 0.67793 0.35509
 O89 O 1.02312 0.70598 0.32774
 O90 O 0.97708 0.67296 0.29423
 O91 O 0.97679 0.70587 0.32736
 O92 O 1.02342 0.67317 0.29450
 Cu93 Cu 1.00001 0.65883 0.34125
 Cu94 Cu 1.00012 0.69231 0.30817
 C95 C 1.03114 0.65356 0.30272
 C96 C 0.96898 0.69746 0.34683
 C97 C 0.96937 0.65330 0.30237
 C98 C 1.03074 0.69768 0.34736
 O99 O 1.02312 0.35459 0.67753
 O100 O 0.97671 0.32224 0.64491
 O101 O 0.97698 0.35479 0.67771
 O102 O 1.02282 0.32211 0.64466
 O103 O 1.02297 0.29404 0.67200
 O104 O 0.97691 0.32705 0.70545
 O105 O 0.97665 0.29416 0.67231
 O106 O 1.02326 0.32684 0.70526
 Cu107 Cu 0.99991 0.34120 0.65847
 Cu108 Cu 0.99996 0.30771 0.69154
 C109 C 1.03100 0.34646 0.69707
 C110 C 0.96887 0.30257 0.65282
 C111 C 0.96922 0.34672 0.69731
 C112 C 1.03062 0.30234 0.65240
 O113 O 0.35434 0.02330 0.32186
 O114 O 0.32182 -0.02309 0.35426
 O115 O 0.35451 -0.02279 0.32161
 O116 O 0.32170 0.02301 0.35458
 O117 O 0.29372 0.02321 0.32706
 O118 O 0.32687 -0.02283 0.29375
 O119 O 0.29382 -0.02310 0.32675
 O120 O 0.32671 0.02347 0.29399
 Cu121 Cu 0.34086 0.00010 0.34083
 Cu122 Cu 0.30747 0.00020 0.30759
 C123 C 0.34630 0.03119 0.30230
 C124 C 0.30217 -0.03090 0.34626
 C125 C 0.34652 -0.03052 0.30196
 C126 C 0.30202 0.03082 0.34667
 O127 O 0.67826 -0.02297 0.64572
 O128 O 0.64568 0.02335 0.67817
 O129 O 0.67830 0.02313 0.64542
 O130 O 0.64557 -0.02275 0.67837
 O131 O 0.67322 -0.02275 0.70622
 O132 O 0.70630 0.02335 0.67292
 O133 O 0.67334 0.02355 0.70602
 O134 O 0.70626 -0.02296 0.67322
 Cu135 Cu 0.65919 0.00018 0.65917
 Cu136 Cu 0.69259 0.00031 0.69239
 C137 C 0.69792 -0.03077 0.65372
 C138 C 0.65373 0.03123 0.69774
 C139 C 0.69798 0.03096 0.65332
 C140 C 0.65358 -0.03048 0.69801
 O141 O 0.35419 0.97671 0.67835
 O142 O 0.32157 1.02293 0.64580
 O143 O 0.35425 1.02281 0.67846
 O144 O 0.32158 0.97683 0.64560
 O145 O 0.29357 0.97664 0.67308
 O146 O 0.32661 1.02284 0.70631
 O147 O 0.29357 1.02295 0.67330
 O148 O 0.32653 0.97654 0.70619
 Cu149 Cu 0.34066 0.99982 0.65930
 Cu150 Cu 0.30726 0.99973 0.69252
 C151 C 0.34615 0.96885 0.69793
 C152 C 0.30191 1.03072 0.65378
 C153 C 0.34624 1.03057 0.69808
 C154 C 0.30190 0.96900 0.65350
 O155 O 0.64559 0.97697 0.32207
 O156 O 0.67806 1.02297 0.35509
 O157 O 0.64548 1.02307 0.32229
 O158 O 0.67811 0.97689 0.35492
 O159 O 0.70620 0.97696 0.32753
 O160 O 0.67323 1.02336 0.29455
 O161 O 0.70613 1.02326 0.32773
 O162 O 0.67334 0.97705 0.29432
 Cu163 Cu 0.65904 0.99996 0.34132
 Cu164 Cu 0.69254 1.00018 0.30825
 C165 C 0.65370 0.96926 0.30246
 C166 C 0.69779 1.03087 0.34733
 C167 C 0.65356 1.03099 0.30275
 C168 C 0.69783 0.96916 0.34702
 C169 C 0.86525 0.79362 0.47888
 C170 C 0.87392 0.78504 0.50050
 C171 C 0.86538 0.79371 0.52213
 C172 C 0.84761 0.81150 0.52239
 C173 C 0.83865 0.82040 0.50051
 C174 C 0.84751 0.81143 0.47864
 C175 C 0.83840 0.82049 0.45719
 C176 C 0.82089 0.83805 0.45719
 C177 C 0.81186 0.84717 0.47864
 C178 C 0.82081 0.83827 0.50051
 C179 C 0.83858 0.82062 0.54384
 C180 C 0.82104 0.83816 0.54384
 C181 C 0.81193 0.84722 0.52239
 C182 C 0.79415 0.86499 0.52214
 C183 C 0.78551 0.87360 0.50052
 C184 C 0.79410 0.86497 0.47889
 H185 H 0.84476 0.81405 0.44020
 H186 H 0.81446 0.84444 0.44020
 H187 H 0.84501 0.81423 0.56082
 H188 H 0.81466 0.84459 0.56083
 H189 H 0.88756 0.77134 0.50049
 H190 H 0.77184 0.88726 0.50053
 C191 C 0.20568 0.13473 0.47877
 C192 C 0.21425 0.12610 0.50040
 C193 C 0.20565 0.13474 0.52202
 C194 C 0.18790 0.15255 0.52226
 C195 C 0.17903 0.16150 0.50038
 C196 C 0.18795 0.15256 0.47851
 C197 C 0.17894 0.16169 0.45706
 C198 C 0.16147 0.17930 0.45705
 C199 C 0.15239 0.18839 0.47850
 C200 C 0.16123 0.17942 0.50037
 C201 C 0.17882 0.16164 0.54371
 C202 C 0.16132 0.17922 0.54370
 C203 C 0.15230 0.18835 0.52224
 C204 C 0.13458 0.20618 0.52198
 C205 C 0.12605 0.21486 0.50035
 C206 C 0.13469 0.20624 0.47873
 H207 H 0.18534 0.15528 0.44007
 H208 H 0.15512 0.18574 0.44006
 H209 H 0.18518 0.15521 0.56070
 H210 H 0.15491 0.18563 0.56068
 H211 H 0.22790 0.11240 0.50042
 H212 H 0.11244 0.22858 0.50033
 C213 C 0.13474 0.79365 0.47789
 C214 C 0.12620 0.78496 0.49952
 C215 C 0.13484 0.79355 0.52114
 C216 C 0.15256 0.81140 0.52140
 C217 C 0.16141 0.82038 0.49954
 C218 C 0.15249 0.81148 0.47766
 C219 C 0.16153 0.82061 0.45622
 C220 C 0.17904 0.83818 0.45624
 C221 C 0.18813 0.84725 0.47770
 C222 C 0.17923 0.83829 0.49956
 C223 C 0.16163 0.82048 0.54287
 C224 C 0.17911 0.83808 0.54288
 C225 C 0.18815 0.84721 0.52144
 C226 C 0.20588 0.86504 0.52121
 C227 C 0.21448 0.87368 0.49959
 C228 C 0.20589 0.86504 0.47796
 H229 H 0.15512 0.81421 0.43922
 H230 H 0.18543 0.84461 0.43925
 H231 H 0.15526 0.81402 0.55985
 H232 H 0.18551 0.84448 0.55988
 H233 H 0.11258 0.77124 0.49951
 H234 H 0.22814 0.88737 0.49960
 C235 C 0.79400 0.13469 0.47772
 C236 C 0.78543 0.12610 0.49937
 C237 C 0.79406 0.13476 0.52097
 C238 C 0.81181 0.15258 0.52116
 C239 C 0.82070 0.16146 0.49926
 C240 C 0.81178 0.15248 0.47741
 C241 C 0.82084 0.16151 0.45593
 C242 C 0.83837 0.17907 0.45588
 C243 C 0.84744 0.18823 0.47730
 C244 C 0.83854 0.17936 0.49920
 C245 C 0.82088 0.16174 0.54258
 C246 C 0.83837 0.17933 0.54253
 C247 C 0.84743 0.18837 0.52105
 C248 C 0.86515 0.20620 0.52075
 C249 C 0.87377 0.21475 0.49910
 C250 C 0.86520 0.20604 0.47749
 H251 H 0.81443 0.15505 0.43897
 H252 H 0.84476 0.18543 0.43887
 H253 H 0.81450 0.15537 0.55959
 H254 H 0.84477 0.18581 0.55950
 H255 H 0.77176 0.11242 0.49941
 H256 H 0.88741 0.22846 0.49907
 C257 C 0.52163 0.79403 0.86542
 C258 C 0.49996 0.78546 0.87407
 C259 C 0.47829 0.79415 0.86556
 C260 C 0.47805 0.81194 0.84783
 C261 C 0.49997 0.82084 0.83890
 C262 C 0.52188 0.81186 0.84774
 C263 C 0.54338 0.82092 0.83866
 C264 C 0.54339 0.83851 0.82120
 C265 C 0.52190 0.84763 0.81218
 C266 C 0.49998 0.83872 0.82109
 C267 C 0.45656 0.82106 0.83879
 C268 C 0.45657 0.83859 0.82128
 C269 C 0.47807 0.84765 0.81220
 C270 C 0.47832 0.86540 0.79444
 C271 C 0.49999 0.87403 0.78585
 C272 C 0.52166 0.86543 0.79446
 H273 H 0.56040 0.81448 0.84502
 H274 H 0.56041 0.84490 0.81481
 H275 H 0.43954 0.81467 0.84521
 H276 H 0.43955 0.84501 0.81491
 H277 H 0.49997 0.77175 0.88768
 H278 H 0.49998 0.88769 0.77220
 C279 C 0.47837 0.20595 0.13469
 C280 C 0.50004 0.21462 0.12614
 C281 C 0.52171 0.20612 0.13486
 C282 C 0.52197 0.18839 0.15265
 C283 C 0.50005 0.17943 0.16152
 C284 C 0.47813 0.18825 0.15251
 C285 C 0.45664 0.17915 0.16156
 C286 C 0.45665 0.16171 0.17916
 C287 C 0.47815 0.15273 0.18832
 C288 C 0.50006 0.16165 0.17942
 C289 C 0.54346 0.17941 0.16181
 C290 C 0.54347 0.16193 0.17937
 C291 C 0.52198 0.15282 0.18841
 C292 C 0.52174 0.13512 0.20624
 C293 C 0.50007 0.12652 0.21484
 C294 C 0.47840 0.13506 0.20617
 H295 H 0.43962 0.18548 0.15509
 H296 H 0.43963 0.15529 0.18554
 H297 H 0.56049 0.18584 0.15544
 H298 H 0.56050 0.15559 0.18583
 H299 H 0.50005 0.22825 0.11246
 H300 H 0.50006 0.11292 0.22856
 C301 C 0.52160 0.13471 0.79428
 C302 C 0.49992 0.12610 0.78569
 C303 C 0.47826 0.13469 0.79434
 C304 C 0.47805 0.15246 0.81210
 C305 C 0.49999 0.16134 0.82102
 C306 C 0.52188 0.15242 0.81208
 C307 C 0.54340 0.16145 0.82117
 C308 C 0.54343 0.17893 0.83873
 C309 C 0.52196 0.18803 0.84780
 C310 C 0.50002 0.17917 0.83887
 C311 C 0.45657 0.16156 0.82117
 C312 C 0.45661 0.17911 0.83867
 C313 C 0.47812 0.18814 0.84775
 C314 C 0.47841 0.20593 0.86548
 C315 C 0.50009 0.21447 0.87414
 C316 C 0.52174 0.20579 0.86558
 H317 H 0.56041 0.15503 0.81476
 H318 H 0.56047 0.18529 0.84514
 H319 H 0.43954 0.15519 0.81477
 H320 H 0.43960 0.18554 0.84506
 H321 H 0.49990 0.11247 0.77200
 H322 H 0.50011 0.22815 0.88778
 C323 C 0.52193 0.86587 0.20524
 C324 C 0.50026 0.87446 0.21384
 C325 C 0.47859 0.86581 0.20526
 C326 C 0.47836 0.84801 0.18753
 C327 C 0.50029 0.83914 0.17860
 C328 C 0.52220 0.84811 0.18748
 C329 C 0.54370 0.83909 0.17838
 C330 C 0.54372 0.82154 0.16088
 C331 C 0.52224 0.81239 0.15186
 C332 C 0.50031 0.82125 0.16080
 C333 C 0.45688 0.83885 0.17852
 C334 C 0.45690 0.82126 0.16106
 C335 C 0.47840 0.81223 0.15198
 C336 C 0.47867 0.79439 0.13430
 C337 C 0.50034 0.78585 0.12564
 C338 C 0.52200 0.79458 0.13414
 H339 H 0.56072 0.84554 0.18475
 H340 H 0.56075 0.81519 0.15446
 H341 H 0.43985 0.84521 0.18493
 H342 H 0.43988 0.81478 0.15472
 H343 H 0.50025 0.88812 0.22750
 H344 H 0.50035 0.77213 0.11204
 C345 C 0.79407 0.47855 0.86528
 C346 C 0.78547 0.50021 0.87388
 C347 C 0.79406 0.52186 0.86525
 C348 C 0.81180 0.52209 0.84745
 C349 C 0.82072 0.50018 0.83856
 C350 C 0.81183 0.47829 0.84751
 C351 C 0.82091 0.45680 0.83846
 C352 C 0.83842 0.45678 0.82092
 C353 C 0.84746 0.47825 0.81179
 C354 C 0.83853 0.50016 0.82067
 C355 C 0.82083 0.54356 0.83832
 C356 C 0.83831 0.54354 0.82074
 C357 C 0.84738 0.52205 0.81169
 C358 C 0.86509 0.52179 0.79387
 C359 C 0.87373 0.50013 0.78530
 C360 C 0.86519 0.47848 0.79399
 H361 H 0.81453 0.43979 0.84489
 H362 H 0.84483 0.43976 0.81454
 H363 H 0.81443 0.56058 0.84471
 H364 H 0.84467 0.56055 0.81429
 H365 H 0.77182 0.50021 0.88755
 H366 H 0.88735 0.50013 0.77159
 C367 C 0.20605 0.47864 0.13475
 C368 C 0.21468 0.50030 0.12617
 C369 C 0.20608 0.52195 0.13479
 C370 C 0.18830 0.52219 0.15254
 C371 C 0.17934 0.50027 0.16141
 C372 C 0.18824 0.47838 0.15247
 C373 C 0.17912 0.45689 0.16148
 C374 C 0.16156 0.45687 0.17897
 C375 C 0.15251 0.47834 0.18809
 C376 C 0.16148 0.50025 0.17924
 C377 C 0.17925 0.54365 0.16166
 C378 C 0.16173 0.54363 0.17919
 C379 C 0.15262 0.52214 0.18821
 C380 C 0.13486 0.52187 0.20599
 C381 C 0.12618 0.50022 0.21452
 C382 C 0.13473 0.47856 0.20584
 H383 H 0.18551 0.43988 0.15505
 H384 H 0.15512 0.43985 0.18532
 H385 H 0.18568 0.56067 0.15530
 H386 H 0.15536 0.56064 0.18564
 H387 H 0.22837 0.50030 0.11254
 H388 H 0.11253 0.50021 0.22819
 C389 C 0.79412 0.52138 0.13457
 C390 C 0.78550 0.49973 0.12597
 C391 C 0.79409 0.47808 0.13460
 C392 C 0.81185 0.47784 0.15238
 C393 C 0.82079 0.49976 0.16126
 C394 C 0.81190 0.52165 0.15232
 C395 C 0.82101 0.54314 0.16135
 C396 C 0.83854 0.54316 0.17887
 C397 C 0.84758 0.52169 0.18800
 C398 C 0.83863 0.49978 0.17913
 C399 C 0.82088 0.45637 0.16151
 C400 C 0.83838 0.45639 0.17907
 C401 C 0.84748 0.47788 0.18811
 C402 C 0.86521 0.47815 0.20591
 C403 C 0.87388 0.49981 0.21447
 C404 C 0.86534 0.52146 0.20578
 H405 H 0.81463 0.56015 0.15492
 H406 H 0.84497 0.56018 0.18524
 H407 H 0.81446 0.43936 0.15513
 H408 H 0.84474 0.43939 0.18552
 H409 H 0.77183 0.49972 0.11232
 H410 H 0.88751 0.49982 0.22816
 C411 C 0.13461 0.52132 0.79430
 C412 C 0.12605 0.49968 0.78560
 C413 C 0.13470 0.47801 0.79414
 C414 C 0.15243 0.47773 0.81195
 C415 C 0.16129 0.49962 0.82095
 C416 C 0.15236 0.52154 0.81209
 C417 C 0.16142 0.54300 0.82123
 C418 C 0.17895 0.54297 0.83875
 C419 C 0.18804 0.52147 0.84777
 C420 C 0.17913 0.49958 0.83881
 C421 C 0.16151 0.45623 0.82098
 C422 C 0.17901 0.45620 0.83855
 C423 C 0.18806 0.47766 0.84769
 C424 C 0.20581 0.47788 0.86547
 C425 C 0.21443 0.49953 0.87411
 C426 C 0.20583 0.52120 0.86552
 H427 H 0.15500 0.56002 0.81487
 H428 H 0.18535 0.55997 0.84519
 H429 H 0.15513 0.43923 0.81452
 H430 H 0.18541 0.43918 0.84491
 H431 H 0.11242 0.49970 0.77191
 H432 H 0.22810 0.49952 0.88776
 C433 C 0.28586 0.39589 0.07374
 C434 C 0.26229 0.39008 0.07930
 C435 C 0.25214 0.36927 0.07006
 C436 C 0.26537 0.35464 0.05484
 C437 C 0.28886 0.36079 0.04859
 C438 C 0.29906 0.38139 0.05852
 C439 C 0.24832 0.40653 0.09307
 C440 C 0.23736 0.42147 0.10386
 C441 C 0.22546 0.44022 0.11557
 C442 C 0.21614 0.45721 0.12476
 H443 H 0.29386 0.41200 0.08072
 H444 H 0.23385 0.36467 0.07415
 H445 H 0.25701 0.33893 0.04744
 H446 H 0.31710 0.38661 0.05414
 C447 C 0.74809 0.63074 0.06983
 C448 C 0.73792 0.60997 0.07912
 C449 C 0.71432 0.60419 0.07361
 C450 C 0.70112 0.61869 0.05839
 C451 C 0.71134 0.63925 0.04840
 C452 C 0.73485 0.64537 0.05461
 C453 C 0.75188 0.59352 0.09289
 C454 C 0.76284 0.57857 0.10367
 C455 C 0.77473 0.55981 0.11538
 C456 C 0.78404 0.54282 0.12458
 H457 H 0.76639 0.63531 0.07388
 H458 H 0.70630 0.58811 0.08062
 H459 H 0.68306 0.61350 0.05404
 H460 H 0.74323 0.66105 0.04717
 C461 C 0.74802 0.36922 0.93007
 C462 C 0.73786 0.39001 0.92080
 C463 C 0.71429 0.39582 0.92634
 C464 C 0.70108 0.38133 0.94157
 C465 C 0.71128 0.36074 0.95153
 C466 C 0.73477 0.35460 0.94530
 C467 C 0.75183 0.40645 0.90701
 C468 C 0.76279 0.42139 0.89621
 C469 C 0.77468 0.44013 0.88448
 C470 C 0.78399 0.45711 0.87528
 H471 H 0.76630 0.36463 0.92599
 H472 H 0.70628 0.41191 0.91935
 H473 H 0.68304 0.38654 0.94594
 H474 H 0.74313 0.33890 0.95271
 C475 C 0.28576 0.60385 0.92660
 C476 C 0.26221 0.60969 0.92103
 C477 C 0.25210 0.63052 0.93023
 C478 C 0.26537 0.64517 0.94543
 C479 C 0.28885 0.63900 0.95169
 C480 C 0.29900 0.61836 0.94180
 C481 C 0.24820 0.59325 0.90726
 C482 C 0.23722 0.57832 0.89646
 C483 C 0.22528 0.55960 0.88473
 C484 C 0.21594 0.54262 0.87552
 H485 H 0.29374 0.58772 0.91966
 H486 H 0.23382 0.63515 0.92613
 H487 H 0.25704 0.66091 0.95279
 H488 H 0.31703 0.61312 0.94619
 C489 C 0.07031 0.25237 0.36930
 C490 C 0.07953 0.26255 0.39008
 C491 C 0.07398 0.28611 0.39584
 C492 C 0.05876 0.29929 0.38130
 C493 C 0.04883 0.28907 0.36073
 C494 C 0.05510 0.26559 0.35464
 C495 C 0.09327 0.24859 0.40657
 C496 C 0.10401 0.23763 0.42155
 C497 C 0.11565 0.22573 0.44031
 C498 C 0.12478 0.21639 0.45731
 H499 H 0.07440 0.23409 0.36475
 H500 H 0.08093 0.29414 0.41192
 H501 H 0.05437 0.31733 0.38647
 H502 H 0.04771 0.25721 0.33895
 C503 C 0.07411 0.71365 0.60402
 C504 C 0.07966 0.73722 0.60976
 C505 C 0.07044 0.74741 0.63053
 C506 C 0.05522 0.73419 0.64520
 C507 C 0.04896 0.71070 0.63912
 C508 C 0.05889 0.70047 0.61856
 C509 C 0.09340 0.75117 0.59327
 C510 C 0.10414 0.76213 0.57830
 C511 C 0.11579 0.77405 0.55954
 C512 C 0.12492 0.78340 0.54256
 H513 H 0.08108 0.70561 0.58795
 H514 H 0.07452 0.76570 0.63507
 H515 H 0.04782 0.74258 0.66087
 H516 H 0.05451 0.68242 0.61340
 C517 C 0.92604 0.71379 0.39599
 C518 C 0.92048 0.73736 0.39025
 C519 C 0.92970 0.74754 0.36949
 C520 C 0.94492 0.73433 0.35482
 C521 C 0.95118 0.71085 0.36089
 C522 C 0.94125 0.70062 0.38145
 C523 C 0.90673 0.75130 0.40674
 C524 C 0.89598 0.76225 0.42171
 C525 C 0.88432 0.77415 0.44047
 C526 C 0.87517 0.78349 0.45746
 H527 H 0.91907 0.70576 0.41207
 H528 H 0.92561 0.76583 0.36495
 H529 H 0.95231 0.74272 0.33914
 H530 H 0.94564 0.68257 0.38662
 C531 C 0.92606 0.28619 0.60352
 C532 C 0.92045 0.26264 0.60929
 C533 C 0.92959 0.25249 0.63011
 C534 C 0.94478 0.26571 0.64481
 C535 C 0.95110 0.28918 0.63871
 C536 C 0.94125 0.29938 0.61809
 C537 C 0.90671 0.24868 0.59280
 C538 C 0.89595 0.23771 0.57784
 C539 C 0.88427 0.22577 0.55910
 C540 C 0.87511 0.21639 0.54214
 H541 H 0.91916 0.29420 0.58741
 H542 H 0.92546 0.23422 0.63468
 H543 H 0.95211 0.25734 0.66053
 H544 H 0.94569 0.31740 0.61291
 C545 C 0.39558 0.07405 0.28585
 C546 C 0.38972 0.07968 0.26236
 C547 C 0.36884 0.07053 0.25226
 C548 C 0.35417 0.05532 0.26549
 C549 C 0.36037 0.04899 0.28890
 C550 C 0.38105 0.05883 0.29903
 C551 C 0.40619 0.09344 0.24840
 C552 C 0.42116 0.10422 0.23745
 C553 C 0.43993 0.11591 0.22556
 C554 C 0.45694 0.12509 0.21625
 H555 H 0.41174 0.08096 0.29381
 H556 H 0.36420 0.07468 0.23404
 H557 H 0.33840 0.04798 0.25717
 H558 H 0.38630 0.05439 0.31702
 C559 C 0.60436 0.07393 0.71432
 C560 C 0.61025 0.07956 0.73781
 C561 C 0.63118 0.07047 0.74785
 C562 C 0.64586 0.05531 0.73458
 C563 C 0.63964 0.04898 0.71118
 C564 C 0.61891 0.05877 0.70109
 C565 C 0.59377 0.09326 0.75182
 C566 C 0.57881 0.10399 0.76281
 C567 C 0.56004 0.11563 0.77476
 C568 C 0.54304 0.12477 0.78413
 H569 H 0.58816 0.08079 0.70640
 H570 H 0.63585 0.07463 0.76607
 H571 H 0.66168 0.04803 0.74286
 H572 H 0.61363 0.05432 0.68312
 C573 C 0.39552 0.92618 0.71456
 C574 C 0.38963 0.92057 0.73805
 C575 C 0.36871 0.92968 0.74808
 C576 C 0.35403 0.94482 0.73480
 C577 C 0.36025 0.95113 0.71139
 C578 C 0.38097 0.94133 0.70132
 C579 C 0.40611 0.90687 0.75206
 C580 C 0.42108 0.89614 0.76305
 C581 C 0.43985 0.88449 0.77498
 C582 C 0.45686 0.87535 0.78433
 H583 H 0.41172 0.91931 0.70664
 H584 H 0.36405 0.92554 0.76630
 H585 H 0.33822 0.95212 0.74307
 H586 H 0.38625 0.94576 0.68334
 C587 C 0.63134 0.93038 0.25197
 C588 C 0.61043 0.92112 0.26190
 C589 C 0.60448 0.92656 0.28542
 C590 C 0.61896 0.94167 0.29879
 C591 C 0.63967 0.95161 0.28883
 C592 C 0.64595 0.94549 0.26538
 C593 C 0.59402 0.90743 0.24777
 C594 C 0.57910 0.89670 0.23671
 C595 C 0.56037 0.88503 0.22472
 C596 C 0.54338 0.87585 0.21536
 H597 H 0.63605 0.92638 0.23372
 H598 H 0.58830 0.91957 0.29326
 H599 H 0.61364 0.94595 0.31679
 H600 H 0.66176 0.95289 0.25720
 C601 C 0.39567 0.28609 0.92608
 C602 C 0.38976 0.26258 0.92046
 C603 C 0.36883 0.25253 0.92955
 C604 C 0.35416 0.26582 0.94469
 C605 C 0.36041 0.28925 0.95102
 C606 C 0.38113 0.29934 0.94123
 C607 C 0.40624 0.24853 0.90679
 C608 C 0.42120 0.23751 0.89609
 C609 C 0.43997 0.22552 0.88448
 C610 C 0.45697 0.21612 0.87538
 H611 H 0.41187 0.29401 0.91923
 H612 H 0.36416 0.23429 0.92541
 H613 H 0.33835 0.25754 0.95198
 H614 H 0.38643 0.31734 0.94568
 C615 C 0.63131 0.74742 0.92932
 C616 C 0.61037 0.73738 0.92026
 C617 C 0.60446 0.71387 0.92590
 C618 C 0.61901 0.70062 0.94104
 C619 C 0.63975 0.71071 0.95081
 C620 C 0.64600 0.73414 0.94446
 C621 C 0.59387 0.75142 0.90661
 C622 C 0.57889 0.76245 0.89593
 C623 C 0.56010 0.77443 0.88436
 C624 C 0.54309 0.78383 0.87528
 H625 H 0.63599 0.76566 0.92517
 H626 H 0.58824 0.70595 0.91907
 H627 H 0.61371 0.68263 0.94550
 H628 H 0.66182 0.74242 0.95173
 C629 C 0.39596 0.71399 0.07384
 C630 C 0.39001 0.73749 0.07949
 C631 C 0.36903 0.74748 0.07047
 C632 C 0.35434 0.73414 0.05537
 C633 C 0.36061 0.71073 0.04902
 C634 C 0.38140 0.70070 0.05874
 C635 C 0.40650 0.75158 0.09313
 C636 C 0.42146 0.76265 0.10380
 C637 C 0.44022 0.77470 0.11537
 C638 C 0.45722 0.78414 0.12445
 H639 H 0.41220 0.70612 0.08065
 H640 H 0.36432 0.76571 0.07463
 H641 H 0.33848 0.74238 0.04813
 H642 H 0.38672 0.68272 0.05428
 C643 C 0.63128 0.25258 0.07066
 C644 C 0.61035 0.26263 0.07973
 C645 C 0.60442 0.28612 0.07404
 C646 C 0.61894 0.29935 0.05886
 C647 C 0.63967 0.28926 0.04909
 C648 C 0.64594 0.26585 0.05548
 C649 C 0.59389 0.24861 0.09345
 C650 C 0.57893 0.23761 0.10418
 C651 C 0.56017 0.22565 0.11583
 C652 C 0.54317 0.21628 0.12496
 H653 H 0.63597 0.23436 0.07485
 H654 H 0.58821 0.29405 0.08088
 H655 H 0.61363 0.31733 0.05437
 H656 H 0.66175 0.25757 0.04821
 C657 C 0.28539 0.07361 0.60465
 C658 C 0.26184 0.07920 0.61048
 C659 C 0.25171 0.06998 0.63128
 C660 C 0.26497 0.05476 0.64590
 C661 C 0.28845 0.04849 0.63974
 C662 C 0.29861 0.05839 0.61913
 C663 C 0.24785 0.09299 0.59406
 C664 C 0.23690 0.10379 0.57914
 C665 C 0.22501 0.11553 0.56041
 C666 C 0.21571 0.12474 0.54344
 H667 H 0.29338 0.08057 0.58854
 H668 H 0.23344 0.07409 0.63589
 H669 H 0.25664 0.04738 0.66161
 H670 H 0.31665 0.05399 0.61391
 C671 C 0.74648 0.07102 0.36813
 C672 C 0.73728 0.07853 0.39000
 C673 C 0.71458 0.07117 0.39704
 C674 C 0.70131 0.05590 0.38265
 C675 C 0.71055 0.04762 0.36086
 C676 C 0.73319 0.05575 0.35358
 C677 C 0.75141 0.09252 0.40614
 C678 C 0.76248 0.10347 0.42089
 C679 C 0.77449 0.11534 0.43946
 C680 C 0.78387 0.12464 0.45635
 H681 H 0.76410 0.07657 0.36255
 H682 H 0.70731 0.07683 0.41396
 H683 H 0.68397 0.05024 0.38893
 H684 H 0.74094 0.04988 0.33695
 C685 C 0.71440 0.92623 0.60466
 C686 C 0.73795 0.92064 0.61052
 C687 C 0.74808 0.92989 0.63131
 C688 C 0.73483 0.94515 0.64589
 C689 C 0.71136 0.95143 0.63971
 C690 C 0.70119 0.94149 0.61912
 C691 C 0.75193 0.90682 0.59412
 C692 C 0.76289 0.89598 0.57922
 C693 C 0.77478 0.88422 0.56052
 C694 C 0.78408 0.87500 0.54355
 H695 H 0.70641 0.91925 0.58857
 H696 H 0.76635 0.92578 0.63593
 H697 H 0.74317 0.95255 0.66160
 H698 H 0.68316 0.94589 0.61388
 C699 C 0.25198 0.92981 0.36873
 C700 C 0.26213 0.92056 0.38951
 C701 C 0.28570 0.92611 0.39532
 C702 C 0.29891 0.94135 0.38084
 C703 C 0.28873 0.95129 0.36026
 C704 C 0.26524 0.94504 0.35412
 C705 C 0.24814 0.90677 0.40593
 C706 C 0.23718 0.89598 0.42086
 C707 C 0.22529 0.88425 0.43959
 C708 C 0.21597 0.87505 0.45655
 H709 H 0.23370 0.92572 0.36413
 H710 H 0.29370 0.91913 0.41140
 H711 H 0.31696 0.94573 0.38605
 H712 H 0.25688 0.95245 0.33842
 C713 C 0.07032 0.36870 0.74727
 C714 C 0.07947 0.38964 0.73733
 C715 C 0.07383 0.39564 0.71387
 C716 C 0.05862 0.38119 0.70058
 C717 C 0.04879 0.36045 0.71057
 C718 C 0.05512 0.35411 0.73394
 C719 C 0.09321 0.40603 0.75142
 C720 C 0.10397 0.42092 0.76248
 C721 C 0.11564 0.43963 0.77451
 C722 C 0.12479 0.45659 0.78394
 H723 H 0.07448 0.36395 0.76547
 H724 H 0.08073 0.41186 0.70603
 H725 H 0.05418 0.38656 0.68263
 H726 H 0.04780 0.33828 0.74214
 C727 C 0.07051 0.63126 0.25259
 C728 C 0.07966 0.61035 0.26259
 C729 C 0.07402 0.60439 0.28606
 C730 C 0.05880 0.61886 0.29931
 C731 C 0.04895 0.63957 0.28926
 C732 C 0.05530 0.64586 0.26588
 C733 C 0.09341 0.59394 0.24855
 C734 C 0.10416 0.57902 0.23752
 C735 C 0.11582 0.56029 0.22555
 C736 C 0.12495 0.54331 0.21616
 H737 H 0.07467 0.63598 0.23439
 H738 H 0.08092 0.58820 0.29394
 H739 H 0.05435 0.61352 0.31726
 H740 H 0.04797 0.66166 0.25764
 C741 C 0.92949 0.36871 0.25247
 C742 C 0.92032 0.38960 0.26250
 C743 C 0.92592 0.39551 0.28599
 C744 C 0.94113 0.38103 0.29923
 C745 C 0.95101 0.36035 0.28916
 C746 C 0.94470 0.35410 0.26575
 C747 C 0.90659 0.40604 0.24847
 C748 C 0.89586 0.42098 0.23745
 C749 C 0.88423 0.43973 0.22548
 C750 C 0.87511 0.45671 0.21609
 H751 H 0.92537 0.36404 0.23425
 H752 H 0.91900 0.41168 0.29390
 H753 H 0.94555 0.38633 0.31721
 H754 H 0.95206 0.33832 0.25749
 C755 C 0.92594 0.60433 0.71381
 C756 C 0.92030 0.61028 0.73728
 C757 C 0.92947 0.63118 0.74730
 C758 C 0.94470 0.64578 0.73402
 C759 C 0.95104 0.63949 0.71064
 C760 C 0.94118 0.61879 0.70057
 C761 C 0.90655 0.59386 0.75131
 C762 C 0.89579 0.57894 0.76233
 C763 C 0.88413 0.56021 0.77431
 C764 C 0.87500 0.54322 0.78369
 H765 H 0.91902 0.58815 0.70591
 H766 H 0.92532 0.63589 0.76550
 H767 H 0.95205 0.66157 0.74228
 H768 H 0.94562 0.61347 0.68262
 C769 C 0.71488 0.60270 0.92891
 C770 C 0.73758 0.60975 0.92153
 C771 C 0.74677 0.63168 0.92898
 C772 C 0.73348 0.64628 0.94420
 C773 C 0.71083 0.63900 0.95233
 C774 C 0.70161 0.61714 0.94412
 C775 C 0.75167 0.59358 0.90752
 C776 C 0.76271 0.57882 0.89654
 C777 C 0.77467 0.56022 0.88462
 C778 C 0.78400 0.54330 0.87530
 H779 H 0.70761 0.58574 0.92329
 H780 H 0.76438 0.63727 0.92343
 H781 H 0.74121 0.66295 0.95002
 H782 H 0.68427 0.61086 0.94978
 C783 C 0.25326 0.36813 0.92920
 C784 C 0.26242 0.39005 0.92170
 C785 C 0.28512 0.39713 0.92904
 C786 C 0.29843 0.38274 0.94426
 C787 C 0.28924 0.36088 0.95251
 C788 C 0.26659 0.35357 0.94443
 C789 C 0.24828 0.40619 0.90770
 C790 C 0.23722 0.42093 0.89672
 C791 C 0.22523 0.43952 0.88481
 C792 C 0.21588 0.45644 0.87550
 H793 H 0.23565 0.36251 0.92368
 H794 H 0.29236 0.41409 0.92339
 H795 H 0.31578 0.38904 0.94988
 H796 H 0.25888 0.33689 0.95028
 C797 C 0.25351 0.63172 0.07109
 C798 C 0.26269 0.60981 0.07858
 C799 C 0.28539 0.60276 0.07124
 C800 C 0.29868 0.61716 0.05600
 C801 C 0.28946 0.63901 0.04775
 C802 C 0.26682 0.64630 0.05585
 C803 C 0.24857 0.59366 0.09259
 C804 C 0.23751 0.57891 0.10356
 C805 C 0.22553 0.56031 0.11546
 C806 C 0.21617 0.54339 0.12477
 H807 H 0.23590 0.63733 0.07662
 H808 H 0.29265 0.58580 0.07688
 H809 H 0.31602 0.61087 0.05036
 H810 H 0.25909 0.66296 0.05000
 C811 C 0.71485 0.39719 0.07106
 C812 C 0.73755 0.39014 0.07842
 C813 C 0.74674 0.36823 0.07094
 C814 C 0.73343 0.35364 0.05572
 C815 C 0.71078 0.36092 0.04761
 C816 C 0.70156 0.38277 0.05584
 C817 C 0.75167 0.40632 0.09241
 C818 C 0.76271 0.42109 0.10337
 C819 C 0.77467 0.43970 0.11527
 C820 C 0.78402 0.45664 0.12456
 H821 H 0.70759 0.41415 0.07670
 H822 H 0.76435 0.36264 0.07648
 H823 H 0.74116 0.33697 0.04988
 H824 H 0.68422 0.38905 0.05020
 C825 C 0.92941 0.74641 0.63171
 C826 C 0.92188 0.73723 0.60983
 C827 C 0.92921 0.71453 0.60279
 C828 C 0.94445 0.70124 0.61719
 C829 C 0.95273 0.71045 0.63900
 C830 C 0.94465 0.73310 0.64627
 C831 C 0.90783 0.75134 0.59370
 C832 C 0.89682 0.76238 0.57897
 C833 C 0.88485 0.77433 0.56042
 C834 C 0.87549 0.78366 0.54353
 H835 H 0.92389 0.76402 0.63729
 H836 H 0.92353 0.70727 0.58586
 H837 H 0.95007 0.68389 0.61091
 H838 H 0.95053 0.74082 0.66291
 C839 C 0.92923 0.25333 0.36793
 C840 C 0.92168 0.26249 0.38980
 C841 C 0.92901 0.28518 0.39688
 C842 C 0.94427 0.29849 0.38252
 C843 C 0.95258 0.28931 0.36071
 C844 C 0.94450 0.26666 0.35340
 C845 C 0.90762 0.24837 0.40590
 C846 C 0.89659 0.23732 0.42061
 C847 C 0.88463 0.22537 0.43917
 C848 C 0.87527 0.21605 0.45607
 H849 H 0.92372 0.23573 0.36232
 H850 H 0.92331 0.29243 0.41380
 H851 H 0.94989 0.31583 0.38882
 H852 H 0.95040 0.25895 0.33677
 C853 C 0.07062 0.25354 0.63154
 C854 C 0.07818 0.26274 0.60968
 C855 C 0.07087 0.28545 0.60266
 C856 C 0.05563 0.29874 0.61705
 C857 C 0.04731 0.28952 0.63884
 C858 C 0.05536 0.26685 0.64609
 C859 C 0.09221 0.24862 0.59355
 C860 C 0.10320 0.23757 0.57882
 C861 C 0.11515 0.22560 0.56026
 C862 C 0.12449 0.21625 0.54338
 H863 H 0.07611 0.23592 0.63711
 H864 H 0.07657 0.29272 0.58575
 H865 H 0.05003 0.31610 0.61079
 H866 H 0.04946 0.25912 0.66271
 C867 C 0.07099 0.71454 0.39712
 C868 C 0.07832 0.73724 0.39010
 C869 C 0.07078 0.74645 0.36824
 C870 C 0.05552 0.73315 0.35368
 C871 C 0.04743 0.71049 0.36093
 C872 C 0.05573 0.70126 0.38272
 C873 C 0.09236 0.75134 0.40625
 C874 C 0.10337 0.76236 0.42099
 C875 C 0.11531 0.77430 0.43958
 C876 C 0.12466 0.78361 0.45648
 H877 H 0.07667 0.70726 0.41404
 H878 H 0.07631 0.76406 0.36267
 H879 H 0.04963 0.74089 0.33705
 H880 H 0.05010 0.68391 0.38898
 C881 C 0.63103 0.93045 0.74829
 C882 C 0.61012 0.92128 0.73828
 C883 C 0.60420 0.92688 0.71479
 C884 C 0.61872 0.94204 0.70152
 C885 C 0.63945 0.95187 0.71156
 C886 C 0.64569 0.94562 0.73498
 C887 C 0.59371 0.90745 0.75228
 C888 C 0.57880 0.89659 0.76324
 C889 C 0.56009 0.88476 0.77512
 C890 C 0.54312 0.87548 0.78441
 H891 H 0.63573 0.92633 0.76651
 H892 H 0.58801 0.91996 0.70688
 H893 H 0.61343 0.94642 0.68354
 H894 H 0.66150 0.95294 0.74323
 C895 C 0.36913 0.93050 0.25162
 C896 C 0.39007 0.92139 0.26161
 C897 C 0.39600 0.92699 0.28510
 C898 C 0.38145 0.94210 0.29839
 C899 C 0.36068 0.95188 0.28838
 C900 C 0.35444 0.94561 0.26496
 C901 C 0.40650 0.90762 0.24758
 C902 C 0.42143 0.89681 0.23659
 C903 C 0.44015 0.88504 0.22467
 C904 C 0.45713 0.87581 0.21534
 H905 H 0.36443 0.92638 0.23340
 H906 H 0.41221 0.92011 0.29299
 H907 H 0.38675 0.94649 0.31638
 H908 H 0.33860 0.95289 0.25673
 C909 C 0.63115 0.07039 0.25266
 C910 C 0.61015 0.07941 0.26263
 C911 C 0.60414 0.07362 0.28605
 C912 C 0.61864 0.05841 0.29928
 C913 C 0.63946 0.04872 0.28927
 C914 C 0.64579 0.05518 0.26593
 C915 C 0.59376 0.09325 0.24863
 C916 C 0.57886 0.10410 0.23764
 C917 C 0.56016 0.11590 0.22571
 C918 C 0.54320 0.12514 0.21635
 H919 H 0.63592 0.07466 0.23450
 H920 H 0.58789 0.08042 0.29392
 H921 H 0.61328 0.05387 0.31720
 H922 H 0.66166 0.04798 0.25772
 C923 C 0.39557 0.07332 0.71476
 C924 C 0.38969 0.07891 0.73826
 C925 C 0.36881 0.06970 0.74832
 C926 C 0.35415 0.05451 0.73503
 C927 C 0.36035 0.04826 0.71160
 C928 C 0.38104 0.05813 0.70152
 C929 C 0.40612 0.09273 0.75224
 C930 C 0.42105 0.10359 0.76318
 C931 C 0.43979 0.11540 0.77504
 C932 C 0.45679 0.12466 0.78431
 H933 H 0.41172 0.08026 0.70683
 H934 H 0.36415 0.07382 0.76654
 H935 H 0.33837 0.04716 0.74331
 H936 H 0.38630 0.05375 0.68353
 C937 C 0.60441 0.71476 0.07279
 C938 C 0.61038 0.73829 0.07832
 C939 C 0.63129 0.74826 0.06910
 C940 C 0.64590 0.73487 0.05397
 C941 C 0.63962 0.71140 0.04779
 C942 C 0.61889 0.70141 0.05767
 C943 C 0.59402 0.75236 0.09212
 C944 C 0.57913 0.76336 0.10297
 C945 C 0.56044 0.77527 0.11480
 C946 C 0.54347 0.78456 0.12408
 H947 H 0.58823 0.70688 0.07975
 H948 H 0.63602 0.76651 0.07316
 H949 H 0.66172 0.74308 0.04661
 H950 H 0.61356 0.68340 0.05335
 C951 C 0.36906 0.25197 0.06943
 C952 C 0.38997 0.26198 0.07861
 C953 C 0.39592 0.28550 0.07301
 C954 C 0.38142 0.29879 0.05786
 C955 C 0.36068 0.28875 0.04803
 C956 C 0.35442 0.26530 0.05427
 C957 C 0.40635 0.24797 0.09246
 C958 C 0.42125 0.23702 0.10335
 C959 C 0.43995 0.22517 0.11523
 C960 C 0.45692 0.21592 0.12456
 H961 H 0.36435 0.23373 0.07355
 H962 H 0.41210 0.29341 0.07994
 H963 H 0.38672 0.31680 0.05349
 H964 H 0.33861 0.25706 0.04695
 C965 C 0.60433 0.28542 0.92698
 C966 C 0.61024 0.26188 0.92146
 C967 C 0.63111 0.25185 0.93071
 C968 C 0.64573 0.26520 0.94587
 C969 C 0.63951 0.28867 0.95205
 C970 C 0.61882 0.29872 0.94214
 C971 C 0.59385 0.24785 0.90764
 C972 C 0.57894 0.23689 0.89677
 C973 C 0.56021 0.22503 0.88494
 C974 C 0.54322 0.21578 0.87565
 H975 H 0.58818 0.29333 0.92000
 H976 H 0.63579 0.23359 0.92665
 H977 H 0.66152 0.25695 0.95325
 H978 H 0.61353 0.31675 0.94646
 C979 C 0.39584 0.71440 0.92701
 C980 C 0.38990 0.73792 0.92146
 C981 C 0.36901 0.74792 0.93067
 C982 C 0.35439 0.73458 0.94583
 C983 C 0.36065 0.71112 0.95205
 C984 C 0.38136 0.70109 0.94217
 C985 C 0.40628 0.75196 0.90763
 C986 C 0.42117 0.76294 0.89676
 C987 C 0.43987 0.77483 0.88492
 C988 C 0.45683 0.78412 0.87563
 H989 H 0.41201 0.70650 0.92006
 H990 H 0.36430 0.76617 0.92658
 H991 H 0.33859 0.74281 0.95318
 H992 H 0.38667 0.68308 0.94652
 C993 C 0.71433 0.92638 0.39629
 C994 C 0.73789 0.92077 0.39049
 C995 C 0.74803 0.92997 0.36969
 C996 C 0.73479 0.94516 0.35502
 C997 C 0.71130 0.95144 0.36113
 C998 C 0.70112 0.94157 0.38175
 C999 C 0.75186 0.90694 0.40693
 C1000 C 0.76280 0.89609 0.42184
 C1001 C 0.77469 0.88427 0.44053
 C1002 C 0.78401 0.87501 0.45748
 H1003 H 0.70633 0.91944 0.41239
 H1004 H 0.76631 0.92584 0.36509
 H1005 H 0.74313 0.95250 0.33930
 H1006 H 0.68308 0.94597 0.38695
 C1007 C 0.28542 0.92644 0.60403
 C1008 C 0.26187 0.92076 0.60981
 C1009 C 0.25172 0.92984 0.63067
 C1010 C 0.26496 0.94499 0.64540
 C1011 C 0.28844 0.95134 0.63930
 C1012 C 0.29861 0.94159 0.61863
 C1013 C 0.24794 0.90697 0.59332
 C1014 C 0.23703 0.89614 0.57837
 C1015 C 0.22519 0.88435 0.55962
 C1016 C 0.21592 0.87509 0.54264
 H1017 H 0.29343 0.91959 0.58789
 H1018 H 0.23346 0.92566 0.63525
 H1019 H 0.25661 0.95225 0.66117
 H1020 H 0.31664 0.94604 0.61345
 C1021 C 0.28537 0.07321 0.39623
 C1022 C 0.26186 0.07894 0.39035
 C1023 C 0.25179 0.06994 0.36942
 C1024 C 0.26506 0.05481 0.35471
 C1025 C 0.28851 0.04842 0.36089
 C1026 C 0.29860 0.05809 0.38164
 C1027 C 0.24788 0.09274 0.40680
 C1028 C 0.23694 0.10359 0.42171
 C1029 C 0.22505 0.11540 0.44041
 C1030 C 0.21575 0.12467 0.45736
 H1031 H 0.29332 0.08000 0.41242
 H1032 H 0.23355 0.07416 0.36476
 H1033 H 0.25677 0.04763 0.33887
 H1034 H 0.31661 0.05360 0.38690
 C1035 C 0.74818 0.07008 0.63048
 C1036 C 0.73806 0.07911 0.60958
 C1037 C 0.71452 0.07340 0.60377
 C1038 C 0.70132 0.05827 0.61838
 C1039 C 0.71146 0.04858 0.63909
 C1040 C 0.73493 0.05496 0.64522
 C1041 C 0.75200 0.09289 0.59310
 C1042 C 0.76292 0.10372 0.57815
 C1043 C 0.77476 0.11550 0.55940
 C1044 C 0.78403 0.12475 0.54242
 H1045 H 0.76643 0.07429 0.63509
 H1046 H 0.70654 0.08020 0.58760
 H1047 H 0.68330 0.05379 0.61317
 H1048 H 0.74326 0.04775 0.66102
 C1049 C 0.92672 0.60398 0.28545
 C1050 C 0.92117 0.60991 0.26196
 C1051 C 0.93038 0.63081 0.25198
 C1052 C 0.94552 0.64545 0.26533
 C1053 C 0.95174 0.63920 0.28876
 C1054 C 0.94187 0.61848 0.29877
 C1055 C 0.90736 0.59351 0.24792
 C1056 C 0.89651 0.57860 0.23695
 C1057 C 0.88469 0.55989 0.22507
 C1058 C 0.87541 0.54291 0.21580
 H1059 H 0.91978 0.58780 0.29333
 H1060 H 0.92629 0.63550 0.23375
 H1061 H 0.95287 0.66125 0.25712
 H1062 H 0.94622 0.61318 0.31676
 C1063 C 0.93018 0.36917 0.74767
 C1064 C 0.92103 0.39011 0.73772
 C1065 C 0.92664 0.39608 0.71425
 C1066 C 0.94178 0.38158 0.70094
 C1067 C 0.95159 0.36082 0.71092
 C1068 C 0.94532 0.35454 0.73432
 C1069 C 0.90721 0.40648 0.75177
 C1070 C 0.89635 0.42137 0.76275
 C1071 C 0.88453 0.44007 0.77465
 C1072 C 0.87525 0.45703 0.78395
 H1073 H 0.92605 0.36444 0.76588
 H1074 H 0.91973 0.41228 0.70639
 H1075 H 0.94617 0.38691 0.68297
 H1076 H 0.95263 0.33870 0.74252
 C1077 C 0.07319 0.60376 0.71460
 C1078 C 0.07878 0.60972 0.73808
 C1079 C 0.06962 0.63066 0.74803
 C1080 C 0.05449 0.64530 0.73466
 C1081 C 0.04825 0.63903 0.71124
 C1082 C 0.05806 0.61826 0.70127
 C1083 C 0.09258 0.59334 0.75213
 C1084 C 0.10344 0.57845 0.76311
 C1085 C 0.11526 0.55975 0.77500
 C1086 C 0.12454 0.54278 0.78429
 H1087 H 0.08009 0.58756 0.70674
 H1088 H 0.07374 0.63539 0.76624
 H1089 H 0.04719 0.66114 0.74285
 H1090 H 0.05369 0.61294 0.68329
 C1091 C 0.07315 0.39609 0.28541
 C1092 C 0.07877 0.39015 0.26193
 C1093 C 0.06963 0.36922 0.25195
 C1094 C 0.05448 0.35456 0.26528
 C1095 C 0.04821 0.36081 0.28869
 C1096 C 0.05801 0.38157 0.29870
 C1097 C 0.09260 0.40654 0.24792
 C1098 C 0.10348 0.42144 0.23697
 C1099 C 0.11533 0.44015 0.22510
 C1100 C 0.12464 0.45711 0.21584
 H1101 H 0.08005 0.41229 0.29330
 H1102 H 0.07377 0.36451 0.23374
 H1103 H 0.04719 0.33873 0.25706
 H1104 H 0.05361 0.38688 0.31667
   
