data_POSCAR
  _audit_creation_date              2014-09-24
  _audit_creation_method            'ToBaCCo'
  _symmetry_space_group_name_H-M    'P1'
  _symmetry_Int_Tables_number       1
  _symmetry_cell_setting            triclinic
  loop_
  _symmetry_equiv_pos_as_xyz
 x,y,z
_cell_length_a 28.7964
_cell_length_b 30.9211
_cell_length_c 29.0512
_cell_angle_alpha 89.823800
_cell_angle_beta 89.199400
_cell_angle_gamma 90.707700
loop_
  _atom_site_label
  _atom_site_type_symbol
  _atom_site_fract_x
  _atom_site_fract_y
  _atom_site_fract_z
Si1 Si 0.25963 0.25577 0.25482
 Si2 Si 0.75117 0.74313 0.24994
 Si3 Si 0.74684 0.23964 0.74967
 Si4 Si 0.24010 0.75219 0.75227
 C5 C 0.06766 0.07330 0.01610
 H6 H 0.06215 0.07541 -0.02059
 C7 C 0.09789 0.10239 0.03727
 H8 H 0.11443 0.12712 0.01620
 C9 C 0.05005 0.03938 0.08754
 H10 H 0.03102 0.01490 0.10691
 C11 C 0.08043 0.06762 0.11014
 H12 H 0.08462 0.06428 0.14695
 N13 N 0.04461 0.04254 0.04125
 C14 C 0.01915 -0.06190 -0.05647
 H15 H -0.01825 -0.06241 -0.05937
 C16 C 0.04583 -0.09159 -0.08133
 H17 H 0.02889 -0.11450 -0.10390
 C18 C 0.08685 -0.03270 -0.02234
 H19 H 0.10285 -0.01016 0.00111
 C20 C 0.11458 -0.06243 -0.04556
 H21 H 0.15176 -0.06188 -0.04042
 Zn22 Zn 0.00404 0.00584 0.00812
 N23 N 0.04002 -0.03279 -0.02814
 C24 C -0.04218 0.03538 -0.07339
 N25 N -0.03357 0.04247 -0.02811
 C26 C -0.05193 0.07700 -0.00579
 C27 C -0.08157 0.10510 -0.02839
 C28 C -0.07208 0.06251 -0.09729
 C29 C -0.01628 -0.06209 0.07082
 C30 C -0.04455 -0.08843 0.09907
 C31 C -0.10939 -0.04259 0.08184
 C32 C -0.08021 -0.01772 0.05334
 N33 N -0.03446 -0.02748 0.04865
 H34 H -0.02645 0.00849 -0.09102
 H35 H -0.04382 0.08245 0.02999
 H36 H -0.09487 0.13248 -0.00957
 H37 H -0.07922 0.05569 -0.13305
 H38 H 0.02008 -0.06952 0.06607
 H39 H -0.02974 -0.11597 0.11639
 H40 H -0.14576 -0.03439 0.08481
 H41 H -0.09445 0.00920 0.03480
 C42 C 0.09408 -0.09234 -0.07545
 C43 C 0.10521 0.09958 0.08497
 C44 C -0.09164 -0.07844 0.10515
 C45 C -0.09298 0.09757 -0.07462
 C46 C 0.03745 0.57443 0.54220
 H47 H 0.01647 0.59122 0.51756
 C48 C 0.06381 0.59828 0.57325
 H49 H 0.06310 0.63326 0.57154
 C50 C 0.06205 0.50880 0.57569
 H51 H 0.06066 0.47383 0.57662
 C52 C 0.08897 0.53141 0.60750
 H53 H 0.10909 0.51333 0.63194
 N54 N 0.03735 0.53050 0.54362
 C55 C 0.00975 0.44036 0.43207
 H56 H -0.02704 0.44603 0.42868
 C57 C 0.03219 0.41230 0.40186
 H58 H 0.01208 0.39739 0.37495
 C59 C 0.08024 0.45542 0.47024
 H60 H 0.09893 0.47278 0.49649
 C61 C 0.10405 0.42726 0.44102
 H62 H 0.14094 0.42295 0.44568
 Zn63 Zn -0.00101 0.49839 0.50351
 N64 N 0.03378 0.46091 0.46565
 C65 C -0.00667 0.56022 0.43388
 N66 N -0.03287 0.53568 0.46347
 C67 C -0.08002 0.53624 0.46245
 C68 C -0.10258 0.56285 0.43119
 C69 C -0.02775 0.58760 0.40237
 C70 C -0.04229 0.42200 0.53966
 C71 C -0.07082 0.39783 0.56945
 C72 C -0.10024 0.46441 0.60114
 C73 C -0.07090 0.48733 0.57084
 N74 N -0.04286 0.46592 0.54083
 H75 H 0.03081 0.55867 0.43507
 H76 H -0.10024 0.51566 0.48540
 H77 H -0.14018 0.56256 0.43089
 H78 H -0.00574 0.60765 0.38048
 H79 H -0.01900 0.40555 0.51633
 H80 H -0.06925 0.36288 0.56825
 H81 H -0.12282 0.48238 0.62391
 H82 H -0.07024 0.52232 0.57134
 C83 C 0.07999 0.40485 0.40643
 C84 C 0.08991 0.57689 0.60666
 C85 C -0.10005 0.41890 0.60114
 C86 C -0.07650 0.58902 0.40039
 C87 C 0.55072 0.06560 0.52489
 H88 H 0.53590 0.08171 0.49563
 C89 C 0.58065 0.08852 0.55361
 H90 H 0.58819 0.12225 0.54620
 C91 C 0.55986 0.00211 0.56944
 H92 H 0.55163 -0.03156 0.57558
 C93 C 0.58987 0.02377 0.59906
 H94 H 0.60341 0.00637 0.62819
 N95 N 0.54035 0.02331 0.53363
 C96 C 0.50529 -0.08288 0.44371
 H97 H 0.46862 -0.08661 0.45150
 C98 C 0.52742 -0.11249 0.41492
 H99 H 0.50744 -0.13952 0.40193
 C100 C 0.57548 -0.04309 0.45231
 H101 H 0.59378 -0.01557 0.46651
 C102 C 0.59893 -0.07176 0.42348
 H103 H 0.63543 -0.06602 0.41597
 Zn104 Zn 0.49744 -0.00736 0.49658
 N105 N 0.52945 -0.04894 0.46148
 C106 C 0.46895 0.02249 0.40975
 N107 N 0.46759 0.03106 0.45564
 C108 C 0.44584 0.06668 0.47220
 C109 C 0.42426 0.09524 0.44220
 C110 C 0.44758 0.04999 0.37857
 C111 C 0.46715 -0.07335 0.55617
 C112 C 0.43716 -0.09574 0.58612
 C113 C 0.37882 -0.04196 0.57242
 C114 C 0.40994 -0.02065 0.54249
 N115 N 0.45344 -0.03625 0.53542
 H116 H 0.48633 -0.00591 0.39707
 H117 H 0.44559 0.07311 0.50879
 H118 H 0.40732 0.12347 0.45619
 H119 H 0.44813 0.04140 0.34254
 H120 H 0.50146 -0.08578 0.54925
 H121 H 0.44902 -0.12505 0.60247
 H122 H 0.34425 -0.02921 0.57704
 H123 H 0.39916 0.00831 0.52509
 C124 C 0.57480 -0.10674 0.40376
 C125 C 0.60054 0.06770 0.59146
 C126 C 0.39250 -0.07987 0.59506
 C127 C 0.42502 0.08721 0.39458
 C128 C 0.55681 0.58091 -0.00345
 H129 H 0.55051 0.58529 -0.03978
 C130 C 0.58552 0.61011 0.01973
 H131 H 0.60019 0.63732 0.00086
 C132 C 0.54407 0.54033 0.06496
 H133 H 0.52818 0.51281 0.08230
 C134 C 0.57260 0.56864 0.08943
 H135 H 0.57825 0.56247 0.12562
 N136 N 0.53712 0.54665 0.01927
 C137 C 0.52372 0.43362 -0.06934
 H138 H 0.48726 0.42535 -0.06552
 C139 C 0.55297 0.40700 -0.09527
 H140 H 0.53871 0.37850 -0.11172
 C141 C 0.58679 0.48052 -0.05231
 H142 H 0.60017 0.50885 -0.03517
 C143 C 0.61703 0.45522 -0.07837
 H144 H 0.65340 0.46438 -0.08065
 Zn145 Zn 0.50078 0.50605 -0.01373
 N146 N 0.54090 0.46981 -0.04873
 C147 C 0.44843 0.52083 -0.09487
 N148 N 0.46012 0.53666 -0.05290
 C149 C 0.44257 0.57466 -0.03737
 C150 C 0.41159 0.59802 -0.06404
 C151 C 0.41738 0.54308 -0.12263
 C152 C 0.47650 0.43145 0.04000
 C153 C 0.44934 0.40751 0.07150
 C154 C 0.39844 0.46860 0.07921
 C155 C 0.42663 0.49136 0.04787
 N156 N 0.46465 0.47257 0.02872
 H157 H 0.46300 0.49088 -0.10696
 H158 H 0.45246 0.58679 -0.00399
 H159 H 0.39781 0.62800 -0.05078
 H160 H 0.40920 0.53006 -0.15612
 H161 H 0.50729 0.41729 0.02499
 H162 H 0.45950 0.37493 0.08023
 H163 H 0.36771 0.48417 0.09260
 H164 H 0.41788 0.52406 0.03859
 C165 C 0.60014 0.41812 -0.10060
 C166 C 0.59437 0.60383 0.06678
 C167 C 0.40980 0.42612 0.09186
 C168 C 0.39813 0.58208 -0.10710
 C169 C 0.17903 -0.18119 -0.14710
 C170 C 0.14453 -0.15822 -0.17011
 N171 N 0.13978 -0.16322 -0.21620
 C172 C 0.16798 -0.19014 -0.24038
 C173 C 0.20228 -0.21351 -0.21739
 N174 N 0.20684 -0.20846 -0.17114
 N175 N 0.18476 -0.17523 -0.10126
 C176 C 0.15772 -0.14710 -0.07739
 C177 C 0.12301 -0.12407 -0.10025
 N178 N 0.11712 -0.13048 -0.14619
 H179 H 0.16363 -0.19301 -0.27716
 H180 H 0.16306 -0.14292 -0.04086
 C181 C 0.15423 0.31920 0.31894
 C182 C 0.17737 0.35120 0.34429
 N183 N 0.22437 0.35447 0.34169
 C184 C 0.24931 0.32702 0.31488
 C185 C 0.22621 0.29506 0.28940
 N186 N 0.17911 0.29188 0.29199
 N187 N 0.10738 0.31533 0.32250
 C188 C 0.08243 0.34215 0.35008
 C189 C 0.10536 0.37479 0.37534
 N190 N 0.15252 0.37810 0.37166
 H191 H 0.28681 0.32982 0.31382
 H192 H 0.04532 0.33711 0.35272
 C193 C 0.64751 -0.19034 0.31297
 C194 C 0.67114 -0.16521 0.34548
 N195 N 0.71807 -0.16738 0.34801
 C196 C 0.74248 -0.19378 0.31953
 C197 C 0.71887 -0.21916 0.28725
 N198 N 0.67185 -0.21684 0.28463
 N199 N 0.60064 -0.18784 0.31031
 C200 C 0.57616 -0.16152 0.33888
 C201 C 0.59961 -0.13651 0.37203
 N202 N 0.64676 -0.13905 0.37405
 H203 H 0.77987 -0.19526 0.32233
 H204 H 0.53900 -0.15974 0.33486
 C205 C 0.68878 0.34140 -0.18358
 C206 C 0.65397 0.32208 -0.15587
 N207 N 0.64873 0.27835 -0.15582
 C208 C 0.67658 0.25312 -0.18250
 C209 C 0.71088 0.27252 -0.21074
 N210 N 0.71615 0.31627 -0.21055
 N211 N 0.69430 0.38502 -0.18355
 C212 C 0.66661 0.41034 -0.15698
 C213 C 0.63137 0.39127 -0.12930
 N214 N 0.62590 0.34738 -0.12966
 H215 H 0.67153 0.21838 -0.18223
 H216 H 0.67152 0.44507 -0.15822
 C217 C -0.18624 0.17786 -0.14722
 C218 C -0.15454 0.15153 -0.17077
 N219 N -0.15356 0.15156 -0.21749
 C220 C -0.18276 0.17695 -0.24174
 C221 C -0.21414 0.20367 -0.21825
 N222 N -0.21521 0.20344 -0.17142
 N223 N -0.18763 0.17728 -0.10056
 C224 C -0.15849 0.15190 -0.07623
 C225 C -0.12584 0.12588 -0.09958
 N226 N -0.12522 0.12636 -0.14654
 H227 H -0.18131 0.17634 -0.27894
 H228 H -0.16167 0.15173 -0.03915
 C229 C -0.14781 0.67111 0.30812
 C230 C -0.17007 0.65350 0.34725
 N231 N -0.21524 0.66271 0.35612
 C232 C -0.23923 0.68881 0.32751
 C233 C -0.21699 0.70668 0.28847
 N234 N -0.17166 0.69747 0.27966
 N235 N -0.10281 0.66135 0.29912
 C236 C -0.07885 0.63503 0.32766
 C237 C -0.10079 0.61774 0.36754
 N238 N -0.14615 0.62752 0.37586
 H239 H -0.27509 0.69598 0.33559
 H240 H -0.04341 0.62739 0.31855
 C241 C 0.35337 0.17114 0.30471
 C242 C 0.34269 0.16946 0.35194
 N243 N 0.30825 0.19438 0.36931
 C244 C 0.28385 0.22090 0.34150
 C245 C 0.29421 0.22241 0.29414
 N246 N 0.32875 0.19735 0.27679
 N247 N 0.38802 0.14635 0.28753
 C248 C 0.41217 0.11952 0.31533
 C249 C 0.40091 0.11692 0.36272
 N250 N 0.36649 0.14248 0.37962
 H251 H 0.25613 0.23990 0.35624
 H252 H 0.44009 0.10096 0.30039
 C253 C 0.30410 0.65382 -0.18784
 C254 C 0.33330 0.67449 -0.15631
 N255 N 0.33225 0.71819 -0.15221
 C256 C 0.30343 0.74222 -0.17842
 C257 C 0.27417 0.72163 -0.21011
 N258 N 0.27534 0.67779 -0.21405
 N259 N 0.30554 0.61019 -0.19229
 C260 C 0.33514 0.58622 -0.16687
 C261 C 0.36498 0.60679 -0.13546
 N262 N 0.36284 0.65062 -0.13090
 H263 H 0.30399 0.77709 -0.17504
 H264 H 0.33477 0.55146 -0.17083
 C265 C -0.18170 -0.15547 0.18874
 C266 C -0.14832 -0.17482 0.16008
 N267 N -0.14600 -0.21868 0.15832
 C268 C -0.17551 -0.24400 0.18406
 C269 C -0.20852 -0.22457 0.21305
 N270 N -0.21079 -0.18071 0.21460
 N271 N -0.18466 -0.11177 0.19015
 C272 C -0.15592 -0.08636 0.16394
 C273 C -0.12237 -0.10544 0.13503
 N274 N -0.11925 -0.14943 0.13408
 H275 H -0.17309 -0.27885 0.18211
 H276 H -0.15899 -0.05157 0.16594
 C277 C -0.18242 0.34189 0.69292
 C278 C -0.16533 0.32512 0.65131
 N279 N -0.17459 0.28335 0.64019
 C280 C -0.20027 0.25751 0.66892
 C281 C -0.21752 0.27421 0.71054
 N282 N -0.20816 0.31612 0.72160
 N283 N -0.17270 0.38357 0.70408
 C284 C -0.14673 0.40938 0.67543
 C285 C -0.12964 0.39279 0.63337
 N286 N -0.13952 0.35080 0.62274
 H287 H -0.20744 0.22439 0.65911
 H288 H -0.13887 0.44204 0.68616
 C289 C 0.30266 -0.15007 0.68591
 C290 C 0.33750 -0.17089 0.66037
 N291 N 0.34246 -0.21430 0.66428
 C292 C 0.31395 -0.23799 0.69248
 C293 C 0.27896 -0.21730 0.71801
 N294 N 0.27416 -0.17370 0.71419
 N295 N 0.29764 -0.10667 0.68161
 C296 C 0.32573 -0.08310 0.65272
 C297 C 0.36062 -0.10389 0.62681
 N298 N 0.36556 -0.14742 0.63171
 H299 H 0.31835 -0.27267 0.69459
 H300 H 0.32124 -0.04849 0.65074
 C301 C 0.32532 0.35391 0.18621
 C302 C 0.35365 0.33293 0.15384
 N303 N 0.35367 0.28899 0.15248
 C304 C 0.32649 0.26515 0.18203
 C305 C 0.29785 0.28623 0.21411
 N306 N 0.29804 0.33017 0.21538
 N307 N 0.32567 0.39769 0.18815
 C308 C 0.35268 0.42168 0.15880
 C309 C 0.38058 0.40100 0.12539
 N310 N 0.38049 0.35685 0.12422
 H311 H 0.32703 0.23021 0.18033
 H312 H 0.35265 0.45646 0.16224
 C313 C 0.19584 0.18657 0.15442
 C314 C 0.16159 0.16275 0.17859
 N315 N 0.15736 0.16733 0.22492
 C316 C 0.18586 0.19477 0.24815
 C317 C 0.21978 0.21897 0.22393
 N318 N 0.22407 0.21422 0.17754
 N319 N 0.20075 0.18121 0.10833
 C320 C 0.17267 0.15344 0.08507
 C321 C 0.13742 0.12996 0.10890
 N322 N 0.13327 0.13525 0.15538
 H323 H 0.18209 0.19766 0.28513
 H324 H 0.17869 0.14952 0.04857
 C325 C 0.16864 0.65321 0.69937
 C326 C 0.15694 0.66878 0.65571
 N327 N 0.17050 0.70915 0.64263
 C328 C 0.19545 0.73478 0.67125
 C329 C 0.20750 0.71935 0.71502
 N330 N 0.19356 0.67884 0.72813
 N331 N 0.15474 0.61279 0.71226
 C332 C 0.12976 0.58717 0.68340
 C333 C 0.11800 0.60269 0.63942
 N334 N 0.13201 0.64336 0.62704
 H335 H 0.20571 0.76686 0.65971
 H336 H 0.11851 0.55552 0.69524
 C337 C 0.68597 0.13977 0.68199
 C338 C 0.65214 0.16008 0.65551
 N339 N 0.64668 0.20352 0.65861
 C340 C 0.67374 0.22763 0.68694
 C341 C 0.70762 0.20737 0.71334
 N342 N 0.71297 0.16383 0.71031
 N343 N 0.69183 0.09646 0.67834
 C344 C 0.66519 0.07236 0.64959
 C345 C 0.63083 0.09247 0.62315
 N346 N 0.62552 0.13607 0.62686
 H347 H 0.66914 0.26229 0.68858
 H348 H 0.67154 0.03808 0.64699
 C349 C 0.68548 0.68473 0.14308
 C350 C 0.65014 0.66037 0.16499
 N351 N 0.64543 0.66176 0.21148
 C352 C 0.67465 0.68632 0.23716
 C353 C 0.71019 0.71056 0.21541
 N354 N 0.71476 0.70930 0.16872
 N355 N 0.69036 0.68284 0.09660
 C356 C 0.66150 0.65773 0.07097
 C357 C 0.62586 0.63314 0.09277
 N358 N 0.62143 0.63528 0.13949
 H359 H 0.67009 0.68688 0.27415
 H360 H 0.66733 0.65632 0.03418
   
