data_POSCAR
  _audit_creation_date              2014-09-24
  _audit_creation_method            'ToBaCCo'
  _symmetry_space_group_name_H-M    'P1'
  _symmetry_Int_Tables_number       1
  _symmetry_cell_setting            triclinic
  loop_
  _symmetry_equiv_pos_as_xyz
 x,y,z
_cell_length_a 32.2666
_cell_length_b 36.5794
_cell_length_c 40.6044
_cell_angle_alpha 89.587300
_cell_angle_beta 90.015200
_cell_angle_gamma 89.208600
loop_
  _atom_site_label
  _atom_site_type_symbol
  _atom_site_fract_x
  _atom_site_fract_y
  _atom_site_fract_z
C1 C 0.42306 0.25053 -0.00205
 C2 C 0.41800 0.25058 0.03135
 C3 C 0.38068 0.26839 0.03740
 N4 N 0.36255 0.27920 0.00878
 C5 C 0.38831 0.26783 -0.01547
 C6 C 0.36198 0.27049 0.06872
 C7 C 0.32922 0.29481 0.07615
 C8 C 0.30557 0.29397 0.10465
 C9 C 0.27733 0.32247 0.10223
 C10 C 0.28465 0.33970 0.07229
 N11 N 0.31684 0.32315 0.05693
 C12 C 0.26205 0.36989 0.05970
 C13 C 0.26395 0.38082 0.02641
 C14 C 0.24703 0.41315 0.01413
 C15 C 0.24964 0.41112 -0.01938
 C16 C 0.26832 0.37771 -0.02647
 N17 N 0.27739 0.35923 0.00156
 C18 C 0.27135 0.36311 -0.05845
 C19 C 0.30067 0.33566 -0.06725
 C20 C 0.30108 0.31698 -0.09686
 C21 C 0.33191 0.29064 -0.09451
 C22 C 0.34947 0.29379 -0.06345
 N23 N 0.33107 0.32205 -0.04744
 C24 C 0.37920 0.26914 -0.04963
 H25 H 0.44903 0.23842 -0.01509
 H26 H 0.43909 0.23840 0.04917
 H27 H 0.33926 0.33190 -0.02439
 H28 H 0.30818 0.27470 0.12492
 H29 H 0.25374 0.32932 0.12017
 H30 H 0.23321 0.43545 0.02786
 H31 H 0.23819 0.43149 -0.03673
 H32 H 0.33899 0.27032 -0.11297
 H33 H 0.33155 0.33233 0.03568
 H34 H 0.28032 0.32096 -0.11755
 C35 C 0.77015 0.59641 -0.02947
 C36 C 0.77606 0.60028 0.00380
 C37 C 0.76286 0.63535 0.01164
 N38 N 0.75013 0.65334 -0.01571
 C39 C 0.75471 0.62969 -0.04102
 C40 C 0.76398 0.65056 0.04343
 C41 C 0.73968 0.68119 0.05285
 C42 C 0.74500 0.70091 0.08155
 C43 C 0.71375 0.72695 0.08236
 C44 C 0.69013 0.72233 0.05418
 N45 N 0.70604 0.69424 0.03645
 C46 C 0.65363 0.74247 0.04643
 C47 C 0.63391 0.74114 0.01549
 C48 C 0.59430 0.75426 0.00856
 C49 C 0.58831 0.74995 -0.02473
 C50 C 0.62491 0.73525 -0.03702
 N51 N 0.65255 0.72988 -0.01239
 C52 C 0.63418 0.72854 -0.07038
 C53 C 0.67177 0.71157 -0.07944
 C54 C 0.69053 0.71516 -0.10995
 C55 C 0.72242 0.68998 -0.11064
 C56 C 0.72183 0.67157 -0.08062
 N57 N 0.69158 0.68558 -0.06137
 C58 C 0.74344 0.63860 -0.07380
 H59 H 0.77528 0.57135 -0.04281
 H60 H 0.78733 0.57923 0.02053
 H61 H 0.68065 0.67377 -0.03967
 H62 H 0.76874 0.69681 0.10009
 H63 H 0.70868 0.74671 0.10171
 H64 H 0.57199 0.76558 0.02573
 H65 H 0.56034 0.75707 -0.03809
 H66 H 0.74243 0.68441 -0.13146
 H67 H 0.69259 0.68232 0.01596
 H68 H 0.68127 0.73317 -0.12998
 C69 C 0.60139 0.26153 1.03662
 C70 C 0.60466 0.25477 1.00359
 C71 C 0.64237 0.26855 0.99358
 N72 N 0.66277 0.28277 1.01945
 C73 C 0.63795 0.27814 1.04602
 C74 C 0.65801 0.26627 0.96126
 C75 C 0.68876 0.28973 0.94872
 C76 C 0.70917 0.28518 0.91897
 C77 C 0.73482 0.31472 0.91513
 C78 C 0.72940 0.33649 0.94268
 N79 N 0.70097 0.32121 0.96286
 C80 C 0.74944 0.37013 0.94797
 C81 C 0.74977 0.38818 0.97861
 C82 C 0.76344 0.42352 0.98365
 C83 C 0.76064 0.42986 1.01694
 C84 C 0.74601 0.39799 1.03103
 N85 N 0.73964 0.37254 1.00765
 C86 C 0.73999 0.39191 1.06496
 C87 C 0.72321 0.35930 1.07738
 C88 C 0.72826 0.34699 1.10946
 C89 C 0.70264 0.31762 1.11328
 C90 C 0.68184 0.31336 1.08359
 N91 N 0.69535 0.33844 1.06157
 C92 C 0.64845 0.28927 1.07831
 H93 H 0.57425 0.25606 1.05130
 H94 H 0.58129 0.24227 0.98838
 H95 H 0.68166 0.34458 1.03894
 H96 H 0.70578 0.26300 0.90171
 H97 H 0.75506 0.31965 0.89436
 H98 H 0.77421 0.44272 0.96524
 H99 H 0.76895 0.45481 1.02932
 H100 H 0.69912 0.30174 1.13566
 H101 H 0.68785 0.33309 0.98363
 H102 H 0.74783 0.35850 1.12829
 C103 C 0.20439 0.60029 0.99395
 C104 C 0.21219 0.59982 1.02729
 C105 C 0.25317 0.60980 1.03113
 N106 N 0.26994 0.61747 1.00136
 C107 C 0.24034 0.61199 0.97863
 C108 C 0.27631 0.61168 1.06066
 C109 C 0.31576 0.62765 1.05928
 C110 C 0.34973 0.61722 1.07821
 C111 C 0.37908 0.64354 1.07354
 C112 C 0.36192 0.66930 1.05208
 N113 N 0.32400 0.65863 1.04241
 C114 C 0.37709 0.70477 1.04651
 C115 C 0.37159 0.72043 1.01478
 C116 C 0.37602 0.75667 1.00537
 C117 C 0.36739 0.75841 0.97209
 C118 C 0.35741 0.72332 0.96244
 N119 N 0.35992 0.70039 0.98853
 C120 C 0.34734 0.71197 0.93019
 C121 C 0.32553 0.67903 0.92472
 C122 C 0.32279 0.66102 0.89485
 C123 C 0.29407 0.63389 0.89874
 C124 C 0.28056 0.63527 0.93112
 N125 N 0.30028 0.66263 0.94689
 C126 C 0.24722 0.61497 0.94436
 H127 H 0.17518 0.59349 0.98270
 H128 H 0.18952 0.59391 1.04603
 H129 H 0.29295 0.67258 0.97018
 H130 H 0.35248 0.59375 1.09449
 H131 H 0.40884 0.64465 1.08578
 H132 H 0.38258 0.77989 1.02064
 H133 H 0.36685 0.78301 0.95715
 H134 H 0.28386 0.61595 0.87944
 H135 H 0.30249 0.67458 1.02926
 H136 H 0.33917 0.66692 0.87225
 C137 C -0.04247 0.38382 0.24402
 C138 C -0.00060 0.37795 0.24078
 C139 C 0.01415 0.36938 0.27190
 N140 N -0.01703 0.37026 0.29415
 C141 C -0.05167 0.37986 0.27725
 C142 C 0.05607 0.36251 0.27978
 C143 C 0.06809 0.34271 0.30827
 C144 C 0.10825 0.33956 0.32039
 C145 C 0.10753 0.31395 0.34522
 C146 C 0.06678 0.30312 0.34834
 N147 N 0.04291 0.32078 0.32583
 C148 C 0.05289 0.27662 0.37081
 C149 C 0.01154 0.27441 0.38168
 C150 C -0.00025 0.25528 0.40951
 C151 C -0.04167 0.26177 0.41334
 C152 C -0.05465 0.28302 0.38667
 N153 N -0.02143 0.29223 0.36824
 C154 C -0.09573 0.29597 0.38100
 C155 C -0.10277 0.32850 0.36227
 C156 C -0.13195 0.35541 0.36966
 C157 C -0.13034 0.38119 0.34496
 C158 C -0.10037 0.36944 0.32277
 N159 N -0.08297 0.33768 0.33400
 C160 C -0.09057 0.38688 0.29234
 H161 H -0.06368 0.38951 0.22394
 H162 H 0.01681 0.37891 0.21802
 H163 H -0.06185 0.32121 0.32128
 H164 H 0.13555 0.35382 0.31222
 H165 H 0.13404 0.30485 0.35951
 H166 H 0.01950 0.24047 0.42671
 H167 H -0.05874 0.25444 0.43522
 H168 H -0.14852 0.40623 0.34424
 H169 H 0.01236 0.31489 0.31999
 H170 H -0.15137 0.35728 0.39130
 C171 C -0.01102 0.72391 0.57777
 C172 C 0.03117 0.72247 0.58131
 C173 C 0.03875 0.71198 0.61362
 N174 N 0.00266 0.70620 0.62974
 C175 C -0.02776 0.71371 0.60788
 C176 C 0.07801 0.70962 0.62879
 C177 C 0.08326 0.68996 0.65848
 C178 C 0.11664 0.69289 0.67973
 C179 C 0.11229 0.66588 0.70312
 C180 C 0.07634 0.64735 0.69548
 N181 N 0.05849 0.66253 0.66858
 C182 C 0.06352 0.61463 0.71063
 C183 C 0.02163 0.60345 0.71004
 C184 C 0.00700 0.57075 0.72238
 C185 C -0.03537 0.57240 0.71990
 C186 C -0.04559 0.60552 0.70482
 N187 N -0.01053 0.62454 0.69914
 C188 C -0.08638 0.61956 0.69935
 C189 C -0.09471 0.64989 0.67806
 C190 C -0.13221 0.66896 0.67618
 C191 C -0.12781 0.69585 0.65264
 C192 C -0.08806 0.69221 0.64006
 N193 N -0.06829 0.66385 0.65540
 C194 C -0.07043 0.71509 0.61555
 H195 H -0.02767 0.73148 0.55553
 H196 H 0.05343 0.72808 0.56209
 H197 H -0.03919 0.65333 0.64931
 H198 H 0.14185 0.71203 0.67827
 H199 H 0.13363 0.66005 0.72311
 H200 H 0.02455 0.54789 0.73238
 H201 H -0.05548 0.55110 0.72841
 H202 H -0.15125 0.71600 0.64608
 H203 H 0.03428 0.65132 0.65519
 H204 H -0.16011 0.66438 0.69024
 C205 C 1.00952 0.64380 0.25071
 C206 C 1.05079 0.63686 0.25630
 C207 C 1.05573 0.63377 0.29018
 N208 N 1.01916 0.64001 0.30547
 C209 C 0.99097 0.64584 0.28135
 C210 C 1.09239 0.62300 0.30696
 C211 C 1.09805 0.63318 0.34043
 C212 C 1.12523 0.61651 0.36257
 C213 C 1.12317 0.63618 0.39123
 C214 C 1.09451 0.66427 0.38618
 N215 N 1.07866 0.66179 0.35539
 C216 C 1.08535 0.69270 0.40879
 C217 C 1.04352 0.70465 0.41347
 C218 C 1.02804 0.72165 0.44150
 C219 C 0.98594 0.72475 0.43774
 C220 C 0.97645 0.70893 0.40789
 N221 N 1.01156 0.69610 0.39342
 C222 C 0.93560 0.70319 0.39638
 C223 C 0.92635 0.68561 0.36626
 C224 C 0.88709 0.67422 0.35714
 C225 C 0.89068 0.65867 0.32665
 C226 C 0.93186 0.66141 0.31747
 N227 N 0.95341 0.67805 0.34162
 C228 C 0.94821 0.65019 0.28681
 H229 H 0.99488 0.64736 0.22689
 H230 H 1.07440 0.63480 0.23747
 H231 H 0.98398 0.68643 0.33988
 H232 H 1.14401 0.59215 0.35907
 H233 H 1.14001 0.62962 0.41358
 H234 H 1.04415 0.72797 0.46402
 H235 H 0.96466 0.73548 0.45596
 H236 H 0.86560 0.64660 0.31302
 H237 H 1.05900 0.68101 0.34413
 H238 H 0.85845 0.67676 0.37078
 C239 C 1.02245 0.41215 0.71367
 C240 C 0.97995 0.41284 0.71403
 C241 C 0.96749 0.37851 0.70426
 N242 N 1.00079 0.35693 0.69782
 C243 C 1.03451 0.37728 0.70400
 C244 C 0.92625 0.36673 0.70172
 C245 C 0.91587 0.33708 0.68147
 C246 C 0.87922 0.31772 0.68306
 C247 C 0.87745 0.29692 0.65503
 C248 C 0.91322 0.30396 0.63735
 N249 N 0.93685 0.32785 0.65394
 C250 C 0.92163 0.29151 0.60526
 C251 C 0.96255 0.28972 0.59302
 C252 C 0.97398 0.28359 0.56060
 C253 C 1.01662 0.28300 0.55999
 C254 C 1.02961 0.28888 0.59203
 N255 N 0.99659 0.29277 0.61213
 C256 C 1.07105 0.28975 0.60287
 C257 C 1.08216 0.30177 0.63451
 C258 C 1.11931 0.29329 0.65007
 C259 C 1.12082 0.31424 0.67799
 C260 C 1.08486 0.33556 0.67835
 N261 N 1.06103 0.32707 0.65209
 C262 C 1.07576 0.36417 0.70070
 H263 H 1.04200 0.43529 0.71851
 H264 H 0.96071 0.43647 0.71944
 H265 H 1.03465 0.34132 0.64413
 H266 H 0.85553 0.31935 0.70187
 H267 H 0.85229 0.27927 0.64813
 H268 H 0.95393 0.28049 0.53949
 H269 H 1.03571 0.27918 0.53835
 H270 H 1.14586 0.31386 0.69569
 H271 H 0.96251 0.34145 0.64460
 H272 H 1.14312 0.27433 0.64182
 C273 C 0.41730 -0.00034 0.24658
 C274 C 0.41223 -0.03765 0.24479
 C275 C 0.37754 -0.04594 0.26357
 N276 N 0.36070 -0.01502 0.27570
 C277 C 0.38483 0.01279 0.26553
 C278 C 0.35930 -0.08064 0.26695
 C279 C 0.32956 -0.08884 0.29161
 C280 C 0.30574 -0.12005 0.29244
 C281 C 0.28362 -0.11928 0.32149
 C282 C 0.29419 -0.08742 0.33778
 N283 N 0.32260 -0.06930 0.31940
 C284 C 0.28136 -0.07774 0.37030
 C285 C 0.28677 -0.04193 0.38278
 C286 C 0.27939 -0.03012 0.41484
 C287 C 0.28282 0.00727 0.41467
 C288 C 0.29114 0.01726 0.38253
 N289 N 0.29340 -0.01262 0.36323
 C290 C 0.29439 0.05328 0.37052
 C291 C 0.30574 0.06065 0.33780
 C292 C 0.29878 0.09364 0.32152
 C293 C 0.32208 0.09252 0.29326
 C294 C 0.34231 0.05884 0.29320
 N295 N 0.33149 0.03927 0.32001
 C296 C 0.37585 0.04963 0.27273
 H297 H 0.44157 0.01514 0.23486
 H298 H 0.43200 -0.05636 0.23129
 H299 H 0.34698 0.01596 0.32872
 H300 H 0.30514 -0.14168 0.27440
 H301 H 0.26312 -0.14052 0.32992
 H302 H 0.27144 -0.04595 0.43636
 H303 H 0.27867 0.02495 0.43569
 H304 H 0.32570 0.11465 0.27570
 H305 H 0.33979 -0.04704 0.32701
 H306 H 0.28063 0.11680 0.33005
 C307 C 0.59448 0.03965 0.74662
 C308 C 0.58419 0.00345 0.74700
 C309 C 0.61776 -0.01558 0.73400
 N310 N 0.64838 0.00749 0.72608
 C311 C 0.63439 0.04132 0.73408
 C312 C 0.62121 -0.05396 0.73244
 C313 C 0.64320 -0.07122 0.70634
 C314 C 0.65353 -0.10806 0.70449
 C315 C 0.67431 -0.11300 0.67506
 C316 C 0.67669 -0.07898 0.65983
 N317 N 0.65756 -0.05378 0.67905
 C318 C 0.69389 -0.07209 0.62813
 C319 C 0.70622 -0.03670 0.61808
 C320 C 0.71198 -0.02519 0.58579
 C321 C 0.72397 0.01071 0.58702
 C322 C 0.72546 0.01987 0.62001
 N323 N 0.71482 -0.00918 0.63896
 C324 C 0.73549 0.05458 0.63261
 C325 C 0.72960 0.06315 0.66597
 C326 C 0.74710 0.09279 0.68170
 C327 C 0.72405 0.09906 0.70968
 C328 C 0.69319 0.07312 0.71001
 N329 N 0.69742 0.05092 0.68376
 C330 C 0.65850 0.07305 0.73095
 H331 H 0.57435 0.06194 0.75411
 H332 H 0.55513 -0.00771 0.75546
 H333 H 0.67487 0.03335 0.67501
 H334 H 0.64726 -0.12922 0.72246
 H335 H 0.68685 -0.13869 0.66621
 H336 H 0.70675 -0.04054 0.56354
 H337 H 0.73011 0.02807 0.56596
 H338 H 0.72810 0.12133 0.72673
 H339 H 0.65177 -0.02658 0.67257
 H340 H 0.77184 0.10977 0.67253
 C341 C 0.30580 1.04078 0.56977
 C342 C 0.29637 1.00448 0.57331
 C343 C 0.30229 0.99577 0.60626
 N344 N 0.31453 1.02552 0.62301
 C345 C 0.31642 1.05313 0.60082
 C346 C 0.29189 0.96211 0.62103
 C347 C 0.30462 0.95220 0.65330
 C348 C 0.28941 0.92299 0.67135
 C349 C 0.30984 0.92279 0.70123
 C350 C 0.33684 0.95195 0.70059
 N351 N 0.33395 0.96934 0.67116
 C352 C 0.36471 0.96095 0.72602
 C353 C 0.38648 0.99409 0.72689
 C354 C 0.42226 0.99962 0.74490
 C355 C 0.43185 1.03583 0.74118
 C356 C 0.40066 1.05162 0.72204
 N357 N 0.37333 1.02577 0.71287
 C358 C 0.39623 1.08921 0.71368
 C359 C 0.36943 1.10000 0.68759
 C360 C 0.35096 1.13432 0.68389
 C361 C 0.33099 1.13456 0.65409
 C362 C 0.33709 1.10022 0.64064
 N363 N 0.36004 1.07907 0.66133
 C364 C 0.32337 1.08990 0.60919
 H365 H 0.30410 1.05637 0.54706
 H366 H 0.28582 0.98664 0.55398
 H367 H 0.37251 1.05332 0.65605
 H368 H 0.26600 0.90385 0.66383
 H369 H 0.30534 0.90341 0.72113
 H370 H 0.44007 0.97942 0.75869
 H371 H 0.45944 1.04838 0.75070
 H372 H 0.31358 1.15735 0.64367
 H373 H 0.35327 0.99008 0.66302
 H374 H 0.35135 1.15689 0.70095
 C375 C 0.68684 0.98202 0.43230
 C376 C 0.67787 0.94607 0.42693
 C377 C 0.67298 0.94227 0.39322
 N378 N 0.67796 0.97488 0.37782
 C379 C 0.68690 0.99912 0.40171
 C380 C 0.66817 0.90862 0.37679
 C381 C 0.65425 0.90725 0.34382
 C382 C 0.65873 0.87774 0.32285
 C383 C 0.64116 0.88814 0.29310
 C384 C 0.62591 0.92350 0.29701
 N385 N 0.63383 0.93474 0.32801
 C386 C 0.60358 0.94431 0.27327
 C387 C 0.59361 0.98141 0.27818
 C388 C 0.55968 0.99945 0.26452
 C389 C 0.56384 1.03569 0.27196
 C390 C 0.60098 1.03867 0.28891
 N391 N 0.61868 1.00525 0.29334
 C392 C 0.62006 1.07152 0.29847
 C393 C 0.65060 1.07078 0.32331
 C394 C 0.68223 1.09574 0.32641
 C395 C 0.70477 1.08527 0.35360
 C396 C 0.68582 1.05457 0.36677
 N397 N 0.65324 1.04551 0.34772
 C398 C 0.69805 1.03585 0.39585
 H399 H 0.69250 0.99421 0.45605
 H400 H 0.67544 0.92512 0.44575
 H401 H 0.63191 1.02499 0.35264
 H402 H 0.67372 0.85172 0.32820
 H403 H 0.63991 0.87149 0.27124
 H404 H 0.53445 0.98756 0.25086
 H405 H 0.54168 1.05711 0.26580
 H406 H 0.73271 1.09834 0.36192
 H407 H 0.62307 0.95892 0.33862
 H408 H 0.68936 1.11832 0.31010
 O409 O 0.83488 0.79662 0.46898
 O410 O 0.77211 0.85371 0.52692
 O411 O 0.83840 0.81423 0.52990
 O412 O 0.77070 0.84241 0.46247
 O413 O 0.72977 0.79568 0.47184
 O414 O 0.79960 0.76639 0.54094
 O415 O 0.73172 0.80649 0.53594
 O416 O 0.79346 0.75045 0.47950
 Cu417 Cu 0.80746 0.83159 0.49562
 Cu418 Cu 0.75929 0.77529 0.50791
 C419 C 0.82549 0.76309 0.46570
 C420 C 0.74174 0.83915 0.54194
 C421 C 0.83151 0.78556 0.54655
 C422 C 0.73868 0.82440 0.45548
 O423 O 0.21715 0.15215 0.52288
 O424 O 0.14727 0.18048 0.45653
 O425 O 0.21128 0.13748 0.46119
 O426 O 0.15448 0.19828 0.51863
 O427 O 0.19795 0.24259 0.50673
 O428 O 0.25170 0.18374 0.44832
 O429 O 0.18701 0.22757 0.44496
 O430 O 0.25987 0.19669 0.50991
 Cu431 Cu 0.17803 0.16270 0.49121
 Cu432 Cu 0.22814 0.21735 0.47613
 C433 C 0.25100 0.16868 0.52707
 C434 C 0.15496 0.20872 0.43951
 C435 C 0.24169 0.15056 0.44530
 C436 C 0.16708 0.23078 0.52258
 O437 O 0.14497 0.80820 0.54481
 O438 O 0.17842 0.85812 0.47102
 O439 O 0.14583 0.79916 0.48439
 O440 O 0.18151 0.87366 0.53700
 O441 O 0.24340 0.84808 0.54233
 O442 O 0.20852 0.77411 0.48687
 O443 O 0.24258 0.83752 0.47762
 O444 O 0.20778 0.78398 0.54975
 Cu445 Cu 0.15754 0.83913 0.51001
 Cu446 Cu 0.23209 0.80885 0.51475
 C447 C 0.17008 0.78594 0.55873
 C448 C 0.21554 0.85513 0.46090
 C449 C 0.17119 0.77382 0.47661
 C450 C 0.21771 0.87349 0.54927
 O451 O 0.85186 0.19640 0.52237
 O452 O 0.81233 0.12464 0.47042
 O453 O 0.84178 0.19093 0.45934
 O454 O 0.80863 0.13744 0.53288
 O455 O 0.74878 0.16743 0.53027
 O456 O 0.77984 0.21725 0.45723
 O457 O 0.75055 0.15137 0.46859
 O458 O 0.79160 0.22572 0.52053
 Cu459 Cu 0.83459 0.15952 0.49617
 Cu460 Cu 0.76191 0.19326 0.49366
 C461 C 0.82896 0.22310 0.53067
 C462 C 0.77468 0.12453 0.46195
 C463 C 0.81639 0.21405 0.44647
 C464 C 0.77237 0.14405 0.54402
 O465 O 0.43960 0.87708 0.83295
 O466 O 0.52001 0.81780 0.86997
 O467 O 0.52062 0.87492 0.83230
 O468 O 0.44069 0.81751 0.86936
 O469 O 0.43735 0.78635 0.82306
 O470 O 0.52269 0.84112 0.78749
 O471 O 0.51827 0.78303 0.82574
 O472 O 0.44225 0.84579 0.78667
 Cu473 Cu 0.48001 0.85048 0.85546
 Cu474 Cu 0.48007 0.81053 0.80125
 C475 C 0.42793 0.87225 0.80344
 C476 C 0.53214 0.78975 0.85436
 C477 C 0.53570 0.86794 0.80408
 C478 C 0.42547 0.79194 0.85248
 O479 O 0.54983 0.19443 0.14651
 O480 O 0.47911 0.13260 0.19216
 O481 O 0.46881 0.17472 0.14335
 O482 O 0.55354 0.14611 0.19757
 O483 O 0.54077 0.19302 0.23025
 O484 O 0.45706 0.22350 0.17389
 O485 O 0.46437 0.17912 0.22482
 O486 O 0.53556 0.23881 0.18136
 Cu487 Cu 0.51555 0.15883 0.16542
 Cu488 Cu 0.49772 0.21356 0.20552
 C489 C 0.55518 0.22687 0.15665
 C490 C 0.46097 0.14565 0.21737
 C491 C 0.44810 0.20357 0.14946
 C492 C 0.55985 0.16320 0.22417
 O493 O 0.48015 0.16670 0.87479
 O494 O 0.56621 0.13668 0.82267
 O495 O 0.56059 0.16505 0.88052
 O496 O 0.48687 0.13749 0.81645
 O497 O 0.48987 0.19292 0.79472
 O498 O 0.56329 0.22063 0.85911
 O499 O 0.56948 0.19190 0.80052
 O500 O 0.48222 0.22241 0.85365
 Cu501 Cu 0.52295 0.14608 0.85100
 Cu502 Cu 0.52628 0.21267 0.82494
 C503 C 0.46667 0.19943 0.87360
 C504 C 0.58211 0.15885 0.80227
 C505 C 0.57479 0.19725 0.88063
 C506 C 0.47686 0.16030 0.79402
 O507 O 0.46052 0.81474 0.11053
 O508 O 0.52133 0.88104 0.15800
 O509 O 0.53746 0.83563 0.11145
 O510 O 0.44381 0.86170 0.15713
 O511 O 0.46082 0.82311 0.19718
 O512 O 0.55016 0.79108 0.14722
 O513 O 0.53800 0.83844 0.19472
 O514 O 0.47129 0.77484 0.15081
 Cu515 Cu 0.48925 0.85246 0.13047
 Cu516 Cu 0.50659 0.80228 0.17605
 C517 C 0.45484 0.78349 0.12339
 C518 C 0.54009 0.87106 0.18418
 C519 C 0.55951 0.80876 0.12124
 C520 C 0.43705 0.84790 0.18537
 O521 O 0.85829 0.53309 0.79362
 O522 O 0.83942 0.46223 0.85507
 O523 O 0.86484 0.46231 0.79385
 O524 O 0.82212 0.53273 0.85079
 O525 O 0.76048 0.52339 0.82897
 O526 O 0.80161 0.45426 0.77464
 O527 O 0.77615 0.45391 0.83611
 O528 O 0.79599 0.52550 0.77227
 Cu529 Cu 0.85230 0.49810 0.82555
 Cu530 Cu 0.77750 0.48816 0.80099
 C531 C 0.83074 0.54169 0.77266
 C532 C 0.80504 0.44610 0.85653
 C533 C 0.83995 0.44692 0.77408
 C534 C 0.78359 0.54056 0.84842
 O535 O 0.13844 0.53531 0.20698
 O536 O 0.16006 0.46834 0.14190
 O537 O 0.12365 0.46621 0.19797
 O538 O 0.17405 0.53730 0.14783
 O539 O 0.23306 0.52595 0.17379
 O540 O 0.18484 0.45032 0.21840
 O541 O 0.22200 0.45709 0.16326
 O542 O 0.19735 0.51999 0.23141
 Cu543 Cu 0.14294 0.50371 0.17150
 Cu544 Cu 0.21532 0.48734 0.19939
 C545 C 0.16378 0.53851 0.23071
 C546 C 0.19466 0.45136 0.14145
 C547 C 0.14627 0.44498 0.21535
 C548 C 0.21228 0.54342 0.15217
 O549 O 0.85566 0.55364 0.13382
 O550 O 0.87139 0.48549 0.19896
 O551 O 0.83100 0.48688 0.14197
 O552 O 0.88563 0.55585 0.19291
 O553 O 0.82471 0.57482 0.21144
 O554 O 0.77204 0.50566 0.16419
 O555 O 0.81232 0.50216 0.22202
 O556 O 0.79497 0.56999 0.15466
 Cu557 Cu 0.86690 0.51846 0.16503
 Cu558 Cu 0.79577 0.53861 0.19146
 C559 C 0.82301 0.57327 0.13279
 C560 C 0.84491 0.48212 0.22171
 C561 C 0.79157 0.48546 0.14415
 C562 C 0.86365 0.57809 0.20978
 O563 O 0.14766 0.51658 0.86217
 O564 O 0.12549 0.44649 0.80083
 O565 O 0.15474 0.44501 0.86048
 O566 O 0.12031 0.51659 0.80238
 O567 O 0.18451 0.52001 0.78380
 O568 O 0.21891 0.44792 0.84187
 O569 O 0.18959 0.44955 0.78202
 O570 O 0.21234 0.51940 0.84469
 Cu571 Cu 0.13077 0.48065 0.83367
 Cu572 Cu 0.20791 0.48469 0.81139
 C573 C 0.18350 0.53023 0.86377
 C574 C 0.15327 0.43665 0.78050
 C575 C 0.19227 0.43401 0.86101
 C576 C 0.14665 0.53002 0.78268
 N577 N 0.17429 0.41547 0.09433
 N578 N 0.19097 0.39306 0.07244
 C579 C 0.23120 0.38860 0.08079
 C580 C 0.23883 0.40905 0.10847
 N581 N 0.20251 0.42547 0.11599
 H582 H 0.26816 0.41316 0.12075
 N583 N 0.84783 0.60618 0.08494
 N584 N 0.83341 0.62728 0.06083
 C585 C 0.79301 0.63369 0.06736
 C586 C 0.78294 0.61575 0.09624
 N587 N 0.81806 0.59887 0.10631
 H588 H 0.75264 0.61298 0.10735
 N589 N 0.83113 0.40488 0.89869
 N590 N 0.81764 0.38419 0.92317
 C591 C 0.77596 0.38515 0.92163
 C592 C 0.76411 0.40730 0.89538
 N593 N 0.79965 0.41901 0.88174
 H594 H 0.73311 0.41603 0.88845
 N595 N 0.16119 0.57934 0.89986
 N596 N 0.17699 0.60272 0.92104
 C597 C 0.21826 0.59643 0.92176
 C598 C 0.22733 0.56834 0.90018
 N599 N 0.19088 0.55856 0.88707
 H600 H 0.25711 0.55548 0.89537
 N601 N 0.10376 0.19521 0.39812
 N602 N 0.07643 0.21250 0.37917
 C603 C 0.08242 0.24859 0.38326
 C604 C 0.11433 0.25300 0.40549
 N605 N 0.12680 0.21899 0.41395
 H606 H 0.12497 0.27808 0.41645
 N607 N 0.17715 0.73332 0.59539
 N608 N 0.15339 0.71203 0.61369
 C609 C 0.11482 0.72683 0.61317
 C610 C 0.11602 0.75838 0.59421
 N611 N 0.15526 0.76124 0.58344
 H612 H 0.09065 0.77680 0.58791
 N613 N 0.84660 0.70240 0.44881
 N614 N 0.87566 0.68543 0.43151
 C615 C 0.90033 0.71144 0.41890
 C616 C 0.88543 0.74525 0.42925
 N617 N 0.85166 0.73824 0.44773
 H618 H 0.89765 0.77201 0.42373
 N619 N 0.82544 0.27945 0.56264
 N620 N 0.84945 0.29836 0.58262
 C621 C 0.88628 0.28039 0.58436
 C622 C 0.88398 0.24979 0.56498
 N623 N 0.84571 0.25024 0.55184
 H624 H 0.90746 0.22876 0.56139
 N625 N 0.43388 0.13144 0.27084
 N626 N 0.41284 0.10604 0.28646
 C627 C 0.40423 0.07981 0.26441
 C628 C 0.42112 0.08998 0.23433
 N629 N 0.43899 0.12258 0.23961
 H630 H 0.41890 0.07624 0.21090
 N631 N 0.62524 0.16332 0.75313
 N632 N 0.64565 0.14082 0.73323
 C633 C 0.64573 0.10744 0.74769
 C634 C 0.62560 0.11054 0.77748
 N635 N 0.61273 0.14551 0.77972
 H636 H 0.61815 0.08887 0.79471
 N637 N 0.37774 0.92219 0.80577
 N638 N 0.35954 0.94606 0.78562
 C639 C 0.36977 0.93620 0.75469
 C640 C 0.39518 0.90560 0.75650
 N641 N 0.39931 0.89776 0.78879
 H642 H 0.41228 0.89273 0.73668
 N643 N 0.57583 0.92856 0.18949
 N644 N 0.59343 0.94844 0.21255
 C645 C 0.59204 0.92892 0.24089
 C646 C 0.57300 0.89616 0.23439
 N647 N 0.56341 0.89717 0.20210
 H648 H 0.56449 0.87491 0.25170
 N649 N 0.42279 0.18806 0.92034
 N650 N 0.39955 0.20598 0.94174
 C651 C 0.39651 0.24093 0.93104
 C652 C 0.41880 0.24381 0.90191
 N653 N 0.43506 0.21016 0.89646
 H654 H 0.42578 0.26837 0.88806
 N655 N 0.57155 0.73279 0.85698
 N656 N 0.59805 0.71558 0.87676
 C657 C 0.60441 0.73757 0.90282
 C658 C 0.58107 0.76910 0.89822
 N659 N 0.56109 0.76492 0.86940
 H660 H 0.57944 0.79300 0.91375
 N661 N 0.40905 0.73234 0.12510
 N662 N 0.38809 0.71113 0.10520
 C663 C 0.39427 0.72299 0.07398
 C664 C 0.41993 0.75325 0.07572
 N665 N 0.42835 0.75774 0.10803
 H666 H 0.43379 0.76871 0.05591
 N667 N 0.59443 0.28247 0.15309
 N668 N 0.61957 0.29974 0.13278
 C669 C 0.62467 0.27852 0.10595
 C670 C 0.60182 0.24698 0.11097
 N671 N 0.58343 0.25083 0.14051
 H672 H 0.59938 0.22330 0.09531
 N673 N 0.31648 0.16908 0.55711
 N674 N 0.33711 0.14823 0.57853
 C675 C 0.31284 0.11937 0.58534
 C676 C 0.27647 0.12347 0.56798
 N677 N 0.28001 0.15466 0.55066
 H678 H 0.25007 0.10551 0.56785
 N679 N 0.77495 0.05950 0.45235
 N680 N 0.75428 0.03476 0.43569
 C681 C 0.72449 0.05285 0.41853
 C682 C 0.72720 0.08973 0.42584
 N683 N 0.75925 0.09253 0.44667
 H684 H 0.70789 0.11223 0.41711
 N685 N 0.68340 0.84730 0.57908
 N686 N 0.66992 0.86984 0.60222
 C687 C 0.69762 0.89700 0.60444
 C688 C 0.72871 0.89027 0.58150
 N689 N 0.71849 0.85910 0.56620
 H690 H 0.75646 0.90585 0.57706
 N691 N 0.20176 0.86970 0.40345
 N692 N 0.21962 0.88618 0.37811
 C693 C 0.25693 0.89773 0.38852
 C694 C 0.26144 0.88732 0.42125
 N695 N 0.22628 0.87029 0.42954
 H696 H 0.28719 0.89235 0.43762
 N697 N 0.16869 0.39997 0.73190
 N698 N 0.14844 0.38048 0.70986
 C699 C 0.10810 0.38032 0.71893
 C700 C 0.10472 0.39995 0.74783
 N701 N 0.14286 0.41184 0.75485
 H702 H 0.07732 0.40524 0.76250
 N703 N 0.18115 0.57444 0.27921
 N704 N 0.16281 0.59733 0.29998
 C705 C 0.12270 0.60102 0.29066
 C706 C 0.11736 0.57907 0.26323
 N707 N 0.15433 0.56333 0.25691
 H708 H 0.08910 0.57342 0.24999
 N709 N 0.82305 0.44003 0.26536
 N710 N 0.83959 0.41387 0.28422
 C711 C 0.88066 0.41196 0.27748
 C712 C 0.88846 0.43859 0.25385
 N713 N 0.85201 0.45508 0.24688
 H714 H 0.91783 0.44642 0.24330
 N715 N 0.83424 0.60573 0.75964
 N716 N 0.85782 0.62734 0.74152
 C717 C 0.87901 0.60586 0.72035
 C718 C 0.86683 0.57016 0.72595
 N719 N 0.83884 0.57126 0.75055
 H720 H 0.87881 0.54544 0.71475
 N721 N 0.73092 0.58649 0.85523
 N722 N 0.71976 0.61309 0.87515
 C723 C 0.74776 0.61389 0.89984
 C724 C 0.77728 0.58658 0.89395
 N725 N 0.76523 0.57029 0.86592
 H726 H 0.80512 0.57987 0.90768
 N727 N 0.17865 0.39352 0.90677
 N728 N 0.19913 0.37359 0.92877
 C729 C 0.23940 0.37319 0.91970
 C730 C 0.24303 0.39414 0.89136
 N731 N 0.20437 0.40644 0.88435
 H732 H 0.27122 0.40291 0.87939
 N733 N 0.26117 0.59207 0.14464
 N734 N 0.27919 0.61020 0.12046
 C735 C 0.26215 0.59922 0.09178
 C736 C 0.23217 0.57365 0.09962
 N737 N 0.23269 0.57028 0.13269
 H738 H 0.21503 0.55618 0.08333
 N739 N 0.72714 0.45906 0.12707
 N740 N 0.71226 0.43512 0.10613
 C741 C 0.74464 0.42204 0.08871
 C742 C 0.78039 0.43856 0.09996
 N743 N 0.76783 0.46148 0.12400
 H744 H 0.81204 0.43378 0.09212
 N745 N 0.89502 0.79472 0.57575
 N746 N 0.92252 0.77634 0.59355
 C747 C 0.90628 0.74332 0.60023
 C748 C 0.86716 0.74221 0.58592
 N749 N 0.86176 0.77483 0.57062
 H750 H 0.84685 0.71902 0.58392
 N751 N 0.80744 0.26810 0.41230
 N752 N 0.83067 0.29142 0.39576
 C753 C 0.86981 0.27779 0.39540
 C754 C 0.86858 0.24359 0.41075
 N755 N 0.82976 0.23932 0.42172
 H756 H 0.89271 0.22308 0.41360
 N757 N 0.16211 0.28687 0.55347
 N758 N 0.13737 0.30344 0.57475
 C759 C 0.10513 0.28107 0.57989
 C760 C 0.11093 0.24997 0.56126
 N761 N 0.14689 0.25482 0.54517
 H762 H 0.09128 0.22629 0.55971
 N763 N 0.17970 0.71581 0.44770
 N764 N 0.15713 0.69342 0.42974
 C765 C 0.11835 0.70785 0.42745
 C766 C 0.11889 0.74103 0.44383
 N767 N 0.15712 0.74451 0.45646
 H768 H 0.09497 0.76197 0.44496
 N769 N 0.58064 0.91944 0.80860
 N770 N 0.60339 0.94102 0.79005
 C771 C 0.60451 0.92667 0.75950
 C772 C 0.58151 0.89475 0.76014
 N773 N 0.56680 0.89174 0.79126
 H774 H 0.57280 0.87782 0.73958
 N775 N 0.36717 0.87229 0.19114
 N776 N 0.34509 0.89114 0.21282
 C777 C 0.36775 0.89247 0.24068
 C778 C 0.40457 0.87368 0.23538
 N779 N 0.40286 0.86146 0.20424
 H780 H 0.43169 0.87282 0.25109
 N781 N 0.59721 0.16280 0.27638
 N782 N 0.61286 0.13824 0.29728
 C783 C 0.60997 0.10516 0.28282
 C784 C 0.59337 0.11070 0.25179
 N785 N 0.58559 0.14671 0.24889
 H786 H 0.58646 0.09061 0.23322
 N787 N 0.44684 0.16876 0.73973
 N788 N 0.42606 0.15007 0.71757
 C789 C 0.41807 0.11680 0.73067
 C790 C 0.43481 0.11611 0.76222
 N791 N 0.45233 0.14890 0.76671
 H792 H 0.43334 0.09472 0.78069
 N793 N 0.61740 0.82286 0.08581
 N794 N 0.64360 0.80597 0.06581
 C795 C 0.63781 0.76982 0.06997
 C796 C 0.60696 0.76498 0.09314
 N797 N 0.59526 0.79881 0.10245
 H798 H 0.59171 0.73984 0.09989
 N799 N 0.39436 0.18952 0.11016
 N800 N 0.37006 0.20662 0.08863
 C801 C 0.37491 0.24276 0.09335
 C802 C 0.40318 0.24737 0.11845
 N803 N 0.41446 0.21345 0.12823
 H804 H 0.41738 0.27251 0.12626
 N805 N 0.61828 0.18397 0.92813
 N806 N 0.64136 0.20133 0.94977
 C807 C 0.64172 0.23677 0.94040
 C808 C 0.61777 0.24073 0.91239
 N809 N 0.60370 0.20713 0.90563
 H810 H 0.60928 0.26578 0.89956
 N811 N 0.36223 0.75623 0.85161
 N812 N 0.34029 0.73549 0.87183
 C813 C 0.36007 0.73468 0.90120
 C814 C 0.39489 0.75613 0.89823
 N815 N 0.39501 0.76890 0.86709
 H816 H 0.41881 0.76077 0.91637
 N817 N 0.67727 0.82253 0.41958
 N818 N 0.65779 0.84427 0.39803
 C819 C 0.68117 0.87437 0.39432
 C820 C 0.71578 0.87005 0.41397
 N821 N 0.71210 0.83771 0.42953
 H822 H 0.74005 0.88966 0.41811
 N823 N 0.20244 0.92841 0.58029
 N824 N 0.22075 0.95195 0.59993
 C825 C 0.26019 0.94017 0.60396
 C826 C 0.26573 0.90861 0.58569
 N827 N 0.22879 0.90229 0.57131
 H828 H 0.29394 0.89274 0.58225
 N829 N 0.30211 0.13816 0.41204
 N830 N 0.31751 0.11258 0.39261
 C831 C 0.29022 0.08498 0.39263
 C832 C 0.25732 0.09444 0.41275
 N833 N 0.26606 0.12790 0.42421
 H834 H 0.22922 0.07942 0.41739
 N835 N 0.72587 0.13938 0.58989
 N836 N 0.71496 0.11622 0.61324
 C837 C 0.73986 0.08652 0.61044
 C838 C 0.76703 0.09233 0.58457
 N839 N 0.75705 0.12578 0.57256
 H840 H 0.79066 0.07400 0.57500
 N841 N 0.86267 0.63916 0.23233
 N842 N 0.88451 0.65963 0.25250
 C843 C 0.91915 0.64034 0.26012
 C844 C 0.91808 0.60739 0.24359
 N845 N 0.88224 0.60778 0.22672
 H846 H 0.93929 0.58432 0.24595
 N847 N 0.83187 0.41202 0.72442
 N848 N 0.85381 0.39107 0.70441
 C849 C 0.89206 0.38762 0.71757
 C850 C 0.89283 0.40731 0.74657
 N851 N 0.85472 0.42208 0.74974
 H852 H 0.91833 0.41070 0.76355
 N853 N 0.15607 0.56484 0.73225
 N854 N 0.13451 0.58660 0.71228
 C855 C 0.09659 0.59128 0.72581
 C856 C 0.09580 0.57181 0.75511
 N857 N 0.13339 0.55568 0.75804
 H858 H 0.07069 0.56969 0.77266
 N859 N 0.14851 0.38235 0.23510
 N860 N 0.12488 0.35905 0.25129
 C861 C 0.08876 0.37666 0.25765
 C862 C 0.09075 0.41144 0.24440
 N863 N 0.12859 0.41387 0.23091
 H864 H 0.06807 0.43344 0.24614
   
