data_POSCAR
  _audit_creation_date              2014-09-24
  _audit_creation_method            'ToBaCCo'
  _symmetry_space_group_name_H-M    'P1'
  _symmetry_Int_Tables_number       1
  _symmetry_cell_setting            triclinic
  loop_
  _symmetry_equiv_pos_as_xyz
 x,y,z
_cell_length_a 72.5917
_cell_length_b 40.4569
_cell_length_c 23.0471
_cell_angle_alpha 90.081200
_cell_angle_beta 89.911400
_cell_angle_gamma 90.077600
loop_
  _atom_site_label
  _atom_site_type_symbol
  _atom_site_fract_x
  _atom_site_fract_y
  _atom_site_fract_z
C1 C 0.74952 0.25148 0.46841
 C2 C 0.74963 0.25123 0.52762
 C3 C 0.73364 0.26365 0.56165
 C4 C 0.76568 0.23854 0.56098
 C5 C 0.76425 0.23534 0.43387
 C6 C 0.73469 0.26823 0.43548
 C7 C 0.73620 0.28769 0.60446
 C8 C 0.72119 0.30045 0.63516
 C9 C 0.70290 0.28953 0.62414
 C10 C 0.70078 0.26431 0.58166
 C11 C 0.71587 0.25154 0.55149
 C12 C 0.78364 0.24949 0.54884
 C13 C 0.79867 0.23627 0.57851
 C14 C 0.79605 0.21245 0.62221
 C15 C 0.77796 0.20258 0.63591
 C16 C 0.76295 0.21545 0.60553
 C17 C 0.76841 0.20175 0.44164
 C18 C 0.78302 0.18729 0.41130
 C19 C 0.79371 0.20621 0.37274
 C20 C 0.78916 0.23957 0.36383
 C21 C 0.77447 0.25393 0.39381
 C22 C 0.72395 0.25023 0.39600
 C23 C 0.70925 0.26532 0.36741
 C24 C 0.70516 0.29888 0.37717
 C25 C 0.71639 0.31709 0.41535
 C26 C 0.73101 0.30191 0.44421
 H27 H 0.74990 0.29688 0.61388
 H28 H 0.72443 0.31796 0.66900
 H29 H 0.68748 0.25515 0.56832
 H30 H 0.71362 0.23251 0.51917
 H31 H 0.78605 0.26798 0.51576
 H32 H 0.81237 0.24429 0.56632
 H33 H 0.74920 0.20701 0.61625
 H34 H 0.76052 0.18692 0.47189
 H35 H 0.78628 0.16158 0.41916
 H36 H 0.79702 0.25456 0.33376
 H37 H 0.77138 0.27982 0.38699
 H38 H 0.72662 0.22422 0.38872
 H39 H 0.70077 0.25045 0.33890
 H40 H 0.71389 0.34312 0.42293
 H41 H 0.73937 0.31632 0.47382
 H42 H 0.77536 0.18492 0.67020
 C43 C 0.24951 0.75084 0.47217
 C44 C 0.24971 0.75063 0.53141
 C45 C 0.23530 0.76773 0.56590
 C46 C 0.26435 0.73338 0.56445
 C47 C 0.26533 0.73804 0.43770
 C48 C 0.23347 0.76392 0.43920
 C49 C 0.23178 0.80151 0.55779
 C50 C 0.21752 0.81698 0.58814
 C51 C 0.20651 0.79898 0.62726
 C52 C 0.21046 0.76535 0.63645
 C53 C 0.22480 0.74996 0.60635
 C54 C 0.27500 0.75092 0.60481
 C55 C 0.28948 0.73540 0.63378
 C56 C 0.29345 0.70185 0.62356
 C57 C 0.28233 0.68408 0.58439
 C58 C 0.26792 0.69970 0.55517
 C59 C 0.26232 0.71529 0.39272
 C60 C 0.27714 0.70247 0.36116
 C61 C 0.29532 0.71206 0.37406
 C62 C 0.29823 0.73551 0.41829
 C63 C 0.28339 0.74866 0.44918
 C64 C 0.21547 0.75330 0.45174
 C65 C 0.20045 0.76668 0.42220
 C66 C 0.20311 0.79034 0.37827
 C67 C 0.22122 0.79998 0.36433
 C68 C 0.23622 0.78694 0.39456
 H69 H 0.23998 0.81576 0.52747
 H70 H 0.21512 0.84306 0.58095
 H71 H 0.20214 0.75063 0.66566
 H72 H 0.22735 0.72388 0.61321
 H73 H 0.27243 0.77693 0.61255
 H74 H 0.29789 0.74995 0.66301
 H75 H 0.25963 0.68561 0.52490
 H76 H 0.24848 0.70710 0.38254
 H77 H 0.27432 0.68508 0.32654
 H78 H 0.31201 0.74328 0.42993
 H79 H 0.28603 0.76687 0.48264
 H80 H 0.21302 0.73490 0.48495
 H81 H 0.18674 0.75886 0.43460
 H82 H 0.22385 0.81753 0.32989
 H83 H 0.25000 0.79515 0.38357
 H84 H 0.28475 0.65808 0.57639
 C85 C 0.25015 0.24844 -0.52933
 C86 C 0.25042 0.24718 -0.47019
 C87 C 0.23559 0.23069 -0.43651
 C88 C 0.26562 0.26240 -0.43646
 C89 C 0.26621 0.26113 -0.56255
 C90 C 0.23395 0.23693 -0.56328
 C91 C 0.22615 0.24820 -0.39338
 C92 C 0.21160 0.23351 -0.36316
 C93 C 0.20613 0.20058 -0.37491
 C94 C 0.21624 0.18290 -0.41734
 C95 C 0.23077 0.19774 -0.44747
 C96 C 0.26969 0.29617 -0.44214
 C97 C 0.28449 0.31004 -0.41197
 C98 C 0.29545 0.29036 -0.37560
 C99 C 0.29109 0.25671 -0.36908
 C100 C 0.27621 0.24291 -0.39894
 C101 C 0.28369 0.24716 -0.55534
 C102 C 0.29895 0.26029 -0.58418
 C103 C 0.29719 0.28782 -0.62158
 C104 C 0.27929 0.30085 -0.62994
 C105 C 0.26406 0.28759 -0.60093
 C106 C 0.23630 0.21408 -0.60831
 C107 C 0.22110 0.20175 -0.63853
 C108 C 0.20296 0.21194 -0.62462
 C109 C 0.20093 0.23599 -0.58038
 C110 C 0.21619 0.24843 -0.55065
 H111 H 0.22967 0.27373 -0.38436
 H112 H 0.20419 0.24895 -0.33282
 H113 H 0.21348 0.15718 -0.42659
 H114 H 0.23826 0.18350 -0.47958
 H115 H 0.26152 0.31165 -0.47043
 H116 H 0.28761 0.33598 -0.41806
 H117 H 0.27318 0.21686 -0.39379
 H118 H 0.28553 0.22606 -0.52706
 H119 H 0.31198 0.24791 -0.57803
 H120 H 0.27692 0.32244 -0.65642
 H121 H 0.25064 0.29871 -0.60702
 H122 H 0.24995 0.20535 -0.61957
 H123 H 0.22387 0.18483 -0.67378
 H124 H 0.18755 0.24438 -0.56603
 H125 H 0.21409 0.26660 -0.51672
 H126 H 0.29918 0.24110 -0.34075
 C127 C -0.25028 0.74983 -0.47190
 C128 C -0.25033 0.74963 -0.53104
 C129 C -0.23420 0.76175 -0.56453
 C130 C -0.26639 0.73726 -0.56468
 C131 C -0.26524 0.73412 -0.43788
 C132 C -0.23522 0.76582 -0.43866
 C133 C -0.23626 0.78758 -0.60424
 C134 C -0.22095 0.80049 -0.63331
 C135 C -0.20307 0.78771 -0.62369
 C136 C -0.20139 0.76076 -0.58497
 C137 C -0.21673 0.74799 -0.55603
 C138 C -0.28417 0.74926 -0.55392
 C139 C -0.29929 0.73656 -0.58400
 C140 C -0.29709 0.71173 -0.62681
 C141 C -0.27894 0.70083 -0.63864
 C142 C -0.26388 0.71344 -0.60803
 C143 C -0.26896 0.70030 -0.44355
 C144 C -0.28360 0.68592 -0.41321
 C145 C -0.29508 0.70518 -0.37690
 C146 C -0.29087 0.73915 -0.37081
 C147 C -0.27603 0.75326 -0.40042
 C148 C -0.22462 0.74714 -0.39996
 C149 C -0.20969 0.76153 -0.37120
 C150 C -0.20523 0.79502 -0.38006
 C151 C -0.21631 0.81390 -0.41750
 C152 C -0.23116 0.79942 -0.44649
 H153 H -0.24968 0.79853 -0.61129
 H154 H -0.22327 0.82167 -0.66084
 H155 H -0.18836 0.74855 -0.57777
 H156 H -0.21496 0.72738 -0.52662
 H157 H -0.28640 0.76822 -0.52146
 H158 H -0.31270 0.74550 -0.57115
 H159 H -0.25020 0.70429 -0.61787
 H160 H -0.26068 0.68513 -0.47222
 H161 H -0.28636 0.66002 -0.42101
 H162 H -0.29862 0.75492 -0.34180
 H163 H -0.27318 0.77938 -0.39506
 H164 H -0.22757 0.72116 -0.39342
 H165 H -0.20133 0.74618 -0.34326
 H166 H -0.21353 0.83989 -0.42437
 H167 H -0.23941 0.81434 -0.47552
 H168 H -0.27602 0.68321 -0.67268
 N169 N -0.01972 0.94242 -0.06382
 N170 N -0.03390 0.92233 -0.07073
 N171 N 0.01907 0.96551 -0.10405
 N172 N 0.03349 0.96224 -0.13852
 N173 N 0.01914 0.94265 -0.06370
 N174 N 0.03366 0.92330 -0.06947
 N175 N -0.01965 0.96533 -0.10410
 N176 N -0.03371 0.96137 -0.13965
 C177 C -0.04248 0.93443 -0.11833
 C178 C 0.04245 0.93574 -0.11652
 N179 N 0.01907 1.05945 -0.06318
 N180 N 0.03354 1.07899 -0.06896
 N181 N -0.01969 1.03655 -0.10384
 N182 N -0.03378 1.04054 -0.13926
 N183 N -0.01978 1.05929 -0.06316
 N184 N -0.03401 1.07921 -0.06950
 N185 N 0.01904 1.03660 -0.10367
 N186 N 0.03344 1.04000 -0.13814
 Mn187 Mn -0.00031 1.00099 -0.10462
 C188 C 0.04234 1.06662 -0.11610
 C189 C -0.04260 1.06727 -0.11726
 N190 N 0.01906 0.94255 0.06106
 N191 N 0.03331 0.92267 0.06747
 N192 N -0.01983 0.96519 0.10147
 N193 N -0.03399 0.96117 0.13673
 N194 N -0.01974 0.94224 0.06114
 N195 N -0.03383 0.92195 0.06794
 N196 N 0.01892 0.96528 0.10177
 N197 N 0.03301 0.96133 0.13725
 Mn198 Mn -0.00032 0.94203 -0.00134
 C199 C 0.04186 0.93463 0.11530
 C200 C -0.04260 0.93405 0.11534
 N201 N -0.01988 1.05920 0.06153
 N202 N -0.03432 1.07872 0.06744
 N203 N 0.01890 1.03654 0.10207
 N204 N 0.03299 1.04062 0.13754
 N205 N 0.01894 1.05939 0.06167
 N206 N 0.03309 1.07953 0.06839
 N207 N -0.01985 1.03634 0.10189
 N208 N -0.03422 1.03979 0.13652
 Mn209 Mn -0.00041 1.05975 -0.00078
 Mn210 Mn -0.00046 1.00084 0.10254
 Cl211 Cl -0.00038 1.00090 -0.00104
 C212 C -0.04311 1.06639 0.11457
 C213 C 0.04172 1.06758 0.11599
 N214 N 0.51901 0.55828 -0.06561
 N215 N 0.53338 0.57799 -0.07192
 N216 N 0.48035 0.53446 -0.10608
 N217 N 0.46606 0.53736 -0.14104
 N218 N 0.48015 0.55778 -0.06644
 N219 N 0.46567 0.57708 -0.07316
 N220 N 0.51908 0.53506 -0.10546
 N221 N 0.53341 0.53851 -0.14027
 C222 C 0.54219 0.56544 -0.11885
 C223 C 0.45704 0.56412 -0.12004
 N224 N 0.48059 0.44093 -0.06226
 N225 N 0.46636 0.42087 -0.06806
 N226 N 0.51938 0.46388 -0.10285
 N227 N 0.53359 0.45969 -0.13787
 N228 N 0.51942 0.44154 -0.06159
 N229 N 0.53369 0.42162 -0.06730
 N230 N 0.48065 0.46329 -0.10349
 N231 N 0.46650 0.45897 -0.13858
 Mn232 Mn 0.49987 0.49916 -0.10520
 C233 C 0.45772 0.43237 -0.11601
 C234 C 0.54240 0.43320 -0.11518
 N235 N 0.47983 0.55934 0.05824
 N236 N 0.46550 0.57917 0.06370
 N237 N 0.51858 0.53757 0.10041
 N238 N 0.53268 0.54198 0.13569
 N239 N 0.51867 0.55988 0.05912
 N240 N 0.53288 0.57999 0.06502
 N241 N 0.47987 0.53706 0.09959
 N242 N 0.46565 0.54128 0.13458
 Mn243 Mn 0.49942 0.55924 -0.00371
 C244 C 0.45681 0.56765 0.11165
 C245 C 0.54147 0.56858 0.11311
 N246 N 0.51912 0.44311 0.06324
 N247 N 0.53350 0.42364 0.07056
 N248 N 0.48007 0.46588 0.10198
 N249 N 0.46585 0.46216 0.13712
 N250 N 0.48032 0.44241 0.06261
 N251 N 0.46628 0.42206 0.06992
 N252 N 0.51883 0.46641 0.10293
 N253 N 0.53296 0.46335 0.13846
 Mn254 Mn 0.49987 0.44157 0.00051
 Mn255 Mn 0.49933 0.50173 0.10195
 Cl256 Cl 0.49962 0.50043 -0.00161
 C257 C 0.54199 0.43651 0.11779
 C258 C 0.45737 0.43467 0.11663
 C259 C 0.34419 0.33176 0.29751
 C260 C 0.34605 0.31318 0.34849
 C261 C 0.33071 0.29864 0.37477
 C262 C 0.31288 0.30214 0.35091
 C263 C 0.31122 0.32074 0.29925
 C264 C 0.32662 0.33525 0.27309
 C265 C 0.36054 0.34755 0.27019
 C266 C 0.36266 0.34780 0.20955
 C267 C 0.37814 0.36241 0.18402
 C268 C 0.39185 0.37712 0.21853
 C269 C 0.38968 0.37698 0.27914
 C270 C 0.37421 0.36240 0.30465
 C271 C 0.40845 0.39226 0.19158
 C272 C 0.41590 0.42177 0.21381
 C273 C 0.43175 0.43562 0.18930
 C274 C 0.44047 0.42029 0.14199
 C275 C 0.43295 0.39101 0.11931
 C276 C 0.41712 0.37711 0.14387
 H277 H 0.35945 0.30980 0.36822
 H278 H 0.33300 0.28587 0.41528
 H279 H 0.29817 0.32345 0.27728
 H280 H 0.32470 0.34953 0.23386
 H281 H 0.35247 0.33630 0.18181
 H282 H 0.37930 0.36242 0.13717
 H283 H 0.40008 0.38775 0.30701
 H284 H 0.37288 0.36300 0.35144
 H285 H 0.40939 0.43434 0.24991
 H286 H 0.43717 0.45834 0.20744
 H287 H 0.43939 0.37865 0.08285
 H288 H 0.41187 0.35416 0.12618
 C289 C -0.15586 0.83095 0.29544
 C290 C -0.15414 0.81300 0.34715
 C291 C -0.16955 0.79867 0.37343
 C292 C -0.18730 0.80175 0.34879
 C293 C -0.18881 0.81968 0.29636
 C294 C -0.17335 0.83400 0.27025
 C295 C -0.13945 0.84662 0.26820
 C296 C -0.13717 0.84647 0.20761
 C297 C -0.12168 0.86107 0.18216
 C298 C -0.10810 0.87614 0.21671
 C299 C -0.11041 0.87634 0.27728
 C300 C -0.12591 0.86182 0.30269
 C301 C -0.09150 0.89135 0.18986
 C302 C -0.08415 0.92097 0.21200
 C303 C -0.06831 0.93489 0.18765
 C304 C -0.05950 0.91956 0.14051
 C305 C -0.06692 0.89019 0.11786
 C306 C -0.08273 0.87620 0.14234
 H307 H -0.14082 0.80994 0.36749
 H308 H -0.16738 0.78644 0.41450
 H309 H -0.20177 0.82201 0.27379
 H310 H -0.17516 0.84781 0.23045
 H311 H -0.14725 0.83468 0.17984
 H312 H -0.12042 0.86081 0.13535
 H313 H -0.10011 0.88737 0.30520
 H314 H -0.12736 0.86275 0.34943
 H315 H -0.09075 0.93357 0.24792
 H316 H -0.06297 0.95769 0.20572
 H317 H -0.06039 0.87783 0.08155
 H318 H -0.08789 0.85316 0.12472
 C319 C 0.65617 0.66964 0.28768
 C320 C 0.65522 0.70129 0.31244
 C321 C 0.67054 0.71528 0.33972
 C322 C 0.68742 0.69797 0.34368
 C323 C 0.68823 0.66622 0.31795
 C324 C 0.67290 0.65242 0.29040
 C325 C 0.63968 0.65446 0.25999
 C326 C 0.63598 0.62055 0.26654
 C327 C 0.62031 0.60638 0.24156
 C328 C 0.60787 0.62580 0.20974
 C329 C 0.61163 0.65968 0.20289
 C330 C 0.62736 0.67381 0.22753
 C331 C 0.59092 0.61088 0.18451
 C332 C 0.58428 0.62124 0.13018
 C333 C 0.56819 0.60754 0.10702
 C334 C 0.55848 0.58304 0.13747
 C335 C 0.56515 0.57243 0.19144
 C336 C 0.58114 0.58630 0.21483
 H337 H 0.64251 0.71524 0.31144
 H338 H 0.66903 0.74018 0.35602
 H339 H 0.70039 0.65095 0.32083
 H340 H 0.67419 0.62807 0.27126
 H341 H 0.64503 0.60497 0.29183
 H342 H 0.61800 0.58013 0.24703
 H343 H 0.60224 0.67547 0.17924
 H344 H 0.62991 0.69991 0.22094
 H345 H 0.59162 0.63969 0.10519
 H346 H 0.56343 0.61599 0.06507
 H347 H 0.55790 0.55365 0.21594
 H348 H 0.58567 0.57812 0.25717
 C349 C 0.15589 1.16957 0.29221
 C350 C 0.17280 1.15284 0.29279
 C351 C 0.18823 1.16676 0.31955
 C352 C 0.18735 1.19813 0.34664
 C353 C 0.17028 1.21495 0.34493
 C354 C 0.15486 1.20085 0.31839
 C355 C 0.13935 1.15431 0.26505
 C356 C 0.12669 1.17372 0.23407
 C357 C 0.11100 1.15944 0.20945
 C358 C 0.10762 1.12535 0.21486
 C359 C 0.12036 1.10589 0.24544
 C360 C 0.13599 1.12021 0.27037
 C361 C 0.09081 1.11021 0.18912
 C362 C 0.08130 1.08487 0.21835
 C363 C 0.06543 1.07085 0.19439
 C364 C 0.05864 1.08204 0.14094
 C365 C 0.06810 1.10726 0.11157
 C366 C 0.08406 1.12112 0.13528
 H367 H 0.17415 1.12880 0.27251
 H368 H 0.20056 1.15184 0.32074
 H369 H 0.16868 1.23956 0.36245
 H370 H 0.14201 1.21441 0.31902
 H371 H 0.12896 1.19998 0.22849
 H372 H 0.10137 1.17524 0.18682
 H373 H 0.11832 1.07950 0.24982
 H374 H 0.14532 1.10458 0.29455
 H375 H 0.08595 1.07622 0.26027
 H376 H 0.05836 1.05149 0.21805
 H377 H 0.06325 1.11618 0.07004
 H378 H 0.09120 1.14015 0.11110
 C379 C 0.65675 0.33159 -0.29071
 C380 C 0.67384 0.34773 -0.29050
 C381 C 0.68913 0.33381 -0.31815
 C382 C 0.68799 0.30292 -0.34731
 C383 C 0.67060 0.28678 -0.34613
 C384 C 0.65536 0.30091 -0.31861
 C385 C 0.64037 0.34690 -0.26271
 C386 C 0.62753 0.32738 -0.23245
 C387 C 0.61188 0.34166 -0.20751
 C388 C 0.60872 0.37585 -0.21198
 C389 C 0.62168 0.39542 -0.24165
 C390 C 0.63728 0.38112 -0.26681
 C391 C 0.59186 0.39093 -0.18656
 C392 C 0.58253 0.41636 -0.21588
 C393 C 0.56654 0.43024 -0.19247
 C394 C 0.55945 0.41884 -0.13944
 C395 C 0.56875 0.39355 -0.10992
 C396 C 0.58481 0.37980 -0.13315
 H397 H 0.67544 0.37137 -0.26898
 H398 H 0.70144 0.34878 -0.31852
 H399 H 0.66849 0.26245 -0.36417
 H400 H 0.64236 0.28778 -0.31975
 H401 H 0.62960 0.30102 -0.22781
 H402 H 0.60209 0.32579 -0.18555
 H403 H 0.61981 0.42188 -0.24526
 H404 H 0.64677 0.39683 -0.29037
 H405 H 0.58740 0.42518 -0.25751
 H406 H 0.55962 0.44965 -0.21624
 H407 H 0.56367 0.38447 -0.06871
 H408 H 0.59181 0.36064 -0.10897
 C409 C 0.15963 0.84337 -0.28802
 C410 C 0.17071 0.82053 -0.25837
 C411 C 0.18609 0.80656 -0.28541
 C412 C 0.19065 0.81491 -0.34291
 C413 C 0.17961 0.83799 -0.37232
 C414 C 0.16433 0.85215 -0.34509
 C415 C 0.14298 0.85745 -0.26010
 C416 C 0.13898 0.89127 -0.26507
 C417 C 0.12300 0.90433 -0.24021
 C418 C 0.11056 0.88379 -0.21026
 C419 C 0.11469 0.84997 -0.20496
 C420 C 0.13075 0.83698 -0.22941
 C421 C 0.09321 0.89744 -0.18562
 C422 C 0.08620 0.88575 -0.13250
 C423 C 0.06968 0.89813 -0.11009
 C424 C 0.05989 0.92261 -0.14010
 C425 C 0.06692 0.93456 -0.19282
 C426 C 0.08335 0.92202 -0.21547
 H427 H 0.16752 0.81366 -0.21407
 H428 H 0.19447 0.78933 -0.26115
 H429 H 0.18249 0.84451 -0.41696
 H430 H 0.15588 0.86935 -0.36922
 H431 H 0.14831 0.90767 -0.28786
 H432 H 0.12044 0.93059 -0.24415
 H433 H 0.10528 0.83333 -0.18309
 H434 H 0.13339 0.81073 -0.22560
 H435 H 0.09358 0.86725 -0.10789
 H436 H 0.06465 0.88868 -0.06907
 H437 H 0.05962 0.95338 -0.21693
 H438 H 0.08816 0.93120 -0.25692
 C439 C 0.34050 0.65703 -0.29400
 C440 C 0.33571 0.64853 -0.35112
 C441 C 0.32037 0.66282 -0.37764
 C442 C 0.30938 0.68575 -0.34746
 C443 C 0.31403 0.69378 -0.28990
 C444 C 0.32947 0.67969 -0.26358
 C445 C 0.35720 0.64286 -0.26673
 C446 C 0.36942 0.66322 -0.23577
 C447 C 0.38542 0.65012 -0.21133
 C448 C 0.38951 0.61628 -0.21684
 C449 C 0.37714 0.59587 -0.24735
 C450 C 0.36122 0.60905 -0.27224
 C451 C 0.40670 0.60248 -0.19148
 C452 C 0.41664 0.57772 -0.22080
 C453 C 0.43293 0.56510 -0.19739
 C454 C 0.43971 0.57716 -0.14443
 C455 C 0.42981 0.60178 -0.11493
 C456 C 0.41344 0.61421 -0.13807
 H457 H 0.34412 0.63145 -0.37581
 H458 H 0.31740 0.65652 -0.42233
 H459 H 0.30569 0.71086 -0.26502
 H460 H 0.33272 0.68633 -0.21921
 H461 H 0.36679 0.68946 -0.23159
 H462 H 0.39478 0.66669 -0.18911
 H463 H 0.37967 0.56961 -0.25155
 H464 H 0.35191 0.59274 -0.29529
 H465 H 0.41203 0.56847 -0.26242
 H466 H 0.44032 0.54616 -0.22111
 H467 H 0.43464 0.61131 -0.07373
 H468 H 0.40597 0.63281 -0.11378
 C469 C -0.15689 1.16869 -0.29282
 C470 C -0.15672 1.20219 -0.30902
 C471 C -0.17204 1.21650 -0.33561
 C472 C -0.18787 1.19758 -0.34743
 C473 C -0.18807 1.16411 -0.33101
 C474 C -0.17284 1.14992 -0.30373
 C475 C -0.14042 1.15329 -0.26546
 C476 C -0.13562 1.12037 -0.27795
 C477 C -0.12005 1.10602 -0.25288
 C478 C -0.10871 1.12433 -0.21524
 C479 C -0.11352 1.15725 -0.20272
 C480 C -0.12923 1.17146 -0.22719
 C481 C -0.09185 1.10931 -0.18969
 C482 C -0.08615 1.11765 -0.13318
 C483 C -0.07011 1.10408 -0.10976
 C484 C -0.05956 1.08151 -0.14196
 C485 C -0.06531 1.07275 -0.19800
 C486 C -0.08119 1.08668 -0.22179
 H487 H -0.14462 1.21735 -0.30208
 H488 H -0.17147 1.24246 -0.34676
 H489 H -0.19989 1.14862 -0.34008
 H490 H -0.17361 1.12421 -0.29107
 H491 H -0.14373 1.10571 -0.30783
 H492 H -0.11698 1.08047 -0.26287
 H493 H -0.10501 1.17230 -0.17460
 H494 H -0.13262 1.19670 -0.21581
 H495 H -0.09417 1.13443 -0.10670
 H496 H -0.06606 1.11100 -0.06618
 H497 H -0.05736 1.05551 -0.22385
 H498 H -0.08493 1.08011 -0.26577
 C499 C 0.65817 0.66254 -0.29300
 C500 C 0.67382 0.64336 -0.30529
 C501 C 0.68914 0.65724 -0.33288
 C502 C 0.68948 0.69103 -0.34823
 C503 C 0.67379 0.71023 -0.33484
 C504 C 0.65838 0.69614 -0.30823
 C505 C 0.64160 0.64755 -0.26522
 C506 C 0.63067 0.66599 -0.22655
 C507 C 0.61476 0.65234 -0.20212
 C508 C 0.60949 0.61968 -0.21496
 C509 C 0.62062 0.60102 -0.25274
 C510 C 0.63638 0.61483 -0.27786
 C511 C 0.59233 0.60535 -0.18980
 C512 C 0.58148 0.58315 -0.22216
 C513 C 0.56529 0.56993 -0.19882
 C514 C 0.55943 0.57904 -0.14304
 C515 C 0.57015 0.60121 -0.11059
 C516 C 0.58650 0.61403 -0.13351
 H517 H 0.67439 0.61759 -0.29285
 H518 H 0.70098 0.64151 -0.33983
 H519 H 0.67286 0.73590 -0.34751
 H520 H 0.64642 0.71155 -0.30097
 H521 H 0.63439 0.69106 -0.21493
 H522 H 0.60645 0.66768 -0.17389
 H523 H 0.61721 0.57561 -0.26294
 H524 H 0.64428 0.59996 -0.30797
 H525 H 0.58528 0.57636 -0.26600
 H526 H 0.55721 0.55299 -0.22485
 H527 H 0.56601 0.60836 -0.06718
 H528 H 0.59465 0.63049 -0.10680
 C529 C 0.15948 1.15830 -0.28958
 C530 C 0.16545 1.14602 -0.34331
 C531 C 0.18082 1.15959 -0.37103
 C532 C 0.19081 1.18600 -0.34580
 C533 C 0.18479 1.19775 -0.29112
 C534 C 0.16937 1.18417 -0.26367
 C535 C 0.14278 1.14456 -0.26126
 C536 C 0.12977 1.16567 -0.23542
 C537 C 0.11373 1.15286 -0.21046
 C538 C 0.11036 1.11863 -0.21059
 C539 C 0.12352 1.09750 -0.23571
 C540 C 0.13952 1.11033 -0.26088
 C541 C 0.09302 1.10508 -0.18571
 C542 C 0.08381 1.07884 -0.21333
 C543 C 0.06738 1.06633 -0.19056
 C544 C 0.05975 1.07988 -0.13982
 C545 C 0.06893 1.10602 -0.11201
 C546 C 0.08541 1.11847 -0.13468
 H547 H 0.15788 1.12647 -0.36487
 H548 H 0.18412 1.15016 -0.41368
 H549 H 0.19221 1.21677 -0.26788
 H550 H 0.16531 1.19366 -0.22159
 H551 H 0.13178 1.19219 -0.23579
 H552 H 0.10374 1.16985 -0.19230
 H553 H 0.12151 1.07097 -0.23559
 H554 H 0.14944 1.09343 -0.27970
 H555 H 0.08913 1.06829 -0.25316
 H556 H 0.06058 1.04619 -0.21297
 H557 H 0.06342 1.11677 -0.07258
 H558 H 0.09230 1.13838 -0.11191
 C559 C 0.34271 0.33271 -0.29037
 C560 C 0.32575 0.34950 -0.29068
 C561 C 0.31040 0.33572 -0.31814
 C562 C 0.31162 0.30476 -0.34550
 C563 C 0.32848 0.28781 -0.34476
 C564 C 0.34387 0.30167 -0.31769
 C565 C 0.35920 0.34769 -0.26249
 C566 C 0.37186 0.32791 -0.23220
 C567 C 0.38762 0.34185 -0.20743
 C568 C 0.39107 0.37595 -0.21208
 C569 C 0.37829 0.39579 -0.24170
 C570 C 0.36258 0.38182 -0.26674
 C571 C 0.40807 0.39066 -0.18693
 C572 C 0.41757 0.41589 -0.21643
 C573 C 0.43364 0.42952 -0.19320
 C574 C 0.44065 0.41807 -0.14020
 C575 C 0.43120 0.39292 -0.11055
 C576 C 0.41505 0.37942 -0.13359
 H577 H 0.32429 0.37317 -0.26922
 H578 H 0.29749 0.34912 -0.31747
 H579 H 0.32988 0.26413 -0.36628
 H580 H 0.35679 0.28835 -0.31923
 H581 H 0.36956 0.30161 -0.22743
 H582 H 0.39727 0.32578 -0.18549
 H583 H 0.38039 0.42220 -0.24541
 H584 H 0.35325 0.39773 -0.29030
 H585 H 0.41276 0.42476 -0.25802
 H586 H 0.44068 0.44883 -0.21706
 H587 H 0.43623 0.38380 -0.06936
 H588 H 0.40793 0.36041 -0.10928
 C589 C -0.15714 0.83735 -0.29857
 C590 C -0.16213 0.84638 -0.35530
 C591 C -0.17774 0.83277 -0.38151
 C592 C -0.18885 0.80998 -0.35152
 C593 C -0.18398 0.80121 -0.29456
 C594 C -0.16829 0.81466 -0.26847
 C595 C -0.14028 0.85136 -0.27125
 C596 C -0.13999 0.85935 -0.21182
 C597 C -0.12413 0.87259 -0.18637
 C598 C -0.10828 0.87839 -0.21988
 C599 C -0.10853 0.87037 -0.27916
 C600 C -0.12431 0.85688 -0.30450
 C601 C -0.09153 0.89293 -0.19330
 C602 C -0.08187 0.91827 -0.22183
 C603 C -0.06601 0.93188 -0.19720
 C604 C -0.05939 0.92021 -0.14380
 C605 C -0.06905 0.89493 -0.11515
 C606 C -0.08503 0.88152 -0.13955
 H607 H -0.15403 0.86414 -0.37948
 H608 H -0.18092 0.83974 -0.42570
 H609 H -0.19234 0.78402 -0.26997
 H610 H -0.16475 0.80687 -0.22498
 H611 H -0.15212 0.85592 -0.18512
 H612 H -0.12437 0.87891 -0.14070
 H613 H -0.09640 0.87411 -0.30580
 H614 H -0.12390 0.85038 -0.35007
 H615 H -0.08670 0.92779 -0.26297
 H616 H -0.05886 0.95141 -0.22016
 H617 H -0.06427 0.88554 -0.07385
 H618 H -0.09215 0.86185 -0.11687
 C619 C 0.34194 0.66855 0.28573
 C620 C 0.32599 0.64982 0.29690
 C621 C 0.31088 0.66395 0.32515
 C622 C 0.31121 0.69732 0.34235
 C623 C 0.32701 0.71622 0.33011
 C624 C 0.34221 0.70198 0.30253
 C625 C 0.35835 0.65315 0.25782
 C626 C 0.36955 0.67136 0.21959
 C627 C 0.38530 0.65722 0.19505
 C628 C 0.39015 0.62434 0.20750
 C629 C 0.37877 0.60595 0.24489
 C630 C 0.36315 0.62022 0.27001
 C631 C 0.40716 0.60947 0.18241
 C632 C 0.41778 0.58709 0.21492
 C633 C 0.43380 0.57328 0.19166
 C634 C 0.43973 0.58190 0.13573
 C635 C 0.42923 0.60425 0.10311
 C636 C 0.41305 0.61773 0.12603
 H637 H 0.32514 0.62417 0.28379
 H638 H 0.29907 0.64847 0.33447
 H639 H 0.32767 0.74212 0.34181
 H640 H 0.35431 0.71711 0.29539
 H641 H 0.36615 0.69660 0.20843
 H642 H 0.39383 0.67231 0.16706
 H643 H 0.38187 0.58041 0.25478
 H644 H 0.35504 0.60553 0.29983
 H645 H 0.41391 0.58062 0.25883
 H646 H 0.44170 0.55622 0.21784
 H647 H 0.43342 0.61107 0.05961
 H648 H 0.40507 0.63436 0.09929
 C649 C -0.15896 1.16333 0.28847
 C650 C -0.15796 1.19489 0.31395
 C651 C -0.17336 1.20885 0.34075
 C652 C -0.19011 1.19149 0.34315
 C653 C -0.19117 1.15994 0.31791
 C654 C -0.17579 1.14606 0.29063
 C655 C -0.14246 1.14845 0.26043
 C656 C -0.13877 1.11448 0.26583
 C657 C -0.12301 1.10071 0.24072
 C658 C -0.11047 1.12058 0.20990
 C659 C -0.11424 1.15450 0.20409
 C660 C -0.13006 1.16822 0.22883
 C661 C -0.09337 1.10618 0.18475
 C662 C -0.08648 1.11735 0.13114
 C663 C -0.07015 1.10444 0.10836
 C664 C -0.06042 1.07989 0.13844
 C665 C -0.06737 1.06837 0.19157
 C666 C -0.08362 1.08147 0.21461
 H667 H -0.14514 1.20862 0.31420
 H668 H -0.17208 1.23299 0.36072
 H669 H -0.20398 1.14618 0.31865
 H670 H -0.17714 1.12194 0.27067
 H671 H -0.14790 1.09858 0.29037
 H672 H -0.12068 1.07442 0.24536
 H673 H -0.10479 1.17063 0.18126
 H674 H -0.13260 1.19437 0.22306
 H675 H -0.09380 1.13591 0.10648
 H676 H -0.06519 1.11356 0.06702
 H677 H -0.06012 1.04950 0.21573
 H678 H -0.08834 1.07265 0.25639
 C679 C 0.65748 0.34285 0.29658
 C680 C 0.66258 0.35152 0.35344
 C681 C 0.67808 0.33745 0.37932
 C682 C 0.68899 0.31454 0.34886
 C683 C 0.68405 0.30622 0.29170
 C684 C 0.66846 0.32012 0.26594
 C685 C 0.64064 0.35708 0.26975
 C686 C 0.64027 0.36516 0.21040
 C687 C 0.62435 0.37820 0.18524
 C688 C 0.60852 0.38372 0.21896
 C689 C 0.60888 0.37581 0.27824
 C690 C 0.62473 0.36251 0.30330
 C691 C 0.59162 0.39758 0.19246
 C692 C 0.58173 0.42270 0.22084
 C693 C 0.56568 0.43551 0.19630
 C694 C 0.55910 0.42324 0.14321
 C695 C 0.56899 0.39819 0.11472
 C696 C 0.58515 0.38559 0.13899
 H697 H 0.65461 0.36930 0.37802
 H698 H 0.68132 0.34411 0.42366
 H699 H 0.69226 0.28898 0.26672
 H700 H 0.66484 0.31259 0.22233
 H701 H 0.65236 0.36182 0.18350
 H702 H 0.62450 0.38445 0.13957
 H703 H 0.59677 0.37937 0.30503
 H704 H 0.62438 0.35597 0.34881
 H705 H 0.58653 0.43263 0.26179
 H706 H 0.55835 0.45489 0.21911
 H707 H 0.56425 0.38834 0.07363
 H708 H 0.59244 0.36605 0.11645
 C709 C 0.15613 0.83395 0.29251
 C710 C 0.15592 0.80052 0.30919
 C711 C 0.17121 0.78628 0.33608
 C712 C 0.18705 0.80518 0.34774
 C713 C 0.18730 0.83858 0.33087
 C714 C 0.17209 0.85271 0.30331
 C715 C 0.13970 0.84926 0.26475
 C716 C 0.13490 0.88224 0.27673
 C717 C 0.11935 0.89648 0.25137
 C718 C 0.10802 0.87801 0.21393
 C719 C 0.11284 0.84504 0.20186
 C720 C 0.12853 0.83093 0.22663
 C721 C 0.09115 0.89290 0.18818
 C722 C 0.08545 0.88434 0.13177
 C723 C 0.06940 0.89780 0.10819
 C724 C 0.05883 0.92047 0.14013
 C725 C 0.06458 0.92944 0.19608
 C726 C 0.08048 0.91563 0.22002
 H727 H 0.14381 0.78538 0.30237
 H728 H 0.17059 0.76037 0.34758
 H729 H 0.19913 0.85406 0.33979
 H730 H 0.17290 0.87837 0.29030
 H731 H 0.14299 0.89702 0.30646
 H732 H 0.11627 0.92208 0.26101
 H733 H 0.10435 0.82987 0.17389
 H734 H 0.13192 0.80564 0.21562
 H735 H 0.09347 0.86747 0.10549
 H736 H 0.06535 0.89071 0.06469
 H737 H 0.05662 0.94675 0.22175
 H738 H 0.08421 0.92237 0.26392
   
