data_POSCAR
  _audit_creation_date              2014-09-24
  _audit_creation_method            'ToBaCCo'
  _symmetry_space_group_name_H-M    'P1'
  _symmetry_Int_Tables_number       1
  _symmetry_cell_setting            triclinic
  loop_
  _symmetry_equiv_pos_as_xyz
 x,y,z
_cell_length_a 46.0993
_cell_length_b 45.7972
_cell_length_c 34.3750
_cell_angle_alpha 89.876800
_cell_angle_beta 90.096100
_cell_angle_gamma 90.024200
loop_
  _atom_site_label
  _atom_site_type_symbol
  _atom_site_fract_x
  _atom_site_fract_y
  _atom_site_fract_z
C1 C 1.27375 0.21900 0.26837
 C2 C 1.25090 0.23445 0.25069
 C3 C 1.22807 0.21897 0.23310
 C4 C 1.22826 0.18839 0.23283
 C5 C 1.25091 0.17315 0.25082
 C6 C 1.27359 0.18839 0.26878
 C7 C 1.25089 0.26670 0.25057
 C8 C 1.27461 0.28216 0.23529
 C9 C 1.27446 0.31278 0.23468
 C10 C 1.25078 0.32803 0.25019
 C11 C 1.22718 0.31272 0.26586
 C12 C 1.22713 0.28214 0.26565
 H13 H 1.29131 0.23084 0.28228
 H14 H 1.21050 0.23072 0.21909
 H15 H 1.29287 0.27031 0.22324
 H16 H 1.20887 0.27033 0.27783
 H17 H 1.25084 0.14945 0.25081
 H18 H 1.25067 0.35173 0.25008
 C19 C 0.77401 -0.28180 0.26559
 C20 C 0.75019 -0.26635 0.25052
 C21 C 0.72640 -0.28178 0.23541
 C22 C 0.72652 -0.31236 0.23495
 C23 C 0.75022 -0.32767 0.25039
 C24 C 0.77394 -0.31241 0.26592
 C25 C 0.75017 -0.23409 0.25053
 C26 C 0.77308 -0.21859 0.23317
 C27 C 0.77288 -0.18800 0.23282
 C28 C 0.75013 -0.17281 0.25047
 C29 C 0.72741 -0.18809 0.26814
 C30 C 0.72725 -0.21867 0.26785
 H31 H 0.79231 -0.26995 0.27764
 H32 H 0.70807 -0.26998 0.22336
 H33 H 0.79072 -0.23030 0.21942
 H34 H 0.70961 -0.23046 0.28162
 H35 H 0.75017 -0.35137 0.25028
 H36 H 0.75012 -0.14912 0.25044
 C37 C 0.77320 0.21924 -0.23286
 C38 C 0.75038 0.23466 -0.25062
 C39 C 0.72759 0.21917 -0.26828
 C40 C 0.72782 0.18859 -0.26850
 C41 C 0.75045 0.17339 -0.25042
 C42 C 0.77304 0.18866 -0.23245
 C43 C 0.75035 0.26689 -0.25072
 C44 C 0.77414 0.28236 -0.26576
 C45 C 0.77401 0.31297 -0.26624
 C46 C 0.75028 0.32821 -0.25087
 C47 C 0.72661 0.31287 -0.23546
 C48 C 0.72653 0.28229 -0.23578
 H49 H 0.79074 0.23102 -0.21887
 H50 H 0.71003 0.23089 -0.28235
 H51 H 0.79245 0.27052 -0.27768
 H52 H 0.70823 0.27047 -0.22376
 H53 H 0.75047 0.14970 -0.25035
 H54 H 0.75018 0.35190 -0.25087
 C55 C 1.27413 -0.28158 -0.23461
 C56 C 1.25024 -0.26610 -0.24938
 C57 C 1.22632 -0.28149 -0.26421
 C58 C 1.22640 -0.31206 -0.26464
 C59 C 1.25018 -0.32741 -0.24951
 C60 C 1.27401 -0.31218 -0.23429
 C61 C 1.25025 -0.23387 -0.24933
 C62 C 1.27316 -0.21838 -0.26667
 C63 C 1.27299 -0.18781 -0.26693
 C64 C 1.25028 -0.17261 -0.24924
 C65 C 1.22755 -0.18789 -0.23160
 C66 C 1.22736 -0.21846 -0.23194
 H67 H 1.29252 -0.26976 -0.22276
 H68 H 1.20793 -0.26967 -0.27603
 H69 H 1.29079 -0.23009 -0.28047
 H70 H 1.20972 -0.23025 -0.21817
 H71 H 1.25009 -0.35111 -0.24961
 H72 H 1.25028 -0.14892 -0.24921
 C73 C 0.21857 0.27263 0.73493
 C74 C 0.23430 0.24941 0.75143
 C75 C 0.21934 0.22559 0.76759
 C76 C 0.18897 0.22499 0.76747
 C77 C 0.17341 0.24803 0.75057
 C78 C 0.18816 0.27177 0.73411
 C79 C 0.26635 0.24950 0.75105
 C80 C 0.28200 0.27277 0.76747
 C81 C 0.31244 0.27209 0.76815
 C82 C 0.32725 0.24846 0.75160
 C83 C 0.31173 0.22541 0.73482
 C84 C 0.28139 0.22582 0.73484
 H85 H 0.22997 0.29091 0.72194
 H86 H 0.23140 0.20770 0.78057
 H87 H 0.27048 0.29093 0.78045
 H88 H 0.26946 0.20788 0.72189
 H89 H 0.14988 0.24749 0.75005
 H90 H 0.35078 0.24791 0.75186
 C91 C 0.71820 0.77382 0.73374
 C92 C 0.73314 0.75006 0.75011
 C93 C 0.71740 0.72685 0.76656
 C94 C 0.68696 0.72764 0.76712
 C95 C 0.67224 0.75134 0.75041
 C96 C 0.68784 0.77437 0.73357
 C97 C 0.76519 0.75003 0.75067
 C98 C 0.78022 0.77374 0.76694
 C99 C 0.81057 0.77425 0.76695
 C100 C 0.82607 0.75126 0.75010
 C101 C 0.81128 0.72763 0.73352
 C102 C 0.78087 0.72684 0.73420
 H103 H 0.73028 0.79170 0.72079
 H104 H 0.72886 0.70863 0.77967
 H105 H 0.76828 0.79164 0.77989
 H106 H 0.76942 0.70865 0.72111
 H107 H 0.64869 0.75192 0.75064
 H108 H 0.84959 0.75183 0.74973
 C109 C 0.71857 0.27295 0.23316
 C110 C 0.73433 0.24967 0.24944
 C111 C 0.71940 0.22580 0.26547
 C112 C 0.68908 0.22521 0.26543
 C113 C 0.67347 0.24828 0.24880
 C114 C 0.68817 0.27208 0.23248
 C115 C 0.76635 0.24974 0.24898
 C116 C 0.78203 0.27302 0.26529
 C117 C 0.81243 0.27224 0.26606
 C118 C 0.82721 0.24854 0.24977
 C119 C 0.81168 0.22547 0.23310
 C120 C 0.78135 0.22596 0.23298
 H121 H 0.72994 0.29129 0.22026
 H122 H 0.73141 0.20783 0.27832
 H123 H 0.77060 0.29127 0.27819
 H124 H 0.76940 0.20799 0.22013
 H125 H 0.64995 0.24765 0.24842
 H126 H 0.85073 0.24798 0.25023
 C127 C 0.21822 0.77345 0.23348
 C128 C 0.23317 0.74970 0.24983
 C129 C 0.21747 0.72654 0.26645
 C130 C 0.18704 0.72739 0.26720
 C131 C 0.17229 0.75108 0.25052
 C132 C 0.18787 0.77405 0.23352
 C133 C 0.26520 0.74967 0.25031
 C134 C 0.28022 0.77335 0.26663
 C135 C 0.31056 0.77388 0.26658
 C136 C 0.32607 0.75094 0.24964
 C137 C 0.31127 0.72734 0.23302
 C138 C 0.28086 0.72652 0.23373
 H139 H 0.23029 0.79129 0.22043
 H140 H 0.22895 0.70833 0.27957
 H141 H 0.26828 0.79122 0.27966
 H142 H 0.26941 0.70835 0.22061
 H143 H 0.14874 0.75171 0.25093
 H144 H 0.34959 0.75153 0.24923
 N145 N 0.97048 0.05165 0.04226
 N146 N 0.95141 0.07223 0.05027
 N147 N 1.03147 0.03130 0.06915
 N148 N 1.05160 0.03690 0.09549
 N149 N 1.03138 0.05151 0.04197
 N150 N 1.05141 0.07139 0.04902
 N151 N 0.97053 0.03151 0.06953
 N152 N 0.95148 0.03790 0.09690
 C153 C 0.93946 0.06306 0.08399
 C154 C 1.06398 0.06176 0.08217
 N155 N 1.03103 -0.05183 0.04196
 N156 N 1.04992 -0.07261 0.04998
 N157 N 0.97028 -0.03152 0.06948
 N158 N 0.95029 -0.03713 0.09594
 N159 N 0.97013 -0.05164 0.04228
 N160 N 0.95005 -0.07146 0.04945
 N161 N 1.03123 -0.03177 0.06924
 N162 N 1.05027 -0.03845 0.09661
 Mn163 Mn 1.00088 -0.00012 0.06975
 C164 C 1.06205 -0.06367 0.08369
 C165 C 0.93773 -0.06189 0.08269
 N166 N 1.03099 0.05169 -0.04180
 N167 N 1.05000 0.07233 -0.04995
 N168 N 0.96988 0.03166 -0.06866
 N169 N 0.94969 0.03735 -0.09490
 N170 N 0.97009 0.05178 -0.04148
 N171 N 0.95007 0.07171 -0.04844
 N172 N 1.03082 0.03165 -0.06910
 N173 N 1.04974 0.03820 -0.09662
 Mn174 Mn 1.00073 0.05190 0.00024
 C175 C 1.06182 0.06333 -0.08378
 C176 C 0.93741 0.06218 -0.08153
 N177 N 0.96980 -0.05154 -0.04148
 N178 N 0.95079 -0.07221 -0.04950
 N179 N 1.03068 -0.03142 -0.06896
 N180 N 1.05072 -0.03697 -0.09533
 N181 N 1.03069 -0.05163 -0.04178
 N182 N 1.05072 -0.07147 -0.04885
 N183 N 0.96974 -0.03142 -0.06878
 N184 N 0.95067 -0.03794 -0.09617
 Mn185 Mn 1.00041 -0.05189 0.00025
 Mn186 Mn 1.00028 0.00012 -0.06927
 Cl187 Cl 1.00058 0.00000 0.00024
 C188 C 0.93873 -0.06314 -0.08324
 C189 C 1.06314 -0.06181 -0.08202
 N190 N 1.05117 0.53085 0.54240
 N191 N 1.07193 0.54961 0.55095
 N192 N 1.03109 0.46937 0.56937
 N193 N 1.03681 0.44928 0.59594
 N194 N 1.05119 0.46952 0.54231
 N195 N 1.07110 0.44954 0.54969
 N196 N 1.03118 0.53074 0.56961
 N197 N 1.03790 0.54944 0.59745
 C198 C 1.06306 0.56137 0.58489
 C199 C 1.06161 0.43695 0.58291
 N200 N 0.94844 0.46946 0.54176
 N201 N 0.92754 0.45080 0.55013
 N202 N 0.96844 0.53078 0.56917
 N203 N 0.96263 0.55072 0.59576
 N204 N 0.94844 0.53080 0.54188
 N205 N 0.92851 0.55074 0.54913
 N206 N 0.96833 0.46940 0.56919
 N207 N 0.96139 0.45069 0.59700
 Mn208 Mn 0.99976 0.50007 0.56970
 C209 C 0.93622 0.43892 0.58420
 C210 C 0.93788 0.56314 0.58250
 N211 N 1.05144 0.46982 0.45842
 N212 N 1.07238 0.45126 0.45000
 N213 N 1.03127 0.53124 0.43126
 N214 N 1.03703 0.55133 0.40474
 N215 N 1.05127 0.53116 0.45854
 N216 N 1.07117 0.55118 0.45134
 N217 N 1.03156 0.46986 0.43097
 N218 N 1.03855 0.45131 0.40310
 Mn219 Mn 1.05148 0.50034 0.50042
 C220 C 1.06375 0.43953 0.41588
 C221 C 1.06175 0.56373 0.41802
 N222 N 0.94853 0.53094 0.45799
 N223 N 0.92762 0.54954 0.44941
 N224 N 0.96880 0.46967 0.43084
 N225 N 0.96317 0.44965 0.40426
 N226 N 0.94869 0.46961 0.45790
 N227 N 0.92887 0.44957 0.45051
 N228 N 0.96850 0.53103 0.43076
 N229 N 0.96160 0.54972 0.40287
 Mn230 Mn 0.94832 0.50020 0.49988
 Mn231 Mn 1.00003 0.50045 0.43059
 Cl232 Cl 0.99990 0.50026 0.50015
 C233 C 0.93636 0.56144 0.41542
 C234 C 0.93843 0.43716 0.41729
 N235 N 0.47000 0.05168 0.54178
 N236 N 0.45108 0.07237 0.54994
 N237 N 0.53108 0.03139 0.56842
 N238 N 0.55130 0.03703 0.59461
 N239 N 0.53089 0.05155 0.54117
 N240 N 0.55096 0.07144 0.54803
 N241 N 0.47014 0.03160 0.56913
 N242 N 0.45132 0.03816 0.59671
 C243 C 0.43931 0.06335 0.58385
 C244 C 0.56363 0.06186 0.58113
 N245 N 0.53071 -0.05179 0.54157
 N246 N 0.54958 -0.07259 0.54966
 N247 N 0.47000 -0.03146 0.56923
 N248 N 0.45005 -0.03700 0.59577
 N249 N 0.46982 -0.05164 0.54213
 N250 N 0.44977 -0.07145 0.54942
 N251 N 0.53093 -0.03169 0.56879
 N252 N 0.54997 -0.03835 0.59618
 Mn253 Mn 0.50054 -0.00004 0.56929
 C254 C 0.56173 -0.06361 0.58334
 C255 C 0.43750 -0.06180 0.58265
 N256 N 0.53029 0.05150 0.45743
 N257 N 0.54945 0.07200 0.44928
 N258 N 0.46914 0.03142 0.43089
 N259 N 0.44897 0.03713 0.40463
 N260 N 0.46940 0.05160 0.45800
 N261 N 0.44943 0.07156 0.45098
 N262 N 0.53008 0.03139 0.43024
 N263 N 0.54911 0.03773 0.40279
 Mn264 Mn 0.50014 0.05182 0.49959
 C265 C 0.56129 0.06281 0.41556
 C266 C 0.43673 0.06202 0.41792
 N267 N 0.46928 -0.05174 0.45839
 N268 N 0.45026 -0.07244 0.45053
 N269 N 0.53005 -0.03164 0.43054
 N270 N 0.55001 -0.03725 0.40407
 N271 N 0.53017 -0.05178 0.45780
 N272 N 0.55020 -0.07163 0.45069
 N273 N 0.46910 -0.03166 0.43104
 N274 N 0.44995 -0.03822 0.40378
 Mn275 Mn 0.49999 -0.05197 0.49997
 Mn276 Mn 0.49959 -0.00012 0.43028
 Cl277 Cl 0.50006 -0.00008 0.49979
 C278 C 0.43808 -0.06340 0.41685
 C279 C 0.56250 -0.06206 0.41739
 N280 N 0.55090 0.53086 0.04107
 N281 N 0.57180 0.54948 0.04960
 N282 N 0.53083 0.46947 0.06837
 N283 N 0.53655 0.44942 0.09498
 N284 N 0.55088 0.46954 0.04125
 N285 N 0.57077 0.44956 0.04864
 N286 N 0.53096 0.53083 0.06835
 N287 N 0.53788 0.54944 0.09622
 C288 C 0.56308 0.56125 0.08361
 C289 C 0.56131 0.43704 0.08191
 N290 N 0.44813 0.46941 0.04105
 N291 N 0.42723 0.45079 0.04961
 N292 N 0.46820 0.53083 0.06803
 N293 N 0.46243 0.55084 0.09453
 N294 N 0.44815 0.53075 0.04081
 N295 N 0.42822 0.55069 0.04802
 N296 N 0.46806 0.46946 0.06843
 N297 N 0.46114 0.45086 0.09639
 Mn298 Mn 0.49952 0.50014 0.06866
 C299 C 0.43594 0.43904 0.08374
 C300 C 0.43766 0.56320 0.08129
 N301 N 0.55100 0.46957 -0.04261
 N302 N 0.57192 0.45097 -0.05098
 N303 N 0.53082 0.53089 -0.07007
 N304 N 0.53655 0.55091 -0.09670
 N305 N 0.55085 0.53091 -0.04282
 N306 N 0.57072 0.55093 -0.05015
 N307 N 0.53106 0.46951 -0.06997
 N308 N 0.53798 0.45085 -0.09775
 Mn309 Mn 0.55112 0.50022 -0.00078
 C310 C 0.56320 0.43912 -0.08499
 C311 C 0.56128 0.56338 -0.08353
 N312 N 0.44813 0.53062 -0.04306
 N313 N 0.42733 0.54937 -0.05154
 N314 N 0.46830 0.46927 -0.06997
 N315 N 0.46260 0.44918 -0.09644
 N316 N 0.44825 0.46929 -0.04284
 N317 N 0.42840 0.44923 -0.05008
 N318 N 0.46808 0.53064 -0.07032
 N319 N 0.46129 0.54942 -0.09814
 Mn320 Mn 0.44796 0.50002 -0.00101
 Mn321 Mn 0.49956 0.50007 -0.07045
 Cl322 Cl 0.49954 0.50011 -0.00089
 C323 C 0.43613 0.56126 -0.08551
 C324 C 0.43787 0.43672 -0.08328
 C325 C 1.16544 0.14151 0.17741
 N326 N 1.15436 0.11716 0.19430
 N327 N 1.13469 0.10104 0.17569
 C328 C 1.12558 0.10876 0.13957
 N329 N 1.13666 0.13311 0.12268
 N330 N 1.15633 0.14922 0.14129
 C331 C 1.18705 0.15851 0.19711
 C332 C 1.20558 0.17242 0.21349
 C333 C 1.10423 0.09161 0.11959
 C334 C 1.08605 0.07765 0.10261
 C335 C 1.15928 0.64391 0.68486
 N336 N 1.14728 0.65435 0.65156
 N337 N 1.12671 0.63925 0.63317
 C338 C 1.11745 0.61328 0.64757
 N339 N 1.12940 0.60288 0.68093
 N340 N 1.14997 0.61798 0.69932
 C341 C 1.18251 0.65944 0.70346
 C342 C 1.20238 0.67239 0.71838
 C343 C 1.09699 0.59593 0.62621
 C344 C 1.08084 0.58061 0.60765
 C345 C 0.66514 0.14165 0.67603
 N346 N 0.65382 0.11749 0.69313
 N347 N 0.63416 0.10136 0.67452
 C348 C 0.62531 0.10887 0.63821
 N349 N 0.63662 0.13303 0.62112
 N350 N 0.65628 0.14916 0.63973
 C351 C 0.68670 0.15866 0.69573
 C352 C 0.70519 0.17259 0.71213
 C353 C 0.60394 0.09174 0.61829
 C354 C 0.58574 0.07777 0.60139
 C355 C 0.65969 0.64345 0.18375
 N356 N 0.64770 0.65394 0.15047
 N357 N 0.62715 0.63886 0.13200
 C358 C 0.61790 0.61285 0.14629
 N359 N 0.62984 0.60240 0.17962
 N360 N 0.65039 0.61748 0.19809
 C361 C 0.68284 0.65903 0.20254
 C362 C 0.70262 0.67203 0.21768
 C363 C 0.59733 0.59558 0.12492
 C364 C 0.58105 0.58036 0.10637
 C365 C 0.83597 -0.14116 0.17800
 N366 N 0.84976 -0.15199 0.14635
 N367 N 0.86955 -0.13601 0.12777
 C368 C 0.87610 -0.10870 0.14022
 N369 N 0.86232 -0.09787 0.17188
 N370 N 0.84252 -0.11385 0.19046
 C371 C 0.81425 -0.15810 0.19752
 C372 C 0.79564 -0.17201 0.21373
 C373 C 0.89748 -0.09162 0.12022
 C374 C 0.91568 -0.07771 0.10320
 C375 C 0.83956 0.35646 0.68381
 N376 N 0.84889 0.38237 0.69822
 N377 N 0.86946 0.39749 0.67984
 C378 C 0.88138 0.38714 0.64656
 N379 N 0.87210 0.36119 0.63221
 N380 N 0.85153 0.34607 0.65059
 C381 C 0.81640 0.34085 0.70249
 C382 C 0.79661 0.32780 0.71750
 C383 C 0.90195 0.40446 0.62529
 C384 C 0.91823 0.41973 0.60683
 C385 C 0.33599 -0.14085 0.67845
 N386 N 0.33664 -0.11143 0.68272
 N387 N 0.35645 -0.09549 0.66410
 C388 C 0.37616 -0.10853 0.64063
 N389 N 0.37551 -0.13796 0.63638
 N390 N 0.35571 -0.15389 0.65499
 C391 C 0.31432 -0.15787 0.69789
 C392 C 0.29574 -0.17181 0.71404
 C393 C 0.39742 -0.09148 0.62046
 C394 C 0.41553 -0.07759 0.60330
 C395 C 0.33968 0.35642 0.18404
 N396 N 0.35150 0.34610 0.15067
 N397 N 0.37195 0.36129 0.13214
 C398 C 0.38127 0.38724 0.14647
 N399 N 0.36950 0.39751 0.17989
 N400 N 0.34905 0.38233 0.19842
 C401 C 0.31666 0.34072 0.20293
 C402 C 0.29697 0.32762 0.21816
 C403 C 0.40176 0.40461 0.12507
 C404 C 0.41799 0.41988 0.10652
 C405 C 0.83582 0.14192 -0.17668
 N406 N 0.84245 0.14756 -0.13899
 N407 N 0.86213 0.13145 -0.12034
 C408 C 0.87570 0.10917 -0.13879
 N409 N 0.86907 0.10353 -0.17649
 N410 N 0.84939 0.11964 -0.19514
 C411 C 0.81422 0.15887 -0.19649
 C412 C 0.79570 0.17274 -0.21298
 C413 C 0.89709 0.09207 -0.11879
 C414 C 0.91531 0.07812 -0.10185
 C415 C 0.83962 0.64402 0.31575
 N416 N 0.84870 0.61800 0.30147
 N417 N 0.86930 0.60285 0.31979
 C418 C 0.88152 0.61327 0.35291
 N419 N 0.87249 0.63932 0.36714
 N420 N 0.85189 0.65448 0.34881
 C421 C 0.81642 0.65968 0.29714
 C422 C 0.79659 0.67275 0.28217
 C423 C 0.90212 0.59590 0.37417
 C424 C 0.91841 0.58062 0.39266
 C425 C 0.33527 0.14232 0.32316
 N426 N 0.34928 0.12053 0.30426
 N427 N 0.36895 0.10429 0.32277
 C428 C 0.37511 0.10930 0.36076
 N429 N 0.36110 0.13109 0.37965
 N430 N 0.34144 0.14733 0.36115
 C431 C 0.31364 0.15936 0.30349
 C432 C 0.29508 0.17327 0.28712
 C433 C 0.39648 0.09206 0.38065
 C434 C 0.41467 0.07801 0.39755
 C435 C 0.33982 0.64425 -0.18499
 N436 N 0.34887 0.61826 -0.19937
 N437 N 0.36945 0.60305 -0.18108
 C438 C 0.38165 0.61341 -0.14793
 N439 N 0.37265 0.63944 -0.13361
 N440 N 0.35207 0.65464 -0.15189
 C441 C 0.31659 0.65990 -0.20346
 C442 C 0.29672 0.67297 -0.21828
 C443 C 0.40214 0.59596 -0.12667
 C444 C 0.41832 0.58057 -0.10819
 C445 C 1.16459 -0.14122 -0.17681
 N446 N 1.15470 -0.14955 -0.14136
 N447 N 1.13500 -0.13349 -0.12286
 C448 C 1.12468 -0.10860 -0.13920
 N449 N 1.13456 -0.10027 -0.17466
 N450 N 1.15427 -0.11633 -0.19317
 C451 C 1.18624 -0.15814 -0.19632
 C452 C 1.20482 -0.17199 -0.21252
 C453 C 1.10334 -0.09151 -0.11934
 C454 C 1.08517 -0.07761 -0.10242
 C455 C 1.16042 0.35707 0.31665
 N456 N 1.14842 0.34671 0.34994
 N457 N 1.12788 0.36186 0.36822
 C458 C 1.11865 0.38782 0.35372
 N459 N 1.13060 0.39815 0.32038
 N460 N 1.15114 0.38300 0.30210
 C461 C 1.18354 0.34141 0.29804
 C462 C 1.20330 0.32835 0.28303
 C463 C 1.09806 0.40517 0.37488
 C464 C 1.08176 0.42042 0.39326
 C465 C 0.66425 -0.14140 0.32275
 N466 N 0.65359 -0.15025 0.35757
 N467 N 0.63381 -0.13423 0.37601
 C468 C 0.62416 -0.10886 0.36022
 N469 N 0.63481 -0.10002 0.32539
 N470 N 0.65460 -0.11603 0.30695
 C471 C 0.68599 -0.15831 0.30331
 C472 C 0.70462 -0.17217 0.28717
 C473 C 0.60275 -0.09178 0.38005
 C474 C 0.58455 -0.07787 0.39696
 C475 C 0.65976 0.35695 -0.18462
 N476 N 0.64791 0.34654 -0.15126
 N477 N 0.62736 0.36160 -0.13287
 C478 C 0.61797 0.38751 -0.14733
 N479 N 0.62977 0.39789 -0.18075
 N480 N 0.65032 0.38283 -0.19914
 C481 C 0.68290 0.34142 -0.20330
 C482 C 0.70269 0.32845 -0.21833
 C483 C 0.59743 0.40478 -0.12606
 C484 C 0.58116 0.42000 -0.10760
 C485 C 1.14616 0.15901 -0.18210
 N486 N 1.12206 0.14763 -0.19892
 N487 N 1.10672 0.12708 -0.18070
 C488 C 1.11506 0.11724 -0.14515
 N489 N 1.13921 0.12858 -0.12838
 N490 N 1.15455 0.14912 -0.14661
 C491 C 1.16175 0.18226 -0.20071
 C492 C 1.17459 0.20219 -0.21587
 C493 C 1.09725 0.09691 -0.12421
 C494 C 1.08152 0.08090 -0.10605
 C495 C 1.14088 0.66533 0.32115
 N496 N 1.11225 0.66215 0.31299
 N497 N 1.09638 0.64236 0.33190
 C498 C 1.10866 0.62521 0.35961
 N499 N 1.13729 0.62839 0.36775
 N500 N 1.15315 0.64818 0.34884
 C501 C 1.15779 0.68710 0.30140
 C502 C 1.17173 0.70577 0.28515
 C503 C 1.09164 0.60388 0.38005
 C504 C 1.07772 0.58575 0.39734
 C505 C 0.64577 0.15784 0.31674
 N506 N 0.65407 0.14824 0.35240
 N507 N 0.63877 0.12773 0.37075
 C508 C 0.61476 0.11617 0.35392
 N509 N 0.60651 0.12571 0.31820
 N510 N 0.62181 0.14622 0.29985
 C511 C 0.66123 0.18110 0.29806
 C512 C 0.67398 0.20106 0.28291
 C513 C 0.59692 0.09601 0.37500
 C514 C 0.58111 0.08017 0.39326
 C515 C 0.64055 0.66531 -0.17975
 N516 N 0.65335 0.64570 -0.15561
 N517 N 0.63744 0.62581 -0.13697
 C518 C 0.60824 0.62494 -0.14183
 N519 N 0.59544 0.64455 -0.16600
 N520 N 0.61135 0.66444 -0.18464
 C521 C 0.65758 0.68717 -0.19918
 C522 C 0.67159 0.70593 -0.21518
 C523 C 0.59115 0.60357 -0.12154
 C524 C 0.57721 0.58540 -0.10429
 C525 C 0.85429 -0.15874 -0.18143
 N526 N 0.87807 -0.14691 -0.19849
 N527 N 0.89341 -0.12641 -0.18024
 C528 C 0.88539 -0.11705 -0.14443
 N529 N 0.86157 -0.12882 -0.12742
 N530 N 0.84622 -0.14932 -0.14567
 C531 C 0.83867 -0.18191 -0.20014
 C532 C 0.82580 -0.20175 -0.21538
 C533 C 0.90323 -0.09673 -0.12353
 C534 C 0.91898 -0.08072 -0.10542
 C535 C 0.85947 0.33566 0.32040
 N536 N 0.88827 0.33827 0.31313
 N537 N 0.90414 0.35806 0.33197
 C538 C 0.89169 0.37579 0.35872
 N539 N 0.86289 0.37318 0.36597
 N540 N 0.84703 0.35339 0.34713
 C541 C 0.84255 0.31387 0.30081
 C542 C 0.82860 0.29517 0.28473
 C543 C 0.90871 0.39707 0.37913
 C544 C 0.92258 0.41518 0.39648
 C545 C 0.35402 -0.15912 0.31846
 N546 N 0.37762 -0.14698 0.30135
 N547 N 0.39285 -0.12645 0.31970
 C548 C 0.38489 -0.11739 0.35567
 N549 N 0.36125 -0.12947 0.37274
 N550 N 0.34601 -0.15000 0.35438
 C551 C 0.33855 -0.18230 0.29964
 C552 C 0.32576 -0.20215 0.28432
 C553 C 0.40263 -0.09706 0.37665
 C554 C 0.41834 -0.08103 0.39477
 C555 C 0.35865 0.33457 -0.17888
 N556 N 0.38712 0.33811 -0.18764
 N557 N 0.40304 0.35803 -0.16908
 C558 C 0.39097 0.37497 -0.14113
 N559 N 0.36250 0.37143 -0.13239
 N560 N 0.34659 0.35152 -0.15095
 C561 C 0.34169 0.31265 -0.19825
 C562 C 0.32774 0.29385 -0.21421
 C563 C 0.40805 0.39641 -0.12101
 C564 C 0.42198 0.41463 -0.10390
 C565 C 1.14546 -0.15997 0.18250
 N566 N 1.15382 -0.15043 0.14686
 N567 N 1.13871 -0.12979 0.12847
 C568 C 1.11483 -0.11800 0.14521
 N569 N 1.10651 -0.12747 0.18091
 N570 N 1.12162 -0.14812 0.19930
 C571 C 1.16083 -0.18326 0.20135
 C572 C 1.17354 -0.20319 0.21668
 C573 C 1.09723 -0.09755 0.12414
 C574 C 1.08165 -0.08141 0.10592
 C575 C 1.14090 0.33519 0.67960
 N576 N 1.15358 0.35420 0.65455
 N577 N 1.13767 0.37404 0.63577
 C578 C 1.10858 0.37544 0.64139
 N579 N 1.09590 0.35644 0.66646
 N580 N 1.11181 0.33660 0.68524
 C581 C 1.15792 0.31339 0.69919
 C582 C 1.17194 0.29469 0.71531
 C583 C 1.09150 0.39679 0.62100
 C584 C 1.07755 0.41493 0.60369
 C585 C 0.64532 -0.15976 0.68232
 N586 N 0.62151 -0.14788 0.69915
 N587 N 0.60634 -0.12729 0.68072
 C588 C 0.61456 -0.11791 0.64494
 N589 N 0.63842 -0.12973 0.62816
 N590 N 0.65359 -0.15032 0.64660
 C591 C 0.66076 -0.18300 0.70123
 C592 C 0.67351 -0.20289 0.71664
 C593 C 0.59693 -0.09747 0.62385
 C594 C 0.58132 -0.08135 0.60561
 C595 C 0.64075 0.33553 0.17851
 N596 N 0.61147 0.33572 0.18236
 N597 N 0.59550 0.35554 0.16363
 C598 C 0.60834 0.37573 0.14044
 N599 N 0.63763 0.37554 0.13661
 N600 N 0.65359 0.35573 0.15534
 C601 C 0.65784 0.31374 0.19795
 C602 C 0.67191 0.29503 0.21391
 C603 C 0.59123 0.39700 0.12005
 C604 C 0.57726 0.41509 0.10272
 C605 C 0.85512 0.15826 0.18210
 N606 N 0.84681 0.14863 0.14650
 N607 N 0.86210 0.12812 0.12829
 C608 C 0.88610 0.11657 0.14520
 N609 N 0.89435 0.12613 0.18085
 N610 N 0.87907 0.14664 0.19906
 C611 C 0.83964 0.18149 0.20065
 C612 C 0.82685 0.20141 0.21571
 C613 C 0.90391 0.09636 0.12427
 C614 C 0.91968 0.08048 0.10614
 C615 C 0.85842 0.66441 0.67895
 N616 N 0.84649 0.64798 0.65030
 N617 N 0.86243 0.62825 0.63153
 C618 C 0.89079 0.62439 0.64077
 N619 N 0.90272 0.64081 0.66943
 N620 N 0.88678 0.66054 0.68821
 C621 C 0.84144 0.68613 0.69857
 C622 C 0.82746 0.70477 0.71472
 C623 C 0.90790 0.60313 0.62045
 C624 C 0.92188 0.58506 0.60321
 C625 C 0.35538 0.15863 0.68287
 N626 N 0.37951 0.14714 0.69952
 N627 N 0.39480 0.12673 0.68110
 C628 C 0.38637 0.11714 0.64552
 N629 N 0.36219 0.12857 0.62893
 N630 N 0.34691 0.14899 0.64735
 C631 C 0.33981 0.18171 0.70173
 C632 C 0.32696 0.20148 0.71707
 C633 C 0.40409 0.09690 0.62442
 C634 C 0.41973 0.08093 0.60617
 C635 C 0.35833 0.66429 0.17810
 N636 N 0.34635 0.64790 0.14945
 N637 N 0.36226 0.62823 0.13055
 C638 C 0.39065 0.62439 0.13966
 N639 N 0.40263 0.64076 0.16833
 N640 N 0.38672 0.66044 0.18722
 C641 C 0.34139 0.68595 0.19785
 C642 C 0.32743 0.70454 0.21410
 C643 C 0.40771 0.60316 0.11925
 C644 C 0.42167 0.58511 0.10198
   
