data_POSCAR
  _audit_creation_date              2014-09-24
  _audit_creation_method            'ToBaCCo'
  _symmetry_space_group_name_H-M    'P1'
  _symmetry_Int_Tables_number       1
  _symmetry_cell_setting            triclinic
  loop_
  _symmetry_equiv_pos_as_xyz
 x,y,z
_cell_length_a 36.1445
_cell_length_b 35.8457
_cell_length_c 38.6186
_cell_angle_alpha 90.206300
_cell_angle_beta 90.015000
_cell_angle_gamma 91.556400
loop_
  _atom_site_label
  _atom_site_type_symbol
  _atom_site_fract_x
  _atom_site_fract_y
  _atom_site_fract_z
C1 C -0.10356 0.32211 0.01353
 C2 C -0.08224 0.31261 0.04257
 C3 C -0.04365 0.31037 0.03826
 C4 C -0.02646 0.31837 0.00629
 C5 C -0.04891 0.32782 -0.02209
 C6 C -0.08787 0.32741 -0.01953
 C7 C 0.01451 0.31391 0.00191
 C8 C 0.02936 0.30396 -0.03058
 C9 C 0.06733 0.29852 -0.03477
 C10 C 0.09069 0.30155 -0.00596
 C11 C 0.07670 0.30986 0.02691
 C12 C 0.03894 0.31747 0.03044
 H13 H -0.13265 0.32713 0.01697
 H14 H -0.02722 0.29987 0.05923
 H15 H -0.03591 0.33344 -0.04665
 H16 H 0.01155 0.29886 -0.05267
 H17 H 0.12007 0.29727 -0.00911
 H18 H 0.02867 0.32503 0.05572
 C19 C 0.40139 0.81270 0.50309
 C20 C 0.42297 0.80659 0.53265
 C21 C 0.46171 0.80795 0.52974
 C22 C 0.47926 0.81703 0.49811
 C23 C 0.45681 0.82461 0.46927
 C24 C 0.41807 0.82090 0.47110
 C25 C 0.52062 0.81633 0.49464
 C26 C 0.53721 0.80833 0.46238
 C27 C 0.57571 0.80560 0.45926
 C28 C 0.59786 0.80990 0.48880
 C29 C 0.58217 0.81648 0.52132
 C30 C 0.54383 0.82117 0.52385
 H31 H 0.37154 0.81012 0.50485
 H32 H 0.47781 0.80028 0.55207
 H33 H 0.46921 0.83295 0.44494
 H34 H 0.52043 0.80247 0.43974
 H35 H 0.62761 0.80767 0.48655
 H36 H 0.53226 0.82731 0.54895
 C37 C 1.09882 0.67629 0.00351
 C38 C 1.07767 0.68348 0.03336
 C39 C 1.03906 0.68610 0.02955
 C40 C 1.02137 0.67957 -0.00247
 C41 C 1.04337 0.67128 -0.03143
 C42 C 1.08235 0.67133 -0.02939
 C43 C 0.98018 0.68311 -0.00590
 C44 C 0.96435 0.69388 -0.03766
 C45 C 0.92622 0.69957 -0.04057
 C46 C 0.90378 0.69570 -0.01119
 C47 C 0.91880 0.68617 0.02091
 C48 C 0.95656 0.67828 0.02301
 H49 H 1.12858 0.67872 0.00545
 H50 H 1.02255 0.69261 0.05184
 H51 H 1.03001 0.66402 -0.05564
 H52 H 0.98158 0.69948 -0.06003
 H53 H 0.87436 0.70033 -0.01324
 H54 H 0.96742 0.66964 0.04768
 C55 C 0.59420 0.18255 0.51226
 C56 C 0.57274 0.18927 0.54179
 C57 C 0.53406 0.19077 0.53847
 C58 C 0.51644 0.18366 0.50639
 C59 C 0.53872 0.17500 0.47766
 C60 C 0.57749 0.17623 0.47991
 C61 C 0.47535 0.18725 0.50223
 C62 C 0.46014 0.19665 0.46979
 C63 C 0.42197 0.20106 0.46558
 C64 C 0.39876 0.19757 0.49448
 C65 C 0.41311 0.18971 0.52730
 C66 C 0.45112 0.18326 0.53075
 H67 H 0.62409 0.18420 0.51422
 H68 H 0.51808 0.19803 0.56102
 H69 H 0.52619 0.16781 0.45302
 H70 H 0.47785 0.20202 0.44772
 H71 H 0.36924 0.20098 0.49143
 H72 H 0.46164 0.17613 0.55599
 C73 C 0.68107 -0.09883 -0.01045
 C74 C 0.68426 -0.08375 0.02320
 C75 C 0.68502 -0.04448 0.02678
 C76 C 0.68009 -0.02047 -0.00175
 C77 C 0.67485 -0.03721 -0.03464
 C78 C 0.67740 -0.07583 -0.03940
 C79 C 0.68253 0.02161 0.00240
 C80 C 0.68752 0.04508 -0.02674
 C81 C 0.69064 0.08429 -0.02369
 C82 C 0.69131 0.09980 0.00981
 C83 C 0.68852 0.07735 0.03930
 C84 C 0.68214 0.03880 0.03546
 H85 H 0.68123 -0.12863 -0.01458
 H86 H 0.69202 -0.03293 0.05174
 H87 H 0.66924 -0.02080 -0.05728
 H88 H 0.69161 0.03306 -0.05195
 H89 H 0.69308 0.12970 0.01357
 H90 H 0.67824 0.02271 0.05874
 C91 C 0.17974 0.39531 0.49057
 C92 C 0.17334 0.41102 0.52322
 C93 C 0.16991 0.44990 0.52604
 C94 C 0.17615 0.47348 0.49716
 C95 C 0.18427 0.45671 0.46500
 C96 C 0.18552 0.41784 0.46145
 C97 C 0.17717 0.51529 0.50096
 C98 C 0.17256 0.53879 0.47196
 C99 C 0.17806 0.57767 0.47472
 C100 C 0.18489 0.59349 0.50739
 C101 C 0.18890 0.57106 0.53667
 C102 C 0.18561 0.53217 0.53321
 H103 H 0.18092 0.36527 0.48792
 H104 H 0.16377 0.46153 0.55115
 H105 H 0.19155 0.47355 0.44276
 H106 H 0.16608 0.52710 0.44680
 H107 H 0.18767 0.62354 0.50996
 H108 H 0.19151 0.51541 0.55563
 C109 C 0.31704 1.09824 -0.00776
 C110 C 0.32558 1.08171 0.02402
 C111 C 0.32916 1.04294 0.02559
 C112 C 0.32132 1.02011 -0.00333
 C113 C 0.31177 1.03733 -0.03480
 C114 C 0.31056 1.07658 -0.03787
 C115 C 0.32166 0.97838 -0.00026
 C116 C 0.32889 0.95575 -0.02928
 C117 C 0.32638 0.91640 -0.02755
 C118 C 0.31971 0.90002 0.00513
 C119 C 0.31364 0.92190 0.03466
 C120 C 0.31363 0.96084 0.03154
 H121 H 0.31274 1.12798 -0.00815
 H122 H 0.33777 1.03076 0.04976
 H123 H 0.30597 1.01997 -0.05709
 H124 H 0.33755 0.96890 -0.05316
 H125 H 0.31639 0.87009 0.00770
 H126 H 0.30714 0.97728 0.05415
 C127 C 0.82621 0.60694 0.49359
 C128 C 0.83303 0.59088 0.52598
 C129 C 0.83583 0.55193 0.52820
 C130 C 0.82824 0.52857 0.49941
 C131 C 0.82071 0.54552 0.46740
 C132 C 0.82050 0.58450 0.46413
 C133 C 0.82522 0.48692 0.50346
 C134 C 0.82882 0.46255 0.47479
 C135 C 0.82144 0.42400 0.47814
 C136 C 0.81348 0.40936 0.51095
 C137 C 0.81027 0.43271 0.53979
 C138 C 0.81558 0.47128 0.53583
 H139 H 0.82331 0.63684 0.49154
 H140 H 0.84322 0.54006 0.55286
 H141 H 0.81420 0.52871 0.44485
 H142 H 0.83598 0.47331 0.44951
 H143 H 0.80918 0.37950 0.51396
 H144 H 0.81030 0.48889 0.55797
 O145 O 0.25220 0.30085 0.19539
 O146 O 0.32066 0.27172 0.26024
 O147 O 0.30619 0.25406 0.19529
 O148 O 0.26764 0.31846 0.25972
 O149 O 0.22885 0.27366 0.27737
 O150 O 0.26726 0.20952 0.21311
 O151 O 0.28169 0.22703 0.27774
 O152 O 0.21349 0.25615 0.21330
 Cu153 Cu 0.29063 0.29070 0.22571
 Cu154 Cu 0.24395 0.23701 0.24701
 C155 C 0.22132 0.28324 0.19336
 C156 C 0.31222 0.24506 0.28057
 C157 C 0.29288 0.22102 0.19308
 C158 C 0.24226 0.30662 0.27988
 O159 O 0.68663 0.73178 0.26050
 O160 O 0.75515 0.69842 0.19786
 O161 O 0.73933 0.68435 0.26289
 O162 O 0.70406 0.74762 0.19609
 O163 O 0.74375 0.79170 0.21383
 O164 O 0.77918 0.72862 0.27992
 O165 O 0.79486 0.74272 0.21508
 O166 O 0.72646 0.77581 0.27804
 Cu167 Cu 0.71726 0.71109 0.22758
 Cu168 Cu 0.76505 0.76416 0.24847
 C169 C 0.69524 0.75892 0.28032
 C170 C 0.78629 0.71537 0.19543
 C171 C 0.76488 0.69614 0.28302
 C172 C 0.71850 0.78017 0.19337
 O173 O 0.81518 0.23159 0.24339
 O174 O 0.74989 0.19489 0.30907
 O175 O 0.76364 0.18001 0.24378
 O176 O 0.80043 0.24812 0.30800
 O177 O 0.75904 0.28850 0.29097
 O178 O 0.72223 0.22066 0.22732
 O179 O 0.70865 0.23553 0.29227
 O180 O 0.77367 0.27201 0.22663
 Cu181 Cu 0.78643 0.20956 0.27785
 Cu182 Cu 0.73672 0.25826 0.25772
 C183 C 0.80515 0.25754 0.22352
 C184 C 0.71836 0.20927 0.31194
 C185 C 0.73715 0.18923 0.22425
 C186 C 0.78566 0.27977 0.31043
 O187 O 0.23896 0.70523 0.28260
 O188 O 0.27463 0.77199 0.21769
 O189 O 0.28905 0.75849 0.28275
 O190 O 0.22467 0.71930 0.21759
 O191 O 0.18261 0.75959 0.23361
 O192 O 0.24720 0.79888 0.29897
 O193 O 0.23269 0.81242 0.23367
 O194 O 0.19698 0.74547 0.29884
 Cu195 Cu 0.26106 0.73467 0.24864
 Cu196 Cu 0.21062 0.78313 0.26798
 C197 C 0.21228 0.71420 0.30198
 C198 C 0.25924 0.80314 0.21422
 C199 C 0.27894 0.78501 0.30209
 C200 C 0.19309 0.73337 0.21408
 O201 O 0.77411 0.28748 0.72220
 O202 O 0.74433 0.21682 0.78563
 O203 O 0.72637 0.23252 0.72162
 O204 O 0.79146 0.27239 0.78614
 O205 O 0.74816 0.30998 0.80480
 O206 O 0.68297 0.26992 0.74039
 O207 O 0.70103 0.25425 0.80456
 O208 O 0.73072 0.32507 0.74069
 Cu209 Cu 0.76340 0.24849 0.75200
 Cu210 Cu 0.71129 0.29354 0.77452
 C211 C 0.75715 0.31789 0.72034
 C212 C 0.71818 0.22388 0.80629
 C213 C 0.69391 0.24499 0.71967
 C214 C 0.78063 0.29755 0.80667
 O215 O 0.32101 0.72834 0.73651
 O216 O 0.25562 0.69209 0.80258
 O217 O 0.27017 0.67654 0.73787
 O218 O 0.30759 0.74410 0.80189
 O219 O 0.26647 0.78495 0.78529
 O220 O 0.22915 0.71759 0.72136
 O221 O 0.21469 0.73309 0.78587
 O222 O 0.27985 0.76930 0.72018
 Cu223 Cu 0.29279 0.70625 0.77158
 Cu224 Cu 0.24344 0.75545 0.75170
 C225 C 0.31096 0.75423 0.71654
 C226 C 0.22408 0.70655 0.80533
 C227 C 0.24386 0.68602 0.71832
 C228 C 0.29308 0.77580 0.80463
 O229 O 0.17265 0.22556 0.76285
 O230 O 0.24206 0.19585 0.69929
 O231 O 0.22617 0.17908 0.76385
 O232 O 0.18898 0.24326 0.69860
 O233 O 0.22761 0.28786 0.71715
 O234 O 0.26480 0.22391 0.78195
 O235 O 0.28061 0.24064 0.71765
 O236 O 0.21139 0.27021 0.78116
 Cu237 Cu 0.20356 0.20644 0.72924
 Cu238 Cu 0.24998 0.26016 0.75128
 C239 C 0.18067 0.25242 0.78321
 C240 C 0.27284 0.21360 0.69741
 C241 C 0.25135 0.19098 0.78433
 C242 C 0.20246 0.27626 0.69657
 O243 O 0.74813 0.80875 0.69704
 O244 O 0.81607 0.78009 0.76217
 O245 O 0.80301 0.76340 0.69699
 O246 O 0.76027 0.82427 0.76233
 O247 O 0.72265 0.77763 0.77792
 O248 O 0.76534 0.71700 0.71304
 O249 O 0.77834 0.73363 0.77799
 O250 O 0.71054 0.76216 0.71284
 Cu251 Cu 0.78571 0.79881 0.72804
 Cu252 Cu 0.74048 0.74289 0.74702
 C253 C 0.71803 0.79007 0.69374
 C254 C 0.80841 0.75235 0.78142
 C255 C 0.79096 0.72996 0.69375
 C256 C 0.73444 0.81107 0.78133
 C257 C 0.32162 0.15090 0.11496
 C258 C 0.34013 0.16397 0.08537
 C259 C 0.34299 0.14095 0.05618
 C260 C 0.32714 0.10463 0.05621
 C261 C 0.30982 0.09136 0.08658
 C262 C 0.30708 0.11436 0.11569
 C263 C 0.31412 0.17586 0.14324
 C264 C 0.30560 0.19658 0.16638
 H265 H 0.35134 0.19229 0.08446
 H266 H 0.35681 0.15183 0.03334
 H267 H 0.29680 0.06381 0.08733
 H268 H 0.29236 0.10408 0.13831
 C269 C 0.82402 0.66127 0.61592
 C270 C 0.81004 0.62451 0.61648
 C271 C 0.81444 0.60121 0.58779
 C272 C 0.83296 0.61430 0.55795
 C273 C 0.84818 0.65090 0.55811
 C274 C 0.84363 0.67425 0.58690
 C275 C 0.81506 0.68625 0.64384
 C276 C 0.80526 0.70656 0.66689
 H277 H 0.79450 0.61424 0.63864
 H278 H 0.80174 0.57351 0.58841
 H279 H 0.86288 0.66173 0.53572
 H280 H 0.85446 0.70271 0.58610
 C281 C 0.69509 0.84631 0.11124
 C282 C 0.70644 0.83404 0.07869
 C283 C 0.70284 0.85683 0.04971
 C284 C 0.68778 0.89275 0.05261
 C285 C 0.67624 0.90452 0.08587
 C286 C 0.67991 0.88153 0.11478
 C287 C 0.70100 0.82334 0.14108
 C288 C 0.70780 0.80374 0.16542
 H289 H 0.71882 0.80700 0.07577
 H290 H 0.71374 0.84656 0.02554
 H291 H 0.66318 0.93101 0.08972
 H292 H 0.67098 0.89130 0.13993
 C293 C 0.17960 0.34221 0.61412
 C294 C 0.20339 0.33690 0.58613
 C295 C 0.20087 0.35904 0.55669
 C296 C 0.17430 0.38693 0.55452
 C297 C 0.15027 0.39212 0.58274
 C298 C 0.15292 0.36982 0.61241
 C299 C 0.18427 0.31981 0.64464
 C300 C 0.19107 0.30020 0.66904
 H301 H 0.22438 0.31591 0.58726
 H302 H 0.22043 0.35486 0.53589
 H303 H 0.12947 0.41326 0.58183
 H304 H 0.13443 0.37428 0.63402
 C305 C 0.86520 0.28715 0.13849
 C306 C 0.84612 0.28210 0.10736
 C307 C 0.86338 0.29038 0.07596
 C308 C 0.90043 0.30414 0.07480
 C309 C 0.91947 0.30876 0.10667
 C310 C 0.90192 0.30042 0.13816
 C311 C 0.84652 0.27798 0.17034
 C312 C 0.82869 0.26925 0.19553
 H313 H 0.81781 0.27130 0.10729
 H314 H 0.84774 0.28431 0.05264
 H315 H 0.94747 0.32013 0.10769
 H316 H 0.91694 0.30452 0.16222
 C317 C 0.37019 0.78087 0.62990
 C318 C 0.35688 0.76457 0.59918
 C319 C 0.37415 0.77270 0.56764
 C320 C 0.40506 0.79735 0.56632
 C321 C 0.41852 0.81334 0.59738
 C322 C 0.40113 0.80519 0.62897
 C323 C 0.35135 0.77279 0.66199
 C324 C 0.33391 0.76500 0.68773
 H325 H 0.33302 0.74561 0.59959
 H326 H 0.36350 0.75945 0.54431
 H327 H 0.44209 0.83265 0.59713
 H328 H 0.41163 0.81805 0.65256
 C329 C 0.13144 0.70240 0.13009
 C330 C 0.09758 0.71874 0.12337
 C331 C 0.07951 0.71223 0.09184
 C332 C 0.09515 0.68927 0.06607
 C333 C 0.12917 0.67249 0.07377
 C334 C 0.14703 0.67906 0.10537
 C335 C 0.15167 0.71184 0.16112
 C336 C 0.16983 0.72094 0.18605
 H337 H 0.08557 0.73740 0.14216
 H338 H 0.05440 0.72716 0.08731
 H339 H 0.14186 0.65341 0.05586
 H340 H 0.17330 0.66622 0.11035
 C341 C 0.62915 0.21231 0.63795
 C342 C 0.59891 0.23356 0.62827
 C343 C 0.57998 0.22565 0.59738
 C344 C 0.59119 0.19643 0.57567
 C345 C 0.62113 0.17477 0.58600
 C346 C 0.63997 0.18269 0.61689
 C347 C 0.65074 0.22255 0.66805
 C348 C 0.66988 0.23211 0.69227
 H349 H 0.59052 0.25680 0.64419
 H350 H 0.55738 0.24315 0.58994
 H351 H 0.63013 0.15185 0.57002
 H352 H 0.66343 0.16616 0.62402
 C353 C 0.70006 0.15368 0.88743
 C354 C 0.71516 0.16552 0.91900
 C355 C 0.71221 0.14279 0.94817
 C356 C 0.69396 0.10739 0.94649
 C357 C 0.67896 0.09588 0.91415
 C358 C 0.68199 0.11884 0.88501
 C359 C 0.70431 0.17725 0.85757
 C360 C 0.70956 0.19804 0.83352
 H361 H 0.72972 0.19227 0.92101
 H362 H 0.72582 0.15271 0.97150
 H363 H 0.66354 0.06976 0.91132
 H364 H 0.67011 0.10944 0.86063
 C365 C 0.18825 0.64646 0.38384
 C366 C 0.16006 0.61888 0.38551
 C367 C 0.15622 0.59651 0.41513
 C368 C 0.18051 0.60165 0.44338
 C369 C 0.20865 0.62947 0.44123
 C370 C 0.21239 0.65166 0.41182
 C371 C 0.19372 0.66928 0.35353
 C372 C 0.20089 0.68939 0.32932
 H373 H 0.14125 0.61455 0.36394
 H374 H 0.13422 0.57543 0.41604
 H375 H 0.22839 0.63362 0.46209
 H376 H 0.23448 0.67268 0.41075
 C377 C 0.32252 0.84719 0.88284
 C378 C 0.33500 0.83299 0.91425
 C379 C 0.33796 0.85606 0.94344
 C380 C 0.32811 0.89399 0.94197
 C381 C 0.31746 0.90821 0.90938
 C382 C 0.31452 0.88497 0.88030
 C383 C 0.31442 0.82233 0.85431
 C384 C 0.30568 0.80122 0.83115
 H385 H 0.34156 0.80378 0.91645
 H386 H 0.34819 0.84384 0.96701
 H387 H 0.30859 0.93658 0.90642
 H388 H 0.30448 0.89620 0.85615
 C389 C 0.81046 0.35136 0.38959
 C390 C 0.83991 0.37761 0.39105
 C391 C 0.84382 0.40149 0.41980
 C392 C 0.81834 0.39914 0.44733
 C393 C 0.78880 0.37284 0.44528
 C394 C 0.78499 0.34917 0.41675
 C395 C 0.80503 0.32684 0.36031
 C396 C 0.79762 0.30553 0.33694
 H397 H 0.85971 0.37965 0.37005
 H398 H 0.86685 0.42142 0.42069
 H399 H 0.76820 0.37089 0.46560
 H400 H 0.76191 0.32925 0.41578
 C401 C 0.11676 0.27353 0.86718
 C402 C 0.12589 0.25312 0.89663
 C403 C 0.10905 0.26060 0.92829
 C404 C 0.08282 0.28870 0.93097
 C405 C 0.07288 0.30835 0.90104
 C406 C 0.08992 0.30088 0.86929
 C407 C 0.13685 0.26739 0.83565
 C408 C 0.15579 0.26121 0.81074
 H409 H 0.14661 0.23187 0.89527
 H410 H 0.11682 0.24467 0.95081
 H411 H 0.05289 0.33027 0.90248
 H412 H 0.08278 0.31694 0.84666
 C413 C 0.63008 0.78220 0.36306
 C414 C 0.63940 0.76300 0.39315
 C415 C 0.62106 0.77003 0.42415
 C416 C 0.59309 0.79649 0.42559
 C417 C 0.58309 0.81499 0.39504
 C418 C 0.60163 0.80796 0.36391
 C419 C 0.65099 0.77581 0.33199
 C420 C 0.67034 0.76899 0.30748
 H421 H 0.66125 0.74290 0.39276
 H422 H 0.62892 0.75491 0.44713
 H423 H 0.56174 0.83561 0.39550
 H424 H 0.59422 0.82300 0.34075
 C425 C 0.87353 0.72862 0.86402
 C426 C 0.90040 0.70118 0.86417
 C427 C 0.91850 0.69241 0.89504
 C428 C 0.90963 0.71082 0.92606
 C429 C 0.88337 0.73904 0.92536
 C430 C 0.86546 0.74782 0.89457
 C431 C 0.85254 0.73610 0.83328
 C432 C 0.83323 0.74308 0.80884
 H433 H 0.90676 0.68608 0.84066
 H434 H 0.93848 0.67044 0.89494
 H435 H 0.87643 0.75408 0.94874
 H436 H 0.84476 0.76913 0.89473
 C437 C 0.37332 0.22473 0.36671
 C438 C 0.40134 0.19863 0.36905
 C439 C 0.41782 0.19145 0.40110
 C440 C 0.40624 0.21014 0.43117
 C441 C 0.37862 0.23684 0.42834
 C442 C 0.36231 0.24403 0.39637
 C443 C 0.35426 0.23082 0.33454
 C444 C 0.33624 0.23676 0.30896
 H445 H 0.40997 0.18340 0.34629
 H446 H 0.43885 0.17056 0.40256
 H447 H 0.36954 0.25209 0.45091
 H448 H 0.34066 0.26430 0.39487
 C449 C 0.69543 0.87244 0.86186
 C450 C 0.71101 0.90776 0.86909
 C451 C 0.70336 0.92551 0.90047
 C452 C 0.68011 0.90807 0.92516
 C453 C 0.66313 0.87337 0.91692
 C454 C 0.67083 0.85565 0.88550
 C455 C 0.70767 0.85186 0.83208
 C456 C 0.71932 0.83377 0.80826
 H457 H 0.73031 0.92089 0.85114
 H458 H 0.71728 0.95195 0.90620
 H459 H 0.64479 0.85944 0.93521
 H460 H 0.65868 0.82826 0.88022
 C461 C 0.21291 0.36644 0.36457
 C462 C 0.18801 0.39568 0.36523
 C463 C 0.17928 0.41282 0.39672
 C464 C 0.19525 0.40065 0.42781
 C465 C 0.22057 0.37159 0.42669
 C466 C 0.22927 0.35463 0.39531
 C467 C 0.22159 0.34757 0.33283
 C468 C 0.23024 0.32986 0.30769
 H469 H 0.17517 0.40498 0.34155
 H470 H 0.15958 0.43504 0.39691
 H471 H 0.23382 0.36211 0.45010
 H472 H 0.24869 0.33211 0.39505
 C473 C 0.28437 0.13004 0.86719
 C474 C 0.27188 0.09341 0.87321
 C475 C 0.28077 0.07547 0.90415
 C476 C 0.30221 0.09401 0.93003
 C477 C 0.31502 0.13089 0.92301
 C478 C 0.30614 0.14856 0.89204
 C479 C 0.27333 0.14965 0.83653
 C480 C 0.26363 0.16763 0.81195
 H481 H 0.25456 0.07892 0.85429
 H482 H 0.26894 0.04781 0.90814
 H483 H 0.33292 0.14612 0.94086
 H484 H 0.31614 0.17692 0.88761
 C485 C 0.79602 0.63623 0.36692
 C486 C 0.82470 0.65065 0.38778
 C487 C 0.83290 0.63359 0.41923
 C488 C 0.81245 0.60187 0.43023
 C489 C 0.78395 0.58730 0.40888
 C490 C 0.77578 0.60444 0.37744
 C491 C 0.78580 0.65563 0.33599
 C492 C 0.77661 0.67326 0.31108
 H493 H 0.84038 0.67540 0.37997
 H494 H 0.85520 0.64519 0.43500
 H495 H 0.76736 0.56326 0.41690
 H496 H 0.75323 0.59332 0.36167
 C497 C 0.15209 0.67598 0.88208
 C498 C 0.16498 0.66076 0.91290
 C499 C 0.14155 0.65731 0.94158
 C500 C 0.10462 0.66947 0.94022
 C501 C 0.09155 0.68263 0.90805
 C502 C 0.11514 0.68604 0.87947
 C503 C 0.17750 0.68458 0.85432
 C504 C 0.19884 0.69366 0.83167
 H505 H 0.19349 0.65249 0.91512
 H506 H 0.15273 0.64502 0.96475
 H507 H 0.06398 0.69320 0.90523
 H508 H 0.10490 0.69810 0.85575
 C509 C 0.64721 0.18099 0.38986
 C510 C 0.65824 0.16079 0.41889
 C511 C 0.63496 0.15770 0.44777
 C512 C 0.60043 0.17498 0.44798
 C513 C 0.58919 0.19411 0.41815
 C514 C 0.61241 0.19705 0.38937
 C515 C 0.67259 0.18840 0.36187
 C516 C 0.69361 0.19683 0.33878
 H517 H 0.68522 0.14837 0.41960
 H518 H 0.64426 0.14249 0.47017
 H519 H 0.56316 0.20835 0.41761
 H520 H 0.60374 0.21307 0.36719
 C521 C 0.84509 0.32489 0.88975
 C522 C 0.83152 0.31058 0.92090
 C523 C 0.85301 0.31269 0.95082
 C524 C 0.88904 0.32934 0.95054
 C525 C 0.90171 0.34505 0.91890
 C526 C 0.87998 0.34265 0.88884
 C527 C 0.82379 0.31836 0.85871
 C528 C 0.80466 0.31019 0.83411
 H529 H 0.80468 0.29635 0.92182
 H530 H 0.84183 0.29867 0.97340
 H531 H 0.92818 0.35962 0.91697
 H532 H 0.89069 0.35407 0.86480
 C533 C 0.34915 0.81521 0.38044
 C534 C 0.38477 0.80094 0.37969
 C535 C 0.40769 0.80426 0.40871
 C536 C 0.39531 0.82193 0.43902
 C537 C 0.35995 0.83748 0.43909
 C538 C 0.33699 0.83404 0.40998
 C539 C 0.32417 0.80718 0.35219
 C540 C 0.30343 0.79821 0.32897
 H541 H 0.39433 0.78598 0.35711
 H542 H 0.43443 0.79139 0.40793
 H543 H 0.34977 0.85159 0.46186
 H544 H 0.30939 0.84506 0.41090
 C545 C 0.28995 0.86699 0.13136
 C546 C 0.31877 0.85492 0.11028
 C547 C 0.32678 0.87314 0.07912
 C548 C 0.30600 0.90371 0.06855
 C549 C 0.27748 0.91609 0.09021
 C550 C 0.26948 0.89777 0.12138
 C551 C 0.27989 0.84615 0.16193
 C552 C 0.27088 0.82732 0.18651
 H553 H 0.33469 0.83102 0.11765
 H554 H 0.34916 0.86325 0.06319
 H555 H 0.26069 0.93924 0.08259
 H556 H 0.24686 0.90713 0.13732
 C557 C 0.78134 0.38276 0.63707
 C558 C 0.80915 0.41067 0.63577
 C559 C 0.81808 0.42773 0.60420
 C560 C 0.79946 0.41669 0.57370
 C561 C 0.77096 0.38932 0.57553
 C562 C 0.76201 0.37248 0.60700
 C563 C 0.77377 0.36258 0.66842
 C564 C 0.76663 0.34335 0.69313
 H565 H 0.82439 0.41865 0.65891
 H566 H 0.84024 0.44867 0.60339
 H567 H 0.75577 0.38076 0.55252
 H568 H 0.74046 0.35088 0.60776
 C569 C 0.70999 0.12782 0.13877
 C570 C 0.68047 0.10191 0.13511
 C571 C 0.67326 0.08509 0.10284
 C572 C 0.69537 0.09436 0.07395
 C573 C 0.72513 0.12008 0.07818
 C574 C 0.73229 0.13664 0.11025
 C575 C 0.71742 0.14682 0.17105
 C576 C 0.72557 0.16500 0.19640
 H577 H 0.66292 0.09498 0.15702
 H578 H 0.65012 0.06544 0.10030
 H579 H 0.74310 0.12722 0.05662
 H580 H 0.75522 0.15660 0.11275
 C581 C 0.21582 0.62369 0.63379
 C582 C 0.23393 0.63503 0.60346
 C583 C 0.22548 0.61755 0.57203
 C584 C 0.19868 0.58844 0.57046
 C585 C 0.18105 0.57664 0.60117
 C586 C 0.18952 0.59430 0.63271
 C587 C 0.22400 0.64337 0.66548
 C588 C 0.23226 0.66184 0.69056
 H589 H 0.25442 0.65767 0.60405
 H590 H 0.23997 0.62677 0.54892
 H591 H 0.16019 0.55438 0.60061
 H592 H 0.17531 0.58537 0.65606
 C593 C 0.85300 0.69461 0.11322
 C594 C 0.87681 0.66467 0.10935
 C595 C 0.89810 0.66141 0.07919
 C596 C 0.89560 0.68802 0.05260
 C597 C 0.87153 0.71787 0.05690
 C598 C 0.85041 0.72105 0.08689
 C599 C 0.83090 0.69905 0.14388
 C600 C 0.81117 0.70526 0.16827
 H601 H 0.87896 0.64400 0.12959
 H602 H 0.91627 0.63805 0.07654
 H603 H 0.86954 0.73927 0.03732
 H604 H 0.83220 0.74441 0.08965
 C605 C 0.34273 0.19574 0.61682
 C606 C 0.36834 0.16720 0.61432
 C607 C 0.39124 0.16484 0.58513
 C608 C 0.38861 0.19097 0.55816
 C609 C 0.36277 0.21945 0.56109
 C610 C 0.34003 0.22174 0.59012
 C611 C 0.31916 0.19928 0.64661
 C612 C 0.29845 0.20460 0.67048
 H613 H 0.37065 0.14691 0.63487
 H614 H 0.41073 0.14249 0.58351
 H615 H 0.36056 0.24045 0.54115
 H616 H 0.32047 0.24406 0.59186
 C617 C 0.14917 0.30220 0.11480
 C618 C 0.12439 0.33156 0.11295
 C619 C 0.10052 0.33428 0.08446
 C620 C 0.10140 0.30772 0.05755
 C621 C 0.12619 0.27824 0.05999
 C622 C 0.14986 0.27559 0.08830
 C623 C 0.17392 0.29838 0.14371
 C624 C 0.19536 0.29271 0.16690
 H625 H 0.12357 0.35227 0.13340
 H626 H 0.08181 0.35732 0.08322
 H627 H 0.12700 0.25690 0.04011
 H628 H 0.16868 0.25261 0.08958
 C629 C 0.64978 0.80900 0.61239
 C630 C 0.62365 0.83706 0.61021
 C631 C 0.60158 0.83993 0.58052
 C632 C 0.60566 0.81480 0.55277
 C633 C 0.63196 0.78674 0.55544
 C634 C 0.65383 0.78395 0.58495
 C635 C 0.67262 0.80496 0.64254
 C636 C 0.69288 0.79926 0.66661
 H637 H 0.62030 0.85659 0.63137
 H638 H 0.58163 0.86186 0.57911
 H639 H 0.63519 0.76644 0.53490
 H640 H 0.67381 0.76200 0.58646
   
