data_POSCAR
  _audit_creation_date              2014-09-24
  _audit_creation_method            'ToBaCCo'
  _symmetry_space_group_name_H-M    'P1'
  _symmetry_Int_Tables_number       1
  _symmetry_cell_setting            triclinic
  loop_
  _symmetry_equiv_pos_as_xyz
 x,y,z
_cell_length_a 29.3244
_cell_length_b 29.3266
_cell_length_c 48.3324
_cell_angle_alpha 81.989200
_cell_angle_beta 97.350600
_cell_angle_gamma 86.785000
loop_
  _atom_site_label
  _atom_site_type_symbol
  _atom_site_fract_x
  _atom_site_fract_y
  _atom_site_fract_z
O1 O 0.01792 0.52761 1.02827
 O2 O 0.02686 0.45089 0.97476
 O3 O 0.02692 0.54006 0.97500
 O4 O 0.01741 0.43924 1.02804
 O5 O -0.05846 0.44626 1.01693
 O6 O -0.04891 0.54714 0.96384
 O7 O -0.04898 0.45787 0.96361
 O8 O -0.05795 0.53472 1.01717
 Cu9 Cu 0.02995 0.48873 1.00253
 Cu10 Cu -0.06122 0.49722 0.98915
 C11 C -0.02151 0.54399 1.03182
 C12 C -0.00954 0.44109 0.96033
 C13 C -0.00941 0.56092 0.96066
 C14 C -0.02213 0.42588 1.03154
 O15 O 0.56133 -0.01589 0.52963
 O16 O 0.46208 -0.02759 0.47689
 O17 O 0.55129 -0.02755 0.47689
 O18 O 0.47280 -0.01571 0.52957
 O19 O 0.46586 0.06002 0.51668
 O20 O 0.54439 0.04814 0.46397
 O21 O 0.45507 0.04810 0.46395
 O22 O 0.55448 0.05983 0.51677
 Cu23 Cu 0.51256 -0.02934 0.50445
 Cu24 Cu 0.50425 0.06166 0.48894
 C25 C 0.57457 0.02393 0.53219
 C26 C 0.44153 0.00828 0.46171
 C27 C 0.56142 0.00832 0.46171
 C28 C 0.45620 0.02415 0.53208
 C29 C -0.04037 -0.10373 0.23475
 C30 C -0.07895 -0.10090 0.25318
 C31 C -0.07761 -0.06380 0.26736
 C32 C -0.03802 -0.03296 0.26192
 C33 C -0.04499 -0.05713 0.21543
 C34 C -0.04371 -0.02020 0.22969
 C35 C 0.00456 -0.10330 0.25478
 C36 C 0.00567 -0.06618 0.26894
 H37 H -0.10510 -0.12562 0.25468
 H38 H -0.03708 -0.00279 0.27354
 H39 H -0.04759 -0.05369 0.19258
 H40 H 0.03334 -0.12913 0.25692
 C41 C 0.09806 0.04509 0.73319
 C42 C 0.09676 -0.00004 0.75326
 C43 C 0.05934 -0.00090 0.76737
 C44 C 0.02669 0.04324 0.76026
 C45 C 0.05184 0.05044 0.71381
 C46 C 0.01458 0.04943 0.72802
 C47 C 0.09529 0.08348 0.75155
 C48 C 0.05788 0.08241 0.76567
 H49 H 0.12220 -0.02916 0.75541
 H50 H -0.00373 0.04251 0.77184
 H51 H 0.04886 0.05315 0.69098
 H52 H 0.12028 0.10933 0.75303
 C53 C -0.02488 -0.42634 0.05278
 C54 C -0.02741 -0.40127 0.07036
 C55 C -0.03008 -0.37105 0.09122
 C56 C 0.00960 -0.35182 0.10230
 C57 C 0.00697 -0.32162 0.12209
 C58 C -0.03546 -0.31022 0.13106
 C59 C -0.07511 -0.33005 0.11997
 C60 C -0.07239 -0.36027 0.10017
 C61 C -0.03846 -0.27678 0.15129
 C62 C -0.07561 -0.24295 0.14731
 C63 C -0.07720 -0.20990 0.16545
 C64 C -0.04181 -0.21028 0.18786
 C65 C -0.00514 -0.24428 0.19234
 C66 C -0.00346 -0.27737 0.17420
 C67 C -0.04187 -0.17423 0.20521
 C68 C -0.04145 -0.14301 0.21900
 H69 H 0.04250 -0.35981 0.09543
 H70 H 0.03797 -0.30640 0.12990
 H71 H -0.10817 -0.32234 0.12668
 H72 H -0.10331 -0.37506 0.09177
 H73 H -0.10276 -0.24119 0.12967
 H74 H -0.10555 -0.18349 0.16167
 H75 H 0.02249 -0.24482 0.20958
 H76 H 0.02528 -0.30332 0.17804
 C77 C -0.02573 0.38695 0.05245
 C78 C -0.02838 0.35410 0.07002
 C79 C -0.03107 0.31459 0.09087
 C80 C 0.00780 0.28385 0.10032
 C81 C 0.00510 0.24476 0.12002
 C82 C -0.03661 0.23586 0.13053
 C83 C -0.07539 0.26725 0.12113
 C84 C -0.07260 0.30637 0.10142
 C85 C -0.03992 0.19319 0.15046
 C86 C -0.07880 0.16741 0.14728
 C87 C -0.08069 0.12570 0.16489
 C88 C -0.04387 0.10928 0.18596
 C89 C -0.00548 0.13514 0.18971
 C90 C -0.00349 0.17687 0.17210
 C91 C -0.04429 0.06455 0.20244
 C92 C -0.04425 0.02632 0.21537
 H93 H 0.04007 0.28983 0.09222
 H94 H 0.03535 0.22093 0.12651
 H95 H -0.10782 0.26161 0.12907
 H96 H -0.10286 0.33003 0.09430
 H97 H -0.10711 0.17871 0.13060
 H98 H -0.11041 0.10575 0.16166
 H99 H 0.02327 0.12268 0.20591
 H100 H 0.02663 0.19623 0.17530
 C101 C 0.42578 0.02869 0.55268
 C102 C 0.40005 0.03227 0.56993
 C103 C 0.36900 0.03626 0.59038
 C104 C 0.32757 0.06383 0.58279
 C105 C 0.29673 0.06679 0.60235
 C106 C 0.30690 0.04210 0.62981
 C107 C 0.34887 0.01483 0.63732
 C108 C 0.37970 0.01195 0.61771
 C109 C 0.27321 0.04376 0.65018
 C110 C 0.26471 0.00330 0.66750
 C111 C 0.23127 0.00434 0.68562
 C112 C 0.20598 0.04578 0.68674
 C113 C 0.21474 0.08638 0.66999
 C114 C 0.24816 0.08543 0.65183
 C115 C 0.16936 0.04609 0.70387
 C116 C 0.13772 0.04590 0.71753
 H117 H 0.31887 0.08263 0.56164
 H118 H 0.26444 0.08755 0.59580
 H119 H 0.35791 -0.00415 0.65838
 H120 H 0.41172 -0.00944 0.62382
 H121 H 0.28294 -0.02941 0.66643
 H122 H 0.22451 -0.02736 0.69835
 H123 H 0.19528 0.11863 0.67066
 H124 H 0.25430 0.11724 0.63903
 C125 C -0.38902 0.02812 0.55177
 C126 C -0.35653 0.03146 0.56917
 C127 C -0.31743 0.03493 0.58981
 C128 C -0.30812 0.07759 0.59826
 C129 C -0.26938 0.08106 0.61778
 C130 C -0.23946 0.04183 0.62909
 C131 C -0.24944 -0.00097 0.62067
 C132 C -0.28815 -0.00435 0.60116
 C133 C -0.19719 0.04567 0.64886
 C134 C -0.18267 0.01089 0.67197
 C135 C -0.14131 0.01314 0.68950
 C136 C -0.11403 0.05018 0.68422
 C137 C -0.12867 0.08545 0.66168
 C138 C -0.17000 0.08329 0.64413
 C139 C -0.06964 0.05054 0.70072
 C140 C -0.03167 0.05032 0.71367
 H141 H -0.33064 0.10819 0.58966
 H142 H -0.26290 0.11437 0.62408
 H143 H -0.22673 -0.03166 0.62865
 H144 H -0.29497 -0.03751 0.59469
 H145 H -0.20315 -0.01817 0.67638
 H146 H -0.13023 -0.01441 0.70686
 H147 H -0.10762 0.11409 0.65727
 H148 H -0.17992 0.11029 0.62632
 C149 C -0.00594 -0.40075 0.94198
 C150 C -0.00259 -0.36623 0.92582
 C151 C 0.00180 -0.32458 0.90703
 C152 C 0.02845 -0.32561 0.88506
 C153 C 0.03388 -0.28487 0.86737
 C154 C 0.01271 -0.24249 0.87144
 C155 C -0.01430 -0.24189 0.89347
 C156 C -0.01967 -0.28268 0.91113
 C157 C 0.01932 -0.19905 0.85304
 C158 C 0.02635 -0.15806 0.86456
 C159 C 0.03352 -0.11742 0.84731
 C160 C 0.03370 -0.11716 0.81836
 C161 C 0.02641 -0.15763 0.80667
 C162 C 0.01926 -0.19831 0.82386
 C163 C 0.04221 -0.07567 0.80068
 C164 C 0.04978 -0.04133 0.78567
 H165 H 0.04542 -0.35781 0.88178
 H166 H 0.05540 -0.28638 0.85086
 H167 H -0.03151 -0.20995 0.89692
 H168 H -0.04039 -0.28148 0.92808
 H169 H 0.02720 -0.15764 0.88698
 H170 H 0.03931 -0.08632 0.85660
 H171 H 0.02641 -0.15780 0.78426
 H172 H 0.01334 -0.22911 0.81431
 C173 C -0.00602 0.40966 0.94031
 C174 C -0.00278 0.38247 0.92399
 C175 C 0.00139 0.34919 0.90501
 C176 C -0.02128 0.30847 0.90853
 C177 C -0.01615 0.27533 0.89075
 C178 C 0.01181 0.28249 0.86918
 C179 C 0.03415 0.32374 0.86566
 C180 C 0.02898 0.35683 0.88348
 C181 C 0.01822 0.24677 0.85074
 C182 C 0.01940 0.25951 0.82168
 C183 C 0.02633 0.22587 0.80448
 C184 C 0.03217 0.17910 0.81604
 C185 C 0.03077 0.16604 0.84487
 C186 C 0.02381 0.19961 0.86212
 C187 C 0.04057 0.14465 0.79842
 C188 C 0.04816 0.11609 0.78358
 H189 H -0.04274 0.30220 0.92513
 H190 H -0.03427 0.24424 0.89378
 H191 H 0.05637 0.33001 0.84950
 H192 H 0.04689 0.38812 0.88066
 H193 H 0.01462 0.29545 0.81223
 H194 H 0.02732 0.23636 0.78217
 H195 H 0.03546 0.12994 0.85407
 H196 H 0.02371 0.18872 0.88445
 C197 C -0.40653 0.00379 0.44200
 C198 C -0.37888 -0.00018 0.42589
 C199 C -0.34518 -0.00516 0.40711
 C200 C -0.35298 -0.03251 0.38570
 C201 C -0.31966 -0.03827 0.36794
 C202 C -0.27801 -0.01676 0.37141
 C203 C -0.27063 0.01089 0.39290
 C204 C -0.30401 0.01662 0.41061
 C205 C -0.24220 -0.02358 0.35291
 C206 C -0.19521 -0.03000 0.36420
 C207 C -0.16158 -0.03718 0.34687
 C208 C -0.17441 -0.03797 0.31805
 C209 C -0.22101 -0.03134 0.30659
 C210 C -0.25470 -0.02420 0.32388
 C211 C -0.13992 -0.04647 0.30033
 C212 C -0.11133 -0.05410 0.28538
 H213 H -0.38464 -0.04971 0.38288
 H214 H -0.32612 -0.06025 0.35185
 H215 H -0.23921 0.02838 0.39588
 H216 H -0.29762 0.03791 0.42711
 H217 H -0.18452 -0.03034 0.38652
 H218 H -0.12562 -0.04248 0.35599
 H219 H -0.23132 -0.03184 0.28430
 H220 H -0.29050 -0.01878 0.31449
 C221 C 0.40161 0.00368 0.44207
 C222 C 0.36756 -0.00059 0.42608
 C223 C 0.32644 -0.00619 0.40752
 C224 C 0.28389 0.01381 0.41175
 C225 C 0.24364 0.00719 0.39435
 C226 C 0.24542 -0.01965 0.37249
 C227 C 0.28843 -0.03931 0.36827
 C228 C 0.32864 -0.03261 0.38569
 C229 C 0.20255 -0.02756 0.35438
 C230 C 0.19587 -0.07130 0.34638
 C231 C 0.15551 -0.07883 0.32941
 C232 C 0.12126 -0.04281 0.32020
 C233 C 0.12750 0.00082 0.32806
 C234 C 0.16785 0.00842 0.34506
 C235 C 0.08005 -0.05060 0.30242
 C236 C 0.04591 -0.05750 0.28732
 H237 H 0.28176 0.03413 0.42868
 H238 H 0.21103 0.02229 0.39837
 H239 H 0.29102 -0.05963 0.35139
 H240 H 0.36139 -0.04824 0.38221
 H241 H 0.22161 -0.09987 0.35353
 H242 H 0.15100 -0.11275 0.32348
 H243 H 0.10129 0.02900 0.32095
 H244 H 0.17219 0.04260 0.35059
   
