data_POSCAR
  _audit_creation_date              2014-09-24
  _audit_creation_method            'ToBaCCo'
  _symmetry_space_group_name_H-M    'P1'
  _symmetry_Int_Tables_number       1
  _symmetry_cell_setting            triclinic
  loop_
  _symmetry_equiv_pos_as_xyz
 x,y,z
_cell_length_a 16.6391
_cell_length_b 16.7098
_cell_length_c 16.6482
_cell_angle_alpha 88.362800
_cell_angle_beta 94.521900
_cell_angle_gamma 85.722200
loop_
  _atom_site_label
  _atom_site_type_symbol
  _atom_site_fract_x
  _atom_site_fract_y
  _atom_site_fract_z
C1 C -0.01886 0.43207 0.19216
 C2 C 0.05049 0.41617 0.25792
 C3 C 0.05233 0.47269 0.31491
 C4 C -0.01404 0.54069 0.30104
 C5 C -0.09538 0.44258 0.23698
 C6 C -0.09265 0.49926 0.29420
 C7 C -0.00791 0.51728 0.15794
 C8 C -0.00544 0.57441 0.21579
 H9 H 0.09540 0.36574 0.25807
 H10 H -0.01161 0.58638 0.34827
 H11 H -0.14784 0.41016 0.22091
 H12 H -0.00474 0.53039 0.09433
 C13 C 0.03060 0.44586 0.80446
 C14 C -0.03768 0.44672 0.74338
 C15 C -0.05361 0.52190 0.69839
 C16 C 0.00629 0.57983 0.71973
 C17 C 0.09842 0.46432 0.75943
 C18 C 0.08622 0.53819 0.71239
 C19 C 0.01363 0.51560 0.85242
 C20 C 0.00069 0.58971 0.80640
 H21 H -0.06892 0.39429 0.72798
 H22 H -0.00420 0.63685 0.68308
 H23 H 0.14925 0.42076 0.75492
 H24 H 0.00791 0.51181 0.91689
 C25 C 0.18404 0.00765 0.44196
 C26 C 0.23762 0.07771 0.43612
 C27 C 0.29976 0.07478 0.49454
 C28 C 0.30248 0.00353 0.55440
 C29 C 0.24224 -0.06781 0.44384
 C30 C 0.30398 -0.06963 0.50248
 C31 C 0.15591 0.01018 0.52783
 C32 C 0.21864 0.00703 0.58672
 H33 H 0.22932 0.12331 0.38796
 H34 H 0.35324 0.00201 0.60219
 H35 H 0.23470 -0.11520 0.40157
 H36 H 0.09355 0.00603 0.54077
 C37 C 0.76155 -0.00520 0.39796
 C38 C 0.72815 -0.08253 0.41152
 C39 C 0.70732 -0.09583 0.49338
 C40 C 0.72333 -0.02866 0.54516
 C41 C 0.69775 0.05700 0.42512
 C42 C 0.67851 0.04561 0.50222
 C43 C 0.83321 -0.00345 0.46208
 C44 C 0.81309 -0.01452 0.53919
 H45 H 0.72104 -0.12547 0.36461
 H46 H 0.70665 -0.03762 0.60794
 H47 H 0.67369 0.10913 0.38818
 H48 H 0.89379 0.00804 0.44771
 C49 C 0.40390 0.21880 0.98885
 C50 C 0.41122 0.26477 1.06205
 C51 C 0.49101 0.29143 1.07905
 C52 C 0.54711 0.26755 1.01910
 C53 C 0.42910 0.27127 0.92593
 C54 C 0.50867 0.29740 0.94152
 C55 C 0.46696 0.15333 1.00066
 C56 C 0.54638 0.17962 1.01648
 H57 H 0.36090 0.28097 1.09729
 H58 H 0.60746 0.29024 1.03262
 H59 H 0.38827 0.29440 0.87517
 H60 H 0.45556 0.09051 0.99553
 C61 C 0.45634 0.81010 0.98705
 C62 C 0.45780 0.75249 0.91675
 C63 C 0.52089 0.69453 0.92499
 C64 C 0.57411 0.69794 1.00394
 C65 C 0.45536 0.75544 1.06281
 C66 C 0.51722 0.69656 1.07142
 C67 C 0.53685 0.84042 0.99269
 C68 C 0.60167 0.77794 1.00294
 H69 H 0.41544 0.76047 0.86390
 H70 H 0.62384 0.64923 1.01074
 H71 H 0.41270 0.76713 1.10758
 H72 H 0.54663 0.90378 0.99275
 B73 B 0.99023 1.07548 0.05565
 B74 B 0.98944 1.09728 -0.04481
 B75 B 1.07492 1.05490 0.00712
 B76 B 1.04696 0.98643 0.07523
 B77 B 0.94454 0.98767 0.06721
 B78 B 0.90978 1.05634 -0.00653
 B79 B 1.00005 0.93739 -0.07620
 B80 B 1.00164 0.91383 0.02395
 B81 B 0.91587 0.95759 -0.02664
 B82 B 0.94386 1.02464 -0.09467
 B83 B 1.04600 1.02410 -0.08683
 B84 B 1.08212 0.95533 -0.01318
 B85 B 0.57446 0.47977 0.45116
 B86 B 0.58642 0.48636 0.55301
 B87 B 0.54718 0.56800 0.49397
 B88 B 0.48734 0.53331 0.41727
 B89 B 0.48936 0.43285 0.42681
 B90 B 0.54987 0.40314 0.51083
 B91 B 0.42129 0.49681 0.55731
 B92 B 0.41043 0.48989 0.45633
 B93 B 0.44847 0.41020 0.51320
 B94 B 0.50793 0.44263 0.59119
 B95 B 0.50573 0.54447 0.58170
 B96 B 0.44532 0.57258 0.49718
 C97 C 0.97601 1.36573 0.13230
 C98 C 0.97686 1.28816 0.15717
 C99 C 0.96502 1.22371 0.09974
 C100 C 0.98863 1.14637 0.11909
 H101 H 0.98681 1.27201 0.22089
 H102 H 0.93783 1.24165 0.04080
 H103 H 0.96584 1.38188 0.06859
 H104 H 1.01555 1.13244 0.17936
 C105 C 1.00031 0.66211 0.20276
 C106 C 1.01145 0.69792 0.13226
 C107 C 1.01001 0.78665 0.12325
 C108 C 1.01186 0.82034 0.04988
 H109 H 1.01847 0.66219 0.07968
 H110 H 1.00489 0.82321 0.17544
 H111 H 0.99359 0.69930 0.25446
 H112 H 1.02435 0.77965 0.00269
 C113 C 1.04976 1.37389 -0.14561
 C114 C 0.99760 1.31346 -0.13522
 C115 C 1.02279 1.24220 -0.09124
 C116 C 0.97277 1.18346 -0.08907
 H117 H 0.93619 1.32092 -0.16248
 H118 H 1.08228 1.23491 -0.06006
 H119 H 1.10926 1.36643 -0.11316
 H120 H 0.91436 1.19323 -0.12306
 C121 C 0.97725 0.66089 -0.15673
 C122 C 0.98813 0.73775 -0.18705
 C123 C 0.96717 0.80352 -0.14118
 C124 C 1.00679 0.87027 -0.14259
 H125 H 1.02316 0.74518 -0.23857
 H126 H 0.92476 0.79570 -0.09615
 H127 H 0.95743 0.65546 -0.09633
 H128 H 1.05193 0.87551 -0.18528
 C129 C 1.11887 1.00754 0.37344
 C130 C 1.13873 0.98937 0.29908
 C131 C 1.07869 0.98806 0.22982
 C132 C 1.10192 0.96915 0.15705
 H133 H 1.20180 0.97620 0.28868
 H134 H 1.01690 1.00795 0.23796
 H135 H 1.05636 1.02298 0.38446
 H136 H 1.16459 0.94909 0.15129
 C137 C 1.20997 0.99159 -0.32695
 C138 C 1.14951 1.02612 -0.28952
 C139 C 1.13818 1.00490 -0.20487
 C140 C 1.08530 1.04987 -0.16632
 H141 H 1.10649 1.06955 -0.32244
 H142 H 1.16744 0.94973 -0.17747
 H143 H 1.25594 0.95206 -0.29306
 H144 H 1.05847 1.10485 -0.19659
 C145 C 0.78345 1.01862 0.31367
 C146 C 0.82774 0.97263 0.26660
 C147 C 0.86027 1.00792 0.19362
 C148 C 0.89459 0.96042 0.14063
 H149 H 0.84341 0.91005 0.28386
 H150 H 0.86008 1.07251 0.18595
 H151 H 0.77088 1.08131 0.29484
 H152 H 0.88924 0.89686 0.14859
 C153 C 0.87207 0.99017 -0.39040
 C154 C 0.85050 1.01757 -0.31977
 C155 C 0.90936 1.01479 -0.24873
 C156 C 0.88895 1.04185 -0.17753
 H157 H 0.78867 1.04023 -0.31353
 H158 H 0.96856 0.98559 -0.25447
 H159 H 0.93501 0.97199 -0.39736
 H160 H 0.82929 1.07150 -0.17369
 C161 C 1.32629 1.19126 -0.03506
 C162 C 1.27309 1.16291 0.01747
 C163 C 1.20308 1.12969 -0.01344
 C164 C 1.15154 1.10123 0.03533
 H165 H 1.28697 1.16498 0.08208
 H166 H 1.19178 1.12528 -0.07795
 H167 H 1.31156 1.18373 -0.09909
 H168 H 1.16319 1.10723 0.09981
 C169 C 0.61438 1.12441 0.02334
 C170 C 0.69229 1.14657 0.01483
 C171 C 0.75831 1.09000 0.01734
 C172 C 0.82912 1.11256 -0.00394
 H173 H 0.70181 1.20833 -0.00027
 H174 H 0.75125 1.02837 0.03511
 H175 H 0.60503 1.06096 0.02852
 H176 H 0.83282 1.17496 -0.02119
 C177 C 1.38604 0.87484 -0.02142
 C178 C 1.30858 0.85668 -0.02021
 C179 C 1.23933 0.91879 -0.02231
 C180 C 1.16383 0.89735 -0.01516
 H181 H 1.29619 0.79404 -0.01496
 H182 H 1.25079 0.98100 -0.02927
 H183 H 1.39898 0.93733 -0.02652
 H184 H 1.15610 0.83376 -0.00970
 C185 C 0.68435 0.78890 0.01214
 C186 C 0.71726 0.85622 -0.01780
 C187 C 0.80021 0.86474 -0.00707
 C188 C 0.83152 0.92246 -0.04844
 H189 H 0.67819 0.90116 -0.05332
 H190 H 0.83817 0.82617 0.03612
 H191 H 0.72554 0.73886 0.03582
 H192 H 0.79223 0.95667 -0.09418
 C193 C 0.84096 0.52324 0.34367
 C194 C 0.77781 0.47991 0.34960
 C195 C 0.71210 0.50609 0.39809
 C196 C 0.64862 0.46268 0.39948
 H197 H 0.77406 0.42394 0.31896
 H198 H 0.71659 0.55981 0.43175
 H199 H 0.84491 0.57778 0.37704
 H200 H 0.64952 0.40788 0.36648
 C201 C 0.11645 0.47305 0.38018
 C202 C 0.19297 0.45900 0.36413
 C203 C 0.25934 0.46729 0.42506
 C204 C 0.32892 0.48932 0.40122
 H205 H 0.20731 0.44665 0.30299
 H206 H 0.25110 0.45373 0.48738
 H207 H 0.10166 0.49343 0.43885
 H208 H 0.33268 0.50180 0.33744
 C209 C 0.87458 0.54315 0.64888
 C210 C 0.80762 0.49658 0.64573
 C211 C 0.73375 0.52067 0.60221
 C212 C 0.67193 0.47356 0.60354
 H213 H 0.81143 0.44039 0.68015
 H214 H 0.72725 0.57676 0.56774
 H215 H 0.86847 0.60109 0.61712
 H216 H 0.68043 0.41822 0.63988
 C217 C 0.14374 0.56536 0.66194
 C218 C 0.22349 0.53060 0.66678
 C219 C 0.27929 0.54368 0.60989
 C220 C 0.35080 0.49994 0.61730
 H221 H 0.24341 0.48931 0.71681
 H222 H 0.26287 0.58450 0.55871
 H223 H 0.12587 0.61430 0.61861
 H224 H 0.36315 0.45917 0.66930
 C225 C 0.53761 0.64256 0.14290
 C226 C 0.48999 0.63654 0.20295
 C227 C 0.51679 0.58697 0.27563
 C228 C 0.46747 0.58190 0.33421
 H229 H 0.43104 0.66902 0.19962
 H230 H 0.57677 0.55689 0.28146
 H231 H 0.59553 0.60775 0.14692
 H232 H 0.40865 0.61491 0.32608
 C233 C 0.54587 0.64078 0.86091
 C234 C 0.52623 0.65877 0.78304
 C235 C 0.55009 0.60484 0.71937
 C236 C 0.49927 0.60275 0.65403
 H237 H 0.48831 0.71281 0.76504
 H238 H 0.60566 0.56667 0.72703
 H239 H 0.58497 0.58726 0.87817
 H240 H 0.44307 0.64018 0.65241
 C241 C 0.51571 0.33503 0.14601
 C242 C 0.47428 0.33976 0.21542
 C243 C 0.50278 0.38351 0.28042
 C244 C 0.47023 0.37895 0.35106
 H245 H 0.42178 0.30590 0.22079
 H246 H 0.55090 0.42177 0.27204
 H247 H 0.57351 0.36113 0.14632
 H248 H 0.42038 0.34146 0.35514
 C249 C 0.54659 0.34338 0.88575
 C250 C 0.52004 0.34341 0.80435
 C251 C 0.54263 0.39517 0.74428
 C252 C 0.50819 0.38746 0.66996
 H253 H 0.47780 0.29964 0.78625
 H254 H 0.58320 0.44100 0.75838
 H255 H 0.59931 0.37439 0.90499
 H256 H 0.46924 0.33881 0.66130
 C257 C 0.67486 0.83509 0.52485
 C258 C 0.65311 0.76935 0.48021
 C259 C 0.61835 0.70378 0.51541
 C260 C 0.59211 0.64543 0.46892
 H261 H 0.66092 0.76989 0.41625
 H262 H 0.61096 0.70140 0.57946
 H263 H 0.66433 0.83361 0.58832
 H264 H 0.60025 0.65090 0.40515
 C265 C 0.63215 0.10841 0.54338
 C266 C 0.65216 0.18397 0.53617
 C267 C 0.59782 0.25378 0.55271
 C268 C 0.60746 0.32296 0.51384
 H269 H 0.70665 0.19508 0.50709
 H270 H 0.54738 0.24666 0.58866
 H271 H 0.57966 0.09374 0.57372
 H272 H 0.65935 0.32503 0.47886
 C273 C 0.36485 0.86296 0.51778
 C274 C 0.34782 0.78953 0.49767
 C275 C 0.40724 0.72171 0.51139
 C276 C 0.38800 0.65087 0.48559
 H277 H 0.28819 0.77838 0.47148
 H278 H 0.46504 0.72979 0.54292
 H279 H 0.42286 0.87329 0.54851
 H280 H 0.32945 0.64573 0.45346
 C281 C 0.36277 0.13114 0.49640
 C282 C 0.34320 0.20963 0.49390
 C283 C 0.40546 0.26651 0.49252
 C284 C 0.39208 0.33881 0.52211
 H285 H 0.28032 0.23224 0.49387
 H286 H 0.46009 0.24991 0.46393
 H287 H 0.42559 0.10789 0.50350
 H288 H 0.33733 0.35143 0.55207
   
