data_POSCAR
  _audit_creation_date              2014-09-24
  _audit_creation_method            'ToBaCCo'
  _symmetry_space_group_name_H-M    'P1'
  _symmetry_Int_Tables_number       1
  _symmetry_cell_setting            triclinic
  loop_
  _symmetry_equiv_pos_as_xyz
 x,y,z
_cell_length_a 44.5423
_cell_length_b 44.5503
_cell_length_c 8.9373
_cell_angle_alpha 90.000000
_cell_angle_beta 90.000000
_cell_angle_gamma 90.000000
loop_
  _atom_site_label
  _atom_site_type_symbol
  _atom_site_fract_x
  _atom_site_fract_y
  _atom_site_fract_z
O1 O 0.22590 0.27891 0.09700
 O2 O 0.28321 0.22056 0.15767
 O3 O 0.22602 0.22044 0.09688
 O4 O 0.28310 0.27901 0.15772
 O5 O 0.27288 0.27898 0.39986
 O6 O 0.21580 0.22041 0.33898
 O7 O 0.27299 0.22052 0.39980
 O8 O 0.21568 0.27887 0.33914
 Cu9 Cu 0.25561 0.24973 0.10302
 Cu10 Cu 0.24328 0.24969 0.39374
 C11 C 0.21111 0.28874 0.20799
 C12 C 0.28779 0.21070 0.28883
 C13 C 0.21127 0.21053 0.20780
 C14 C 0.28764 0.28887 0.28892
 O15 O 0.71677 0.27945 0.15766
 O16 O 0.77408 0.22110 0.09700
 O17 O 0.71688 0.22101 0.15772
 O18 O 0.77396 0.27958 0.09688
 O19 O 0.78418 0.27961 0.33898
 O20 O 0.72710 0.22103 0.39986
 O21 O 0.78430 0.22115 0.33914
 O22 O 0.72699 0.27950 0.39980
 Cu23 Cu 0.74437 0.25028 0.10302
 Cu24 Cu 0.75670 0.25032 0.39374
 C25 C 0.71219 0.28931 0.28883
 C26 C 0.78887 0.21128 0.20799
 C27 C 0.71234 0.21115 0.28892
 C28 C 0.78871 0.28948 0.20780
 O29 O 0.77408 0.77891 0.90302
 O30 O 0.71677 0.72056 0.84236
 O31 O 0.77396 0.72044 0.90315
 O32 O 0.71688 0.77901 0.84230
 O33 O 0.72710 0.77898 0.60016
 O34 O 0.78418 0.72041 0.66104
 O35 O 0.72699 0.72052 0.60022
 O36 O 0.78430 0.77887 0.66088
 Cu37 Cu 0.74437 0.74973 0.89701
 Cu38 Cu 0.75670 0.74969 0.60629
 C39 C 0.78887 0.78874 0.79204
 C40 C 0.71219 0.71070 0.71119
 C41 C 0.78871 0.71053 0.79222
 C42 C 0.71234 0.78887 0.71110
 O43 O 0.28321 0.77945 0.84236
 O44 O 0.22590 0.72110 0.90302
 O45 O 0.28310 0.72101 0.84230
 O46 O 0.22602 0.77958 0.90315
 O47 O 0.21580 0.77961 0.66104
 O48 O 0.27288 0.72103 0.60016
 O49 O 0.21568 0.72115 0.66088
 O50 O 0.27299 0.77950 0.60022
 Cu51 Cu 0.25561 0.75028 0.89701
 Cu52 Cu 0.24328 0.75032 0.60629
 C53 C 0.28779 0.78931 0.71119
 C54 C 0.21111 0.71128 0.79203
 C55 C 0.28764 0.71115 0.71110
 C56 C 0.21127 0.78948 0.79222
 O57 O 0.97170 -0.02377 -0.15005
 O58 O 1.03015 0.03350 -0.09185
 O59 O 1.03015 -0.02378 -0.15009
 O60 O 0.97170 0.03349 -0.09189
 O61 O 0.97170 0.02379 0.15007
 O62 O 1.03015 -0.03348 0.09187
 O63 O 1.03015 0.02379 0.15011
 O64 O 0.97170 -0.03348 0.09192
 Cu65 Cu 1.00093 0.00586 -0.14506
 Cu66 Cu 1.00093 -0.00585 0.14508
 C67 C 0.96169 -0.03846 -0.03885
 C68 C 1.04015 0.03848 0.03893
 C69 C 1.04015 -0.03847 -0.03891
 C70 C 0.96169 0.03847 0.03887
 O71 O 0.47047 0.47633 0.34954
 O72 O 0.52892 0.53356 0.40873
 O73 O 0.52892 0.47634 0.34950
 O74 O 0.47047 0.53356 0.40868
 O75 O 0.47047 0.52368 0.65048
 O76 O 0.52892 0.46646 0.59129
 O77 O 0.52892 0.52367 0.65052
 O78 O 0.47047 0.46646 0.59134
 Cu79 Cu 0.49969 0.50597 0.35503
 Cu80 Cu 0.49969 0.49405 0.64499
 C81 C 0.46046 0.46157 0.46049
 C82 C 0.53894 0.53843 0.53958
 C83 C 0.53894 0.46158 0.46044
 C84 C 0.46046 0.53844 0.53953
 O85 O -0.03017 0.53350 0.09187
 O86 O 0.02828 0.47623 0.15007
 O87 O 0.02827 0.53349 0.09192
 O88 O -0.03017 0.47622 0.15011
 O89 O -0.03017 0.46652 -0.09185
 O90 O 0.02828 0.52379 -0.15005
 O91 O 0.02828 0.46652 -0.09189
 O92 O -0.03017 0.52379 -0.15009
 Cu93 Cu -0.00095 0.50586 0.14508
 Cu94 Cu -0.00095 0.49415 -0.14506
 C95 C -0.04017 0.53848 -0.03891
 C96 C 0.03829 0.46154 0.03887
 C97 C 0.03829 0.53847 -0.03885
 C98 C -0.04017 0.46153 0.03893
 O99 O 0.47106 1.03356 0.59129
 O100 O 0.52951 0.97633 0.65048
 O101 O 0.52951 1.03356 0.59134
 O102 O 0.47106 0.97634 0.65052
 O103 O 0.47106 0.96646 0.40873
 O104 O 0.52951 1.02368 0.34955
 O105 O 0.52951 0.96646 0.40868
 O106 O 0.47106 1.02367 0.34950
 Cu107 Cu 0.50029 1.00597 0.64499
 Cu108 Cu 0.50029 0.99405 0.35503
 C109 C 0.46104 1.03843 0.46044
 C110 C 0.53952 0.96157 0.53953
 C111 C 0.53952 1.03844 0.46049
 C112 C 0.46104 0.96158 0.53958
 C113 C 1.09678 0.08964 0.22724
 C114 C 1.10797 0.10575 0.10492
 C115 C 1.09707 0.09983 -0.03890
 C116 C 1.07503 0.07791 -0.06051
 C117 C 1.19020 0.18897 0.18588
 C118 C 1.07474 0.06770 0.20595
 C119 C 1.13055 0.12844 0.12696
 C120 C 1.14941 0.14749 0.14533
 C121 C 1.17143 0.16984 0.16698
 C122 C 1.06359 0.06160 0.06175
 H123 H 1.10506 0.09406 0.33909
 H124 H 1.10558 0.11218 -0.13437
 H125 H 1.06695 0.07377 -0.17291
 H126 H 1.06641 0.05557 0.30239
 C127 C 0.59578 0.58925 0.72863
 C128 C 0.60703 0.60539 0.60656
 C129 C 0.59606 0.59963 0.46268
 C130 C 0.57392 0.57784 0.44077
 C131 C 0.68979 0.68804 0.68805
 C132 C 0.57363 0.56742 0.70704
 C133 C 0.62975 0.62792 0.62886
 C134 C 0.64873 0.64684 0.64739
 C135 C 0.67091 0.66904 0.66915
 C136 C 0.56244 0.56148 0.56278
 H137 H 0.60411 0.59354 0.84052
 H138 H 0.60461 0.61201 0.36740
 H139 H 0.56580 0.57381 0.32834
 H140 H 0.56527 0.55525 0.80328
 C141 C -0.09680 0.41037 0.22724
 C142 C -0.10799 0.39426 0.10492
 C143 C -0.09709 0.40019 -0.03890
 C144 C -0.07505 0.42210 -0.06051
 C145 C -0.19022 0.31104 0.18588
 C146 C -0.07476 0.43231 0.20595
 C147 C -0.13057 0.37157 0.12696
 C148 C -0.14943 0.35252 0.14533
 C149 C -0.17145 0.33017 0.16698
 C150 C -0.06361 0.43841 0.06175
 H151 H -0.10508 0.40595 0.33909
 H152 H -0.10560 0.38784 -0.13437
 H153 H -0.06697 0.42624 -0.17291
 H154 H -0.06643 0.44445 0.30239
 C155 C 0.40392 0.90038 0.46268
 C156 C 0.39295 0.89462 0.60656
 C157 C 0.40420 0.91077 0.72863
 C158 C 0.42635 0.93259 0.70704
 C159 C 0.31019 0.81197 0.68805
 C160 C 0.42606 0.92218 0.44077
 C161 C 0.37023 0.87209 0.62886
 C162 C 0.35125 0.85318 0.64739
 C163 C 0.32907 0.83098 0.66915
 C164 C 0.43754 0.93853 0.56278
 H165 H 0.39537 0.88801 0.36740
 H166 H 0.39587 0.90648 0.84052
 H167 H 0.43471 0.94477 0.80328
 H168 H 0.43418 0.92620 0.32834
 C169 C -0.09709 0.59983 0.03893
 C170 C -0.10799 0.60575 -0.10490
 C171 C -0.09680 0.58964 -0.22722
 C172 C -0.07476 0.56770 -0.20593
 C173 C -0.19022 0.68897 -0.18586
 C174 C -0.07505 0.57791 0.06053
 C175 C -0.13057 0.62844 -0.12694
 C176 C -0.14943 0.64749 -0.14530
 C177 C -0.17145 0.66984 -0.16696
 C178 C -0.06362 0.56160 -0.06173
 H179 H -0.10560 0.61218 0.13439
 H180 H -0.10508 0.59406 -0.33907
 H181 H -0.06643 0.55557 -0.30236
 H182 H -0.06697 0.57377 0.17293
 C183 C 0.40392 1.09963 0.53734
 C184 C 0.39295 1.10539 0.39347
 C185 C 0.40420 1.08925 0.27139
 C186 C 0.42635 1.06742 0.29298
 C187 C 0.31019 1.18804 0.31197
 C188 C 0.42606 1.07784 0.55925
 C189 C 0.37023 1.12792 0.37116
 C190 C 0.35125 1.14684 0.35264
 C191 C 0.32907 1.16904 0.33088
 C192 C 0.43754 1.06148 0.43725
 H193 H 0.39537 1.11201 0.63262
 H194 H 0.39587 1.09354 0.15951
 H195 H 0.43471 1.05525 0.19674
 H196 H 0.43418 1.07381 0.67169
 C197 C 1.09678 -0.08963 -0.22722
 C198 C 1.10797 -0.10574 -0.10490
 C199 C 1.09707 -0.09981 0.03893
 C200 C 1.07503 -0.07790 0.06053
 C201 C 1.19020 -0.18896 -0.18586
 C202 C 1.07474 -0.06769 -0.20593
 C203 C 1.13055 -0.12843 -0.12694
 C204 C 1.14941 -0.14748 -0.14531
 C205 C 1.17143 -0.16983 -0.16696
 C206 C 1.06359 -0.06159 -0.06173
 H207 H 1.10506 -0.09405 -0.33907
 H208 H 1.10558 -0.11216 0.13439
 H209 H 1.06695 -0.07376 0.17293
 H210 H 1.06641 -0.05555 -0.30236
 C211 C 0.59578 0.41077 0.27139
 C212 C 0.60703 0.39462 0.39347
 C213 C 0.59606 0.40038 0.53734
 C214 C 0.57392 0.42218 0.55925
 C215 C 0.68979 0.31197 0.31197
 C216 C 0.57363 0.43259 0.29298
 C217 C 0.62975 0.37209 0.37116
 C218 C 0.64873 0.35318 0.35264
 C219 C 0.67091 0.33098 0.33088
 C220 C 0.56244 0.43853 0.43725
 H221 H 0.60411 0.40648 0.15951
 H222 H 0.60461 0.38801 0.63262
 H223 H 0.56580 0.42620 0.67169
 H224 H 0.56527 0.44477 0.19674
 C225 C 0.90496 -0.08954 -0.22697
 C226 C 0.89375 -0.10562 -0.10460
 C227 C 0.90469 -0.09972 0.03918
 C228 C 0.92678 -0.07784 0.06069
 C229 C 0.81123 -0.18856 -0.18491
 C230 C 0.92705 -0.06764 -0.20577
 C231 C 0.87111 -0.12824 -0.12651
 C232 C 0.85218 -0.14723 -0.14472
 C233 C 0.83007 -0.16950 -0.16619
 C234 C 0.93822 -0.06156 -0.06162
 H235 H 0.89665 -0.09394 -0.33878
 H236 H 0.89617 -0.11204 0.13468
 H237 H 0.93488 -0.07372 0.17306
 H238 H 0.93538 -0.05552 -0.30224
 C239 C 0.40340 0.40031 0.53745
 C240 C 0.39246 0.39452 0.39357
 C241 C 0.40369 0.41067 0.27147
 C242 C 0.42580 0.43253 0.29305
 C243 C 0.30995 0.31161 0.31211
 C244 C 0.42551 0.42215 0.55934
 C245 C 0.36980 0.37193 0.37127
 C246 C 0.35087 0.35295 0.35276
 C247 C 0.32876 0.33068 0.33102
 C248 C 0.43698 0.43850 0.43731
 H249 H 0.39487 0.38793 0.63274
 H250 H 0.39538 0.40635 0.15958
 H251 H 0.43415 0.44471 0.19679
 H252 H 0.43361 0.42619 0.67178
 C253 C 0.09529 0.59973 0.03918
 C254 C 0.10623 0.60564 -0.10460
 C255 C 0.09502 0.58955 -0.22697
 C256 C 0.07293 0.56765 -0.20577
 C257 C 0.18875 0.68857 -0.18491
 C258 C 0.07320 0.57786 0.06069
 C259 C 0.12887 0.62826 -0.12651
 C260 C 0.14780 0.64724 -0.14473
 C261 C 0.16991 0.66952 -0.16619
 C262 C 0.06175 0.56157 -0.06162
 H263 H 0.10381 0.61206 0.13468
 H264 H 0.10333 0.59395 -0.33878
 H265 H 0.06460 0.55553 -0.30224
 H266 H 0.06510 0.57373 0.17306
 C267 C 0.59658 1.09970 0.53745
 C268 C 0.60752 1.10550 0.39357
 C269 C 0.59629 1.08934 0.27147
 C270 C 0.57418 1.06748 0.29305
 C271 C 0.69003 1.18840 0.31211
 C272 C 0.57447 1.07787 0.55934
 C273 C 0.63018 1.12809 0.37127
 C274 C 0.64911 1.14706 0.35276
 C275 C 0.67121 1.16933 0.33102
 C276 C 0.56300 1.06151 0.43731
 H277 H 0.60511 1.11209 0.63274
 H278 H 0.60460 1.09366 0.15958
 H279 H 0.56583 1.05530 0.19679
 H280 H 0.56637 1.07382 0.67178
 C281 C 0.09502 0.41046 0.22699
 C282 C 0.10623 0.39438 0.10462
 C283 C 0.09529 0.40028 -0.03916
 C284 C 0.07320 0.42216 -0.06067
 C285 C 0.18875 0.31144 0.18493
 C286 C 0.07293 0.43236 0.20579
 C287 C 0.12887 0.37176 0.12653
 C288 C 0.14780 0.35277 0.14475
 C289 C 0.16991 0.33050 0.16621
 C290 C 0.06176 0.43844 0.06164
 H291 H 0.10333 0.40606 0.33880
 H292 H 0.10381 0.38796 -0.13466
 H293 H 0.06510 0.42628 -0.17304
 H294 H 0.06460 0.44448 0.30226
 C295 C 0.59658 0.90031 0.46257
 C296 C 0.60752 0.89452 0.60646
 C297 C 0.59629 0.91067 0.72855
 C298 C 0.57418 0.93253 0.70697
 C299 C 0.69003 0.81161 0.68791
 C300 C 0.57447 0.92215 0.44068
 C301 C 0.63018 0.87193 0.62875
 C302 C 0.64911 0.85295 0.64726
 C303 C 0.67121 0.83068 0.66900
 C304 C 0.56300 0.93850 0.56271
 H305 H 0.60511 0.88793 0.36728
 H306 H 0.60460 0.90635 0.84044
 H307 H 0.56583 0.94471 0.80323
 H308 H 0.56637 0.92619 0.32824
 C309 C 0.90496 0.08955 0.22699
 C310 C 0.89375 0.10563 0.10462
 C311 C 0.90469 0.09973 -0.03916
 C312 C 0.92678 0.07786 -0.06067
 C313 C 0.81123 0.18857 0.18494
 C314 C 0.92705 0.06765 0.20580
 C315 C 0.87111 0.12825 0.12653
 C316 C 0.85218 0.14724 0.14475
 C317 C 0.83007 0.16952 0.16621
 C318 C 0.93822 0.06157 0.06164
 H319 H 0.89665 0.09395 0.33880
 H320 H 0.89617 0.11206 -0.13466
 H321 H 0.93488 0.07373 -0.17304
 H322 H 0.93538 0.05553 0.30226
 C323 C 0.40369 0.58934 0.72855
 C324 C 0.39246 0.60550 0.60645
 C325 C 0.40340 0.59970 0.46257
 C326 C 0.42551 0.57787 0.44068
 C327 C 0.30995 0.68840 0.68791
 C328 C 0.42580 0.56748 0.70697
 C329 C 0.36980 0.62809 0.62875
 C330 C 0.35087 0.64706 0.64726
 C331 C 0.32876 0.66933 0.66900
 C332 C 0.43698 0.56151 0.56271
 H333 H 0.39538 0.59366 0.84044
 H334 H 0.39487 0.61209 0.36728
 H335 H 0.43361 0.57382 0.32824
 H336 H 0.43415 0.55530 0.80323
   
