data_POSCAR
  _audit_creation_date              2014-09-24
  _audit_creation_method            'ToBaCCo'
  _symmetry_space_group_name_H-M    'P1'
  _symmetry_Int_Tables_number       1
  _symmetry_cell_setting            triclinic
  loop_
  _symmetry_equiv_pos_as_xyz
 x,y,z
_cell_length_a 47.8866
_cell_length_b 48.2770
_cell_length_c 17.4768
_cell_angle_alpha 90.175000
_cell_angle_beta 89.915300
_cell_angle_gamma 120.647200
loop_
  _atom_site_label
  _atom_site_type_symbol
  _atom_site_fract_x
  _atom_site_fract_y
  _atom_site_fract_z
C1 C 0.32006 0.52242 0.43039
 C2 C 0.33674 0.52940 0.49979
 C3 C 0.32045 0.52077 0.57029
 C4 C 0.28619 0.50709 0.57133
 C5 C 0.26911 0.50170 0.50126
 C6 C 0.28605 0.50884 0.43060
 C7 C 0.26865 0.50249 0.36189
 C8 C 0.23521 0.48913 0.36220
 C9 C 0.21795 0.48263 0.43125
 C10 C 0.23495 0.48887 0.50168
 C11 C 0.26876 0.50003 0.64038
 C12 C 0.23533 0.48734 0.64081
 C13 C 0.21791 0.48225 0.57233
 C14 C 0.18368 0.46903 0.57202
 C15 C 0.16751 0.46213 0.50136
 C16 C 0.18401 0.46951 0.43165
 H17 H 0.28073 0.50790 0.30697
 H18 H 0.22303 0.48386 0.30743
 H19 H 0.28084 0.50459 0.69514
 H20 H 0.22327 0.48118 0.69574
 H21 H 0.36271 0.53878 0.49827
 H22 H 0.14164 0.45329 0.50026
 C23 C 0.47638 -0.32012 0.56136
 C24 C 0.47902 -0.33140 0.48889
 C25 C 0.47806 -0.31669 0.42091
 C26 C 0.47550 -0.28887 0.42423
 C27 C 0.47307 -0.27662 0.49641
 C28 C 0.47310 -0.29238 0.56524
 C29 C 0.47234 -0.27841 0.63553
 C30 C 0.47018 -0.25079 0.63855
 C31 C 0.47104 -0.23433 0.57166
 C32 C 0.47207 -0.24764 0.49973
 C33 C 0.47679 -0.27220 0.35726
 C34 C 0.47575 -0.24400 0.36064
 C35 C 0.47330 -0.23139 0.43106
 C36 C 0.47285 -0.20245 0.43467
 C37 C 0.46969 -0.19081 0.50524
 C38 C 0.46987 -0.20547 0.57430
 H39 H 0.47403 -0.28809 0.68969
 H40 H 0.46805 -0.24241 0.69447
 H41 H 0.47922 -0.28046 0.30140
 H42 H 0.47698 -0.23206 0.30733
 H43 H 0.48115 -0.35269 0.48488
 H44 H 0.47033 -0.16800 0.50636
 C45 C 1.18513 0.70286 0.57209
 C46 C 1.17547 0.68646 0.50180
 C47 C 1.18504 0.70297 0.43225
 C48 C 1.20743 0.73643 0.43175
 C49 C 1.21935 0.75322 0.50189
 C50 C 1.20770 0.73656 0.57228
 C51 C 1.21964 0.75388 0.64099
 C52 C 1.24128 0.78686 0.64083
 C53 C 1.25371 0.80385 0.57205
 C54 C 1.24220 0.78692 0.50162
 C55 C 1.21765 0.75357 0.36276
 C56 C 1.23965 0.78653 0.36241
 C57 C 1.25303 0.80363 0.43091
 C58 C 1.27521 0.83736 0.43086
 C59 C 1.28462 0.85368 0.50120
 C60 C 1.27576 0.83762 0.57169
 H61 H 1.21239 0.74214 0.69604
 H62 H 1.24770 0.79892 0.69571
 H63 H 1.20858 0.74162 0.30823
 H64 H 1.24550 0.79859 0.30766
 H65 H 1.15730 0.66099 0.50090
 H66 H 1.30287 0.87911 0.50100
 C67 C 0.82268 0.51879 0.43364
 C68 C 0.83860 0.52402 0.50350
 C69 C 0.82302 0.52067 0.57370
 C70 C 0.79001 0.51256 0.57355
 C71 C 0.77345 0.50742 0.50252
 C72 C 0.78973 0.51005 0.43242
 C73 C 0.77313 0.50530 0.36294
 C74 C 0.74123 0.49837 0.36178
 C75 C 0.72509 0.49708 0.42988
 C76 C 0.74115 0.50145 0.50115
 C77 C 0.77405 0.51234 0.64135
 C78 C 0.74280 0.50757 0.63972
 C79 C 0.72584 0.50214 0.57036
 C80 C 0.69521 0.50011 0.56688
 C81 C 0.67961 0.49494 0.49600
 C82 C 0.69380 0.49299 0.42823
 H83 H 0.78483 0.50761 0.30844
 H84 H 0.72965 0.49513 0.30664
 H85 H 0.78616 0.51741 0.69618
 H86 H 0.73244 0.50898 0.69353
 H87 H 0.86364 0.52964 0.50295
 H88 H 0.65623 0.49348 0.49313
 C89 C 0.53161 0.32694 0.43367
 C90 C 0.53639 0.34364 0.50238
 C91 C 0.53183 0.32855 0.57366
 C92 C 0.52415 0.29594 0.57562
 C93 C 0.52100 0.27931 0.50582
 C94 C 0.52449 0.29480 0.43470
 C95 C 0.52010 0.27759 0.36635
 C96 C 0.51281 0.24578 0.36755
 C97 C 0.50953 0.22997 0.43712
 C98 C 0.51357 0.24682 0.50699
 C99 C 0.52106 0.27997 0.64515
 C100 C 0.51353 0.24804 0.64630
 C101 C 0.50955 0.23102 0.57797
 C102 C 0.50114 0.19842 0.57847
 C103 C 0.49728 0.18223 0.50936
 C104 C 0.50142 0.19743 0.43894
 H105 H 0.52234 0.28862 0.31112
 H106 H 0.50951 0.23361 0.31331
 H107 H 0.52476 0.29208 0.69957
 H108 H 0.51091 0.23681 0.70144
 H109 H 0.54089 0.36806 0.49996
 H110 H 0.49077 0.15715 0.51045
 C111 C 0.71250 0.16095 0.42826
 C112 C 0.69964 0.14503 0.49736
 C113 C 0.71035 0.16042 0.56857
 C114 C 0.73630 0.19300 0.57020
 C115 C 0.75019 0.20931 0.50009
 C116 C 0.73816 0.19328 0.42901
 C117 C 0.75277 0.20960 0.36064
 C118 C 0.77864 0.24119 0.36166
 C119 C 0.79115 0.25748 0.43112
 C120 C 0.77685 0.24145 0.50100
 C121 C 0.75043 0.20894 0.63950
 C122 C 0.77667 0.24038 0.64027
 C123 C 0.79019 0.25701 0.57179
 C124 C 0.81748 0.28847 0.57205
 C125 C 0.83076 0.30418 0.50300
 C126 C 0.81833 0.28906 0.43280
 H127 H 0.74474 0.19790 0.30555
 H128 H 0.78907 0.25263 0.30746
 H129 H 0.74208 0.19697 0.69402
 H130 H 0.78661 0.25143 0.69522
 H131 H 0.67912 0.12057 0.49506
 H132 H 0.85236 0.32798 0.50393
 O133 O 0.95734 0.42549 0.14239
 O134 O 0.92186 0.43310 0.07011
 C135 C 0.92825 0.41847 0.12357
 O136 O 1.05072 0.56948 0.12984
 O137 O 1.08604 0.55921 0.06417
 C138 C 1.07978 0.57579 0.11277
 O139 O 0.95978 0.52319 0.13589
 O140 O 0.92276 0.47968 0.06523
 C141 C 0.93023 0.50164 0.11711
 O142 O 1.04751 0.46645 0.13425
 O143 O 1.08434 0.51038 0.06496
 C144 C 1.07700 0.48797 0.11537
 Zr145 Zr 1.00271 0.46034 0.09721
 O146 O 1.00579 0.46086 0.21803
 O147 O 1.00002 0.41535 0.08862
 Zr148 Zr 1.00499 0.53156 0.09397
 O149 O 1.00813 0.53517 0.21477
 O150 O 1.00505 0.57523 0.08463
 O151 O 0.97500 0.48218 0.11129
 O152 O 1.03198 0.50961 0.10986
 O153 O 1.04729 0.46478 -0.13096
 O154 O 1.08428 0.50979 -0.06473
 C155 C 1.07687 0.48668 -0.11341
 O156 O 0.95937 0.52155 -0.13910
 O157 O 0.92251 0.47907 -0.06618
 C158 C 0.92983 0.50055 -0.11907
 O159 O 1.05018 0.56740 -0.13633
 O160 O 1.08550 0.55767 -0.06904
 C161 C 1.07910 0.57327 -0.11975
 O162 O 0.95686 0.42348 -0.13812
 O163 O 0.92178 0.43238 -0.06732
 C164 C 0.92792 0.41711 -0.11967
 Zr165 Zr 1.00239 0.45871 -0.09413
 O166 O 1.00488 0.45642 -0.21464
 O167 O 0.99984 0.41401 -0.08005
 Zr168 Zr 1.00461 0.52989 -0.09802
 O169 O 1.00734 0.52972 -0.21899
 O170 O 1.00346 0.57312 -0.10069
 Zr171 Zr 0.95507 0.47183 0.00022
 Zr172 Zr 1.05231 0.51867 -0.00048
 O173 O 1.03154 0.50770 -0.11060
 O174 O 0.97457 0.48030 -0.11127
 O175 O 1.03166 0.46830 0.00155
 O176 O 0.97661 0.52224 -0.00188
 O177 O 0.97362 0.44068 0.00196
 O178 O 1.03423 0.55032 -0.00245
 H179 H 1.04639 0.51682 0.15525
 H180 H 0.96269 0.53194 -0.00227
 H181 H 1.04568 0.51406 -0.15642
 H182 H 0.95822 0.41713 0.00271
 H183 H 1.00498 0.58247 0.13771
 H184 H 1.01848 0.58740 -0.06050
 H185 H 0.98755 0.51032 -0.23790
 H186 H 0.99214 0.46550 -0.23589
 H187 H 0.99933 0.40577 -0.13234
 H188 H 0.99969 0.40817 0.14185
 H189 H 0.99097 0.46780 0.23787
 H190 H 0.99041 0.51466 0.23562
 O191 O 0.53136 0.56959 -0.15135
 O192 O 0.48926 0.56611 -0.08100
 C193 C 0.51018 0.57803 -0.13676
 O194 O 0.47451 0.42758 -0.12627
 O195 O 0.51885 0.43703 -0.05525
 C196 C 0.49672 0.42114 -0.10639
 O197 O 0.43264 0.47500 -0.13860
 O198 O 0.44206 0.52055 -0.07396
 C199 C 0.42652 0.49777 -0.12390
 O200 O 0.57680 0.52624 -0.13360
 O201 O 0.56762 0.48370 -0.05788
 C202 C 0.58336 0.50451 -0.11138
 Zr203 Zr 0.54006 0.53558 -0.09899
 O204 O 0.54223 0.53222 -0.21942
 O205 O 0.58344 0.58108 -0.10030
 Zr206 Zr 0.46760 0.46580 -0.09035
 O207 O 0.46234 0.45832 -0.21000
 O208 O 0.42141 0.42403 -0.07409
 O209 O 0.49011 0.51499 -0.11320
 O210 O 0.51708 0.48614 -0.10623
 O211 O 0.57947 0.53434 0.13123
 O212 O 0.56868 0.48747 0.07162
 C213 C 0.58566 0.51158 0.11745
 O214 O 0.43372 0.48140 0.13911
 O215 O 0.44272 0.52402 0.06327
 C216 C 0.42734 0.50323 0.11731
 O217 O 0.47477 0.43368 0.14416
 O218 O 0.51886 0.43966 0.07781
 C219 C 0.49620 0.42559 0.12896
 O220 O 0.53407 0.57760 0.13067
 O221 O 0.49058 0.57005 0.05919
 C222 C 0.51271 0.58519 0.11144
 Zr223 Zr 0.54150 0.54072 0.09168
 O224 O 0.54514 0.54302 0.21248
 O225 O 0.58474 0.58609 0.08255
 Zr226 Zr 0.46932 0.47129 0.10045
 O227 O 0.47226 0.47342 0.22146
 O228 O 0.42261 0.42946 0.10547
 Zr229 Zr 0.48157 0.52856 -0.00461
 Zr230 Zr 0.52778 0.47847 0.00586
 O231 O 0.51888 0.49199 0.11358
 O232 O 0.49179 0.52124 0.10840
 O233 O 0.56028 0.52856 -0.00126
 O234 O 0.44985 0.47840 0.00243
 O235 O 0.53240 0.55790 -0.00741
 O236 O 0.47685 0.44810 0.00881
 H237 H 0.52389 0.47814 -0.15053
 H238 H 0.42613 0.46979 0.00251
 H239 H 0.52613 0.48592 0.16038
 H240 H 0.54189 0.58152 -0.01116
 H241 H 0.42477 0.40642 -0.05695
 H242 H 0.42336 0.41239 0.07574
 H243 H 0.47347 0.49363 0.23795
 H244 H 0.52391 0.53841 0.23278
 H245 H 0.60103 0.58282 0.05567
 H246 H 0.60060 0.57865 -0.07536
 H247 H 0.52049 0.52589 -0.23980
 H248 H 0.48393 0.47230 -0.23300
 O249 O 0.41904 -0.03531 -0.13258
 O250 O 0.41954 -0.07523 -0.06273
 C251 C 0.40716 -0.06536 -0.11427
 O252 O 0.56602 0.03666 -0.13568
 O253 O 0.56572 0.07661 -0.06484
 C254 C 0.57824 0.06666 -0.11631
 O255 O 0.50577 -0.05166 -0.14608
 O256 O 0.46096 -0.08252 -0.07138
 C257 C 0.48028 -0.07877 -0.12754
 O258 O 0.47450 0.05442 -0.12503
 O259 O 0.52244 0.08476 -0.06037
 C260 C 0.50018 0.08170 -0.10768
 Zr261 Zr 0.46028 0.00713 -0.09067
 O262 O 0.45984 0.01077 -0.21131
 O263 O 0.41989 0.01338 -0.07925
 Zr264 Zr 0.52371 -0.00541 -0.09776
 O265 O 0.52624 -0.00176 -0.21845
 O266 O 0.56073 -0.01715 -0.09715
 O267 O 0.47348 -0.02726 -0.10980
 O268 O 0.50969 0.02844 -0.10837
 O269 O 0.47669 0.05341 0.13864
 O270 O 0.52351 0.08432 0.07055
 C271 C 0.50193 0.08087 0.12083
 O272 O 0.50907 -0.05260 0.13748
 O273 O 0.46304 -0.08324 0.06663
 C274 C 0.48373 -0.07994 0.11899
 O275 O 0.56903 0.03579 0.12991
 O276 O 0.56701 0.07586 0.06454
 C277 C 0.58060 0.06584 0.11238
 O278 O 0.42148 -0.03598 0.14333
 O279 O 0.42088 -0.07560 0.06914
 C280 C 0.40920 -0.06592 0.12313
 Zr281 Zr 0.46240 0.00645 0.10131
 O282 O 0.46660 0.00930 0.22210
 O283 O 0.42106 0.01149 0.10707
 Zr284 Zr 0.52577 -0.00596 0.09406
 O285 O 0.53036 -0.00301 0.21464
 O286 O 0.56281 -0.01753 0.08589
 Zr287 Zr 0.46209 -0.04699 0.00121
 Zr288 Zr 0.52388 0.04820 0.00208
 O289 O 0.51212 0.02784 0.11222
 O290 O 0.47583 -0.02814 0.11276
 O291 O 0.47505 0.03634 0.00609
 O292 O 0.51100 -0.03465 -0.00272
 O293 O 0.43870 -0.02011 0.00540
 O294 O 0.54820 0.02204 -0.00214
 H295 H 0.51831 0.04269 -0.15361
 H296 H 0.51589 -0.05226 -0.00480
 H297 H 0.52176 0.04196 0.15754
 H298 H 0.41466 -0.03149 0.00663
 H299 H 0.58029 0.00107 -0.07363
 H300 H 0.58135 0.00027 0.05854
 H301 H 0.50828 -0.01599 0.23617
 H302 H 0.46292 -0.01163 0.24074
 H303 H 0.42318 0.02634 0.06558
 H304 H 0.41294 0.01446 -0.13199
 H305 H 0.45928 -0.00843 -0.23313
 H306 H 0.50369 -0.01348 -0.23776
 C307 C 1.13613 0.43624 0.34731
 C308 C 1.16474 0.46566 0.36167
 C309 C 1.17217 0.49252 0.31610
 C310 C 1.15057 0.49035 0.25899
 C311 C 1.12096 0.46110 0.24814
 C312 C 1.11441 0.43395 0.29102
 C313 C 1.09769 0.45994 0.19756
 C314 C 1.10362 0.48763 0.15737
 C315 C 1.13410 0.51585 0.16415
 C316 C 1.15730 0.51731 0.21506
 H317 H 1.19391 0.51545 0.32784
 H318 H 1.09194 0.41128 0.28302
 H319 H 1.07446 0.43784 0.19188
 H320 H 1.18005 0.53981 0.22186
 H321 H 1.12997 0.41535 0.38213
 H322 H 1.13946 0.53727 0.13282
 C323 C 0.45580 0.65472 0.29530
 C324 C 0.48154 0.66954 0.34782
 C325 C 0.51021 0.66931 0.33355
 C326 C 0.51251 0.65269 0.27027
 C327 C 0.48594 0.63626 0.21959
 C328 C 0.45821 0.63866 0.23088
 C329 C 0.48694 0.61630 0.16175
 C330 C 0.51385 0.61203 0.15609
 C331 C 0.54115 0.63096 0.20271
 C332 C 0.54048 0.65102 0.25909
 H333 H 0.53021 0.68099 0.37371
 H334 H 0.43782 0.62685 0.19195
 H335 H 0.46611 0.60260 0.12496
 H336 H 0.56133 0.66403 0.29633
 H337 H 0.43353 0.65482 0.30541
 H338 H 0.56269 0.62907 0.19843
 C339 C 0.29748 -0.11313 0.35567
 C340 C 0.29151 -0.14474 0.36468
 C341 C 0.30692 -0.15569 0.31424
 C342 C 0.32958 -0.13473 0.26026
 C343 C 0.33667 -0.10257 0.25577
 C344 C 0.31965 -0.09238 0.30168
 C345 C 0.36179 -0.08062 0.20833
 C346 C 0.38019 -0.09024 0.16517
 C347 C 0.37165 -0.12273 0.16617
 C348 C 0.34668 -0.14478 0.21369
 H349 H 0.30366 -0.17946 0.32148
 H350 H 0.32450 -0.06790 0.29820
 H351 H 0.36766 -0.05576 0.20696
 H352 H 0.34140 -0.16943 0.21567
 H353 H 0.28565 -0.10409 0.39248
 H354 H 0.38499 -0.13089 0.13227
 C355 C 0.87153 0.55211 0.35358
 C356 C 0.84213 0.52302 0.36406
 C357 C 0.83414 0.49686 0.31521
 C358 C 0.85612 0.49929 0.25874
 C359 C 0.88658 0.52800 0.25226
 C360 C 0.89363 0.55458 0.29823
 C361 C 0.91013 0.52913 0.20281
 C362 C 0.90366 0.50202 0.15917
 C363 C 0.87237 0.47465 0.16075
 C364 C 0.84888 0.47310 0.21097
 H365 H 0.81168 0.47424 0.32386
 H366 H 0.91674 0.57684 0.29346
 H367 H 0.93390 0.55076 0.20050
 H368 H 0.82543 0.45114 0.21392
 H369 H 0.87802 0.57244 0.39104
 H370 H 0.86642 0.45398 0.12533
 C371 C 0.55414 0.35697 0.31054
 C372 C 0.52866 0.34214 0.36341
 C373 C 0.50018 0.34298 0.35204
 C374 C 0.49765 0.36002 0.29056
 C375 C 0.52382 0.37616 0.23885
 C376 C 0.55155 0.37358 0.24792
 C377 C 0.52236 0.39579 0.18159
 C378 C 0.49539 0.40000 0.17704
 C379 C 0.46875 0.38208 0.22589
 C380 C 0.46984 0.36223 0.28192
 H381 H 0.48047 0.33128 0.39292
 H382 H 0.57147 0.38503 0.20775
 H383 H 0.54292 0.40917 0.14385
 H384 H 0.44941 0.34961 0.32047
 H385 H 0.57613 0.35615 0.31858
 H386 H 0.44742 0.38436 0.22293
 C387 C 0.69243 0.11263 0.34408
 C388 C 0.69632 0.14310 0.35728
 C389 C 0.68019 0.15398 0.31006
 C390 C 0.65881 0.13381 0.25313
 C391 C 0.65354 0.10240 0.24350
 C392 C 0.67129 0.09244 0.28744
 C393 C 0.62927 0.08083 0.19348
 C394 C 0.61002 0.09015 0.15320
 C395 C 0.61712 0.12216 0.15881
 C396 C 0.64122 0.14379 0.20867
 H397 H 0.68272 0.17729 0.32093
 H398 H 0.66773 0.06854 0.28041
 H399 H 0.62439 0.05635 0.18869
 H400 H 0.64522 0.16790 0.21457
 H401 H 0.70460 0.10387 0.38036
 H402 H 0.60297 0.13007 0.12752
 C403 C 0.46328 0.15435 -0.33554
 C404 C 0.49491 0.17950 -0.35079
 C405 C 0.52083 0.18319 -0.30572
 C406 C 0.51538 0.16055 -0.24863
 C407 C 0.48360 0.13432 -0.23636
 C408 C 0.45759 0.13203 -0.27831
 C409 C 0.47856 0.10975 -0.18585
 C410 C 0.50488 0.11060 -0.14818
 C411 C 0.53608 0.13774 -0.15681
 C412 C 0.54130 0.16254 -0.20668
 H413 H 0.54531 0.20242 -0.31832
 H414 H 0.43309 0.11215 -0.26937
 H415 H 0.45430 0.08914 -0.17889
 H416 H 0.56579 0.18257 -0.21485
 H417 H 0.44318 0.15122 -0.37044
 H418 H 0.55672 0.13904 -0.12807
 C419 C 0.67691 0.53431 -0.37973
 C420 C 0.68175 0.50808 -0.37144
 C421 C 0.66941 0.48835 -0.30625
 C422 C 0.65099 0.49398 -0.25221
 C423 C 0.64598 0.52017 -0.26258
 C424 C 0.65972 0.54062 -0.32528
 C425 C 0.62576 0.52459 -0.21272
 C426 C 0.60916 0.50256 -0.15366
 C427 C 0.61518 0.47726 -0.14147
 C428 C 0.63609 0.47311 -0.19014
 H429 H 0.67230 0.46759 -0.30035
 H430 H 0.65603 0.56076 -0.33396
 H431 H 0.62165 0.54439 -0.22282
 H432 H 0.63956 0.45288 -0.18106
 H433 H 0.68619 0.54979 -0.42947
 H434 H 0.60279 0.45994 -0.09624
 C435 C 0.86223 0.30096 -0.33798
 C436 C 0.83586 0.30445 -0.35803
 C437 C 0.83045 0.32670 -0.31903
 C438 C 0.85245 0.34674 -0.26276
 C439 C 0.87999 0.34427 -0.24582
 C440 C 0.88412 0.32066 -0.28199
 C441 C 0.90380 0.36646 -0.19596
 C442 C 0.90055 0.39115 -0.16257
 C443 C 0.87219 0.39222 -0.17578
 C444 C 0.84837 0.37027 -0.22586
 H445 H 0.81017 0.32948 -0.33531
 H446 H 0.90497 0.31833 -0.26928
 H447 H 0.92541 0.36518 -0.18517
 H448 H 0.82732 0.37238 -0.23765
 H449 H 0.86666 0.28399 -0.36843
 H450 H 0.86916 0.41094 -0.15023
 C451 C 0.49785 -0.17965 -0.30584
 C452 C 0.47205 -0.18862 -0.35759
 C453 C 0.45143 -0.17612 -0.34683
 C454 C 0.45699 -0.15430 -0.28765
 C455 C 0.48388 -0.14426 -0.23834
 C456 C 0.50369 -0.15767 -0.24681
 C457 C 0.49112 -0.12008 -0.18363
 C458 C 0.47136 -0.10649 -0.17736
 C459 C 0.44411 -0.11749 -0.22457
 C460 C 0.43688 -0.14126 -0.27929
 H461 H 0.43139 -0.18286 -0.38601
 H462 H 0.52442 -0.15027 -0.20962
 H463 H 0.51233 -0.11134 -0.14733
 H464 H 0.41618 -0.14870 -0.31661
 H465 H 0.51489 -0.18786 -0.31411
 H466 H 0.42929 -0.10652 -0.22147
 C467 C 0.36879 0.55203 -0.35117
 C468 C 0.33902 0.52345 -0.36446
 C469 C 0.33108 0.49609 -0.31990
 C470 C 0.35331 0.49687 -0.26622
 C471 C 0.38311 0.52579 -0.25397
 C472 C 0.39025 0.55332 -0.29559
 C473 C 0.40612 0.52626 -0.20363
 C474 C 0.40050 0.49787 -0.16830
 C475 C 0.37091 0.46917 -0.18059
 C476 C 0.34722 0.46878 -0.22810
 H477 H 0.30896 0.47347 -0.33168
 H478 H 0.41315 0.57542 -0.28787
 H479 H 0.42923 0.54820 -0.19562
 H480 H 0.32468 0.44630 -0.23720
 H481 H 0.37567 0.57337 -0.38495
 H482 H 0.36629 0.44701 -0.15386
 C483 C 1.15182 0.69599 -0.31535
 C484 C 1.16895 0.68560 -0.36134
 C485 C 1.16680 0.65609 -0.34435
 C486 C 1.14803 0.63737 -0.28243
 C487 C 1.12978 0.64740 -0.23906
 C488 C 1.13225 0.67697 -0.25524
 C489 C 1.10839 0.62709 -0.18235
 C490 C 1.10581 0.59736 -0.16706
 C491 C 1.12557 0.58854 -0.20687
 C492 C 1.14637 0.60827 -0.26457
 H493 H 1.17990 0.64781 -0.37925
 H494 H 1.11849 0.68507 -0.22251
 H495 H 1.09300 0.63385 -0.15186
 H496 H 1.16039 0.60031 -0.29672
 H497 H 1.15221 0.71811 -0.32846
 H498 H 1.12334 0.56539 -0.19674
 C499 C 0.87329 0.55261 -0.35569
 C500 C 0.84170 0.52553 -0.35971
 C501 C 0.83213 0.50096 -0.30471
 C502 C 0.85493 0.50212 -0.25181
 C503 C 0.88705 0.52864 -0.25232
 C504 C 0.89556 0.55432 -0.30214
 C505 C 0.91078 0.52841 -0.20618
 C506 C 0.90328 0.50180 -0.15969
 C507 C 0.87087 0.47637 -0.15562
 C508 C 0.84690 0.47645 -0.20157
 H509 H 0.80816 0.47963 -0.30787
 H510 H 0.91999 0.57499 -0.30256
 H511 H 0.93547 0.54861 -0.20883
 H512 H 0.82237 0.45600 -0.19958
 H513 H 0.88119 0.57204 -0.39658
 H514 H 0.86419 0.45600 -0.11865
 C515 C 0.55882 0.37757 -0.34909
 C516 C 0.53255 0.34609 -0.36072
 C517 C 0.50519 0.33445 -0.31246
 C518 C 0.50361 0.35449 -0.25605
 C519 C 0.53045 0.38586 -0.24476
 C520 C 0.55814 0.39691 -0.29050
 C521 C 0.52846 0.40641 -0.19107
 C522 C 0.49944 0.39684 -0.15148
 C523 C 0.47272 0.36582 -0.16310
 C524 C 0.47503 0.34449 -0.21378
 H525 H 0.48417 0.31081 -0.32281
 H526 H 0.57875 0.42103 -0.28317
 H527 H 0.54876 0.43074 -0.18391
 H528 H 0.45406 0.32068 -0.22221
 H529 H 0.58001 0.38724 -0.38575
 H530 H 0.45005 0.35829 -0.13368
 C531 C 0.68569 0.11030 -0.35891
 C532 C 0.69344 0.14255 -0.36577
 C533 C 0.67991 0.15457 -0.31268
 C534 C 0.65746 0.13408 -0.25742
 C535 C 0.64910 0.10151 -0.25401
 C536 C 0.66411 0.09017 -0.30328
 C537 C 0.62458 0.08023 -0.20434
 C538 C 0.60752 0.09068 -0.15861
 C539 C 0.61707 0.12348 -0.15925
 C540 C 0.64183 0.14501 -0.20828
 H541 H 0.68466 0.17896 -0.31830
 H542 H 0.65814 0.06531 -0.30095
 H543 H 0.61786 0.05511 -0.20384
 H544 H 0.64795 0.16992 -0.20967
 H545 H 0.69598 0.10042 -0.39806
 H546 H 0.60462 0.13228 -0.12403
 C547 C 1.13414 0.43633 -0.35424
 C548 C 1.16482 0.46450 -0.36159
 C549 C 1.17357 0.48981 -0.30874
 C550 C 1.15124 0.48774 -0.25330
 C551 C 1.12006 0.45986 -0.24960
 C552 C 1.11217 0.43391 -0.29855
 C553 C 1.09658 0.45899 -0.20015
 C554 C 1.10348 0.48586 -0.15487
 C555 C 1.13515 0.51279 -0.15543
 C556 C 1.15880 0.51376 -0.20441
 H557 H 1.19651 0.51219 -0.31489
 H558 H 1.08846 0.41225 -0.29605
 H559 H 1.07243 0.43785 -0.19964
 H560 H 1.18261 0.53530 -0.20603
 H561 H 1.12680 0.41629 -0.39328
 H562 H 1.14131 0.53371 -0.12049
 C563 C 0.45625 0.65304 -0.31316
 C564 C 0.47906 0.66393 -0.37336
 C565 C 0.50428 0.65706 -0.36997
 C566 C 0.50689 0.64001 -0.30847
 C567 C 0.48385 0.62897 -0.24863
 C568 C 0.45890 0.63616 -0.25098
 C569 C 0.48564 0.61007 -0.18936
 C570 C 0.51002 0.60187 -0.19047
 C571 C 0.53364 0.61468 -0.24881
 C572 C 0.53207 0.63341 -0.30695
 H573 H 0.52228 0.66540 -0.41524
 H574 H 0.44079 0.62779 -0.20608
 H575 H 0.46753 0.60088 -0.14441
 H576 H 0.55018 0.64208 -0.35191
 H577 H 0.43570 0.65662 -0.31534
 H578 H 0.55309 0.60945 -0.25128
 C579 C 0.29781 -0.11265 -0.35324
 C580 C 0.29219 -0.14415 -0.36238
 C581 C 0.30757 -0.15486 -0.31147
 C582 C 0.32929 -0.13403 -0.25575
 C583 C 0.33589 -0.10203 -0.25067
 C584 C 0.31929 -0.09191 -0.29798
 C585 C 0.36020 -0.08015 -0.20121
 C586 C 0.37822 -0.08972 -0.15668
 C587 C 0.36992 -0.12217 -0.15804
 C588 C 0.34586 -0.14408 -0.20770
 H589 H 0.30480 -0.17843 -0.31902
 H590 H 0.32381 -0.06755 -0.29419
 H591 H 0.36590 -0.05534 -0.19968
 H592 H 0.34096 -0.16859 -0.21026
 H593 H 0.28605 -0.10375 -0.39045
 H594 H 0.38316 -0.13028 -0.12361
 C595 C 0.51233 -0.15345 0.36470
 C596 C 0.48104 -0.18060 0.36862
 C597 C 0.45729 -0.18437 0.31577
 C598 C 0.46451 -0.16022 0.26129
 C599 C 0.49575 -0.13226 0.26019
 C600 C 0.51970 -0.12948 0.31081
 C601 C 0.50223 -0.10687 0.21087
 C602 C 0.47792 -0.10874 0.16239
 C603 C 0.44757 -0.13740 0.16039
 C604 C 0.44083 -0.16286 0.20979
 H605 H 0.43306 -0.20528 0.31929
 H606 H 0.54379 -0.10828 0.31045
 H607 H 0.52596 -0.08517 0.21225
 H608 H 0.41686 -0.18422 0.20906
 H609 H 0.53074 -0.15029 0.40554
 H610 H 0.42866 -0.13978 0.12242
 C611 C 0.36674 0.55576 0.34296
 C612 C 0.33896 0.52608 0.35996
 C613 C 0.33221 0.49871 0.31706
 C614 C 0.35371 0.50065 0.25988
 C615 C 0.38220 0.53045 0.24471
 C616 C 0.38810 0.55793 0.28562
 C617 C 0.40525 0.53181 0.19263
 C618 C 0.40056 0.50356 0.15772
 C619 C 0.37171 0.47429 0.17121
 C620 C 0.34826 0.47289 0.22113
 H621 H 0.31124 0.47557 0.33143
 H622 H 0.40997 0.58073 0.27589
 H623 H 0.42782 0.55419 0.18388
 H624 H 0.32659 0.44985 0.23205
 H625 H 0.37256 0.57699 0.37635
 H626 H 0.36784 0.45225 0.14491
 C627 C 1.13892 0.68761 0.34427
 C628 C 1.16625 0.68561 0.36344
 C629 C 1.17348 0.66517 0.32157
 C630 C 1.15260 0.64580 0.26252
 C631 C 1.12427 0.64693 0.24620
 C632 C 1.11807 0.66845 0.28609
 C633 C 1.10173 0.62544 0.19297
 C634 C 1.10681 0.60250 0.15575
 C635 C 1.13611 0.60310 0.16808
 C636 C 1.15875 0.62445 0.22141
 H637 H 1.19462 0.66365 0.33659
 H638 H 1.09657 0.66973 0.27396
 H639 H 1.07948 0.62563 0.18312
 H640 H 1.18051 0.62349 0.23232
 H641 H 1.13316 0.70329 0.37641
 H642 H 1.14080 0.58604 0.13935
 C643 C 0.46421 0.15145 0.35575
 C644 C 0.49553 0.17755 0.36942
 C645 C 0.52146 0.18179 0.32315
 C646 C 0.51633 0.15900 0.26616
 C647 C 0.48489 0.13202 0.25534
 C648 C 0.45887 0.12896 0.29888
 C649 C 0.48018 0.10766 0.20404
 C650 C 0.50649 0.10943 0.16375
 C651 C 0.53733 0.13717 0.17144
 C652 C 0.54223 0.16176 0.22232
 H653 H 0.54572 0.20178 0.33426
 H654 H 0.43460 0.10849 0.29101
 H655 H 0.45615 0.08661 0.19800
 H656 H 0.56647 0.18236 0.22934
 H657 H 0.44408 0.14786 0.39134
 H658 H 0.55793 0.13926 0.14072
 C659 C 0.65285 0.46064 0.32771
 C660 C 0.67645 0.49073 0.35652
 C661 C 0.68037 0.51891 0.32358
 C662 C 0.65955 0.51713 0.26497
 C663 C 0.63495 0.48674 0.23775
 C664 C 0.63245 0.45867 0.26807
 C665 C 0.61214 0.48496 0.18428
 C666 C 0.61308 0.51317 0.16005
 C667 C 0.63856 0.54323 0.18495
 C668 C 0.66175 0.54522 0.23638
 H669 H 0.69838 0.54211 0.34680
 H670 H 0.61387 0.43524 0.24797
 H671 H 0.59246 0.46168 0.16588
 H672 H 0.68054 0.56869 0.25633
 H673 H 0.64945 0.43873 0.35334
 H674 H 0.63993 0.56530 0.16649
 C675 C 0.86579 0.30469 0.34898
 C676 C 0.83758 0.30572 0.36414
 C677 C 0.83083 0.32622 0.32139
 C678 C 0.85312 0.34679 0.26612
 C679 C 0.88228 0.34669 0.25410
 C680 C 0.88795 0.32494 0.29421
 C681 C 0.90600 0.36929 0.20480
 C682 C 0.90115 0.39215 0.16687
 C683 C 0.87126 0.39071 0.17515
 C684 C 0.84753 0.36841 0.22491
 H685 H 0.80918 0.32722 0.33382
 H686 H 0.91009 0.32444 0.28532
 H687 H 0.92869 0.36967 0.19769
 H688 H 0.82520 0.36865 0.23265
 H689 H 0.87131 0.28917 0.38222
 H690 H 0.86671 0.40757 0.14539
   
