data_POSCAR
  _audit_creation_date              2014-09-24
  _audit_creation_method            'ToBaCCo'
  _symmetry_space_group_name_H-M    'P1'
  _symmetry_Int_Tables_number       1
  _symmetry_cell_setting            triclinic
  loop_
  _symmetry_equiv_pos_as_xyz
 x,y,z
_cell_length_a 43.5881
_cell_length_b 45.3597
_cell_length_c 41.2513
_cell_angle_alpha 89.877900
_cell_angle_beta 88.377600
_cell_angle_gamma 87.817000
loop_
  _atom_site_label
  _atom_site_type_symbol
  _atom_site_fract_x
  _atom_site_fract_y
  _atom_site_fract_z
C1 C 0.16218 0.14977 0.14683
 C2 C 0.14935 0.14217 0.17714
 C3 C 0.12207 0.15654 0.18924
 C4 C 0.10701 0.17751 0.16949
 C5 C 0.11968 0.18538 0.13921
 C6 C 0.14743 0.17157 0.12788
 C7 C 0.19022 0.13663 0.13586
 C8 C 0.20411 0.14534 0.10617
 C9 C 0.18899 0.16707 0.08746
 C10 C 0.16094 0.18026 0.09811
 C11 C 0.14691 0.20299 0.08011
 C12 C 0.11962 0.21728 0.09150
 C13 C 0.10587 0.20803 0.12092
 H14 H 0.16095 0.12497 0.19081
 H15 H 0.08593 0.18866 0.17825
 H16 H 0.20131 0.12056 0.15141
 H17 H 0.19940 0.17426 0.06472
 H18 H 0.15782 0.21034 0.05771
 H19 H 0.08548 0.21946 0.13082
 C20 C -0.18493 0.85967 0.18553
 C21 C -0.17561 0.87734 0.21117
 C22 C -0.14845 0.87029 0.22783
 C23 C -0.13118 0.84438 0.21888
 C24 C -0.14033 0.82642 0.19350
 C25 C -0.16703 0.83431 0.17652
 C26 C -0.21201 0.86682 0.16891
 C27 C -0.22128 0.84895 0.14312
 C28 C -0.20271 0.82420 0.13407
 C29 C -0.17614 0.81649 0.15086
 C30 C -0.15910 0.79065 0.14280
 C31 C -0.13272 0.78226 0.15990
 C32 C -0.12345 0.80033 0.18519
 H33 H -0.18943 0.89687 0.21795
 H34 H -0.11107 0.83728 0.23194
 H35 H -0.22520 0.88657 0.17591
 H36 H -0.20945 0.81022 0.11438
 H37 H -0.16737 0.77660 0.12404
 H38 H -0.10325 0.79387 0.19862
 C39 C -0.18970 0.15703 -0.15880
 C40 C -0.17706 0.14260 -0.18624
 C41 C -0.15074 0.15408 -0.20553
 C42 C -0.13902 0.18248 -0.19210
 C43 C -0.15222 0.19603 -0.16422
 C44 C -0.17746 0.18342 -0.14782
 C45 C -0.21504 0.14514 -0.14229
 C46 C -0.22861 0.15915 -0.11461
 C47 C -0.21608 0.18537 -0.10383
 C48 C -0.19083 0.19751 -0.12010
 C49 C -0.17899 0.22375 -0.10893
 C50 C -0.15379 0.23640 -0.12472
 C51 C -0.14052 0.22243 -0.15252
 H52 H -0.18676 0.12231 -0.19433
 H53 H -0.11978 0.19240 -0.20457
 H54 H -0.22401 0.12517 -0.15178
 H55 H -0.22613 0.19658 -0.08264
 H56 H -0.18944 0.23441 -0.08762
 H57 H -0.12147 0.23212 -0.16546
 C58 C 0.20203 0.82648 -0.18266
 C59 C 0.19131 0.84135 -0.21014
 C60 C 0.16486 0.83008 -0.22978
 C61 C 0.15254 0.80205 -0.21626
 C62 C 0.16434 0.78818 -0.18886
 C63 C 0.18870 0.80014 -0.17206
 C64 C 0.22622 0.83792 -0.16545
 C65 C 0.23780 0.82325 -0.13802
 C66 C 0.22421 0.79723 -0.12739
 C67 C 0.19983 0.78552 -0.14414
 C68 C 0.18648 0.75935 -0.13339
 C69 C 0.16213 0.74756 -0.15024
 C70 C 0.15153 0.76202 -0.17796
 H71 H 0.20181 0.86155 -0.21792
 H72 H 0.13374 0.79242 -0.22866
 H73 H 0.23552 0.85861 -0.17331
 H74 H 0.23279 0.78596 -0.10609
 H75 H 0.19546 0.74813 -0.11231
 H76 H 0.13279 0.75293 -0.19099
 C77 C 0.13730 1.19388 0.83813
 C78 C 0.12190 1.18253 0.81186
 C79 C 0.13190 1.15586 0.79708
 C80 C 0.15738 1.14013 0.80991
 C81 C 0.17287 1.15130 0.83633
 C82 C 0.16308 1.17848 0.85033
 C83 C 0.12725 1.22064 0.85206
 C84 C 0.14242 1.23274 0.87824
 C85 C 0.16858 1.21736 0.89035
 C86 C 0.17907 1.19027 0.87639
 C87 C 0.20519 1.17466 0.88789
 C88 C 0.21478 1.14732 0.87401
 C89 C 0.19829 1.13576 0.84864
 H90 H 0.10227 1.19490 0.80249
 H91 H 0.16591 1.11948 0.79954
 H92 H 0.10725 1.23216 0.84232
 H93 H 0.18082 1.22603 0.91044
 H94 H 0.21761 1.18343 0.90787
 H95 H 0.20576 1.11475 0.83798
 C96 C 0.85875 0.80575 0.80420
 C97 C 0.86951 0.82300 0.77815
 C98 C 0.85269 0.84857 0.76805
 C99 C 0.82500 0.85646 0.78479
 C100 C 0.81401 0.83948 0.81075
 C101 C 0.83093 0.81406 0.82054
 C102 C 0.87546 0.78034 0.81421
 C103 C 0.86503 0.76308 0.84051
 C104 C 0.83681 0.77157 0.85626
 C105 C 0.81989 0.79686 0.84655
 C106 C 0.79200 0.80522 0.86253
 C107 C 0.77513 0.83071 0.85320
 C108 C 0.78621 0.84755 0.82696
 H109 H 0.89110 0.81631 0.76642
 H110 H 0.81174 0.87599 0.77752
 H111 H 0.89690 0.77412 0.80157
 H112 H 0.82721 0.75861 0.87575
 H113 H 0.78347 0.79199 0.88252
 H114 H 0.77307 0.86664 0.81853
 C115 C 0.11807 0.82651 1.13774
 C116 C 0.10581 0.84154 1.16494
 C117 C 0.12272 0.86474 1.18173
 C118 C 0.15273 0.87180 1.16480
 C119 C 0.16369 0.85653 1.13716
 C120 C 0.14679 0.83374 1.12401
 C121 C 0.10215 0.80309 1.12504
 C122 C 0.11495 0.78572 1.09940
 C123 C 0.14314 0.79374 1.08512
 C124 C 0.15911 0.81745 1.09720
 C125 C 0.18779 0.82438 1.08350
 C126 C 0.20443 0.84738 1.09610
 C127 C 0.19230 0.86319 1.12314
 H128 H 0.08393 0.83536 1.17554
 H129 H 0.16635 0.88876 1.17506
 H130 H 0.08022 0.79835 1.13623
 H131 H 0.15326 0.78088 1.06512
 H132 H 0.19734 0.81170 1.06310
 H133 H 0.20549 0.88005 1.13417
 C134 C 0.84928 1.17864 1.16746
 C135 C 0.86251 1.16698 1.19552
 C136 C 0.85367 1.13713 1.20976
 C137 C 0.83047 1.12220 1.18984
 C138 C 0.81756 1.13524 1.16247
 C139 C 0.82674 1.16309 1.15135
 C140 C 0.85792 1.20636 1.15557
 C141 C 0.84417 1.21880 1.12798
 C142 C 0.82153 1.20341 1.11251
 C143 C 0.81279 1.17578 1.12382
 C144 C 0.78966 1.16107 1.10829
 C145 C 0.77984 1.13388 1.11989
 C146 C 0.79454 1.12069 1.14642
 H147 H 0.87938 1.17943 1.20788
 H148 H 0.82291 1.10085 1.19801
 H149 H 0.87471 1.21848 1.16842
 H150 H 0.81059 1.21307 1.09149
 H151 H 0.77859 1.17122 1.08762
 H152 H 0.78800 1.09916 1.15490
 N153 N 0.46527 0.94547 0.96771
 N154 N 0.44252 0.92800 0.96179
 N155 N 0.52925 0.96613 0.94611
 N156 N 0.55346 0.96470 0.92616
 N157 N 0.53006 0.94387 0.96657
 N158 N 0.55479 0.92665 0.96094
 N159 N 0.46455 0.96834 0.94811
 N160 N 0.44151 0.96689 0.92813
 C161 C 0.42792 0.94168 0.93708
 C162 C 0.56905 0.93992 0.93551
 N163 N 0.53032 1.04673 0.97837
 N164 N 0.55528 1.06239 0.97665
 N165 N 0.46439 1.03223 0.95556
 N166 N 0.44062 1.03969 0.93751
 N167 N 0.46586 1.05051 0.98008
 N168 N 0.44338 1.07067 0.97953
 N169 N 0.52933 1.02903 0.95330
 N170 N 0.55360 1.03207 0.93393
 Mn171 Mn 0.49668 0.99897 0.95032
 C172 C 0.56943 1.05303 0.94866
 C173 C 0.42783 1.06379 0.95300
 N174 N 0.52931 0.93721 1.03676
 N175 N 0.55337 0.91865 1.03953
 N176 N 0.46310 0.95769 1.06123
 N177 N 0.43716 0.95563 1.07822
 N178 N 0.46421 0.93902 1.03688
 N179 N 0.43889 0.92395 1.03655
 N180 N 0.52732 0.95534 1.06155
 N181 N 0.54954 0.94976 1.08176
 Mn182 Mn 0.49740 0.94094 1.00193
 C183 C 0.56561 0.92698 1.06791
 C184 C 0.42247 0.93431 1.06272
 N185 N 0.46462 1.04356 1.04888
 N186 N 0.43980 1.06089 1.05300
 N187 N 0.52802 1.01782 1.06851
 N188 N 0.55215 1.01698 1.08714
 N189 N 0.52940 1.03987 1.04793
 N190 N 0.55453 1.05461 1.05193
 N191 N 0.46359 1.02088 1.06863
 N192 N 0.43831 1.02230 1.08696
 Mn193 Mn 0.49771 1.04549 1.01387
 Mn194 Mn 0.49536 0.98790 1.06529
 Cl195 Cl 0.49678 0.99330 1.00777
 C196 C 0.42384 1.04744 1.07709
 C197 C 0.56833 1.04013 1.07661
 N198 N -0.02377 0.46726 -0.03732
 N199 N -0.02080 0.44474 -0.05758
 N200 N -0.05648 0.52707 -0.02044
 N201 N -0.07624 0.54892 -0.02660
 N202 N -0.03111 0.52954 -0.03809
 N203 N -0.03303 0.55338 -0.05668
 N204 N -0.04879 0.46523 -0.01905
 N205 N -0.06353 0.44135 -0.02645
 C206 C -0.04576 0.42880 -0.05052
 C207 C -0.06153 0.56504 -0.04931
 N208 N -0.05454 0.52967 0.07442
 N209 N -0.06130 0.55458 0.08985
 N210 N -0.06300 0.46534 0.04990
 N211 N -0.07715 0.44003 0.05000
 N212 N -0.04756 0.46806 0.07654
 N213 N -0.05104 0.44500 0.09557
 N214 N -0.07069 0.52782 0.04813
 N215 N -0.08877 0.55169 0.04504
 Mn216 Mn -0.06015 0.49623 0.01458
 C217 C -0.08290 0.56795 0.07148
 C218 C -0.06955 0.42776 0.07885
 N219 N 0.03372 0.53407 -0.02479
 N220 N 0.04077 0.55621 -0.04425
 N221 N 0.05633 0.47364 0.00283
 N222 N 0.07721 0.45192 0.00432
 N223 N 0.04041 0.47172 -0.02359
 N224 N 0.04977 0.44815 -0.04053
 N225 N 0.04932 0.53514 0.00191
 N226 N 0.06713 0.55791 0.00158
 Mn227 Mn 0.00489 0.50072 -0.03147
 C228 C 0.06157 0.57089 -0.02717
 C229 C 0.07289 0.43622 -0.02280
 N230 N 0.01640 0.47265 0.08954
 N231 N 0.01509 0.44690 0.10437
 N232 N 0.03476 0.53564 0.06970
 N233 N 0.04700 0.56163 0.07198
 N234 N 0.00944 0.53475 0.08759
 N235 N 0.00395 0.56016 0.10269
 N236 N 0.04143 0.47358 0.07110
 N237 N 0.05745 0.44841 0.07275
 Mn238 Mn -0.01912 0.50135 0.08239
 Mn239 Mn 0.04571 0.50447 0.03655
 Cl240 Cl -0.00721 0.50067 0.02539
 C241 C 0.04103 0.43222 0.09400
 C242 C 0.02778 0.57655 0.09290
 N243 N 1.05664 0.06490 0.53153
 N244 N 1.05844 0.07994 0.55875
 N245 N 1.07662 0.04658 0.46147
 N246 N 1.09441 0.05051 0.43561
 N247 N 1.05427 0.06674 0.46310
 N248 N 1.05610 0.08495 0.43812
 N249 N 1.07896 0.04471 0.52920
 N250 N 1.09660 0.04550 0.55457
 C251 C 1.08371 0.06772 0.57258
 C252 C 1.08137 0.07446 0.42132
 N253 N 1.05947 -0.03714 0.45986
 N254 N 1.06232 -0.05328 0.43324
 N255 N 1.08221 -0.01824 0.52706
 N256 N 1.10230 -0.02181 0.55010
 N257 N 1.06219 -0.03912 0.52818
 N258 N 1.06820 -0.05763 0.55219
 N259 N 1.07971 -0.01645 0.45939
 N260 N 1.09694 -0.01793 0.43264
 Mn261 Mn 1.07963 0.01416 0.49426
 C262 C 1.08592 -0.04102 0.41668
 C263 C 1.09336 -0.04641 0.56552
 N264 N 0.98845 0.06615 0.46804
 N265 N 0.98431 0.08448 0.44366
 N266 N 0.97013 0.04417 0.53711
 N267 N 0.95182 0.04833 0.56308
 N268 N 0.99090 0.06443 0.53570
 N269 N 0.98747 0.08268 0.56039
 N270 N 0.96778 0.04577 0.46844
 N271 N 0.94900 0.04977 0.44398
 Mn272 Mn 1.02252 0.06586 0.49959
 C273 C 0.95969 0.07416 0.42893
 C274 C 0.96317 0.07250 0.57728
 N275 N 0.99612 -0.04002 0.53257
 N276 N 0.99375 -0.06021 0.55539
 N277 N 0.97081 -0.01828 0.46652
 N278 N 0.95185 -0.02171 0.44236
 N279 N 0.99350 -0.03821 0.46475
 N280 N 0.99062 -0.05562 0.43960
 N281 N 0.97329 -0.02027 0.53503
 N282 N 0.95465 -0.02672 0.55979
 Mn283 Mn 1.02781 -0.03896 0.49635
 Mn284 Mn 0.96993 0.01285 0.50186
 Cl285 Cl 1.02484 0.01345 0.49805
 C286 C 0.96798 -0.05168 0.57226
 C287 C 0.96460 -0.04524 0.42591
 C288 C 1.10956 0.15124 0.22050
 C289 C 1.12505 0.13562 0.24478
 C290 C 1.11204 0.13084 0.27780
 C291 C 1.13241 0.12421 0.30273
 C292 C 1.12140 0.11771 0.33387
 C293 C 1.08964 0.11723 0.34067
 C294 C 1.06917 0.12490 0.31614
 C295 C 1.08022 0.13145 0.28484
 C296 C 1.07758 0.10770 0.37271
 C297 C 1.09347 0.08653 0.39085
 H298 H 1.14868 0.12822 0.24078
 H299 H 1.15700 0.12385 0.29804
 H300 H 1.13785 0.11291 0.35250
 H301 H 1.04461 0.12478 0.32089
 H302 H 1.06376 0.13595 0.26617
 H303 H 1.05473 0.11527 0.38070
 H304 H 1.08741 0.16160 0.22680
 H305 H 1.11494 0.07672 0.38147
 C306 C 0.86004 -0.11098 0.25320
 C307 C 0.88869 -0.11258 0.26793
 C308 C 0.89716 -0.09396 0.29563
 C309 C 0.92845 -0.09064 0.30116
 C310 C 0.93788 -0.07543 0.32830
 C311 C 0.91619 -0.06352 0.35105
 C312 C 0.88481 -0.06582 0.34499
 C313 C 0.87532 -0.08106 0.31765
 C314 C 0.92596 -0.04927 0.38131
 C315 C 0.95326 -0.05812 0.39603
 H316 H 0.90684 -0.12694 0.25787
 H317 H 0.94578 -0.10009 0.28450
 H318 H 0.96224 -0.07313 0.33137
 H319 H 0.86763 -0.05668 0.36201
 H320 H 0.85100 -0.08353 0.31451
 H321 H 0.91070 -0.03299 0.39319
 H322 H 0.84389 -0.09344 0.26082
 H323 H 0.96716 -0.07620 0.38567
 C324 C 0.86250 0.13543 0.76156
 C325 C 0.88285 0.14630 0.73839
 C326 C 0.89286 0.12904 0.70922
 C327 C 0.91068 0.14259 0.68508
 C328 C 0.92071 0.12704 0.65732
 C329 C 0.91356 0.09725 0.65322
 C330 C 0.89515 0.08385 0.67705
 C331 C 0.88495 0.09950 0.70484
 C332 C 0.92481 0.08001 0.62432
 C333 C 0.95145 0.08722 0.60709
 H334 H 0.89105 0.16840 0.74123
 H335 H 0.91675 0.16540 0.68760
 H336 H 0.93371 0.13869 0.63899
 H337 H 0.88902 0.06108 0.67439
 H338 H 0.87110 0.08839 0.72292
 H339 H 0.91256 0.06083 0.61717
 H340 H 0.85754 0.14648 0.77768
 H341 H 0.96495 0.10502 0.61555
 C342 C 1.15006 -0.15564 0.73883
 C343 C 1.16069 -0.13105 0.72273
 C344 C 1.14546 -0.11951 0.69354
 C345 C 1.16014 -0.09854 0.67428
 C346 C 1.14634 -0.08728 0.64649
 C347 C 1.11715 -0.09640 0.63774
 C348 C 1.10263 -0.11764 0.65687
 C349 C 1.11658 -0.12909 0.68450
 C350 C 1.10129 -0.08451 0.60892
 C351 C 1.10928 -0.05839 0.59369
 H352 H 1.18105 -0.12059 0.73095
 H353 H 1.18253 -0.09106 0.68055
 H354 H 1.15898 -0.07181 0.63192
 H355 H 1.08028 -0.12520 0.65060
 H356 H 1.10457 -0.14525 0.69888
 H357 H 1.08189 -0.09611 0.60015
 H358 H 1.15924 -0.16106 0.75487
 H359 H 1.12753 -0.04551 0.60273
 C360 C 0.23319 1.13437 1.09514
 C361 C 0.25060 1.11207 1.11033
 C362 C 0.28256 1.10399 1.10011
 C363 C 0.29432 1.07556 1.10700
 C364 C 0.32472 1.06740 1.09871
 C365 C 0.34418 1.08781 1.08383
 C366 C 0.33237 1.11620 1.07676
 C367 C 0.30193 1.12435 1.08501
 C368 C 0.37647 1.07997 1.07461
 C369 C 0.39308 1.05686 1.08899
 H370 H 0.24065 1.09903 1.12956
 H371 H 0.27984 1.05951 1.11861
 H372 H 0.33258 1.04498 1.10359
 H373 H 0.34688 1.13228 1.06524
 H374 H 0.29394 1.14676 1.08021
 H375 H 0.38765 1.09304 1.05604
 H376 H 0.24286 1.14396 1.07324
 H377 H 0.38315 1.04448 1.10883
 C378 C 0.26345 0.83492 0.88057
 C379 C 0.28474 0.85422 0.86719
 C380 C 0.31034 0.86698 0.88491
 C381 C 0.33158 0.88359 0.86716
 C382 C 0.35599 0.89642 0.88237
 C383 C 0.35973 0.89306 0.91593
 C384 C 0.33870 0.87632 0.93376
 C385 C 0.31410 0.86358 0.91855
 C386 C 0.38582 0.90580 0.93264
 C387 C 0.40105 0.93040 0.92103
 H388 H 0.28336 0.85977 0.84176
 H389 H 0.32940 0.88655 0.84125
 H390 H 0.37219 0.90841 0.86759
 H391 H 0.34115 0.87331 0.95964
 H392 H 0.29822 0.85137 0.93342
 H393 H 0.39274 0.89596 0.95539
 H394 H 0.26615 0.82686 0.90502
 H395 H 0.39297 0.94216 0.89990
 C396 C 0.75156 0.85440 1.12603
 C397 C 0.72754 0.87383 1.13597
 C398 C 0.69856 0.87657 1.11826
 C399 C 0.67101 0.88135 1.13604
 C400 C 0.64331 0.88529 1.12024
 C401 C 0.64264 0.88562 1.08611
 C402 C 0.67006 0.87967 1.06826
 C403 C 0.69786 0.87521 1.08418
 C404 C 0.61406 0.89404 1.06909
 C405 C 0.59292 0.91422 1.08327
 H406 H 0.72811 0.88487 1.15913
 H407 H 0.67093 0.88201 1.16230
 H408 H 0.62248 0.88848 1.13491
 H409 H 0.67014 0.87961 1.04200
 H410 H 0.71885 0.87178 1.06981
 H411 H 0.61121 0.88698 1.04432
 H412 H 0.74790 0.84099 1.10485
 H413 H 0.59762 0.92345 1.10669
 C414 C 0.74547 1.14855 0.90242
 C415 C 0.73078 1.12248 0.89519
 C416 C 0.70209 1.11295 0.91170
 C417 C 0.69332 1.08384 0.90704
 C418 C 0.66567 1.07413 0.92030
 C419 C 0.64592 1.09345 0.93840
 C420 C 0.65498 1.12230 0.94397
 C421 C 0.68262 1.13212 0.93051
 C422 C 0.61582 1.08410 0.95145
 C423 C 0.59919 1.06278 0.93608
 H424 H 0.74053 1.10762 0.87696
 H425 H 0.70786 1.06853 0.89285
 H426 H 0.65995 1.05143 0.91642
 H427 H 0.64020 1.13754 0.95797
 H428 H 0.68799 1.15489 0.93426
 H429 H 0.60576 1.09536 0.97254
 H430 H 0.73649 1.16153 0.92275
 H431 H 0.60795 1.05291 0.91366
 C432 C 0.10867 0.24429 0.07463
 C433 C 0.07939 0.25718 0.07985
 C434 C 0.07298 0.28911 0.07546
 C435 C 0.05062 0.30308 0.09579
 C436 C 0.04666 0.33373 0.09584
 C437 C 0.06506 0.35106 0.07537
 C438 C 0.08604 0.33692 0.05353
 C439 C 0.09001 0.30624 0.05351
 C440 C 0.06277 0.38366 0.07546
 C441 C 0.04627 0.40050 0.09877
 H442 H 0.06199 0.24474 0.09242
 H443 H 0.03692 0.29030 0.11259
 H444 H 0.02930 0.34346 0.11212
 H445 H 0.09984 0.34970 0.03681
 H446 H 0.10659 0.29618 0.03652
 H447 H 0.07423 0.39502 0.05568
 H448 H 0.12569 0.25600 0.06067
 H449 H 0.03436 0.39039 0.11895
 C450 C -0.14295 0.26442 -0.11126
 C451 C -0.11476 0.27688 -0.11886
 C452 C -0.10486 0.30415 -0.10288
 C453 C -0.08399 0.32222 -0.11918
 C454 C -0.07466 0.34832 -0.10493
 C455 C -0.08577 0.35668 -0.07375
 C456 C -0.10620 0.33831 -0.05728
 C457 C -0.11547 0.31228 -0.07148
 C458 C -0.07755 0.38456 -0.05788
 C459 C -0.05247 0.40119 -0.06721
 H460 H -0.09965 0.26703 -0.13739
 H461 H -0.07532 0.31641 -0.14329
 H462 H -0.05933 0.36204 -0.11876
 H463 H -0.11495 0.34405 -0.03318
 H464 H -0.13062 0.29847 -0.05751
 H465 H -0.09157 0.39197 -0.03713
 H466 H -0.15817 0.27562 -0.09372
 H467 H -0.03686 0.39378 -0.08660
 C468 C 0.14701 0.72016 -0.14036
 C469 C 0.14698 0.70858 -0.10903
 C470 C 0.12896 0.68274 -0.09967
 C471 C 0.13894 0.66483 -0.07407
 C472 C 0.12226 0.64055 -0.06421
 C473 C 0.09474 0.63403 -0.07935
 C474 C 0.08487 0.65182 -0.10514
 C475 C 0.10165 0.67607 -0.11510
 C476 C 0.07619 0.60878 -0.06897
 C477 C 0.07750 0.59724 -0.03775
 H478 H 0.16059 0.71838 -0.09068
 H479 H 0.15993 0.66944 -0.06190
 H480 H 0.13134 0.62679 -0.04503
 H481 H 0.06382 0.64727 -0.11723
 H482 H 0.09271 0.68987 -0.13434
 H483 H 0.06065 0.59957 -0.08596
 H484 H 0.13401 0.70935 -0.15856
 H485 H 0.09136 0.60744 -0.01991
 C486 C -0.11603 0.75364 0.15351
 C487 C -0.11810 0.73826 0.12431
 C488 C -0.10787 0.70701 0.11919
 C489 C -0.11024 0.69491 0.08807
 C490 C -0.10294 0.66509 0.08229
 C491 C -0.09314 0.64662 0.10767
 C492 C -0.09012 0.65877 0.13861
 C493 C -0.09763 0.68855 0.14447
 C494 C -0.08472 0.61503 0.10258
 C495 C -0.09493 0.59828 0.07693
 H496 H -0.12859 0.74945 0.10401
 H497 H -0.11803 0.70857 0.06811
 H498 H -0.10463 0.65680 0.05788
 H499 H -0.08235 0.64502 0.15850
 H500 H -0.09581 0.69661 0.16892
 H501 H -0.06992 0.60439 0.12014
 H502 H -0.10227 0.74449 0.17273
 H503 H -0.11104 0.60762 0.05992
 C504 C 1.11657 0.14684 0.76941
 C505 C 1.12431 0.12157 0.75113
 C506 C 1.11071 0.11536 0.71951
 C507 C 1.11372 0.08658 0.70719
 C508 C 1.10317 0.08008 0.67651
 C509 C 1.08959 0.10240 0.65737
 C510 C 1.08576 0.13099 0.66991
 C511 C 1.09654 0.13758 0.70053
 C512 C 1.07947 0.09638 0.62430
 C513 C 1.09443 0.07510 0.60472
 H514 H 1.14092 0.10533 0.75970
 H515 H 1.12449 0.06906 0.72127
 H516 H 1.10558 0.05756 0.66794
 H517 H 1.07529 0.14848 0.65556
 H518 H 1.09453 0.16025 0.70855
 H519 H 1.06083 0.10989 0.61463
 H520 H 1.09765 0.16090 0.76141
 H521 H 1.11450 0.06298 0.61323
 C522 C 0.86224 -0.13316 0.74214
 C523 C 0.88790 -0.13877 0.72151
 C524 C 0.89701 -0.11882 0.69457
 C525 C 0.91507 -0.13064 0.66872
 C526 C 0.92502 -0.11269 0.64327
 C527 C 0.91760 -0.08220 0.64329
 C528 C 0.89909 -0.07038 0.66883
 C529 C 0.88907 -0.08840 0.69437
 C530 C 0.92887 -0.06256 0.61699
 C531 C 0.95624 -0.06909 0.59971
 H532 H 0.90117 -0.15924 0.72347
 H533 H 0.92139 -0.15397 0.66810
 H534 H 0.93827 -0.12292 0.62348
 H535 H 0.89296 -0.04701 0.66939
 H536 H 0.87580 -0.07824 0.71418
 H537 H 0.91611 -0.04218 0.61199
 H538 H 0.84804 -0.11365 0.73722
 H539 H 0.97025 -0.08823 0.60638
 C540 C 1.10885 -0.12059 0.21664
 C541 C 1.12668 -0.10509 0.23748
 C542 C 1.11515 -0.09599 0.27005
 C543 C 1.13552 -0.08373 0.29147
 C544 C 1.12579 -0.07598 0.32292
 C545 C 1.09525 -0.08003 0.33348
 C546 C 1.07490 -0.09252 0.31214
 C547 C 1.08467 -0.10034 0.28066
 C548 C 1.08410 -0.07178 0.36653
 C549 C 1.09773 -0.05021 0.38457
 H550 H 1.15045 -0.10140 0.23072
 H551 H 1.15919 -0.08054 0.28401
 H552 H 1.14248 -0.06739 0.33895
 H553 H 1.05134 -0.09604 0.31978
 H554 H 1.06839 -0.10991 0.26477
 H555 H 1.06352 -0.08170 0.37618
 H556 H 1.11717 -0.12702 0.19915
 H557 H 1.11681 -0.03835 0.37445
 C558 C 0.86569 0.12176 0.24197
 C559 C 0.88452 0.13489 0.26386
 C560 C 0.89356 0.12000 0.29428
 C561 C 0.90792 0.13630 0.31793
 C562 C 0.91690 0.12305 0.34690
 C563 C 0.91225 0.09289 0.35267
 C564 C 0.89724 0.07671 0.32934
 C565 C 0.88801 0.09007 0.30037
 C566 C 0.92298 0.07795 0.38258
 C567 C 0.94754 0.08819 0.39965
 H568 H 0.89175 0.15719 0.25941
 H569 H 0.91202 0.15947 0.31408
 H570 H 0.92718 0.13669 0.36477
 H571 H 0.89312 0.05356 0.33328
 H572 H 0.87684 0.07688 0.28267
 H573 H 0.91260 0.05765 0.39022
 H574 H 0.86094 0.13134 0.22594
 H575 H 0.95964 0.10707 0.39073
 C576 C 0.13009 0.25965 -0.10925
 C577 C 0.14114 0.27586 -0.08353
 C578 C 0.12527 0.30399 -0.07319
 C579 C 0.14237 0.32710 -0.06153
 C580 C 0.12805 0.35458 -0.05424
 C581 C 0.09625 0.35928 -0.05825
 C582 C 0.07907 0.33586 -0.06884
 C583 C 0.09328 0.30843 -0.07581
 C584 C 0.08036 0.38831 -0.05246
 C585 C 0.09040 0.40866 -0.03033
 H586 H 0.16251 0.26944 -0.07237
 H587 H 0.16698 0.32421 -0.05911
 H588 H 0.14210 0.37226 -0.04651
 H589 H 0.05450 0.33879 -0.07167
 H590 H 0.07908 0.29078 -0.08338
 H591 H 0.05878 0.39290 -0.06425
 H592 H 0.11018 0.26910 -0.12118
 H593 H 0.11025 0.40333 -0.01597
 C594 C -0.14850 0.24836 0.11526
 C595 C -0.12036 0.26145 0.11915
 C596 C -0.11325 0.29099 0.10593
 C597 C -0.08888 0.30595 0.11896
 C598 C -0.08174 0.33406 0.10785
 C599 C -0.09895 0.34797 0.08337
 C600 C -0.12248 0.33254 0.06937
 C601 C -0.12963 0.30437 0.08048
 C602 C -0.09249 0.37812 0.07162
 C603 C -0.07804 0.39853 0.09060
 H604 H -0.10287 0.24998 0.13301
 H605 H -0.07543 0.29594 0.13804
 H606 H -0.06248 0.34455 0.11830
 H607 H -0.13560 0.34244 0.04997
 H608 H -0.14772 0.29322 0.06869
 H609 H -0.10007 0.38471 0.04778
 H610 H -0.16605 0.25976 0.10149
 H611 H -0.07183 0.39291 0.11510
 C612 C -0.11698 0.73791 -0.15031
 C613 C -0.12266 0.72084 -0.12247
 C614 C -0.10464 0.69372 -0.11325
 C615 C -0.10871 0.68291 -0.08156
 C616 C -0.09403 0.65660 -0.07187
 C617 C -0.07502 0.64008 -0.09377
 C618 C -0.07001 0.65126 -0.12518
 C619 C -0.08486 0.67769 -0.13499
 C620 C -0.06058 0.61126 -0.08416
 C621 C -0.07500 0.59296 -0.06167
 H622 H -0.14049 0.72796 -0.10526
 H623 H -0.12356 0.69480 -0.06416
 H624 H -0.09758 0.64933 -0.04709
 H625 H -0.05529 0.63906 -0.14244
 H626 H -0.08134 0.68491 -0.15976
 H627 H -0.03910 0.60384 -0.09584
 H628 H -0.09688 0.73204 -0.16525
 H629 H -0.09767 0.59933 -0.05213
 C630 C 0.10172 0.75971 0.08868
 C631 C 0.07558 0.74723 0.10284
 C632 C 0.06686 0.71676 0.09591
 C633 C 0.05161 0.70095 0.12038
 C634 C 0.04530 0.67129 0.11597
 C635 C 0.05384 0.65701 0.08670
 C636 C 0.06798 0.67317 0.06177
 C637 C 0.07427 0.70281 0.06619
 C638 C 0.04996 0.62516 0.08172
 C639 C 0.03020 0.60796 0.10027
 H640 H 0.06289 0.75810 0.12248
 H641 H 0.04556 0.71127 0.14347
 H642 H 0.03476 0.65955 0.13593
 H643 H 0.07448 0.66272 0.03886
 H644 H 0.08499 0.71457 0.04633
 H645 H 0.06285 0.61484 0.06165
 H646 H 0.11414 0.74730 0.06980
 H647 H 0.01501 0.61767 0.11882
 C648 C 0.24155 1.12964 0.88538
 C649 C 0.26923 1.14196 0.89321
 C650 C 0.29791 1.12412 0.89904
 C651 C 0.32232 1.13773 0.91371
 C652 C 0.34980 1.12193 0.91948
 C653 C 0.35353 1.09196 0.91080
 C654 C 0.32959 1.07860 0.89508
 C655 C 0.30209 1.09442 0.88923
 C656 C 0.38194 1.07422 0.91788
 C657 C 0.40032 1.08111 0.94365
 H658 H 0.27019 1.16576 0.89438
 H659 H 0.32010 1.16071 0.92081
 H660 H 0.36813 1.13348 0.93042
 H661 H 0.33203 1.05573 0.88762
 H662 H 0.28455 1.08324 0.87661
 H663 H 0.38732 1.05431 0.90407
 H664 H 0.24008 1.10595 0.88418
 H665 H 0.39373 1.09961 0.95916
 C666 C 0.23527 0.85314 1.08195
 C667 C 0.24868 0.88054 1.08433
 C668 C 0.28086 0.88659 1.07450
 C669 C 0.29174 0.91453 1.08150
 C670 C 0.32223 0.92113 1.07452
 C671 C 0.34265 0.89984 1.06035
 C672 C 0.33163 0.87226 1.05216
 C673 C 0.30109 0.86555 1.05934
 C674 C 0.37522 0.90611 1.05331
 C675 C 0.39104 0.92621 1.07142
 H676 H 0.23505 0.89872 1.09485
 H677 H 0.27664 0.93131 1.09278
 H678 H 0.32960 0.94304 1.07998
 H679 H 0.34686 0.85568 1.04073
 H680 H 0.29380 0.84386 1.05308
 H681 H 0.38729 0.89399 1.03393
 H682 H 0.24728 0.83515 1.06930
 H683 H 0.38001 0.93696 1.09229
 C684 C 0.75358 1.12047 1.10431
 C685 C 0.73393 1.10156 1.12081
 C686 C 0.70465 1.09189 1.10780
 C687 C 0.68260 1.08093 1.12963
 C688 C 0.65407 1.07274 1.11891
 C689 C 0.64711 1.07511 1.08593
 C690 C 0.66924 1.08571 1.06397
 C691 C 0.69787 1.09377 1.07467
 C692 C 0.61681 1.06756 1.07389
 C693 C 0.59807 1.04741 1.08948
 H694 H 0.73843 1.09589 1.14576
 H695 H 0.68719 1.07926 1.15526
 H696 H 0.63734 1.06533 1.13669
 H697 H 0.66440 1.08761 1.03841
 H698 H 0.71445 1.10126 1.05683
 H699 H 0.60962 1.07718 1.05112
 H700 H 0.74767 1.12859 1.08055
 H701 H 0.60582 1.03550 1.11065
 C702 C 0.74567 0.83855 0.87072
 C703 C 0.73240 0.86717 0.87127
 C704 C 0.70245 0.87583 0.88741
 C705 C 0.69359 0.90593 0.88834
 C706 C 0.66532 0.91542 0.90221
 C707 C 0.64500 0.89495 0.91542
 C708 C 0.65401 0.86492 0.91518
 C709 C 0.68228 0.85535 0.90111
 C710 C 0.61467 0.90434 0.92999
 C711 C 0.59872 0.93008 0.92057
 H712 H 0.74493 0.88468 0.85979
 H713 H 0.70864 0.92227 0.87823
 H714 H 0.65971 0.93885 0.90288
 H715 H 0.63886 0.84872 0.92541
 H716 H 0.68781 0.83195 0.90079
 H717 H 0.60401 0.88996 0.94766
 H718 H 0.73504 0.82130 0.88462
 H719 H 0.60793 0.94358 0.90125
   
