data_POSCAR
  _audit_creation_date              2014-09-24
  _audit_creation_method            'ToBaCCo'
  _symmetry_space_group_name_H-M    'P1'
  _symmetry_Int_Tables_number       1
  _symmetry_cell_setting            triclinic
  loop_
  _symmetry_equiv_pos_as_xyz
 x,y,z
_cell_length_a 39.6559
_cell_length_b 39.1142
_cell_length_c 54.8333
_cell_angle_alpha 90.170400
_cell_angle_beta 89.885400
_cell_angle_gamma 121.322800
loop_
  _atom_site_label
  _atom_site_type_symbol
  _atom_site_fract_x
  _atom_site_fract_y
  _atom_site_fract_z
C1 C -0.01846 0.50027 1.25251
 C2 C 0.02165 0.51853 1.25194
 C3 C 0.04562 0.52940 1.27459
 C4 C 0.04380 0.52814 1.22860
 C5 C -0.04223 0.49089 1.22981
 C6 C -0.04093 0.48766 1.27581
 C7 C 0.04382 0.55419 1.29234
 C8 C 0.06627 0.56363 1.31368
 C9 C 0.09148 0.54853 1.31800
 C10 C 0.09331 0.52418 1.29941
 C11 C 0.07093 0.51503 1.27816
 C12 C 0.07431 0.56756 1.22407
 C13 C 0.09514 0.57739 1.20213
 C14 C 0.08600 0.54792 1.18429
 C15 C 0.05598 0.50820 1.18909
 C16 C 0.03520 0.49836 1.21112
 C17 C -0.07346 0.45163 1.22564
 C18 C -0.09563 0.44188 1.20425
 C19 C -0.08706 0.47120 1.18650
 C20 C -0.05634 0.51080 1.19098
 C21 C -0.03432 0.52060 1.21252
 C22 C -0.03624 0.46328 1.29250
 C23 C -0.05791 0.45143 1.31419
 C24 C -0.08536 0.46299 1.31938
 C25 C -0.09051 0.48674 1.30236
 C26 C -0.06850 0.49895 1.28084
 H27 H 0.02461 0.56590 1.28980
 H28 H 0.06168 0.58107 1.32711
 H29 H 0.11341 0.51338 1.30026
 H30 H 0.07330 0.49641 1.26442
 H31 H 0.08170 0.59085 1.23745
 H32 H 0.11864 0.60807 1.19919
 H33 H 0.01224 0.46760 1.21449
 H34 H -0.08037 0.42835 1.23886
 H35 H -0.11967 0.41132 1.20167
 H36 H -0.04888 0.53406 1.17766
 H37 H -0.01087 0.55128 1.21561
 H38 H -0.01587 0.45334 1.28872
 H39 H -0.05300 0.43338 1.32695
 H40 H -0.11203 0.49540 1.30545
 H41 H -0.07298 0.51727 1.26804
 H42 H 0.04816 0.48488 1.17568
 C43 C 0.51213 0.49202 1.24862
 C44 C 0.49161 0.51120 1.24949
 C45 C 0.47901 0.52020 1.27298
 C46 C 0.47967 0.52337 1.22701
 C47 C 0.52185 0.47995 1.22516
 C48 C 0.52504 0.48098 1.27114
 C49 C 0.45650 0.48988 1.28997
 C50 C 0.44484 0.49897 1.31192
 C51 C 0.45491 0.53843 1.31711
 C52 C 0.47674 0.56848 1.29979
 C53 C 0.48864 0.55943 1.27798
 C54 C 0.43995 0.51136 1.22373
 C55 C 0.42780 0.52161 1.20258
 C56 C 0.45513 0.54412 1.18417
 C57 C 0.49514 0.55694 1.18773
 C58 C 0.50735 0.54691 1.20904
 C59 C 0.56099 0.49107 1.22030
 C60 C 0.57072 0.47963 1.19854
 C61 C 0.54147 0.45677 1.18112
 C62 C 0.50214 0.44525 1.18616
 C63 C 0.49237 0.45642 1.20806
 C64 C 0.54775 0.50964 1.28900
 C65 C 0.55828 0.49820 1.31045
 C66 C 0.54671 0.45799 1.31426
 C67 C 0.52509 0.42971 1.29596
 C68 C 0.51442 0.44110 1.27464
 H69 H 0.44799 0.45922 1.28623
 H70 H 0.42824 0.47517 1.32490
 H71 H 0.48420 0.59898 1.30294
 H72 H 0.50551 0.58314 1.26497
 H73 H 0.41818 0.49356 1.23748
 H74 H 0.39694 0.51204 1.20069
 H75 H 0.53829 0.55716 1.21142
 H76 H 0.58408 0.50875 1.23340
 H77 H 0.60112 0.48821 1.19554
 H78 H 0.47892 0.42785 1.17310
 H79 H 0.46182 0.44672 1.21168
 H80 H 0.55690 0.54074 1.28644
 H81 H 0.57479 0.52067 1.32423
 H82 H 0.51648 0.39868 1.29808
 H83 H 0.49727 0.41860 1.26099
 H84 H 0.51691 0.57414 1.17387
 C85 C 0.51399 1.02032 1.25086
 C86 C 0.49362 0.97951 1.25046
 C87 C 0.48338 0.95571 1.27332
 C88 C 0.48030 0.95642 1.22725
 C89 C 0.52619 1.04448 1.22813
 C90 C 0.52489 1.04314 1.27413
 C91 C 0.51252 0.96149 1.29009
 C92 C 0.50232 0.93907 1.31158
 C93 C 0.46254 0.90981 1.31686
 C94 C 0.43367 0.90387 1.29944
 C95 C 0.44402 0.92640 1.27804
 C96 C 0.48918 0.92667 1.22260
 C97 C 0.47687 0.90455 1.20098
 C98 C 0.45543 0.91174 1.18345
 C99 C 0.44609 0.94123 1.18832
 C100 C 0.45804 0.96305 1.21010
 C101 C 0.51470 1.07235 1.22440
 C102 C 0.52521 1.09500 1.20308
 C103 C 0.54795 1.09075 1.18476
 C104 C 0.56023 1.06317 1.18907
 C105 C 0.54948 1.04042 1.21046
 C106 C 0.49612 1.03759 1.29120
 C107 C 0.50697 1.05935 1.31303
 C108 C 0.54706 1.08738 1.31838
 C109 C 0.57555 1.09297 1.30072
 C110 C 0.56454 1.07133 1.27894
 H111 H 0.54324 0.98363 1.28663
 H112 H 0.52585 0.94615 1.32432
 H113 H 0.40299 0.88075 1.30158
 H114 H 0.42113 0.92099 1.26511
 H115 H 0.50586 0.92068 1.23572
 H116 H 0.48377 0.88144 1.19816
 H117 H 0.44999 0.98517 1.21355
 H118 H 0.49725 1.07643 1.23802
 H119 H 0.51646 1.11689 1.20163
 H120 H 0.57674 1.05757 1.17560
 H121 H 0.55906 1.01933 1.21315
 H122 H 0.46522 1.01619 1.28767
 H123 H 0.48375 1.05271 1.32597
 H124 H 0.60649 1.11522 1.30303
 H125 H 0.58713 1.07649 1.26578
 H126 H 0.42984 0.94774 1.17519
 C127 C 1.02008 0.51422 0.74935
 C128 C 0.98017 0.49614 0.74965
 C129 C 0.95742 0.48592 0.72672
 C130 C 0.95748 0.48549 0.77277
 C131 C 1.04330 0.52315 0.77209
 C132 C 1.04230 0.52438 0.72614
 C133 C 0.94883 0.51318 0.71634
 C134 C 0.92702 0.50359 0.69478
 C135 C 0.91241 0.46602 0.68353
 C136 C 0.92119 0.43879 0.69420
 C137 C 0.94391 0.44889 0.71541
 C138 C 0.96377 0.51515 0.78978
 C139 C 0.94290 0.50467 0.81180
 C140 C 0.91546 0.46432 0.81719
 C141 C 0.90898 0.43481 0.79998
 C142 C 0.92965 0.44532 0.77795
 C143 C 1.03708 0.49245 0.78800
 C144 C 1.05883 0.50127 0.80955
 C145 C 1.08748 0.54121 0.81582
 C146 C 1.09364 0.57173 0.79936
 C147 C 1.07202 0.56272 0.77777
 C148 C 1.05887 0.50217 0.71850
 C149 C 1.08044 0.51172 0.69683
 C150 C 1.08646 0.54424 0.68224
 C151 C 1.06955 0.56646 0.69035
 C152 C 1.04780 0.55660 0.71200
 H153 H 0.95930 0.54200 0.72487
 H154 H 0.92179 0.52576 0.68691
 H155 H 0.90993 0.40930 0.68650
 H156 H 0.95047 0.42759 0.72323
 H157 H 0.98497 0.54636 0.78602
 H158 H 0.94862 0.52800 0.82478
 H159 H 0.92434 0.42194 0.76514
 H160 H 1.01512 0.46162 0.78378
 H161 H 1.05171 0.47661 0.82163
 H162 H 1.11625 0.60268 0.80246
 H163 H 1.07755 0.58675 0.76550
 H164 H 1.05525 0.47746 0.72945
 H165 H 1.09379 0.49444 0.69231
 H166 H 1.07170 0.59074 0.67971
 H167 H 1.03530 0.57420 0.71778
 H168 H 0.88763 0.40355 0.80349
 C169 C 0.48841 0.50801 0.75163
 C170 C 0.50879 0.48865 0.75101
 C171 C 0.51915 0.47706 0.72759
 C172 C 0.52166 0.47770 0.77361
 C173 C 0.47553 0.51720 0.77497
 C174 C 0.47728 0.52051 0.72892
 C175 C 0.49004 0.45312 0.71039
 C176 C 0.50056 0.44326 0.68827
 C177 C 0.54033 0.45679 0.68308
 C178 C 0.56918 0.47985 0.70066
 C179 C 0.55867 0.48979 0.72268
 C180 C 0.51189 0.43804 0.77693
 C181 C 0.52320 0.42686 0.79808
 C182 C 0.54460 0.45513 0.81644
 C183 C 0.55515 0.49511 0.81286
 C184 C 0.54402 0.50635 0.79157
 C185 C 0.48481 0.55642 0.77967
 C186 C 0.47279 0.56572 0.80135
 C187 C 0.45116 0.53594 0.81886
 C188 C 0.44141 0.49649 0.81396
 C189 C 0.45319 0.48715 0.79214
 C190 C 0.50564 0.54434 0.71134
 C191 C 0.49428 0.55456 0.68974
 C192 C 0.45441 0.54170 0.68550
 C193 C 0.42637 0.51897 0.70354
 C194 C 0.43769 0.50851 0.72499
 H195 H 0.45926 0.44235 0.71404
 H196 H 0.47767 0.42559 0.67507
 H197 H 0.59994 0.49001 0.69745
 H198 H 0.58149 0.50787 0.73584
 H199 H 0.49508 0.41556 0.76319
 H200 H 0.51536 0.39604 0.79998
 H201 H 0.55260 0.53731 0.78916
 H202 H 0.50157 0.57995 0.76653
 H203 H 0.48001 0.59619 0.80424
 H204 H 0.42497 0.47288 0.82709
 H205 H 0.44493 0.45649 0.78865
 H206 H 0.53650 0.55464 0.71422
 H207 H 0.51661 0.57192 0.67620
 H208 H 0.39558 0.50936 0.70114
 H209 H 0.41541 0.49053 0.73843
 H210 H 0.57146 0.51758 0.82668
 C211 C 0.49273 -0.02107 0.75049
 C212 C 0.51220 0.01963 0.75112
 C213 C 0.52162 0.04363 0.72848
 C214 C 0.52530 0.04220 0.77445
 C215 C 0.48067 -0.04522 0.77312
 C216 C 0.48278 -0.04351 0.72714
 C217 C 0.56079 0.07354 0.72353
 C218 C 0.57019 0.09609 0.70219
 C219 C 0.54050 0.08935 0.68547
 C220 C 0.50116 0.05976 0.69067
 C221 C 0.49178 0.03721 0.71203
 C222 C 0.54993 0.03728 0.79056
 C223 C 0.56228 0.05898 0.81236
 C224 C 0.55048 0.08622 0.81835
 C225 C 0.52614 0.09132 0.80203
 C226 C 0.51381 0.06963 0.78026
 C227 C 0.45537 -0.04283 0.78995
 C228 C 0.44434 -0.06563 0.81127
 C229 C 0.45850 -0.09142 0.81638
 C230 C 0.48381 -0.09360 0.79907
 C231 C 0.49440 -0.07107 0.77769
 C232 C 0.44343 -0.07204 0.72177
 C233 C 0.43355 -0.09337 0.69986
 C234 C 0.46297 -0.08719 0.68278
 C235 C 0.50266 -0.05853 0.68863
 C236 C 0.51235 -0.03704 0.71050
 H237 H 0.58416 0.07915 0.73612
 H238 H 0.60065 0.11915 0.69890
 H239 H 0.47769 0.05375 0.67807
 H240 H 0.46127 0.01470 0.71573
 H241 H 0.55969 0.01677 0.78620
 H242 H 0.58085 0.05425 0.82462
 H243 H 0.49512 0.07410 0.76794
 H244 H 0.44432 -0.02310 0.78662
 H245 H 0.42598 -0.06151 0.82409
 H246 H 0.49438 -0.11391 0.80133
 H247 H 0.51363 -0.07360 0.76471
 H248 H 0.42024 -0.07775 0.73458
 H249 H 0.40283 -0.11594 0.69703
 H250 H 0.52649 -0.05130 0.67606
 H251 H 0.54299 -0.01522 0.71443
 H252 H 0.51714 0.11259 0.80593
 O253 O 0.38690 0.66108 0.97367
 O254 O 0.39106 0.72930 0.97891
 C255 C 0.36741 0.73476 0.96629
 O256 O 0.33092 0.71768 0.97098
 O257 O 0.26315 0.65277 0.97795
 C258 C 0.25648 0.62125 0.96688
 O259 O 0.27213 0.60147 0.97311
 O260 O 0.33573 0.59969 0.98092
 C261 C 0.36652 0.62397 0.96893
 O262 O 0.38734 0.65309 1.02258
 O263 O 0.38793 0.71947 1.02783
 C264 C 0.36941 0.73721 1.03218
 O265 O 0.34005 0.73153 1.01956
 O266 O 0.27371 0.66498 1.02653
 C267 C 0.25550 0.62844 1.03256
 O268 O 0.26037 0.60252 1.02171
 O269 O 0.32553 0.60360 1.02942
 C270 C 0.36191 0.62292 1.03468
 Cr271 Cr 0.38606 0.68962 1.00073
 Cr272 Cr 0.30302 0.69058 0.99881
 Cr273 Cr 0.29963 0.60411 1.00126
 O274 O 0.32955 0.66140 1.00027
 O275 O 0.61294 0.33168 0.97115
 O276 O 0.61329 0.26657 0.97986
 C277 C 0.63916 0.26255 0.96868
 O278 O 0.67533 0.28193 0.97449
 O279 O 0.74031 0.34997 0.98173
 C280 C 0.74509 0.37919 0.96884
 O281 O 0.72662 0.39706 0.97287
 O282 O 0.66038 0.39501 0.97794
 C283 C 0.63098 0.36851 0.96581
 O284 O 0.60872 0.34322 1.01939
 O285 O 0.61230 0.28008 1.02817
 C286 C 0.63183 0.26422 1.03439
 O287 O 0.66284 0.27094 1.02320
 O288 O 0.72614 0.34065 1.03024
 C289 C 0.74257 0.37772 1.03472
 O290 O 0.73678 0.40122 1.02184
 O291 O 0.66882 0.39558 1.02693
 C292 C 0.63220 0.37452 1.03146
 Cr293 Cr 0.61403 0.30660 0.99967
 Cr294 Cr 0.69999 0.31189 1.00235
 Cr295 Cr 0.69713 0.39499 0.99992
 O296 O 0.67038 0.33783 1.00065
 O297 O 0.66428 0.39666 0.52607
 O298 O 0.73073 0.39948 0.52199
 C299 C 0.73672 0.37570 0.53435
 O300 O 0.72032 0.33871 0.52969
 O301 O 0.65523 0.27009 0.52391
 C302 C 0.62403 0.26352 0.53471
 O303 O 0.60467 0.27936 0.52814
 O304 O 0.60358 0.34405 0.52038
 C305 C 0.62797 0.37616 0.53147
 O306 O 0.65693 0.39541 0.47708
 O307 O 0.72208 0.39529 0.47292
 C308 C 0.73876 0.37573 0.46862
 O309 O 0.73217 0.34551 0.48105
 O310 O 0.66592 0.27867 0.47515
 C311 C 0.62998 0.26090 0.46893
 O312 O 0.60484 0.26678 0.47951
 O313 O 0.60640 0.33305 0.47181
 C314 C 0.62622 0.36953 0.46570
 Cr315 Cr 0.69234 0.39435 0.49955
 Cr316 Cr 0.69220 0.30936 0.50239
 Cr317 Cr 0.60722 0.30704 0.49998
 O318 O 0.66392 0.33693 0.50067
 O319 O 0.33043 0.60323 0.52878
 O320 O 0.26558 0.60312 0.52135
 C321 C 0.26153 0.62858 0.53340
 O322 O 0.28045 0.66555 0.52837
 O323 O 0.34703 0.73210 0.52138
 C324 C 0.37687 0.73724 0.53324
 O325 O 0.39461 0.71898 0.52816
 O326 O 0.39259 0.65214 0.52187
 C327 C 0.36687 0.62201 0.53396
 O328 O 0.34066 0.60054 0.48026
 O329 O 0.27800 0.60420 0.47282
 C330 C 0.26201 0.62405 0.46754
 O331 O 0.26847 0.65478 0.47957
 O332 O 0.33666 0.71970 0.47263
 C333 C 0.37298 0.73632 0.46740
 O334 O 0.39672 0.73019 0.47945
 O335 O 0.39166 0.66185 0.47303
 C336 C 0.37121 0.62485 0.46815
 Cr337 Cr 0.30486 0.60502 0.50081
 Cr338 Cr 0.30918 0.69188 0.50049
 Cr339 Cr 0.39167 0.68970 0.50063
 O340 O 0.33527 0.66223 0.50067
 C341 C 0.41721 0.56864 0.38350
 C342 C 0.45516 0.59499 0.37368
 C343 C 0.46751 0.58449 0.35244
 C344 C 0.44233 0.54830 0.34030
 C345 C 0.40476 0.52218 0.35009
 C346 C 0.39234 0.53208 0.37141
 C347 C 0.40494 0.58138 0.40599
 C348 C 0.36816 0.55713 0.41752
 C349 C 0.35764 0.57098 0.43794
 C350 C 0.38338 0.60937 0.44739
 C351 C 0.42044 0.63337 0.43637
 C352 C 0.43142 0.61966 0.41594
 C353 C 0.48035 0.63199 0.38483
 C354 C 0.46863 0.64418 0.40539
 H355 H 0.50942 0.65215 0.37732
 H356 H 0.48901 0.67337 0.41311
 H357 H 0.49684 0.60469 0.34530
 H358 H 0.38446 0.49434 0.34095
 H359 H 0.32888 0.55177 0.44607
 H360 H 0.44080 0.66294 0.44362
 H361 H 0.36298 0.51098 0.37783
 H362 H 0.34700 0.52749 0.41103
 C363 C 0.42997 0.83985 0.38214
 C364 C 0.40246 0.84637 0.36992
 C365 C 0.41349 0.86973 0.34867
 C366 C 0.45186 0.88696 0.33878
 C367 C 0.47908 0.88045 0.35134
 C368 C 0.46838 0.85738 0.37255
 C369 C 0.41673 0.81422 0.40463
 C370 C 0.44173 0.80573 0.41814
 C371 C 0.42766 0.78097 0.43863
 C372 C 0.38833 0.76398 0.44626
 C373 C 0.36338 0.77275 0.43310
 C374 C 0.37721 0.79757 0.41249
 C375 C 0.36393 0.82947 0.37890
 C376 C 0.35155 0.80553 0.39966
 H377 H 0.34283 0.83454 0.36959
 H378 H 0.32132 0.79291 0.40571
 H379 H 0.39205 0.87537 0.34047
 H380 H 0.50851 0.89154 0.34439
 H381 H 0.44764 0.77480 0.44837
 H382 H 0.33294 0.75996 0.43875
 H383 H 0.49058 0.85325 0.38093
 H384 H 0.47215 0.81766 0.41316
 C385 C 0.16010 0.57502 0.38223
 C386 C 0.14548 0.59958 0.37511
 C387 C 0.12226 0.59047 0.35395
 C388 C 0.11323 0.55703 0.33906
 C389 C 0.12783 0.53264 0.34687
 C390 C 0.15061 0.54138 0.36789
 C391 C 0.18544 0.58618 0.40462
 C392 C 0.20163 0.56375 0.41303
 C393 C 0.22588 0.57589 0.43356
 C394 C 0.23472 0.61069 0.44640
 C395 C 0.21826 0.63299 0.43838
 C396 C 0.19387 0.62107 0.41763
 C397 C 0.15462 0.63355 0.38894
 C398 C 0.17826 0.64405 0.40971
 H399 H 0.14348 0.65251 0.38355
 H400 H 0.18462 0.67075 0.41965
 H401 H 0.11357 0.61140 0.34865
 H402 H 0.12037 0.50515 0.33764
 H403 H 0.23802 0.55797 0.43925
 H404 H 0.22486 0.65999 0.44805
 H405 H 0.16024 0.52106 0.37259
 H406 H 0.19629 0.53688 0.40399
 C407 C 0.57563 0.41881 0.38028
 C408 C 0.60332 0.45608 0.36971
 C409 C 0.59372 0.46891 0.34833
 C410 C 0.55663 0.44521 0.33727
 C411 C 0.52894 0.40882 0.34819
 C412 C 0.53820 0.39574 0.36935
 C413 C 0.58747 0.40554 0.40261
 C414 C 0.56278 0.36815 0.41376
 C415 C 0.57540 0.35680 0.43424
 C416 C 0.61285 0.38242 0.44432
 C417 C 0.63763 0.41987 0.43344
 C418 C 0.62540 0.43140 0.41262
 C419 C 0.64045 0.48022 0.38047
 C420 C 0.65114 0.46828 0.40156
 H421 H 0.66161 0.50885 0.37247
 H422 H 0.68022 0.48807 0.40916
 H423 H 0.61545 0.49702 0.34002
 H424 H 0.49976 0.39040 0.34042
 H425 H 0.55563 0.32772 0.44220
 H426 H 0.66681 0.43980 0.44089
 H427 H 0.51556 0.36754 0.37681
 H428 H 0.53378 0.34696 0.40686
 C429 C 0.58328 0.15608 0.38424
 C430 C 0.54484 0.14101 0.37496
 C431 C 0.53271 0.11778 0.35352
 C432 C 0.55854 0.10946 0.34063
 C433 C 0.59654 0.12421 0.35043
 C434 C 0.60864 0.14694 0.37177
 C435 C 0.59552 0.18172 0.40674
 C436 C 0.63333 0.19849 0.41716
 C437 C 0.64392 0.22341 0.43750
 C438 C 0.61719 0.23234 0.44820
 C439 C 0.57908 0.21505 0.43830
 C440 C 0.56816 0.19001 0.41768
 C441 C 0.51891 0.14980 0.38687
 C442 C 0.53032 0.17377 0.40774
 H443 H 0.48939 0.13826 0.37983
 H444 H 0.50926 0.17997 0.41611
 H445 H 0.50367 0.10817 0.34638
 H446 H 0.61706 0.11723 0.34219
 H447 H 0.67349 0.23609 0.44472
 H448 H 0.55810 0.22169 0.44633
 H449 H 0.63807 0.15699 0.37810
 H450 H 0.65543 0.19318 0.40979
 C451 C 0.84342 0.42360 0.38479
 C452 C 0.85762 0.46244 0.37541
 C453 C 0.88154 0.47536 0.35451
 C454 C 0.89090 0.44980 0.34220
 C455 C 0.87656 0.41122 0.35147
 C456 C 0.85329 0.39829 0.37248
 C457 C 0.81767 0.41086 0.40705
 C458 C 0.80321 0.37345 0.41836
 C459 C 0.77829 0.36251 0.43859
 C460 C 0.76697 0.38844 0.44804
 C461 C 0.78194 0.42615 0.43725
 C462 C 0.80734 0.43761 0.41706
 C463 C 0.84728 0.48792 0.38665
 C464 C 0.82235 0.47562 0.40686
 H465 H 0.85810 0.51764 0.37945
 H466 H 0.81471 0.49623 0.41463
 H467 H 0.89280 0.50543 0.34778
 H468 H 0.88259 0.39053 0.34214
 H469 H 0.76725 0.33326 0.44657
 H470 H 0.77381 0.44667 0.44456
 H471 H 0.84280 0.36816 0.37848
 H472 H 0.81065 0.35213 0.41189
 C473 C 0.57358 0.41986 1.11509
 C474 C 0.59879 0.45850 1.12497
 C475 C 0.58766 0.47062 1.14606
 C476 C 0.55201 0.44449 1.15803
 C477 C 0.52707 0.40620 1.14819
 C478 C 0.53756 0.39403 1.12701
 C479 C 0.58694 0.40786 1.09277
 C480 C 0.56373 0.37050 1.08116
 C481 C 0.57816 0.36018 1.06098
 C482 C 0.61610 0.38672 1.05184
 C483 C 0.63904 0.42442 1.06289
 C484 C 0.62472 0.43521 1.08308
 C485 C 0.63530 0.48460 1.11404
 C486 C 0.64814 0.47308 1.09368
 H487 H 0.65460 0.51419 1.12160
 H488 H 0.67694 0.49414 1.08616
 H489 H 0.60698 0.50050 1.15324
 H490 H 0.49970 0.38514 1.15722
 H491 H 0.55974 0.33091 1.05282
 H492 H 0.66826 0.44540 1.05586
 H493 H 0.51737 0.36408 1.12057
 H494 H 0.53448 0.34869 1.08741
 C495 C 0.84403 0.43779 1.12019
 C496 C 0.85525 0.41211 1.13064
 C497 C 0.87827 0.42361 1.15189
 C498 C 0.88994 0.46021 1.16342
 C499 C 0.87892 0.48572 1.15301
 C500 C 0.85635 0.47477 1.13168
 C501 C 0.81893 0.42399 1.09761
 C502 C 0.80665 0.44741 1.08545
 C503 C 0.78243 0.43266 1.06485
 C504 C 0.76971 0.39418 1.05587
 C505 C 0.78238 0.37097 1.06762
 C506 C 0.80688 0.38555 1.08820
 C507 C 0.84304 0.37482 1.12006
 C508 C 0.81917 0.36173 1.09940
 H509 H 0.85165 0.35519 1.12807
 H510 H 0.81011 0.33239 1.09211
 H511 H 0.88714 0.40390 1.15948
 H512 H 0.88708 0.51392 1.16165
 H513 H 0.77316 0.45126 1.05616
 H514 H 0.77311 0.34132 1.06076
 H515 H 0.84846 0.49544 1.12472
 H516 H 0.81524 0.47707 1.09157
 C517 C 0.57841 0.16099 1.11976
 C518 C 0.60237 0.14644 1.12803
 C519 C 0.59203 0.12285 1.14923
 C520 C 0.55800 0.11354 1.16286
 C521 C 0.53418 0.12786 1.15408
 C522 C 0.54410 0.15101 1.13301
 C523 C 0.59087 0.18676 1.09738
 C524 C 0.56918 0.20300 1.08792
 C525 C 0.58240 0.22759 1.06742
 C526 C 0.61759 0.23674 1.05563
 C527 C 0.63922 0.22029 1.06472
 C528 C 0.62620 0.19555 1.08547
 C529 C 0.63686 0.15596 1.11527
 C530 C 0.64849 0.17995 1.09448
 H531 H 0.65531 0.14485 1.12154
 H532 H 0.67553 0.18658 1.08538
 H533 H 0.61191 0.11361 1.15557
 H534 H 0.50669 0.12016 1.16287
 H535 H 0.56497 0.23970 1.06090
 H536 H 0.66650 0.22713 1.05587
 H537 H 0.52427 0.16061 1.12745
 H538 H 0.54206 0.19743 1.09611
 C539 C 0.41381 0.57260 1.11897
 C540 C 0.45079 0.60096 1.12921
 C541 C 0.46429 0.59150 1.15033
 C542 C 0.44163 0.55384 1.16139
 C543 C 0.40557 0.52543 1.15073
 C544 C 0.39179 0.53458 1.12987
 C545 C 0.39977 0.58436 1.09698
 C546 C 0.36243 0.55920 1.08634
 C547 C 0.35040 0.57176 1.06613
 C548 C 0.37530 0.60959 1.05582
 C549 C 0.41263 0.63487 1.06623
 C550 C 0.42480 0.62276 1.08681
 C551 C 0.47404 0.63858 1.11835
 C552 C 0.46149 0.64910 1.09748
 H553 H 0.50246 0.66024 1.12609
 H554 H 0.48061 0.67856 1.08977
 H555 H 0.49213 0.61381 1.15841
 H556 H 0.38795 0.49577 1.15847
 H557 H 0.32142 0.55165 1.05853
 H558 H 0.43196 0.66439 1.05863
 H559 H 0.36391 0.51138 1.12258
 H560 H 0.34181 0.52990 1.09347
 C561 C 0.15253 0.58233 1.11714
 C562 C 0.14196 0.54560 1.12847
 C563 C 0.11978 0.53418 1.15014
 C564 C 0.10782 0.55889 1.16080
 C565 C 0.11742 0.59470 1.14913
 C566 C 0.13940 0.60632 1.12763
 C567 C 0.17769 0.59430 1.09465
 C568 C 0.19129 0.63108 1.08274
 C569 C 0.21592 0.64161 1.06245
 C570 C 0.22753 0.61575 1.05328
 C571 C 0.21354 0.57865 1.06470
 C572 C 0.18912 0.56796 1.08539
 C573 C 0.15396 0.52072 1.11827
 C574 C 0.17684 0.53156 1.09713
 H575 H 0.14570 0.49249 1.12685
 H576 H 0.18554 0.51136 1.09007
 H577 H 0.11269 0.50651 1.15905
 H578 H 0.10778 0.61386 1.15664
 H579 H 0.22613 0.67038 1.05400
 H580 H 0.22254 0.55852 1.05793
 H581 H 0.14581 0.63422 1.11964
 H582 H 0.18381 0.65249 1.08895
 C583 C 0.41698 0.84140 1.11716
 C584 C 0.45427 0.85342 1.12742
 C585 C 0.46689 0.87700 1.14864
 C586 C 0.44253 0.88819 1.16038
 C587 C 0.40547 0.87600 1.15023
 C588 C 0.39287 0.85307 1.12891
 C589 C 0.40451 0.81594 1.09457
 C590 C 0.36862 0.80351 1.08243
 C591 C 0.35778 0.77872 1.06193
 C592 C 0.38230 0.76554 1.05299
 C593 C 0.41855 0.77855 1.06460
 C594 C 0.42990 0.80376 1.08510
 C595 C 0.47849 0.84130 1.11672
 C596 C 0.46641 0.81669 1.09617
 H597 H 0.50703 0.85046 1.12459
 H598 H 0.48599 0.80762 1.08883
 H599 H 0.49582 0.88661 1.15605
 H600 H 0.38569 0.88347 1.15907
 H601 H 0.32967 0.76925 1.05334
 H602 H 0.43798 0.76895 1.05773
 H603 H 0.36391 0.84428 1.12221
 H604 H 0.34841 0.81240 1.08848
 C605 C 0.57696 0.42835 0.61565
 C606 C 0.54154 0.39938 0.62721
 C607 C 0.52936 0.40892 0.64896
 C608 C 0.55199 0.44712 0.65947
 C609 C 0.58643 0.47605 0.64755
 C610 C 0.59879 0.46692 0.62598
 C611 C 0.58994 0.41643 0.59313
 C612 C 0.62572 0.44243 0.58106
 C613 C 0.63743 0.42943 0.56084
 C614 C 0.61374 0.39030 0.55188
 C615 C 0.57756 0.36440 0.56340
 C616 C 0.56576 0.37700 0.58405
 C617 C 0.51875 0.36097 0.61716
 C618 C 0.53048 0.35010 0.59598
 H619 H 0.49150 0.33883 0.62590
 H620 H 0.51193 0.31991 0.58906
 H621 H 0.50276 0.38623 0.65803
 H622 H 0.60394 0.50604 0.65492
 H623 H 0.66545 0.45012 0.55231
 H624 H 0.55915 0.33396 0.55681
 H625 H 0.62556 0.49050 0.61780
 H626 H 0.64550 0.47270 0.58713
 C627 C 0.57067 0.16098 0.62026
 C628 C 0.59452 0.14604 0.62822
 C629 C 0.58432 0.12246 0.64933
 C630 C 0.55058 0.11343 0.66284
 C631 C 0.52680 0.12794 0.65480
 C632 C 0.53661 0.15137 0.63382
 C633 C 0.58303 0.18669 0.59788
 C634 C 0.56167 0.20345 0.58865
 C635 C 0.57483 0.22789 0.56807
 C636 C 0.60959 0.23630 0.55602
 C637 C 0.63084 0.21933 0.56490
 C638 C 0.61793 0.19480 0.58566
 C639 C 0.62851 0.15487 0.61517
 C640 C 0.63996 0.17871 0.59436
 H641 H 0.64672 0.14335 0.62123
 H642 H 0.66664 0.18484 0.58501
 H643 H 0.60259 0.11088 0.65518
 H644 H 0.50084 0.12177 0.66503
 H645 H 0.55775 0.24049 0.56169
 H646 H 0.65778 0.22557 0.55582
 H647 H 0.51727 0.16182 0.62872
 H648 H 0.53487 0.19836 0.59709
 C649 C 0.83887 0.43306 0.61911
 C650 C 0.86354 0.41741 0.62299
 C651 C 0.88828 0.42924 0.64350
 C652 C 0.88754 0.45504 0.66113
 C653 C 0.86197 0.46940 0.65754
 C654 C 0.83825 0.45890 0.63679
 C655 C 0.81339 0.42020 0.59677
 C656 C 0.79078 0.43696 0.58995
 C657 C 0.76662 0.42308 0.56933
 C658 C 0.76402 0.39185 0.55525
 C659 C 0.78716 0.37567 0.56148
 C660 C 0.81240 0.39019 0.58175
 C661 C 0.86259 0.38920 0.60675
 C662 C 0.83691 0.37521 0.58689
 H663 H 0.88125 0.37696 0.60979
 H664 H 0.83658 0.35263 0.57520
 H665 H 0.90798 0.41803 0.64572
 H666 H 0.85954 0.48823 0.67105
 H667 H 0.74918 0.43616 0.56471
 H668 H 0.78590 0.35210 0.55030
 H669 H 0.81892 0.47050 0.63526
 H670 H 0.79149 0.46091 0.60019
 C671 C 0.41593 0.57051 0.61910
 C672 C 0.45251 0.59876 0.62983
 C673 C 0.46505 0.58922 0.65135
 C674 C 0.44183 0.55158 0.66236
 C675 C 0.40617 0.52328 0.65123
 C676 C 0.39332 0.53252 0.62997
 C677 C 0.40287 0.58240 0.59669
 C678 C 0.36598 0.55733 0.58550
 C679 C 0.35469 0.57015 0.56507
 C680 C 0.37990 0.60814 0.55504
 C681 C 0.41691 0.63322 0.56588
 C682 C 0.42832 0.62086 0.58672
 C683 C 0.47628 0.63639 0.61908
 C684 C 0.46461 0.64707 0.59789
 H685 H 0.50440 0.65798 0.62719
 H686 H 0.48408 0.67656 0.59031
 H687 H 0.49259 0.61146 0.65977
 H688 H 0.38812 0.49364 0.65891
 H689 H 0.32595 0.55016 0.55711
 H690 H 0.43648 0.66285 0.55850
 H691 H 0.36569 0.50941 0.62235
 H692 H 0.34511 0.52794 0.59240
 C693 C 0.43212 0.84316 0.61744
 C694 C 0.40509 0.85174 0.62844
 C695 C 0.41548 0.87490 0.64983
 C696 C 0.45297 0.89046 0.66069
 C697 C 0.48003 0.88269 0.64902
 C698 C 0.46982 0.85945 0.62788
 C699 C 0.41928 0.81694 0.59519
 C700 C 0.44312 0.80463 0.58380
 C701 C 0.42940 0.77925 0.56358
 C702 C 0.39172 0.76567 0.55398
 C703 C 0.36790 0.77816 0.56498
 C704 C 0.38117 0.80320 0.58561
 C705 C 0.36780 0.83726 0.61802
 C706 C 0.35622 0.81378 0.59697
 H707 H 0.34714 0.84410 0.62631
 H708 H 0.32702 0.80324 0.58970
 H709 H 0.39446 0.88180 0.65741
 H710 H 0.50881 0.89276 0.65672
 H711 H 0.44843 0.77010 0.55548
 H712 H 0.33853 0.76748 0.55792
 H713 H 0.49188 0.85437 0.62018
 H714 H 0.47220 0.81368 0.59038
 C715 C 0.15634 0.57502 0.61738
 C716 C 0.15281 0.60438 0.63024
 C717 C 0.12932 0.59400 0.65134
 C718 C 0.10916 0.55446 0.66040
 C719 C 0.11278 0.52548 0.64722
 C720 C 0.13578 0.53549 0.62614
 C721 C 0.18230 0.58752 0.59518
 C722 C 0.18779 0.56058 0.58109
 C723 C 0.21304 0.57390 0.56096
 C724 C 0.23354 0.61440 0.55423
 C725 C 0.22783 0.64138 0.56796
 C726 C 0.20251 0.62830 0.58826
 C727 C 0.17327 0.64419 0.62224
 C728 C 0.19762 0.65589 0.60175
 H729 H 0.17065 0.66677 0.63207
 H730 H 0.21301 0.68711 0.59645
 H731 H 0.12870 0.61763 0.66125
 H732 H 0.09676 0.49433 0.65252
 H733 H 0.21676 0.55232 0.55076
 H734 H 0.24340 0.67278 0.56301
 H735 H 0.13695 0.51168 0.61702
 H736 H 0.17310 0.52915 0.58534
 C737 C 0.41320 0.56690 0.88492
 C738 C 0.45098 0.59338 0.87493
 C739 C 0.46342 0.58267 0.85381
 C740 C 0.43849 0.54611 0.84194
 C741 C 0.40109 0.51987 0.85192
 C742 C 0.38859 0.52999 0.87311
 C743 C 0.40082 0.57988 0.90729
 C744 C 0.36421 0.55554 0.91897
 C745 C 0.35354 0.56960 0.93923
 C746 C 0.37898 0.60828 0.94839
 C747 C 0.41590 0.63238 0.93722
 C748 C 0.42702 0.61847 0.91694
 C749 C 0.47591 0.63072 0.88580
 C750 C 0.46407 0.64311 0.90622
 H751 H 0.50484 0.65099 0.87815
 H752 H 0.48425 0.67255 0.91371
 H753 H 0.49263 0.60299 0.84655
 H754 H 0.38096 0.49174 0.84299
 H755 H 0.32489 0.55028 0.94747
 H756 H 0.43604 0.66220 0.94422
 H757 H 0.35935 0.50877 0.87968
 H758 H 0.34327 0.52568 0.91271
 C759 C 0.15539 0.56950 0.88123
 C760 C 0.14750 0.59757 0.87072
 C761 C 0.12507 0.58805 0.84927
 C762 C 0.10956 0.55042 0.83781
 C763 C 0.11685 0.52236 0.84887
 C764 C 0.13938 0.53172 0.87010
 C765 C 0.18051 0.58136 0.90374
 C766 C 0.19169 0.55634 0.91494
 C767 C 0.21591 0.56918 0.93553
 C768 C 0.22943 0.60714 0.94566
 C769 C 0.21810 0.63211 0.93480
 C770 C 0.19418 0.61971 0.91390
 C771 C 0.16190 0.63504 0.88171
 C772 C 0.18452 0.64577 0.90290
 H773 H 0.15564 0.65650 0.87377
 H774 H 0.19502 0.67516 0.91064
 H775 H 0.11859 0.60981 0.84216
 H776 H 0.10681 0.49345 0.84066
 H777 H 0.22419 0.54927 0.94349
 H778 H 0.22866 0.66169 0.94227
 H779 H 0.14411 0.50895 0.87734
 H780 H 0.18253 0.52697 0.90797
 C781 C 0.42519 0.83789 0.88113
 C782 C 0.39983 0.84930 0.87084
 C783 C 0.41121 0.87309 0.84977
 C784 C 0.44750 0.88539 0.83807
 C785 C 0.47233 0.87350 0.84847
 C786 C 0.46149 0.85037 0.86960
 C787 C 0.41182 0.81232 0.90359
 C788 C 0.43536 0.80040 0.91572
 C789 C 0.42114 0.77577 0.93623
 C790 C 0.38307 0.76226 0.94517
 C791 C 0.35967 0.77454 0.93346
 C792 C 0.37378 0.79953 0.91295
 C793 C 0.36285 0.83626 0.88132
 C794 C 0.34998 0.81167 0.90180
 H795 H 0.34330 0.84485 0.87340
 H796 H 0.32092 0.80204 0.90903
 H797 H 0.39047 0.88006 0.84190
 H798 H 0.50115 0.88320 0.84092
 H799 H 0.43987 0.76682 0.94490
 H800 H 0.33032 0.76465 0.94030
 H801 H 0.48204 0.84256 0.87653
 H802 H 0.46478 0.80963 0.90970
 C803 C 0.57659 0.41653 0.88156
 C804 C 0.60317 0.45442 0.87126
 C805 C 0.59256 0.46705 0.85018
 C806 C 0.55552 0.44259 0.83920
 C807 C 0.52888 0.40560 0.84993
 C808 C 0.53917 0.39268 0.87075
 C809 C 0.58953 0.40350 0.90351
 C810 C 0.56614 0.36549 0.91423
 C811 C 0.57969 0.35447 0.93441
 C812 C 0.61680 0.38101 0.94462
 C813 C 0.64035 0.41903 0.93413
 C814 C 0.62721 0.43024 0.91357
 C815 C 0.64016 0.47938 0.88200
 C816 C 0.65177 0.46771 0.90281
 H817 H 0.66046 0.50848 0.87422
 H818 H 0.68067 0.48817 0.91043
 H819 H 0.61351 0.49565 0.84206
 H820 H 0.49973 0.38654 0.84227
 H821 H 0.56087 0.32493 0.94207
 H822 H 0.66929 0.43965 0.94166
 H823 H 0.51729 0.36400 0.87807
 H824 H 0.53747 0.34360 0.90722
 C825 C 0.84861 0.42841 0.88422
 C826 C 0.85403 0.46209 0.87114
 C827 C 0.87657 0.47418 0.84962
 C828 C 0.89343 0.45281 0.84058
 C829 C 0.88827 0.41966 0.85366
 C830 C 0.86630 0.40763 0.87520
 C831 C 0.82351 0.41590 0.90680
 C832 C 0.81634 0.38292 0.92115
 C833 C 0.79156 0.37160 0.94149
 C834 C 0.77326 0.39279 0.94812
 C835 C 0.78096 0.42625 0.93424
 C836 C 0.80582 0.43790 0.91376
 C837 C 0.83636 0.48307 0.87934
 C838 C 0.81266 0.47115 0.90012
 H839 H 0.84051 0.50886 0.86935
 H840 H 0.79927 0.48811 0.90552
 H841 H 0.88002 0.49957 0.83948
 H842 H 0.90141 0.40299 0.84721
 H843 H 0.78628 0.34571 0.95182
 H844 H 0.76720 0.44308 0.93918
 H845 H 0.86327 0.38179 0.88431
 H846 H 0.82925 0.36523 0.91694
 C847 C 0.59099 0.15752 0.88405
 C848 C 0.55127 0.13997 0.87641
 C849 C 0.53815 0.11632 0.85522
 C850 C 0.56407 0.10986 0.84128
 C851 C 0.60325 0.12680 0.84907
 C852 C 0.61660 0.15028 0.87014
 C853 C 0.60407 0.18354 0.90639
 C854 C 0.64310 0.20301 0.91525
 C855 C 0.65414 0.22800 0.93564
 C856 C 0.62663 0.23422 0.94787
 C857 C 0.58748 0.21432 0.93947
 C858 C 0.57610 0.18928 0.91888
 C859 C 0.52493 0.14639 0.88980
 C860 C 0.53707 0.17050 0.91057
 H861 H 0.49448 0.13283 0.88400
 H862 H 0.51562 0.17479 0.92015
 H863 H 0.50764 0.10285 0.84957
 H864 H 0.62397 0.12262 0.83852
 H865 H 0.68454 0.24285 0.94167
 H866 H 0.56588 0.21884 0.94868
 H867 H 0.64713 0.16274 0.87501
 H868 H 0.66570 0.19975 0.90660
   
