data_POSCAR
  _audit_creation_date              2014-09-24
  _audit_creation_method            'ToBaCCo'
  _symmetry_space_group_name_H-M    'P1'
  _symmetry_Int_Tables_number       1
  _symmetry_cell_setting            triclinic
  loop_
  _symmetry_equiv_pos_as_xyz
 x,y,z
_cell_length_a 30.9269
_cell_length_b 30.8985
_cell_length_c 41.1555
_cell_angle_alpha 89.905000
_cell_angle_beta 90.170500
_cell_angle_gamma 120.782100
loop_
  _atom_site_label
  _atom_site_type_symbol
  _atom_site_fract_x
  _atom_site_fract_y
  _atom_site_fract_z
C1 C -0.02008 0.48968 1.25146
 C2 C 0.03116 0.51420 1.25180
 C3 C 0.06019 0.52817 1.28268
 C4 C 0.06100 0.52747 1.22140
 C5 C -0.04914 0.47679 1.22059
 C6 C -0.04968 0.47386 1.28202
 C7 C 0.05630 0.55968 1.30544
 C8 C 0.08360 0.57192 1.33452
 C9 C 0.11542 0.55284 1.34167
 C10 C 0.11971 0.52189 1.31810
 C11 C 0.09255 0.51003 1.28906
 C12 C 0.09806 0.57776 1.21552
 C13 C 0.12670 0.59099 1.18716
 C14 C 0.11947 0.55413 1.16434
 C15 C 0.08222 0.50357 1.17028
 C16 C 0.05352 0.49038 1.19869
 C17 C -0.08587 0.42652 1.21414
 C18 C -0.11278 0.41342 1.18494
 C19 C -0.10347 0.45051 1.16155
 C20 C -0.06775 0.50103 1.16853
 C21 C -0.04077 0.51409 1.19776
 C22 C -0.04509 0.44191 1.30423
 C23 C -0.07247 0.42817 1.33318
 C24 C -0.10490 0.44606 1.34048
 C25 C -0.11052 0.47691 1.31769
 C26 C -0.08315 0.49060 1.28874
 H27 H 0.03210 0.57479 1.30068
 H28 H 0.07937 0.59620 1.35158
 H29 H 0.14428 0.50698 1.32106
 H30 H 0.09644 0.48610 1.27154
 H31 H 0.10447 0.60687 1.23281
 H32 H 0.15492 0.63018 1.18314
 H33 H 0.02541 0.45125 1.20298
 H34 H -0.09337 0.39729 1.23166
 H35 H -0.14133 0.37438 1.18110
 H36 H -0.06046 0.53043 1.15121
 H37 H -0.01332 0.55326 1.20257
 H38 H -0.02028 0.42768 1.29913
 H39 H -0.06810 0.40368 1.35002
 H40 H -0.13656 0.48989 1.32176
 H41 H -0.08774 0.51465 1.27165
 H42 H 0.07456 0.47421 1.15295
 C43 C 0.51091 0.48687 1.24987
 C44 C 0.48658 0.51318 1.25064
 C45 C 0.47406 0.52852 1.28175
 C46 C 0.47106 0.52796 1.22042
 C47 C 0.52535 0.47316 1.21884
 C48 C 0.52434 0.46999 1.28005
 C49 C 0.42398 0.51413 1.28830
 C50 C 0.41136 0.52809 1.31740
 C51 C 0.44876 0.55689 1.34058
 C52 C 0.49906 0.57234 1.33358
 C53 C 0.51164 0.55826 1.30444
 C54 C 0.43957 0.49180 1.19751
 C55 C 0.42554 0.50653 1.16916
 C56 C 0.44273 0.55759 1.16317
 C57 C 0.47318 0.59357 1.18665
 C58 C 0.48714 0.57880 1.21497
 C59 C 0.55603 0.51002 1.19606
 C60 C 0.57014 0.49628 1.16739
 C61 C 0.55389 0.44554 1.16098
 C62 C 0.52400 0.40887 1.18423
 C63 C 0.50989 0.42263 1.21279
 C64 C 0.57449 0.48367 1.28551
 C65 C 0.58779 0.46723 1.31331
 C66 C 0.55126 0.43659 1.33625
 C67 C 0.50068 0.42233 1.33051
 C68 C 0.48742 0.43885 1.30261
 H69 H 0.39457 0.49183 1.27086
 H70 H 0.37247 0.51706 1.32129
 H71 H 0.52867 0.59522 1.35076
 H72 H 0.55068 0.57070 1.29951
 H73 H 0.42581 0.45221 1.20164
 H74 H 0.40138 0.47799 1.15175
 H75 H 0.51078 0.60714 1.23263
 H76 H 0.56940 0.54941 1.20064
 H77 H 0.59388 0.52534 1.15018
 H78 H 0.51237 0.36967 1.18097
 H79 H 0.48692 0.39374 1.23032
 H80 H 0.60345 0.50732 1.26823
 H81 H 0.62691 0.47856 1.31690
 H82 H 0.47094 0.39777 1.34693
 H83 H 0.44828 0.42688 1.29838
 H84 H 0.48555 0.63301 1.18367
 C85 C 0.50815 1.02294 1.25184
 C86 C 0.48222 0.97166 1.25184
 C87 C 0.46538 0.94216 1.28242
 C88 C 0.46860 0.94205 1.22131
 C89 C 0.52454 1.05259 1.22126
 C90 C 0.52140 1.05227 1.28250
 C91 C 0.48181 0.90866 1.28982
 C92 C 0.46599 0.88005 1.31824
 C93 C 0.43261 0.88353 1.33977
 C94 C 0.41621 0.91753 1.33214
 C95 C 0.43237 0.94631 1.30369
 C96 C 0.50548 0.94781 1.19905
 C97 C 0.49158 0.91947 1.17041
 C98 C 0.44069 0.88501 1.16355
 C99 C 0.40401 0.87840 1.18641
 C100 C 0.41792 0.90670 1.21495
 C101 C 0.48986 1.04672 1.19713
 C102 C 0.50630 1.07502 1.16850
 C103 C 0.55776 1.11010 1.16336
 C104 C 0.59221 1.11637 1.18821
 C105 C 0.57561 1.08800 1.21672
 C106 C 0.50528 1.08664 1.28726
 C107 C 0.51683 1.11446 1.31595
 C108 C 0.54525 1.10865 1.34074
 C109 C 0.56205 1.07458 1.33539
 C110 C 0.55040 1.04683 1.30660
 H111 H 0.50724 0.90491 1.27361
 H112 H 0.47961 0.85459 1.32316
 H113 H 0.39135 0.92280 1.34780
 H114 H 0.41896 0.97174 1.29816
 H115 H 0.54492 0.97412 1.20390
 H116 H 0.52061 0.92463 1.15349
 H117 H 0.38903 0.90117 1.23211
 H118 H 0.45006 1.02027 1.20047
 H119 H 0.47849 1.06932 1.15028
 H120 H 0.63200 1.14320 1.18649
 H121 H 0.60286 1.09345 1.23529
 H122 H 0.48325 1.09166 1.26873
 H123 H 0.50351 1.14049 1.31787
 H124 H 0.58435 1.06928 1.35357
 H125 H 0.56405 1.02114 1.30309
 H126 H 0.36464 0.85077 1.18276
 C127 C 1.02491 0.50464 0.75060
 C128 C 0.97367 0.47933 0.74995
 C129 C 0.94547 0.46731 0.71883
 C130 C 0.94324 0.46349 0.78020
 C131 C 1.05368 0.52094 0.78150
 C132 C 1.05523 0.52011 0.72032
 C133 C 0.95317 0.50561 0.69705
 C134 C 0.92706 0.49366 0.66756
 C135 C 0.89277 0.44330 0.65931
 C136 C 0.88404 0.40510 0.68167
 C137 C 0.91018 0.41711 0.71115
 C138 C 0.90779 0.47821 0.78542
 C139 C 0.87898 0.46400 0.81375
 C140 C 0.88441 0.43413 0.83725
 C141 C 0.92004 0.41934 0.83200
 C142 C 0.94890 0.43363 0.80361
 C143 C 1.08844 0.50602 0.78862
 C144 C 1.11787 0.52323 0.81670
 C145 C 1.11405 0.55665 0.83807
 C146 C 1.07840 0.57107 0.83090
 C147 C 1.04876 0.55346 0.80284
 C148 C 1.04937 0.48478 0.69673
 C149 C 1.07755 0.50054 0.66807
 C150 C 1.11229 0.55195 0.66230
 C151 C 1.11878 0.58699 0.68671
 C152 C 1.09062 0.57110 0.71525
 H153 H 0.97945 0.54471 0.70290
 H154 H 0.93383 0.52384 0.65106
 H155 H 0.85650 0.36603 0.67685
 H156 H 0.90318 0.38716 0.72792
 H157 H 0.90283 0.50125 0.76767
 H158 H 0.85207 0.47613 0.81721
 H159 H 0.97574 0.42148 0.79991
 H160 H 1.09288 0.48108 0.77231
 H161 H 1.14450 0.51100 0.82134
 H162 H 1.07264 0.59563 0.84657
 H163 H 1.02242 0.56580 0.79750
 H164 H 1.02284 0.44505 0.70047
 H165 H 1.07176 0.47230 0.65022
 H166 H 1.14567 0.62676 0.68465
 H167 H 1.09606 0.59888 0.73335
 H168 H 0.92636 0.39743 0.84984
 C169 C 0.49115 0.51551 0.74971
 C170 C 0.51697 0.49066 0.74991
 C171 C 0.53223 0.47672 0.71935
 C172 C 0.53099 0.47545 0.78061
 C173 C 0.47622 0.53001 0.78018
 C174 C 0.47583 0.52922 0.71897
 C175 C 0.51706 0.42616 0.71373
 C176 C 0.53083 0.41201 0.68520
 C177 C 0.56008 0.44832 0.66161
 C178 C 0.57640 0.49914 0.66772
 C179 C 0.56260 0.51327 0.69634
 C180 C 0.49447 0.44476 0.80352
 C181 C 0.50853 0.43021 0.83197
 C182 C 0.55923 0.44595 0.83801
 C183 C 0.59552 0.47569 0.81455
 C184 C 0.58145 0.49028 0.78622
 C185 C 0.51206 0.56040 0.80360
 C186 C 0.49705 0.57385 0.83199
 C187 C 0.44605 0.55723 0.83746
 C188 C 0.41044 0.52781 0.81351
 C189 C 0.42547 0.51436 0.78522
 C190 C 0.49112 0.57974 0.71299
 C191 C 0.47638 0.59340 0.68455
 C192 C 0.44538 0.55676 0.66173
 C193 C 0.43030 0.50601 0.66765
 C194 C 0.44512 0.49238 0.69616
 H195 H 0.49433 0.39754 0.73147
 H196 H 0.51927 0.37279 0.68213
 H197 H 0.59968 0.52792 0.65022
 H198 H 0.57567 0.55267 0.70060
 H199 H 0.45512 0.43180 0.79926
 H200 H 0.47972 0.40661 0.84933
 H201 H 0.61004 0.51319 0.76854
 H202 H 0.55160 0.57386 0.79980
 H203 H 0.52532 0.59724 0.84976
 H204 H 0.37112 0.51594 0.81606
 H205 H 0.39738 0.49157 0.76718
 H206 H 0.51472 0.60868 0.73035
 H207 H 0.48874 0.63272 0.68055
 H208 H 0.40755 0.47678 0.65031
 H209 H 0.43253 0.45309 0.70050
 H210 H 0.63464 0.48693 0.81749
 C211 C 0.48454 -0.02551 0.75099
 C212 C 0.51185 0.02581 0.75156
 C213 C 0.52634 0.05585 0.72110
 C214 C 0.52840 0.05494 0.78241
 C215 C 0.46727 -0.05618 0.78117
 C216 C 0.47026 -0.05386 0.71987
 C217 C 0.57719 0.09074 0.71503
 C218 C 0.59156 0.11968 0.68669
 C219 C 0.55515 0.11418 0.66378
 C220 C 0.50413 0.08008 0.67035
 C221 C 0.48980 0.05116 0.69874
 C222 C 0.55628 0.04634 0.80584
 C223 C 0.57211 0.07488 0.83445
 C224 C 0.56098 0.11323 0.83988
 C225 C 0.53332 0.12168 0.81619
 C226 C 0.51738 0.09304 0.78779
 C227 C 0.43887 -0.04868 0.80458
 C228 C 0.42271 -0.07820 0.83275
 C229 C 0.43408 -0.11660 0.83787
 C230 C 0.46209 -0.12406 0.81395
 C231 C 0.47831 -0.09440 0.78598
 C232 C 0.41935 -0.08654 0.71254
 C233 C 0.40503 -0.11316 0.68327
 C234 C 0.44166 -0.10798 0.66059
 C235 C 0.49281 -0.07591 0.66861
 C236 C 0.50695 -0.04909 0.69785
 H237 H 0.60583 0.09552 0.73228
 H238 H 0.63106 0.14694 0.68328
 H239 H 0.47529 0.07572 0.65341
 H240 H 0.45022 0.02532 0.70339
 H241 H 0.56595 0.01766 0.80192
 H242 H 0.59282 0.06645 0.85197
 H243 H 0.49611 0.10049 0.76999
 H244 H 0.42907 -0.02000 0.80100
 H245 H 0.40141 -0.07033 0.84999
 H246 H 0.47163 -0.15308 0.81681
 H247 H 0.49993 -0.10103 0.76812
 H248 H 0.39055 -0.09113 0.72948
 H249 H 0.36525 -0.13822 0.67929
 H250 H 0.52215 -0.07123 0.65210
 H251 H 0.54654 -0.02464 0.70335
 H252 H 0.52405 0.15076 0.81958
 O253 O 0.40947 0.65627 0.97215
 O254 O 0.40678 0.73825 0.96243
 C255 C 0.38239 0.75995 0.95602
 O256 O 0.34405 0.75241 0.97213
 O257 O 0.26124 0.66678 0.96233
 C258 C 0.23869 0.62015 0.95586
 O259 O 0.24621 0.58908 0.97146
 O260 O 0.33152 0.59354 0.96150
 C261 C 0.37828 0.61831 0.95554
 O262 O 0.40655 0.66920 1.03687
 O263 O 0.40885 0.75359 1.02707
 C264 C 0.37726 0.75923 1.04334
 O265 O 0.33062 0.73589 1.03693
 O266 O 0.24601 0.65235 1.02701
 C267 C 0.23945 0.61407 1.04282
 O268 O 0.26207 0.59068 1.03614
 O269 O 0.34515 0.59057 1.02621
 C270 C 0.38267 0.62238 1.04291
 Cr271 Cr 0.40513 0.70287 0.99961
 Cr272 Cr 0.29691 0.70055 0.99958
 Cr273 Cr 0.29762 0.59374 0.99883
 O274 O 0.33317 0.66572 0.99928
 O275 O 0.59229 0.34305 0.97310
 O276 O 0.59324 0.25987 0.96579
 C277 C 0.61732 0.23785 0.95965
 O278 O 0.65597 0.24568 0.97564
 O279 O 0.73918 0.33039 0.96552
 C280 C 0.76189 0.37669 0.95818
 O281 O 0.75528 0.40869 0.97328
 O282 O 0.67055 0.40548 0.96285
 C283 C 0.62384 0.38084 0.95653
 O284 O 0.59498 0.33281 1.03822
 O285 O 0.59160 0.24759 1.03090
 C286 C 0.62306 0.24163 1.04727
 O287 O 0.66944 0.26352 1.04039
 O288 O 0.75455 0.34622 1.03035
 C289 C 0.76137 0.38499 1.04570
 O290 O 0.73995 0.40914 1.03796
 O291 O 0.65775 0.41061 1.02738
 C292 C 0.61949 0.37973 1.04380
 Cr293 Cr 0.59587 0.29726 1.00198
 Cr294 Cr 0.70339 0.29784 1.00292
 Cr295 Cr 0.70447 0.40565 1.00040
 O296 O 0.66790 0.33355 1.00172
 O297 O 0.65781 0.41220 0.52572
 O298 O 0.73897 0.40864 0.53585
 C299 C 0.75984 0.38374 0.54295
 O300 O 0.75254 0.34534 0.52694
 O301 O 0.66656 0.26381 0.53750
 C302 C 0.62003 0.24179 0.54395
 O303 O 0.58906 0.24843 0.52749
 O304 O 0.59470 0.33454 0.53672
 C305 C 0.61987 0.38142 0.54247
 O306 O 0.67050 0.40784 0.46104
 O307 O 0.75414 0.40887 0.47106
 C308 C 0.75881 0.37624 0.45510
 O309 O 0.73543 0.32990 0.46225
 O310 O 0.65149 0.24617 0.47286
 C311 C 0.61410 0.24053 0.45638
 O312 O 0.59116 0.26373 0.46267
 O313 O 0.59173 0.34733 0.47199
 C314 C 0.62374 0.38461 0.45520
 Cr315 Cr 0.70396 0.40666 0.49845
 Cr316 Cr 0.70023 0.29772 0.49987
 Cr317 Cr 0.59437 0.29981 0.49970
 O318 O 0.66620 0.33473 0.49933
 O319 O 0.33406 0.59347 0.53655
 O320 O 0.24822 0.58840 0.52811
 C321 C 0.24135 0.61880 0.54497
 O322 O 0.26266 0.66543 0.53879
 O323 O 0.34418 0.75189 0.53028
 C324 C 0.38237 0.75870 0.54641
 O325 O 0.40758 0.73833 0.53895
 O326 O 0.41162 0.65766 0.52706
 C327 C 0.38075 0.61838 0.54274
 O328 O 0.34730 0.59436 0.47156
 O329 O 0.26369 0.59369 0.46307
 C330 C 0.24068 0.61692 0.45697
 O331 O 0.24651 0.65399 0.47386
 O332 O 0.33052 0.73875 0.46531
 C333 C 0.37714 0.76306 0.45902
 O334 O 0.40917 0.75687 0.47454
 O335 O 0.40850 0.67376 0.46270
 C336 C 0.38486 0.62742 0.45544
 Cr337 Cr 0.29963 0.59526 0.49986
 Cr338 Cr 0.29738 0.70118 0.50200
 Cr339 Cr 0.40645 0.70521 0.50082
 O340 O 0.33448 0.66721 0.50088
 C341 C 0.43692 0.57329 0.37146
 C342 C 0.39154 0.54805 0.38567
 C343 C 0.37791 0.56437 0.41577
 C344 C 0.40235 0.61184 0.42693
 H345 H 0.36269 0.51254 0.37558
 H346 H 0.34410 0.53623 0.42799
 H347 H 0.46728 0.60618 0.38321
 H348 H 0.43467 0.64101 0.41409
 C349 C 0.41726 0.85271 0.36770
 C350 C 0.38208 0.84798 0.38890
 C351 C 0.36559 0.81293 0.41678
 C352 C 0.39558 0.80012 0.43238
 H353 H 0.36108 0.86665 0.38494
 H354 H 0.32739 0.79826 0.42514
 H355 H 0.43387 0.82958 0.37155
 H356 H 0.43479 0.81722 0.42565
 C357 C 0.14080 0.56555 0.37035
 C358 C 0.17090 0.54660 0.38170
 C359 C 0.20036 0.56226 0.40997
 C360 C 0.20755 0.60159 0.43055
 H361 H 0.17211 0.51702 0.36864
 H362 H 0.22035 0.54274 0.41536
 H363 H 0.13670 0.59148 0.38581
 H364 H 0.18880 0.62238 0.42581
 C365 C 0.56794 0.41976 0.36500
 C366 C 0.53975 0.39776 0.39144
 C367 C 0.55773 0.38131 0.41955
 C368 C 0.60645 0.40242 0.42768
 H369 H 0.50144 0.38960 0.39273
 H370 H 0.52926 0.35164 0.43457
 H371 H 0.60567 0.42597 0.36402
 H372 H 0.63502 0.43409 0.41402
 C373 C 0.55846 0.13587 0.37024
 C374 C 0.54324 0.16786 0.37922
 C375 C 0.55909 0.19830 0.40935
 C376 C 0.59738 0.20558 0.42857
 H377 H 0.51717 0.17277 0.36452
 H378 H 0.53928 0.21791 0.41478
 H379 H 0.58216 0.12983 0.38671
 H380 H 0.61891 0.18782 0.42330
 C381 C 0.86620 0.42998 0.37126
 C382 C 0.84754 0.45591 0.38569
 C383 C 0.81691 0.43961 0.41570
 C384 C 0.79274 0.39215 0.42686
 H385 H 0.85584 0.49181 0.37582
 H386 H 0.81180 0.46774 0.42785
 H387 H 0.86194 0.39653 0.38277
 H388 H 0.79538 0.36299 0.41415
 C389 C 0.57088 0.43248 1.13080
 C390 C 0.54574 0.38651 1.11722
 C391 C 0.56266 0.37016 1.08862
 C392 C 0.60344 0.39992 1.07061
 H393 H 0.51058 0.35788 1.12774
 H394 H 0.53993 0.33054 1.08258
 H395 H 0.60492 0.46207 1.11976
 H396 H 0.62640 0.43977 1.07556
 C397 C 0.86825 0.43818 1.13044
 C398 C 0.84714 0.39257 1.11639
 C399 C 0.81691 0.37835 1.08612
 C400 C 0.79550 0.40328 1.07401
 H401 H 0.85293 0.36381 1.12689
 H402 H 0.80947 0.34367 1.07462
 H403 H 0.86652 0.46841 1.11841
 H404 H 0.80044 0.43660 1.08606
 C405 C 0.57216 0.13766 1.13397
 C406 C 0.62001 0.17032 1.12511
 C407 C 0.63509 0.20037 1.09481
 C408 C 0.60424 0.20779 1.07568
 H409 H 0.65121 0.17568 1.13988
 H410 H 0.67483 0.21942 1.08908
 H411 H 0.54225 0.13117 1.11736
 H412 H 0.56473 0.19073 1.08138
 C413 C 0.42644 0.57161 1.13302
 C414 C 0.45259 0.61750 1.11940
 C415 C 0.43657 0.63387 1.09024
 C416 C 0.39849 0.60318 1.07050
 H417 H 0.48761 0.64585 1.13030
 H418 H 0.45781 0.67386 1.08505
 H419 H 0.39204 0.54261 1.12190
 H420 H 0.37745 0.56297 1.07454
 C421 C 0.15082 0.57026 1.13459
 C422 C 0.16001 0.53950 1.11679
 C423 C 0.19369 0.55646 1.08823
 C424 C 0.20387 0.59680 1.07020
 H425 H 0.14557 0.50104 1.12450
 H426 H 0.20985 0.53381 1.08162
 H427 H 0.16947 0.60988 1.12848
 H428 H 0.18588 0.61819 1.07549
 C429 C 0.42740 0.85504 1.13321
 C430 C 0.38208 0.83527 1.11889
 C431 C 0.36596 0.80266 1.08975
 C432 C 0.39645 0.79460 1.07090
 H433 H 0.35394 0.84203 1.12920
 H434 H 0.32626 0.78419 1.08384
 H435 H 0.45633 0.84980 1.12264
 H436 H 0.43642 0.81349 1.07564
 C437 C 0.57599 0.43473 0.63122
 C438 C 0.54980 0.38878 0.61772
 C439 C 0.56533 0.37206 0.58865
 C440 C 0.60503 0.40175 0.56981
 H441 H 0.51483 0.36052 0.62865
 H442 H 0.54243 0.33235 0.58291
 H443 H 0.60995 0.46395 0.61989
 H444 H 0.62805 0.44169 0.57446
 C445 C 0.56875 0.14480 0.63365
 C446 C 0.61416 0.16485 0.61958
 C447 C 0.63039 0.19755 0.59044
 C448 C 0.60036 0.20675 0.57172
 H449 H 0.64223 0.15795 0.62996
 H450 H 0.66991 0.21508 0.58437
 H451 H 0.53986 0.15007 0.62291
 H452 H 0.56057 0.18902 0.57667
 C453 C 0.86523 0.43236 0.62802
 C454 C 0.84467 0.38756 0.61296
 C455 C 0.81483 0.37489 0.58261
 C456 C 0.79381 0.40062 0.57127
 H457 H 0.85043 0.35835 0.62269
 H458 H 0.80734 0.34071 0.57036
 H459 H 0.86350 0.46308 0.61676
 H460 H 0.79880 0.43346 0.58400
 C461 C 0.43017 0.57326 0.63219
 C462 C 0.38888 0.54282 0.61470
 C463 C 0.37124 0.55998 0.58680
 C464 C 0.40075 0.60157 0.56933
 H465 H 0.36421 0.50429 0.62234
 H466 H 0.33192 0.53639 0.58029
 H467 H 0.45209 0.61290 0.62618
 H468 H 0.44062 0.62423 0.57444
 C469 C 0.42958 0.86583 0.63073
 C470 C 0.38276 0.83826 0.61843
 C471 C 0.37067 0.80947 0.58773
 C472 C 0.39856 0.79170 0.57522
 H473 H 0.35115 0.83750 0.63005
 H474 H 0.33504 0.79941 0.57644
 H475 H 0.46056 0.86933 0.61643
 H476 H 0.43259 0.79865 0.58740
 C477 C 0.13927 0.56588 0.63273
 C478 C 0.17024 0.61375 0.62307
 C479 C 0.19981 0.62907 0.59267
 C480 C 0.20729 0.59871 0.57319
 H481 H 0.17447 0.64497 0.63726
 H482 H 0.21850 0.66893 0.58713
 H483 H 0.13357 0.53572 0.61667
 H484 H 0.19037 0.55902 0.57849
 C485 C 0.43174 0.57322 0.86752
 C486 C 0.38529 0.54772 0.88031
 C487 C 0.36839 0.56355 0.90919
 C488 C 0.39819 0.60307 0.92819
 H489 H 0.35689 0.51311 0.86902
 H490 H 0.32860 0.54109 0.91465
 H491 H 0.46098 0.60680 0.87925
 H492 H 0.43816 0.62571 0.92378
 C493 C 0.14627 0.57415 0.86535
 C494 C 0.15124 0.61026 0.88590
 C495 C 0.18728 0.62878 0.91331
 C496 C 0.20188 0.60034 0.92906
 H497 H 0.13167 0.63034 0.88176
 H498 H 0.20081 0.66698 0.92138
 H499 H 0.17036 0.55864 0.86912
 H500 H 0.18597 0.56109 0.92264
 C501 C 0.41895 0.85198 0.86555
 C502 C 0.39150 0.85353 0.89036
 C503 C 0.37584 0.81898 0.91861
 C504 C 0.40007 0.79563 0.92859
 H505 H 0.37717 0.87884 0.89004
 H506 H 0.34343 0.81372 0.93205
 H507 H 0.42973 0.82373 0.86633
 H508 H 0.43394 0.80238 0.91645
 C509 C 0.57251 0.42879 0.86813
 C510 C 0.61882 0.45314 0.88132
 C511 C 0.63475 0.43645 0.91037
 C512 C 0.60453 0.39623 0.92874
 H513 H 0.64786 0.48769 0.87038
 H514 H 0.67431 0.45899 0.91657
 H515 H 0.54262 0.39545 0.87964
 H516 H 0.56478 0.37335 0.92354
 C517 C 0.85288 0.42018 0.86693
 C518 C 0.84202 0.38011 0.88549
 C519 C 0.80796 0.36416 0.91386
 C520 C 0.79768 0.39487 0.93083
 H521 H 0.85534 0.35521 0.87855
 H522 H 0.79153 0.32522 0.92130
 H523 H 0.83553 0.44213 0.87231
 H524 H 0.81573 0.43445 0.92476
 C525 C 0.57676 0.14539 0.86948
 C526 C 0.60731 0.14554 0.89284
 C527 C 0.62366 0.17963 0.92138
 C528 C 0.59877 0.20157 0.93256
 H529 H 0.62383 0.12224 0.89063
 H530 H 0.65750 0.18628 0.93374
 H531 H 0.56361 0.17168 0.87121
 H532 H 0.56378 0.19369 0.92138
   
