data_POSCAR
  _audit_creation_date              2014-09-24
  _audit_creation_method            'ToBaCCo'
  _symmetry_space_group_name_H-M    'P1'
  _symmetry_Int_Tables_number       1
  _symmetry_cell_setting            triclinic
  loop_
  _symmetry_equiv_pos_as_xyz
 x,y,z
_cell_length_a 49.9903
_cell_length_b 29.3896
_cell_length_c 15.2127
_cell_angle_alpha 90.004700
_cell_angle_beta 89.996300
_cell_angle_gamma 89.997800
loop_
  _atom_site_label
  _atom_site_type_symbol
  _atom_site_fract_x
  _atom_site_fract_y
  _atom_site_fract_z
C1 C 0.72809 0.26473 0.54791
 C2 C 0.72821 0.26490 0.45516
 C3 C 0.74949 0.24492 0.40936
 C4 C 0.77073 0.22476 0.45510
 C5 C 0.77061 0.22453 0.54801
 C6 C 0.74929 0.24450 0.59380
 H7 H 0.74924 0.24442 0.66518
 H8 H 0.74950 0.24521 0.33801
 C9 C 0.22822 0.76470 0.54847
 C10 C 0.22807 0.76483 0.45585
 C11 C 0.24919 0.74468 0.40960
 C12 C 0.27048 0.72450 0.45500
 C13 C 0.27068 0.72445 0.54774
 C14 C 0.24950 0.74453 0.59398
 H15 H 0.24957 0.74461 0.66533
 H16 H 0.24909 0.74480 0.33830
 C17 C 0.26956 0.27479 -0.54719
 C18 C 0.26962 0.27440 -0.45464
 C19 C 0.24842 0.25431 -0.40874
 C20 C 0.22707 0.23440 -0.45449
 C21 C 0.22702 0.23475 -0.54746
 C22 C 0.24827 0.25500 -0.59315
 H23 H 0.24833 0.25527 -0.66450
 H24 H 0.24860 0.25410 -0.33740
 C25 C -0.23046 0.77469 -0.54732
 C26 C -0.23049 0.77476 -0.45478
 C27 C -0.25168 0.75460 -0.40896
 C28 C -0.27289 0.73429 -0.45481
 C29 C -0.27287 0.73426 -0.54777
 C30 C -0.25161 0.75452 -0.59338
 H31 H -0.25145 0.75453 -0.66472
 H32 H -0.25160 0.75466 -0.33761
 O33 O -0.03695 0.92183 0.16189
 O34 O -0.06641 0.96259 0.07694
 C35 C -0.06090 0.93353 0.13823
 O36 O 0.03805 1.08400 0.15284
 O37 O 0.06763 1.04032 0.07364
 C38 C 0.06204 1.07191 0.13008
 O39 O -0.03702 1.08033 0.16104
 O40 O -0.06645 1.03916 0.07670
 C41 C -0.06098 1.06846 0.13762
 O42 O 0.03781 0.91744 0.15372
 O43 O 0.06732 0.96130 0.07489
 C44 C 0.06179 0.92964 0.13125
 Zr45 Zr 0.00047 0.94341 0.11106
 O46 O 0.00307 0.94151 0.24990
 O47 O -0.00078 0.87168 0.10178
 Zr48 Zr 0.00044 1.05834 0.11111
 O49 O 0.00340 1.05815 0.24997
 O50 O -0.00254 1.13021 0.11049
 O51 O -0.02345 1.00087 0.12831
 O52 O 0.02370 1.00091 0.12738
 O53 O 0.03788 0.91674 -0.15149
 O54 O 0.06732 0.96102 -0.07320
 C55 C 0.06182 0.92908 -0.12900
 O56 O -0.03694 1.08004 -0.16111
 O57 O -0.06640 1.03904 -0.07659
 C58 C -0.06089 1.06822 -0.13765
 O59 O 0.03787 1.08420 -0.15316
 O60 O 0.06736 1.04068 -0.07360
 C61 C 0.06184 1.07219 -0.13026
 O62 O -0.03689 0.92106 -0.16037
 O63 O -0.06639 0.96243 -0.07661
 C64 C -0.06087 0.93303 -0.13732
 Zr65 Zr 0.00053 0.94329 -0.11046
 O66 O 0.00360 0.94402 -0.24930
 O67 O -0.00191 0.87141 -0.10974
 Zr68 Zr 0.00048 1.05815 -0.11088
 O69 O 0.00353 1.05737 -0.24971
 O70 O -0.00255 1.13000 -0.11083
 Zr71 Zr -0.03957 1.00081 0.00016
 Zr72 Zr 0.04046 1.00099 0.00050
 O73 O 0.02383 1.00073 -0.12661
 O74 O -0.02343 1.00067 -0.12799
 O75 O 0.02446 0.93468 0.00054
 O76 O -0.02283 1.06654 0.00004
 O77 O -0.02289 0.93506 0.00035
 O78 O 0.02434 1.06730 0.00018
 H79 H 0.03569 1.00089 0.17926
 H80 H -0.03486 1.09334 -0.00005
 H81 H 0.03594 1.00063 -0.17818
 H82 H -0.03493 0.90828 0.00044
 H83 H 0.01260 1.14212 0.07552
 H84 H 0.01226 1.14195 -0.07443
 H85 H -0.01161 1.03926 -0.27263
 H86 H -0.01175 0.96159 -0.27232
 H87 H 0.01044 0.86037 -0.06359
 H88 H -0.00084 0.86016 0.16299
 H89 H -0.01050 0.96285 0.27307
 H90 H -0.01175 1.04011 0.27303
 O91 O 0.46353 0.42038 0.15929
 O92 O 0.43407 0.46116 0.07446
 C93 C 0.43957 0.43211 0.13580
 O94 O 0.53836 0.58285 0.15108
 O95 O 0.56780 0.53922 0.07165
 C96 C 0.56231 0.57078 0.12823
 O97 O 0.46355 0.57876 0.15871
 O98 O 0.43407 0.53767 0.07438
 C99 C 0.43959 0.56689 0.13538
 O100 O 0.53829 0.41590 0.15042
 O101 O 0.56778 0.45972 0.07141
 C102 C 0.56225 0.42808 0.12777
 Zr103 Zr 0.50095 0.44192 0.10812
 O104 O 0.50364 0.43982 0.24692
 O105 O 0.49965 0.37021 0.09842
 Zr106 Zr 0.50098 0.55690 0.10856
 O107 O 0.50401 0.55642 0.24739
 O108 O 0.49797 0.62877 0.10777
 O109 O 0.47708 0.49942 0.12567
 O110 O 0.52424 0.49939 0.12441
 O111 O 0.53863 0.41596 -0.15405
 O112 O 0.56817 0.46027 -0.07585
 C113 C 0.56263 0.42836 -0.13175
 O114 O 0.46344 0.57888 -0.16340
 O115 O 0.43402 0.53783 -0.07887
 C116 C 0.43949 0.56709 -0.13985
 O117 O 0.53824 0.58292 -0.15577
 O118 O 0.56776 0.53931 -0.07655
 C119 C 0.56221 0.57089 -0.13299
 O120 O 0.46356 0.41985 -0.16317
 O121 O 0.43408 0.46119 -0.07921
 C122 C 0.43960 0.43181 -0.13995
 Zr123 Zr 0.50098 0.44198 -0.11331
 O124 O 0.50397 0.44236 -0.25215
 O125 O 0.49858 0.37009 -0.11274
 Zr126 Zr 0.50088 0.55683 -0.11348
 O127 O 0.50386 0.55610 -0.25233
 O128 O 0.49787 0.62869 -0.11336
 Zr129 Zr 0.46090 0.49944 -0.00240
 Zr130 Zr 0.54092 0.49951 -0.00257
 O131 O 0.52422 0.49942 -0.12957
 O132 O 0.47699 0.49938 -0.13061
 O133 O 0.52491 0.43321 -0.00252
 O134 O 0.47765 0.56517 -0.00238
 O135 O 0.47756 0.43369 -0.00248
 O136 O 0.52484 0.56585 -0.00254
 H137 H 0.53624 0.49930 0.17624
 H138 H 0.46562 0.59197 -0.00235
 H139 H 0.53630 0.49936 -0.18121
 H140 H 0.46550 0.40692 -0.00237
 H141 H 0.51308 0.64068 0.07264
 H142 H 0.51270 0.64063 -0.07706
 H143 H 0.48861 0.53820 -0.27519
 H144 H 0.48886 0.46054 -0.27511
 H145 H 0.51117 0.35901 -0.06736
 H146 H 0.49963 0.35859 0.15957
 H147 H 0.49019 0.46130 0.27028
 H148 H 0.48879 0.53853 0.27044
 C149 C 0.33361 0.33411 0.32760
 C150 C 0.34005 0.31567 0.23566
 C151 C 0.36184 0.33557 0.19797
 C152 C 0.37506 0.37196 0.25593
 C153 C 0.38129 0.34778 0.34298
 C154 C 0.35950 0.32787 0.38066
 C155 C 0.33077 0.38575 0.31568
 C156 C 0.35256 0.40566 0.27796
 C157 C 0.31025 0.31268 0.36865
 C158 C 0.29142 0.29524 0.40493
 C159 C 0.39845 0.39335 0.21480
 C160 C 0.41742 0.41098 0.17962
 H161 H 0.32851 0.28934 0.20299
 H162 H 0.36896 0.32626 0.13299
 H163 H 0.40103 0.34654 0.37258
 H164 H 0.36058 0.30960 0.44261
 H165 H 0.31323 0.40500 0.33531
 H166 H 0.35368 0.44196 0.26528
 C167 C -0.16656 0.83428 0.32807
 C168 C -0.17286 0.85888 0.24158
 C169 C -0.15112 0.87907 0.20427
 C170 C -0.12522 0.87268 0.25716
 C171 C -0.12226 0.82102 0.26822
 C172 C -0.14400 0.80082 0.30556
 C173 C -0.15342 0.87045 0.38680
 C174 C -0.13168 0.89065 0.34949
 C175 C -0.18985 0.81263 0.36872
 C176 C -0.20864 0.79511 0.40485
 C177 C -0.10192 0.89438 0.21650
 C178 C -0.08301 0.91224 0.18167
 H179 H -0.19264 0.86030 0.21223
 H180 H -0.15227 0.89783 0.14290
 H181 H -0.10463 0.80199 0.24860
 H182 H -0.14500 0.76448 0.31795
 H183 H -0.16056 0.87937 0.45198
 H184 H -0.12018 0.91685 0.38268
 C185 C 0.66579 0.67438 0.32386
 C186 C 0.67336 0.64969 0.23851
 C187 C 0.65227 0.62888 0.19840
 C188 C 0.62567 0.63480 0.24760
 C189 C 0.62218 0.68644 0.25775
 C190 C 0.64327 0.70724 0.29787
 C191 C 0.65220 0.63806 0.38104
 C192 C 0.63112 0.61727 0.34096
 C193 C 0.68842 0.69663 0.36763
 C194 C 0.70675 0.71451 0.40585
 C195 C 0.60298 0.61229 0.20456
 C196 C 0.58437 0.59352 0.16952
 H197 H 0.69351 0.64866 0.21190
 H198 H 0.65435 0.61002 0.13741
 H199 H 0.60468 0.70501 0.23546
 H200 H 0.64383 0.74364 0.30996
 H201 H 0.65857 0.62945 0.44722
 H202 H 0.61943 0.59086 0.37282
 C203 C 0.16553 1.17544 0.32468
 C204 C 0.17306 1.15031 0.23979
 C205 C 0.15192 1.12955 0.19995
 C206 C 0.12534 1.13598 0.24896
 C207 C 0.12201 1.18768 0.25821
 C208 C 0.14315 1.20844 0.29808
 C209 C 0.15179 1.13953 0.38243
 C210 C 0.13066 1.11878 0.34261
 C211 C 0.18820 1.19758 0.36815
 C212 C 0.20658 1.21529 0.40623
 C213 C 0.10262 1.11352 0.20620
 C214 C 0.08403 1.09473 0.17130
 H215 H 0.19321 1.14896 0.21328
 H216 H 0.15395 1.11041 0.13927
 H217 H 0.10458 1.20633 0.23554
 H218 H 0.14384 1.24488 0.30959
 H219 H 0.15811 1.13115 0.44879
 H220 H 0.11885 1.09265 0.37486
 C221 C 0.66640 0.32448 -0.32541
 C222 C 0.64602 0.29109 -0.28620
 C223 C 0.62483 0.31191 -0.24659
 C224 C 0.62611 0.36408 -0.25012
 C225 C 0.62892 0.37566 -0.34809
 C226 C 0.65009 0.35485 -0.38766
 C227 C 0.67442 0.35565 -0.24887
 C228 C 0.65324 0.37646 -0.20928
 C229 C 0.68913 0.30222 -0.36862
 C230 C 0.70757 0.28438 -0.40635
 C231 C 0.60333 0.38662 -0.20755
 C232 C 0.58469 0.40547 -0.17281
 H233 H 0.64804 0.25435 -0.28928
 H234 H 0.60871 0.29300 -0.21575
 H235 H 0.61547 0.39822 -0.38330
 H236 H 0.65479 0.35964 -0.45674
 H237 H 0.69492 0.36088 -0.22760
 H238 H 0.65560 0.39954 -0.15409
 C239 C 0.16556 0.82540 -0.32188
 C240 C 0.14510 0.79195 -0.28340
 C241 C 0.12391 0.81271 -0.24380
 C242 C 0.12528 0.86487 -0.24666
 C243 C 0.12821 0.87680 -0.34441
 C244 C 0.14939 0.85605 -0.38397
 C245 C 0.17356 0.85626 -0.24485
 C246 C 0.15237 0.87702 -0.20527
 C247 C 0.18827 0.80323 -0.36506
 C248 C 0.20667 0.78542 -0.40284
 C249 C 0.10251 0.88734 -0.20424
 C250 C 0.08387 0.90617 -0.16970
 H251 H 0.14708 0.75521 -0.28693
 H252 H 0.10772 0.79377 -0.21340
 H253 H 0.11484 0.89956 -0.37948
 H254 H 0.15419 0.86107 -0.45292
 H255 H 0.19404 0.86133 -0.22328
 H256 H 0.15470 0.89990 -0.14976
 C257 C 0.33362 0.66620 -0.32999
 C258 C 0.32885 0.65062 -0.23503
 C259 C 0.35061 0.63052 -0.19756
 C260 C 0.37501 0.62797 -0.25873
 C261 C 0.38001 0.67722 -0.28805
 C262 C 0.35825 0.69731 -0.32555
 C263 C 0.34321 0.62348 -0.37888
 C264 C 0.36497 0.60338 -0.34141
 C265 C 0.31027 0.68775 -0.37087
 C266 C 0.29144 0.70517 -0.40716
 C267 C 0.39837 0.60633 -0.21792
 C268 C 0.41732 0.58848 -0.18311
 H269 H 0.31006 0.65500 -0.20026
 H270 H 0.35045 0.61769 -0.13063
 H271 H 0.39899 0.69472 -0.28027
 H272 H 0.35859 0.73202 -0.34994
 H273 H 0.33382 0.61034 -0.43805
 H274 H 0.37419 0.57298 -0.36836
 C275 C -0.16676 1.16642 -0.32836
 C276 C -0.14084 1.17312 -0.38101
 C277 C -0.11905 1.15318 -0.34346
 C278 C -0.12534 1.12852 -0.25698
 C279 C -0.14771 1.09477 -0.27990
 C280 C -0.16950 1.11471 -0.31749
 C281 C -0.16049 1.18445 -0.23601
 C282 C -0.13870 1.16452 -0.19845
 C283 C -0.19007 1.18784 -0.36937
 C284 C -0.20880 1.20524 -0.40608
 C285 C -0.10198 1.10711 -0.21609
 C286 C -0.08302 1.08944 -0.18115
 H287 H -0.13973 1.19171 -0.44260
 H288 H -0.09927 1.15471 -0.37278
 H289 H -0.14652 1.05840 -0.26790
 H290 H -0.18698 1.09544 -0.33770
 H291 H -0.17213 1.21054 -0.20300
 H292 H -0.13167 1.17354 -0.13321
 C293 C 0.66573 0.67446 -0.32731
 C294 C 0.65945 0.69342 -0.23560
 C295 C 0.63830 0.67263 -0.19582
 C296 C 0.62553 0.63495 -0.25171
 C297 C 0.64856 0.60237 -0.27398
 C298 C 0.66970 0.62315 -0.31377
 C299 C 0.63945 0.67869 -0.37893
 C300 C 0.61831 0.65791 -0.33917
 C301 C 0.68839 0.69667 -0.37068
 C302 C 0.70673 0.71455 -0.40864
 C303 C 0.60281 0.61248 -0.20902
 C304 C 0.58421 0.59369 -0.17416
 H305 H 0.67064 0.72073 -0.20464
 H306 H 0.63136 0.68213 -0.13073
 H307 H 0.64827 0.56616 -0.25988
 H308 H 0.68752 0.60475 -0.33377
 H309 H 0.63764 0.69634 -0.44136
 H310 H 0.59838 0.65777 -0.36749
 C311 C 0.16556 1.17492 -0.32628
 C312 C 0.15967 1.19359 -0.23406
 C313 C 0.13851 1.17301 -0.19388
 C314 C 0.12531 1.13579 -0.24989
 C315 C 0.14808 1.10291 -0.27343
 C316 C 0.16924 1.12348 -0.31361
 C317 C 0.13915 1.17982 -0.37693
 C318 C 0.11800 1.15925 -0.33678
 C319 C 0.18826 1.19695 -0.37008
 C320 C 0.20664 1.21472 -0.40825
 C321 C 0.10254 1.11352 -0.20677
 C322 C 0.08390 1.09488 -0.17166
 H323 H 0.17113 1.22055 -0.20301
 H324 H 0.13183 1.18235 -0.12840
 H325 H 0.14762 1.06666 -0.25984
 H326 H 0.18688 1.10485 -0.33445
 H327 H 0.13726 1.19774 -0.43904
 H328 H 0.09798 1.15957 -0.36448
 C329 C 0.33375 0.33313 -0.32973
 C330 C 0.35665 0.29977 -0.31077
 C331 C 0.37846 0.31977 -0.27340
 C332 C 0.37519 0.37114 -0.25875
 C333 C 0.34955 0.37605 -0.20397
 C334 C 0.32775 0.35606 -0.24132
 C335 C 0.34631 0.37058 -0.38680
 C336 C 0.36811 0.39057 -0.34946
 C337 C 0.31038 0.31173 -0.37045
 C338 C 0.29153 0.29447 -0.40668
 C339 C 0.39855 0.39266 -0.21808
 C340 C 0.41749 0.41046 -0.18328
 H341 H 0.35584 0.26366 -0.32551
 H342 H 0.39633 0.30078 -0.25611
 H343 H 0.34861 0.39369 -0.14133
 H344 H 0.30813 0.35655 -0.21073
 H345 H 0.33876 0.38045 -0.45097
 H346 H 0.37925 0.41756 -0.38159
 C347 C -0.16660 0.83439 -0.32918
 C348 C -0.14051 0.82694 -0.38053
 C349 C -0.11878 0.84696 -0.34273
 C350 C -0.12526 0.87246 -0.25730
 C351 C -0.13900 0.83713 -0.19820
 C352 C -0.16073 0.81711 -0.23599
 C353 C -0.16916 0.88622 -0.32006
 C354 C -0.14743 0.90625 -0.28223
 C355 C -0.18991 0.81283 -0.37035
 C356 C -0.20868 0.79530 -0.40675
 C357 C -0.10193 0.89398 -0.21608
 C358 C -0.08300 0.91172 -0.18093
 H359 H -0.13925 0.80784 -0.44150
 H360 H -0.09890 0.84497 -0.37125
 H361 H -0.13225 0.82860 -0.13239
 H362 H -0.17260 0.79146 -0.20260
 H363 H -0.18648 0.90552 -0.34161
 H364 H -0.14613 0.94270 -0.27139
 C365 C 0.33405 0.66519 0.32785
 C366 C 0.34314 0.68870 0.24293
 C367 C 0.36484 0.66871 0.20494
 C368 C 0.37531 0.62719 0.25565
 C369 C 0.35112 0.59530 0.26427
 C370 C 0.32942 0.61529 0.30228
 C371 C 0.35890 0.66453 0.38718
 C372 C 0.38061 0.64454 0.34919
 C373 C 0.31083 0.68667 0.36929
 C374 C 0.29214 0.70412 0.40615
 C375 C 0.39858 0.60574 0.21431
 C376 C 0.41749 0.58806 0.17907
 H377 H 0.33340 0.71839 0.21508
 H378 H 0.37371 0.68129 0.14449
 H379 H 0.35107 0.56009 0.24265
 H380 H 0.31077 0.59723 0.31321
 H381 H 0.35940 0.67848 0.45327
 H382 H 0.39969 0.64132 0.38270
 C383 C -0.16659 1.16701 0.33041
 C384 C -0.17287 1.14394 0.24234
 C385 C -0.15118 1.12397 0.20417
 C386 C -0.12533 1.12904 0.25783
 C387 C -0.13206 1.10972 0.34893
 C388 C -0.15375 1.12968 0.38709
 C389 C -0.14378 1.20041 0.31032
 C390 C -0.12209 1.18045 0.27212
 C391 C -0.18984 1.18842 0.37209
 C392 C -0.20859 1.20568 0.40911
 C393 C -0.10204 1.10753 0.21633
 C394 C -0.08313 1.08976 0.18113
 H395 H -0.19260 1.14333 0.21257
 H396 H -0.15234 1.10625 0.14166
 H397 H -0.12077 1.08279 0.38073
 H398 H -0.16104 1.11985 0.45160
 H399 H -0.14459 1.23655 0.32490
 H400 H -0.10432 1.19949 0.25399
 C401 C 0.66570 0.32544 0.32427
 C402 C 0.66273 0.31251 0.22702
 C403 C 0.64161 0.33309 0.18665
 C404 C 0.62556 0.36455 0.24756
 C405 C 0.64615 0.39817 0.28481
 C406 C 0.66725 0.37760 0.32519
 C407 C 0.63858 0.31405 0.36619
 C408 C 0.61747 0.33462 0.32584
 C409 C 0.68833 0.30343 0.36818
 C410 C 0.70667 0.28567 0.40630
 C411 C 0.60287 0.38679 0.20430
 C412 C 0.58427 0.40542 0.16913
 H413 H 0.67604 0.28928 0.19287
 H414 H 0.63683 0.32750 0.11787
 H415 H 0.64428 0.43489 0.28008
 H416 H 0.68346 0.39669 0.35510
 H417 H 0.63618 0.29198 0.42288
 H418 H 0.59698 0.33012 0.34787
 C419 C 0.16530 0.82612 0.32691
 C420 C 0.16198 0.81298 0.22987
 C421 C 0.14086 0.83379 0.18990
 C422 C 0.12514 0.86570 0.25089
 C423 C 0.14602 0.89906 0.28723
 C424 C 0.16713 0.87826 0.32721
 C425 C 0.13822 0.81529 0.36970
 C426 C 0.11711 0.83609 0.32974
 C427 C 0.18798 0.80382 0.37036
 C428 C 0.20640 0.78583 0.40788
 C429 C 0.10243 0.88819 0.20788
 C430 C 0.08382 0.90693 0.17275
 H431 H 0.17506 0.78944 0.19557
 H432 H 0.13586 0.82807 0.12133
 H433 H 0.14435 0.93580 0.28219
 H434 H 0.18352 0.89717 0.35646
 H435 H 0.13586 0.79340 0.42667
 H436 H 0.09666 0.83197 0.35241
   
