data_POSCAR
  _audit_creation_date              2014-09-24
  _audit_creation_method            'ToBaCCo'
  _symmetry_space_group_name_H-M    'P1'
  _symmetry_Int_Tables_number       1
  _symmetry_cell_setting            triclinic
  loop_
  _symmetry_equiv_pos_as_xyz
 x,y,z
_cell_length_a 31.8586
_cell_length_b 30.4063
_cell_length_c 15.1396
_cell_angle_alpha 89.756300
_cell_angle_beta 90.294700
_cell_angle_gamma 125.683500
loop_
  _atom_site_label
  _atom_site_type_symbol
  _atom_site_fract_x
  _atom_site_fract_y
  _atom_site_fract_z
C1 C 0.48342 0.89287 0.58312
 C2 C 0.47685 0.86706 0.50241
 C3 C 0.48183 0.89209 0.42174
 C4 C 0.49771 0.94622 0.41977
 C5 C 0.50718 0.97441 0.50009
 C6 C 0.49976 0.94767 0.58191
 C7 C 0.51055 0.97717 0.66014
 C8 C 0.52297 1.02900 0.65893
 C9 C 0.53129 1.05693 0.57917
 C10 C 0.52304 1.02910 0.49865
 C11 C 0.50337 0.97244 0.33960
 C12 C 0.51849 1.02560 0.33811
 C13 C 0.52935 1.05520 0.41674
 C14 C 0.54325 1.10899 0.41551
 C15 C 0.54839 1.13457 0.49588
 C16 C 0.54471 1.11061 0.57774
 H17 H 0.50949 0.96086 0.72418
 H18 H 0.52490 1.04594 0.72247
 H19 H 0.49583 0.95186 0.27707
 H20 H 0.52034 1.04277 0.27430
 H21 H 0.46264 0.82479 0.50178
 H22 H 0.56176 1.17641 0.49506
 C23 C 0.10603 0.54501 0.58379
 C24 C 0.13382 0.55699 0.50587
 C25 C 0.11091 0.55061 0.42346
 C26 C 0.05844 0.53171 0.41859
 C27 C 0.02939 0.51814 0.49739
 C28 C 0.05331 0.52448 0.58026
 C29 C 0.02408 0.51044 0.65770
 C30 C -0.02752 0.49119 0.65411
 C31 C -0.05176 0.48614 0.57304
 C32 C -0.02341 0.49889 0.49361
 C33 C 0.03430 0.52618 0.33751
 C34 C -0.01699 0.50859 0.33384
 C35 C -0.04746 0.49297 0.41075
 C36 C -0.10015 0.47486 0.40818
 C37 C -0.12678 0.46386 0.48835
 C38 C -0.10378 0.46820 0.56964
 H39 H 0.04084 0.51402 0.72199
 H40 H -0.04802 0.48064 0.71608
 H41 H 0.05505 0.53618 0.27586
 H42 H -0.03173 0.50871 0.26961
 H43 H 0.17442 0.57301 0.50959
 H44 H -0.16718 0.44872 0.48774
 C45 C 0.56582 0.47187 0.40243
 C46 C 0.58420 0.46214 0.47858
 C47 C 0.56507 0.46075 0.56283
 C48 C 0.52996 0.47519 0.57113
 C49 C 0.51212 0.48670 0.49436
 C50 C 0.52982 0.48461 0.40978
 C51 C 0.51199 0.49650 0.33464
 C52 C 0.47654 0.50893 0.34202
 C53 C 0.45790 0.51052 0.42490
 C54 C 0.47651 0.50046 0.50206
 C55 C 0.51429 0.48135 0.65411
 C56 C 0.47865 0.49346 0.66162
 C57 C 0.45978 0.50436 0.58674
 C58 C 0.42308 0.51677 0.59352
 C59 C 0.40378 0.52414 0.51567
 C60 C 0.42164 0.52273 0.43265
 H61 H 0.52564 0.49681 0.26920
 H62 H 0.46395 0.51745 0.28189
 H63 H 0.52978 0.47756 0.71495
 H64 H 0.46588 0.49345 0.72749
 H65 H 0.61030 0.45046 0.47074
 H66 H 0.37706 0.53525 0.51943
 O67 O 0.40166 0.62573 -0.06615
 O68 O 0.41764 0.71854 -0.10340
 C69 C 0.40243 0.74804 -0.12014
 O70 O 0.36771 0.74610 -0.07504
 O71 O 0.27415 0.65952 -0.10351
 C72 C 0.24195 0.60913 -0.11663
 O73 O 0.24130 0.57347 -0.07092
 O74 O 0.31810 0.56658 -0.09815
 C75 C 0.36526 0.58650 -0.11133
 O76 O 0.40242 0.64688 0.10714
 O77 O 0.42445 0.74188 0.07056
 C78 C 0.39685 0.75049 0.11723
 O79 O 0.34967 0.72887 0.10041
 O80 O 0.25539 0.64603 0.07126
 C81 C 0.24314 0.60596 0.11978
 O82 O 0.25859 0.57661 0.10475
 O83 O 0.33185 0.56435 0.07774
 C84 C 0.37113 0.59704 0.12542
 Cr85 Cr 0.40901 0.68205 0.00179
 Cr86 Cr 0.31270 0.69369 -0.00186
 Cr87 Cr 0.28908 0.57292 0.00310
 O88 O 0.33683 0.64950 0.00020
 O89 O 0.59500 0.36280 -0.08205
 O90 O 0.58762 0.27388 -0.10365
 C91 C 0.60828 0.24963 -0.11947
 O92 O 0.64502 0.25640 -0.07307
 O93 O 0.73318 0.34672 -0.10715
 C94 C 0.76159 0.39653 -0.12627
 O95 O 0.76032 0.43156 -0.08340
 O96 O 0.67703 0.42610 -0.11780
 C97 C 0.62897 0.39959 -0.13348
 O98 O 0.59721 0.35201 0.09409
 O99 O 0.58517 0.25968 0.07412
 C100 C 0.61507 0.25232 0.11725
 O101 O 0.66285 0.27782 0.10073
 O102 O 0.75399 0.36754 0.06776
 C103 C 0.76449 0.40921 0.10951
 O104 O 0.74408 0.43357 0.09068
 O105 O 0.66454 0.43510 0.05708
 C106 C 0.62490 0.40293 0.10408
 Cr107 Cr 0.59392 0.31338 -0.00419
 Cr108 Cr 0.69773 0.31367 -0.00283
 Cr109 Cr 0.70985 0.42883 -0.01304
 O110 O 0.66713 0.35188 -0.00544
 C111 C 0.43885 0.86319 -0.27393
 C112 C 0.46936 0.86168 -0.33854
 C113 C 0.48181 0.82442 -0.32472
 C114 C 0.46175 0.78865 -0.25198
 C115 C 0.42739 0.78798 -0.19255
 C116 C 0.41866 0.82772 -0.20313
 C117 C 0.36919 0.82279 -0.20606
 C118 C 0.39149 0.86188 -0.28368
 H119 H 0.50646 0.82230 -0.37082
 H120 H 0.47124 0.75992 -0.24487
 H121 H 0.36384 0.84004 -0.14620
 H122 H 0.33545 0.78138 -0.22425
 H123 H 0.39906 0.90165 -0.26838
 H124 H 0.37076 0.84322 -0.34695
 C125 C 0.13967 0.52168 -0.28809
 C126 C 0.13443 0.55870 -0.33206
 C127 C 0.15876 0.61069 -0.29565
 C128 C 0.19257 0.62680 -0.22325
 C129 C 0.20240 0.59100 -0.18596
 C130 C 0.17278 0.53743 -0.21630
 C131 C 0.18951 0.50288 -0.24464
 C132 C 0.15314 0.48562 -0.32317
 H133 H 0.15399 0.63975 -0.32639
 H134 H 0.21274 0.66794 -0.19934
 H135 H 0.17717 0.46939 -0.19727
 H136 H 0.23098 0.52708 -0.26358
 H137 H 0.11978 0.44224 -0.32084
 H138 H 0.17351 0.49970 -0.38766
 C139 C 0.44250 0.55859 -0.25947
 C140 C 0.40690 0.52504 -0.32529
 C141 C 0.35475 0.50534 -0.31136
 C142 C 0.34057 0.52297 -0.23909
 C143 C 0.37834 0.56205 -0.18006
 C144 C 0.42869 0.57666 -0.18907
 C145 C 0.47921 0.63128 -0.19049
 C146 C 0.49437 0.61140 -0.26752
 H147 H 0.32510 0.47776 -0.35825
 H148 H 0.30058 0.50850 -0.23293
 H149 H 0.50241 0.63906 -0.12986
 H150 H 0.47511 0.66404 -0.20902
 H151 H 0.52622 0.60767 -0.25113
 H152 H 0.49908 0.63261 -0.33071
 C153 C 0.58884 0.14392 -0.27875
 C154 C 0.55670 0.14187 -0.34472
 C155 C 0.53799 0.17361 -0.33102
 C156 C 0.55283 0.20697 -0.25586
 C157 C 0.58812 0.21093 -0.19374
 C158 C 0.60388 0.17703 -0.20551
 C159 C 0.65677 0.18964 -0.20580
 C160 C 0.64005 0.15307 -0.28609
 H161 H 0.51199 0.17281 -0.37847
 H162 H 0.53845 0.23143 -0.24870
 H163 H 0.66399 0.17327 -0.14645
 H164 H 0.68743 0.23293 -0.22058
 H165 H 0.63745 0.11557 -0.27285
 H166 H 0.66096 0.17510 -0.34748
 C167 C 0.87121 0.48615 -0.28527
 C168 C 0.86373 0.44973 -0.35033
 C169 C 0.82677 0.39415 -0.33436
 C170 C 0.79460 0.37657 -0.25964
 C171 C 0.79857 0.41437 -0.19973
 C172 C 0.83950 0.46896 -0.21181
 C173 C 0.84085 0.51887 -0.21138
 C174 C 0.87533 0.53742 -0.29252
 H175 H 0.82168 0.36450 -0.38109
 H176 H 0.76510 0.33363 -0.25134
 H177 H 0.86116 0.54432 -0.15222
 H178 H 0.80250 0.51036 -0.22484
 H179 H 0.91535 0.57365 -0.28007
 H180 H 0.85675 0.53920 -0.35350
 C181 C 0.62947 0.45541 -0.35801
 C182 C 0.57917 0.44149 -0.36581
 C183 C 0.54271 0.40378 -0.30341
 C184 C 0.55858 0.38914 -0.22871
 C185 C 0.61126 0.41131 -0.21486
 C186 C 0.64519 0.44131 -0.28428
 C187 C 0.69763 0.49368 -0.28474
 C188 C 0.68036 0.50932 -0.36541
 H189 H 0.50204 0.38649 -0.31103
 H190 H 0.52984 0.36225 -0.18030
 H191 H 0.72810 0.48785 -0.30024
 H192 H 0.70511 0.51897 -0.22571
 H193 H 0.70126 0.51286 -0.42662
 H194 H 0.67747 0.54351 -0.35318
 C195 C 0.87346 0.43687 0.25817
 C196 C 0.87228 0.46589 0.32873
 C197 C 0.83869 0.48188 0.31973
 C198 C 0.80539 0.46569 0.24634
 C199 C 0.80324 0.43131 0.18138
 C200 C 0.83981 0.41984 0.18694
 C201 C 0.83348 0.36728 0.18070
 C202 C 0.87050 0.38604 0.25859
 H203 H 0.83728 0.50599 0.37050
 H204 H 0.77920 0.47744 0.24344
 H205 H 0.84967 0.36390 0.11834
 H206 H 0.79356 0.33186 0.19641
 H207 H 0.90802 0.39359 0.24096
 H208 H 0.85209 0.36151 0.31938
 C209 C 0.53272 0.16357 0.30831
 C210 C 0.55689 0.13938 0.33668
 C211 C 0.59663 0.14719 0.28192
 C212 C 0.61504 0.18319 0.20942
 C213 C 0.59296 0.21083 0.18762
 C214 C 0.54885 0.19629 0.23424
 C215 C 0.53142 0.22864 0.27031
 C216 C 0.51332 0.19246 0.35202
 H217 H 0.61608 0.12862 0.29887
 H218 H 0.64763 0.19073 0.17237
 H219 H 0.49906 0.22313 0.23115
 H220 H 0.56424 0.27136 0.28361
 H221 H 0.47061 0.16622 0.35950
 H222 H 0.53533 0.21561 0.41180
 C223 C 0.54379 0.41966 0.26212
 C224 C 0.58078 0.46234 0.31600
 C225 C 0.63289 0.49162 0.28963
 C226 C 0.64724 0.47418 0.21692
 C227 C 0.60985 0.42623 0.17132
 C228 C 0.55789 0.40189 0.19195
 C229 C 0.51435 0.34411 0.20835
 C230 C 0.49890 0.36378 0.28538
 H231 H 0.66265 0.52581 0.32833
 H232 H 0.68782 0.49570 0.20098
 H233 H 0.52788 0.31935 0.22946
 H234 H 0.48566 0.32676 0.15355
 H235 H 0.50348 0.35030 0.35087
 H236 H 0.46143 0.35801 0.27477
 C237 C 0.16819 0.53981 0.32964
 C238 C 0.14418 0.56548 0.34515
 C239 C 0.15868 0.61041 0.29202
 C240 C 0.19133 0.62425 0.21869
 C241 C 0.21022 0.59351 0.19767
 C242 C 0.20005 0.55317 0.25746
 C243 C 0.18002 0.49555 0.24198
 C244 C 0.14508 0.48096 0.32136
 H245 H 0.14383 0.63386 0.30602
 H246 H 0.20057 0.65797 0.17744
 H247 H 0.21020 0.48856 0.25331
 H248 H 0.15853 0.47950 0.17853
 H249 H 0.15520 0.46566 0.37842
 H250 H 0.10329 0.45644 0.30411
 C251 C 0.40907 0.82444 0.32619
 C252 C 0.46211 0.85711 0.34287
 C253 C 0.49380 0.84942 0.29069
 C254 C 0.47291 0.81431 0.21708
 C255 C 0.42000 0.78638 0.19499
 C256 C 0.38864 0.79033 0.25394
 C257 C 0.34948 0.80162 0.23771
 C258 C 0.37197 0.83909 0.31730
 H259 H 0.53461 0.87139 0.30555
 H260 H 0.49833 0.81026 0.17643
 H261 H 0.30938 0.76517 0.24854
 H262 H 0.35583 0.82324 0.17428
 H263 H 0.34486 0.82416 0.37397
 H264 H 0.39123 0.88242 0.30007
 C265 C 0.42622 0.59450 0.34497
 C266 C 0.40518 0.53981 0.35675
 C267 C 0.36632 0.50226 0.29778
 C268 C 0.35388 0.52046 0.22295
 C269 C 0.38059 0.57647 0.20590
 C270 C 0.41459 0.61243 0.27111
 C271 C 0.46861 0.66243 0.26434
 C272 C 0.48127 0.64265 0.34571
 H273 H 0.34720 0.45927 0.30773
 H274 H 0.32524 0.49089 0.17673
 H275 H 0.47078 0.69975 0.27649
 H276 H 0.48863 0.66323 0.20374
 H277 H 0.49061 0.66850 0.40475
 H278 H 0.50863 0.63200 0.33236
   
