data_POSCAR
  _audit_creation_date              2014-09-24
  _audit_creation_method            'ToBaCCo'
  _symmetry_space_group_name_H-M    'P1'
  _symmetry_Int_Tables_number       1
  _symmetry_cell_setting            triclinic
  loop_
  _symmetry_equiv_pos_as_xyz
 x,y,z
_cell_length_a 15.0228
_cell_length_b 15.0435
_cell_length_c 15.0641
_cell_angle_alpha 89.921200
_cell_angle_beta 90.030800
_cell_angle_gamma 90.044500
loop_
  _atom_site_label
  _atom_site_type_symbol
  _atom_site_fract_x
  _atom_site_fract_y
  _atom_site_fract_z
N1 N 0.22044 0.21935 0.21878
 N2 N -0.22022 0.77848 0.22128
 N3 N -0.21939 0.22062 -0.22093
 N4 N 0.21984 0.78135 -0.21934
 N5 N 0.21941 1.22148 0.77897
 N6 N 0.77907 0.78153 0.78192
 N7 N 0.22036 0.78016 1.21981
 N8 N 0.78026 1.21900 1.21819
 N9 N 0.59380 1.15822 0.90337
 N10 N 0.66092 1.21342 0.89158
 N11 N 0.40659 1.09651 0.84228
 N12 N 0.33951 1.10847 0.78688
 N13 N 0.40669 1.15817 0.90389
 N14 N 0.33965 1.21368 0.89196
 N15 N 0.59359 1.09662 0.84179
 N16 N 0.66054 1.10821 0.78643
 C17 C 0.70205 1.18142 0.81832
 C18 C 0.29808 1.18189 0.81862
 N19 N 0.40758 0.84344 0.90402
 N20 N 0.34027 0.78824 0.89272
 N21 N 0.59489 0.90531 0.84163
 N22 N 0.66226 0.89327 0.78647
 N23 N 0.59475 0.84385 0.90350
 N24 N 0.66181 0.78860 0.89205
 N25 N 0.40752 0.90506 0.84230
 N26 N 0.34019 0.89352 0.78733
 Mn27 Mn 0.50066 1.00089 0.84091
 C28 C 0.29874 0.82031 0.81955
 C29 C 0.70395 0.81978 0.81863
 N30 N 0.40811 1.15808 1.09524
 N31 N 0.34075 1.21300 1.10678
 N32 N 0.59554 1.09660 1.15622
 N33 N 0.66274 1.10825 1.21141
 N34 N 0.59561 1.15842 1.09472
 N35 N 0.66299 1.21369 1.10670
 N36 N 0.40824 1.09626 1.15676
 N37 N 0.34098 1.10743 1.21188
 Mn38 Mn 0.50107 1.15935 0.99929
 C39 C 0.29940 1.18065 1.17991
 C40 C 0.70492 1.18180 1.18016
 N41 N 0.59488 0.84344 1.09481
 N42 N 0.66112 0.78727 1.10732
 N43 N 0.40779 0.90480 1.15677
 N44 N 0.34073 0.89294 1.21214
 N45 N 0.40763 0.84317 1.09517
 N46 N 0.34046 0.78775 1.10701
 N47 N 0.59501 0.90507 1.15636
 N48 N 0.66132 0.89254 1.21241
 Mn49 Mn 0.50121 0.84242 0.99935
 Mn50 Mn 0.50164 1.00070 1.15758
 Cl51 Cl 0.50114 1.00084 0.99931
 C52 C 0.70215 0.81876 1.18099
 C53 C 0.29913 0.81956 1.18035
 N54 N -0.09665 0.40813 -0.15737
 N55 N -0.10796 0.34179 -0.21350
 N56 N -0.15996 0.59292 -0.09236
 N57 N -0.21979 0.66283 -0.10243
 N58 N -0.09873 0.59535 -0.15458
 N59 N -0.11102 0.66321 -0.20918
 N60 N -0.15769 0.40634 -0.09512
 N61 N -0.21227 0.33885 -0.10724
 C62 C -0.18052 0.29909 -0.18138
 C63 C -0.18467 0.70634 -0.17945
 N64 N -0.09674 0.59077 0.15947
 N65 N -0.10792 0.65811 0.21437
 N66 N -0.15721 0.40329 0.09626
 N67 N -0.21265 0.33617 0.10770
 N68 N -0.09577 0.40334 0.15818
 N69 N -0.10790 0.33593 0.21331
 N70 N -0.15896 0.59044 0.09832
 N71 N -0.21412 0.65762 0.10988
 Mn72 Mn -0.15940 0.49811 0.00175
 C73 C -0.18157 0.69932 0.18269
 C74 C -0.18141 0.29406 0.18113
 N75 N 0.09359 0.59589 -0.15565
 N76 N 0.10558 0.66287 -0.21095
 N77 N 0.15653 0.40808 -0.09632
 N78 N 0.21183 0.34105 -0.10825
 N79 N 0.09486 0.40875 -0.15810
 N80 N 0.10660 0.34192 -0.21369
 N81 N 0.15596 0.59498 -0.09464
 N82 N 0.21205 0.66143 -0.10672
 Mn83 Mn -0.00175 0.50213 -0.15753
 C84 C 0.17976 0.70337 -0.17958
 C85 C 0.18001 0.30017 -0.18181
 N86 N 0.09583 0.40593 0.15691
 N87 N 0.10783 0.33882 0.21190
 N88 N 0.15682 0.59312 0.09616
 N89 N 0.21218 0.66029 0.10750
 N90 N 0.09538 0.59269 0.15810
 N91 N 0.10747 0.65970 0.21335
 N92 N 0.15724 0.40637 0.09500
 N93 N 0.21283 0.33945 0.10630
 Mn94 Mn -0.00029 0.49826 0.15929
 Mn95 Mn 0.15769 0.50055 0.00006
 Cl96 Cl -0.00095 0.49978 0.00089
 C97 C 0.18109 0.29781 0.17960
 C98 C 0.18071 0.70142 0.18094
 N99 N 0.84180 -0.09782 0.40863
 N100 N 0.78616 -0.10978 0.34189
 N101 N 0.90589 -0.15858 0.59424
 N102 N 0.89535 -0.21797 0.66436
 N103 N 0.84373 -0.09720 0.59598
 N104 N 0.78851 -0.10898 0.66349
 N105 N 0.90436 -0.15859 0.40777
 N106 N 0.89296 -0.21366 0.34063
 C107 C 0.81884 -0.18244 0.29998
 C108 C 0.81808 -0.18243 0.70707
 N109 N 1.15799 -0.09495 0.59311
 N110 N 1.21298 -0.10613 0.66051
 N111 N 1.09597 -0.15717 0.40641
 N112 N 1.10768 -0.21252 0.33960
 N113 N 1.15780 -0.09551 0.40643
 N114 N 1.21318 -0.10715 0.33948
 N115 N 1.09672 -0.15714 0.59285
 N116 N 1.10822 -0.21223 0.66001
 Mn117 Mn 1.00072 -0.15878 0.50015
 C118 C 1.18108 -0.17969 0.70175
 C119 C 1.18113 -0.18052 0.29825
 N120 N 0.84297 0.09494 0.59362
 N121 N 0.78824 0.10679 0.66093
 N122 N 0.90216 0.15570 0.40463
 N123 N 0.89017 0.21041 0.33667
 N124 N 0.84076 0.09342 0.40708
 N125 N 0.78118 0.10352 0.33700
 N126 N 0.90379 0.15760 0.59189
 N127 N 0.89219 0.21368 0.65819
 Mn128 Mn 0.84130 -0.00162 0.50150
 C129 C 0.81970 0.18115 0.70074
 C130 C 0.81652 0.18058 0.29348
 N131 N 1.15704 0.09546 0.40558
 N132 N 1.21293 0.10721 0.33906
 N133 N 1.09542 0.15848 0.59147
 N134 N 1.10692 0.21401 0.65836
 N135 N 1.15717 0.09676 0.59214
 N136 N 1.21231 0.10872 0.65930
 N137 N 1.09472 0.15654 0.40462
 N138 N 1.10662 0.21158 0.33746
 Mn139 Mn 1.15858 0.00046 0.49943
 Mn140 Mn 0.99901 0.15822 0.49802
 Cl141 Cl 0.99986 -0.00036 0.49977
 C142 C 1.18066 0.17998 0.29700
 C143 C 1.18027 0.18221 0.70020
   
