data_POSCAR
  _audit_creation_date              2014-09-24
  _audit_creation_method            'ToBaCCo'
  _symmetry_space_group_name_H-M    'P1'
  _symmetry_Int_Tables_number       1
  _symmetry_cell_setting            triclinic
  loop_
  _symmetry_equiv_pos_as_xyz
 x,y,z
_cell_length_a 46.3218
_cell_length_b 46.6460
_cell_length_c 48.1153
_cell_angle_alpha 90.088600
_cell_angle_beta 90.122500
_cell_angle_gamma 89.988500
loop_
  _atom_site_label
  _atom_site_type_symbol
  _atom_site_fract_x
  _atom_site_fract_y
  _atom_site_fract_z
O1 O 0.35976 0.31680 -0.02832
 O2 O 0.31906 0.35384 0.02632
 O3 O 0.35898 0.31440 0.02541
 O4 O 0.32000 0.35624 -0.02728
 O5 O 0.28618 0.32286 -0.02948
 O6 O 0.32543 0.28073 0.02352
 O7 O 0.28520 0.32046 0.02442
 O8 O 0.32623 0.28313 -0.03054
 Cu9 Cu 0.34285 0.33865 -0.00073
 Cu10 Cu 0.30236 0.29836 -0.00319
 C11 C 0.35007 0.29365 -0.03851
 C12 C 0.29507 0.34374 0.03429
 C13 C 0.34905 0.29039 0.03314
 C14 C 0.29637 0.34687 -0.03704
 O15 O 0.64098 0.68296 -0.02677
 O16 O 0.67937 0.64219 0.02705
 O17 O 0.63973 0.68184 0.02695
 O18 O 0.68061 0.64309 -0.02664
 O19 O 0.71466 0.67629 -0.02534
 O20 O 0.67350 0.71531 0.02853
 O21 O 0.71341 0.67540 0.02863
 O22 O 0.67475 0.71644 -0.02547
 Cu23 Cu 0.65677 0.65919 -0.00003
 Cu24 Cu 0.69751 0.69925 0.00169
 C25 C 0.65107 0.70676 -0.03491
 C26 C 0.70300 0.65167 0.03670
 C27 C 0.64948 0.70523 0.03659
 C28 C 0.70473 0.65281 -0.03473
 O29 O 0.68141 0.35890 0.97411
 O30 O 0.64136 0.31731 1.02604
 O31 O 0.67978 0.35805 1.02782
 O32 O 0.64260 0.31842 0.97236
 O33 O 0.67711 0.28565 0.97256
 O34 O 0.71467 0.32569 1.02834
 O35 O 0.67598 0.28465 1.02655
 O36 O 0.71621 0.32644 0.97431
 Cu37 Cu 0.65782 0.34144 1.00003
 Cu38 Cu 0.69953 0.30231 1.00045
 C39 C 0.70571 0.34994 0.96569
 C40 C 0.65168 0.29383 1.03483
 C41 C 0.70360 0.34884 1.03727
 C42 C 0.65326 0.29517 0.96335
 O43 O 0.35817 0.67955 1.02963
 O44 O 0.32153 0.64079 0.97337
 O45 O 0.35973 0.68163 0.97593
 O46 O 0.31976 0.63878 1.02705
 O47 O 0.28477 0.67103 1.02734
 O48 O 0.32493 0.71409 0.97591
 O49 O 0.28644 0.67295 0.97333
 O50 O 0.32347 0.71212 1.02994
 Cu51 Cu 0.34330 0.65696 1.00150
 Cu52 Cu 0.30136 0.69584 1.00166
 C53 C 0.34730 0.70250 1.03908
 C54 C 0.29770 0.65006 0.96402
 C55 C 0.34927 0.70518 0.96745
 C56 C 0.29538 0.64743 1.03559
 O57 O 0.02660 0.32509 0.36220
 O58 O -0.03027 0.36282 0.32378
 O59 O -0.02928 0.32530 0.36365
 O60 O 0.02552 0.36225 0.32174
 O61 O 0.02433 0.32709 0.29087
 O62 O -0.03078 0.29001 0.33293
 O63 O -0.03180 0.32778 0.29279
 O64 O 0.02544 0.28966 0.33163
 Cu65 Cu -0.00166 0.34738 0.34594
 Cu66 Cu -0.00328 0.30504 0.30894
 C67 C 0.03541 0.30091 0.35370
 C68 C -0.04052 0.35189 0.30175
 C69 C -0.03921 0.30138 0.35548
 C70 C 0.03389 0.35117 0.29906
 O71 O 0.02874 0.67408 0.63790
 O72 O -0.02724 0.63676 0.67775
 O73 O -0.02692 0.67510 0.63845
 O74 O 0.02877 0.63594 0.67741
 O75 O 0.02984 0.67033 0.70908
 O76 O -0.02616 0.70972 0.66989
 O77 O -0.02652 0.67113 0.70946
 O78 O 0.02978 0.70876 0.66930
 Cu79 Cu 0.00075 0.65194 0.65479
 Cu80 Cu 0.00183 0.69343 0.69271
 C81 C 0.03836 0.69792 0.64655
 C82 C -0.03626 0.64748 0.70034
 C83 C -0.03562 0.69921 0.64729
 C84 C 0.03862 0.64637 0.69985
 O85 O 1.02958 0.63754 0.31830
 O86 O 0.97526 0.67613 0.35933
 O87 O 0.97377 0.63783 0.31996
 O88 O 1.03101 0.67533 0.35829
 O89 O 1.03063 0.71023 0.32724
 O90 O 0.97302 0.67232 0.28848
 O91 O 0.97455 0.71090 0.32813
 O92 O 1.02917 0.67215 0.28693
 Cu93 Cu 1.00249 0.65322 0.34209
 Cu94 Cu 1.00182 0.69491 0.30450
 C95 C 1.03827 0.64809 0.29553
 C96 C 0.96597 0.70015 0.35087
 C97 C 0.96387 0.64849 0.29768
 C98 C 1.04022 0.69927 0.34958
 O99 O 0.97052 0.32543 0.63911
 O100 O 1.02661 0.36209 0.67982
 O101 O 1.02643 0.32481 0.63940
 O102 O 0.97080 0.36320 0.67894
 O103 O 0.96981 0.32832 0.71000
 O104 O 1.02582 0.28955 0.67006
 O105 O 1.02596 0.32711 0.71078
 O106 O 0.96957 0.29027 0.66988
 Cu107 Cu 0.99870 0.34738 0.65621
 Cu108 Cu 0.99774 0.30523 0.69330
 C109 C 0.96069 0.30160 0.64749
 C110 C 1.03550 0.35104 0.70232
 C111 C 1.03536 0.30063 0.64779
 C112 C 0.96106 0.35248 0.70122
 O113 O 0.36307 0.02908 0.32538
 O114 O 0.32263 -0.02547 0.36409
 O115 O 0.36194 -0.02649 0.32547
 O116 O 0.32411 0.02993 0.36429
 O117 O 0.28969 0.03089 0.33239
 O118 O 0.32786 -0.02589 0.29322
 O119 O 0.28828 -0.02482 0.33210
 O120 O 0.32892 0.03002 0.29321
 Cu121 Cu 0.34640 0.00167 0.34799
 Cu122 Cu 0.30524 0.00262 0.30944
 C123 C 0.35297 0.03866 0.30271
 C124 C 0.29849 -0.03410 0.35487
 C125 C 0.35150 -0.03561 0.30275
 C126 C 0.30040 0.03974 0.35515
 O127 O 0.64000 0.02551 0.67651
 O128 O 0.67812 -0.03096 0.63813
 O129 O 0.63855 -0.03005 0.67655
 O130 O 0.67917 0.02433 0.63779
 O131 O 0.71339 0.02390 0.66991
 O132 O 0.67244 -0.03079 0.70898
 O133 O 0.71230 -0.03167 0.67030
 O134 O 0.67394 0.02510 0.70891
 Cu135 Cu 0.65549 -0.00275 0.65407
 Cu136 Cu 0.69642 -0.00344 0.69286
 C137 C 0.65037 0.03475 0.69922
 C138 C 0.70187 -0.04050 0.64743
 C139 C 0.64844 -0.03947 0.69936
 C140 C 0.70329 0.03300 0.64701
 O141 O 0.35897 0.97132 0.67758
 O142 O 0.32160 1.02790 0.63868
 O143 O 0.36107 1.02687 0.67710
 O144 O 0.31926 0.97257 0.63904
 O145 O 0.28527 0.97409 0.67122
 O146 O 0.32736 1.02872 0.70953
 O147 O 0.28760 1.02976 0.67085
 O148 O 0.32529 0.97281 0.71005
 Cu149 Cu 0.34365 0.99943 0.65491
 Cu150 Cu 0.30298 1.00144 0.69374
 C151 C 0.34869 0.96268 0.70048
 C152 C 0.29823 1.03824 0.64799
 C153 C 0.35138 1.03696 0.69972
 C154 C 0.29503 0.96449 0.64839
 O155 O 0.68081 1.02645 0.36106
 O156 O 0.64068 0.97176 0.32203
 O157 O 0.68013 0.97116 0.36069
 O158 O 0.64130 1.02734 0.32245
 O159 O 0.67514 1.02730 0.29010
 O160 O 0.71425 0.97080 0.32861
 O161 O 0.67451 0.97137 0.28966
 O162 O 0.71495 1.02639 0.32900
 Cu163 Cu 0.65727 0.99920 0.34473
 Cu164 Cu 0.69811 0.99895 0.30601
 C165 C 0.70484 1.03533 0.35193
 C166 C 0.65064 0.96244 0.29922
 C167 C 0.70394 0.96181 0.35141
 C168 C 0.65148 1.03670 0.29977
 C169 C 0.87174 0.78081 0.47471
 C170 C 0.88240 0.77095 0.50013
 C171 C 0.87122 0.78070 0.52538
 C172 C 0.84867 0.80111 0.52540
 C173 C 0.83776 0.81154 0.49973
 C174 C 0.84926 0.80129 0.47426
 C175 C 0.83870 0.81250 0.44911
 C176 C 0.81740 0.83355 0.44892
 C177 C 0.80584 0.84417 0.47387
 C178 C 0.81600 0.83298 0.49953
 C179 C 0.83743 0.81206 0.55036
 C180 C 0.81607 0.83304 0.55017
 C181 C 0.80516 0.84389 0.52501
 C182 C 0.78440 0.86607 0.52460
 C183 C 0.77479 0.87702 0.49921
 C184 C 0.78510 0.86641 0.47394
 H185 H 0.84717 0.80545 0.42930
 H186 H 0.81039 0.84174 0.42898
 H187 H 0.84538 0.80481 0.57032
 H188 H 0.80852 0.84102 0.57000
 H189 H 0.89987 0.75543 0.50028
 H190 H 0.75908 0.89428 0.49911
 C191 C 0.13529 0.22501 0.47619
 C192 C 0.12493 0.23545 0.50153
 C193 C 0.13501 0.22488 0.52693
 C194 C 0.15658 0.20339 0.52718
 C195 C 0.16752 0.19270 0.50162
 C196 C 0.15688 0.20357 0.47603
 C197 C 0.16862 0.19326 0.45101
 C198 C 0.19003 0.17233 0.45104
 C199 C 0.20057 0.16090 0.47609
 C200 C 0.18940 0.17134 0.50165
 C201 C 0.16802 0.19286 0.55224
 C202 C 0.18944 0.17192 0.55227
 C203 C 0.20026 0.16070 0.52724
 C204 C 0.22220 0.13961 0.52707
 C205 C 0.23310 0.12973 0.50173
 C206 C 0.22252 0.13980 0.47633
 H207 H 0.16162 0.20155 0.43112
 H208 H 0.19853 0.16548 0.43118
 H209 H 0.16078 0.20097 0.57211
 H210 H 0.19771 0.16489 0.57217
 H211 H 0.10814 0.25168 0.50147
 H212 H 0.24966 0.11326 0.50177
 C213 C 0.13534 0.77765 0.47205
 C214 C 0.12452 0.76688 0.49705
 C215 C 0.13297 0.77823 0.52271
 C216 C 0.15316 0.80091 0.52369
 C217 C 0.16448 0.81203 0.49854
 C218 C 0.15557 0.80038 0.47261
 C219 C 0.16715 0.81172 0.44798
 C220 C 0.18635 0.83466 0.44871
 C221 C 0.19510 0.84682 0.47410
 C222 C 0.18426 0.83528 0.49929
 C223 C 0.16173 0.81325 0.54908
 C224 C 0.18114 0.83601 0.54982
 C225 C 0.19270 0.84733 0.52520
 C226 C 0.21184 0.87095 0.52568
 C227 C 0.22189 0.88235 0.50066
 C228 C 0.21393 0.87064 0.47503
 H229 H 0.16138 0.80303 0.42786
 H230 H 0.19411 0.84289 0.42909
 H231 H 0.15327 0.80559 0.56866
 H232 H 0.18669 0.84492 0.56991
 H233 H 0.10864 0.74979 0.49653
 H234 H 0.23647 0.90055 0.50115
 C235 C 0.78609 0.12807 0.47432
 C236 C 0.77745 0.11606 0.49956
 C237 C 0.78585 0.12788 0.52503
 C238 C 0.80397 0.15228 0.52546
 C239 C 0.81338 0.16444 0.49999
 C240 C 0.80426 0.15243 0.47431
 C241 C 0.81396 0.16473 0.44937
 C242 C 0.83226 0.18839 0.44959
 C243 C 0.84196 0.20037 0.47474
 C244 C 0.83223 0.18846 0.50020
 C245 C 0.81336 0.16450 0.55062
 C246 C 0.83160 0.18820 0.55082
 C247 C 0.84160 0.20028 0.52588
 C248 C 0.86058 0.22403 0.52590
 C249 C 0.86958 0.23577 0.50065
 C250 C 0.86097 0.22411 0.47517
 H251 H 0.80762 0.15607 0.42940
 H252 H 0.83871 0.19721 0.42977
 H253 H 0.80681 0.15576 0.57044
 H254 H 0.83777 0.19698 0.57079
 H255 H 0.76343 0.09742 0.49938
 H256 H 0.88470 0.25354 0.50084
 C257 C 0.52532 0.79056 0.87371
 C258 C 0.49917 0.78224 0.88566
 C259 C 0.47265 0.79055 0.87435
 C260 C 0.47206 0.80829 0.85054
 C261 C 0.49846 0.81735 0.83841
 C262 C 0.52519 0.80829 0.84992
 C263 C 0.55104 0.81758 0.83763
 C264 C 0.55071 0.83539 0.81445
 C265 C 0.52453 0.84498 0.80294
 C266 C 0.49813 0.83571 0.81488
 C267 C 0.44588 0.81760 0.83883
 C268 C 0.44555 0.83539 0.81563
 C269 C 0.47140 0.84495 0.80350
 C270 C 0.47129 0.86331 0.78013
 C271 C 0.49748 0.87189 0.76839
 C272 C 0.52400 0.86341 0.77961
 H273 H 0.57183 0.81127 0.84590
 H274 H 0.57126 0.84152 0.80561
 H275 H 0.42534 0.81132 0.84760
 H276 H 0.42476 0.84156 0.80725
 H277 H 0.49946 0.76847 0.90382
 H278 H 0.49723 0.88650 0.75086
 C279 C 0.47580 0.13659 0.22162
 C280 C 0.50232 0.12826 0.23294
 C281 C 0.52850 0.13674 0.22112
 C282 C 0.52835 0.15494 0.19763
 C283 C 0.50160 0.16396 0.18610
 C284 C 0.47522 0.15469 0.19807
 C285 C 0.44901 0.16395 0.18633
 C286 C 0.44865 0.18140 0.16289
 C287 C 0.47448 0.19072 0.15060
 C288 C 0.50123 0.18204 0.16237
 C289 C 0.55418 0.16454 0.18552
 C290 C 0.55382 0.18216 0.16220
 C291 C 0.52761 0.19119 0.15032
 C292 C 0.52702 0.20873 0.12639
 C293 C 0.50052 0.21660 0.11475
 C294 C 0.47435 0.20811 0.12655
 H295 H 0.42848 0.15779 0.19517
 H296 H 0.42786 0.18744 0.15444
 H297 H 0.57497 0.15857 0.19402
 H298 H 0.57435 0.18848 0.15347
 H299 H 0.50258 0.11380 0.25058
 H300 H 0.50025 0.23018 0.09645
 C301 C 0.52873 0.13663 0.77685
 C302 C 0.50238 0.12782 0.76552
 C303 C 0.47605 0.13761 0.77605
 C304 C 0.47594 0.15762 0.79816
 C305 C 0.50254 0.16689 0.80985
 C306 C 0.52905 0.15626 0.79927
 C307 C 0.55511 0.16581 0.81110
 C308 C 0.55519 0.18507 0.83322
 C309 C 0.52922 0.19592 0.84401
 C310 C 0.50263 0.18680 0.83221
 C311 C 0.45001 0.16902 0.80851
 C312 C 0.45011 0.18864 0.83034
 C313 C 0.47613 0.19752 0.84273
 C314 C 0.47644 0.21724 0.86507
 C315 C 0.50279 0.22582 0.87660
 C316 C 0.52906 0.21545 0.86650
 H317 H 0.57575 0.15852 0.80332
 H318 H 0.57585 0.19145 0.84175
 H319 H 0.42938 0.16313 0.79961
 H320 H 0.42952 0.19690 0.83731
 H321 H 0.50234 0.11219 0.74878
 H322 H 0.50284 0.24077 0.89391
 C323 C 0.47130 0.78240 0.13522
 C324 C 0.49739 0.77369 0.12335
 C325 C 0.52388 0.78416 0.13289
 C326 C 0.52453 0.80393 0.15519
 C327 C 0.49819 0.81320 0.16733
 C328 C 0.47146 0.80240 0.15732
 C329 C 0.44570 0.81149 0.16996
 C330 C 0.44608 0.83130 0.19164
 C331 C 0.47223 0.84269 0.20156
 C332 C 0.49858 0.83330 0.18953
 C333 C 0.55071 0.81489 0.16547
 C334 C 0.55112 0.83431 0.18746
 C335 C 0.52532 0.84395 0.19967
 C336 C 0.52550 0.86365 0.22202
 C337 C 0.49939 0.87257 0.23370
 C338 C 0.47283 0.86280 0.22360
 H339 H 0.42497 0.80325 0.16331
 H340 H 0.42563 0.83734 0.20077
 H341 H 0.57119 0.80848 0.15664
 H342 H 0.57192 0.84164 0.19486
 H343 H 0.49706 0.75851 0.10623
 H344 H 0.49973 0.88821 0.25043
 C345 C 0.78809 0.47668 0.87472
 C346 C 0.77969 0.50297 0.88608
 C347 C 0.78829 0.52899 0.87435
 C348 C 0.80638 0.52889 0.85069
 C349 C 0.81552 0.50234 0.83918
 C350 C 0.80621 0.47613 0.85112
 C351 C 0.81566 0.45012 0.83948
 C352 C 0.83380 0.44979 0.81646
 C353 C 0.84359 0.47545 0.80447
 C354 C 0.83424 0.50201 0.81583
 C355 C 0.81597 0.55456 0.83857
 C356 C 0.83414 0.55423 0.81556
 C357 C 0.84378 0.52822 0.80405
 C358 C 0.86252 0.52767 0.78088
 C359 C 0.87109 0.50135 0.76966
 C360 C 0.86228 0.47533 0.78125
 H361 H 0.80924 0.42971 0.84814
 H362 H 0.84005 0.42915 0.80812
 H363 H 0.80962 0.57519 0.84686
 H364 H 0.84052 0.57463 0.80685
 H365 H 0.76567 0.50319 0.90412
 H366 H 0.88593 0.50112 0.75224
 C367 C 0.12848 0.47111 0.21116
 C368 C 0.11832 0.49750 0.22079
 C369 C 0.12919 0.52337 0.21065
 C370 C 0.15085 0.52311 0.19003
 C371 C 0.16132 0.49649 0.17988
 C372 C 0.15020 0.47035 0.19057
 C373 C 0.16042 0.44426 0.17980
 C374 C 0.18098 0.44377 0.15874
 C375 C 0.19210 0.46936 0.14768
 C376 C 0.18228 0.49600 0.15841
 C377 C 0.16164 0.54871 0.17871
 C378 C 0.18217 0.54823 0.15763
 C379 C 0.19274 0.52213 0.14713
 C380 C 0.21279 0.52140 0.12501
 C381 C 0.22202 0.49499 0.11454
 C382 C 0.21211 0.46910 0.12556
 H383 H 0.15228 0.42395 0.18729
 H384 H 0.18776 0.42308 0.15091
 H385 H 0.15396 0.56938 0.18577
 H386 H 0.18933 0.56856 0.14934
 H387 H 0.10150 0.49792 0.23646
 H388 H 0.23729 0.49456 0.09746
 C389 C 0.86098 0.52641 0.22126
 C390 C 0.86955 0.50038 0.23303
 C391 C 0.85947 0.47412 0.22287
 C392 C 0.83942 0.47370 0.20067
 C393 C 0.83033 0.49994 0.18856
 C394 C 0.84122 0.52640 0.19880
 C395 C 0.83177 0.55210 0.18658
 C396 C 0.81233 0.55186 0.16448
 C397 C 0.80122 0.52594 0.15406
 C398 C 0.81031 0.49971 0.16617
 C399 C 0.82783 0.44783 0.19062
 C400 C 0.80821 0.44760 0.16867
 C401 C 0.79943 0.47325 0.15591
 C402 C 0.77964 0.47324 0.13348
 C403 C 0.77103 0.49927 0.12173
 C404 C 0.78147 0.52548 0.13162
 H405 H 0.83924 0.57270 0.19405
 H406 H 0.80607 0.57227 0.15565
 H407 H 0.83360 0.42747 0.19984
 H408 H 0.79984 0.42708 0.16192
 H409 H 0.88522 0.50052 0.24984
 H410 H 0.75597 0.49912 0.10442
 C411 C 0.13417 0.47229 0.78411
 C412 C 0.12549 0.49826 0.77234
 C413 C 0.13722 0.52439 0.78102
 C414 C 0.15858 0.52470 0.80207
 C415 C 0.16762 0.49846 0.81425
 C416 C 0.15540 0.47213 0.80522
 C417 C 0.16428 0.44647 0.81789
 C418 C 0.18496 0.44658 0.83894
 C419 C 0.19755 0.47235 0.84807
 C420 C 0.18869 0.49857 0.83573
 C421 C 0.17138 0.55043 0.81098
 C422 C 0.19201 0.55055 0.83206
 C423 C 0.20062 0.52493 0.84503
 C424 C 0.22113 0.52490 0.86683
 C425 C 0.22974 0.49889 0.87865
 C426 C 0.21832 0.47273 0.86964
 H427 H 0.15517 0.42605 0.81175
 H428 H 0.19080 0.42623 0.84814
 H429 H 0.16565 0.57074 0.80165
 H430 H 0.20125 0.57096 0.83801
 H431 H 0.10889 0.49815 0.75639
 H432 H 0.24538 0.49903 0.89547
 C433 C 0.24841 0.39631 0.08445
 C434 C 0.22746 0.41304 0.07113
 C435 C 0.21469 0.43602 0.08506
 C436 C 0.27825 0.36008 0.05360
 C437 C 0.24293 0.42503 0.12619
 C438 C 0.25581 0.40204 0.11216
 C439 C 0.26441 0.37568 0.06846
 C440 C 0.22266 0.44241 0.11251
 H441 H 0.22182 0.40901 0.04960
 H442 H 0.19929 0.44942 0.07417
 H443 H 0.24954 0.42996 0.14726
 H444 H 0.27226 0.38946 0.12254
 C445 C 0.74676 0.59731 0.08768
 C446 C 0.73946 0.59304 0.11562
 C447 C 0.75174 0.57030 0.13047
 C448 C 0.71875 0.63434 0.05608
 C449 C 0.77911 0.55654 0.08966
 C450 C 0.76693 0.57928 0.07489
 C451 C 0.73172 0.61823 0.07117
 C452 C 0.77135 0.55171 0.11742
 H453 H 0.72364 0.60668 0.12562
 H454 H 0.74525 0.56657 0.15178
 H455 H 0.79399 0.54220 0.07925
 H456 H 0.77250 0.58220 0.05322
 C457 C 0.75112 0.40479 0.91676
 C458 C 0.74365 0.41030 0.88905
 C459 C 0.75660 0.43306 0.87484
 C460 C 0.72205 0.36757 0.94711
 C461 C 0.78501 0.44435 0.91581
 C462 C 0.77212 0.42160 0.92995
 C463 C 0.73551 0.38382 0.93264
 C464 C 0.77712 0.45041 0.88827
 H465 H 0.72719 0.39763 0.87875
 H466 H 0.74997 0.43776 0.85373
 H467 H 0.80056 0.45774 0.92655
 H468 H 0.77784 0.41771 0.95147
 C469 C 0.25806 0.59723 0.90849
 C470 C 0.22808 0.59330 0.90856
 C471 C 0.21580 0.57049 0.89380
 C472 C 0.28294 0.63346 0.94332
 C473 C 0.26337 0.55603 0.87818
 C474 C 0.27561 0.57885 0.89288
 C475 C 0.27121 0.61779 0.92687
 C476 C 0.23343 0.55145 0.87886
 H477 H 0.21435 0.60716 0.92088
 H478 H 0.19272 0.56696 0.89492
 H479 H 0.27729 0.54134 0.86702
 H480 H 0.29885 0.58147 0.89296
 C481 C 0.09154 0.26079 0.40589
 C482 C 0.10940 0.27806 0.42241
 C483 C 0.12463 0.26611 0.44465
 C484 C 0.05625 0.28582 0.37019
 C485 C 0.10497 0.21933 0.43340
 C486 C 0.08967 0.23132 0.41117
 C487 C 0.07286 0.27395 0.38567
 C488 C 0.12225 0.23674 0.45049
 H489 H 0.11073 0.30093 0.41873
 H490 H 0.13762 0.27989 0.45782
 H491 H 0.10254 0.19672 0.43791
 H492 H 0.07562 0.21784 0.39875
 C493 C 0.08929 0.74146 0.59234
 C494 C 0.07468 0.75997 0.57427
 C495 C 0.08925 0.77256 0.55207
 C496 C 0.05806 0.71347 0.62928
 C497 C 0.13345 0.74880 0.56626
 C498 C 0.11879 0.73610 0.58850
 C499 C 0.07314 0.72636 0.61320
 C500 C 0.11863 0.76687 0.54779
 H501 H 0.05182 0.76406 0.57690
 H502 H 0.07751 0.78630 0.53785
 H503 H 0.15607 0.74402 0.56301
 H504 H 0.13023 0.72158 0.60220
 C505 C 0.91509 0.74440 0.40470
 C506 C 0.92923 0.76429 0.42176
 C507 C 0.91466 0.77695 0.44396
 C508 C 0.94650 0.71594 0.36818
 C509 C 0.87134 0.75056 0.43167
 C510 C 0.88600 0.73781 0.40945
 C511 C 0.93142 0.72906 0.38412
 C512 C 0.88575 0.76992 0.44924
 H513 H 0.95179 0.76933 0.41842
 H514 H 0.92610 0.79166 0.45750
 H515 H 0.84913 0.74470 0.43573
 H516 H 0.87496 0.72222 0.39654
 C517 C 0.90444 0.26124 0.59545
 C518 C 0.88494 0.27770 0.57993
 C519 C 0.86953 0.26520 0.55806
 C520 C 0.93983 0.28694 0.63065
 C521 C 0.89235 0.21949 0.56773
 C522 C 0.90776 0.23201 0.58960
 C523 C 0.92317 0.27499 0.61526
 C524 C 0.87339 0.23610 0.55159
 H525 H 0.88246 0.30041 0.58407
 H526 H 0.85530 0.27840 0.54557
 H527 H 0.89602 0.19715 0.56266
 H528 H 0.92306 0.21918 0.60124
 C529 C 0.40497 0.09366 0.26038
 C530 C 0.42107 0.11390 0.27533
 C531 C 0.44326 0.12902 0.26228
 C532 C 0.36969 0.05899 0.28730
 C533 C 0.43269 0.10444 0.21900
 C534 C 0.41050 0.08931 0.23208
 C535 C 0.38507 0.07529 0.27477
 C536 C 0.44947 0.12412 0.23413
 H537 H 0.41719 0.11720 0.29730
 H538 H 0.45626 0.14383 0.27434
 H539 H 0.43757 0.09997 0.19742
 H540 H 0.39842 0.07343 0.22041
 C541 C 0.59980 0.09194 0.74047
 C542 C 0.58436 0.11209 0.72485
 C543 C 0.56211 0.12779 0.73715
 C544 C 0.63440 0.05583 0.71446
 C545 C 0.57138 0.10406 0.78108
 C546 C 0.59363 0.08831 0.76873
 C547 C 0.61944 0.07278 0.72669
 C548 C 0.55519 0.12356 0.76523
 H549 H 0.58872 0.11481 0.70289
 H550 H 0.54957 0.14249 0.72457
 H551 H 0.56596 0.10017 0.80264
 H552 H 0.60519 0.07250 0.78091
 C553 C 0.39954 0.90636 0.74271
 C554 C 0.41530 0.88615 0.72745
 C555 C 0.43775 0.87093 0.74009
 C556 C 0.36465 0.94180 0.71607
 C557 C 0.42805 0.89526 0.78364
 C558 C 0.40561 0.91051 0.77096
 C559 C 0.37971 0.92513 0.72857
 C560 C 0.44457 0.87570 0.76816
 H561 H 0.41104 0.88302 0.70550
 H562 H 0.45051 0.85621 0.72775
 H563 H 0.43339 0.89962 0.80517
 H564 H 0.39383 0.92638 0.78287
 C565 C 0.59787 0.90712 0.25784
 C566 C 0.59110 0.91123 0.22974
 C567 C 0.56836 0.89595 0.21756
 C568 C 0.63387 0.94205 0.28378
 C569 C 0.55971 0.87179 0.26135
 C570 C 0.58245 0.88701 0.27347
 C571 C 0.61825 0.92567 0.27152
 C572 C 0.55226 0.87644 0.23343
 H573 H 0.60264 0.92701 0.21756
 H574 H 0.56254 0.90015 0.19613
 H575 H 0.54727 0.85708 0.27395
 H576 H 0.58728 0.88392 0.29531
 C577 C 0.40394 0.25380 0.90707
 C578 C 0.40837 0.22409 0.90781
 C579 C 0.43128 0.21187 0.89305
 C580 C 0.36718 0.27881 0.94128
 C581 C 0.44484 0.25894 0.87618
 C582 C 0.42193 0.27111 0.89087
 C583 C 0.38314 0.26700 0.92517
 C584 C 0.44988 0.22931 0.87746
 H585 H 0.39480 0.21056 0.92057
 H586 H 0.43518 0.18903 0.89458
 H587 H 0.45920 0.27270 0.86448
 H588 H 0.41890 0.29414 0.89041
 C589 C 0.59803 0.75351 0.91518
 C590 C 0.58180 0.77497 0.92822
 C591 C 0.55891 0.78802 0.91416
 C592 C 0.63437 0.72357 0.94601
 C593 C 0.56901 0.75896 0.87349
 C594 C 0.59190 0.74584 0.88763
 C595 C 0.61865 0.73744 0.93124
 C596 C 0.55212 0.77982 0.88685
 H597 H 0.58613 0.78085 0.94962
 H598 H 0.54587 0.80383 0.92485
 H599 H 0.56373 0.75209 0.85258
 H600 H 0.60408 0.72901 0.87746
 C601 C 0.39867 0.74455 0.09433
 C602 C 0.40297 0.77425 0.09285
 C603 C 0.42582 0.78697 0.10741
 C604 C 0.36318 0.71820 0.05969
 C605 C 0.43950 0.74045 0.12563
 C606 C 0.41665 0.72779 0.11117
 C607 C 0.37841 0.73067 0.07604
 C608 C 0.44451 0.77003 0.12349
 H609 H 0.38944 0.78735 0.07957
 H610 H 0.42970 0.80975 0.10522
 H611 H 0.45394 0.72707 0.13770
 H612 H 0.41376 0.70477 0.11218
 C613 C 0.59857 0.24672 0.08418
 C614 C 0.58214 0.22539 0.07111
 C615 C 0.55962 0.21207 0.08536
 C616 C 0.63473 0.27689 0.05352
 C617 C 0.57047 0.24062 0.12623
 C618 C 0.59300 0.25401 0.11191
 C619 C 0.61901 0.26292 0.06812
 C620 C 0.55340 0.21984 0.11289
 H621 H 0.58607 0.21980 0.04958
 H622 H 0.54644 0.19633 0.07469
 H623 H 0.56563 0.24718 0.14732
 H624 H 0.60536 0.27071 0.12211
 C625 C 0.25817 0.09506 0.59667
 C626 C 0.27550 0.11332 0.58076
 C627 C 0.26345 0.12890 0.55885
 C628 C 0.28331 0.05925 0.63166
 C629 C 0.21643 0.10881 0.56924
 C630 C 0.22852 0.09317 0.59116
 C631 C 0.27144 0.07607 0.61646
 C632 C 0.23392 0.12646 0.55270
 H633 H 0.29851 0.11469 0.58464
 H634 H 0.27730 0.14216 0.54609
 H635 H 0.19370 0.10631 0.56447
 H636 H 0.21499 0.07883 0.60310
 C637 C 0.74977 0.08518 0.40381
 C638 C 0.77083 0.07160 0.42004
 C639 C 0.78354 0.08607 0.44234
 C640 C 0.72050 0.05366 0.36785
 C641 C 0.75489 0.12820 0.43177
 C642 C 0.74211 0.11365 0.40946
 C643 C 0.73409 0.06875 0.38346
 C644 C 0.77541 0.11433 0.44855
 H645 H 0.77667 0.04947 0.41606
 H646 H 0.79911 0.07499 0.45528
 H647 H 0.74809 0.14986 0.43657
 H648 H 0.72558 0.12423 0.39725
 C649 C 0.74699 0.90827 0.59474
 C650 C 0.76774 0.92224 0.57857
 C651 C 0.78070 0.90802 0.55633
 C652 C 0.71786 0.93963 0.63076
 C653 C 0.75293 0.86532 0.56684
 C654 C 0.73985 0.87964 0.58909
 C655 C 0.73125 0.92446 0.61513
 C656 C 0.77312 0.87961 0.55013
 H657 H 0.77319 0.94446 0.58257
 H658 H 0.79606 0.91936 0.54345
 H659 H 0.74666 0.84349 0.56206
 H660 H 0.72359 0.86875 0.60129
 C661 C 0.25232 0.91428 0.40633
 C662 C 0.23032 0.92740 0.42167
 C663 C 0.21700 0.91265 0.44335
 C664 C 0.28199 0.94629 0.37132
 C665 C 0.24696 0.87113 0.43392
 C666 C 0.26036 0.88596 0.41222
 C667 C 0.26831 0.93100 0.38656
 C668 C 0.22547 0.88456 0.44982
 H669 H 0.22414 0.94938 0.41748
 H670 H 0.20066 0.92338 0.45564
 H671 H 0.25398 0.84959 0.43894
 H672 H 0.27759 0.87573 0.40068
 C673 C 0.08860 0.40155 0.74865
 C674 C 0.07498 0.41955 0.76788
 C675 C 0.09035 0.44176 0.78053
 C676 C 0.05568 0.36682 0.71899
 C677 C 0.13350 0.42735 0.75569
 C678 C 0.11803 0.40515 0.74292
 C679 C 0.07141 0.38176 0.73274
 C680 C 0.11955 0.44608 0.77416
 H681 H 0.05216 0.41715 0.77224
 H682 H 0.07926 0.45625 0.79451
 H683 H 0.15594 0.43072 0.75031
 H684 H 0.12870 0.39154 0.72783
 C685 C 0.08828 0.59562 0.24832
 C686 C 0.07358 0.57931 0.22836
 C687 C 0.08748 0.55657 0.21510
 C688 C 0.05756 0.63156 0.27868
 C689 C 0.13132 0.56704 0.24083
 C690 C 0.11733 0.58978 0.25421
 C691 C 0.07238 0.61603 0.26466
 C692 C 0.11626 0.55002 0.22158
 H693 H 0.05103 0.58345 0.22386
 H694 H 0.07553 0.54341 0.20050
 H695 H 0.15343 0.56195 0.24627
 H696 H 0.12878 0.60207 0.26985
 C697 C 0.90252 0.40288 0.26049
 C698 C 0.88406 0.42014 0.27633
 C699 C 0.86884 0.44251 0.26377
 C700 C 0.93834 0.36786 0.28645
 C701 C 0.88965 0.42981 0.21922
 C702 C 0.90491 0.40744 0.23182
 C703 C 0.92146 0.38297 0.27424
 C704 C 0.87186 0.44777 0.23521
 H705 H 0.88233 0.41703 0.29858
 H706 H 0.85549 0.45638 0.27645
 H707 H 0.89264 0.43390 0.19726
 H708 H 0.91945 0.39448 0.21944
 C709 C 0.90676 0.59780 0.74286
 C710 C 0.88647 0.58199 0.72761
 C711 C 0.87086 0.56007 0.74042
 C712 C 0.94275 0.63183 0.71606
 C713 C 0.89496 0.57040 0.78409
 C714 C 0.91060 0.59232 0.77124
 C715 C 0.92586 0.61714 0.72864
 C716 C 0.87532 0.55384 0.76864
 H717 H 0.88358 0.58582 0.70558
 H718 H 0.85608 0.54725 0.72812
 H719 H 0.89907 0.56551 0.80574
 H720 H 0.92651 0.60415 0.78314
 C721 C 0.75085 0.60089 0.91632
 C722 C 0.74341 0.59521 0.88860
 C723 C 0.75671 0.57263 0.87429
 C724 C 0.72068 0.63691 0.94729
 C725 C 0.78550 0.56193 0.91512
 C726 C 0.77229 0.58451 0.92934
 C727 C 0.73463 0.62130 0.93248
 C728 C 0.77753 0.55558 0.88764
 H729 H 0.72662 0.60751 0.87841
 H730 H 0.74998 0.56770 0.85325
 H731 H 0.80126 0.54877 0.92582
 H732 H 0.77801 0.58849 0.95085
 C733 C 0.25305 0.40094 0.91382
 C734 C 0.25879 0.40409 0.88540
 C735 C 0.24646 0.42683 0.87055
 C736 C 0.28128 0.36362 0.94501
 C737 C 0.22211 0.44282 0.91235
 C738 C 0.23434 0.42010 0.92712
 C739 C 0.26818 0.37986 0.93013
 C740 C 0.22834 0.44653 0.88406
 H741 H 0.27347 0.38957 0.87497
 H742 H 0.25179 0.42966 0.84881
 H743 H 0.20840 0.45800 0.92312
 H744 H 0.22995 0.41804 0.94914
 C745 C 0.25071 0.59293 0.08300
 C746 C 0.25704 0.58813 0.11111
 C747 C 0.24378 0.56549 0.12529
 C748 C 0.27996 0.63037 0.05293
 C749 C 0.21738 0.55288 0.08346
 C750 C 0.23055 0.57549 0.06936
 C751 C 0.26647 0.61399 0.06729
 C752 C 0.22412 0.54753 0.11142
 H753 H 0.27281 0.60130 0.12180
 H754 H 0.24950 0.56138 0.14676
 H755 H 0.20249 0.53904 0.07239
 H756 H 0.22568 0.57884 0.04756
 C757 C 0.74292 0.40108 0.09126
 C758 C 0.72542 0.41914 0.10727
 C759 C 0.73764 0.44187 0.12212
 C760 C 0.71776 0.36481 0.05657
 C761 C 0.78516 0.42800 0.10587
 C762 C 0.77288 0.40527 0.09094
 C763 C 0.72967 0.38051 0.07290
 C764 C 0.76753 0.44670 0.12121
 H765 H 0.70220 0.41632 0.10742
 H766 H 0.72372 0.45629 0.13359
 H767 H 0.80819 0.43173 0.10459
 H768 H 0.78659 0.39166 0.07834
 C769 C 0.91404 0.74378 0.59556
 C770 C 0.88515 0.73677 0.59009
 C771 C 0.87057 0.74978 0.56791
 C772 C 0.94575 0.71455 0.63138
 C773 C 0.91351 0.77731 0.55716
 C774 C 0.92799 0.76441 0.57932
 C775 C 0.93049 0.72802 0.61583
 C776 C 0.88486 0.76981 0.55109
 H777 H 0.87425 0.72061 0.60234
 H778 H 0.84858 0.74353 0.56323
 H779 H 0.92489 0.79252 0.54418
 H780 H 0.95041 0.76979 0.58318
 C781 C 0.90593 0.26170 0.40665
 C782 C 0.90906 0.23241 0.41227
 C783 C 0.89329 0.21977 0.43377
 C784 C 0.94135 0.28750 0.37167
 C785 C 0.87054 0.26548 0.44353
 C786 C 0.88629 0.27810 0.42204
 C787 C 0.92476 0.27550 0.38703
 C788 C 0.87417 0.23631 0.44977
 H789 H 0.92443 0.21959 0.40072
 H790 H 0.89682 0.19737 0.43866
 H791 H 0.85619 0.27864 0.45591
 H792 H 0.88391 0.30083 0.41806
 C793 C 0.09030 0.26090 0.59658
 C794 C 0.10848 0.27806 0.58041
 C795 C 0.12407 0.26602 0.55847
 C796 C 0.05483 0.28621 0.63199
 C797 C 0.10414 0.21931 0.56931
 C798 C 0.08848 0.23141 0.59125
 C799 C 0.07144 0.27419 0.61659
 C800 C 0.12175 0.23663 0.55254
 H801 H 0.10982 0.30094 0.58412
 H802 H 0.13728 0.27974 0.54555
 H803 H 0.10172 0.19669 0.56473
 H804 H 0.07422 0.21798 0.60340
 C805 C 0.09429 0.73999 0.40102
 C806 C 0.09131 0.76941 0.40619
 C807 C 0.10585 0.78206 0.42859
 C808 C 0.05976 0.71375 0.36529
 C809 C 0.12710 0.73610 0.44018
 C810 C 0.11260 0.72348 0.41778
 C811 C 0.07611 0.72607 0.38077
 C812 C 0.12354 0.76539 0.44596
 H813 H 0.07689 0.78230 0.39362
 H814 H 0.10243 0.80457 0.43306
 H815 H 0.14036 0.72286 0.45357
 H816 H 0.11478 0.70065 0.41421
 C817 C 0.59543 0.90608 0.74135
 C818 C 0.57901 0.88630 0.72614
 C819 C 0.55657 0.87133 0.73898
 C820 C 0.63145 0.94037 0.71478
 C821 C 0.56745 0.89518 0.78256
 C822 C 0.58989 0.91016 0.76969
 C823 C 0.61576 0.92425 0.72721
 C824 C 0.55040 0.87592 0.76720
 H825 H 0.58288 0.88321 0.70414
 H826 H 0.54340 0.85685 0.72673
 H827 H 0.56263 0.89941 0.80420
 H828 H 0.60220 0.92568 0.78158
 C829 C 0.40208 0.90710 0.26135
 C830 C 0.40642 0.90906 0.23261
 C831 C 0.42852 0.89332 0.21994
 C832 C 0.36745 0.94331 0.28737
 C833 C 0.44136 0.87288 0.26459
 C834 C 0.41925 0.88856 0.27720
 C835 C 0.38242 0.92634 0.27513
 C836 C 0.44645 0.87548 0.23594
 H837 H 0.39351 0.92360 0.22019
 H838 H 0.43249 0.89601 0.19793
 H839 H 0.45520 0.85951 0.27730
 H840 H 0.41632 0.88711 0.29949
 C841 C 0.60012 0.09322 0.25829
 C842 C 0.58439 0.11334 0.27370
 C843 C 0.56201 0.12874 0.26115
 C844 C 0.63518 0.05761 0.28454
 C845 C 0.57171 0.10478 0.21741
 C846 C 0.59408 0.08935 0.22999
 C847 C 0.61998 0.07435 0.27226
 C848 C 0.55522 0.12425 0.23302
 H849 H 0.58863 0.11626 0.29568
 H850 H 0.54926 0.14338 0.27359
 H851 H 0.56640 0.10061 0.19584
 H852 H 0.60585 0.07357 0.21796
 C853 C 0.40439 0.09332 0.73968
 C854 C 0.42126 0.11171 0.72345
 C855 C 0.44369 0.12737 0.73561
 C856 C 0.36847 0.05759 0.71457
 C857 C 0.43182 0.10716 0.78055
 C858 C 0.40939 0.09145 0.76835
 C859 C 0.38414 0.07429 0.72638
 C860 C 0.44941 0.12489 0.76418
 H861 H 0.41778 0.11310 0.70122
 H862 H 0.45727 0.14065 0.72262
 H863 H 0.43628 0.10456 0.80251
 H864 H 0.39670 0.07705 0.78105
 C865 C 0.59542 0.74915 0.08804
 C866 C 0.59155 0.74208 0.11609
 C867 C 0.56898 0.75449 0.13125
 C868 C 0.63218 0.72103 0.05603
 C869 C 0.55461 0.78159 0.09054
 C870 C 0.57716 0.76926 0.07546
 C871 C 0.61618 0.73403 0.07126
 C872 C 0.55015 0.77404 0.11842
 H873 H 0.60535 0.72632 0.12595
 H874 H 0.56554 0.74814 0.15263
 H875 H 0.54007 0.79638 0.08027
 H876 H 0.57976 0.77469 0.05372
 C877 C 0.40187 0.24394 0.08367
 C878 C 0.41849 0.22247 0.07111
 C879 C 0.44126 0.20978 0.08565
 C880 C 0.36574 0.27349 0.05219
 C881 C 0.43025 0.23918 0.12586
 C882 C 0.40748 0.25194 0.11124
 C883 C 0.38139 0.25973 0.06715
 C884 C 0.44755 0.21833 0.11298
 H885 H 0.41457 0.21634 0.04970
 H886 H 0.45462 0.19399 0.07531
 H887 H 0.43514 0.24634 0.14677
 H888 H 0.39500 0.26878 0.12105
 C889 C 0.60116 0.25011 0.91092
 C890 C 0.58363 0.22924 0.92321
 C891 C 0.56094 0.21697 0.90819
 C892 C 0.63702 0.27885 0.94343
 C893 C 0.57381 0.24556 0.86804
 C894 C 0.59650 0.25793 0.88315
 C895 C 0.62157 0.26551 0.92790
 C896 C 0.55563 0.22535 0.88066
 H897 H 0.58681 0.22325 0.94475
 H898 H 0.54690 0.20165 0.91830
 H899 H 0.56970 0.25253 0.84694
 H900 H 0.60970 0.27431 0.87353
 C901 C 0.40161 0.75279 0.91762
 C902 C 0.40661 0.74563 0.88975
 C903 C 0.42888 0.75905 0.87504
 C904 C 0.36602 0.72239 0.94877
 C905 C 0.44059 0.78740 0.91581
 C906 C 0.41832 0.77406 0.93044
 C907 C 0.38149 0.73650 0.93402
 C908 C 0.44628 0.77971 0.88814
 H909 H 0.39403 0.72898 0.87971
 H910 H 0.43331 0.75252 0.85387
 H911 H 0.45404 0.80304 0.92632
 H912 H 0.41485 0.77957 0.95206
 C913 C 0.74896 0.90992 0.40382
 C914 C 0.76933 0.92362 0.42078
 C915 C 0.78198 0.90894 0.44293
 C916 C 0.72005 0.94187 0.36799
 C917 C 0.75475 0.86633 0.43076
 C918 C 0.74198 0.88110 0.40859
 C919 C 0.73339 0.92651 0.38353
 C920 C 0.77450 0.88035 0.44828
 H921 H 0.77467 0.94597 0.41747
 H922 H 0.79698 0.92011 0.45645
 H923 H 0.74851 0.84437 0.43487
 H924 H 0.72601 0.87039 0.39578
 C925 C 0.24788 0.91392 0.59631
 C926 C 0.22791 0.92798 0.57921
 C927 C 0.21509 0.91348 0.55697
 C928 C 0.27793 0.94522 0.63193
 C929 C 0.24128 0.87034 0.56941
 C930 C 0.25419 0.88492 0.59166
 C931 C 0.26395 0.93025 0.61650
 C932 C 0.22200 0.88469 0.55167
 H933 H 0.22309 0.95047 0.58242
 H934 H 0.20052 0.92494 0.54330
 H935 H 0.24717 0.84826 0.56533
 H936 H 0.26986 0.87392 0.60455
 C937 C 0.25953 0.09585 0.40678
 C938 C 0.27662 0.11391 0.42326
 C939 C 0.26425 0.12929 0.44515
 C940 C 0.28521 0.06051 0.37160
 C941 C 0.21737 0.10941 0.43362
 C942 C 0.22979 0.09397 0.41173
 C943 C 0.27311 0.07711 0.38689
 C944 C 0.23461 0.12688 0.45071
 H945 H 0.29969 0.11529 0.41984
 H946 H 0.27792 0.14239 0.45833
 H947 H 0.19457 0.10691 0.43792
 H948 H 0.21642 0.07979 0.39934
 C949 C 0.74911 0.08416 0.59467
 C950 C 0.77025 0.07077 0.57843
 C951 C 0.78309 0.08551 0.55644
 C952 C 0.71988 0.05242 0.63034
 C953 C 0.75439 0.12751 0.56733
 C954 C 0.74148 0.11270 0.58933
 C955 C 0.73344 0.06755 0.61483
 C956 C 0.77502 0.11385 0.55054
 H957 H 0.77610 0.04861 0.58217
 H958 H 0.79872 0.07457 0.54349
 H959 H 0.74761 0.14922 0.56276
 H960 H 0.72491 0.12316 0.60155
 C961 C 0.90632 0.59761 0.25673
 C962 C 0.90992 0.59092 0.22855
 C963 C 0.89400 0.56861 0.21650
 C964 C 0.94263 0.63253 0.28238
 C965 C 0.87016 0.56025 0.26055
 C966 C 0.88603 0.58255 0.27255
 C967 C 0.92560 0.61745 0.27025
 C968 C 0.87433 0.55285 0.23256
 H969 H 0.92583 0.60215 0.21620
 H970 H 0.89787 0.56284 0.19501
 H971 H 0.85536 0.54807 0.27332
 H972 H 0.88331 0.58729 0.29444
 C973 C 0.90531 0.40390 0.74369
 C974 C 0.88511 0.41979 0.72844
 C975 C 0.86993 0.44215 0.74111
 C976 C 0.94044 0.36871 0.71697
 C977 C 0.89426 0.43218 0.78469
 C978 C 0.90948 0.40982 0.77198
 C979 C 0.92394 0.38394 0.72954
 C980 C 0.87469 0.44878 0.76922
 H981 H 0.88195 0.41564 0.70648
 H982 H 0.85522 0.45497 0.72877
 H983 H 0.89863 0.43735 0.80625
 H984 H 0.92533 0.39794 0.78390
 C985 C 0.09494 0.59516 0.74185
 C986 C 0.11262 0.57689 0.72627
 C987 C 0.12772 0.55474 0.73933
 C988 C 0.05943 0.63009 0.71531
 C989 C 0.10848 0.56973 0.78386
 C990 C 0.09331 0.59188 0.77075
 C991 C 0.07612 0.61495 0.72775
 C992 C 0.12538 0.55071 0.76814
 H993 H 0.11380 0.57902 0.70388
 H994 H 0.14037 0.54003 0.72686
 H995 H 0.10601 0.56661 0.80603
 H996 H 0.07942 0.60567 0.78297
 C997 C 0.08519 0.40133 0.25067
 C998 C 0.07102 0.41759 0.23037
 C999 C 0.08568 0.43940 0.21646
 C1000 C 0.05348 0.36701 0.28186
 C1001 C 0.12926 0.42808 0.24222
 C1002 C 0.11450 0.40626 0.25625
 C1003 C 0.06867 0.38184 0.26751
 C1004 C 0.11474 0.44508 0.22261
 H1005 H 0.04831 0.41416 0.22607
 H1006 H 0.07412 0.45257 0.20162
 H1007 H 0.15157 0.43251 0.24746
 H1008 H 0.12560 0.39401 0.27211
   
