data_POSCAR
  _audit_creation_date              2014-09-24
  _audit_creation_method            'ToBaCCo'
  _symmetry_space_group_name_H-M    'P1'
  _symmetry_Int_Tables_number       1
  _symmetry_cell_setting            triclinic
  loop_
  _symmetry_equiv_pos_as_xyz
 x,y,z
_cell_length_a 59.0680
_cell_length_b 59.0836
_cell_length_c 17.6687
_cell_angle_alpha 89.952900
_cell_angle_beta 90.060300
_cell_angle_gamma 120.005800
loop_
  _atom_site_label
  _atom_site_type_symbol
  _atom_site_fract_x
  _atom_site_fract_y
  _atom_site_fract_z
C1 C 0.24711 0.49454 0.53638
 C2 C 0.24714 0.49461 0.45918
 C3 C 0.22508 0.49324 0.41492
 C4 C 0.26924 0.49607 0.41515
 C5 C 0.26806 0.49367 0.58064
 C6 C 0.22616 0.49537 0.58056
 C7 C 0.19941 0.47299 0.42631
 C8 C 0.17871 0.47241 0.38633
 C9 C 0.18297 0.49205 0.33255
 C10 C 0.20932 0.51191 0.32038
 C11 C 0.22988 0.51237 0.36077
 C12 C 0.26447 0.47680 0.36113
 C13 C 0.28515 0.47739 0.32120
 C14 C 0.31102 0.49738 0.33421
 C15 C 0.31566 0.51705 0.38703
 C16 C 0.29495 0.51647 0.42681
 C17 C 0.28216 0.51304 0.63482
 C18 C 0.30238 0.51290 0.67545
 C19 C 0.30876 0.49324 0.66309
 C20 C 0.29417 0.47349 0.61002
 C21 C 0.27393 0.47364 0.56942
 C22 C 0.22031 0.51542 0.56942
 C23 C 0.20008 0.51556 0.61004
 C24 C 0.18550 0.49577 0.66305
 C25 C 0.19187 0.47609 0.67531
 C26 C 0.21207 0.47596 0.63465
 H27 H 0.19538 0.45750 0.46625
 H28 H 0.15963 0.45564 0.39617
 H29 H 0.21454 0.52830 0.28322
 H30 H 0.24963 0.52824 0.35125
 H31 H 0.24475 0.46096 0.35115
 H32 H 0.28096 0.46184 0.28143
 H33 H 0.29897 0.53185 0.46708
 H34 H 0.27775 0.52851 0.64479
 H35 H 0.31296 0.52812 0.71686
 H36 H 0.29872 0.45818 0.59888
 H37 H 0.26297 0.45825 0.52875
 H38 H 0.23126 0.53084 0.52884
 H39 H 0.19555 0.53088 0.59898
 H40 H 0.18131 0.46085 0.71668
 H41 H 0.21647 0.46048 0.64456
 H42 H 0.33531 0.53297 0.39725
 C43 C 0.50354 -0.24794 0.53893
 C44 C 0.50372 -0.24795 0.46173
 C45 C 0.50311 -0.26967 0.41773
 C46 C 0.50470 -0.22610 0.41752
 C47 C 0.50188 -0.22731 0.58244
 C48 C 0.50539 -0.26828 0.58353
 C49 C 0.52252 -0.26423 0.36357
 C50 C 0.52268 -0.28451 0.32341
 C51 C 0.50329 -0.31062 0.33623
 C52 C 0.48348 -0.31597 0.38927
 C53 C 0.48333 -0.29566 0.42939
 C54 C 0.52488 -0.20027 0.42886
 C55 C 0.52495 -0.17973 0.38941
 C56 C 0.50497 -0.18468 0.33736
 C57 C 0.48519 -0.21066 0.32464
 C58 C 0.48514 -0.23118 0.36414
 C59 C 0.48136 -0.22221 0.57015
 C60 C 0.48088 -0.20172 0.60820
 C61 C 0.50079 -0.18611 0.65976
 C62 C 0.52083 -0.19186 0.67372
 C63 C 0.52130 -0.21232 0.63562
 C64 C 0.48640 -0.28276 0.63799
 C65 C 0.48738 -0.30254 0.67860
 C66 C 0.50757 -0.30840 0.66610
 C67 C 0.52702 -0.29304 0.61236
 C68 C 0.52599 -0.27322 0.57211
 H69 H 0.53781 -0.24428 0.35327
 H70 H 0.53792 -0.27973 0.28201
 H71 H 0.46837 -0.33588 0.40077
 H72 H 0.46792 -0.30023 0.47006
 H73 H 0.54038 -0.19601 0.46901
 H74 H 0.54036 -0.15993 0.40080
 H75 H 0.46954 -0.25101 0.35417
 H76 H 0.46596 -0.23383 0.53017
 H77 H 0.46526 -0.19771 0.59592
 H78 H 0.53616 -0.18051 0.71415
 H79 H 0.53717 -0.21611 0.64634
 H80 H 0.47033 -0.27920 0.64764
 H81 H 0.47139 -0.31395 0.71688
 H82 H 0.54372 -0.29552 0.60256
 H83 H 0.54132 -0.26169 0.53186
 H84 H 0.46980 -0.21511 0.28396
 C85 C 1.24829 0.75203 0.53903
 C86 C 1.24854 0.75191 0.46183
 C87 C 1.27070 0.77266 0.41814
 C88 C 1.22659 0.73124 0.41731
 C89 C 1.22737 0.73018 0.58320
 C90 C 1.26899 0.77412 0.58302
 C91 C 1.26602 0.78723 0.36437
 C92 C 1.28676 0.80768 0.32558
 C93 C 1.31293 0.81410 0.33907
 C94 C 1.31721 0.79856 0.39177
 C95 C 1.29638 0.77812 0.43041
 C96 C 1.20083 0.72588 0.42811
 C97 C 1.18028 0.70588 0.38736
 C98 C 1.18515 0.69103 0.33453
 C99 C 1.21107 0.69693 0.32251
 C100 C 1.23159 0.71691 0.36330
 C101 C 1.22160 0.70435 0.57216
 C102 C 1.20131 0.68388 0.61230
 C103 C 1.18623 0.68866 0.66533
 C104 C 1.19285 0.71495 0.67722
 C105 C 1.21315 0.73533 0.63695
 C106 C 1.28362 0.76945 0.63658
 C107 C 1.30399 0.79017 0.67569
 C108 C 1.31022 0.81630 0.66278
 C109 C 1.29464 0.82057 0.61018
 C110 C 1.27431 0.79977 0.57120
 H111 H 1.24625 0.78302 0.35319
 H112 H 1.28187 0.81781 0.28343
 H113 H 1.33667 0.80272 0.40663
 H114 H 1.30036 0.76683 0.47113
 H115 H 1.19663 0.73704 0.46859
 H116 H 1.16053 0.70171 0.39824
 H117 H 1.25137 0.72094 0.35362
 H118 H 1.23261 0.69999 0.53153
 H119 H 1.19694 0.66429 0.59851
 H120 H 1.18306 0.72022 0.71937
 H121 H 1.21760 0.75521 0.64721
 H122 H 1.27951 0.74969 0.64736
 H123 H 1.31420 0.78530 0.71765
 H124 H 1.29869 0.84002 0.59568
 H125 H 1.26298 0.80374 0.53059
 H126 H 1.21549 0.68615 0.28128
 C127 C 0.75071 0.50116 0.53880
 C128 C 0.75067 0.50112 0.46157
 C129 C 0.77286 0.50277 0.41756
 C130 C 0.72856 0.49971 0.41756
 C131 C 0.73010 0.50274 0.58270
 C132 C 0.77150 0.49990 0.58280
 C133 C 0.79850 0.52324 0.42975
 C134 C 0.81938 0.52392 0.39067
 C135 C 0.81497 0.50431 0.33795
 C136 C 0.78917 0.48428 0.32420
 C137 C 0.76831 0.48358 0.36349
 C138 C 0.73329 0.51902 0.36370
 C139 C 0.71252 0.51873 0.32492
 C140 C 0.68663 0.49899 0.33898
 C141 C 0.68202 0.47922 0.39141
 C142 C 0.70281 0.47949 0.42999
 C143 C 0.71551 0.48362 0.63677
 C144 C 0.69518 0.48413 0.67566
 C145 C 0.68890 0.50395 0.66174
 C146 C 0.70442 0.52359 0.60864
 C147 C 0.72478 0.52303 0.57017
 C148 C 0.77721 0.47987 0.57036
 C149 C 0.79786 0.47976 0.60859
 C150 C 0.81329 0.49958 0.66132
 C151 C 0.80659 0.51910 0.67521
 C152 C 0.78599 0.51917 0.63657
 H153 H 0.80235 0.53856 0.47006
 H154 H 0.83897 0.53987 0.40140
 H155 H 0.78517 0.46879 0.28440
 H156 H 0.74865 0.46769 0.35309
 H157 H 0.75302 0.53474 0.35320
 H158 H 0.71668 0.53434 0.28537
 H159 H 0.69881 0.46409 0.47023
 H160 H 0.71934 0.46777 0.64721
 H161 H 0.68371 0.46805 0.71363
 H162 H 0.70163 0.54004 0.59793
 H163 H 0.73636 0.53843 0.53016
 H164 H 0.76574 0.46436 0.53052
 H165 H 0.80099 0.46352 0.59793
 H166 H 0.81797 0.53531 0.71286
 H167 H 0.78188 0.53484 0.64689
 H168 H 0.66234 0.46349 0.40237
 C169 C 0.49590 0.24835 0.53955
 C170 C 0.49624 0.24852 0.46235
 C171 C 0.49770 0.27065 0.41837
 C172 C 0.49499 0.22655 0.41815
 C173 C 0.49679 0.22745 0.58396
 C174 C 0.49468 0.26916 0.58332
 C175 C 0.47834 0.26595 0.36465
 C176 C 0.47869 0.28671 0.32572
 C177 C 0.49856 0.31258 0.33937
 C178 C 0.51839 0.31716 0.39158
 C179 C 0.51803 0.29637 0.43046
 C180 C 0.47458 0.20080 0.42911
 C181 C 0.47415 0.18021 0.38904
 C182 C 0.49401 0.18502 0.33676
 C183 C 0.51402 0.21093 0.32451
 C184 C 0.51444 0.23149 0.36461
 C185 C 0.51681 0.22163 0.57298
 C186 C 0.51694 0.20133 0.61322
 C187 C 0.49713 0.18636 0.66651
 C188 C 0.47751 0.19305 0.67844
 C189 C 0.47743 0.21331 0.63786
 C190 C 0.51408 0.28374 0.63671
 C191 C 0.51394 0.30424 0.67558
 C192 C 0.49417 0.31066 0.66259
 C193 C 0.47423 0.29514 0.61020
 C194 C 0.47448 0.27467 0.57146
 H195 H 0.46263 0.24622 0.35406
 H196 H 0.46342 0.28251 0.28483
 H197 H 0.53387 0.33687 0.40365
 H198 H 0.53339 0.30036 0.47084
 H199 H 0.45914 0.19665 0.46928
 H200 H 0.45856 0.16047 0.40007
 H201 H 0.53021 0.25126 0.35485
 H202 H 0.53240 0.23285 0.53314
 H203 H 0.53325 0.19820 0.60384
 H204 H 0.46128 0.18198 0.71630
 H205 H 0.46178 0.21752 0.64713
 H206 H 0.52963 0.27948 0.64752
 H207 H 0.52907 0.31439 0.71742
 H208 H 0.45893 0.29933 0.59565
 H209 H 0.45912 0.26339 0.53099
 H210 H 0.52933 0.21530 0.28367
 C211 C 0.75199 0.24842 0.53884
 C212 C 0.75181 0.24841 0.46163
 C213 C 0.73130 0.22616 0.41760
 C214 C 0.77236 0.27056 0.41750
 C215 C 0.77409 0.26929 0.58246
 C216 C 0.73024 0.22754 0.58335
 C217 C 0.72626 0.20056 0.42964
 C218 C 0.70640 0.17971 0.38944
 C219 C 0.69141 0.18411 0.33580
 C220 C 0.69699 0.20986 0.32250
 C221 C 0.71681 0.23069 0.36285
 C222 C 0.78715 0.26594 0.36415
 C223 C 0.80752 0.28675 0.32535
 C224 C 0.81336 0.31258 0.33878
 C225 C 0.79795 0.31706 0.39053
 C226 C 0.77756 0.29622 0.42928
 C227 C 0.76934 0.28377 0.63627
 C228 C 0.79003 0.30420 0.67534
 C229 C 0.81622 0.31071 0.66188
 C230 C 0.82057 0.29534 0.60888
 C231 C 0.79980 0.27487 0.57020
 C232 C 0.70430 0.22154 0.57176
 C233 C 0.68392 0.20123 0.61213
 C234 C 0.68914 0.18671 0.66536
 C235 C 0.71521 0.19325 0.67821
 C236 C 0.73556 0.21354 0.63779
 H237 H 0.73764 0.19673 0.47041
 H238 H 0.70289 0.16016 0.39992
 H239 H 0.68564 0.21386 0.28210
 H240 H 0.72050 0.25032 0.35252
 H241 H 0.78327 0.24625 0.35382
 H242 H 0.81872 0.28264 0.28481
 H243 H 0.76609 0.30013 0.46941
 H244 H 0.74958 0.27974 0.64648
 H245 H 0.78523 0.31556 0.71313
 H246 H 0.83990 0.29832 0.59848
 H247 H 0.80379 0.26339 0.53037
 H248 H 0.69982 0.23241 0.53088
 H249 H 0.66404 0.19656 0.60060
 H250 H 0.71989 0.18273 0.71976
 H251 H 0.75547 0.21804 0.64804
 H252 H 0.80205 0.33673 0.40240
 O253 O 0.96401 0.52102 -0.14168
 O254 O 0.93505 0.48652 -0.06829
 C255 C 0.94055 0.50353 -0.12161
 O256 O 1.03697 0.47680 -0.13063
 O257 O 1.06568 0.51316 -0.06297
 C258 C 1.06037 0.49470 -0.11131
 O259 O 0.96379 0.44209 -0.13801
 O260 O 0.93489 0.44834 -0.06662
 C261 C 0.94035 0.43635 -0.11851
 O262 O 1.03737 0.55941 -0.13347
 O263 O 1.06593 0.55220 -0.06324
 C264 C 1.06073 0.56504 -0.11306
 Zr265 Zr 1.00050 0.52858 -0.09711
 O266 O 1.00358 0.52991 -0.21658
 O267 O 0.99770 0.56295 -0.09699
 Zr268 Zr 1.00030 0.47125 -0.09464
 O269 O 1.00328 0.47214 -0.21412
 O270 O 0.99734 0.43404 -0.09134
 O271 O 0.97706 0.48825 -0.11103
 O272 O 1.02306 0.51115 -0.10943
 O273 O 1.03694 0.56023 0.12999
 O274 O 1.06574 0.55253 0.06298
 C275 C 1.06036 0.56573 0.11099
 O276 O 0.96341 0.44296 0.13986
 O277 O 0.93474 0.44879 0.06581
 C278 C 0.94003 0.43714 0.11924
 O279 O 1.03667 0.47734 0.13310
 O280 O 1.06565 0.51326 0.06422
 C281 C 1.06014 0.49495 0.11339
 O282 O 0.96368 0.52189 0.13641
 O283 O 0.93485 0.48693 0.06421
 C284 C 0.94026 0.50430 0.11636
 Zr285 Zr 1.00023 0.52913 0.09382
 O286 O 1.00301 0.53107 0.21337
 O287 O 0.99744 0.56348 0.09085
 Zr288 Zr 1.00005 0.47183 0.09642
 O289 O 1.00292 0.47377 0.21596
 O290 O 0.99696 0.43455 0.09735
 Zr291 Zr 0.96112 0.48071 -0.00091
 Zr292 Zr 1.03918 0.51953 0.00023
 O293 O 1.02282 0.51180 0.10942
 O294 O 0.97677 0.48891 0.10963
 O295 O 1.02375 0.54491 -0.00150
 O296 O 0.97737 0.45609 0.00077
 O297 O 0.97756 0.52160 -0.00213
 O298 O 1.02352 0.47870 0.00136
 H299 H 1.03483 0.51690 -0.15394
 H300 H 0.96553 0.43690 0.00124
 H301 H 1.03458 0.51779 0.15399
 H302 H 0.96579 0.52904 -0.00287
 H303 H 1.01254 0.43584 -0.06262
 H304 H 1.01157 0.43580 0.06685
 H305 H 0.98835 0.47583 0.23529
 H306 H 0.98863 0.51446 0.23350
 H307 H 1.01245 0.57672 0.06126
 H308 H 1.01283 0.57645 -0.06833
 H309 H 0.98935 0.51312 -0.23631
 H310 H 0.98901 0.47450 -0.23457
 O311 O 0.55742 0.52095 0.13911
 O312 O 0.55175 0.48653 0.06517
 C313 C 0.56329 0.50342 0.11873
 O314 O 0.44101 0.47817 0.13125
 O315 O 0.44829 0.51415 0.06207
 C316 C 0.43541 0.49596 0.11144
 O317 O 0.47912 0.44297 0.13789
 O318 O 0.51375 0.44869 0.06495
 C319 C 0.49663 0.43704 0.11787
 O320 O 0.52337 0.56007 0.13098
 O321 O 0.48743 0.55305 0.06189
 C322 C 0.50567 0.56584 0.11124
 Zr323 Zr 0.52926 0.52933 0.09312
 O324 O 0.53235 0.53322 0.21220
 O325 O 0.56538 0.56429 0.08001
 Zr326 Zr 0.47181 0.47216 0.09438
 O327 O 0.47058 0.47343 0.21399
 O328 O 0.43733 0.43508 0.09338
 O329 O 0.51207 0.48905 0.10874
 O330 O 0.48930 0.51215 0.10790
 O331 O 0.52394 0.56038 -0.13348
 O332 O 0.48783 0.55316 -0.06540
 C333 C 0.50628 0.56615 -0.11397
 O334 O 0.47863 0.44264 -0.13966
 O335 O 0.51353 0.44852 -0.06747
 C336 C 0.49615 0.43669 -0.11973
 O337 O 0.44044 0.47765 -0.13243
 O338 O 0.44803 0.51391 -0.06433
 C339 C 0.43489 0.49548 -0.11286
 O340 O 0.55798 0.52146 -0.14043
 O341 O 0.55182 0.48655 -0.06786
 C342 C 0.56371 0.50379 -0.12043
 Zr343 Zr 0.52891 0.52897 -0.09729
 O344 O 0.52702 0.53002 -0.21684
 O345 O 0.56605 0.56335 -0.09691
 Zr346 Zr 0.47153 0.47198 -0.09663
 O347 O 0.47007 0.47355 -0.21616
 O348 O 0.43710 0.43487 -0.09574
 Zr349 Zr 0.51975 0.48083 -0.00148
 Zr350 Zr 0.48097 0.52017 -0.00138
 O351 O 0.48893 0.51193 -0.11080
 O352 O 0.51178 0.48867 -0.11182
 O353 O 0.52181 0.54530 -0.00203
 O354 O 0.47884 0.45648 -0.00106
 O355 O 0.54458 0.52165 -0.00190
 O356 O 0.45559 0.47937 -0.00100
 H357 H 0.48347 0.51805 0.15245
 H358 H 0.47131 0.43726 -0.00085
 H359 H 0.48303 0.51787 -0.15522
 H360 H 0.56376 0.52885 -0.00171
 H361 H 0.42389 0.43684 0.06479
 H362 H 0.42400 0.43637 -0.06466
 H363 H 0.48649 0.47523 -0.23608
 H364 H 0.52535 0.51358 -0.23645
 H365 H 0.56522 0.57563 -0.06053
 H366 H 0.57195 0.57044 0.13188
 H367 H 0.51553 0.51960 0.23331
 H368 H 0.48730 0.47566 0.23341
 O369 O 0.52114 -0.03663 0.13662
 O370 O 0.48614 -0.06526 0.06420
 C371 C 0.50349 -0.05998 0.11639
 O372 O 0.47739 0.03690 0.13443
 O373 O 0.51333 0.06583 0.06551
 C374 C 0.49510 0.06036 0.11486
 O375 O 0.44260 -0.03641 0.14054
 O376 O 0.44817 -0.06513 0.06622
 C377 C 0.43665 -0.05980 0.11982
 O378 O 0.56002 0.03631 0.13065
 O379 O 0.55251 0.06538 0.06438
 C380 C 0.56567 0.05980 0.11208
 Zr381 Zr 0.52867 0.00001 0.09382
 O382 O 0.53156 0.00229 0.21330
 O383 O 0.56362 -0.00133 0.08327
 Zr384 Zr 0.47155 0.00023 0.09715
 O385 O 0.47351 0.00295 0.21671
 O386 O 0.43437 -0.00262 0.09800
 O387 O 0.48844 -0.02324 0.10992
 O388 O 0.51158 0.02278 0.10994
 O389 O 0.55916 0.03734 -0.13208
 O390 O 0.55193 0.06603 -0.06266
 C391 C 0.56482 0.06074 -0.11203
 O392 O 0.44150 -0.03574 -0.13738
 O393 O 0.44760 -0.06482 -0.06629
 C394 C 0.43564 -0.05923 -0.11806
 O395 O 0.47640 0.03732 -0.12972
 O396 O 0.51268 0.06587 -0.06151
 C397 C 0.49429 0.06067 -0.11007
 O398 O 0.52034 -0.03595 -0.14128
 O399 O 0.48563 -0.06491 -0.06848
 C400 C 0.50270 -0.05941 -0.12160
 Zr401 Zr 0.52799 0.00054 -0.09672
 O402 O 0.52903 0.00377 -0.21618
 O403 O 0.56251 -0.00196 -0.09736
 Zr404 Zr 0.47084 0.00063 -0.09383
 O405 O 0.47174 0.00375 -0.21330
 O406 O 0.43370 -0.00214 -0.09044
 Zr407 Zr 0.48007 -0.03880 -0.00063
 Zr408 Zr 0.51930 0.03935 0.00097
 O409 O 0.51077 0.02332 -0.10872
 O410 O 0.48763 -0.02273 -0.11062
 O411 O 0.54443 0.02367 -0.00108
 O412 O 0.45563 -0.02235 0.00146
 O413 O 0.52091 -0.02264 -0.00205
 O414 O 0.47847 0.02382 0.00229
 H415 H 0.51766 0.03441 0.15477
 H416 H 0.43642 -0.03411 0.00197
 H417 H 0.51656 0.03516 -0.15309
 H418 H 0.52825 -0.03449 -0.00293
 H419 H 0.43580 0.01228 0.06852
 H420 H 0.43553 0.01292 -0.06096
 H421 H 0.47396 -0.01059 -0.23386
 H422 H 0.51240 -0.01072 -0.23588
 H423 H 0.57452 0.01066 -0.05942
 H424 H 0.56960 -0.00154 0.13555
 H425 H 0.51430 -0.01074 0.23375
 H426 H 0.47546 -0.01170 0.23594
 C427 C 1.12058 0.49278 0.21816
 C428 C 1.11593 0.47822 0.28430
 C429 C 1.13650 0.47774 0.32202
 C430 C 1.16259 0.49200 0.29465
 C431 C 1.16660 0.50645 0.22670
 C432 C 1.14590 0.50678 0.18935
 C433 C 1.09938 0.49356 0.18040
 C434 C 1.08153 0.49422 0.14942
 H435 H 1.09637 0.46747 0.30758
 H436 H 1.13159 0.46719 0.37494
 H437 H 1.18539 0.51674 0.19911
 H438 H 1.14967 0.51791 0.13748
 C439 C 0.50511 0.62672 0.21800
 C440 C 0.48130 0.62596 0.22950
 C441 C 0.48067 0.64635 0.26774
 C442 C 0.50389 0.66780 0.29497
 C443 C 0.52774 0.66839 0.28292
 C444 C 0.52832 0.64797 0.24471
 C445 C 0.50565 0.60551 0.17969
 C446 C 0.50587 0.58754 0.14812
 H447 H 0.46321 0.60960 0.20897
 H448 H 0.46206 0.64547 0.27532
 H449 H 0.54590 0.68444 0.30412
 H450 H 0.54684 0.64870 0.23643
 C451 C 0.37639 -0.12146 0.22800
 C452 C 0.35264 -0.12208 0.23745
 C453 C 0.33176 -0.14324 0.27366
 C454 C 0.33414 -0.16444 0.30153
 C455 C 0.35845 -0.16336 0.29127
 C456 C 0.37925 -0.14213 0.25488
 C457 C 0.39777 -0.09965 0.19035
 C458 C 0.41557 -0.08140 0.15842
 H459 H 0.35029 -0.10604 0.21733
 H460 H 0.31421 -0.14216 0.28217
 H461 H 0.36140 -0.17926 0.30840
 H462 H 0.39753 -0.14196 0.24720
 C463 C 0.87925 0.50437 0.22387
 C464 C 0.88126 0.51089 0.30066
 C465 C 0.86041 0.51098 0.33768
 C466 C 0.83723 0.50453 0.29830
 C467 C 0.83540 0.49802 0.22108
 C468 C 0.85630 0.49797 0.18414
 C469 C 0.90074 0.50427 0.18590
 C470 C 0.91877 0.50424 0.15416
 H471 H 0.89891 0.51580 0.33199
 H472 H 0.86225 0.51570 0.39740
 H473 H 0.81794 0.49326 0.18906
 H474 H 0.85457 0.49297 0.12462
 C475 C 0.49769 0.37667 0.22660
 C476 C 0.52132 0.37690 0.23663
 C477 C 0.52165 0.35607 0.27322
 C478 C 0.49831 0.33470 0.30016
 C479 C 0.47468 0.33469 0.28983
 C480 C 0.47439 0.35554 0.25329
 C481 C 0.49731 0.39803 0.18863
 C482 C 0.49696 0.41586 0.15654
 H483 H 0.53946 0.39314 0.21598
 H484 H 0.54010 0.35651 0.27957
 H485 H 0.45645 0.31873 0.31093
 H486 H 0.45601 0.35520 0.24601
 C487 C 0.62792 0.12015 0.21812
 C488 C 0.64461 0.14326 0.17937
 C489 C 0.66539 0.16401 0.21740
 C490 C 0.66975 0.16189 0.29476
 C491 C 0.65295 0.13850 0.33303
 C492 C 0.63218 0.11780 0.29492
 C493 C 0.60620 0.09896 0.17957
 C494 C 0.58779 0.08112 0.14820
 H495 H 0.64151 0.14527 0.11987
 H496 H 0.67816 0.18164 0.18618
 H497 H 0.65556 0.13640 0.39279
 H498 H 0.61932 0.10003 0.32553
 C499 C 0.49538 0.12245 -0.21665
 C500 C 0.48337 0.13544 -0.18520
 C501 C 0.48401 0.15653 -0.22319
 C502 C 0.49679 0.16517 -0.29392
 C503 C 0.50897 0.15177 -0.32433
 C504 C 0.50821 0.13069 -0.28610
 C505 C 0.49459 0.10062 -0.17791
 C506 C 0.49421 0.08234 -0.14637
 H507 H 0.47359 0.12938 -0.13095
 H508 H 0.47522 0.16647 -0.19501
 H509 H 0.51820 0.15657 -0.37933
 H510 H 0.51745 0.12062 -0.31125
 C511 C 0.62481 0.50367 -0.22732
 C512 C 0.63354 0.51614 -0.29709
 C513 C 0.65465 0.51637 -0.33347
 C514 C 0.66758 0.50400 -0.30081
 C515 C 0.65837 0.49151 -0.22998
 C516 C 0.63727 0.49140 -0.19384
 C517 C 0.60313 0.50357 -0.18990
 C518 C 0.58505 0.50360 -0.15837
 H519 H 0.62388 0.52555 -0.32383
 H520 H 0.65989 0.52537 -0.38876
 H521 H 0.66790 0.48257 -0.20023
 H522 H 0.63081 0.48188 -0.13934
 C523 C 0.87952 0.37498 -0.22594
 C524 C 0.85473 0.36231 -0.19298
 C525 C 0.83391 0.34115 -0.22951
 C526 C 0.83742 0.33208 -0.30025
 C527 C 0.86278 0.34520 -0.33236
 C528 C 0.88350 0.36637 -0.29558
 C529 C 0.90093 0.39674 -0.18817
 C530 C 0.91891 0.41489 -0.15646
 H531 H 0.85149 0.36868 -0.13858
 H532 H 0.81539 0.33147 -0.20013
 H533 H 0.86672 0.34006 -0.38753
 H534 H 0.90262 0.37618 -0.32191
 C535 C 0.50146 -0.12088 -0.23028
 C536 C 0.52476 -0.11867 -0.25716
 C537 C 0.52453 -0.13988 -0.29285
 C538 C 0.50096 -0.16364 -0.30212
 C539 C 0.47761 -0.16564 -0.27510
 C540 C 0.47790 -0.14439 -0.23936
 C541 C 0.50184 -0.09910 -0.19268
 C542 C 0.50224 -0.08090 -0.16063
 H543 H 0.54310 -0.10054 -0.25057
 H544 H 0.54275 -0.13759 -0.31406
 H545 H 0.45921 -0.18375 -0.28067
 H546 H 0.45976 -0.14634 -0.21851
 C547 C 0.37278 0.49426 -0.21781
 C548 C 0.34953 0.47060 -0.22911
 C549 C 0.32865 0.47023 -0.26759
 C550 C 0.33077 0.49356 -0.29523
 C551 C 0.35420 0.51724 -0.28329
 C552 C 0.37505 0.51756 -0.24487
 C553 C 0.39449 0.49460 -0.17972
 C554 C 0.41285 0.49497 -0.14866
 H555 H 0.34757 0.45245 -0.20836
 H556 H 0.31076 0.45175 -0.27512
 H557 H 0.35657 0.53547 -0.30481
 H558 H 0.39301 0.53596 -0.23677
 C559 C 1.12251 0.62610 -0.21842
 C560 C 1.14299 0.62303 -0.24578
 C561 C 1.16400 0.64356 -0.28369
 C562 C 1.16505 0.66779 -0.29516
 C563 C 1.14411 0.67045 -0.26649
 C564 C 1.12315 0.64983 -0.22874
 C565 C 1.10070 0.60477 -0.18059
 C566 C 1.08242 0.58675 -0.14944
 H567 H 1.14279 0.60476 -0.23755
 H568 H 1.17974 0.64043 -0.30125
 H569 H 1.14302 0.68796 -0.27569
 H570 H 1.10724 0.65234 -0.20836
 C571 C 0.87856 0.50172 -0.22920
 C572 C 0.86976 0.48898 -0.29859
 C573 C 0.84822 0.48810 -0.33445
 C574 C 0.83495 0.50006 -0.30163
 C575 C 0.84420 0.51276 -0.23109
 C576 C 0.86571 0.51353 -0.19549
 C577 C 0.90066 0.50252 -0.19217
 C578 C 0.91901 0.50309 -0.16046
 H579 H 0.87968 0.47988 -0.32544
 H580 H 0.84292 0.47893 -0.38951
 H581 H 0.83442 0.52137 -0.20115
 H582 H 0.87221 0.52320 -0.14122
 C583 C 0.49531 0.37510 -0.22621
 C584 C 0.51847 0.37455 -0.23613
 C585 C 0.51813 0.35336 -0.27230
 C586 C 0.49449 0.33211 -0.29969
 C587 C 0.47126 0.33312 -0.28882
 C588 C 0.47174 0.35435 -0.25247
 C589 C 0.49572 0.39694 -0.18892
 C590 C 0.49599 0.41516 -0.15750
 H591 H 0.53689 0.39065 -0.21646
 H592 H 0.53676 0.35447 -0.28122
 H593 H 0.45237 0.31717 -0.30547
 H594 H 0.45362 0.35448 -0.24440
 C595 C 0.62609 0.12235 -0.21706
 C596 C 0.62555 0.14552 -0.22845
 C597 C 0.64608 0.16651 -0.26638
 C598 C 0.66746 0.16460 -0.29340
 C599 C 0.66786 0.14124 -0.28138
 C600 C 0.64730 0.12027 -0.24349
 C601 C 0.60471 0.10059 -0.17930
 C602 C 0.58662 0.08235 -0.14825
 H603 H 0.60923 0.14733 -0.20815
 H604 H 0.64536 0.18433 -0.27396
 H605 H 0.68385 0.13903 -0.30244
 H606 H 0.64786 0.10238 -0.23529
 C607 C 1.12169 0.49481 -0.21733
 C608 C 1.14493 0.51845 -0.22882
 C609 C 1.16574 0.51880 -0.26748
 C610 C 1.16356 0.49546 -0.29514
 C611 C 1.14013 0.47179 -0.28306
 C612 C 1.11935 0.47150 -0.24443
 C613 C 1.10009 0.49455 -0.17896
 C614 C 1.08194 0.49447 -0.14758
 H615 H 1.14694 0.53662 -0.20804
 H616 H 1.18363 0.53728 -0.27510
 H617 H 1.13771 0.45356 -0.30459
 H618 H 1.10139 0.45311 -0.23619
 C619 C 0.50808 0.62863 -0.21823
 C620 C 0.49562 0.64108 -0.18609
 C621 C 0.49558 0.66190 -0.22360
 C622 C 0.50809 0.67082 -0.29456
 C623 C 0.52081 0.65803 -0.32556
 C624 C 0.52073 0.63720 -0.28781
 C625 C 0.50755 0.60677 -0.18050
 C626 C 0.50701 0.58830 -0.14968
 H627 H 0.48593 0.63472 -0.13180
 H628 H 0.48642 0.67140 -0.19497
 H629 H 0.52990 0.66307 -0.38075
 H630 H 0.53027 0.62752 -0.31356
 C631 C 0.37426 -0.12011 -0.22523
 C632 C 0.35341 -0.11750 -0.25176
 C633 C 0.33231 -0.13836 -0.28836
 C634 C 0.33153 -0.16248 -0.29923
 C635 C 0.35288 -0.16465 -0.27154
 C636 C 0.37394 -0.14370 -0.23513
 C637 C 0.39597 -0.09859 -0.18770
 C638 C 0.41413 -0.08059 -0.15608
 H639 H 0.35336 -0.09934 -0.24372
 H640 H 0.31626 -0.13558 -0.30523
 H641 H 0.35417 -0.18207 -0.28043
 H642 H 0.39012 -0.14587 -0.21527
 C643 C 0.50383 -0.12104 0.22288
 C644 C 0.48057 -0.14208 0.25017
 C645 C 0.48091 -0.16284 0.28708
 C646 C 0.50457 -0.16280 0.29721
 C647 C 0.52784 -0.14158 0.26940
 C648 C 0.52744 -0.12085 0.23246
 C649 C 0.50352 -0.09959 0.18534
 C650 C 0.50340 -0.08154 0.15390
 H651 H 0.46219 -0.14237 0.24326
 H652 H 0.46274 -0.17872 0.30878
 H653 H 0.54629 -0.14114 0.27554
 H654 H 0.54555 -0.10468 0.21135
 C655 C 0.37456 0.49663 0.21804
 C656 C 0.37698 0.50348 0.29463
 C657 C 0.35639 0.50391 0.33228
 C658 C 0.33307 0.49746 0.29373
 C659 C 0.33087 0.49070 0.21663
 C660 C 0.35150 0.49031 0.17907
 C661 C 0.39577 0.49613 0.17965
 C662 C 0.41374 0.49589 0.14812
 H663 H 0.39473 0.50838 0.32537
 H664 H 0.35854 0.50883 0.39187
 H665 H 0.31330 0.48594 0.18520
 H666 H 0.34947 0.48508 0.11969
 C667 C 1.12151 0.62755 0.21589
 C668 C 1.12157 0.65104 0.22680
 C669 C 1.14231 0.67177 0.26506
 C670 C 1.16327 0.66923 0.29288
 C671 C 1.16305 0.64556 0.28131
 C672 C 1.14230 0.62488 0.24310
 C673 C 1.09995 0.60601 0.17793
 C674 C 1.08187 0.58774 0.14691
 H675 H 1.10558 0.65332 0.20589
 H676 H 1.14207 0.68984 0.27231
 H677 H 1.17870 0.64287 0.30298
 H678 H 1.14238 0.60673 0.23529
 C679 C 0.49428 0.12132 0.22019
 C680 C 0.51766 0.14214 0.24771
 C681 C 0.51758 0.16290 0.28530
 C682 C 0.49407 0.16310 0.29594
 C683 C 0.47067 0.14209 0.26791
 C684 C 0.47080 0.12135 0.23025
 C685 C 0.49441 0.09981 0.18244
 C686 C 0.49466 0.08180 0.15131
 H687 H 0.53593 0.14226 0.24050
 H688 H 0.53585 0.17859 0.30717
 H689 H 0.45231 0.14183 0.27445
 H690 H 0.45259 0.10533 0.20907
 C691 C 0.62299 0.50098 0.22712
 C692 C 0.62096 0.49415 0.30368
 C693 C 0.64157 0.49331 0.33996
 C694 C 0.66451 0.49931 0.30003
 C695 C 0.66631 0.50603 0.22299
 C696 C 0.64567 0.50684 0.18682
 C697 C 0.60185 0.50195 0.18976
 C698 C 0.58421 0.50272 0.15779
 H699 H 0.60350 0.48961 0.33542
 H700 H 0.63975 0.48841 0.39956
 H701 H 0.68358 0.51044 0.19054
 H702 H 0.64740 0.51205 0.12744
 C703 C 0.87839 0.37685 0.22718
 C704 C 0.88064 0.35582 0.25444
 C705 C 0.85948 0.33492 0.29059
 C706 C 0.83574 0.33476 0.29994
 C707 C 0.83368 0.35602 0.27246
 C708 C 0.85488 0.37692 0.23625
 C709 C 0.90017 0.39825 0.18954
 C710 C 0.91841 0.41606 0.15770
 H711 H 0.89877 0.35561 0.24788
 H712 H 0.86180 0.31903 0.31215
 H713 H 0.81559 0.35633 0.27810
 H714 H 0.85292 0.39307 0.21513
   
