data_POSCAR
  _audit_creation_date              2014-09-24
  _audit_creation_method            'ToBaCCo'
  _symmetry_space_group_name_H-M    'P1'
  _symmetry_Int_Tables_number       1
  _symmetry_cell_setting            triclinic
  loop_
  _symmetry_equiv_pos_as_xyz
 x,y,z
_cell_length_a 49.1854
_cell_length_b 48.6078
_cell_length_c 20.5451
_cell_angle_alpha 90.103000
_cell_angle_beta 89.846300
_cell_angle_gamma 121.044800
loop_
  _atom_site_label
  _atom_site_type_symbol
  _atom_site_fract_x
  _atom_site_fract_y
  _atom_site_fract_z
C1 C 0.17440 0.49532 0.50142
 C2 C 0.18333 0.48750 0.44227
 C3 C 0.20642 0.47855 0.44424
 C4 C 0.22246 0.48029 0.50258
 C5 C 0.21315 0.48894 0.56037
 C6 C 0.18842 0.49543 0.56107
 C7 C 0.24970 0.47448 0.50304
 C8 C 0.25911 0.46606 0.56112
 C9 C 0.28618 0.46336 0.56283
 C10 C 0.30297 0.46718 0.50513
 C11 C 0.29378 0.47472 0.44663
 C12 C 0.26762 0.47886 0.44604
 H13 H 0.15407 0.49827 0.50167
 H14 H 0.21282 0.47150 0.39971
 H15 H 0.22610 0.49221 0.60487
 H16 H 0.24569 0.46155 0.60562
 H17 H 0.32381 0.46499 0.50598
 H18 H 0.26239 0.48677 0.40119
 C19 C 0.55653 -0.29541 0.49709
 C20 C 0.55834 -0.28038 0.43749
 C21 C 0.55606 -0.25266 0.43858
 C22 C 0.54972 -0.24132 0.49679
 C23 C 0.54593 -0.25856 0.55476
 C24 C 0.55068 -0.28476 0.55626
 C25 C 0.54775 -0.21132 0.49725
 C26 C 0.55149 -0.19407 0.55563
 C27 C 0.54998 -0.16599 0.55581
 C28 C 0.54663 -0.15382 0.49676
 C29 C 0.54349 -0.16987 0.43822
 C30 C 0.54272 -0.19910 0.43895
 H31 H 0.55627 -0.31778 0.49686
 H32 H 0.56067 -0.23934 0.39393
 H33 H 0.54039 -0.25100 0.59956
 H34 H 0.55625 -0.20155 0.60144
 H35 H 0.54552 -0.13211 0.49639
 H36 H 0.53860 -0.21168 0.39334
 C37 C 1.29818 0.84445 0.50876
 C38 C 1.28219 0.83567 0.44864
 C39 C 1.25081 0.80903 0.44757
 C40 C 1.23610 0.79076 0.50430
 C41 C 1.25342 0.80006 0.56294
 C42 C 1.28404 0.82698 0.56549
 C43 C 1.20322 0.76164 0.50224
 C44 C 1.18450 0.74990 0.55936
 C45 C 1.15458 0.72121 0.55928
 C46 C 1.14271 0.70552 0.49928
 C47 C 1.16054 0.71690 0.44195
 C48 C 1.19073 0.74455 0.44371
 H49 H 1.32244 0.86426 0.51191
 H50 H 1.23742 0.80343 0.40294
 H51 H 1.24383 0.78609 0.60689
 H52 H 1.19272 0.76358 0.60389
 H53 H 1.12021 0.68313 0.49679
 H54 H 1.20470 0.75168 0.39952
 C55 C 0.82476 0.51075 0.49948
 C56 C 0.81020 0.50945 0.44032
 C57 C 0.78328 0.51233 0.44015
 C58 C 0.77156 0.51830 0.49822
 C59 C 0.78786 0.52104 0.55692
 C60 C 0.81346 0.51591 0.55798
 C61 C 0.74170 0.51989 0.49765
 C62 C 0.72378 0.51493 0.55524
 C63 C 0.69449 0.51375 0.55438
 C64 C 0.68262 0.51618 0.49381
 C65 C 0.69967 0.52095 0.43629
 C66 C 0.72964 0.52433 0.43872
 H67 H 0.84543 0.50827 0.50005
 H68 H 0.77133 0.50880 0.39423
 H69 H 0.78061 0.52636 0.60252
 H70 H 0.73133 0.50987 0.60053
 H71 H 0.66053 0.51593 0.49063
 H72 H 0.74270 0.52947 0.39366
 C73 C 0.45937 0.30370 0.50442
 C74 C 0.45542 0.28780 0.44546
 C75 C 0.45191 0.25738 0.44529
 C76 C 0.45565 0.24385 0.50309
 C77 C 0.45984 0.26070 0.56226
 C78 C 0.46122 0.29044 0.56382
 C79 C 0.45780 0.21393 0.50065
 C80 C 0.45529 0.19636 0.55779
 C81 C 0.46176 0.17119 0.55686
 C82 C 0.46719 0.16143 0.49615
 C83 C 0.46838 0.17727 0.43874
 C84 C 0.46455 0.20379 0.44131
 H85 H 0.45979 0.32618 0.50324
 H86 H 0.44742 0.24526 0.39905
 H87 H 0.46436 0.25221 0.60695
 H88 H 0.44992 0.20320 0.60368
 H89 H 0.46929 0.14038 0.49249
 H90 H 0.46802 0.21670 0.39647
 C91 C 0.69921 0.15650 0.50595
 C92 C 0.71584 0.16500 0.44696
 C93 C 0.74737 0.19069 0.44560
 C94 C 0.76211 0.20921 0.50197
 C95 C 0.74441 0.20024 0.56063
 C96 C 0.71337 0.17365 0.56302
 C97 C 0.79542 0.23785 0.49924
 C98 C 0.81378 0.25057 0.55636
 C99 C 0.84449 0.27822 0.55486
 C100 C 0.85773 0.29140 0.49361
 C101 C 0.84038 0.27897 0.43615
 C102 C 0.80908 0.25309 0.43947
 H103 H 0.67497 0.13642 0.50747
 H104 H 0.76014 0.19555 0.40019
 H105 H 0.75400 0.21404 0.60470
 H106 H 0.80474 0.23843 0.60221
 H107 H 0.88077 0.31311 0.48997
 H108 H 0.79570 0.24522 0.39477
 N109 N 0.95851 0.52340 0.07080
 N110 N 0.93427 0.52691 0.08563
 N111 N 1.02735 0.54665 0.11454
 N112 N 1.04882 0.56396 0.15868
 N113 N 1.02485 0.56517 0.07151
 N114 N 1.04460 0.59580 0.08556
 N115 N 0.96125 0.50501 0.11380
 N116 N 0.93903 0.49545 0.15875
 C117 C 0.92217 0.50885 0.14002
 C118 C 1.05958 0.59441 0.13961
 N119 N 1.03896 0.47524 0.06663
 N120 N 1.06226 0.47026 0.08144
 N121 N 0.96976 0.45092 0.11065
 N122 N 0.94912 0.43253 0.15534
 N123 N 0.97271 0.43343 0.06556
 N124 N 0.95412 0.40250 0.07868
 N125 N 1.03589 0.49259 0.11186
 N126 N 1.05700 0.49999 0.15830
 Mn127 Mn 0.99855 0.49881 0.11311
 C128 C 1.07355 0.48642 0.13817
 C129 C 0.93924 0.40252 0.13426
 N130 N 1.02497 0.56682 -0.06941
 N131 N 1.04231 0.59770 -0.08405
 N132 N 0.96166 0.50753 -0.11533
 N133 N 0.94051 0.50026 -0.16162
 N134 N 0.95883 0.52504 -0.07004
 N135 N 0.93564 0.53019 -0.08460
 N136 N 1.02779 0.54937 -0.11483
 N137 N 1.04717 0.56786 -0.16121
 Mn138 Mn 0.99175 0.54541 0.00081
 C139 C 1.05647 0.59785 -0.14076
 C140 C 0.92417 0.51404 -0.14123
 N141 N 0.97327 0.43499 -0.07525
 N142 N 0.95594 0.40439 -0.09191
 N143 N 1.03649 0.49528 -0.11743
 N144 N 1.05949 0.50600 -0.16082
 N145 N 1.03943 0.47711 -0.07416
 N146 N 1.06458 0.47489 -0.08723
 N147 N 0.97039 0.45319 -0.11858
 N148 N 0.95103 0.43547 -0.16567
 Mn149 Mn 1.00615 0.45491 -0.00438
 Mn150 Mn 0.99905 0.50130 -0.11698
 Cl151 Cl 0.99885 0.50009 -0.00193
 C152 C 0.94179 0.40516 -0.14769
 C153 C 1.07695 0.49345 -0.14091
 N154 N 0.46195 0.43393 0.07307
 N155 N 0.45180 0.40374 0.08866
 N156 N 0.45379 0.49050 0.11672
 N157 N 0.44016 0.49853 0.16203
 N158 N 0.43274 0.47070 0.07444
 N159 N 0.40406 0.46466 0.09013
 N160 N 0.48276 0.45360 0.11584
 N161 N 0.48744 0.43743 0.16136
 C162 C 0.46839 0.40652 0.14325
 C163 C 0.40936 0.48267 0.14428
 N164 N 0.53491 0.56684 0.06648
 N165 N 0.54683 0.59749 0.08090
 N166 N 0.54409 0.51133 0.11099
 N167 N 0.55931 0.50522 0.15588
 N168 N 0.56369 0.52969 0.06509
 N169 N 0.59295 0.53673 0.07790
 N170 N 0.51528 0.54842 0.11231
 N171 N 0.51330 0.56602 0.15891
 Mn172 Mn 0.49895 0.50097 0.11440
 C173 C 0.53256 0.59644 0.13800
 C174 C 0.58954 0.52077 0.13417
 N175 N 0.43010 0.46867 -0.06629
 N176 N 0.40044 0.45967 -0.08073
 N177 N 0.47901 0.45113 -0.11364
 N178 N 0.48444 0.43453 -0.15691
 N179 N 0.45980 0.43227 -0.06781
 N180 N 0.45145 0.40206 -0.07904
 N181 N 0.44951 0.48754 -0.11194
 N182 N 0.43361 0.49187 -0.15837
 Mn183 Mn 0.44581 0.45104 0.00341
 C184 C 0.40323 0.47495 -0.13757
 C185 C 0.46743 0.40417 -0.13452
 N186 N 0.56111 0.52786 -0.07579
 N187 N 0.58953 0.53289 -0.09069
 N188 N 0.51098 0.54557 -0.11623
 N189 N 0.50612 0.56198 -0.16094
 N190 N 0.53221 0.56502 -0.07385
 N191 N 0.54240 0.59527 -0.08875
 N192 N 0.54000 0.50867 -0.11858
 N193 N 0.55329 0.49996 -0.16338
 Mn194 Mn 0.54833 0.54764 -0.00462
 Mn195 Mn 0.49485 0.49828 -0.11553
 Cl196 Cl 0.49696 0.49950 -0.00055
 C197 C 0.58397 0.51489 -0.14499
 C198 C 0.52539 0.59279 -0.14242
 N199 N 0.43269 -0.03458 0.07137
 N200 N 0.40272 -0.05413 0.08823
 N201 N 0.48653 0.03253 0.11631
 N202 N 0.49373 0.05490 0.16053
 N203 N 0.46747 0.03295 0.07217
 N204 N 0.46107 0.05567 0.08546
 N205 N 0.45180 -0.03496 0.11545
 N206 N 0.43534 -0.05480 0.16317
 C207 C 0.40487 -0.06710 0.14477
 C208 C 0.47804 0.06931 0.14026
 N209 N 0.56417 0.03275 0.07108
 N210 N 0.59407 0.05249 0.08788
 N211 N 0.51035 -0.03508 0.11400
 N212 N 0.50455 -0.05680 0.15884
 N213 N 0.52977 -0.03469 0.06945
 N214 N 0.53776 -0.05617 0.08304
 N215 N 0.54491 0.03237 0.11600
 N216 N 0.56118 0.05192 0.16419
 Mn217 Mn 0.49838 -0.00132 0.11585
 C218 C 0.59167 0.06475 0.14528
 C219 C 0.52127 -0.07012 0.13819
 N220 N 0.46722 0.03317 -0.06867
 N221 N 0.45866 0.05413 -0.08349
 N222 N 0.45231 -0.03425 -0.11372
 N223 N 0.43649 -0.05670 -0.15761
 N224 N 0.43299 -0.03436 -0.06928
 N225 N 0.40335 -0.05697 -0.08196
 N226 N 0.48640 0.03320 -0.11332
 N227 N 0.49154 0.05420 -0.15933
 Mn228 Mn 0.44980 -0.00068 0.00137
 C229 C 0.47460 0.06740 -0.13951
 C230 C 0.40618 -0.07087 -0.13669
 N231 N 0.53026 -0.03391 -0.07110
 N232 N 0.54001 -0.05371 -0.08783
 N233 N 0.54492 0.03351 -0.11402
 N234 N 0.56073 0.05578 -0.15829
 N235 N 0.56427 0.03365 -0.06989
 N236 N 0.59394 0.05606 -0.08330
 N237 N 0.51102 -0.03397 -0.11538
 N238 N 0.50716 -0.05381 -0.16324
 Mn239 Mn 0.54740 -0.00052 -0.00011
 Mn240 Mn 0.49862 -0.00041 -0.11455
 Cl241 Cl 0.49855 -0.00074 0.00066
 C242 C 0.52480 -0.06642 -0.14464
 C243 C 0.59110 0.06988 -0.13804
 C244 C 1.13565 0.48809 0.27033
 C245 C 1.14757 0.46749 0.27449
 C246 C 1.16432 0.46784 0.33005
 C247 C 1.16879 0.48839 0.38311
 C248 C 1.15760 0.50983 0.37631
 C249 C 1.14127 0.50958 0.32084
 C250 C 1.11543 0.48612 0.21766
 C251 C 1.09701 0.48568 0.17839
 H252 H 1.14314 0.45053 0.23576
 H253 H 1.17183 0.45051 0.33257
 H254 H 1.16181 0.52742 0.41343
 H255 H 1.13242 0.52586 0.31799
 C256 C 0.55508 0.66878 0.26696
 C257 C 0.57188 0.66853 0.32136
 C258 C 0.57466 0.68680 0.37613
 C259 C 0.56043 0.70571 0.37809
 C260 C 0.54578 0.70777 0.32059
 C261 C 0.54279 0.68911 0.26589
 C262 C 0.54771 0.64542 0.21629
 C263 C 0.54098 0.62393 0.17817
 H264 H 0.58185 0.65319 0.32252
 H265 H 0.58785 0.68574 0.41715
 H266 H 0.53416 0.72154 0.31921
 H267 H 0.52961 0.68942 0.22402
 C268 C 0.33582 -0.11590 0.28034
 C269 C 0.31028 -0.14750 0.27523
 C270 C 0.29131 -0.16307 0.32979
 C271 C 0.29808 -0.14745 0.39096
 C272 C 0.32284 -0.11492 0.39373
 C273 C 0.34144 -0.09949 0.33922
 C274 C 0.35802 -0.10051 0.22765
 C275 C 0.37854 -0.08608 0.18756
 H276 H 0.30572 -0.16049 0.22978
 H277 H 0.27297 -0.18806 0.32462
 H278 H 0.32800 -0.10099 0.43796
 H279 H 0.36085 -0.07484 0.34358
 C280 C 0.85697 0.50394 0.26877
 C281 C 0.85030 0.48254 0.32027
 C282 C 0.83378 0.48333 0.37489
 C283 C 0.82370 0.50558 0.37877
 C284 C 0.82909 0.52595 0.32551
 C285 C 0.84583 0.52526 0.27089
 C286 C 0.87816 0.50604 0.21798
 C287 C 0.89750 0.50757 0.17970
 H288 H 0.85892 0.46604 0.31929
 H289 H 0.82963 0.46714 0.41493
 H290 H 0.82178 0.54348 0.32754
 H291 H 0.85110 0.54212 0.23157
 C292 C 0.46075 0.34020 0.27343
 C293 C 0.43563 0.30840 0.28054
 C294 C 0.43415 0.29057 0.33556
 C295 C 0.45756 0.30471 0.38403
 C296 C 0.48309 0.33625 0.37523
 C297 C 0.48465 0.35380 0.32041
 C298 C 0.46140 0.36050 0.22180
 C299 C 0.46374 0.38024 0.18315
 H300 H 0.41687 0.29772 0.24463
 H301 H 0.41426 0.26631 0.34145
 H302 H 0.50162 0.34750 0.41152
 H303 H 0.50413 0.37838 0.31557
 C304 C 0.66136 0.11530 0.27815
 C305 C 0.66082 0.09801 0.33302
 C306 C 0.67973 0.11403 0.38684
 C307 C 0.69946 0.14765 0.38655
 C308 C 0.70102 0.16475 0.33007
 C309 C 0.68193 0.14865 0.27624
 C310 C 0.63858 0.09890 0.22710
 C311 C 0.61793 0.08400 0.18773
 H312 H 0.64495 0.07221 0.33510
 H313 H 0.67831 0.10024 0.42943
 H314 H 0.71578 0.19068 0.32881
 H315 H 0.68239 0.16230 0.23421
 C316 C 0.46738 0.12460 -0.27307
 C317 C 0.48548 0.12785 -0.32800
 C318 C 0.48381 0.14346 -0.38312
 C319 C 0.46377 0.15634 -0.38520
 C320 C 0.44640 0.15391 -0.32821
 C321 C 0.44800 0.13788 -0.27284
 C322 C 0.46819 0.10600 -0.21949
 C323 C 0.47042 0.08902 -0.17984
 H324 H 0.50084 0.11797 -0.32853
 H325 H 0.49919 0.14612 -0.42344
 H326 H 0.43024 0.16275 -0.32696
 H327 H 0.43369 0.13531 -0.23053
 C328 C 0.64319 0.51021 -0.27623
 C329 C 0.67602 0.52336 -0.27260
 C330 C 0.69294 0.52318 -0.32755
 C331 C 0.67729 0.51045 -0.38754
 C332 C 0.64391 0.49585 -0.38878
 C333 C 0.62721 0.49582 -0.33392
 C334 C 0.62537 0.51287 -0.22344
 C335 C 0.60782 0.51437 -0.18443
 H336 H 0.68866 0.53464 -0.22808
 H337 H 0.71849 0.53506 -0.32376
 H338 H 0.63029 0.48396 -0.43192
 H339 H 0.60171 0.48513 -0.33705
 C340 C 0.89300 0.33271 -0.27786
 C341 C 0.91013 0.33271 -0.33216
 C342 C 0.89439 0.31346 -0.38592
 C343 C 0.86091 0.29381 -0.38693
 C344 C 0.84419 0.29242 -0.32960
 C345 C 0.86010 0.31195 -0.27597
 C346 C 0.90908 0.35641 -0.22769
 C347 C 0.92349 0.37789 -0.18918
 H348 H 0.93569 0.34844 -0.33391
 H349 H 0.90874 0.31422 -0.42664
 H350 H 0.81855 0.27835 -0.32743
 H351 H 0.84656 0.31187 -0.23423
 C352 C 0.54354 -0.11796 -0.27486
 C353 C 0.52684 -0.15158 -0.27710
 C354 C 0.53041 -0.16741 -0.33056
 C355 C 0.55050 -0.14971 -0.38258
 C356 C 0.56832 -0.11602 -0.37829
 C357 C 0.56484 -0.10029 -0.32485
 C358 C 0.53690 -0.10127 -0.22512
 C359 C 0.53127 -0.08605 -0.18665
 H360 H 0.51016 -0.16552 -0.23889
 H361 H 0.51619 -0.19336 -0.33293
 H362 H 0.58416 -0.10182 -0.41740
 H363 H 0.57787 -0.07428 -0.32373
 C364 C 0.33381 0.46050 -0.26530
 C365 C 0.32036 0.47982 -0.26690
 C366 C 0.30284 0.47912 -0.32120
 C367 C 0.29890 0.45931 -0.37477
 C368 C 0.31099 0.43870 -0.37107
 C369 C 0.32834 0.43933 -0.31674
 C370 C 0.35639 0.46503 -0.21556
 C371 C 0.37697 0.46938 -0.17772
 H372 H 0.32466 0.49650 -0.22767
 H373 H 0.29410 0.49549 -0.32304
 H374 H 0.30810 0.42304 -0.41140
 H375 H 0.33873 0.42437 -0.31624
 C376 C 1.10519 0.67029 -0.27076
 C377 C 1.08844 0.66802 -0.32727
 C378 C 1.10439 0.68617 -0.38209
 C379 C 1.13771 0.70702 -0.38198
 C380 C 1.15394 0.71090 -0.32268
 C381 C 1.13783 0.69239 -0.26794
 C382 C 1.08921 0.64712 -0.21958
 C383 C 1.07480 0.62564 -0.18103
 H384 H 1.06309 0.65122 -0.32989
 H385 H 1.09033 0.68355 -0.42464
 H386 H 1.17947 0.72609 -0.31951
 H387 H 1.15111 0.69423 -0.22451
 C388 C 0.86140 0.51393 -0.26966
 C389 C 0.85564 0.53907 -0.27876
 C390 C 0.83880 0.53928 -0.33361
 C391 C 0.82807 0.51457 -0.38006
 C392 C 0.83300 0.48893 -0.36911
 C393 C 0.84951 0.48864 -0.31436
 C394 C 0.88216 0.51512 -0.21903
 C395 C 0.90074 0.51507 -0.18093
 H396 H 0.86499 0.55893 -0.24474
 H397 H 0.83537 0.55933 -0.34120
 H398 H 0.82463 0.46943 -0.40383
 H399 H 0.85394 0.46915 -0.30806
 C400 C 0.46597 0.34068 -0.26346
 C401 C 0.48071 0.35737 -0.32042
 C402 C 0.48016 0.34093 -0.37632
 C403 C 0.46469 0.30707 -0.37697
 C404 C 0.45157 0.29056 -0.31776
 C405 C 0.45187 0.30727 -0.26163
 C406 C 0.46440 0.35882 -0.20967
 C407 C 0.46470 0.37772 -0.17116
 H408 H 0.49217 0.38331 -0.32213
 H409 H 0.49239 0.35512 -0.41881
 H410 H 0.43915 0.26461 -0.31552
 H411 H 0.44037 0.29408 -0.21764
 C412 C 0.65792 0.13250 -0.26466
 C413 C 0.64509 0.13993 -0.31776
 C414 C 0.66371 0.15500 -0.37253
 C415 C 0.69548 0.16290 -0.37492
 C416 C 0.70881 0.15708 -0.32001
 C417 C 0.69002 0.14172 -0.26522
 C418 C 0.63686 0.11217 -0.21406
 C419 C 0.61708 0.09354 -0.17643
 H420 H 0.62027 0.13279 -0.31802
 H421 H 0.65298 0.15945 -0.41403
 H422 H 0.73318 0.16273 -0.32099
 H423 H 0.70013 0.13586 -0.22463
 C424 C 1.14427 0.50233 -0.26767
 C425 C 1.14608 0.51985 -0.32296
 C426 C 1.16208 0.51901 -0.37826
 C427 C 1.17664 0.50043 -0.37969
 C428 C 1.17674 0.48490 -0.32154
 C429 C 1.16030 0.48553 -0.26631
 C430 C 1.12278 0.49895 -0.21649
 C431 C 1.10272 0.49620 -0.17884
 H432 H 1.13400 0.53322 -0.32430
 H433 H 1.16280 0.53293 -0.41999
 H434 H 1.18713 0.46997 -0.31983
 H435 H 1.15887 0.47171 -0.22375
 C436 C 0.54250 0.66246 -0.27301
 C437 C 0.56347 0.66584 -0.32250
 C438 C 0.56674 0.68393 -0.37762
 C439 C 0.54896 0.69912 -0.38485
 C440 C 0.52905 0.69685 -0.33267
 C441 C 0.52565 0.67837 -0.27757
 C442 C 0.53637 0.63998 -0.22158
 C443 C 0.53135 0.61931 -0.18287
 H444 H 0.57678 0.65376 -0.31929
 H445 H 0.58365 0.68619 -0.41422
 H446 H 0.51433 0.70733 -0.33570
 H447 H 0.50905 0.67559 -0.23968
 C448 C 0.33912 -0.13340 -0.26202
 C449 C 0.30726 -0.14182 -0.26258
 C450 C 0.28855 -0.15664 -0.31756
 C451 C 0.30177 -0.16266 -0.37255
 C452 C 0.33325 -0.15562 -0.37018
 C453 C 0.35178 -0.14110 -0.31521
 C454 C 0.36028 -0.11324 -0.21168
 C455 C 0.38016 -0.09462 -0.17445
 H456 H 0.29734 -0.13567 -0.22189
 H457 H 0.26436 -0.16172 -0.31861
 H458 H 0.34382 -0.16030 -0.41183
 H459 H 0.37645 -0.13452 -0.31543
 C460 C 0.53529 -0.12512 0.26609
 C461 C 0.51417 -0.15801 0.27614
 C462 C 0.51742 -0.17315 0.33100
 C463 C 0.54158 -0.15534 0.37650
 C464 C 0.56328 -0.12266 0.36462
 C465 C 0.56015 -0.10769 0.30981
 C466 C 0.52988 -0.10803 0.21575
 C467 C 0.52578 -0.09166 0.17780
 H468 H 0.49464 -0.17163 0.24290
 H469 H 0.50034 -0.19833 0.33937
 H470 H 0.58230 -0.10854 0.39862
 H471 H 0.57649 -0.08221 0.30273
 C472 C 0.34805 0.48248 0.27681
 C473 C 0.31486 0.46519 0.27370
 C474 C 0.29701 0.46362 0.32835
 C475 C 0.31229 0.47904 0.38661
 C476 C 0.34559 0.49720 0.38838
 C477 C 0.36331 0.49889 0.33386
 C478 C 0.36703 0.48176 0.22429
 C479 C 0.38516 0.48173 0.18484
 H480 H 0.30283 0.45226 0.22987
 H481 H 0.27136 0.44937 0.32599
 H482 H 0.35791 0.50964 0.43239
 H483 H 0.38899 0.51231 0.33679
 C484 C 1.11750 0.66156 0.27005
 C485 C 1.13065 0.69489 0.26860
 C486 C 1.14600 0.71336 0.32385
 C487 C 1.14784 0.69847 0.38094
 C488 C 1.13556 0.66522 0.38095
 C489 C 1.12054 0.64694 0.32589
 C490 C 1.09863 0.64127 0.21730
 C491 C 1.08135 0.62135 0.17842
 H492 H 1.12829 0.70640 0.22569
 H493 H 1.15525 0.73897 0.32299
 H494 H 1.13705 0.65331 0.42413
 H495 H 1.11043 0.62118 0.32753
 C496 C 0.47756 0.13370 0.26553
 C497 C 0.45437 0.14222 0.26887
 C498 C 0.45250 0.15829 0.32382
 C499 C 0.47354 0.16551 0.37611
 C500 C 0.49765 0.15826 0.37081
 C501 C 0.49964 0.14250 0.31587
 C502 C 0.47681 0.11266 0.21533
 C503 C 0.47688 0.09350 0.17812
 H504 H 0.43698 0.13527 0.23044
 H505 H 0.43359 0.16345 0.32712
 H506 H 0.51425 0.16379 0.41031
 H507 H 0.51757 0.13589 0.31398
 C508 C 0.65271 0.52136 0.26126
 C509 C 0.68393 0.54637 0.27272
 C510 C 0.70006 0.54584 0.32852
 C511 C 0.68479 0.52056 0.37352
 C512 C 0.65393 0.49513 0.36025
 C513 C 0.63807 0.49553 0.30456
 C514 C 0.63377 0.52314 0.21005
 C515 C 0.61499 0.52292 0.17219
 H516 H 0.69537 0.56665 0.23984
 H517 H 0.72382 0.56572 0.33798
 H518 H 0.64183 0.47525 0.39394
 H519 H 0.61387 0.47617 0.29647
 C520 C 0.88553 0.33022 0.26071
 C521 C 0.90149 0.32080 0.30300
 C522 C 0.88631 0.30301 0.35873
 C523 C 0.85492 0.29444 0.37303
 C524 C 0.83852 0.30271 0.32879
 C525 C 0.85383 0.32066 0.27307
 C526 C 0.90311 0.35333 0.21050
 C527 C 0.91906 0.37470 0.17284
 H528 H 0.92611 0.32833 0.29432
 H529 H 0.89936 0.29666 0.39169
 H530 H 0.81445 0.29670 0.33893
 H531 H 0.84139 0.32823 0.24119
   
