data_POSCAR
  _audit_creation_date              2014-09-24
  _audit_creation_method            'ToBaCCo'
  _symmetry_space_group_name_H-M    'P1'
  _symmetry_Int_Tables_number       1
  _symmetry_cell_setting            triclinic
  loop_
  _symmetry_equiv_pos_as_xyz
 x,y,z
_cell_length_a 53.8793
_cell_length_b 53.8826
_cell_length_c 57.3671
_cell_angle_alpha 88.144700
_cell_angle_beta 89.427400
_cell_angle_gamma 86.521800
loop_
  _atom_site_label
  _atom_site_type_symbol
  _atom_site_fract_x
  _atom_site_fract_y
  _atom_site_fract_z
N1 N 0.30310 0.22090 0.20782
 N2 N 0.29159 0.24012 0.19708
 C3 C 0.30221 0.24365 0.17597
 C4 C 0.32150 0.22565 0.17338
 C5 C 0.32145 0.21157 0.19403
 H6 H 0.29659 0.25848 0.16365
 H7 H 0.33432 0.19621 0.19909
 Cu8 Cu 0.26529 0.25965 0.21283
 Cu9 Cu 0.29471 0.21080 0.23968
 Cu10 Cu 0.23546 0.23198 0.25719
 N11 N 0.23716 0.27650 0.22841
 N12 N 0.22525 0.26549 0.24556
 C13 C 0.20640 0.28098 0.25287
 C14 C 0.20676 0.30306 0.23979
 C15 C 0.22655 0.29946 0.22442
 H16 H 0.19379 0.27666 0.26701
 H17 H 0.23266 0.31252 0.21118
 N18 N 0.25435 0.20367 0.27279
 N19 N 0.27715 0.19625 0.26648
 C20 C 0.28556 0.17758 0.28097
 C21 C 0.26726 0.17298 0.29739
 C22 C 0.24767 0.18990 0.29160
 H23 H 0.30368 0.16798 0.27949
 H24 H 0.23013 0.19254 0.30075
 H25 H 0.25901 0.21868 0.23046
 H26 H 0.27119 0.24042 0.25164
 N27 N 0.71552 -0.20729 0.19393
 N28 N 0.72602 -0.22730 0.18470
 C29 C 0.71294 -0.23288 0.16586
 C30 C 0.69319 -0.21520 0.16300
 C31 C 0.69570 -0.19917 0.18118
 H32 H 0.71739 -0.24877 0.15526
 H33 H 0.68330 -0.18354 0.18572
 Cu34 Cu 0.75527 -0.24465 0.19866
 Cu35 Cu 0.72618 -0.19496 0.22336
 Cu36 Cu 0.77510 -0.22777 0.25127
 N37 N 0.78273 -0.26275 0.21479
 N38 N 0.78976 -0.25675 0.23563
 C39 C 0.80817 -0.27307 0.24299
 C40 C 0.81325 -0.29019 0.22570
 C41 C 0.79665 -0.28287 0.20805
 H42 H 0.81741 -0.27213 0.25954
 H43 H 0.79429 -0.29186 0.19173
 N44 N 0.75788 -0.19779 0.26412
 N45 N 0.73933 -0.18533 0.25330
 C46 C 0.73079 -0.16649 0.26657
 C47 C 0.74463 -0.16696 0.28673
 C48 C 0.76178 -0.18699 0.28455
 H49 H 0.71546 -0.15344 0.26199
 H50 H 0.77554 -0.19362 0.29723
 H51 H 0.76305 -0.20856 0.22157
 H52 H 0.74063 -0.22932 0.23620
 N53 N 0.73250 0.21687 0.77097
 N54 N 0.74153 0.23565 0.78148
 C55 C 0.72693 0.24151 0.79995
 C56 C 0.70759 0.22569 0.80082
 C57 C 0.71181 0.21025 0.78222
 H58 H 0.72950 0.25687 0.81119
 H59 H 0.70037 0.19564 0.77691
 Cu60 Cu 0.77047 0.25167 0.76886
 Cu61 Cu 0.74758 0.20337 0.74273
 Cu62 Cu 0.77745 0.24825 0.71078
 N63 N 0.79462 0.27087 0.75184
 N64 N 0.79700 0.26958 0.72910
 C65 C 0.81403 0.28520 0.72149
 C66 C 0.82316 0.29703 0.74052
 C67 C 0.81024 0.28733 0.75956
 H68 H 0.81919 0.28757 0.70335
 H69 H 0.81171 0.29198 0.77765
 N70 N 0.76523 0.21833 0.69694
 N71 N 0.75514 0.20053 0.70941
 C72 C 0.75026 0.18191 0.69540
 C73 C 0.75754 0.18838 0.67291
 C74 C 0.76694 0.21161 0.67456
 H75 H 0.74157 0.16517 0.70111
 H76 H 0.77507 0.22252 0.66064
 H77 H 0.78024 0.22287 0.73752
 H78 H 0.74911 0.23969 0.73399
 N79 N 0.25604 -0.22697 0.80435
 N80 N 0.24201 -0.24385 0.81363
 C81 C 0.25240 -0.25307 0.83358
 C82 C 0.27402 -0.24113 0.83712
 C83 C 0.27569 -0.22462 0.81824
 H84 H 0.24490 -0.26755 0.84454
 H85 H 0.29064 -0.21258 0.81438
 Cu86 Cu 0.21198 -0.25284 0.79847
 Cu87 Cu 0.24888 -0.21086 0.77404
 Cu88 Cu 0.20053 -0.23338 0.74319
 N89 N 0.18792 -0.26831 0.77965
 N90 N 0.18364 -0.26084 0.75798
 C91 C 0.16698 -0.27527 0.74876
 C92 C 0.16034 -0.29289 0.76560
 C93 C 0.17411 -0.28770 0.78504
 H94 H 0.16047 -0.27307 0.73103
 H95 H 0.17470 -0.29754 0.80175
 N96 N 0.21997 -0.20568 0.73142
 N97 N 0.23855 -0.19727 0.74307
 C98 C 0.24868 -0.17909 0.73017
 C99 C 0.23577 -0.17579 0.70945
 C100 C 0.21766 -0.19294 0.71090
 H101 H 0.26428 -0.16897 0.73547
 H102 H 0.20420 -0.19631 0.69770
 H103 H 0.21114 -0.21584 0.77275
 H104 H 0.23257 -0.24174 0.76212
 N105 N 0.71724 -0.20942 0.79377
 N106 N 0.72900 -0.22462 0.80889
 C107 C 0.71304 -0.23118 0.82586
 C108 C 0.68992 -0.21946 0.82117
 C109 C 0.69339 -0.20575 0.80063
 H110 H 0.71785 -0.24406 0.84016
 H111 H 0.67961 -0.19406 0.79124
 Cu112 Cu 0.76366 -0.23560 0.80457
 Cu113 Cu 0.73360 -0.19604 0.76607
 Cu114 Cu 0.79182 -0.22275 0.75339
 N115 N 0.79374 -0.25419 0.79475
 N116 N 0.80411 -0.24970 0.77437
 C117 C 0.82321 -0.26649 0.77111
 C118 C 0.82512 -0.28246 0.79061
 C119 C 0.80608 -0.27382 0.80535
 H120 H 0.83472 -0.26691 0.75558
 H121 H 0.80069 -0.28184 0.82202
 N122 N 0.77600 -0.19522 0.73447
 N123 N 0.75356 -0.18526 0.73901
 C124 C 0.74771 -0.16739 0.72268
 C125 C 0.76752 -0.16592 0.70724
 C126 C 0.78511 -0.18383 0.71530
 H127 H 0.73044 -0.15607 0.72220
 H128 H 0.80307 -0.18852 0.70752
 H129 H 0.75549 -0.22854 0.76339
 H130 H 0.77014 -0.20163 0.77661
 N131 N 0.29293 0.20037 0.78515
 N132 N 0.28151 0.21717 0.79820
 C133 C 0.29693 0.22337 0.81504
 C134 C 0.31937 0.20970 0.81251
 C135 C 0.31608 0.19521 0.79332
 H136 H 0.29225 0.23727 0.82778
 H137 H 0.32950 0.18205 0.78568
 Cu138 Cu 0.24769 0.22993 0.79187
 Cu139 Cu 0.27662 0.18732 0.75824
 Cu140 Cu 0.23187 0.23016 0.73556
 N141 N 0.21795 0.24832 0.78057
 N142 N 0.21205 0.24875 0.75840
 C143 C 0.19183 0.26428 0.75494
 C144 C 0.18454 0.27407 0.77618
 C145 C 0.20160 0.26342 0.79206
 H146 H 0.18330 0.26824 0.73815
 H147 H 0.20271 0.26715 0.81041
 N148 N 0.24744 0.20273 0.71753
 N149 N 0.26356 0.18567 0.72643
 C150 C 0.26907 0.16846 0.71035
 C151 C 0.25580 0.17511 0.69030
 C152 C 0.24233 0.19693 0.69554
 H153 H 0.28184 0.15238 0.71304
 H154 H 0.22900 0.20731 0.68447
 H155 H 0.26536 0.22319 0.75309
 H156 H 0.23953 0.20253 0.76003
 N157 N 0.26421 -0.21610 0.21009
 N158 N 0.25763 -0.23703 0.20154
 C159 C 0.27205 -0.24254 0.18290
 C160 C 0.28859 -0.22403 0.17951
 C161 C 0.28301 -0.20752 0.19712
 H162 H 0.27042 -0.25869 0.17245
 H163 H 0.29216 -0.19071 0.20048
 Cu164 Cu 0.23094 -0.25529 0.21541
 Cu165 Cu 0.24813 -0.20184 0.23757
 Cu166 Cu 0.19561 -0.22971 0.25812
 N167 N 0.19940 -0.26833 0.22472
 N168 N 0.18577 -0.25851 0.24157
 C169 C 0.16577 -0.27197 0.24524
 C170 C 0.16685 -0.29123 0.22976
 C171 C 0.18845 -0.28825 0.21695
 H172 H 0.15163 -0.26815 0.25836
 H173 H 0.19607 -0.30016 0.20351
 N174 N 0.20869 -0.20050 0.27252
 N175 N 0.22911 -0.19029 0.26511
 C176 C 0.23391 -0.17168 0.27921
 C177 C 0.21551 -0.16994 0.29618
 C178 C 0.19982 -0.18847 0.29135
 H179 H 0.24958 -0.16014 0.27725
 H180 H 0.18353 -0.19327 0.30127
 H181 H 0.23354 -0.23358 0.25192
 H182 H 0.21436 -0.21552 0.22944
 N183 N 0.72633 0.23194 0.20862
 N184 N 0.73609 0.25042 0.19696
 C185 C 0.72063 0.25833 0.17956
 C186 C 0.70002 0.24416 0.18052
 C187 C 0.70431 0.22762 0.19919
 H188 H 0.72382 0.27358 0.16740
 H189 H 0.69245 0.21325 0.20528
 Cu190 Cu 0.76739 0.26302 0.20659
 Cu191 Cu 0.74298 0.21436 0.23481
 Cu192 Cu 0.79949 0.23542 0.25131
 N193 N 0.79875 0.27519 0.21663
 N194 N 0.81109 0.26430 0.23418
 C195 C 0.83101 0.27721 0.23861
 C196 C 0.83124 0.29739 0.22306
 C197 C 0.81050 0.29543 0.20929
 H198 H 0.84403 0.27253 0.25250
 H199 H 0.80385 0.30841 0.19567
 N200 N 0.78463 0.20654 0.26657
 N201 N 0.76279 0.19892 0.26072
 C202 C 0.75731 0.17958 0.27493
 C203 C 0.77669 0.17471 0.29040
 C204 C 0.79367 0.19217 0.28454
 H205 H 0.74055 0.16962 0.27400
 H206 H 0.81108 0.19459 0.29313
 H207 H 0.76213 0.24405 0.24539
 H208 H 0.77855 0.22240 0.22476
 C209 C 0.24151 0.00658 0.49944
 C210 C 0.24037 -0.01859 0.49877
 C211 C 0.24206 -0.03216 0.47651
 C212 C 0.23651 -0.03368 0.52050
 C213 C 0.24437 0.01913 0.52189
 C214 C 0.23969 0.02285 0.47801
 C215 C 0.22561 -0.05075 0.47241
 C216 C 0.22747 -0.06421 0.45201
 C217 C 0.24576 -0.05932 0.43507
 C218 C 0.26226 -0.04070 0.43922
 C219 C 0.26062 -0.02750 0.45982
 C220 C 0.21545 -0.02869 0.53458
 C221 C 0.21111 -0.04364 0.55436
 C222 C 0.22779 -0.06381 0.56046
 C223 C 0.24899 -0.06863 0.54647
 C224 C 0.25320 -0.05380 0.52653
 C225 C 0.26417 0.01193 0.53685
 C226 C 0.26727 0.02436 0.55754
 C227 C 0.25071 0.04434 0.56361
 C228 C 0.23086 0.05144 0.54858
 C229 C 0.22781 0.03904 0.52789
 C230 C 0.25706 0.04090 0.47389
 C231 C 0.25506 0.05690 0.45428
 C232 C 0.23553 0.05529 0.43841
 C233 C 0.21806 0.03728 0.44263
 C234 C 0.22006 0.02129 0.46230
 H235 H 0.21129 -0.05492 0.48508
 H236 H 0.21482 -0.07878 0.44975
 H237 H 0.27643 -0.03624 0.42652
 H238 H 0.27396 -0.01372 0.46278
 H239 H 0.20219 -0.01344 0.53002
 H240 H 0.19471 -0.03944 0.56492
 H241 H 0.26943 -0.05803 0.51576
 H242 H 0.27745 -0.00308 0.53231
 H243 H 0.28297 0.01869 0.56852
 H244 H 0.21756 0.06650 0.55291
 H245 H 0.21243 0.04489 0.51657
 H246 H 0.27219 0.04260 0.48591
 H247 H 0.26856 0.07085 0.45175
 H248 H 0.20291 0.03548 0.43066
 H249 H 0.20616 0.00782 0.46537
 H250 H 0.26198 -0.08423 0.55066
 C251 C 0.74732 -0.01732 0.49239
 C252 C 0.74761 0.00799 0.49153
 C253 C 0.74844 0.02247 0.51315
 C254 C 0.74712 0.02250 0.46897
 C255 C 0.75132 -0.03213 0.47115
 C256 C 0.74381 -0.03159 0.51471
 C257 C 0.73169 0.04312 0.51620
 C258 C 0.73255 0.05707 0.53625
 C259 C 0.75011 0.05054 0.55366
 C260 C 0.76697 0.02997 0.55056
 C261 C 0.76634 0.01624 0.53036
 C262 C 0.72926 0.01870 0.45198
 C263 C 0.72821 0.03328 0.43137
 C264 C 0.74470 0.05228 0.42749
 C265 C 0.76251 0.05606 0.44459
 C266 C 0.76371 0.04132 0.46506
 C267 C 0.77273 -0.02983 0.45727
 C268 C 0.77697 -0.04478 0.43799
 C269 C 0.75987 -0.06226 0.43229
 C270 C 0.73845 -0.06448 0.44621
 C271 C 0.73431 -0.04965 0.46554
 C272 C 0.76032 -0.05190 0.52062
 C273 C 0.75746 -0.06533 0.54158
 C274 C 0.73802 -0.05872 0.55716
 C275 C 0.72119 -0.03866 0.55100
 C276 C 0.72394 -0.02536 0.52989
 H277 H 0.71784 0.04835 0.50310
 H278 H 0.71929 0.07278 0.53830
 H279 H 0.78093 0.02482 0.56358
 H280 H 0.77988 0.00081 0.52810
 H281 H 0.71588 0.00468 0.45481
 H282 H 0.71442 0.02969 0.41850
 H283 H 0.77748 0.04477 0.47801
 H284 H 0.78629 -0.01669 0.46156
 H285 H 0.79355 -0.04261 0.42748
 H286 H 0.72514 -0.07804 0.44240
 H287 H 0.71782 -0.05186 0.47619
 H288 H 0.77562 -0.05723 0.50908
 H289 H 0.77040 -0.08103 0.54551
 H290 H 0.70610 -0.03300 0.56263
 H291 H 0.71066 -0.01008 0.52547
 H292 H 0.77517 0.07084 0.44243
 C293 C 0.51374 0.25540 0.00015
 C294 C 0.51484 0.25235 -0.02331
 C295 C 0.49188 0.25038 -0.03706
 C296 C 0.53874 0.25081 -0.03660
 C297 C 0.53626 0.25746 0.01440
 C298 C 0.48979 0.25625 0.01319
 C299 C 0.48881 0.22891 -0.04963
 C300 C 0.46739 0.22672 -0.06272
 C301 C 0.44871 0.24612 -0.06374
 C302 C 0.45200 0.26776 -0.05130
 C303 C 0.47341 0.26988 -0.03811
 C304 C 0.55877 0.23433 -0.02967
 C305 C 0.58075 0.23282 -0.04289
 C306 C 0.58272 0.24712 -0.06363
 C307 C 0.56263 0.26327 -0.07074
 C308 C 0.54093 0.26519 -0.05729
 C309 C 0.55178 0.27728 0.01097
 C310 C 0.57233 0.27929 0.02541
 C311 C 0.57769 0.26148 0.04346
 C312 C 0.56221 0.24149 0.04648
 C313 C 0.54161 0.23967 0.03227
 C314 C 0.48271 0.27725 0.02602
 C315 C 0.46090 0.27794 0.03938
 C316 C 0.44588 0.25749 0.04037
 C317 C 0.45296 0.23647 0.02739
 C318 C 0.47475 0.23585 0.01391
 H319 H 0.50292 0.21370 -0.04905
 H320 H 0.46531 0.20966 -0.07179
 H321 H 0.43820 0.28322 -0.05203
 H322 H 0.47568 0.28678 -0.02884
 H323 H 0.55729 0.22235 -0.01427
 H324 H 0.59595 0.21999 -0.03731
 H325 H 0.52572 0.27789 -0.06311
 H326 H 0.54772 0.29134 -0.00260
 H327 H 0.58369 0.29505 0.02276
 H328 H 0.56606 0.22711 0.05978
 H329 H 0.52987 0.22421 0.03509
 H330 H 0.49422 0.29306 0.02582
 H331 H 0.45615 0.29422 0.04947
 H332 H 0.44168 0.22050 0.02777
 H333 H 0.48013 0.21934 0.00436
 H334 H 0.56381 0.27446 -0.08670
 C335 C 0.48878 0.74707 -0.01242
 C336 C 0.49019 0.74462 0.01123
 C337 C 0.46771 0.74363 0.02644
 C338 C 0.51453 0.74410 0.02316
 C339 C 0.51152 0.74689 -0.02727
 C340 C 0.46477 0.75170 -0.02464
 C341 C 0.44905 0.72725 0.02223
 C342 C 0.42830 0.72633 0.03702
 C343 C 0.42599 0.74147 0.05656
 C344 C 0.44489 0.75758 0.06086
 C345 C 0.46544 0.75867 0.04596
 C346 C 0.52944 0.76453 0.02103
 C347 C 0.55188 0.76440 0.03301
 C348 C 0.55979 0.74384 0.04733
 C349 C 0.54493 0.72330 0.04925
 C350 C 0.52237 0.72353 0.03740
 C351 C 0.52912 0.72659 -0.02650
 C352 C 0.55082 0.72707 -0.04002
 C353 C 0.55524 0.74783 -0.05465
 C354 C 0.53734 0.76794 -0.05563
 C355 C 0.51565 0.76740 -0.04216
 C356 C 0.45835 0.73578 -0.04217
 C357 C 0.43676 0.74099 -0.05511
 C358 C 0.42143 0.76247 -0.05103
 C359 C 0.42777 0.77830 -0.03332
 C360 C 0.44925 0.77292 -0.02017
 H361 H 0.45062 0.71504 0.00760
 H362 H 0.41403 0.71383 0.03310
 H363 H 0.44405 0.76908 0.07600
 H364 H 0.47967 0.77130 0.04972
 H365 H 0.52351 0.78069 0.01033
 H366 H 0.56304 0.78041 0.03115
 H367 H 0.51097 0.70770 0.03935
 H368 H 0.52605 0.71042 -0.01537
 H369 H 0.56406 0.71114 -0.03916
 H370 H 0.54032 0.78434 -0.06644
 H371 H 0.50231 0.78327 -0.04296
 H372 H 0.47026 0.71947 -0.04598
 H373 H 0.43246 0.72867 -0.06887
 H374 H 0.41622 0.79494 -0.02981
 H375 H 0.45414 0.78561 -0.00693
 H376 H 0.55046 0.70736 0.06041
 C377 C 0.01319 0.49944 0.26696
 C378 C -0.01205 0.49902 0.26769
 C379 C -0.02443 0.47521 0.26700
 C380 C -0.02871 0.52212 0.26839
 C381 C 0.02602 0.52301 0.26607
 C382 C 0.02944 0.47620 0.26684
 C383 C -0.02157 0.46001 0.24762
 C384 C -0.03427 0.43821 0.24669
 C385 C -0.04998 0.43123 0.26518
 C386 C -0.05266 0.44644 0.28460
 C387 C -0.04013 0.46833 0.28541
 C388 C -0.04892 0.52513 0.25311
 C389 C -0.06490 0.54648 0.25340
 C390 C -0.06091 0.56564 0.26879
 C391 C -0.04086 0.56242 0.28438
 C392 C -0.02518 0.54074 0.28443
 C393 C 0.04231 0.52793 0.28402
 C394 C 0.05437 0.55014 0.28369
 C395 C 0.05071 0.56763 0.26517
 C396 C 0.03476 0.56247 0.24693
 C397 C 0.02243 0.54034 0.24742
 C398 C 0.02905 0.45865 0.28544
 C399 C 0.04485 0.43707 0.28522
 C400 C 0.06133 0.43267 0.26640
 C401 C 0.06152 0.45034 0.24780
 C402 C 0.04588 0.47195 0.24812
 H403 H -0.00977 0.46525 0.23310
 H404 H -0.03181 0.42676 0.23158
 H405 H -0.06491 0.44167 0.29893
 H406 H -0.04271 0.47997 0.30039
 H407 H -0.05232 0.51091 0.24081
 H408 H -0.08053 0.54780 0.24164
 H409 H -0.01028 0.53857 0.29697
 H410 H 0.04542 0.51468 0.29845
 H411 H 0.06684 0.55352 0.29778
 H412 H 0.03164 0.57569 0.23249
 H413 H 0.01011 0.53668 0.23329
 H414 H 0.01672 0.46183 0.30021
 H415 H 0.04448 0.42406 0.29998
 H416 H 0.07361 0.44736 0.23283
 H417 H 0.04640 0.48528 0.23361
 H418 H -0.03706 0.57674 0.29642
 C419 C 0.01283 0.49189 0.77821
 C420 C -0.01248 0.49428 0.77727
 C421 C -0.02772 0.47216 0.77748
 C422 C -0.02624 0.51913 0.77565
 C423 C 0.02787 0.51367 0.78174
 C424 C 0.02688 0.46762 0.77492
 C425 C -0.04614 0.47041 0.76059
 C426 C -0.06136 0.45034 0.76120
 C427 C -0.05856 0.43162 0.77879
 C428 C -0.04007 0.43337 0.79569
 C429 C -0.02484 0.45350 0.79508
 C430 C -0.01925 0.53745 0.75930
 C431 C -0.03270 0.56039 0.75746
 C432 C -0.05403 0.56528 0.77131
 C433 C -0.06122 0.54671 0.78739
 C434 C -0.04740 0.52399 0.78961
 C435 C 0.02363 0.52874 0.80107
 C436 C 0.03787 0.54922 0.80414
 C437 C 0.05657 0.55496 0.78793
 C438 C 0.06091 0.53968 0.76874
 C439 C 0.04681 0.51914 0.76576
 C440 C 0.04601 0.45971 0.79035
 C441 C 0.06068 0.43797 0.78639
 C442 C 0.05656 0.42368 0.76687
 C443 C 0.03715 0.43146 0.75160
 C444 C 0.02257 0.45330 0.75550
 H445 H -0.04880 0.48470 0.74698
 H446 H -0.07569 0.44975 0.74817
 H447 H -0.03737 0.41916 0.80936
 H448 H -0.01101 0.45469 0.80850
 H449 H -0.00349 0.53394 0.74778
 H450 H -0.02633 0.57426 0.74509
 H451 H -0.05340 0.51004 0.80211
 H452 H 0.00929 0.52463 0.81373
 H453 H 0.03408 0.56075 0.81903
 H454 H 0.07544 0.54347 0.75617
 H455 H 0.05046 0.50765 0.75082
 H456 H 0.04984 0.47061 0.80529
 H457 H 0.07576 0.43278 0.79825
 H458 H 0.03335 0.42078 0.73652
 H459 H 0.00828 0.45931 0.74306
 H460 H -0.07785 0.54944 0.79796
 C461 C 0.34253 0.24298 0.13764
 C462 C 0.36086 0.24120 0.12009
 C463 C 0.37632 0.21915 0.11846
 C464 C 0.37290 0.19915 0.13413
 C465 C 0.35478 0.20115 0.15165
 C466 C 0.33961 0.22314 0.15380
 C467 C 0.39525 0.21762 0.10151
 C468 C 0.39919 0.23800 0.08639
 C469 C 0.38354 0.25996 0.08782
 C470 C 0.36436 0.26135 0.10453
 C471 C 0.38770 0.28037 0.07283
 C472 C 0.40761 0.27934 0.05703
 C473 C 0.42360 0.25781 0.05578
 C474 C 0.41898 0.23702 0.07028
 H475 H 0.33113 0.26013 0.13908
 H476 H 0.38448 0.18206 0.13305
 H477 H 0.35277 0.18541 0.16357
 H478 H 0.40724 0.20077 0.10043
 H479 H 0.35252 0.27828 0.10576
 H480 H 0.37583 0.29730 0.07360
 H481 H 0.41063 0.29547 0.04585
 H482 H 0.43137 0.22043 0.06966
 C483 C 0.67083 0.76543 0.13185
 C484 C 0.65050 0.76560 0.11667
 C485 C 0.63336 0.78651 0.11544
 C486 C 0.63682 0.80687 0.12930
 C487 C 0.65669 0.80637 0.14472
 C488 C 0.67389 0.78559 0.14648
 C489 C 0.61276 0.78660 0.10072
 C490 C 0.60871 0.76579 0.08757
 C491 C 0.62574 0.74477 0.08879
 C492 C 0.64670 0.74492 0.10313
 C493 C 0.62125 0.72380 0.07596
 C494 C 0.59989 0.72352 0.06234
 C495 C 0.58286 0.74432 0.06107
 C496 C 0.58755 0.76549 0.07360
 H497 H 0.68358 0.74913 0.13278
 H498 H 0.62391 0.82309 0.12848
 H499 H 0.65845 0.82253 0.15512
 H500 H 0.59962 0.80266 0.09987
 H501 H 0.65973 0.72877 0.10412
 H502 H 0.63408 0.70752 0.07667
 H503 H 0.59670 0.70708 0.05269
 H504 H 0.57430 0.78147 0.07300
 C505 C 0.68783 0.23368 -0.16018
 C506 C 0.66689 0.23459 -0.14534
 C507 C 0.64347 0.22906 -0.15413
 C508 C 0.64150 0.22206 -0.17731
 C509 C 0.66249 0.22063 -0.19174
 C510 C 0.68573 0.22663 -0.18342
 C511 C 0.62238 0.23059 -0.13966
 C512 C 0.62441 0.23705 -0.11632
 C513 C 0.64791 0.24179 -0.10723
 C514 C 0.66898 0.24078 -0.12188
 C515 C 0.64988 0.24745 -0.08363
 C516 C 0.62873 0.24868 -0.06926
 C517 C 0.60529 0.24470 -0.07839
 C518 C 0.60326 0.23880 -0.10191
 H519 H 0.70578 0.23807 -0.15359
 H520 H 0.62373 0.21767 -0.18428
 H521 H 0.66042 0.21533 -0.20963
 H522 H 0.60439 0.22665 -0.14652
 H523 H 0.68696 0.24471 -0.11500
 H524 H 0.66774 0.25099 -0.07631
 H525 H 0.63056 0.25326 -0.05114
 H526 H 0.58518 0.23543 -0.10890
 C527 C 0.30816 0.77233 -0.13779
 C528 C 0.32632 0.76732 -0.12062
 C529 C 0.32891 0.74340 -0.10970
 C530 C 0.31283 0.72516 -0.11565
 C531 C 0.29463 0.73039 -0.13258
 C532 C 0.29236 0.75386 -0.14403
 C533 C 0.34771 0.73801 -0.09323
 C534 C 0.36388 0.75628 -0.08747
 C535 C 0.36079 0.78042 -0.09786
 C536 C 0.34207 0.78577 -0.11440
 C537 C 0.37675 0.79873 -0.09178
 C538 C 0.39599 0.79303 -0.07601
 C539 C 0.39970 0.76891 -0.06613
 C540 C 0.38336 0.75068 -0.07173
 H541 H 0.30633 0.79061 -0.14626
 H542 H 0.31448 0.70677 -0.10740
 H543 H 0.28277 0.71581 -0.13714
 H544 H 0.34993 0.71955 -0.08512
 H545 H 0.33994 0.80419 -0.12261
 H546 H 0.37460 0.81735 -0.09951
 H547 H 0.40850 0.80730 -0.07207
 H548 H 0.38596 0.73209 -0.06398
 C549 C 0.16631 0.32460 0.25220
 C550 C 0.15038 0.34615 0.25374
 C551 C 0.15845 0.36924 0.24517
 C552 C 0.18219 0.37039 0.23516
 C553 C 0.19777 0.34887 0.23346
 C554 C 0.19005 0.32578 0.24191
 C555 C 0.14265 0.39079 0.24656
 C556 C 0.11868 0.38956 0.25611
 C557 C 0.11050 0.36650 0.26459
 C558 C 0.12645 0.34495 0.26348
 C559 C 0.08640 0.36539 0.27389
 C560 C 0.07049 0.38685 0.27458
 C561 C 0.07840 0.40989 0.26613
 C562 C 0.10270 0.41105 0.25710
 H563 H 0.16003 0.30690 0.25860
 H564 H 0.18867 0.38794 0.22854
 H565 H 0.21603 0.35043 0.22571
 H566 H 0.14890 0.40848 0.23998
 H567 H 0.12016 0.32726 0.26999
 H568 H 0.07976 0.34787 0.28040
 H569 H 0.05180 0.38530 0.28135
 H570 H 0.10927 0.42872 0.25092
 C571 C 0.13838 0.67200 0.78246
 C572 C 0.12259 0.65247 0.78003
 C573 C 0.11215 0.64846 0.75809
 C574 C 0.11732 0.66429 0.73907
 C575 C 0.13293 0.68377 0.74161
 C576 C 0.14395 0.68785 0.76326
 C577 C 0.09681 0.62863 0.75547
 C578 C 0.09171 0.61277 0.77456
 C579 C 0.10180 0.61703 0.79664
 C580 C 0.11720 0.63683 0.79922
 C581 C 0.09643 0.60130 0.81574
 C582 C 0.08145 0.58135 0.81296
 C583 C 0.07168 0.57669 0.79102
 C584 C 0.07678 0.59262 0.77191
 H585 H 0.14618 0.67466 0.79943
 H586 H 0.10938 0.66154 0.72213
 H587 H 0.13649 0.69532 0.72634
 H588 H 0.08895 0.62546 0.73855
 H589 H 0.12509 0.63996 0.81613
 H590 H 0.10397 0.60431 0.83279
 H591 H 0.07791 0.56921 0.82789
 H592 H 0.06903 0.58937 0.75498
 C593 C -0.15628 0.68171 0.24663
 C594 C -0.13908 0.66101 0.24696
 C595 C -0.13379 0.64823 0.22620
 C596 C -0.14604 0.65604 0.20562
 C597 C -0.16356 0.67620 0.20553
 C598 C -0.16895 0.68945 0.22597
 C599 C -0.11659 0.62764 0.22637
 C600 C -0.10510 0.61916 0.24721
 C601 C -0.11069 0.63160 0.26809
 C602 C -0.12740 0.65265 0.26780
 C603 C -0.09968 0.62256 0.28898
 C604 C -0.08354 0.60122 0.28923
 C605 C -0.07771 0.58871 0.26852
 C606 C -0.08841 0.59814 0.24750
 H607 H -0.16017 0.69119 0.26273
 H608 H -0.14222 0.64641 0.18956
 H609 H -0.17247 0.68152 0.18917
 H610 H -0.11248 0.61794 0.21037
 H611 H -0.13160 0.66226 0.28382
 H612 H -0.10387 0.63175 0.30520
 H613 H -0.07603 0.59429 0.30578
 H614 H -0.08379 0.58917 0.23126
 C615 C -0.15122 0.32542 0.76121
 C616 C -0.13357 0.34361 0.76086
 C617 C -0.12321 0.35162 0.73939
 C618 C -0.13046 0.34121 0.71871
 C619 C -0.14798 0.32318 0.71914
 C620 C -0.15880 0.31503 0.74033
 C621 C -0.10590 0.37003 0.73888
 C622 C -0.09887 0.38069 0.75959
 C623 C -0.10900 0.37256 0.78113
 C624 C -0.12625 0.35403 0.78165
 C625 C -0.10188 0.38330 0.80178
 C626 C -0.08519 0.40220 0.80106
 C627 C -0.07529 0.41068 0.77968
 C628 C -0.08206 0.39958 0.75902
 H629 H -0.15896 0.31960 0.77783
 H630 H -0.12266 0.34712 0.70209
 H631 H -0.15297 0.31588 0.70263
 H632 H -0.09809 0.37623 0.72234
 H633 H -0.13412 0.34789 0.79818
 H634 H -0.10945 0.37732 0.81846
 H635 H -0.08049 0.41061 0.81720
 H636 H -0.07425 0.40568 0.74247
 C637 C 0.24730 0.14791 0.32943
 C638 C 0.24893 0.13048 0.34820
 C639 C 0.27241 0.11950 0.35485
 C640 C 0.29378 0.12602 0.34261
 C641 C 0.29200 0.14331 0.32399
 C642 C 0.26882 0.15449 0.31716
 C643 C 0.27420 0.10225 0.37367
 C644 C 0.25283 0.09585 0.38603
 C645 C 0.22930 0.10668 0.37935
 C646 C 0.22749 0.12391 0.36046
 C647 C 0.20800 0.10017 0.39180
 C648 C 0.21000 0.08330 0.41081
 C649 C 0.23333 0.07259 0.41774
 C650 C 0.25466 0.07888 0.40509
 H651 H 0.22926 0.15615 0.32433
 H652 H 0.31192 0.11782 0.34751
 H653 H 0.30896 0.14809 0.31515
 H654 H 0.29225 0.09392 0.37878
 H655 H 0.20945 0.13227 0.35539
 H656 H 0.18981 0.10829 0.38696
 H657 H 0.19331 0.07900 0.42041
 H658 H 0.27271 0.07047 0.41002
 C659 C 0.75522 0.14756 0.65363
 C660 C 0.75398 0.13345 0.63358
 C661 C 0.75299 0.14556 0.61134
 C662 C 0.75353 0.17152 0.60953
 C663 C 0.75511 0.18539 0.62956
 C664 C 0.75589 0.17359 0.65176
 C665 C 0.75161 0.13154 0.59127
 C666 C 0.75159 0.10552 0.59314
 C667 C 0.75294 0.09337 0.61536
 C668 C 0.75395 0.10743 0.63545
 C669 C 0.75341 0.06733 0.61710
 C670 C 0.75261 0.05343 0.59702
 C671 C 0.75102 0.06533 0.57490
 C672 C 0.75045 0.09142 0.57309
 H673 H 0.75613 0.13821 0.67064
 H674 H 0.75280 0.18111 0.59263
 H675 H 0.75540 0.20543 0.62764
 H676 H 0.75075 0.14085 0.57422
 H677 H 0.75488 0.09811 0.65250
 H678 H 0.75448 0.05772 0.63398
 H679 H 0.75290 0.03333 0.59877
 H680 H 0.74955 0.10069 0.55603
 C681 C 0.22198 -0.15128 0.67352
 C682 C 0.22672 -0.13512 0.65453
 C683 C 0.25066 -0.12605 0.65147
 C684 C 0.26931 -0.13301 0.66767
 C685 C 0.26437 -0.14894 0.68664
 C686 C 0.24075 -0.15837 0.68967
 C687 C 0.25557 -0.11022 0.63229
 C688 C 0.23677 -0.10318 0.61621
 C689 C 0.21272 -0.11193 0.61951
 C690 C 0.20788 -0.12792 0.63857
 C691 C 0.19387 -0.10458 0.60363
 C692 C 0.19879 -0.08877 0.58460
 C693 C 0.22267 -0.08018 0.58098
 C694 C 0.24162 -0.08748 0.59689
 H695 H 0.20359 -0.15812 0.67580
 H696 H 0.28775 -0.12621 0.66563
 H697 H 0.27924 -0.15421 0.69870
 H698 H 0.27398 -0.10340 0.62987
 H699 H 0.18947 -0.13474 0.64099
 H700 H 0.17534 -0.11109 0.60589
 H701 H 0.18398 -0.08357 0.57243
 H702 H 0.26002 -0.08071 0.59435
 C703 C 0.76045 -0.14656 0.32192
 C704 C 0.75678 -0.13046 0.34061
 C705 C 0.73314 -0.11822 0.34420
 C706 C 0.71368 -0.12206 0.32899
 C707 C 0.71755 -0.13785 0.31034
 C708 C 0.74088 -0.15027 0.30662
 C709 C 0.72928 -0.10232 0.36291
 C710 C 0.74880 -0.09831 0.37803
 C711 C 0.77255 -0.11025 0.37432
 C712 C 0.77638 -0.12633 0.35568
 C713 C 0.79205 -0.10590 0.38939
 C714 C 0.78801 -0.09006 0.40805
 C715 C 0.76438 -0.07839 0.41204
 C716 C 0.74488 -0.08254 0.39685
 H717 H 0.77858 -0.15585 0.31910
 H718 H 0.69546 -0.11285 0.33151
 H719 H 0.70206 -0.14058 0.29903
 H720 H 0.71109 -0.09306 0.36569
 H721 H 0.79456 -0.13558 0.35290
 H722 H 0.81038 -0.11486 0.38682
 H723 H 0.80326 -0.08730 0.41965
 H724 H 0.72667 -0.07334 0.39961
 C725 C 0.66688 0.76728 -0.14268
 C726 C 0.64476 0.76501 -0.12987
 C727 C 0.62184 0.77385 -0.13974
 C728 C 0.62145 0.78479 -0.16223
 C729 C 0.64354 0.78700 -0.17485
 C730 C 0.66650 0.77829 -0.16527
 C731 C 0.59970 0.77171 -0.12698
 C732 C 0.60019 0.76096 -0.10438
 C733 C 0.62310 0.75208 -0.09449
 C734 C 0.64523 0.75412 -0.10731
 C735 C 0.62349 0.74145 -0.07186
 C736 C 0.60143 0.73985 -0.05903
 C737 C 0.57855 0.74876 -0.06862
 C738 C 0.57812 0.75914 -0.09144
 H739 H 0.68436 0.76064 -0.13487
 H740 H 0.60404 0.79164 -0.17008
 H741 H 0.64249 0.79537 -0.19223
 H742 H 0.58213 0.77854 -0.13457
 H743 H 0.66281 0.74733 -0.09970
 H744 H 0.64088 0.73460 -0.06398
 H745 H 0.60235 0.73208 -0.04139
 H746 H 0.56057 0.76573 -0.09918
 C747 C 0.34080 0.22273 -0.15161
 C748 C 0.36230 0.22493 -0.13842
 C749 C 0.38556 0.21544 -0.14696
 C750 C 0.38683 0.20371 -0.16843
 C751 C 0.36531 0.20158 -0.18146
 C752 C 0.34210 0.21120 -0.17330
 C753 C 0.40714 0.21787 -0.13393
 C754 C 0.40573 0.22960 -0.11241
 C755 C 0.38243 0.23894 -0.10382
 C756 C 0.36088 0.23656 -0.11688
 C757 C 0.38107 0.25052 -0.08228
 C758 C 0.40258 0.25284 -0.06932
 C759 C 0.42590 0.24372 -0.07768
 C760 C 0.42727 0.23214 -0.09935
 H761 H 0.32306 0.22997 -0.14486
 H762 H 0.40450 0.19630 -0.17524
 H763 H 0.36700 0.19274 -0.19811
 H764 H 0.42499 0.21065 -0.14052
 H765 H 0.34303 0.24381 -0.11030
 H766 H 0.36336 0.25769 -0.07539
 H767 H 0.40088 0.26148 -0.05256
 H768 H 0.44514 0.22534 -0.10619
 C769 C 0.31712 0.75618 0.14969
 C770 C 0.33602 0.75755 0.13275
 C771 C 0.34594 0.78070 0.12709
 C772 C 0.33683 0.80204 0.13848
 C773 C 0.31820 0.80047 0.15548
 C774 C 0.30816 0.77757 0.16128
 C775 C 0.36497 0.78212 0.11032
 C776 C 0.37452 0.76060 0.09942
 C777 C 0.36466 0.73743 0.10511
 C778 C 0.34536 0.73607 0.12162
 C779 C 0.37449 0.71595 0.09438
 C780 C 0.39418 0.71731 0.07844
 C781 C 0.40429 0.74021 0.07273
 C782 C 0.39405 0.76186 0.08314
 H783 H 0.30979 0.73834 0.15413
 H784 H 0.34420 0.81994 0.13434
 H785 H 0.31152 0.81728 0.16393
 H786 H 0.37259 0.79989 0.10602
 H787 H 0.33783 0.71828 0.12601
 H788 H 0.36722 0.69802 0.09859
 H789 H 0.40188 0.70028 0.07099
 H790 H 0.40131 0.77973 0.07864
 C791 C 0.67975 0.25573 0.14214
 C792 C 0.65902 0.25661 0.12737
 C793 C 0.63615 0.24834 0.13598
 C794 C 0.63439 0.23929 0.15906
 C795 C 0.65516 0.23806 0.17345
 C796 C 0.67802 0.24617 0.16517
 C797 C 0.61548 0.24887 0.12131
 C798 C 0.61747 0.25700 0.09795
 C799 C 0.64030 0.26519 0.08923
 C800 C 0.66089 0.26518 0.10406
 C801 C 0.64219 0.27289 0.06571
 C802 C 0.62182 0.27200 0.05087
 C803 C 0.59909 0.26362 0.05933
 C804 C 0.59704 0.25659 0.08308
 H805 H 0.69735 0.26183 0.13550
 H806 H 0.61699 0.23291 0.16591
 H807 H 0.65325 0.23090 0.19119
 H808 H 0.59798 0.24247 0.12795
 H809 H 0.67843 0.27142 0.09738
 H810 H 0.65955 0.27918 0.05868
 H811 H 0.62406 0.27731 0.03265
 H812 H 0.57951 0.25062 0.09003
 C813 C -0.14322 0.68739 0.77562
 C814 C -0.12749 0.66585 0.77871
 C815 C -0.12587 0.65358 0.80083
 C816 C -0.14029 0.66291 0.81939
 C817 C -0.15645 0.68398 0.81604
 C818 C -0.15819 0.69657 0.79412
 C819 C -0.11021 0.63198 0.80392
 C820 C -0.09674 0.62206 0.78496
 C821 C -0.09872 0.63411 0.76275
 C822 C -0.11379 0.65611 0.75983
 C823 C -0.08591 0.62375 0.74370
 C824 C -0.07148 0.60147 0.74651
 C825 C -0.06910 0.58932 0.76855
 C826 C -0.08167 0.60001 0.78777
 H827 H -0.14428 0.69631 0.75846
 H828 H -0.13931 0.65373 0.83648
 H829 H -0.16728 0.69045 0.83085
 H830 H -0.10891 0.62262 0.82093
 H831 H -0.11521 0.66537 0.74278
 H832 H -0.08741 0.63263 0.72651
 H833 H -0.06259 0.59355 0.73123
 H834 H -0.07979 0.59122 0.80497
 C835 C -0.13705 0.32187 0.24235
 C836 C -0.12149 0.34181 0.24250
 C837 C -0.11999 0.35782 0.22259
 C838 C -0.13402 0.35349 0.20283
 C839 C -0.14967 0.33372 0.20291
 C840 C -0.15145 0.31779 0.22267
 C841 C -0.10480 0.37806 0.22287
 C842 C -0.09137 0.38270 0.24295
 C843 C -0.09286 0.36664 0.26285
 C844 C -0.10775 0.34621 0.26244
 C845 C -0.07971 0.37150 0.28300
 C846 C -0.06555 0.39233 0.28361
 C847 C -0.06408 0.40853 0.26403
 C848 C -0.07683 0.40343 0.24363
 H849 H -0.13838 0.30999 0.25784
 H850 H -0.13307 0.36553 0.18739
 H851 H -0.16034 0.33091 0.18743
 H852 H -0.10373 0.39040 0.20762
 H853 H -0.10895 0.33397 0.27775
 H854 H -0.08060 0.35936 0.29838
 H855 H -0.05568 0.39578 0.29943
 H856 H -0.07604 0.41600 0.22854
 C857 C 0.15352 0.30776 0.76219
 C858 C 0.13509 0.32662 0.76652
 C859 C 0.12691 0.33077 0.78963
 C860 C 0.13712 0.31581 0.80798
 C861 C 0.15561 0.29721 0.80355
 C862 C 0.16414 0.29310 0.78068
 C863 C 0.10897 0.35004 0.79407
 C864 C 0.09938 0.36547 0.77572
 C865 C 0.10743 0.36118 0.75258
 C866 C 0.12510 0.34170 0.74811
 C867 C 0.09798 0.37676 0.73432
 C868 C 0.08113 0.39674 0.73895
 C869 C 0.07324 0.40145 0.76192
 C870 C 0.08223 0.38543 0.78020
 H871 H 0.15998 0.30502 0.74448
 H872 H 0.13101 0.31866 0.82580
 H873 H 0.16319 0.28605 0.81811
 H874 H 0.10282 0.35331 0.81184
 H875 H 0.13138 0.33854 0.73036
 H876 H 0.10397 0.37377 0.71649
 H877 H 0.07481 0.40895 0.72457
 H878 H 0.07604 0.38862 0.79794
 C879 C 0.13475 0.68197 0.24751
 C880 C 0.11959 0.66175 0.24666
 C881 C 0.11901 0.64794 0.22614
 C882 C 0.13353 0.65470 0.20682
 C883 C 0.14885 0.67464 0.20794
 C884 C 0.14974 0.68837 0.22830
 C885 C 0.10431 0.62736 0.22541
 C886 C 0.09055 0.62010 0.24511
 C887 C 0.09114 0.63393 0.26563
 C888 C 0.10544 0.65479 0.26619
 C889 C 0.07777 0.62638 0.28543
 C890 C 0.06438 0.60501 0.28511
 C891 C 0.06384 0.59100 0.26491
 C892 C 0.07668 0.59887 0.24482
 H893 H 0.13543 0.69220 0.26342
 H894 H 0.13329 0.64437 0.19093
 H895 H 0.15999 0.67931 0.19280
 H896 H 0.10396 0.61672 0.20970
 H897 H 0.10595 0.66531 0.28197
 H898 H 0.07798 0.63677 0.30128
 H899 H 0.05441 0.59937 0.30070
 H900 H 0.07655 0.58799 0.22926
 C901 C 0.74804 -0.13928 0.67488
 C902 C 0.75002 -0.12432 0.65452
 C903 C 0.77380 -0.11888 0.64579
 C904 C 0.79513 -0.12847 0.65752
 C905 C 0.79300 -0.14362 0.67754
 C906 C 0.76950 -0.14925 0.68638
 C907 C 0.77591 -0.10422 0.62532
 C908 C 0.75458 -0.09526 0.61320
 C909 C 0.73079 -0.10071 0.62184
 C910 C 0.72864 -0.11506 0.64254
 C911 C 0.70956 -0.09193 0.60945
 C912 C 0.71187 -0.07817 0.58855
 C913 C 0.73545 -0.07277 0.57971
 C914 C 0.75672 -0.08120 0.59236
 H915 H 0.72982 -0.14368 0.68138
 H916 H 0.81348 -0.12446 0.65108
 H917 H 0.80982 -0.15080 0.68619
 H918 H 0.79417 -0.10010 0.61864
 H919 H 0.71039 -0.11928 0.64916
 H920 H 0.69117 -0.09598 0.61577
 H921 H 0.69519 -0.07217 0.57906
 H922 H 0.77501 -0.07680 0.58601
 C923 C 0.23466 -0.14282 0.32491
 C924 C 0.23270 -0.12722 0.34408
 C925 C 0.20905 -0.12090 0.35387
 C926 C 0.18783 -0.13041 0.34443
 C927 C 0.19000 -0.14628 0.32566
 C928 C 0.21337 -0.15265 0.31573
 C929 C 0.20701 -0.10548 0.37311
 C930 C 0.22836 -0.09675 0.38308
 C931 C 0.25203 -0.10324 0.37344
 C932 C 0.25404 -0.11822 0.35386
 C933 C 0.27333 -0.09489 0.38377
 C934 C 0.27128 -0.08055 0.40364
 C935 C 0.24784 -0.07395 0.41345
 C936 C 0.22642 -0.08195 0.40278
 H937 H 0.25282 -0.14784 0.31757
 H938 H 0.16957 -0.12576 0.35172
 H939 H 0.17330 -0.15343 0.31879
 H940 H 0.18885 -0.10064 0.38058
 H941 H 0.27221 -0.12318 0.34648
 H942 H 0.29164 -0.09980 0.37670
 H943 H 0.28815 -0.07510 0.41161
 H944 H 0.20818 -0.07671 0.40980
 C945 C 0.75712 0.14545 0.31903
 C946 C 0.75887 0.12796 0.33773
 C947 C 0.78246 0.12015 0.34682
 C948 C 0.80387 0.12993 0.33706
 C949 C 0.80194 0.14755 0.31867
 C950 C 0.77860 0.15554 0.30951
 C951 C 0.78428 0.10295 0.36570
 C952 C 0.76276 0.09379 0.37590
 C953 C 0.73916 0.10161 0.36684
 C954 C 0.73736 0.11850 0.34770
 C955 C 0.71770 0.09267 0.37729
 C956 C 0.71954 0.07646 0.39679
 C957 C 0.74289 0.06865 0.40610
 C958 C 0.76447 0.07722 0.39528
 H959 H 0.73898 0.15162 0.31233
 H960 H 0.82211 0.12413 0.34379
 H961 H 0.81881 0.15478 0.31153
 H962 H 0.80239 0.09702 0.37268
 H963 H 0.71924 0.12454 0.34080
 H964 H 0.69945 0.09853 0.37064
 H965 H 0.70258 0.07052 0.40491
 H966 H 0.78262 0.07108 0.40199
 C967 C 0.26072 0.13568 0.66807
 C968 C 0.25861 0.12268 0.64740
 C969 C 0.25115 0.13577 0.62661
 C970 C 0.24600 0.16155 0.62682
 C971 C 0.24779 0.17426 0.64749
 C972 C 0.25502 0.16150 0.66832
 C973 C 0.24866 0.12287 0.60601
 C974 C 0.25318 0.09698 0.60594
 C975 C 0.26062 0.08384 0.62669
 C976 C 0.26342 0.09678 0.64726
 C977 C 0.26494 0.05791 0.62652
 C978 C 0.26176 0.04511 0.60605
 C979 C 0.25428 0.05797 0.58533
 C980 C 0.25017 0.08400 0.58545
 H981 H 0.26610 0.12559 0.68405
 H982 H 0.24032 0.17187 0.61104
 H983 H 0.24357 0.19416 0.64712
 H984 H 0.24291 0.13296 0.59010
 H985 H 0.26908 0.08668 0.66319
 H986 H 0.27058 0.04751 0.64226
 H987 H 0.26478 0.02505 0.60654
 H988 H 0.24481 0.09422 0.56952
   
