data_POSCAR
  _audit_creation_date              2014-09-24
  _audit_creation_method            'ToBaCCo'
  _symmetry_space_group_name_H-M    'P1'
  _symmetry_Int_Tables_number       1
  _symmetry_cell_setting            triclinic
  loop_
  _symmetry_equiv_pos_as_xyz
 x,y,z
_cell_length_a 27.6366
_cell_length_b 27.6418
_cell_length_c 45.3895
_cell_angle_alpha 89.931200
_cell_angle_beta 91.090900
_cell_angle_gamma 90.005700
loop_
  _atom_site_label
  _atom_site_type_symbol
  _atom_site_fract_x
  _atom_site_fract_y
  _atom_site_fract_z
O1 O -0.03907 0.54560 0.97082
 O2 O -0.04099 0.45108 1.02812
 O3 O -0.04141 0.54549 1.02808
 O4 O -0.03952 0.45122 0.97090
 O5 O 0.04051 0.45114 0.97279
 O6 O 0.03861 0.54557 1.03001
 O7 O 0.03903 0.45116 1.03001
 O8 O 0.04095 0.54552 0.97275
 Cu9 Cu -0.04832 0.49837 0.99929
 Cu10 Cu 0.04785 0.49837 1.00159
 C11 C 0.00129 0.56163 0.96221
 C12 C -0.00126 0.43496 1.03861
 C13 C -0.00174 0.56161 1.03860
 C14 C 0.00078 0.43506 0.96231
 O15 O 0.54937 -0.03648 0.52881
 O16 O 0.45222 -0.03636 0.47207
 O17 O 0.54659 -0.03682 0.47154
 O18 O 0.45498 -0.03691 0.52934
 O19 O 0.45491 0.04310 0.52937
 O20 O 0.54670 0.04319 0.47151
 O21 O 0.45232 0.04365 0.47208
 O22 O 0.54933 0.04352 0.52880
 Cu23 Cu 0.50079 -0.04472 0.50045
 Cu24 Cu 0.50082 0.05144 0.50044
 C25 C 0.56592 0.00353 0.53827
 C26 C 0.43573 0.00369 0.46260
 C27 C 0.56229 0.00315 0.46186
 C28 C 0.43928 0.00304 0.53900
 C29 C 0.09205 0.00435 0.26256
 H30 H 0.09483 0.00461 0.23882
 C31 C 0.13394 0.00583 0.28029
 H32 H 0.16914 0.00708 0.27022
 C33 C 0.04286 0.00267 0.30481
 H34 H 0.00740 0.00213 0.31434
 C35 C 0.08377 0.00416 0.32331
 H36 H 0.07963 0.00421 0.34699
 N37 N 0.04768 0.00198 0.27501
 C38 C -0.04646 -0.06691 0.20908
 H39 H -0.07601 -0.04124 0.20821
 C40 C -0.04789 -0.10801 0.19122
 H41 H -0.07854 -0.11403 0.17645
 C42 C 0.02982 -0.09038 0.22923
 H43 H 0.05983 -0.08370 0.24424
 C44 C 0.02981 -0.13195 0.21175
 H45 H 0.06006 -0.15683 0.21313
 Zn46 Zn -0.00761 -0.00069 0.24970
 N47 N -0.00755 -0.05838 0.22717
 C48 C -0.00554 0.04866 0.19478
 N49 N -0.00571 0.05409 0.22459
 C50 C -0.00318 0.09870 0.23720
 C51 C -0.00194 0.14021 0.21962
 C52 C -0.00431 0.08918 0.17642
 C53 C -0.07269 -0.03917 0.28993
 C54 C -0.11331 -0.04052 0.30775
 C55 C -0.13812 0.03677 0.28763
 C56 C -0.09702 0.03670 0.27018
 N57 N -0.06480 -0.00050 0.27207
 H58 H -0.00621 0.01301 0.18512
 H59 H -0.00249 0.10196 0.26095
 H60 H -0.00045 0.17562 0.22980
 H61 H -0.00458 0.08456 0.15272
 H62 H -0.04687 -0.06858 0.29068
 H63 H -0.11880 -0.07097 0.32236
 H64 H -0.16316 0.06690 0.28641
 H65 H -0.09082 0.06653 0.25536
 C66 C -0.00918 -0.14056 0.19239
 C67 C 0.12969 0.00543 0.31094
 C68 C -0.14605 -0.00197 0.30678
 C69 C -0.00278 0.13534 0.18895
 C70 C 0.00289 0.09784 0.76237
 H71 H 0.00230 0.10120 0.73862
 C72 C 0.00160 0.13927 0.77996
 H73 H 0.00016 0.17472 0.76979
 C74 C 0.00511 0.04761 0.80479
 H75 H 0.00575 0.01191 0.81443
 C76 C 0.00383 0.08804 0.82315
 H77 H 0.00403 0.08331 0.84685
 N78 N 0.00538 0.05317 0.77498
 C79 C 0.07267 -0.03978 0.70972
 H80 H 0.04685 -0.06920 0.70892
 C81 C 0.11341 -0.04105 0.69200
 H82 H 0.11901 -0.07145 0.67742
 C83 C 0.09687 0.03602 0.72953
 H84 H 0.09059 0.06577 0.74435
 C85 C 0.13810 0.03616 0.71219
 H86 H 0.16314 0.06627 0.71348
 Zn87 Zn 0.00740 -0.00152 0.74988
 N88 N 0.06467 -0.00119 0.72757
 C89 C -0.04302 0.00188 0.69474
 N90 N -0.04785 0.00114 0.72453
 C91 C -0.09223 0.00347 0.73697
 C92 C -0.13410 0.00497 0.71924
 C93 C -0.08392 0.00339 0.67623
 C94 C 0.04627 -0.06776 0.79056
 C95 C 0.04767 -0.10882 0.80851
 C96 C -0.03001 -0.13280 0.78800
 C97 C -0.03000 -0.09127 0.77043
 N98 N 0.00737 -0.05926 0.77244
 H99 H -0.00754 0.00136 0.68521
 H100 H -0.09501 0.00370 0.76072
 H101 H -0.16931 0.00620 0.72930
 H102 H -0.07977 0.00348 0.65254
 H103 H 0.07581 -0.04208 0.79140
 H104 H 0.07831 -0.11481 0.82331
 H105 H -0.06027 -0.15768 0.78667
 H106 H -0.06000 -0.08460 0.75540
 C107 C 0.14616 -0.00251 0.69307
 C108 C 0.00235 0.13426 0.81063
 C109 C 0.00896 -0.14137 0.80740
 C110 C -0.12984 0.00462 0.68859
 C111 C -0.00475 -0.32814 0.09907
 C112 C 0.04104 -0.32403 0.11858
 C113 C 0.03987 -0.28644 0.13797
 C114 C -0.00697 -0.25667 0.13594
 C115 C -0.04789 -0.29348 0.14008
 C116 C -0.04672 -0.33108 0.12069
 C117 C -0.01016 -0.27850 0.08419
 C118 C -0.01132 -0.24095 0.10356
 C119 C -0.00351 -0.36829 0.07799
 C120 C -0.00260 -0.40066 0.06023
 C121 C -0.00813 -0.21594 0.15660
 C122 C -0.00880 -0.18188 0.17315
 H123 H 0.07165 -0.34850 0.11731
 H124 H 0.06949 -0.27872 0.15331
 H125 H -0.07532 -0.29032 0.15677
 H126 H -0.07316 -0.36013 0.12077
 H127 H -0.01284 -0.27328 0.06050
 H128 H -0.01500 -0.20359 0.09646
 C129 C -0.00209 0.32569 0.09739
 C130 C -0.04610 0.32478 0.11752
 C131 C -0.04608 0.28670 0.13664
 C132 C -0.00206 0.25328 0.13373
 C133 C 0.04211 0.28653 0.13752
 C134 C 0.04210 0.32462 0.11841
 C135 C -0.00225 0.27618 0.08212
 C136 C -0.00223 0.23814 0.10121
 C137 C -0.00205 0.36633 0.07658
 C138 C -0.00181 0.39899 0.05896
 C139 C -0.00208 0.21198 0.15405
 C140 C -0.00227 0.17737 0.17024
 H141 H -0.07471 0.35169 0.11684
 H142 H -0.07468 0.28098 0.15234
 H143 H 0.07083 0.28071 0.15379
 H144 H 0.07080 0.35143 0.11831
 H145 H -0.00237 0.27141 0.05838
 H146 H -0.00234 0.20080 0.09382
 C147 C 0.33122 0.00139 0.59982
 C148 C 0.32520 -0.04762 0.61527
 C149 C 0.28820 -0.04855 0.63470
 C150 C 0.26086 -0.00036 0.63676
 C151 C 0.24459 0.01128 0.60502
 C152 C 0.28155 0.01220 0.58561
 C153 C 0.33689 0.03835 0.62487
 C154 C 0.29988 0.03743 0.64430
 C155 C 0.37070 0.00231 0.57867
 C156 C 0.40243 0.00282 0.56081
 C157 C 0.22072 -0.00133 0.65743
 C158 C 0.18707 -0.00199 0.67394
 H159 H 0.34801 -0.07884 0.61132
 H160 H 0.27931 -0.08054 0.64739
 H161 H 0.20728 0.01820 0.59837
 H162 H 0.27589 0.01991 0.56234
 H163 H 0.36729 0.06303 0.62715
 H164 H 0.29857 0.06131 0.66324
 C165 C -0.32272 0.00418 0.59684
 C166 C -0.27366 0.00464 0.58156
 C167 C -0.23504 0.00499 0.60064
 C168 C -0.24920 0.00486 0.63317
 C169 C -0.28205 -0.03953 0.63655
 C170 C -0.32071 -0.03988 0.61745
 C171 C -0.32150 0.04828 0.61738
 C172 C -0.28284 0.04863 0.63649
 C173 C -0.36402 0.00380 0.57606
 C174 C -0.39731 0.00359 0.55851
 C175 C -0.20731 0.00515 0.65350
 C176 C -0.17229 0.00510 0.66975
 H177 H -0.26961 0.00468 0.55781
 H178 H -0.19792 0.00534 0.59323
 H179 H -0.27554 -0.06812 0.65256
 H180 H -0.34732 -0.06878 0.61709
 H181 H -0.34864 0.07668 0.61698
 H182 H -0.27684 0.07734 0.65245
 C183 C 0.00434 -0.32838 0.90140
 C184 C -0.03869 -0.32781 0.87951
 C185 C -0.03750 -0.29035 0.85998
 C186 C 0.00661 -0.25715 0.86426
 C187 C 0.05065 -0.29082 0.86264
 C188 C 0.04946 -0.32828 0.88217
 C189 C 0.00388 -0.27839 0.91607
 C190 C 0.00507 -0.24097 0.89656
 C191 C 0.00308 -0.36840 0.92262
 C192 C 0.00216 -0.40069 0.94048
 C193 C 0.00780 -0.21655 0.84344
 C194 C 0.00851 -0.18259 0.82677
 H195 H -0.06753 -0.35449 0.87936
 H196 H -0.06532 -0.28494 0.84309
 H197 H 0.08014 -0.28571 0.84748
 H198 H 0.07793 -0.35527 0.88375
 H199 H 0.00272 -0.27286 0.93973
 H200 H 0.00494 -0.20340 0.90350
 C201 C 0.00159 0.32406 0.90232
 C202 C 0.04485 0.32409 0.88159
 C203 C 0.04483 0.28612 0.86245
 C204 C 0.00156 0.25188 0.86592
 C205 C -0.04332 0.28432 0.86275
 C206 C -0.04330 0.32229 0.88190
 C207 C 0.00322 0.27447 0.91755
 C208 C 0.00320 0.23656 0.89843
 C209 C 0.00156 0.36458 0.92316
 C210 C 0.00134 0.39717 0.94078
 C211 C 0.00159 0.21071 0.84556
 C212 C 0.00180 0.17620 0.82935
 H213 H 0.07297 0.35153 0.88190
 H214 H 0.07294 0.28104 0.84635
 H215 H -0.07250 0.27807 0.84686
 H216 H -0.07248 0.34856 0.88241
 H217 H 0.00428 0.26956 0.94130
 H218 H 0.00424 0.19918 0.90580
 C219 C -0.33010 0.00169 0.40075
 C220 C -0.27960 0.00162 0.41541
 C221 C -0.24285 0.00075 0.39586
 C222 C -0.26015 0.00003 0.36353
 C223 C -0.29330 0.04433 0.36013
 C224 C -0.33010 0.04521 0.37971
 C225 C -0.33087 -0.04294 0.38064
 C226 C -0.29408 -0.04381 0.36107
 C227 C -0.36937 0.00255 0.42204
 C228 C -0.40096 0.00300 0.43999
 C229 C -0.22024 -0.00088 0.34270
 C230 C -0.18676 -0.00149 0.32606
 H231 H -0.27325 0.00221 0.43909
 H232 H -0.20504 0.00059 0.40279
 H233 H -0.28835 0.07250 0.34377
 H234 H -0.35666 0.07411 0.38012
 H235 H -0.35794 -0.07133 0.38167
 H236 H -0.28963 -0.07294 0.34532
 C237 C 0.32241 0.00464 0.40279
 C238 C 0.33241 -0.02025 0.37331
 C239 C 0.29378 -0.01981 0.35416
 C240 C 0.24898 0.00548 0.36641
 C241 C 0.26648 0.05617 0.37537
 C242 C 0.30509 0.05573 0.39450
 C243 C 0.27751 -0.02096 0.41467
 C244 C 0.23894 -0.02051 0.39556
 C245 C 0.36367 0.00416 0.42361
 C246 C 0.39693 0.00386 0.44118
 C247 C 0.20713 0.00586 0.34604
 C248 C 0.17213 0.00587 0.32978
 H249 H 0.36678 -0.03673 0.36793
 H250 H 0.29505 -0.03591 0.33239
 H251 H 0.25004 0.08947 0.36737
 H252 H 0.32172 0.08865 0.40289
 H253 H 0.27614 -0.03797 0.43622
 H254 H 0.20453 -0.03714 0.40073
   
