data_POSCAR
  _audit_creation_date              2014-09-24
  _audit_creation_method            'ToBaCCo'
  _symmetry_space_group_name_H-M    'P1'
  _symmetry_Int_Tables_number       1
  _symmetry_cell_setting            triclinic
  loop_
  _symmetry_equiv_pos_as_xyz
 x,y,z
_cell_length_a 36.3599
_cell_length_b 36.2413
_cell_length_c 35.6452
_cell_angle_alpha 89.993900
_cell_angle_beta 89.850100
_cell_angle_gamma 89.998700
loop_
  _atom_site_label
  _atom_site_type_symbol
  _atom_site_fract_x
  _atom_site_fract_y
  _atom_site_fract_z
N1 N 0.14330 0.17367 0.23268
 N2 N 0.16134 0.14258 0.22774
 C3 C 0.15104 0.11840 0.25454
 C4 C 0.12527 0.13557 0.27750
 C5 C 0.12129 0.17057 0.26290
 H6 H 0.16159 0.09064 0.25715
 H7 H 0.10294 0.19189 0.27297
 Cu8 Cu 0.19704 0.13817 0.18704
 Cu9 Cu 0.14669 0.21483 0.19776
 Cu10 Cu 0.20884 0.20582 0.12423
 N11 N 0.23340 0.13367 0.14697
 N12 N 0.23868 0.16114 0.12344
 C13 C 0.26671 0.15280 0.10025
 C14 C 0.27953 0.11810 0.10935
 C15 C 0.25768 0.10657 0.13914
 H16 H 0.27713 0.17069 0.07838
 H17 H 0.25995 0.08105 0.15464
 N18 N 0.17617 0.24883 0.13015
 N19 N 0.15376 0.25296 0.15907
 C20 C 0.13451 0.28437 0.15466
 C21 C 0.14509 0.30053 0.12124
 C22 C 0.17137 0.27730 0.10635
 H23 H 0.11280 0.29366 0.17316
 H24 H 0.18512 0.28045 0.07961
 H25 H 0.16334 0.18439 0.15167
 H26 H 0.20027 0.20499 0.18131
 N27 N -0.12504 0.84827 0.23665
 N28 N -0.15226 0.87216 0.23650
 C29 C -0.14578 0.89824 0.26260
 C30 C -0.11254 0.89057 0.27954
 C31 C -0.10004 0.85867 0.26240
 H32 H -0.16398 0.92096 0.26917
 H33 H -0.07549 0.84330 0.26933
 Cu34 Cu -0.19358 0.86660 0.20237
 Cu35 Cu -0.12615 0.80338 0.20654
 Cu36 Cu -0.20400 0.78877 0.15217
 N37 N -0.23536 0.85963 0.16912
 N38 N -0.24046 0.82824 0.15139
 C39 C -0.27108 0.83071 0.13035
 C40 C -0.28550 0.86578 0.13443
 C41 C -0.26220 0.88340 0.15944
 H42 H -0.28101 0.80933 0.11177
 H43 H -0.26428 0.91144 0.16953
 N44 N -0.16347 0.75278 0.15591
 N45 N -0.13293 0.75940 0.17473
 C46 C -0.10902 0.73166 0.16854
 C47 C -0.12536 0.70628 0.14507
 C48 C -0.15987 0.72046 0.13756
 H49 H -0.08148 0.73014 0.17982
 H50 H -0.18006 0.70898 0.11867
 H51 H -0.15973 0.82254 0.16378
 H52 H -0.18280 0.80028 0.20480
 N53 N -0.15360 0.16787 -0.24002
 N54 N -0.18032 0.14348 -0.24125
 C55 C -0.17223 0.11781 -0.26734
 C56 C -0.13843 0.12638 -0.28294
 C57 C -0.12741 0.15843 -0.26501
 H58 H -0.18949 0.09449 -0.27428
 H59 H -0.10269 0.17420 -0.27032
 Cu60 Cu -0.22312 0.14743 -0.20845
 Cu61 Cu -0.15631 0.21106 -0.20755
 Cu62 Cu -0.21359 0.19944 -0.13060
 N63 N -0.25572 0.14172 -0.16555
 N64 N -0.25037 0.16035 -0.13438
 C65 C -0.27554 0.14982 -0.10874
 C66 C -0.29814 0.12352 -0.12479
 C67 C -0.28474 0.11901 -0.16102
 H68 H -0.27793 0.16115 -0.08076
 H69 H -0.29477 0.10030 -0.18228
 N70 N -0.17531 0.23816 -0.13332
 N71 N -0.15505 0.24387 -0.16357
 C72 C -0.13428 0.27423 -0.15837
 C73 C -0.14176 0.28820 -0.12304
 C74 C -0.16759 0.26452 -0.10786
 H75 H -0.11500 0.28514 -0.17867
 H76 H -0.18061 0.26715 -0.08068
 H77 H -0.17704 0.17579 -0.16835
 H78 H -0.21023 0.21054 -0.18681
 N79 N 0.14034 0.84103 -0.24282
 N80 N 0.17138 0.85924 -0.24676
 C81 C 0.16805 0.88323 -0.27546
 C82 C 0.13290 0.87981 -0.28997
 C83 C 0.11611 0.85300 -0.26851
 H84 H 0.18936 0.90202 -0.28465
 H85 H 0.08848 0.84248 -0.27192
 Cu86 Cu 0.21273 0.85080 -0.21323
 Cu87 Cu 0.13455 0.80107 -0.20700
 Cu88 Cu 0.20204 0.79251 -0.13993
 N89 N 0.24487 0.85241 -0.16966
 N90 N 0.23949 0.83095 -0.14041
 C91 C 0.26372 0.83990 -0.11339
 C92 C 0.28574 0.86833 -0.12666
 C93 C 0.27316 0.87534 -0.16254
 H94 H 0.26531 0.82642 -0.08638
 H95 H 0.28310 0.89636 -0.18159
 N96 N 0.16081 0.75749 -0.14430
 N97 N 0.13408 0.76194 -0.16886
 C98 C 0.10945 0.73452 -0.16465
 C99 C 0.12155 0.71140 -0.13659
 C100 C 0.15419 0.72672 -0.12415
 H101 H 0.08491 0.73101 -0.18134
 H102 H 0.17152 0.71651 -0.10184
 H103 H 0.16793 0.82800 -0.16856
 H104 H 0.18971 0.78991 -0.19672
 N105 N 0.17513 1.14273 0.76659
 N106 N 0.14600 1.16357 0.77213
 C107 C 0.12085 1.15618 0.74553
 C108 C 0.13511 1.12935 0.72208
 C109 C 0.16964 1.12162 0.73604
 H110 H 0.09437 1.16951 0.74310
 H111 H 0.18892 1.10149 0.72526
 Cu112 Cu 0.14493 1.19901 0.81287
 Cu113 Cu 0.21680 1.14255 0.80105
 Cu114 Cu 0.21367 1.20581 0.87446
 N115 N 0.14380 1.23585 0.85231
 N116 N 0.17155 1.23920 0.87566
 C117 C 0.16515 1.26787 0.89879
 C118 C 0.13147 1.28293 0.88968
 C119 C 0.11864 1.26203 0.86002
 H120 H 0.18352 1.27703 0.92071
 H121 H 0.09338 1.26622 0.84467
 N122 N 0.25374 1.16961 0.86808
 N123 N 0.25567 1.14657 0.83941
 C124 C 0.28546 1.12486 0.84363
 C125 C 0.30277 1.13450 0.87668
 C126 C 0.28195 1.16278 0.89150
 H127 H 0.29286 1.10234 0.82521
 H128 H 0.28658 1.17664 0.91793
 H129 H 0.18877 1.16171 0.84761
 H130 H 0.21165 1.19690 0.81735
 N131 N 0.83705 0.86721 0.75704
 N132 N 0.86077 0.84009 0.75314
 C133 C 0.88245 0.84716 0.72325
 C134 C 0.87173 0.88063 0.70804
 C135 C 0.84308 0.89262 0.73024
 H136 H 0.90477 0.82977 0.71377
 H137 H 0.82771 0.91796 0.72699
 Cu138 Cu 0.86164 0.79917 0.78858
 Cu139 Cu 0.79987 0.86766 0.79614
 Cu140 Cu 0.79877 0.79394 0.85802
 N141 N 0.86050 0.75774 0.82335
 N142 N 0.83505 0.75521 0.84952
 C143 C 0.84026 0.72393 0.86918
 C144 C 0.87084 0.70615 0.85477
 C145 C 0.88316 0.72844 0.82595
 H146 H 0.82393 0.71548 0.89309
 H147 H 0.90704 0.72367 0.80846
 N148 N 0.76445 0.83597 0.86177
 N149 N 0.76432 0.86341 0.83742
 C150 C 0.73711 0.88700 0.84632
 C151 C 0.71972 0.87420 0.87808
 C152 C 0.73763 0.84179 0.88729
 H153 H 0.73048 0.91192 0.83110
 H154 H 0.73109 0.82352 0.91035
 H155 H 0.82890 0.83640 0.83484
 H156 H 0.79713 0.81091 0.80290
 N157 N 0.15940 0.86160 1.24364
 N158 N 0.13304 0.83679 1.24483
 C159 C 0.11313 0.84157 1.27627
 C160 C 0.12808 0.87062 1.29602
 C161 C 0.15740 0.88289 1.27452
 H162 H 0.08920 0.82549 1.28395
 H163 H 0.17498 0.90633 1.28009
 Cu164 Cu 0.12615 0.80141 1.20463
 Cu165 Cu 0.19190 0.86560 1.20028
 Cu166 Cu 0.20376 0.78055 1.15772
 N167 N 0.12890 0.75929 1.17140
 N168 N 0.15964 0.75033 1.15417
 C169 C 0.15432 0.71903 1.13463
 C170 C 0.11813 0.70817 1.13970
 C171 C 0.10278 0.73438 1.16302
 H172 H 0.17501 0.70581 1.11741
 H173 H 0.07482 0.73500 1.17344
 N174 N 0.23826 0.82213 1.15103
 N175 N 0.23255 0.85509 1.16569
 C176 C 0.25820 0.87860 1.15273
 C177 C 0.28123 0.85941 1.12872
 C178 C 0.26803 0.82369 1.12852
 H179 H 0.25984 0.90748 1.16017
 H180 H 0.27838 0.80095 1.11193
 H181 H 0.17151 0.82660 1.16120
 H182 H 0.19267 0.81067 1.20611
 N183 N 0.83961 1.13475 1.22919
 N184 N 0.86634 1.15898 1.22599
 C185 C 0.89118 1.15293 1.25331
 C186 C 0.87902 1.12347 1.27477
 C187 C 0.84621 1.11281 1.25884
 H188 H 0.91586 1.16902 1.25759
 H189 H 0.82886 1.09018 1.26774
 Cu190 Cu 0.86552 1.19681 1.18721
 Cu191 Cu 0.79980 1.13133 1.19321
 Cu192 Cu 0.79929 1.19578 1.12151
 N193 N 0.85618 1.23931 1.15511
 N194 N 0.83090 1.23817 1.12884
 C195 C 0.83257 1.26920 1.10827
 C196 C 0.85994 1.29128 1.12272
 C197 C 0.87447 1.27157 1.15251
 H198 H 0.81572 1.27491 1.08398
 H199 H 0.89774 1.27925 1.16965
 N200 N 0.76174 1.15718 1.12670
 N201 N 0.76218 1.13229 1.15371
 C202 C 0.73404 1.10871 1.14858
 C203 C 0.71480 1.11972 1.11714
 C204 C 0.73281 1.15067 1.10416
 H205 H 0.72796 1.08525 1.16627
 H206 H 0.72585 1.16665 1.07956
 H207 H 0.82812 1.15420 1.14955
 H208 H 0.80002 1.18685 1.17830
 O209 O 0.44575 1.05519 1.06623
 O210 O 0.40627 1.01751 1.03382
 C211 C 0.41301 1.04436 1.05685
 O212 O 0.55312 1.04537 0.93551
 O213 O 0.59222 1.01420 0.97482
 C214 C 0.58580 1.03648 0.94716
 O215 O 0.44952 1.04942 0.93630
 O216 O 0.40788 1.01614 0.97119
 C217 C 0.41615 1.04060 0.94599
 O218 O 0.54887 1.05203 1.07242
 O219 O 0.59014 1.01640 1.03966
 C220 C 0.58209 1.04168 1.06411
 Zr221 Zr 0.49779 1.03312 1.05122
 O222 O 0.50182 1.09136 1.04988
 O223 O 0.49206 1.03428 1.11033
 Zr224 Zr 0.50072 1.02959 0.95648
 O225 O 0.50526 1.08784 0.95523
 O226 O 0.49818 1.02818 0.89717
 O227 O 0.46647 1.03866 1.00261
 O228 O 0.53119 1.03801 1.00448
 O229 O 0.54859 0.92234 1.07754
 O230 O 0.59007 0.95536 1.04231
 C231 C 0.58188 0.93210 1.06874
 O232 O 0.44902 0.91611 0.94046
 O233 O 0.40771 0.95168 0.97327
 C234 C 0.41577 0.92574 0.94953
 O235 O 0.55240 0.91891 0.94017
 O236 O 0.59181 0.95214 0.97739
 C237 C 0.58507 0.92800 0.95145
 O238 O 0.44570 0.91895 1.07156
 O239 O 0.40649 0.95396 1.03597
 C240 C 0.41306 0.92890 1.06105
 Zr241 Zr 0.49758 0.93976 1.05473
 O242 O 0.50136 0.88156 1.05757
 O243 O 0.49181 0.94294 1.11377
 Zr244 Zr 0.50026 0.93642 0.95999
 O245 O 0.50404 0.87824 0.96391
 O246 O 0.49806 0.93290 0.90078
 Zr247 Zr 0.44436 0.98487 1.00408
 Zr248 Zr 0.55372 0.98459 1.00730
 O249 O 0.53084 0.93128 1.00850
 O250 O 0.46606 0.93097 1.00667
 O251 O 0.53022 0.98666 1.06135
 O252 O 0.46875 0.98289 0.95049
 O253 O 0.46558 0.98674 1.05893
 O254 O 0.53351 0.98264 0.95190
 H255 H 0.54791 1.05959 1.00395
 H256 H 0.45282 0.98225 0.92799
 H257 H 0.54746 0.90964 1.00974
 H258 H 0.44832 0.98753 1.08047
 H259 H 0.51831 1.01202 0.88827
 H260 H 0.51710 0.94967 0.89067
 H261 H 0.48100 0.86921 0.97554
 H262 H 0.48313 0.87138 1.03984
 H263 H 0.51287 0.95730 1.12347
 H264 H 0.51330 1.02094 1.12108
 H265 H 0.48350 1.10037 1.03160
 H266 H 0.48308 1.09812 0.96749
 O267 O -0.07011 0.55167 0.06633
 O268 O -0.03693 0.59255 0.03049
 C269 C -0.06073 0.58492 0.05647
 O270 O 0.06285 0.45051 0.06368
 O271 O 0.02921 0.40922 0.02901
 C272 C 0.05421 0.41721 0.05354
 O273 O 0.05851 0.55395 0.06578
 O274 O 0.02382 0.59365 0.03029
 C275 C 0.04823 0.58682 0.05577
 O276 O -0.07038 0.44773 0.06443
 O277 O -0.03502 0.40804 0.02937
 C278 C -0.06011 0.41485 0.05428
 Zr279 Zr -0.05167 0.50001 0.04536
 O280 O -0.05279 0.49667 0.10462
 O281 O -0.10984 0.50250 0.04380
 Zr282 Zr 0.04140 0.50182 0.04554
 O283 O 0.04053 0.49827 0.10483
 O284 O 0.09943 0.50673 0.04593
 O285 O -0.00577 0.53380 0.05270
 O286 O -0.00447 0.46897 0.05244
 O287 O -0.07055 0.44690 -0.06729
 O288 O -0.03512 0.40760 -0.03206
 C289 C -0.06040 0.41406 -0.05671
 O290 O 0.05968 0.55383 -0.06940
 O291 O 0.02385 0.59347 -0.03484
 C292 C 0.04890 0.58671 -0.05977
 O293 O 0.06462 0.45016 -0.06592
 O294 O 0.02840 0.40924 -0.03343
 C295 C 0.05463 0.41694 -0.05685
 O296 O -0.06996 0.55124 -0.07047
 O297 O -0.03666 0.59233 -0.03511
 C298 C -0.06053 0.58455 -0.06083
 Zr299 Zr -0.05129 0.49960 -0.04956
 O300 O -0.05072 0.49571 -0.10881
 O301 O -0.10945 0.50213 -0.04954
 Zr302 Zr 0.04175 0.50156 -0.04952
 O303 O 0.03950 0.49738 -0.10874
 O304 O 0.09968 0.50639 -0.05196
 Zr305 Zr -0.00594 0.55549 -0.00217
 Zr306 Zr -0.00377 0.44604 -0.00178
 O307 O -0.00407 0.46850 -0.05623
 O308 O -0.00537 0.53350 -0.05695
 O309 O -0.05796 0.46676 -0.00194
 O310 O 0.04770 0.53368 -0.00206
 O311 O -0.05876 0.53175 -0.00222
 O312 O 0.04949 0.46904 -0.00184
 H313 H -0.00406 0.45236 0.07451
 H314 H 0.06912 0.55057 -0.00201
 H315 H -0.00364 0.45156 -0.07804
 H316 H -0.08055 0.54817 -0.00224
 H317 H 0.10956 0.48599 0.03112
 H318 H 0.10979 0.49000 -0.03236
 H319 H 0.02806 0.52026 -0.11836
 H320 H -0.03570 0.51643 -0.11841
 H321 H -0.11851 0.48154 -0.03383
 H322 H -0.11866 0.48003 0.03088
 H323 H -0.03655 0.51634 0.11432
 H324 H 0.02633 0.51960 0.11437
 O325 O 0.93301 0.07553 0.55134
 O326 O 0.97070 0.04652 0.59366
 C327 C 0.94326 0.06788 0.58534
 O328 O 0.94694 -0.05637 0.44888
 O329 O 0.97916 -0.02013 0.40740
 C330 C 0.95671 -0.04692 0.41515
 O331 O 0.94374 -0.05272 0.55416
 O332 O 0.97472 -0.01490 0.59499
 C333 C 0.95205 -0.04152 0.58771
 O334 O 0.93865 0.07776 0.44583
 O335 O 0.97582 0.04472 0.40588
 C336 C 0.95021 0.06878 0.41256
 Zr337 Zr 0.95641 0.05926 0.49927
 O338 O 0.89854 0.05564 0.49412
 O339 O 0.95295 0.11749 0.50245
 Zr340 Zr 0.96268 -0.03372 0.50131
 O341 O 0.90465 -0.03639 0.49713
 O342 O 0.96589 -0.09186 0.50588
 O343 O 0.95187 0.01291 0.53371
 O344 O 0.95339 0.01170 0.46755
 O345 O 1.06698 0.08586 0.44740
 O346 O 1.03719 0.04682 0.40693
 C347 C 1.05954 0.07377 0.41398
 O348 O 1.07705 -0.04184 0.55575
 O349 O 1.03788 -0.01129 0.59567
 C350 C 1.06561 -0.03278 0.58907
 O351 O 1.07539 -0.04764 0.45010
 O352 O 1.03927 -0.01626 0.40805
 C353 C 1.06490 -0.03966 0.41620
 O354 O 1.06911 0.08427 0.55302
 O355 O 1.03427 0.05046 0.59441
 C356 C 1.05907 0.07506 0.58673
 Zr357 Zr 1.04918 0.06574 0.50042
 O358 O 1.10697 0.07176 0.49697
 O359 O 1.04305 0.12378 0.50353
 Zr360 Zr 1.05559 -0.02749 0.50239
 O361 O 1.11364 -0.02441 0.49880
 O362 O 1.05859 -0.08560 0.50788
 Zr363 Zr 1.00513 0.01709 0.55658
 Zr364 Zr 1.00689 0.01476 0.44520
 O365 O 1.05963 0.01886 0.46911
 O366 O 1.05907 0.02026 0.53485
 O367 O 1.00290 0.06901 0.46619
 O368 O 1.00914 -0.03665 0.53447
 O369 O 1.00185 0.06992 0.53235
 O370 O 1.01012 -0.03853 0.46864
 H371 H 0.93226 0.01008 0.45013
 H372 H 1.01055 -0.05799 0.55178
 H373 H 1.08164 0.01971 0.45269
 H374 H 1.00017 0.09166 0.54913
 H375 H 0.98296 -0.10058 0.48615
 H376 H 1.04596 -0.09652 0.48599
 H377 H 1.12212 -0.00788 0.51908
 H378 H 1.11784 0.05423 0.51506
 H379 H 1.03097 0.13202 0.48015
 H380 H 0.96761 0.12767 0.48145
 H381 H 0.88971 0.03867 0.51392
 H382 H 0.89417 -0.02424 0.51960
 C383 C 1.10614 0.12169 0.30849
 C384 C 1.10780 0.08630 0.31916
 C385 C 1.08630 0.07153 0.35094
 C386 C 1.07895 0.09084 0.38216
 H387 H 1.12328 0.06651 0.30276
 H388 H 1.07852 0.04270 0.34941
 H389 H 1.08817 0.14047 0.32350
 H390 H 1.08977 0.11847 0.38561
 C391 C 0.90388 -0.08913 0.31112
 C392 C 0.93988 -0.09054 0.31876
 C393 C 0.95633 -0.06973 0.35009
 C394 C 0.94028 -0.06760 0.38388
 H395 H 0.95832 -0.10529 0.30015
 H396 H 0.98336 -0.05786 0.34576
 H397 H 0.88603 -0.07150 0.32763
 H398 H 0.91493 -0.08246 0.38917
 C399 C 0.88043 0.10621 0.68662
 C400 C 0.91677 0.10886 0.68102
 C401 C 0.93628 0.08910 0.65067
 C402 C 0.92225 0.08505 0.61618
 H403 H 0.93343 0.12449 0.70051
 H404 H 0.96428 0.08049 0.65617
 H405 H 0.86418 0.08783 0.66936
 H406 H 0.89553 0.09664 0.60972
 C407 C 1.11570 -0.10035 0.67864
 C408 C 1.13510 -0.08224 0.65251
 C409 C 1.11742 -0.06457 0.61985
 C410 C 1.08427 -0.04855 0.62193
 H411 H 1.16486 -0.08277 0.65327
 H412 H 1.13273 -0.06395 0.59375
 H413 H 1.08612 -0.10266 0.67594
 H414 H 1.07032 -0.04649 0.64874
 C415 C 0.30909 1.10020 1.09204
 C416 C 0.31831 1.06510 1.09918
 C417 C 0.34945 1.04678 1.08021
 C418 C 0.38166 1.06371 1.07406
 H419 H 0.30139 1.04827 1.11743
 H420 H 0.34652 1.01776 1.07368
 H421 H 0.32456 1.11546 1.07112
 H422 H 0.38586 1.09165 1.08399
 C423 C 0.31447 0.88683 0.89133
 C424 C 0.32205 0.88263 0.92790
 C425 C 0.35214 0.90293 0.94636
 C426 C 0.38549 0.90624 0.93075
 H427 H 0.30440 0.86607 0.94567
 H428 H 0.34736 0.91309 0.97455
 H429 H 0.33040 0.90637 0.87497
 H430 H 0.39123 0.89291 0.90415
 C431 C 0.68411 0.87994 1.11520
 C432 C 0.67553 0.91592 1.11510
 C433 C 0.64527 0.93108 1.09241
 C434 C 0.61210 0.91523 1.09021
 H435 H 0.69307 0.93573 1.12902
 H436 H 0.64993 0.95749 1.07918
 H437 H 0.66817 0.86111 1.09809
 H438 H 0.60643 0.89034 1.10606
 C439 C 0.67210 1.10617 0.89287
 C440 C 0.64841 1.08402 0.87485
 C441 C 0.61637 1.06706 0.89372
 C442 C 0.61796 1.05325 0.92855
 H443 H 0.65055 1.08023 0.84481
 H444 H 0.59139 1.06407 0.87750
 H445 H 0.66749 1.11216 0.92231
 H446 H 0.64387 1.05319 0.94351
 C447 C 0.12872 0.33281 0.10273
 C448 C 0.10987 0.35831 0.12192
 C449 C 0.09162 0.38970 0.10354
 C450 C 0.07387 0.38621 0.07087
 H451 H 0.10888 0.35718 0.15226
 H452 H 0.09037 0.41549 0.11885
 H453 H 0.13255 0.33573 0.07272
 H454 H 0.07226 0.35950 0.05730
 C455 C -0.12612 0.32111 -0.10468
 C456 C -0.11117 0.34898 -0.12422
 C457 C -0.09560 0.38236 -0.10638
 C458 C -0.07824 0.38144 -0.07331
 H459 H -0.11194 0.34844 -0.15457
 H460 H -0.09601 0.40773 -0.12244
 H461 H -0.12851 0.32303 -0.07445
 H462 H -0.07489 0.35537 -0.05884
 C463 C 0.10245 0.67817 -0.12304
 C464 C 0.11994 0.65098 -0.10500
 C465 C 0.10083 0.61778 -0.09091
 C466 C 0.06649 0.61891 -0.07730
 H467 H 0.14952 0.65211 -0.10173
 H468 H 0.11668 0.59256 -0.08877
 H469 H 0.07347 0.67554 -0.12945
 H470 H 0.05189 0.64494 -0.07598
 C471 C -0.10763 0.67337 0.12888
 C472 C -0.12685 0.64594 0.11312
 C473 C -0.10907 0.61367 0.09544
 C474 C -0.07778 0.61651 0.07574
 H475 H -0.15660 0.64621 0.11436
 H476 H -0.12365 0.58762 0.09638
 H477 H -0.07794 0.67152 0.13059
 H478 H -0.06498 0.64328 0.07207
 C479 C 1.11772 0.11215 0.68925
 C480 C 1.08120 0.11207 0.68466
 C481 C 1.06317 0.09377 0.65276
 C482 C 1.07746 0.09368 0.61811
 H483 H 1.06352 0.12339 0.70627
 H484 H 1.03635 0.08170 0.65780
 H485 H 1.13527 0.09775 0.66948
 H486 H 1.10276 0.10845 0.61234
 C487 C 0.88759 -0.09914 0.67614
 C488 C 0.90803 -0.11564 0.64980
 C489 C 0.92335 -0.09544 0.61745
 C490 C 0.93535 -0.06057 0.61988
 H491 H 0.91193 -0.14525 0.65054
 H492 H 0.92697 -0.11068 0.59155
 H493 H 0.88086 -0.07013 0.67356
 H494 H 0.93507 -0.04639 0.64663
 C495 C 1.11270 -0.11304 0.33029
 C496 C 1.13251 -0.09195 0.35347
 C497 C 1.11572 -0.07396 0.38641
 C498 C 1.08245 -0.05836 0.38440
 H499 H 1.16180 -0.08869 0.34906
 H500 H 1.13195 -0.07146 0.41172
 H501 H 1.08418 -0.11901 0.33682
 H502 H 1.06794 -0.05797 0.35786
 C503 C 0.89618 0.10640 0.30781
 C504 C 0.93215 0.10930 0.31503
 C505 C 0.94946 0.09067 0.34728
 C506 C 0.93259 0.08713 0.38054
 H507 H 0.95003 0.12346 0.29540
 H508 H 0.97762 0.08142 0.34396
 H509 H 0.87892 0.08929 0.32549
 H510 H 0.90579 0.09947 0.38500
 C511 C 0.11394 0.31511 -0.09260
 C512 C 0.07771 0.32105 -0.09511
 C513 C 0.05927 0.35241 -0.07681
 C514 C 0.07431 0.38607 -0.07454
 H515 H 0.06032 0.30096 -0.10885
 H516 H 0.03135 0.34800 -0.06709
 H517 H 0.13096 0.33330 -0.07590
 H518 H 0.10086 0.39147 -0.08729
 C519 C -0.12672 0.32581 0.10592
 C520 C -0.10654 0.35035 0.12488
 C521 C -0.09147 0.38369 0.10675
 C522 C -0.07753 0.38272 0.07197
 H523 H -0.10182 0.34668 0.15463
 H524 H -0.08907 0.40855 0.12344
 H525 H -0.13416 0.33131 0.07703
 H526 H -0.07653 0.35681 0.05682
 C527 C -0.11107 0.67260 -0.13115
 C528 C -0.12933 0.64678 -0.11174
 C529 C -0.11100 0.61403 -0.09579
 C530 C -0.07778 0.61607 -0.07986
 H531 H -0.15886 0.64888 -0.10840
 H532 H -0.12665 0.58866 -0.09405
 H533 H -0.08216 0.66883 -0.13753
 H534 H -0.06376 0.64242 -0.07836
 C535 C 0.09885 0.67644 0.12332
 C536 C 0.11685 0.64777 0.10842
 C537 C 0.09786 0.61582 0.09182
 C538 C 0.06570 0.61869 0.07383
 H539 H 0.14656 0.64653 0.10997
 H540 H 0.11222 0.58963 0.09237
 H541 H 0.06909 0.67631 0.12475
 H542 H 0.05281 0.64542 0.07031
 C543 C 0.33404 1.11619 0.89501
 C544 C 0.35817 1.09550 0.87595
 C545 C 0.38912 1.07666 0.89447
 C546 C 0.38539 1.05966 0.92762
 H547 H 0.35657 1.09385 0.84567
 H548 H 0.41486 1.07484 0.87923
 H549 H 0.33768 1.12056 0.92484
 H550 H 0.35870 1.05870 0.94120
 C551 C 0.31269 0.87357 1.10702
 C552 C 0.31642 0.90954 1.09934
 C553 C 0.34763 0.92485 1.07798
 C554 C 0.38169 0.91088 1.07964
 H555 H 0.29498 0.92868 1.10748
 H556 H 0.34274 0.95029 1.06288
 H557 H 0.33225 0.85379 1.09602
 H558 H 0.38726 0.88704 1.09704
 C559 C 0.68268 1.10199 1.09997
 C560 C 0.67714 1.06562 1.10271
 C561 C 0.64659 1.04705 1.08352
 C562 C 0.61240 1.06065 1.08332
 H563 H 0.69729 1.04839 1.11658
 H564 H 0.65231 1.02060 1.07077
 H565 H 0.66472 1.11870 1.08271
 H566 H 0.60629 1.08589 1.09842
 C567 C 0.68798 0.89162 0.89645
 C568 C 0.67979 0.88606 0.93260
 C569 C 0.64845 0.90467 0.95080
 C570 C 0.61626 0.90948 0.93332
 H571 H 0.69781 0.86957 0.94998
 H572 H 0.65146 0.91280 0.97989
 H573 H 0.67200 0.91103 0.88009
 H574 H 0.61210 0.89808 0.90555
   
