data_POSCAR
  _audit_creation_date              2014-09-24
  _audit_creation_method            'ToBaCCo'
  _symmetry_space_group_name_H-M    'P1'
  _symmetry_Int_Tables_number       1
  _symmetry_cell_setting            triclinic
  loop_
  _symmetry_equiv_pos_as_xyz
 x,y,z
_cell_length_a 59.0623
_cell_length_b 59.3722
_cell_length_c 59.0756
_cell_angle_alpha 89.938100
_cell_angle_beta 89.968700
_cell_angle_gamma 89.981500
loop_
  _atom_site_label
  _atom_site_type_symbol
  _atom_site_fract_x
  _atom_site_fract_y
  _atom_site_fract_z
N1 N 0.14873 0.16541 0.21096
 N2 N 0.16422 0.14946 0.21061
 C3 C 0.16068 0.13537 0.22817
 C4 C 0.14205 0.14300 0.23995
 C5 C 0.13481 0.16202 0.22870
 H6 H 0.17082 0.12070 0.23210
 H7 H 0.12051 0.17256 0.23307
 Cu8 Cu 0.18745 0.14872 0.18721
 Cu9 Cu 0.14771 0.18932 0.18839
 Cu10 Cu 0.18939 0.18890 0.14705
 N11 N 0.21104 0.14899 0.16416
 N12 N 0.21168 0.16477 0.14850
 C13 C 0.22949 0.16106 0.13475
 C14 C 0.24047 0.14200 0.14227
 C15 C 0.22847 0.13467 0.16089
 H16 H 0.23406 0.17140 0.12037
 H17 H 0.23215 0.12006 0.17120
 N18 N 0.16538 0.21192 0.14838
 N19 N 0.14949 0.21208 0.16413
 C20 C 0.13560 0.22973 0.16045
 C21 C 0.14319 0.24106 0.14157
 C22 C 0.16201 0.22946 0.13427
 H23 H 0.12102 0.23402 0.17065
 H24 H 0.17238 0.23349 0.11973
 H25 H 0.16337 0.17157 0.16270
 H26 H 0.18198 0.18900 0.18126
 N27 N -0.14778 0.83545 0.21085
 N28 N -0.16352 0.85115 0.21071
 C29 C -0.16005 0.86518 0.22830
 C30 C -0.14121 0.85778 0.23989
 C31 C -0.13378 0.83895 0.22848
 H32 H -0.17038 0.87965 0.23241
 H33 H -0.11932 0.82859 0.23270
 Cu34 Cu -0.18697 0.85156 0.18756
 Cu35 Cu -0.14663 0.81165 0.18822
 Cu36 Cu -0.18825 0.81210 0.14680
 N37 N -0.21026 0.85168 0.16426
 N38 N -0.21066 0.83618 0.14835
 C39 C -0.22837 0.84004 0.13451
 C40 C -0.23953 0.85890 0.14226
 C41 C -0.22774 0.86595 0.16109
 H42 H -0.23280 0.82989 0.11998
 H43 H -0.23163 0.88032 0.17164
 N44 N -0.16413 0.78915 0.14812
 N45 N -0.14828 0.78899 0.16391
 C46 C -0.13441 0.77132 0.16033
 C47 C -0.14193 0.75996 0.14148
 C48 C -0.16073 0.77157 0.13409
 H49 H -0.11992 0.76698 0.17064
 H50 H -0.17111 0.76746 0.11961
 H51 H -0.16253 0.82953 0.16272
 H52 H -0.18087 0.81147 0.18097
 N53 N -0.14875 0.16411 -0.21028
 N54 N -0.16420 0.14815 -0.21002
 C55 C -0.16055 0.13413 -0.22758
 C56 C -0.14189 0.14179 -0.23930
 C57 C -0.13475 0.16079 -0.22798
 H58 H -0.17065 0.11948 -0.23160
 H59 H -0.12048 0.17137 -0.23230
 Cu60 Cu -0.18758 0.14729 -0.18680
 Cu61 Cu -0.14796 0.18800 -0.18771
 Cu62 Cu -0.18993 0.18734 -0.14663
 N63 N -0.21131 0.14742 -0.16392
 N64 N -0.21213 0.16314 -0.14825
 C65 C -0.23006 0.15934 -0.13467
 C66 C -0.24093 0.14029 -0.14234
 C67 C -0.22874 0.13307 -0.16086
 H68 H -0.23482 0.16964 -0.12034
 H69 H -0.23231 0.11851 -0.17125
 N70 N -0.16599 0.21045 -0.14780
 N71 N -0.15000 0.21070 -0.16346
 C72 C -0.13627 0.22845 -0.15973
 C73 C -0.14406 0.23974 -0.14092
 C74 C -0.16285 0.22802 -0.13372
 H75 H -0.12169 0.23286 -0.16988
 H76 H -0.17337 0.23202 -0.11929
 H77 H -0.16373 0.17015 -0.16213
 H78 H -0.18228 0.18758 -0.18080
 N79 N 0.14975 0.83682 -0.21063
 N80 N 0.16580 0.85216 -0.20978
 C81 C 0.16308 0.86664 -0.22717
 C82 C 0.14439 0.85990 -0.23938
 C83 C 0.13629 0.84100 -0.22854
 H84 H 0.17382 0.88096 -0.23074
 H85 H 0.12174 0.83104 -0.23334
 Cu86 Cu 0.18867 0.85155 -0.18606
 Cu87 Cu 0.14753 0.81254 -0.18853
 Cu88 Cu 0.18812 0.81119 -0.14612
 N89 N 0.21138 0.85064 -0.16220
 N90 N 0.21105 0.83479 -0.14661
 C91 C 0.22850 0.83792 -0.13228
 C92 C 0.24026 0.85669 -0.13936
 C93 C 0.22909 0.86443 -0.15832
 H94 H 0.23236 0.82734 -0.11787
 H95 H 0.23357 0.87893 -0.16848
 N96 N 0.16357 0.78881 -0.14849
 N97 N 0.14812 0.78932 -0.16465
 C98 C 0.13381 0.77186 -0.16175
 C99 C 0.14067 0.75995 -0.14294
 C100 C 0.15950 0.77101 -0.13489
 H101 H 0.11950 0.76803 -0.17248
 H102 H 0.16945 0.76638 -0.12025
 H103 H 0.16315 0.82951 -0.16231
 H104 H 0.18157 0.81147 -0.18048
 N105 N 0.16479 1.14921 0.78925
 N106 N 0.14941 1.16526 0.78903
 C107 C 0.13538 1.16195 0.77136
 C108 C 0.14246 1.14290 0.76008
 C109 C 0.16109 1.13517 0.77176
 H110 H 0.12115 1.17254 0.76696
 H111 H 0.17119 1.12050 0.76779
 Cu112 Cu 0.14935 1.18891 0.81179
 Cu113 Cu 0.18849 1.14772 0.81205
 Cu114 Cu 0.18822 1.18911 0.85337
 N115 N 0.14913 1.21172 0.83541
 N116 N 0.16441 1.21167 0.85161
 C117 C 0.16055 1.22915 0.86558
 C118 C 0.14191 1.24064 0.85766
 C119 C 0.13500 1.22927 0.83855
 H120 H 0.17054 1.23323 0.88035
 H121 H 0.12081 1.23352 0.82780
 N122 N 0.21094 1.16487 0.85229
 N123 N 0.21105 1.14909 0.83654
 C124 C 0.22861 1.13509 0.84030
 C125 C 0.23992 1.14250 0.85924
 C126 C 0.22843 1.16132 0.86649
 H127 H 0.23290 1.12062 0.83006
 H128 H 0.23255 1.17163 0.88099
 H129 H 0.17030 1.16401 0.83705
 H130 H 0.18934 1.18177 0.81919
 N131 N 0.83599 0.85252 0.78933
 N132 N 0.85212 0.83724 0.78957
 C133 C 0.86612 0.84087 0.77192
 C134 C 0.85824 0.85936 0.76020
 C135 C 0.83916 0.86640 0.77158
 H136 H 0.88088 0.83089 0.76785
 H137 H 0.82843 0.88053 0.76726
 Cu138 Cu 0.85319 0.81405 0.81282
 Cu139 Cu 0.81208 0.85328 0.81194
 Cu140 Cu 0.81278 0.81156 0.85299
 N141 N 0.85292 0.79038 0.83560
 N142 N 0.83709 0.78950 0.85125
 C143 C 0.84081 0.77154 0.86468
 C144 C 0.85993 0.76071 0.85694
 C145 C 0.86726 0.77296 0.83853
 H146 H 0.83040 0.76668 0.87893
 H147 H 0.88186 0.76938 0.82808
 N148 N 0.78959 0.83538 0.85188
 N149 N 0.78934 0.85127 0.83621
 C150 C 0.77155 0.86497 0.83993
 C151 C 0.76021 0.85727 0.85876
 C152 C 0.77195 0.83856 0.86600
 H153 H 0.76714 0.87948 0.82978
 H154 H 0.76792 0.82812 0.88046
 H155 H 0.83007 0.83761 0.83753
 H156 H 0.81267 0.81909 0.81882
 N157 N 0.16341 0.85066 1.21003
 N158 N 0.14732 0.83535 1.20979
 C159 C 0.13328 0.83892 1.22741
 C160 C 0.14109 0.85739 1.23914
 C161 C 0.16017 0.86450 1.22778
 H162 H 0.11853 0.82891 1.23145
 H163 H 0.17084 0.87866 1.23210
 Cu164 Cu 0.14627 0.81221 1.18656
 Cu165 Cu 0.18733 0.85150 1.18738
 Cu166 Cu 0.18653 0.80986 1.14631
 N167 N 0.14645 0.78864 1.16374
 N168 N 0.16224 0.78781 1.14805
 C169 C 0.15845 0.76993 1.13457
 C170 C 0.13934 0.75910 1.14232
 C171 C 0.13208 0.77127 1.16079
 H172 H 0.16881 0.76514 1.12026
 H173 H 0.11748 0.76768 1.17125
 N174 N 0.20972 0.83365 1.14738
 N175 N 0.21003 0.84952 1.16303
 C176 C 0.22786 0.86317 1.15924
 C177 C 0.23913 0.85545 1.14039
 C178 C 0.22733 0.83679 1.13321
 H179 H 0.23234 0.87765 1.16939
 H180 H 0.23132 0.82634 1.11877
 H181 H 0.16929 0.83592 1.16186
 H182 H 0.18677 0.81737 1.18050
 N183 N 0.83743 1.14948 1.21078
 N184 N 0.85271 1.16558 1.20995
 C185 C 0.86726 1.16297 1.22733
 C186 C 0.86062 1.14430 1.23951
 C187 C 0.84171 1.13609 1.22867
 H188 H 0.88153 1.17379 1.23092
 H189 H 0.83182 1.12152 1.23348
 Cu190 Cu 0.85193 1.18838 1.18630
 Cu191 Cu 0.81307 1.14712 1.18875
 Cu192 Cu 0.81135 1.18762 1.14644
 N193 N 0.85080 1.21099 1.16249
 N194 N 0.83485 1.21058 1.14694
 C195 C 0.83786 1.22800 1.13264
 C196 C 0.85663 1.23983 1.13968
 C197 C 0.86450 1.22872 1.15859
 H198 H 0.82719 1.23181 1.11826
 H199 H 0.87905 1.23328 1.16871
 N200 N 0.78909 1.16303 1.14882
 N201 N 0.78975 1.14759 1.16493
 C202 C 0.77232 1.13324 1.16206
 C203 C 0.76028 1.14006 1.14333
 C204 C 0.77122 1.15890 1.13528
 H205 H 0.76859 1.11894 1.17278
 H206 H 0.76644 1.16884 1.12069
 H207 H 0.83001 1.16291 1.16254
 H208 H 0.81171 1.18101 1.18079
 O209 O 0.46821 0.95798 0.96157
 O210 O 0.44331 0.97950 0.98216
 C211 C 0.44793 0.96388 0.96759
 O212 O 0.53195 0.96014 1.04225
 O213 O 0.55668 0.98077 1.02051
 C214 C 0.55219 0.96622 1.03622
 O215 O 0.46823 0.95767 1.04003
 O216 O 0.44330 0.97941 1.01965
 C217 C 0.44795 0.96365 1.03407
 O218 O 0.53188 0.96039 0.95947
 O219 O 0.55666 0.98080 0.98130
 C220 C 0.55211 0.96633 0.96557
 Zr221 Zr 0.49998 0.97091 0.97222
 O222 O 0.50270 0.93535 0.97207
 O223 O 0.49740 0.97127 0.93647
 Zr224 Zr 0.50003 0.97067 1.02951
 O225 O 0.50280 0.93512 1.02947
 O226 O 0.49739 0.97075 1.06526
 O227 O 0.47987 0.96629 1.00087
 O228 O 0.51967 0.96674 1.00084
 O229 O 0.53160 1.03861 0.95956
 O230 O 0.55652 1.01819 0.98129
 C231 C 0.55189 1.03270 0.96557
 O232 O 0.46778 1.04016 1.04044
 O233 O 0.44311 1.01849 1.01977
 C234 C 0.44756 1.03407 1.03442
 O235 O 0.53122 1.03847 1.04273
 O236 O 0.55614 1.01843 1.02075
 C237 C 0.55149 1.03271 1.03663
 O238 O 0.46788 1.04054 0.96179
 O239 O 0.44314 1.01861 0.98221
 C240 C 0.44766 1.03438 0.96775
 Zr241 Zr 0.49978 1.02786 0.97235
 O242 O 0.50222 1.06343 0.97247
 O243 O 0.49718 1.02780 0.93661
 Zr244 Zr 0.49968 1.02766 1.02963
 O245 O 0.50209 1.06325 1.02930
 O246 O 0.49706 1.02757 1.06537
 Zr247 Zr 0.46624 0.99912 1.00094
 Zr248 Zr 0.53356 0.99938 1.00092
 O249 O 0.51940 1.03192 1.00100
 O250 O 0.47954 1.03207 1.00100
 O251 O 0.52007 0.99946 0.96786
 O252 O 0.48020 0.99905 1.03371
 O253 O 0.48021 0.99932 0.96817
 O254 O 0.52004 0.99924 1.03397
 H255 H 0.52998 0.95358 1.00083
 H256 H 0.46990 0.99894 1.04695
 H257 H 0.52961 1.04516 1.00102
 H258 H 0.46990 0.99930 0.95494
 H259 H 0.51023 0.97962 1.07122
 H260 H 0.50943 1.01801 1.07128
 H261 H 0.48908 1.06909 1.02054
 H262 H 0.48965 1.06925 0.98186
 H263 H 0.50994 1.01879 0.93066
 H264 H 0.51021 0.98027 0.93058
 H265 H 0.49022 0.92935 0.98147
 H266 H 0.49032 0.92917 1.02007
 O267 O 0.04080 0.46816 -0.03985
 O268 O 0.01862 0.44345 -0.01966
 C269 C 0.03454 0.44801 -0.03404
 O270 O 0.03806 0.53134 0.04083
 O271 O 0.01779 0.55611 0.01884
 C272 C 0.03214 0.55151 0.03474
 O273 O 0.04038 0.46803 0.03852
 O274 O 0.01851 0.44340 0.01800
 C275 C 0.03424 0.44789 0.03258
 O276 O 0.03865 0.53146 -0.04218
 O277 O 0.01797 0.55615 -0.02052
 C278 C 0.03260 0.55162 -0.03620
 Zr279 Zr 0.02782 0.49980 -0.02943
 O280 O 0.06358 0.50186 -0.02919
 O281 O 0.02776 0.49728 -0.06517
 Zr282 Zr 0.02767 0.49971 0.02775
 O283 O 0.06335 0.50083 0.02545
 O284 O 0.02871 0.49739 0.06348
 O285 O 0.03204 0.47965 -0.00081
 O286 O 0.03188 0.51939 -0.00080
 O287 O -0.03999 0.53161 -0.04250
 O288 O -0.01954 0.55624 -0.02057
 C289 C -0.03399 0.55174 -0.03640
 O290 O -0.04261 0.46821 0.03829
 O291 O -0.02076 0.44350 0.01784
 C292 C -0.03656 0.44807 0.03232
 O293 O -0.04038 0.53154 0.04042
 O294 O -0.01970 0.55619 0.01869
 C295 C -0.03432 0.55168 0.03438
 O296 O -0.04240 0.46825 -0.04029
 O297 O -0.02070 0.44352 -0.01967
 C298 C -0.03642 0.44809 -0.03424
 Zr299 Zr -0.02950 0.49989 -0.02964
 O300 O -0.06524 0.50258 -0.02968
 O301 O -0.02924 0.49731 -0.06538
 Zr302 Zr -0.02969 0.49985 0.02767
 O303 O -0.06544 0.50249 0.02753
 O304 O -0.02962 0.49723 0.06342
 Zr305 Zr -0.00102 0.46636 -0.00089
 Zr306 Zr -0.00089 0.53326 -0.00090
 O307 O -0.03369 0.51942 -0.00100
 O308 O -0.03406 0.47983 -0.00099
 O309 O -0.00079 0.51990 -0.03396
 O310 O -0.00106 0.48024 0.03186
 O311 O -0.00085 0.48029 -0.03366
 O312 O -0.00100 0.51980 0.03214
 H313 H 0.04511 0.52964 -0.00074
 H314 H -0.00109 0.47004 0.04514
 H315 H -0.04692 0.52969 -0.00105
 H316 H -0.00082 0.47004 -0.04689
 H317 H 0.01781 0.50854 0.06947
 H318 H -0.02070 0.51002 0.06938
 H319 H -0.07136 0.48997 0.01823
 H320 H -0.07124 0.49004 -0.02041
 H321 H -0.01995 0.50987 -0.07128
 H322 H 0.01874 0.51001 -0.07112
 H323 H 0.06904 0.49138 -0.01735
 H324 H 0.06901 0.50080 0.04124
 O325 O 1.04246 -0.03850 0.53162
 O326 O 1.02066 -0.01810 0.55650
 C327 C 1.03641 -0.03258 0.55190
 O328 O 1.04012 0.04211 0.46786
 O329 O 1.01981 0.02020 0.44309
 C330 C 1.03425 0.03597 0.44761
 O331 O 1.04258 0.04018 0.53125
 O332 O 1.02093 0.01969 0.55614
 C333 C 1.03655 0.03427 0.55151
 O334 O 1.04013 -0.04072 0.46793
 O335 O 1.01961 -0.01893 0.44315
 C336 C 1.03411 -0.03465 0.44769
 Zr337 Zr 1.02954 -0.02797 0.49978
 O338 O 1.06531 -0.02809 0.49748
 O339 O 1.02915 -0.06353 0.50236
 Zr340 Zr 1.03005 0.02883 0.49968
 O341 O 1.06559 0.02485 0.49882
 O342 O 1.03346 0.06428 0.50007
 O343 O 1.03415 0.00044 0.51999
 O344 O 1.03386 0.00045 0.47993
 O345 O 0.96142 -0.04019 0.46805
 O346 O 0.98206 -0.01862 0.44318
 C347 C 0.96740 -0.03418 0.44778
 O348 O 0.96006 0.04028 0.53175
 O349 O 0.98162 0.01954 0.55653
 C350 C 0.96607 0.03424 0.55199
 O351 O 0.96204 0.04227 0.46806
 O352 O 0.98238 0.02045 0.44319
 C353 C 0.96798 0.03624 0.44780
 O354 O 0.95940 -0.03811 0.53169
 O355 O 0.98137 -0.01790 0.55651
 C356 C 0.96554 -0.03225 0.55193
 Zr357 Zr 0.97224 -0.02754 0.49985
 O358 O 0.93648 -0.02719 0.49735
 O359 O 0.97210 -0.06311 0.50243
 Zr360 Zr 0.97262 0.02943 0.49988
 O361 O 0.93686 0.02940 0.49745
 O362 O 0.97284 0.06501 0.50209
 Zr363 Zr 1.00110 0.00071 0.53349
 Zr364 Zr 1.00101 0.00074 0.46619
 O365 O 0.96826 0.00100 0.48022
 O366 O 0.96802 0.00096 0.52006
 O367 O 1.00083 -0.03216 0.47966
 O368 O 1.00138 0.03327 0.51940
 O369 O 1.00089 -0.03187 0.51948
 O370 O 1.00132 0.03360 0.47973
 H371 H 1.04703 0.00041 0.46952
 H372 H 1.00139 0.04647 0.52964
 H373 H 0.95500 0.00110 0.46995
 H374 H 1.00084 -0.04506 0.52978
 H375 H 1.01848 0.07056 0.50400
 H376 H 0.98244 0.07072 0.48960
 H377 H 0.93093 0.02059 0.51037
 H378 H 0.93065 -0.01793 0.50998
 H379 H 0.98127 -0.06906 0.48977
 H380 H 1.01996 -0.06935 0.48965
 H381 H 1.07103 -0.01719 0.50877
 H382 H 1.07197 0.04026 0.49818
 C383 C 1.13263 0.13363 0.25874
 C384 C 1.12419 0.12534 0.27538
 C385 C 1.11405 0.11544 0.29521
 C386 C 1.11811 0.12469 0.31661
 C387 C 1.10823 0.11509 0.33586
 C388 C 1.09416 0.09606 0.33396
 C389 C 1.09017 0.08690 0.31236
 C390 C 1.10005 0.09654 0.29314
 C391 C 1.08372 0.08576 0.35440
 C392 C 1.08239 0.06219 0.35663
 C393 C 1.07249 0.05249 0.37580
 C394 C 1.06379 0.06617 0.39301
 C395 C 1.06505 0.08962 0.39100
 C396 C 1.07497 0.09937 0.37184
 C397 C 1.05342 0.05603 0.41260
 C398 C 1.04469 0.04714 0.42876
 H399 H 1.12895 0.13929 0.31842
 H400 H 1.11186 0.12236 0.35226
 H401 H 1.07918 0.07246 0.31029
 H402 H 1.09672 0.08928 0.27665
 H403 H 1.08923 0.05125 0.34367
 H404 H 1.07164 0.03431 0.37720
 H405 H 1.05829 0.10037 0.40418
 H406 H 1.07548 0.11755 0.37050
 C407 C 0.86867 -0.13237 0.25978
 C408 C 0.87702 -0.12416 0.27646
 C409 C 0.88705 -0.11436 0.29636
 C410 C 0.88233 -0.09199 0.30214
 C411 C 0.89214 -0.08242 0.32140
 C412 C 0.90684 -0.09512 0.33516
 C413 C 0.91145 -0.11761 0.32922
 C414 C 0.90160 -0.12715 0.30995
 C415 C 0.91740 -0.08490 0.35554
 C416 C 0.94019 -0.08932 0.36092
 C417 C 0.95020 -0.07943 0.37992
 C418 C 0.93758 -0.06504 0.39381
 C419 C 0.91488 -0.06064 0.38868
 C420 C 0.90484 -0.07049 0.36969
 C421 C 0.94804 -0.05445 0.41306
 C422 C 0.95685 -0.04535 0.42903
 H423 H 0.87115 -0.08191 0.29171
 H424 H 0.88850 -0.06499 0.32534
 H425 H 0.92245 -0.12791 0.33960
 H426 H 0.90533 -0.14450 0.30567
 H427 H 0.95039 -0.10009 0.35022
 H428 H 0.96782 -0.08287 0.38367
 H429 H 0.90495 -0.04954 0.39933
 H430 H 0.88719 -0.06700 0.36618
 C431 C 0.86806 0.13197 0.74082
 C432 C 0.87641 0.12369 0.72415
 C433 C 0.88640 0.11375 0.70428
 C434 C 0.90745 0.10302 0.70571
 C435 C 0.91716 0.09333 0.68644
 C436 C 0.90592 0.09424 0.66545
 C437 C 0.88475 0.10506 0.66421
 C438 C 0.87508 0.11475 0.68350
 C439 C 0.91625 0.08393 0.64498
 C440 C 0.90284 0.07195 0.62941
 C441 C 0.91263 0.06208 0.61027
 C442 C 0.93593 0.06407 0.60641
 C443 C 0.94939 0.07602 0.62174
 C444 C 0.93964 0.08588 0.64089
 C445 C 0.94614 0.05363 0.58692
 C446 C 0.95502 0.04482 0.57082
 H447 H 0.91633 0.10208 0.72172
 H448 H 0.93332 0.08486 0.68803
 H449 H 0.87581 0.10629 0.64826
 H450 H 0.85880 0.12307 0.68218
 H451 H 0.88484 0.06990 0.63221
 H452 H 0.90206 0.05279 0.59856
 H453 H 0.96744 0.07769 0.61892
 H454 H 0.95038 0.09524 0.65238
 C455 C 1.13524 -0.12965 0.74066
 C456 C 1.12744 -0.12099 0.72391
 C457 C 1.11798 -0.11076 0.70392
 C458 C 1.10702 -0.08992 0.70536
 C459 C 1.09753 -0.08013 0.68602
 C460 C 1.09886 -0.09110 0.66495
 C461 C 1.11002 -0.11201 0.66367
 C462 C 1.11950 -0.12176 0.68303
 C463 C 1.08846 -0.08087 0.64446
 C464 C 1.07673 -0.09434 0.62876
 C465 C 1.06661 -0.08466 0.60969
 C466 C 1.06809 -0.06142 0.60601
 C467 C 1.07983 -0.04789 0.62144
 C468 C 1.08995 -0.05753 0.64053
 C469 C 1.05719 -0.05139 0.58667
 C470 C 1.04784 -0.04288 0.57066
 H471 H 1.10567 -0.08129 0.72146
 H472 H 1.08880 -0.06417 0.68763
 H473 H 1.11159 -0.12074 0.64766
 H474 H 1.12799 -0.13788 0.68171
 H475 H 1.07501 -0.11230 0.63145
 H476 H 1.05747 -0.09528 0.59792
 H477 H 1.08110 -0.02988 0.61876
 H478 H 1.09910 -0.04675 0.65213
 C479 C 0.25920 1.13233 1.13303
 C480 C 0.27577 1.12383 1.12470
 C481 C 0.29551 1.11373 1.11460
 C482 C 0.29341 1.10087 1.09488
 C483 C 0.31255 1.09113 1.08496
 C484 C 0.33411 1.09415 1.09465
 C485 C 0.33604 1.10712 1.11448
 C486 C 0.31686 1.11683 1.12438
 C487 C 0.35445 1.08376 1.08413
 C488 C 0.37502 1.09568 1.08289
 C489 C 0.39411 1.08589 1.07290
 C490 C 0.39291 1.06407 1.06403
 C491 C 0.37255 1.05208 1.06521
 C492 C 0.35345 1.06183 1.07517
 C493 C 0.41250 1.05392 1.05370
 C494 C 0.42867 1.04507 1.04495
 H495 H 0.27698 1.09843 1.08711
 H496 H 0.31053 1.08150 1.06954
 H497 H 0.35234 1.10952 1.12251
 H498 H 0.31868 1.12672 1.13967
 H499 H 0.37626 1.11269 1.08937
 H500 H 0.40977 1.09536 1.07203
 H501 H 0.37145 1.03515 1.05846
 H502 H 0.33798 1.05210 1.07612
 C503 C 0.25910 0.86568 0.87030
 C504 C 0.27581 0.87366 0.87885
 C505 C 0.29576 0.88323 0.88903
 C506 C 0.29408 0.89517 0.90937
 C507 C 0.31341 0.90461 0.91920
 C508 C 0.33471 0.90223 0.90879
 C509 C 0.33622 0.89014 0.88836
 C510 C 0.31687 0.88071 0.87857
 C511 C 0.35522 0.91247 0.91910
 C512 C 0.37160 0.92308 0.90544
 C513 C 0.39072 0.93303 0.91518
 C514 C 0.39375 0.93249 0.93867
 C515 C 0.37763 0.92187 0.95239
 C516 C 0.35850 0.91193 0.94269
 C517 C 0.41314 0.94324 0.94874
 C518 C 0.42917 0.95251 0.95727
 H519 H 0.27781 0.89729 0.91758
 H520 H 0.31162 0.91407 0.93475
 H521 H 0.35241 0.88777 0.88007
 H522 H 0.31838 0.87144 0.86285
 H523 H 0.36943 0.92406 0.88727
 H524 H 0.40302 0.94131 0.90441
 H525 H 0.37982 0.92135 0.97059
 H526 H 0.34636 0.90364 0.95363
 C527 C 0.74164 0.86855 1.13323
 C528 C 0.72494 0.87713 1.12522
 C529 C 0.70500 0.88737 1.11565
 C530 C 0.70705 0.90310 1.09811
 C531 C 0.68772 0.91304 1.08877
 C532 C 0.66603 0.90735 1.09686
 C533 C 0.66416 0.89152 1.11451
 C534 C 0.68352 0.88162 1.12384
 C535 C 0.64548 0.91782 1.08685
 C536 C 0.62593 0.90487 1.08281
 C537 C 0.60673 0.91466 1.07306
 C538 C 0.60676 0.93752 1.06726
 C539 C 0.62605 0.95059 1.07134
 C540 C 0.64528 0.94083 1.08106
 C541 C 0.58721 0.94750 1.05668
 C542 C 0.57106 0.95596 1.04752
 H543 H 0.72358 0.90762 1.09159
 H544 H 0.68971 0.92492 1.07500
 H545 H 0.64774 0.88700 1.12130
 H546 H 0.68174 0.86951 1.13745
 H547 H 0.62564 0.88707 1.08681
 H548 H 0.59193 0.90437 1.06988
 H549 H 0.62625 0.96831 1.06693
 H550 H 0.65993 0.95132 1.08423
 C551 C 0.74022 1.13058 0.86660
 C552 C 0.72352 1.12199 0.87457
 C553 C 0.70361 1.11175 0.88418
 C554 C 0.70523 1.09104 0.89540
 C555 C 0.68595 1.08116 0.90493
 C556 C 0.66475 1.09190 0.90338
 C557 C 0.66330 1.11270 0.89200
 C558 C 0.68260 1.12253 0.88248
 C559 C 0.64431 1.08155 0.91375
 C560 C 0.62836 1.09494 0.92524
 C561 C 0.60932 1.08514 0.93532
 C562 C 0.60594 1.06185 0.93402
 C563 C 0.62163 1.04839 0.92252
 C564 C 0.64069 1.05815 0.91245
 C565 C 0.58663 1.05169 0.94487
 C566 C 0.57064 1.04309 0.95418
 H567 H 0.72141 1.08257 0.89689
 H568 H 0.68770 1.06531 0.91383
 H569 H 0.64720 1.12124 0.89027
 H570 H 0.68114 1.13854 0.87378
 H571 H 0.63081 1.11294 0.92681
 H572 H 0.59734 1.09571 0.94427
 H573 H 0.61917 1.03034 0.92140
 H574 H 0.65249 1.04742 0.90348
 C575 C 0.13334 0.26077 0.13142
 C576 C 0.12502 0.27727 0.12288
 C577 C 0.11499 0.29691 0.11266
 C578 C 0.09541 0.29482 0.09951
 C579 C 0.08559 0.31387 0.08963
 C580 C 0.09524 0.33531 0.09276
 C581 C 0.11497 0.33723 0.10597
 C582 C 0.12476 0.31815 0.11585
 C583 C 0.08473 0.35557 0.08234
 C584 C 0.09826 0.37253 0.07262
 C585 C 0.08831 0.39150 0.06268
 C586 C 0.06472 0.39378 0.06235
 C587 C 0.05113 0.37705 0.07204
 C588 C 0.06104 0.35807 0.08197
 C589 C 0.05438 0.41315 0.05191
 C590 C 0.04539 0.42915 0.04312
 H591 H 0.08774 0.27846 0.09686
 H592 H 0.07059 0.31179 0.07930
 H593 H 0.12265 0.35352 0.10894
 H594 H 0.13989 0.31997 0.12605
 H595 H 0.11653 0.37097 0.07238
 H596 H 0.09899 0.40431 0.05515
 H597 H 0.03286 0.37866 0.07193
 H598 H 0.05017 0.34548 0.08958
 C599 C -0.13453 0.25962 -0.13085
 C600 C -0.12652 0.27629 -0.12239
 C601 C -0.11692 0.29616 -0.11226
 C602 C -0.12345 0.31755 -0.11979
 C603 C -0.11405 0.33685 -0.11003
 C604 C -0.09798 0.33501 -0.09254
 C605 C -0.09156 0.31341 -0.08506
 C606 C -0.10096 0.29414 -0.09486
 C607 C -0.08783 0.35549 -0.08224
 C608 C -0.08401 0.35663 -0.05875
 C609 C -0.07412 0.37575 -0.04913
 C610 C -0.06790 0.39398 -0.06282
 C611 C -0.07174 0.39308 -0.08618
 C612 C -0.08166 0.37398 -0.09584
 C613 C -0.05713 0.41338 -0.05294
 C614 C -0.04784 0.42939 -0.04451
 H615 H -0.13583 0.31932 -0.13321
 H616 H -0.11955 0.35322 -0.11597
 H617 H -0.07900 0.31141 -0.07186
 H618 H -0.09573 0.27767 -0.08894
 H619 H -0.08884 0.34281 -0.04780
 H620 H -0.07124 0.37627 -0.03103
 H621 H -0.06690 0.40705 -0.09695
 H622 H -0.08411 0.37351 -0.11399
 C623 C 0.13036 0.74004 -0.13369
 C624 C 0.12174 0.72334 -0.12588
 C625 C 0.11149 0.70340 -0.11649
 C626 C 0.12240 0.68256 -0.11840
 C627 C 0.11257 0.66323 -0.10908
 C628 C 0.09165 0.66449 -0.09772
 C629 C 0.08078 0.68552 -0.09598
 C630 C 0.09065 0.70483 -0.10530
 C631 C 0.08133 0.64402 -0.08754
 C632 C 0.05783 0.64032 -0.08889
 C633 C 0.04809 0.62124 -0.07896
 C634 C 0.06169 0.60561 -0.06756
 C635 C 0.08508 0.60906 -0.06622
 C636 C 0.09486 0.62812 -0.07615
 C637 C 0.05156 0.58630 -0.05681
 C638 C 0.04299 0.57032 -0.04756
 H639 H 0.13851 0.68125 -0.12708
 H640 H 0.12122 0.64726 -0.11096
 H641 H 0.06483 0.68711 -0.08709
 H642 H 0.08208 0.72088 -0.10366
 H643 H 0.04699 0.65209 -0.09778
 H644 H 0.02996 0.61873 -0.08011
 H645 H 0.09575 0.59713 -0.05733
 H646 H 0.11294 0.63063 -0.07454
 C647 C -0.13218 0.74006 0.13166
 C648 C -0.12389 0.72336 0.12352
 C649 C -0.11388 0.70343 0.11389
 C650 C -0.12204 0.69476 0.09345
 C651 C -0.11226 0.67545 0.08405
 C652 C -0.09415 0.66455 0.09500
 C653 C -0.08609 0.67339 0.11557
 C654 C -0.09591 0.69269 0.12494
 C655 C -0.08363 0.64413 0.08494
 C656 C -0.05999 0.64116 0.08539
 C657 C -0.05009 0.62210 0.07563
 C658 C -0.06365 0.60573 0.06533
 C659 C -0.08719 0.60846 0.06490
 C660 C -0.09712 0.62751 0.07463
 C661 C -0.05340 0.58640 0.05477
 C662 C -0.04474 0.57041 0.04564
 H663 H -0.13591 0.70298 0.08471
 H664 H -0.11865 0.66926 0.06805
 H665 H -0.07237 0.66523 0.12455
 H666 H -0.08949 0.69921 0.14081
 H667 H -0.04912 0.65377 0.09292
 H668 H -0.03184 0.62022 0.07595
 H669 H -0.09785 0.59589 0.05698
 H670 H -0.11538 0.62916 0.07426
 C671 C 1.13261 0.13314 0.74018
 C672 C 1.12444 0.12485 0.72347
 C673 C 1.11478 0.11485 0.70353
 C674 C 1.09798 0.12626 0.69138
 C675 C 1.08855 0.11652 0.67204
 C676 C 1.09583 0.09520 0.66458
 C677 C 1.11277 0.08390 0.67689
 C678 C 1.12217 0.09367 0.69624
 C679 C 1.08569 0.08474 0.64416
 C680 C 1.09931 0.07300 0.62857
 C681 C 1.08968 0.06297 0.60946
 C682 C 1.06634 0.06453 0.60571
 C683 C 1.05266 0.07621 0.62108
 C684 C 1.06225 0.08626 0.64017
 C685 C 1.05631 0.05391 0.58629
 C686 C 1.04752 0.04497 0.57025
 H687 H 1.09219 0.14270 0.69685
 H688 H 1.07575 0.12576 0.66276
 H689 H 1.11851 0.06735 0.67176
 H690 H 1.13513 0.08467 0.70556
 H691 H 1.11743 0.07178 0.63103
 H692 H 1.10041 0.05398 0.59765
 H693 H 1.03456 0.07742 0.61837
 H694 H 1.05129 0.09491 0.65201
 C695 C 0.86790 -0.13070 0.74027
 C696 C 0.87596 -0.12226 0.72356
 C697 C 0.88555 -0.11207 0.70365
 C698 C 0.88485 -0.12342 0.68291
 C699 C 0.89420 -0.11352 0.66357
 C700 C 0.90435 -0.09211 0.66474
 C701 C 0.90492 -0.08084 0.68567
 C702 C 0.89558 -0.09078 0.70499
 C703 C 0.91446 -0.08164 0.64427
 C704 C 0.91174 -0.05847 0.64002
 C705 C 0.92161 -0.04856 0.62095
 C706 C 0.93430 -0.06165 0.60590
 C707 C 0.93700 -0.08473 0.60990
 C708 C 0.92713 -0.09469 0.62894
 C709 C 0.94499 -0.05132 0.58664
 C710 C 0.95421 -0.04263 0.57067
 H711 H 0.87705 -0.13988 0.68169
 H712 H 0.89326 -0.12249 0.64765
 H713 H 0.91289 -0.06449 0.68718
 H714 H 0.89625 -0.08188 0.72098
 H715 H 0.90184 -0.04806 0.65135
 H716 H 0.91941 -0.03068 0.61800
 H717 H 0.94689 -0.09499 0.59840
 H718 H 0.92977 -0.11249 0.63191
 C719 C 1.13126 -0.13275 0.25901
 C720 C 1.12293 -0.12447 0.27567
 C721 C 1.11292 -0.11455 0.29549
 C722 C 1.11927 -0.12199 0.31706
 C723 C 1.10955 -0.11232 0.33632
 C724 C 1.09335 -0.09506 0.33423
 C725 C 1.08706 -0.08774 0.31246
 C726 C 1.09679 -0.09744 0.29323
 C727 C 1.08310 -0.08467 0.35465
 C728 C 1.07947 -0.06127 0.35561
 C729 C 1.06971 -0.05148 0.37477
 C730 C 1.06344 -0.06492 0.39320
 C731 C 1.06702 -0.08820 0.39246
 C732 C 1.07681 -0.09803 0.37331
 C733 C 1.05318 -0.05473 0.41275
 C734 C 1.04452 -0.04580 0.42888
 H735 H 1.13179 -0.13520 0.31899
 H736 H 1.11494 -0.11812 0.35285
 H737 H 1.07442 -0.07471 0.31029
 H738 H 1.09170 -0.09162 0.27660
 H739 H 1.08442 -0.05050 0.34166
 H740 H 1.06705 -0.03342 0.37520
 H741 H 1.06215 -0.09876 0.40662
 H742 H 1.07914 -0.11612 0.37296
 C743 C 0.87111 0.13528 0.25946
 C744 C 0.87978 0.12757 0.27622
 C745 C 0.89000 0.11820 0.29622
 C746 C 0.87804 0.11800 0.31667
 C747 C 0.88776 0.10850 0.33602
 C748 C 0.90961 0.09908 0.33515
 C749 C 0.92155 0.09950 0.31453
 C750 C 0.91178 0.10899 0.29520
 C751 C 0.91979 0.08860 0.35558
 C752 C 0.94285 0.09175 0.36062
 C753 C 0.95249 0.08154 0.37965
 C754 C 0.93921 0.06808 0.39387
 C755 C 0.91624 0.06493 0.38907
 C756 C 0.90656 0.07513 0.37007
 C757 C 0.94926 0.05712 0.41312
 C758 C 0.95775 0.04771 0.42908
 H759 H 0.86117 0.12512 0.31764
 H760 H 0.87827 0.10869 0.35170
 H761 H 0.93826 0.09212 0.31325
 H762 H 0.92115 0.10898 0.27942
 H763 H 0.95340 0.10225 0.34995
 H764 H 0.97029 0.08409 0.38323
 H765 H 0.90584 0.05444 0.39992
 H766 H 0.88885 0.07214 0.36647
 C767 C 0.13194 0.26047 -0.13270
 C768 C 0.12373 0.27713 -0.12444
 C769 C 0.11408 0.29701 -0.11443
 C770 C 0.12635 0.30918 -0.09830
 C771 C 0.11697 0.32842 -0.08841
 C772 C 0.09516 0.33575 -0.09458
 C773 C 0.08299 0.32342 -0.11086
 C774 C 0.09241 0.30417 -0.12071
 C775 C 0.08509 0.35607 -0.08396
 C776 C 0.07255 0.37149 -0.09700
 C777 C 0.06282 0.39046 -0.08692
 C778 C 0.06549 0.39425 -0.06370
 C779 C 0.07802 0.37907 -0.05059
 C780 C 0.08778 0.36011 -0.06064
 C781 C 0.05494 0.41344 -0.05325
 C782 C 0.04581 0.42934 -0.04448
 H783 H 0.14317 0.30380 -0.09336
 H784 H 0.12686 0.33771 -0.07614
 H785 H 0.06606 0.32846 -0.11573
 H786 H 0.08274 0.29483 -0.13314
 H787 H 0.07043 0.36900 -0.11503
 H788 H 0.05315 0.40211 -0.09721
 H789 H 0.08008 0.38180 -0.03258
 H790 H 0.09708 0.34839 -0.05010
 C791 C -0.13403 0.25971 0.12949
 C792 C -0.12618 0.27641 0.12095
 C793 C -0.11677 0.29634 0.11078
 C794 C -0.10556 0.29496 0.08996
 C795 C -0.09626 0.31428 0.08014
 C796 C -0.09806 0.33527 0.09105
 C797 C -0.10943 0.33648 0.11195
 C798 C -0.11872 0.31713 0.12173
 C799 C -0.08792 0.35574 0.08077
 C800 C -0.07646 0.37153 0.09433
 C801 C -0.06656 0.39060 0.08459
 C802 C -0.06801 0.39416 0.06122
 C803 C -0.07948 0.37864 0.04761
 C804 C -0.08938 0.35955 0.05730
 C805 C -0.05726 0.41345 0.05115
 C806 C -0.04798 0.42940 0.04262
 H807 H -0.10390 0.27892 0.08137
 H808 H -0.08735 0.31275 0.06419
 H809 H -0.11133 0.35243 0.12062
 H810 H -0.12743 0.31839 0.13783
 H811 H -0.07478 0.36892 0.11239
 H812 H -0.05761 0.40246 0.09526
 H813 H -0.08069 0.38125 0.02949
 H814 H -0.09833 0.34785 0.04647
 C815 C -0.12996 0.74070 -0.13389
 C816 C -0.12151 0.72390 -0.12615
 C817 C -0.11148 0.70387 -0.11682
 C818 C -0.08970 0.70464 -0.10755
 C819 C -0.08003 0.68523 -0.09826
 C820 C -0.09207 0.66478 -0.09810
 C821 C -0.11393 0.66417 -0.10754
 C822 C -0.12355 0.68359 -0.11684
 C823 C -0.08196 0.64425 -0.08789
 C824 C -0.09523 0.62969 -0.07456
 C825 C -0.08563 0.61058 -0.06461
 C826 C -0.06267 0.60575 -0.06788
 C827 C -0.04935 0.62005 -0.08121
 C828 C -0.05892 0.63918 -0.09117
 C829 C -0.05267 0.58644 -0.05711
 C830 C -0.04421 0.57045 -0.04781
 H831 H -0.08024 0.72027 -0.10739
 H832 H -0.06331 0.68632 -0.09084
 H833 H -0.12350 0.64862 -0.10793
 H834 H -0.14041 0.68280 -0.12403
 H835 H -0.11294 0.63330 -0.07147
 H836 H -0.09605 0.59968 -0.05422
 H837 H -0.03155 0.61646 -0.08383
 H838 H -0.04834 0.64991 -0.10156
 C839 C 0.12911 0.73922 0.13308
 C840 C 0.12054 0.72254 0.12528
 C841 C 0.11033 0.70265 0.11590
 C842 C 0.08949 0.70410 0.10473
 C843 C 0.07967 0.68483 0.09539
 C844 C 0.09059 0.66383 0.09708
 C845 C 0.11150 0.66253 0.10842
 C846 C 0.12129 0.68183 0.11776
 C847 C 0.08034 0.64343 0.08681
 C848 C 0.09393 0.62773 0.07525
 C849 C 0.08423 0.60876 0.06519
 C850 C 0.06085 0.60521 0.06658
 C851 C 0.04720 0.62064 0.07816
 C852 C 0.05687 0.63963 0.08823
 C853 C 0.05082 0.58602 0.05566
 C854 C 0.04235 0.57013 0.04625
 H855 H 0.08091 0.72016 0.10314
 H856 H 0.06372 0.68643 0.08650
 H857 H 0.12018 0.64657 0.11024
 H858 H 0.13740 0.68052 0.12642
 H859 H 0.11200 0.63034 0.07361
 H860 H 0.09493 0.59697 0.05616
 H861 H 0.02908 0.61804 0.07933
 H862 H 0.04601 0.65126 0.09725
 C863 C 0.25968 1.13266 0.86935
 C864 C 0.27625 1.12441 0.87787
 C865 C 0.29599 1.11455 0.88809
 C866 C 0.31655 1.12625 0.88807
 C867 C 0.33573 1.11669 0.89807
 C868 C 0.33456 1.09528 0.90824
 C869 C 0.31381 1.08364 0.90813
 C870 C 0.29466 1.09323 0.89812
 C871 C 0.35488 1.08509 0.91890
 C872 C 0.35304 1.07330 0.93949
 C873 C 0.37212 1.06348 0.94939
 C874 C 0.39327 1.06531 0.93888
 C875 C 0.39532 1.07709 0.91845
 C876 C 0.37626 1.08695 0.90852
 C877 C 0.41275 1.05476 0.94891
 C878 C 0.42884 1.04562 0.95744
 H879 H 0.31774 1.14279 0.88040
 H880 H 0.35140 1.12616 0.89812
 H881 H 0.31245 1.06701 0.91554
 H882 H 0.27884 1.08400 0.89816
 H883 H 0.33688 1.07185 0.94804
 H884 H 0.37037 1.05442 0.96523
 H885 H 0.41161 1.07851 0.91014
 H886 H 0.37816 1.09568 0.89253
 C887 C 0.25909 0.86489 1.13028
 C888 C 0.27585 0.87282 1.12180
 C889 C 0.29583 0.88233 1.11169
 C890 C 0.29434 0.89389 1.09109
 C891 C 0.31372 0.90331 1.08135
 C892 C 0.33487 0.90130 1.09213
 C893 C 0.33620 0.88958 1.11280
 C894 C 0.31680 0.88015 1.12250
 C895 C 0.35540 0.91160 1.08196
 C896 C 0.37132 0.92274 1.09567
 C897 C 0.39043 0.93281 1.08606
 C898 C 0.39390 0.93185 1.06265
 C899 C 0.37825 0.92069 1.04888
 C900 C 0.35912 0.91062 1.05845
 C901 C 0.41324 0.94275 1.05271
 C902 C 0.42924 0.95214 1.04428
 H903 H 0.27818 0.89572 1.08263
 H904 H 0.31210 0.91249 1.06559
 H905 H 0.35228 0.88750 1.12135
 H906 H 0.31814 0.87119 1.13843
 H907 H 0.36877 0.92405 1.11378
 H908 H 0.40239 0.94152 1.09685
 H909 H 0.38079 0.91985 1.03073
 H910 H 0.34732 0.90193 1.04750
 C911 C 0.74033 1.12974 1.13416
 C912 C 0.72357 1.12112 1.12644
 C913 C 0.70357 1.11089 1.11714
 C914 C 0.68251 1.12138 1.11969
 C915 C 0.66310 1.11160 1.11043
 C916 C 0.66452 1.09115 1.09848
 C917 C 0.68577 1.08068 1.09611
 C918 C 0.70516 1.09051 1.10538
 C919 C 0.64399 1.08092 1.08831
 C920 C 0.64057 1.05748 1.08915
 C921 C 0.62144 1.04783 1.07917
 C922 C 0.60550 1.06147 1.06824
 C923 C 0.60866 1.08481 1.06744
 C924 C 0.62777 1.09449 1.07741
 C925 C 0.58618 1.05146 1.05741
 C926 C 0.57019 1.04298 1.04807
 H927 H 0.68110 1.13714 1.12882
 H928 H 0.64695 1.11991 1.11278
 H929 H 0.68746 1.06510 1.08675
 H930 H 0.72140 1.08228 1.10325
 H931 H 0.65261 1.04662 1.09765
 H932 H 0.61914 1.02974 1.07988
 H933 H 0.59648 1.09550 1.05892
 H934 H 0.63008 1.11254 1.07622
 C935 C 0.74031 0.86690 0.86878
 C936 C 0.72362 0.87515 0.87708
 C937 C 0.70375 0.88515 0.88690
 C938 C 0.70378 0.89163 0.90967
 C939 C 0.68456 0.90157 0.91918
 C940 C 0.66504 0.90519 0.90601
 C941 C 0.66518 0.89860 0.88313
 C942 C 0.68442 0.88864 0.87366
 C943 C 0.64466 0.91582 0.91609
 C944 C 0.63213 0.93191 0.90386
 C945 C 0.61308 0.94208 0.91351
 C946 C 0.60630 0.93627 0.93545
 C947 C 0.61859 0.92023 0.94770
 C948 C 0.63764 0.91006 0.93811
 C949 C 0.58694 0.94693 0.94558
 C950 C 0.57090 0.95582 0.95447
 H951 H 0.71869 0.88908 0.92004
 H952 H 0.68508 0.90674 0.93674
 H953 H 0.65033 0.90091 0.87265
 H954 H 0.68422 0.88365 0.85603
 H955 H 0.63728 0.93691 0.88699
 H956 H 0.60373 0.95456 0.90392
 H957 H 0.61347 0.91560 0.96470
 H958 H 0.64676 0.89752 0.94783
   
