data_POSCAR
  _audit_creation_date              2014-09-24
  _audit_creation_method            'ToBaCCo'
  _symmetry_space_group_name_H-M    'P1'
  _symmetry_Int_Tables_number       1
  _symmetry_cell_setting            triclinic
  loop_
  _symmetry_equiv_pos_as_xyz
 x,y,z
_cell_length_a 36.6497
_cell_length_b 36.6912
_cell_length_c 20.5907
_cell_angle_alpha 89.938900
_cell_angle_beta 90.062300
_cell_angle_gamma 90.019800
loop_
  _atom_site_label
  _atom_site_type_symbol
  _atom_site_fract_x
  _atom_site_fract_y
  _atom_site_fract_z
C1 C -0.03375 0.26909 0.03319
 C2 C -0.03367 0.26906 -0.03548
 C3 C -0.00042 0.26922 -0.06917
 C4 C 0.03280 0.26909 -0.03537
 C5 C 0.03270 0.26920 0.03316
 C6 C -0.00049 0.26935 0.06688
 H7 H -0.00036 0.26909 0.11960
 H8 H -0.00040 0.26887 -0.12192
 C9 C 0.46688 0.77143 0.53410
 C10 C 0.46671 0.77142 0.46567
 C11 C 0.49984 0.77158 0.43186
 C12 C 0.53305 0.77133 0.46561
 C13 C 0.53322 0.77122 0.53404
 C14 C 0.50009 0.77148 0.56785
 H15 H 0.50015 0.77108 0.62054
 H16 H 0.49978 0.77126 0.37917
 C17 C 1.03324 0.72953 0.03420
 C18 C 1.03311 0.72937 -0.03433
 C19 C 0.99991 0.72918 -0.06813
 C20 C 0.96672 0.72949 -0.03442
 C21 C 0.96685 0.72958 0.03411
 C22 C 1.00005 0.72943 0.06791
 H23 H 0.99998 0.72987 0.12062
 H24 H 0.99997 0.72943 -0.12085
 C25 C 0.53319 0.23001 0.53512
 C26 C 0.53330 0.23001 0.46668
 C27 C 0.50014 0.22970 0.43283
 C28 C 0.46693 0.22976 0.46652
 C29 C 0.46681 0.22986 0.53496
 C30 C 0.49998 0.22980 0.56882
 H31 H 0.49996 0.23017 0.62150
 H32 H 0.50016 0.22999 0.38014
 C33 C 0.72968 -0.03369 0.03570
 C34 C 0.72972 -0.03363 -0.03284
 C35 C 0.72953 -0.00047 -0.06662
 C36 C 0.72966 0.03265 -0.03290
 C37 C 0.72959 0.03262 0.03552
 C38 C 0.72942 -0.00051 0.06940
 H39 H 0.72973 -0.00040 0.12211
 H40 H 0.72994 -0.00044 -0.11930
 C41 C 0.22955 0.46677 0.53420
 C42 C 0.22960 0.46668 0.46575
 C43 C 0.22949 0.49979 0.43182
 C44 C 0.22970 0.53298 0.46543
 C45 C 0.22976 0.53308 0.53387
 C46 C 0.22949 0.49996 0.56781
 H47 H 0.22983 0.50002 0.62049
 H48 H 0.22982 0.49974 0.37913
 C49 C 0.26897 1.03424 0.03428
 C50 C 0.26896 1.03428 -0.03440
 C51 C 0.26913 1.00108 -0.06812
 C52 C 0.26896 0.96792 -0.03435
 C53 C 0.26896 0.96789 0.03407
 C54 C 0.26914 1.00099 0.06792
 H55 H 0.26882 1.00080 0.12063
 H56 H 0.26881 1.00098 -0.12083
 C57 C 0.77168 0.53311 0.53386
 C58 C 0.77153 0.53327 0.46543
 C59 C 0.77178 0.50020 0.43152
 C60 C 0.77177 0.46700 0.46518
 C61 C 0.77183 0.46685 0.53362
 C62 C 0.77199 0.49992 0.56752
 H63 H 0.77171 0.49982 0.62020
 H64 H 0.77133 0.50029 0.37884
 O65 O 0.24174 0.19127 0.24928
 O66 O 0.22990 0.27946 0.33213
 O67 O 0.19169 0.24146 0.24949
 O68 O 0.27998 0.22927 0.33198
 O69 O 0.30780 0.25715 0.25061
 O70 O 0.21952 0.26934 0.16813
 O71 O 0.25772 0.30733 0.25077
 O72 O 0.26956 0.21914 0.16793
 Cu73 Cu 0.23303 0.23255 0.29895
 Cu74 Cu 0.26646 0.26605 0.20115
 C75 C 0.25749 0.19034 0.19447
 C76 C 0.24192 0.30827 0.30555
 C77 C 0.19073 0.25732 0.19476
 C78 C 0.30876 0.24130 0.30535
 O79 O 0.75805 0.80881 0.24932
 O80 O 0.76997 0.72056 0.33215
 O81 O 0.80807 0.75858 0.24954
 O82 O 0.71991 0.77076 0.33192
 O83 O 0.69198 0.74298 0.25056
 O84 O 0.78013 0.73079 0.16819
 O85 O 0.74205 0.69278 0.25081
 O86 O 0.73012 0.78103 0.16797
 Cu87 Cu 0.76681 0.76749 0.29897
 Cu88 Cu 0.73324 0.73409 0.20116
 C89 C 0.74219 0.80979 0.19455
 C90 C 0.75794 0.69179 0.30555
 C91 C 0.80895 0.74272 0.19487
 C92 C 0.69109 0.75880 0.30525
 O93 O 0.80900 0.24182 0.24867
 O94 O 0.72077 0.23032 0.33227
 O95 O 0.75854 0.19192 0.24967
 O96 O 0.77123 0.28020 0.33141
 O97 O 0.74325 0.30797 0.25004
 O98 O 0.73056 0.21968 0.16828
 O99 O 0.69279 0.25807 0.25089
 O100 O 0.78101 0.26958 0.16730
 Cu101 Cu 0.76771 0.23328 0.29871
 Cu102 Cu 0.73409 0.26663 0.20092
 C103 C 0.80988 0.25750 0.19373
 C104 C 0.69190 0.24236 0.30580
 C105 C 0.74253 0.19092 0.19506
 C106 C 0.75923 0.30896 0.30467
 O107 O 0.26890 0.78071 0.16743
 O108 O 0.25714 0.69233 0.24974
 O109 O 0.21886 0.73039 0.16700
 O110 O 0.30716 0.74267 0.25013
 O111 O 0.27915 0.77024 0.33148
 O112 O 0.19085 0.75796 0.24834
 O113 O 0.22914 0.71990 0.33108
 O114 O 0.24089 0.80829 0.24878
 Cu115 Cu 0.26583 0.73374 0.20037
 Cu116 Cu 0.23218 0.76687 0.29812
 C117 C 0.25677 0.80940 0.19411
 C118 C 0.24130 0.69122 0.30445
 C119 C 0.18997 0.74224 0.19350
 C120 C 0.30804 0.75841 0.30496
 O121 O 0.69279 0.25788 0.74991
 O122 O 0.78126 0.26958 0.83194
 O123 O 0.74321 0.30775 0.74926
 O124 O 0.73087 0.21969 0.83250
 O125 O 0.75840 0.19164 0.75115
 O126 O 0.77074 0.27970 0.66791
 O127 O 0.80881 0.24152 0.75059
 O128 O 0.72032 0.22983 0.66855
 Cu129 Cu 0.73425 0.26656 0.79912
 Cu130 Cu 0.76735 0.23284 0.70133
 C131 C 0.69165 0.24200 0.69527
 C132 C 0.80994 0.25740 0.80524
 C133 C 0.75894 0.30857 0.69442
 C134 C 0.74268 0.19082 0.80599
 O135 O 0.30795 0.74301 0.74917
 O136 O 0.21979 0.73034 0.83133
 O137 O 0.25811 0.69256 0.74879
 O138 O 0.26956 0.78084 0.83161
 O139 O 0.24159 0.80854 0.75014
 O140 O 0.23013 0.72027 0.66734
 O141 O 0.19180 0.75805 0.74987
 O142 O 0.27998 0.77072 0.66769
 Cu143 Cu 0.26668 0.73389 0.79845
 Cu144 Cu 0.23306 0.76719 0.70052
 C145 C 0.30882 0.75887 0.69445
 C146 C 0.19095 0.74217 0.80459
 C147 C 0.24228 0.69153 0.69398
 C148 C 0.25737 0.80957 0.80498
 O149 O 0.25674 0.30759 0.75024
 O150 O 0.26886 0.21930 0.83269
 O151 O 0.30701 0.25755 0.75016
 O152 O 0.21853 0.26931 0.83272
 O153 O 0.19075 0.24156 0.75121
 O154 O 0.27923 0.22980 0.66865
 O155 O 0.24108 0.19154 0.75118
 O156 O 0.22896 0.27984 0.66872
 Cu157 Cu 0.26558 0.26623 0.79967
 Cu158 Cu 0.23220 0.23289 0.70173
 C159 C 0.24096 0.30860 0.69541
 C160 C 0.25689 0.19054 0.80599
 C161 C 0.30804 0.24183 0.69532
 C162 C 0.18972 0.25728 0.80604
 O163 O 0.72075 0.76980 0.66824
 O164 O 0.80905 0.75780 0.75150
 O165 O 0.77105 0.71978 0.66846
 O166 O 0.75873 0.80778 0.75127
 O167 O 0.73081 0.77977 0.83237
 O168 O 0.74313 0.69177 0.74957
 O169 O 0.78114 0.72979 0.83260
 O170 O 0.69283 0.74179 0.74933
 Cu171 Cu 0.76771 0.76661 0.70168
 Cu172 Cu 0.73417 0.73295 0.79914
 C173 C 0.69190 0.75773 0.69463
 C174 C 0.80998 0.74190 0.80623
 C175 C 0.75904 0.69094 0.69492
 C176 C 0.74280 0.80861 0.80590
 C177 C 0.26773 0.06604 0.06894
 C178 C 0.26618 0.09427 0.09877
 C179 C 0.26377 0.12756 0.13285
 C180 C 0.26120 0.15615 0.16132
 C181 C 0.77023 0.56669 0.57020
 C182 C 0.76849 0.59494 0.59978
 C183 C 0.76583 0.62823 0.63360
 C184 C 0.76303 0.65681 0.66191
 C185 C 0.73111 0.93443 0.07002
 C186 C 0.73286 0.90609 0.09957
 C187 C 0.73552 0.87270 0.13333
 C188 C 0.73829 0.84404 0.16158
 C189 C 0.23075 0.43314 0.57060
 C190 C 0.23225 0.40483 0.60022
 C191 C 0.23462 0.37147 0.63409
 C192 C 0.23719 0.34283 0.66242
 C193 C 0.93436 0.26778 0.06780
 C194 C 0.90606 0.26617 0.09761
 C195 C 0.87271 0.26373 0.13177
 C196 C 0.84410 0.26116 0.16036
 C197 C 0.43328 0.77009 0.57035
 C198 C 0.40498 0.76840 0.59984
 C199 C 0.37164 0.76577 0.63351
 C200 C 0.34301 0.76294 0.66166
 C201 C 0.06521 0.73099 0.06849
 C202 C 0.09360 0.73277 0.09807
 C203 C 0.12703 0.73547 0.13196
 C204 C 0.15570 0.73827 0.16035
 C205 C 0.56684 0.23140 0.57142
 C206 C 0.59519 0.23305 0.60089
 C207 C 0.62862 0.23557 0.63450
 C208 C 0.65733 0.23822 0.66258
 C209 C 0.73119 0.06634 0.93084
 C210 C 0.73302 0.09466 0.90131
 C211 C 0.73577 0.12803 0.86748
 C212 C 0.73864 0.15664 0.83912
 C213 C 0.23102 0.56661 0.42904
 C214 C 0.23260 0.59492 0.39944
 C215 C 0.23503 0.62829 0.36562
 C216 C 0.23760 0.65695 0.33735
 C217 C 0.26763 0.93423 0.92943
 C218 C 0.26603 0.90588 0.89997
 C219 C 0.26359 0.87248 0.86623
 C220 C 0.26103 0.84382 0.83798
 C221 C 0.77039 0.43341 0.42885
 C222 C 0.76869 0.40514 0.39931
 C223 C 0.76607 0.37181 0.36557
 C224 C 0.76326 0.34319 0.33740
 C225 C 0.06478 0.26776 0.93042
 C226 C 0.09319 0.26613 0.90095
 C227 C 0.12667 0.26364 0.86722
 C228 C 0.15539 0.26102 0.83900
 C229 C 0.56665 0.76991 0.42935
 C230 C 0.59494 0.76819 0.39987
 C231 C 0.62827 0.76555 0.36621
 C232 C 0.65690 0.76277 0.33806
 C233 C 0.93475 0.73090 0.93127
 C234 C 0.90636 0.73264 0.90169
 C235 C 0.87293 0.73527 0.86780
 C236 C 0.84425 0.73802 0.83941
 C237 C 0.43329 0.23094 0.43016
 C238 C 0.40498 0.23245 0.40054
 C239 C 0.37162 0.23485 0.36666
 C240 C 0.34298 0.23747 0.33834
 C241 C 0.73126 0.93280 0.93068
 C242 C 0.73310 0.90457 0.90105
 C243 C 0.73587 0.87131 0.86719
 C244 C 0.73875 0.84274 0.83888
 C245 C 0.23101 0.43294 0.42971
 C246 C 0.23273 0.40456 0.40036
 C247 C 0.23533 0.37115 0.36672
 C248 C 0.23806 0.34249 0.33852
 C249 C 0.26765 0.06609 0.93098
 C250 C 0.26601 0.09436 0.90123
 C251 C 0.26346 0.12768 0.86727
 C252 C 0.26076 0.15631 0.83894
 C253 C 0.76980 0.56702 0.42938
 C254 C 0.76782 0.59540 0.40007
 C255 C 0.76491 0.62884 0.36652
 C256 C 0.76197 0.65753 0.33841
 C257 C 0.06667 0.73074 0.92915
 C258 C 0.09490 0.73248 0.89949
 C259 C 0.12817 0.73518 0.86564
 C260 C 0.15677 0.73806 0.83740
 C261 C 0.56710 0.23152 0.43056
 C262 C 0.59551 0.23329 0.40113
 C263 C 0.62897 0.23590 0.36736
 C264 C 0.65764 0.23860 0.33901
 C265 C 0.93452 0.26780 0.92987
 C266 C 0.90625 0.26621 0.90012
 C267 C 0.87290 0.26376 0.86624
 C268 C 0.84423 0.26114 0.83801
 C269 C 0.43290 0.76990 0.42953
 C270 C 0.40448 0.76807 0.40009
 C271 C 0.37101 0.76530 0.36634
 C272 C 0.34232 0.76243 0.33805
 C273 C 0.26756 0.93418 0.07023
 C274 C 0.26587 0.90581 0.09962
 C275 C 0.26329 0.87238 0.13322
 C276 C 0.26059 0.84369 0.16133
 C277 C 0.77038 0.43310 0.56971
 C278 C 0.76859 0.40475 0.59916
 C279 C 0.76585 0.37137 0.63295
 C280 C 0.76298 0.34275 0.66129
 C281 C 0.73102 0.06628 0.07163
 C282 C 0.73279 0.09461 0.10097
 C283 C 0.73552 0.12801 0.13446
 C284 C 0.73842 0.15668 0.16245
 C285 C 0.23130 0.56681 0.56992
 C286 C 0.23310 0.59518 0.59927
 C287 C 0.23576 0.62860 0.63289
 C288 C 0.23849 0.65727 0.66107
 C289 C 0.93329 0.73114 0.07059
 C290 C 0.90504 0.73299 0.10018
 C291 C 0.87175 0.73578 0.13392
 C292 C 0.84314 0.73868 0.16209
 C293 C 0.43300 0.23125 0.57106
 C294 C 0.40458 0.23291 0.60046
 C295 C 0.37109 0.23543 0.63415
 C296 C 0.34237 0.23807 0.66237
 C297 C 0.06630 0.26795 0.06976
 C298 C 0.09456 0.26636 0.09950
 C299 C 0.12788 0.26388 0.13345
 C300 C 0.15651 0.26120 0.16180
 C301 C 0.56703 0.76951 0.57017
 C302 C 0.59544 0.76755 0.59958
 C303 C 0.62892 0.76467 0.63330
 C304 C 0.65761 0.76175 0.66156
   
