data_POSCAR
  _audit_creation_date              2014-09-24
  _audit_creation_method            'ToBaCCo'
  _symmetry_space_group_name_H-M    'P1'
  _symmetry_Int_Tables_number       1
  _symmetry_cell_setting            triclinic
  loop_
  _symmetry_equiv_pos_as_xyz
 x,y,z
_cell_length_a 29.1080
_cell_length_b 28.8891
_cell_length_c 21.7859
_cell_angle_alpha 89.719700
_cell_angle_beta 89.989600
_cell_angle_gamma 90.625600
loop_
  _atom_site_label
  _atom_site_type_symbol
  _atom_site_fract_x
  _atom_site_fract_y
  _atom_site_fract_z
C1 C -0.08760 0.29019 0.05789
 C2 C -0.11002 0.29453 0.00095
 C3 C -0.08627 0.29411 -0.05536
 C4 C -0.03749 0.29250 -0.05444
 C5 C -0.01381 0.28878 0.00234
 C6 C -0.03882 0.28741 0.05852
 C7 C -0.01404 0.28534 0.11403
 C8 C 0.03349 0.28224 0.11454
 C9 C 0.05872 0.28227 0.05973
 C10 C 0.03518 0.28659 0.00301
 C11 C -0.01155 0.29678 -0.10878
 C12 C 0.03614 0.29526 -0.10801
 C13 C 0.06051 0.28895 -0.05291
 C14 C 0.10945 0.28709 -0.05173
 C15 C 0.13139 0.28222 0.00533
 C16 C 0.10704 0.27932 0.06052
 H17 H -0.03065 0.28722 0.15825
 H18 H 0.05035 0.28104 0.15878
 H19 H -0.02761 0.30304 -0.15273
 H20 H 0.05340 0.30037 -0.15144
 H21 H -0.14705 0.29185 0.00016
 H22 H 0.16800 0.27623 0.00700
 C23 C 0.58771 0.78379 0.44085
 C24 C 0.61101 0.78422 0.49715
 C25 C 0.58745 0.78408 0.55330
 C26 C 0.53882 0.78427 0.55331
 C27 C 0.51460 0.78401 0.49676
 C28 C 0.53911 0.78407 0.44043
 C29 C 0.51434 0.78463 0.38505
 C30 C 0.46658 0.78320 0.38482
 C31 C 0.44155 0.78112 0.43998
 C32 C 0.46571 0.78251 0.49654
 C33 C 0.51372 0.78493 0.60845
 C34 C 0.46593 0.78346 0.60823
 C35 C 0.44119 0.78124 0.55287
 C36 C 0.39262 0.77798 0.55241
 C37 C 0.36943 0.77668 0.49604
 C38 C 0.39302 0.77789 0.43996
 H39 H 0.53161 0.78652 0.34111
 H40 H 0.44951 0.78406 0.34073
 H41 H 0.53075 0.78693 0.65250
 H42 H 0.44861 0.78442 0.65214
 H43 H 0.64808 0.78105 0.49730
 H44 H 0.33256 0.77111 0.49582
 C45 C 0.89510 0.72457 -0.05871
 C46 C 0.87181 0.72698 -0.00264
 C47 C 0.89495 0.72402 0.05352
 C48 C 0.94313 0.71825 0.05389
 C49 C 0.96752 0.71597 -0.00240
 C50 C 0.94331 0.71887 -0.05883
 C51 C 0.96776 0.71486 -0.11395
 C52 C 1.01514 0.70966 -0.11395
 C53 C 1.04050 0.70905 -0.05877
 C54 C 1.01621 0.71101 -0.00225
 C55 C 0.96736 0.71357 0.10915
 C56 C 1.01472 0.70827 0.10942
 C57 C 1.04029 0.70826 0.05441
 C58 C 1.08890 0.70391 0.05467
 C59 C 1.11200 0.70085 -0.00199
 C60 C 1.08913 0.70488 -0.05874
 H61 H 0.95041 0.71485 -0.15787
 H62 H 1.03120 0.70496 -0.15815
 H63 H 0.94983 0.71308 0.15296
 H64 H 1.03061 0.70305 0.15368
 H65 H 0.83527 0.73389 -0.00269
 H66 H 1.14907 0.70187 -0.00181
 C67 C 0.41315 0.21700 0.44868
 C68 C 0.38996 0.21955 0.50497
 C69 C 0.41368 0.22157 0.56103
 C70 C 0.46228 0.21984 0.56091
 C71 C 0.48637 0.21769 0.50436
 C72 C 0.46176 0.21615 0.44817
 C73 C 0.48644 0.21361 0.39282
 C74 C 0.53422 0.21463 0.39238
 C75 C 0.55936 0.21790 0.44731
 C76 C 0.53527 0.21826 0.50394
 C77 C 0.48747 0.21994 0.61598
 C78 C 0.53524 0.22009 0.61559
 C79 C 0.55990 0.22037 0.56010
 C80 C 0.60851 0.22247 0.55938
 C81 C 0.63164 0.22232 0.50295
 C82 C 0.60793 0.22059 0.44698
 H83 H 0.46911 0.21062 0.34907
 H84 H 0.55123 0.21238 0.34835
 H85 H 0.47055 0.21944 0.66020
 H86 H 0.55259 0.21976 0.65949
 H87 H 0.35298 0.22348 0.50472
 H88 H 0.66861 0.22717 0.50248
 C89 C 0.70257 -0.09273 -0.05976
 C90 C 0.69946 -0.11648 -0.00326
 C91 C 0.70254 -0.09363 0.05355
 C92 C 0.70596 -0.04453 0.05389
 C93 C 0.70797 -0.01956 -0.00243
 C94 C 0.70590 -0.04357 -0.05916
 C95 C 0.70520 -0.01746 -0.11390
 C96 C 0.70927 0.03047 -0.11339
 C97 C 0.71416 0.05497 -0.05809
 C98 C 0.71211 0.02973 -0.00194
 C99 C 0.70569 -0.01946 0.10925
 C100 C 0.71017 0.02837 0.10966
 C101 C 0.71417 0.05362 0.05479
 C102 C 0.71897 0.10228 0.05546
 C103 C 0.72042 0.12661 -0.00017
 C104 C 0.71862 0.10409 -0.05728
 H105 H 0.70004 -0.03346 -0.15813
 H106 H 0.70712 0.04792 -0.15725
 H107 H 0.70080 -0.03614 0.15329
 H108 H 0.70939 0.04545 0.15375
 H109 H 0.70115 -0.15378 -0.00346
 H110 H 0.72753 0.16344 0.00161
 C111 C 0.21044 0.38952 0.44430
 C112 C 0.20511 0.36557 0.49992
 C113 C 0.20099 0.38866 0.55567
 C114 C 0.20118 0.43773 0.55644
 C115 C 0.20526 0.46265 0.50027
 C116 C 0.20933 0.43843 0.44404
 C117 C 0.21168 0.46373 0.38884
 C118 C 0.21174 0.51183 0.38882
 C119 C 0.21004 0.53669 0.44406
 C120 C 0.20619 0.51189 0.50034
 C121 C 0.19698 0.46253 0.61143
 C122 C 0.19892 0.51076 0.61165
 C123 C 0.20422 0.53614 0.55674
 C124 C 0.20720 0.58510 0.55671
 C125 C 0.21021 0.60897 0.50055
 C126 C 0.21168 0.58566 0.44433
 H127 H 0.21277 0.44661 0.34481
 H128 H 0.21296 0.52923 0.34477
 H129 H 0.19211 0.44486 0.65488
 H130 H 0.19556 0.52799 0.65539
 H131 H 0.20761 0.32815 0.50074
 H132 H 0.21478 0.64625 0.50070
 C133 C 0.29235 1.09123 0.05594
 C134 C 0.29443 1.11551 -0.00016
 C135 C 0.28951 1.09347 -0.05746
 C136 C 0.28454 1.04442 -0.05852
 C137 C 0.28394 1.01889 -0.00248
 C138 C 0.28792 1.04222 0.05464
 C139 C 0.28912 1.01558 0.10904
 C140 C 0.28388 0.96780 0.10795
 C141 C 0.27829 0.94415 0.05240
 C142 C 0.27940 0.96967 -0.00348
 C143 C 0.28229 1.01981 -0.11420
 C144 C 0.27795 0.97181 -0.11501
 C145 C 0.27591 0.94604 -0.06028
 C146 C 0.27148 0.89716 -0.06087
 C147 C 0.26987 0.87282 -0.00510
 C148 C 0.27279 0.89546 0.05141
 H149 H 0.29531 1.03096 0.15340
 H150 H 0.28537 0.94950 0.15135
 H151 H 0.28510 1.03704 -0.15818
 H152 H 0.27700 0.95508 -0.15932
 H153 H 0.29364 1.15286 0.00105
 H154 H 0.26350 0.83578 -0.00564
 C155 C 0.78350 0.60479 0.55428
 C156 C 0.78116 0.62824 0.49794
 C157 C 0.78321 0.60477 0.44188
 C158 C 0.78830 0.55615 0.44180
 C159 C 0.79074 0.53173 0.49831
 C160 C 0.78875 0.55614 0.55466
 C161 C 0.79224 0.53124 0.60998
 C162 C 0.79537 0.48325 0.61014
 C163 C 0.79495 0.45812 0.55498
 C164 C 0.79382 0.48262 0.49847
 C165 C 0.79113 0.53131 0.38662
 C166 C 0.79401 0.48329 0.38679
 C167 C 0.79421 0.45809 0.44216
 C168 C 0.79473 0.40907 0.44258
 C169 C 0.79586 0.38550 0.49899
 C170 C 0.79549 0.40917 0.55504
 H171 H 0.79285 0.54860 0.65387
 H172 H 0.79832 0.46612 0.65420
 H173 H 0.79134 0.54873 0.34254
 H174 H 0.79634 0.46619 0.34285
 H175 H 0.77415 0.66500 0.49771
 H176 H 0.79300 0.34808 0.49937
 O177 O 0.25856 0.17312 0.20840
 O178 O 0.20955 0.25036 0.32381
 O179 O 0.19452 0.23517 0.20889
 O180 O 0.27693 0.19278 0.32462
 O181 O 0.32654 0.24676 0.29510
 O182 O 0.24409 0.29012 0.18203
 O183 O 0.25927 0.30509 0.29676
 O184 O 0.30708 0.22817 0.17904
 Cu185 Cu 0.23028 0.20695 0.26909
 Cu186 Cu 0.28962 0.27273 0.23566
 C187 C 0.28984 0.18792 0.17250
 C188 C 0.22596 0.29087 0.32989
 C189 C 0.20537 0.27018 0.17609
 C190 C 0.31534 0.21359 0.33066
 O191 O 0.74178 0.82148 0.20177
 O192 O 0.78993 0.74364 0.31860
 O193 O 0.80717 0.76140 0.20328
 O194 O 0.72456 0.80355 0.31767
 O195 O 0.67508 0.74922 0.28941
 O196 O 0.75764 0.70701 0.17525
 O197 O 0.74059 0.68910 0.29054
 O198 O 0.69264 0.76687 0.17341
 Cu199 Cu 0.77076 0.78809 0.26308
 Cu200 Cu 0.71142 0.72260 0.22952
 C201 C 0.70978 0.80715 0.16680
 C202 C 0.77304 0.70324 0.32492
 C203 C 0.79618 0.72745 0.16921
 C204 C 0.68608 0.78298 0.32380
 O205 O 0.82510 0.25089 0.20552
 O206 O 0.74454 0.20648 0.32282
 O207 O 0.76060 0.18807 0.20718
 O208 O 0.80771 0.27021 0.32077
 O209 O 0.75688 0.32196 0.29133
 O210 O 0.70958 0.23994 0.17858
 O211 O 0.69355 0.25826 0.29387
 O212 O 0.77386 0.30226 0.17610
 Cu213 Cu 0.78964 0.22373 0.26690
 Cu214 Cu 0.72842 0.28585 0.23215
 C215 C 0.81285 0.28354 0.17004
 C216 C 0.70563 0.22529 0.32898
 C217 C 0.72747 0.20035 0.17293
 C218 C 0.78967 0.30981 0.32614
 O219 O 0.28825 0.75622 0.17302
 O220 O 0.24630 0.67286 0.28936
 O221 O 0.22691 0.69107 0.17372
 O222 O 0.30760 0.73848 0.28800
 O223 O 0.25524 0.78833 0.31787
 O224 O 0.17451 0.74087 0.20356
 O225 O 0.19399 0.72281 0.31903
 O226 O 0.23609 0.80630 0.20288
 Cu227 Cu 0.27245 0.70956 0.22814
 Cu228 Cu 0.20964 0.76951 0.26377
 C229 C 0.26884 0.79515 0.16747
 C230 C 0.21368 0.68405 0.32495
 C231 C 0.18737 0.70869 0.16812
 C232 C 0.29491 0.77097 0.32306
 O233 O 0.81028 0.27182 0.68070
 O234 O 0.76352 0.19151 0.79755
 O235 O 0.74612 0.20920 0.68193
 O236 O 0.82761 0.25500 0.79687
 O237 O 0.77668 0.30705 0.82455
 O238 O 0.69539 0.26125 0.71020
 O239 O 0.71341 0.24424 0.82566
 O240 O 0.75951 0.32389 0.70871
 Cu241 Cu 0.79203 0.22661 0.73658
 Cu242 Cu 0.73119 0.28940 0.76991
 C243 C 0.79209 0.31123 0.67402
 C244 C 0.73106 0.20459 0.83218
 C245 C 0.70714 0.22798 0.67586
 C246 C 0.81557 0.28827 0.83110
 O247 O 0.30644 0.73871 0.70435
 O248 O 0.22704 0.69336 0.82200
 O249 O 0.24368 0.67410 0.70670
 O250 O 0.28768 0.75914 0.81838
 O251 O 0.23525 0.80896 0.78796
 O252 O 0.19155 0.72416 0.67610
 O253 O 0.17440 0.74290 0.79146
 O254 O 0.25415 0.78861 0.67383
 Cu255 Cu 0.27146 0.71129 0.76576
 Cu256 Cu 0.20854 0.77110 0.72927
 C257 C 0.29371 0.77097 0.66860
 C258 C 0.18756 0.71099 0.82761
 C259 C 0.21057 0.68502 0.67161
 C260 C 0.26838 0.79818 0.82297
 O261 O 0.27908 0.32942 0.73170
 O262 O 0.31367 0.23511 0.83356
 O263 O 0.33151 0.25796 0.71919
 O264 O 0.25244 0.29916 0.83947
 O265 O 0.19706 0.25522 0.80100
 O266 O 0.27604 0.21279 0.68363
 O267 O 0.25785 0.19008 0.79856
 O268 O 0.22365 0.28539 0.69357
 Cu269 Cu 0.29966 0.28472 0.78459
 Cu270 Cu 0.23334 0.23141 0.74024
 C271 C 0.24589 0.32367 0.69493
 C272 C 0.29139 0.19724 0.83506
 C273 C 0.31674 0.22851 0.68037
 C274 C 0.21132 0.28374 0.84088
 O275 O 0.72437 0.80427 0.67593
 O276 O 0.80733 0.76236 0.79073
 O277 O 0.78976 0.74421 0.67559
 O278 O 0.74217 0.82299 0.79135
 O279 O 0.69307 0.76841 0.82064
 O280 O 0.74048 0.68974 0.70472
 O281 O 0.75779 0.70806 0.81971
 O282 O 0.67495 0.74999 0.70523
 Cu283 Cu 0.77081 0.78898 0.73051
 Cu284 Cu 0.71153 0.72365 0.76536
 C285 C 0.68585 0.78371 0.67030
 C286 C 0.79637 0.72846 0.82535
 C287 C 0.77287 0.70377 0.66995
 C288 C 0.71016 0.80875 0.82660
 C289 C 0.28853 0.11620 0.11162
 C290 C 0.30425 0.15968 0.11989
 H291 H 0.27009 0.10026 0.14942
 H292 H 0.32639 0.17619 0.08617
 C293 C 0.77379 0.63106 0.61125
 C294 C 0.78983 0.67413 0.62024
 H295 H 0.75061 0.61556 0.64459
 H296 H 0.81416 0.68922 0.58800
 C297 C 0.70853 0.88008 0.10800
 C298 C 0.69403 0.83611 0.11540
 H299 H 0.72756 0.89545 0.14550
 H300 H 0.67137 0.81998 0.08220
 C301 C 0.20112 0.35888 0.61117
 C302 C 0.23552 0.36141 0.65159
 H303 H 0.17857 0.32877 0.61150
 H304 H 0.25979 0.39009 0.64886
 C305 C 0.88577 0.28322 0.11184
 C306 C 0.84263 0.29855 0.11885
 H307 H 0.90013 0.26343 0.14930
 H308 H 0.82783 0.32208 0.08566
 C309 C 0.36577 0.76926 0.60943
 C310 C 0.32391 0.78688 0.61836
 H311 H 0.37975 0.74549 0.64300
 H312 H 0.31025 0.81167 0.58584
 C313 C 0.11479 0.70898 0.10950
 C314 C 0.15780 0.69344 0.11703
 H315 H 0.10007 0.72817 0.14704
 H316 H 0.17296 0.67049 0.08373
 C317 C 0.63557 0.23146 0.61598
 C318 C 0.67656 0.21226 0.62616
 H319 H 0.62246 0.25654 0.64818
 H320 H 0.68931 0.18629 0.59493
 C321 C 0.72608 0.13032 0.88848
 C322 C 0.71521 0.17522 0.88332
 H323 H 0.74200 0.11405 0.84937
 H324 H 0.69473 0.19178 0.91825
 C325 C 0.22062 0.61306 0.38750
 C326 C 0.19962 0.65320 0.37585
 H327 H 0.24650 0.60074 0.35600
 H328 H 0.17306 0.66513 0.40665
 C329 C 0.26364 0.87077 0.88167
 C330 C 0.28330 0.82971 0.87209
 H331 H 0.23907 0.88403 0.84883
 H332 H 0.30884 0.81720 0.90417
 C333 C 0.78646 0.38189 0.38574
 C334 C 0.80556 0.34061 0.37571
 H335 H 0.76152 0.39500 0.35330
 H336 H 0.83132 0.32765 0.40711
 C337 C 0.13635 0.28486 0.89411
 C338 C 0.18117 0.29693 0.89189
 H339 H 0.12093 0.27122 0.85274
 H340 H 0.19719 0.31527 0.92961
 C341 C 0.61468 0.77636 0.38391
 C342 C 0.65529 0.79723 0.37372
 H343 H 0.60187 0.75104 0.35144
 H344 H 0.66766 0.82348 0.40520
 C345 C 0.86866 0.73294 0.88411
 C346 C 0.82717 0.71371 0.87507
 H347 H 0.88260 0.75719 0.85071
 H348 H 0.81409 0.68825 0.90753
 C349 C 0.38622 0.22231 0.39119
 C350 C 0.34582 0.20075 0.38190
 H351 H 0.39903 0.24672 0.35718
 H352 H 0.33338 0.17547 0.41502
 C353 C 0.70857 0.88172 0.88534
 C354 C 0.69430 0.83768 0.87774
 H355 H 0.72737 0.89767 0.84784
 H356 H 0.67164 0.82125 0.91089
 C357 C 0.22342 0.36301 0.38889
 C358 C 0.20677 0.32057 0.37769
 H359 H 0.24954 0.37767 0.35892
 H360 H 0.17968 0.30612 0.40629
 C361 C 0.28469 0.12115 0.88880
 C362 C 0.30360 0.16360 0.88322
 H363 H 0.26414 0.10842 0.85099
 H364 H 0.32840 0.17558 0.91681
 C365 C 0.77336 0.63101 0.38481
 C366 C 0.79003 0.67374 0.37491
 H367 H 0.74966 0.61576 0.35213
 H368 H 0.81476 0.68859 0.40658
 C369 C 0.11518 0.71091 0.88666
 C370 C 0.15829 0.69576 0.87918
 H371 H 0.10041 0.73035 0.84914
 H372 H 0.17361 0.67264 0.91244
 C373 C 0.63425 0.22849 0.38936
 C374 C 0.67560 0.21001 0.37973
 H375 H 0.62030 0.25236 0.35588
 H376 H 0.68910 0.18505 0.41215
 C377 C 0.88852 0.28924 0.88926
 C378 C 0.84506 0.30353 0.88215
 H379 H 0.90422 0.27152 0.85110
 H380 H 0.82941 0.32572 0.91599
 C381 C 0.36661 0.76908 0.38278
 C382 C 0.32515 0.78726 0.37277
 H383 H 0.38051 0.74473 0.35019
 H384 H 0.31162 0.81251 0.40444
 C385 C 0.26477 0.86799 0.10835
 C386 C 0.28323 0.82620 0.11705
 H387 H 0.24144 0.88170 0.14231
 H388 H 0.30777 0.81319 0.08411
 C389 C 0.78779 0.38225 0.61233
 C390 C 0.80743 0.34135 0.62320
 H391 H 0.76290 0.39538 0.64468
 H392 H 0.83307 0.32829 0.59184
 C393 C 0.72853 0.12817 0.11298
 C394 C 0.71080 0.16996 0.12351
 H395 H 0.75285 0.11366 0.14523
 H396 H 0.68541 0.18379 0.09221
 C397 C 0.21382 0.61175 0.61428
 C398 C 0.19548 0.65359 0.62242
 H399 H 0.23699 0.59795 0.64855
 H400 H 0.17106 0.66671 0.58924
 C401 C 0.86843 0.73205 0.11057
 C402 C 0.82694 0.71279 0.11962
 H403 H 0.88235 0.75613 0.14389
 H404 H 0.81386 0.68749 0.08728
 C405 C 0.38748 0.23154 0.61805
 C406 C 0.34584 0.21328 0.62916
 H407 H 0.40200 0.25621 0.65013
 H408 H 0.33143 0.18797 0.59784
 C409 C 0.13306 0.26813 0.11722
 C410 C 0.17424 0.28729 0.12836
 H411 H 0.11946 0.24165 0.14779
 H412 H 0.18697 0.31491 0.09886
 C413 C 0.61425 0.77706 0.61059
 C414 C 0.65495 0.79787 0.62027
 H415 H 0.60138 0.75196 0.64364
 H416 H 0.66736 0.82394 0.58821
   
