data_POSCAR
  _audit_creation_date              2014-09-24
  _audit_creation_method            'ToBaCCo'
  _symmetry_space_group_name_H-M    'P1'
  _symmetry_Int_Tables_number       1
  _symmetry_cell_setting            triclinic
  loop_
  _symmetry_equiv_pos_as_xyz
 x,y,z
_cell_length_a 31.2504
_cell_length_b 31.2783
_cell_length_c 39.6527
_cell_angle_alpha 89.988700
_cell_angle_beta 89.988100
_cell_angle_gamma 90.033000
loop_
  _atom_site_label
  _atom_site_type_symbol
  _atom_site_fract_x
  _atom_site_fract_y
  _atom_site_fract_z
B1 B 0.26852 0.23550 0.28472
 B2 B 0.21693 0.22866 0.27550
 B3 B 0.23591 0.27770 0.28238
 B4 B 0.28567 0.28091 0.26639
 B5 B 0.29705 0.23208 0.24903
 B6 B 0.25402 0.19929 0.25522
 B7 B 0.22840 0.26593 0.21569
 B8 B 0.28000 0.27279 0.22488
 B9 B 0.26106 0.22376 0.21796
 B10 B 0.21129 0.22051 0.23398
 B11 B 0.19991 0.26935 0.25136
 B12 B 0.24294 0.30213 0.24514
 B13 B 0.73772 0.77765 0.21776
 B14 B 0.71890 0.72857 0.22475
 B15 B 0.77046 0.73555 0.21551
 B16 B 0.78748 0.78105 0.23373
 B17 B 0.74469 0.80222 0.25495
 B18 B 0.70174 0.76929 0.24880
 B19 B 0.76299 0.72397 0.28228
 B20 B 0.78184 0.77302 0.27527
 B21 B 0.73023 0.76606 0.28449
 B22 B 0.71325 0.72054 0.26628
 B23 B 0.75604 0.69938 0.24508
 B24 B 0.79898 0.73229 0.25120
 B25 B 0.73589 0.22809 -0.21705
 B26 B 0.72878 0.27964 -0.22613
 B27 B 0.77795 0.26099 -0.21926
 B28 B 0.78143 0.21135 -0.23537
 B29 B 0.73262 0.19976 -0.25280
 B30 B 0.69960 0.24253 -0.24651
 B31 B 0.76619 0.26867 -0.28597
 B32 B 0.77329 0.21712 -0.27687
 B33 B 0.72413 0.23582 -0.28376
 B34 B 0.72065 0.28544 -0.26763
 B35 B 0.76946 0.29703 -0.25022
 B36 B 0.80248 0.25425 -0.25651
 B37 B 0.27795 0.76279 -0.28069
 B38 B 0.22872 0.78133 -0.27389
 B39 B 0.23598 0.72979 -0.28289
 B40 B 0.28155 0.71321 -0.26452
 B41 B 0.30243 0.75621 -0.24342
 B42 B 0.26929 0.79887 -0.24979
 B43 B 0.22411 0.73756 -0.21620
 B44 B 0.27334 0.71904 -0.22303
 B45 B 0.26605 0.77056 -0.21401
 B46 B 0.22049 0.78717 -0.23239
 B47 B 0.19961 0.74416 -0.25347
 B48 B 0.23275 0.70150 -0.24710
 B49 B 1.23656 1.27671 0.71773
 B50 B 1.21815 1.22750 0.72460
 B51 B 1.26967 1.23488 0.71554
 B52 B 1.28616 1.28046 0.73389
 B53 B 1.24304 1.30119 0.75496
 B54 B 1.20043 1.26796 0.74861
 B55 B 1.26183 1.22304 0.78225
 B56 B 1.28022 1.27223 0.77534
 B57 B 1.22869 1.26484 0.78438
 B58 B 1.21224 1.21925 0.76606
 B59 B 1.25536 1.19851 0.74500
 B60 B 1.29797 1.23175 0.75133
 B61 B 0.77011 0.73672 0.78463
 B62 B 0.71858 0.72928 0.77569
 B63 B 0.73693 0.77852 0.78253
 B64 B 0.78648 0.78234 0.76625
 B65 B 0.79828 0.73365 0.74879
 B66 B 0.75575 0.70037 0.75520
 B67 B 0.72886 0.76667 0.71588
 B68 B 0.78042 0.77412 0.72480
 B69 B 0.76207 0.72490 0.71795
 B70 B 0.71254 0.72105 0.73425
 B71 B 0.70071 0.76973 0.75173
 B72 B 0.74326 0.80304 0.74527
 B73 B 1.22344 0.73693 0.21624
 B74 B 1.27289 0.71916 0.22311
 B75 B 1.26489 0.77057 0.21426
 B76 B 1.21905 0.78633 0.23263
 B77 B 1.19877 0.74284 0.25349
 B78 B 1.23256 0.70075 0.24700
 B79 B 1.27676 0.76245 0.28091
 B80 B 1.22731 0.78024 0.27407
 B81 B 1.23529 0.72879 0.28290
 B82 B 1.28114 0.71307 0.26453
 B83 B 1.30141 0.75656 0.24366
 B84 B 1.26764 0.79864 0.25015
 B85 B 0.77813 1.26198 0.21912
 B86 B 0.72870 1.27979 0.22597
 B87 B 0.73663 1.22834 0.21724
 B88 B 0.78249 1.21263 0.23560
 B89 B 0.80281 1.25617 0.25636
 B90 B 0.76905 1.29827 0.24980
 B91 B 0.72484 1.23671 0.28388
 B92 B 0.77427 1.21886 0.27703
 B93 B 0.76632 1.27033 0.28576
 B94 B 0.72047 1.28604 0.26739
 B95 B 0.70016 1.24249 0.24664
 B96 B 0.73390 1.20041 0.25320
 O97 O 0.55684 1.07859 0.06178
 O98 O 0.60643 1.04170 0.03030
 C99 C 0.59579 1.06920 0.05348
 O100 O 0.44271 0.92068 0.05829
 O101 O 0.39317 0.96091 0.02948
 C102 C 0.40378 0.93084 0.05059
 O103 O 0.56041 0.92775 0.06203
 O104 O 0.60819 0.96703 0.03057
 C105 C 0.59886 0.93918 0.05390
 O106 O 0.43885 1.07913 0.05895
 O107 O 0.39129 1.03696 0.02974
 C108 C 0.40044 1.06698 0.05137
 Zr109 Zr 0.49835 1.05479 0.04315
 O110 O 0.49768 1.04659 0.09606
 O111 O 0.49701 1.12212 0.04809
 Zr112 Zr 0.50099 0.94845 0.04309
 O113 O 0.49958 0.95645 0.09601
 O114 O 0.50277 0.88108 0.04798
 O115 O 0.53861 1.00261 0.04961
 O116 O 0.46150 1.00062 0.04905
 O117 O 0.43877 1.07799 -0.05877
 O118 O 0.39102 1.03726 -0.02845
 C119 C 0.40031 1.06646 -0.05072
 O120 O 0.56071 0.92844 -0.06130
 O121 O 0.60839 0.96742 -0.02959
 C122 C 0.59912 0.93983 -0.05309
 O123 O 0.44276 0.92169 -0.05812
 O124 O 0.39304 0.96036 -0.02815
 C125 C 0.40380 0.93113 -0.04992
 O126 O 0.55704 1.07829 -0.06094
 O127 O 0.60656 1.04147 -0.02938
 C128 C 0.59596 1.06888 -0.05264
 Zr129 Zr 0.49849 1.05534 -0.04174
 O130 O 0.49418 1.05486 -0.09504
 O131 O 0.50047 1.12301 -0.04107
 Zr132 Zr 0.50124 0.94808 -0.04176
 O133 O 0.49655 0.94837 -0.09505
 O134 O 0.50695 0.88063 -0.04117
 Zr135 Zr 0.56480 1.00332 0.00051
 Zr136 Zr 0.43487 1.00004 0.00030
 O137 O 0.46233 1.00071 -0.04813
 O138 O 0.53844 1.00272 -0.04848
 O139 O 0.45986 1.06273 0.00063
 O140 O 0.53886 0.94124 0.00066
 O141 O 0.53568 1.06401 0.00070
 O142 O 0.46306 0.93874 0.00057
 H143 H 0.44214 1.00001 0.06885
 H144 H 0.55869 0.91656 0.00049
 H145 H 0.44327 1.00006 -0.06809
 H146 H 0.55407 1.08981 0.00059
 H147 H 0.51539 0.86946 0.02707
 H148 H 0.48451 0.86941 -0.02591
 H149 H 0.52018 0.96616 -0.10392
 H150 H 0.51890 1.03857 -0.10383
 H151 H 0.47633 1.13303 -0.02697
 H152 H 0.50584 1.13429 0.02619
 H153 H 0.49576 1.07567 0.10583
 H154 H 0.49864 0.92728 0.10573
 O155 O 0.93918 0.57734 0.56059
 O156 O 0.89155 0.53618 0.53053
 C157 C 0.90077 0.56555 0.55270
 O158 O 1.05722 0.57768 0.43882
 O159 O 1.10689 0.54076 0.47017
 C160 C 1.09619 0.56815 0.44693
 O161 O 0.93918 0.57873 0.44162
 O162 O 0.89153 0.53722 0.47137
 C163 C 0.90076 0.56681 0.44938
 O164 O 1.05728 0.57730 0.56283
 O165 O 1.10678 0.54134 0.53064
 C166 C 1.09620 0.56826 0.55426
 Zr167 Zr 0.99873 0.55461 0.54343
 O168 O 1.00083 0.62228 0.54369
 O169 O 0.99444 0.55268 0.59672
 Zr170 Zr 0.99868 0.55651 0.45927
 O171 O 0.99819 0.62351 0.46617
 O172 O 0.99781 0.56398 0.40626
 O173 O 0.95962 0.56283 0.50139
 O174 O 1.03642 0.56435 0.50131
 O175 O 1.06107 0.42787 0.56176
 O176 O 1.10872 0.46820 0.53103
 C177 C 1.09946 0.43991 0.55403
 O178 O 0.94299 0.42318 0.44063
 O179 O 0.89336 0.46164 0.47081
 C180 C 0.90405 0.43265 0.44883
 O181 O 1.06086 0.42970 0.43785
 O182 O 1.10856 0.46772 0.47024
 C183 C 1.09928 0.44067 0.44635
 O184 O 0.94308 0.42069 0.55854
 O185 O 0.89342 0.46029 0.52931
 C186 C 0.90414 0.43052 0.55066
 Zr187 Zr 1.00151 0.44717 0.54214
 O188 O 1.00820 0.37979 0.54047
 O189 O 0.99665 0.44577 0.59540
 Zr190 Zr 1.00145 0.44886 0.45772
 O191 O 1.00799 0.38145 0.45793
 O192 O 0.99742 0.44984 0.40441
 Zr193 Zr 0.93508 0.49996 0.50056
 Zr194 Zr 1.06501 0.50343 0.50055
 O195 O 1.03939 0.44119 0.49987
 O196 O 0.96303 0.43852 0.49982
 O197 O 1.03858 0.50181 0.54952
 O198 O 0.96268 0.50176 0.45214
 O199 O 0.96264 0.49975 0.54902
 O200 O 1.03830 0.50379 0.45167
 H201 H 1.05502 0.59002 0.50132
 H202 H 0.94378 0.50141 0.43210
 H203 H 1.05924 0.41650 0.49971
 H204 H 0.94373 0.49880 0.56906
 H205 H 0.99105 0.53575 0.39648
 H206 H 1.02026 0.46903 0.39600
 H207 H 0.98329 0.36937 0.47029
 H208 H 0.98375 0.36812 0.52757
 H209 H 1.01915 0.46473 0.60454
 H210 H 1.01949 0.53668 0.60525
 H211 H 0.97819 0.63261 0.52826
 H212 H 0.99920 0.63621 0.44329
 O213 O 0.92488 0.43926 -0.06202
 O214 O 0.96426 0.39167 -0.03053
 C215 C 0.93647 0.40089 -0.05394
 O216 O 1.07623 0.56113 -0.05866
 O217 O 1.03381 0.60856 -0.02960
 C218 C 1.06404 0.59947 -0.05108
 O219 O 1.07583 0.44331 -0.06156
 O220 O 1.03898 0.39363 -0.03010
 C221 C 1.06658 0.40437 -0.05321
 O222 O 0.91761 0.55686 -0.05841
 O223 O 0.95765 0.60648 -0.02949
 C224 C 0.92772 0.59579 -0.05073
 Zr225 Zr 0.94535 0.49870 -0.04301
 O226 O 0.95335 0.50005 -0.09594
 O227 O 0.87794 0.49668 -0.04785
 Zr228 Zr 1.05178 0.50166 -0.04301
 O229 O 1.04355 0.50240 -0.09591
 O230 O 1.11916 0.50319 -0.04804
 O231 O 0.99966 0.46127 -0.04949
 O232 O 0.99752 0.53832 -0.04896
 O233 O 0.91849 0.55693 0.05831
 O234 O 0.95709 0.60668 0.02827
 C235 C 0.92792 0.59589 0.05013
 O236 O 1.07546 0.44310 0.06094
 O237 O 1.03862 0.39349 0.02948
 C238 C 1.06615 0.40419 0.05264
 O239 O 1.07497 0.56123 0.05878
 O240 O 1.03412 0.60885 0.02849
 C241 C 1.06347 0.59962 0.05067
 O242 O 0.92545 0.43907 0.06152
 O243 O 0.96450 0.39152 0.02979
 C244 C 0.93695 0.40072 0.05336
 Zr245 Zr 0.94486 0.49852 0.04182
 O246 O 0.94483 0.50323 0.09510
 O247 O 0.87736 0.49261 0.04102
 Zr248 Zr 1.05219 0.50154 0.04189
 O249 O 1.05122 0.50579 0.09521
 O250 O 1.11994 0.49979 0.04158
 Zr251 Zr 1.00038 0.43513 -0.00038
 Zr252 Zr 0.99683 0.56495 -0.00021
 O253 O 0.99747 0.53754 0.04823
 O254 O 0.99961 0.46149 0.04860
 O255 O 0.93550 0.53664 -0.00052
 O256 O 1.06104 0.46444 -0.00054
 O257 O 0.93817 0.46083 -0.00057
 O258 O 1.05960 0.54012 -0.00048
 H259 H 0.99696 0.55765 -0.06876
 H260 H 1.08694 0.44622 -0.00043
 H261 H 0.99684 0.55661 0.06817
 H262 H 0.91355 0.44088 -0.00042
 H263 H 1.13137 0.49453 -0.02612
 H264 H 1.13001 0.52351 0.02707
 H265 H 1.03591 0.48043 0.10397
 H266 H 0.96337 0.48022 0.10398
 H267 H 0.86612 0.51532 0.02607
 H268 H 0.86633 0.48418 -0.02689
 H269 H 0.92415 0.50079 -0.10566
 H270 H 1.07265 0.50438 -0.10570
 O271 O 0.42479 0.93947 0.43806
 O272 O 0.46429 0.89191 0.46949
 C273 C 0.43641 0.90111 0.44614
 O274 O 0.57605 1.06152 0.44129
 O275 O 0.53358 1.10893 0.47032
 C276 C 0.56385 1.09984 0.44888
 O277 O 0.57585 0.94378 0.43833
 O278 O 0.53912 0.89401 0.46980
 C279 C 0.56673 0.90481 0.44669
 O280 O 0.41727 1.05698 0.44168
 O281 O 0.45731 1.10671 0.47049
 C282 C 0.42731 1.09594 0.44933
 Zr283 Zr 0.44523 0.99892 0.45703
 O284 O 0.45310 1.00039 0.40409
 O285 O 0.37780 0.99683 0.45231
 Zr286 Zr 0.55163 1.00203 0.45689
 O287 O 0.54319 1.00268 0.40400
 O288 O 0.61897 1.00357 0.45169
 O289 O 0.49957 0.96155 0.45049
 O290 O 0.49732 1.03863 0.45100
 O291 O 0.41851 1.05718 0.55835
 O292 O 0.45696 1.10698 0.52824
 C293 C 0.42786 1.09615 0.55014
 O294 O 0.57554 0.94360 0.56092
 O295 O 0.53881 0.89389 0.52948
 C296 C 0.56629 0.90466 0.55265
 O297 O 0.57491 1.06170 0.55861
 O298 O 0.53396 1.10926 0.52837
 C299 C 0.56336 1.10007 0.55051
 O300 O 0.42565 0.93936 0.56164
 O301 O 0.46467 0.89181 0.52988
 C302 C 0.43716 0.90101 0.55348
 Zr303 Zr 0.44488 0.99879 0.54183
 O304 O 0.44463 1.00350 0.59510
 O305 O 0.37739 0.99279 0.54087
 Zr306 Zr 0.55223 1.00196 0.54178
 O307 O 0.55155 1.00632 0.59509
 O308 O 0.61998 1.00026 0.54129
 Zr309 Zr 0.50044 0.93542 0.49960
 Zr310 Zr 0.49669 1.06528 0.49973
 O311 O 0.49746 1.03788 0.54817
 O312 O 0.49971 0.96186 0.54856
 O313 O 0.43541 1.03688 0.49950
 O314 O 0.56104 0.96484 0.49935
 O315 O 0.43819 0.96104 0.49947
 O316 O 0.55949 1.04053 0.49939
 H317 H 0.49670 1.05798 0.43120
 H318 H 0.58699 0.94668 0.49946
 H319 H 0.49684 1.05694 0.56812
 H320 H 0.41361 0.94105 0.49968
 H321 H 0.63124 0.99561 0.47376
 H322 H 0.63001 1.02420 0.52700
 H323 H 0.53592 0.98119 0.60390
 H324 H 0.46354 0.98080 0.60400
 H325 H 0.36612 1.01571 0.52612
 H326 H 0.36626 0.98407 0.47320
 H327 H 0.42387 1.00092 0.39441
 H328 H 0.57225 1.00482 0.39415
 O329 O 0.90455 1.04476 0.54711
 O330 O 0.95555 1.02091 0.58439
 C331 C 0.91920 1.03854 0.57722
 O332 O 0.95504 0.90093 0.45304
 O333 O 0.97861 0.95210 0.41580
 C334 C 0.96116 0.91565 0.42293
 O335 O 0.95036 0.90361 0.54706
 O336 O 0.97747 0.95286 0.58447
 C337 C 0.95735 0.91793 0.57718
 O338 O 0.90773 1.05021 0.45326
 O339 O 0.95676 1.02295 0.41575
 C340 C 0.92203 1.04337 0.42312
 Zr341 Zr 0.93329 1.03197 0.50021
 O342 O 0.87149 1.00454 0.49889
 O343 O 0.90769 1.09443 0.50318
 Zr344 Zr 0.96681 0.93012 0.50002
 O345 O 0.90108 0.91424 0.49870
 O346 O 0.98522 0.86513 0.50307
 O347 O 0.94230 0.97846 0.53036
 O348 O 0.94263 0.97883 0.47050
 O349 O 1.04841 1.09510 0.45325
 O350 O 1.02435 1.04440 0.41587
 C351 C 1.04195 1.08071 0.42310
 O352 O 1.09860 0.95072 0.54680
 O353 O 1.04785 0.97468 0.58418
 C354 C 1.08410 0.95697 0.57693
 O355 O 1.09552 0.94667 0.45277
 O356 O 1.04619 0.97391 0.41554
 C357 C 1.08108 0.95369 0.42270
 O358 O 1.05302 1.09215 0.54722
 O359 O 1.02604 1.04277 0.58452
 C360 C 1.04607 1.07776 0.57731
 Zr361 Zr 1.03595 1.06613 0.50019
 O362 O 1.09983 1.08816 0.49657
 O363 O 1.01390 1.12995 0.50411
 Zr364 Zr 1.06970 0.96370 0.49993
 O365 O 1.13352 0.98605 0.49609
 O366 O 1.09196 0.89995 0.50339
 Zr367 Zr 1.00168 0.99789 0.55023
 Zr368 Zr 1.00151 0.99820 0.44999
 O369 O 1.06037 1.01741 0.47080
 O370 O 1.06100 1.01742 0.53014
 O371 O 0.98199 1.05731 0.47029
 O372 O 1.02072 0.93920 0.52913
 O373 O 0.98223 1.05660 0.52940
 O374 O 1.02084 0.93887 0.47002
 H375 H 0.91876 0.97140 0.45513
 H376 H 1.02832 0.91497 0.54406
 H377 H 1.08436 1.02504 0.45560
 H378 H 0.97456 1.08067 0.54448
 H379 H 1.00820 0.86065 0.48630
 H380 H 1.07703 0.88316 0.48584
 H381 H 1.13949 1.00368 0.51626
 H382 H 1.11666 1.07304 0.51399
 H383 H 0.99602 1.13598 0.48408
 H384 H 0.92732 1.11332 0.49053
 H385 H 0.85119 1.02883 0.49807
 H386 H 0.89968 0.88258 0.49864
 O387 O 0.44662 0.40560 -0.04684
 O388 O 0.47566 0.45369 -0.08431
 C389 C 0.45427 0.41952 -0.07697
 O390 O 0.40986 0.55361 0.04702
 O391 O 0.45790 0.52447 0.08445
 C392 C 0.42388 0.54610 0.07713
 O393 O 0.40643 0.54845 -0.04685
 O394 O 0.45638 0.52267 -0.08424
 C395 C 0.42072 0.54161 -0.07699
 O396 O 0.45146 0.40269 0.04713
 O397 O 0.47700 0.45289 0.08438
 C398 C 0.45829 0.41707 0.07724
 Zr399 Zr 0.46404 0.43153 0.00014
 O400 O 0.39765 0.41870 0.00153
 O401 O 0.47926 0.36573 -0.00294
 Zr402 Zr 0.43477 0.53468 0.00002
 O403 O 0.37174 0.51017 0.00144
 O404 O 0.41225 0.59834 -0.00295
 O405 O 0.44149 0.48085 -0.03015
 O406 O 0.44195 0.48113 0.02970
 O407 O 0.59359 0.44300 0.04718
 O408 O 0.54542 0.47206 0.08449
 C409 C 0.57955 0.45064 0.07726
 O410 O 0.55649 0.59010 -0.04711
 O411 O 0.52762 0.54183 -0.08441
 C412 C 0.54887 0.57609 -0.07719
 O413 O 0.55222 0.59303 0.04685
 O414 O 0.52631 0.54325 0.08427
 C415 C 0.54521 0.57891 0.07701
 O416 O 0.59663 0.44705 -0.04681
 O417 O 0.54687 0.47307 -0.08415
 C418 C 0.58245 0.45404 -0.07693
 Zr419 Zr 0.56820 0.46080 0.00007
 O420 O 0.63305 0.47993 0.00380
 O421 O 0.58723 0.39601 -0.00350
 Zr422 Zr 0.53874 0.56455 -0.00008
 O423 O 0.60365 0.58343 0.00351
 O424 O 0.51982 0.62938 -0.00390
 Zr425 Zr 0.50158 0.49784 -0.05012
 Zr426 Zr 0.50162 0.49806 0.05014
 O427 O 0.56117 0.51485 0.02923
 O428 O 0.56168 0.51490 -0.03009
 O429 O 0.51845 0.43799 0.03007
 O430 O 0.48460 0.55728 -0.02922
 O431 O 0.51824 0.43840 -0.02906
 O432 O 0.48450 0.55795 0.02990
 H433 H 0.41784 0.47460 0.04511
 H434 H 0.47783 0.58165 -0.04426
 H435 H 0.58548 0.52156 0.04439
 H436 H 0.52491 0.41393 -0.04403
 H437 H 0.43185 0.61604 0.01075
 H438 H 0.50144 0.63589 0.01575
 H439 H 0.61950 0.56865 -0.01466
 H440 H 0.63942 0.49844 -0.01579
 H441 H 0.57270 0.38017 0.01481
 H442 H 0.50292 0.36045 0.01307
 H443 H 0.39480 0.38714 0.00177
 H444 H 0.35259 0.53538 0.00216
 C445 C 0.27439 1.19763 0.18640
 C446 C 0.28676 1.17682 0.16255
 C447 C 0.30351 1.15221 0.13546
 C448 C 0.32021 1.13133 0.11335
 C449 C 0.34335 1.10734 0.08897
 C450 C 0.36692 1.08791 0.07019
 C451 C 0.77533 0.69871 0.68643
 C452 C 0.78759 0.67754 0.66276
 C453 C 0.80417 0.65231 0.63597
 C454 C 0.82073 0.63086 0.61415
 C455 C 0.84375 0.60626 0.59010
 C456 C 0.86726 0.58650 0.57149
 C457 C 0.72438 0.80413 0.18642
 C458 C 0.71208 0.82575 0.16302
 C459 C 0.69547 0.85160 0.13663
 C460 C 0.67888 0.87354 0.11513
 C461 C 0.65584 0.89855 0.09137
 C462 C 0.63233 0.91845 0.07286
 C463 C 1.22335 0.30332 0.68642
 C464 C 1.21130 0.32526 0.66313
 C465 C 1.19510 0.35157 0.63686
 C466 C 1.17887 0.37391 0.61544
 C467 C 1.15620 0.39933 0.59172
 C468 C 1.13289 0.41940 0.57317
 C469 C 0.72080 1.20648 -0.18402
 C470 C 0.70780 1.18651 -0.15999
 C471 C 0.69085 1.16120 -0.13346
 C472 C 0.67428 1.13890 -0.11221
 C473 C 0.65156 1.11279 -0.08906
 C474 C 0.62855 1.09155 -0.07113
 C475 C 1.22047 0.70670 0.31579
 C476 C 1.20759 0.68641 0.33969
 C477 C 1.19076 0.66073 0.36604
 C478 C 1.17426 0.63815 0.38713
 C479 C 1.15164 0.61183 0.41019
 C480 C 1.12870 0.59058 0.42817
 C481 C 0.28087 0.79205 -0.18089
 C482 C 0.29354 0.81181 -0.15666
 C483 C 0.31003 0.83693 -0.12987
 C484 C 0.32624 0.85921 -0.10847
 C485 C 0.34858 0.88558 -0.08531
 C486 C 0.37137 0.90736 -0.06764
 C487 C 0.78103 0.29239 0.31867
 C488 C 0.79363 0.31257 0.34270
 C489 C 0.81011 0.33813 0.36922
 C490 C 0.82634 0.36074 0.39039
 C491 C 0.84872 0.38733 0.41336
 C492 C 0.87156 0.40913 0.43097
 C493 C 1.20683 0.28096 0.18266
 C494 C 1.18660 0.29378 0.15871
 C495 C 1.16077 0.31041 0.13239
 C496 C 1.13790 0.32666 0.11139
 C497 C 1.11107 0.34901 0.08856
 C498 C 1.08927 0.37177 0.07088
 C499 C 0.70688 0.78154 0.68295
 C500 C 0.68651 0.79431 0.65906
 C501 C 0.66063 0.81092 0.63275
 C502 C 0.63779 0.82719 0.61172
 C503 C 0.61106 0.84955 0.58880
 C504 C 0.58937 0.87229 0.57102
 C505 C 1.19785 0.72433 -0.18469
 C506 C 1.17666 0.71219 -0.16098
 C507 C 1.15143 0.69579 -0.13412
 C508 C 1.12995 0.67934 -0.11224
 C509 C 1.10527 0.65644 -0.08816
 C510 C 1.08534 0.63298 -0.06962
 C511 C 0.69872 1.22357 0.31547
 C512 C 0.67747 1.21164 0.33921
 C513 C 0.65205 1.19554 0.36607
 C514 C 0.63036 1.17936 0.38792
 C515 C 0.60541 1.15669 0.41196
 C516 C 0.58527 1.13334 0.43043
 C517 C 0.79156 0.72039 0.18229
 C518 C 0.81086 0.70736 0.15793
 C519 C 0.83538 0.69040 0.13094
 C520 C 0.85716 0.67384 0.10935
 C521 C 0.88299 0.65120 0.08596
 C522 C 0.90440 0.62830 0.06809
 C523 C 0.29106 1.21995 0.68237
 C524 C 0.31053 1.20710 0.65804
 C525 C 0.33517 1.19033 0.63105
 C526 C 0.35701 1.17391 0.60945
 C527 C 0.38288 1.15138 0.58602
 C528 C 0.40431 1.12854 0.56812
 C529 C 0.80431 0.27436 -0.18784
 C530 C 0.82561 0.28681 -0.16429
 C531 C 0.85091 0.30367 -0.13765
 C532 C 0.87233 0.32048 -0.11592
 C533 C 0.89673 0.34374 -0.09187
 C534 C 0.91616 0.36736 -0.07314
 C535 C 0.30300 0.77583 0.31239
 C536 C 0.32439 0.78810 0.33594
 C537 C 0.34993 0.80465 0.36256
 C538 C 0.37160 0.82119 0.38427
 C539 C 0.39631 0.84415 0.40829
 C540 C 0.41596 0.86762 0.42700
 C541 C 1.18527 1.20743 0.29927
 C542 C 1.15916 1.19005 0.31660
 C543 C 1.12876 1.16884 0.33637
 C544 C 1.10409 1.14971 0.35385
 C545 C 1.07807 1.12623 0.37578
 C546 C 1.05926 1.10550 0.39637
 C547 C 0.68788 0.70734 -0.20051
 C548 C 0.66276 0.68874 -0.18324
 C549 C 0.63376 0.66582 -0.16364
 C550 C 0.61026 0.64532 -0.14629
 C551 C 0.58537 0.62082 -0.12450
 C552 C 0.56692 0.59994 -0.10393
 C553 C 0.79465 1.18555 0.69943
 C554 C 0.81193 1.15915 0.68237
 C555 C 0.83282 1.12816 0.66303
 C556 C 0.85155 1.10282 0.64592
 C557 C 0.87449 1.07591 0.62435
 C558 C 0.89482 1.05641 0.60392
 C559 C 0.29508 0.68870 0.19934
 C560 C 0.31361 0.66343 0.18220
 C561 C 0.33618 0.63396 0.16286
 C562 C 0.35624 0.60986 0.14573
 C563 C 0.38012 0.58413 0.12418
 C564 C 0.40051 0.56493 0.10376
 C565 C 1.20741 0.81262 0.70214
 C566 C 1.19032 0.83859 0.68454
 C567 C 1.16974 0.86895 0.66441
 C568 C 1.15129 0.89376 0.64662
 C569 C 1.12868 0.92010 0.62441
 C570 C 1.10852 0.93924 0.60367
 C571 C 0.70665 0.31013 0.20204
 C572 C 0.68843 0.33522 0.18454
 C573 C 0.66631 0.36437 0.16460
 C574 C 0.64666 0.38814 0.14692
 C575 C 0.62318 0.41341 0.12478
 C576 C 0.60299 0.43222 0.10402
 C577 C 0.81363 0.79414 0.29900
 C578 C 0.84014 0.81089 0.31632
 C579 C 0.87125 0.83104 0.33608
 C580 C 0.89670 0.84915 0.35356
 C581 C 0.92370 0.87144 0.37551
 C582 C 0.94326 0.89138 0.39616
 C583 C 0.31120 0.29380 -0.20088
 C584 C 0.33683 0.31155 -0.18353
 C585 C 0.36663 0.33317 -0.16379
 C586 C 0.39091 0.35250 -0.14627
 C587 C 0.41668 0.37579 -0.12431
 C588 C 0.43576 0.39596 -0.10366
 C589 C 1.20688 0.27978 -0.18268
 C590 C 1.18663 0.29273 -0.15879
 C591 C 1.16090 0.30966 -0.13254
 C592 C 1.13817 0.32625 -0.11161
 C593 C 1.11151 0.34895 -0.08889
 C594 C 1.08979 0.37191 -0.07132
 C595 C 0.70857 0.78120 0.31748
 C596 C 0.68824 0.79415 0.34134
 C597 C 0.66226 0.81093 0.36753
 C598 C 0.63925 0.82730 0.38839
 C599 C 0.61221 0.84972 0.41106
 C600 C 0.59020 0.87247 0.42860
 C601 C 0.79157 0.72166 -0.18227
 C602 C 0.81101 0.70849 -0.15803
 C603 C 0.83556 0.69124 -0.13118
 C604 C 0.85729 0.67439 -0.10972
 C605 C 0.88299 0.65142 -0.08644
 C606 C 0.90427 0.62831 -0.06864
 C607 C 0.28965 1.22034 0.31793
 C608 C 0.30907 1.20729 0.34223
 C609 C 0.33381 1.19033 0.36909
 C610 C 0.35583 1.17380 0.39053
 C611 C 0.38195 1.15121 0.41376
 C612 C 0.40358 1.12834 0.43150
 C613 C 1.19736 0.72366 0.18465
 C614 C 1.17620 0.71160 0.16090
 C615 C 1.15094 0.69537 0.13400
 C616 C 1.12942 0.67911 0.11207
 C617 C 1.10468 0.65641 0.08792
 C618 C 1.08472 0.63307 0.06930
 C619 C 0.69781 1.22281 0.68472
 C620 C 0.67653 1.21103 0.66096
 C621 C 0.65115 1.19513 0.63400
 C622 C 0.62952 1.17914 0.61202
 C623 C 0.60467 1.15670 0.58780
 C624 C 0.58463 1.13350 0.56914
 C625 C 0.80433 0.27531 0.18760
 C626 C 0.82567 0.28758 0.16401
 C627 C 0.85112 0.30417 0.13734
 C628 C 0.87269 0.32073 0.11558
 C629 C 0.89725 0.34373 0.09147
 C630 C 0.91674 0.36722 0.07266
 C631 C 0.30439 0.77604 0.68789
 C632 C 0.32582 0.78824 0.66432
 C633 C 0.35131 0.80471 0.63763
 C634 C 0.37290 0.82118 0.61583
 C635 C 0.39748 0.84409 0.59168
 C636 C 0.41699 0.86753 0.57284
 C637 C 0.27513 1.19705 -0.18612
 C638 C 0.28735 1.17626 -0.16222
 C639 C 0.30387 1.15162 -0.13508
 C640 C 0.32040 1.13071 -0.11292
 C641 C 0.34337 1.10671 -0.08848
 C642 C 0.36685 1.08730 -0.06963
 C643 C 0.77622 0.69789 0.31388
 C644 C 0.78836 0.67699 0.33774
 C645 C 0.80474 0.65219 0.36486
 C646 C 0.82113 0.63115 0.38701
 C647 C 0.84395 0.60700 0.41146
 C648 C 0.86732 0.58755 0.43037
 C649 C 0.72169 1.20636 0.18436
 C650 C 0.70859 1.18638 0.16039
 C651 C 0.69140 1.16120 0.13391
 C652 C 0.67457 1.13905 0.11273
 C653 C 0.65156 1.11310 0.08967
 C654 C 0.62838 1.09193 0.07185
 C655 C 1.22097 0.70804 0.68415
 C656 C 1.20797 0.68779 0.66027
 C657 C 1.19103 0.66203 0.63402
 C658 C 1.17447 0.63929 0.61308
 C659 C 1.15178 0.61267 0.59028
 C660 C 1.12877 0.59110 0.57260
 C661 C 0.72375 0.80498 -0.18609
 C662 C 0.71166 0.82665 -0.16266
 C663 C 0.69531 0.85255 -0.13621
 C664 C 0.67891 0.87452 -0.11465
 C665 C 0.65605 0.89952 -0.09079
 C666 C 0.63261 0.91933 -0.07218
 C667 C 1.22282 0.30443 0.31364
 C668 C 1.21090 0.32636 0.33698
 C669 C 1.19482 0.35258 0.36334
 C670 C 1.17867 0.37481 0.38485
 C671 C 1.15604 0.40010 0.40867
 C672 C 1.13273 0.42009 0.42726
 C673 C 0.27960 0.79234 0.18122
 C674 C 0.29234 0.81213 0.15703
 C675 C 0.30906 0.83715 0.13027
 C676 C 0.32553 0.85931 0.10891
 C677 C 0.34820 0.88551 0.08583
 C678 C 0.37122 0.90715 0.06823
 C679 C 0.78111 0.29012 0.68091
 C680 C 0.79382 0.31001 0.65673
 C681 C 0.81035 0.33539 0.63010
 C682 C 0.82658 0.35798 0.60888
 C683 C 0.84892 0.38467 0.58591
 C684 C 0.87169 0.40665 0.56834
 C685 C 1.18714 1.20586 0.70089
 C686 C 1.16155 1.18788 0.68365
 C687 C 1.13188 1.16588 0.66405
 C688 C 1.10784 1.14613 0.64662
 C689 C 1.08251 1.12232 0.62470
 C690 C 1.06393 1.10174 0.60403
 C691 C 0.68746 0.70700 0.20099
 C692 C 0.66170 0.68918 0.18362
 C693 C 0.63181 0.66740 0.16378
 C694 C 0.60752 0.64787 0.14624
 C695 C 0.58176 0.62414 0.12430
 C696 C 0.56292 0.60341 0.10373
 C697 C 1.20549 0.81085 0.29797
 C698 C 1.18783 0.83639 0.31544
 C699 C 1.16654 0.86623 0.33533
 C700 C 1.14756 0.89059 0.35299
 C701 C 1.12466 0.91643 0.37514
 C702 C 1.10468 0.93545 0.39592
 C703 C 0.70733 0.31089 -0.20222
 C704 C 0.68988 0.33662 -0.18463
 C705 C 0.66874 0.36658 -0.16448
 C706 C 0.64985 0.39100 -0.14666
 C707 C 0.62687 0.41699 -0.12443
 C708 C 0.60664 0.43606 -0.10370
 C709 C 0.79622 1.18827 0.30085
 C710 C 0.81416 1.16261 0.31801
 C711 C 0.83583 1.13252 0.33738
 C712 C 0.85514 1.10784 0.35453
 C713 C 0.87834 1.08156 0.37611
 C714 C 0.89846 1.06211 0.39655
 C715 C 0.29491 0.68770 -0.19928
 C716 C 0.31255 0.66162 -0.18215
 C717 C 0.33395 0.63108 -0.16274
 C718 C 0.35308 0.60607 -0.14560
 C719 C 0.37628 0.57941 -0.12405
 C720 C 0.39660 0.55987 -0.10365
 C721 C 0.81151 0.79548 0.70099
 C722 C 0.83759 0.81267 0.68368
 C723 C 0.86814 0.83336 0.66400
 C724 C 0.89311 0.85189 0.64652
 C725 C 0.91957 0.87443 0.62456
 C726 C 0.93895 0.89428 0.60388
 C727 C 0.31168 0.29400 0.20112
 C728 C 0.33799 0.31111 0.18381
 C729 C 0.36876 0.33180 0.16407
 C730 C 0.39391 0.35032 0.14658
 C731 C 0.42066 0.37295 0.12465
 C732 C 0.44017 0.39299 0.10403
   
