data_POSCAR
  _audit_creation_date              2014-09-24
  _audit_creation_method            'ToBaCCo'
  _symmetry_space_group_name_H-M    'P1'
  _symmetry_Int_Tables_number       1
  _symmetry_cell_setting            triclinic
  loop_
  _symmetry_equiv_pos_as_xyz
 x,y,z
_cell_length_a 32.0245
_cell_length_b 32.1031
_cell_length_c 31.9660
_cell_angle_alpha 89.969800
_cell_angle_beta 90.015100
_cell_angle_gamma 89.812600
loop_
  _atom_site_label
  _atom_site_type_symbol
  _atom_site_fract_x
  _atom_site_fract_y
  _atom_site_fract_z
C1 C 0.19748 0.14238 0.19680
 C2 C 0.18341 0.12303 0.23357
 C3 C 0.14771 0.13791 0.25498
 C4 C 0.12708 0.17339 0.23877
 C5 C 0.14101 0.19316 0.20225
 C6 C 0.17630 0.17753 0.18114
 C7 C 0.23315 0.12756 0.17605
 C8 C 0.24838 0.14715 0.13953
 C9 C 0.22717 0.18300 0.12487
 C10 C 0.19127 0.19793 0.14518
 C11 C 0.17072 0.23374 0.13057
 C12 C 0.13503 0.24950 0.15099
 C13 C 0.12071 0.22899 0.18725
 H14 H 0.20149 0.09721 0.24539
 H15 H 0.10029 0.18612 0.25519
 H16 H 0.24963 0.10081 0.18874
 H17 H 0.23855 0.20049 0.09845
 H18 H 0.18289 0.24990 0.10342
 H19 H 0.09469 0.24116 0.20491
 C20 C -0.19637 0.85727 0.19813
 C21 C -0.17567 0.87188 0.23388
 C22 C -0.13923 0.85211 0.24916
 C23 C -0.12447 0.81644 0.22779
 C24 C -0.14472 0.80175 0.19179
 C25 C -0.18067 0.82224 0.17685
 C26 C -0.23313 0.87672 0.18409
 C27 C -0.25453 0.86200 0.14834
 C28 C -0.23825 0.82665 0.12757
 C29 C -0.20172 0.80682 0.14146
 C30 C -0.18664 0.77111 0.12104
 C31 C -0.15036 0.75055 0.13534
 C32 C -0.13002 0.76609 0.17113
 H33 H -0.18833 0.89859 0.25040
 H34 H -0.09798 0.79892 0.23904
 H35 H -0.24495 0.90246 0.20224
 H36 H -0.25463 0.81409 0.10071
 H37 H -0.20426 0.75907 0.09496
 H38 H -0.10287 0.74985 0.18329
 C39 C -0.19951 0.14446 -0.19530
 C40 C -0.18563 0.12505 -0.23212
 C41 C -0.15079 0.14045 -0.25417
 C42 C -0.12982 0.17550 -0.23811
 C43 C -0.14335 0.19517 -0.20138
 C44 C -0.17841 0.17965 -0.17993
 C45 C -0.23487 0.12969 -0.17422
 C46 C -0.25013 0.14956 -0.13783
 C47 C -0.22881 0.18522 -0.12321
 C48 C -0.19309 0.20003 -0.14381
 C49 C -0.17239 0.23566 -0.12930
 C50 C -0.13683 0.25120 -0.14998
 C51 C -0.12292 0.23080 -0.18648
 H52 H -0.20286 0.09852 -0.24330
 H53 H -0.10311 0.18783 -0.25483
 H54 H -0.25123 0.10287 -0.18665
 H55 H -0.23985 0.20259 -0.09655
 H56 H -0.18434 0.25184 -0.10203
 H57 H -0.09714 0.24293 -0.20442
 C58 C 0.19654 0.85578 -0.19875
 C59 C 0.17546 0.87065 -0.23422
 C60 C 0.13920 0.85080 -0.24950
 C61 C 0.12484 0.81499 -0.22822
 C62 C 0.14544 0.80007 -0.19243
 C63 C 0.18135 0.82049 -0.17764
 C64 C 0.23318 0.87522 -0.18480
 C65 C 0.25511 0.85989 -0.14971
 C66 C 0.23933 0.82461 -0.12882
 C67 C 0.20280 0.80485 -0.14247
 C68 C 0.18807 0.76906 -0.12207
 C69 C 0.15181 0.74859 -0.13621
 C70 C 0.13113 0.76432 -0.17181
 H71 H 0.18775 0.89754 -0.25061
 H72 H 0.09839 0.79753 -0.23937
 H73 H 0.24444 0.90162 -0.20225
 H74 H 0.25609 0.81216 -0.10209
 H75 H 0.20591 0.75693 -0.09612
 H76 H 0.10397 0.74817 -0.18382
 C77 C 0.14307 1.19956 0.80780
 C78 C 0.12267 1.18455 0.77196
 C79 C 0.13755 1.14886 0.75065
 C80 C 0.17395 1.12916 0.76604
 C81 C 0.19483 1.14413 0.80148
 C82 C 0.17924 1.17936 0.82256
 C83 C 0.12829 1.23521 0.82847
 C84 C 0.14865 1.25107 0.86430
 C85 C 0.18554 1.23092 0.87794
 C86 C 0.20060 1.19517 0.85758
 C87 C 0.23743 1.17563 0.87117
 C88 C 0.25353 1.14037 0.85038
 C89 C 0.23168 1.12486 0.81541
 H90 H 0.09595 1.20178 0.76086
 H91 H 0.18656 1.10230 0.74971
 H92 H 0.10103 1.25118 0.81617
 H93 H 0.20380 1.24330 0.90344
 H94 H 0.25412 1.18819 0.89783
 H95 H 0.24315 1.09846 0.79804
 C96 C 0.86091 0.80572 0.79846
 C97 C 0.87465 0.82542 0.76180
 C98 C 0.85396 0.86093 0.74567
 C99 C 0.81819 0.87565 0.76703
 C100 C 0.80428 0.85633 0.80382
 C101 C 0.82567 0.82135 0.81962
 C102 C 0.88133 0.76994 0.81353
 C103 C 0.86750 0.74965 0.85025
 C104 C 0.83171 0.76558 0.87062
 C105 C 0.81094 0.80113 0.85576
 C106 C 0.77496 0.81599 0.87601
 C107 C 0.75326 0.85110 0.86063
 C108 C 0.76847 0.87094 0.82442
 H109 H 0.90137 0.81269 0.74527
 H110 H 0.79987 0.90123 0.75503
 H111 H 0.90700 0.75768 0.79541
 H112 H 0.81938 0.74963 0.89785
 H113 H 0.76406 0.79929 0.90312
 H114 H 0.75180 0.89765 0.81192
 C115 C 0.14201 0.80310 1.20124
 C116 C 0.12847 0.82268 1.23810
 C117 C 0.14932 0.85783 1.25417
 C118 C 0.18427 0.87316 1.23228
 C119 C 0.19817 0.85385 1.19547
 C120 C 0.17704 0.81876 1.17988
 C121 C 0.12161 0.76750 1.18612
 C122 C 0.13523 0.74741 1.14916
 C123 C 0.17094 0.76325 1.12871
 C124 C 0.19167 0.79867 1.14359
 C125 C 0.22746 0.81359 1.12317
 C126 C 0.24901 0.84865 1.13853
 C127 C 0.23366 0.86860 1.17464
 H128 H 0.10179 0.81028 1.25480
 H129 H 0.20168 0.89948 1.24364
 H130 H 0.09611 0.75519 1.20437
 H131 H 0.18317 0.74739 1.10137
 H132 H 0.23826 0.79709 1.09587
 H133 H 0.25008 0.89541 1.18699
 C134 C 0.85481 1.20046 1.19266
 C135 C 0.87541 1.18547 1.22844
 C136 C 0.86086 1.14977 1.24981
 C137 C 0.82459 1.13000 1.23449
 C138 C 0.80353 1.14495 1.19907
 C139 C 0.81879 1.18019 1.17794
 C140 C 0.86925 1.23613 1.17194
 C141 C 0.84858 1.25188 1.13633
 C142 C 0.81219 1.23156 1.12232
 C143 C 0.79734 1.19587 1.14280
 C144 C 0.76069 1.17623 1.12925
 C145 C 0.74480 1.14107 1.15024
 C146 C 0.76683 1.12561 1.18520
 H147 H 0.90205 1.20273 1.23944
 H148 H 0.81225 1.10310 1.25085
 H149 H 0.89650 1.25218 1.18388
 H150 H 0.79433 1.24375 1.09641
 H151 H 0.74394 1.18868 1.10251
 H152 H 0.75567 1.09914 1.20258
 N153 N 0.54670 1.07445 0.95900
 N154 N 0.57914 1.09962 0.95719
 N155 N 0.46142 1.04514 0.92326
 N156 N 0.42922 1.04769 0.89762
 N157 N 0.45899 1.07399 0.95227
 N158 N 0.42517 1.09701 0.94703
 N159 N 0.54917 1.04578 0.92983
 N160 N 0.58328 1.05080 0.90722
 C161 C 0.60168 1.08450 0.92472
 C162 C 0.40703 1.08036 0.91268
 N163 N 0.46028 0.92657 0.95178
 N164 N 0.42674 0.90337 0.94650
 N165 N 0.55001 0.95594 0.92954
 N166 N 0.58410 0.95117 0.90677
 N167 N 0.54793 0.92702 0.95851
 N168 N 0.58053 0.90192 0.95638
 N169 N 0.46220 0.95567 0.92297
 N170 N 0.42993 0.95311 0.89743
 Mn171 Mn 0.50579 1.00064 0.92583
 C172 C 0.40824 0.92017 0.91232
 C173 C 0.60283 0.91734 0.92397
 N174 N 0.45212 1.07354 1.04191
 N175 N 0.41927 1.09837 1.04398
 N176 N 0.53795 1.04502 1.07744
 N177 N 0.57012 1.04772 1.10308
 N178 N 0.53985 1.07410 1.04862
 N179 N 0.57330 1.09741 1.05396
 N180 N 0.45023 1.04465 1.07093
 N181 N 0.41613 1.04920 1.09371
 Mn182 Mn 0.49941 1.07456 1.00045
 C183 C 0.39709 1.08281 1.07644
 C184 C 0.59174 1.08072 1.08821
 N185 N 0.54124 0.92663 1.04811
 N186 N 0.57520 0.90377 1.05319
 N187 N 0.45104 0.95482 1.07052
 N188 N 0.41695 0.94962 1.09313
 N189 N 0.45362 0.92615 1.04137
 N190 N 0.42141 0.90074 1.04325
 N191 N 0.53888 0.95553 1.07707
 N192 N 0.57130 0.95323 1.10247
 Mn193 Mn 0.50077 0.92608 0.99994
 Mn194 Mn 0.49444 1.00000 1.07456
 Cl195 Cl 0.50010 1.00033 1.00019
 C196 C 0.59353 0.92061 1.08735
 C197 C 0.39880 0.91573 1.07570
 N198 N 0.03746 0.45582 0.07769
 N199 N 0.03828 0.42235 0.10170
 N200 N 0.06976 0.54329 0.05164
 N201 N 0.09337 0.57645 0.05721
 N202 N 0.03796 0.54377 0.07756
 N203 N 0.03898 0.57738 0.10130
 N204 N 0.06920 0.45565 0.05171
 N205 N 0.09257 0.42222 0.05747
 C206 C 0.07296 0.40181 0.08882
 C207 C 0.07384 0.59735 0.08836
 N208 N 0.05244 0.54336 -0.06969
 N209 N 0.05831 0.57657 -0.09326
 N210 N 0.07776 0.45529 -0.03781
 N211 N 0.10137 0.42150 -0.03878
 N212 N 0.05187 0.45576 -0.06965
 N213 N 0.05732 0.42249 -0.09326
 N214 N 0.07838 0.54325 -0.03788
 N215 N 0.10249 0.57651 -0.03887
 Mn216 Mn 0.07434 0.49936 0.00696
 C217 C 0.08971 0.59688 -0.07372
 C218 C 0.08836 0.40146 -0.07368
 N219 N -0.05137 0.54444 0.06891
 N220 N -0.05700 0.57770 0.09250
 N221 N -0.07781 0.45685 0.03722
 N222 N -0.10193 0.42359 0.03829
 N223 N -0.05188 0.45681 0.06904
 N224 N -0.05775 0.42366 0.09269
 N225 N -0.07729 0.54476 0.03709
 N226 N -0.10112 0.57837 0.03806
 Mn227 Mn -0.00700 0.50021 0.07386
 C228 C -0.08820 0.59851 0.07291
 C229 C -0.08915 0.40330 0.07320
 N230 N -0.03749 0.45644 -0.07824
 N231 N -0.03864 0.42285 -0.10203
 N232 N -0.06868 0.54454 -0.05239
 N233 N -0.09190 0.57811 -0.05798
 N234 N -0.03689 0.54442 -0.07831
 N235 N -0.03752 0.57806 -0.10210
 N236 N -0.06923 0.45694 -0.05227
 N237 N -0.09294 0.42387 -0.05780
 Mn238 Mn 0.00752 0.50000 -0.07454
 Mn239 Mn -0.07380 0.50078 -0.00763
 Cl240 Cl 0.00027 0.50008 -0.00034
 C241 C -0.07354 0.40297 -0.08901
 C242 C -0.07214 0.59866 -0.08916
 N243 N 0.92912 -0.04505 0.45069
 N244 N 0.90631 -0.04978 0.41662
 N245 N 0.95182 -0.07404 0.54057
 N246 N 0.94701 -0.09705 0.57444
 N247 N 0.92301 -0.04491 0.53870
 N248 N 0.89800 -0.04719 0.57143
 N249 N 0.95821 -0.07389 0.45274
 N250 N 0.95615 -0.09888 0.42006
 C251 C 0.92362 -0.08347 0.39781
 C252 C 0.91319 -0.08005 0.59328
 N253 N 1.07031 -0.04549 0.54933
 N254 N 1.09309 -0.05042 0.58341
 N255 N 1.04766 -0.07419 0.45932
 N256 N 1.05294 -0.09751 0.42574
 N257 N 1.07654 -0.04533 0.46140
 N258 N 1.10215 -0.04818 0.42919
 N259 N 1.04129 -0.07421 0.54717
 N260 N 1.04340 -0.09932 0.57980
 Mn261 Mn 0.99974 -0.07460 0.49994
 C262 C 1.07586 -0.08410 0.60212
 C263 C 1.08719 -0.08105 0.40737
 N264 N 0.92285 0.04457 0.53855
 N265 N 0.89713 0.04734 0.57066
 N266 N 0.95817 0.07349 0.45287
 N267 N 0.95611 0.09871 0.42034
 N268 N 0.92913 0.04481 0.45064
 N269 N 0.90636 0.04988 0.41655
 N270 N 0.95171 0.07343 0.54073
 N271 N 0.94633 0.09666 0.57439
 Mn272 Mn 0.92546 -0.00015 0.49456
 C273 C 0.91201 0.08013 0.59260
 C274 C 0.92365 0.08362 0.39796
 N275 N 1.07648 0.04417 0.46139
 N276 N 1.10175 0.04647 0.42887
 N277 N 1.04116 0.07322 0.54720
 N278 N 1.04310 0.09832 0.57978
 N279 N 1.07026 0.04440 0.54941
 N280 N 1.09295 0.04927 0.58356
 N281 N 1.04766 0.07328 0.45935
 N282 N 1.05271 0.09629 0.42549
 Mn283 Mn 1.07397 -0.00056 0.50547
 Mn284 Mn 0.99968 0.07388 0.50004
 Cl285 Cl 0.99971 -0.00036 0.50000
 C286 C 1.08671 0.07931 0.40691
 C287 C 1.07555 0.08304 0.60220
 C288 C 1.13303 0.12021 0.29404
 C289 C 1.13917 0.15068 0.33079
 C290 C 1.12386 0.13695 0.36796
 C291 C 1.10388 0.09376 0.36568
 C292 C 1.07063 0.09715 0.33122
 C293 C 1.08578 0.11074 0.29385
 C294 C 1.15287 0.07884 0.30948
 C295 C 1.13778 0.06542 0.34693
 H296 H 1.15466 0.18058 0.32785
 H297 H 1.12620 0.15506 0.39653
 H298 H 1.03810 0.08877 0.33558
 H299 H 1.06604 0.11361 0.26637
 H300 H 1.17416 0.05929 0.29196
 H301 H 1.14748 0.03600 0.36060
 C302 C 0.87966 -0.13234 0.28728
 C303 C 0.85046 -0.13812 0.32515
 C304 C 0.86527 -0.12195 0.36149
 C305 C 0.90820 -0.10153 0.35735
 C306 C 0.93645 -0.13533 0.33833
 C307 C 0.92190 -0.15132 0.30168
 C308 C 0.88856 -0.08512 0.28582
 C309 C 0.90327 -0.06914 0.32238
 H310 H 0.82062 -0.15403 0.32356
 H311 H 0.84813 -0.12397 0.39072
 H312 H 0.96667 -0.14412 0.35101
 H313 H 0.94121 -0.17255 0.28384
 H314 H 0.88470 -0.06604 0.25801
 H315 H 0.91175 -0.03664 0.32573
 C316 C 0.86447 0.12189 0.70457
 C317 C 0.91069 0.10854 0.70633
 C318 C 0.92624 0.09461 0.66924
 C319 C 0.89430 0.09499 0.63345
 C320 C 0.85740 0.06930 0.64997
 C321 C 0.84180 0.08312 0.68707
 C322 C 0.86226 0.15383 0.66862
 C323 C 0.87793 0.13984 0.63164
 H324 H 0.92948 0.10950 0.73459
 H325 H 0.95826 0.08389 0.66584
 H326 H 0.84472 0.04224 0.63417
 H327 H 0.81632 0.06680 0.70190
 H328 H 0.84901 0.18483 0.67193
 H329 H 0.87815 0.15885 0.60354
 C330 C 1.12013 -0.13354 0.71245
 C331 C 1.11051 -0.08641 0.71421
 C332 C 1.09568 -0.07025 0.67772
 C333 C 1.09136 -0.10239 0.64251
 C334 C 1.13460 -0.12241 0.63835
 C335 C 1.14953 -0.13876 0.67462
 C336 C 1.07824 -0.15278 0.69776
 C337 C 1.06357 -0.13660 0.66118
 H338 H 1.11398 -0.06754 0.74218
 H339 H 1.08668 -0.03781 0.67459
 H340 H 1.15186 -0.12408 0.60917
 H341 H 1.17959 -0.15446 0.67618
 H342 H 1.05927 -0.17444 0.71530
 H343 H 1.03357 -0.14562 0.64827
 C344 C 0.28645 1.13146 1.12059
 C345 C 0.32440 1.13806 1.14946
 C346 C 0.36076 1.12195 1.13459
 C347 C 0.35656 1.10074 1.09193
 C348 C 0.32210 1.06812 1.09763
 C349 C 0.28551 1.08407 1.11239
 C350 C 0.30023 1.14978 1.07788
 C351 C 0.33690 1.13386 1.06327
 H352 H 0.32283 1.15443 1.17915
 H353 H 0.39003 1.12450 1.15154
 H354 H 0.32582 1.03548 1.08973
 H355 H 0.25804 1.06481 1.11677
 H356 H 0.28183 1.17031 1.05828
 H357 H 0.34913 1.14211 1.03270
 C358 C 0.29620 0.87855 0.86555
 C359 C 0.29515 0.89023 0.91229
 C360 C 0.33225 0.90414 0.92759
 C361 C 0.36733 0.90543 0.89490
 C362 C 0.36954 0.86122 0.87702
 C363 C 0.33256 0.84725 0.86163
 C364 C 0.31249 0.91844 0.84387
 C365 C 0.34963 0.93223 0.85917
 H366 H 0.26733 0.88827 0.93159
 H367 H 0.33609 0.91383 0.95991
 H368 H 0.39789 0.84261 0.87613
 H369 H 0.32947 0.81667 0.84750
 H370 H 0.29635 0.93603 0.81993
 H371 H 0.36430 0.96038 0.84758
 C372 C 0.70639 0.87973 1.13373
 C373 C 0.69068 0.92085 1.15384
 C374 C 0.65324 0.93429 1.13873
 C375 C 0.63475 0.90620 1.10458
 C376 C 0.66919 0.90326 1.07131
 C377 C 0.70656 0.88966 1.08646
 C378 C 0.66989 0.84908 1.13965
 C379 C 0.63272 0.86282 1.12434
 H380 H 0.70799 0.94022 1.17537
 H381 H 0.63936 0.96354 1.14863
 H382 H 0.66482 0.91193 1.03875
 H383 H 0.73403 0.88706 1.06670
 H384 H 0.67300 0.81904 1.15501
 H385 H 0.60431 0.84459 1.12655
 C386 C 0.71183 1.13399 0.88109
 C387 C 0.69679 1.15341 0.92291
 C388 C 0.66028 1.13720 0.93741
 C389 C 0.64200 1.10284 0.90949
 C390 C 0.63801 1.12269 0.86612
 C391 C 0.67421 1.13905 0.85139
 C392 C 0.71377 1.08691 0.89080
 C393 C 0.67735 1.07074 0.90543
 H394 H 0.71395 1.17537 0.94189
 H395 H 0.64708 1.14640 0.96730
 H396 H 0.60898 1.12426 0.84864
 H397 H 0.67585 1.15466 0.82128
 H398 H 0.74179 1.06805 0.88748
 H399 H 0.67433 1.03830 0.91438
 C400 C 0.11562 0.28999 0.13509
 C401 C 0.07298 0.30351 0.15346
 C402 C 0.05865 0.34061 0.13840
 C403 C 0.08775 0.36085 0.10607
 C404 C 0.13012 0.36410 0.12802
 C405 C 0.14461 0.32725 0.14318
 C406 C 0.10809 0.29032 0.08745
 C407 C 0.09372 0.32734 0.07232
 H408 H 0.05366 0.28474 0.17383
 H409 H 0.02827 0.35303 0.14699
 H410 H 0.14719 0.39304 0.13165
 H411 H 0.17410 0.32481 0.15979
 H412 H 0.11277 0.26341 0.06742
 H413 H 0.08643 0.33203 0.03947
 C414 C -0.11716 0.29148 -0.13428
 C415 C -0.10986 0.29212 -0.08660
 C416 C -0.09517 0.32904 -0.07180
 C417 C -0.08868 0.36212 -0.10588
 C418 C -0.05964 0.34109 -0.13784
 C419 C -0.07428 0.30408 -0.15255
 C420 C -0.14573 0.32913 -0.14289
 C421 C -0.13092 0.36588 -0.12808
 H422 H -0.11487 0.26547 -0.06631
 H423 H -0.08798 0.33391 -0.03897
 H424 H -0.02906 0.35286 -0.14635
 H425 H -0.05500 0.28470 -0.17248
 H426 H -0.17518 0.32702 -0.15959
 H427 H -0.14768 0.39507 -0.13207
 C428 C 0.13603 0.70824 -0.11667
 C429 C 0.15476 0.69459 -0.07418
 C430 C 0.13968 0.65763 -0.05975
 C431 C 0.10700 0.63765 -0.08862
 C432 C 0.07342 0.67145 -0.09420
 C433 C 0.08855 0.70833 -0.10865
 C434 C 0.14361 0.67090 -0.14588
 C435 C 0.12846 0.63419 -0.13129
 H436 H 0.17548 0.71314 -0.05504
 H437 H 0.14857 0.64512 -0.02946
 H438 H 0.04068 0.66704 -0.08660
 H439 H 0.06864 0.73541 -0.11308
 H440 H 0.15992 0.67317 -0.17556
 H441 H 0.13176 0.60521 -0.14849
 C442 C -0.13441 0.71016 0.11586
 C443 C -0.15259 0.69702 0.07303
 C444 C -0.13752 0.65997 0.05863
 C445 C -0.10536 0.63941 0.08785
 C446 C -0.07167 0.67276 0.09407
 C447 C -0.08681 0.70974 0.10851
 C448 C -0.14259 0.67274 0.14476
 C449 C -0.12743 0.63594 0.13020
 H450 H -0.17281 0.71601 0.05364
 H451 H -0.14599 0.64782 0.02811
 H452 H -0.03886 0.66801 0.08689
 H453 H -0.06682 0.73656 0.11334
 H454 H -0.15928 0.67503 0.17424
 H455 H -0.13111 0.60689 0.14720
 C456 C 1.11884 0.13305 0.71253
 C457 C 1.07707 0.15238 0.69730
 C458 C 1.06275 0.13595 0.66075
 C459 C 1.09077 0.10145 0.64260
 C460 C 1.13399 0.12128 0.63865
 C461 C 1.14855 0.13786 0.67490
 C462 C 1.10931 0.08597 0.71461
 C463 C 1.09485 0.06957 0.67812
 H464 H 1.05801 0.17446 0.71434
 H465 H 1.03290 0.14510 0.64745
 H466 H 1.15151 0.12264 0.60961
 H467 H 1.17854 0.15348 0.67658
 H468 H 1.11261 0.06729 0.74276
 H469 H 1.08598 0.03715 0.67519
 C470 C 0.86835 -0.12127 0.70657
 C471 C 0.91574 -0.11260 0.70596
 C472 C 0.93039 -0.09885 0.66845
 C473 C 0.89652 -0.09454 0.63468
 C474 C 0.87577 -0.13736 0.63234
 C475 C 0.86098 -0.15124 0.66966
 C476 C 0.84898 -0.07936 0.69198
 C477 C 0.86353 -0.06580 0.65436
 H478 H 0.93595 -0.11601 0.73304
 H479 H 0.96296 -0.09088 0.66358
 H480 H 0.87258 -0.15513 0.60364
 H481 H 0.84510 -0.18093 0.67262
 H482 H 0.82877 -0.05945 0.71037
 H483 H 0.85434 -0.03593 0.64134
 C484 C 1.13408 -0.12341 0.29536
 C485 C 1.08764 -0.11082 0.29396
 C486 C 1.07230 -0.09666 0.33106
 C487 C 1.10466 -0.09611 0.36650
 C488 C 1.12175 -0.14068 0.36864
 C489 C 1.13718 -0.15488 0.33164
 C490 C 1.15626 -0.08401 0.31214
 C491 C 1.14090 -0.07002 0.34926
 H492 H 1.06855 -0.11239 0.26593
 H493 H 1.04017 -0.08637 0.33469
 H494 H 1.12211 -0.15937 0.39695
 H495 H 1.15081 -0.18574 0.32851
 H496 H 1.18084 -0.06704 0.29654
 H497 H 1.15306 -0.04235 0.36439
 C498 C 0.87978 0.13395 0.28786
 C499 C 0.92130 0.15348 0.30318
 C500 C 0.93584 0.13696 0.33966
 C501 C 0.90826 0.10220 0.35766
 C502 C 0.86478 0.12172 0.36169
 C503 C 0.85001 0.13840 0.32551
 C504 C 0.88992 0.08694 0.28560
 C505 C 0.90460 0.07047 0.32201
 H506 H 0.94002 0.17586 0.28630
 H507 H 0.96553 0.14628 0.35306
 H508 H 0.84726 0.12286 0.39074
 H509 H 0.81983 0.15385 0.32390
 H510 H 0.88689 0.06839 0.25737
 H511 H 0.91395 0.03810 0.32480
 C512 C 0.13356 0.28940 -0.11705
 C513 C 0.15073 0.30162 -0.07341
 C514 C 0.13610 0.33882 -0.05894
 C515 C 0.10516 0.36040 -0.08870
 C516 C 0.12836 0.36400 -0.13040
 C517 C 0.14320 0.32714 -0.14514
 C518 C 0.08574 0.29070 -0.11075
 C519 C 0.07100 0.32780 -0.09622
 H520 H 0.16925 0.28165 -0.05329
 H521 H 0.14355 0.35015 -0.02784
 H522 H 0.13304 0.39320 -0.14687
 H523 H 0.16060 0.32505 -0.17423
 H524 H 0.06529 0.26429 -0.11598
 H525 H 0.03815 0.33301 -0.08952
 C526 C -0.13554 0.29214 0.11664
 C527 C -0.14323 0.32963 0.14561
 C528 C -0.12805 0.36627 0.13086
 C529 C -0.10646 0.36259 0.08827
 C530 C -0.07288 0.32884 0.09415
 C531 C -0.08804 0.29203 0.10876
 C532 C -0.15414 0.30554 0.07400
 C533 C -0.13904 0.34243 0.05942
 H534 H -0.15961 0.32751 0.17527
 H535 H -0.13142 0.39535 0.14788
 H536 H -0.04012 0.33322 0.08662
 H537 H -0.06813 0.26499 0.11340
 H538 H -0.17473 0.28683 0.05489
 H539 H -0.14781 0.35475 0.02901
 C540 C -0.11415 0.71112 -0.13474
 C541 C -0.07095 0.69796 -0.15228
 C542 C -0.05692 0.66062 -0.13751
 C543 C -0.08665 0.63984 -0.10612
 C544 C -0.09336 0.67285 -0.07202
 C545 C -0.10743 0.71009 -0.08688
 C546 C -0.14281 0.67380 -0.14395
 C547 C -0.12852 0.63680 -0.12899
 H548 H -0.05081 0.71732 -0.17126
 H549 H -0.02615 0.64861 -0.14525
 H550 H -0.08650 0.66777 -0.03913
 H551 H -0.11214 0.73674 -0.06650
 H552 H -0.17195 0.67625 -0.16119
 H553 H -0.14541 0.60786 -0.13340
 C554 C 0.11672 0.70915 0.13401
 C555 C 0.14506 0.67142 0.14330
 C556 C 0.13052 0.63464 0.12830
 C557 C 0.08873 0.63830 0.10531
 C558 C 0.05908 0.65949 0.13661
 C559 C 0.07336 0.69661 0.15141
 C560 C 0.11013 0.70826 0.08613
 C561 C 0.09581 0.67124 0.07123
 H562 H 0.17418 0.67345 0.16060
 H563 H 0.14717 0.60546 0.13274
 H564 H 0.02817 0.64796 0.14424
 H565 H 0.05330 0.71629 0.17026
 H566 H 0.11507 0.73487 0.06576
 H567 H 0.08900 0.66629 0.03832
 C568 C 0.29477 1.12181 0.86567
 C569 C 0.33081 1.15327 0.86204
 C570 C 0.36787 1.13935 0.87752
 C571 C 0.36605 1.09503 0.89517
 C572 C 0.33082 1.09598 0.92773
 C573 C 0.29365 1.10985 0.91235
 C574 C 0.31158 1.08211 0.84385
 C575 C 0.34879 1.06838 0.85924
 H576 H 0.32746 1.18392 0.84804
 H577 H 0.39603 1.15807 0.87682
 H578 H 0.33464 1.08611 0.96000
 H579 H 0.26574 1.11161 0.93155
 H580 H 0.29582 1.06467 0.81965
 H581 H 0.36385 1.04040 0.84751
 C582 C 0.28922 0.86510 1.11902
 C583 C 0.30613 0.84373 1.07906
 C584 C 0.34240 0.86042 1.06456
 C585 C 0.35870 0.89698 1.09091
 C586 C 0.32223 0.92803 1.09218
 C587 C 0.28598 0.91144 1.10678
 C588 C 0.32597 0.86297 1.15005
 C589 C 0.36207 0.87970 1.13545
 H590 H 0.29118 0.81868 1.06221
 H591 H 0.35740 0.84915 1.03627
 H592 H 0.32445 0.96003 1.08155
 H593 H 0.25728 0.92944 1.10860
 H594 H 0.32384 0.84896 1.18090
 H595 H 0.39060 0.88008 1.15380
 C596 C 0.70365 1.12249 1.13508
 C597 C 0.68681 1.08321 1.15748
 C598 C 0.64971 1.06940 1.14213
 C599 C 0.63257 1.09556 1.10569
 C600 C 0.63054 1.14015 1.12263
 C601 C 0.66751 1.15415 1.13805
 C602 C 0.70500 1.10986 1.08861
 C603 C 0.66793 1.09592 1.07328
 H604 H 0.70226 1.06629 1.18233
 H605 H 0.63448 1.04189 1.15450
 H606 H 0.60232 1.15898 1.12291
 H607 H 0.67070 1.18498 1.15161
 H608 H 0.73298 1.11128 1.06949
 H609 H 0.66427 1.08564 1.04113
 C610 C 0.71296 0.86752 0.88021
 C611 C 0.71540 0.91411 0.89153
 C612 C 0.67898 0.93048 0.90623
 C613 C 0.64315 0.89897 0.90854
 C614 C 0.63965 0.88086 0.86436
 C615 C 0.67592 0.86436 0.84965
 C616 C 0.69695 0.84671 0.92081
 C617 C 0.66051 0.86313 0.93539
 H618 H 0.74370 0.93247 0.88900
 H619 H 0.67621 0.96265 0.91620
 H620 H 0.61092 0.88058 0.84632
 H621 H 0.67802 0.84991 0.81902
 H622 H 0.71288 0.82260 0.93832
 H623 H 0.64628 0.85243 0.96426
   
