data_POSCAR
  _audit_creation_date              2014-09-24
  _audit_creation_method            'ToBaCCo'
  _symmetry_space_group_name_H-M    'P1'
  _symmetry_Int_Tables_number       1
  _symmetry_cell_setting            triclinic
  loop_
  _symmetry_equiv_pos_as_xyz
 x,y,z
_cell_length_a 57.0281
_cell_length_b 57.1494
_cell_length_c 54.8480
_cell_angle_alpha 90.587200
_cell_angle_beta 90.376400
_cell_angle_gamma 89.220800
loop_
  _atom_site_label
  _atom_site_type_symbol
  _atom_site_fract_x
  _atom_site_fract_y
  _atom_site_fract_z
C1 C 0.21626 0.52409 1.03405
 H2 H 0.21500 0.53718 1.01998
 C3 C 0.20089 0.52499 1.05374
 H4 H 0.18765 0.53870 1.05382
 C5 C 0.23418 0.48955 1.04911
 H6 H 0.24705 0.47564 1.04714
 C7 C 0.21912 0.48969 1.06911
 H8 H 0.22165 0.47615 1.08251
 N9 N 0.23257 0.50666 1.03215
 C10 C 0.28654 0.53443 0.98504
 H11 H 0.28702 0.52093 0.97107
 C12 C 0.30206 0.55306 0.98409
 H13 H 0.31422 0.55396 0.96906
 C14 C 0.27010 0.54945 1.02165
 H15 H 0.25799 0.54770 1.03655
 C16 C 0.28532 0.56840 1.02141
 H17 H 0.28473 0.58107 1.03622
 Zn18 Zn 0.25172 0.50627 1.00408
 N19 N 0.27092 0.53300 1.00356
 C20 C 0.23169 0.52296 0.95970
 N21 N 0.23142 0.50572 0.97662
 C22 C 0.21570 0.48809 0.97514
 C23 C 0.19958 0.48714 0.95591
 C24 C 0.21586 0.52270 0.94016
 C25 C 0.28854 0.47846 1.02188
 C26 C 0.30480 0.45998 1.02222
 C27 C 0.28702 0.44464 0.98540
 C28 C 0.27107 0.46341 0.98578
 N29 N 0.27203 0.47978 1.00393
 H30 H 0.24387 0.53718 0.96153
 H31 H 0.21567 0.47477 0.98902
 H32 H 0.18738 0.47280 0.95494
 H33 H 0.21607 0.53679 0.92712
 H34 H 0.28920 0.49198 1.03581
 H35 H 0.31803 0.45948 1.03646
 H36 H 0.28587 0.43169 0.97091
 H37 H 0.25817 0.46500 0.97138
 C38 C 0.30167 0.57031 1.00251
 C39 C 0.20191 0.50755 1.07184
 C40 C 0.30422 0.44278 1.00376
 C41 C 0.19945 0.50466 0.93812
 C42 C 0.78351 0.51318 -0.03023
 H43 H 0.78482 0.52660 -0.01625
 C44 C 0.79900 0.51297 -0.04981
 H45 H 0.81235 0.52622 -0.05066
 C46 C 0.76495 0.47915 -0.04551
 H47 H 0.75183 0.46585 -0.04362
 C48 C 0.78013 0.47825 -0.06540
 H49 H 0.77825 0.46442 -0.07889
 N50 N 0.76675 0.49660 -0.02856
 C51 C 0.71196 0.52900 0.01584
 H52 H 0.71048 0.51609 0.03002
 C53 C 0.69713 0.54863 0.01583
 H54 H 0.68412 0.55061 0.03001
 C55 C 0.73014 0.54147 -0.02042
 H56 H 0.74276 0.53845 -0.03474
 C57 C 0.71564 0.56134 -0.02116
 H58 H 0.71761 0.57366 -0.03585
 Zn59 Zn 0.74686 0.49827 -0.00110
 N60 N 0.72819 0.52588 -0.00199
 C61 C 0.76572 0.51620 0.04336
 N62 N 0.76634 0.49817 0.02699
 C63 C 0.78183 0.48005 0.02953
 C64 C 0.79734 0.47944 0.04931
 C65 C 0.78093 0.51631 0.06342
 C66 C 0.71000 0.47135 -0.01918
 C67 C 0.69347 0.45355 -0.01952
 C68 C 0.71015 0.43901 0.01809
 C69 C 0.72639 0.45708 0.01768
 N70 N 0.72611 0.47271 -0.00086
 H71 H 0.75365 0.53070 0.04079
 H72 H 0.78226 0.46616 0.01598
 H73 H 0.80979 0.46504 0.05077
 H74 H 0.78005 0.53073 0.07635
 H75 H 0.70988 0.48430 -0.03344
 H76 H 0.68058 0.45300 -0.03408
 H77 H 0.71077 0.42662 0.03289
 H78 H 0.73898 0.45873 0.03236
 C79 C 0.69884 0.56511 -0.00288
 C80 C 0.79739 0.49537 -0.06778
 C81 C 0.69336 0.43711 -0.00067
 C82 C 0.79707 0.49778 0.06656
 C83 C -0.02242 0.28188 0.46672
 H84 H -0.03587 0.28242 0.48055
 C85 C -0.02365 0.29731 0.44717
 H86 H -0.03801 0.30984 0.44692
 C87 C 0.01332 0.26583 0.45218
 H88 H 0.02786 0.25372 0.45431
 C89 C 0.01287 0.28095 0.43235
 H90 H 0.02682 0.27915 0.41920
 N91 N -0.00421 0.26649 0.46883
 C92 C -0.02909 0.21053 0.51514
 H93 H -0.01549 0.21054 0.52899
 C94 C -0.04685 0.19399 0.51588
 H95 H -0.04671 0.18122 0.53033
 C96 C -0.04508 0.22659 0.47891
 H97 H -0.04413 0.23908 0.46432
 C98 C -0.06315 0.21033 0.47892
 H99 H -0.07623 0.21080 0.46453
 Zn100 Zn -0.00304 0.24725 0.49673
 N101 N -0.02860 0.22648 0.49695
 C102 C -0.02071 0.26559 0.54161
 N103 N -0.00375 0.26729 0.52442
 C104 C 0.01286 0.28408 0.52596
 C105 C 0.01316 0.29974 0.54564
 C106 C -0.02110 0.28093 0.56160
 C107 C 0.02699 0.21231 0.47870
 C108 C 0.04667 0.19756 0.47795
 C109 C 0.06109 0.21637 0.51463
 C110 C 0.04112 0.23080 0.51466
 N111 N 0.02467 0.22866 0.49674
 H112 H -0.03406 0.25245 0.53982
 H113 H 0.02588 0.28531 0.51178
 H114 H 0.02639 0.31314 0.54638
 H115 H -0.03455 0.27913 0.57526
 H116 H 0.01341 0.21070 0.46494
 H117 H 0.04802 0.18446 0.46361
 H118 H 0.07411 0.21848 0.52891
 H119 H 0.03875 0.24353 0.52914
 C120 C -0.06417 0.19370 0.49757
 C121 C -0.00574 0.29730 0.42946
 C122 C 0.06405 0.19947 0.49609
 C123 C -0.00397 0.29828 0.56383
 C124 C 0.99005 0.71771 0.53551
 H125 H 0.97661 0.71701 0.52151
 C126 C 0.98934 0.70240 0.55515
 H127 H 0.97534 0.68984 0.55604
 C128 C 1.02523 0.73423 0.55059
 H129 H 1.03941 0.74637 0.54854
 C130 C 1.02522 0.71922 0.57053
 H131 H 1.03923 0.72031 0.58390
 N132 N 1.00773 0.73329 0.53364
 C133 C 0.98038 0.78835 0.48633
 H134 H 0.99385 0.78833 0.47253
 C135 C 0.96189 0.80457 0.48524
 H136 H 0.96133 0.81710 0.47057
 C137 C 0.96543 0.77261 0.52279
 H138 H 0.96705 0.76038 0.53759
 C139 C 0.94664 0.78855 0.52242
 H140 H 0.93372 0.78807 0.53677
 Zn141 Zn 1.00813 0.75223 0.50552
 N142 N 0.98174 0.77270 0.50481
 C143 C 0.99090 0.73296 0.46081
 N144 N 1.00806 0.73181 0.47812
 C145 C 1.02529 0.71516 0.47705
 C146 C 1.02592 0.69898 0.45783
 C147 C 0.99086 0.71710 0.44124
 C148 C 1.03706 0.78763 0.52337
 C149 C 1.05612 0.80270 0.52392
 C150 C 1.07082 0.78371 0.48744
 C151 C 1.05147 0.76899 0.48760
 N152 N 1.03516 0.77110 0.50550
 H153 H 0.97701 0.74592 0.46229
 H154 H 1.03855 0.71447 0.49123
 H155 H 1.03997 0.68606 0.45718
 H156 H 0.97685 0.71804 0.42785
 H157 H 1.02359 0.78922 0.53712
 H158 H 1.05709 0.81598 0.53809
 H159 H 1.08371 0.78165 0.47315
 H160 H 1.04943 0.75609 0.47325
 C161 C 0.94471 0.80485 0.50349
 C162 C 1.00715 0.70296 0.57296
 C163 C 1.07330 0.80089 0.50574
 C164 C 1.00851 0.69977 0.43961
 C165 C 0.46726 -0.01614 0.28449
 H166 H 0.48038 -0.02983 0.28659
 C167 C 0.44738 -0.01582 0.29920
 H168 H 0.44544 -0.02925 0.31279
 C169 C 0.45435 0.01841 0.26468
 H170 H 0.45725 0.03188 0.25142
 C171 C 0.43423 0.01943 0.27904
 H172 H 0.42161 0.03351 0.27633
 N173 N 0.47023 0.00064 0.26744
 C174 C 0.51568 -0.03181 0.21290
 H175 H 0.52968 -0.01923 0.21248
 C176 C 0.51633 -0.05130 0.19737
 H177 H 0.53154 -0.05354 0.18589
 C178 C 0.47972 -0.04388 0.22951
 H179 H 0.46514 -0.04063 0.24160
 C180 C 0.47962 -0.06365 0.21433
 H181 H 0.46448 -0.07478 0.21503
 Zn182 Zn 0.49775 -0.00116 0.24838
 N183 N 0.49767 -0.02855 0.22868
 C184 C 0.53928 -0.01979 0.27016
 N185 N 0.52369 -0.00156 0.27013
 C186 C 0.52557 0.01640 0.28645
 C187 C 0.54397 0.01672 0.30338
 C188 C 0.55792 -0.02018 0.28679
 C189 C 0.48241 0.02630 0.20950
 C190 C 0.48245 0.04476 0.19304
 C191 C 0.51742 0.05932 0.21274
 C192 C 0.51669 0.04058 0.22887
 N193 N 0.49919 0.02470 0.22715
 H194 H 0.53722 -0.03418 0.25745
 H195 H 0.51265 0.03044 0.28636
 H196 H 0.54501 0.03106 0.31638
 H197 H 0.57032 -0.03470 0.28630
 H198 H 0.46895 0.01317 0.20826
 H199 H 0.46902 0.04561 0.17902
 H200 H 0.53127 0.07200 0.21464
 H201 H 0.53016 0.03875 0.24268
 C202 C 0.49808 -0.06779 0.19770
 C203 C 0.43049 0.00211 0.29652
 C204 C 0.50008 0.06164 0.19458
 C205 C 0.56046 -0.00175 0.30369
 C206 C 0.52698 -0.01852 0.71050
 H207 H 0.51374 -0.03188 0.70943
 C208 C 0.54554 -0.01885 0.69404
 H209 H 0.54638 -0.03249 0.68021
 C210 C 0.54135 0.01597 0.72934
 H211 H 0.53950 0.02968 0.74290
 C212 C 0.56019 0.01633 0.71321
 H213 H 0.57293 0.03014 0.71487
 N214 N 0.52534 -0.00143 0.72786
 C215 C 0.48318 -0.03133 0.78541
 H216 H 0.46960 -0.01801 0.78698
 C217 C 0.48304 -0.05068 0.80071
 H218 H 0.46908 -0.05227 0.81385
 C219 C 0.51777 -0.04538 0.76619
 H220 H 0.53151 -0.04305 0.75302
 C221 C 0.51831 -0.06503 0.78113
 H222 H 0.53255 -0.07764 0.77929
 Zn223 Zn 0.49915 -0.00207 0.74886
 N224 N 0.50023 -0.02914 0.76842
 C225 C 0.45624 -0.01971 0.72989
 N226 N 0.47194 -0.00204 0.72892
 C227 C 0.46922 0.01572 0.71280
 C228 C 0.44989 0.01639 0.69707
 C229 C 0.43665 -0.01973 0.71449
 C230 C 0.51675 0.02597 0.78669
 C231 C 0.51715 0.04451 0.80346
 C232 C 0.48063 0.05886 0.78635
 C233 C 0.48094 0.04005 0.76989
 N234 N 0.49893 0.02418 0.77021
 H235 H 0.45901 -0.03401 0.74233
 H236 H 0.48215 0.02938 0.71219
 H237 H 0.44790 0.03085 0.68459
 H238 H 0.42454 -0.03413 0.71527
 H239 H 0.53059 0.01284 0.78688
 H240 H 0.53135 0.04545 0.81662
 H241 H 0.46629 0.07145 0.78561
 H242 H 0.46665 0.03808 0.75705
 C243 C 0.50078 -0.06787 0.79868
 C244 C 0.56249 -0.00127 0.69527
 C245 C 0.49890 0.06126 0.80345
 C246 C 0.43330 -0.00153 0.69776
 C247 C 0.24692 0.00194 0.49642
 C248 C 0.75411 -0.00243 0.49978
 C249 C 0.49860 0.25384 1.00093
 C250 C 0.50048 0.74698 -0.00367
 C251 C 0.99909 0.50007 0.25142
 C252 C -0.00085 0.49877 0.75074
 C253 C 0.11232 0.15806 0.51756
 C254 C 0.12298 0.15178 0.49550
 C255 C 0.11484 0.16157 0.47370
 C256 C 0.09589 0.17735 0.47391
 C257 C 0.08482 0.18352 0.49596
 C258 C 0.09339 0.17385 0.51782
 C259 C 0.14153 0.13447 0.49511
 C260 C 0.15659 0.11948 0.49479
 C261 C 0.17361 0.10134 0.49445
 C262 C 0.18757 0.08531 0.49418
 C263 C 0.20343 0.06553 0.49393
 C264 C 0.19950 0.04696 0.47774
 C265 C 0.21381 0.02699 0.47849
 C266 C 0.23194 0.02475 0.49605
 C267 C 0.23672 0.04443 0.51105
 C268 C 0.22233 0.06443 0.51025
 H269 H 0.11839 0.15045 0.53452
 H270 H 0.12295 0.15680 0.45651
 H271 H 0.08990 0.18473 0.45683
 H272 H 0.08506 0.17800 0.53504
 H273 H 0.18516 0.04778 0.46470
 H274 H 0.21033 0.01284 0.46575
 H275 H 0.25159 0.04468 0.52334
 H276 H 0.22589 0.07899 0.52247
 C277 C 0.65711 0.61211 -0.02643
 C278 C 0.65095 0.62381 -0.00482
 C279 C 0.66089 0.61674 0.01735
 C280 C 0.67672 0.59785 0.01797
 C281 C 0.68279 0.58577 -0.00361
 C282 C 0.67294 0.59323 -0.02586
 C283 C 0.63362 0.64232 -0.00527
 C284 C 0.61861 0.65736 -0.00563
 C285 C 0.60044 0.67435 -0.00601
 C286 C 0.58437 0.68826 -0.00629
 C287 C 0.56452 0.70406 -0.00652
 C288 C 0.56320 0.72281 0.01000
 C289 C 0.54308 0.73705 0.01089
 C290 C 0.52348 0.73226 -0.00422
 C291 C 0.52597 0.71433 -0.02200
 C292 C 0.54606 0.70016 -0.02285
 H293 H 0.64939 0.61733 -0.04366
 H294 H 0.65622 0.62565 0.03419
 H295 H 0.68423 0.59271 0.03532
 H296 H 0.67700 0.58410 -0.04273
 H297 H 0.57768 0.72635 0.02232
 H298 H 0.54316 0.75180 0.02335
 H299 H 0.51189 0.71086 -0.03483
 H300 H 0.54705 0.68594 -0.03604
 C301 C 0.89620 -0.15474 0.48037
 C302 C 0.88891 -0.14374 0.50199
 C303 C 0.89961 -0.14975 0.52413
 C304 C 0.91762 -0.16659 0.52466
 C305 C 0.92520 -0.17765 0.50300
 C306 C 0.91422 -0.17158 0.48085
 C307 C 0.87070 -0.12604 0.50143
 C308 C 0.85560 -0.11108 0.50103
 C309 C 0.83807 -0.09339 0.50064
 C310 C 0.82323 -0.07817 0.50038
 C311 C 0.80566 -0.05983 0.50017
 C312 C 0.80155 -0.04641 0.52118
 C313 C 0.78482 -0.02834 0.52091
 C314 C 0.77126 -0.02366 0.49979
 C315 C 0.77639 -0.03683 0.47845
 C316 C 0.79316 -0.05490 0.47879
 H317 H 0.88801 -0.15026 0.46313
 H318 H 0.89417 -0.14128 0.54097
 H319 H 0.92592 -0.17062 0.54195
 H320 H 0.91945 -0.17998 0.46392
 H321 H 0.81146 -0.04974 0.53773
 H322 H 0.78240 -0.01788 0.53730
 H323 H 0.76799 -0.03293 0.46122
 H324 H 0.79664 -0.06480 0.46222
 C325 C 0.34592 0.39458 1.02483
 C326 C 0.35597 0.38729 1.00276
 C327 C 0.34886 0.39787 0.98099
 C328 C 0.33189 0.41576 0.98127
 C329 C 0.32180 0.42334 1.00338
 C330 C 0.32896 0.41248 1.02516
 C331 C 0.37384 0.36925 1.00250
 C332 C 0.38896 0.35429 1.00228
 C333 C 0.40681 0.33694 1.00202
 C334 C 0.42219 0.32224 1.00182
 C335 C 0.44068 0.30483 1.00161
 C336 C 0.45348 0.30055 0.98036
 C337 C 0.47172 0.28399 0.98028
 C338 C 0.47718 0.27078 1.00127
 C339 C 0.46464 0.27610 1.02284
 C340 C 0.44639 0.29269 1.02287
 H341 H 0.35126 0.38648 1.04180
 H342 H 0.35659 0.39244 0.96381
 H343 H 0.32701 0.42398 0.96424
 H344 H 0.32132 0.41771 1.04243
 H345 H 0.44954 0.31020 0.96390
 H346 H 0.48170 0.28144 0.96371
 H347 H 0.46915 0.26799 1.03999
 H348 H 0.43699 0.29631 1.03961
 C349 C 0.89280 0.14764 0.47603
 C350 C 0.88262 0.14109 0.49804
 C351 C 0.88953 0.15198 0.51984
 C352 C 0.90667 0.16924 0.51968
 C353 C 0.91714 0.17584 0.49768
 C354 C 0.90993 0.16491 0.47582
 C355 C 0.86539 0.12292 0.49829
 C356 C 0.85110 0.10757 0.49852
 C357 C 0.83451 0.08948 0.49881
 C358 C 0.82043 0.07393 0.49905
 C359 C 0.80372 0.05529 0.49933
 C360 C 0.79174 0.05024 0.52074
 C361 C 0.77566 0.03200 0.52112
 C362 C 0.77069 0.01880 0.49978
 C363 C 0.78381 0.02354 0.47866
 C364 C 0.79986 0.04178 0.47834
 H365 H 0.88765 0.13926 0.45905
 H366 H 0.88173 0.14708 0.53698
 H367 H 0.91162 0.17753 0.53676
 H368 H 0.91788 0.16936 0.45864
 H369 H 0.79506 0.06020 0.53729
 H370 H 0.76764 0.02805 0.53836
 H371 H 0.78153 0.01307 0.46228
 H372 H 0.80940 0.04521 0.46177
 C373 C 0.35827 0.60363 -0.00429
 C374 C 0.35130 0.62629 0.00260
 C375 C 0.32803 0.63078 0.00935
 C376 C 0.31180 0.61262 0.00926
 C377 C 0.31868 0.58975 0.00238
 C378 C 0.34212 0.58548 -0.00440
 C379 C 0.36826 0.64471 0.00291
 C380 C 0.38314 0.65949 0.00300
 C381 C 0.40137 0.67593 0.00292
 C382 C 0.41764 0.68917 0.00265
 C383 C 0.43791 0.70387 0.00210
 C384 C 0.43586 0.72751 -0.00395
 C385 C 0.45592 0.74122 -0.00551
 C386 C 0.47856 0.73135 -0.00199
 C387 C 0.48000 0.70784 0.00580
 C388 C 0.45996 0.69422 0.00738
 H389 H 0.37627 0.59994 -0.00943
 H390 H 0.32244 0.64828 0.01469
 H391 H 0.29384 0.61650 0.01433
 H392 H 0.34807 0.56802 -0.00940
 H393 H 0.41879 0.73532 -0.00758
 H394 H 0.45385 0.75955 -0.00996
 H395 H 0.49650 0.69978 0.01101
 H396 H 0.46169 0.67609 0.01276
 C397 C 0.12249 -0.15963 0.52720
 C398 C 0.12977 -0.15004 0.50517
 C399 C 0.11908 -0.15699 0.48329
 C400 C 0.10098 -0.17323 0.48342
 C401 C 0.09328 -0.18271 0.50550
 C402 C 0.10438 -0.17587 0.52738
 C403 C 0.14734 -0.13220 0.50510
 C404 C 0.16150 -0.11674 0.50487
 C405 C 0.17735 -0.09801 0.50441
 C406 C 0.19019 -0.08145 0.50384
 C407 C 0.20457 -0.06099 0.50292
 C408 C 0.22823 -0.06277 0.49657
 C409 C 0.24168 -0.04258 0.49475
 C410 C 0.23153 -0.02009 0.49833
 C411 C 0.20800 -0.01891 0.50636
 C412 C 0.19464 -0.03907 0.50820
 H413 H 0.13062 -0.15433 0.54426
 H414 H 0.12446 -0.14954 0.46615
 H415 H 0.09259 -0.17787 0.46631
 H416 H 0.09905 -0.18307 0.54463
 H417 H 0.23626 -0.07972 0.49294
 H418 H 0.26003 -0.04445 0.49008
 H419 H 0.19975 -0.00250 0.51160
 H420 H 0.17649 -0.03755 0.51380
 C421 C 0.65160 0.38970 0.97826
 C422 C 0.64093 0.38373 1.00021
 C423 C 0.64760 0.39496 1.02191
 C424 C 0.66479 0.41217 1.02167
 C425 C 0.67551 0.41842 0.99968
 C426 C 0.66877 0.40692 0.97798
 C427 C 0.62290 0.36635 1.00040
 C428 C 0.60769 0.35191 1.00055
 C429 C 0.58976 0.33513 1.00068
 C430 C 0.57437 0.32087 1.00074
 C431 C 0.55591 0.30394 1.00074
 C432 C 0.54312 0.30014 1.02193
 C433 C 0.52502 0.28391 1.02184
 C434 C 0.51973 0.27055 1.00073
 C435 C 0.53221 0.27544 0.97920
 C436 C 0.55031 0.29170 0.97935
 H437 H 0.64659 0.38109 0.96136
 H438 H 0.63940 0.39053 1.03898
 H439 H 0.66934 0.42091 1.03862
 H440 H 0.67690 0.41113 0.96082
 H441 H 0.54697 0.30989 1.03849
 H442 H 0.51506 0.28170 1.03838
 H443 H 0.52779 0.26722 0.96198
 H444 H 0.55971 0.29496 0.96265
 C445 C 0.47965 0.11107 1.15353
 C446 C 0.50088 0.11840 1.14372
 C447 C 0.52190 0.10739 1.15072
 C448 C 0.52169 0.08904 1.16739
 C449 C 0.50042 0.08142 1.17723
 C450 C 0.47940 0.09271 1.17017
 C451 C 0.50100 0.13694 1.12615
 C452 C 0.50094 0.15232 1.11127
 C453 C 0.50072 0.17013 1.09363
 C454 C 0.50041 0.18517 1.07837
 C455 C 0.49994 0.20288 1.05989
 C456 C 0.52025 0.21513 1.05446
 C457 C 0.51999 0.23182 1.03600
 C458 C 0.49913 0.23710 1.02295
 C459 C 0.47903 0.22389 1.02820
 C460 C 0.47935 0.20723 1.04666
 H461 H 0.46328 0.11949 1.14827
 H462 H 0.53842 0.11287 1.14316
 H463 H 0.53813 0.08052 1.17222
 H464 H 0.46278 0.08748 1.17767
 H465 H 0.53647 0.21146 1.06419
 H466 H 0.53641 0.23996 1.03161
 H467 H 0.46301 0.22641 1.01780
 H468 H 0.46362 0.19750 1.05035
 C469 C -0.01381 0.66353 0.62346
 C470 C 0.00718 0.65262 0.63071
 C471 C 0.02825 0.65869 0.61964
 C472 C 0.02831 0.67535 0.60116
 C473 C 0.00725 0.68615 0.59345
 C474 C -0.01380 0.68019 0.60497
 C475 C 0.00695 0.63438 0.64862
 C476 C 0.00669 0.61862 0.66306
 C477 C 0.00627 0.59959 0.67925
 C478 C 0.00579 0.58283 0.69240
 C479 C 0.00502 0.56218 0.70717
 C480 C -0.00100 0.56369 0.73180
 C481 C -0.00261 0.54335 0.74564
 C482 C 0.00090 0.52097 0.73490
 C483 C 0.00853 0.52004 0.71040
 C484 C 0.01015 0.54037 0.69666
 H485 H -0.03023 0.65894 0.63188
 H486 H 0.04458 0.65023 0.62499
 H487 H 0.04475 0.67930 0.59244
 H488 H -0.03025 0.68840 0.59965
 H489 H -0.00453 0.58055 0.74030
 H490 H -0.00706 0.54501 0.76474
 H491 H 0.01358 0.50372 0.70168
 H492 H 0.01547 0.53904 0.67775
 C493 C 0.50773 0.86989 -0.17838
 C494 C 0.50197 0.87279 -0.15376
 C495 C 0.49582 0.89500 -0.14472
 C496 C 0.49541 0.91427 -0.16018
 C497 C 0.50116 0.91158 -0.18497
 C498 C 0.50734 0.88917 -0.19391
 C499 C 0.50257 0.85318 -0.13752
 C500 C 0.50298 0.83732 -0.12321
 C501 C 0.50341 0.81954 -0.10556
 C502 C 0.50373 0.80514 -0.08966
 C503 C 0.50407 0.78904 -0.06967
 C504 C 0.51979 0.79248 -0.05039
 C505 C 0.51880 0.77846 -0.02978
 C506 C 0.50150 0.76113 -0.02756
 C507 C 0.48705 0.75662 -0.04810
 C508 C 0.48807 0.77076 -0.06874
 H509 H 0.51250 0.85277 -0.18556
 H510 H 0.49144 0.89746 -0.12566
 H511 H 0.49093 0.93132 -0.15266
 H512 H 0.51161 0.88651 -0.21295
 H513 H 0.53253 0.80636 -0.05105
 H514 H 0.53105 0.78171 -0.01500
 H515 H 0.47491 0.74229 -0.04845
 H516 H 0.47617 0.76758 -0.08387
 C517 C 0.97233 0.34035 0.38299
 C518 C 0.99324 0.34688 0.37203
 C519 C 1.01440 0.33661 0.37952
 C520 C 1.01475 0.32008 0.39812
 C521 C 0.99383 0.31345 0.40984
 C522 C 0.97255 0.32385 0.40164
 C523 C 0.99315 0.36486 0.35383
 C524 C 0.99325 0.38033 0.33907
 C525 C 0.99354 0.39897 0.32240
 C526 C 0.99390 0.41537 0.30876
 C527 C 0.99444 0.43555 0.29330
 C528 C 1.01068 0.43679 0.27439
 C529 C 1.01218 0.45710 0.26049
 C530 C 0.99796 0.47695 0.26584
 C531 C 0.98056 0.47464 0.28388
 C532 C 0.97910 0.45435 0.29770
 H533 H 0.95579 0.34812 0.37722
 H534 H 1.03076 0.34174 0.37132
 H535 H 1.03174 0.31358 0.40395
 H536 H 0.95581 0.31893 0.40898
 H537 H 1.02227 0.42207 0.27043
 H538 H 1.02441 0.45697 0.24554
 H539 H 0.96846 0.48895 0.28772
 H540 H 0.96617 0.45346 0.31203
 C541 C 0.51003 0.89348 0.14340
 C542 C 0.49722 0.87366 0.14910
 C543 C 0.48498 0.87293 0.17104
 C544 C 0.48538 0.89205 0.18715
 C545 C 0.49807 0.91246 0.18165
 C546 C 0.51053 0.91263 0.15941
 C547 C 0.49620 0.85445 0.13198
 C548 C 0.49550 0.83897 0.11693
 C549 C 0.49493 0.82166 0.09842
 C550 C 0.49468 0.80771 0.08180
 C551 C 0.49474 0.79221 0.06097
 C552 C 0.50030 0.76844 0.06337
 C553 C 0.50170 0.75401 0.04265
 C554 C 0.49852 0.76326 0.01902
 C555 C 0.49113 0.78693 0.01728
 C556 C 0.48969 0.80126 0.03796
 H557 H 0.51939 0.89432 0.12630
 H558 H 0.47510 0.85757 0.17571
 H559 H 0.47625 0.89027 0.20422
 H560 H 0.51986 0.92787 0.15350
 H561 H 0.50376 0.76111 0.08119
 H562 H 0.50589 0.73563 0.04499
 H563 H 0.48624 0.79460 0.00002
 H564 H 0.48471 0.81951 0.03595
 C565 C -0.02549 0.34103 0.61246
 C566 C -0.00435 0.34800 0.62321
 C567 C 0.01687 0.33831 0.61497
 C568 C 0.01698 0.32193 0.59587
 C569 C -0.00415 0.31502 0.58472
 C570 C -0.02542 0.32463 0.59336
 C571 C -0.00434 0.36576 0.64201
 C572 C -0.00427 0.38104 0.65732
 C573 C -0.00414 0.39942 0.67470
 C574 C -0.00399 0.41557 0.68900
 C575 C -0.00381 0.43544 0.70534
 C576 C 0.01202 0.43633 0.72488
 C577 C 0.01303 0.45627 0.73984
 C578 C -0.00130 0.47611 0.73500
 C579 C -0.01825 0.47414 0.71618
 C580 C -0.01922 0.45422 0.70130
 H581 H -0.04200 0.34853 0.61859
 H582 H 0.03334 0.34359 0.62315
 H583 H 0.03361 0.31462 0.58985
 H584 H -0.04195 0.31991 0.58497
 H585 H 0.02365 0.42161 0.72855
 H586 H 0.02493 0.45584 0.75524
 H587 H -0.03044 0.48842 0.71264
 H588 H -0.03186 0.45358 0.68648
 C589 C 0.47760 0.10643 0.84979
 C590 C 0.49848 0.11772 0.85592
 C591 C 0.51947 0.11071 0.84479
 C592 C 0.51962 0.09242 0.82765
 C593 C 0.49874 0.08090 0.82141
 C594 C 0.47770 0.08816 0.83264
 C595 C 0.49839 0.13626 0.87389
 C596 C 0.49831 0.15165 0.88909
 C597 C 0.49824 0.16949 0.90707
 C598 C 0.49823 0.18457 0.92260
 C599 C 0.49830 0.20235 0.94138
 C600 C 0.51875 0.20658 0.95477
 C601 C 0.51872 0.22336 0.97345
 C602 C 0.49838 0.23685 0.97877
 C603 C 0.47765 0.23167 0.96558
 C604 C 0.47775 0.21485 0.94689
 H605 H 0.46126 0.11165 0.85838
 H606 H 0.53573 0.11935 0.84938
 H607 H 0.53604 0.08744 0.81910
 H608 H 0.46140 0.07944 0.82850
 H609 H 0.53467 0.19667 0.95100
 H610 H 0.53467 0.22581 0.98393
 H611 H 0.46109 0.24003 0.97000
 H612 H 0.46164 0.21128 0.93704
 C613 C 1.00232 0.67229 0.37652
 C614 C 1.00807 0.64888 0.38127
 C615 C 1.01406 0.64215 0.40499
 C616 C 1.01427 0.65870 0.42391
 C617 C 1.00848 0.68228 0.41938
 C618 C 1.00251 0.68890 0.39545
 C619 C 1.00753 0.63155 0.36204
 C620 C 1.00705 0.61649 0.34650
 C621 C 1.00644 0.59819 0.32903
 C622 C 1.00582 0.58197 0.31483
 C623 C 1.00495 0.56187 0.29883
 C624 C 1.00954 0.53965 0.30824
 C625 C 1.00789 0.51984 0.29327
 C626 C 1.00077 0.52170 0.26859
 C627 C 0.99779 0.54446 0.25905
 C628 C 0.99943 0.56429 0.27411
 H629 H 0.99767 0.67769 0.35822
 H630 H 1.01842 0.62406 0.40890
 H631 H 1.01858 0.65296 0.44217
 H632 H 0.99822 0.70695 0.39133
 H633 H 1.01448 0.53762 0.32722
 H634 H 1.01255 0.50318 0.30121
 H635 H 0.99375 0.54682 0.23991
 H636 H 0.99632 0.58148 0.26648
 C637 C 1.16369 0.48696 0.12263
 C638 C 1.15245 0.50778 0.12967
 C639 C 1.15808 0.52865 0.11822
 C640 C 1.17458 0.52869 0.09949
 C641 C 1.18588 0.50773 0.09166
 C642 C 1.18025 0.48688 0.10394
 C643 C 1.13431 0.50757 0.14781
 C644 C 1.11863 0.50731 0.16244
 C645 C 1.09968 0.50691 0.17886
 C646 C 1.08297 0.50644 0.19219
 C647 C 1.06237 0.50571 0.20718
 C648 C 1.06402 0.49961 0.23175
 C649 C 1.04372 0.49806 0.24580
 C650 C 1.02124 0.50172 0.23534
 C651 C 1.02019 0.50942 0.21091
 C652 C 1.04047 0.51098 0.19695
 H653 H 1.15928 0.47062 0.13123
 H654 H 1.14957 0.54494 0.12364
 H655 H 1.17876 0.54543 0.09175
 H656 H 1.18753 0.47009 0.09848
 H657 H 1.08095 0.49596 0.24004
 H658 H 1.04549 0.49354 0.26486
 H659 H 1.00381 0.51458 0.20241
 H660 H 1.03905 0.51637 0.17811
 C661 C 0.60808 0.01995 0.65075
 C662 C 0.61909 -0.00110 0.64383
 C663 C 0.61183 -0.02217 0.65395
 C664 C 0.59354 -0.02222 0.67079
 C665 C 0.58224 -0.00117 0.67775
 C666 C 0.58979 0.01994 0.66761
 C667 C 0.63755 -0.00115 0.62606
 C668 C 0.65286 -0.00124 0.61100
 C669 C 0.67058 -0.00138 0.59316
 C670 C 0.68555 -0.00152 0.57773
 C671 C 0.70319 -0.00170 0.55908
 C672 C 0.71585 -0.02222 0.55383
 C673 C 0.73251 -0.02262 0.53524
 C674 C 0.73735 -0.00221 0.52187
 C675 C 0.72370 0.01809 0.52693
 C676 C 0.70709 0.01842 0.54552
 H677 H 0.61349 0.03634 0.64296
 H678 H 0.62026 -0.03856 0.64875
 H679 H 0.58835 -0.03871 0.67851
 H680 H 0.58126 0.03639 0.67234
 H681 H 0.71253 -0.03809 0.56381
 H682 H 0.74098 -0.03918 0.53102
 H683 H 0.72588 0.03376 0.51630
 H684 H 0.69703 0.03430 0.54908
 C685 C -0.16325 0.51512 0.88105
 C686 C -0.15338 0.49384 0.87316
 C687 C -0.16008 0.47296 0.88409
 C688 C -0.17636 0.47338 0.90305
 C689 C -0.18610 0.49474 0.91138
 C690 C -0.17951 0.51559 0.90001
 C691 C -0.13561 0.49357 0.85464
 C692 C -0.12028 0.49353 0.83962
 C693 C -0.10177 0.49367 0.82267
 C694 C -0.08546 0.49391 0.80882
 C695 C -0.06536 0.49433 0.79311
 C696 C -0.04663 0.47883 0.79716
 C697 C -0.02636 0.48022 0.78317
 C698 C -0.02399 0.49768 0.76530
 C699 C -0.04380 0.51205 0.76027
 C700 C -0.06409 0.51062 0.77435
 H701 H -0.15818 0.53139 0.87273
 H702 H -0.15243 0.45639 0.87823
 H703 H -0.18086 0.45707 0.91162
 H704 H -0.18694 0.53227 0.90578
 H705 H -0.04755 0.46586 0.81137
 H706 H -0.01209 0.46801 0.78675
 H707 H -0.04391 0.52435 0.74545
 H708 H -0.07876 0.52234 0.77066
 C709 C 0.37813 -0.01721 0.33324
 C710 C 0.37013 0.00412 0.34305
 C711 C 0.38147 0.02486 0.33720
 C712 C 0.40092 0.02427 0.32181
 C713 C 0.40932 0.00287 0.31213
 C714 C 0.39759 -0.01784 0.31787
 C715 C 0.35106 0.00457 0.36010
 C716 C 0.33560 0.00489 0.37498
 C717 C 0.31823 0.00521 0.39318
 C718 C 0.30413 0.00543 0.40944
 C719 C 0.28831 0.00565 0.42977
 C720 C 0.29187 0.02142 0.44900
 C721 C 0.27806 0.02038 0.46984
 C722 C 0.26087 0.00299 0.47233
 C723 C 0.25625 -0.01154 0.45187
 C724 C 0.27015 -0.01047 0.43099
 H725 H 0.36951 -0.03337 0.33770
 H726 H 0.37553 0.04144 0.34485
 H727 H 0.40974 0.04047 0.31799
 H728 H 0.40343 -0.03454 0.31044
 H729 H 0.30564 0.03426 0.44811
 H730 H 0.28137 0.03269 0.48457
 H731 H 0.24199 -0.02379 0.45174
 H732 H 0.26689 -0.02241 0.41591
 C733 C 0.17158 0.51076 0.87531
 C734 C 0.14843 0.50444 0.88000
 C735 C 0.14202 0.49807 0.90357
 C736 C 0.15861 0.49805 0.92242
 C737 C 0.18193 0.50442 0.91795
 C738 C 0.18824 0.51077 0.89417
 C739 C 0.13107 0.50464 0.86083
 C740 C 0.11598 0.50469 0.84533
 C741 C 0.09764 0.50459 0.82792
 C742 C 0.08137 0.50435 0.81377
 C743 C 0.06121 0.50385 0.79785
 C744 C 0.03900 0.50855 0.80743
 C745 C 0.01911 0.50716 0.79256
 C746 C 0.02088 0.50020 0.76779
 C747 C 0.04365 0.49714 0.75808
 C748 C 0.06356 0.49850 0.77305
 H749 H 0.17675 0.51569 0.85712
 H750 H 0.12412 0.49324 0.90743
 H751 H 0.15310 0.49344 0.94057
 H752 H 0.20610 0.51551 0.89010
 H753 H 0.03702 0.51335 0.82648
 H754 H 0.00246 0.51187 0.80065
 H755 H 0.04595 0.49322 0.73889
 H756 H 0.08074 0.49531 0.76530
 C757 C 0.61017 0.01859 0.34481
 C758 C 0.61686 -0.00231 0.35616
 C759 C 0.60521 -0.02303 0.35031
 C760 C 0.58692 -0.02288 0.33321
 C761 C 0.58001 -0.00195 0.32173
 C762 C 0.59187 0.01879 0.32772
 C763 C 0.63551 -0.00246 0.37398
 C764 C 0.65102 -0.00261 0.38902
 C765 C 0.66904 -0.00276 0.40679
 C766 C 0.68428 -0.00285 0.42212
 C767 C 0.70229 -0.00285 0.44064
 C768 C 0.70696 -0.02306 0.45404
 C769 C 0.72391 -0.02285 0.47255
 C770 C 0.73709 -0.00259 0.47767
 C771 C 0.73148 0.01789 0.46444
 C772 C 0.71452 0.01762 0.44593
 H773 H 0.61910 0.03473 0.34918
 H774 H 0.61018 -0.03929 0.35906
 H775 H 0.57793 -0.03906 0.32926
 H776 H 0.58717 0.03512 0.31899
 H777 H 0.69725 -0.03891 0.45045
 H778 H 0.72667 -0.03857 0.48309
 H779 H 0.73957 0.03443 0.46871
 H780 H 0.71060 0.03355 0.43608
 C781 C 0.83623 0.47708 0.11854
 C782 C 0.84723 0.49788 0.12545
 C783 C 0.84146 0.51873 0.11352
 C784 C 0.82494 0.51876 0.09459
 C785 C 0.81397 0.49789 0.08729
 C786 C 0.81970 0.47707 0.09959
 C787 C 0.86511 0.49772 0.14410
 C788 C 0.88050 0.49765 0.15927
 C789 C 0.89902 0.49761 0.17646
 C790 C 0.91529 0.49761 0.19059
 C791 C 0.93531 0.49762 0.20672
 C792 C 0.93642 0.51336 0.22636
 C793 C 0.95652 0.51420 0.24110
 C794 C 0.97628 0.49980 0.23593
 C795 C 0.97407 0.48295 0.21703
 C796 C 0.95401 0.48215 0.20237
 H797 H 0.84059 0.46084 0.12763
 H798 H 0.84999 0.53490 0.11862
 H799 H 0.82117 0.53501 0.08527
 H800 H 0.81136 0.46078 0.09460
 H801 H 0.92177 0.52504 0.23026
 H802 H 0.95626 0.52603 0.25658
 H803 H 0.98829 0.47072 0.21324
 H804 H 0.95319 0.46958 0.18747
 C805 C 0.37166 -0.00881 0.67233
 C806 C 0.37469 -0.00221 0.64807
 C807 C 0.39675 0.00479 0.64013
 C808 C 0.41576 0.00514 0.65631
 C809 C 0.41296 -0.00154 0.68072
 C810 C 0.39067 -0.00849 0.68858
 C811 C 0.35539 -0.00285 0.63106
 C812 C 0.33983 -0.00326 0.61610
 C813 C 0.32243 -0.00356 0.59771
 C814 C 0.30838 -0.00363 0.58120
 C815 C 0.29275 -0.00342 0.56051
 C816 C 0.30171 -0.00832 0.53737
 C817 C 0.28720 -0.00694 0.51685
 C818 C 0.26344 0.00024 0.51890
 C819 C 0.25433 0.00336 0.54265
 C820 C 0.26893 0.00201 0.56320
 H821 H 0.35464 -0.01424 0.67867
 H822 H 0.39932 0.00984 0.62135
 H823 H 0.43274 0.01022 0.64960
 H824 H 0.38791 -0.01348 0.70732
 H825 H 0.32000 -0.01320 0.53514
 H826 H 0.29481 -0.01175 0.49949
 H827 H 0.23590 0.00741 0.54521
 H828 H 0.26168 0.00536 0.58113
   
