data_POSCAR
  _audit_creation_date              2014-09-24
  _audit_creation_method            'ToBaCCo'
  _symmetry_space_group_name_H-M    'P1'
  _symmetry_Int_Tables_number       1
  _symmetry_cell_setting            triclinic
  loop_
  _symmetry_equiv_pos_as_xyz
 x,y,z
_cell_length_a 36.4531
_cell_length_b 37.0880
_cell_length_c 7.6356
_cell_angle_alpha 91.589100
_cell_angle_beta 88.550200
_cell_angle_gamma 90.094500
loop_
  _atom_site_label
  _atom_site_type_symbol
  _atom_site_fract_x
  _atom_site_fract_y
  _atom_site_fract_z
O1 O 0.21940 0.29041 0.17967
 O2 O 0.29120 0.22200 0.19361
 O3 O 0.22082 0.22068 0.13326
 O4 O 0.28791 0.29047 0.27317
 O5 O 0.27391 0.28307 0.55212
 O6 O 0.21140 0.21134 0.41403
 O7 O 0.28080 0.21424 0.47562
 O8 O 0.20507 0.28108 0.45674
 Cu9 Cu 0.25645 0.25700 0.16889
 Cu10 Cu 0.24116 0.24653 0.50107
 C11 C 0.19922 0.29697 0.31423
 C12 C 0.29879 0.20658 0.33424
 C13 C 0.20470 0.20352 0.25568
 C14 C 0.29265 0.29859 0.43388
 O15 O 0.72260 0.21809 0.39039
 O16 O 0.78808 0.28758 0.26027
 O17 O 0.71922 0.28755 0.35908
 O18 O 0.78980 0.21802 0.26489
 O19 O 0.77280 0.21309 -0.00985
 O20 O 0.70373 0.28289 0.08211
 O21 O 0.77286 0.28308 -0.01659
 O22 O 0.70556 0.21348 0.11579
 Cu23 Cu 0.75684 0.25337 0.34520
 Cu24 Cu 0.73674 0.24759 0.01637
 C25 C 0.70236 0.20404 0.27433
 C26 C 0.79255 0.29707 0.10303
 C27 C 0.69916 0.29694 0.23421
 C28 C 0.79365 0.20396 0.11174
 O29 O 0.72662 0.78543 0.55438
 O30 O 0.79275 0.71512 0.67204
 O31 O 0.72495 0.71555 0.57585
 O32 O 0.79597 0.78464 0.63699
 O33 O 0.78241 0.79041 0.91896
 O34 O 0.70943 0.72219 0.85574
 O35 O 0.77742 0.72085 0.95242
 O36 O 0.71335 0.79237 0.83654
 Cu37 Cu 0.76194 0.74956 0.58303
 Cu38 Cu 0.74371 0.75729 0.91775
 C39 C 0.70852 0.80104 0.67935
 C40 C 0.79648 0.70580 0.82949
 C41 C 0.70484 0.70705 0.70639
 C42 C 0.80203 0.79904 0.78627
 O43 O 0.28735 0.78856 0.74482
 O44 O 0.21923 0.72206 0.89354
 O45 O 0.28801 0.72003 0.79877
 O46 O 0.21789 0.79057 0.84000
 O47 O 0.20404 0.78085 0.56359
 O48 O 0.27465 0.70998 0.52162
 O49 O 0.20583 0.71201 0.61657
 O50 O 0.27372 0.77881 0.46804
 Cu51 Cu 0.25479 0.75664 0.84566
 Cu52 Cu 0.23789 0.74441 0.51561
 C53 C 0.29285 0.79473 0.58366
 C54 C 0.20070 0.70551 0.77765
 C55 C 0.29346 0.70293 0.65421
 C56 C 0.19829 0.79737 0.70977
 C57 C 1.03841 0.07912 -0.00209
 C58 C 1.00569 0.09840 0.02196
 C59 C 0.97203 0.08070 0.04237
 C60 C 0.97057 0.04262 0.03516
 C61 C 1.00356 0.02270 0.01295
 C62 C 1.03763 0.04098 -0.00547
 C63 C 1.07004 0.02069 -0.02565
 C64 C 1.06907 -0.01682 -0.02610
 C65 C 1.03562 -0.03544 -0.00689
 C66 C 1.00254 -0.01556 0.01197
 C67 C 0.93708 0.02397 0.05267
 C68 C 0.93599 -0.01357 0.04695
 C69 C 0.96841 -0.03387 0.02724
 C70 C 0.96764 -0.07201 0.01891
 C71 C 1.00055 -0.09124 0.00216
 C72 C 1.03432 -0.07350 -0.00947
 H73 H 1.09649 0.03367 -0.04186
 H74 H 1.09484 -0.03109 -0.04312
 H75 H 0.91132 0.03823 0.06998
 H76 H 0.90948 -0.02655 0.05977
 H77 H 1.00659 0.12764 0.03177
 H78 H 0.99983 -0.12050 -0.00545
 C79 C 0.46754 0.42607 0.53038
 C80 C 0.50114 0.40817 0.51044
 C81 C 0.53431 0.42581 0.54304
 C82 C 0.53422 0.46275 0.59388
 C83 C 0.50034 0.48131 0.61452
 C84 C 0.46683 0.46284 0.58446
 C85 C 0.43360 0.48175 0.60620
 C86 C 0.43323 0.51809 0.65649
 C87 C 0.46610 0.53714 0.68269
 C88 C 0.49999 0.51858 0.66232
 C89 C 0.56710 0.48181 0.62048
 C90 C 0.56674 0.51827 0.66855
 C91 C 0.53352 0.53725 0.68897
 C92 C 0.53284 0.57434 0.73706
 C93 C 0.49922 0.59211 0.75853
 C94 C 0.46604 0.57422 0.73064
 H95 H 0.40751 0.46864 0.58464
 H96 H 0.40680 0.53107 0.67445
 H97 H 0.59353 0.46879 0.60323
 H98 H 0.59282 0.53145 0.68956
 H99 H 0.50147 0.37996 0.46867
 H100 H 0.49890 0.62069 0.79313
 C101 C -0.03340 0.42382 0.06257
 C102 C 0.00023 0.40688 0.08841
 C103 C 0.03357 0.42503 0.06474
 C104 C 0.03338 0.46161 0.01588
 C105 C -0.00060 0.47926 -0.00918
 C106 C -0.03412 0.46032 0.01408
 C107 C -0.06743 0.47855 -0.00828
 C108 C -0.06786 0.51452 -0.05588
 C109 C -0.03502 0.53376 -0.08053
 C110 C -0.00107 0.51602 -0.05656
 C111 C 0.06617 0.48121 -0.00530
 C112 C 0.06572 0.51705 -0.05455
 C113 C 0.03243 0.53487 -0.08156
 C114 C 0.03174 0.57100 -0.13482
 C115 C -0.00178 0.58805 -0.15927
 C116 C -0.03509 0.57014 -0.13162
 H117 H -0.09357 0.46520 0.01113
 H118 H -0.09423 0.52710 -0.07351
 H119 H 0.09257 0.46909 0.01652
 H120 H 0.09179 0.53075 -0.07051
 H121 H 0.00045 0.37885 0.12567
 H122 H -0.00192 0.61574 -0.20163
 C123 C 0.53185 1.07184 0.39021
 C124 C 0.49826 1.08967 0.41124
 C125 C 0.46570 1.07084 0.44544
 C126 C 0.46662 1.03281 0.45658
 C127 C 0.50066 1.01437 0.43547
 C128 C 0.53346 1.03400 0.40412
 C129 C 0.56689 1.01526 0.38454
 C130 C 0.56811 0.97787 0.39543
 C131 C 0.53591 0.95779 0.42420
 C132 C 0.50183 0.97617 0.44281
 C133 C 0.43440 1.01268 0.48375
 C134 C 0.43557 0.97523 0.49153
 C135 C 0.46897 0.95647 0.47068
 C136 C 0.47041 0.91848 0.47859
 C137 C 0.50411 0.90065 0.45948
 C138 C 0.53685 0.91976 0.43449
 H139 H 0.59247 1.02939 0.36079
 H140 H 0.59454 0.96478 0.37905
 H141 H 0.40790 1.02566 0.49824
 H142 H 0.40993 0.96111 0.51351
 H143 H 0.49736 1.11871 0.39786
 H144 H 0.50502 0.87158 0.47129
 C145 C 1.16582 0.15528 0.36283
 C146 C 1.17874 0.17622 0.22228
 C147 C 1.16364 0.17028 0.05565
 C148 C 1.13441 0.14568 0.03416
 C149 C 1.12157 0.12566 0.17870
 C150 C 1.13799 0.13009 0.34081
 C151 C 1.09146 0.10253 0.16145
 C152 C 1.07305 0.09982 0.00325
 C153 C 1.08580 0.11931 -0.14119
 C154 C 1.11665 0.14174 -0.12657
 H155 H 1.17312 0.18605 -0.05397
 H156 H 1.12856 0.11480 0.45216
 H157 H 1.08127 0.08776 0.27352
 H158 H 1.12586 0.15683 -0.23903
 H159 H 1.17706 0.15845 0.49215
 H160 H 1.07158 0.11757 -0.26420
 C161 C 0.66897 0.66380 0.51856
 C162 C 0.67567 0.67954 0.68453
 C163 C 0.65389 0.66921 0.82938
 C164 C 0.62536 0.64417 0.80845
 C165 C 0.61853 0.62891 0.64052
 C166 C 0.64072 0.63867 0.49683
 C167 C 0.58910 0.60486 0.61876
 C168 C 0.56642 0.59609 0.76275
 C169 C 0.57365 0.61100 0.92913
 C170 C 0.60302 0.63471 0.95216
 H171 H 0.65876 0.68101 0.95822
 H172 H 0.63599 0.62716 0.36737
 H173 H 0.58308 0.59379 0.48971
 H174 H 0.60778 0.64624 1.08151
 H175 H 0.68537 0.67117 0.40479
 H176 H 0.55605 0.60474 1.04068
 C177 C -0.17230 0.33352 -0.10729
 C178 C -0.17981 0.32237 0.06475
 C179 C -0.15782 0.33597 0.20102
 C180 C -0.12821 0.35885 0.16634
 C181 C -0.12039 0.36934 -0.00699
 C182 C -0.14293 0.35691 -0.14247
 C183 C -0.08978 0.39143 -0.04123
 C184 C -0.06714 0.40274 0.09642
 C185 C -0.07543 0.39236 0.26785
 C186 C -0.10578 0.37068 0.30276
 H187 H -0.16301 0.32809 0.33521
 H188 H -0.13753 0.36486 -0.27585
 H189 H -0.08312 0.39924 -0.17415
 H190 H -0.11130 0.36260 0.43593
 H191 H -0.18872 0.32384 -0.21517
 H192 H -0.05806 0.40082 0.37451
 C193 C 0.32963 0.82827 0.35690
 C194 C 0.32275 0.81976 0.53300
 C195 C 0.34599 0.83393 0.66224
 C196 C 0.37619 0.85537 0.61654
 C197 C 0.38323 0.86340 0.43883
 C198 C 0.35954 0.85003 0.31029
 C199 C 0.41405 0.88428 0.39332
 C200 C 0.43771 0.89688 0.52377
 C201 C 0.43041 0.88896 0.69953
 C202 C 0.39983 0.86840 0.74584
 H203 H 0.34117 0.82762 0.79874
 H204 H 0.36438 0.85601 0.17365
 H205 H 0.41986 0.89052 0.25751
 H206 H 0.39484 0.86247 0.88242
 H207 H 0.31214 0.81780 0.25492
 H208 H 0.44851 0.89873 0.80079
 C209 C -0.16987 0.66753 0.04033
 C210 C -0.17616 0.67767 -0.13247
 C211 C -0.15509 0.66159 -0.27035
 C212 C -0.12736 0.63678 -0.23636
 C213 C -0.12062 0.62739 -0.06190
 C214 C -0.14240 0.64256 0.07519
 C215 C -0.09149 0.60394 -0.02789
 C216 C -0.06901 0.59028 -0.16649
 C217 C -0.07647 0.59916 -0.33920
 C218 C -0.10555 0.62204 -0.37407
 H219 H -0.15963 0.66898 -0.40451
 H220 H -0.13780 0.63560 0.20951
 H221 H -0.08541 0.59738 0.10578
 H222 H -0.11029 0.62902 -0.50827
 H223 H -0.18581 0.67930 0.14898
 H224 H -0.05909 0.58903 -0.44670
 C225 C 0.34850 1.17281 0.17051
 C226 C 0.32921 1.17999 0.32979
 C227 C 0.33985 1.16224 0.48125
 C228 C 0.36974 1.13813 0.47336
 C229 C 0.38902 1.13177 0.31232
 C230 C 0.37805 1.14904 0.16200
 C231 C 0.41947 1.10878 0.30426
 C232 C 0.43121 1.09196 0.45492
 C233 C 0.41182 1.09780 0.61448
 C234 C 0.38117 1.12065 0.62354
 H235 H 0.32530 1.16749 0.60490
 H236 H 0.39264 1.14447 0.03797
 H237 H 0.43462 1.10442 0.18139
 H238 H 0.36678 1.12507 0.74810
 H239 H 0.34103 1.18592 0.05150
 H240 H 0.42087 1.08527 0.73239
 C241 C 1.14728 -0.16984 -0.41332
 C242 C 1.16948 -0.17765 -0.27072
 C243 C 1.16109 -0.16131 -0.10553
 C244 C 1.13040 -0.13883 -0.08172
 C245 C 1.10796 -0.13197 -0.22532
 C246 C 1.11691 -0.14716 -0.39076
 C247 C 1.07665 -0.11040 -0.20050
 C248 C 1.06762 -0.09567 -0.03417
 C249 C 1.09006 -0.10221 0.10782
 C250 C 1.12134 -0.12366 0.08422
 H251 H 1.17776 -0.16678 0.00640
 H252 H 1.10006 -0.14198 -0.50221
 H253 H 1.05915 -0.10516 -0.30975
 H254 H 1.13822 -0.12864 0.19578
 H255 H 1.15296 -0.18167 -0.54240
 H256 H 1.08320 -0.09087 0.23680
 C257 C 0.64799 0.33374 0.12295
 C258 C 0.66944 0.32365 0.26426
 C259 C 0.66098 0.33784 0.43316
 C260 C 0.63078 0.36097 0.46100
 C261 C 0.60904 0.37016 0.31794
 C262 C 0.61811 0.35676 0.14956
 C263 C 0.57811 0.39204 0.34592
 C264 C 0.56848 0.40486 0.51499
 C265 C 0.59027 0.39613 0.65662
 C266 C 0.62136 0.37444 0.62971
 H267 H 0.67725 0.33025 0.54316
 H268 H 0.60169 0.36359 0.03894
 H269 H 0.56112 0.39874 0.23688
 H270 H 0.63772 0.36780 0.74066
 H271 H 0.65389 0.32329 -0.00861
 H272 H 0.58291 0.40580 0.78793
 C273 C 0.85237 -0.16707 -0.34675
 C274 C 0.83100 -0.17602 -0.19744
 C275 C 0.84012 -0.16037 -0.03341
 C276 C 0.87053 -0.13711 -0.01895
 C277 C 0.89191 -0.12918 -0.17020
 C278 C 0.88241 -0.14399 -0.33311
 C279 C 0.92293 -0.10708 -0.15608
 C280 C 0.93312 -0.09282 0.00727
 C281 C 0.91171 -0.10022 0.15731
 C282 C 0.88047 -0.12212 0.14424
 H283 H 0.82416 -0.16678 0.08341
 H284 H 0.89856 -0.13814 -0.45004
 H285 H 0.93964 -0.10141 -0.27172
 H286 H 0.86439 -0.12772 0.26171
 H287 H 0.84627 -0.17826 -0.47533
 H288 H 0.91953 -0.08948 0.28434
 C289 C 0.32670 0.33569 0.65769
 C290 C 0.32118 0.32538 0.48163
 C291 C 0.34454 0.33939 0.35061
 C292 C 0.37373 0.36227 0.39465
 C293 C 0.37953 0.37191 0.57235
 C294 C 0.35554 0.35886 0.70260
 C295 C 0.40968 0.39370 0.61648
 C296 C 0.43405 0.40565 0.48492
 C297 C 0.42787 0.39622 0.30899
 C298 C 0.39783 0.37486 0.26392
 H299 H 0.34071 0.33171 0.21422
 H300 H 0.35944 0.36603 0.83938
 H301 H 0.41473 0.40073 0.75256
 H302 H 0.39387 0.36762 0.12725
 H303 H 0.30909 0.32540 0.76122
 H304 H 0.44665 0.40513 0.20670
 C305 C 0.16156 0.67454 0.00393
 C306 C 0.17227 0.67893 -0.17233
 C307 C 0.15444 0.65873 -0.30366
 C308 C 0.12558 0.63540 -0.26078
 C309 C 0.11435 0.63182 -0.08347
 C310 C 0.13284 0.65115 0.04802
 C311 C 0.08428 0.60969 -0.04171
 C312 C 0.06540 0.59150 -0.17549
 C313 C 0.07708 0.59468 -0.35056
 C314 C 0.10713 0.61633 -0.39303
 H315 H 0.16248 0.66167 -0.44023
 H316 H 0.12466 0.64872 0.18449
 H317 H 0.07493 0.60729 0.09342
 H318 H 0.11550 0.61868 -0.52932
 H319 H 0.17484 0.68975 0.10746
 H320 H 0.06250 0.58080 -0.45439
 C321 C 0.66899 1.16745 0.49960
 C322 C 0.67417 1.17717 0.32387
 C323 C 0.65113 1.16217 0.19612
 C324 C 0.62272 1.13861 0.24339
 C325 C 0.61729 1.12951 0.42092
 C326 C 0.64084 1.14377 0.54767
 C327 C 0.58799 1.10688 0.46849
 C328 C 0.56419 1.09354 0.34054
 C329 C 0.56997 1.10232 0.16476
 C330 C 0.59913 1.12461 0.11622
 H331 H 0.65477 1.16939 0.06013
 H332 H 0.63720 1.13702 0.68415
 H333 H 0.58321 1.10017 0.60453
 H334 H 0.60287 1.13134 -0.02020
 H335 H 0.68636 1.17857 0.60066
 H336 H 0.55156 1.09221 0.06560
 C337 C 0.14471 0.33024 0.44696
 C338 C 0.16818 0.32256 0.30177
 C339 C 0.16091 0.33836 0.14063
 C340 C 0.13036 0.36083 0.12350
 C341 C 0.10668 0.36800 0.26971
 C342 C 0.11427 0.35280 0.43114
 C343 C 0.07553 0.38971 0.25081
 C344 C 0.06786 0.40432 0.08775
 C345 C 0.09161 0.39710 -0.05639
 C346 C 0.12271 0.37568 -0.03859
 H347 H 0.17864 0.33269 0.02708
 H348 H 0.09640 0.35794 0.54457
 H349 H 0.05698 0.39496 0.36181
 H350 H 0.14048 0.37031 -0.15222
 H351 H 0.14959 0.31844 0.57240
 H352 H 0.08574 0.40770 -0.18343
 C353 C 0.67000 0.85305 0.78429
 C354 C 0.68089 0.82915 0.64635
 C355 C 0.66317 0.83071 0.48503
 C356 C 0.63361 0.85461 0.46549
 C357 C 0.62251 0.87781 0.60740
 C358 C 0.64132 0.87728 0.76471
 C359 C 0.59188 0.90022 0.59235
 C360 C 0.57163 0.89930 0.43880
 C361 C 0.58291 0.87671 0.29713
 C362 C 0.61396 0.85478 0.30954
 H363 H 0.67113 0.81223 0.37830
 H364 H 0.63315 0.89486 0.87455
 H365 H 0.58283 0.91741 0.70231
 H366 H 0.62197 0.83726 0.19931
 H367 H 0.68330 0.85256 0.90944
 H368 H 0.56732 0.87569 0.17819
 C369 C 0.82829 0.16203 -0.09496
 C370 C 0.82340 0.17766 0.07400
 C371 C 0.84833 0.16944 0.20460
 C372 C 0.87831 0.14676 0.16590
 C373 C 0.88331 0.13167 -0.00529
 C374 C 0.85796 0.13919 -0.13421
 C375 C 0.91386 0.10973 -0.04500
 C376 C 0.93935 0.10291 0.08422
 C377 C 0.93418 0.11773 0.25384
 C378 C 0.90377 0.13945 0.29479
 H379 H 0.84496 0.18132 0.33541
 H380 H 0.86134 0.12780 -0.26590
 H381 H 0.91809 0.09822 -0.17604
 H382 H 0.90037 0.15080 0.42652
 H383 H 0.80946 0.16789 -0.19789
 H384 H 0.95380 0.11250 0.35426
 C385 C 0.33153 0.65780 0.47973
 C386 C 0.32250 0.67518 0.64100
 C387 C 0.34238 0.66687 0.78999
 C388 C 0.37161 0.64246 0.77750
 C389 C 0.38102 0.62570 0.61396
 C390 C 0.36051 0.63316 0.46642
 C391 C 0.41129 0.60243 0.60032
 C392 C 0.43209 0.59580 0.74820
 C393 C 0.42228 0.61214 0.91039
 C394 C 0.39215 0.63524 0.92522
 H395 H 0.33567 0.67996 0.91541
 H396 H 0.36718 0.62032 0.34053
 H397 H 0.41930 0.59015 0.47462
 H398 H 0.38537 0.64805 1.05106
 H399 H 0.31657 0.66366 0.36321
 H400 H 0.43837 0.60740 1.02479
   
