data_POSCAR
  _audit_creation_date              2014-09-24
  _audit_creation_method            'ToBaCCo'
  _symmetry_space_group_name_H-M    'P1'
  _symmetry_Int_Tables_number       1
  _symmetry_cell_setting            triclinic
  loop_
  _symmetry_equiv_pos_as_xyz
 x,y,z
_cell_length_a 18.0437
_cell_length_b 18.3952
_cell_length_c 17.0470
_cell_angle_alpha 91.375200
_cell_angle_beta 90.196300
_cell_angle_gamma 91.012300
loop_
  _atom_site_label
  _atom_site_type_symbol
  _atom_site_fract_x
  _atom_site_fract_y
  _atom_site_fract_z
O1 O 0.52706 0.14979 0.00804
 O2 O 0.42092 -0.04796 -0.12939
 O3 O 0.64388 -0.00587 -0.08091
 O4 O 0.31338 0.04938 0.05412
 O5 O 0.55708 -0.07913 -0.13215
 O6 O 0.39966 0.12997 0.04678
 O7 O 0.39467 0.05384 -0.06796
 O8 O 0.63441 0.09819 0.01519
 C9 C 0.59516 0.15088 -0.00485
 C10 C 0.39383 0.01588 -0.12967
 C11 C 0.61770 -0.04447 -0.13708
 C12 C 0.33442 0.11513 0.06825
 O13 O 0.44494 0.05031 0.17023
 O14 O 0.54358 -0.16305 -0.01048
 O15 O 0.62166 -0.00213 0.13152
 O16 O 0.33269 -0.05915 -0.01959
 O17 O 0.41014 -0.14045 -0.00151
 O18 O 0.57236 0.10105 0.14173
 O19 O 0.39308 -0.04293 0.11215
 O20 O 0.63804 -0.09689 0.03192
 Co21 Co 0.48756 0.09550 0.08473
 Co22 Co 0.48371 -0.09828 -0.06129
 Co23 Co 0.62294 -0.00101 0.02443
 Co24 Co 0.39695 0.00616 0.02341
 O25 O 0.50456 -0.00503 0.01526
 C26 C 0.40661 -0.00771 0.17369
 C27 C 0.60737 -0.15725 0.01966
 C28 C 0.61058 0.05370 0.17085
 C29 C 0.34404 -0.12429 -0.01200
 O30 O -0.13807 0.39600 -0.05672
 O31 O 0.06320 0.55087 0.13597
 O32 O -0.05576 0.37539 0.05978
 O33 O -0.11781 0.62679 -0.00982
 O34 O 0.04263 0.41715 0.12057
 O35 O -0.16822 0.52063 -0.02550
 O36 O -0.03487 0.61320 0.10817
 O37 O -0.05600 0.31109 -0.07177
 C38 C -0.12408 0.33053 -0.07744
 C39 C 0.01352 0.59538 0.15620
 C40 C -0.01706 0.37977 0.12123
 C41 C -0.17483 0.58673 -0.01312
 O42 O -0.08736 0.57047 -0.14866
 O43 O 0.12800 0.42688 -0.01666
 O44 O 0.04160 0.39577 -0.12672
 O45 O 0.08173 0.64139 0.02222
 O46 O 0.14171 0.54477 -0.00089
 O47 O -0.05324 0.44381 -0.17775
 O48 O -0.00023 0.64118 -0.09660
 O49 O 0.06625 0.33395 0.00284
 Co50 Co -0.10225 0.48407 -0.09453
 Co51 Co 0.08544 0.48540 0.05469
 Co52 Co -0.00878 0.39048 -0.03378
 Co53 Co -0.01691 0.61793 0.00407
 O54 O -0.00826 0.49955 -0.01542
 C55 C -0.04267 0.62467 -0.15268
 C56 C 0.12838 0.36159 -0.00518
 C57 C 0.00610 0.41096 -0.18657
 C58 C 0.14139 0.61087 0.00607
 O59 O -0.01564 -0.14064 0.43854
 O60 O 0.16524 -0.01534 0.53714
 O61 O 0.06531 0.02507 0.32408
 O62 O 0.02342 -0.03702 0.67057
 O63 O 0.13484 -0.02296 0.40630
 O64 O 0.00292 -0.12928 0.59006
 O65 O 0.12832 0.04331 0.63719
 O66 O -0.03630 -0.06110 0.34780
 C67 C -0.02263 -0.12526 0.36766
 C68 C 0.17360 0.00052 0.60674
 C69 C 0.11975 -0.01340 0.33759
 C70 C 0.01876 -0.10478 0.65693
 O71 O -0.11217 -0.04259 0.59967
 O72 O 0.10661 0.12482 0.40372
 O73 O -0.11802 0.04657 0.40869
 O74 O 0.02981 0.14383 0.58817
 O75 O 0.13851 0.13218 0.54214
 O76 O -0.13292 -0.06044 0.45502
 O77 O -0.07086 0.06540 0.63773
 O78 O -0.01179 0.13089 0.39897
 Co79 Co -0.05583 -0.08257 0.51874
 Co80 Co 0.12661 0.05183 0.47414
 Co81 Co -0.02097 0.03373 0.38156
 Co82 Co 0.02735 0.05102 0.62093
 O83 O 0.01770 0.01416 0.49968
 C84 C -0.11968 0.01670 0.63812
 C85 C 0.04955 0.16005 0.38727
 C86 C -0.15903 -0.00644 0.42267
 C87 C 0.09181 0.17118 0.57680
 C88 C -0.36853 0.21710 -0.03440
 C89 C -0.29871 0.21501 -0.05991
 C90 C -0.25232 0.28095 -0.06909
 C91 C -0.18086 0.27288 -0.08647
 H92 H -0.27242 0.16264 -0.06698
 H93 H -0.27379 0.33402 -0.05356
 H94 H -0.39675 0.26847 -0.02885
 H95 H -0.16072 0.21886 -0.10039
 C96 C 0.28487 0.83182 -0.00838
 C97 C 0.28443 0.75738 -0.00056
 C98 C 0.21553 0.72231 0.00450
 C99 C 0.20893 0.64764 -0.00009
 H100 H 0.33561 0.72734 -0.00115
 H101 H 0.16550 0.75401 0.00955
 H102 H 0.23135 0.85779 -0.01317
 H103 H 0.25846 0.61596 -0.00946
 C104 C 0.27839 0.16842 0.08534
 C105 C 0.27513 0.22885 0.04533
 C106 C 0.20572 0.26808 0.04441
 C107 C 0.19714 0.32226 -0.00401
 H108 H 0.31992 0.24415 0.00636
 H109 H 0.16027 0.25137 0.08191
 H110 H 0.23132 0.15096 0.12003
 H111 H 0.24315 0.34167 -0.03902
 C112 C -0.34998 0.78060 0.04729
 C113 C -0.33409 0.72210 0.00301
 C114 C -0.26386 0.68372 0.01808
 C115 C -0.25002 0.61787 -0.01254
 H116 H -0.36571 0.70929 -0.04984
 H117 H -0.22042 0.71238 0.05110
 H118 H -0.31514 0.79227 0.09825
 H119 H -0.29418 0.58737 -0.04230
 C120 C 0.01679 -0.36621 0.23378
 C121 C -0.01481 -0.30090 0.24245
 C122 C -0.00607 -0.25189 0.31223
 C123 C -0.02265 -0.18157 0.30455
 H124 H -0.04551 -0.27983 0.19337
 H125 H 0.01314 -0.27230 0.36765
 H126 H 0.05128 -0.38692 0.28001
 H127 H -0.03902 -0.16320 0.24710
 C128 C 0.02515 0.38462 0.73351
 C129 C 0.07465 0.33301 0.71759
 C130 C 0.06303 0.28495 0.64734
 C131 C 0.11405 0.23850 0.62083
 H132 H 0.11482 0.31813 0.76153
 H133 H 0.00731 0.28062 0.62331
 H134 H -0.01383 0.39812 0.68771
 H135 H 0.17073 0.24371 0.64167
 C136 C -0.03583 0.33344 0.18913
 C137 C 0.01503 0.31493 0.24302
 C138 C 0.00124 0.25546 0.29945
 C139 C 0.05641 0.22898 0.34351
 H140 H 0.07007 0.33941 0.24109
 H141 H -0.05294 0.22908 0.29992
 H142 H -0.08980 0.30665 0.18912
 H143 H 0.11112 0.25395 0.34019
 C144 C -0.04140 -0.33426 0.78299
 C145 C 0.00027 -0.26882 0.77993
 C146 C -0.00051 -0.22466 0.71438
 C147 C 0.02732 -0.15278 0.71859
 H148 H 0.03085 -0.24940 0.83142
 H149 H -0.02822 -0.24464 0.66138
 H150 H -0.07628 -0.35035 0.73338
 H151 H 0.04784 -0.13103 0.77440
 C152 C 0.35440 0.04038 0.81075
 C153 C 0.32868 -0.00348 0.74873
 C154 C 0.26452 0.01686 0.71014
 C155 C 0.23701 -0.02156 0.64519
 H156 H 0.35370 -0.05545 0.73518
 H157 H 0.23569 0.06501 0.73062
 H158 H 0.33075 0.09407 0.81821
 H159 H 0.26995 -0.06428 0.61863
 C160 C -0.34810 0.07056 0.24310
 C161 C -0.31889 0.01911 0.28620
 C162 C -0.26136 0.03822 0.34439
 C163 C -0.23379 -0.01288 0.38931
 H164 H -0.33178 -0.03771 0.27297
 H165 H -0.23461 0.09143 0.34255
 H166 H -0.33740 0.12737 0.25831
 H167 H -0.26147 -0.06563 0.39130
 C168 C 0.36601 -0.02684 0.24463
 C169 C 0.29846 -0.05767 0.23550
 C170 C 0.24236 -0.05049 0.29626
 C171 C 0.17200 -0.03631 0.27681
 H172 H 0.27955 -0.07660 0.17792
 H173 H 0.26050 -0.04765 0.35697
 H174 H 0.38242 -0.00189 0.30041
 H175 H 0.15549 -0.03363 0.21575
 C176 C -0.34152 -0.05017 0.78849
 C177 C -0.28492 -0.00559 0.77259
 C178 C -0.23547 -0.01928 0.70550
 C179 C -0.18323 0.03011 0.68958
 H180 H -0.27211 0.03987 0.81238
 H181 H -0.23775 -0.07119 0.67403
 H182 H -0.35610 -0.09427 0.74767
 H183 H -0.18275 0.08163 0.72202
   
