data_POSCAR
  _audit_creation_date              2014-09-24
  _audit_creation_method            'ToBaCCo'
  _symmetry_space_group_name_H-M    'P1'
  _symmetry_Int_Tables_number       1
  _symmetry_cell_setting            triclinic
  loop_
  _symmetry_equiv_pos_as_xyz
 x,y,z
_cell_length_a 38.5200
_cell_length_b 37.9653
_cell_length_c 24.9977
_cell_angle_alpha 89.045400
_cell_angle_beta 90.394300
_cell_angle_gamma 65.541200
loop_
  _atom_site_label
  _atom_site_type_symbol
  _atom_site_fract_x
  _atom_site_fract_y
  _atom_site_fract_z
C1 C -0.00667 0.25204 0.00796
 C2 C -0.00826 0.24215 0.06007
 C3 C -0.03769 0.22936 0.07836
 C4 C 0.01937 0.24225 0.10183
 C5 C 0.02139 0.26660 -0.01167
 C6 C -0.03236 0.24686 -0.03233
 C7 C -0.02697 0.19092 0.09521
 C8 C -0.05318 0.17974 0.12030
 C9 C -0.09066 0.20721 0.13019
 C10 C -0.10155 0.24545 0.11049
 C11 C -0.07531 0.25635 0.08492
 C12 C 0.00585 0.25875 0.15159
 C13 C 0.03124 0.25650 0.19293
 C14 C 0.07071 0.23799 0.18516
 C15 C 0.08434 0.22194 0.13527
 C16 C 0.05891 0.22346 0.09423
 C17 C 0.04463 0.24876 -0.05497
 C18 C 0.07225 0.26092 -0.07249
 C19 C 0.07732 0.29124 -0.04720
 C20 C 0.05328 0.30996 -0.00478
 C21 C 0.02540 0.29787 0.01259
 C22 C -0.02252 0.21076 -0.05574
 C23 C -0.04620 0.20605 -0.09489
 C24 C -0.08055 0.23716 -0.11003
 C25 C -0.09086 0.27297 -0.08536
 C26 C -0.06661 0.27796 -0.04728
 H27 H 0.00213 0.16982 0.09039
 H28 H -0.04311 0.14988 0.13353
 H29 H -0.13005 0.26754 0.11638
 H30 H -0.08383 0.28628 0.07250
 H31 H -0.02449 0.27323 0.15859
 H32 H 0.01993 0.26960 0.23072
 H33 H 0.07012 0.20941 0.05692
 H34 H 0.04216 0.22468 -0.07454
 H35 H 0.09018 0.24598 -0.10536
 H36 H 0.05593 0.33378 0.01521
 H37 H 0.00722 0.31262 0.04535
 H38 H 0.00370 0.18641 -0.04407
 H39 H -0.03792 0.17801 -0.11281
 H40 H -0.11725 0.29730 -0.09644
 H41 H -0.07457 0.30593 -0.02926
 H42 H 0.11471 0.20733 0.12848
 C43 C 0.49150 0.77189 0.44797
 C44 C 0.49069 0.77658 0.50186
 C45 C 0.46701 0.76462 0.53805
 C46 C 0.51659 0.79100 0.52842
 C47 C 0.51815 0.78196 0.41476
 C48 C 0.47110 0.75116 0.42152
 C49 C 0.42709 0.78139 0.53366
 C50 C 0.40521 0.77339 0.57264
 C51 C 0.42291 0.74852 0.61655
 C52 C 0.46296 0.73084 0.61957
 C53 C 0.48466 0.73889 0.58087
 C54 C 0.50262 0.82907 0.54667
 C55 C 0.52720 0.84244 0.57210
 C56 C 0.56565 0.81738 0.58108
 C57 C 0.57937 0.77919 0.56330
 C58 C 0.55514 0.76625 0.53648
 C59 C 0.54872 0.75258 0.38963
 C60 C 0.57818 0.76030 0.36744
 C61 C 0.57768 0.79739 0.37057
 C62 C 0.54569 0.82737 0.39231
 C63 C 0.51600 0.81978 0.41368
 C64 C 0.48093 0.71199 0.43391
 C65 C 0.46550 0.69097 0.40411
 C66 C 0.43969 0.70882 0.36164
 C67 C 0.42852 0.74847 0.35090
 C68 C 0.44455 0.76935 0.38014
 H69 H 0.41291 0.80163 0.50120
 H70 H 0.37441 0.78731 0.56899
 H71 H 0.47789 0.71127 0.65217
 H72 H 0.51544 0.72544 0.58495
 H73 H 0.47284 0.84839 0.54079
 H74 H 0.51601 0.87190 0.58592
 H75 H 0.56622 0.73677 0.52265
 H76 H 0.55091 0.72320 0.38992
 H77 H 0.60235 0.73677 0.35052
 H78 H 0.54397 0.85651 0.39402
 H79 H 0.49226 0.84301 0.43190
 H80 H 0.50173 0.69734 0.46527
 H81 H 0.47434 0.66053 0.41365
 H82 H 0.40882 0.76282 0.31824
 H83 H 0.43690 0.79949 0.36980
 H84 H 0.60898 0.75947 0.56974
 C85 C 1.00835 0.73261 -0.05287
 C86 C 1.02088 0.72268 -0.00107
 C87 C 1.06201 0.70815 0.01359
 C88 C 0.99422 0.71914 0.03937
 C89 C 0.97325 0.72862 -0.07060
 C90 C 1.03067 0.74234 -0.09531
 C91 C 1.08898 0.67845 -0.01596
 C92 C 1.12789 0.66695 -0.00651
 C93 C 1.14095 0.68481 0.03294
 C94 C 1.11388 0.71306 0.06468
 C95 C 1.07465 0.72451 0.05525
 C96 C 0.99816 0.68237 0.05694
 C97 C 0.96740 0.67772 0.08047
 C98 C 0.93267 0.70992 0.08833
 C99 C 0.93019 0.74706 0.07586
 C100 C 0.96059 0.75161 0.05100
 C101 C 0.94161 0.76031 -0.09160
 C102 C 0.90965 0.75526 -0.11029
 C103 C 0.90892 0.71854 -0.10781
 C104 C 0.94086 0.68689 -0.08719
 C105 C 0.97283 0.69184 -0.06941
 C106 C 1.05556 0.75983 -0.08304
 C107 C 1.07721 0.76705 -0.12294
 C108 C 1.07221 0.76011 -0.17691
 C109 C 1.04561 0.74495 -0.18976
 C110 C 1.02596 0.73530 -0.14951
 H111 H 1.07982 0.66473 -0.04737
 H112 H 1.14752 0.64421 -0.03074
 H113 H 1.12300 0.72700 0.09578
 H114 H 1.05423 0.74718 0.07893
 H115 H 1.02369 0.65695 0.04798
 H116 H 0.97021 0.64879 0.09046
 H117 H 0.95692 0.78019 0.03739
 H118 H 0.94179 0.78875 -0.09368
 H119 H 0.88541 0.78006 -0.12631
 H120 H 0.94163 0.65808 -0.08591
 H121 H 0.99758 0.66681 -0.05510
 H122 H 1.05845 0.76807 -0.04265
 H123 H 1.09692 0.77943 -0.11163
 H124 H 1.04119 0.73855 -0.23061
 H125 H 1.00716 0.72198 -0.16126
 H126 H 0.90378 0.77229 0.08162
 C127 C 0.48692 0.26944 0.49847
 C128 C 0.48340 0.26643 0.55228
 C129 C 0.50720 0.27739 0.58934
 C130 C 0.45574 0.25302 0.57647
 C131 C 0.46357 0.25979 0.45857
 C132 C 0.51449 0.28351 0.47625
 C133 C 0.54232 0.24932 0.60793
 C134 C 0.56591 0.25979 0.64063
 C135 C 0.55417 0.29827 0.65645
 C136 C 0.51873 0.32630 0.63826
 C137 C 0.49564 0.31599 0.60429
 C138 C 0.45472 0.21787 0.56188
 C139 C 0.42638 0.20732 0.58163
 C140 C 0.39897 0.23145 0.61713
 C141 C 0.40132 0.26555 0.63372
 C142 C 0.42934 0.27625 0.61356
 C143 C 0.42358 0.27554 0.46106
 C144 C 0.40235 0.26642 0.42245
 C145 C 0.42061 0.24261 0.37966
 C146 C 0.46049 0.22745 0.37663
 C147 C 0.48174 0.23582 0.41584
 C148 C 0.50116 0.32029 0.45181
 C149 C 0.52652 0.33266 0.42657
 C150 C 0.56565 0.30813 0.42494
 C151 C 0.57891 0.27153 0.45047
 C152 C 0.55353 0.25932 0.47594
 H153 H 0.55168 0.21945 0.59634
 H154 H 0.59309 0.23772 0.65426
 H155 H 0.50927 0.35625 0.64940
 H156 H 0.46881 0.33805 0.58954
 H157 H 0.47538 0.19901 0.53430
 H158 H 0.42595 0.18042 0.56887
 H159 H 0.42956 0.30337 0.62574
 H160 H 0.40878 0.29505 0.49263
 H161 H 0.37156 0.27873 0.42531
 H162 H 0.47533 0.20871 0.34438
 H163 H 0.51251 0.22346 0.41285
 H164 H 0.47098 0.33911 0.45144
 H165 H 0.51512 0.36084 0.40696
 H166 H 0.60884 0.25198 0.44976
 H167 H 0.56412 0.23059 0.49400
 H168 H 0.38077 0.28462 0.66122
 C169 C 0.70400 0.02873 -0.01069
 C170 C 0.68612 0.03957 0.03728
 C171 C 0.67214 0.01380 0.06673
 C172 C 0.68300 0.07503 0.06416
 C173 C 0.71717 0.05392 -0.04365
 C174 C 0.71036 -0.00953 -0.03323
 C175 C 0.64500 0.00314 0.04273
 C176 C 0.64258 -0.03127 0.05838
 C177 C 0.66731 -0.05555 0.09853
 C178 C 0.69030 -0.04158 0.12759
 C179 C 0.69254 -0.00704 0.11196
 C180 C 0.64705 0.10544 0.07102
 C181 C 0.64408 0.14020 0.09283
 C182 C 0.67697 0.14438 0.10980
 C183 C 0.71276 0.11322 0.10525
 C184 C 0.71582 0.07889 0.08194
 C185 C 0.75194 0.03700 -0.07051
 C186 C 0.76332 0.05877 -0.10603
 C187 C 0.74063 0.09854 -0.11478
 C188 C 0.70650 0.11585 -0.08631
 C189 C 0.69438 0.09359 -0.05240
 C190 C 0.72952 -0.04383 -0.00315
 C191 C 0.72809 -0.07824 -0.01899
 C192 C 0.71035 -0.07976 -0.06776
 C193 C 0.69560 -0.04645 -0.10112
 C194 C 0.69478 -0.01138 -0.08340
 H195 H 0.62860 0.01929 0.00821
 H196 H 0.62328 -0.03976 0.03608
 H197 H 0.70889 -0.05872 0.15980
 H198 H 0.71339 0.00096 0.13132
 H199 H 0.62148 0.10268 0.05774
 H200 H 0.61615 0.16373 0.09659
 H201 H 0.74372 0.05546 0.07730
 H202 H 0.77017 0.00652 -0.06466
 H203 H 0.79026 0.04420 -0.12585
 H204 H 0.68807 0.14627 -0.09225
 H205 H 0.66661 0.10728 -0.03454
 H206 H 0.74377 -0.04349 0.03415
 H207 H 0.74150 -0.10364 0.00669
 H208 H 0.68245 -0.04681 -0.13943
 H209 H 0.68066 0.01459 -0.10786
 H210 H 0.73844 0.11588 0.11822
 C211 C 0.22307 0.50136 0.47228
 C212 C 0.21984 0.50944 0.52536
 C213 C 0.20443 0.48878 0.56252
 C214 C 0.23287 0.53787 0.54847
 C215 C 0.24350 0.51648 0.43496
 C216 C 0.21025 0.47331 0.44811
 C217 C 0.16820 0.48919 0.55403
 C218 C 0.15713 0.46384 0.58305
 C219 C 0.18205 0.43789 0.62135
 C220 C 0.21697 0.43990 0.63264
 C221 C 0.22805 0.46513 0.60348
 C222 C 0.20740 0.56872 0.57815
 C223 C 0.21752 0.59828 0.59468
 C224 C 0.25300 0.59770 0.58095
 C225 C 0.27936 0.56570 0.55422
 C226 C 0.26971 0.53558 0.53928
 C227 C 0.27810 0.49031 0.41437
 C228 C 0.29667 0.50215 0.37529
 C229 C 0.28067 0.54042 0.35503
 C230 C 0.24659 0.56712 0.37708
 C231 C 0.22800 0.55518 0.41684
 C232 C 0.22934 0.43351 0.45956
 C233 C 0.22222 0.40688 0.42834
 C234 C 0.19619 0.41968 0.38500
 C235 C 0.17537 0.45970 0.37609
 C236 C 0.18259 0.48619 0.40711
 H237 H 0.14928 0.50782 0.52319
 H238 H 0.12964 0.46384 0.57407
 H239 H 0.23664 0.42060 0.66224
 H240 H 0.25602 0.46457 0.61079
 H241 H 0.17909 0.57075 0.58655
 H242 H 0.19687 0.62264 0.61558
 H243 H 0.29060 0.51112 0.51896
 H244 H 0.29057 0.46040 0.42830
 H245 H 0.32336 0.48093 0.36075
 H246 H 0.23376 0.59683 0.36245
 H247 H 0.20117 0.57566 0.43231
 H248 H 0.25120 0.42306 0.49062
 H249 H 0.23858 0.37625 0.43630
 H250 H 0.15448 0.47077 0.34398
 H251 H 0.16771 0.51683 0.39769
 H252 H 0.30723 0.56428 0.54430
 C253 C 0.28427 0.98460 -0.00977
 C254 C 0.29484 0.97052 0.04120
 C255 C 0.29805 0.99482 0.08582
 C256 C 0.30459 0.92891 0.05207
 C257 C 0.26598 0.96546 -0.04445
 C258 C 0.29012 1.01846 -0.03158
 C259 C 0.32453 0.97834 0.12800
 C260 C 0.32676 1.00091 0.17052
 C261 C 0.30301 1.04082 0.17133
 C262 C 0.27655 1.05715 0.12908
 C263 C 0.27342 1.03432 0.08780
 C264 C 0.33450 0.90135 0.02376
 C265 C 0.34135 0.86243 0.02713
 C266 C 0.31838 0.85011 0.05899
 C267 C 0.28969 0.87746 0.08976
 C268 C 0.28280 0.91674 0.08631
 C269 C 0.23230 0.96350 -0.02726
 C270 C 0.21783 0.94020 -0.05320
 C271 C 0.23676 0.91802 -0.09732
 C272 C 0.26907 0.92236 -0.11692
 C273 C 0.28361 0.94588 -0.09060
 C274 C 0.26293 1.04565 -0.06606
 C275 C 0.26795 1.07811 -0.08489
 C276 C 0.30016 1.08434 -0.06935
 C277 C 0.32803 1.05620 -0.03626
 C278 C 0.32325 1.02351 -0.01829
 H279 H 0.34372 0.94793 0.12807
 H280 H 0.34774 0.98701 0.20185
 H281 H 0.25729 1.08757 0.12849
 H282 H 0.25146 1.04772 0.05748
 H283 H 0.35187 0.91026 -0.00234
 H284 H 0.36452 0.84219 0.00422
 H285 H 0.25959 0.93775 0.10846
 H286 H 0.21806 0.97888 0.00793
 H287 H 0.19226 0.93920 -0.03729
 H288 H 0.28421 0.90624 -0.15110
 H289 H 0.30964 0.94715 -0.10446
 H290 H 0.23733 1.04228 -0.07754
 H291 H 0.24598 1.09883 -0.11065
 H292 H 0.35377 1.05892 -0.02416
 H293 H 0.34540 1.00225 0.00663
 H294 H 0.27184 0.86865 0.11502
 C295 C 0.79914 0.49030 0.47748
 C296 C 0.79018 0.50211 0.52884
 C297 C 0.79026 0.53939 0.54605
 C298 C 0.77942 0.47957 0.56996
 C299 C 0.80434 0.45133 0.45989
 C300 C 0.80334 0.51718 0.43687
 C301 C 0.82341 0.54603 0.54195
 C302 C 0.82282 0.58183 0.55513
 C303 C 0.78942 0.61107 0.57460
 C304 C 0.75678 0.60382 0.58107
 C305 C 0.75710 0.56832 0.56651
 C306 C 0.79351 0.47662 0.62262
 C307 C 0.78236 0.45749 0.66252
 C308 C 0.75740 0.44025 0.65046
 C309 C 0.74351 0.44269 0.59791
 C310 C 0.75369 0.46298 0.55825
 C311 C 0.78395 0.44769 0.41524
 C312 C 0.78546 0.41154 0.40173
 C313 C 0.80751 0.37830 0.43248
 C314 C 0.82960 0.38171 0.47548
 C315 C 0.82818 0.41789 0.48882
 C316 C 0.77146 0.55070 0.42091
 C317 C 0.77616 0.58032 0.39229
 C318 C 0.81286 0.57720 0.38039
 C319 C 0.84459 0.54262 0.39352
 C320 C 0.83978 0.51251 0.42081
 H321 H 0.84971 0.52351 0.52826
 H322 H 0.84868 0.58631 0.55117
 H323 H 0.73082 0.62588 0.59654
 H324 H 0.73139 0.56354 0.57056
 H325 H 0.81316 0.48927 0.63298
 H326 H 0.79374 0.45567 0.70272
 H327 H 0.74114 0.46601 0.51864
 H328 H 0.76561 0.47306 0.39212
 H329 H 0.76839 0.40984 0.36810
 H330 H 0.84753 0.35674 0.49945
 H331 H 0.84485 0.41998 0.52271
 H332 H 0.74316 0.55473 0.43313
 H333 H 0.75130 0.60665 0.38242
 H334 H 0.87314 0.53934 0.38405
 H335 H 0.86465 0.48684 0.43297
 H336 H 0.72395 0.42984 0.58794
 O337 O 0.29958 0.23103 0.24825
 O338 O 0.20353 0.23400 0.23281
 O339 O 0.22992 0.28461 0.25361
 O340 O 0.27137 0.18046 0.22832
 O341 O 0.27251 0.16801 0.31515
 O342 O 0.22964 0.27297 0.34051
 O343 O 0.20257 0.22214 0.31955
 O344 O 0.29823 0.22058 0.33530
 Cu345 Cu 0.25147 0.23368 0.23205
 Cu346 Cu 0.25075 0.21941 0.33637
 C347 C 0.31493 0.22599 0.29450
 C348 C 0.18668 0.22873 0.27352
 C349 C 0.22252 0.29656 0.30112
 C350 C 0.27866 0.15653 0.26726
 O351 O 0.69845 0.75733 0.24757
 O352 O 0.78260 0.72169 0.16036
 O353 O 0.76285 0.69731 0.24785
 O354 O 0.71514 0.78187 0.15830
 O355 O 0.74004 0.81523 0.20416
 O356 O 0.79066 0.72912 0.29125
 O357 O 0.80733 0.75634 0.20360
 O358 O 0.72470 0.78964 0.29315
 Cu359 Cu 0.73735 0.73633 0.19841
 Cu360 Cu 0.76834 0.77581 0.25253
 C361 C 0.69736 0.77977 0.28525
 C362 C 0.80951 0.73238 0.16763
 C363 C 0.78509 0.69871 0.28452
 C364 C 0.71826 0.81329 0.16706
 O365 O 0.79113 0.20914 0.27016
 O366 O 0.69991 0.25888 0.33806
 O367 O 0.72265 0.21538 0.25469
 O368 O 0.76943 0.25339 0.35288
 O369 O 0.75631 0.30517 0.30103
 O370 O 0.70777 0.26824 0.20446
 O371 O 0.68721 0.31134 0.28781
 O372 O 0.77792 0.26088 0.21817
 Cu373 Cu 0.74705 0.22907 0.30939
 Cu374 Cu 0.73109 0.29159 0.24758
 C375 C 0.79992 0.22648 0.23237
 C376 C 0.67800 0.29340 0.32443
 C377 C 0.70710 0.23549 0.21307
 C378 C 0.77094 0.28572 0.34345
 O379 O 0.25433 0.69345 0.14989
 O380 O 0.33035 0.69519 0.24070
 O381 O 0.29636 0.73381 0.15403
 O382 O 0.29095 0.65318 0.23476
 O383 O 0.33400 0.61164 0.18243
 O384 O 0.34041 0.69062 0.10474
 O385 O 0.37364 0.65135 0.19118
 O386 O 0.29873 0.65192 0.09930
 Cu387 Cu 0.28843 0.69833 0.19978
 Cu388 Cu 0.34099 0.64741 0.13921
 C389 C 0.26384 0.67209 0.10915
 C390 C 0.36488 0.67286 0.23174
 C391 C 0.31980 0.72551 0.11573
 C392 C 0.31190 0.61858 0.22195
 O393 O 0.77964 0.26760 0.82634
 O394 O 0.67801 0.30008 0.79100
 O395 O 0.73224 0.23467 0.82565
 O396 O 0.72655 0.33178 0.79198
 O397 O 0.74078 0.31462 0.70817
 O398 O 0.75035 0.21642 0.74317
 O399 O 0.69369 0.27980 0.70866
 O400 O 0.79515 0.25052 0.74271
 Cu401 Cu 0.72723 0.28537 0.81702
 Cu402 Cu 0.74601 0.26390 0.71694
 C403 C 0.80463 0.25362 0.79057
 C404 C 0.66863 0.29503 0.74396
 C405 C 0.74367 0.20866 0.79055
 C406 C 0.73344 0.33946 0.74466
 O407 O 0.30395 0.73456 0.75008
 O408 O 0.20485 0.74924 0.77262
 O409 O 0.25917 0.70398 0.71356
 O410 O 0.24735 0.78048 0.80937
 O411 O 0.22819 0.82440 0.74380
 O412 O 0.24359 0.74713 0.64705
 O413 O 0.18622 0.79059 0.70393
 O414 O 0.28522 0.77886 0.68502
 Cu415 Cu 0.25613 0.73776 0.76815
 Cu416 Cu 0.23377 0.79007 0.68869
 C417 C 0.31156 0.75353 0.71314
 C418 C 0.17883 0.77175 0.74130
 C419 C 0.25376 0.71251 0.66398
 C420 C 0.23466 0.81545 0.79316
 O421 O 0.22602 0.32289 0.76181
 O422 O 0.27708 0.23626 0.84691
 O423 O 0.28992 0.26235 0.75582
 O424 O 0.21287 0.29773 0.85429
 O425 O 0.18342 0.26665 0.81288
 O426 O 0.26045 0.23118 0.71468
 O427 O 0.24666 0.20591 0.80605
 O428 O 0.19567 0.29246 0.72101
 Cu429 Cu 0.25438 0.28295 0.80901
 Cu430 Cu 0.21853 0.24607 0.75927
 C431 C 0.20230 0.32229 0.72675
 C432 C 0.27048 0.20641 0.84099
 C433 C 0.28833 0.24071 0.71861
 C434 C 0.18521 0.28788 0.85052
 O435 O 0.73835 0.72276 0.70921
 O436 O 0.70275 0.79138 0.81867
 O437 O 0.67498 0.78267 0.72426
 O438 O 0.76344 0.73123 0.80142
 O439 O 0.78758 0.76976 0.76578
 O440 O 0.69921 0.82018 0.68595
 O441 O 0.72526 0.82988 0.77892
 O442 O 0.76380 0.75957 0.67196
 Cu443 Cu 0.71672 0.75366 0.76690
 Cu444 Cu 0.74614 0.79876 0.72139
 C445 C 0.75797 0.72901 0.67276
 C446 C 0.70958 0.82136 0.81848
 C447 C 0.67227 0.80944 0.69127
 C448 C 0.79031 0.74217 0.79749
 C449 C 0.30472 0.06462 0.21294
 C450 C 0.32393 0.05241 0.26155
 C451 C 0.31619 0.08542 0.28951
 C452 C 0.29361 0.11520 0.25565
 O453 O 0.28654 0.10277 0.20962
 H454 H 0.34075 0.02317 0.27589
 H455 H 0.32614 0.08757 0.32940
 C456 C 0.78864 0.64865 0.59012
 C457 C 0.81040 0.66613 0.56779
 C458 C 0.80100 0.69968 0.59488
 C459 C 0.77450 0.69987 0.63179
 O460 O 0.76684 0.66914 0.62884
 H461 H 0.83059 0.65573 0.53565
 H462 H 0.81262 0.72099 0.58924
 C463 C 0.67186 0.90594 0.10688
 C464 C 0.65359 0.88743 0.07814
 C465 C 0.66899 0.85001 0.09646
 C466 C 0.69545 0.84818 0.13496
 O467 O 0.69720 0.88190 0.14153
 H468 H 0.63222 0.89904 0.04672
 H469 H 0.66180 0.82681 0.08331
 C470 C 0.17382 0.40665 0.64673
 C471 C 0.14531 0.39566 0.63091
 C472 C 0.15157 0.36277 0.65991
 C473 C 0.18316 0.35627 0.69149
 O474 O 0.19667 0.38271 0.68367
 H475 H 0.12358 0.40874 0.60025
 H476 H 0.13565 0.34510 0.65737
 C477 C 0.88468 0.19841 0.15999
 C478 C 0.89174 0.16265 0.18363
 C479 C 0.86036 0.16829 0.21318
 C480 C 0.83635 0.20672 0.20538
 O481 O 0.85072 0.22494 0.17308
 H482 H 0.91677 0.13566 0.18130
 H483 H 0.85583 0.14710 0.23825
 C484 C 0.39944 0.74182 0.65906
 C485 C 0.41346 0.71806 0.70395
 C486 C 0.38219 0.72007 0.73111
 C487 C 0.35143 0.74498 0.70122
 O488 O 0.36169 0.75822 0.65761
 H489 H 0.44278 0.70080 0.71570
 H490 H 0.38184 0.70470 0.76783
 C491 C 0.18248 0.67451 0.04003
 C492 C 0.21000 0.65341 0.00390
 C493 C 0.24370 0.65030 0.02509
 C494 C 0.23470 0.66983 0.07248
 O495 O 0.19753 0.68478 0.08175
 H496 H 0.20634 0.64178 -0.03383
 H497 H 0.27166 0.63545 0.00801
 C498 C 0.57902 0.30867 0.69201
 C499 C 0.56623 0.33631 0.73100
 C500 C 0.59836 0.33475 0.75624
 C501 C 0.62825 0.30674 0.73020
 O502 O 0.61667 0.29074 0.69141
 H503 H 0.53702 0.35460 0.74080
 H504 H 0.59987 0.35196 0.78951
 C505 C 0.75096 0.12063 0.84802
 C506 C 0.77834 0.10569 0.80900
 C507 C 0.77793 0.13691 0.78103
 C508 C 0.75100 0.16862 0.80532
 O509 O 0.73446 0.15901 0.84574
 H510 H 0.79596 0.07574 0.80055
 H511 H 0.79580 0.13666 0.74768
 C512 C 0.29875 0.55181 0.30976
 C513 C 0.32601 0.52581 0.27732
 C514 C 0.33422 0.54770 0.24047
 C515 C 0.31144 0.58548 0.25264
 O516 O 0.28970 0.58825 0.29456
 H517 H 0.33814 0.49454 0.27914
 H518 H 0.35433 0.53733 0.20822
 C519 C 0.22506 0.89068 0.88039
 C520 C 0.19737 0.88018 0.90154
 C521 C 0.19757 0.85085 0.87101
 C522 C 0.22465 0.84579 0.83296
 O523 O 0.24155 0.86966 0.83826
 H524 H 0.17988 0.89107 0.93625
 H525 H 0.18028 0.83470 0.87610
 C526 C 0.80575 0.34100 0.42015
 C527 C 0.82050 0.30763 0.45174
 C528 C 0.80974 0.28190 0.42689
 C529 C 0.78939 0.30138 0.38208
 O530 O 0.78692 0.33705 0.37789
 H531 H 0.83629 0.30268 0.48908
 H532 H 0.81560 0.25268 0.44017
 C533 C 0.10836 0.30187 0.93474
 C534 C 0.12077 0.32687 0.95985
 C535 C 0.15127 0.32563 0.93108
 C536 C 0.15507 0.30017 0.89058
 O537 O 0.12922 0.28581 0.89272
 H538 H 0.10977 0.34331 0.99553
 H539 H 0.16896 0.34093 0.93912
 C540 C 0.61151 0.80391 0.35435
 C541 C 0.62168 0.83175 0.37556
 C542 C 0.65562 0.82599 0.35294
 C543 C 0.66364 0.79525 0.31939
 O544 O 0.63705 0.78166 0.32024
 H545 H 0.60675 0.85303 0.40512
 H546 H 0.67248 0.84232 0.35989
 C547 C 0.87517 0.71329 0.87257
 C548 C 0.86545 0.68354 0.88846
 C549 C 0.83238 0.69016 0.86166
 C550 C 0.82451 0.72326 0.83124
 O551 O 0.85023 0.73749 0.83789
 H552 H 0.88010 0.66028 0.91707
 H553 H 0.81574 0.67320 0.86441
 C554 C 0.39778 0.23412 0.33833
 C555 C 0.40782 0.22674 0.28537
 C556 C 0.37787 0.22260 0.26132
 C557 C 0.35215 0.22726 0.30155
 O558 O 0.36401 0.23440 0.34814
 H559 H 0.43337 0.22559 0.26624
 H560 H 0.37502 0.21700 0.21958
 C561 C 0.70743 0.88632 0.91643
 C562 C 0.71002 0.85599 0.95013
 C563 C 0.70674 0.82905 0.91761
 C564 C 0.70318 0.84451 0.86655
 O565 O 0.70321 0.87928 0.86573
 H566 H 0.71403 0.85347 0.99312
 H567 H 0.70964 0.80037 0.92928
 C568 C 0.19365 0.39135 0.34677
 C569 C 0.17824 0.40049 0.29554
 C570 C 0.18644 0.36596 0.27194
 C571 C 0.20590 0.33830 0.31040
 O572 O 0.21039 0.35346 0.35576
 H573 H 0.16434 0.42871 0.27638
 H574 H 0.17980 0.36142 0.23119
 C575 C 0.30355 0.11834 0.91368
 C576 C 0.33122 0.13034 0.93063
 C577 C 0.32238 0.16529 0.90575
 C578 C 0.29039 0.17194 0.87508
 O579 O 0.27888 0.14375 0.87977
 H580 H 0.35464 0.11619 0.95859
 H581 H 0.33744 0.18370 0.90946
 C582 C 0.81768 0.61110 0.35796
 C583 C 0.84711 0.62125 0.37145
 C584 C 0.83853 0.65611 0.34633
 C585 C 0.80479 0.66435 0.31897
 O586 O 0.79197 0.63726 0.32610
 H587 H 0.87122 0.60573 0.39786
 H588 H 0.85494 0.67334 0.34752
 C589 C 0.09426 0.76738 0.78350
 C590 C 0.08603 0.77177 0.72909
 C591 C 0.11565 0.77699 0.70616
 C592 C 0.14006 0.77455 0.74791
 O593 O 0.12715 0.76907 0.79472
 H594 H 0.06145 0.77143 0.70830
 H595 H 0.11994 0.78008 0.66390
 C596 C 0.59255 0.31890 0.39394
 C597 C 0.58472 0.35500 0.37147
 C598 C 0.61633 0.35059 0.34311
 C599 C 0.64108 0.31230 0.35055
 O600 O 0.62687 0.29311 0.38137
 H601 H 0.55900 0.38131 0.37439
 H602 H 0.62056 0.37244 0.31909
 C603 C 0.89438 0.23264 0.84838
 C604 C 0.90693 0.20966 0.80418
 C605 C 0.87475 0.21504 0.77571
 C606 C 0.84505 0.24050 0.80504
 O607 O 0.85682 0.25137 0.84899
 H608 H 0.93605 0.19168 0.79355
 H609 H 0.87305 0.20169 0.73845
 C610 C 0.42693 0.68559 0.32598
 C611 C 0.44928 0.64762 0.31354
 C612 C 0.42888 0.63812 0.27629
 C613 C 0.39538 0.67074 0.26910
 O614 O 0.39405 0.69977 0.29897
 H615 H 0.47765 0.62942 0.32842
 H616 H 0.43737 0.61068 0.25662
 C617 C 0.32407 0.80906 0.05910
 C618 C 0.34308 0.78329 0.01969
 C619 C 0.34320 0.74893 0.03562
 C620 C 0.32399 0.75606 0.08327
 O621 O 0.31206 0.79258 0.09766
 H622 H 0.35546 0.78865 -0.01655
 H623 H 0.35603 0.72172 0.01513
 C624 C 0.74594 0.41981 0.69270
 C625 C 0.73920 0.43159 0.74498
 C626 C 0.73168 0.40378 0.77098
 C627 C 0.73466 0.37695 0.73273
 O628 O 0.74313 0.38666 0.68507
 H629 H 0.74019 0.45714 0.76219
 H630 H 0.72610 0.40246 0.81317
 C631 C 0.67446 0.18126 0.13116
 C632 C 0.64961 0.21743 0.11239
 C633 C 0.65886 0.24299 0.14033
 C634 C 0.68819 0.22043 0.17446
 O635 O 0.69785 0.18303 0.16888
 H636 H 0.62813 0.22427 0.08109
 H637 H 0.64573 0.27424 0.13656
 C638 C 0.26119 0.63167 0.59094
 C639 C 0.27759 0.64731 0.55399
 C640 C 0.27642 0.68025 0.57634
 C641 C 0.26001 0.68184 0.62554
 O642 O 0.25051 0.65257 0.63453
 H643 H 0.28792 0.63663 0.51472
 H644 H 0.28650 0.70058 0.55911
 C645 C 0.89812 0.70466 0.10429
 C646 C 0.88956 0.67474 0.08721
 C647 C 0.85453 0.68193 0.10731
 C648 C 0.84433 0.71554 0.13556
 O649 O 0.87062 0.72958 0.13361
 H650 H 0.90649 0.65097 0.06208
 H651 H 0.83859 0.66442 0.10273
 C652 C 0.36723 0.22236 0.63635
 C653 C 0.35525 0.19620 0.61377
 C654 C 0.32386 0.19933 0.64185
 C655 C 0.31914 0.22697 0.67953
 O656 O 0.34526 0.24097 0.67627
 H657 H 0.36712 0.17781 0.58001
 H658 H 0.30633 0.18366 0.63535
 C659 C 0.09794 0.23541 0.22845
 C660 C 0.09092 0.23551 0.28262
 C661 C 0.12383 0.23222 0.30744
 C662 C 0.14818 0.23066 0.26654
 O663 O 0.13268 0.23243 0.21875
 H664 H 0.06515 0.23732 0.30177
 H665 H 0.12926 0.23152 0.35006
 C666 C 0.59175 0.83001 0.61005
 C667 C 0.59255 0.86594 0.60494
 C668 C 0.62321 0.86345 0.63525
 C669 C 0.63809 0.82651 0.65718
 O670 O 0.61926 0.80620 0.64179
 H671 H 0.57396 0.89039 0.58055
 H672 H 0.63361 0.88566 0.64046
   
