data_POSCAR
  _audit_creation_date              2014-09-24
  _audit_creation_method            'ToBaCCo'
  _symmetry_space_group_name_H-M    'P1'
  _symmetry_Int_Tables_number       1
  _symmetry_cell_setting            triclinic
  loop_
  _symmetry_equiv_pos_as_xyz
 x,y,z
_cell_length_a 41.1331
_cell_length_b 41.1346
_cell_length_c 41.0725
_cell_angle_alpha 93.999900
_cell_angle_beta 94.105600
_cell_angle_gamma 94.066100
loop_
  _atom_site_label
  _atom_site_type_symbol
  _atom_site_fract_x
  _atom_site_fract_y
  _atom_site_fract_z
C1 C 0.71182 0.68990 0.96033
 H2 H 0.73537 0.68880 0.95031
 C3 C 0.68763 0.70705 0.94496
 H4 H 0.69267 0.71949 0.92327
 C5 C 0.67551 0.67305 0.99932
 H6 H 0.67037 0.65886 1.01973
 C7 C 0.65074 0.68993 0.98477
 H8 H 0.62684 0.68893 0.99433
 N9 N 0.70528 0.67305 0.98679
 C10 C 0.79597 0.64838 1.03774
 H11 H 0.78831 0.62316 1.04084
 C12 C 0.82725 0.66103 1.04946
 H13 H 0.84365 0.64559 1.06185
 C14 C 0.78441 0.69886 1.01649
 H15 H 0.76775 0.71326 1.00320
 C16 C 0.81570 0.71250 1.02780
 H17 H 0.82311 0.73748 1.02327
 Zn18 Zn 0.73614 0.64452 1.00232
 N19 N 0.77551 0.66708 1.02107
 C20 C 0.77751 0.61867 0.95726
 N21 N 0.74604 0.61747 0.96564
 C22 C 0.72163 0.60006 0.94632
 C23 C 0.72857 0.58298 0.91722
 C24 C 0.78544 0.60203 0.92858
 C25 C 0.71504 0.63750 1.06407
 C26 C 0.70253 0.62210 1.09016
 C27 C 0.69819 0.57078 1.05702
 C28 C 0.71091 0.58726 1.03144
 N29 N 0.71865 0.62011 1.03533
 H30 H 0.79652 0.63324 0.97226
 H31 H 0.69670 0.60008 0.95314
 H32 H 0.70907 0.56936 0.90179
 H33 H 0.81056 0.60342 0.92209
 H34 H 0.72174 0.66351 1.06657
 H35 H 0.69947 0.63646 1.11275
 H36 H 0.69171 0.54469 1.05359
 H37 H 0.71445 0.57385 1.00855
 C38 C 0.83744 0.69317 1.04399
 C39 C 0.65666 0.70663 0.95704
 C40 C 0.69386 0.58845 1.08665
 C41 C 0.76080 0.58426 0.90823
 C42 C 0.72756 0.34886 0.51055
 H43 H 0.75174 0.35076 0.52308
 C44 C 0.70247 0.32917 0.52201
 H45 H 0.70733 0.31575 0.54339
 C46 C 0.69118 0.36539 0.46844
 H47 H 0.68665 0.38024 0.44817
 C48 C 0.66536 0.34601 0.47915
 H49 H 0.64110 0.34581 0.46695
 N50 N 0.72152 0.36653 0.48428
 C51 C 0.81660 0.39070 0.44819
 H52 H 0.81607 0.41696 0.44822
 C53 C 0.84337 0.37543 0.43707
 H54 H 0.86358 0.38993 0.42845
 C55 C 0.79065 0.33958 0.45887
 H56 H 0.76986 0.32567 0.46694
 C57 C 0.81697 0.32332 0.44791
 H58 H 0.81648 0.29694 0.44772
 Zn59 Zn 0.75589 0.39573 0.47324
 N60 N 0.79112 0.37273 0.45912
 C61 C 0.80060 0.42327 0.52516
 N62 N 0.76937 0.42293 0.51166
 C63 C 0.74623 0.43856 0.52741
 C64 C 0.75396 0.45463 0.55844
 C65 C 0.80937 0.43914 0.55599
 C66 C 0.73354 0.40305 0.40898
 C67 C 0.72181 0.41891 0.38211
 C68 C 0.72726 0.46974 0.41604
 C69 C 0.73893 0.45290 0.44234
 N70 N 0.74130 0.42004 0.43846
 H71 H 0.81844 0.41001 0.51282
 H72 H 0.72141 0.43728 0.51646
 H73 H 0.73513 0.46592 0.57137
 H74 H 0.83399 0.43826 0.56703
 H75 H 0.73600 0.37700 0.40657
 H76 H 0.71498 0.40505 0.35893
 H77 H 0.72471 0.49577 0.41941
 H78 H 0.74571 0.46598 0.46585
 C79 C 0.84357 0.34146 0.43701
 C80 C 0.67105 0.32797 0.50635
 C81 C 0.71839 0.45250 0.38574
 C82 C 0.78573 0.45445 0.57303
 C83 C 0.22697 -0.15070 0.01003
 H84 H 0.25117 -0.14885 0.02251
 C85 C 0.20187 -0.17036 0.02153
 H86 H 0.20674 -0.18380 0.04288
 C87 C 0.19055 -0.13408 -0.03200
 H88 H 0.18601 -0.11923 -0.05226
 C89 C 0.16473 -0.15343 -0.02125
 H90 H 0.14045 -0.15359 -0.03341
 N91 N 0.22092 -0.13302 -0.01623
 C92 C 0.31583 -0.10909 -0.05278
 H93 H 0.31531 -0.08283 -0.05283
 C94 C 0.34254 -0.12440 -0.06396
 H95 H 0.36273 -0.10994 -0.07269
 C96 C 0.28993 -0.16014 -0.04182
 H97 H 0.26918 -0.17400 -0.03362
 C98 C 0.31620 -0.17645 -0.05283
 H99 H 0.31572 -0.20282 -0.05291
 Zn100 Zn 0.25530 -0.10390 -0.02739
 N101 N 0.29040 -0.12700 -0.04168
 C102 C 0.30032 -0.07644 0.02428
 N103 N 0.26902 -0.07672 0.01098
 C104 C 0.24603 -0.06102 0.02689
 C105 C 0.25400 -0.04495 0.05789
 C106 C 0.30931 -0.06057 0.05507
 C107 C 0.23279 -0.09658 -0.09158
 C108 C 0.22090 -0.08077 -0.11843
 C109 C 0.22638 -0.02989 -0.08447
 C110 C 0.23821 -0.04673 -0.05823
 N111 N 0.24062 -0.07957 -0.06213
 H112 H 0.31805 -0.08974 0.01182
 H113 H 0.22115 -0.06225 0.01611
 H114 H 0.23528 -0.03362 0.07096
 H115 H 0.33399 -0.06151 0.06594
 H116 H 0.23530 -0.12262 -0.09400
 H117 H 0.21405 -0.09479 -0.14154
 H118 H 0.22384 -0.00385 -0.08093
 H119 H 0.24505 -0.03366 -0.03473
 C120 C 0.34275 -0.15836 -0.06389
 C121 C 0.17043 -0.17150 0.00591
 C122 C 0.21738 -0.04715 -0.11479
 C123 C 0.28584 -0.04520 0.07228
 C124 C 0.21271 0.18980 0.45968
 H125 H 0.23630 0.18886 0.44972
 C126 C 0.18850 0.20697 0.44437
 H127 H 0.19355 0.21958 0.42279
 C128 C 0.17633 0.17256 0.49845
 H129 H 0.17118 0.15820 0.51874
 C130 C 0.15154 0.18944 0.48396
 H131 H 0.12761 0.18829 0.49345
 N132 N 0.20614 0.17275 0.48600
 C133 C 0.29680 0.14797 0.53695
 H134 H 0.28917 0.12269 0.53983
 C135 C 0.32803 0.16061 0.54886
 H136 H 0.34441 0.14511 0.56118
 C137 C 0.28522 0.19861 0.51607
 H138 H 0.26858 0.21309 0.50286
 C139 C 0.31646 0.21225 0.52759
 H140 H 0.32385 0.23729 0.52329
 Zn141 Zn 0.23705 0.14422 0.50145
 N142 N 0.27635 0.16676 0.52038
 C143 C 0.27857 0.11873 0.45633
 N144 N 0.24709 0.11735 0.46469
 C145 C 0.22276 0.09987 0.44531
 C146 C 0.22980 0.08288 0.41620
 C147 C 0.28660 0.10219 0.42764
 C148 C 0.21583 0.13690 0.56310
 C149 C 0.20339 0.12134 0.58912
 C150 C 0.19932 0.07015 0.55589
 C151 C 0.21197 0.08674 0.53034
 N152 N 0.21956 0.11962 0.53432
 H153 H 0.29750 0.13335 0.47138
 H154 H 0.19782 0.09975 0.45211
 H155 H 0.21037 0.06920 0.40073
 H156 H 0.31173 0.10371 0.42118
 H157 H 0.22242 0.16294 0.56568
 H158 H 0.20020 0.13546 0.61179
 H159 H 0.19295 0.04406 0.55254
 H160 H 0.21559 0.07341 0.50744
 C161 C 0.33818 0.19284 0.54369
 C162 C 0.15748 0.20635 0.45637
 C163 C 0.19493 0.08771 0.58551
 C164 C 0.26206 0.08434 0.40725
 C165 C 0.19066 0.45930 0.21230
 H166 H 0.18965 0.44949 0.23600
 C167 C 0.20777 0.44381 0.18818
 H168 H 0.22027 0.42225 0.19343
 C169 C 0.17359 0.49783 0.17553
 H170 H 0.15929 0.51809 0.17018
 C171 C 0.19042 0.48316 0.15083
 H172 H 0.18931 0.49248 0.12677
 N173 N 0.17370 0.48557 0.20548
 C174 C 0.14858 0.53665 0.29588
 H175 H 0.12330 0.53943 0.28811
 C176 C 0.16110 0.54869 0.32714
 H177 H 0.14551 0.56099 0.34341
 C178 C 0.19932 0.51593 0.28462
 H179 H 0.21388 0.50274 0.26809
 C180 C 0.21285 0.52757 0.31590
 H181 H 0.23789 0.52339 0.32343
 Zn182 Zn 0.14508 0.50110 0.23621
 N183 N 0.16747 0.52010 0.27558
 C184 C 0.11935 0.45612 0.27781
 N185 N 0.11812 0.46444 0.24627
 C186 C 0.10073 0.44508 0.22186
 C187 C 0.08367 0.41601 0.22890
 C188 C 0.10274 0.42748 0.28585
 C189 C 0.13786 0.56255 0.21457
 C190 C 0.12230 0.58853 0.20207
 C191 C 0.07105 0.55538 0.19826
 C192 C 0.08765 0.52988 0.21094
 N193 N 0.12055 0.53385 0.21845
 H194 H 0.13391 0.47116 0.29680
 H195 H 0.10074 0.45185 0.19688
 H196 H 0.07006 0.40055 0.20942
 H197 H 0.10413 0.42104 0.31102
 H198 H 0.16391 0.56513 0.22111
 H199 H 0.13643 0.61115 0.19878
 H200 H 0.04494 0.55206 0.19198
 H201 H 0.07429 0.50704 0.21471
 C202 C 0.19332 0.54367 0.33747
 C203 C 0.20720 0.45559 0.15701
 C204 C 0.08864 0.58493 0.19373
 C205 C 0.08497 0.40710 0.26122
 C206 C -0.15208 0.01107 0.22669
 H207 H -0.15032 0.02343 0.25095
 C208 C -0.17156 0.02270 0.20148
 H209 H -0.18495 0.04405 0.20642
 C210 C -0.13536 -0.03076 0.19024
 H211 H -0.12051 -0.05098 0.18575
 C212 C -0.15452 -0.01989 0.16430
 H213 H -0.15450 -0.03199 0.14000
 N214 N -0.13441 -0.01513 0.22067
 C215 C -0.11040 -0.05167 0.31577
 H216 H -0.08415 -0.05169 0.31518
 C217 C -0.12563 -0.06288 0.34256
 H218 H -0.11111 -0.07162 0.36274
 C219 C -0.16153 -0.04074 0.28995
 H220 H -0.17545 -0.03253 0.26920
 C221 C -0.17776 -0.05180 0.31630
 H222 H -0.20413 -0.05191 0.31589
 Zn223 Zn -0.10533 -0.02631 0.25515
 N224 N -0.12839 -0.04057 0.29034
 C225 C -0.07777 0.02528 0.30015
 N226 N -0.07808 0.01197 0.26883
 C227 C -0.06230 0.02779 0.24578
 C228 C -0.04609 0.05869 0.25371
 C229 C -0.06176 0.05597 0.30910
 C230 C -0.09804 -0.09039 0.23266
 C231 C -0.08215 -0.11720 0.22101
 C232 C -0.03126 -0.08335 0.22681
 C233 C -0.04813 -0.05711 0.23841
 N234 N -0.08102 -0.06099 0.24057
 H235 H -0.09114 0.01289 0.31791
 H236 H -0.06356 0.01700 0.22090
 H237 H -0.03467 0.07168 0.23495
 H238 H -0.06265 0.06685 0.33379
 H239 H -0.12412 -0.09280 0.23497
 H240 H -0.09602 -0.14032 0.21406
 H241 H -0.00520 -0.07998 0.22444
 H242 H -0.03503 -0.03366 0.24532
 C243 C -0.15958 -0.06286 0.34285
 C244 C -0.17254 0.00728 0.16993
 C245 C -0.04852 -0.11357 0.21781
 C246 C -0.04628 0.07307 0.28557
 C247 C 0.34840 0.51075 0.72750
 H248 H 0.35021 0.52308 0.75178
 C249 C 0.32879 0.52235 0.70239
 H250 H 0.31534 0.54364 0.70732
 C251 C 0.36508 0.46901 0.69093
 H252 H 0.37995 0.44882 0.68634
 C253 C 0.34578 0.47987 0.66508
 H254 H 0.34567 0.46787 0.64074
 N255 N 0.36610 0.48459 0.72139
 C256 C 0.39006 0.44796 0.81642
 H257 H 0.41634 0.44811 0.81597
 C258 C 0.37474 0.43652 0.84307
 H259 H 0.38921 0.42780 0.86328
 C260 C 0.33895 0.45860 0.79034
 H261 H 0.32508 0.46676 0.76954
 C262 C 0.32264 0.44732 0.81654
 H263 H 0.29624 0.44699 0.81596
 Zn264 Zn 0.39521 0.47338 0.75581
 N265 N 0.37212 0.45900 0.79093
 C266 C 0.42269 0.52501 0.80083
 N267 N 0.42242 0.51168 0.76953
 C268 C 0.43816 0.52751 0.74647
 C269 C 0.45429 0.55845 0.75436
 C270 C 0.43861 0.55576 0.80975
 C271 C 0.40253 0.40936 0.73318
 C272 C 0.41842 0.38258 0.72147
 C273 C 0.46931 0.41644 0.72734
 C274 C 0.45243 0.44266 0.73899
 N275 N 0.41954 0.43876 0.74115
 H276 H 0.40934 0.51260 0.81860
 H277 H 0.43693 0.51669 0.72159
 H278 H 0.46567 0.57145 0.73559
 H279 H 0.43767 0.56666 0.83442
 H280 H 0.37645 0.40693 0.73549
 H281 H 0.40456 0.35946 0.71448
 H282 H 0.49537 0.41982 0.72497
 H283 H 0.46553 0.46610 0.74595
 C284 C 0.34075 0.43626 0.84314
 C285 C 0.32771 0.50695 0.67085
 C286 C 0.45205 0.38623 0.71828
 C287 C 0.45405 0.57287 0.78620
 C288 C 0.69149 0.95995 0.71348
 H289 H 0.69058 0.94995 0.73709
 C290 C 0.70849 0.94463 0.68916
 H291 H 0.72100 0.92301 0.69416
 C292 C 0.67429 0.99879 0.67711
 H293 H 0.65998 1.01909 0.67199
 C294 C 0.69101 0.98430 0.65221
 H295 H 0.68979 0.99380 0.62824
 N296 N 0.67451 0.98629 0.70695
 C297 C 0.64945 1.03668 0.79777
 H298 H 0.62415 1.03944 0.79007
 C299 C 0.66200 1.04859 0.82906
 H300 H 0.64634 1.06078 0.84537
 C301 C 0.70022 1.01619 0.78626
 H302 H 0.71478 1.00314 0.76960
 C303 C 0.71380 1.02770 0.81757
 H304 H 0.73891 1.02353 0.82492
 Zn305 Zn 0.64593 1.00155 0.73787
 N306 N 0.66834 1.02032 0.77733
 C307 C 0.62024 0.95621 0.77916
 N308 N 0.61901 0.96475 0.74769
 C309 C 0.60159 0.94556 0.72318
 C310 C 0.58448 0.91646 0.73003
 C311 C 0.60358 0.92752 0.78701
 C312 C 0.63855 1.06317 0.71667
 C313 C 0.62296 1.08912 0.70414
 C314 C 0.57182 1.05575 0.69990
 C315 C 0.58845 1.03029 0.71263
 N316 N 0.62132 1.03437 0.72034
 H317 H 0.63483 0.97112 0.79823
 H318 H 0.60160 0.95250 0.69825
 H319 H 0.57081 0.90115 0.71046
 H320 H 0.60495 0.92092 0.81213
 H321 H 0.66458 1.06584 0.72335
 H322 H 0.63704 1.11180 0.70097
 H323 H 0.54576 1.05231 0.69342
 H324 H 0.57515 1.00737 0.71622
 C325 C 0.69429 1.04363 0.83931
 C326 C 0.70779 0.95665 0.65808
 C327 C 0.58934 1.08538 0.69553
 C328 C 0.58575 0.90734 0.76228
 C329 C 0.01008 0.22674 -0.15106
 H330 H 0.02245 0.25097 -0.14915
 C331 C 0.02170 0.20172 -0.17069
 H332 H 0.04304 0.20669 -0.18408
 C333 C -0.03176 0.19015 -0.13454
 H334 H -0.05199 0.18551 -0.11970
 C335 C -0.02089 0.16441 -0.15387
 H336 H -0.03292 0.14009 -0.15404
 N337 N -0.01613 0.22057 -0.13341
 C338 C -0.05264 0.31538 -0.10904
 H339 H -0.05261 0.31472 -0.08275
 C340 C -0.06389 0.34217 -0.12425
 H341 H -0.07259 0.36227 -0.10968
 C342 C -0.04184 0.28974 -0.16029
 H343 H -0.03367 0.26906 -0.17427
 C344 C -0.05293 0.31609 -0.17650
 H345 H -0.05310 0.31574 -0.20291
 Zn346 Zn -0.02731 0.25479 -0.10413
 N347 N -0.04160 0.29004 -0.12710
 C348 C 0.02438 0.29961 -0.07643
 N349 N 0.01103 0.26834 -0.07683
 C350 C 0.02689 0.24521 -0.06122
 C351 C 0.05788 0.25301 -0.04512
 C352 C 0.05517 0.30844 -0.06052
 C353 C -0.09138 0.23215 -0.09694
 C354 C -0.11818 0.22026 -0.08114
 C355 C -0.08426 0.22569 -0.03014
 C356 C -0.05806 0.23753 -0.04697
 N357 N -0.06197 0.23998 -0.07986
 H358 H 0.01195 0.31744 -0.08967
 H359 H 0.01606 0.22036 -0.06256
 H360 H 0.07090 0.23419 -0.03387
 H361 H 0.06609 0.33310 -0.06137
 H362 H -0.09381 0.23470 -0.12302
 H363 H -0.14127 0.21343 -0.09521
 H364 H -0.08072 0.22314 -0.00405
 H365 H -0.03460 0.24437 -0.03384
 C366 C -0.06395 0.34254 -0.15826
 C367 C 0.00626 0.17022 -0.17186
 C368 C -0.11455 0.21672 -0.04746
 C369 C 0.07233 0.28482 -0.04525
 C370 C 0.46068 0.21243 0.19028
 H371 H 0.45067 0.23599 0.18923
 C372 C 0.44536 0.18821 0.20744
 H373 H 0.42374 0.19323 0.21992
 C374 C 0.49952 0.17611 0.17328
 H375 H 0.51983 0.17098 0.15900
 C376 C 0.48503 0.15131 0.19016
 H377 H 0.49454 0.12739 0.18908
 N378 N 0.48702 0.20589 0.17333
 C379 C 0.53745 0.29656 0.14798
 H380 H 0.54033 0.28881 0.12270
 C381 C 0.54924 0.32787 0.16044
 H382 H 0.56145 0.34419 0.14480
 C383 C 0.51674 0.28519 0.19877
 H384 H 0.50363 0.26860 0.21338
 C385 C 0.52813 0.31653 0.21224
 H386 H 0.52384 0.32403 0.23728
 Zn387 Zn 0.50227 0.23671 0.14459
 N388 N 0.52102 0.27617 0.16693
 C389 C 0.45692 0.27785 0.11872
 N390 N 0.46543 0.24644 0.11760
 C391 C 0.44614 0.22192 0.10033
 C392 C 0.41694 0.22870 0.08332
 C393 C 0.42813 0.28563 0.10215
 C394 C 0.56392 0.21563 0.13732
 C395 C 0.58991 0.20324 0.12175
 C396 C 0.55658 0.19897 0.07050
 C397 C 0.53107 0.21156 0.08711
 N398 N 0.53511 0.21923 0.12002
 H399 H 0.47192 0.29694 0.13318
 H400 H 0.45307 0.19704 0.10043
 H401 H 0.40153 0.20911 0.06982
 H402 H 0.42154 0.31071 0.10347
 H403 H 0.56656 0.22228 0.16338
 H404 H 0.61261 0.20016 0.13588
 H405 H 0.55318 0.19254 0.04439
 H406 H 0.50814 0.21509 0.07376
 C407 C 0.54409 0.33817 0.19265
 C408 C 0.45739 0.15721 0.20692
 C409 C 0.58624 0.19471 0.08808
 C410 C 0.40782 0.26088 0.08453
 C411 C 0.95907 0.71218 0.69113
 H412 H 0.94919 0.73582 0.69026
 C413 C 0.94378 0.68797 0.70830
 H414 H 0.92228 0.69307 0.72098
 C415 C 0.99761 0.67570 0.67371
 H416 H 1.01779 0.67052 0.65927
 C417 C 0.98313 0.65091 0.69060
 H418 H 0.99252 0.62694 0.68937
 N419 N 0.98526 0.70557 0.67398
 C420 C 1.03597 0.79621 0.64898
 H421 H 1.03863 0.78862 0.62362
 C422 C 1.04801 0.82739 0.66161
 H423 H 1.06019 0.84378 0.64601
 C424 C 1.01559 0.78456 0.69985
 H425 H 1.00253 0.76791 0.71443
 C426 C 1.02724 0.81576 0.71349
 H427 H 1.02319 0.82310 0.73863
 Zn428 Zn 1.00061 0.73648 0.64538
 N429 N 1.01959 0.77576 0.66790
 C430 C 0.95543 0.77798 0.61990
 N431 N 0.96384 0.74653 0.61848
 C432 C 0.94456 0.72221 0.60090
 C433 C 0.91550 0.72925 0.58380
 C434 C 0.92677 0.78601 0.60325
 C435 C 1.06212 0.71515 0.63798
 C436 C 1.08808 0.70278 0.62233
 C437 C 1.05482 0.69904 0.57106
 C438 C 1.02934 0.71159 0.58774
 N439 N 1.03336 0.71899 0.62070
 H440 H 0.97040 0.79690 0.63461
 H441 H 0.95141 0.69729 0.60077
 H442 H 0.90011 0.70983 0.57001
 H443 H 0.92027 0.81112 0.60477
 H444 H 1.06474 0.72159 0.66408
 H445 H 1.11074 0.69951 0.63645
 H446 H 1.05144 0.69284 0.54492
 H447 H 1.00646 0.71533 0.57441
 C448 C 1.04317 0.83748 0.69396
 C449 C 0.95565 0.65690 0.70759
 C450 C 1.08442 0.69454 0.58862
 C451 C 0.90650 0.76148 0.58526
 C452 C 0.51021 0.72793 0.34705
 H453 H 0.52264 0.75213 0.34886
 C454 C 0.52173 0.70282 0.32745
 H455 H 0.54304 0.70768 0.31400
 C456 C 0.46832 0.69151 0.36374
 H457 H 0.44812 0.68698 0.37863
 C458 C 0.47908 0.66568 0.34446
 H459 H 0.46699 0.64140 0.34437
 N460 N 0.48402 0.72189 0.36476
 C461 C 0.44777 0.81686 0.38897
 H462 H 0.44782 0.81622 0.41526
 C463 C 0.43657 0.84367 0.37377
 H464 H 0.42793 0.86376 0.38842
 C465 C 0.45850 0.79115 0.33773
 H466 H 0.46663 0.77044 0.32377
 C467 C 0.44746 0.81751 0.32150
 H468 H 0.44731 0.81706 0.29507
 Zn469 Zn 0.47296 0.75624 0.39396
 N470 N 0.45876 0.79148 0.37092
 C471 C 0.52469 0.80101 0.42167
 N472 N 0.51129 0.76975 0.42127
 C473 C 0.52702 0.74665 0.43704
 C474 C 0.55790 0.75446 0.45338
 C475 C 0.55538 0.80985 0.43779
 C476 C 0.40883 0.73376 0.40129
 C477 C 0.38204 0.72207 0.41722
 C478 C 0.41598 0.72776 0.46815
 C479 C 0.44220 0.73939 0.45124
 N480 N 0.43827 0.74162 0.41830
 H481 H 0.51237 0.81882 0.40830
 H482 H 0.51615 0.72181 0.43572
 H483 H 0.57081 0.73567 0.46481
 H484 H 0.56633 0.83450 0.43698
 H485 H 0.40638 0.73613 0.37517
 H486 H 0.35889 0.71516 0.40335
 H487 H 0.41938 0.72533 0.49424
 H488 H 0.46567 0.74627 0.46433
 C489 C 0.43648 0.84403 0.33973
 C490 C 0.50621 0.67136 0.32639
 C491 C 0.38572 0.71880 0.45089
 C492 C 0.57238 0.78627 0.45330
 C493 C 0.37122 -0.03044 0.27418
 C494 C 0.35293 -0.03852 0.24053
 C495 C 0.33686 -0.01319 0.22923
 C496 C 0.34030 0.01791 0.25274
 C497 C 0.39377 0.00021 0.27036
 C498 C 0.37748 0.02551 0.25910
 C499 C 0.34548 -0.01894 0.29647
 C500 C 0.32935 0.00638 0.28541
 H501 H 0.35452 -0.06134 0.22592
 H502 H 0.32691 0.03843 0.24364
 H503 H 0.42022 0.00124 0.27449
 H504 H 0.34244 -0.02795 0.32042
 C505 C 0.08627 1.05111 0.75776
 C506 C 0.10245 1.06086 0.72716
 C507 C 0.12272 1.03869 0.71570
 C508 C 0.12511 1.00867 0.73591
 C509 C 0.06898 1.01708 0.74837
 C510 C 0.08948 0.99489 0.73701
 C511 C 0.11453 1.04529 0.78251
 C512 C 0.13474 1.02294 0.77118
 H513 H 0.09821 1.08329 0.71554
 H514 H 0.14176 0.99071 0.72647
 H515 H 0.04337 1.01081 0.75161
 H516 H 0.11606 1.05489 0.80796
 C517 C 0.58596 0.55211 0.25591
 C518 C 0.60211 0.56199 0.22534
 C519 C 0.62245 0.53991 0.21382
 C520 C 0.62493 0.50985 0.23396
 C521 C 0.56877 0.51805 0.24644
 C522 C 0.58933 0.49595 0.23503
 C523 C 0.61425 0.54631 0.28063
 C524 C 0.63453 0.52405 0.26926
 H525 H 0.59786 0.58446 0.21381
 H526 H 0.64163 0.49196 0.22447
 H527 H 0.54319 0.51168 0.24975
 H528 H 0.61576 0.55584 0.30610
 C529 C 0.86984 0.46935 0.77533
 C530 C 0.85166 0.46120 0.74164
 C531 C 0.83554 0.48647 0.73028
 C532 C 0.83884 0.51759 0.75376
 C533 C 0.89234 0.50006 0.77153
 C534 C 0.87600 0.52530 0.76020
 C535 C 0.84402 0.48080 0.79754
 C536 C 0.82784 0.50605 0.78641
 H537 H 0.85339 0.43840 0.72704
 H538 H 0.82541 0.53805 0.74460
 H539 H 0.91879 0.50115 0.77570
 H540 H 0.84098 0.47183 0.82150
 C541 C 0.27422 0.36920 -0.03051
 C542 C 0.24058 0.35101 -0.03864
 C543 C 0.22932 0.33488 -0.01331
 C544 C 0.25285 0.33816 0.01784
 C545 C 0.27049 0.39166 0.00024
 C546 C 0.25926 0.37531 0.02554
 C547 C 0.29645 0.34338 -0.01906
 C548 C 0.28543 0.32719 0.00626
 H549 H 0.22595 0.35275 -0.06147
 H550 H 0.24378 0.32472 0.03835
 H551 H 0.27463 0.41811 0.00132
 H552 H 0.32038 0.34039 -0.02804
 C553 C 0.75823 0.08617 1.05142
 C554 C 0.72775 0.10245 1.06119
 C555 C 0.71625 0.12269 1.03893
 C556 C 0.73631 0.12496 1.00881
 C557 C 0.74870 0.06882 1.01739
 C558 C 0.73731 0.08930 0.99511
 C559 C 0.78295 0.11435 1.04544
 C560 C 0.77160 0.13453 1.02300
 H561 H 0.71621 0.09827 1.08368
 H562 H 0.72685 0.14159 0.99078
 H563 H 0.75187 0.04320 1.01118
 H564 H 0.80840 0.11583 1.05500
 C565 C 0.25679 0.58674 0.55151
 C566 C 0.22620 0.60278 0.56134
 C567 C 0.21455 0.62299 0.53912
 C568 C 0.23458 0.62546 0.50900
 C569 C 0.24735 0.56942 0.51746
 C570 C 0.23581 0.58986 0.49523
 C571 C 0.28134 0.61509 0.54558
 C572 C 0.26982 0.63524 0.52319
 H573 H 0.21472 0.59850 0.58384
 H574 H 0.22498 0.64207 0.49101
 H575 H 0.25077 0.54386 0.51118
 H576 H 0.30680 0.61670 0.55511
 C577 C 0.77410 0.87094 0.46977
 C578 C 0.74045 0.85283 0.46152
 C579 C 0.72905 0.83668 0.48677
 C580 C 0.75247 0.83987 0.51800
 C581 C 0.77033 0.89337 0.50054
 C582 C 0.75898 0.87701 0.52577
 C583 C 0.79623 0.84503 0.48126
 C584 C 0.78506 0.82883 0.50651
 H585 H 0.72592 0.85457 0.43862
 H586 H 0.74328 0.82642 0.53845
 H587 H 0.77465 0.91981 0.50171
 H588 H 0.82017 0.84198 0.47235
 C589 C -0.03000 0.27464 0.37087
 C590 C -0.03836 0.24107 0.35264
 C591 C -0.01319 0.22965 0.33644
 C592 C 0.01804 0.25296 0.33970
 C593 C 0.00073 0.27067 0.39333
 C594 C 0.02586 0.25928 0.37691
 C595 C -0.01849 0.29684 0.34500
 C596 C 0.00666 0.28564 0.32874
 H597 H -0.06125 0.22660 0.35435
 H598 H 0.03842 0.24375 0.32621
 H599 H 0.00190 0.27480 0.41982
 H600 H -0.02735 0.32081 0.34197
 C601 C 1.05132 0.75734 0.08549
 C602 C 1.06125 0.72677 0.10158
 C603 C 1.03919 0.71514 0.12193
 C604 C 1.00912 0.73517 0.12448
 C605 C 1.01724 0.74789 0.06827
 C606 C 0.99518 0.73636 0.08886
 C607 C 1.04554 0.78190 0.11388
 C608 C 1.02330 0.77041 0.13417
 H609 H 1.08368 0.71527 0.09721
 H610 H 0.99126 0.72559 0.14120
 H611 H 1.01084 0.75123 0.04267
 H612 H 1.05503 0.80735 0.11542
 C613 C 0.55193 0.25696 0.58600
 C614 C 0.56183 0.22645 0.60223
 C615 C 0.53974 0.21490 0.62258
 C616 C 0.50965 0.23492 0.62498
 C617 C 0.51788 0.24744 0.56874
 C618 C 0.49578 0.23599 0.58932
 C619 C 0.54607 0.28161 0.61429
 C620 C 0.52381 0.27018 0.63457
 H621 H 0.58432 0.21498 0.59801
 H622 H 0.49176 0.22540 0.64170
 H623 H 0.51153 0.25070 0.54311
 H624 H 0.55559 0.30706 0.61578
 C625 C 0.46946 0.77475 0.87055
 C626 C 0.46121 0.74116 0.85231
 C627 C 0.48649 0.72973 0.83632
 C628 C 0.51773 0.75305 0.83977
 C629 C 0.50004 0.77080 0.89322
 C630 C 0.52529 0.75940 0.87700
 C631 C 0.48116 0.79692 0.84475
 C632 C 0.50644 0.78572 0.82870
 H633 H 0.43832 0.72667 0.85394
 H634 H 0.53820 0.74383 0.82644
 H635 H 0.50104 0.77495 0.91970
 H636 H 0.47237 0.82092 0.84168
 C637 C 0.42495 -0.13026 0.32456
 C638 C 0.41415 -0.10740 0.31182
 C639 C 0.40056 -0.08062 0.29782
 C640 C 0.38795 -0.05785 0.28667
 C641 C 0.92385 0.36969 0.82574
 C642 C 0.91297 0.39254 0.81305
 C643 C 0.89930 0.41929 0.79906
 C644 C 0.88664 0.44201 0.78789
 C645 C 0.01998 1.14360 0.81069
 C646 C 0.03283 1.12161 0.79705
 C647 C 0.04950 1.09640 0.78224
 C648 C 0.06522 1.07551 0.77060
 C649 C 0.51981 0.64465 0.30896
 C650 C 0.53257 0.62259 0.29531
 C651 C 0.54918 0.59735 0.28048
 C652 C 0.56488 0.57645 0.26880
 C653 C 0.55376 0.37148 0.20447
 C654 C 0.56174 0.39980 0.21273
 C655 C 0.57109 0.43322 0.22103
 C656 C 0.57922 0.46182 0.22750
 C657 C 0.05312 0.87068 0.70597
 C658 C 0.06133 0.89892 0.71438
 C659 C 0.07091 0.93226 0.72282
 C660 C 0.07921 0.96081 0.72938
 C661 C 0.93832 0.63033 0.72172
 C662 C 0.92383 0.60722 0.73215
 C663 C 0.90697 0.57934 0.74297
 C664 C 0.89276 0.55498 0.75126
 C665 C 0.44002 0.13061 0.22095
 C666 C 0.42548 0.10747 0.23129
 C667 C 0.40856 0.07957 0.24202
 C668 C 0.39430 0.05520 0.25023
 C669 C 0.32464 0.42381 -0.12989
 C670 C 0.31187 0.41273 -0.10717
 C671 C 0.29784 0.39885 -0.08054
 C672 C 0.28669 0.38606 -0.05786
 C673 C 0.82441 0.92496 0.37002
 C674 C 0.81175 0.91410 0.39290
 C675 C 0.79780 0.90043 0.41968
 C676 C 0.78666 0.88776 0.44243
 C677 C 0.81110 0.02026 1.14454
 C678 C 0.79750 0.03298 1.12236
 C679 C 0.78272 0.04953 1.09697
 C680 C 0.77109 0.06518 1.07594
 C681 C 0.31022 0.52063 0.64415
 C682 C 0.29651 0.53344 0.62211
 C683 C 0.28158 0.55007 0.59687
 C684 C 0.26982 0.56575 0.57595
 C685 C 0.20520 0.55359 0.37076
 C686 C 0.21349 0.56177 0.39907
 C687 C 0.22180 0.57133 0.43249
 C688 C 0.22827 0.57961 0.46109
 C689 C 0.70568 0.05296 0.87079
 C690 C 0.71423 0.06112 0.89906
 C691 C 0.72284 0.07067 0.93244
 C692 C 0.72954 0.07898 0.96101
 C693 C 0.72163 0.93927 0.63138
 C694 C 0.73179 0.92476 0.60814
 C695 C 0.74229 0.90790 0.58009
 C696 C 0.75031 0.89371 0.55560
 C697 C 0.22122 0.43804 0.13053
 C698 C 0.23154 0.42338 0.10747
 C699 C 0.24224 0.40638 0.07962
 C700 C 0.25042 0.39208 0.05526
 C701 C -0.12933 0.32540 0.42488
 C702 C -0.10653 0.31262 0.41405
 C703 C -0.07987 0.29853 0.40040
 C704 C -0.05722 0.28728 0.38773
 C705 C 0.36985 0.82554 0.92403
 C706 C 0.39267 0.81274 0.91327
 C707 C 0.41939 0.79864 0.89975
 C708 C 0.44211 0.78739 0.88721
 C709 C 1.14374 0.81094 0.01945
 C710 C 1.12171 0.79716 0.03216
 C711 C 1.09649 0.78217 0.04872
 C712 C 1.07563 0.77037 0.06441
 C713 C 0.64436 0.31040 0.51988
 C714 C 0.62233 0.29664 0.53261
 C715 C 0.59712 0.28167 0.54920
 C716 C 0.57626 0.26991 0.56491
 C717 C 0.37143 0.20484 0.55346
 C718 C 0.39971 0.21325 0.56152
 C719 C 0.43310 0.22171 0.57094
 C720 C 0.46167 0.22831 0.57913
 C721 C 0.87074 0.70517 0.05354
 C722 C 0.89905 0.71358 0.06142
 C723 C 0.93247 0.72207 0.07066
 C724 C 0.96106 0.72868 0.07874
 C725 C 0.63011 0.72076 0.93967
 C726 C 0.60703 0.73121 0.92514
 C727 C 0.57919 0.74207 0.90821
 C728 C 0.55489 0.75040 0.89391
 C729 C 0.13092 0.22052 0.43906
 C730 C 0.10780 0.23100 0.42460
 C731 C 0.07991 0.24189 0.40779
 C732 C 0.05554 0.25025 0.39362
 C733 C 0.57365 0.11189 0.68140
 C734 C 0.56257 0.13489 0.66905
 C735 C 0.55203 0.16249 0.65385
 C736 C 0.54519 0.18634 0.64010
 C737 C 1.07295 0.61154 0.17980
 C738 C 1.06189 0.63466 0.16766
 C739 C 1.05139 0.66242 0.15272
 C740 C 1.04459 0.68641 0.13919
 C741 C 0.96770 0.85976 0.20340
 C742 C 0.98078 0.83779 0.18999
 C743 C 0.99570 0.81288 0.17257
 C744 C 1.00831 0.79271 0.15604
 C745 C 0.46828 0.35959 0.70382
 C746 C 0.48134 0.33762 0.69038
 C747 C 0.49625 0.31271 0.67294
 C748 C 0.50883 0.29252 0.65642
 C749 C 0.46623 0.60637 0.79414
 C750 C 0.47427 0.63476 0.80187
 C751 C 0.48114 0.66812 0.81229
 C752 C 0.48480 0.69644 0.82247
 C753 C -0.03396 0.10651 0.29359
 C754 C -0.02581 0.13487 0.30144
 C755 C -0.01880 0.16816 0.31204
 C756 C -0.01502 0.19642 0.32239
 C757 C 0.06835 0.37738 0.26995
 C758 C 0.05481 0.35352 0.27991
 C759 C 0.03891 0.32733 0.29442
 C760 C 0.02474 0.30697 0.30900
 C761 C 0.56897 0.87761 0.77081
 C762 C 0.55528 0.85373 0.78058
 C763 C 0.53914 0.82751 0.79484
 C764 C 0.52477 0.80711 0.80921
 C765 C 0.68102 0.57429 0.11080
 C766 C 0.66874 0.56302 0.13377
 C767 C 0.65362 0.55232 0.16137
 C768 C 0.63993 0.54539 0.18524
 C769 C 0.18094 1.07207 0.61213
 C770 C 0.16873 1.06106 0.63526
 C771 C 0.15370 1.05065 0.66302
 C772 C 0.14008 1.04395 0.68700
 C773 C 0.20401 0.96753 0.86099
 C774 C 0.19055 0.98059 0.83895
 C775 C 0.17310 0.99546 0.81393
 C776 C 0.15657 1.00800 0.79365
 C777 C 0.70389 0.46867 0.35900
 C778 C 0.69041 0.48170 0.33696
 C779 C 0.67294 0.49656 0.31195
 C780 C 0.65639 0.50911 0.29169
 C781 C 0.79354 0.46656 0.60662
 C782 C 0.80119 0.47453 0.63509
 C783 C 0.81155 0.48131 0.66853
 C784 C 0.82171 0.48489 0.69691
 C785 C 0.29391 -0.03308 0.10583
 C786 C 0.30179 -0.02511 0.13426
 C787 C 0.31242 -0.01833 0.16764
 C788 C 0.32280 -0.01475 0.19595
 C789 C 0.27079 0.06779 0.37747
 C790 C 0.28073 0.05433 0.35356
 C791 C 0.29520 0.03851 0.32730
 C792 C 0.30971 0.02440 0.30685
 C793 C 0.76943 0.56764 0.87845
 C794 C 0.77931 0.55412 0.85454
 C795 C 0.79371 0.53825 0.82827
 C796 C 0.80820 0.52411 0.80783
 C797 C 0.11100 0.68070 0.57286
 C798 C 0.13411 0.66861 0.56176
 C799 C 0.16184 0.65373 0.55124
 C800 C 0.18583 0.64023 0.54445
 C801 C 0.61283 0.18079 1.07241
 C802 C 0.63593 0.16864 1.06137
 C803 C 0.66364 0.15365 1.05091
 C804 C 0.68760 0.14006 1.04419
 C805 C 0.86126 0.20341 0.96723
 C806 C 0.83924 0.19003 0.98033
 C807 C 0.81426 0.17268 0.99528
 C808 C 0.79401 0.15625 1.00792
 C809 C 0.35907 0.70436 0.46717
 C810 C 0.33712 0.69095 0.48032
 C811 C 0.31225 0.67355 0.49535
 C812 C 0.29210 0.65705 0.50806
 C813 C 0.60581 0.79419 0.46577
 C814 C 0.63417 0.80195 0.47405
 C815 C 0.66749 0.81244 0.48117
 C816 C 0.69578 0.82272 0.48499
 C817 C 0.10588 0.29270 -0.03315
 C818 C 0.13431 0.30041 -0.02519
 C819 C 0.16770 0.31081 -0.01842
 C820 C 0.19603 0.32101 -0.01487
 C821 C 0.37793 0.26934 0.06797
 C822 C 0.35390 0.27906 0.05447
 C823 C 0.32751 0.29330 0.03858
 C824 C 0.30697 0.30767 0.02440
 C825 C 0.87680 0.77021 0.56853
 C826 C 0.85296 0.78015 0.55491
 C827 C 0.82679 0.79462 0.53890
 C828 C 0.80642 0.80915 0.52466
   
