data_POSCAR
  _audit_creation_date              2014-09-24
  _audit_creation_method            'ToBaCCo'
  _symmetry_space_group_name_H-M    'P1'
  _symmetry_Int_Tables_number       1
  _symmetry_cell_setting            triclinic
  loop_
  _symmetry_equiv_pos_as_xyz
 x,y,z
_cell_length_a 52.5200
_cell_length_b 52.3812
_cell_length_c 43.4259
_cell_angle_alpha 90.031100
_cell_angle_beta 90.015100
_cell_angle_gamma 88.099100
loop_
  _atom_site_label
  _atom_site_type_symbol
  _atom_site_fract_x
  _atom_site_fract_y
  _atom_site_fract_z
O1 O 0.03920 0.28655 -0.02799
 O2 O -0.00942 0.28524 0.03375
 O3 O 0.04057 0.28248 0.03164
 O4 O -0.01067 0.29155 -0.02532
 O5 O -0.01292 0.24973 -0.03021
 O6 O 0.03887 0.24066 0.02631
 O7 O -0.01024 0.24337 0.02920
 O8 O 0.03623 0.24485 -0.03342
 Cu9 Cu 0.01517 0.29066 0.00354
 Cu10 Cu 0.01281 0.24049 -0.00258
 C11 C 0.04585 0.26574 -0.04131
 C12 C -0.01813 0.26391 0.04207
 C13 C 0.04852 0.26009 0.03867
 C14 C -0.02072 0.27220 -0.03728
 O15 O 0.45330 0.79612 0.53230
 O16 O 0.50351 0.79442 0.47307
 O17 O 0.45350 0.79630 0.47280
 O18 O 0.50333 0.79359 0.53313
 O19 O 0.50234 0.75151 0.53274
 O20 O 0.45367 0.75415 0.47201
 O21 O 0.50301 0.75231 0.47251
 O22 O 0.45296 0.75399 0.53172
 Cu23 Cu 0.47857 0.79935 0.50289
 Cu24 Cu 0.47806 0.74879 0.50221
 C25 C 0.44433 0.77533 0.54183
 C26 C 0.51177 0.77306 0.46258
 C27 C 0.44498 0.77558 0.46229
 C28 C 0.51118 0.77199 0.54337
 O29 O 0.95517 0.71078 -0.02926
 O30 O 1.00292 0.70741 0.03385
 O31 O 0.95307 0.70916 0.03017
 O32 O 1.00517 0.70566 -0.02604
 O33 O 1.00670 0.74764 -0.02645
 O34 O 0.95431 0.75125 0.03031
 O35 O 1.00367 0.74951 0.03380
 O36 O 0.95781 0.75268 -0.02946
 Cu37 Cu 0.97903 0.70405 0.00214
 Cu38 Cu 0.98086 0.75442 0.00212
 C39 C 0.94831 0.73255 -0.04013
 C40 C 1.01121 0.72813 0.04472
 C41 C 0.94461 0.73071 0.03967
 C42 C 1.01484 0.72592 -0.03612
 O43 O 0.54010 0.20832 0.53118
 O44 O 0.49135 0.21012 0.47017
 O45 O 0.54124 0.20801 0.47151
 O46 O 0.49035 0.21055 0.53026
 O47 O 0.49117 0.25265 0.53003
 O48 O 0.54130 0.25015 0.47108
 O49 O 0.49204 0.25222 0.46981
 O50 O 0.54033 0.25045 0.53095
 Cu51 Cu 0.51563 0.20500 0.50078
 Cu52 Cu 0.51617 0.25558 0.50041
 C53 C 0.54854 0.22911 0.54145
 C54 C 0.48352 0.23151 0.45942
 C55 C 0.54998 0.22872 0.46133
 C56 C 0.48232 0.23210 0.54045
 O57 O 0.72892 0.03582 -0.03394
 O58 O 0.72650 -0.01251 0.02777
 O59 O 0.72904 0.03727 0.02587
 O60 O 0.72568 -0.01397 -0.03217
 O61 O 0.76766 -0.01762 -0.03254
 O62 O 0.77101 0.03330 0.02543
 O63 O 0.76843 -0.01574 0.02766
 O64 O 0.77086 0.03159 -0.03452
 Cu65 Cu 0.72331 0.01200 -0.00311
 Cu66 Cu 0.77367 0.00745 -0.00357
 C67 C 0.75037 0.04194 -0.04474
 C68 C 0.74715 -0.02224 0.03855
 C69 C 0.75064 0.04397 0.03561
 C70 C 0.74614 -0.02447 -0.04234
 O71 O 0.20840 0.50970 0.46881
 O72 O 0.20683 0.46130 0.53042
 O73 O 0.20697 0.51129 0.52877
 O74 O 0.20758 0.45979 0.47078
 O75 O 0.24963 0.45839 0.47162
 O76 O 0.24900 0.50927 0.53009
 O77 O 0.24888 0.45988 0.53151
 O78 O 0.25043 0.50774 0.46996
 Cu79 Cu 0.20321 0.48576 0.49959
 Cu80 Cu 0.25368 0.48370 0.50091
 C81 C 0.22974 0.51687 0.45876
 C82 C 0.22768 0.45228 0.54140
 C83 C 0.22790 0.51895 0.53949
 C84 C 0.22873 0.45028 0.46134
 O85 O 0.29142 0.95842 -0.03330
 O86 O 0.29214 1.00716 0.02817
 O87 O 0.29275 0.95709 0.02623
 O88 O 0.29099 1.00871 -0.03169
 O89 O 0.24903 1.00932 -0.03062
 O90 O 0.25071 0.95834 0.02733
 O91 O 0.25012 1.00780 0.02940
 O92 O 0.24944 0.96008 -0.03248
 Cu93 Cu 0.29606 0.98281 -0.00280
 Cu94 Cu 0.24565 0.98402 -0.00145
 C95 C 0.27022 0.95079 -0.04334
 C96 C 0.27118 1.01574 0.03932
 C97 C 0.27192 0.94883 0.03652
 C98 C 0.26965 1.01787 -0.04113
 O99 O 0.80236 0.48858 0.46269
 O100 O 0.80383 0.53475 0.52708
 O101 O 0.80553 0.48472 0.52224
 O102 O 0.80232 0.53854 0.46766
 O103 O 0.76031 0.53896 0.46977
 O104 O 0.76353 0.48545 0.52480
 O105 O 0.76184 0.53477 0.52929
 O106 O 0.76034 0.48970 0.46498
 Cu107 Cu 0.80775 0.51154 0.49469
 Cu108 Cu 0.75732 0.51220 0.49744
 C109 C 0.78096 0.48138 0.45285
 C110 C 0.78292 0.54275 0.53899
 C111 C 0.78508 0.47592 0.53288
 C112 C 0.78079 0.54805 0.45954
 O113 O 0.25498 0.25779 0.20282
 O114 O 0.31067 0.24175 0.25133
 O115 O 0.28923 0.22053 0.20390
 O116 O 0.27724 0.27873 0.24979
 O117 O 0.25251 0.25746 0.28106
 O118 O 0.26459 0.19910 0.23510
 O119 O 0.28633 0.21997 0.28255
 O120 O 0.23071 0.23591 0.23400
 Cu121 Cu 0.28545 0.25180 0.22371
 Cu122 Cu 0.25609 0.22597 0.26137
 C123 C 0.23337 0.24935 0.20997
 C124 C 0.30794 0.22846 0.27550
 C125 C 0.27878 0.19991 0.21146
 C126 C 0.26315 0.27800 0.27351
 O127 O 0.73913 0.81022 0.25220
 O128 O 0.75054 0.75088 0.29661
 O129 O 0.77378 0.77467 0.25244
 O130 O 0.71590 0.78797 0.29794
 O131 O 0.69338 0.76610 0.26479
 O132 O 0.75129 0.75364 0.21844
 O133 O 0.72788 0.72992 0.26272
 O134 O 0.71558 0.78921 0.21923
 Cu135 Cu 0.74699 0.78302 0.27836
 Cu136 Cu 0.71977 0.75760 0.23792
 C137 C 0.72581 0.80966 0.22779
 C138 C 0.74099 0.73026 0.28727
 C139 C 0.77236 0.76245 0.22729
 C140 C 0.69484 0.77904 0.28945
 O141 O 0.80052 0.25522 0.23699
 O142 O 0.74244 0.24569 0.28264
 O143 O 0.76428 0.22327 0.23513
 O144 O 0.77958 0.27768 0.28454
 O145 O 0.75739 0.30360 0.25389
 O146 O 0.74251 0.24916 0.20401
 O147 O 0.72088 0.27177 0.25157
 O148 O 0.77898 0.28186 0.20650
 Cu149 Cu 0.77379 0.24784 0.26302
 Cu150 Cu 0.74771 0.27912 0.22582
 C151 C 0.79964 0.27016 0.21396
 C152 C 0.72177 0.25735 0.27507
 C153 C 0.75119 0.22694 0.21085
 C154 C 0.77108 0.29995 0.27771
 O155 O 0.19278 0.74028 0.24107
 O156 O 0.25020 0.75257 0.28750
 O157 O 0.22626 0.77538 0.24182
 O158 O 0.21515 0.71835 0.28807
 O159 O 0.23904 0.69498 0.25631
 O160 O 0.24979 0.75242 0.20930
 O161 O 0.27330 0.72918 0.25497
 O162 O 0.21627 0.71661 0.20924
 Cu163 Cu 0.21881 0.74899 0.26788
 Cu164 Cu 0.24694 0.72103 0.22915
 C165 C 0.19479 0.72632 0.21716
 C166 C 0.27156 0.74262 0.27925
 C167 C 0.23957 0.77371 0.21749
 C168 C 0.22526 0.69696 0.28032
 O169 O 0.72057 0.27362 0.74983
 O170 O 0.78132 0.28074 0.79132
 O171 O 0.75624 0.30620 0.74807
 O172 O 0.74411 0.24908 0.79389
 O173 O 0.76484 0.22500 0.75981
 O174 O 0.77595 0.28246 0.71287
 O175 O 0.80100 0.25704 0.75607
 O176 O 0.74057 0.24889 0.71580
 Cu177 Cu 0.74872 0.27990 0.77434
 Cu178 Cu 0.77267 0.25107 0.73259
 C179 C 0.72029 0.25989 0.72570
 C180 C 0.80146 0.26962 0.78101
 C181 C 0.76744 0.30412 0.72226
 C182 C 0.75241 0.22731 0.78484
 O183 O 0.26379 0.73303 0.73917
 O184 O 0.20427 0.72608 0.78246
 O185 O 0.22755 0.70106 0.73750
 O186 O 0.24070 0.75866 0.78292
 O187 O 0.21945 0.78236 0.74887
 O188 O 0.20646 0.72491 0.70356
 O189 O 0.18368 0.75045 0.74855
 O190 O 0.24330 0.75733 0.70514
 Cu191 Cu 0.23605 0.72725 0.76397
 Cu192 Cu 0.21114 0.75599 0.72290
 C193 C 0.26372 0.74630 0.71472
 C194 C 0.18400 0.73769 0.77341
 C195 C 0.21516 0.70323 0.71246
 C196 C 0.23196 0.78028 0.77381
 O197 O 0.27721 0.28151 0.75311
 O198 O 0.28903 0.22235 0.79734
 O199 O 0.31017 0.24412 0.74993
 O200 O 0.25532 0.26028 0.80000
 O201 O 0.23020 0.23991 0.76829
 O202 O 0.28514 0.22285 0.71899
 O203 O 0.26306 0.20210 0.76650
 O204 O 0.25209 0.26094 0.72155
 Cu205 Cu 0.28546 0.25403 0.77837
 Cu206 Cu 0.25516 0.22932 0.74067
 C207 C 0.26287 0.28127 0.72956
 C208 C 0.27774 0.20222 0.78973
 C209 C 0.30695 0.23108 0.72564
 C210 C 0.23331 0.25291 0.79261
 O211 O 0.72376 0.71521 0.74525
 O212 O 0.71289 0.77368 0.79127
 O213 O 0.69038 0.75271 0.74387
 O214 O 0.74620 0.73557 0.79205
 O215 O 0.77063 0.75725 0.76081
 O216 O 0.71493 0.77395 0.71239
 O217 O 0.73763 0.79459 0.75966
 O218 O 0.74880 0.73616 0.71403
 Cu219 Cu 0.71574 0.74229 0.77128
 Cu220 Cu 0.74532 0.76764 0.73342
 C221 C 0.73828 0.71566 0.72188
 C222 C 0.72389 0.79399 0.78369
 C223 C 0.69317 0.76590 0.71963
 C224 C 0.76793 0.74365 0.78473
 C225 C 0.24903 0.05784 0.10545
 C226 C 0.26964 0.07428 0.10952
 C227 C 0.29099 0.07086 0.08976
 C228 C 0.29179 0.05122 0.06766
 C229 C 0.27109 0.03532 0.06385
 C230 C 0.24977 0.03887 0.08289
 C231 C 0.31123 0.08735 0.09174
 C232 C 0.31041 0.10783 0.11209
 C233 C 0.28946 0.11227 0.13199
 C234 C 0.26941 0.09442 0.13180
 C235 C 0.24990 0.09720 0.15404
 C236 C 0.24923 0.11743 0.17469
 C237 C 0.26758 0.13602 0.17365
 C238 C 0.28791 0.13388 0.15221
 C239 C 0.30536 0.15393 0.15130
 C240 C 0.30256 0.17508 0.17077
 C241 C 0.28257 0.17687 0.19207
 C242 C 0.26535 0.15705 0.19364
 H243 H 0.23168 0.05964 0.11861
 H244 H 0.30822 0.04886 0.05269
 H245 H 0.23346 0.02692 0.08029
 H246 H 0.32771 0.08471 0.07691
 H247 H 0.32682 0.11963 0.11209
 H248 H 0.23502 0.08369 0.15651
 H249 H 0.23382 0.11879 0.19129
 H250 H 0.32089 0.15430 0.13513
 H251 H 0.31604 0.19022 0.16897
 H252 H 0.24958 0.15842 0.20974
 C253 C 0.80113 0.59892 0.58815
 C254 C 0.77912 0.60304 0.60666
 C255 C 0.75967 0.58500 0.60449
 C256 C 0.76148 0.56500 0.58305
 C257 C 0.78272 0.56208 0.56376
 C258 C 0.80282 0.57873 0.56710
 C259 C 0.73819 0.58724 0.62322
 C260 C 0.73525 0.60728 0.64390
 C261 C 0.75350 0.62638 0.64620
 C262 C 0.77559 0.62449 0.62686
 C263 C 0.79284 0.64459 0.62748
 C264 C 0.78861 0.66591 0.64602
 C265 C 0.76742 0.66784 0.66531
 C266 C 0.74993 0.64781 0.66639
 C267 C 0.72951 0.65019 0.68762
 C268 C 0.72608 0.67199 0.70581
 C269 C 0.74273 0.69220 0.70349
 C270 C 0.76354 0.68987 0.68340
 H271 H 0.81735 0.61093 0.58932
 H272 H 0.74604 0.55184 0.58105
 H273 H 0.81959 0.57666 0.55267
 H274 H 0.72333 0.57341 0.62172
 H275 H 0.71784 0.60771 0.65700
 H276 H 0.80948 0.64489 0.61300
 H277 H 0.80211 0.68111 0.64520
 H278 H 0.71594 0.63549 0.69104
 H279 H 0.71002 0.67316 0.72146
 H280 H 0.77685 0.70521 0.68191
 C281 C 0.76899 0.93418 0.10152
 C282 C 0.74593 0.92410 0.11207
 C283 C 0.72316 0.93166 0.09656
 C284 C 0.72352 0.94986 0.07276
 C285 C 0.74659 0.95987 0.06268
 C286 C 0.76928 0.95149 0.07716
 C287 C 0.70020 0.92077 0.10459
 C288 C 0.69948 0.90176 0.12688
 C289 C 0.72165 0.89362 0.14298
 C290 C 0.74487 0.90617 0.13680
 C291 C 0.76614 0.90068 0.15582
 C292 C 0.76526 0.88244 0.17892
 C293 C 0.74350 0.86837 0.18333
 C294 C 0.72142 0.87349 0.16523
 C295 C 0.70044 0.85751 0.16931
 C296 C 0.70164 0.83718 0.19015
 C297 C 0.72338 0.83258 0.20818
 C298 C 0.74402 0.84859 0.20514
 H299 H 0.78728 0.92839 0.11093
 H300 H 0.70580 0.95566 0.06157
 H301 H 0.78750 0.95850 0.06990
 H302 H 0.68266 0.92657 0.09301
 H303 H 0.68103 0.89426 0.13168
 H304 H 0.78366 0.91072 0.15391
 H305 H 0.78208 0.87883 0.19294
 H306 H 0.68332 0.85946 0.15570
 H307 H 0.68559 0.82478 0.19191
 H308 H 0.76115 0.84471 0.21854
 C309 C 0.20731 0.39688 0.59040
 C310 C 0.22897 0.39209 0.60926
 C311 C 0.24937 0.40905 0.60678
 C312 C 0.24865 0.42871 0.58486
 C313 C 0.22750 0.43249 0.56558
 C314 C 0.20664 0.41682 0.56902
 C315 C 0.27056 0.40618 0.62591
 C316 C 0.27216 0.38671 0.64752
 C317 C 0.25280 0.36879 0.65033
 C318 C 0.23117 0.37111 0.63032
 C319 C 0.21297 0.35187 0.63122
 C320 C 0.21583 0.33102 0.65078
 C321 C 0.23647 0.32881 0.67089
 C322 C 0.25484 0.34804 0.67170
 C323 C 0.27455 0.34559 0.69387
 C324 C 0.27664 0.32427 0.71305
 C325 C 0.25928 0.30466 0.71084
 C326 C 0.23900 0.30723 0.68999
 H327 H 0.19047 0.38574 0.59174
 H328 H 0.26467 0.44114 0.58278
 H329 H 0.18993 0.41959 0.55461
 H330 H 0.28617 0.41913 0.62413
 H331 H 0.28941 0.38569 0.66093
 H332 H 0.19667 0.35184 0.61617
 H333 H 0.20168 0.31642 0.65013
 H334 H 0.28857 0.35987 0.69722
 H335 H 0.29231 0.32291 0.72927
 H336 H 0.22515 0.29237 0.68856
 C337 C 0.93733 0.23744 0.09936
 C338 C 0.92404 0.25953 0.11024
 C339 C 0.93047 0.28342 0.09758
 C340 C 0.95042 0.28499 0.07610
 C341 C 0.96322 0.26279 0.06520
 C342 C 0.95627 0.23907 0.07707
 C343 C 0.91652 0.30551 0.10584
 C344 C 0.89558 0.30426 0.12532
 C345 C 0.88842 0.28089 0.13839
 C346 C 0.90395 0.25853 0.13234
 C347 C 0.89910 0.23599 0.14883
 C348 C 0.87884 0.23488 0.16922
 C349 C 0.86215 0.25586 0.17325
 C350 C 0.86642 0.27910 0.15760
 C351 C 0.84798 0.29925 0.16101
 C352 C 0.82638 0.29633 0.17932
 C353 C 0.82276 0.27355 0.19531
 C354 C 0.84088 0.25351 0.19247
 H355 H 0.93279 0.21845 0.10663
 H356 H 0.95514 0.30348 0.06687
 H357 H 0.96553 0.22146 0.06917
 H358 H 0.92140 0.32389 0.09647
 H359 H 0.88571 0.32213 0.13043
 H360 H 0.91114 0.21899 0.14709
 H361 H 0.87587 0.21718 0.18143
 H362 H 0.84921 0.31713 0.14894
 H363 H 0.81246 0.31199 0.18101
 H364 H 0.83791 0.23563 0.20434
 C365 C 0.38578 0.79742 0.58633
 C366 C 0.38002 0.77545 0.60367
 C367 C 0.39734 0.75415 0.60204
 C368 C 0.41840 0.75436 0.58216
 C369 C 0.42319 0.77589 0.56426
 C370 C 0.40706 0.79758 0.56706
 C371 C 0.39346 0.73258 0.61998
 C372 C 0.37271 0.73157 0.63964
 C373 C 0.35448 0.75194 0.64152
 C374 C 0.35774 0.77389 0.62247
 C375 C 0.33820 0.79307 0.62200
 C376 C 0.31628 0.79099 0.63957
 C377 C 0.31324 0.77016 0.65904
 C378 C 0.33261 0.75071 0.66103
 C379 C 0.32926 0.73084 0.68260
 C380 C 0.30715 0.72983 0.70027
 C381 C 0.28755 0.74839 0.69699
 C382 C 0.29081 0.76865 0.67649
 H383 H 0.37440 0.81489 0.58735
 H384 H 0.43110 0.73765 0.58058
 H385 H 0.41054 0.81457 0.55371
 H386 H 0.40665 0.71624 0.61882
 H387 H 0.37100 0.71403 0.65227
 H388 H 0.33883 0.80961 0.60733
 H389 H 0.30157 0.80594 0.63796
 H390 H 0.34351 0.71598 0.68677
 H391 H 0.30522 0.71413 0.71624
 H392 H 0.27593 0.78339 0.67428
 C393 C 0.04925 0.74982 0.11308
 C394 C 0.06794 0.72996 0.11664
 C395 C 0.06708 0.70886 0.09618
 C396 C 0.04781 0.70764 0.07371
 C397 C 0.02988 0.72782 0.07019
 C398 C 0.03077 0.74878 0.09011
 C399 C 0.08584 0.68942 0.09771
 C400 C 0.10613 0.69096 0.11813
 C401 C 0.10812 0.71181 0.13854
 C402 C 0.08794 0.73084 0.13898
 C403 C 0.08842 0.75008 0.16174
 C404 C 0.10861 0.75163 0.18220
 C405 C 0.12939 0.73445 0.18048
 C406 C 0.12957 0.71431 0.15860
 C407 C 0.15162 0.69806 0.15706
 C408 C 0.17250 0.70184 0.17629
 C409 C 0.17208 0.72166 0.19797
 C410 C 0.15026 0.73767 0.20021
 H411 H 0.04893 0.76694 0.12685
 H412 H 0.04748 0.69153 0.05803
 H413 H 0.01715 0.76466 0.08777
 H414 H 0.08518 0.67310 0.08240
 H415 H 0.11982 0.67520 0.11769
 H416 H 0.07315 0.76410 0.16474
 H417 H 0.10818 0.76684 0.19916
 H418 H 0.15374 0.68277 0.14058
 H419 H 0.18916 0.68923 0.17399
 H420 H 0.14984 0.75326 0.21666
 C421 C 0.60398 0.20692 0.59123
 C422 C 0.60852 0.22883 0.60932
 C423 C 0.59142 0.25018 0.60612
 C424 C 0.57185 0.25005 0.58413
 C425 C 0.56834 0.22859 0.56557
 C426 C 0.58417 0.20688 0.56980
 C427 C 0.59405 0.27168 0.62459
 C428 C 0.61349 0.27270 0.64615
 C429 C 0.63164 0.25239 0.64950
 C430 C 0.62946 0.23034 0.63026
 C431 C 0.64881 0.21102 0.63167
 C432 C 0.66971 0.21322 0.65090
 C433 C 0.67188 0.23434 0.67011
 C434 C 0.65251 0.25383 0.67054
 C435 C 0.65505 0.27407 0.69190
 C436 C 0.67664 0.27555 0.71051
 C437 C 0.69639 0.25705 0.70838
 C438 C 0.69365 0.23624 0.68856
 H439 H 0.61520 0.18942 0.59322
 H440 H 0.55927 0.26675 0.58146
 H441 H 0.58158 0.18991 0.55602
 H442 H 0.58095 0.28801 0.62231
 H443 H 0.61434 0.29020 0.65906
 H444 H 0.64894 0.19430 0.61724
 H445 H 0.68444 0.19821 0.65059
 H446 H 0.64067 0.28901 0.69493
 H447 H 0.67819 0.29164 0.72600
 H448 H 0.70864 0.22152 0.68732
 C449 C 0.77510 0.08158 0.88965
 C450 C 0.75535 0.10032 0.88545
 C451 C 0.73370 0.09924 0.90489
 C452 C 0.73178 0.07967 0.92682
 C453 C 0.75165 0.06148 0.93081
 C454 C 0.77327 0.06267 0.91209
 C455 C 0.71428 0.11794 0.90278
 C456 C 0.71625 0.13837 0.88266
 C457 C 0.73757 0.14057 0.86315
 C458 C 0.75672 0.12050 0.86335
 C459 C 0.77647 0.12118 0.84134
 C460 C 0.77820 0.14139 0.82084
 C461 C 0.76079 0.16203 0.82193
 C462 C 0.74033 0.16209 0.84327
 C463 C 0.72398 0.18411 0.84449
 C464 C 0.72785 0.20500 0.82533
 C465 C 0.74783 0.20461 0.80400
 C466 C 0.76404 0.18289 0.80214
 H467 H 0.79259 0.08148 0.87671
 H468 H 0.71513 0.07913 0.94155
 H469 H 0.78895 0.04890 0.91484
 H470 H 0.69755 0.11708 0.91732
 H471 H 0.70039 0.15194 0.88248
 H472 H 0.79070 0.10603 0.83890
 H473 H 0.79372 0.14108 0.80436
 H474 H 0.70854 0.18621 0.86072
 H475 H 0.71514 0.22164 0.82733
 H476 H 0.77982 0.18260 0.78601
 C477 C 0.25413 0.55664 0.39313
 C478 C 0.23324 0.57362 0.38688
 C479 C 0.21104 0.57151 0.40519
 C480 C 0.20972 0.55255 0.42795
 C481 C 0.23066 0.53603 0.43387
 C482 C 0.25283 0.53832 0.41633
 C483 C 0.19039 0.58857 0.40104
 C484 C 0.19159 0.60840 0.37995
 C485 C 0.21339 0.61159 0.36150
 C486 C 0.23394 0.59307 0.36380
 C487 C 0.25438 0.59449 0.34282
 C488 C 0.25542 0.61410 0.32141
 C489 C 0.23653 0.63340 0.32051
 C490 C 0.21530 0.63259 0.34066
 C491 C 0.19734 0.65334 0.33983
 C492 C 0.20048 0.67391 0.31995
 C493 C 0.22132 0.67440 0.29990
 C494 C 0.23907 0.65387 0.29996
 H495 H 0.27206 0.55750 0.38120
 H496 H 0.19260 0.55114 0.44172
 H497 H 0.26933 0.52586 0.42056
 H498 H 0.17325 0.58689 0.41470
 H499 H 0.17480 0.62070 0.37820
 H500 H 0.26974 0.58037 0.34194
 H501 H 0.27153 0.61444 0.30583
 H502 H 0.18113 0.65475 0.35501
 H503 H 0.18656 0.68965 0.32043
 H504 H 0.25549 0.65430 0.28485
 C505 C 0.29061 0.89773 0.90406
 C506 C 0.26721 0.89094 0.89064
 C507 C 0.24522 0.90613 0.89798
 C508 C 0.24639 0.92577 0.91984
 C509 C 0.26954 0.93174 0.93388
 C510 C 0.29173 0.91794 0.92503
 C511 C 0.22206 0.90159 0.88365
 C512 C 0.22018 0.88236 0.86190
 C513 C 0.24130 0.86616 0.85446
 C514 C 0.26488 0.86976 0.87010
 C515 C 0.28493 0.85150 0.86569
 C516 C 0.28206 0.83046 0.84659
 C517 C 0.25958 0.82738 0.83008
 C518 C 0.23926 0.84576 0.83283
 C519 C 0.21775 0.84304 0.81363
 C520 C 0.21596 0.82215 0.79395
 C521 C 0.23529 0.80316 0.79297
 C522 C 0.25719 0.80594 0.81090
 H523 H 0.30844 0.88809 0.89838
 H524 H 0.22909 0.93661 0.92564
 H525 H 0.31004 0.92226 0.93493
 H526 H 0.20517 0.91315 0.88919
 H527 H 0.20150 0.87990 0.85230
 H528 H 0.30278 0.85233 0.87784
 H529 H 0.29771 0.81654 0.84456
 H530 H 0.20219 0.85697 0.81285
 H531 H 0.19900 0.82052 0.77996
 H532 H 0.27248 0.79154 0.80966
 C533 C 0.75598 0.44495 0.38495
 C534 C 0.77485 0.42533 0.38071
 C535 C 0.79627 0.42496 0.40065
 C536 C 0.79885 0.44401 0.42316
 C537 C 0.77970 0.46292 0.42729
 C538 C 0.75835 0.46322 0.40802
 C539 C 0.81465 0.40520 0.39858
 C540 C 0.81171 0.38511 0.37812
 C541 C 0.79052 0.38439 0.35814
 C542 C 0.77264 0.40559 0.35821
 C543 C 0.75322 0.40643 0.33572
 C544 C 0.75042 0.38656 0.31500
 C545 C 0.76643 0.36483 0.31627
 C546 C 0.78663 0.36327 0.33794
 C547 C 0.80155 0.34026 0.33910
 C548 C 0.79656 0.31987 0.31950
 C549 C 0.77681 0.32177 0.29787
 C550 C 0.76201 0.34445 0.29619
 H551 H 0.73866 0.44615 0.37168
 H552 H 0.81522 0.44344 0.43841
 H553 H 0.74323 0.47760 0.41096
 H554 H 0.83120 0.40491 0.41352
 H555 H 0.82671 0.37057 0.37807
 H556 H 0.74010 0.42252 0.33308
 H557 H 0.73518 0.38801 0.29819
 H558 H 0.81670 0.33708 0.35553
 H559 H 0.80820 0.30248 0.32136
 H560 H 0.74645 0.34601 0.27980
 C561 C 0.08364 0.24445 0.88896
 C562 C 0.10441 0.26100 0.88910
 C563 C 0.10501 0.27992 0.91248
 C564 C 0.08518 0.28236 0.93419
 C565 C 0.06515 0.26537 0.93399
 C566 C 0.06456 0.24654 0.91118
 C567 C 0.12573 0.29581 0.91458
 C568 C 0.14645 0.29267 0.89486
 C569 C 0.14697 0.27384 0.87155
 C570 C 0.12499 0.25873 0.86760
 C571 C 0.12428 0.24188 0.84226
 C572 C 0.14485 0.23874 0.82247
 C573 C 0.16711 0.25191 0.82733
 C574 C 0.16864 0.26962 0.85192
 C575 C 0.19208 0.28177 0.85628
 C576 C 0.21293 0.27648 0.83700
 C577 C 0.21111 0.25912 0.81261
 C578 C 0.18801 0.24711 0.80781
 H579 H 0.08203 0.22900 0.87279
 H580 H 0.08596 0.29671 0.95216
 H581 H 0.04931 0.23311 0.91069
 H582 H 0.12624 0.31046 0.93219
 H583 H 0.16171 0.30563 0.89819
 H584 H 0.10782 0.23106 0.83668
 H585 H 0.14345 0.22548 0.80342
 H586 H 0.19520 0.29494 0.87486
 H587 H 0.23059 0.28596 0.84133
 H588 H 0.18641 0.23345 0.78919
 C589 C 0.55422 0.74969 0.39740
 C590 C 0.57062 0.77030 0.39304
 C591 C 0.56739 0.79182 0.41268
 C592 C 0.54783 0.79287 0.43474
 C593 C 0.53178 0.77229 0.43865
 C594 C 0.53528 0.75069 0.41994
 C595 C 0.58390 0.81204 0.41049
 C596 C 0.60418 0.81107 0.38996
 C597 C 0.60835 0.79002 0.37006
 C598 C 0.59050 0.76997 0.37050
 C599 C 0.59292 0.75044 0.34818
 C600 C 0.61280 0.74978 0.32712
 C601 C 0.63142 0.76812 0.32791
 C602 C 0.62967 0.78840 0.34953
 C603 C 0.64980 0.80574 0.35031
 C604 C 0.67066 0.80289 0.33053
 C605 C 0.67202 0.78300 0.30900
 C606 C 0.65212 0.76590 0.30752
 H607 H 0.55597 0.73219 0.38442
 H608 H 0.54552 0.80951 0.44948
 H609 H 0.52323 0.73445 0.42266
 H610 H 0.58141 0.82864 0.42524
 H611 H 0.61599 0.82750 0.38975
 H612 H 0.57935 0.73558 0.34591
 H613 H 0.61388 0.73439 0.31042
 H614 H 0.65049 0.82118 0.36666
 H615 H 0.68592 0.81623 0.33225
 H616 H 0.65323 0.75017 0.29128
 C617 C 0.90701 0.76140 0.89884
 C618 C 0.89160 0.74097 0.89028
 C619 C 0.89543 0.71735 0.90581
 C620 C 0.91503 0.71414 0.92777
 C621 C 0.92998 0.73477 0.93630
 C622 C 0.92554 0.75839 0.92159
 C623 C 0.87923 0.69732 0.89988
 C624 C 0.85865 0.70058 0.87989
 C625 C 0.85413 0.72377 0.86392
 C626 C 0.87189 0.74362 0.86770
 C627 C 0.86960 0.76534 0.84855
 C628 C 0.84974 0.76830 0.82767
 C629 C 0.83098 0.75018 0.82566
 C630 C 0.83264 0.72777 0.84398
 C631 C 0.81225 0.71077 0.84228
 C632 C 0.79130 0.71590 0.82309
 C633 C 0.79024 0.73776 0.80452
 C634 C 0.81031 0.75464 0.80570
 H635 H 0.90449 0.78032 0.88935
 H636 H 0.91777 0.69586 0.93924
 H637 H 0.93649 0.77485 0.92756
 H638 H 0.88206 0.67913 0.91149
 H639 H 0.84692 0.68428 0.87674
 H640 H 0.88336 0.78014 0.84855
 H641 H 0.84877 0.78529 0.81341
 H642 H 0.81151 0.69384 0.85630
 H643 H 0.77587 0.70268 0.82271
 H644 H 0.80939 0.77186 0.79181
 C645 C 0.44431 0.25506 0.39164
 C646 C 0.42781 0.23468 0.38634
 C647 C 0.42971 0.21332 0.40636
 C648 C 0.44825 0.21211 0.42969
 C649 C 0.46446 0.23244 0.43444
 C650 C 0.46217 0.25393 0.41540
 C651 C 0.41290 0.19342 0.40326
 C652 C 0.39357 0.19462 0.38142
 C653 C 0.39078 0.21554 0.36107
 C654 C 0.40906 0.23515 0.36246
 C655 C 0.40819 0.25442 0.33974
 C656 C 0.38929 0.25536 0.31744
 C657 C 0.37015 0.23756 0.31730
 C658 C 0.37043 0.21746 0.33919
 C659 C 0.34981 0.20068 0.33887
 C660 C 0.32983 0.20398 0.31786
 C661 C 0.32989 0.22374 0.29619
 C662 C 0.35036 0.24019 0.29574
 H663 H 0.44341 0.27248 0.37847
 H664 H 0.44962 0.19557 0.44469
 H665 H 0.47438 0.26997 0.41876
 H666 H 0.41438 0.17693 0.41832
 H667 H 0.38141 0.17847 0.38058
 H668 H 0.42228 0.26885 0.33813
 H669 H 0.38935 0.27056 0.30051
 H670 H 0.34805 0.18542 0.35527
 H671 H 0.31410 0.19113 0.31880
 H672 H 0.35036 0.25582 0.27936
 C673 C 0.76540 0.93090 0.89270
 C674 C 0.74345 0.91629 0.88856
 C675 C 0.72247 0.92124 0.90848
 C676 C 0.72320 0.94090 0.93050
 C677 C 0.74505 0.95525 0.93406
 C678 C 0.76614 0.94990 0.91517
 C679 C 0.70098 0.90635 0.90658
 C680 C 0.70011 0.88609 0.88597
 C681 C 0.72049 0.88037 0.86565
 C682 C 0.74192 0.89656 0.86591
 C683 C 0.76093 0.89274 0.84326
 C684 C 0.75977 0.87302 0.82203
 C685 C 0.73999 0.85596 0.82290
 C686 C 0.72013 0.85916 0.84483
 C687 C 0.70119 0.84050 0.84552
 C688 C 0.70215 0.81963 0.82540
 C689 C 0.72169 0.81687 0.80362
 C690 C 0.74033 0.83535 0.80226
 H691 H 0.78260 0.92767 0.87957
 H692 H 0.70693 0.94462 0.94541
 H693 H 0.78334 0.96059 0.91763
 H694 H 0.68480 0.91012 0.92160
 H695 H 0.68283 0.87557 0.88601
 H696 H 0.77679 0.90510 0.84083
 H697 H 0.77484 0.87083 0.80508
 H698 H 0.68587 0.84096 0.86203
 H699 H 0.68764 0.80547 0.82709
 H700 H 0.75580 0.83315 0.78583
 C701 C 0.20914 0.39331 0.41429
 C702 C 0.23094 0.38813 0.39579
 C703 C 0.25144 0.40497 0.39825
 C704 C 0.25059 0.42505 0.41969
 C705 C 0.22916 0.42946 0.43834
 C706 C 0.20831 0.41371 0.43506
 C707 C 0.27276 0.40169 0.37942
 C708 C 0.27425 0.38212 0.35789
 C709 C 0.25464 0.36448 0.35488
 C710 C 0.23305 0.36698 0.37490
 C711 C 0.21474 0.34784 0.37405
 C712 C 0.21734 0.32704 0.35429
 C713 C 0.23780 0.32482 0.33390
 C714 C 0.25634 0.34389 0.33322
 C715 C 0.27580 0.34156 0.31074
 C716 C 0.27744 0.32054 0.29103
 C717 C 0.25991 0.30105 0.29300
 C718 C 0.23992 0.30347 0.31429
 H719 H 0.19227 0.38222 0.41295
 H720 H 0.26663 0.43748 0.42166
 H721 H 0.19140 0.41691 0.44900
 H722 H 0.28850 0.41448 0.38124
 H723 H 0.29157 0.38080 0.34464
 H724 H 0.19853 0.34788 0.38924
 H725 H 0.20308 0.31255 0.35493
 H726 H 0.28990 0.35579 0.30748
 H727 H 0.29291 0.31932 0.27454
 H728 H 0.22597 0.28871 0.31561
 C729 C 0.24392 0.06522 0.90215
 C730 C 0.26597 0.07797 0.89295
 C731 C 0.28943 0.07054 0.90698
 C732 C 0.29076 0.05011 0.92799
 C733 C 0.26866 0.03760 0.93690
 C734 C 0.24527 0.04564 0.92387
 C735 C 0.31137 0.08382 0.90037
 C736 C 0.31038 0.10495 0.88098
 C737 C 0.28747 0.11303 0.86641
 C738 C 0.26532 0.09835 0.87106
 C739 C 0.24339 0.10422 0.85331
 C740 C 0.24264 0.12456 0.83286
 C741 C 0.26335 0.14033 0.82995
 C742 C 0.28598 0.13510 0.84698
 C743 C 0.30583 0.15266 0.84455
 C744 C 0.30321 0.17433 0.82588
 C745 C 0.28105 0.17890 0.80857
 C746 C 0.26133 0.16165 0.81046
 H747 H 0.22516 0.07054 0.89383
 H748 H 0.30898 0.04456 0.93816
 H749 H 0.22773 0.03670 0.93030
 H750 H 0.32943 0.07817 0.91084
 H751 H 0.32813 0.11418 0.87712
 H752 H 0.22662 0.09292 0.85406
 H753 H 0.22540 0.12831 0.81963
 H754 H 0.32322 0.15069 0.85763
 H755 H 0.31859 0.18758 0.82499
 H756 H 0.24389 0.16537 0.79760
 C757 C 0.79838 0.60819 0.41743
 C758 C 0.77613 0.61417 0.40006
 C759 C 0.75600 0.59680 0.40138
 C760 C 0.75762 0.57538 0.42081
 C761 C 0.77951 0.57018 0.43842
 C762 C 0.80000 0.58650 0.43612
 C763 C 0.73426 0.60091 0.38342
 C764 C 0.73205 0.62178 0.36381
 C765 C 0.75130 0.63992 0.36202
 C766 C 0.77324 0.63658 0.38135
 C767 C 0.79112 0.65613 0.38203
 C768 C 0.78787 0.67805 0.36425
 C769 C 0.76716 0.68106 0.34433
 C770 C 0.74896 0.66172 0.34225
 C771 C 0.72923 0.66496 0.32024
 C772 C 0.72714 0.68693 0.30217
 C773 C 0.74442 0.70653 0.30546
 C774 C 0.76452 0.70340 0.32648
 H775 H 0.81503 0.61965 0.41670
 H776 H 0.74185 0.56256 0.42201
 H777 H 0.81724 0.58274 0.44929
 H778 H 0.71878 0.58774 0.38439
 H779 H 0.71448 0.62364 0.35109
 H780 H 0.80750 0.65549 0.39698
 H781 H 0.80185 0.69275 0.36598
 H782 H 0.71535 0.65069 0.31599
 H783 H 0.71157 0.68875 0.28586
 H784 H 0.77827 0.71828 0.32877
 C785 C 0.06583 0.69862 0.91295
 C786 C 0.07458 0.72052 0.89774
 C787 C 0.06200 0.74428 0.90420
 C788 C 0.04277 0.74610 0.92668
 C789 C 0.03451 0.72422 0.94193
 C790 C 0.04603 0.70046 0.93434
 C791 C 0.06852 0.76612 0.88805
 C792 C 0.08697 0.76485 0.86514
 C793 C 0.10045 0.74177 0.85835
 C794 C 0.09505 0.71957 0.87601
 C795 C 0.11084 0.69744 0.87214
 C796 C 0.13108 0.69695 0.85153
 C797 C 0.13576 0.71803 0.83304
 C798 C 0.11990 0.74041 0.83532
 C799 C 0.12414 0.76047 0.81431
 C800 C 0.14428 0.75892 0.79337
 C801 C 0.16099 0.73755 0.79287
 C802 C 0.15643 0.71700 0.81248
 H803 H 0.07340 0.67966 0.90816
 H804 H 0.03377 0.76459 0.93161
 H805 H 0.03998 0.68307 0.94524
 H806 H 0.05902 0.78437 0.89288
 H807 H 0.09102 0.78263 0.85396
 H808 H 0.10874 0.68048 0.88580
 H809 H 0.14312 0.67978 0.84992
 H810 H 0.11204 0.77747 0.81323
 H811 H 0.14731 0.77495 0.77819
 H812 H 0.16905 0.70018 0.81176
 C813 C 0.60743 0.20673 0.41442
 C814 C 0.61184 0.22830 0.39568
 C815 C 0.59422 0.24934 0.39779
 C816 C 0.57417 0.24925 0.41913
 C817 C 0.57058 0.22808 0.43813
 C818 C 0.58706 0.20667 0.43515
 C819 C 0.59676 0.27052 0.37879
 C820 C 0.61640 0.27139 0.35751
 C821 C 0.63484 0.25126 0.35491
 C822 C 0.63299 0.22973 0.37498
 C823 C 0.65277 0.21079 0.37440
 C824 C 0.67362 0.21278 0.35495
 C825 C 0.67529 0.23325 0.33462
 C826 C 0.65557 0.25239 0.33361
 C827 C 0.65745 0.27188 0.31123
 C828 C 0.67860 0.27297 0.29192
 C829 C 0.69868 0.25481 0.29421
 C830 C 0.69675 0.23479 0.31540
 H831 H 0.61916 0.18949 0.41337
 H832 H 0.56117 0.26572 0.42085
 H833 H 0.58450 0.18996 0.44936
 H834 H 0.58336 0.28666 0.38033
 H835 H 0.61711 0.28866 0.34415
 H836 H 0.65317 0.19453 0.38958
 H837 H 0.68860 0.19805 0.35581
 H838 H 0.64278 0.28645 0.30773
 H839 H 0.67943 0.28847 0.27549
 H840 H 0.71197 0.22035 0.31695
 C841 C 0.92154 0.30096 0.92199
 C842 C 0.91581 0.28186 0.90020
 C843 C 0.93261 0.26014 0.89827
 C844 C 0.95316 0.25708 0.91875
 C845 C 0.95807 0.27584 0.94070
 C846 C 0.94242 0.29797 0.94174
 C847 C 0.92879 0.24148 0.87603
 C848 C 0.90870 0.24386 0.85541
 C849 C 0.89104 0.26476 0.85678
 C850 C 0.89411 0.28358 0.88027
 C851 C 0.87493 0.30292 0.88374
 C852 C 0.85349 0.30386 0.86497
 C853 C 0.85066 0.28616 0.84133
 C854 C 0.86983 0.26690 0.83620
 C855 C 0.86692 0.25054 0.81061
 C856 C 0.84515 0.25219 0.79230
 C857 C 0.82549 0.27012 0.79874
 C858 C 0.82857 0.28738 0.82301
 H859 H 0.91054 0.31860 0.92405
 H860 H 0.96555 0.24013 0.91740
 H861 H 0.94603 0.31288 0.95833
 H862 H 0.94156 0.22484 0.87448
 H863 H 0.90695 0.22835 0.83933
 H864 H 0.87541 0.31712 0.90166
 H865 H 0.83895 0.31866 0.86900
 H866 H 0.88121 0.23639 0.80391
 H867 H 0.84347 0.23883 0.77341
 H868 H 0.81367 0.30165 0.82781
 C869 C 0.38641 0.79640 0.41664
 C870 C 0.38242 0.77488 0.39764
 C871 C 0.40090 0.75453 0.39877
 C872 C 0.42133 0.75512 0.41957
 C873 C 0.42442 0.77612 0.43900
 C874 C 0.40715 0.79698 0.43685
 C875 C 0.39880 0.73348 0.37945
 C876 C 0.37874 0.73204 0.35883
 C877 C 0.35944 0.75141 0.35723
 C878 C 0.36085 0.77279 0.37765
 C879 C 0.34025 0.79083 0.37816
 C880 C 0.31902 0.78812 0.35942
 C881 C 0.31776 0.76784 0.33869
 C882 C 0.33830 0.74965 0.33661
 C883 C 0.33685 0.73042 0.31383
 C884 C 0.31543 0.72869 0.29509
 C885 C 0.29461 0.74587 0.29833
 C886 C 0.29598 0.76559 0.32006
 H887 H 0.37398 0.81318 0.41627
 H888 H 0.43492 0.73908 0.42066
 H889 H 0.40928 0.81355 0.45145
 H890 H 0.41286 0.71786 0.38025
 H891 H 0.37842 0.71487 0.34520
 H892 H 0.33954 0.80688 0.39369
 H893 H 0.30344 0.80215 0.36111
 H894 H 0.35208 0.71662 0.30950
 H895 H 0.31504 0.71343 0.27826
 H896 H 0.28016 0.77930 0.32234
 C897 C 0.29235 0.88939 0.08085
 C898 C 0.27079 0.88515 0.09956
 C899 C 0.25041 0.90358 0.09848
 C900 C 0.25106 0.92429 0.07808
 C901 C 0.27215 0.92769 0.05903
 C902 C 0.29298 0.91040 0.06104
 C903 C 0.22930 0.90119 0.11754
 C904 C 0.22790 0.88094 0.13793
 C905 C 0.24738 0.86175 0.13954
 C906 C 0.26875 0.86339 0.11928
 C907 C 0.28688 0.84286 0.11869
 C908 C 0.28431 0.82153 0.13732
 C909 C 0.26410 0.82010 0.15800
 C910 C 0.24576 0.84053 0.16007
 C911 C 0.22658 0.83890 0.18279
 C912 C 0.22506 0.81743 0.20153
 C913 C 0.24243 0.79675 0.19831
 C914 C 0.26207 0.79828 0.17662
 H915 H 0.30915 0.87702 0.08122
 H916 H 0.23505 0.93789 0.07709
 H917 H 0.30963 0.91279 0.04674
 H918 H 0.21364 0.91520 0.11674
 H919 H 0.21070 0.88041 0.15138
 H920 H 0.30290 0.84228 0.10320
 H921 H 0.29843 0.80601 0.13562
 H922 H 0.21268 0.85406 0.18711
 H923 H 0.20987 0.81690 0.21836
 H924 H 0.27590 0.78256 0.17438
 C925 C 0.80781 0.41596 0.57461
 C926 C 0.78811 0.41235 0.59630
 C927 C 0.76791 0.43100 0.59742
 C928 C 0.76689 0.45139 0.57643
 C929 C 0.78632 0.45438 0.55482
 C930 C 0.80694 0.43675 0.55442
 C931 C 0.74880 0.42927 0.61948
 C932 C 0.74937 0.40962 0.64090
 C933 C 0.76880 0.39033 0.64053
 C934 C 0.78787 0.39110 0.61705
 C935 C 0.80552 0.37027 0.61454
 C936 C 0.80471 0.34947 0.63437
 C937 C 0.78692 0.34897 0.65819
 C938 C 0.76926 0.36978 0.66223
 C939 C 0.75284 0.36922 0.68802
 C940 C 0.75300 0.34825 0.70777
 C941 C 0.76937 0.32704 0.70258
 C942 C 0.78655 0.32765 0.67790
 H943 H 0.82442 0.40338 0.57308
 H944 H 0.75112 0.46528 0.57729
 H945 H 0.82233 0.43884 0.53810
 H946 H 0.73327 0.44341 0.62038
 H947 H 0.73367 0.40957 0.65684
 H948 H 0.81970 0.36900 0.59663
 H949 H 0.81829 0.33366 0.63112
 H950 H 0.73986 0.38483 0.69387
 H951 H 0.73973 0.34846 0.72687
 H952 H 0.79963 0.31152 0.67402
 C953 C 0.77568 0.08450 0.10016
 C954 C 0.75588 0.10318 0.10438
 C955 C 0.73440 0.10228 0.08466
 C956 C 0.73248 0.08265 0.06276
 C957 C 0.75223 0.06424 0.05913
 C958 C 0.77386 0.06552 0.07781
 C959 C 0.71509 0.12114 0.08663
 C960 C 0.71690 0.14136 0.10716
 C961 C 0.73785 0.14310 0.12734
 C962 C 0.75699 0.12301 0.12696
 C963 C 0.77638 0.12315 0.14947
 C964 C 0.77775 0.14279 0.17076
 C965 C 0.76027 0.16339 0.17009
 C966 C 0.74021 0.16408 0.14821
 C967 C 0.72377 0.18610 0.14770
 C968 C 0.72719 0.20635 0.16813
 C969 C 0.74677 0.20520 0.19001
 C970 C 0.76307 0.18351 0.19100
 H971 H 0.79317 0.08441 0.11312
 H972 H 0.71586 0.08206 0.04799
 H973 H 0.78948 0.05164 0.07527
 H974 H 0.69854 0.12050 0.07174
 H975 H 0.70115 0.15507 0.10721
 H976 H 0.79054 0.10792 0.15177
 H977 H 0.79296 0.14204 0.18765
 H978 H 0.70859 0.18865 0.13119
 H979 H 0.71448 0.22302 0.16673
 H980 H 0.77859 0.18263 0.20750
 C981 C 0.24904 0.56077 0.60511
 C982 C 0.22810 0.57824 0.60879
 C983 C 0.20717 0.57607 0.58841
 C984 C 0.20694 0.55641 0.56635
 C985 C 0.22782 0.53924 0.56320
 C986 C 0.24888 0.54176 0.58259
 C987 C 0.18672 0.59369 0.58989
 C988 C 0.18686 0.61400 0.61048
 C989 C 0.20726 0.61708 0.63120
 C990 C 0.22754 0.59814 0.63141
 C991 C 0.24641 0.59953 0.65446
 C992 C 0.24622 0.61938 0.67564
 C993 C 0.22766 0.63899 0.67429
 C994 C 0.20800 0.63833 0.65193
 C995 C 0.19041 0.65941 0.65067
 C996 C 0.19248 0.68018 0.67064
 C997 C 0.21177 0.68048 0.69287
 C998 C 0.22904 0.65960 0.69485
 H999 H 0.26617 0.56170 0.61866
 H1000 H 0.19072 0.55486 0.55108
 H1001 H 0.26533 0.52885 0.58047
 H1002 H 0.17057 0.59204 0.57454
 H1003 H 0.17031 0.62671 0.61010
 H1004 H 0.26138 0.58515 0.65721
 H1005 H 0.26112 0.61964 0.69290
 H1006 H 0.17540 0.66091 0.63379
 H1007 H 0.17902 0.69621 0.66848
 H1008 H 0.24434 0.65987 0.71163
 C1009 C 0.88545 0.71251 0.08280
 C1010 C 0.88105 0.73355 0.10280
 C1011 C 0.89888 0.75332 0.10235
 C1012 C 0.91930 0.75255 0.08143
 C1013 C 0.92306 0.73174 0.06152
 C1014 C 0.90617 0.71165 0.06270
 C1015 C 0.89632 0.77372 0.12285
 C1016 C 0.87667 0.77481 0.14424
 C1017 C 0.85822 0.75582 0.14537
 C1018 C 0.85983 0.73545 0.12343
 C1019 C 0.83982 0.71810 0.12227
 C1020 C 0.81914 0.72032 0.14211
 C1021 C 0.81788 0.73935 0.16454
 C1022 C 0.83774 0.75695 0.16710
 C1023 C 0.83631 0.77486 0.19150
 C1024 C 0.81546 0.77599 0.21138
 C1025 C 0.79525 0.75948 0.20765
 C1026 C 0.79671 0.74101 0.18434
 H1027 H 0.87358 0.69613 0.08258
 H1028 H 0.93260 0.76796 0.08105
 H1029 H 0.90882 0.69523 0.04772
 H1030 H 0.90981 0.78894 0.12257
 H1031 H 0.87597 0.79137 0.15898
 H1032 H 0.83911 0.70303 0.10544
 H1033 H 0.80401 0.70684 0.13997
 H1034 H 0.85114 0.78805 0.19614
 H1035 H 0.81493 0.79031 0.22940
 H1036 H 0.78135 0.72786 0.18160
 C1037 C 0.44255 0.25667 0.60731
 C1038 C 0.42585 0.23650 0.61278
 C1039 C 0.42761 0.21498 0.59295
 C1040 C 0.44630 0.21337 0.56976
 C1041 C 0.46280 0.23347 0.56497
 C1042 C 0.46055 0.25515 0.58373
 C1043 C 0.41055 0.19531 0.59617
 C1044 C 0.39123 0.19681 0.61805
 C1045 C 0.38870 0.21781 0.63836
 C1046 C 0.40712 0.23729 0.63670
 C1047 C 0.40647 0.25669 0.65928
 C1048 C 0.38774 0.25781 0.68180
 C1049 C 0.36856 0.24007 0.68234
 C1050 C 0.36853 0.21991 0.66052
 C1051 C 0.34786 0.20321 0.66127
 C1052 C 0.32815 0.20658 0.68267
 C1053 C 0.32857 0.22635 0.70436
 C1054 C 0.34906 0.24278 0.70431
 H1055 H 0.44176 0.27422 0.62028
 H1056 H 0.44763 0.19669 0.55499
 H1057 H 0.47296 0.27103 0.58036
 H1058 H 0.41186 0.17872 0.58124
 H1059 H 0.37889 0.18081 0.61899
 H1060 H 0.42062 0.27107 0.66065
 H1061 H 0.38802 0.27308 0.69865
 H1062 H 0.34586 0.18790 0.64495
 H1063 H 0.31240 0.19376 0.68209
 H1064 H 0.34932 0.25844 0.72065
 C1065 C 0.09187 0.23036 0.09923
 C1066 C 0.10913 0.24999 0.10517
 C1067 C 0.10634 0.27285 0.08783
 C1068 C 0.08628 0.27618 0.06669
 C1069 C 0.06926 0.25663 0.06138
 C1070 C 0.07240 0.23365 0.07756
 C1071 C 0.12370 0.29219 0.09143
 C1072 C 0.14429 0.28914 0.11130
 C1073 C 0.14791 0.26680 0.12914
 C1074 C 0.12932 0.24749 0.12716
 C1075 C 0.13127 0.22658 0.14761
 C1076 C 0.15121 0.22405 0.16845
 C1077 C 0.17038 0.24181 0.16922
 C1078 C 0.16929 0.26326 0.14930
 C1079 C 0.19002 0.27990 0.14988
 C1080 C 0.21068 0.27544 0.16965
 C1081 C 0.21121 0.25458 0.18977
 C1082 C 0.19088 0.23797 0.18959
 H1083 H 0.09328 0.21197 0.11030
 H1084 H 0.08426 0.29386 0.05379
 H1085 H 0.05962 0.21817 0.07362
 H1086 H 0.12157 0.30977 0.07838
 H1087 H 0.15672 0.30505 0.11279
 H1088 H 0.11722 0.21208 0.14866
 H1089 H 0.15184 0.20773 0.18382
 H1090 H 0.19127 0.29606 0.13470
 H1091 H 0.22633 0.28840 0.16917
 H1092 H 0.19139 0.22146 0.20469
 C1093 C 0.55112 0.74677 0.60981
 C1094 C 0.56917 0.76595 0.61395
 C1095 C 0.56779 0.78733 0.59390
 C1096 C 0.54839 0.78968 0.57160
 C1097 C 0.53077 0.77040 0.56784
 C1098 C 0.53244 0.74895 0.58703
 C1099 C 0.58602 0.80604 0.59587
 C1100 C 0.60615 0.80363 0.61658
 C1101 C 0.60846 0.78266 0.63694
 C1102 C 0.58892 0.76425 0.63667
 C1103 C 0.58961 0.74491 0.65932
 C1104 C 0.60931 0.74283 0.68056
 C1105 C 0.62943 0.75950 0.67974
 C1106 C 0.62950 0.77956 0.65780
 C1107 C 0.65103 0.79517 0.65716
 C1108 C 0.67145 0.79091 0.67739
 C1109 C 0.67102 0.77128 0.69925
 C1110 C 0.64975 0.75586 0.70049
 H1111 H 0.55137 0.72941 0.62310
 H1112 H 0.54750 0.80615 0.55647
 H1113 H 0.51916 0.73370 0.58445
 H1114 H 0.58501 0.82252 0.58078
 H1115 H 0.61939 0.81890 0.61654
 H1116 H 0.57480 0.73131 0.66171
 H1117 H 0.60900 0.72764 0.69750
 H1118 H 0.65307 0.81031 0.64065
 H1119 H 0.68774 0.80299 0.67580
 H1120 H 0.64938 0.74034 0.71699
   
