data_POSCAR
  _audit_creation_date              2014-09-24
  _audit_creation_method            'ToBaCCo'
  _symmetry_space_group_name_H-M    'P1'
  _symmetry_Int_Tables_number       1
  _symmetry_cell_setting            triclinic
  loop_
  _symmetry_equiv_pos_as_xyz
 x,y,z
_cell_length_a 22.9954
_cell_length_b 21.9536
_cell_length_c 28.2760
_cell_angle_alpha 90.000000
_cell_angle_beta 90.000000
_cell_angle_gamma 90.000000
loop_
  _atom_site_label
  _atom_site_type_symbol
  _atom_site_fract_x
  _atom_site_fract_y
  _atom_site_fract_z
B1 B 0.28300 0.23128 0.29700
 B2 B 0.21526 0.20952 0.28556
 B3 B 0.22875 0.28235 0.29659
 B4 B 0.29377 0.30096 0.27296
 B5 B 0.31929 0.23654 0.24594
 B6 B 0.27011 0.17933 0.25444
 B7 B 0.21710 0.26872 0.20298
 B8 B 0.28484 0.29048 0.21442
 B9 B 0.27134 0.21765 0.20339
 B10 B 0.20632 0.19904 0.22702
 B11 B 0.18080 0.26346 0.25404
 B12 B 0.22999 0.32067 0.24554
 B13 B 0.71710 0.76872 0.29700
 B14 B 0.78484 0.79048 0.28556
 B15 B 0.77134 0.71765 0.29659
 B16 B 0.70632 0.69904 0.27296
 B17 B 0.68080 0.76346 0.24594
 B18 B 0.72999 0.82067 0.25444
 B19 B 0.78300 0.73128 0.20298
 B20 B 0.71526 0.70952 0.21442
 B21 B 0.72875 0.78235 0.20339
 B22 B 0.79377 0.80096 0.22702
 B23 B 0.81929 0.73654 0.25404
 B24 B 0.77011 0.67933 0.24554
 B25 B 0.72875 0.21765 -0.20341
 B26 B 0.71526 0.29048 -0.21444
 B27 B 0.78300 0.26872 -0.20300
 B28 B 0.79377 0.19904 -0.22704
 B29 B 0.72999 0.17933 -0.25446
 B30 B 0.68080 0.23654 -0.24596
 B31 B 0.77134 0.28235 -0.29661
 B32 B 0.78484 0.20952 -0.28558
 B33 B 0.71710 0.23128 -0.29702
 B34 B 0.70632 0.30096 -0.27298
 B35 B 0.77011 0.32067 -0.24556
 B36 B 0.81929 0.26346 -0.25406
 B37 B 0.28300 0.76872 -0.29702
 B38 B 0.21526 0.79048 -0.28558
 B39 B 0.22875 0.71765 -0.29661
 B40 B 0.29377 0.69904 -0.27298
 B41 B 0.31929 0.76346 -0.24596
 B42 B 0.27011 0.82067 -0.25446
 B43 B 0.21710 0.73128 -0.20300
 B44 B 0.28484 0.70952 -0.21444
 B45 B 0.27134 0.78235 -0.20341
 B46 B 0.20632 0.80096 -0.22704
 B47 B 0.18080 0.73654 -0.25406
 B48 B 0.22999 0.67933 -0.24556
 B49 B 1.22875 1.28235 0.70339
 B50 B 1.21526 1.20952 0.71442
 B51 B 1.28300 1.23128 0.70298
 B52 B 1.29377 1.30096 0.72702
 B53 B 1.22999 1.32067 0.75444
 B54 B 1.18080 1.26346 0.74594
 B55 B 1.27134 1.21765 0.79659
 B56 B 1.28484 1.29048 0.78556
 B57 B 1.21710 1.26872 0.79700
 B58 B 1.20632 1.19904 0.77296
 B59 B 1.27011 1.17933 0.74554
 B60 B 1.31929 1.23654 0.75404
 B61 B 0.78300 0.73128 0.79700
 B62 B 0.71526 0.70952 0.78556
 B63 B 0.72875 0.78235 0.79659
 B64 B 0.79377 0.80096 0.77296
 B65 B 0.81929 0.73654 0.74594
 B66 B 0.77011 0.67933 0.75444
 B67 B 0.71710 0.76872 0.70298
 B68 B 0.78484 0.79048 0.71442
 B69 B 0.77134 0.71765 0.70339
 B70 B 0.70632 0.69904 0.72702
 B71 B 0.68080 0.76346 0.75404
 B72 B 0.72999 0.82067 0.74554
 B73 B 1.21710 0.73128 0.20298
 B74 B 1.28484 0.70952 0.21442
 B75 B 1.27134 0.78235 0.20339
 B76 B 1.20632 0.80096 0.22702
 B77 B 1.18080 0.73654 0.25404
 B78 B 1.22999 0.67933 0.24554
 B79 B 1.28300 0.76872 0.29700
 B80 B 1.21526 0.79048 0.28556
 B81 B 1.22875 0.71765 0.29659
 B82 B 1.29377 0.69904 0.27296
 B83 B 1.31929 0.76346 0.24594
 B84 B 1.27011 0.82067 0.25444
 B85 B 0.77134 1.28235 0.29659
 B86 B 0.78484 1.20952 0.28556
 B87 B 0.71710 1.23128 0.29700
 B88 B 0.70632 1.30096 0.27296
 B89 B 0.77011 1.32067 0.24554
 B90 B 0.81929 1.26346 0.25404
 B91 B 0.72875 1.21765 0.20339
 B92 B 0.71526 1.29048 0.21442
 B93 B 0.78300 1.26872 0.20298
 B94 B 0.79377 1.19904 0.22702
 B95 B 0.72999 1.17933 0.25444
 B96 B 0.68080 1.23654 0.24594
 N97 N 0.60347 1.06378 0.05059
 N98 N 0.64749 1.09957 0.06179
 N99 N 0.56375 0.93594 0.08406
 N100 N 0.58024 0.89986 0.11902
 N101 N 0.60347 0.93622 0.05059
 N102 N 0.64749 0.90043 0.06179
 N103 N 0.56375 1.06406 0.08406
 N104 N 0.58024 1.10014 0.11902
 C105 C 0.63180 1.12293 0.10393
 C106 C 0.63180 0.87707 0.10393
 N107 N 0.39663 0.93622 0.05059
 N108 N 0.35261 0.90043 0.06179
 N109 N 0.43635 1.06406 0.08406
 N110 N 0.41985 1.10014 0.11902
 N111 N 0.39663 1.06378 0.05059
 N112 N 0.35261 1.09957 0.06179
 N113 N 0.43635 0.93594 0.08406
 N114 N 0.41985 0.89986 0.11902
 Mn115 Mn 0.50005 1.00000 0.08452
 C116 C 0.36830 0.87707 0.10393
 C117 C 0.36830 1.12293 0.10393
 N118 N 0.60347 0.93622 -0.05061
 N119 N 0.64749 0.90043 -0.06181
 N120 N 0.56375 1.06406 -0.08408
 N121 N 0.58024 1.10014 -0.11904
 N122 N 0.60347 1.06378 -0.05061
 N123 N 0.64749 1.09957 -0.06181
 N124 N 0.56375 0.93594 -0.08408
 N125 N 0.58024 0.89986 -0.11904
 Mn126 Mn 0.60340 1.00000 -0.00001
 C127 C 0.63180 0.87707 -0.10395
 C128 C 0.63180 1.12293 -0.10395
 N129 N 0.39663 1.06378 -0.05061
 N130 N 0.35261 1.09957 -0.06181
 N131 N 0.43635 0.93594 -0.08408
 N132 N 0.41985 0.89986 -0.11904
 N133 N 0.39663 0.93622 -0.05061
 N134 N 0.35261 0.90043 -0.06181
 N135 N 0.43635 1.06406 -0.08408
 N136 N 0.41985 1.10014 -0.11904
 Mn137 Mn 0.39670 1.00000 -0.00001
 Mn138 Mn 0.50005 1.00000 -0.08454
 Cl139 Cl 0.50005 1.00000 -0.00001
 C140 C 0.36830 1.12293 -0.10395
 C141 C 0.36830 0.87707 -0.10395
 N142 N 1.10347 0.56378 0.55059
 N143 N 1.14749 0.59957 0.56179
 N144 N 1.06375 0.43594 0.58406
 N145 N 1.08024 0.39986 0.61902
 N146 N 1.10347 0.43622 0.55059
 N147 N 1.14749 0.40043 0.56179
 N148 N 1.06375 0.56406 0.58406
 N149 N 1.08024 0.60014 0.61902
 C150 C 1.13180 0.62293 0.60393
 C151 C 1.13180 0.37707 0.60393
 N152 N 0.89663 0.43622 0.55059
 N153 N 0.85261 0.40043 0.56179
 N154 N 0.93635 0.56406 0.58406
 N155 N 0.91985 0.60014 0.61902
 N156 N 0.89663 0.56378 0.55059
 N157 N 0.85261 0.59957 0.56179
 N158 N 0.93635 0.43594 0.58406
 N159 N 0.91985 0.39986 0.61902
 Mn160 Mn 1.00005 0.50000 0.58452
 C161 C 0.86830 0.37707 0.60393
 C162 C 0.86830 0.62293 0.60393
 N163 N 1.10347 0.43622 0.44939
 N164 N 1.14749 0.40043 0.43819
 N165 N 1.06375 0.56406 0.41592
 N166 N 1.08024 0.60014 0.38096
 N167 N 1.10347 0.56378 0.44939
 N168 N 1.14749 0.59957 0.43819
 N169 N 1.06375 0.43594 0.41592
 N170 N 1.08024 0.39986 0.38096
 Mn171 Mn 1.10340 0.50000 0.49999
 C172 C 1.13180 0.37707 0.39605
 C173 C 1.13180 0.62293 0.39605
 N174 N 0.89663 0.56378 0.44939
 N175 N 0.85261 0.59957 0.43819
 N176 N 0.93635 0.43594 0.41592
 N177 N 0.91985 0.39986 0.38096
 N178 N 0.89663 0.43622 0.44939
 N179 N 0.85261 0.40043 0.43819
 N180 N 0.93635 0.56406 0.41592
 N181 N 0.91985 0.60014 0.38096
 Mn182 Mn 0.89670 0.50000 0.49999
 Mn183 Mn 1.00005 0.50000 0.41546
 Cl184 Cl 1.00005 0.50000 0.49999
 C185 C 0.86830 0.62293 0.39605
 C186 C 0.86830 0.37707 0.39605
 N187 N 1.10404 0.56459 0.05144
 N188 N 1.14410 0.60602 0.06157
 N189 N 1.06303 0.43545 0.08385
 N190 N 1.07408 0.39403 0.11658
 N191 N 1.10404 0.43541 0.05144
 N192 N 1.14410 0.39398 0.06157
 N193 N 1.06303 0.56455 0.08385
 N194 N 1.07408 0.60597 0.11658
 C195 C 1.12410 0.63234 0.10182
 C196 C 1.12410 0.36766 0.10182
 N197 N 0.89606 0.43541 0.05144
 N198 N 0.85600 0.39398 0.06157
 N199 N 0.93707 0.56455 0.08385
 N200 N 0.92602 0.60597 0.11658
 N201 N 0.89606 0.56459 0.05144
 N202 N 0.85600 0.60602 0.06157
 N203 N 0.93707 0.43545 0.08385
 N204 N 0.92602 0.39403 0.11658
 Mn205 Mn 1.00005 0.50000 0.08417
 C206 C 0.87600 0.36766 0.10182
 C207 C 0.87600 0.63234 0.10182
 N208 N 1.10404 0.43541 -0.05146
 N209 N 1.14410 0.39398 -0.06159
 N210 N 1.06303 0.56455 -0.08387
 N211 N 1.07408 0.60597 -0.11660
 N212 N 1.10404 0.56459 -0.05146
 N213 N 1.14410 0.60602 -0.06159
 N214 N 1.06303 0.43545 -0.08387
 N215 N 1.07408 0.39403 -0.11660
 Mn216 Mn 1.10456 0.50000 -0.00001
 C217 C 1.12410 0.36766 -0.10184
 C218 C 1.12410 0.63234 -0.10184
 N219 N 0.89606 0.56459 -0.05146
 N220 N 0.85600 0.60602 -0.06159
 N221 N 0.93707 0.43545 -0.08387
 N222 N 0.92602 0.39403 -0.11660
 N223 N 0.89606 0.43541 -0.05146
 N224 N 0.85600 0.39398 -0.06159
 N225 N 0.93707 0.56455 -0.08387
 N226 N 0.92602 0.60597 -0.11660
 Mn227 Mn 0.89554 0.50000 -0.00001
 Mn228 Mn 1.00005 0.50000 -0.08419
 Cl229 Cl 1.00005 0.50000 -0.00001
 C230 C 0.87600 0.63234 -0.10184
 C231 C 0.87600 0.36766 -0.10184
 N232 N 0.60404 1.06459 0.55144
 N233 N 0.64410 1.10602 0.56157
 N234 N 0.56303 0.93545 0.58385
 N235 N 0.57408 0.89403 0.61658
 N236 N 0.60404 0.93541 0.55144
 N237 N 0.64410 0.89398 0.56157
 N238 N 0.56303 1.06455 0.58385
 N239 N 0.57408 1.10597 0.61658
 C240 C 0.62410 1.13234 0.60182
 C241 C 0.62410 0.86766 0.60182
 N242 N 0.39606 0.93541 0.55144
 N243 N 0.35600 0.89398 0.56157
 N244 N 0.43707 1.06455 0.58385
 N245 N 0.42602 1.10597 0.61658
 N246 N 0.39606 1.06459 0.55144
 N247 N 0.35600 1.10602 0.56157
 N248 N 0.43707 0.93545 0.58385
 N249 N 0.42602 0.89403 0.61658
 Mn250 Mn 0.50005 1.00000 0.58417
 C251 C 0.37600 0.86766 0.60182
 C252 C 0.37600 1.13234 0.60182
 N253 N 0.60404 0.93541 0.44854
 N254 N 0.64410 0.89398 0.43841
 N255 N 0.56303 1.06455 0.41613
 N256 N 0.57408 1.10597 0.38340
 N257 N 0.60404 1.06459 0.44854
 N258 N 0.64410 1.10602 0.43841
 N259 N 0.56303 0.93545 0.41613
 N260 N 0.57408 0.89403 0.38340
 Mn261 Mn 0.60456 1.00000 0.49999
 C262 C 0.62410 0.86766 0.39816
 C263 C 0.62410 1.13234 0.39816
 N264 N 0.39606 1.06459 0.44854
 N265 N 0.35600 1.10602 0.43841
 N266 N 0.43707 0.93545 0.41613
 N267 N 0.42602 0.89403 0.38340
 N268 N 0.39606 0.93541 0.44854
 N269 N 0.35600 0.89398 0.43841
 N270 N 0.43707 1.06455 0.41613
 N271 N 0.42602 1.10597 0.38340
 Mn272 Mn 0.39554 1.00000 0.49999
 Mn273 Mn 0.50005 1.00000 0.41581
 Cl274 Cl 0.50005 1.00000 0.49999
 C275 C 0.37600 1.13234 0.39816
 C276 C 0.37600 0.86766 0.39816
 N277 N 1.10422 1.06337 0.55158
 N278 N 1.14788 1.09649 0.56792
 N279 N 1.06111 0.93644 0.58204
 N280 N 1.07343 0.90268 0.61896
 N281 N 1.10422 0.93663 0.55158
 N282 N 1.14788 0.90351 0.56792
 N283 N 1.06111 1.06356 0.58204
 N284 N 1.07343 1.09732 0.61896
 C285 C 1.12671 1.11836 0.60929
 C286 C 1.12671 0.88164 0.60929
 N287 N 0.89587 0.93663 0.55158
 N288 N 0.85221 0.90351 0.56792
 N289 N 0.93898 1.06356 0.58204
 N290 N 0.92667 1.09732 0.61896
 N291 N 0.89587 1.06337 0.55158
 N292 N 0.85221 1.09649 0.56792
 N293 N 0.93898 0.93644 0.58204
 N294 N 0.92667 0.90268 0.61896
 Mn295 Mn 1.00005 1.00000 0.58184
 C296 C 0.87338 0.88164 0.60929
 C297 C 0.87338 1.11836 0.60929
 N298 N 1.10422 0.93663 0.44840
 N299 N 1.14788 0.90351 0.43206
 N300 N 1.06111 1.06356 0.41794
 N301 N 1.07343 1.09732 0.38102
 N302 N 1.10422 1.06337 0.44840
 N303 N 1.14788 1.09649 0.43206
 N304 N 1.06111 0.93644 0.41794
 N305 N 1.07343 0.90268 0.38102
 Mn306 Mn 1.10502 1.00000 0.49999
 C307 C 1.12671 0.88164 0.39069
 C308 C 1.12671 1.11836 0.39069
 N309 N 0.89587 1.06337 0.44840
 N310 N 0.85221 1.09649 0.43206
 N311 N 0.93898 0.93644 0.41794
 N312 N 0.92667 0.90268 0.38102
 N313 N 0.89587 0.93663 0.44840
 N314 N 0.85221 0.90351 0.43206
 N315 N 0.93898 1.06356 0.41794
 N316 N 0.92667 1.09732 0.38102
 Mn317 Mn 0.89508 1.00000 0.49999
 Mn318 Mn 1.00005 1.00000 0.41814
 Cl319 Cl 1.00005 1.00000 0.49999
 C320 C 0.87338 1.11836 0.39069
 C321 C 0.87338 0.88164 0.39069
 N322 N 0.60422 0.56337 0.05158
 N323 N 0.64788 0.59649 0.06792
 N324 N 0.56111 0.43644 0.08204
 N325 N 0.57343 0.40268 0.11896
 N326 N 0.60422 0.43663 0.05158
 N327 N 0.64788 0.40351 0.06792
 N328 N 0.56111 0.56356 0.08204
 N329 N 0.57343 0.59732 0.11896
 C330 C 0.62671 0.61836 0.10929
 C331 C 0.62671 0.38164 0.10929
 N332 N 0.39587 0.43663 0.05158
 N333 N 0.35221 0.40351 0.06792
 N334 N 0.43898 0.56356 0.08204
 N335 N 0.42667 0.59732 0.11896
 N336 N 0.39587 0.56337 0.05158
 N337 N 0.35221 0.59649 0.06792
 N338 N 0.43898 0.43644 0.08204
 N339 N 0.42667 0.40268 0.11896
 Mn340 Mn 0.50005 0.50000 0.08184
 C341 C 0.37338 0.38164 0.10929
 C342 C 0.37338 0.61836 0.10929
 N343 N 0.60422 0.43663 -0.05160
 N344 N 0.64788 0.40351 -0.06794
 N345 N 0.56111 0.56356 -0.08206
 N346 N 0.57343 0.59732 -0.11898
 N347 N 0.60422 0.56337 -0.05160
 N348 N 0.64788 0.59649 -0.06794
 N349 N 0.56111 0.43644 -0.08206
 N350 N 0.57343 0.40268 -0.11898
 Mn351 Mn 0.60502 0.50000 -0.00001
 C352 C 0.62671 0.38164 -0.10931
 C353 C 0.62671 0.61836 -0.10931
 N354 N 0.39587 0.56337 -0.05160
 N355 N 0.35221 0.59649 -0.06794
 N356 N 0.43898 0.43644 -0.08206
 N357 N 0.42667 0.40268 -0.11898
 N358 N 0.39587 0.43663 -0.05160
 N359 N 0.35221 0.40351 -0.06794
 N360 N 0.43898 0.56356 -0.08206
 N361 N 0.42667 0.59732 -0.11898
 Mn362 Mn 0.39508 0.50000 -0.00001
 Mn363 Mn 0.50005 0.50000 -0.08186
 Cl364 Cl 0.50005 0.50000 -0.00001
 C365 C 0.37338 0.61836 -0.10931
 C366 C 0.37338 0.38164 -0.10931
 C367 C 0.29969 1.18526 0.16105
 C368 C 0.32970 1.15781 0.13332
 C369 C 0.79969 0.68526 0.66105
 C370 C 0.82970 0.65781 0.63332
 C371 C 0.70041 0.81474 0.16105
 C372 C 0.67039 0.84219 0.13332
 C373 C 1.20041 0.31474 0.66105
 C374 C 1.17039 0.34219 0.63332
 C375 C 0.70041 1.18526 -0.16107
 C376 C 0.67039 1.15781 -0.13334
 C377 C 1.20041 0.68526 0.33893
 C378 C 1.17039 0.65781 0.36666
 C379 C 0.29969 0.81474 -0.16107
 C380 C 0.32970 0.84219 -0.13334
 C381 C 0.79969 0.31474 0.33893
 C382 C 0.82970 0.34219 0.36666
 C383 C 1.18414 0.29550 0.15956
 C384 C 1.15723 0.32580 0.13104
 C385 C 0.68414 0.79550 0.65956
 C386 C 0.65723 0.82580 0.63104
 C387 C 1.18414 0.70450 -0.15958
 C388 C 1.15723 0.67420 -0.13106
 C389 C 0.68414 1.20450 0.34042
 C390 C 0.65723 1.17420 0.36894
 C391 C 0.81596 0.70450 0.15956
 C392 C 0.84287 0.67420 0.13104
 C393 C 0.31596 1.20450 0.65956
 C394 C 0.34287 1.17420 0.63104
 C395 C 0.81596 0.29550 -0.15958
 C396 C 0.84287 0.32580 -0.13106
 C397 C 0.31596 0.79550 0.34042
 C398 C 0.34287 0.82580 0.36894
 C399 C 1.18404 1.17369 0.32368
 C400 C 1.15962 1.14855 0.35545
 C401 C 0.68404 0.67369 -0.17632
 C402 C 0.65962 0.64855 -0.14455
 C403 C 0.81606 1.17369 0.67630
 C404 C 0.84048 1.14855 0.64453
 C405 C 0.31606 0.67369 0.17630
 C406 C 0.34048 0.64855 0.14453
 C407 C 1.18404 0.82631 0.67630
 C408 C 1.15962 0.85145 0.64453
 C409 C 0.68404 0.32631 0.17630
 C410 C 0.65962 0.35145 0.14453
 C411 C 0.81606 0.82631 0.32368
 C412 C 0.84048 0.85145 0.35545
 C413 C 0.31606 0.32631 -0.17632
 C414 C 0.34048 0.35145 -0.14455
 C415 C 1.18414 0.29550 -0.15958
 C416 C 1.15723 0.32580 -0.13106
 C417 C 0.68414 0.79550 0.34042
 C418 C 0.65723 0.82580 0.36894
 C419 C 0.81596 0.70450 -0.15958
 C420 C 0.84287 0.67420 -0.13106
 C421 C 0.31596 1.20450 0.34042
 C422 C 0.34287 1.17420 0.36894
 C423 C 1.18414 0.70450 0.15956
 C424 C 1.15723 0.67420 0.13104
 C425 C 0.68414 1.20450 0.65956
 C426 C 0.65723 1.17420 0.63104
 C427 C 0.81596 0.29550 0.15956
 C428 C 0.84287 0.32580 0.13104
 C429 C 0.31596 0.79550 0.65956
 C430 C 0.34287 0.82580 0.63104
 C431 C 0.29969 1.18526 -0.16107
 C432 C 0.32970 1.15781 -0.13334
 C433 C 0.79969 0.68526 0.33893
 C434 C 0.82970 0.65781 0.36666
 C435 C 0.70041 1.18526 0.16105
 C436 C 0.67039 1.15781 0.13332
 C437 C 1.20041 0.68526 0.66105
 C438 C 1.17039 0.65781 0.63332
 C439 C 0.70041 0.81474 -0.16107
 C440 C 0.67039 0.84219 -0.13334
 C441 C 1.20041 0.31474 0.33893
 C442 C 1.17039 0.34219 0.36666
 C443 C 0.29969 0.81474 0.16105
 C444 C 0.32970 0.84219 0.13332
 C445 C 0.79969 0.31474 0.66105
 C446 C 0.82970 0.34219 0.63332
 C447 C 1.18404 1.17369 0.67630
 C448 C 1.15962 1.14855 0.64453
 C449 C 0.68404 0.67369 0.17630
 C450 C 0.65962 0.64855 0.14453
 C451 C 1.18404 0.82631 0.32368
 C452 C 1.15962 0.85145 0.35545
 C453 C 0.68404 0.32631 -0.17632
 C454 C 0.65962 0.35145 -0.14455
 C455 C 0.81606 1.17369 0.32368
 C456 C 0.84048 1.14855 0.35545
 C457 C 0.31606 0.67369 -0.17632
 C458 C 0.34048 0.64855 -0.14455
 C459 C 0.81606 0.82631 0.67630
 C460 C 0.84048 0.85145 0.64453
 C461 C 0.31606 0.32631 0.17630
 C462 C 0.34048 0.35145 0.14453
   
