data_POSCAR
  _audit_creation_date              2014-09-24
  _audit_creation_method            'ToBaCCo'
  _symmetry_space_group_name_H-M    'P1'
  _symmetry_Int_Tables_number       1
  _symmetry_cell_setting            triclinic
  loop_
  _symmetry_equiv_pos_as_xyz
 x,y,z
_cell_length_a 37.2113
_cell_length_b 38.7954
_cell_length_c 35.5502
_cell_angle_alpha 96.714700
_cell_angle_beta 92.359900
_cell_angle_gamma 94.803500
loop_
  _atom_site_label
  _atom_site_type_symbol
  _atom_site_fract_x
  _atom_site_fract_y
  _atom_site_fract_z
N1 N 0.17613 1.28226 0.16545
 N2 N 0.15580 1.28283 0.19481
 C3 C 0.13347 1.30829 0.19348
 C4 C 0.13965 1.32433 0.16101
 C5 C 0.16732 1.30707 0.14422
 H6 H 0.11266 1.31297 0.21326
 H7 H 0.17919 1.31084 0.11762
 Cu8 Cu 0.15677 1.24588 0.22728
 Cu9 Cu 0.20863 1.24586 0.15381
 Cu10 Cu 0.22821 1.19957 0.22930
 N11 N 0.15905 1.20947 0.26020
 N12 N 0.18756 1.19175 0.26157
 C13 C 0.18179 1.16712 0.28491
 C14 C 0.14718 1.16869 0.29809
 C15 C 0.13378 1.19620 0.28177
 H16 H 0.20061 1.14812 0.28969
 H17 H 0.10732 1.20546 0.28443
 N18 N 0.25726 1.19947 0.18390
 N19 N 0.24910 1.21627 0.15490
 C20 C 0.27086 1.20776 0.12666
 C21 C 0.29372 1.18418 0.13812
 C22 C 0.28449 1.17974 0.17474
 H23 H 0.26923 1.21707 0.09920
 H24 H 0.29493 1.16155 0.19233
 H25 H 0.19181 1.20742 0.18772
 H26 H 0.21949 1.24746 0.20988
 N27 N 0.79007 0.74700 0.13569
 N28 N 0.81169 0.74561 0.16554
 C29 C 0.83256 0.71911 0.15829
 C30 C 0.82371 0.70319 0.12174
 C31 C 0.79647 0.72153 0.10840
 H32 H 0.85439 0.71360 0.17708
 H33 H 0.78331 0.71761 0.08036
 Cu34 Cu 0.81489 0.78206 0.20823
 Cu35 Cu 0.75757 0.78356 0.13288
 Cu36 Cu 0.76299 0.84856 0.20901
 N37 N 0.82834 0.82612 0.23969
 N38 N 0.80843 0.85243 0.23900
 C39 C 0.82503 0.88042 0.26068
 C40 C 0.85746 0.87135 0.27588
 C41 C 0.85832 0.83636 0.26204
 H42 H 0.81417 0.90550 0.26451
 H43 H 0.87980 0.81987 0.26620
 N44 N 0.72794 0.84670 0.16572
 N45 N 0.72676 0.82267 0.13607
 C46 C 0.70327 0.83079 0.10937
 C47 C 0.68897 0.86140 0.12285
 C48 C 0.70508 0.87061 0.15880
 H49 H 0.69779 0.81612 0.08168
 H50 H 0.70230 0.89423 0.17746
 H51 H 0.78946 0.82122 0.16805
 H52 H 0.75336 0.79522 0.18998
 N53 N 0.82797 1.22587 -0.17530
 N54 N 0.85381 1.22245 -0.19922
 C55 C 0.88058 1.24773 -0.18924
 C56 C 0.87110 1.26826 -0.15727
 C57 C 0.83728 1.25378 -0.14945
 H58 H 0.90563 1.25013 -0.20349
 H59 H 0.82166 1.26149 -0.12537
 Cu60 Cu 0.85199 1.18357 -0.23918
 Cu61 Cu 0.78659 1.19108 -0.17731
 Cu62 Cu 0.80754 1.11026 -0.21841
 N63 N 0.85831 1.13887 -0.26761
 N64 N 0.84128 1.11014 -0.25879
 C65 C 0.85332 1.08261 -0.27946
 C66 C 0.87966 1.09457 -0.30264
 C67 C 0.88171 1.13069 -0.29443
 H68 H 0.84415 1.05592 -0.27665
 H69 H 0.90022 1.14968 -0.30523
 N70 N 0.76679 1.11658 -0.18533
 N71 N 0.75823 1.14732 -0.17024
 C72 C 0.73010 1.14273 -0.14811
 C73 C 0.72046 1.10725 -0.14932
 C74 C 0.74424 1.09164 -0.17351
 H75 H 0.71869 1.16365 -0.13110
 H76 H 0.74557 1.06408 -0.18154
 H77 H 0.82456 1.15771 -0.18696
 H78 H 0.79160 1.15761 -0.22794
 N79 N 0.14818 0.74312 -0.14204
 N80 N 0.12666 0.73829 -0.17282
 C81 C 0.10199 0.71132 -0.17027
 C82 C 0.10855 0.69852 -0.13609
 C83 C 0.13819 0.71927 -0.11902
 H84 H 0.07996 0.70263 -0.19087
 H85 H 0.14993 0.71875 -0.09077
 Cu86 Cu 0.13070 0.77093 -0.21033
 Cu87 Cu 0.18306 0.78379 -0.13115
 Cu88 Cu 0.20659 0.82367 -0.21040
 N89 N 0.13715 0.80271 -0.24839
 N90 N 0.16733 0.82278 -0.24894
 C91 C 0.16446 0.84285 -0.27718
 C92 C 0.13010 0.83571 -0.29480
 C93 C 0.11375 0.80981 -0.27566
 H94 H 0.18517 0.86262 -0.28266
 H95 H 0.08658 0.79746 -0.28045
 N96 N 0.23487 0.83242 -0.16134
 N97 N 0.22521 0.81791 -0.13109
 C98 C 0.24689 0.83208 -0.10113
 C99 C 0.27130 0.85702 -0.11283
 C100 C 0.26307 0.85634 -0.15131
 H101 H 0.24426 0.82554 -0.07258
 H102 H 0.27500 0.87365 -0.17002
 H103 H 0.16893 0.81643 -0.17148
 H104 H 0.19360 0.77756 -0.18635
 C105 C 0.45664 1.00190 -0.00789
 C106 C 0.47829 1.02703 0.01653
 C107 C 0.46229 1.05268 0.03964
 C108 C 0.42459 1.05343 0.03809
 C109 C 0.40318 1.02795 0.01373
 C110 C 0.41896 1.00201 -0.00918
 C111 C 0.51768 1.02583 0.01782
 C112 C 0.53869 1.04444 -0.00625
 C113 C 0.57561 1.03997 -0.00868
 C114 C 0.59127 1.01712 0.01370
 C115 C 0.57054 0.99853 0.03793
 C116 C 0.53369 1.00316 0.04012
 H117 H 0.46916 0.98187 -0.02529
 H118 H 0.47912 1.07212 0.05840
 H119 H 0.52596 1.06115 -0.02418
 H120 H 0.51721 0.98818 0.05797
 H121 H 0.37405 1.02819 0.01277
 H122 H 0.61983 1.01375 0.01230
 C123 C -0.03389 0.45599 0.99506
 C124 C -0.00939 0.47941 1.01844
 C125 C 0.01880 0.46689 1.03889
 C126 C 0.02269 0.43107 1.03557
 C127 C -0.00131 0.40794 1.01145
 C128 C -0.02966 0.42017 0.99101
 C129 C -0.01149 0.51708 1.01847
 C130 C -0.03856 0.53397 1.03761
 C131 C -0.04231 0.56930 1.03473
 C132 C -0.01908 0.58733 1.01210
 C133 C 0.00830 0.57075 0.99329
 C134 C 0.01228 0.53569 0.99693
 H135 H -0.05514 0.46583 0.97868
 H136 H 0.03793 0.48495 1.05673
 H137 H -0.05689 0.51953 1.05424
 H138 H 0.03299 0.52253 0.98193
 H139 H 0.00205 0.38028 1.00876
 H140 H -0.02166 0.61466 1.00991
 C141 C 1.02752 -0.03415 0.44332
 C142 C 1.05181 -0.01041 0.46646
 C143 C 1.07245 0.01556 0.45049
 C144 C 1.06798 0.01843 0.41162
 C145 C 1.04258 -0.00462 0.38894
 C146 C 1.02253 -0.03116 0.40460
 C147 C 1.05146 -0.01003 0.50783
 C148 C 1.07020 -0.03364 0.52636
 C149 C 1.06550 -0.03613 0.56495
 C150 C 1.04198 -0.01502 0.58472
 C151 C 1.02357 0.00899 0.56654
 C152 C 1.02872 0.01160 0.52811
 H153 H 1.01105 -0.05375 0.45586
 H154 H 1.09088 0.03422 0.46845
 H155 H 1.08740 -0.05069 0.51061
 H156 H 1.01371 0.02926 0.51348
 H157 H 1.03860 -0.00206 0.35905
 H158 H 1.03826 -0.01711 0.61448
 C159 C 0.09110 0.36360 1.16614
 C160 C 0.11934 0.34924 1.14601
 C161 C 0.12539 0.35889 1.10955
 C162 C 0.10220 0.37996 1.09254
 C163 C 0.07314 0.39284 1.11256
 C164 C 0.06841 0.38523 1.14965
 C165 C 0.04842 0.41179 1.09453
 C166 C 0.05202 0.41714 1.05648
 C167 C 0.08142 0.40510 1.03706
 C168 C 0.10661 0.38699 1.05509
 H169 H 0.14698 0.34887 1.09329
 H170 H 0.04646 0.39513 1.16555
 H171 H 0.02536 0.42072 1.10928
 H172 H 0.12872 0.37730 1.03927
 H173 H 0.08581 0.35781 1.19450
 H174 H 0.08420 0.40886 1.00757
 C175 C -0.15655 0.67508 1.05997
 C176 C -0.15676 0.67656 1.09967
 C177 C -0.13664 0.65377 1.11814
 C178 C -0.11562 0.63064 1.09733
 C179 C -0.11454 0.63048 1.05760
 C180 C -0.13556 0.65233 1.03915
 C181 C -0.09164 0.60924 1.03711
 C182 C -0.06977 0.58804 1.05572
 C183 C -0.07220 0.58710 1.09491
 C184 C -0.09488 0.60832 1.11560
 H185 H -0.13693 0.65436 1.14867
 H186 H -0.13516 0.65240 1.00870
 H187 H -0.09016 0.60976 1.00677
 H188 H -0.09551 0.60792 1.14599
 H189 H -0.17157 0.69240 1.04497
 H190 H -0.05542 0.57100 1.10975
 C191 C -0.06803 0.29768 0.86460
 C192 C -0.10580 0.29626 0.86632
 C193 C -0.12108 0.32092 0.89164
 C194 C -0.09886 0.34632 0.91532
 C195 C -0.06091 0.34680 0.91391
 C196 C -0.04581 0.32262 0.88824
 C197 C -0.03863 0.37122 0.93844
 C198 C -0.05365 0.39549 0.96429
 C199 C -0.09135 0.39557 0.96484
 C200 C -0.11382 0.37103 0.94068
 H201 H -0.15016 0.32036 0.89297
 H202 H -0.01677 0.32272 0.88674
 H203 H -0.00952 0.37140 0.93747
 H204 H -0.14284 0.37120 0.94206
 H205 H -0.05544 0.27890 0.84569
 H206 H -0.10340 0.41410 0.98460
 C207 C 0.04815 0.66796 0.87268
 C208 C 0.08550 0.67265 0.88159
 C209 C 0.10036 0.65407 0.90921
 C210 C 0.07804 0.63182 0.92850
 C211 C 0.04030 0.62847 0.92040
 C212 C 0.02570 0.64622 0.89207
 C213 C 0.01774 0.60796 0.94127
 C214 C 0.03243 0.59031 0.96972
 C215 C 0.07001 0.59259 0.97658
 C216 C 0.09267 0.61340 0.95629
 H217 H 0.12921 0.65720 0.91596
 H218 H -0.00314 0.64376 0.88536
 H219 H -0.01128 0.60591 0.93566
 H220 H 0.12155 0.61547 0.96269
 H221 H 0.03602 0.68212 0.85169
 H222 H 0.08171 0.57912 0.99846
 C223 C 1.09114 0.14647 0.32447
 C224 C 1.12862 0.14567 0.32017
 C225 C 1.14674 0.12058 0.33746
 C226 C 1.12774 0.09639 0.35751
 C227 C 1.08997 0.09671 0.35991
 C228 C 1.07206 0.12210 0.34374
 C229 C 1.07066 0.07140 0.37809
 C230 C 1.08875 0.04621 0.39465
 C231 C 1.12642 0.04679 0.39353
 C232 C 1.14579 0.07155 0.37483
 H233 H 1.17561 0.11969 0.33558
 H234 H 1.04314 0.12290 0.34565
 H235 H 1.04155 0.07109 0.37925
 H236 H 1.17479 0.07104 0.37357
 H237 H 1.07589 0.16511 0.31193
 H238 H 1.14067 0.02746 0.40623
 C239 C 1.07681 -0.15275 0.66734
 C240 C 1.11421 -0.14697 0.67680
 C241 C 1.13492 -0.12248 0.65827
 C242 C 1.11840 -0.10317 0.63240
 C243 C 1.08062 -0.10807 0.62506
 C244 C 1.06023 -0.13334 0.64207
 C245 C 1.06368 -0.08695 0.60164
 C246 C 1.08408 -0.06125 0.58504
 C247 C 1.12179 -0.05763 0.59078
 C248 C 1.13886 -0.07836 0.61446
 H249 H 1.16383 -0.11797 0.66402
 H250 H 1.03126 -0.13765 0.63640
 H251 H 1.03453 -0.08981 0.59704
 H252 H 1.16791 -0.07440 0.61948
 H253 H 1.05965 -0.17133 0.68038
 H254 H 1.13780 -0.03778 0.57822
 C255 C 0.88213 -0.07042 0.30446
 C256 C 0.88425 -0.10679 0.29853
 C257 C 0.91404 -0.12062 0.31536
 C258 C 0.94094 -0.09873 0.33737
 C259 C 0.93872 -0.06231 0.34207
 C260 C 0.90919 -0.04848 0.32561
 C261 C 0.96591 -0.04035 0.36343
 C262 C 0.99477 -0.05441 0.38109
 C263 C 0.99647 -0.09063 0.37705
 C264 C 0.96995 -0.11264 0.35500
 H265 H 0.91627 -0.14844 0.31206
 H266 H 0.90697 -0.02063 0.32914
 H267 H 0.96433 -0.01238 0.36702
 H268 H 0.97201 -0.14051 0.35195
 H269 H 0.86005 -0.05841 0.29210
 H270 H 1.01854 -0.10180 0.39069
 C271 C 0.89897 0.03782 0.67224
 C272 C 0.90148 0.07445 0.67350
 C273 C 0.92707 0.09042 0.65121
 C274 C 0.95018 0.07044 0.62927
 C275 C 0.94797 0.03396 0.62955
 C276 C 0.92204 0.01791 0.65073
 C277 C 0.97189 0.01410 0.60884
 C278 C 0.99785 0.03015 0.58742
 C279 C 0.99928 0.06631 0.58639
 C280 C 0.97576 0.08635 0.60732
 H281 H 0.92941 0.11836 0.65083
 H282 H 0.91981 -0.01009 0.65097
 H283 H 0.97028 -0.01390 0.60924
 H284 H 0.97776 0.11428 0.60658
 H285 H 0.87978 0.02413 0.68847
 H286 H 1.01913 0.07912 0.57001
 C287 C 0.31265 1.15962 0.07451
 C288 C 0.31822 1.16393 0.11422
 C289 C 0.34613 1.14744 0.13074
 C290 C 0.36748 1.12616 0.10792
 C291 C 0.36065 1.12116 0.06816
 C292 C 0.33358 1.13840 0.05173
 C293 C 0.38035 1.09832 0.04549
 C294 C 0.40695 1.08033 0.06191
 C295 C 0.41470 1.08647 0.10124
 C296 C 0.39502 1.10913 0.12412
 H297 H 0.35099 1.15084 0.16126
 H298 H 0.32811 1.13493 0.02128
 H299 H 0.37457 1.09399 0.01507
 H300 H 0.40082 1.11277 0.15451
 H301 H 0.29127 1.17170 0.06092
 H302 H 0.43505 1.07273 0.11440
 C303 C 0.69312 1.05343 -0.12500
 C304 C 0.69328 1.08947 -0.12694
 C305 C 0.66815 1.10829 -0.10640
 C306 C 0.64393 1.09148 -0.08362
 C307 C 0.64478 1.05543 -0.08147
 C308 C 0.66913 1.03661 -0.10256
 C309 C 0.62173 1.03879 -0.05774
 C310 C 0.59783 1.05763 -0.03567
 C311 C 0.59633 1.09327 -0.03871
 C312 C 0.61924 1.11010 -0.06247
 H313 H 0.66754 1.13597 -0.10777
 H314 H 0.67004 1.00892 -0.10125
 H315 H 0.62258 1.01112 -0.05617
 H316 H 0.61806 1.13774 -0.06382
 H317 H 0.71202 1.03803 -0.14013
 H318 H 0.57813 1.10830 -0.02191
 C319 C 0.29110 0.88976 -0.04958
 C320 C 0.29696 0.88213 -0.08838
 C321 C 0.32677 0.89935 -0.10361
 C322 C 0.35022 0.92404 -0.08040
 C323 C 0.34350 0.93190 -0.04162
 C324 C 0.31405 0.91447 -0.02647
 C325 C 0.36619 0.95721 -0.01861
 C326 C 0.39585 0.97467 -0.03364
 C327 C 0.40292 0.96619 -0.07197
 C328 C 0.38017 0.94120 -0.09525
 H329 H 0.33178 0.89348 -0.13339
 H330 H 0.30856 0.92015 0.00321
 H331 H 0.36090 0.96326 0.01110
 H332 H 0.38587 0.93546 -0.12485
 H333 H 0.26820 0.87728 -0.03708
 H334 H 0.42564 0.97945 -0.08407
 C335 C 0.66599 0.87943 0.06171
 C336 C 0.66579 0.88236 0.10148
 C337 C 0.64462 0.90651 0.12064
 C338 C 0.62456 0.92800 0.10034
 C339 C 0.62604 0.92556 0.06045
 C340 C 0.64643 0.90092 0.04140
 C341 C 0.60765 0.94821 0.04030
 C342 C 0.58746 0.97317 0.05936
 C343 C 0.58491 0.97462 0.09878
 C344 C 0.60350 0.95232 0.11919
 H345 H 0.64393 0.90871 0.15126
 H346 H 0.64771 0.89864 0.01082
 H347 H 0.60928 0.94672 0.00977
 H348 H 0.60184 0.95442 0.14972
 H349 H 0.68222 0.86127 0.04624
 H350 H 0.56943 0.99373 0.11387
   
