data_POSCAR
  _audit_creation_date              2014-09-24
  _audit_creation_method            'ToBaCCo'
  _symmetry_space_group_name_H-M    'P1'
  _symmetry_Int_Tables_number       1
  _symmetry_cell_setting            triclinic
  loop_
  _symmetry_equiv_pos_as_xyz
 x,y,z
_cell_length_a 21.8271
_cell_length_b 25.2944
_cell_length_c 24.4008
_cell_angle_alpha 82.778900
_cell_angle_beta 86.776300
_cell_angle_gamma 92.117400
loop_
  _atom_site_label
  _atom_site_type_symbol
  _atom_site_fract_x
  _atom_site_fract_y
  _atom_site_fract_z
C1 C 0.65827 0.75813 0.68176
 N2 N 0.69265 0.73128 0.64714
 C3 C 0.71738 0.68465 0.66660
 N4 N 0.70729 0.66465 0.72067
 C5 C 0.67359 0.69154 0.75551
 N6 N 0.64920 0.73840 0.73614
 C7 C 0.81297 0.22508 0.24356
 N8 N 0.77287 0.24936 0.20906
 C9 C 0.76018 0.30128 0.21159
 N10 N 0.78719 0.32838 0.24901
 C11 C 0.82729 0.30411 0.28347
 N12 N 0.84067 0.25266 0.28023
 C13 C 0.32211 0.23662 -0.19616
 N14 N 0.26801 0.22037 -0.16796
 C15 C 0.22893 0.18542 -0.18779
 N16 N 0.24503 0.16555 -0.23538
 C17 C 0.29946 0.18090 -0.26354
 N18 N 0.33834 0.21622 -0.24362
 C19 C 0.20805 0.74371 0.31015
 N20 N 0.18920 0.76604 0.26089
 C21 C 0.20076 0.81877 0.24392
 N22 N 0.23172 0.84928 0.27624
 C23 C 0.25091 0.82681 0.32560
 N24 N 0.23973 0.77388 0.34202
 N25 N -0.03894 0.11076 0.14458
 N26 N -0.04551 0.06266 0.17263
 C27 C -0.09202 0.06146 0.21144
 C28 C -0.11485 0.11167 0.20775
 C29 C -0.08036 0.14240 0.16529
 H30 H -0.10745 0.02703 0.24045
 H31 H -0.08544 0.18397 0.15013
 Cu32 Cu 0.00859 0.00656 0.15692
 Cu33 Cu 0.02208 0.12733 0.08230
 Cu34 Cu 0.06602 0.01417 0.02671
 N35 N 0.06853 -0.04326 0.13561
 N36 N 0.08812 -0.04208 0.08342
 C37 C 0.12902 -0.08009 0.07920
 C38 C 0.13597 -0.10536 0.13161
 C39 C 0.09713 -0.08147 0.16685
 H40 H 0.15428 -0.08664 0.04140
 H41 H 0.09120 -0.09018 0.21143
 N42 N 0.07182 0.08574 -0.01583
 N43 N 0.06109 0.12946 0.00698
 C44 C 0.08494 0.17209 -0.02736
 C45 C 0.11094 0.15399 -0.07403
 C46 C 0.10154 0.09926 -0.06569
 H47 H 0.08771 0.21246 -0.01717
 H48 H 0.12228 0.07113 -0.09024
 H49 H -0.00387 0.05455 0.06486
 H50 H 0.07605 0.06081 0.08731
 N51 N 0.53866 0.91312 0.53018
 N52 N 0.54209 0.93553 0.57581
 C53 C 0.57579 0.90547 0.61138
 C54 C 0.59503 0.86286 0.58549
 C55 C 0.57140 0.86893 0.53414
 H56 H 0.58417 0.91328 0.65296
 H57 H 0.57388 0.84133 0.50370
 Cu58 Cu 0.50092 1.00142 0.58369
 Cu59 Cu 0.48374 0.93820 0.47340
 Cu60 Cu 0.36784 1.01381 0.52183
 N61 N 0.44610 1.05769 0.59737
 N62 N 0.39263 1.06112 0.57499
 C63 C 0.35961 1.09733 0.59836
 C64 C 0.39531 1.11818 0.63626
 C65 C 0.44974 1.09243 0.63468
 H66 H 0.31237 1.10557 0.59066
 H67 H 0.48656 1.09514 0.66219
 N68 N 0.36096 0.97578 0.45606
 N69 N 0.40587 0.94768 0.43773
 C70 C 0.38602 0.92126 0.39719
 C71 C 0.32619 0.93413 0.38902
 C72 C 0.31137 0.96888 0.42655
 H73 H 0.41167 0.89203 0.37790
 H74 H 0.26669 0.98430 0.43476
 H75 H 0.45620 1.01337 0.49314
 H76 H 0.42629 0.95158 0.53785
 N77 N 1.03775 0.61528 0.40395
 N78 N 1.05460 0.56719 0.39608
 C79 C 1.11236 0.57027 0.37313
 C80 C 1.13200 0.62313 0.36585
 C81 C 1.08395 0.65098 0.38550
 H82 H 1.13694 0.53704 0.36046
 H83 H 1.08229 0.69364 0.38571
 Cu84 Cu 0.99737 0.50596 0.40997
 Cu85 Cu 0.95641 0.62795 0.43587
 Cu86 Cu 0.86642 0.51495 0.48495
 N87 N 0.92749 0.45687 0.40626
 N88 N 0.87502 0.46183 0.43406
 C89 C 0.83200 0.42840 0.41814
 C90 C 0.85972 0.40069 0.37918
 C91 C 0.92020 0.41938 0.37230
 H92 H 0.78390 0.42627 0.43196
 H93 H 0.95467 0.40980 0.34192
 N94 N 0.85204 0.58423 0.50956
 N95 N 0.88367 0.62830 0.48817
 C96 C 0.86152 0.66971 0.51172
 C97 C 0.81471 0.64998 0.54990
 C98 C 0.80967 0.59582 0.54789
 H99 H 0.87969 0.71048 0.50343
 H100 H 0.77765 0.56715 0.57203
 H101 H 0.95433 0.55519 0.48160
 H102 H 0.90855 0.56073 0.41884
 N103 N 0.50962 0.34647 -0.10511
 N104 N 0.51311 0.38741 -0.14442
 C105 C 0.47796 0.37600 -0.18565
 C106 C 0.45080 0.32583 -0.17017
 C107 C 0.47145 0.30814 -0.11909
 H108 H 0.47034 0.40288 -0.22248
 H109 H 0.45936 0.27047 -0.09400
 Cu110 Cu 0.55683 0.45374 -0.13365
 Cu111 Cu 0.55498 0.34493 -0.03875
 Cu112 Cu 0.63005 0.46248 -0.01678
 N113 N 0.60099 0.51928 -0.12116
 N114 N 0.62537 0.52328 -0.07359
 C115 C 0.64954 0.57308 -0.07395
 C116 C 0.64039 0.60123 -0.12455
 C117 C 0.60969 0.56639 -0.15395
 H118 H 0.67368 0.58721 -0.04074
 H119 H 0.59458 0.57484 -0.19547
 N120 N 0.63046 0.39624 0.03523
 N121 N 0.60346 0.35089 0.02586
 C122 C 0.61883 0.31137 0.06435
 C123 C 0.65658 0.33329 0.09955
 C124 C 0.66334 0.38697 0.08032
 H125 H 0.60621 0.26954 0.06509
 H126 H 0.69331 0.41605 0.09560
 H127 H 0.54900 0.42554 -0.03405
 H128 H 0.62108 0.40436 -0.06851
 N129 N -0.17543 0.17505 0.24208
 N130 N -0.16417 0.12773 0.24198
 N131 N 0.62907 0.80538 0.66060
 N132 N 0.62520 0.81697 0.60871
 N133 N 1.19831 0.69267 0.32548
 N134 N 1.18908 0.64439 0.33912
 N135 N 0.36488 0.26871 -0.17122
 N136 N 0.40666 0.29874 -0.19897
 N137 N 0.18882 -0.16169 0.19378
 N138 N 0.17951 -0.14478 0.14556
 N139 N 0.66638 0.67295 -0.19207
 N140 N 0.66134 0.65511 -0.14264
 N141 N 0.31886 1.15363 0.69115
 N142 N 0.37557 1.14888 0.67874
 N143 N 0.85693 0.33303 0.32171
 N144 N 0.82893 0.36849 0.34446
 N145 N 0.17673 0.16237 -0.15422
 N146 N 0.15683 0.18233 -0.11167
 N147 N 0.75349 0.65621 0.63063
 N148 N 0.78036 0.67960 0.58607
 N149 N 0.72204 0.32882 0.17288
 N150 N 0.69094 0.30439 0.14057
 N151 N 0.28818 0.85679 0.35785
 N152 N 0.28430 0.90680 0.35823
   
