data_POSCAR
  _audit_creation_date              2014-09-24
  _audit_creation_method            'ToBaCCo'
  _symmetry_space_group_name_H-M    'P1'
  _symmetry_Int_Tables_number       1
  _symmetry_cell_setting            triclinic
  loop_
  _symmetry_equiv_pos_as_xyz
 x,y,z
_cell_length_a 16.3231
_cell_length_b 16.4078
_cell_length_c 17.0931
_cell_angle_alpha 89.999900
_cell_angle_beta 90.311400
_cell_angle_gamma 120.168700
loop_
  _atom_site_label
  _atom_site_type_symbol
  _atom_site_fract_x
  _atom_site_fract_y
  _atom_site_fract_z
O1 O 0.35355 0.52413 0.31511
 O2 O 0.19760 0.52757 0.33804
 C3 C 0.15527 0.57252 0.35288
 O4 O 0.16796 0.64432 0.31470
 O5 O 0.32791 0.79994 0.33857
 C6 C 0.41573 0.84250 0.35373
 O7 O 0.47509 0.82967 0.31595
 O8 O 0.47115 0.67073 0.33921
 C9 C 0.42597 0.58335 0.35364
 O10 O 0.32778 0.52805 0.15925
 O11 O 0.16767 0.52338 0.18211
 C12 C 0.15445 0.58220 0.14386
 O13 O 0.19702 0.66954 0.15890
 O14 O 0.35304 0.82908 0.18285
 C15 C 0.42560 0.84247 0.14516
 O16 O 0.47096 0.80046 0.16012
 O17 O 0.47500 0.64547 0.18339
 C18 C 0.41560 0.57331 0.14496
 Cr19 Cr 0.26429 0.53107 0.24863
 Cr20 Cr 0.26413 0.73308 0.24876
 Cr21 Cr 0.46773 0.73392 0.24964
 O22 O 0.33206 0.66604 0.24900
 O23 O 0.52458 0.35440 0.68374
 O24 O 0.52851 0.19939 0.66050
 C25 C 0.57372 0.15722 0.64604
 O26 O 0.64617 0.17044 0.68452
 O27 O 0.80213 0.32982 0.66168
 C28 C 0.84443 0.41709 0.64682
 O29 O 0.83171 0.47620 0.68496
 O30 O 0.67175 0.47186 0.66112
 C31 C 0.58393 0.42659 0.64595
 O32 O 0.52872 0.32936 0.83957
 O33 O 0.52467 0.17032 0.81632
 C34 C 0.58406 0.15750 0.85471
 O35 O 0.67187 0.20002 0.84040
 O36 O 0.83198 0.35545 0.81764
 C37 C 0.84516 0.42752 0.85578
 O38 O 0.80271 0.47241 0.84076
 O39 O 0.64665 0.47588 0.81684
 C40 C 0.57408 0.41673 0.85453
 Cr41 Cr 0.53194 0.26602 0.75006
 Cr42 Cr 0.73540 0.26658 0.75105
 Cr43 Cr 0.73555 0.46879 0.75092
 O44 O 0.66763 0.33381 0.75071
 C45 C 0.45026 -0.09002 0.41640
 C46 C 0.47897 -0.03333 0.46906
 C47 C 0.51226 0.03305 0.53072
 C48 C 0.54043 0.08975 0.58338
 C49 C 1.08845 0.53983 0.41576
 C50 C 1.03254 0.51218 0.46877
 C51 C 0.96716 0.47948 0.53092
 C52 C 0.91125 0.45122 0.58393
 C53 C 0.45924 0.54913 0.41629
 C54 C 0.48741 0.52061 0.46895
 C55 C 0.52069 0.48751 0.53062
 C56 C 0.54939 0.45952 0.58329
 C57 C 0.45888 -0.08999 1.08290
 C58 C 0.48718 -0.03322 1.03059
 C59 C 0.52066 0.03327 0.96934
 C60 C 0.54949 0.09002 0.91702
 C61 C 1.09298 0.55083 1.08670
 C62 C 1.03615 0.52209 1.03373
 C63 C 0.96966 0.48882 0.97169
 C64 C 0.91285 0.46069 0.91874
 C65 C 0.45016 0.54039 1.08265
 C66 C 0.47900 0.51248 1.03033
 C67 C 0.51249 0.47947 0.96909
 C68 C 0.54079 0.45099 0.91679
   
