data_POSCAR
  _audit_creation_date              2014-09-24
  _audit_creation_method            'ToBaCCo'
  _symmetry_space_group_name_H-M    'P1'
  _symmetry_Int_Tables_number       1
  _symmetry_cell_setting            triclinic
  loop_
  _symmetry_equiv_pos_as_xyz
 x,y,z
_cell_length_a 28.2314
_cell_length_b 28.0372
_cell_length_c 31.8903
_cell_angle_alpha 90.044900
_cell_angle_beta 89.906300
_cell_angle_gamma 118.696900
loop_
  _atom_site_label
  _atom_site_type_symbol
  _atom_site_fract_x
  _atom_site_fract_y
  _atom_site_fract_z
O1 O 0.04722 0.56849 1.29000
 O2 O -0.05510 0.51322 1.20683
 O3 O -0.05740 0.51280 1.28820
 O4 O 0.05017 0.56738 1.20840
 O5 O 0.05381 0.49045 1.20980
 O6 O -0.05354 0.43597 1.28926
 O7 O -0.05158 0.43626 1.20778
 O8 O 0.05110 0.49169 1.29141
 Cu9 Cu -0.00411 0.54821 1.24814
 Cu10 Cu 0.00042 0.45589 1.24958
 C11 C 0.06637 0.53949 1.30508
 C12 C -0.07117 0.46533 1.19327
 C13 C -0.07369 0.46513 1.30236
 C14 C 0.07041 0.53811 1.19562
 O15 O 0.43612 0.49095 1.29133
 O16 O 0.49018 0.43509 1.21126
 O17 O 0.49060 0.43806 1.29330
 O18 O 0.43612 0.48890 1.20979
 O19 O 0.51260 0.56638 1.20891
 O20 O 0.56702 0.51557 1.29178
 O21 O 0.56653 0.51264 1.20986
 O22 O 0.51256 0.56839 1.29029
 Cu23 Cu 0.45566 0.45538 1.25146
 Cu24 Cu 0.54739 0.54842 1.25004
 C25 C 0.46514 0.53925 1.30453
 C26 C 0.53739 0.46433 1.19676
 C27 C 0.53803 0.46850 1.30700
 C28 C 0.46509 0.53655 1.19537
 O29 O 0.51099 0.94446 1.29146
 O30 O 0.56705 1.04916 1.20885
 O31 O 0.56796 1.05008 1.29051
 O32 O 0.51023 0.94349 1.20957
 O33 O 0.43523 0.94981 1.20993
 O34 O 0.49298 1.05635 1.29082
 O35 O 0.49205 1.05547 1.20910
 O36 O 0.43601 0.95073 1.29170
 Cu37 Cu 0.54653 0.99610 1.25006
 Cu38 Cu 0.45655 1.00370 1.25042
 C39 C 0.46391 0.92979 1.30581
 C40 C 0.53915 1.07016 1.19489
 C41 C 0.54035 1.07143 1.30453
 C42 C 0.46292 0.92859 1.19587
 O43 O 0.94754 0.51111 0.70829
 O44 O 1.05363 0.56668 0.78906
 O45 O 1.05264 0.56643 0.70725
 O46 O 0.94846 0.51265 0.78986
 O47 O 0.95236 0.43585 0.79004
 O48 O 1.05647 0.48964 0.70726
 O49 O 1.05748 0.48986 0.78916
 O50 O 0.95147 0.43432 0.70854
 Cu51 Cu 1.00027 0.54697 0.74859
 Cu52 Cu 1.00491 0.45477 0.74878
 C53 C 0.93136 0.46312 0.69474
 C54 C 1.07348 0.53767 0.80298
 C55 C 1.07223 0.53728 0.69300
 C56 C 0.93256 0.46498 0.80396
 O57 O 0.48373 0.43114 0.70802
 O58 O 0.43242 0.48523 0.79090
 O59 O 0.43025 0.48485 0.70953
 O60 O 0.48739 0.43254 0.78979
 O61 O 0.56370 0.51013 0.78804
 O62 O 0.50656 0.56250 0.70819
 O63 O 0.50871 0.56292 0.78967
 O64 O 0.56005 0.50876 0.70623
 Cu65 Cu 0.45084 0.45059 0.74979
 Cu66 Cu 0.54250 0.54384 0.74797
 C67 C 0.53032 0.46079 0.69270
 C68 C 0.46155 0.53327 0.80426
 C69 C 0.45871 0.53258 0.69518
 C70 C 0.53536 0.46255 0.80261
 O71 O 0.56665 0.04615 0.70804
 O72 O 0.50685 -0.05786 0.79048
 O73 O 0.50646 -0.05858 0.70850
 O74 O 0.56721 0.04698 0.78990
 O75 O 0.49411 0.05672 0.79010
 O76 O 0.43332 -0.04896 0.70868
 O77 O 0.43372 -0.04814 0.79053
 O78 O 0.49349 0.05581 0.70800
 Cu79 Cu 0.54410 -0.00686 0.74924
 Cu80 Cu 0.45636 0.00491 0.74936
 C81 C 0.54000 0.06823 0.69362
 C82 C 0.46031 -0.07037 0.80483
 C83 C 0.45976 -0.07140 0.69432
 C84 C 0.54080 0.06947 0.80418
 O85 O 0.40878 0.66829 0.95104
 O86 O 0.40928 0.76032 0.96369
 C87 C 0.37446 0.76691 0.94284
 O88 O 0.32461 0.74287 0.95166
 O89 O 0.23471 0.65402 0.96630
 C90 C 0.22835 0.61298 0.94508
 O91 O 0.25441 0.58752 0.95228
 O92 O 0.34406 0.58426 0.96557
 C93 C 0.38450 0.61755 0.94426
 O94 O 0.41261 0.65407 1.03440
 O95 O 0.40888 0.74411 1.04728
 C96 C 0.38300 0.76957 1.05514
 O97 O 0.34134 0.76207 1.03476
 O98 O 0.25376 0.67047 1.04934
 C99 C 0.22913 0.61981 1.05661
 O100 O 0.23706 0.58579 1.03557
 O101 O 0.32939 0.58774 1.04872
 C102 C 0.37983 0.61298 1.05561
 Cr103 Cr 0.40696 0.70528 0.99917
 Cr104 Cr 0.29016 0.70591 1.00053
 Cr105 Cr 0.29262 0.58928 1.00053
 O106 O 0.32996 0.66685 1.00015
 O107 O 0.59168 0.33150 0.95068
 O108 O 0.59212 0.23988 0.96287
 C109 C 0.62703 0.23304 0.94223
 O110 O 0.67686 0.25708 0.95116
 O111 O 0.76660 0.34652 0.96513
 C112 C 0.77333 0.38779 0.94409
 O113 O 0.74712 0.41315 0.95119
 O114 O 0.65687 0.41570 0.96398
 C115 C 0.61611 0.38209 0.94318
 O116 O 0.58810 0.34538 1.03430
 O117 O 0.59242 0.25556 1.04665
 C118 C 0.61882 0.23068 1.05462
 O119 O 0.66088 0.23888 1.03442
 O120 O 0.74827 0.33103 1.04831
 C121 C 0.77235 0.38174 1.05552
 O122 O 0.76370 0.41534 1.03460
 O123 O 0.67105 0.41295 1.04741
 C124 C 0.62078 0.38695 1.05509
 Cr125 Cr 0.59409 0.29458 0.99867
 Cr126 Cr 0.71153 0.29485 0.99975
 Cr127 Cr 0.70824 0.41125 0.99931
 O128 O 0.67123 0.33354 0.99930
 O129 O 0.65554 0.41230 0.53613
 O130 O 0.74514 0.40933 0.54938
 C131 C 0.77192 0.38448 0.55572
 O132 O 0.76605 0.34416 0.53379
 O133 O 0.67602 0.25459 0.54689
 C134 C 0.62595 0.23012 0.55506
 O135 O 0.59132 0.23667 0.53382
 O136 O 0.59026 0.32751 0.54740
 C137 C 0.61468 0.37758 0.55639
 O138 O 0.67234 0.41207 0.45280
 O139 O 0.76427 0.41407 0.46617
 C140 C 0.77226 0.38080 0.44413
 O141 O 0.74806 0.32992 0.45056
 O142 O 0.66101 0.23726 0.46361
 C143 C 0.61981 0.22995 0.44271
 O144 O 0.59378 0.25527 0.45031
 O145 O 0.58883 0.34434 0.46391
 C146 C 0.62260 0.38621 0.44381
 Cr147 Cr 0.70788 0.40900 0.50105
 Cr148 Cr 0.71124 0.29291 0.49873
 Cr149 Cr 0.59395 0.29244 0.49887
 O150 O 0.67094 0.33144 0.49953
 O151 O 0.34199 0.58463 0.53287
 O152 O 0.25218 0.58799 0.54478
 C153 C 0.22659 0.61380 0.55249
 O154 O 0.23419 0.65589 0.53218
 O155 O 0.32431 0.74393 0.54853
 C156 C 0.37401 0.76745 0.55781
 O157 O 0.40897 0.76090 0.53700
 O158 O 0.40740 0.66811 0.54819
 C159 C 0.38219 0.61727 0.55469
 O160 O 0.33032 0.59051 0.44937
 O161 O 0.23815 0.58921 0.46100
 C162 C 0.23155 0.62441 0.44038
 O163 O 0.25542 0.67456 0.44941
 O164 O 0.34296 0.76530 0.46572
 C165 C 0.38481 0.77292 0.44544
 O166 O 0.41031 0.74704 0.45309
 O167 O 0.41327 0.65639 0.46463
 C168 C 0.38084 0.61581 0.44286
 Cr169 Cr 0.29209 0.59108 0.49707
 Cr170 Cr 0.29074 0.70840 0.49895
 Cr171 Cr 0.40703 0.70668 0.50064
 O172 O 0.32998 0.66870 0.49887
 C173 C 0.44561 0.56114 0.33509
 C174 C 0.39590 0.53321 0.35178
 C175 C 0.37397 0.55440 0.38480
 C176 C 0.40415 0.59749 0.40913
 H177 H 0.36872 0.49268 0.34042
 H178 H 0.33083 0.53155 0.39019
 H179 H 0.47225 0.60243 0.34497
 H180 H 0.44752 0.61961 0.40546
 C181 C 0.44200 0.89057 0.33744
 C182 C 0.46876 0.86650 0.35435
 C183 C 0.44732 0.82499 0.38806
 C184 C 0.40419 0.81439 0.41198
 H185 H 0.50847 0.87646 0.34255
 H186 H 0.46961 0.80321 0.39391
 H187 H 0.40164 0.87966 0.34798
 H188 H 0.38227 0.83675 0.40768
 C189 C 0.10643 0.56227 0.33901
 C190 C 0.12805 0.53410 0.35719
 C191 C 0.16693 0.55444 0.39239
 C192 C 0.19373 0.60658 0.40476
 H193 H 0.11545 0.49288 0.34694
 H194 H 0.17418 0.52445 0.40832
 H195 H 0.11681 0.60273 0.34959
 H196 H 0.18881 0.63766 0.38840
 C197 C 0.56042 0.45020 0.34119
 C198 C 0.53214 0.40187 0.36018
 C199 C 0.55246 0.38252 0.39557
 C200 C 0.60395 0.40689 0.40863
 H201 H 0.49109 0.37505 0.35021
 H202 H 0.52316 0.34567 0.41101
 H203 H 0.60082 0.47855 0.35123
 H204 H 0.63437 0.44270 0.39297
 C205 C 0.56286 0.11152 0.33539
 C206 C 0.53636 0.13609 0.35198
 C207 C 0.55796 0.17801 0.38529
 C208 C 0.60149 0.18927 0.40878
 H209 H 0.49652 0.12590 0.34044
 H210 H 0.53515 0.19920 0.39147
 H211 H 0.60332 0.12259 0.34563
 H212 H 0.62401 0.16755 0.40420
 C213 C 0.88391 0.44422 0.33462
 C214 C 0.86518 0.39451 0.35133
 C215 C 0.82396 0.37252 0.38482
 C216 C 0.81241 0.40359 0.41028
 H217 H 0.87981 0.36769 0.33960
 H218 H 0.80416 0.32893 0.38957
 H219 H 0.86805 0.47073 0.34440
 H220 H 0.83352 0.44737 0.40722
 C221 C 0.55762 0.44133 1.16412
 C222 C 0.60665 0.46983 1.14660
 C223 C 0.62830 0.44902 1.11301
 C224 C 0.59800 0.40540 1.08917
 H225 H 0.63333 0.51060 1.15773
 H226 H 0.67121 0.47246 1.10685
 H227 H 0.53103 0.39984 1.15472
 H228 H 0.55478 0.38266 1.09370
 C229 C 0.88919 0.44547 1.16222
 C230 C 0.86901 0.39525 1.14589
 C231 C 0.82697 0.37340 1.11282
 C232 C 0.81321 0.40420 1.08894
 H233 H 0.88272 0.36773 1.15766
 H234 H 0.80793 0.32999 1.10727
 H235 H 0.87423 0.47247 1.15190
 H236 H 0.83321 0.44784 1.09271
 C237 C 0.56234 0.11183 1.16176
 C238 C 0.53526 0.13565 1.14517
 C239 C 0.55624 0.17741 1.11162
 C240 C 0.60027 0.18962 1.08835
 H241 H 0.49542 0.12490 1.15709
 H242 H 0.53282 0.19790 1.10528
 H243 H 0.60278 0.12290 1.15142
 H244 H 0.62344 0.16865 1.09319
 C245 C 0.44433 0.55846 1.16256
 C246 C 0.39468 0.53000 1.14626
 C247 C 0.37257 0.55070 1.11310
 C248 C 0.40276 0.59412 1.08904
 H249 H 0.36794 0.48968 1.15822
 H250 H 0.32948 0.52767 1.10764
 H251 H 0.47102 0.59958 1.15241
 H252 H 0.44609 0.61641 1.09276
 C253 C 0.11349 0.55868 1.16389
 C254 C 0.13308 0.60823 1.14672
 C255 C 0.17540 0.62955 1.11391
 C256 C 0.18841 0.59804 1.09016
 H257 H 0.11829 0.63533 1.15749
 H258 H 0.19486 0.67293 1.10815
 H259 H 0.12934 0.53185 1.15504
 H260 H 0.16771 0.55440 1.09409
 C261 C 0.43934 0.88658 1.16310
 C262 C 0.46654 0.86318 1.14597
 C263 C 0.44526 0.82154 1.11244
 C264 C 0.40182 0.81051 1.08890
 H265 H 0.50661 0.87418 1.15739
 H266 H 0.46804 0.80033 1.10622
 H267 H 0.39861 0.87506 1.15333
 H268 H 0.37949 0.83240 1.09353
 C269 C 0.54899 0.43860 0.65858
 C270 C 0.59702 0.46757 0.63978
 C271 C 0.61674 0.44757 0.60443
 C272 C 0.59360 0.39560 0.59171
 H273 H 0.62321 0.50900 0.64979
 H274 H 0.65285 0.47758 0.58872
 H275 H 0.52123 0.39782 0.64841
 H276 H 0.55867 0.36449 0.60771
 C277 C 0.56356 0.10790 0.65932
 C278 C 0.53591 0.12924 0.63997
 C279 C 0.55630 0.16709 0.60394
 C280 C 0.60771 0.19195 0.59062
 H281 H 0.49500 0.11721 0.64994
 H282 H 0.52705 0.17548 0.58832
 H283 H 0.60368 0.11752 0.64914
 H284 H 0.63817 0.18597 0.60659
 C285 C 0.88899 0.43990 0.66253
 C286 C 0.86559 0.46758 0.64636
 C287 C 0.82346 0.44627 0.61348
 C288 C 0.81276 0.40315 0.58921
 H289 H 0.87689 0.50789 0.65812
 H290 H 0.80185 0.46886 0.60822
 H291 H 0.87691 0.39879 0.65258
 H292 H 0.83530 0.38129 0.59273
 C293 C 0.43550 0.55268 0.66285
 C294 C 0.46327 0.60262 0.64628
 C295 C 0.44255 0.62453 0.61307
 C296 C 0.40016 0.59392 0.58849
 H297 H 0.50334 0.62990 0.65796
 H298 H 0.46511 0.66799 0.60778
 H299 H 0.39463 0.52543 0.65299
 H300 H 0.37835 0.55024 0.59211
 C301 C 0.43705 0.89033 0.66218
 C302 C 0.46336 0.86653 0.64399
 C303 C 0.44274 0.82852 0.60804
 C304 C 0.39166 0.80473 0.59404
 H305 H 0.50365 0.87686 0.65450
 H306 H 0.47175 0.81931 0.59286
 H307 H 0.39754 0.88169 0.65114
 H308 H 0.36133 0.81141 0.60962
 C309 C 0.11117 0.55851 0.66129
 C310 C 0.13390 0.53054 0.64409
 C311 C 0.17500 0.55146 0.61023
 C312 C 0.18551 0.59460 0.58604
 H313 H 0.12316 0.49033 0.65579
 H314 H 0.19645 0.52880 0.60447
 H315 H 0.12304 0.59942 0.65090
 H316 H 0.16332 0.61674 0.59022
 C317 C 0.43946 0.55387 0.83705
 C318 C 0.46732 0.60397 0.85327
 C319 C 0.44637 0.62582 0.88648
 C320 C 0.40377 0.59489 0.91087
 H321 H 0.50722 0.63124 0.84121
 H322 H 0.46846 0.66931 0.89170
 H323 H 0.39872 0.52669 0.84727
 H324 H 0.38251 0.55119 0.90741
 C325 C 0.11518 0.56027 0.83577
 C326 C 0.13723 0.53170 0.85268
 C327 C 0.17826 0.55209 0.88640
 C328 C 0.18801 0.59447 0.91121
 H329 H 0.12565 0.49133 0.84090
 H330 H 0.19986 0.52950 0.89174
 H331 H 0.12767 0.60146 0.84576
 H332 H 0.16539 0.61623 0.90749
 C333 C 0.43664 0.88967 0.83893
 C334 C 0.46400 0.86757 0.85766
 C335 C 0.44366 0.82951 0.89354
 C336 C 0.39232 0.80471 0.90703
 H337 H 0.50470 0.87922 0.84736
 H338 H 0.47297 0.82105 0.90899
 H339 H 0.39674 0.88038 0.84947
 H340 H 0.36180 0.81075 0.89121
 C341 C 0.55907 0.44295 0.83494
 C342 C 0.53170 0.39353 0.85246
 C343 C 0.55349 0.37264 0.88572
 C344 C 0.59664 0.40408 0.90938
 H345 H 0.49128 0.36601 0.84157
 H346 H 0.53126 0.32935 0.89182
 H347 H 0.60024 0.47032 0.84404
 H348 H 0.61810 0.44765 0.90498
 C349 C 0.89080 0.44248 0.83689
 C350 C 0.86759 0.47047 0.85308
 C351 C 0.82568 0.44981 0.88635
 C352 C 0.81440 0.40654 0.91058
 H353 H 0.87882 0.51058 0.84093
 H354 H 0.80449 0.47281 0.89175
 H355 H 0.87890 0.40159 0.84727
 H356 H 0.83640 0.38417 0.90678
 C357 C 0.56484 0.10998 0.83798
 C358 C 0.53757 0.13207 0.85699
 C359 C 0.55806 0.17047 0.89273
 C360 C 0.60926 0.19496 0.90650
 H361 H 0.49672 0.12016 0.84701
 H362 H 0.52885 0.17936 0.90794
 H363 H 0.60496 0.11965 0.84811
 H364 H 0.63970 0.18838 0.89101
   
