data_POSCAR
  _audit_creation_date              2014-09-24
  _audit_creation_method            'ToBaCCo'
  _symmetry_space_group_name_H-M    'P1'
  _symmetry_Int_Tables_number       1
  _symmetry_cell_setting            triclinic
  loop_
  _symmetry_equiv_pos_as_xyz
 x,y,z
_cell_length_a 31.3659
_cell_length_b 31.7051
_cell_length_c 30.2726
_cell_angle_alpha 88.473000
_cell_angle_beta 89.515500
_cell_angle_gamma 88.564800
loop_
  _atom_site_label
  _atom_site_type_symbol
  _atom_site_fract_x
  _atom_site_fract_y
  _atom_site_fract_z
C1 C 1.26023 0.20229 0.26298
 C2 C 1.23346 0.22734 0.23579
 C3 C 1.19760 0.20983 0.21683
 C4 C 1.18825 0.16730 0.22532
 C5 C 1.21441 0.14288 0.25393
 C6 C 1.25091 0.15970 0.27277
 C7 C 1.24145 0.27279 0.23047
 C8 C 1.28008 0.28682 0.21259
 C9 C 1.28823 0.33019 0.20827
 C10 C 1.25753 0.35942 0.22499
 C11 C 1.22007 0.34518 0.24590
 C12 C 1.21162 0.30195 0.24680
 H13 H 1.28672 0.21753 0.27784
 H14 H 1.17673 0.22955 0.19622
 H15 H 1.30330 0.26369 0.20088
 H16 H 1.18233 0.29068 0.26166
 H17 H 1.20654 0.11023 0.26091
 H18 H 1.26357 0.39287 0.22461
 C19 C 0.76071 -0.29732 0.29816
 C20 C 0.73194 -0.27367 0.27180
 C21 C 0.69700 -0.29312 0.25318
 C22 C 0.69035 -0.33638 0.26095
 C23 C 0.71820 -0.35934 0.28928
 C24 C 0.75418 -0.34056 0.30741
 C25 C 0.73808 -0.22817 0.26424
 C26 C 0.76700 -0.21400 0.23190
 C27 C 0.77141 -0.17062 0.22359
 C28 C 0.74779 -0.14150 0.24843
 C29 C 0.71943 -0.15524 0.28138
 C30 C 0.71448 -0.19885 0.28902
 H31 H 0.78685 -0.28102 0.31255
 H32 H 0.67505 -0.27427 0.23296
 H33 H 0.78477 -0.23660 0.21225
 H34 H 0.69300 -0.21019 0.31464
 H35 H 0.71275 -0.39261 0.29569
 H36 H 0.75123 -0.10797 0.24175
 C37 C 0.78240 0.18985 -0.24020
 C38 C 0.75160 0.21182 -0.26563
 C39 C 0.72561 0.18979 -0.29408
 C40 C 0.73139 0.14585 -0.29815
 C41 C 0.76350 0.12460 -0.27388
 C42 C 0.78825 0.14617 -0.24409
 C43 C 0.74900 0.25814 -0.26429
 C44 C 0.78177 0.28174 -0.28358
 C45 C 0.78240 0.32590 -0.27935
 C46 C 0.75035 0.34547 -0.25362
 C47 C 0.71677 0.32206 -0.23510
 C48 C 0.71585 0.27847 -0.24134
 H49 H 0.80252 0.20697 -0.21830
 H50 H 0.70233 0.20717 -0.31406
 H51 H 0.80729 0.26490 -0.30038
 H52 H 0.69046 0.26010 -0.22663
 H53 H 0.76843 0.09084 -0.27718
 H54 H 0.75044 0.37934 -0.24950
 C55 C 1.27313 -0.29652 -0.22255
 C56 C 1.25007 -0.27053 -0.25234
 C57 C 1.22944 -0.28829 -0.28794
 C58 C 1.22910 -0.33217 -0.29199
 C59 C 1.25129 -0.35828 -0.26112
 C60 C 1.27523 -0.34063 -0.22734
 C61 C 1.24789 -0.22466 -0.24590
 C62 C 1.26455 -0.19706 -0.27811
 C63 C 1.26525 -0.15348 -0.27080
 C64 C 1.24768 -0.13768 -0.23180
 C65 C 1.23002 -0.16493 -0.19985
 C66 C 1.23066 -0.20854 -0.20674
 H67 H 1.28858 -0.28184 -0.19530
 H68 H 1.21225 -0.26803 -0.31147
 H69 H 1.27739 -0.20974 -0.30847
 H70 H 1.21787 -0.22995 -0.18175
 H71 H 1.25172 -0.39219 -0.26497
 H72 H 1.24762 -0.10401 -0.22635
 C73 C 0.20229 0.27479 0.74172
 C74 C 0.22879 0.24940 0.76885
 C75 C 0.21106 0.22106 0.79951
 C76 C 0.16668 0.21727 0.80335
 C77 C 0.14020 0.24358 0.77632
 C78 C 0.15771 0.27199 0.74531
 C79 C 0.27522 0.25413 0.76751
 C80 C 0.29404 0.28108 0.79684
 C81 C 0.33838 0.28623 0.79713
 C82 C 0.36396 0.26233 0.76743
 C83 C 0.34520 0.23380 0.73854
 C84 C 0.30049 0.23076 0.73842
 H85 H 0.21656 0.29762 0.71923
 H86 H 0.23221 0.20181 0.82037
 H87 H 0.27353 0.29856 0.81930
 H88 H 0.28486 0.21068 0.71553
 H89 H 0.10588 0.24299 0.77914
 H90 H 0.39825 0.26492 0.76685
 C91 C 0.72742 0.78948 0.71626
 C92 C 0.74223 0.75690 0.74454
 C93 C 0.71358 0.73404 0.77051
 C94 C 0.66938 0.74314 0.76885
 C95 C 0.65459 0.77531 0.73894
 C96 C 0.68355 0.79929 0.71265
 C97 C 0.78822 0.74778 0.74897
 C98 C 0.81245 0.77314 0.77569
 C99 C 0.85581 0.76353 0.78255
 C100 C 0.87498 0.72903 0.76187
 C101 C 0.85118 0.70338 0.73503
 C102 C 0.80742 0.71263 0.72890
 H103 H 0.75049 0.80713 0.69686
 H104 H 0.72656 0.70845 0.79097
 H105 H 0.79745 0.80025 0.79108
 H106 H 0.78812 0.69246 0.70932
 H107 H 0.62062 0.78143 0.73697
 H108 H 0.90865 0.72202 0.76688
 C109 C 0.71324 0.28609 0.22939
 C110 C 0.74216 0.25742 0.24945
 C111 C 0.72691 0.22390 0.27570
 C112 C 0.68300 0.21876 0.28265
 C113 C 0.65406 0.24780 0.26179
 C114 C 0.66894 0.28102 0.23426
 C115 C 0.78848 0.26137 0.24140
 C116 C 0.80980 0.29793 0.25273
 C117 C 0.85419 0.30059 0.24597
 C118 C 0.87653 0.26741 0.22604
 C119 C 0.85558 0.23106 0.21426
 C120 C 0.81162 0.22790 0.22265
 H121 H 0.72564 0.31218 0.20986
 H122 H 0.74958 0.20189 0.29120
 H123 H 0.79207 0.32366 0.26775
 H124 H 0.79519 0.19937 0.21504
 H125 H 0.62006 0.24507 0.26676
 H126 H 0.91070 0.26937 0.22087
 C127 C 0.21084 0.77762 0.22432
 C128 C 0.23352 0.74685 0.24924
 C129 C 0.21153 0.71655 0.27457
 C130 C 0.16651 0.71679 0.27492
 C131 C 0.14446 0.74752 0.24923
 C132 C 0.16591 0.77821 0.22403
 C133 C 0.28049 0.74731 0.24937
 C134 C 0.30130 0.77716 0.27426
 C135 C 0.34611 0.77802 0.27493
 C136 C 0.36960 0.74848 0.25002
 C137 C 0.34916 0.71906 0.22397
 C138 C 0.30432 0.71845 0.22424
 H139 H 0.22882 0.80111 0.20620
 H140 H 0.22993 0.69298 0.29314
 H141 H 0.28222 0.79859 0.29395
 H142 H 0.28772 0.69531 0.20565
 H143 H 0.10983 0.74787 0.24923
 H144 H 0.40416 0.74857 0.25067
 N145 N 1.06300 0.04685 0.03616
 N146 N 1.08990 0.07795 0.03943
 N147 N 1.05251 -0.04285 0.07856
 N148 N 1.06845 -0.06906 0.10905
 N149 N 1.07833 -0.04044 0.04425
 N150 N 1.11257 -0.06480 0.05045
 N151 N 1.03810 0.04462 0.07125
 N152 N 1.04779 0.07390 0.09943
 C153 C 1.07963 0.09489 0.07873
 C154 C 1.10577 -0.08263 0.09081
 N155 N 0.92959 -0.06033 0.06553
 N156 N 0.90474 -0.08998 0.08151
 N157 N 0.94772 0.03289 0.08385
 N158 N 0.93914 0.06487 0.10976
 N159 N 0.91560 0.02687 0.05742
 N160 N 0.88426 0.05429 0.06459
 N161 N 0.96191 -0.05491 0.09194
 N162 N 0.95965 -0.08087 0.12679
 Mn163 Mn 1.00011 -0.00511 0.08196
 C164 C 0.92410 -0.10296 0.11938
 C165 C 0.89946 0.07779 0.09713
 N166 N 1.06745 -0.04828 -0.04924
 N167 N 1.09891 -0.07545 -0.05731
 N168 N 1.01994 0.03248 -0.08358
 N169 N 1.01696 0.06195 -0.11504
 N170 N 1.05227 0.03917 -0.05772
 N171 N 1.07254 0.07321 -0.07104
 N172 N 1.03467 -0.05518 -0.07446
 N173 N 1.04267 -0.08742 -0.10013
 Mn174 Mn 1.06570 -0.00053 -0.00676
 C175 C 1.08275 -0.09982 -0.08890
 C176 C 1.04995 0.08706 -0.10673
 N177 N 0.90517 0.02032 -0.03618
 N178 N 0.87265 0.04706 -0.04244
 N179 N 0.94512 -0.06651 -0.06165
 N180 N 0.93716 -0.09715 -0.08863
 N181 N 0.91884 -0.06741 -0.02774
 N182 N 0.89212 -0.09869 -0.03077
 N183 N 0.93080 0.02076 -0.07063
 N184 N 0.91654 0.04756 -0.10134
 Mn185 Mn 0.91691 -0.02012 0.01486
 Mn186 Mn 0.98265 -0.01723 -0.07300
 Cl187 Cl 0.99139 -0.01075 0.00438
 C188 C 0.88040 0.06386 -0.08323
 C189 C 0.90448 -0.11729 -0.06858
 N190 N 1.07743 0.53018 0.55611
 N191 N 1.10843 0.55225 0.57284
 N192 N 1.04754 0.43950 0.57676
 N193 N 1.05598 0.40871 0.60592
 N194 N 1.07849 0.44217 0.54737
 N195 N 1.10853 0.41329 0.55550
 N196 N 1.04556 0.52738 0.58447
 N197 N 1.05421 0.54719 0.62097
 C198 C 1.09300 0.56331 0.61297
 C199 C 1.09391 0.39237 0.59171
 N200 N 0.92883 0.44376 0.53793
 N201 N 0.89822 0.41620 0.54323
 N202 N 0.95352 0.52892 0.57775
 N203 N 0.94223 0.55554 0.60884
 N204 N 0.92669 0.53202 0.54472
 N205 N 0.89663 0.56076 0.55212
 N206 N 0.95540 0.44097 0.57120
 N207 N 0.94300 0.41212 0.60053
 Mn208 Mn 1.00048 0.48419 0.57789
 C209 C 0.90776 0.39646 0.58214
 C210 C 0.90681 0.57528 0.59203
 N211 N 1.08502 0.45203 0.45268
 N212 N 1.11708 0.42623 0.44250
 N213 N 1.05665 0.54383 0.42794
 N214 N 1.06995 0.57206 0.39841
 N215 N 1.08377 0.54001 0.46081
 N216 N 1.11601 0.56546 0.45441
 N217 N 1.05836 0.45631 0.41947
 N218 N 1.07222 0.43428 0.38552
 Mn219 Mn 1.08139 0.49112 0.50426
 C220 C 1.10853 0.41522 0.40073
 C221 C 1.10664 0.58572 0.41582
 N222 N 0.93247 0.54144 0.45033
 N223 N 0.90063 0.56753 0.43936
 N224 N 0.96535 0.45697 0.41391
 N225 N 0.95675 0.43295 0.38009
 N226 N 0.93525 0.45374 0.44416
 N227 N 0.90599 0.42748 0.43239
 N228 N 0.96421 0.54521 0.42198
 N229 N 0.95485 0.57439 0.39135
 Mn230 Mn 0.93068 0.49274 0.49430
 Mn231 Mn 1.01115 0.50063 0.42040
 Cl232 Cl 1.00603 0.49223 0.49916
 C233 C 0.91532 0.58838 0.40300
 C234 C 0.91977 0.41448 0.39276
 N235 N 0.43763 -0.06847 0.53918
 N236 N 0.43140 -0.10008 0.56739
 N237 N 0.40417 -0.03161 0.45037
 N238 N 0.37336 -0.03883 0.42209
 N239 N 0.43490 -0.06025 0.44685
 N240 N 0.42596 -0.08750 0.41633
 N241 N 0.40762 -0.03921 0.54309
 N242 N 0.37990 -0.05023 0.57412
 C243 C 0.39562 -0.08812 0.58915
 C244 C 0.38777 -0.07356 0.40069
 N245 N 0.43365 0.08768 0.45757
 N246 N 0.42668 0.11732 0.42693
 N247 N 0.40703 0.05194 0.54975
 N248 N 0.37899 0.05885 0.58183
 N249 N 0.43693 0.08021 0.55019
 N250 N 0.43009 0.10696 0.58236
 N251 N 0.40404 0.05920 0.45679
 N252 N 0.37607 0.06861 0.42551
 Mn253 Mn 0.40519 0.01014 0.50008
 C254 C 0.39080 0.10491 0.40718
 C255 C 0.39407 0.09305 0.60215
 N256 N 0.52625 -0.06170 0.44350
 N257 N 0.53399 -0.08989 0.41312
 N258 N 0.55912 -0.04256 0.53771
 N259 N 0.58490 -0.05263 0.57123
 N260 N 0.52843 -0.06992 0.53599
 N261 N 0.53188 -0.09853 0.56809
 N262 N 0.55695 -0.03430 0.44447
 N263 N 0.58671 -0.04359 0.41478
 Mn264 Mn 0.48189 -0.06521 0.49127
 C265 C 0.57137 -0.07801 0.39509
 C266 C 0.56722 -0.08789 0.58963
 N267 N 0.52844 0.07849 0.54583
 N268 N 0.53759 0.10589 0.57611
 N269 N 0.55612 0.05780 0.44997
 N270 N 0.58177 0.06821 0.41648
 N271 N 0.52496 0.08609 0.45333
 N272 N 0.52796 0.11569 0.42225
 N273 N 0.55887 0.04942 0.54280
 N274 N 0.58975 0.05662 0.57082
 Mn275 Mn 0.48104 0.08338 0.50177
 Mn276 Mn 0.55849 0.00758 0.49373
 Cl277 Cl 0.48170 0.00899 0.49671
 C278 C 0.57560 0.09166 0.59171
 C279 C 0.56341 0.10448 0.39958
 N280 N 0.58065 0.55648 0.05162
 N281 N 0.60636 0.58591 0.06452
 N282 N 0.55779 0.46292 0.07571
 N283 N 0.56577 0.43158 0.10450
 N284 N 0.59036 0.46796 0.04855
 N285 N 0.62105 0.44002 0.05793
 N286 N 0.54932 0.55121 0.08014
 N287 N 0.55360 0.57652 0.11387
 C288 C 0.58906 0.59836 0.10312
 C289 C 0.60531 0.41742 0.09265
 N290 N 0.44059 0.45702 0.03060
 N291 N 0.40574 0.43584 0.03933
 N292 N 0.45787 0.54540 0.06822
 N293 N 0.44454 0.57287 0.09761
 N294 N 0.43182 0.54531 0.03435
 N295 N 0.39998 0.57285 0.04008
 N296 N 0.46502 0.45731 0.06587
 N297 N 0.44644 0.43646 0.09909
 Mn298 Mn 0.50754 0.50410 0.07281
 C299 C 0.40998 0.42240 0.08159
 C300 C 0.40854 0.58998 0.07956
 N301 N 0.60194 0.47552 -0.04607
 N302 N 0.63664 0.45230 -0.05343
 N303 N 0.56568 0.56383 -0.07657
 N304 N 0.57458 0.59464 -0.10520
 N305 N 0.59172 0.56376 -0.04284
 N306 N 0.61919 0.59450 -0.04779
 N307 N 0.57646 0.47543 -0.08023
 N308 N 0.59302 0.45170 -0.11160
 Mn309 Mn 0.59142 0.51594 0.00295
 C310 C 0.63029 0.43702 -0.09403
 C311 C 0.60768 0.61391 -0.08648
 N312 N 0.44232 0.55093 -0.06111
 N313 N 0.40953 0.57456 -0.07474
 N314 N 0.48628 0.46786 -0.09097
 N315 N 0.48819 0.43872 -0.12119
 N316 N 0.45307 0.46272 -0.06479
 N317 N 0.43115 0.42984 -0.07707
 N318 N 0.47529 0.55613 -0.08753
 N319 N 0.46602 0.58414 -0.11932
 Mn320 Mn 0.44173 0.50395 -0.01531
 Mn321 Mn 0.52589 0.51587 -0.08409
 Cl322 Cl 0.51657 0.50983 -0.00581
 C323 C 0.42503 0.59555 -0.11060
 C324 C 0.45377 0.41517 -0.11229
 C325 C 1.15123 0.14744 0.20531
 C326 C 1.13906 0.15604 0.16376
 C327 C 1.10672 0.13032 0.14313
 C328 C 1.10536 0.12698 0.09930
 H329 H 1.15577 0.17921 0.14365
 H330 H 1.08676 0.11065 0.16412
 H331 H 1.13647 0.12173 0.22364
 H332 H 1.12718 0.14467 0.07844
 C333 C 1.20620 0.64996 0.67070
 C334 C 1.17867 0.61888 0.67678
 C335 C 1.15429 0.60259 0.63974
 C336 C 1.11773 0.58299 0.64760
 H337 H 1.17274 0.60639 0.70991
 H338 H 1.16602 0.60689 0.60618
 H339 H 1.20946 0.66493 0.63827
 H340 H 1.10537 0.58076 0.68111
 C341 C 0.70556 0.12120 0.67175
 C342 C 0.66504 0.13121 0.66234
 C343 C 0.64055 0.10494 0.63293
 C344 C 0.60003 0.11489 0.62373
 H345 H 0.64954 0.15854 0.67680
 H346 H 0.65609 0.07795 0.61778
 H347 H 0.71974 0.09249 0.65876
 H348 H 0.58478 0.14223 0.63845
 C349 C 0.65551 0.64115 0.23917
 C350 C 0.64105 0.65233 0.19890
 C351 C 0.61204 0.62533 0.17461
 C352 C 0.60960 0.62939 0.13064
 H353 H 0.65392 0.67957 0.18159
 H354 H 0.59611 0.59971 0.19186
 H355 H 0.64466 0.61205 0.25461
 H356 H 0.62842 0.65305 0.11353
 C357 C 0.79750 -0.15490 0.18658
 C358 C 0.83941 -0.16273 0.18358
 C359 C 0.86353 -0.14183 0.14785
 C360 C 0.90434 -0.13165 0.15215
 H361 H 0.85582 -0.18162 0.20885
 H362 H 0.84593 -0.13064 0.11897
 H363 H 0.78228 -0.13285 0.16328
 H364 H 0.92169 -0.14073 0.18185
 C365 C 0.81402 0.35101 0.70062
 C366 C 0.83919 0.33865 0.66701
 C367 C 0.87021 0.36750 0.64669
 C368 C 0.88004 0.36543 0.60378
 H369 H 0.83510 0.30859 0.65171
 H370 H 0.88302 0.39232 0.66627
 H371 H 0.81637 0.38335 0.71106
 H372 H 0.86415 0.34324 0.58329
 C373 C 0.28438 -0.12388 0.69683
 C374 C 0.31909 -0.13453 0.67361
 C375 C 0.33879 -0.10463 0.64236
 C376 C 0.37528 -0.11533 0.62239
 H377 H 0.33393 -0.16555 0.67841
 H378 H 0.32334 -0.07424 0.63533
 H379 H 0.27134 -0.09192 0.69411
 H380 H 0.39055 -0.14572 0.62987
 C381 C 0.32712 0.34219 0.18832
 C382 C 0.33468 0.38080 0.17148
 C383 C 0.37474 0.38976 0.14747
 C384 C 0.37280 0.40799 0.10731
 H385 H 0.30978 0.40504 0.17058
 H386 H 0.40517 0.38086 0.16209
 H387 H 0.35148 0.31785 0.18319
 H388 H 0.34179 0.41365 0.09238
 C389 C 0.82068 0.12249 -0.21819
 C390 C 0.82516 0.12765 -0.17489
 C391 C 0.85561 0.10068 -0.15000
 C392 C 0.85161 0.09395 -0.10647
 H393 H 0.80477 0.14996 -0.15757
 H394 H 0.88043 0.08404 -0.16825
 H395 H 0.83872 0.09759 -0.23437
 H396 H 0.82564 0.10877 -0.08830
 C397 C 0.78170 0.63435 0.33448
 C398 C 0.82104 0.64507 0.34655
 C399 C 0.84696 0.61654 0.37535
 C400 C 0.88951 0.61844 0.37600
 H401 H 0.83546 0.67362 0.33397
 H402 H 0.83106 0.59244 0.39500
 H403 H 0.77099 0.60333 0.34494
 H404 H 0.90577 0.64048 0.35413
 C405 C 0.27550 0.13373 0.30183
 C406 C 0.31241 0.14468 0.31980
 C407 C 0.33400 0.11719 0.35290
 C408 C 0.36990 0.12942 0.37148
 H409 H 0.32727 0.17412 0.31115
 H410 H 0.31978 0.08766 0.36323
 H411 H 0.26362 0.10272 0.31057
 H412 H 0.38394 0.15901 0.36110
 C413 C 0.30033 0.63270 -0.19945
 C414 C 0.33333 0.64608 -0.17598
 C415 C 0.35856 0.61696 -0.14736
 C416 C 0.39947 0.62430 -0.13909
 H417 H 0.34394 0.67822 -0.17945
 H418 H 0.34389 0.58875 -0.13388
 H419 H 0.29454 0.59909 -0.19911
 H420 H 0.41514 0.65052 -0.15551
 C421 C 1.21044 -0.14666 -0.16015
 C422 C 1.17296 -0.15948 -0.14438
 C423 C 1.14946 -0.13380 -0.11230
 C424 C 1.10697 -0.13250 -0.11231
 H425 H 1.15718 -0.18550 -0.15938
 H426 H 1.16677 -0.11186 -0.09270
 H427 H 1.22389 -0.11816 -0.14766
 H428 H 1.08974 -0.15249 -0.13414
 C429 C 1.19067 0.37509 0.26857
 C430 C 1.17316 0.36486 0.30787
 C431 C 1.14367 0.39348 0.33155
 C432 C 1.13692 0.38753 0.37494
 H433 H 1.18168 0.33484 0.32384
 H434 H 1.12827 0.41978 0.31387
 H435 H 1.18520 0.40637 0.25412
 H436 H 1.15491 0.36308 0.39288
 C437 C 0.69617 -0.12339 0.30776
 C438 C 0.65648 -0.12905 0.32250
 C439 C 0.63435 -0.09774 0.35014
 C440 C 0.59415 -0.10400 0.36273
 H441 H 0.63995 -0.15738 0.31423
 H442 H 0.65133 -0.07086 0.36174
 H443 H 0.71159 -0.09389 0.31383
 H444 H 0.57775 -0.13122 0.35104
 C445 C 0.68204 0.34281 -0.20980
 C446 C 0.68981 0.37174 -0.17981
 C447 C 0.65497 0.39272 -0.15519
 C448 C 0.66309 0.41265 -0.11800
 H449 H 0.72247 0.37965 -0.17279
 H450 H 0.62269 0.39208 -0.16764
 H451 H 0.64970 0.33250 -0.21431
 H452 H 0.69510 0.41148 -0.10472
 C453 C 1.15096 0.18739 -0.16586
 C454 C 1.11020 0.17609 -0.16244
 C455 C 1.09808 0.14233 -0.13111
 C456 C 1.06079 0.12359 -0.13476
 H457 H 1.08583 0.18922 -0.18411
 H458 H 1.12080 0.13115 -0.10637
 H459 H 1.17388 0.17088 -0.14450
 H460 H 1.03870 0.13367 -0.16052
 C461 C 1.14189 0.68776 0.29935
 C462 C 1.15630 0.66154 0.33151
 C463 C 1.12624 0.63355 0.35470
 C464 C 1.13604 0.61462 0.39321
 H465 H 1.18910 0.66157 0.34225
 H466 H 1.09526 0.62882 0.34022
 H467 H 1.10787 0.68785 0.29291
 H468 H 1.16655 0.61999 0.40836
 C469 C 0.66967 0.18362 0.31322
 C470 C 0.62986 0.16965 0.31755
 C471 C 0.61887 0.13681 0.35134
 C472 C 0.57798 0.12983 0.36105
 H473 H 0.60455 0.18327 0.29730
 H474 H 0.64381 0.12103 0.37061
 H475 H 0.69422 0.16853 0.33362
 H476 H 0.55355 0.14808 0.34340
 C477 C 0.63990 0.71991 -0.20505
 C478 C 0.65092 0.69586 -0.16932
 C479 C 0.62089 0.66758 -0.14593
 C480 C 0.63257 0.64763 -0.10811
 H481 H 0.68290 0.69640 -0.15637
 H482 H 0.59044 0.66134 -0.16076
 H483 H 0.60645 0.72211 -0.21381
 H484 H 0.66274 0.65486 -0.09322
 C485 C 0.88211 -0.21031 -0.18982
 C486 C 0.86749 -0.19432 -0.15222
 C487 C 0.89411 -0.16633 -0.12734
 C488 C 0.88088 -0.15072 -0.08906
 H489 H 0.83561 -0.20114 -0.14035
 H490 H 0.92417 -0.15660 -0.14182
 H491 H 0.91489 -0.20530 -0.19999
 H492 H 0.85112 -0.16060 -0.07409
 C493 C 0.87890 0.33565 0.26273
 C494 C 0.87124 0.35019 0.30292
 C495 C 0.90055 0.37851 0.32451
 C496 C 0.89432 0.38610 0.36709
 H497 H 0.84442 0.33825 0.32190
 H498 H 0.92682 0.39245 0.30632
 H499 H 0.90743 0.34508 0.24496
 H500 H 0.86760 0.37190 0.38437
 C501 C 0.36965 -0.19266 0.30301
 C502 C 0.35300 -0.15705 0.31992
 C503 C 0.37849 -0.13167 0.34977
 C504 C 0.36303 -0.09622 0.36786
 H505 H 0.32072 -0.14661 0.31239
 H506 H 0.41035 -0.14310 0.35818
 H507 H 0.40270 -0.20094 0.31006
 H508 H 0.33126 -0.08447 0.35969
 C509 C 0.35408 0.31529 -0.17268
 C510 C 0.39448 0.32759 -0.16937
 C511 C 0.40515 0.36064 -0.13777
 C512 C 0.44286 0.37918 -0.13963
 H513 H 0.41934 0.31534 -0.19078
 H514 H 0.38121 0.37140 -0.11432
 H515 H 0.33096 0.33022 -0.15079
 H516 H 0.46617 0.36927 -0.16414
 C517 C 1.14096 -0.19142 0.20067
 C518 C 1.15561 -0.16346 0.17076
 C519 C 1.12560 -0.13332 0.14930
 C520 C 1.13616 -0.11208 0.11248
 H521 H 1.18873 -0.16320 0.16064
 H522 H 1.09385 -0.12926 0.16330
 H523 H 1.10674 -0.19127 0.20658
 H524 H 1.16728 -0.11705 0.09738
 C525 C 1.12841 0.29980 0.71903
 C526 C 1.13818 0.31489 0.67874
 C527 C 1.10870 0.34392 0.65470
 C528 C 1.11947 0.35955 0.61498
 H529 H 1.16829 0.30611 0.66331
 H530 H 1.07903 0.35395 0.67030
 H531 H 1.09722 0.30723 0.73295
 H532 H 1.14947 0.34978 0.59988
 C533 C 0.67126 -0.16776 0.68235
 C534 C 0.63134 -0.15292 0.67551
 C535 C 0.62163 -0.12073 0.64015
 C536 C 0.58107 -0.11186 0.62963
 H537 H 0.60490 -0.16523 0.69450
 H538 H 0.64719 -0.10717 0.62056
 H539 H 0.69624 -0.15337 0.66249
 H540 H 0.55613 -0.12790 0.64796
 C541 C 0.63797 0.31076 0.21175
 C542 C 0.64721 0.33121 0.17356
 C543 C 0.61791 0.36282 0.15226
 C544 C 0.63030 0.38330 0.11521
 H545 H 0.67745 0.32481 0.15726
 H546 H 0.58727 0.37022 0.16735
 H547 H 0.60669 0.31540 0.22659
 H548 H 0.66132 0.37571 0.10103
 C549 C 0.88088 0.19629 0.19499
 C550 C 0.86445 0.17011 0.16638
 C551 C 0.89069 0.13620 0.14749
 C552 C 0.87472 0.11231 0.11656
 H553 H 0.83162 0.17418 0.15589
 H554 H 0.92312 0.13077 0.15885
 H555 H 0.91448 0.19336 0.20301
 H556 H 0.84244 0.11816 0.10496
 C557 C 0.87337 0.66711 0.71476
 C558 C 0.86275 0.65251 0.67561
 C559 C 0.88908 0.61939 0.65503
 C560 C 0.88090 0.60752 0.61422
 H561 H 0.83599 0.66644 0.65757
 H562 H 0.91577 0.60517 0.67302
 H563 H 0.90172 0.65422 0.73097
 H564 H 0.85415 0.62174 0.59635
 C565 C 0.37238 0.20877 0.70751
 C566 C 0.36023 0.17216 0.69055
 C567 C 0.38572 0.14987 0.65657
 C568 C 0.37172 0.11439 0.63886
 H569 H 0.33054 0.15833 0.70121
 H570 H 0.41526 0.16339 0.64482
 H571 H 0.40329 0.22095 0.69829
 H572 H 0.34203 0.10120 0.65061
 C573 C 0.37577 0.68832 0.19880
 C574 C 0.36298 0.66945 0.16218
 C575 C 0.39139 0.63878 0.13958
 C576 C 0.38081 0.62181 0.10120
 H577 H 0.33184 0.67681 0.14842
 H578 H 0.42149 0.62971 0.15489
 H579 H 0.40799 0.68192 0.21033
 H580 H 0.35103 0.63115 0.08544
   
