data_POSCAR
  _audit_creation_date              2014-09-24
  _audit_creation_method            'ToBaCCo'
  _symmetry_space_group_name_H-M    'P1'
  _symmetry_Int_Tables_number       1
  _symmetry_cell_setting            triclinic
  loop_
  _symmetry_equiv_pos_as_xyz
 x,y,z
_cell_length_a 38.4200
_cell_length_b 36.4402
_cell_length_c 36.4485
_cell_angle_alpha 89.831200
_cell_angle_beta 89.975800
_cell_angle_gamma 89.942100
loop_
  _atom_site_label
  _atom_site_type_symbol
  _atom_site_fract_x
  _atom_site_fract_y
  _atom_site_fract_z
C1 C 0.14844 0.15819 0.19607
 C2 C 0.15050 0.18759 0.17139
 C3 C 0.17700 0.18905 0.14552
 C4 C 0.20163 0.16037 0.14388
 C5 C 0.19822 0.13054 0.16716
 C6 C 0.17170 0.12955 0.19343
 C7 C 0.12665 0.15063 0.22512
 N8 N 0.13592 0.11772 0.23990
 C9 C 0.16336 0.10452 0.22027
 C10 C 0.22423 0.10617 0.15903
 N11 N 0.24423 0.12044 0.13170
 C12 C 0.23070 0.15382 0.12241
 C13 C 0.17071 0.21958 0.12387
 N14 N 0.14087 0.23572 0.13575
 C15 C 0.12855 0.21657 0.16487
 H16 H 0.10564 0.16791 0.23482
 H17 H 0.17757 0.07951 0.22595
 H18 H 0.22885 0.08056 0.17331
 H19 H 0.24088 0.17176 0.10124
 H20 H 0.18534 0.22801 0.09991
 H21 H 0.10441 0.22237 0.17908
 C22 C -0.15412 0.83402 0.19615
 C23 C -0.15856 0.80442 0.17196
 C24 C -0.18365 0.80631 0.14459
 C25 C -0.20507 0.83749 0.14158
 C26 C -0.19933 0.86710 0.16429
 C27 C -0.17380 0.86538 0.19148
 C28 C -0.13255 0.84011 0.22583
 N29 N -0.13840 0.87469 0.23860
 C30 C -0.16359 0.89022 0.21743
 C31 C -0.22303 0.89380 0.15537
 N32 N -0.24415 0.88087 0.12845
 C33 C -0.23332 0.84634 0.11980
 C34 C -0.17934 0.77590 0.12271
 N35 N -0.15232 0.75578 0.13603
 C36 C -0.13991 0.77259 0.16652
 H37 H -0.11377 0.82095 0.23704
 H38 H -0.17506 0.91704 0.22139
 H39 H -0.22594 0.91976 0.16940
 H40 H -0.24524 0.82883 0.09942
 H41 H -0.19348 0.76994 0.09774
 H42 H -0.11719 0.76385 0.18180
 C43 C -0.15255 0.16916 -0.19915
 C44 C -0.14608 0.19398 -0.17052
 C45 C -0.17115 0.19959 -0.14385
 C46 C -0.20242 0.17994 -0.14482
 C47 C -0.20910 0.15614 -0.17334
 C48 C -0.18410 0.15096 -0.20094
 C49 C -0.13286 0.15739 -0.22839
 N50 N -0.15180 0.13292 -0.24829
 C51 C -0.18332 0.12900 -0.23159
 C52 C -0.24086 0.14007 -0.16639
 N53 N -0.25316 0.15275 -0.13374
 C54 C -0.22982 0.17762 -0.12070
 C55 C -0.15904 0.22639 -0.12073
 N56 N -0.12714 0.23707 -0.13250
 C57 C -0.11872 0.21723 -0.16274
 H58 H -0.10661 0.16617 -0.23478
 H59 H -0.20385 0.11057 -0.23999
 H60 H -0.25318 0.11918 -0.18298
 H61 H -0.23195 0.19275 -0.09532
 H62 H -0.17278 0.23803 -0.09757
 H63 H -0.09529 0.22078 -0.17887
 C64 C 0.15924 0.81522 -0.20140
 C65 C 0.16410 0.78896 -0.17388
 C66 C 0.19408 0.78899 -0.15279
 C67 C 0.21932 0.81645 -0.15858
 C68 C 0.21426 0.84241 -0.18587
 C69 C 0.18444 0.84129 -0.20792
 C70 C 0.13257 0.82138 -0.22575
 N71 N 0.14132 0.85027 -0.24763
 C72 C 0.17316 0.86250 -0.23686
 C73 C 0.24094 0.86726 -0.18373
 N74 N 0.26236 0.85748 -0.15558
 C75 C 0.24957 0.82592 -0.14053
 C76 C 0.19117 0.76007 -0.12831
 N77 N 0.16015 0.74309 -0.13427
 C78 C 0.14348 0.76075 -0.16188
 H79 H 0.10925 0.80494 -0.22801
 H80 H 0.18698 0.88546 -0.24892
 H81 H 0.24372 0.89104 -0.20126
 H82 H 0.26041 0.81191 -0.11691
 H83 H 0.20983 0.75239 -0.10740
 H84 H 0.11815 0.75339 -0.17260
 C85 C 0.17303 1.15351 0.79641
 C86 C 0.20076 1.14944 0.82118
 C87 C 0.20696 1.17634 0.84714
 C88 C 0.18502 1.20697 0.84943
 C89 C 0.15739 1.21054 0.82550
 C90 C 0.15169 1.18398 0.79844
 C91 C 0.16136 1.13262 0.76752
 N92 N 0.13377 1.14991 0.75154
 C93 C 0.12762 1.18132 0.77069
 C94 C 0.13940 1.24157 0.83538
 N95 N 0.15539 1.25712 0.86481
 C96 C 0.18367 1.23614 0.87330
 C97 C 0.23566 1.16573 0.86698
 N98 N 0.24674 1.13287 0.85409
 C99 C 0.22560 1.12256 0.82610
 H100 H 0.17273 1.10702 0.75834
 H101 H 0.10730 1.20113 0.76523
 H102 H 0.11584 1.25163 0.82248
 H103 H 0.20120 1.24038 0.89608
 H104 H 0.24749 1.18059 0.88943
 H105 H 0.22844 1.09766 0.81024
 C106 C 0.82008 0.84768 0.80070
 C107 C 0.79874 0.85367 0.83131
 C108 C 0.80580 0.83585 0.86398
 C109 C 0.83331 0.81079 0.86613
 C110 C 0.85376 0.80391 0.83571
 C111 C 0.84786 0.82357 0.80302
 C112 C 0.82121 0.86391 0.76668
 N113 N 0.84984 0.85145 0.74853
 C114 C 0.86611 0.82649 0.77055
 C115 C 0.87609 0.77571 0.84511
 N116 N 0.86994 0.76593 0.88064
 C117 C 0.84412 0.78785 0.89375
 C118 C 0.78147 0.84716 0.88916
 N119 N 0.75971 0.87127 0.87243
 C120 C 0.76990 0.87538 0.83701
 H121 H 0.80405 0.88561 0.75745
 H122 H 0.89021 0.81252 0.76405
 H123 H 0.89481 0.76268 0.82713
 H124 H 0.83197 0.78550 0.92044
 H125 H 0.77925 0.83795 0.91733
 H126 H 0.75725 0.89291 0.81701
 C127 C 0.18221 0.86101 1.19386
 C128 C 0.20617 0.85798 1.16488
 C129 C 0.19980 0.83377 1.13639
 C130 C 0.16989 0.81180 1.13684
 C131 C 0.14606 0.81535 1.16502
 C132 C 0.15222 0.84013 1.19349
 C133 C 0.18110 0.88223 1.22514
 N134 N 0.15094 0.87478 1.24348
 C135 C 0.13327 0.84906 1.22402
 C136 C 0.11994 0.79035 1.15902
 N137 N 0.12775 0.77142 1.12819
 C138 C 0.15820 0.78415 1.11434
 C139 C 0.22609 0.83798 1.11115
 N140 N 0.24830 0.86397 1.12370
 C141 C 0.23668 0.87609 1.15669
 H142 H 0.20058 0.90204 1.23317
 H143 H 0.10833 0.83743 1.23156
 H144 H 0.09775 0.78507 1.17658
 H145 H 0.17123 0.77336 1.09033
 H146 H 0.22857 0.82375 1.08525
 H147 H 0.24877 0.89755 1.17271
 C148 C 0.80516 1.14998 1.21177
 C149 C 0.77899 1.15675 1.18564
 C150 C 0.78399 1.18320 1.15880
 C151 C 0.81550 1.20257 1.15711
 C152 C 0.84164 1.19510 1.18212
 C153 C 0.83626 1.16892 1.20982
 C154 C 0.80711 1.12706 1.24191
 N155 N 0.83869 1.13172 1.25838
 C156 C 0.85664 1.15711 1.23850
 C157 C 0.86937 1.21752 1.17363
 N158 N 0.86047 1.23859 1.14430
 C159 C 0.82755 1.22979 1.13411
 C160 C 0.75494 1.18323 1.13670
 N161 N 0.73263 1.15708 1.14911
 C162 C 0.74711 1.14077 1.17902
 H163 H 0.78677 1.10861 1.25085
 H164 H 0.88255 1.16695 1.24479
 H165 H 0.89384 1.21910 1.18826
 H166 H 0.81344 1.24236 1.11164
 H167 H 0.75118 1.19967 1.11223
 H168 H 0.73569 1.11820 1.19419
 O169 O 0.45461 0.93144 0.93172
 O170 O 0.41487 0.96779 0.96154
 C171 C 0.42302 0.94082 0.94010
 O172 O 0.55020 0.93875 1.05887
 O173 O 0.58763 0.97485 1.02552
 C174 C 0.58119 0.94939 1.04940
 O175 O 0.45283 0.93673 1.05868
 O176 O 0.41408 0.96908 1.02326
 C177 C 0.42149 0.94516 1.04845
 O178 O 0.55172 0.94133 0.92651
 O179 O 0.58852 0.97504 0.96288
 C180 C 0.58255 0.95159 0.93699
 Zr181 Zr 0.50205 0.95680 0.94674
 O182 O 0.50748 0.89922 0.94276
 O183 O 0.49997 0.96226 0.88904
 Zr184 Zr 0.50102 0.95751 1.03983
 O185 O 0.50467 0.89955 1.04134
 O186 O 0.49816 0.96003 1.09780
 O187 O 0.47086 0.94896 0.99314
 O188 O 0.53167 0.95121 0.99359
 O189 O 0.54811 1.06639 0.92412
 O190 O 0.58668 1.03664 0.96212
 C191 C 0.57938 1.05859 0.93516
 O192 O 0.44852 1.07103 1.05297
 O193 O 0.41176 1.03252 1.02159
 C194 C 0.41770 1.05954 1.04371
 O195 O 0.54686 1.06876 1.06018
 O196 O 0.58620 1.03518 1.02662
 C197 C 0.57835 1.05860 1.05201
 O198 O 0.45034 1.06958 0.92925
 O199 O 0.41251 1.03198 0.96051
 C200 C 0.41923 1.05861 0.93792
 Zr201 Zr 0.49960 1.04887 0.94554
 O202 O 0.50233 1.10674 0.94169
 O203 O 0.49780 1.04331 0.88787
 Zr204 Zr 0.49856 1.05047 1.03830
 O205 O 0.50183 1.10847 1.03740
 O206 O 0.49325 1.05136 1.09608
 Zr207 Zr 0.44843 1.00176 0.99208
 Zr208 Zr 0.55195 1.00484 0.99360
 O209 O 0.52921 1.05731 0.99223
 O210 O 0.46797 1.05590 0.99143
 O211 O 0.53210 1.00364 0.93974
 O212 O 0.46950 1.00330 1.04538
 O213 O 0.47014 1.00182 0.93916
 O214 O 0.53063 1.00483 1.04682
 H215 H 0.54758 0.92980 0.99337
 H216 H 0.45353 1.00357 1.06673
 H217 H 0.54461 1.07911 0.99219
 H218 H 0.45414 1.00099 0.91785
 H219 H 0.51975 0.97182 1.10670
 H220 H 0.51144 1.03505 1.10627
 H221 H 0.48244 1.11770 1.02209
 H222 H 0.48618 1.11675 0.96026
 H223 H 0.49674 1.06860 0.87788
 H224 H 0.50058 0.93695 0.87921
 H225 H 0.49892 0.88890 0.96617
 H226 H 0.48517 0.88962 1.02670
 O227 O -0.06484 0.44687 0.06982
 O228 O -0.02956 0.40713 0.03815
 C229 C -0.05530 0.41413 0.06014
 O230 O -0.05854 0.55195 -0.05931
 O231 O -0.03053 0.59176 -0.02074
 C232 C -0.05082 0.58473 -0.04812
 O233 O -0.06354 0.44911 -0.05433
 O234 O -0.02851 0.40836 -0.02353
 C235 C -0.05362 0.41606 -0.04598
 O236 O -0.06035 0.54893 0.07843
 O237 O -0.03091 0.59061 0.04270
 C238 C -0.05269 0.58224 0.06861
 Zr239 Zr -0.04322 0.49842 0.05617
 O240 O -0.09800 0.50162 0.06082
 O241 O -0.03750 0.49436 0.11370
 Zr242 Zr -0.04412 0.50050 -0.03653
 O243 O -0.09904 0.50533 -0.03399
 O244 O -0.04717 0.49672 -0.09432
 O245 O -0.04998 0.46673 0.00913
 O246 O -0.05067 0.53130 0.01039
 O247 O 0.06156 0.55115 0.07547
 O248 O 0.02802 0.59163 0.04238
 C249 C 0.05186 0.58416 0.06640
 O250 O 0.06375 0.45078 -0.05621
 O251 O 0.03097 0.40910 -0.02373
 C252 C 0.05447 0.41757 -0.04776
 O253 O 0.06097 0.55420 -0.05560
 O254 O 0.02727 0.59307 -0.02097
 C255 C 0.05062 0.58670 -0.04579
 O256 O 0.06739 0.44892 0.06906
 O257 O 0.03216 0.40821 0.03879
 C258 C 0.05823 0.41586 0.06009
 Zr259 Zr 0.04395 0.49968 0.05562
 O260 O 0.09857 0.50239 0.06188
 O261 O 0.03746 0.49668 0.11311
 Zr262 Zr 0.04398 0.50172 -0.03718
 O263 O 0.09897 0.50541 -0.03761
 O264 O 0.04304 0.49981 -0.09524
 Zr265 Zr 0.00104 0.44512 0.00823
 Zr266 Zr -0.00069 0.55472 0.01035
 O267 O 0.04992 0.53255 0.00977
 O268 O 0.05138 0.46818 0.00848
 O269 O -0.00002 0.53196 0.06356
 O270 O 0.00028 0.46945 -0.04428
 O271 O 0.00087 0.46627 0.06187
 O272 O -0.00047 0.53382 -0.04354
 H273 H -0.07123 0.54774 0.01059
 H274 H 0.00015 0.45360 -0.06632
 H275 H 0.07036 0.54909 0.00989
 H276 H 0.00117 0.44860 0.08260
 H277 H -0.02725 0.51066 -0.10433
 H278 H 0.03114 0.52224 -0.10407
 H279 H 0.10809 0.48466 -0.02287
 H280 H 0.10843 0.50378 0.03689
 H281 H 0.06126 0.49602 0.12352
 H282 H -0.06142 0.49328 0.12380
 H283 H -0.10773 0.48986 0.03870
 H284 H -0.10829 0.48238 -0.02319
 O285 O 1.06389 -0.06415 0.44493
 O286 O 1.02629 -0.03192 0.40785
 C287 C 1.05146 -0.05499 0.41306
 O288 O 0.94372 -0.07693 0.55384
 O289 O 0.97660 -0.04269 0.59359
 C290 C 0.95399 -0.06804 0.58651
 O291 O 0.94507 -0.07801 0.45066
 O292 O 0.96962 -0.03657 0.41081
 C293 C 0.95106 -0.06532 0.41791
 O294 O 1.07226 -0.06330 0.54779
 O295 O 1.03636 -0.03688 0.59066
 C296 C 1.06293 -0.05662 0.58134
 Zr297 Zr 1.04802 -0.04714 0.49810
 O298 O 1.05502 -0.10474 0.49971
 O299 O 1.10208 -0.03724 0.49381
 Zr300 Zr 0.96006 -0.05613 0.50227
 O301 O 0.96426 -0.11398 0.50498
 O302 O 0.90515 -0.06024 0.49967
 O303 O 1.00326 -0.05771 0.46757
 O304 O 1.00608 -0.05962 0.53160
 O305 O 1.05990 0.06185 0.55321
 O306 O 1.03186 0.02312 0.59339
 C307 C 1.05362 0.04919 0.58593
 O308 O 0.93182 0.05734 0.45525
 O309 O 0.96550 0.02730 0.41271
 C310 C 0.94142 0.05043 0.42174
 O311 O 0.93382 0.05051 0.55897
 O312 O 0.97245 0.01969 0.59606
 C313 C 0.94647 0.04179 0.59091
 O314 O 1.05151 0.06964 0.45039
 O315 O 1.02231 0.03182 0.41067
 C316 C 1.04263 0.05917 0.41769
 Zr317 Zr 1.03964 0.04480 0.50172
 O318 O 1.03712 0.10251 0.50746
 O319 O 1.09448 0.04539 0.49734
 Zr320 Zr 0.95171 0.03608 0.50564
 O321 O 0.94540 0.09344 0.51162
 O322 O 0.89702 0.02901 0.50411
 Zr323 Zr 0.99741 -0.00369 0.44768
 Zr324 Zr 1.00220 -0.00769 0.55630
 O325 O 0.99658 0.04598 0.53554
 O326 O 0.99364 0.04880 0.47152
 O327 O 1.05175 -0.00173 0.53228
 O328 O 0.94819 -0.00952 0.47228
 O329 O 1.04856 0.00060 0.46754
 O330 O 0.95059 -0.01185 0.53710
 H331 H 1.00881 -0.08164 0.54736
 H332 H 0.92745 -0.01089 0.45619
 H333 H 0.99587 0.06702 0.55268
 H334 H 1.06799 0.00311 0.44982
 H335 H 0.89559 -0.04755 0.52142
 H336 H 0.89021 0.01533 0.52647
 H337 H 0.95951 0.10537 0.49228
 H338 H 1.01827 0.11128 0.49118
 H339 H 1.10136 0.07158 0.49787
 H340 H 1.11327 -0.06169 0.49209
 H341 H 1.03986 -0.11535 0.48056
 H342 H 0.98126 -0.12150 0.48606
 C343 C 1.08669 0.10815 0.32391
 C344 C 1.09188 0.07090 0.33193
 N345 N 1.11160 0.05002 0.30931
 C346 C 1.12665 0.06467 0.27892
 C347 C 1.12113 0.10199 0.27013
 N348 N 1.10093 0.12266 0.29300
 N349 N 1.06798 0.12927 0.34750
 C350 C 1.05408 0.11464 0.37868
 C351 C 1.05852 0.07712 0.38603
 N352 N 1.07727 0.05618 0.36238
 H353 H 1.14184 0.04688 0.26147
 H354 H 1.03909 0.13182 0.39702
 C355 C 0.90730 -0.11573 0.32479
 C356 C 0.90684 -0.07751 0.32913
 N357 N 0.89170 -0.05608 0.30328
 C358 C 0.87660 -0.07105 0.27323
 C359 C 0.87722 -0.10948 0.26820
 N360 N 0.89305 -0.13081 0.29419
 N361 N 0.92126 -0.13711 0.35167
 C362 C 0.93485 -0.12187 0.38262
 C363 C 0.93514 -0.08352 0.38639
 N364 N 0.92120 -0.06234 0.35939
 H365 H 0.86520 -0.05283 0.25313
 H366 H 0.94602 -0.13936 0.40360
 C367 C 0.90742 0.09706 0.68367
 C368 C 0.88460 0.07892 0.65978
 N369 N 0.84999 0.07882 0.66722
 C370 C 0.83711 0.09595 0.69748
 C371 C 0.85986 0.11497 0.72122
 N372 N 0.89455 0.11500 0.71326
 N373 N 0.94218 0.09599 0.67727
 C374 C 0.95519 0.07765 0.64792
 C375 C 0.93240 0.06025 0.62338
 N376 N 0.89748 0.06139 0.62978
 H377 H 0.80935 0.09545 0.70211
 H378 H 0.98304 0.07729 0.64331
 C379 C 1.12060 -0.10021 0.66929
 C380 C 1.08489 -0.10739 0.66587
 N381 N 1.06874 -0.12883 0.69109
 C382 C 1.08665 -0.14358 0.71968
 C383 C 1.12243 -0.13580 0.72388
 N384 N 1.13832 -0.11398 0.69842
 N385 N 1.13706 -0.08001 0.64316
 C386 C 1.11928 -0.06649 0.61381
 C387 C 1.08335 -0.07272 0.61104
 N388 N 1.06697 -0.09298 0.63723
 H389 H 1.07265 -0.16016 0.73935
 H390 H 1.13281 -0.05024 0.59339
 C391 C 0.32732 1.11005 1.08587
 C392 C 0.33257 1.07206 1.08907
 N393 N 0.30840 1.05108 1.10614
 C394 C 0.27918 1.06628 1.12052
 C395 C 0.27321 1.10441 1.11701
 N396 N 0.29755 1.12526 1.09927
 N397 N 0.35243 1.13112 1.07010
 C398 C 0.38243 1.11581 1.05726
 C399 C 0.38714 1.07764 1.05955
 N400 N 0.36194 1.05670 1.07531
 H401 H 0.26044 1.04835 1.13347
 H402 H 0.40197 1.13306 1.04454
 C403 C 0.33949 0.88005 0.89670
 C404 C 0.34591 0.91610 0.88493
 N405 N 0.32502 0.93155 0.85925
 C406 C 0.29781 0.91274 0.84478
 C407 C 0.29049 0.87668 0.85705
 N408 N 0.31183 0.86143 0.88290
 N409 N 0.36104 0.86427 0.92175
 C410 C 0.38862 0.88306 0.93565
 C411 C 0.39452 0.91943 0.92448
 N412 N 0.37295 0.93514 0.89937
 H413 H 0.28174 0.92659 0.82480
 H414 H 0.40541 0.87006 0.95570
 C415 C 0.67095 0.89522 1.08814
 C416 C 0.66804 0.93356 1.09001
 N417 N 0.69448 0.95351 1.10426
 C418 C 0.72370 0.93691 1.11710
 C419 C 0.72725 0.89840 1.11474
 N420 N 0.70067 0.87860 1.09982
 N421 N 0.64368 0.87521 1.07547
 C422 C 0.61375 0.89191 1.06436
 C423 C 0.61131 0.93037 1.06512
 N424 N 0.63870 0.95025 1.07774
 H425 H 0.74427 0.95388 1.12803
 H426 H 0.59253 0.87547 1.05387
 C427 C 0.66545 1.10524 0.88094
 C428 C 0.65976 1.11160 0.91840
 N429 N 0.68235 1.13284 0.93738
 C430 C 0.71066 1.14784 0.92077
 C431 C 0.71741 1.14045 0.88337
 N432 N 0.69426 1.11925 0.86454
 N433 N 0.64219 1.08495 0.86164
 C434 C 0.61360 1.07047 0.87828
 C435 C 0.60858 1.07577 0.91603
 N436 N 0.63182 1.09625 0.93525
 H437 H 0.72816 1.16405 0.93724
 H438 H 0.59549 1.05418 0.86246
 C439 C 0.11830 0.32765 0.10166
 C440 C 0.08426 0.32190 0.08878
 N441 N 0.07012 0.28785 0.09073
 C442 C 0.08837 0.25933 0.10522
 C443 C 0.12245 0.26494 0.11800
 N444 N 0.13673 0.29904 0.11579
 N445 N 0.13197 0.36196 0.10081
 C446 C 0.11316 0.39082 0.08778
 C447 C 0.07912 0.38516 0.07466
 N448 N 0.06561 0.35063 0.07534
 H449 H 0.07645 0.23249 0.10700
 H450 H 0.12480 0.41785 0.08739
 C451 C -0.10807 0.32729 -0.09290
 C452 C -0.07196 0.32515 -0.08738
 N453 N -0.05455 0.29436 -0.09766
 C454 C -0.07169 0.26554 -0.11306
 C455 C -0.10796 0.26729 -0.11765
 N456 N -0.12523 0.29825 -0.10738
 N457 N -0.12540 0.35844 -0.08388
 C458 C -0.10829 0.38762 -0.06940
 C459 C -0.07230 0.38531 -0.06291
 N460 N -0.05495 0.35398 -0.07204
 H461 H -0.05735 0.24123 -0.12090
 H462 H -0.12276 0.41210 -0.06229
 C463 C 0.09583 0.68007 -0.09478
 C464 C 0.11680 0.65060 -0.08342
 N465 N 0.15192 0.65289 -0.08740
 C466 C 0.16697 0.68319 -0.10257
 C467 C 0.14587 0.71223 -0.11496
 N468 N 0.11075 0.70980 -0.11065
 N469 N 0.06086 0.67849 -0.08993
 C470 C 0.04578 0.64865 -0.07419
 C471 C 0.06652 0.61870 -0.06353
 N472 N 0.10167 0.62036 -0.06840
 H473 H 0.19492 0.68412 -0.10601
 H474 H 0.01782 0.64809 -0.07043
 C475 C -0.10580 0.66866 0.12177
 C476 C -0.10023 0.66945 0.08369
 N477 N -0.11300 0.69780 0.06355
 C478 C -0.13094 0.72556 0.07977
 C479 C -0.13584 0.72538 0.11802
 N480 N -0.12296 0.69685 0.13814
 N481 N -0.09409 0.63961 0.14170
 C482 C -0.07703 0.61132 0.12527
 C483 C -0.07069 0.61248 0.08731
 N484 N -0.08247 0.64165 0.06743
 H485 H -0.14041 0.74809 0.06314
 H486 H -0.06811 0.58839 0.14172
 C487 C 1.10758 0.09045 0.67734
 C488 C 1.08229 0.11191 0.65961
 N489 N 1.07435 0.14554 0.67308
 C490 C 1.09051 0.15881 0.70347
 C491 C 1.11633 0.13756 0.72129
 N492 N 1.12405 0.10381 0.70736
 N493 N 1.11494 0.05637 0.66456
 C494 C 1.09807 0.04276 0.63481
 C495 C 1.07310 0.06436 0.61675
 N496 N 1.06570 0.09853 0.62958
 H497 H 1.08341 0.18584 0.71290
 H498 H 1.10404 0.01535 0.62530
 C499 C 0.91117 -0.12335 0.67764
 C500 C 0.88989 -0.10314 0.65366
 N501 N 0.85549 -0.09960 0.66110
 C502 C 0.84136 -0.11480 0.69176
 C503 C 0.86254 -0.13510 0.71617
 N504 N 0.89698 -0.13923 0.70790
 N505 N 0.94595 -0.12529 0.67119
 C506 C 0.96041 -0.10778 0.64190
 C507 C 0.93905 -0.08800 0.61763
 N508 N 0.90420 -0.08630 0.62400
 H509 H 0.81380 -0.11136 0.69658
 H510 H 0.98824 -0.10938 0.63747
 C511 C 1.09247 -0.10259 0.31747
 C512 C 1.11342 -0.08025 0.33958
 N513 N 1.14660 -0.07291 0.32903
 C514 C 1.15985 -0.08693 0.29735
 C515 C 1.13905 -0.10994 0.27528
 N516 N 1.10582 -0.11705 0.28635
 N517 N 1.05891 -0.10902 0.32708
 C518 C 1.04526 -0.09402 0.35796
 C519 C 1.06629 -0.07220 0.38051
 N520 N 1.10000 -0.06575 0.37086
 H521 H 1.18644 -0.08057 0.29014
 H522 H 1.01831 -0.09921 0.36498
 C523 C 0.89819 0.10515 0.33057
 C524 C 0.87744 0.08188 0.35210
 N525 N 0.84401 0.07550 0.34188
 C526 C 0.83035 0.09124 0.31113
 C527 C 0.85105 0.11491 0.28941
 N528 N 0.88454 0.12112 0.30017
 N529 N 0.93192 0.11084 0.33990
 C530 C 0.94597 0.09411 0.36977
 C531 C 0.92529 0.07097 0.39158
 N532 N 0.89136 0.06533 0.38226
 H533 H 0.80359 0.08543 0.30426
 H534 H 0.97312 0.09856 0.37635
 C535 C 0.09742 0.32977 -0.10707
 C536 C 0.11647 0.34637 -0.07879
 N537 N 0.14846 0.33316 -0.07011
 C538 C 0.16226 0.30395 -0.08821
 C539 C 0.14323 0.28710 -0.11675
 N540 N 0.11127 0.30095 -0.12538
 N541 N 0.06505 0.34221 -0.11529
 C542 C 0.05082 0.37060 -0.09643
 C543 C 0.06995 0.38748 -0.06841
 N544 N 0.10244 0.37504 -0.06016
 H545 H 0.18786 0.29452 -0.08042
 H546 H 0.02485 0.37998 -0.10324
 C547 C -0.11544 0.32676 0.10245
 C548 C -0.07928 0.32283 0.09822
 N549 N -0.06366 0.29120 0.10924
 C550 C -0.08255 0.26341 0.12439
 C551 C -0.11881 0.26716 0.12822
 N552 N -0.13434 0.29882 0.11692
 N553 N -0.13101 0.35876 0.09279
 C554 C -0.11208 0.38716 0.07919
 C555 C -0.07594 0.38329 0.07448
 N556 N -0.06035 0.35100 0.08394
 H557 H -0.06952 0.23849 0.13298
 H558 H -0.12518 0.41243 0.07178
 C559 C -0.08885 0.67810 -0.10370
 C560 C -0.08988 0.67583 -0.06528
 N561 N -0.10359 0.70387 -0.04567
 C562 C -0.11677 0.73403 -0.06269
 C563 C -0.11556 0.73682 -0.10133
 N564 N -0.10109 0.70870 -0.12076
 N565 N -0.07658 0.64920 -0.12333
 C566 C -0.06519 0.61818 -0.10620
 C567 C -0.06540 0.61634 -0.06771
 N568 N -0.07758 0.64539 -0.04818
 H569 H -0.12731 0.75584 -0.04599
 H570 H -0.05523 0.59561 -0.12237
 C571 C 0.10630 0.67597 0.10682
 C572 C 0.07270 0.67974 0.09215
 N573 N 0.05789 0.71352 0.08986
 C574 C 0.07529 0.74380 0.10150
 C575 C 0.10918 0.74015 0.11532
 N576 N 0.12391 0.70626 0.11777
 N577 N 0.12074 0.64209 0.10987
 C578 C 0.10325 0.61175 0.09850
 C579 C 0.07001 0.61555 0.08279
 N580 N 0.05557 0.64960 0.08011
 H581 H 0.06305 0.77050 0.09970
 H582 H 0.11563 0.58514 0.10068
 C583 C 0.33360 1.11452 0.89169
 C584 C 0.33244 1.07638 0.89716
 N585 N 0.30355 1.05742 0.88718
 C586 C 0.27564 1.07494 0.87219
 C587 C 0.27638 1.11325 0.86771
 N588 N 0.30546 1.13209 0.87764
 N589 N 0.36283 1.13339 0.90052
 C590 C 0.39100 1.11586 0.91477
 C591 C 0.38963 1.07786 0.92124
 N592 N 0.36026 1.05898 0.91228
 H593 H 0.25278 1.05934 0.86476
 H594 H 0.41396 1.13156 0.92175
 C595 C 0.33643 0.89789 1.10453
 C596 C 0.33377 0.90735 1.06724
 N597 N 0.30342 0.90147 1.04916
 C598 C 0.27552 0.88668 1.06674
 C599 C 0.27781 0.87810 1.10429
 N600 N 0.30831 0.88399 1.12233
 N601 N 0.36710 0.90274 1.12231
 C602 C 0.39520 0.91689 1.10457
 C603 C 0.39232 0.92742 1.06754
 N604 N 0.36154 0.92237 1.04976
 H605 H 0.25151 0.88245 1.05185
 H606 H 0.41926 0.92081 1.11950
 C607 C 0.66365 1.09699 1.11371
 C608 C 0.64304 1.12179 1.09360
 N609 N 0.65192 1.15786 1.09281
 C610 C 0.68059 1.17019 1.11095
 C611 C 0.70127 1.14540 1.13110
 N612 N 0.69200 1.10935 1.13209
 N613 N 0.65557 1.06078 1.11369
 C614 C 0.62794 1.04814 1.09425
 C615 C 0.60722 1.07275 1.07416
 N616 N 0.61510 1.10920 1.07443
 H617 H 0.68713 1.19903 1.10975
 H618 H 0.62200 1.01915 1.09460
 C619 C 0.67085 0.90589 0.88555
 C620 C 0.67253 0.91904 0.92167
 N621 N 0.70276 0.91638 0.94072
 C622 C 0.73146 0.90102 0.92530
 C623 C 0.73003 0.88822 0.88900
 N624 N 0.69968 0.89112 0.86990
 N625 N 0.64025 0.90748 0.86698
 C626 C 0.61120 0.92168 0.88292
 C627 C 0.61298 0.93539 0.91888
 N628 N 0.64375 0.93378 0.93731
 H629 H 0.75528 0.89911 0.94102
 H630 H 0.58714 0.92271 0.86751
   
