data_POSCAR
  _audit_creation_date              2014-09-24
  _audit_creation_method            'ToBaCCo'
  _symmetry_space_group_name_H-M    'P1'
  _symmetry_Int_Tables_number       1
  _symmetry_cell_setting            triclinic
  loop_
  _symmetry_equiv_pos_as_xyz
 x,y,z
_cell_length_a 13.8040
_cell_length_b 13.6400
_cell_length_c 22.9243
_cell_angle_alpha 88.854900
_cell_angle_beta 91.029300
_cell_angle_gamma 83.226100
loop_
  _atom_site_label
  _atom_site_type_symbol
  _atom_site_fract_x
  _atom_site_fract_y
  _atom_site_fract_z
C1 C 0.04071 0.75485 1.00249
 C2 C 0.03636 0.70380 1.05600
 C3 C 0.01612 0.60498 1.05503
 C4 C -0.00694 0.55971 1.00236
 C5 C -0.01023 0.61727 0.95013
 C6 C 0.01813 0.71308 0.94905
 C7 C -0.02456 0.45245 1.00152
 C8 C -0.01684 0.39885 0.94914
 C9 C -0.03248 0.29916 0.94784
 C10 C -0.04964 0.25011 1.00018
 C11 C -0.05514 0.29964 1.05307
 C12 C -0.04585 0.40108 1.05320
 H13 H 0.05111 0.83215 1.00275
 H14 H 0.02262 0.56311 1.09558
 H15 H -0.03132 0.58670 0.90960
 H16 H 0.00208 0.43293 0.90879
 H17 H -0.05413 0.17135 1.00012
 H18 H -0.05528 0.43827 1.09417
 C19 C 0.24593 0.00200 0.50085
 C20 C 0.30035 -0.01343 0.55298
 C21 C 0.40216 -0.01711 0.55174
 C22 C 0.45059 -0.00189 0.49895
 C23 C 0.39318 0.01495 0.44708
 C24 C 0.29157 0.01509 0.44775
 C25 C 0.55995 -0.00449 0.49814
 C26 C 0.61183 -0.02166 0.44587
 C27 C 0.71410 -0.02692 0.44522
 C28 C 0.76456 -0.01374 0.49756
 C29 C 0.71581 0.00674 0.54991
 C30 C 0.61363 0.01031 0.54981
 H31 H 0.16728 0.00335 0.50156
 H32 H 0.44240 -0.03428 0.59221
 H33 H 0.42574 0.02984 0.40584
 H34 H 0.57429 -0.03663 0.40588
 H35 H 0.84337 -0.01801 0.49731
 H36 H 0.57627 0.03075 0.58952
 C37 C 0.18683 -0.04407 0.30118
 H38 H 0.20096 -0.09845 0.26778
 C39 C 0.25460 -0.03999 0.34699
 H40 H 0.32082 -0.09125 0.34844
 C41 C 0.07958 0.08270 0.34319
 H42 H 0.00962 0.12782 0.34237
 C43 C 0.14450 0.08838 0.38996
 H44 H 0.12465 0.13895 0.42478
 N45 N 0.10029 0.01516 0.30101
 C46 C 0.09405 -0.09828 0.15596
 H47 H 0.13389 -0.03456 0.15686
 C48 C 0.10339 -0.15947 0.11120
 H49 H 0.15377 -0.14589 0.07712
 C50 C -0.01484 -0.19414 0.20473
 H51 H -0.06609 -0.20348 0.23891
 C52 C -0.00494 -0.26543 0.15671
 H53 H -0.05054 -0.32474 0.15772
 Zn54 Zn -0.00513 -0.00608 0.25063
 N55 N 0.02870 -0.11457 0.20213
 C56 C -0.10730 0.09637 0.15777
 N57 N -0.03915 0.10484 0.20033
 C58 C 0.01419 0.18261 0.20070
 C59 C 0.00406 0.25263 0.15494
 C60 C -0.11974 0.16458 0.11126
 C61 C -0.07951 -0.09016 0.34659
 C62 C -0.14010 -0.09514 0.39403
 C63 C -0.26547 0.01172 0.34131
 C64 C -0.20036 0.01791 0.29547
 N65 N -0.10837 -0.03043 0.29992
 H66 H -0.14739 0.03284 0.15793
 H67 H 0.06943 0.18687 0.23424
 H68 H 0.05185 0.31013 0.15387
 H69 H -0.17094 0.15390 0.07627
 H70 H -0.00625 -0.12843 0.34875
 H71 H -0.11310 -0.13969 0.43185
 H72 H -0.33611 0.05569 0.33845
 H73 H -0.22156 0.06573 0.25813
 C74 C 0.04602 -0.24548 0.10894
 C75 C 0.23182 0.02433 0.39313
 C76 C -0.23306 -0.04006 0.39319
 C77 C -0.06076 0.24168 0.10825
 C78 C 0.05190 0.19281 0.80279
 H79 H 0.10652 0.20228 0.77099
 C80 C 0.04265 0.25579 0.85045
 H81 H 0.09311 0.31017 0.85552
 C82 C -0.07983 0.11136 0.83561
 H83 H -0.12615 0.05336 0.83034
 C84 C -0.09245 0.17305 0.88310
 H85 H -0.15016 0.16324 0.91329
 N86 N -0.00591 0.11895 0.79803
 C87 C 0.11258 -0.07737 0.65944
 H88 H 0.05161 -0.12043 0.66040
 C89 C 0.17443 -0.08434 0.61204
 H90 H 0.16120 -0.13341 0.57695
 C91 C 0.20022 0.04257 0.70244
 H92 H 0.21163 0.09044 0.73797
 C93 C 0.26484 0.03724 0.65583
 H94 H 0.32286 0.08419 0.65505
 Zn95 Zn 0.00853 0.00833 0.74838
 N96 N 0.12202 -0.00971 0.70138
 C97 C -0.08148 0.06910 0.64494
 N98 N -0.10013 0.02201 0.69549
 C99 C -0.18702 -0.01403 0.70321
 C100 C -0.25393 -0.01363 0.65631
 C101 C -0.14405 0.06877 0.59698
 C102 C 0.08261 -0.09639 0.84296
 C103 C 0.08699 -0.15940 0.89147
 C104 C -0.04099 -0.24176 0.84788
 C105 C -0.04328 -0.17590 0.79996
 N106 N 0.01532 -0.10244 0.79978
 H107 H -0.01476 0.10274 0.64080
 H108 H -0.20340 -0.04591 0.74487
 H109 H -0.31960 -0.04858 0.66233
 H110 H -0.12477 0.10415 0.55681
 H111 H 0.13011 -0.03878 0.84094
 H112 H 0.14156 -0.15127 0.92496
 H113 H -0.09311 -0.29503 0.84828
 H114 H -0.09396 -0.18189 0.76417
 C115 C 0.24871 -0.02300 0.60851
 C116 C -0.02808 0.24363 0.89257
 C117 C 0.02167 -0.23108 0.89626
 C118 C -0.22951 0.02230 0.60099
   
