data_POSCAR
  _audit_creation_date              2014-09-24
  _audit_creation_method            'ToBaCCo'
  _symmetry_space_group_name_H-M    'P1'
  _symmetry_Int_Tables_number       1
  _symmetry_cell_setting            triclinic
  loop_
  _symmetry_equiv_pos_as_xyz
 x,y,z
_cell_length_a 48.0081
_cell_length_b 48.0078
_cell_length_c 40.9675
_cell_angle_alpha 89.964600
_cell_angle_beta 89.966000
_cell_angle_gamma 89.995200
loop_
  _atom_site_label
  _atom_site_type_symbol
  _atom_site_fract_x
  _atom_site_fract_y
  _atom_site_fract_z
O1 O 0.02692 0.30418 -0.03115
 O2 O -0.02764 0.30409 0.03230
 O3 O 0.02676 0.30418 0.03243
 O4 O -0.02746 0.30417 -0.03128
 O5 O -0.02735 0.25811 -0.03121
 O6 O 0.02673 0.25811 0.03234
 O7 O -0.02752 0.25803 0.03221
 O8 O 0.02688 0.25811 -0.03107
 Cu9 Cu -0.00036 0.30882 0.00058
 Cu10 Cu -0.00031 0.25345 0.00057
 C11 C 0.03616 0.28112 -0.04173
 C12 C -0.03684 0.28100 0.04288
 C13 C 0.03595 0.28111 0.04304
 C14 C -0.03661 0.28111 -0.04192
 O15 O 0.47261 0.80361 0.53179
 O16 O 0.52686 0.80360 0.46803
 O17 O 0.47247 0.80360 0.46821
 O18 O 0.52700 0.80350 0.53162
 O19 O 0.52688 0.75744 0.53153
 O20 O 0.47250 0.75754 0.46828
 O21 O 0.52676 0.75753 0.46810
 O22 O 0.47263 0.75754 0.53171
 Cu23 Cu 0.49974 0.80824 0.49991
 Cu24 Cu 0.49969 0.75288 0.49990
 C25 C 0.46341 0.78054 0.54242
 C26 C 0.53602 0.78053 0.45740
 C27 C 0.46323 0.78055 0.45763
 C28 C 0.53620 0.78041 0.54219
 O29 O 1.02803 0.69701 0.03172
 O30 O 0.97355 0.69699 -0.03174
 O31 O 1.02794 0.69692 -0.03187
 O32 O 0.97364 0.69703 0.03183
 O33 O 0.97374 0.74309 0.03166
 O34 O 1.02790 0.74298 -0.03189
 O35 O 0.97365 0.74305 -0.03176
 O36 O 1.02799 0.74307 0.03155
 Cu37 Cu 1.00079 0.69233 -0.00000
 Cu38 Cu 1.00083 0.74768 -0.00012
 C39 C 1.03725 0.72008 0.04227
 C40 C 0.96435 0.72005 -0.04237
 C41 C 1.03714 0.71997 -0.04256
 C42 C 0.96446 0.72011 0.04240
 O43 O 0.52727 0.19536 0.53176
 O44 O 0.47306 0.19522 0.46804
 O45 O 0.52745 0.19542 0.46819
 O46 O 0.47289 0.19524 0.53163
 O47 O 0.47283 0.24131 0.53153
 O48 O 0.52723 0.24149 0.46826
 O49 O 0.47299 0.24128 0.46810
 O50 O 0.52707 0.24143 0.53167
 Cu51 Cu 0.50018 0.19065 0.49991
 Cu52 Cu 0.50001 0.24601 0.49989
 C53 C 0.53637 0.21845 0.54238
 C54 C 0.46383 0.21826 0.45740
 C55 C 0.53660 0.21852 0.45761
 C56 C 0.46361 0.21828 0.54221
 O57 O 0.69582 0.02692 -0.03122
 O58 O 0.69588 -0.02763 0.03225
 O59 O 0.69589 0.02677 0.03236
 O60 O 0.69575 -0.02747 -0.03134
 O61 O 0.74181 -0.02744 -0.03139
 O62 O 0.74196 0.02665 0.03215
 O63 O 0.74194 -0.02759 0.03203
 O64 O 0.74189 0.02680 -0.03126
 Cu65 Cu 0.69117 -0.00035 0.00053
 Cu66 Cu 0.74653 -0.00040 0.00037
 C67 C 0.71889 0.03611 -0.04186
 C68 C 0.71896 -0.03687 0.04277
 C69 C 0.71899 0.03592 0.04291
 C70 C 0.71879 -0.03665 -0.04204
 O71 O 0.19630 0.52685 0.46823
 O72 O 0.19647 0.47260 0.53200
 O73 O 0.19636 0.52699 0.53183
 O74 O 0.19650 0.47246 0.46842
 O75 O 0.24256 0.47266 0.46846
 O76 O 0.24242 0.52704 0.53171
 O77 O 0.24254 0.47279 0.53188
 O78 O 0.24237 0.52691 0.46827
 Cu79 Cu 0.19175 0.49972 0.50013
 Cu80 Cu 0.24711 0.49987 0.50007
 C81 C 0.21934 0.53609 0.45757
 C82 C 0.21956 0.46348 0.54261
 C83 C 0.21940 0.53627 0.54239
 C84 C 0.21959 0.46330 0.45784
 O85 O 0.30297 1.02800 0.03178
 O86 O 0.30304 0.97350 -0.03167
 O87 O 0.30301 1.02790 -0.03181
 O88 O 0.30306 0.97361 0.03191
 O89 O 0.25700 0.97364 0.03186
 O90 O 0.25695 1.02779 -0.03171
 O91 O 0.25697 0.97354 -0.03156
 O92 O 0.25691 1.02789 0.03172
 Cu93 Cu 0.30768 1.00076 0.00005
 Cu94 Cu 0.25233 1.00071 0.00008
 C95 C 0.27989 1.03719 0.04238
 C96 C 0.27998 0.96427 -0.04223
 C97 C 0.27994 1.03706 -0.04244
 C98 C 0.28001 0.96440 0.04254
 O99 O 0.80475 0.52727 0.53155
 O100 O 0.80470 0.47305 0.46784
 O101 O 0.80471 0.52744 0.46797
 O102 O 0.80463 0.47288 0.53142
 O103 O 0.75856 0.47302 0.53135
 O104 O 0.75864 0.52742 0.46808
 O105 O 0.75863 0.47318 0.46793
 O106 O 0.75868 0.52726 0.53149
 Cu107 Cu 0.80936 0.50016 0.49969
 Cu108 Cu 0.75399 0.50023 0.49971
 C109 C 0.78169 0.53647 0.54219
 C110 C 0.78162 0.46391 0.45722
 C111 C 0.78165 0.53669 0.45741
 C112 C 0.78154 0.46370 0.54201
 O113 O 0.24460 0.20589 0.23983
 O114 O 0.22940 0.26668 0.29166
 O115 O 0.20647 0.24429 0.24027
 O116 O 0.26751 0.22826 0.29127
 O117 O 0.29373 0.25453 0.25951
 O118 O 0.23268 0.27055 0.20849
 O119 O 0.25561 0.29294 0.25989
 O120 O 0.27082 0.23216 0.20807
 Cu121 Cu 0.23437 0.23364 0.26894
 Cu122 Cu 0.26584 0.26517 0.23081
 C123 C 0.26015 0.20865 0.21493
 C124 C 0.24004 0.29019 0.28478
 C125 C 0.20915 0.26002 0.21551
 C126 C 0.29104 0.23881 0.28428
 O127 O 0.75524 0.79421 0.23973
 O128 O 0.77102 0.73339 0.29131
 O129 O 0.79368 0.75611 0.23989
 O130 O 0.73258 0.77148 0.29117
 O131 O 0.70653 0.74510 0.25942
 O132 O 0.76763 0.72974 0.20814
 O133 O 0.74497 0.70701 0.25956
 O134 O 0.72919 0.76784 0.20798
 Cu135 Cu 0.76574 0.76644 0.26871
 Cu136 Cu 0.73447 0.73478 0.23059
 C137 C 0.73967 0.79141 0.21488
 C138 C 0.76055 0.70981 0.28440
 C139 C 0.79109 0.74044 0.21510
 C140 C 0.70913 0.76077 0.28422
 O141 O 0.74529 0.29365 0.25955
 O142 O 0.72956 0.23265 0.20837
 O143 O 0.70702 0.25539 0.25982
 O144 O 0.76783 0.27091 0.20808
 O145 O 0.79414 0.24473 0.23980
 O146 O 0.73334 0.22920 0.29154
 O147 O 0.75588 0.20646 0.24009
 O148 O 0.77160 0.26747 0.29127
 Cu149 Cu 0.73479 0.26577 0.23078
 Cu150 Cu 0.76638 0.23434 0.26885
 C151 C 0.76099 0.29097 0.28431
 C152 C 0.74017 0.20914 0.21534
 C153 C 0.70979 0.23978 0.28466
 C154 C 0.79137 0.26033 0.21495
 O155 O 0.20584 0.75536 0.23976
 O156 O 0.26665 0.77080 0.29145
 O157 O 0.24407 0.79365 0.24007
 O158 O 0.22840 0.73252 0.29118
 O159 O 0.25474 0.70643 0.25939
 O160 O 0.27040 0.76756 0.20826
 O161 O 0.29298 0.74471 0.25964
 O162 O 0.23217 0.72926 0.20797
 Cu163 Cu 0.23360 0.76569 0.26880
 Cu164 Cu 0.26521 0.73437 0.23063
 C165 C 0.20863 0.73984 0.21486
 C166 C 0.29020 0.76025 0.28453
 C167 C 0.25976 0.79105 0.21527
 C168 C 0.23906 0.70904 0.28419
 O169 O 0.75533 0.20636 0.76009
 O170 O 0.77095 0.26717 0.70840
 O171 O 0.79356 0.24466 0.75995
 O172 O 0.73270 0.22889 0.70856
 O173 O 0.70642 0.25518 0.74019
 O174 O 0.76728 0.27096 0.79157
 O175 O 0.74467 0.29347 0.74002
 O176 O 0.72905 0.23266 0.79172
 Cu177 Cu 0.76577 0.23413 0.73108
 Cu178 Cu 0.73422 0.26571 0.76904
 C179 C 0.73967 0.20913 0.78489
 C180 C 0.76034 0.29070 0.71523
 C181 C 0.79081 0.26036 0.78470
 C182 C 0.70916 0.23948 0.71544
 O183 O 0.24416 0.79368 0.76015
 O184 O 0.22870 0.73273 0.70872
 O185 O 0.20595 0.75537 0.76015
 O186 O 0.26694 0.77102 0.70877
 O187 O 0.29315 0.74481 0.74058
 O188 O 0.23217 0.72915 0.79194
 O189 O 0.25492 0.70652 0.74051
 O190 O 0.27037 0.76747 0.79196
 Cu191 Cu 0.23381 0.76582 0.73127
 Cu192 Cu 0.26528 0.73436 0.76943
 C193 C 0.25976 0.79098 0.78500
 C194 C 0.23932 0.70922 0.71566
 C195 C 0.20865 0.73974 0.78499
 C196 C 0.29045 0.76044 0.71574
 O197 O 0.26725 0.22854 0.70886
 O198 O 0.20643 0.24440 0.76041
 O199 O 0.22915 0.26697 0.70892
 O200 O 0.24455 0.20598 0.76039
 O201 O 0.27092 0.23212 0.79205
 O202 O 0.25551 0.29310 0.74059
 O203 O 0.23280 0.27053 0.79208
 O204 O 0.29362 0.25467 0.74052
 Cu205 Cu 0.23420 0.23385 0.73147
 Cu206 Cu 0.26586 0.26522 0.76948
 C207 C 0.29082 0.23904 0.71572
 C208 C 0.20923 0.26003 0.78521
 C209 C 0.23984 0.29044 0.71581
 C210 C 0.26021 0.20865 0.78517
 O211 O 0.73283 0.77081 0.70827
 O212 O 0.79377 0.75559 0.75984
 O213 O 0.77131 0.73275 0.70842
 O214 O 0.75527 0.79362 0.75972
 O215 O 0.72913 0.76726 0.79146
 O216 O 0.74518 0.70639 0.74018
 O217 O 0.76764 0.72924 0.79160
 O218 O 0.70670 0.74445 0.74001
 Cu219 Cu 0.76592 0.76583 0.73088
 Cu220 Cu 0.73454 0.73419 0.76899
 C221 C 0.70936 0.76008 0.71517
 C222 C 0.79111 0.73997 0.78469
 C223 C 0.76083 0.70918 0.71538
 C224 C 0.73961 0.79083 0.78451
 C225 C 0.25704 0.13595 0.17889
 C226 C 0.27320 0.13915 0.15069
 C227 C 0.28584 0.16480 0.14405
 C228 C 0.28202 0.18730 0.16525
 C229 C 0.27967 0.05760 0.06531
 C230 C 0.25319 0.15842 0.20014
 C231 C 0.27587 0.11647 0.12793
 C232 C 0.27759 0.09769 0.10851
 C233 C 0.27899 0.07595 0.08538
 C234 C 0.26544 0.18443 0.19339
 H235 H 0.24709 0.11621 0.18423
 H236 H 0.29833 0.16753 0.12224
 H237 H 0.29173 0.20703 0.15934
 H238 H 0.24030 0.15551 0.22157
 C239 C 0.78716 0.66525 0.64494
 C240 C 0.77471 0.63953 0.65170
 C241 C 0.75851 0.63631 0.67986
 C242 C 0.75442 0.65883 0.70094
 C243 C 0.78149 0.55796 0.56648
 C244 C 0.78310 0.68780 0.66599
 C245 C 0.77753 0.61682 0.62903
 C246 C 0.77933 0.59802 0.60966
 C247 C 0.78079 0.57628 0.58656
 C248 C 0.76645 0.68491 0.69407
 H249 H 0.79967 0.66798 0.62315
 H250 H 0.74871 0.61651 0.68527
 H251 H 0.74149 0.65591 0.72234
 H252 H 0.79265 0.70759 0.65999
 C253 C 0.71356 0.83529 0.14422
 C254 C 0.72600 0.86101 0.15093
 C255 C 0.74215 0.86424 0.17910
 C256 C 0.74619 0.84174 0.20026
 C257 C 0.71918 0.94270 0.06568
 C258 C 0.71757 0.81275 0.16534
 C259 C 0.72318 0.88373 0.12821
 C260 C 0.72138 0.90254 0.10883
 C261 C 0.71990 0.92432 0.08574
 C262 C 0.73416 0.81565 0.19346
 H263 H 0.70109 0.83253 0.12243
 H264 H 0.75194 0.88405 0.18447
 H265 H 0.75907 0.84468 0.22167
 H266 H 0.70802 0.79296 0.15939
 C267 C 0.21384 0.33460 0.64536
 C268 C 0.22651 0.36022 0.65204
 C269 C 0.24278 0.36329 0.68014
 C270 C 0.24672 0.34073 0.70124
 C271 C 0.21983 0.44196 0.56690
 C272 C 0.21775 0.31201 0.66641
 C273 C 0.22378 0.38298 0.62939
 C274 C 0.22202 0.40182 0.61004
 C275 C 0.22056 0.42360 0.58696
 C276 C 0.23445 0.31475 0.69445
 H277 H 0.20127 0.33198 0.62362
 H278 H 0.25275 0.38301 0.68550
 H279 H 0.25970 0.34354 0.72260
 H280 H 0.20802 0.29230 0.66047
 C281 C 0.86417 0.25768 0.17910
 C282 C 0.86098 0.27388 0.15095
 C283 C 0.83528 0.28640 0.14427
 C284 C 0.81274 0.28242 0.16539
 C285 C 0.94271 0.28076 0.06578
 C286 C 0.84167 0.25366 0.20027
 C287 C 0.88371 0.27671 0.12826
 C288 C 0.90253 0.27853 0.10889
 C289 C 0.92433 0.28003 0.08581
 C290 C 0.81561 0.26578 0.19349
 H291 H 0.88396 0.24782 0.18447
 H292 H 0.83255 0.29893 0.12249
 H293 H 0.79297 0.29204 0.15946
 H294 H 0.84458 0.24073 0.22167
 C295 C 0.36333 0.75767 0.68015
 C296 C 0.36021 0.77385 0.65196
 C297 C 0.33455 0.78642 0.64520
 C298 C 0.31197 0.78251 0.66627
 C299 C 0.44189 0.78035 0.56672
 C300 C 0.34078 0.75372 0.70126
 C301 C 0.38295 0.77655 0.62928
 C302 C 0.40178 0.77827 0.60990
 C303 C 0.42355 0.77967 0.58680
 C304 C 0.31476 0.76589 0.69439
 H305 H 0.38308 0.74777 0.68556
 H306 H 0.33189 0.79892 0.62339
 H307 H 0.29223 0.79216 0.66027
 H308 H 0.34363 0.74081 0.72268
 C309 C 0.16483 0.71412 0.14400
 C310 C 0.13914 0.72669 0.15066
 C311 C 0.13591 0.74279 0.17888
 C312 C 0.15837 0.74665 0.20013
 C313 C 0.05765 0.72028 0.06521
 C314 C 0.18732 0.71795 0.16520
 C315 C 0.11648 0.72403 0.12788
 C316 C 0.09771 0.72233 0.10845
 C317 C 0.07598 0.72094 0.08530
 C318 C 0.18442 0.73449 0.19336
 H319 H 0.16758 0.70168 0.12218
 H320 H 0.11614 0.75268 0.18423
 H321 H 0.15544 0.75950 0.22157
 H322 H 0.20707 0.70831 0.15927
 C323 C 0.66518 0.21314 0.64510
 C324 C 0.63950 0.22570 0.65178
 C325 C 0.63632 0.24199 0.67984
 C326 C 0.65885 0.24608 0.70091
 C327 C 0.55787 0.21872 0.56666
 C328 C 0.68774 0.21719 0.66613
 C329 C 0.61677 0.22284 0.62914
 C330 C 0.59796 0.22101 0.60979
 C331 C 0.57621 0.21948 0.58672
 C332 C 0.68490 0.23393 0.69412
 H333 H 0.66788 0.20055 0.62338
 H334 H 0.61655 0.25188 0.68519
 H335 H 0.65597 0.25908 0.72224
 H336 H 0.70750 0.20755 0.66019
 C337 C 0.71349 0.16519 0.85550
 C338 C 0.72603 0.13950 0.84884
 C339 C 0.74229 0.13632 0.82072
 C340 C 0.74633 0.15883 0.79957
 C341 C 0.71910 0.05772 0.93394
 C342 C 0.71750 0.18774 0.83439
 C343 C 0.72319 0.11677 0.87152
 C344 C 0.72135 0.09793 0.89087
 C345 C 0.71984 0.07612 0.91392
 C346 C 0.73419 0.18488 0.80633
 H347 H 0.70093 0.16791 0.87725
 H348 H 0.75216 0.11654 0.81538
 H349 H 0.75929 0.15593 0.77820
 H350 H 0.70786 0.20750 0.84031
 C351 C 0.21306 0.66481 0.35461
 C352 C 0.22577 0.63921 0.34790
 C353 C 0.24201 0.63616 0.31976
 C354 C 0.24591 0.65873 0.29865
 C355 C 0.21948 0.55758 0.43324
 C356 C 0.21693 0.68741 0.33356
 C357 C 0.22313 0.61647 0.37059
 C358 C 0.22146 0.59765 0.38999
 C359 C 0.22011 0.57591 0.41313
 C360 C 0.23363 0.68470 0.30549
 H361 H 0.20051 0.66742 0.37639
 H362 H 0.25201 0.61645 0.31438
 H363 H 0.25889 0.65594 0.27728
 H364 H 0.20719 0.70711 0.33953
 C365 C 0.28567 0.83508 0.85552
 C366 C 0.27311 0.86075 0.84873
 C367 C 0.25694 0.86386 0.82055
 C368 C 0.25299 0.84130 0.79947
 C369 C 0.27978 0.94265 0.93360
 C370 C 0.28176 0.81249 0.83448
 C371 C 0.27585 0.88352 0.87134
 C372 C 0.27762 0.90239 0.89063
 C373 C 0.27907 0.92424 0.91363
 C374 C 0.26515 0.81528 0.80636
 H375 H 0.29816 0.83242 0.87731
 H376 H 0.24705 0.88361 0.81510
 H377 H 0.24009 0.84415 0.77805
 H378 H 0.29140 0.79276 0.84050
 C379 C 0.78724 0.33511 0.35457
 C380 C 0.77462 0.36075 0.34785
 C381 C 0.75833 0.36386 0.31977
 C382 C 0.75430 0.34130 0.29874
 C383 C 0.78139 0.44242 0.43294
 C384 C 0.78324 0.31251 0.33358
 C385 C 0.77741 0.38350 0.37047
 C386 C 0.77920 0.40232 0.38980
 C387 C 0.78067 0.42408 0.41288
 C388 C 0.76650 0.31528 0.30558
 H389 H 0.79983 0.33246 0.37630
 H390 H 0.74840 0.38360 0.31439
 H391 H 0.74129 0.34413 0.27740
 H392 H 0.79292 0.29279 0.33955
 C393 C 0.13637 0.25769 0.82091
 C394 C 0.13958 0.27389 0.84904
 C395 C 0.16532 0.28632 0.85574
 C396 C 0.18787 0.28224 0.83467
 C397 C 0.05777 0.28092 0.93408
 C398 C 0.15888 0.25358 0.79979
 C399 C 0.11684 0.27678 0.87170
 C400 C 0.09800 0.27864 0.89104
 C401 C 0.07618 0.28017 0.91407
 C402 C 0.18498 0.26560 0.80660
 H403 H 0.11656 0.24790 0.81553
 H404 H 0.16806 0.29883 0.87750
 H405 H 0.20766 0.29179 0.84062
 H406 H 0.15596 0.24066 0.77841
 C407 C 0.63626 0.75767 0.31980
 C408 C 0.63928 0.77392 0.34792
 C409 C 0.66486 0.78665 0.35464
 C410 C 0.68747 0.78281 0.33359
 C411 C 0.55754 0.78033 0.43309
 C412 C 0.65884 0.75379 0.29872
 C413 C 0.61651 0.77657 0.37057
 C414 C 0.59767 0.77826 0.38993
 C415 C 0.57589 0.77965 0.41302
 C416 C 0.68479 0.76611 0.30554
 H417 H 0.61656 0.74765 0.31442
 H418 H 0.66745 0.79921 0.37639
 H419 H 0.70715 0.79257 0.33956
 H420 H 0.65607 0.74082 0.27735
 C421 C 0.86393 0.74307 0.82036
 C422 C 0.86086 0.72684 0.84853
 C423 C 0.83524 0.71417 0.85527
 C424 C 0.81266 0.71801 0.83421
 C425 C 0.94274 0.72026 0.93345
 C426 C 0.84138 0.74695 0.79925
 C427 C 0.88363 0.72414 0.87116
 C428 C 0.90249 0.72240 0.89047
 C429 C 0.92433 0.72097 0.91347
 C430 C 0.81540 0.73466 0.80609
 H431 H 0.88365 0.75304 0.81495
 H432 H 0.83261 0.70163 0.87706
 H433 H 0.79296 0.70828 0.84019
 H434 H 0.84420 0.75988 0.77784
 C435 C 0.33514 0.21245 0.35455
 C436 C 0.36080 0.22504 0.34782
 C437 C 0.36393 0.24133 0.31972
 C438 C 0.34138 0.24538 0.29867
 C439 C 0.44235 0.21842 0.43308
 C440 C 0.31256 0.21647 0.33354
 C441 C 0.38352 0.22227 0.37049
 C442 C 0.40232 0.22051 0.38987
 C443 C 0.42405 0.21909 0.41299
 C444 C 0.31535 0.23322 0.30552
 H445 H 0.33247 0.19988 0.37630
 H446 H 0.38368 0.25124 0.31434
 H447 H 0.34423 0.25839 0.27732
 H448 H 0.29282 0.20682 0.33952
 C449 C 0.71324 0.83472 0.85497
 C450 C 0.72572 0.86043 0.84827
 C451 C 0.74195 0.86367 0.82014
 C452 C 0.74605 0.84117 0.79902
 C453 C 0.71895 0.94188 0.93364
 C454 C 0.71730 0.81218 0.83390
 C455 C 0.72290 0.88311 0.87098
 C456 C 0.72110 0.90188 0.89039
 C457 C 0.71965 0.92358 0.91354
 C458 C 0.73399 0.81508 0.80584
 H459 H 0.70070 0.83197 0.87673
 H460 H 0.75178 0.88346 0.81478
 H461 H 0.75901 0.84410 0.77765
 H462 H 0.70773 0.79240 0.83985
 C463 C 0.21421 0.33414 0.35550
 C464 C 0.22676 0.35982 0.34875
 C465 C 0.24294 0.36298 0.32056
 C466 C 0.24688 0.34046 0.29942
 C467 C 0.21987 0.44168 0.43368
 C468 C 0.21811 0.31159 0.33439
 C469 C 0.22397 0.38257 0.37140
 C470 C 0.22216 0.40143 0.39071
 C471 C 0.22065 0.42326 0.41371
 C472 C 0.23471 0.31443 0.30625
 H473 H 0.20171 0.33145 0.37730
 H474 H 0.25282 0.38274 0.31515
 H475 H 0.25977 0.34335 0.27799
 H476 H 0.20846 0.29185 0.34037
 C477 C 0.25714 0.13586 0.82101
 C478 C 0.27339 0.13896 0.84911
 C479 C 0.28612 0.16456 0.85573
 C480 C 0.28227 0.18712 0.83461
 C481 C 0.27974 0.05742 0.93456
 C482 C 0.25326 0.15839 0.79984
 C483 C 0.27604 0.11625 0.87185
 C484 C 0.27773 0.09746 0.89127
 C485 C 0.27909 0.07573 0.91443
 C486 C 0.26557 0.18436 0.80658
 H487 H 0.24713 0.11615 0.81570
 H488 H 0.29868 0.16720 0.87748
 H489 H 0.29204 0.20681 0.84051
 H490 H 0.24028 0.15556 0.77849
 C491 C 0.78678 0.66588 0.35495
 C492 C 0.77438 0.64014 0.34821
 C493 C 0.75822 0.63693 0.32005
 C494 C 0.75411 0.65946 0.29895
 C495 C 0.78144 0.55831 0.43321
 C496 C 0.78271 0.68845 0.33389
 C497 C 0.77728 0.61739 0.37086
 C498 C 0.77915 0.59854 0.39018
 C499 C 0.78069 0.57672 0.41321
 C500 C 0.76611 0.68556 0.30579
 H501 H 0.79927 0.66863 0.37674
 H502 H 0.74846 0.61711 0.31465
 H503 H 0.74122 0.65653 0.27754
 H504 H 0.79223 0.70824 0.33987
 C505 C 0.13583 0.74259 0.82074
 C506 C 0.13898 0.72640 0.84891
 C507 C 0.16462 0.71378 0.85560
 C508 C 0.18717 0.71766 0.83447
 C509 C 0.05749 0.72012 0.93443
 C510 C 0.15835 0.74651 0.79957
 C511 C 0.11628 0.72375 0.87167
 C512 C 0.09750 0.72207 0.89111
 C513 C 0.07579 0.72073 0.91429
 C514 C 0.18437 0.73430 0.80637
 H515 H 0.11609 0.75253 0.81538
 H516 H 0.16731 0.70127 0.87739
 H517 H 0.20690 0.70798 0.84042
 H518 H 0.15549 0.75944 0.77816
 C519 C 0.66583 0.21358 0.35524
 C520 C 0.64012 0.22606 0.34851
 C521 C 0.63694 0.24230 0.32038
 C522 C 0.65947 0.24638 0.29928
 C523 C 0.55823 0.21883 0.43344
 C524 C 0.68840 0.21763 0.33417
 C525 C 0.61736 0.22315 0.37114
 C526 C 0.59849 0.22124 0.39045
 C527 C 0.57665 0.21965 0.41346
 C528 C 0.68554 0.23429 0.30609
 H529 H 0.66855 0.20104 0.37700
 H530 H 0.61715 0.25212 0.31499
 H531 H 0.65657 0.25932 0.27788
 H532 H 0.70817 0.20804 0.34013
 C533 C 0.86361 0.25777 0.82041
 C534 C 0.86042 0.27407 0.84847
 C535 C 0.83475 0.28666 0.85510
 C536 C 0.81221 0.28264 0.83404
 C537 C 0.94192 0.28089 0.93377
 C538 C 0.84110 0.25371 0.79930
 C539 C 0.88311 0.27688 0.87116
 C540 C 0.90189 0.27868 0.89055
 C541 C 0.92361 0.28016 0.91368
 C542 C 0.81506 0.26589 0.80605
 H543 H 0.88337 0.24786 0.81510
 H544 H 0.83204 0.29925 0.87681
 H545 H 0.79246 0.29230 0.83994
 H546 H 0.84400 0.24071 0.77798
 C547 C 0.36301 0.75753 0.32025
 C548 C 0.35982 0.77364 0.34846
 C549 C 0.33411 0.78612 0.35522
 C550 C 0.31156 0.78219 0.33412
 C551 C 0.44162 0.78036 0.43346
 C552 C 0.34050 0.75357 0.29911
 C553 C 0.38255 0.77641 0.37112
 C554 C 0.40140 0.77819 0.39045
 C555 C 0.42321 0.77965 0.41347
 C556 C 0.31444 0.76565 0.30596
 H557 H 0.38280 0.74770 0.31482
 H558 H 0.33138 0.79857 0.37704
 H559 H 0.29180 0.79178 0.34012
 H560 H 0.34342 0.74072 0.27766
 C561 C 0.28588 0.83537 0.14499
 C562 C 0.27325 0.86098 0.15179
 C563 C 0.25699 0.86401 0.17993
 C564 C 0.25301 0.84140 0.20095
 C565 C 0.27982 0.94285 0.06681
 C566 C 0.28194 0.81272 0.16597
 C567 C 0.27598 0.88379 0.12920
 C568 C 0.27772 0.90266 0.10989
 C569 C 0.27913 0.92448 0.08684
 C570 C 0.26523 0.81541 0.19403
 H571 H 0.29844 0.83277 0.12322
 H572 H 0.24705 0.88373 0.18537
 H573 H 0.24004 0.84417 0.22233
 H574 H 0.29163 0.79301 0.15993
 C575 C 0.78663 0.33463 0.64467
 C576 C 0.77409 0.36032 0.65131
 C577 C 0.75778 0.36351 0.67938
 C578 C 0.75369 0.34100 0.70052
 C579 C 0.78127 0.44209 0.56622
 C580 C 0.78258 0.31208 0.66577
 C581 C 0.77700 0.38306 0.62863
 C582 C 0.77889 0.40189 0.60929
 C583 C 0.78047 0.42370 0.58623
 C584 C 0.76584 0.31494 0.69379
 H585 H 0.79923 0.33191 0.62295
 H586 H 0.74791 0.38329 0.68471
 H587 H 0.74070 0.34391 0.72187
 H588 H 0.79222 0.29232 0.65987
 C589 C 0.74266 0.13619 0.18004
 C590 C 0.72633 0.13927 0.15199
 C591 C 0.71377 0.16494 0.14521
 C592 C 0.71784 0.18756 0.16614
 C593 C 0.71926 0.05745 0.06715
 C594 C 0.74677 0.15878 0.20101
 C595 C 0.72345 0.11648 0.12944
 C596 C 0.72159 0.09762 0.11017
 C597 C 0.72004 0.07582 0.08717
 C598 C 0.73461 0.18481 0.19412
 H599 H 0.75255 0.11643 0.18546
 H600 H 0.70115 0.16757 0.12350
 H601 H 0.70819 0.20730 0.16013
 H602 H 0.75979 0.15596 0.22233
 C603 C 0.24227 0.63642 0.67992
 C604 C 0.22609 0.63956 0.65176
 C605 C 0.21347 0.66520 0.64505
 C606 C 0.21733 0.68776 0.66615
 C607 C 0.21957 0.55785 0.56660
 C608 C 0.24617 0.65894 0.70107
 C609 C 0.22339 0.61683 0.62907
 C610 C 0.22166 0.59801 0.60970
 C611 C 0.22025 0.57623 0.58663
 C612 C 0.23395 0.68495 0.69426
 H613 H 0.25220 0.61668 0.68530
 H614 H 0.20096 0.66789 0.62327
 H615 H 0.20765 0.70748 0.66019
 H616 H 0.25909 0.65607 0.72247
 C617 C 0.86402 0.74337 0.17967
 C618 C 0.86101 0.72708 0.15158
 C619 C 0.83541 0.71440 0.14482
 C620 C 0.81277 0.71832 0.16580
 C621 C 0.94291 0.72036 0.06666
 C622 C 0.84141 0.74732 0.20069
 C623 C 0.88382 0.72433 0.12900
 C624 C 0.90270 0.72256 0.10971
 C625 C 0.92453 0.72110 0.08668
 C626 C 0.81544 0.73505 0.19382
 H627 H 0.88372 0.75334 0.18508
 H628 H 0.83284 0.70181 0.12309
 H629 H 0.79308 0.70858 0.15980
 H630 H 0.84416 0.76032 0.22204
 C631 C 0.36362 0.24151 0.67986
 C632 C 0.36038 0.22531 0.65174
 C633 C 0.33466 0.21283 0.64510
 C634 C 0.31214 0.21686 0.66623
 C635 C 0.44203 0.21845 0.56645
 C636 C 0.34114 0.24557 0.70104
 C637 C 0.38308 0.22247 0.62900
 C638 C 0.40189 0.22065 0.60961
 C639 C 0.42366 0.21916 0.58650
 C640 C 0.31505 0.23350 0.69429
 H641 H 0.38342 0.25133 0.68519
 H642 H 0.33190 0.20031 0.62334
 H643 H 0.29236 0.20728 0.66032
 H644 H 0.34408 0.25850 0.72241
 C645 C 0.13617 0.25768 0.18030
 C646 C 0.13927 0.27398 0.15220
 C647 C 0.16495 0.28649 0.14538
 C648 C 0.18758 0.28240 0.16630
 C649 C 0.05747 0.28089 0.06730
 C650 C 0.15876 0.25355 0.20126
 C651 C 0.11649 0.27684 0.12964
 C652 C 0.09763 0.27867 0.11035
 C653 C 0.07583 0.28016 0.08733
 C654 C 0.18481 0.26565 0.19433
 H655 H 0.11640 0.24783 0.18575
 H656 H 0.16759 0.29907 0.12363
 H657 H 0.20733 0.29200 0.16026
 H658 H 0.15593 0.24055 0.22262
 C659 C 0.63655 0.75704 0.67945
 C660 C 0.63964 0.77332 0.65133
 C661 C 0.66526 0.78600 0.64463
 C662 C 0.68783 0.78212 0.66570
 C663 C 0.55780 0.78015 0.56637
 C664 C 0.65910 0.75312 0.70056
 C665 C 0.61687 0.77608 0.62870
 C666 C 0.59802 0.77788 0.60938
 C667 C 0.57620 0.77939 0.58636
 C668 C 0.68508 0.76541 0.69376
 H669 H 0.61684 0.74706 0.68483
 H670 H 0.66790 0.79859 0.62288
 H671 H 0.70753 0.79187 0.65975
 H672 H 0.65627 0.74014 0.72194
   
