data_POSCAR
  _audit_creation_date              2014-09-24
  _audit_creation_method            'ToBaCCo'
  _symmetry_space_group_name_H-M    'P1'
  _symmetry_Int_Tables_number       1
  _symmetry_cell_setting            triclinic
  loop_
  _symmetry_equiv_pos_as_xyz
 x,y,z
_cell_length_a 40.8249
_cell_length_b 40.8467
_cell_length_c 13.0811
_cell_angle_alpha 90.014500
_cell_angle_beta 90.010200
_cell_angle_gamma 119.999200
loop_
  _atom_site_label
  _atom_site_type_symbol
  _atom_site_fract_x
  _atom_site_fract_y
  _atom_site_fract_z
C1 C 0.17008 0.47872 0.40416
 C2 C 0.15220 0.47638 0.49816
 C3 C 0.16951 0.47784 0.59251
 C4 C 0.20391 0.47695 0.59261
 C5 C 0.22207 0.47832 0.49900
 C6 C 0.20473 0.47818 0.40471
 C7 C 0.22126 0.47469 0.31384
 C8 C 0.25583 0.47589 0.31449
 C9 C 0.27527 0.47974 0.40621
 C10 C 0.25751 0.47920 0.49969
 C11 C 0.21925 0.47168 0.68335
 C12 C 0.25379 0.47282 0.68399
 C13 C 0.27480 0.47902 0.59379
 C14 C 0.31112 0.48198 0.59424
 C15 C 0.32782 0.48207 0.50006
 C16 C 0.31111 0.48225 0.40669
 H17 H 0.20713 0.46940 0.24093
 H18 H 0.26649 0.47244 0.24203
 H19 H 0.20405 0.46489 0.75488
 H20 H 0.26275 0.46697 0.75598
 H21 H 0.12662 0.47812 0.49803
 H22 H 0.35593 0.48561 0.49863
 C23 C 0.52043 -0.30830 0.40794
 C24 C 0.52194 -0.32434 0.50130
 C25 C 0.52150 -0.30795 0.59565
 C26 C 0.52293 -0.27235 0.59548
 C27 C 0.52161 -0.25565 0.50154
 C28 C 0.52124 -0.27322 0.40769
 C29 C 0.52291 -0.25458 0.31583
 C30 C 0.52200 -0.22104 0.31568
 C31 C 0.51956 -0.20450 0.40740
 C32 C 0.52073 -0.22116 0.50139
 C33 C 0.52824 -0.25157 0.68591
 C34 C 0.52716 -0.21812 0.68584
 C35 C 0.52106 -0.20346 0.59518
 C36 C 0.51805 -0.17018 0.59481
 C37 C 0.51797 -0.15381 0.50047
 C38 C 0.51735 -0.17102 0.40752
 H39 H 0.52586 -0.26517 0.24274
 H40 H 0.52414 -0.20780 0.24253
 H41 H 0.53482 -0.25995 0.75777
 H42 H 0.53279 -0.20321 0.75764
 H43 H 0.51958 -0.35194 0.49984
 H44 H 0.51443 -0.12926 0.49857
 C45 C 1.17124 0.68853 0.59445
 C46 C 1.15455 0.67204 0.50015
 C47 C 1.17151 0.68871 0.40687
 C48 C 1.20501 0.72442 0.40659
 C49 C 1.22225 0.74206 0.50024
 C50 C 1.20478 0.72470 0.59428
 C51 C 1.21985 0.74548 0.68478
 C52 C 1.25337 0.77992 0.68438
 C53 C 1.27372 0.79547 0.59351
 C54 C 1.25685 0.77744 0.49976
 C55 C 1.22080 0.74380 0.31494
 C56 C 1.25429 0.77828 0.31447
 C57 C 1.27410 0.79483 0.40553
 C58 C 1.30917 0.82955 0.40537
 C59 C 1.32452 0.84737 0.49928
 C60 C 1.30889 0.82997 0.59335
 H61 H 1.20518 0.73643 0.75691
 H62 H 1.26207 0.79491 0.75621
 H63 H 1.20678 0.73319 0.24234
 H64 H 1.26339 0.79233 0.24156
 H65 H 1.12983 0.64403 0.49854
 H66 H 1.35177 0.87297 0.49928
 C67 C 0.69070 0.51964 0.59487
 C68 C 0.67444 0.52015 0.50065
 C69 C 0.69061 0.51892 0.40751
 C70 C 0.72584 0.52007 0.40713
 C71 C 0.74351 0.52065 0.50102
 C72 C 0.72648 0.52144 0.59499
 C73 C 0.74708 0.52664 0.68563
 C74 C 0.78101 0.52643 0.68549
 C75 C 0.79617 0.52102 0.59470
 C76 C 0.77837 0.52045 0.50087
 C77 C 0.74451 0.52189 0.31524
 C78 C 0.77845 0.52171 0.31510
 C79 C 0.79527 0.51969 0.40684
 C80 C 0.82917 0.51819 0.40695
 C81 C 0.84653 0.51916 0.49996
 C82 C 0.82991 0.51879 0.59430
 H83 H 0.73818 0.53251 0.75769
 H84 H 0.79584 0.53215 0.75745
 H85 H 0.73360 0.52441 0.24217
 H86 H 0.79177 0.52410 0.24193
 H87 H 0.64669 0.51746 0.49900
 H88 H 0.87141 0.51617 0.49810
 C89 C 0.47987 0.17174 0.59320
 C90 C 0.48058 0.15535 0.49976
 C91 C 0.48054 0.17207 0.40628
 C92 C 0.47826 0.20558 0.40589
 C93 C 0.47762 0.22263 0.49981
 C94 C 0.47734 0.20509 0.59350
 C95 C 0.47343 0.22082 0.68494
 C96 C 0.47335 0.25480 0.68519
 C97 C 0.47783 0.27503 0.59414
 C98 C 0.47776 0.25759 0.50005
 C99 C 0.47576 0.22211 0.31418
 C100 C 0.47576 0.25614 0.31431
 C101 C 0.47825 0.27514 0.40614
 C102 C 0.48017 0.31068 0.40644
 C103 C 0.47955 0.32720 0.49956
 C104 C 0.48020 0.31105 0.59385
 H105 H 0.46950 0.20661 0.75742
 H106 H 0.46853 0.26421 0.75783
 H107 H 0.47309 0.20865 0.24110
 H108 H 0.47308 0.26699 0.24133
 H109 H 0.48407 0.13073 0.49984
 H110 H 0.48276 0.35516 0.49776
 C111 C 0.68952 0.17092 0.40563
 C112 C 0.67254 0.15428 0.49897
 C113 C 0.68958 0.17058 0.59256
 C114 C 0.72564 0.20372 0.59317
 C115 C 0.74313 0.22119 0.49962
 C116 C 0.72548 0.20426 0.40556
 C117 C 0.74470 0.22072 0.31401
 C118 C 0.77889 0.25459 0.31443
 C119 C 0.79539 0.27348 0.40639
 C120 C 0.77814 0.25597 0.50016
 C121 C 0.74523 0.21930 0.68479
 C122 C 0.77951 0.25308 0.68533
 C123 C 0.79552 0.27327 0.59440
 C124 C 0.82943 0.30911 0.59435
 C125 C 0.84637 0.32523 0.50017
 C126 C 0.82920 0.30888 0.40694
 H127 H 0.73392 0.20732 0.24084
 H128 H 0.79256 0.26540 0.24157
 H129 H 0.73473 0.20510 0.75720
 H130 H 0.79367 0.26235 0.75811
 H131 H 0.64431 0.12981 0.49880
 H132 H 0.87129 0.35308 0.49855
 O133 O 0.94678 0.41580 0.18558
 O134 O 0.90562 0.42470 0.08609
 C135 C 0.91287 0.40732 0.15766
 O136 O 1.05383 0.58454 0.17826
 O137 O 1.09506 0.57422 0.08324
 C138 C 1.08776 0.59273 0.15143
 O139 O 0.94722 0.52931 0.18512
 O140 O 0.90589 0.47925 0.08603
 C141 C 0.91324 0.50397 0.15733
 O142 O 1.05305 0.46625 0.17973
 O143 O 1.09472 0.51746 0.08432
 C144 C 1.08710 0.49171 0.15306
 Zr145 Zr 1.00009 0.45727 0.12662
 O146 O 1.00301 0.45600 0.28796
 O147 O 0.99867 0.40504 0.11292
 Zr148 Zr 1.00046 0.54050 0.12677
 O149 O 1.00422 0.54353 0.28824
 O150 O 0.99689 0.59045 0.12236
 O151 O 0.96669 0.48224 0.14697
 O152 O 1.03289 0.51508 0.14567
 O153 O 1.05259 0.46553 -0.18379
 O154 O 1.09424 0.51664 -0.08820
 C155 C 1.08659 0.49083 -0.15680
 O156 O 0.94737 0.52890 -0.19069
 O157 O 0.90590 0.47954 -0.08992
 C158 C 0.91338 0.50406 -0.16187
 O159 O 1.05374 0.58403 -0.18411
 O160 O 1.09501 0.57390 -0.08870
 C161 C 1.08766 0.59235 -0.15700
 O162 O 0.94674 0.41578 -0.18995
 O163 O 0.90559 0.42452 -0.09015
 C164 C 0.91285 0.40715 -0.16168
 Zr165 Zr 0.99997 0.45724 -0.13108
 O166 O 1.00365 0.45796 -0.29257
 O167 O 0.99632 0.40370 -0.12595
 Zr168 Zr 1.00050 0.54039 -0.13142
 O169 O 1.00425 0.54373 -0.29282
 O170 O 0.99695 0.59034 -0.12594
 Zr171 Zr 0.94410 0.47102 -0.00214
 Zr172 Zr 1.05654 0.52679 -0.00193
 O173 O 1.03294 0.51499 -0.14975
 O174 O 0.96656 0.48213 -0.15142
 O175 O 1.03397 0.46779 -0.00207
 O176 O 0.96762 0.53011 -0.00237
 O177 O 0.96698 0.43492 -0.00210
 O178 O 1.03443 0.56368 -0.00229
 H179 H 1.04960 0.52342 0.20648
 H180 H 0.95049 0.54075 -0.00241
 H181 H 1.04965 0.52319 -0.21052
 H182 H 0.94965 0.40719 -0.00208
 H183 H 1.01947 0.60988 0.08567
 H184 H 1.02018 0.61012 -0.09231
 H185 H 0.98504 0.51884 -0.32003
 H186 H 0.98394 0.46293 -0.31960
 H187 H 1.01699 0.40615 -0.08125
 H188 H 0.99824 0.39623 0.18372
 H189 H 0.98592 0.46451 0.31526
 H190 H 0.98414 0.51904 0.31527
 O191 O 0.58410 0.53098 0.18599
 O192 O 0.57511 0.48095 0.08636
 C193 C 0.59250 0.50549 0.15806
 O194 O 0.41514 0.46900 0.17714
 O195 O 0.42564 0.52076 0.08294
 C196 C 0.40703 0.49483 0.15077
 O197 O 0.47044 0.41800 0.18444
 O198 O 0.52055 0.42667 0.08565
 C199 C 0.49575 0.40932 0.15682
 O200 O 0.53371 0.58710 0.17910
 O201 O 0.48229 0.57711 0.08387
 C202 C 0.50805 0.59544 0.15240
 Zr203 Zr 0.54252 0.54282 0.12708
 O204 O 0.54304 0.54654 0.28851
 O205 O 0.59489 0.59360 0.11502
 Zr206 Zr 0.45926 0.45993 0.12567
 O207 O 0.45497 0.45886 0.28700
 O208 O 0.40827 0.40783 0.11195
 O209 O 0.51753 0.48446 0.14671
 O210 O 0.48465 0.51774 0.14530
 O211 O 0.53467 0.58747 -0.18291
 O212 O 0.48326 0.57762 -0.08817
 C213 C 0.50928 0.59606 -0.15591
 O214 O 0.47104 0.41860 -0.19100
 O215 O 0.52056 0.42665 -0.09049
 C216 C 0.49599 0.40957 -0.16240
 O217 O 0.41568 0.46951 -0.18363
 O218 O 0.42556 0.52076 -0.08779
 C219 C 0.40721 0.49498 -0.15631
 O220 O 0.58444 0.53132 -0.18938
 O221 O 0.57564 0.48141 -0.08968
 C222 C 0.59308 0.50608 -0.16102
 Zr223 Zr 0.54282 0.54296 -0.13095
 O224 O 0.54196 0.54587 -0.29244
 O225 O 0.59637 0.59286 -0.12595
 Zr226 Zr 0.45972 0.46036 -0.13219
 O227 O 0.45714 0.46163 -0.29368
 O228 O 0.40949 0.40706 -0.12910
 Zr229 Zr 0.52896 0.47324 -0.00230
 Zr230 Zr 0.47311 0.52978 -0.00232
 O231 O 0.48502 0.51818 -0.15016
 O232 O 0.51802 0.48472 -0.15164
 O233 O 0.53214 0.56623 -0.00179
 O234 O 0.46989 0.43760 -0.00320
 O235 O 0.56502 0.53223 -0.00167
 O236 O 0.43630 0.47086 -0.00322
 H237 H 0.47626 0.52604 0.20613
 H238 H 0.45921 0.40983 -0.00341
 H239 H 0.47671 0.52674 -0.21062
 H240 H 0.59276 0.54267 -0.00139
 H241 H 0.39973 0.39912 0.18273
 H242 H 0.39154 0.40934 -0.08288
 H243 H 0.48168 0.46606 -0.32044
 H244 H 0.53741 0.52134 -0.31952
 H245 H 0.59414 0.61076 -0.07943
 H246 H 0.60345 0.60183 0.18609
 H247 H 0.53599 0.52126 0.31554
 H248 H 0.48027 0.46616 0.31459
 O249 O 0.52849 -0.05345 0.18560
 O250 O 0.47816 -0.09452 0.08676
 C251 C 0.50292 -0.08733 0.15790
 O252 O 0.46673 0.05365 0.18058
 O253 O 0.51842 0.09467 0.08595
 C254 C 0.49258 0.08752 0.15380
 O255 O 0.41591 -0.05286 0.18850
 O256 O 0.42380 -0.09426 0.08731
 C257 C 0.40689 -0.08683 0.15984
 O258 O 0.58472 0.05297 0.17860
 O259 O 0.57402 0.09431 0.08555
 C260 C 0.59283 0.08693 0.15251
 Zr261 Zr 0.54024 -0.00009 0.12722
 O262 O 0.54452 0.00311 0.28857
 O263 O 0.59096 -0.00176 0.11367
 Zr264 Zr 0.45723 0.00028 0.12850
 O265 O 0.45756 0.00412 0.28985
 O266 O 0.40357 -0.00355 0.12312
 O267 O 0.48189 -0.03342 0.14808
 O268 O 0.51515 0.03260 0.14686
 O269 O 0.58438 0.05297 -0.18126
 O270 O 0.57382 0.09433 -0.08782
 C271 C 0.59257 0.08692 -0.15494
 O272 O 0.41549 -0.05278 -0.18919
 O273 O 0.42354 -0.09424 -0.08877
 C274 C 0.40650 -0.08675 -0.16079
 O275 O 0.46617 0.05360 -0.18076
 O276 O 0.51807 0.09466 -0.08672
 C277 C 0.49203 0.08747 -0.15405
 O278 O 0.52807 -0.05322 -0.18952
 O279 O 0.47832 -0.09444 -0.08945
 C280 C 0.50292 -0.08712 -0.16115
 Zr281 Zr 0.53982 -0.00007 -0.13040
 O282 O 0.54260 0.00387 -0.29187
 O283 O 0.58971 -0.00378 -0.12682
 Zr284 Zr 0.45689 0.00030 -0.12935
 O285 O 0.45682 0.00422 -0.29063
 O286 O 0.40323 -0.00358 -0.12270
 Zr287 Zr 0.47027 -0.05601 -0.00106
 Zr288 Zr 0.52678 0.05621 -0.00082
 O289 O 0.51474 0.03268 -0.14867
 O290 O 0.48144 -0.03346 -0.15022
 O291 O 0.56338 0.03383 -0.00149
 O292 O 0.43455 -0.03264 -0.00040
 O293 O 0.52930 -0.03312 -0.00164
 O294 O 0.46778 0.03424 -0.00027
 H295 H 0.52366 0.04926 0.20775
 H296 H 0.40680 -0.04988 -0.00018
 H297 H 0.52315 0.04944 -0.20933
 H298 H 0.53975 -0.05041 -0.00189
 H299 H 0.40690 0.01964 0.08967
 H300 H 0.40661 0.01954 -0.08865
 H301 H 0.46349 -0.01422 -0.31831
 H302 H 0.51800 -0.01605 -0.31886
 H303 H 0.60778 0.01637 -0.08059
 H304 H 0.59942 -0.00205 0.18449
 H305 H 0.51930 -0.01507 0.31614
 H306 H 0.46424 -0.01437 0.31700
 N307 N 1.15312 0.50877 0.16744
 N308 N 1.17598 0.50528 0.23266
 C309 C 1.15502 0.48547 0.31404
 C310 C 1.11816 0.47731 0.29613
 N311 N 1.11828 0.49198 0.20388
 H312 H 1.09366 0.46239 0.34503
 N313 N 0.48452 0.63899 0.17614
 N314 N 0.48723 0.66484 0.24195
 C315 C 0.51270 0.66862 0.31360
 C316 C 0.52521 0.64366 0.28988
 N317 N 0.50713 0.62600 0.20334
 H318 H 0.54437 0.63790 0.33318
 N319 N 0.35787 -0.15283 0.17162
 N320 N 0.33073 -0.17585 0.23474
 C321 C 0.33137 -0.15517 0.31617
 C322 C 0.36049 -0.11834 0.30047
 N323 N 0.37596 -0.11822 0.20970
 H324 H 0.36969 -0.09398 0.34969
 N325 N 0.84615 0.48112 0.17825
 N326 N 0.82289 0.48473 0.24166
 C327 C 0.84450 0.51028 0.31318
 C328 C 0.88195 0.52185 0.29207
 N329 N 0.88166 0.50309 0.20732
 H330 H 0.90677 0.54087 0.33596
 N331 N 0.51805 0.36465 0.17809
 N332 N 0.51400 0.33762 0.24152
 C333 C 0.48847 0.33398 0.31274
 C334 C 0.47736 0.36017 0.29147
 N335 N 0.49638 0.37854 0.20693
 H336 H 0.45846 0.36621 0.33507
 N337 N 0.63746 0.15393 0.17300
 N338 N 0.66361 0.17717 0.23808
 C339 C 0.66679 0.15557 0.31107
 C340 C 0.64126 0.11814 0.28899
 N341 N 0.62377 0.11842 0.20210
 H342 H 0.63491 0.09337 0.33379
 N343 N 0.51411 0.15446 -0.17316
 N344 N 0.51124 0.17776 -0.23809
 C345 C 0.48693 0.15624 -0.31211
 C346 C 0.47525 0.11884 -0.29079
 N347 N 0.49269 0.11903 -0.20337
 H348 H 0.45718 0.09415 -0.33637
 N349 N 0.64337 0.49074 -0.16923
 N350 N 0.67061 0.49486 -0.23203
 C351 C 0.66888 0.51336 -0.31567
 C352 C 0.63912 0.52017 -0.30163
 N353 N 0.62426 0.50580 -0.20971
 H354 H 0.62905 0.53406 -0.35278
 N355 N 0.84711 0.35715 -0.17098
 N356 N 0.82416 0.32977 -0.23370
 C357 C 0.84465 0.33118 -0.31643
 C358 C 0.88120 0.36091 -0.30201
 N359 N 0.88143 0.37605 -0.21071
 H360 H 0.90533 0.37072 -0.35244
 N361 N 0.48847 -0.15249 -0.16927
 N362 N 0.49315 -0.17529 -0.23198
 C363 C 0.51126 -0.15497 -0.31587
 C364 C 0.51723 -0.11870 -0.30213
 N365 N 0.50279 -0.11845 -0.21012
 H366 H 0.53076 -0.09475 -0.35339
 N367 N 0.35652 0.50983 -0.16652
 N368 N 0.32993 0.50612 -0.23130
 C369 C 0.33258 0.48831 -0.31537
 C370 C 0.36227 0.48153 -0.29954
 N371 N 0.37604 0.49504 -0.20597
 H372 H 0.37298 0.46820 -0.35064
 N373 N 1.15334 0.64266 -0.16709
 N374 N 1.17634 0.66926 -0.23152
 C375 C 1.15595 0.66697 -0.31542
 C376 C 1.11936 0.63745 -0.29983
 N377 N 1.11900 0.62344 -0.20656
 H378 H 1.09532 0.62702 -0.35089
 N379 N 0.84795 0.48937 -0.17008
 N380 N 0.82501 0.49383 -0.23275
 C381 C 0.84531 0.51220 -0.31641
 C382 C 0.88175 0.51857 -0.30255
 N383 N 0.88208 0.50409 -0.21067
 H384 H 0.90572 0.53228 -0.35373
 N385 N 0.51102 0.35910 -0.17161
 N386 N 0.50627 0.33159 -0.23426
 C387 C 0.48733 0.33323 -0.31705
 C388 C 0.48096 0.36325 -0.30276
 N389 N 0.49597 0.37831 -0.21146
 H390 H 0.46684 0.37328 -0.35325
 N391 N 0.63785 0.15382 -0.17439
 N392 N 0.66417 0.17694 -0.23924
 C393 C 0.66683 0.15526 -0.31297
 C394 C 0.64086 0.11793 -0.29156
 N395 N 0.62361 0.11833 -0.20437
 H396 H 0.63412 0.09316 -0.33690
 N397 N 1.15233 0.50679 -0.16947
 N398 N 1.17514 0.50321 -0.23465
 C399 C 1.15433 0.48425 -0.31721
 C400 C 1.11764 0.47668 -0.30006
 N401 N 1.11769 0.49085 -0.20712
 H402 H 1.09330 0.46250 -0.34992
 N403 N 0.49408 0.64640 -0.16565
 N404 N 0.49749 0.67287 -0.23020
 C405 C 0.51568 0.67071 -0.31403
 C406 C 0.52304 0.64140 -0.29827
 N407 N 0.50944 0.62740 -0.20496
 H408 H 0.53660 0.63097 -0.34942
 N409 N 0.35681 -0.15249 -0.17174
 N410 N 0.32965 -0.17539 -0.23504
 C411 C 0.33089 -0.15474 -0.31721
 C412 C 0.36035 -0.11810 -0.30179
 N413 N 0.37545 -0.11803 -0.21048
 H414 H 0.37004 -0.09382 -0.35156
 N415 N 0.47992 -0.15445 0.17900
 N416 N 0.48363 -0.17763 0.24248
 C417 C 0.50925 -0.15592 0.31375
 C418 C 0.52078 -0.11854 0.29248
 N419 N 0.50191 -0.11894 0.20788
 H420 H 0.53987 -0.09370 0.33616
 N421 N 0.36276 0.51761 0.17340
 N422 N 0.33689 0.51477 0.23943
 C423 C 0.33393 0.48996 0.31207
 C424 C 0.35925 0.47793 0.28875
 N425 N 0.37642 0.49566 0.20150
 H426 H 0.36559 0.45933 0.33274
 N427 N 1.15485 0.63699 0.17349
 N428 N 1.17798 0.66288 0.23931
 C429 C 1.15625 0.66595 0.31216
 C430 C 1.11884 0.64063 0.28917
 N431 N 1.11927 0.62338 0.20192
 H432 H 1.09396 0.63433 0.33342
 N433 N 0.51553 0.15463 0.17422
 N434 N 0.51278 0.17801 0.23906
 C435 C 0.48788 0.15656 0.31200
 C436 C 0.47575 0.11907 0.29017
 N437 N 0.49351 0.11917 0.20346
 H438 H 0.45713 0.09437 0.33493
 N439 N 0.63624 0.48205 0.17915
 N440 N 0.66306 0.48545 0.24248
 C441 C 0.66728 0.51111 0.31394
 C442 C 0.64162 0.52297 0.29290
 N443 N 0.62300 0.50426 0.20822
 H444 H 0.63609 0.54219 0.33670
 N445 N 0.84576 0.36306 0.17882
 N446 N 0.82263 0.33609 0.24214
 C447 C 0.84438 0.33223 0.31340
 C448 C 0.88175 0.35824 0.29230
 N449 N 0.88130 0.37672 0.20780
 H450 H 0.90663 0.36405 0.33593
   
