data_POSCAR
  _audit_creation_date              2014-09-24
  _audit_creation_method            'ToBaCCo'
  _symmetry_space_group_name_H-M    'P1'
  _symmetry_Int_Tables_number       1
  _symmetry_cell_setting            triclinic
  loop_
  _symmetry_equiv_pos_as_xyz
 x,y,z
_cell_length_a 28.2206
_cell_length_b 28.1242
_cell_length_c 33.3766
_cell_angle_alpha 90.000100
_cell_angle_beta 89.999900
_cell_angle_gamma 89.999600
loop_
  _atom_site_label
  _atom_site_type_symbol
  _atom_site_fract_x
  _atom_site_fract_y
  _atom_site_fract_z
Si1 Si 1.24998 0.25003 0.25010
 Si2 Si 0.74998 -0.24997 0.25009
 Si3 Si 0.74998 0.25002 -0.24991
 Si4 Si 1.24998 -0.24998 -0.24991
 Si5 Si 0.24998 0.25003 0.75010
 Si6 Si 0.74998 0.75003 0.75010
 Si7 Si 0.74998 0.25002 0.25010
 Si8 Si 0.24998 0.75003 0.25010
 O9 O 1.09082 0.05417 0.02845
 O10 O 0.91048 -0.05554 0.02804
 O11 O 0.94577 0.08998 0.02764
 O12 O 1.05544 -0.09150 0.02890
 O13 O 0.91944 0.02445 0.05000
 O14 O 1.08174 -0.02582 0.05100
 O15 O 0.97572 -0.08177 0.05068
 O16 O 1.02531 0.08106 0.05010
 C17 C 1.06814 0.07526 0.05506
 C18 C 0.93281 -0.07612 0.05514
 C19 C 0.92483 0.06755 0.05452
 C20 C 1.07648 -0.06895 0.05568
 O21 O 1.09109 -0.05606 -0.02639
 O22 O 0.91061 0.05411 -0.02762
 O23 O 1.05571 0.08959 -0.02718
 O24 O 0.94610 -0.09148 -0.02691
 O25 O 0.92012 -0.02589 -0.04946
 O26 O 1.08246 0.02386 -0.04887
 O27 O 1.02579 -0.08249 -0.04875
 O28 O 0.97607 0.08039 -0.04975
 Co29 Co 1.07820 -0.00095 0.00102
 Co30 Co 0.92351 -0.00074 0.00028
 Co31 Co 1.00072 0.07686 0.00022
 Co32 Co 1.00076 -0.07840 0.00095
 O33 O 1.00081 -0.00080 0.00062
 C34 C 1.06868 -0.07683 -0.05334
 C35 C 0.93313 0.07502 -0.05445
 C36 C 1.07681 0.06689 -0.05380
 C37 C 0.92545 -0.06900 -0.05392
 O38 O 1.09109 0.55611 0.52658
 O39 O 0.91061 0.44594 0.52781
 O40 O 0.94609 0.59153 0.52710
 O41 O 1.05571 0.41046 0.52737
 O42 O 0.92011 0.52594 0.54965
 O43 O 1.08246 0.47619 0.54906
 O44 O 0.97607 0.41967 0.54995
 O45 O 1.02579 0.58255 0.54894
 C46 C 1.06868 0.57688 0.55353
 C47 C 0.93312 0.42503 0.55464
 C48 C 0.92545 0.56905 0.55411
 C49 C 1.07681 0.43317 0.55398
 O50 O 1.09082 0.44589 0.47174
 O51 O 0.91047 0.55560 0.47215
 O52 O 1.05544 0.59156 0.47129
 O53 O 0.94577 0.41008 0.47255
 O54 O 0.91943 0.47561 0.45019
 O55 O 1.08173 0.52587 0.44919
 O56 O 1.02531 0.41899 0.45009
 O57 O 0.97571 0.58183 0.44951
 Co58 Co 1.07820 0.50100 0.49917
 Co59 Co 0.92351 0.50079 0.49991
 Co60 Co 1.00075 0.57845 0.49924
 Co61 Co 1.00072 0.42319 0.49996
 O62 O 1.00081 0.50085 0.49957
 C63 C 1.06814 0.42479 0.44513
 C64 C 0.93280 0.57618 0.44505
 C65 C 1.07647 0.56901 0.44451
 C66 C 0.92483 0.43250 0.44567
 O67 O 0.58935 0.05410 0.52781
 O68 O 0.40887 -0.05606 0.52658
 O69 O 0.44425 0.08959 0.52737
 O70 O 0.55387 -0.09149 0.52710
 O71 O 0.41750 0.02386 0.54906
 O72 O 0.57985 -0.02590 0.54965
 O73 O 0.47418 -0.08250 0.54894
 O74 O 0.52389 0.08038 0.54995
 C75 C 0.56684 0.07501 0.55464
 C76 C 0.43128 -0.07683 0.55353
 C77 C 0.42315 0.06688 0.55399
 C78 C 0.57451 -0.06901 0.55411
 O79 O 0.58949 -0.05555 0.47215
 O80 O 0.40914 0.05416 0.47174
 O81 O 0.55419 0.08997 0.47255
 O82 O 0.44452 -0.09151 0.47129
 O83 O 0.41823 -0.02583 0.44919
 O84 O 0.58053 0.02444 0.45019
 O85 O 0.52425 -0.08178 0.44951
 O86 O 0.47466 0.08106 0.45009
 Co87 Co 0.57645 -0.00074 0.49991
 Co88 Co 0.42176 -0.00096 0.49917
 Co89 Co 0.49925 0.07686 0.49997
 Co90 Co 0.49921 -0.07841 0.49924
 O91 O 0.49915 -0.00080 0.49957
 C92 C 0.56716 -0.07613 0.44505
 C93 C 0.43182 0.07526 0.44513
 C94 C 0.57513 0.06754 0.44568
 C95 C 0.42349 -0.06896 0.44451
 O96 O 0.58949 0.55560 0.02804
 O97 O 0.40915 0.44589 0.02846
 O98 O 0.44452 0.59156 0.02890
 O99 O 0.55419 0.41008 0.02764
 O100 O 0.41823 0.52587 0.05100
 O101 O 0.58053 0.47561 0.05001
 O102 O 0.47466 0.41899 0.05010
 O103 O 0.52425 0.58183 0.05068
 C104 C 0.56716 0.57618 0.05514
 C105 C 0.43183 0.42479 0.05506
 C106 C 0.42349 0.56901 0.05568
 C107 C 0.57514 0.43250 0.05452
 O108 O 0.58936 0.44594 -0.02762
 O109 O 0.40888 0.55611 -0.02639
 O110 O 0.55387 0.59153 -0.02690
 O111 O 0.44425 0.41046 -0.02718
 O112 O 0.41750 0.47619 -0.04887
 O113 O 0.57985 0.52594 -0.04946
 O114 O 0.52389 0.41967 -0.04975
 O115 O 0.47418 0.58255 -0.04875
 Co116 Co 0.57645 0.50079 0.00028
 Co117 Co 0.42177 0.50101 0.00102
 Co118 Co 0.49921 0.57845 0.00095
 Co119 Co 0.49925 0.42319 0.00023
 O120 O 0.49916 0.50085 0.00062
 C121 C 0.56684 0.42503 -0.05445
 C122 C 0.43128 0.57688 -0.05334
 C123 C 0.57451 0.56906 -0.05392
 C124 C 0.42315 0.43317 -0.05379
 C125 C 1.21312 0.21328 0.21831
 C126 C 1.18919 0.18989 0.19591
 C127 C 1.16182 0.16352 0.16848
 C128 C 1.13911 0.14189 0.14400
 C129 C 1.11339 0.11764 0.11414
 C130 C 1.09224 0.09781 0.08766
 C131 C 1.21318 0.71331 0.71818
 C132 C 1.18941 0.69005 0.69555
 C133 C 1.16229 0.66392 0.66776
 C134 C 1.13976 0.64254 0.64299
 C135 C 1.11418 0.61862 0.61284
 C136 C 1.09302 0.59909 0.58619
 C137 C 0.71298 0.21325 0.71806
 C138 C 0.68899 0.18997 0.69548
 C139 C 0.66148 0.16371 0.66788
 C140 C 0.63860 0.14212 0.64336
 C141 C 0.61260 0.11778 0.61354
 C142 C 0.59121 0.09781 0.58716
 C143 C 0.71312 0.71328 0.21831
 C144 C 0.68917 0.68991 0.19591
 C145 C 0.66174 0.66361 0.16848
 C146 C 0.63893 0.64208 0.14400
 C147 C 0.61302 0.61800 0.11416
 C148 C 0.59164 0.59839 0.08770
 C149 C 0.78685 -0.21322 0.21831
 C150 C 0.81080 -0.18986 0.19591
 C151 C 0.83823 -0.16356 0.16848
 C152 C 0.86104 -0.14203 0.14400
 C153 C 0.88695 -0.11795 0.11416
 C154 C 0.90833 -0.09833 0.08770
 C155 C 0.78698 0.28680 0.71805
 C156 C 0.81097 0.31008 0.69548
 C157 C 0.83848 0.33634 0.66788
 C158 C 0.86136 0.35793 0.64336
 C159 C 0.88736 0.38227 0.61354
 C160 C 0.90876 0.40224 0.58716
 C161 C 0.28678 -0.21327 0.71818
 C162 C 0.31055 -0.19001 0.69555
 C163 C 0.33767 -0.16388 0.66776
 C164 C 0.36020 -0.14250 0.64299
 C165 C 0.38578 -0.11858 0.61284
 C166 C 0.40694 -0.09904 0.58620
 C167 C 0.28685 0.28677 0.21831
 C168 C 0.31078 0.31016 0.19591
 C169 C 0.33814 0.33653 0.16848
 C170 C 0.36086 0.35816 0.14400
 C171 C 0.38657 0.38241 0.11415
 C172 C 0.40772 0.40224 0.08766
 C173 C 0.78698 0.21325 -0.21787
 C174 C 0.81097 0.18997 -0.19529
 C175 C 0.83848 0.16371 -0.16769
 C176 C 0.86136 0.14213 -0.14317
 C177 C 0.88736 0.11779 -0.11335
 C178 C 0.90876 0.09782 -0.08697
 C179 C 0.78685 0.71328 0.28188
 C180 C 0.81080 0.68991 0.30428
 C181 C 0.83822 0.66361 0.33171
 C182 C 0.86104 0.64208 0.35619
 C183 C 0.88694 0.61800 0.38603
 C184 C 0.90832 0.59839 0.41249
 C185 C 0.28685 0.21328 0.28188
 C186 C 0.31078 0.18989 0.30428
 C187 C 0.33814 0.16352 0.33171
 C188 C 0.36085 0.14189 0.35619
 C189 C 0.38657 0.11764 0.38605
 C190 C 0.40772 0.09781 0.41253
 C191 C 0.28678 0.71331 -0.21799
 C192 C 0.31055 0.69005 -0.19536
 C193 C 0.33767 0.66392 -0.16757
 C194 C 0.36020 0.64255 -0.14280
 C195 C 0.38578 0.61862 -0.11265
 C196 C 0.40694 0.59909 -0.08600
 C197 C 1.21318 -0.21326 -0.21799
 C198 C 1.18942 -0.19001 -0.19536
 C199 C 1.16229 -0.16387 -0.16757
 C200 C 1.13977 -0.14249 -0.14280
 C201 C 1.11419 -0.11857 -0.11265
 C202 C 1.09302 -0.09904 -0.08601
 C203 C 1.21312 0.28677 0.28188
 C204 C 1.18919 0.31016 0.30428
 C205 C 1.16182 0.33653 0.33171
 C206 C 1.13911 0.35816 0.35619
 C207 C 1.11339 0.38241 0.38605
 C208 C 1.09224 0.40224 0.41253
 C209 C 0.71312 -0.21322 0.28188
 C210 C 0.68917 -0.18986 0.30428
 C211 C 0.66174 -0.16356 0.33171
 C212 C 0.63893 -0.14203 0.35619
 C213 C 0.61302 -0.11795 0.38603
 C214 C 0.59164 -0.09834 0.41249
 C215 C 0.71298 0.28680 -0.21787
 C216 C 0.68899 0.31008 -0.19530
 C217 C 0.66148 0.33634 -0.16769
 C218 C 0.63860 0.35793 -0.14317
 C219 C 0.61260 0.38227 -0.11335
 C220 C 0.59121 0.40224 -0.08697
 C221 C 1.21341 0.21295 -0.21791
 C222 C 1.19032 0.18889 -0.19530
 C223 C 1.16434 0.16135 -0.16759
 C224 C 1.14303 0.13847 -0.14294
 C225 C 1.11905 0.11252 -0.11295
 C226 C 1.09936 0.09118 -0.08642
 C227 C 1.21519 0.71490 0.28052
 C228 C 1.19189 0.69096 0.30320
 C229 C 1.16559 0.66358 0.33101
 C230 C 1.14396 0.64083 0.35567
 C231 C 1.11951 0.61492 0.38562
 C232 C 1.09943 0.59352 0.41202
 C233 C 0.71331 0.21304 0.28209
 C234 C 0.69001 0.18918 0.30470
 C235 C 0.66370 0.16191 0.33238
 C236 C 0.64209 0.13924 0.35698
 C237 C 0.61776 0.11344 0.38687
 C238 C 0.59783 0.09209 0.41326
 C239 C 0.71324 0.71315 -0.21791
 C240 C 0.68980 0.68948 -0.19528
 C241 C 0.66328 0.66253 -0.16755
 C242 C 0.64150 0.64015 -0.14289
 C243 C 0.61704 0.61467 -0.11290
 C244 C 0.59709 0.59351 -0.08642
 C245 C 0.78672 -0.21310 -0.21792
 C246 C 0.81017 -0.18943 -0.19528
 C247 C 0.83668 -0.16247 -0.16755
 C248 C 0.85847 -0.14009 -0.14289
 C249 C 0.88293 -0.11461 -0.11290
 C250 C 0.90288 -0.09346 -0.08642
 C251 C 0.78665 0.28701 0.28210
 C252 C 0.80995 0.31087 0.30470
 C253 C 0.83626 0.33814 0.33238
 C254 C 0.85787 0.36081 0.35698
 C255 C 0.88220 0.38661 0.38687
 C256 C 0.90213 0.40796 0.41326
 C257 C 0.28476 -0.21485 0.28052
 C258 C 0.30806 -0.19090 0.30320
 C259 C 0.33436 -0.16352 0.33101
 C260 C 0.35600 -0.14078 0.35568
 C261 C 0.38045 -0.11486 0.38562
 C262 C 0.40053 -0.09347 0.41202
 C263 C 0.28656 0.28711 -0.21791
 C264 C 0.30965 0.31116 -0.19530
 C265 C 0.33562 0.33871 -0.16759
 C266 C 0.35693 0.36159 -0.14294
 C267 C 0.38092 0.38754 -0.11294
 C268 C 0.40061 0.40887 -0.08642
 C269 C 1.21519 -0.21485 0.21967
 C270 C 1.19189 -0.19090 0.19699
 C271 C 1.16560 -0.16352 0.16918
 C272 C 1.14396 -0.14077 0.14451
 C273 C 1.11952 -0.11486 0.11457
 C274 C 1.09944 -0.09347 0.08817
 C275 C 1.21341 0.28711 0.71810
 C276 C 1.19032 0.31116 0.69549
 C277 C 1.16434 0.33871 0.66778
 C278 C 1.14303 0.36159 0.64313
 C279 C 1.11905 0.38754 0.61313
 C280 C 1.09935 0.40887 0.58661
 C281 C 0.71324 -0.21310 0.71811
 C282 C 0.68980 -0.18943 0.69548
 C283 C 0.66328 -0.16248 0.66775
 C284 C 0.64150 -0.14010 0.64308
 C285 C 0.61704 -0.11462 0.61309
 C286 C 0.59709 -0.09346 0.58661
 C287 C 0.71331 0.28701 0.21810
 C288 C 0.69001 0.31087 0.19549
 C289 C 0.66370 0.33814 0.16781
 C290 C 0.64209 0.36081 0.14321
 C291 C 0.61776 0.38661 0.11332
 C292 C 0.59783 0.40796 0.08693
 C293 C 0.78666 0.21304 0.21810
 C294 C 0.80995 0.18918 0.19549
 C295 C 0.83626 0.16191 0.16781
 C296 C 0.85788 0.13924 0.14321
 C297 C 0.88220 0.11345 0.11332
 C298 C 0.90213 0.09210 0.08693
 C299 C 0.78672 0.71315 0.71811
 C300 C 0.81017 0.68948 0.69548
 C301 C 0.83668 0.66253 0.66775
 C302 C 0.85847 0.64015 0.64308
 C303 C 0.88292 0.61467 0.61310
 C304 C 0.90287 0.59351 0.58661
 C305 C 0.28656 0.21294 0.71810
 C306 C 0.30965 0.18889 0.69549
 C307 C 0.33562 0.16135 0.66778
 C308 C 0.35693 0.13847 0.64313
 C309 C 0.38092 0.11251 0.61314
 C310 C 0.40061 0.09118 0.58661
 C311 C 0.28476 0.71490 0.21967
 C312 C 0.30807 0.69095 0.19699
 C313 C 0.33437 0.66357 0.16918
 C314 C 0.35600 0.64083 0.14452
 C315 C 0.38045 0.61491 0.11457
 C316 C 0.40053 0.59352 0.08817
   
