data_POSCAR
  _audit_creation_date              2014-09-24
  _audit_creation_method            'ToBaCCo'
  _symmetry_space_group_name_H-M    'P1'
  _symmetry_Int_Tables_number       1
  _symmetry_cell_setting            triclinic
  loop_
  _symmetry_equiv_pos_as_xyz
 x,y,z
_cell_length_a 30.4077
_cell_length_b 30.4233
_cell_length_c 30.4727
_cell_angle_alpha 102.239600
_cell_angle_beta 82.469200
_cell_angle_gamma 102.111000
loop_
  _atom_site_label
  _atom_site_type_symbol
  _atom_site_fract_x
  _atom_site_fract_y
  _atom_site_fract_z
O1 O 0.54552 0.52928 0.05242
 O2 O 0.42344 0.51003 0.03887
 O3 O 0.47889 0.45895 0.05206
 O4 O 0.48856 0.57931 0.04268
 O5 O 0.50243 0.56039 -0.03112
 O6 O 0.49497 0.44055 -0.02143
 O7 O 0.43814 0.48887 -0.03445
 O8 O 0.55954 0.51098 -0.02135
 Cu9 Cu 0.48272 0.52099 0.05398
 Cu10 Cu 0.50015 0.49828 -0.03441
 C11 C 0.57342 0.52339 0.01769
 C12 C 0.40998 0.49690 -0.00045
 C13 C 0.48598 0.42927 0.01704
 C14 C 0.49625 0.59025 0.00408
 O15 O -0.05118 0.53249 0.49724
 O16 O -0.03543 0.41396 0.48942
 O17 O -0.04178 0.48274 0.55539
 O18 O -0.04865 0.46201 0.43329
 O19 O 0.02465 0.48772 0.42294
 O20 O 0.03220 0.50414 0.54542
 O21 O 0.03811 0.43693 0.47700
 O22 O 0.02262 0.55590 0.49070
 Cu23 Cu -0.05165 0.47068 0.49514
 Cu24 Cu 0.03679 0.49845 0.48309
 C25 C -0.01697 0.56454 0.49499
 C26 C 0.00422 0.40515 0.48121
 C27 C -0.00366 0.49604 0.57131
 C28 C -0.01346 0.47186 0.40721
 O29 O 0.50749 0.03933 0.57877
 O30 O 0.52312 0.05204 0.45944
 O31 O 0.45543 0.04954 0.52105
 O32 O 0.57466 0.03915 0.51631
 O33 O 0.55567 -0.03511 0.49073
 O34 O 0.43598 -0.02583 0.50512
 O35 O 0.49987 -0.02239 0.43893
 O36 O 0.49412 -0.03568 0.55674
 Cu37 Cu 0.51704 0.05259 0.52102
 Cu38 Cu 0.49424 -0.03722 0.49568
 C39 C 0.49990 -0.00057 0.58807
 C40 C 0.51320 0.01701 0.42882
 C41 C 0.42537 0.01348 0.51431
 C42 C 0.58550 0.00005 0.50249
 C43 C 0.49611 -0.08166 -0.08384
 C44 C 0.50653 -0.03701 -0.09276
 C45 C 0.51352 0.00004 -0.05623
 C46 C 0.50764 -0.00696 -0.01123
 C47 C 0.49828 -0.05239 -0.00391
 C48 C 0.49441 -0.08976 -0.04006
 C49 C 0.51063 0.03281 0.02786
 C50 C 0.52026 0.02838 0.07057
 C51 C 0.51823 0.06387 0.10837
 C52 C 0.51148 0.10639 0.10223
 C53 C 0.50438 0.11270 0.05949
 C54 C 0.50195 0.07520 0.02329
 H55 H 0.48909 -0.11069 -0.11106
 H56 H 0.52427 0.03425 -0.06309
 H57 H 0.49435 -0.05922 0.02984
 H58 H 0.52926 -0.00278 0.07506
 H59 H 0.51140 0.13446 0.13074
 H60 H 0.49233 0.07929 -0.00830
 C61 C -0.09501 0.50267 1.08589
 C62 C -0.10138 0.51742 1.04701
 C63 C -0.06594 0.52004 1.01242
 C64 C -0.02535 0.50528 1.01495
 C65 C -0.02091 0.48903 1.05392
 C66 C -0.05464 0.48927 1.08997
 C67 C 0.01201 0.50640 0.97728
 C68 C 0.05696 0.50696 0.98517
 C69 C 0.09166 0.50552 0.94984
 C70 C 0.08172 0.50660 0.90645
 C71 C 0.03774 0.50706 0.89759
 C72 C 0.00304 0.50596 0.93289
 H73 H -0.12163 0.50152 1.11318
 H74 H -0.07032 0.53424 0.98402
 H75 H 0.00841 0.47535 1.05667
 H76 H 0.06527 0.50777 1.01868
 H77 H 0.10834 0.50645 0.87913
 H78 H -0.03094 0.50463 0.92526
 C79 C -0.09241 -0.10317 0.49945
 C80 C -0.04912 -0.11420 0.48947
 C81 C -0.01189 -0.07895 0.48307
 C82 C -0.01727 -0.03294 0.48894
 C83 C -0.06135 -0.02348 0.49892
 C84 C -0.09903 -0.05847 0.50229
 C85 C 0.02251 0.00549 0.48579
 C86 C 0.01685 0.04715 0.47588
 C87 C 0.05187 0.08555 0.47916
 C88 C 0.09418 0.08131 0.48931
 C89 C 0.10237 0.03921 0.49504
 C90 C 0.06596 0.00186 0.49453
 H91 H -0.12143 -0.12931 0.50552
 H92 H 0.02103 -0.08771 0.47276
 H93 H -0.06696 0.01114 0.50370
 H94 H -0.01481 0.05023 0.46545
 H95 H 0.12074 0.11134 0.49355
 H96 H 0.07167 -0.02987 0.50110
 C97 C -0.28486 0.53606 1.03224
 C98 C -0.30221 0.51790 0.98989
 C99 C -0.34803 0.51546 0.98522
 C100 C -0.37763 0.52968 1.02248
 C101 C -0.36037 0.54789 1.06439
 C102 C -0.31460 0.55127 1.06925
 C103 C -0.23608 0.53621 1.03610
 C104 C -0.21521 0.55408 1.07644
 C105 C -0.17084 0.54992 1.07928
 C106 C -0.14598 0.52788 1.04207
 C107 C -0.16558 0.51242 1.00100
 C108 C -0.21019 0.51645 0.99775
 C109 C -0.27417 0.50087 0.95272
 C110 C -0.22930 0.49974 0.95667
 H111 H -0.28744 0.48705 0.92026
 H112 H -0.20938 0.48505 0.92717
 H113 H -0.36093 0.50099 0.95267
 H114 H -0.38240 0.55913 1.09369
 H115 H -0.15617 0.56336 1.11106
 H116 H -0.14687 0.49525 0.97199
 H117 H -0.30349 0.56496 1.10244
 H118 H -0.23272 0.57080 1.10635
 C119 C 0.27386 0.49119 0.97741
 C120 C 0.28944 0.51086 1.02028
 C121 C 0.33381 0.51021 1.02828
 C122 C 0.36419 0.49279 0.99318
 C123 C 0.34855 0.47397 0.95050
 C124 C 0.30407 0.47276 0.94281
 C125 C 0.22649 0.49286 0.97009
 C126 C 0.20659 0.47064 0.93011
 C127 C 0.16297 0.47449 0.92415
 C128 C 0.13795 0.50112 0.95752
 C129 C 0.15713 0.52231 0.99814
 C130 C 0.20066 0.51758 1.00493
 C131 C 0.26132 0.53285 1.05426
 C132 C 0.21829 0.53703 1.04643
 H133 H 0.27326 0.54829 1.08704
 H134 H 0.19836 0.55543 1.07345
 H135 H 0.34529 0.52565 1.06128
 H136 H 0.37084 0.46031 0.92256
 H137 H 0.14865 0.45596 0.89328
 H138 H 0.13851 0.54294 1.02444
 H139 H 0.29450 0.45851 0.90912
 H140 H 0.22384 0.44954 0.90325
 C141 C -0.03367 -0.30131 0.49164
 C142 C 0.00859 -0.30906 0.49949
 C143 C 0.01408 -0.35363 0.50020
 C144 C -0.02283 -0.39057 0.49605
 C145 C -0.06553 -0.38179 0.49181
 C146 C -0.07081 -0.33797 0.48906
 C147 C -0.03742 -0.25391 0.48809
 C148 C -0.07547 -0.24421 0.47305
 C149 C -0.07812 -0.19932 0.47168
 C150 C -0.04345 -0.16250 0.48632
 C151 C -0.00429 -0.17233 0.49920
 C152 C -0.00062 -0.21773 0.49896
 C153 C 0.04472 -0.27213 0.50763
 C154 C 0.03975 -0.22726 0.50882
 H155 H 0.07699 -0.27784 0.51436
 H156 H 0.06831 -0.19975 0.51651
 H157 H 0.04707 -0.35924 0.50494
 H158 H -0.09489 -0.40912 0.48916
 H159 H -0.10772 -0.19364 0.45910
 H160 H 0.02317 -0.14475 0.51017
 H161 H -0.10429 -0.33331 0.48549
 H162 H -0.10322 -0.27096 0.46158
 C163 C 0.02593 0.26758 0.47092
 C164 C -0.01593 0.27968 0.48998
 C165 C -0.02321 0.32425 0.49222
 C166 C 0.01116 0.35765 0.47690
 C167 C 0.05271 0.34567 0.45841
 C168 C 0.06003 0.30128 0.45523
 C169 C 0.03259 0.21985 0.46978
 C170 C 0.07230 0.20390 0.45012
 C171 C 0.07785 0.15999 0.45207
 C172 C 0.04407 0.13071 0.47368
 C173 C 0.00362 0.14564 0.49178
 C174 C -0.00243 0.18968 0.48977
 C175 C -0.04986 0.24762 0.50769
 C176 C -0.04306 0.20378 0.50806
 H177 H -0.08189 0.25686 0.52236
 H178 H -0.07005 0.18057 0.52301
 H179 H -0.05531 0.33325 0.50704
 H180 H 0.07982 0.37077 0.44633
 H181 H 0.10891 0.14898 0.43674
 H182 H -0.02274 0.12350 0.50874
 H183 H 0.09283 0.29437 0.44106
 H184 H 0.09959 0.22477 0.43321
 C185 C 0.50425 -0.01762 -0.27826
 C186 C 0.49887 0.02495 -0.28626
 C187 C 0.49811 0.03090 -0.33070
 C188 C 0.49921 -0.00620 -0.36722
 C189 C 0.50065 -0.04936 -0.35825
 C190 C 0.50377 -0.05488 -0.31459
 C191 C 0.50816 -0.02187 -0.23101
 C192 C 0.52192 -0.05957 -0.22086
 C193 C 0.52335 -0.06309 -0.17625
 C194 C 0.50984 -0.02982 -0.14027
 C195 C 0.49859 0.00936 -0.15040
 C196 C 0.49909 0.01412 -0.19543
 C197 C 0.49295 0.06064 -0.24973
 C198 C 0.49138 0.05474 -0.20522
 H199 H 0.48802 0.09312 -0.25558
 H200 H 0.48522 0.08282 -0.17811
 H201 H 0.49544 0.06412 -0.33660
 H202 H 0.50086 -0.07894 -0.38525
 H203 H 0.53504 -0.09231 -0.17017
 H204 H 0.48876 0.03596 -0.12349
 H205 H 0.50507 -0.08872 -0.30980
 H206 H 0.53242 -0.08631 -0.24699
 C207 C 0.51861 0.03129 0.29010
 C208 C 0.53754 0.06860 0.32270
 C209 C 0.53599 0.06379 0.36784
 C210 C 0.51631 0.02195 0.38106
 C211 C 0.49879 -0.01526 0.34833
 C212 C 0.49983 -0.01076 0.30357
 C213 C 0.51927 0.03832 0.24270
 C214 C 0.49884 0.00424 0.20861
 C215 C 0.49923 0.01270 0.16534
 C216 C 0.52035 0.05519 0.15438
 C217 C 0.54114 0.08935 0.18810
 C218 C 0.54030 0.08140 0.23211
 C219 C 0.55783 0.11042 0.31006
 C220 C 0.55956 0.11654 0.26570
 H221 H 0.57265 0.13893 0.33488
 H222 H 0.57562 0.14959 0.25773
 H223 H 0.55010 0.09270 0.39268
 H224 H 0.48360 -0.04802 0.35741
 H225 H 0.48180 -0.01399 0.14062
 H226 H 0.55784 0.12226 0.18025
 H227 H 0.48570 -0.04067 0.28018
 H228 H 0.48154 -0.02893 0.21475
 C229 C 0.49279 -0.27264 -0.00978
 C230 C 0.51515 -0.30156 -0.04415
 C231 C 0.51635 -0.34614 -0.03934
 C232 C 0.49670 -0.36217 -0.00007
 C233 C 0.47610 -0.33290 0.03469
 C234 C 0.47396 -0.28878 0.02992
 C235 C 0.49093 -0.22584 -0.01698
 C236 C 0.46665 -0.19568 0.01340
 C237 C 0.46680 -0.15203 0.00551
 C238 C 0.49134 -0.13720 -0.03270
 C239 C 0.51482 -0.16748 -0.06354
 C240 C 0.51425 -0.21160 -0.05637
 C241 C 0.53656 -0.28573 -0.08291
 C242 C 0.53674 -0.24145 -0.08855
 H243 H 0.55396 -0.30772 -0.10907
 H244 H 0.55434 -0.23059 -0.11887
 H245 H 0.53292 -0.36831 -0.06613
 H246 H 0.46075 -0.34445 0.06540
 H247 H 0.44749 -0.12994 0.02938
 H248 H 0.53441 -0.15646 -0.09297
 H249 H 0.45762 -0.26788 0.05772
 H250 H 0.44708 -0.20520 0.04325
 C251 C 0.49020 0.29177 0.02946
 C252 C 0.47073 0.32125 0.06565
 C253 C 0.46883 0.36591 0.06136
 C254 C 0.48527 0.38147 0.02099
 C255 C 0.50269 0.35141 -0.01542
 C256 C 0.50520 0.30725 -0.01134
 C257 C 0.49392 0.24533 0.03617
 C258 C 0.51630 0.21524 0.00369
 C259 C 0.51948 0.17262 0.01162
 C260 C 0.50012 0.15836 0.05191
 C261 C 0.47794 0.18828 0.08469
 C262 C 0.47530 0.23174 0.07738
 C263 C 0.45331 0.30595 0.10583
 C264 C 0.45496 0.26194 0.11131
 H265 H 0.43799 0.32830 0.13343
 H266 H 0.44083 0.25171 0.14297
 H267 H 0.45467 0.38861 0.08953
 H268 H 0.51534 0.36234 -0.04706
 H269 H 0.53796 0.15100 -0.01378
 H270 H 0.46264 0.17781 0.11593
 H271 H 0.51906 0.28591 -0.04053
 H272 H 0.53236 0.22418 -0.02774
 C273 C -0.27844 -0.01886 0.50480
 C274 C -0.30969 -0.05292 0.47966
 C275 C -0.35363 -0.04603 0.47843
 C276 C -0.36711 -0.00524 0.50134
 C277 C -0.33568 0.02923 0.52484
 C278 C -0.29191 0.02256 0.52669
 C279 C -0.23232 -0.02842 0.50654
 C280 C -0.19952 0.00183 0.53267
 C281 C -0.15674 -0.00837 0.53233
 C282 C -0.14549 -0.04890 0.50589
 C283 C -0.17834 -0.07966 0.48062
 C284 C -0.22149 -0.07001 0.48106
 C285 C -0.29701 -0.09368 0.45583
 C286 C -0.25369 -0.10180 0.45608
 H287 H -0.32088 -0.11961 0.43638
 H288 H -0.24540 -0.13371 0.43672
 H289 H -0.37748 -0.07270 0.45968
 H290 H -0.34523 0.06108 0.54274
 H291 H -0.13240 0.01559 0.55286
 H292 H -0.17001 -0.11086 0.45962
 H293 H -0.26927 0.05014 0.54547
 H294 H -0.20621 0.03345 0.55366
 C295 C 0.28642 0.02250 0.51316
 C296 C 0.32162 0.05354 0.49445
 C297 C 0.36686 0.05160 0.49700
 C298 C 0.37779 0.01737 0.51556
 C299 C 0.34309 -0.01446 0.53262
 C300 C 0.29787 -0.01166 0.53202
 C301 C 0.23854 0.02630 0.51027
 C302 C 0.20109 0.00066 0.53186
 C303 C 0.15708 0.00515 0.52752
 C304 C 0.14915 0.03473 0.50092
 C305 C 0.18655 0.06053 0.47961
 C306 C 0.23077 0.05759 0.48516
 C307 C 0.31156 0.08517 0.47177
 C308 C 0.26713 0.08636 0.46624
 H309 H 0.33850 0.10857 0.45700
 H310 H 0.26112 0.11075 0.44748
 H311 H 0.39368 0.07546 0.48263
 H312 H 0.35102 -0.04148 0.54660
 H313 H 0.12934 -0.01426 0.54560
 H314 H 0.18147 0.08303 0.45829
 H315 H 0.27244 -0.03713 0.54537
 H316 H 0.20514 -0.02238 0.55288
 C317 C -0.02967 0.46234 1.26710
 C318 C 0.01190 0.48437 1.28476
 C319 C 0.01782 0.48559 1.32999
 C320 C -0.01757 0.46602 1.35841
 C321 C -0.05824 0.44312 1.34048
 C322 C -0.06422 0.44106 1.29547
 C323 C -0.03580 0.46461 1.21967
 C324 C -0.07626 0.44485 1.19939
 C325 C -0.08173 0.45142 1.15663
 C326 C -0.04699 0.47755 1.13285
 C327 C -0.00572 0.49533 1.15173
 C328 C 0.00004 0.48926 1.19486
 C329 C 0.04673 0.50645 1.25769
 C330 C 0.04087 0.50899 1.21376
 H331 H 0.07867 0.52307 1.27106
 H332 H 0.06846 0.52749 1.19458
 H333 H 0.04939 0.50343 1.34350
 H334 H -0.08600 0.42736 1.36155
 H335 H -0.11354 0.43653 1.14236
 H336 H 0.02128 0.51582 1.13371
 H337 H -0.09653 0.42359 1.28402
 H338 H -0.10444 0.42493 1.21617
 C339 C 0.00588 0.50449 0.71274
 C340 C 0.04143 0.52785 0.68649
 C341 C 0.03797 0.52544 0.64049
 C342 C -0.00098 0.50084 0.62024
 C343 C -0.03697 0.47948 0.64679
 C344 C -0.03364 0.48111 0.69238
 C345 C 0.01208 0.50555 0.76100
 C346 C -0.01940 0.48015 0.78884
 C347 C -0.01129 0.48104 0.83310
 C348 C 0.02818 0.50759 0.85104
 C349 C 0.05938 0.53355 0.82372
 C350 C 0.05208 0.53206 0.77887
 C351 C 0.08023 0.55339 0.70623
 C352 C 0.08514 0.55599 0.75158
 H353 H 0.10724 0.57171 0.68629
 H354 H 0.11583 0.57621 0.76525
 H355 H 0.06570 0.54270 0.62042
 H356 H -0.06753 0.46048 0.63205
 H357 H -0.03555 0.45990 0.85294
 H358 H 0.08977 0.55469 0.83723
 H359 H -0.06231 0.46375 0.71093
 H360 H -0.04999 0.45853 0.77682
   
