data_POSCAR
  _audit_creation_date              2014-09-24
  _audit_creation_method            'ToBaCCo'
  _symmetry_space_group_name_H-M    'P1'
  _symmetry_Int_Tables_number       1
  _symmetry_cell_setting            triclinic
  loop_
  _symmetry_equiv_pos_as_xyz
 x,y,z
_cell_length_a 32.0892
_cell_length_b 32.2287
_cell_length_c 12.3720
_cell_angle_alpha 89.855200
_cell_angle_beta 90.169500
_cell_angle_gamma 120.126300
loop_
  _atom_site_label
  _atom_site_type_symbol
  _atom_site_fract_x
  _atom_site_fract_y
  _atom_site_fract_z
O1 O 0.23821 0.41219 0.58412
 O2 O 0.17052 0.43082 0.36359
 O3 O 0.23857 0.41368 0.38305
 O4 O 0.15933 0.42310 0.58084
 O5 O 0.20836 0.50106 0.59823
 O6 O 0.28554 0.49261 0.38969
 O7 O 0.21497 0.50914 0.38759
 O8 O 0.28438 0.49079 0.59869
 Cu9 Cu 0.19512 0.41221 0.48074
 Cu10 Cu 0.25280 0.50621 0.49583
 C11 C 0.27474 0.44873 0.62419
 C12 C 0.18309 0.47354 0.33532
 C13 C 0.27558 0.45182 0.35240
 C14 C 0.16989 0.46290 0.62320
 O15 O 0.54645 -0.27556 0.38211
 O16 O 0.56664 -0.18522 0.59199
 O17 O 0.55204 -0.27372 0.59748
 O18 O 0.56761 -0.18683 0.38569
 O19 O 0.48919 -0.21382 0.38781
 O20 O 0.47412 -0.29884 0.60147
 O21 O 0.48827 -0.21242 0.59650
 O22 O 0.46833 -0.30201 0.39247
 Cu23 Cu 0.56608 -0.22856 0.48995
 Cu24 Cu 0.47213 -0.25984 0.49524
 C25 C 0.50354 -0.30288 0.34942
 C26 C 0.53075 -0.18269 0.62723
 C27 C 0.51052 -0.30003 0.63723
 C28 C 0.53114 -0.18521 0.35183
 O29 O 1.25432 0.83159 0.39079
 O30 O 1.17650 0.75343 0.61111
 O31 O 1.25481 0.83656 0.59691
 O32 O 1.17092 0.75106 0.39904
 O33 O 1.21248 0.71343 0.39332
 O34 O 1.29479 0.79723 0.60031
 O35 O 1.21561 0.71335 0.60699
 O36 O 1.29480 0.79279 0.39071
 Cu37 Cu 1.20952 0.79644 0.49851
 Cu38 Cu 1.25805 0.74989 0.49800
 C39 C 1.28867 0.82643 0.35586
 C40 C 1.18370 0.72071 0.64807
 C41 C 1.28941 0.83191 0.63146
 C42 C 1.17755 0.71837 0.36137
 O43 O 0.81468 0.56864 0.39336
 O44 O 0.73036 0.56318 0.60054
 O45 O 0.81402 0.56686 0.60199
 O46 O 0.72386 0.54518 0.39071
 O47 O 0.69642 0.46728 0.40187
 O48 O 0.78420 0.48843 0.61422
 O49 O 0.70144 0.48537 0.61852
 O50 O 0.78676 0.49081 0.40917
 Cu51 Cu 0.77319 0.56872 0.49511
 Cu52 Cu 0.73795 0.47575 0.51256
 C53 C 0.81663 0.53157 0.36884
 C54 C 0.70360 0.52411 0.64919
 C55 C 0.81450 0.53083 0.64314
 C56 C 0.69514 0.50231 0.35941
 O57 O 0.44332 0.17856 0.62560
 O58 O 0.43060 0.24958 0.40553
 O59 O 0.43545 0.17000 0.41458
 O60 O 0.43554 0.25388 0.61288
 O61 O 0.51501 0.29732 0.60560
 O62 O 0.51434 0.21490 0.39641
 O63 O 0.50977 0.29417 0.39371
 O64 O 0.52241 0.22135 0.60755
 Cu65 Cu 0.42825 0.20813 0.51435
 Cu66 Cu 0.52333 0.26114 0.49833
 C67 C 0.48538 0.18929 0.65613
 C68 C 0.46794 0.28494 0.36496
 C69 C 0.47457 0.17786 0.37204
 C70 C 0.47494 0.28928 0.64441
 O71 O 0.83261 0.26220 0.62061
 O72 O 0.76442 0.17478 0.40229
 O73 O 0.84423 0.25992 0.41105
 O74 O 0.76083 0.17503 0.60969
 O75 O 0.71546 0.20856 0.59669
 O76 O 0.79703 0.29086 0.38828
 O77 O 0.71850 0.20746 0.38575
 O78 O 0.78754 0.29534 0.59463
 Cu79 Cu 0.80570 0.21523 0.51151
 Cu80 Cu 0.75009 0.25374 0.48874
 C81 C 0.82054 0.29303 0.64556
 C82 C 0.72876 0.17567 0.35937
 C83 C 0.83516 0.28985 0.36642
 C84 C 0.72423 0.17744 0.63773
 O85 O 0.94120 0.39926 0.19406
 O86 O 0.88456 0.40962 0.10364
 C87 C 0.89707 0.38822 0.17434
 O88 O 1.07006 0.61220 0.19184
 O89 O 1.12269 0.60153 0.08653
 C90 C 1.11319 0.62329 0.16245
 O91 O 0.93539 0.53968 0.21148
 O92 O 0.88177 0.47535 0.11028
 C93 C 0.89192 0.50585 0.18762
 O94 O 1.07582 0.46383 0.16511
 O95 O 1.12446 0.53012 0.06258
 C96 C 1.11770 0.49602 0.12838
 Zr97 Zr 1.00639 0.45322 0.12617
 O98 O 1.01585 0.45255 0.29546
 O99 O 1.00504 0.38739 0.10725
 Zr100 Zr 1.00253 0.55605 0.14133
 O101 O 1.01084 0.55715 0.31133
 O102 O 0.99582 0.61811 0.14799
 O103 O 0.96228 0.48212 0.15958
 O104 O 1.04664 0.52606 0.14911
 O105 O 1.06493 0.46670 -0.20526
 O106 O 1.12001 0.53451 -0.11473
 C107 C 1.10867 0.50058 -0.18498
 O108 O 0.92929 0.54436 -0.18603
 O109 O 0.87888 0.47815 -0.08499
 C110 C 0.88687 0.50990 -0.15904
 O111 O 1.06433 0.62089 -0.17880
 O112 O 1.11948 0.60724 -0.09155
 C113 C 1.10827 0.63327 -0.15123
 O114 O 0.92921 0.39735 -0.19355
 O115 O 0.87946 0.40834 -0.07916
 C116 C 0.88696 0.38473 -0.15320
 Zr117 Zr 0.99856 0.45546 -0.14626
 O118 O 0.99803 0.46298 -0.31628
 O119 O 0.99720 0.38959 -0.16440
 Zr120 Zr 0.99775 0.55962 -0.13102
 O121 O 1.00109 0.56445 -0.30178
 O122 O 0.98952 0.62070 -0.12298
 Zr123 Zr 0.92966 0.46887 0.00570
 Zr124 Zr 1.07296 0.54319 -0.00989
 O125 O 1.03985 0.52955 -0.16288
 O126 O 0.95458 0.48542 -0.15495
 O127 O 1.04537 0.46858 -0.01659
 O128 O 0.95781 0.54346 0.01009
 O129 O 0.96112 0.42529 -0.00515
 O130 O 1.04282 0.58800 0.00282
 H131 H 1.06962 0.53569 0.21030
 H132 H 0.93493 0.55554 0.01512
 H133 H 1.06074 0.54246 -0.22744
 H134 H 0.94073 0.38988 -0.00347
 H135 H 1.02399 0.64433 0.11060
 H136 H 1.01408 0.64347 -0.07195
 H137 H 0.97582 0.53319 -0.33041
 H138 H 0.96521 0.45543 -0.33762
 H139 H 1.01363 0.38605 -0.10023
 H140 H 1.00678 0.37639 0.18112
 H141 H 0.99255 0.45994 0.32979
 H142 H 0.98490 0.52621 0.33983
 O143 O 0.38392 0.45039 0.18642
 O144 O 0.39107 0.51173 0.07887
 C145 C 0.37098 0.48094 0.15628
 O146 O 0.60145 0.55205 0.19351
 O147 O 0.59486 0.48502 0.11266
 C148 C 0.61536 0.52127 0.17899
 O149 O 0.51944 0.60271 0.18559
 O150 O 0.45594 0.58340 0.07171
 C151 C 0.48581 0.60960 0.14568
 O152 O 0.45655 0.38843 0.19200
 O153 O 0.52698 0.40812 0.10419
 C154 C 0.49293 0.38241 0.17243
 Zr155 Zr 0.44035 0.44024 0.13052
 O156 O 0.43571 0.43415 0.30086
 O157 O 0.37511 0.37398 0.11620
 Zr158 Zr 0.53916 0.55089 0.13896
 O159 O 0.53316 0.54340 0.30929
 O160 O 0.59809 0.62113 0.15911
 O161 O 0.46468 0.51336 0.15065
 O162 O 0.51367 0.47844 0.16039
 O163 O 0.46535 0.38999 -0.18794
 O164 O 0.53202 0.40921 -0.08383
 C165 C 0.50090 0.38411 -0.15862
 O166 O 0.52992 0.60410 -0.19302
 O167 O 0.46021 0.58354 -0.10085
 C168 C 0.49491 0.61125 -0.16441
 O169 O 0.60899 0.54664 -0.17584
 O170 O 0.59974 0.48419 -0.06892
 C171 C 0.62332 0.51796 -0.13862
 O172 O 0.38982 0.44808 -0.21211
 O173 O 0.39449 0.51056 -0.11437
 C174 C 0.37570 0.47850 -0.18952
 Zr175 Zr 0.44666 0.44117 -0.14116
 O176 O 0.45262 0.43896 -0.31112
 O177 O 0.38170 0.37425 -0.14305
 Zr178 Zr 0.54641 0.55102 -0.13547
 O179 O 0.54858 0.54582 -0.30577
 O180 O 0.60717 0.62100 -0.14023
 Zr181 Zr 0.45231 0.52548 -0.01064
 Zr182 Zr 0.53486 0.46615 0.00853
 O183 O 0.52116 0.47870 -0.15169
 O184 O 0.47235 0.51423 -0.16501
 O185 O 0.46095 0.41423 -0.00060
 O186 O 0.52667 0.57593 -0.00289
 O187 O 0.41196 0.45022 -0.01072
 O188 O 0.57516 0.54187 0.00834
 H189 H 0.52488 0.46967 0.22670
 H190 H 0.53939 0.61098 -0.00239
 H191 H 0.53543 0.47028 -0.21272
 H192 H 0.37638 0.43464 -0.01441
 H193 H 0.61585 0.63000 0.08998
 H194 H 0.63031 0.62226 -0.08549
 H195 H 0.52203 0.54946 -0.33620
 H196 H 0.45747 0.46968 -0.34023
 H197 H 0.38700 0.35145 -0.09976
 H198 H 0.38303 0.35017 0.08733
 H199 H 0.44692 0.46667 0.32959
 H200 H 0.50636 0.54824 0.33203
 O201 O 0.54356 -0.07027 0.18661
 O202 O 0.47725 -0.12030 0.08481
 C203 C 0.50871 -0.11244 0.15959
 O204 O 0.47175 0.06929 0.20038
 O205 O 0.53892 0.12236 0.10540
 C206 C 0.50604 0.11238 0.17769
 O207 O 0.40221 -0.06407 0.19786
 O208 O 0.41000 -0.11749 0.08996
 C209 C 0.38966 -0.10733 0.16810
 O210 O 0.61978 0.06327 0.18632
 O211 O 0.60854 0.11916 0.09623
 C212 C 0.63134 0.10723 0.16477
 Zr213 Zr 0.56118 -0.00189 0.12784
 O214 O 0.56905 -0.00006 0.29782
 O215 O 0.62221 -0.01024 0.10954
 Zr216 Zr 0.45773 0.00234 0.13954
 O217 O 0.46107 0.00433 0.31058
 O218 O 0.39075 0.00034 0.14263
 O219 O 0.48674 -0.04253 0.15228
 O220 O 0.53173 0.04104 0.15754
 O221 O 0.61565 0.06868 -0.19519
 O222 O 0.60612 0.12206 -0.09093
 C223 C 0.62746 0.11193 -0.16658
 O224 O 0.40086 -0.05824 -0.19912
 O225 O 0.40996 -0.11456 -0.10449
 C226 C 0.38923 -0.10232 -0.17764
 O227 O 0.46857 0.07748 -0.17309
 O228 O 0.53587 0.12572 -0.07181
 C229 C 0.50177 0.11927 -0.13760
 O230 O 0.54208 -0.06479 -0.21025
 O231 O 0.47681 -0.11745 -0.10931
 C232 C 0.50797 -0.10778 -0.18568
 Zr233 Zr 0.55825 0.00211 -0.14277
 O234 O 0.55924 0.00919 -0.31310
 O235 O 0.62012 -0.00539 -0.14686
 Zr236 Zr 0.45557 0.00732 -0.13188
 O237 O 0.45635 0.01628 -0.30154
 O238 O 0.38807 0.00397 -0.12276
 Zr239 Zr 0.46933 -0.06938 -0.00668
 Zr240 Zr 0.54669 0.07393 0.00446
 O241 O 0.52906 0.04661 -0.15387
 O242 O 0.48376 -0.03758 -0.16166
 O243 O 0.59100 0.04309 -0.00523
 O244 O 0.42658 -0.03692 0.00111
 O245 O 0.54414 -0.04248 -0.01100
 O246 O 0.47188 0.04802 0.00866
 H247 H 0.54355 0.06096 0.22366
 H248 H 0.39107 -0.05787 0.00131
 H249 H 0.53940 0.06917 -0.21575
 H250 H 0.55586 -0.06564 -0.01435
 H251 H 0.39519 0.02971 0.10655
 H252 H 0.39250 0.03137 -0.07836
 H253 H 0.46186 -0.00846 -0.33454
 H254 H 0.52811 -0.01676 -0.34114
 H255 H 0.64597 0.02174 -0.10608
 H256 H 0.64890 0.02031 0.08127
 H257 H 0.53628 -0.01822 0.32856
 H258 H 0.46334 -0.02370 0.33519
 N259 N 1.16781 0.48177 0.24419
 N260 N 1.15939 0.49297 0.15491
 N261 N 0.49512 0.67177 0.26204
 N262 N 0.48269 0.65054 0.17524
 N263 N 0.32264 -0.13878 0.28256
 N264 N 0.35202 -0.14594 0.22790
 N265 N 0.85436 0.53666 0.29899
 N266 N 0.85255 0.50090 0.25131
 N267 N 0.46243 0.31619 0.29117
 N268 N 0.49748 0.34743 0.23515
 N269 N 0.69786 0.13890 0.28545
 N270 N 0.66857 0.14491 0.22705
 N271 N 0.49125 0.17184 -0.25347
 N272 N 0.49949 0.16125 -0.16337
 N273 N 0.68366 0.52491 -0.25925
 N274 N 0.66994 0.52606 -0.16687
 N275 N 0.83730 0.31864 -0.26689
 N276 N 0.84600 0.33951 -0.17953
 N277 N 0.53832 -0.14467 -0.30152
 N278 N 0.50324 -0.14706 -0.24844
 N279 N 0.30700 0.44287 -0.30562
 N280 N 0.33877 0.47896 -0.25339
 N281 N 1.16206 0.69819 -0.26293
 N282 N 1.14625 0.68112 -0.17288
 N283 N 0.85144 0.53834 -0.28210
 N284 N 0.84689 0.50471 -0.22034
 N285 N 0.47275 0.32162 -0.28080
 N286 N 0.50708 0.34977 -0.21882
 N287 N 0.69129 0.14266 -0.28826
 N288 N 0.66399 0.15047 -0.22792
 N289 N 1.13639 0.46439 -0.30424
 N290 N 1.14617 0.50097 -0.24727
 N291 N 0.50541 0.67550 -0.27535
 N292 N 0.49771 0.65583 -0.18679
 N293 N 0.32362 -0.13246 -0.29734
 N294 N 0.35246 -0.13981 -0.24105
 N295 N 0.53788 -0.14873 0.27731
 N296 N 0.50310 -0.15236 0.22072
 N297 N 0.30761 0.44832 0.27919
 N298 N 0.33460 0.48292 0.21735
 N299 N 1.14326 0.68532 0.28682
 N300 N 1.15207 0.65968 0.22344
 N301 N 0.47331 0.14296 0.29980
 N302 N 0.50866 0.15081 0.23992
 N303 N 0.65911 0.49321 0.28008
 N304 N 0.65421 0.52772 0.24635
 N305 N 0.86966 0.32421 0.29454
 N306 N 0.86010 0.35105 0.23701
   
