data_POSCAR
  _audit_creation_date              2014-09-24
  _audit_creation_method            'ToBaCCo'
  _symmetry_space_group_name_H-M    'P1'
  _symmetry_Int_Tables_number       1
  _symmetry_cell_setting            triclinic
  loop_
  _symmetry_equiv_pos_as_xyz
 x,y,z
_cell_length_a 55.2043
_cell_length_b 54.7320
_cell_length_c 53.9792
_cell_angle_alpha 90.173100
_cell_angle_beta 89.220800
_cell_angle_gamma 89.638200
loop_
  _atom_site_label
  _atom_site_type_symbol
  _atom_site_fract_x
  _atom_site_fract_y
  _atom_site_fract_z
C1 C 0.23166 0.51097 1.04374
 H2 H 0.24305 0.52686 1.04179
 C3 C 0.21444 0.51007 1.06294
 H4 H 0.21291 0.52583 1.07497
 C5 C 0.21877 0.47273 1.02850
 H6 H 0.22053 0.45830 1.01483
 C7 C 0.20151 0.47090 1.04747
 H8 H 0.19108 0.45428 1.04836
 N9 N 0.23345 0.49246 1.02700
 C10 C 0.27469 0.53905 0.98285
 H11 H 0.26274 0.53739 0.96726
 C12 C 0.29076 0.55864 0.98393
 H13 H 0.29096 0.57195 0.96913
 C14 C 0.29000 0.52307 1.02032
 H15 H 0.28970 0.50893 1.03429
 C16 C 0.30640 0.54226 1.02207
 H17 H 0.31851 0.54297 1.03767
 Zn18 Zn 0.25466 0.49386 0.99930
 N19 N 0.27458 0.52179 1.00094
 C20 C 0.21877 0.51378 0.96977
 N21 N 0.23476 0.49485 0.97103
 C22 C 0.23501 0.47672 0.95372
 C23 C 0.21889 0.47742 0.93399
 C24 C 0.20238 0.51521 0.95038
 C25 C 0.27670 0.45129 1.01874
 C26 C 0.29339 0.43203 1.01915
 C27 C 0.30724 0.44371 0.97823
 C28 C 0.29061 0.46305 0.97881
 N29 N 0.27555 0.46628 0.99872
 H30 H 0.21856 0.52763 0.98412
 H31 H 0.24730 0.46141 0.95541
 H32 H 0.21941 0.46289 0.92033
 H33 H 0.18950 0.53021 0.95001
 H34 H 0.26518 0.45463 1.03474
 H35 H 0.29434 0.42040 1.03531
 H36 H 0.31923 0.44142 0.96234
 H37 H 0.28983 0.47567 0.96345
 C38 C 0.30704 0.56029 1.00363
 C39 C 0.19863 0.48990 1.06510
 C40 C 0.30887 0.42810 0.99870
 C41 C 0.20223 0.49682 0.93220
 C42 C 0.78855 0.52482 -0.02773
 H43 H 0.79007 0.53692 -0.01195
 C44 C 0.80567 0.52578 -0.04696
 H45 H 0.82043 0.53864 -0.04572
 C46 C 0.76820 0.49235 -0.04759
 H47 H 0.75378 0.47910 -0.04757
 C48 C 0.78483 0.49280 -0.06731
 H49 H 0.78271 0.48010 -0.08253
 N50 N 0.77040 0.50817 -0.02829
 C51 C 0.70958 0.53188 0.01796
 H52 H 0.70792 0.51619 0.02999
 C53 C 0.69192 0.55023 0.01870
 H54 H 0.67680 0.54873 0.03159
 C55 C 0.73099 0.55252 -0.01398
 H56 H 0.74595 0.55305 -0.02708
 C57 C 0.71388 0.57146 -0.01364
 H58 H 0.71581 0.58648 -0.02652
 Zn59 Zn 0.74971 0.50596 -0.00023
 N60 N 0.72850 0.53321 0.00164
 C61 C 0.76570 0.51976 0.04768
 N62 N 0.76948 0.50450 0.02806
 C63 C 0.78839 0.48847 0.02749
 C64 C 0.80439 0.48725 0.04723
 C65 C 0.78122 0.51908 0.06791
 C66 C 0.71120 0.47852 -0.01797
 C67 C 0.69497 0.45911 -0.01902
 C68 C 0.71888 0.43781 0.01136
 C69 C 0.73444 0.45782 0.01215
 N70 N 0.73032 0.47766 -0.00238
 H71 H 0.75076 0.53259 0.04765
 H72 H 0.79122 0.47685 0.01144
 H73 H 0.81962 0.47473 0.04611
 H74 H 0.77778 0.53119 0.08347
 H75 H 0.70826 0.49458 -0.02919
 H76 H 0.67958 0.46022 -0.03121
 H77 H 0.72210 0.42229 0.02330
 H78 H 0.74952 0.45760 0.02467
 C79 C 0.69386 0.57022 0.00260
 C80 C 0.80409 0.50947 -0.06702
 C81 C 0.69868 0.43853 -0.00410
 C82 C 0.80095 0.50272 0.06781
 C83 C -0.02697 0.28518 0.46981
 H84 H -0.04089 0.28655 0.48406
 C85 C -0.02772 0.30055 0.44926
 H86 H -0.04219 0.31392 0.44867
 C87 C 0.00962 0.26717 0.45528
 H88 H 0.02429 0.25431 0.45786
 C89 C 0.00971 0.28227 0.43446
 H90 H 0.02417 0.27976 0.42097
 N91 N -0.00850 0.26896 0.47247
 C92 C -0.03817 0.21725 0.52594
 H93 H -0.02539 0.21925 0.54082
 C94 C -0.05723 0.20076 0.52830
 H95 H -0.05927 0.19069 0.54541
 C96 C -0.05075 0.22811 0.48566
 H97 H -0.04778 0.23835 0.46883
 C98 C -0.06977 0.21142 0.48700
 H99 H -0.08112 0.20904 0.47100
 Zn100 Zn -0.00777 0.25083 0.50218
 N101 N -0.03540 0.23066 0.50497
 C102 C -0.02436 0.27514 0.54620
 N103 N -0.00665 0.27380 0.52846
 C104 C 0.01202 0.28989 0.52807
 C105 C 0.01374 0.30786 0.54634
 C106 C -0.02334 0.29283 0.56486
 C107 C 0.01973 0.21120 0.48570
 C108 C 0.03858 0.19409 0.48531
 C109 C 0.05709 0.21582 0.51911
 C110 C 0.03770 0.23238 0.51905
 N111 N 0.01960 0.22986 0.50238
 H112 H -0.03953 0.26282 0.54573
 H113 H 0.02561 0.28873 0.51347
 H114 H 0.02895 0.32025 0.54589
 H115 H -0.03774 0.29382 0.57865
 H116 H 0.00499 0.20950 0.47282
 H117 H 0.03838 0.17933 0.47192
 H118 H 0.07124 0.21787 0.53265
 H119 H 0.03702 0.24697 0.53255
 C120 C -0.07319 0.19732 0.50850
 C121 C -0.00902 0.29964 0.43112
 C122 C 0.05753 0.19628 0.50222
 C123 C -0.00410 0.30950 0.56508
 C124 C 0.98833 0.71346 0.52596
 H125 H 0.97511 0.71153 0.51147
 C126 C 0.98796 0.69761 0.54614
 H127 H 0.97445 0.68337 0.54700
 C128 C 1.02261 0.73383 0.54179
 H129 H 1.03625 0.74778 0.53984
 C130 C 1.02298 0.71827 0.56226
 H131 H 1.03675 0.72064 0.57614
 N132 N 1.00536 0.73121 0.52423
 C133 C 0.97411 0.78634 0.47591
 H134 H 0.98799 0.78736 0.46162
 C135 C 0.95413 0.80209 0.47529
 H136 H 0.95278 0.81527 0.46045
 C137 C 0.95974 0.76874 0.51334
 H138 H 0.96220 0.75609 0.52841
 C139 C 0.93952 0.78419 0.51348
 H140 H 0.92636 0.78289 0.52847
 Zn141 Zn 1.00516 0.75088 0.49553
 N142 N 0.97651 0.77004 0.49470
 C143 C 0.98985 0.72950 0.45025
 N144 N 1.00712 0.72949 0.46798
 C145 C 1.02551 0.71284 0.46761
 C146 C 1.02701 0.69523 0.44890
 C147 C 0.99072 0.71227 0.43111
 C148 C 1.03035 0.79119 0.51259
 C149 C 1.04829 0.80900 0.51304
 C150 C 1.06863 0.78833 0.47895
 C151 C 1.05011 0.77104 0.47894
 N152 N 1.03151 0.77275 0.49568
 H153 H 0.97503 0.74245 0.45120
 H154 H 1.03879 0.71301 0.48216
 H155 H 1.04175 0.68208 0.44894
 H156 H 0.97653 0.71219 0.41746
 H157 H 1.01524 0.79220 0.52553
 H158 H 1.04704 0.82364 0.52655
 H159 H 1.08319 0.78696 0.46536
 H160 H 1.05047 0.75651 0.46536
 C161 C 0.93661 0.80125 0.49437
 C162 C 1.00549 0.69986 0.56459
 C163 C 1.06768 0.80774 0.49600
 C164 C 1.00935 0.69469 0.43043
 C165 C 0.47245 -0.01421 0.29113
 H166 H 0.48645 -0.02804 0.29253
 C167 C 0.45302 -0.01400 0.30794
 H168 H 0.45233 -0.02768 0.32238
 C169 C 0.45710 0.02104 0.27121
 H170 H 0.45894 0.03488 0.25711
 C171 C 0.43728 0.02187 0.28757
 H172 H 0.42378 0.03612 0.28548
 N173 N 0.47410 0.00307 0.27318
 C174 C 0.51988 -0.02893 0.21510
 H175 H 0.53404 -0.01537 0.21411
 C176 C 0.52025 -0.04869 0.19872
 H177 H 0.53469 -0.04944 0.18500
 C178 C 0.48313 -0.04251 0.23321
 H179 H 0.46857 -0.03989 0.24655
 C180 C 0.48259 -0.06244 0.21699
 H181 H 0.46788 -0.07525 0.21908
 Zn182 Zn 0.50181 0.00208 0.25216
 N183 N 0.50162 -0.02628 0.23202
 C184 C 0.54589 -0.01625 0.27175
 N185 N 0.52934 0.00226 0.27271
 C186 C 0.53122 0.02072 0.28947
 C187 C 0.55041 0.02114 0.30606
 C188 C 0.56541 -0.01651 0.28793
 C189 C 0.48436 0.02981 0.21312
 C190 C 0.48406 0.04826 0.19537
 C191 C 0.52015 0.06504 0.21348
 C192 C 0.51979 0.04619 0.23089
 N193 N 0.50201 0.02910 0.23042
 H194 H 0.54385 -0.03106 0.25872
 H195 H 0.51754 0.03497 0.29016
 H196 H 0.55127 0.03574 0.31959
 H197 H 0.57848 -0.03131 0.28670
 H198 H 0.47063 0.01579 0.21298
 H199 H 0.46978 0.04855 0.18181
 H200 H 0.53468 0.07824 0.21381
 H201 H 0.53398 0.04499 0.24442
 C202 C 0.50131 -0.06593 0.19919
 C203 C 0.43507 0.00422 0.30631
 C204 C 0.50222 0.06611 0.19529
 C205 C 0.56779 0.00228 0.30550
 C206 C 0.51760 -0.00536 0.70156
 H207 H 0.49946 -0.00464 0.69449
 C208 C 0.53696 -0.00705 0.68481
 H209 H 0.53318 -0.00660 0.66521
 C210 C 0.54435 -0.00651 0.73539
 H211 H 0.54718 -0.00666 0.75512
 C212 C 0.56429 -0.00881 0.71925
 H213 H 0.58219 -0.01078 0.72693
 N214 N 0.52149 -0.00467 0.72639
 C215 C 0.47634 -0.02697 0.78918
 H216 H 0.46457 -0.01116 0.79089
 C217 C 0.47492 -0.04565 0.80665
 H218 H 0.46171 -0.04420 0.82159
 C219 C 0.50765 -0.04800 0.76733
 H220 H 0.52039 -0.04880 0.75197
 C221 C 0.50696 -0.06706 0.78450
 H222 H 0.51952 -0.08220 0.78236
 Zn223 Zn 0.49425 -0.00130 0.74847
 N224 N 0.49261 -0.02838 0.77010
 C225 C 0.44834 -0.01724 0.73176
 N226 N 0.46532 0.00057 0.72965
 C227 C 0.46261 0.01922 0.71328
 C228 C 0.44255 0.02016 0.69785
 C229 C 0.42789 -0.01693 0.71678
 C230 C 0.51536 0.02733 0.78563
 C231 C 0.51778 0.04709 0.80182
 C232 C 0.48311 0.06612 0.78292
 C233 C 0.48128 0.04595 0.76718
 N234 N 0.49743 0.02712 0.76858
 H235 H 0.45084 -0.03204 0.74469
 H236 H 0.47651 0.03299 0.71164
 H237 H 0.44132 0.03468 0.68435
 H238 H 0.41464 -0.03131 0.71875
 H239 H 0.52733 0.01177 0.78728
 H240 H 0.53181 0.04654 0.81563
 H241 H 0.47019 0.08097 0.78128
 H242 H 0.46663 0.04530 0.75421
 C243 C 0.49057 -0.06594 0.80465
 C244 C 0.56078 -0.00890 0.69349
 C245 C 0.50148 0.06683 0.80065
 C246 C 0.42494 0.00179 0.69930
 C247 C 0.28480 0.02457 0.47304
 H248 H 0.28615 0.03689 0.48867
 C249 C 0.30204 0.02541 0.45389
 H250 H 0.31670 0.03839 0.45503
 C251 C 0.26482 -0.00831 0.45350
 H252 H 0.25054 -0.02171 0.45361
 C253 C 0.28156 -0.00801 0.43388
 H254 H 0.27962 -0.02093 0.41883
 N255 N 0.26676 0.00779 0.47260
 C256 C 0.20601 0.03150 0.51898
 H257 H 0.20440 0.01566 0.53081
 C258 C 0.18839 0.04984 0.52006
 H259 H 0.17333 0.04818 0.53300
 C260 C 0.22732 0.05254 0.48722
 H261 H 0.24223 0.05321 0.47407
 C262 C 0.21020 0.07148 0.48789
 H263 H 0.21207 0.08666 0.47521
 Zn264 Zn 0.24586 0.00565 0.50056
 N265 N 0.22488 0.03304 0.50261
 C266 C 0.26180 0.01930 0.54845
 N267 N 0.26540 0.00379 0.52901
 C268 C 0.28399 -0.01262 0.52873
 C269 C 0.29995 -0.01382 0.54853
 C270 C 0.27723 0.01860 0.56873
 C271 C 0.20779 -0.02128 0.48141
 C272 C 0.19112 -0.04024 0.47989
 C273 C 0.21260 -0.06133 0.51226
 C274 C 0.22872 -0.04178 0.51337
 N275 N 0.22602 -0.02227 0.49807
 H276 H 0.24710 0.03241 0.54820
 H277 H 0.28667 -0.02447 0.51284
 H278 H 0.31501 -0.02657 0.54758
 H279 H 0.27391 0.03097 0.58412
 H280 H 0.20594 -0.00543 0.46963
 H281 H 0.17655 -0.03904 0.46670
 H282 H 0.21467 -0.07654 0.52485
 H283 H 0.24308 -0.04205 0.52676
 C284 C 0.19025 0.07003 0.50421
 C285 C 0.30071 0.00879 0.43405
 C286 C 0.19332 -0.06049 0.49559
 C287 C 0.29676 0.00201 0.56887
 C288 C 0.72982 0.01072 0.54619
 H289 H 0.74229 0.02583 0.54542
 C290 C 0.71257 0.00962 0.56536
 H291 H 0.71179 0.02432 0.57879
 C292 C 0.71488 -0.02586 0.52874
 H293 H 0.71572 -0.03944 0.51414
 C294 C 0.69785 -0.02805 0.54789
 H295 H 0.68613 -0.04382 0.54807
 N296 N 0.73045 -0.00674 0.52822
 C297 C 0.79626 0.01930 0.50460
 H298 H 0.80347 0.00097 0.50490
 C299 C 0.81224 0.03880 0.50629
 H300 H 0.83147 0.03495 0.50694
 C301 C 0.76278 0.04642 0.50330
 H302 H 0.74349 0.04942 0.50255
 C303 C 0.77816 0.06654 0.50538
 H304 H 0.77036 0.08472 0.50623
 Zn305 Zn 0.75147 -0.00472 0.50033
 N306 N 0.77198 0.02327 0.50283
 C307 C 0.71424 0.01537 0.47169
 N308 N 0.73128 -0.00269 0.47206
 C309 C 0.73232 -0.02000 0.45389
 C310 C 0.71612 -0.01927 0.43424
 C311 C 0.69775 0.01683 0.45235
 C312 C 0.77145 -0.04966 0.51727
 C313 C 0.78740 -0.06957 0.51674
 C314 C 0.80309 -0.05546 0.47738
 C315 C 0.78680 -0.03587 0.47862
 N316 N 0.77145 -0.03323 0.49840
 H317 H 0.71275 0.02814 0.48690
 H318 H 0.74520 -0.03483 0.45482
 H319 H 0.71724 -0.03321 0.41999
 H320 H 0.68401 0.03103 0.45274
 H321 H 0.75956 -0.04706 0.53312
 H322 H 0.78713 -0.08240 0.53197
 H323 H 0.81565 -0.05672 0.46184
 H324 H 0.78689 -0.02227 0.46411
 C325 C 0.80333 0.06288 0.50685
 C326 C 0.69610 -0.00990 0.56636
 C327 C 0.80370 -0.07252 0.49674
 C328 C 0.69848 -0.00073 0.43337
 C329 C 0.49077 0.21212 1.02491
 H330 H 0.47825 0.21134 1.00976
 C331 C 0.48919 0.19479 1.04376
 H332 H 0.47486 0.18139 1.04330
 C333 C 0.52524 0.22973 1.04329
 H334 H 0.53975 0.24282 1.04276
 C335 C 0.52434 0.21271 1.06252
 H336 H 0.53815 0.21308 1.07657
 N337 N 0.50843 0.22934 1.02507
 C338 C 0.48574 0.29694 0.99778
 H339 H 0.50370 0.30449 0.99743
 C340 C 0.46594 0.31286 0.99850
 H341 H 0.46892 0.33239 0.99916
 C342 C 0.45972 0.26275 0.99630
 H343 H 0.45729 0.24326 0.99512
 C344 C 0.43935 0.27811 0.99641
 H345 H 0.42139 0.27030 0.99571
 Zn346 Zn 0.51027 0.25123 0.99779
 N347 N 0.48243 0.27229 0.99733
 C348 C 0.49573 0.23586 0.94995
 N349 N 0.51151 0.23197 0.96869
 C350 C 0.52767 0.21313 0.96788
 C351 C 0.52798 0.19685 0.94792
 C352 C 0.49535 0.21996 0.92968
 C353 C 0.54076 0.28586 1.01977
 C354 C 0.55954 0.30273 1.02068
 C355 C 0.57470 0.28702 0.98153
 C356 C 0.55536 0.27065 0.98117
 N357 N 0.53862 0.27067 0.99993
 H358 H 0.48317 0.25107 0.95088
 H359 H 0.53990 0.21040 0.98314
 H360 H 0.54045 0.18150 0.94800
 H361 H 0.48250 0.22315 0.91503
 H362 H 0.52715 0.28564 1.03438
 H363 H 0.56049 0.31529 1.03618
 H364 H 0.58743 0.28744 0.96609
 H365 H 0.55328 0.25858 0.96548
 C366 C 0.44245 0.30344 0.99795
 C367 C 0.50618 0.19488 1.06288
 C368 C 0.57651 0.30372 1.00117
 C369 C 0.51139 0.19995 0.92867
 C370 C 0.47468 0.78713 -0.02588
 H371 H 0.46193 0.78784 -0.01049
 C372 C 0.47310 0.80423 -0.04492
 H373 H 0.45884 0.81790 -0.04425
 C374 C 0.50910 0.76870 -0.04509
 H375 H 0.52343 0.75517 -0.04477
 C376 C 0.50809 0.78538 -0.06462
 H377 H 0.52173 0.78453 -0.07922
 N378 N 0.49256 0.76994 -0.02621
 C379 C 0.46818 0.71133 0.02238
 H380 H 0.48264 0.71123 0.03571
 C381 C 0.44997 0.69381 0.02383
 H382 H 0.45030 0.68057 0.03868
 C383 C 0.45050 0.72862 -0.01333
 H384 H 0.45111 0.74186 -0.02812
 C385 C 0.43197 0.71135 -0.01264
 H386 H 0.41849 0.71150 -0.02702
 Zn387 Zn 0.49493 0.74961 0.00192
 N388 N 0.46813 0.72828 0.00403
 C389 C 0.48006 0.76824 0.04921
 N390 N 0.49606 0.77041 0.02997
 C391 C 0.51276 0.78855 0.02945
 C392 C 0.51397 0.80535 0.04888
 C393 C 0.48072 0.78458 0.06913
 C394 C 0.52314 0.71142 -0.01721
 C395 C 0.54227 0.69464 -0.01834
 C396 C 0.56128 0.71624 0.01524
 C397 C 0.54163 0.73246 0.01593
 N398 N 0.52306 0.72975 -0.00015
 H399 H 0.46660 0.75402 0.04909
 H400 H 0.52496 0.79013 0.01369
 H401 H 0.52707 0.81995 0.04778
 H402 H 0.46801 0.78237 0.08440
 H403 H 0.50801 0.70953 -0.02958
 H404 H 0.54192 0.67997 -0.03184
 H405 H 0.57570 0.71831 0.02848
 H406 H 0.54103 0.74683 0.02968
 C407 C 0.43166 0.69348 0.00600
 C408 C 0.49011 0.80365 -0.06449
 C409 C 0.56156 0.69684 -0.00182
 C410 C 0.49778 0.80353 0.06910
 C411 C 1.02122 0.49069 0.20023
 H412 H 1.00296 0.48993 0.19345
 C413 C 1.04050 0.48929 0.18332
 H414 H 1.03665 0.48827 0.16374
 C415 C 1.04835 0.49278 0.23373
 H416 H 1.05142 0.49373 0.25338
 C417 C 1.06821 0.49124 0.21744
 H418 H 1.08633 0.49103 0.22487
 N419 N 1.02534 0.49282 0.22495
 C420 C 0.98113 0.46825 0.28728
 H421 H 0.96993 0.48429 0.29036
 C422 C 0.97973 0.44862 0.30364
 H423 H 0.96752 0.44981 0.31947
 C424 C 1.01130 0.44776 0.26327
 H425 H 1.02353 0.44755 0.24747
 C426 C 1.01048 0.42768 0.27920
 H427 H 1.02206 0.41204 0.27540
 Zn428 Zn 0.99825 0.49542 0.24721
 N429 N 0.99678 0.46751 0.26763
 C430 C 0.95205 0.48044 0.23057
 N431 N 0.96934 0.49795 0.22856
 C432 C 0.96699 0.51676 0.21233
 C433 C 0.94694 0.51819 0.19693
 C434 C 0.93161 0.48124 0.21561
 C435 C 1.01898 0.52227 0.28581
 C436 C 1.02140 0.54135 0.30279
 C437 C 0.98717 0.56151 0.28422
 C438 C 0.98546 0.54207 0.26752
 N439 N 1.00139 0.52301 0.26841
 H440 H 0.95427 0.46552 0.24341
 H441 H 0.98115 0.53027 0.21080
 H442 H 0.94594 0.53283 0.18353
 H443 H 0.91809 0.46710 0.21747
 H444 H 1.03072 0.50650 0.28706
 H445 H 1.03567 0.54039 0.31632
 H446 H 0.97398 0.57620 0.28350
 H447 H 0.97099 0.54206 0.25430
 C448 C 0.99459 0.42800 0.29976
 C449 C 1.06442 0.48963 0.19181
 C450 C 1.00529 0.56128 0.30223
 C451 C 0.92901 0.50013 0.19825
 C452 C -0.02398 0.48836 0.78998
 H453 H -0.01007 0.47440 0.79103
 C454 C -0.04348 0.48823 0.80672
 H455 H -0.04429 0.47418 0.82077
 C456 C -0.03906 0.52424 0.77102
 H457 H -0.03711 0.53846 0.75733
 C458 C -0.05894 0.52473 0.78729
 H459 H -0.07235 0.53912 0.78553
 N460 N -0.02217 0.50613 0.77253
 C461 C 0.02291 0.47647 0.71271
 H462 H 0.03708 0.49003 0.71215
 C463 C 0.02285 0.45762 0.69525
 H464 H 0.03730 0.45657 0.68152
 C465 C -0.01325 0.46163 0.73124
 H466 H -0.02758 0.46360 0.74495
 C467 C -0.01403 0.44247 0.71412
 H468 H -0.02903 0.42983 0.71484
 Zn469 Zn 0.00552 0.50563 0.75149
 N470 N 0.00506 0.47812 0.73024
 C471 C 0.04933 0.48598 0.77033
 N472 N 0.03307 0.50472 0.77195
 C473 C 0.03530 0.52264 0.78924
 C474 C 0.05465 0.52234 0.80563
 C475 C 0.06893 0.48493 0.78638
 C476 C -0.01169 0.53507 0.71363
 C477 C -0.01210 0.55449 0.69697
 C478 C 0.02402 0.57030 0.71588
 C479 C 0.02374 0.55053 0.73221
 N480 N 0.00595 0.53352 0.73090
 H481 H 0.04699 0.47162 0.75682
 H482 H 0.02184 0.53706 0.79044
 H483 H 0.05589 0.53657 0.81952
 H484 H 0.08177 0.46996 0.78471
 H485 H -0.02533 0.52101 0.71268
 H486 H -0.02608 0.55512 0.68311
 H487 H 0.03819 0.58379 0.71731
 H488 H 0.03790 0.54871 0.74570
 C489 C 0.00409 0.44041 0.69568
 C490 C -0.06132 0.50661 0.80553
 C491 C 0.00593 0.57243 0.69794
 C492 C 0.07174 0.50324 0.80438
 C493 C 0.11436 0.14267 0.50324
 C494 C 0.09013 0.13511 0.50231
 C495 C 0.07166 0.15277 0.50187
 C496 C 0.07726 0.17782 0.50262
 C497 C 0.10165 0.18511 0.50378
 C498 C 0.12032 0.16757 0.50391
 C499 C 0.13387 0.12413 0.50351
 C500 C 0.15814 0.13164 0.50406
 C501 C 0.17662 0.11389 0.50413
 C502 C 0.17086 0.08886 0.50402
 C503 C 0.14641 0.08170 0.50356
 C504 C 0.12785 0.09925 0.50317
 C505 C 0.14480 0.17438 0.50460
 C506 C 0.16340 0.15673 0.50459
 C507 C 0.08484 0.11004 0.50188
 C508 C 0.10338 0.09241 0.50237
 H509 H 0.14965 0.19353 0.50508
 H510 H 0.18203 0.16277 0.50507
 H511 H 0.06621 0.10400 0.50121
 H512 H 0.09853 0.07326 0.50207
 H513 H 0.05290 0.14707 0.50129
 H514 H 0.10606 0.20438 0.50417
 H515 H 0.19541 0.11948 0.50464
 H516 H 0.14190 0.06245 0.50313
 C517 C 0.63766 0.62447 0.00045
 C518 C 0.63155 0.59960 0.00051
 C519 C 0.65005 0.58199 0.00145
 C520 C 0.67451 0.58909 0.00203
 C521 C 0.68035 0.61410 0.00176
 C522 C 0.66195 0.63190 0.00115
 C523 C 0.61823 0.64306 -0.00037
 C524 C 0.62427 0.66795 -0.00003
 C525 C 0.60568 0.68555 -0.00051
 C526 C 0.58126 0.67834 -0.00166
 C527 C 0.57558 0.65330 -0.00218
 C528 C 0.59398 0.63558 -0.00139
 C529 C 0.66729 0.65698 0.00129
 C530 C 0.64878 0.67469 0.00079
 C531 C 0.60707 0.59284 -0.00044
 C532 C 0.58861 0.61053 -0.00144
 H533 H 0.68595 0.66296 0.00186
 H534 H 0.65369 0.69383 0.00102
 H535 H 0.60215 0.57371 -0.00044
 H536 H 0.56996 0.60454 -0.00218
 H537 H 0.64547 0.56276 0.00131
 H538 H 0.69915 0.61964 0.00236
 H539 H 0.61014 0.70481 -0.00026
 H540 H 0.55681 0.64765 -0.00272
 C541 C 0.87805 -0.14693 0.49573
 C542 C 0.88455 -0.15842 0.47329
 C543 C 0.90355 -0.17558 0.47296
 C544 C 0.91597 -0.18125 0.49486
 C545 C 0.90902 -0.16969 0.51723
 C546 C 0.89012 -0.15247 0.51776
 C547 C 0.85846 -0.12848 0.49611
 C548 C 0.85227 -0.11669 0.51846
 C549 C 0.83407 -0.09873 0.51861
 C550 C 0.82205 -0.09249 0.49661
 C551 C 0.82830 -0.10477 0.47440
 C552 C 0.84656 -0.12272 0.47403
 C553 C 0.88326 -0.14044 0.53981
 C554 C 0.86467 -0.12283 0.54015
 C555 C 0.87206 -0.15236 0.45163
 C556 C 0.85337 -0.13482 0.45200
 H557 H 0.89245 -0.14455 0.55693
 H558 H 0.86005 -0.11386 0.55752
 H559 H 0.87686 -0.16113 0.43421
 H560 H 0.84431 -0.13057 0.43485
 H561 H 0.90863 -0.18456 0.45572
 H562 H 0.91870 -0.17365 0.53410
 H563 H 0.82972 -0.08914 0.53572
 H564 H 0.81900 -0.10032 0.45744
 C565 C 0.36388 0.37277 0.99972
 C566 C 0.34778 0.37362 0.97981
 C567 C 0.32969 0.39176 0.97954
 C568 C 0.32747 0.40859 0.99922
 C569 C 0.34348 0.40720 1.01924
 C570 C 0.36191 0.38949 1.01945
 C571 C 0.38343 0.35429 0.99971
 C572 C 0.40009 0.35410 1.01915
 C573 C 0.41920 0.33713 1.01857
 C574 C 0.42143 0.32023 0.99899
 C575 C 0.40427 0.32019 0.97996
 C576 C 0.38536 0.33746 0.98006
 C577 C 0.37864 0.38840 1.03880
 C578 C 0.39750 0.37108 1.03858
 C579 C 0.35022 0.35644 0.96052
 C580 C 0.36862 0.33859 0.96070
 H581 H 0.37732 0.40122 1.05410
 H582 H 0.41020 0.37105 1.05371
 H583 H 0.33786 0.35685 0.94510
 H584 H 0.36993 0.32575 0.94542
 H585 H 0.31729 0.39277 0.96417
 H586 H 0.34193 0.42032 1.03427
 H587 H 0.43240 0.33706 1.03327
 H588 H 0.40616 0.30729 0.96477
 C589 C 0.87227 0.14157 0.51069
 C590 C 0.86776 0.16328 0.49774
 C591 C 0.88531 0.18173 0.49760
 C592 C 0.90754 0.17836 0.50982
 C593 C 0.91163 0.15635 0.52272
 C594 C 0.89402 0.13805 0.52340
 C595 C 0.85409 0.12193 0.51055
 C596 C 0.85867 0.10023 0.52350
 C597 C 0.84161 0.08142 0.52291
 C598 C 0.82033 0.08381 0.50891
 C599 C 0.81591 0.10590 0.49627
 C600 C 0.83269 0.12505 0.49714
 C601 C 0.89788 0.11612 0.53626
 C602 C 0.88044 0.09759 0.53644
 C603 C 0.84590 0.16595 0.48493
 C604 C 0.82873 0.14712 0.48452
 H605 H 0.91456 0.11322 0.54621
 H606 H 0.88417 0.08092 0.54650
 H607 H 0.84217 0.18262 0.47486
 H608 H 0.81227 0.14981 0.47415
 H609 H 0.88165 0.19865 0.48794
 H610 H 0.92875 0.15312 0.53176
 H611 H 0.84504 0.06486 0.53326
 H612 H 0.79980 0.10797 0.48522
 C613 C 0.35978 0.61744 0.00559
 C614 C 0.33583 0.62311 -0.00081
 C615 C 0.31858 0.60438 -0.00138
 C616 C 0.32516 0.58019 0.00451
 C617 C 0.34928 0.57490 0.01097
 C618 C 0.36667 0.59344 0.01148
 C619 C 0.37805 0.63699 0.00597
 C620 C 0.40204 0.63124 0.01213
 C621 C 0.41941 0.64981 0.01222
 C622 C 0.41295 0.67405 0.00631
 C623 C 0.38873 0.67948 0.00028
 C624 C 0.37122 0.66100 0.00003
 C625 C 0.39084 0.58843 0.01762
 C626 C 0.40824 0.60700 0.01791
 C627 C 0.32965 0.64737 -0.00656
 C628 C 0.34703 0.66599 -0.00611
 H629 H 0.39637 0.56997 0.02218
 H630 H 0.42669 0.60234 0.02268
 H631 H 0.31122 0.65200 -0.01149
 H632 H 0.34151 0.68444 -0.01072
 H633 H 0.30002 0.60864 -0.00615
 H634 H 0.35460 0.55629 0.01516
 H635 H 0.43804 0.64529 0.01644
 H636 H 0.38349 0.69809 -0.00403
 C637 C 0.12149 -0.13627 0.49523
 C638 C 0.09685 -0.12978 0.49607
 C639 C 0.07937 -0.14822 0.49640
 C640 C 0.08637 -0.17299 0.49562
 C641 C 0.11116 -0.17922 0.49451
 C642 C 0.12884 -0.16089 0.49451
 C643 C 0.13996 -0.11692 0.49517
 C644 C 0.16463 -0.12338 0.49477
 C645 C 0.18210 -0.10486 0.49499
 C646 C 0.17498 -0.08010 0.49525
 C647 C 0.15016 -0.07399 0.49548
 C648 C 0.13257 -0.09232 0.49559
 C649 C 0.15369 -0.16664 0.49394
 C650 C 0.17128 -0.14820 0.49415
 C651 C 0.09017 -0.10497 0.49656
 C652 C 0.10774 -0.08655 0.49625
 H653 H 0.15959 -0.18555 0.49342
 H654 H 0.19024 -0.15343 0.49379
 H655 H 0.07121 -0.09974 0.49716
 H656 H 0.10183 -0.06764 0.49662
 H657 H 0.06030 -0.14335 0.49694
 H658 H 0.11662 -0.19827 0.49409
 H659 H 0.20119 -0.10963 0.49465
 H660 H 0.14459 -0.05496 0.49602
 C661 C 0.64689 0.38073 0.99778
 C662 C 0.63903 0.40505 1.00064
 C663 C 0.65610 0.42386 0.99963
 C664 C 0.68087 0.41846 0.99622
 C665 C 0.68852 0.39399 0.99358
 C666 C 0.67152 0.37502 0.99411
 C667 C 0.62896 0.36089 0.99871
 C668 C 0.63669 0.33657 0.99538
 C669 C 0.61947 0.31779 0.99604
 C670 C 0.59485 0.32328 1.00051
 C671 C 0.58747 0.34773 1.00398
 C672 C 0.60442 0.36663 1.00290
 C673 C 0.67860 0.35047 0.99103
 C674 C 0.66147 0.33158 0.99153
 C675 C 0.61430 0.41006 1.00461
 C676 C 0.59729 0.39116 1.00583
 H677 H 0.69753 0.34581 0.98812
 H678 H 0.66768 0.31292 0.98898
 H679 H 0.60805 0.42875 1.00690
 H680 H 0.57839 0.39579 1.00901
 H681 H 0.65022 0.44268 1.00196
 H682 H 0.70759 0.38982 0.99084
 H683 H 0.62517 0.29896 0.99343
 H684 H 0.56847 0.35201 1.00709
 C685 C 0.50381 0.12123 1.13900
 C686 C 0.49841 0.09701 1.13258
 C687 C 0.49791 0.07912 1.15108
 C688 C 0.50278 0.08527 1.17589
 C689 C 0.50824 0.10966 1.18199
 C690 C 0.50874 0.12773 1.16360
 C691 C 0.50434 0.14012 1.11958
 C692 C 0.50972 0.16435 1.12597
 C693 C 0.51022 0.18224 1.10740
 C694 C 0.50541 0.17600 1.08259
 C695 C 0.50009 0.15155 1.07657
 C696 C 0.49950 0.13356 1.09498
 C697 C 0.51401 0.15219 1.16929
 C698 C 0.51448 0.17019 1.15080
 C699 C 0.49369 0.09115 1.10776
 C700 C 0.49424 0.10912 1.08927
 H701 H 0.51782 0.15746 1.18820
 H702 H 0.51864 0.18882 1.15598
 H703 H 0.48954 0.07252 1.10257
 H704 H 0.49049 0.10384 1.07035
 H705 H 0.49407 0.06034 1.14614
 H706 H 0.51179 0.11459 1.20105
 H707 H 0.51408 0.20103 1.11227
 H708 H 0.49678 0.14645 1.05751
 C709 C 0.00614 0.64818 0.62406
 C710 C 0.02811 0.65504 0.61275
 C711 C 0.02786 0.67237 0.59366
 C712 C 0.00582 0.68264 0.58575
 C713 C -0.01601 0.67576 0.59754
 C714 C -0.01596 0.65852 0.61669
 C715 C 0.00621 0.62948 0.64366
 C716 C -0.01581 0.62235 0.65468
 C717 C -0.01572 0.60408 0.67282
 C718 C 0.00615 0.59280 0.67982
 C719 C 0.02812 0.60045 0.66880
 C720 C 0.02824 0.61876 0.65068
 C721 C -0.03759 0.65116 0.62839
 C722 C -0.03751 0.63339 0.64708
 C723 C 0.04983 0.64412 0.62048
 C724 C 0.04989 0.62627 0.63911
 H725 H -0.05474 0.65905 0.62291
 H726 H -0.05461 0.62808 0.65549
 H727 H 0.06690 0.64926 0.61191
 H728 H 0.06701 0.61816 0.64437
 H729 H 0.04471 0.67733 0.58449
 H730 H -0.03301 0.68379 0.59176
 H731 H -0.03267 0.59857 0.68142
 H732 H 0.04501 0.59168 0.67381
 C733 C 0.48976 0.87809 -0.13976
 C734 C 0.48647 0.90261 -0.13275
 C735 C 0.48677 0.92076 -0.15100
 C736 C 0.49016 0.91458 -0.17620
 C737 C 0.49337 0.88982 -0.18289
 C738 C 0.49326 0.87151 -0.16472
 C739 C 0.48965 0.85895 -0.12058
 C740 C 0.49320 0.83442 -0.12752
 C741 C 0.49330 0.81632 -0.10914
 C742 C 0.48970 0.82265 -0.08403
 C743 C 0.48607 0.84735 -0.07746
 C744 C 0.48611 0.86557 -0.09564
 C745 C 0.49660 0.84675 -0.17098
 C746 C 0.49661 0.82854 -0.15270
 C747 C 0.48304 0.90852 -0.10759
 C748 C 0.48282 0.89031 -0.08935
 H749 H 0.49930 0.84142 -0.19017
 H750 H 0.49933 0.80969 -0.15832
 H751 H 0.48048 0.92739 -0.10195
 H752 H 0.48010 0.89565 -0.07016
 H753 H 0.48474 0.93974 -0.14553
 H754 H 0.49571 0.88478 -0.20220
 H755 H 0.49593 0.79734 -0.11435
 H756 H 0.48366 0.85242 -0.05815
 C757 C 0.99219 0.35111 0.37245
 C758 C 0.96995 0.34430 0.38309
 C759 C 0.96958 0.32687 0.40208
 C760 C 0.99130 0.31618 0.41080
 C761 C 1.01344 0.32306 0.39923
 C762 C 1.01396 0.34053 0.38026
 C763 C 0.99273 0.37007 0.35307
 C764 C 1.01506 0.37732 0.34283
 C765 C 1.01554 0.39591 0.32500
 C766 C 0.99388 0.40730 0.31749
 C767 C 0.97162 0.39946 0.32767
 C768 C 0.97095 0.38092 0.34553
 C769 C 1.03594 0.34804 0.36935
 C770 C 1.03648 0.36612 0.35096
 C771 C 0.94848 0.35526 0.37473
 C772 C 0.94897 0.37326 0.35627
 H773 H 1.05291 0.34003 0.37523
 H774 H 1.05383 0.37153 0.34320
 H775 H 0.93115 0.35007 0.38271
 H776 H 0.93202 0.38143 0.35055
 H777 H 0.95215 0.32136 0.40950
 H778 H 1.03057 0.31606 0.40574
 H779 H 1.03278 0.40199 0.31753
 H780 H 0.95483 0.40785 0.32176
 C781 C 0.49992 0.87665 0.14622
 C782 C 0.52222 0.88618 0.15355
 C783 C 0.52262 0.90493 0.17130
 C784 C 0.50087 0.91436 0.18195
 C785 C 0.47865 0.90397 0.17451
 C786 C 0.47810 0.88535 0.15660
 C787 C 0.49940 0.85741 0.12703
 C788 C 0.47703 0.84828 0.11925
 C789 C 0.47661 0.83046 0.10053
 C790 C 0.49836 0.82169 0.08964
 C791 C 0.52064 0.83082 0.09801
 C792 C 0.52125 0.84877 0.11658
 C793 C 0.45607 0.87558 0.14852
 C794 C 0.45554 0.85740 0.13013
 C795 C 0.54375 0.87686 0.14288
 C796 C 0.54327 0.85845 0.12473
 H797 H 0.43906 0.88217 0.15635
 H798 H 0.43816 0.85050 0.12432
 H799 H 0.56111 0.88398 0.14847
 H800 H 0.56028 0.85191 0.11686
 H801 H 0.54006 0.91153 0.17722
 H802 H 0.46154 0.91111 0.18148
 H803 H 0.45933 0.82388 0.09404
 H804 H 0.53751 0.82397 0.09009
 C805 C -0.00048 0.36519 0.62095
 C806 C -0.00742 0.34146 0.62768
 C807 C -0.00860 0.32329 0.60935
 C808 C -0.00285 0.32874 0.58445
 C809 C 0.00406 0.35268 0.57808
 C810 C 0.00527 0.37097 0.59624
 C811 C 0.00077 0.38438 0.64012
 C812 C 0.00766 0.40811 0.63335
 C813 C 0.00876 0.42630 0.65162
 C814 C 0.00306 0.42092 0.67654
 C815 C -0.00384 0.39698 0.68298
 C816 C -0.00501 0.37864 0.66483
 C817 C 0.01207 0.39493 0.59019
 C818 C 0.01323 0.41319 0.60843
 C819 C -0.01301 0.33639 0.65261
 C820 C -0.01182 0.35466 0.67087
 H821 H 0.01652 0.39962 0.57118
 H822 H 0.01855 0.43145 0.60298
 H823 H -0.01837 0.31815 0.65805
 H824 H -0.01630 0.34998 0.68987
 H825 H -0.01367 0.30487 0.61448
 H826 H 0.00816 0.35715 0.55893
 H827 H 0.01369 0.44473 0.64638
 H828 H -0.00802 0.39260 0.70213
 C829 C 0.50583 0.12561 0.85320
 C830 C 0.48304 0.11697 0.84615
 C831 C 0.48175 0.09793 0.82880
 C832 C 0.50303 0.08755 0.81843
 C833 C 0.52575 0.09665 0.82557
 C834 C 0.52724 0.11563 0.84301
 C835 C 0.50729 0.14526 0.87188
 C836 C 0.53009 0.15359 0.87930
 C837 C 0.53137 0.17183 0.89756
 C838 C 0.51006 0.18170 0.90835
 C839 C 0.48735 0.17333 0.90040
 C840 C 0.48587 0.15504 0.88225
 C841 C 0.54972 0.12468 0.85065
 C842 C 0.55112 0.14332 0.86851
 C843 C 0.46200 0.12733 0.85683
 C844 C 0.46339 0.14607 0.87455
 H845 H 0.56638 0.11716 0.84291
 H846 H 0.56881 0.14962 0.87403
 H847 H 0.44431 0.12082 0.85153
 H848 H 0.44673 0.15346 0.88243
 H849 H 0.46419 0.09084 0.82380
 H850 H 0.54223 0.08902 0.81752
 H851 H 0.54891 0.17832 0.90341
 H852 H 0.47087 0.18053 0.90885
 C853 C 1.00923 0.63817 0.37530
 C854 C 1.00449 0.66240 0.36828
 C855 C 1.00474 0.68090 0.38633
 C856 C 1.00978 0.67527 0.41120
 C857 C 1.01468 0.65087 0.41783
 C858 C 1.01435 0.63224 0.39998
 C859 C 1.00860 0.61858 0.35650
 C860 C 1.01301 0.59433 0.36361
 C861 C 1.01203 0.57573 0.34576
 C862 C 1.00679 0.58121 0.32089
 C863 C 1.00256 0.60571 0.31408
 C864 C 1.00337 0.62446 0.33183
 C865 C 1.01880 0.60777 0.40635
 C866 C 1.01811 0.58913 0.38848
 C867 C 0.99946 0.66759 0.34338
 C868 C 0.99895 0.64895 0.32546
 H869 H 1.02274 0.60298 0.42534
 H870 H 1.02154 0.57048 0.39419
 H871 H 0.99582 0.68621 0.33772
 H872 H 0.99492 0.65373 0.30649
 H873 H 1.00116 0.69965 0.38104
 H874 H 1.01821 0.64633 0.43698
 H875 H 1.01489 0.55694 0.35134
 H876 H 0.99879 0.61019 0.29497
 C877 C 1.14292 0.48798 0.12021
 C878 C 1.14076 0.47387 0.09868
 C879 C 1.15922 0.47449 0.08064
 C880 C 1.18018 0.48898 0.08383
 C881 C 1.18193 0.50281 0.10602
 C882 C 1.16337 0.50247 0.12406
 C883 C 1.12321 0.48782 0.13895
 C884 C 1.12516 0.50229 0.16034
 C885 C 1.10607 0.50256 0.17778
 C886 C 1.08515 0.48844 0.17395
 C887 C 1.08379 0.47368 0.15257
 C888 C 1.10266 0.47345 0.13495
 C889 C 1.16484 0.51645 0.14588
 C890 C 1.14603 0.51642 0.16367
 C891 C 1.11995 0.45961 0.09538
 C892 C 1.10126 0.45934 0.11325
 H893 H 1.18057 0.52770 0.14915
 H894 H 1.14780 0.52764 0.18011
 H895 H 1.11805 0.44860 0.07881
 H896 H 1.08549 0.44816 0.10994
 H897 H 1.15639 0.46443 0.06366
 H898 H 1.19792 0.51339 0.10989
 H899 H 1.10723 0.51422 0.19398
 H900 H 1.06804 0.46237 0.14961
 C901 C 0.61977 -0.01195 0.64067
 C902 C 0.59760 -0.02284 0.63494
 C903 C 0.57880 -0.02259 0.65261
 C904 C 0.58162 -0.01076 0.67566
 C905 C 0.60415 -0.00006 0.68113
 C906 C 0.62333 -0.00080 0.66377
 C907 C 0.63950 -0.01189 0.62196
 C908 C 0.66178 -0.00121 0.62771
 C909 C 0.68043 -0.00109 0.60975
 C910 C 0.67671 -0.01094 0.58589
 C911 C 0.65404 -0.02140 0.58055
 C912 C 0.63556 -0.02222 0.59856
 C913 C 0.64591 0.00970 0.66888
 C914 C 0.66485 0.00935 0.65122
 C915 C 0.59452 -0.03346 0.61147
 C916 C 0.61312 -0.03298 0.59352
 H917 H 0.64894 0.01831 0.68666
 H918 H 0.68195 0.01767 0.65592
 H919 H 0.57747 -0.04191 0.60682
 H920 H 0.60989 -0.04110 0.57554
 H921 H 0.56192 -0.03152 0.64828
 H922 H 0.60663 0.00938 0.69856
 H923 H 0.69778 0.00665 0.61445
 H924 H 0.65048 -0.02852 0.56223
 C925 C -0.14005 0.50846 0.87687
 C926 C -0.14817 0.53094 0.88657
 C927 C -0.16676 0.53122 0.90454
 C928 C -0.17706 0.50921 0.91303
 C929 C -0.16873 0.48684 0.90292
 C930 C -0.15028 0.48637 0.88482
 C931 C -0.12023 0.50802 0.85827
 C932 C -0.11200 0.48553 0.84870
 C933 C -0.09296 0.48519 0.83124
 C934 C -0.08198 0.50712 0.82349
 C935 C -0.09058 0.52953 0.83327
 C936 C -0.10972 0.53008 0.85061
 C937 C -0.14165 0.46423 0.87473
 C938 C -0.12287 0.46382 0.85693
 C939 C -0.13736 0.55265 0.87827
 C940 C -0.11843 0.55223 0.86063
 H941 H -0.14942 0.44706 0.88069
 H942 H -0.11670 0.44635 0.84967
 H943 H -0.14347 0.57012 0.88559
 H944 H -0.11049 0.56938 0.85486
 H945 H -0.17322 0.54856 0.91190
 H946 H -0.17618 0.46976 0.90956
 H947 H -0.08678 0.46788 0.82360
 H948 H -0.08207 0.54650 0.82779
 C949 C 0.37637 0.00639 0.35930
 C950 C 0.38467 -0.01624 0.35013
 C951 C 0.40361 -0.01681 0.33257
 C952 C 0.41444 0.00502 0.32432
 C953 C 0.40576 0.02757 0.33367
 C954 C 0.38671 0.02835 0.35113
 C955 C 0.35665 0.00708 0.37801
 C956 C 0.34845 0.02969 0.38731
 C957 C 0.32990 0.03021 0.40534
 C958 C 0.31969 0.00830 0.41423
 C959 C 0.32815 -0.01420 0.40456
 C960 C 0.34656 -0.01491 0.38642
 C961 C 0.37794 0.05064 0.36077
 C962 C 0.35910 0.05130 0.37852
 C963 C 0.37396 -0.03784 0.35884
 C964 C 0.35526 -0.03720 0.37672
 H965 H 0.38575 0.06772 0.35461
 H966 H 0.35294 0.06887 0.38553
 H967 H 0.38018 -0.05542 0.35190
 H968 H 0.34761 -0.05429 0.38306
 H969 H 0.40985 -0.03424 0.32526
 H970 H 0.41415 0.04447 0.32777
 H971 H 0.32336 0.04764 0.41239
 H972 H 0.32079 -0.03120 0.41152
 C973 C 0.14843 0.49914 0.87565
 C974 C 0.16030 0.52072 0.88239
 C975 C 0.17821 0.51979 0.90056
 C976 C 0.18418 0.49750 0.91205
 C977 C 0.17225 0.47598 0.90483
 C978 C 0.15433 0.47671 0.88667
 C979 C 0.12920 0.50010 0.85697
 C980 C 0.11712 0.47857 0.85047
 C981 C 0.09855 0.47966 0.83303
 C982 C 0.09197 0.50210 0.82219
 C983 C 0.10444 0.52349 0.82881
 C984 C 0.12306 0.52260 0.84622
 C985 C 0.14194 0.45552 0.87955
 C986 C 0.12366 0.45643 0.86175
 C987 C 0.15385 0.54284 0.87101
 C988 C 0.13553 0.54376 0.85324
 H989 H 0.14633 0.43810 0.88792
 H990 H 0.11447 0.43969 0.85689
 H991 H 0.16290 0.55961 0.87602
 H992 H 0.13100 0.56122 0.84504
 H993 H 0.18748 0.53639 0.90576
 H994 H 0.17644 0.45880 0.91379
 H995 H 0.08885 0.46316 0.82833
 H996 H 0.09970 0.54078 0.82036
 C997 C 0.62496 0.00087 0.35861
 C998 C 0.61806 0.02322 0.34803
 C999 C 0.59954 0.02358 0.33048
 C1000 C 0.58785 0.00180 0.32360
 C1001 C 0.59511 -0.02045 0.33441
 C1002 C 0.61365 -0.02102 0.35188
 C1003 C 0.64421 0.00042 0.37729
 C1004 C 0.65097 -0.02192 0.38799
 C1005 C 0.66901 -0.02222 0.40601
 C1006 C 0.68017 -0.00036 0.41348
 C1007 C 0.67325 0.02187 0.40244
 C1008 C 0.65528 0.02236 0.38431
 C1009 C 0.62098 -0.04303 0.36293
 C1010 C 0.63934 -0.04347 0.38066
 C1011 C 0.62974 0.04477 0.35533
 C1012 C 0.64801 0.04435 0.37318
 H1013 H 0.61239 -0.06005 0.35788
 H1014 H 0.64438 -0.06082 0.38879
 H1015 H 0.62461 0.06213 0.34729
 H1016 H 0.65644 0.06140 0.37840
 H1017 H 0.59433 0.04075 0.32208
 H1018 H 0.58600 -0.03726 0.32960
 H1019 H 0.67395 -0.03935 0.41466
 H1020 H 0.68189 0.03874 0.40792
 C1021 C 0.85281 0.50135 0.12629
 C1022 C 0.84552 0.47930 0.11542
 C1023 C 0.82814 0.47982 0.09672
 C1024 C 0.81826 0.50219 0.08866
 C1025 C 0.82561 0.52411 0.10003
 C1026 C 0.84288 0.52379 0.11885
 C1027 C 0.87157 0.50097 0.14549
 C1028 C 0.87916 0.52304 0.15608
 C1029 C 0.89749 0.52263 0.17382
 C1030 C 0.90841 0.50037 0.18078
 C1031 C 0.90030 0.47838 0.17015
 C1032 C 0.88189 0.47858 0.15251
 C1033 C 0.85072 0.54548 0.13009
 C1034 C 0.86853 0.54511 0.14842
 C1035 C 0.85600 0.45722 0.12322
 C1036 C 0.87392 0.45686 0.14142
 H1037 H 0.84317 0.56291 0.12454
 H1038 H 0.87420 0.56227 0.15648
 H1039 H 0.85049 0.44008 0.11500
 H1040 H 0.88172 0.43946 0.14671
 H1041 H 0.82237 0.46281 0.08840
 H1042 H 0.81842 0.54146 0.09377
 H1043 H 0.90333 0.53963 0.18210
 H1044 H 0.90880 0.46118 0.17501
 C1045 C 0.36749 0.00153 0.64652
 C1046 C 0.37488 0.02377 0.65690
 C1047 C 0.39317 0.02370 0.67468
 C1048 C 0.40431 0.00162 0.68186
 C1049 C 0.39639 -0.02056 0.67145
 C1050 C 0.37798 -0.02070 0.65380
 C1051 C 0.34876 0.00156 0.62729
 C1052 C 0.34162 -0.02065 0.61666
 C1053 C 0.32422 -0.02046 0.59796
 C1054 C 0.31419 0.00176 0.58965
 C1055 C 0.32145 0.02385 0.60075
 C1056 C 0.33869 0.02385 0.61959
 C1057 C 0.37017 -0.04259 0.64292
 C1058 C 0.35226 -0.04257 0.62471
 C1059 C 0.36411 0.04567 0.64899
 C1060 C 0.34636 0.04572 0.63061
 H1061 H 0.37810 -0.05987 0.64840
 H1062 H 0.34688 -0.05984 0.61667
 H1063 H 0.36963 0.06296 0.65688
 H1064 H 0.33870 0.06303 0.62486
 H1065 H 0.39883 0.04083 0.68280
 H1066 H 0.40503 -0.03763 0.67649
 H1067 H 0.31854 -0.03760 0.58985
 H1068 H 0.31420 0.04110 0.59429
   
