data_POSCAR
  _audit_creation_date              2014-09-24
  _audit_creation_method            'ToBaCCo'
  _symmetry_space_group_name_H-M    'P1'
  _symmetry_Int_Tables_number       1
  _symmetry_cell_setting            triclinic
  loop_
  _symmetry_equiv_pos_as_xyz
 x,y,z
_cell_length_a 23.0059
_cell_length_b 23.1749
_cell_length_c 42.6189
_cell_angle_alpha 89.765200
_cell_angle_beta 94.876700
_cell_angle_gamma 89.046000
loop_
  _atom_site_label
  _atom_site_type_symbol
  _atom_site_fract_x
  _atom_site_fract_y
  _atom_site_fract_z
C1 C 0.00891 0.65487 0.99945
 C2 C -0.00483 0.62655 1.02709
 C3 C -0.00879 0.56589 1.02645
 C4 C 0.00664 0.53350 1.00030
 C5 C 0.02286 0.56377 0.97367
 C6 C 0.02224 0.62449 0.97238
 C7 C 0.00778 0.46840 1.00112
 C8 C 0.00540 0.43598 0.97298
 C9 C 0.01077 0.37555 0.97369
 C10 C 0.01363 0.34665 1.00270
 C11 C 0.01359 0.37725 1.03094
 C12 C 0.01256 0.43778 1.03006
 H13 H 0.00436 0.70131 0.99824
 H14 H -0.02155 0.54373 1.04693
 H15 H 0.03890 0.54031 0.95429
 H16 H 0.00035 0.45707 0.95025
 H17 H 0.01454 0.29989 1.00319
 H18 H 0.01684 0.46010 1.05229
 C19 C 0.34225 0.00236 0.50300
 C20 C 0.37916 -0.00302 0.53072
 C21 C 0.43973 -0.00120 0.52908
 C22 C 0.46408 0.00949 0.50026
 C23 C 0.42533 0.01696 0.47286
 C24 C 0.36488 0.01095 0.47390
 C25 C 0.52929 0.01090 0.49863
 C26 C 0.55423 0.00003 0.47003
 C27 C 0.61503 0.00016 0.46809
 C28 C 0.65110 0.00787 0.49606
 C29 C 0.62833 0.01600 0.52538
 C30 C 0.56722 0.02067 0.52588
 H31 H 0.29541 0.00075 0.50407
 H32 H 0.46709 -0.00980 0.55048
 H33 H 0.44150 0.02629 0.45037
 H34 H 0.52669 -0.01173 0.44939
 H35 H 0.69752 0.01210 0.49475
 H36 H 0.54915 0.02934 0.54787
 C37 C 0.07308 0.00449 0.26612
 H38 H 0.07813 0.00473 0.24111
 C39 C 0.12217 0.00851 0.28774
 H40 H 0.16525 0.01130 0.27944
 C41 C 0.01090 0.00129 0.30770
 H42 H -0.03242 -0.00062 0.31552
 C43 C 0.05861 0.00530 0.33000
 H44 H 0.05177 0.00565 0.35484
 N45 N 0.01885 0.00023 0.27642
 C46 C -0.09433 -0.08300 0.20313
 H47 H -0.13172 -0.05398 0.20262
 C48 C -0.09454 -0.12952 0.18243
 H49 H -0.13207 -0.13625 0.16579
 C50 C 0.00146 -0.10809 0.22437
 H51 H 0.03891 -0.09938 0.24057
 C52 C 0.00306 -0.15514 0.20403
 H53 H 0.04204 -0.18209 0.20437
 Zn54 Zn -0.04729 -0.00339 0.24674
 N55 N -0.04612 -0.07215 0.22286
 C56 C -0.04318 0.05218 0.18801
 N57 N -0.04517 0.06132 0.21944
 C58 C -0.04022 0.11537 0.23172
 C59 C -0.03298 0.16285 0.21207
 C60 C -0.03618 0.09824 0.16764
 C61 C -0.12508 -0.05354 0.28424
 C62 C -0.17015 -0.05639 0.30404
 C63 C -0.19702 0.04224 0.29003
 C64 C -0.15140 0.04321 0.27029
 N65 N -0.11561 -0.00384 0.26850
 H66 H -0.04537 0.00904 0.17865
 H67 H -0.04043 0.12137 0.25687
 H68 H -0.02822 0.20562 0.22201
 H69 H -0.03388 0.09025 0.14273
 H70 H -0.09590 -0.09023 0.28240
 H71 H -0.17565 -0.09536 0.31753
 H72 H -0.22373 0.08061 0.29254
 H73 H -0.14332 0.08212 0.25744
 C74 C -0.04496 -0.16521 0.18247
 C75 C 0.11471 0.00876 0.31998
 C76 C -0.20569 -0.00775 0.30748
 C77 C -0.03059 0.15396 0.17974
 C78 C 0.03286 0.11648 0.76874
 H79 H 0.03246 0.12386 0.74364
 C80 C 0.02961 0.16336 0.78921
 H81 H 0.02733 0.20701 0.77996
 C82 C 0.03471 0.05077 0.81163
 H83 H 0.03532 0.00702 0.82039
 C84 C 0.03151 0.09614 0.83278
 H85 H 0.03063 0.08698 0.85769
 N86 N 0.03591 0.06149 0.78027
 C87 C 0.11157 -0.05216 0.71257
 H88 H 0.08168 -0.08746 0.71390
 C89 C 0.15603 -0.05571 0.69237
 H90 H 0.16042 -0.09384 0.67807
 C91 C 0.14061 0.04178 0.72850
 H92 H 0.13404 0.07982 0.74240
 C93 C 0.18571 0.04005 0.70842
 H94 H 0.21354 0.07699 0.70672
 Zn95 Zn 0.03665 -0.00208 0.75235
 N96 N 0.10374 -0.00343 0.72951
 C97 C -0.02356 0.00861 0.69227
 N98 N -0.03078 0.00417 0.72355
 C99 C -0.08494 0.00666 0.73423
 C100 C -0.13462 0.01188 0.71293
 C101 C -0.07178 0.01398 0.67033
 C102 C 0.08815 -0.08344 0.79433
 C103 C 0.09170 -0.13080 0.81473
 C104 C -0.00671 -0.15526 0.79564
 C105 C -0.00840 -0.10736 0.77547
 N106 N 0.03810 -0.07171 0.77588
 H107 H 0.01960 0.00835 0.68416
 H108 H -0.08949 0.00436 0.75926
 H109 H -0.17763 0.01298 0.72148
 H110 H -0.06541 0.01683 0.64547
 H111 H 0.12458 -0.05458 0.79399
 H112 H 0.13087 -0.13835 0.83028
 H113 H -0.04468 -0.18215 0.79620
 H114 H -0.04739 -0.09789 0.76028
 C115 C 0.19276 -0.00883 0.68983
 C116 C 0.02893 0.15289 0.82155
 C117 C 0.04349 -0.16641 0.81582
 C118 C -0.12777 0.01531 0.68066
 C119 C -0.02824 -0.27549 0.10948
 C120 C 0.00731 -0.25556 0.08698
 C121 C 0.01478 -0.28775 0.06005
 C122 C -0.01338 -0.34112 0.05473
 C123 C -0.04879 -0.36098 0.07803
 C124 C -0.05625 -0.32827 0.10504
 C125 C -0.03612 -0.24030 0.13657
 C126 C -0.04093 -0.20764 0.15817
 H127 H 0.02965 -0.21495 0.09032
 H128 H 0.04477 -0.27128 0.04409
 H129 H -0.07301 -0.40043 0.07509
 H130 H -0.08435 -0.34389 0.12226
 C131 C 0.00034 0.27654 0.11464
 C132 C -0.03306 0.32732 0.10969
 C133 C -0.02676 0.36175 0.08316
 C134 C 0.01269 0.34540 0.06118
 C135 C 0.04768 0.29558 0.06707
 C136 C 0.04147 0.26141 0.09360
 C137 C -0.01084 0.23689 0.13943
 C138 C -0.02013 0.20067 0.15869
 H139 H -0.06533 0.33923 0.12570
 H140 H -0.05463 0.39961 0.07905
 H141 H 0.07886 0.28233 0.05073
 H142 H 0.06746 0.22213 0.09715
 C143 C 0.29758 -0.01306 0.61742
 C144 C 0.34609 0.02200 0.61534
 C145 C 0.37427 0.02355 0.58750
 C146 C 0.35385 -0.00964 0.56139
 C147 C 0.30634 -0.04617 0.56414
 C148 C 0.27844 -0.04780 0.59195
 C149 C 0.26441 -0.01082 0.64455
 C150 C 0.23344 -0.00942 0.66598
 H151 H 0.36108 0.04929 0.63486
 H152 H 0.41045 0.05243 0.58592
 H153 H 0.29016 -0.07272 0.54455
 H154 H 0.24092 -0.07508 0.59330
 C155 C -0.25640 0.01877 0.60897
 C156 C -0.24108 -0.01097 0.58244
 C157 C -0.27889 -0.01160 0.55514
 C158 C -0.33349 0.01784 0.55349
 C159 C -0.34860 0.04732 0.58079
 C160 C -0.31022 0.04791 0.60818
 C161 C -0.21524 0.01966 0.63633
 C162 C -0.17713 0.01849 0.65758
 H163 H -0.19967 -0.03411 0.58287
 H164 H -0.26566 -0.03745 0.53582
 H165 H -0.38878 0.07212 0.58093
 H166 H -0.32229 0.07158 0.62857
 C167 C 0.04390 -0.27997 0.88904
 C168 C 0.02419 -0.33667 0.88690
 C169 C 0.01932 -0.36927 0.91428
 C170 C 0.03321 -0.34525 0.94443
 C171 C 0.05559 -0.28875 0.94584
 C172 C 0.06065 -0.25665 0.91850
 C173 C 0.04404 -0.24377 0.86155
 C174 C 0.04376 -0.21013 0.83988
 H175 H 0.01090 -0.35510 0.86415
 H176 H 0.00095 -0.41182 0.91157
 H177 H 0.07013 -0.26903 0.96804
 H178 H 0.07673 -0.21300 0.92042
 C179 C 0.02225 0.27384 0.89030
 C180 C 0.06078 0.26368 0.91699
 C181 C 0.05739 0.29744 0.94380
 C182 C 0.01525 0.34199 0.94439
 C183 C -0.02249 0.35304 0.91721
 C184 C -0.01916 0.31888 0.89032
 C185 C 0.02346 0.23506 0.86406
 C186 C 0.02558 0.19929 0.84370
 H187 H 0.09288 0.22888 0.91728
 H188 H 0.08761 0.28855 0.96420
 H189 H -0.05554 0.38687 0.91709
 H190 H -0.04951 0.32685 0.86985
 C191 C -0.30613 -0.01052 0.38163
 C192 C -0.27668 -0.03157 0.40941
 C193 C -0.30322 -0.02977 0.43760
 C194 C -0.36020 -0.00647 0.43881
 C195 C -0.39045 0.01219 0.41013
 C196 C -0.36338 0.01056 0.38188
 C197 C -0.27553 -0.00862 0.35357
 C198 C -0.24577 -0.00765 0.33162
 H199 H -0.23257 -0.04877 0.40940
 H200 H -0.27891 -0.04779 0.45829
 H201 H -0.43369 0.03145 0.40954
 H202 H -0.38657 0.02713 0.36046
 C203 C 0.24599 0.01096 0.39047
 C204 C 0.24209 -0.03065 0.41399
 C205 C 0.28122 -0.03074 0.44083
 C206 C 0.32495 0.01095 0.44465
 C207 C 0.32948 0.05206 0.42062
 C208 C 0.28996 0.05218 0.39369
 C209 C 0.20269 0.01212 0.36402
 C210 C 0.16385 0.01133 0.34317
 H211 H 0.20827 -0.06273 0.41177
 H212 H 0.27730 -0.06353 0.45868
 H213 H 0.36256 0.08481 0.42302
 H214 H 0.29317 0.08479 0.37567
   
