data_POSCAR
  _audit_creation_date              2014-09-24
  _audit_creation_method            'ToBaCCo'
  _symmetry_space_group_name_H-M    'P1'
  _symmetry_Int_Tables_number       1
  _symmetry_cell_setting            triclinic
  loop_
  _symmetry_equiv_pos_as_xyz
 x,y,z
_cell_length_a 39.3488
_cell_length_b 11.0761
_cell_length_c 12.3996
_cell_angle_alpha 84.306200
_cell_angle_beta 89.839400
_cell_angle_gamma 96.910500
loop_
  _atom_site_label
  _atom_site_type_symbol
  _atom_site_fract_x
  _atom_site_fract_y
  _atom_site_fract_z
C1 C 0.74543 0.20313 0.46208
 C2 C 0.74035 0.20183 0.57138
 C3 C 0.70831 0.23331 0.61979
 C4 C 0.76709 0.16885 0.64832
 C5 C 0.77856 0.17956 0.41534
 C6 C 0.71825 0.22558 0.38204
 C7 C 0.69435 0.33913 0.58036
 C8 C 0.66269 0.36296 0.61933
 C9 C 0.64513 0.28322 0.70114
 C10 C 0.66012 0.18152 0.74619
 C11 C 0.69160 0.15700 0.70617
 C12 C 0.78088 0.25277 0.71907
 C13 C 0.80825 0.22618 0.78510
 C14 C 0.82137 0.11408 0.78246
 C15 C 0.80666 0.02902 0.71529
 C16 C 0.77962 0.05561 0.64876
 C17 C 0.77868 0.08710 0.34600
 C18 C 0.80898 0.06777 0.29573
 C19 C 0.83967 0.14018 0.31360
 C20 C 0.83992 0.23266 0.38342
 C21 C 0.80943 0.25229 0.43389
 C22 C 0.68593 0.15632 0.39089
 C23 C 0.66060 0.18030 0.31578
 C24 C 0.66731 0.27379 0.23009
 C25 C 0.69998 0.33931 0.21872
 C26 C 0.72538 0.31423 0.29322
 H27 H 0.70764 0.39968 0.51627
 H28 H 0.65092 0.43979 0.58176
 H29 H 0.64644 0.11678 0.80729
 H30 H 0.70207 0.07522 0.73896
 H31 H 0.77132 0.34039 0.71993
 H32 H 0.81966 0.29363 0.83599
 H33 H 0.76949 -0.00989 0.59447
 H34 H 0.75516 0.03045 0.33038
 H35 H 0.80857 -0.00357 0.24182
 H36 H 0.86339 0.29001 0.39791
 H37 H 0.80981 0.32488 0.48612
 H38 H 0.68022 0.08497 0.45659
 H39 H 0.63552 0.12829 0.32673
 H40 H 0.70550 0.41184 0.15361
 H41 H 0.75052 0.36529 0.28270
 H42 H 0.81782 -0.05431 0.70908
 C43 C 0.25640 0.77276 0.45470
 C44 C 0.25167 0.77762 0.56408
 C45 C 0.21908 0.80682 0.61285
 C46 C 0.27929 0.75984 0.64342
 C47 C 0.29001 0.75371 0.40436
 C48 C 0.22781 0.79066 0.37858
 C49 C 0.22115 0.88778 0.69377
 C50 C 0.19168 0.91463 0.74388
 C51 C 0.15943 0.86841 0.70989
 C52 C 0.15676 0.78493 0.63133
 C53 C 0.18648 0.75177 0.58553
 C54 C 0.31100 0.83296 0.63329
 C55 C 0.33721 0.80995 0.70528
 C56 C 0.33178 0.71467 0.78984
 C57 C 0.29938 0.64762 0.80445
 C58 C 0.27327 0.67000 0.73184
 C59 C 0.31150 0.67081 0.45229
 C60 C 0.34347 0.66091 0.40590
 C61 C 0.35347 0.72616 0.30603
 C62 C 0.33164 0.80441 0.25536
 C63 C 0.30068 0.82002 0.30477
 C64 C 0.21274 0.69243 0.32460
 C65 C 0.18223 0.70140 0.26792
 C66 C 0.16767 0.81117 0.25866
 C67 C 0.18429 0.91224 0.30531
 C68 C 0.21384 0.90184 0.36617
 H69 H 0.24570 0.93006 0.71907
 H70 H 0.19391 0.97348 0.80882
 H71 H 0.13195 0.74456 0.60652
 H72 H 0.18388 0.68401 0.52848
 H73 H 0.31587 0.90346 0.56636
 H74 H 0.36201 0.86350 0.69223
 H75 H 0.24864 0.61452 0.74241
 H76 H 0.30362 0.61248 0.52535
 H77 H 0.35949 0.59715 0.44483
 H78 H 0.33857 0.85294 0.17674
 H79 H 0.28482 0.88333 0.26415
 H80 H 0.22372 0.60721 0.33102
 H81 H 0.16978 0.62284 0.23200
 H82 H 0.17324 0.99699 0.29890
 H83 H 0.22496 0.97845 0.40749
 H84 H 0.29481 0.57430 0.86927
 C85 C 0.24095 0.27459 -0.46529
 C86 C 0.24427 0.27422 -0.57538
 C87 C 0.27807 0.27021 -0.62712
 C88 C 0.21507 0.28484 -0.64977
 C89 C 0.20906 0.30614 -0.41498
 C90 C 0.27021 0.25246 -0.39250
 C91 C 0.30608 0.35411 -0.60427
 C92 C 0.33888 0.33919 -0.63827
 C93 C 0.34382 0.24198 -0.69751
 C94 C 0.31575 0.16398 -0.72880
 C95 C 0.28281 0.17867 -0.69441
 C96 C 0.21907 0.36794 -0.74358
 C97 C 0.19116 0.38637 -0.80953
 C98 C 0.15909 0.32162 -0.78259
 C99 C 0.15517 0.23493 -0.69216
 C100 C 0.18313 0.21554 -0.62660
 C101 C 0.19305 0.23008 -0.32774
 C102 C 0.16017 0.24610 -0.29241
 C103 C 0.14349 0.34091 -0.34277
 C104 C 0.16055 0.42328 -0.42354
 C105 C 0.19343 0.40769 -0.45776
 C106 C 0.29004 0.15659 -0.40490
 C107 C 0.32212 0.15591 -0.35621
 C108 C 0.33373 0.24560 -0.28895
 C109 C 0.31236 0.33425 -0.26823
 C110 C 0.28104 0.33798 -0.31999
 H111 H 0.30267 0.42565 -0.55380
 H112 H 0.36064 0.39912 -0.61366
 H113 H 0.31955 0.08909 -0.77562
 H114 H 0.26137 0.11533 -0.71574
 H115 H 0.24347 0.42212 -0.76345
 H116 H 0.19428 0.45412 -0.87924
 H117 H 0.17966 0.14852 -0.55646
 H118 H 0.20564 0.15597 -0.29044
 H119 H 0.14741 0.18257 -0.22871
 H120 H 0.14781 0.49672 -0.46294
 H121 H 0.20592 0.47084 -0.52167
 H122 H 0.28178 0.08758 -0.45844
 H123 H 0.33843 0.08803 -0.37300
 H124 H 0.32075 0.40494 -0.21662
 H125 H 0.26625 0.41211 -0.30855
 H126 H 0.13034 0.18433 -0.67112
 C127 C -0.24646 0.67348 -0.43930
 C128 C -0.24311 0.68805 -0.55060
 C129 C -0.20862 0.70097 -0.60230
 C130 C -0.27291 0.69842 -0.62593
 C131 C -0.27809 0.70381 -0.38683
 C132 C -0.21687 0.64708 -0.36658
 C133 C -0.18282 0.79113 -0.57422
 C134 C -0.14920 0.79114 -0.61039
 C135 C -0.14125 0.70210 -0.67573
 C136 C -0.16725 0.61754 -0.71009
 C137 C -0.20092 0.61799 -0.67448
 C138 C -0.26867 0.77414 -0.72456
 C139 C -0.29625 0.78650 -0.79420
 C140 C -0.32851 0.72244 -0.76748
 C141 C -0.33293 0.64456 -0.67161
 C142 C -0.30542 0.63252 -0.60196
 C143 C -0.29590 0.62212 -0.30591
 C144 C -0.32752 0.64631 -0.26560
 C145 C -0.34088 0.75396 -0.30397
 C146 C -0.32213 0.83872 -0.37907
 C147 C -0.29098 0.81434 -0.42010
 C148 C -0.19254 0.57064 -0.39392
 C149 C -0.16071 0.57391 -0.34231
 C150 C -0.15363 0.64651 -0.25694
 C151 C -0.18017 0.70630 -0.21806
 C152 C -0.21117 0.70757 -0.27278
 H153 H -0.18847 0.85748 -0.52023
 H154 H -0.12921 0.85735 -0.58401
 H155 H -0.16128 0.54859 -0.76094
 H156 H -0.22064 0.54999 -0.69847
 H157 H -0.24421 0.82639 -0.74691
 H158 H -0.29261 0.84859 -0.86764
 H159 H -0.31011 0.57472 -0.52769
 H160 H -0.28605 0.53763 -0.27758
 H161 H -0.34183 0.58011 -0.20710
 H162 H -0.33228 0.92223 -0.40840
 H163 H -0.27760 0.87974 -0.48114
 H164 H -0.19711 0.51535 -0.46053
 H165 H -0.14114 0.52433 -0.37217
 H166 H -0.17599 0.76140 -0.15083
 H167 H -0.22957 0.76389 -0.24597
 H168 H -0.35788 0.59588 -0.64907
 O169 O 0.04167 0.86272 -0.21751
 O170 O 0.08079 1.00351 -0.14663
 C171 C 0.07248 0.91769 -0.20931
 O172 O -0.06544 1.20985 -0.15439
 O173 O -0.09206 1.05669 -0.03385
 C174 C -0.09245 1.14752 -0.10841
 O175 O 0.02707 1.28197 -0.23443
 O176 O 0.07409 1.20459 -0.15954
 C177 C 0.05978 1.27703 -0.22930
 O178 O -0.05316 0.78045 -0.14964
 O179 O -0.08529 0.85553 -0.02288
 C180 C -0.08213 0.78733 -0.09976
 Zr181 Zr -0.00343 0.88044 -0.12873
 O182 O -0.01580 0.87234 -0.29404
 O183 O 0.00367 0.69357 -0.10854
 Zr184 Zr -0.01363 1.18076 -0.14005
 O185 O -0.02837 1.17406 -0.30373
 O186 O -0.01720 1.37085 -0.15354
 O187 O 0.01983 1.05786 -0.17706
 O188 O -0.03846 1.00527 -0.13271
 O189 O -0.02525 0.76531 0.22052
 O190 O -0.07239 0.84800 0.15197
 C191 C -0.05797 0.76938 0.21566
 O192 O 0.05047 1.28871 0.14233
 O193 O 0.08526 1.21015 0.02490
 C194 C 0.07964 1.28600 0.09451
 O195 O -0.04316 1.20547 0.20559
 O196 O -0.08077 1.05589 0.14150
 C197 C -0.07347 1.14519 0.20054
 O198 O 0.06809 0.86993 0.16497
 O199 O 0.09350 1.01557 0.03551
 C200 C 0.09487 0.93319 0.11656
 Zr201 Zr 0.01504 0.88142 0.13791
 O202 O 0.02353 0.89388 0.30487
 O203 O 0.02572 0.69791 0.14999
 Zr204 Zr 0.00331 1.17873 0.12770
 O205 O 0.01280 1.15964 0.29630
 O206 O -0.00304 1.36441 0.13685
 Zr207 Zr 0.04976 1.07691 -0.03760
 Zr208 Zr -0.04892 0.98470 0.03518
 O209 O -0.01871 1.00225 0.17346
 O210 O 0.04028 1.05843 0.13095
 O211 O -0.02292 0.83026 0.02731
 O212 O 0.02273 1.22842 -0.02842
 O213 O 0.03549 0.88656 -0.01577
 O214 O -0.03546 1.17569 0.01408
 H215 H -0.05736 0.99439 -0.18477
 H216 H 0.03478 1.31211 -0.04432
 H217 H -0.03015 0.98737 0.24568
 H218 H 0.05302 0.83035 -0.02181
 H219 H -0.03070 1.38713 -0.09025
 H220 H 0.00059 1.40668 0.06302
 H221 H 0.03692 1.14405 0.30592
 H222 H 0.02878 0.81215 0.33522
 H223 H 0.01104 0.65634 0.09683
 H224 H -0.00091 0.66272 -0.18004
 H225 H -0.00323 0.94543 -0.33492
 H226 H -0.00895 1.14999 -0.34406
 O227 O 0.46013 0.24141 0.22005
 O228 O 0.41985 0.35861 0.14782
 C229 C 0.42919 0.26886 0.21251
 O230 O 0.56244 0.71323 0.15232
 O231 O 0.59211 0.61023 0.03860
 C232 C 0.59049 0.69253 0.10564
 O233 O 0.46827 0.66732 0.23317
 O234 O 0.42346 0.56633 0.14775
 C235 C 0.43564 0.63543 0.21997
 O236 O 0.55211 0.25773 0.15827
 O237 O 0.58714 0.39456 0.04423
 C238 C 0.58188 0.30269 0.11861
 Zr239 Zr 0.50430 0.32226 0.13346
 O240 O 0.51644 0.30096 0.29998
 O241 O 0.49644 0.13057 0.12669
 Zr242 Zr 0.51154 0.62691 0.14320
 O243 O 0.52330 0.58460 0.30776
 O244 O 0.51459 0.81387 0.16848
 O245 O 0.47899 0.46546 0.17835
 O246 O 0.53860 0.47905 0.13888
 O247 O 0.52947 0.30884 -0.21890
 O248 O 0.57623 0.40928 -0.14144
 C249 C 0.56210 0.33627 -0.20948
 O250 O 0.44854 0.72186 -0.15774
 O251 O 0.41392 0.59059 -0.03795
 C252 C 0.41887 0.67828 -0.11621
 O253 O 0.54320 0.75067 -0.20043
 O254 O 0.58265 0.62550 -0.13672
 C255 C 0.57404 0.72074 -0.19498
 O256 O 0.43523 0.31565 -0.17235
 O257 O 0.40824 0.39522 -0.03650
 C258 C 0.40783 0.33848 -0.12220
 Zr259 Zr 0.48811 0.35831 -0.13310
 O260 O 0.47975 0.36218 -0.30165
 O261 O 0.47915 0.16487 -0.12280
 Zr262 Zr 0.49698 0.66460 -0.12569
 O263 O 0.49146 0.68855 -0.29606
 O264 O 0.49830 0.85534 -0.11834
 Zr265 Zr 0.45034 0.48416 0.03591
 Zr266 Zr 0.55077 0.50255 -0.02812
 O267 O 0.52075 0.51944 -0.16789
 O268 O 0.46186 0.50967 -0.13169
 O269 O 0.52588 0.32210 -0.01997
 O270 O 0.47562 0.66312 0.02713
 O271 O 0.46624 0.31264 0.01813
 O272 O 0.53455 0.67462 -0.00955
 H273 H 0.55749 0.47703 0.19144
 H274 H 0.46213 0.73115 0.03753
 H275 H 0.53246 0.53176 -0.23966
 H276 H 0.44880 0.23979 0.02410
 H277 H 0.51001 0.85837 0.09806
 H278 H 0.52000 0.88427 -0.08371
 H279 H 0.47009 0.63820 -0.31392
 H280 H 0.48447 0.44841 -0.33210
 H281 H 0.50139 0.13292 -0.11049
 H282 H 0.51298 0.10985 0.07323
 H283 H 0.50231 0.35208 0.33802
 H284 H 0.52778 0.66403 0.33856
 N285 N 0.37476 0.21653 0.28743
 N286 N 0.40410 0.19158 0.27797
 N287 N -0.10931 0.69200 0.30284
 N288 N -0.07905 0.68151 0.28591
 N289 N 0.64500 0.74581 0.17406
 N290 N 0.62047 0.77506 0.12036
 N291 N 0.13226 1.34917 0.16363
 N292 N 0.10660 1.37716 0.11608
 N293 N 0.61369 0.28635 -0.28514
 N294 N 0.58228 0.28067 -0.28189
 N295 N 0.13024 0.90736 -0.24117
 N296 N 0.09945 0.87532 -0.26689
 N297 N 0.35964 0.67511 -0.14749
 N298 N 0.39010 0.72534 -0.16659
 N299 N -0.14789 1.08997 -0.16382
 N300 N -0.12439 1.17573 -0.15004
 N301 N 0.62840 0.77414 -0.27619
 N302 N 0.59960 0.80046 -0.25721
 N303 N 0.11137 1.34871 -0.32060
 N304 N 0.08093 1.35846 -0.30516
 N305 N 0.36783 0.25166 -0.24724
 N306 N 0.37474 0.31101 -0.16603
 N307 N -0.11895 0.67415 -0.22069
 N308 N -0.11402 0.73047 -0.13647
 N309 N 0.38219 0.69794 0.24611
 N310 N 0.41104 0.67932 0.28705
 N311 N -0.13033 1.11770 0.25742
 N312 N -0.10086 1.17816 0.26318
 N313 N 0.64042 0.31262 0.16237
 N314 N 0.61038 0.25556 0.17075
 N315 N 0.13506 0.81771 0.20835
 N316 N 0.12806 0.91728 0.15803
   
