data_POSCAR
  _audit_creation_date              2014-09-24
  _audit_creation_method            'ToBaCCo'
  _symmetry_space_group_name_H-M    'P1'
  _symmetry_Int_Tables_number       1
  _symmetry_cell_setting            triclinic
  loop_
  _symmetry_equiv_pos_as_xyz
 x,y,z
_cell_length_a 32.8297
_cell_length_b 32.7938
_cell_length_c 24.8951
_cell_angle_alpha 89.568300
_cell_angle_beta 90.204000
_cell_angle_gamma 89.904500
loop_
  _atom_site_label
  _atom_site_type_symbol
  _atom_site_fract_x
  _atom_site_fract_y
  _atom_site_fract_z
C1 C 1.28390 0.20689 0.27685
 C2 C 1.24936 0.22814 0.25888
 C3 C 1.21593 0.20659 0.23831
 C4 C 1.21792 0.16410 0.23316
 C5 C 1.25289 0.14313 0.25088
 C6 C 1.28594 0.16416 0.27396
 C7 C 1.24940 0.27310 0.25959
 C8 C 1.28182 0.29460 0.23644
 C9 C 1.28243 0.33752 0.23587
 C10 C 1.24979 0.35861 0.26004
 C11 C 1.21778 0.33717 0.28492
 C12 C 1.21766 0.29442 0.28387
 H13 H 1.30905 0.22408 0.29355
 H14 H 1.18950 0.22306 0.22343
 H15 H 1.30611 0.27744 0.21772
 H16 H 1.19298 0.27753 0.30233
 H17 H 1.25396 0.11026 0.24685
 H18 H 1.24959 0.39164 0.26076
 C19 C 0.77828 -0.29354 0.28017
 C20 C 0.74872 -0.27204 0.25101
 C21 C 0.71674 -0.29307 0.22663
 C22 C 0.71390 -0.33547 0.23140
 C23 C 0.74388 -0.35719 0.26023
 C24 C 0.77658 -0.33637 0.28483
 C25 C 0.74994 -0.22725 0.24822
 C26 C 0.78451 -0.20668 0.22886
 C27 C 0.78464 -0.16395 0.22574
 C28 C 0.75103 -0.14201 0.24494
 C29 C 0.71698 -0.16243 0.26550
 C30 C 0.71614 -0.20499 0.26574
 H31 H 0.80269 -0.27650 0.29890
 H32 H 0.69374 -0.27626 0.20422
 H33 H 0.81029 -0.22390 0.21406
 H34 H 0.69001 -0.22090 0.28217
 H35 H 0.74169 -0.39011 0.26306
 H36 H 0.75138 -0.10895 0.24388
 C37 C 0.78293 0.21095 -0.22866
 C38 C 0.74756 0.22979 -0.24878
 C39 C 0.71543 0.20586 -0.26763
 C40 C 0.71957 0.16343 -0.27003
 C41 C 0.75583 0.14482 -0.25210
 C42 C 0.78719 0.16846 -0.22992
 C43 C 0.74557 0.27450 -0.25362
 C44 C 0.77685 0.29526 -0.28023
 C45 C 0.77746 0.33810 -0.28281
 C46 C 0.74600 0.35987 -0.25731
 C47 C 0.71346 0.33910 -0.23285
 C48 C 0.71313 0.29642 -0.23166
 H49 H 0.80742 0.22950 -0.21277
 H50 H 0.68825 0.22046 -0.28358
 H51 H 0.80110 0.27758 -0.29822
 H52 H 0.68877 0.28033 -0.21128
 H53 H 0.75902 0.11195 -0.25382
 H54 H 0.74599 0.39292 -0.25760
 C55 C 1.28224 -0.29634 -0.23566
 C56 C 1.24995 -0.27472 -0.25927
 C57 C 1.21801 -0.29577 -0.28347
 C58 C 1.21782 -0.33848 -0.28389
 C59 C 1.24951 -0.36012 -0.25825
 C60 C 1.28233 -0.33922 -0.23419
 C61 C 1.25019 -0.22991 -0.25892
 C62 C 1.28434 -0.20918 -0.27819
 C63 C 1.28703 -0.16685 -0.27404
 C64 C 1.25544 -0.14505 -0.24955
 C65 C 1.22017 -0.16542 -0.23202
 C66 C 1.21750 -0.20789 -0.23738
 H67 H 1.30672 -0.27929 -0.21706
 H68 H 1.19346 -0.27871 -0.30233
 H69 H 1.30904 -0.22617 -0.29633
 H70 H 1.19104 -0.22398 -0.22228
 H71 H 1.24898 -0.39315 -0.25841
 H72 H 1.25757 -0.11219 -0.24610
 C73 C 0.20878 0.28246 0.72739
 C74 C 0.23054 0.25077 0.75213
 C75 C 0.20975 0.22041 0.78061
 C76 C 0.16688 0.22088 0.78412
 C77 C 0.14532 0.25328 0.75910
 C78 C 0.16625 0.28416 0.73101
 C79 C 0.27535 0.25066 0.75073
 C80 C 0.29665 0.27962 0.78036
 C81 C 0.33949 0.28097 0.77988
 C82 C 0.36074 0.25190 0.74883
 C83 C 0.33944 0.22198 0.71936
 C84 C 0.29661 0.22184 0.72059
 H85 H 0.22511 0.30613 0.70580
 H86 H 0.22739 0.19627 0.79956
 H87 H 0.27923 0.30148 0.80335
 H88 H 0.27960 0.19915 0.69847
 H89 H 0.11238 0.25459 0.76108
 H90 H 0.39373 0.25221 0.74787
 C91 C 0.70488 0.77950 0.72794
 C92 C 0.72546 0.74935 0.75750
 C93 C 0.70338 0.71990 0.78562
 C94 C 0.66049 0.71972 0.78451
 C95 C 0.64000 0.75051 0.75480
 C96 C 0.66195 0.78084 0.72640
 C97 C 0.77036 0.74871 0.75935
 C98 C 0.79158 0.78139 0.78209
 C99 C 0.83437 0.78196 0.78249
 C100 C 0.85571 0.74983 0.75809
 C101 C 0.83468 0.71645 0.73627
 C102 C 0.79199 0.71573 0.73791
 H103 H 0.72277 0.80219 0.70672
 H104 H 0.72015 0.69683 0.80797
 H105 H 0.77458 0.80639 0.79939
 H106 H 0.77553 0.69054 0.72016
 H107 H 0.60700 0.75087 0.75384
 H108 H 0.88870 0.75024 0.75709
 C109 C 0.70514 0.27865 0.21658
 C110 C 0.72754 0.24870 0.24371
 C111 C 0.70727 0.21781 0.27209
 C112 C 0.66447 0.21680 0.27368
 C113 C 0.64218 0.24716 0.24597
 C114 C 0.66245 0.27813 0.21718
 C115 C 0.77231 0.24969 0.24183
 C116 C 0.79365 0.28262 0.26378
 C117 C 0.83632 0.28257 0.26442
 C118 C 0.85762 0.24996 0.24124
 C119 C 0.83642 0.21802 0.21628
 C120 C 0.79369 0.21782 0.21762
 H121 H 0.72125 0.30244 0.19496
 H122 H 0.72498 0.19458 0.29279
 H123 H 0.77703 0.30731 0.28247
 H124 H 0.77687 0.19293 0.19970
 H125 H 0.60919 0.24670 0.24676
 H126 H 0.89063 0.25010 0.24142
 C127 C 0.20610 0.78030 0.22504
 C128 C 0.22678 0.74851 0.25098
 C129 C 0.20493 0.71601 0.27337
 C130 C 0.16201 0.71561 0.27206
 C131 C 0.14147 0.74863 0.24688
 C132 C 0.16328 0.78076 0.22209
 C133 C 0.27165 0.74860 0.25271
 C134 C 0.29277 0.77856 0.28136
 C135 C 0.33563 0.77926 0.28185
 C136 C 0.35707 0.74938 0.25270
 C137 C 0.33595 0.71933 0.22350
 C138 C 0.29323 0.71922 0.22412
 H139 H 0.22384 0.80467 0.20712
 H140 H 0.22178 0.69140 0.29250
 H141 H 0.27564 0.80146 0.30288
 H142 H 0.27645 0.69627 0.20213
 H143 H 0.10850 0.74878 0.24520
 H144 H 0.39006 0.74961 0.25250
 N145 N 1.07570 0.04148 0.05518
 N146 N 1.10727 0.06400 0.06820
 N147 N 1.04482 -0.04407 0.09305
 N148 N 1.05027 -0.07394 0.12823
 N149 N 1.07398 -0.04391 0.05704
 N150 N 1.10045 -0.07335 0.06726
 N151 N 1.04823 0.04193 0.09344
 N152 N 1.06067 0.06539 0.13346
 C153 C 1.09729 0.07948 0.11633
 C154 C 1.08501 -0.09201 0.11144
 N155 N 0.92957 -0.04005 0.05282
 N156 N 0.89783 -0.06273 0.06463
 N157 N 0.96016 0.04456 0.09096
 N158 N 0.95349 0.07352 0.12642
 N159 N 0.93216 0.04524 0.05314
 N160 N 0.90539 0.07444 0.06217
 N161 N 0.95664 -0.04131 0.09182
 N162 N 0.94372 -0.06541 0.13122
 Mn163 Mn 1.00246 0.00023 0.09292
 C164 C 0.90727 -0.07910 0.11285
 C165 C 0.91935 0.09200 0.10768
 N166 N 1.07536 -0.04354 -0.05846
 N167 N 1.10696 -0.06627 -0.07064
 N168 N 1.04796 0.04262 -0.09820
 N169 N 1.05384 0.07342 -0.13174
 N170 N 1.07622 0.04186 -0.06066
 N171 N 1.10256 0.07172 -0.06829
 N172 N 1.04845 -0.04344 -0.09769
 N173 N 1.06146 -0.06660 -0.13762
 Mn174 Mn 1.07547 -0.00099 -0.00174
 C175 C 1.09768 -0.08122 -0.11931
 C176 C 1.08802 0.09124 -0.11253
 N177 N 0.93327 0.04528 -0.06234
 N178 N 0.90398 0.07127 -0.07445
 N179 N 0.95990 -0.04241 -0.09873
 N180 N 0.95295 -0.07213 -0.13306
 N181 N 0.93089 -0.04063 -0.06258
 N182 N 0.90331 -0.06907 -0.07148
 N183 N 0.95985 0.04307 -0.10151
 N184 N 0.94848 0.06692 -0.14208
 Mn185 Mn 0.93127 0.00254 -0.00479
 Mn186 Mn 1.00409 -0.00014 -0.09962
 Cl187 Cl 1.00331 0.00037 -0.00329
 C188 C 0.91414 0.08506 -0.12373
 C189 C 0.91761 -0.08857 -0.11534
 N190 N 1.03942 0.54298 0.59551
 N191 N 1.06954 0.54860 0.62984
 N192 N 0.95438 0.57267 0.55714
 N193 N 0.93261 0.60478 0.57033
 N194 N 0.95375 0.54511 0.59574
 N195 N 0.93099 0.55810 0.63612
 N196 N 1.03958 0.57128 0.55782
 N197 N 1.06962 0.59721 0.56583
 C198 C 1.08807 0.58245 0.61066
 C199 C 0.91740 0.59507 0.61891
 N200 N 0.95221 0.54266 0.40569
 N201 N 0.92124 0.54815 0.37243
 N202 N 1.03882 0.57192 0.44180
 N203 N 1.06208 0.60303 0.42818
 N204 N 1.03796 0.54470 0.40337
 N205 N 1.06089 0.55684 0.36260
 N206 N 0.95344 0.57170 0.44174
 N207 N 0.92363 0.59805 0.43361
 Mn208 Mn 0.99666 0.57208 0.49961
 C209 C 0.90371 0.58277 0.39057
 C210 C 1.07651 0.59277 0.37951
 N211 N 0.95319 0.45672 0.59566
 N212 N 0.92264 0.45110 0.62914
 N213 N 1.04033 0.42842 0.55874
 N214 N 1.06535 0.39823 0.57068
 N215 N 1.03853 0.45467 0.59825
 N216 N 1.06173 0.44215 0.63886
 N217 N 0.95457 0.42757 0.55979
 N218 N 0.92511 0.40097 0.56829
 Mn219 Mn 0.99613 0.49989 0.59685
 C220 C 0.90541 0.41627 0.61142
 C221 C 1.07896 0.40738 0.62026
 N222 N 1.03947 0.45663 0.40552
 N223 N 1.06928 0.45090 0.37094
 N224 N 0.95483 0.42666 0.44428
 N225 N 0.93332 0.39443 0.43108
 N226 N 0.95372 0.45423 0.40569
 N227 N 0.93089 0.44115 0.36532
 N228 N 1.04004 0.42838 0.44321
 N229 N 1.07003 0.40235 0.43498
 Mn230 Mn 0.99574 0.49957 0.40451
 Mn231 Mn 0.99753 0.42755 0.50157
 Cl232 Cl 0.99649 0.49978 0.50061
 C233 C 1.08808 0.41698 0.38999
 C234 C 0.91777 0.40411 0.38253
 N235 N 0.57503 0.04169 0.55566
 N236 N 0.60742 0.06307 0.56850
 N237 N 0.54463 -0.04279 0.59709
 N238 N 0.55008 -0.07250 0.63259
 N239 N 0.57320 -0.04360 0.56027
 N240 N 0.59924 -0.07350 0.57024
 N241 N 0.54773 0.04315 0.59408
 N242 N 0.56112 0.06608 0.63399
 C243 C 0.59809 0.07881 0.61664
 C244 C 0.58423 -0.09143 0.61520
 N245 N 0.42980 -0.04096 0.55868
 N246 N 0.40014 -0.06637 0.57042
 N247 N 0.45956 0.04579 0.59300
 N248 N 0.45379 0.07615 0.62668
 N249 N 0.43069 0.04503 0.55628
 N250 N 0.40431 0.07490 0.56438
 N251 N 0.45657 -0.03953 0.59792
 N252 N 0.44509 -0.06332 0.63824
 Mn253 Mn 0.50212 0.00169 0.59606
 C254 C 0.41034 -0.08044 0.61964
 C255 C 0.41934 0.09421 0.60822
 N256 N 0.57343 -0.04512 0.44453
 N257 N 0.60526 -0.06719 0.43127
 N258 N 0.54558 0.04025 0.40314
 N259 N 0.55162 0.06973 0.36767
 N260 N 0.57422 0.04031 0.44014
 N261 N 0.60076 0.06970 0.43053
 N262 N 0.54592 -0.04554 0.40607
 N263 N 0.55857 -0.06840 0.36578
 Mn264 Mn 0.57411 -0.00169 0.50015
 C265 C 0.59527 -0.08230 0.38291
 C266 C 0.58609 0.08787 0.38535
 N267 N 0.43018 0.04191 0.44032
 N268 N 0.39975 0.06597 0.42632
 N269 N 0.45796 -0.04522 0.40648
 N270 N 0.45143 -0.07539 0.37273
 N271 N 0.42930 -0.04384 0.44312
 N272 N 0.40224 -0.07302 0.43491
 N273 N 0.45761 0.04047 0.40208
 N274 N 0.44624 0.06357 0.36088
 Mn275 Mn 0.42966 0.00054 0.49966
 Mn276 Mn 0.50176 -0.00252 0.40398
 Cl277 Cl 0.50189 -0.00046 0.49996
 C278 C 0.41069 0.08009 0.37750
 C279 C 0.41667 -0.09260 0.39105
 N280 N 0.56815 0.54422 0.05982
 N281 N 0.59828 0.56903 0.07159
 N282 N 0.54115 0.45699 0.09800
 N283 N 0.54684 0.42598 0.13125
 N284 N 0.56982 0.45829 0.06135
 N285 N 0.59595 0.42813 0.06878
 N286 N 0.54188 0.54228 0.09940
 N287 N 0.55437 0.56505 0.13997
 C288 C 0.58906 0.58228 0.12114
 C289 C 0.58109 0.40827 0.11238
 N290 N 0.42541 0.45659 0.06054
 N291 N 0.39401 0.43399 0.07467
 N292 N 0.45374 0.54245 0.09750
 N293 N 0.44830 0.57278 0.13122
 N294 N 0.42509 0.54226 0.06043
 N295 N 0.39912 0.57246 0.06838
 N296 N 0.45306 0.45682 0.09885
 N297 N 0.44088 0.43416 0.13998
 Mn298 Mn 0.49743 0.49958 0.09892
 C299 C 0.40453 0.41931 0.12346
 C300 C 0.41421 0.59127 0.11254
 N301 N 0.57080 0.45936 -0.05395
 N302 N 0.60300 0.43774 -0.06702
 N303 N 0.53982 0.54448 -0.09251
 N304 N 0.54525 0.57475 -0.12707
 N305 N 0.56829 0.54462 -0.05534
 N306 N 0.59425 0.57460 -0.06399
 N307 N 0.54331 0.45845 -0.09236
 N308 N 0.55628 0.43558 -0.13251
 Mn309 Mn 0.56946 0.50166 0.00306
 C310 C 0.59327 0.42232 -0.11533
 C311 C 0.57927 0.59331 -0.10853
 N312 N 0.42436 0.54133 -0.05594
 N313 N 0.39264 0.56356 -0.07032
 N314 N 0.45533 0.45585 -0.09192
 N315 N 0.45057 0.42540 -0.12574
 N316 N 0.42634 0.45582 -0.05561
 N317 N 0.40072 0.42551 -0.06430
 N318 N 0.45207 0.54157 -0.09391
 N319 N 0.43979 0.56437 -0.13494
 Mn320 Mn 0.42500 0.49903 0.00235
 Mn321 Mn 0.49761 0.50005 -0.09320
 Cl322 Cl 0.49731 0.50006 0.00275
 C323 C 0.40316 0.57863 -0.11881
 C324 C 0.41648 0.40669 -0.10791
 N325 N 1.14534 0.14972 0.21309
 C326 C 1.18553 0.14173 0.20479
 N327 N 1.19593 0.11313 0.16831
 N328 N 1.16743 0.09350 0.14075
 C329 C 1.12735 0.10115 0.14908
 N330 N 1.11664 0.12949 0.18598
 N331 N 1.16430 0.65890 0.64718
 C332 C 1.18471 0.64007 0.68795
 N333 N 1.17364 0.60168 0.70248
 N334 N 1.14294 0.58309 0.67756
 C335 C 1.12257 0.60210 0.63694
 N336 N 1.13388 0.64022 0.62201
 N337 N 0.69743 0.11024 0.66843
 C338 C 0.68738 0.13928 0.70445
 N339 N 0.64734 0.14784 0.71281
 N340 N 0.61835 0.12793 0.68607
 C341 C 0.62863 0.09941 0.64933
 N342 N 0.66857 0.09087 0.64117
 N343 N 0.67074 0.65379 0.15267
 C344 C 0.68025 0.64355 0.20408
 N345 N 0.65768 0.61465 0.22960
 N346 N 0.62693 0.59637 0.20419
 C347 C 0.61787 0.60637 0.15246
 N348 N 0.64052 0.63512 0.12711
 N349 N 0.85761 -0.15106 0.20682
 C350 C 0.81764 -0.14191 0.19825
 N351 N 0.80795 -0.11204 0.16255
 N352 N 0.83691 -0.09228 0.13595
 C353 C 0.87677 -0.10104 0.14457
 N354 N 0.88680 -0.13069 0.18069
 N355 N 0.83547 0.33692 0.65876
 C356 C 0.80912 0.35824 0.68994
 N357 N 0.81437 0.39923 0.69410
 N358 N 0.84501 0.41783 0.66893
 C359 C 0.87107 0.39628 0.63784
 N360 N 0.86566 0.35556 0.63295
 N361 N 0.33348 -0.15689 0.65095
 C362 C 0.32151 -0.14584 0.70084
 N363 N 0.34112 -0.11477 0.72573
 N364 N 0.37145 -0.09522 0.70111
 C365 C 0.38288 -0.10601 0.65081
 N366 N 0.36324 -0.13697 0.62610
 N367 N 0.34687 0.33778 0.18974
 C368 C 0.31473 0.35850 0.21078
 N369 N 0.31406 0.39978 0.20538
 N370 N 0.34363 0.41924 0.17917
 C371 C 0.37542 0.39832 0.15814
 N372 N 0.37658 0.35725 0.16383
 N373 N 0.83738 0.16212 -0.15729
 C374 C 0.82336 0.14901 -0.20549
 N375 N 0.84178 0.11652 -0.22879
 N376 N 0.87281 0.09759 -0.20437
 C377 C 0.88627 0.11034 -0.15568
 N378 N 0.86788 0.14279 -0.13253
 N379 N 0.81152 0.60140 0.30940
 C380 C 0.80746 0.64259 0.31292
 N381 N 0.83484 0.66339 0.34328
 N382 N 0.86492 0.64409 0.36882
 C383 C 0.86929 0.60321 0.36439
 N384 N 0.84211 0.58211 0.33426
 N385 N 0.35091 0.16345 0.31911
 C386 C 0.31981 0.14303 0.29506
 N387 N 0.32121 0.10161 0.29470
 N388 N 0.35167 0.08158 0.31854
 C389 C 0.38224 0.10215 0.34300
 N390 N 0.38140 0.14342 0.34297
 N391 N 0.34706 0.65999 -0.18838
 C392 C 0.31422 0.63963 -0.20824
 N393 N 0.31242 0.59858 -0.20070
 N394 N 0.34159 0.57902 -0.17354
 C395 C 0.37407 0.59958 -0.15371
 N396 N 0.37643 0.64038 -0.16162
 N397 N 1.19722 -0.11343 -0.16920
 C398 C 1.18749 -0.14266 -0.20514
 N399 N 1.14749 -0.15129 -0.21406
 N400 N 1.11829 -0.13120 -0.18795
 C401 C 1.12830 -0.10233 -0.15144
 N402 N 1.16819 -0.09392 -0.14258
 N403 N 1.17367 0.39737 0.29854
 C404 C 1.18465 0.35883 0.31292
 N405 N 1.16410 0.34003 0.35336
 N406 N 1.13372 0.35885 0.37834
 C407 C 1.12251 0.39711 0.36357
 N408 N 1.14299 0.41610 0.32325
 N409 N 0.64453 -0.15050 0.28598
 C410 C 0.68427 -0.13962 0.29174
 N411 N 0.69399 -0.10945 0.32630
 N412 N 0.66518 -0.09115 0.35468
 C413 C 0.62556 -0.10193 0.34909
 N414 N 0.61550 -0.13162 0.31381
 N415 N 0.64140 0.35252 -0.21157
 C416 C 0.68145 0.36190 -0.20496
 N417 N 0.69188 0.39146 -0.16981
 N418 N 0.66339 0.41064 -0.14176
 C419 C 0.62342 0.40146 -0.14836
 N420 N 0.61275 0.37228 -0.18408
 N421 N 1.10544 0.18430 -0.19306
 C422 C 1.14647 0.18919 -0.18852
 N423 N 1.16766 0.16194 -0.15778
 N424 N 1.14888 0.13129 -0.13280
 C425 C 1.10814 0.12617 -0.13820
 N426 N 1.08671 0.15318 -0.16880
 N427 N 1.09890 0.68337 0.29772
 C428 C 1.14030 0.68307 0.29598
 N429 N 1.16028 0.65101 0.31923
 N430 N 1.13995 0.62109 0.34379
 C431 C 1.09871 0.62180 0.34564
 N432 N 1.07857 0.65354 0.32243
 N433 N 0.66292 0.16338 0.34408
 C434 C 0.64345 0.18389 0.30383
 N435 N 0.60469 0.17296 0.29120
 N436 N 0.58636 0.14252 0.31737
 C437 C 0.60593 0.12210 0.35751
 N438 N 0.64448 0.13319 0.37055
 N439 N 0.59851 0.68299 -0.19508
 C440 C 0.63916 0.68891 -0.18759
 N441 N 0.65928 0.66353 -0.15308
 N442 N 0.63993 0.63367 -0.12736
 C443 C 0.59964 0.62746 -0.13558
 N444 N 0.57918 0.65262 -0.16991
 N445 N 0.89546 -0.17507 -0.20439
 C446 C 0.85637 -0.18418 -0.19113
 N447 N 0.83780 -0.16176 -0.15257
 N448 N 0.85744 -0.13154 -0.12822
 C449 C 0.89636 -0.12235 -0.14172
 N450 N 0.91502 -0.14459 -0.18033
 N451 N 0.88857 0.30504 0.32771
 C452 C 0.85854 0.31503 0.29252
 N453 N 0.84830 0.35500 0.28595
 N454 N 0.86765 0.38394 0.31350
 C455 C 0.89732 0.37368 0.34926
 N456 N 0.90734 0.33380 0.35582
 N457 N 0.39641 -0.17808 0.29929
 C458 C 0.35749 -0.18834 0.31188
 N459 N 0.33849 -0.16739 0.35159
 N460 N 0.35748 -0.13741 0.37747
 C461 C 0.39619 -0.12696 0.36440
 N462 N 0.41530 -0.14789 0.32488
 N463 N 0.40035 0.31847 -0.19657
 C464 C 0.35983 0.31128 -0.19034
 N465 N 0.33878 0.33500 -0.15536
 N466 N 0.35705 0.36463 -0.12820
 C467 C 0.39720 0.37219 -0.13528
 N468 N 0.41858 0.34858 -0.16991
 N469 N 1.16454 -0.16094 0.16290
 C470 C 1.14314 -0.18743 0.19421
 N471 N 1.10206 -0.18242 0.19747
 N472 N 1.08346 -0.15201 0.17123
 C473 C 1.10507 -0.12589 0.13984
 N474 N 1.14591 -0.13100 0.13599
 N475 N 1.15341 0.32731 0.65195
 C476 C 1.14416 0.31756 0.70353
 N477 N 1.11478 0.33931 0.72896
 N478 N 1.09517 0.36951 0.70344
 C479 C 1.10417 0.37881 0.65155
 N480 N 1.13340 0.35695 0.62625
 N481 N 0.66304 -0.16253 0.66416
 C482 C 0.64182 -0.18777 0.69746
 N483 N 0.60105 -0.18132 0.70271
 N484 N 0.58262 -0.15071 0.67658
 C485 C 0.60406 -0.12574 0.64338
 N486 N 0.64454 -0.13240 0.63741
 N487 N 0.60162 0.32143 0.20298
 C488 C 0.63982 0.31042 0.18802
 N489 N 0.65788 0.33108 0.14705
 N490 N 0.63878 0.36172 0.12227
 C491 C 0.60095 0.37308 0.13778
 N492 N 0.58259 0.35233 0.17840
 N493 N 0.84006 0.16473 0.14745
 C494 C 0.85845 0.18529 0.18800
 N495 N 0.89736 0.17529 0.20154
 N496 N 0.91688 0.14560 0.17588
 C497 C 0.89838 0.12520 0.13533
 N498 N 0.85968 0.13535 0.12148
 N499 N 0.84748 0.64393 0.71503
 C500 C 0.85717 0.68399 0.70828
 N501 N 0.88699 0.69411 0.67316
 N502 N 0.90608 0.66542 0.64532
 C503 C 0.89663 0.62545 0.65207
 N504 N 0.86715 0.61507 0.68774
 N505 N 0.40024 0.17945 0.70086
 C506 C 0.36133 0.19019 0.68830
 N507 N 0.34210 0.16981 0.64815
 N508 N 0.36078 0.13987 0.62189
 C509 C 0.39943 0.12885 0.63499
 N510 N 0.41884 0.14928 0.67487
 N511 N 0.39615 0.67603 0.20579
 C512 C 0.35766 0.68764 0.19252
 N513 N 0.33849 0.66814 0.15160
 N514 N 0.35678 0.63806 0.12529
 C515 C 0.39495 0.62609 0.13914
 N516 N 0.41437 0.64571 0.17971
   
