data_POSCAR
  _audit_creation_date              2014-09-24
  _audit_creation_method            'ToBaCCo'
  _symmetry_space_group_name_H-M    'P1'
  _symmetry_Int_Tables_number       1
  _symmetry_cell_setting            triclinic
  loop_
  _symmetry_equiv_pos_as_xyz
 x,y,z
_cell_length_a 29.8580
_cell_length_b 30.7803
_cell_length_c 7.1340
_cell_angle_alpha 93.145900
_cell_angle_beta 84.281200
_cell_angle_gamma 90.099700
loop_
  _atom_site_label
  _atom_site_type_symbol
  _atom_site_fract_x
  _atom_site_fract_y
  _atom_site_fract_z
C1 C 0.13323 0.25712 0.22069
 C2 C 0.15382 0.21619 0.22814
 C3 C 0.20088 0.21454 0.23551
 C4 C 0.22678 0.25282 0.25132
 C5 C 0.20405 0.29317 0.25729
 C6 C 0.15830 0.29537 0.23217
 C7 C 0.27723 0.25097 0.25394
 C8 C 0.30391 0.28778 0.21274
 C9 C 0.35011 0.28798 0.23054
 C10 C 0.37124 0.24990 0.27474
 C11 C 0.34667 0.21130 0.30047
 C12 C 0.29941 0.21289 0.29921
 H13 H 0.09752 0.25951 0.20664
 H14 H 0.21715 0.18305 0.21894
 H15 H 0.22142 0.32365 0.27515
 H16 H 0.28949 0.31723 0.16886
 H17 H 0.40721 0.25035 0.28536
 H18 H 0.28030 0.18450 0.34015
 C19 C 0.85771 0.24973 0.07018
 C20 C 0.83859 0.28801 0.15592
 C21 C 0.79621 0.28703 0.25713
 C22 C 0.77084 0.24828 0.26574
 C23 C 0.79056 0.20987 0.17683
 C24 C 0.83435 0.21044 0.08482
 C25 C 0.72507 0.24870 0.37330
 C26 C 0.70475 0.21093 0.44818
 C27 C 0.66129 0.21275 0.54829
 C28 C 0.64008 0.25365 0.58328
 C29 C 0.65927 0.29058 0.50581
 C30 C 0.70054 0.28787 0.39741
 H31 H 0.89194 0.24998 0.00322
 H32 H 0.78427 0.31667 0.33419
 H33 H 0.77325 0.17906 0.18383
 H34 H 0.72129 0.17980 0.41944
 H35 H 0.60737 0.25665 0.66395
 H36 H 0.71249 0.31666 0.32792
 C37 C 0.63244 0.75621 0.72758
 C38 C 0.65408 0.71608 0.73054
 C39 C 0.70060 0.71505 0.74433
 C40 C 0.72551 0.75377 0.76985
 C41 C 0.70173 0.79389 0.77878
 C42 C 0.65563 0.79513 0.75498
 C43 C 0.77576 0.75206 0.78304
 C44 C 0.80277 0.78952 0.75969
 C45 C 0.84972 0.78824 0.76735
 C46 C 0.87027 0.74820 0.79287
 C47 C 0.84453 0.71045 0.81550
 C48 C 0.79758 0.71286 0.81683
 H49 H 0.59706 0.75721 0.70527
 H50 H 0.71665 0.68355 0.73254
 H51 H 0.71807 0.82457 0.80571
 H52 H 0.78819 0.82007 0.72922
 H53 H 0.90618 0.74660 0.80382
 H54 H 0.77884 0.68367 0.84740
 C55 C 0.35279 0.75307 0.40156
 C56 C 0.33140 0.79254 0.45936
 C57 C 0.28998 0.79287 0.56983
 C58 C 0.27208 0.75411 0.64244
 C59 C 0.29691 0.71542 0.59956
 C60 C 0.33562 0.71404 0.47114
 C61 C 0.22925 0.75359 0.77010
 C62 C 0.20409 0.71492 0.78610
 C63 C 0.16526 0.71238 0.91396
 C64 C 0.14838 0.75133 1.00778
 C65 C 0.17039 0.79080 0.97839
 C66 C 0.21191 0.79150 0.87007
 H67 H 0.38471 0.75329 0.31473
 H68 H 0.27360 0.82391 0.60501
 H69 H 0.28711 0.68613 0.66990
 H70 H 0.21352 0.68691 0.69239
 H71 H 0.11708 0.75181 1.09879
 H72 H 0.22866 0.82247 0.85681
 O73 O 1.03438 -0.04432 0.18162
 O74 O 0.94642 0.03601 0.13828
 O75 O 0.95543 -0.04842 0.06343
 O76 O 1.02967 0.04113 0.21247
 O77 O 1.05312 0.04877 -0.08709
 O78 O 0.97867 -0.03870 -0.23350
 O79 O 0.97013 0.04593 -0.15897
 O80 O 1.05793 -0.03621 -0.11754
 Cu81 Cu 0.98865 -0.00454 0.17718
 Cu82 Cu 1.01739 0.00560 -0.17733
 C83 C 1.06075 -0.05478 0.03603
 C84 C 0.94382 0.05570 -0.01152
 C85 C 0.95550 -0.05966 -0.11085
 C86 C 1.05386 0.06050 0.08539
 O87 O 0.47849 0.46432 0.22070
 O88 O 0.55197 0.55111 0.38651
 O89 O 0.55680 0.46591 0.34180
 O90 O 0.47218 0.54893 0.28528
 O91 O 0.44267 0.53988 0.57733
 O92 O 0.52881 0.45873 0.63716
 O93 O 0.52317 0.54344 0.67916
 O94 O 0.45107 0.45552 0.51403
 Cu95 Cu 0.51784 0.50829 0.27959
 Cu96 Cu 0.48337 0.49872 0.63090
 C97 C 0.45338 0.44395 0.33961
 C98 C 0.54886 0.56335 0.56000
 C99 C 0.55667 0.44757 0.49708
 C100 C 0.44370 0.55910 0.42456
 O101 O 0.04855 0.53369 -0.15758
 O102 O -0.03760 0.44974 -0.06574
 O103 O -0.03818 0.53136 -0.16252
 O104 O 0.04784 0.45308 -0.05942
 O105 O 0.04058 0.47520 0.24032
 O106 O -0.04869 0.55142 0.13873
 O107 O -0.04622 0.47023 0.23671
 O108 O 0.03757 0.55589 0.14307
 Cu109 Cu 0.00585 0.48979 -0.13916
 Cu110 Cu -0.00526 0.51565 0.21841
 C111 C 0.05695 0.55966 -0.02129
 C112 C -0.05478 0.44407 0.10098
 C113 C -0.05776 0.55554 -0.02941
 C114 C 0.05902 0.45035 0.10611
 O115 O 0.55447 1.03937 0.42358
 O116 O 0.46937 0.95625 0.33805
 O117 O 0.47123 1.04144 0.34046
 O118 O 0.54758 0.95458 0.46216
 O119 O 0.52151 0.96562 0.75973
 O120 O 0.44480 1.05054 0.64015
 O121 O 0.44290 0.96529 0.63774
 O122 O 0.52718 1.04975 0.72195
 Cu123 Cu 0.51369 0.99734 0.36263
 Cu124 Cu 0.48148 1.00859 0.71828
 C125 C 0.55472 1.05936 0.58333
 C126 C 0.44209 0.94586 0.47584
 C127 C 0.44512 1.06086 0.47071
 C128 C 0.54641 0.94436 0.63305
 C129 C 1.13365 0.14050 0.31898
 C130 C 1.12842 0.17743 0.20990
 C131 C 1.09799 0.17455 0.07132
 C132 C 1.07493 0.13633 0.03403
 C133 C 1.08084 0.09924 0.13377
 C134 C 1.11093 0.10083 0.27545
 C135 C 1.15876 0.14258 0.47740
 C136 C 1.16473 0.10578 0.57806
 C137 C 1.14593 0.06626 0.52374
 C138 C 1.11938 0.06370 0.37358
 H139 H 1.17318 0.17271 0.52783
 H140 H 1.18424 0.10792 0.69825
 H141 H 1.15143 0.03756 0.59978
 H142 H 1.10571 0.03247 0.33417
 H143 H 1.09332 0.20152 -0.01627
 H144 H 1.05210 0.13573 -0.07513
 C145 C 0.58656 0.66796 0.81901
 C146 C 0.62802 0.67514 0.70923
 C147 C 0.64307 0.64462 0.56407
 C148 C 0.61738 0.60828 0.52256
 C149 C 0.57508 0.60165 0.62092
 C150 C 0.55864 0.63248 0.76780
 C151 C 0.57203 0.69560 0.97803
 C152 C 0.52923 0.69135 1.07224
 C153 C 0.50022 0.65953 1.01034
 C154 C 0.51459 0.63025 0.86063
 H155 H 0.59363 0.72062 1.03104
 H156 H 0.51825 0.71334 1.19154
 H157 H 0.46634 0.65743 1.07851
 H158 H 0.49012 0.60699 0.81715
 H159 H 0.67452 0.64951 0.47831
 H160 H 0.63041 0.58548 0.40916
 C161 C -0.10633 0.33937 0.29716
 C162 C -0.13519 0.32859 0.15605
 C163 C -0.13864 0.35626 0.00950
 C164 C -0.11339 0.39420 -0.00115
 C165 C -0.08374 0.40557 0.13402
 C166 C -0.07960 0.37771 0.28457
 C167 C -0.10274 0.31214 0.44822
 C168 C -0.07271 0.32187 0.58183
 C169 C -0.04527 0.35829 0.56588
 C170 C -0.04829 0.38571 0.41834
 H171 H -0.12289 0.28305 0.46380
 H172 H -0.07031 0.30075 0.69692
 H173 H -0.02131 0.36524 0.66783
 H174 H -0.02521 0.41250 0.40958
 H175 H -0.16066 0.34810 -0.09907
 H176 H -0.11651 0.41458 -0.11838
 C177 C 0.35768 0.86154 0.30200
 C178 C 0.35788 0.83282 0.44956
 C179 C 0.38481 0.84169 0.59603
 C180 C 0.41109 0.87872 0.60022
 C181 C 0.41198 0.90802 0.45669
 C182 C 0.38562 0.89926 0.30319
 C183 C 0.33029 0.85358 0.15397
 C184 C 0.33032 0.88221 0.00929
 C185 C 0.35801 0.91867 0.00823
 C186 C 0.38562 0.92708 0.15273
 H187 H 0.30862 0.82536 0.14965
 H188 H 0.30907 0.87588 -0.10353
 H189 H 0.35833 0.94041 -0.10609
 H190 H 0.40676 0.95537 0.14458
 H191 H 0.38533 0.81967 0.70934
 H192 H 0.43155 0.88419 0.71645
 C193 C -0.13408 0.63113 -0.27456
 C194 C -0.13329 0.66874 -0.15031
 C195 C -0.11105 0.66692 0.01250
 C196 C -0.08883 0.62930 0.05169
 C197 C -0.08816 0.59167 -0.06943
 C198 C -0.11254 0.59190 -0.23121
 C199 C -0.15518 0.63185 -0.44297
 C200 C -0.15712 0.59444 -0.56112
 C201 C -0.13848 0.55566 -0.51364
 C202 C -0.11669 0.55415 -0.35006
 H203 H -0.17016 0.66125 -0.48547
 H204 H -0.17352 0.59547 -0.68949
 H205 H -0.14089 0.52652 -0.60419
 H206 H -0.10415 0.52289 -0.31699
 H207 H -0.11037 0.69522 0.10948
 H208 H -0.07072 0.63026 0.17612
 C209 C 0.36081 1.13109 0.24682
 C210 C 0.36911 1.17252 0.33725
 C211 C 0.40130 1.17503 0.46901
 C212 C 0.42423 1.13830 0.51366
 C213 C 0.41653 1.09752 0.42730
 C214 C 0.38368 1.09336 0.29751
 C215 C 0.33275 1.12633 0.09825
 C216 C 0.32404 1.08539 0.01648
 C217 C 0.34336 1.04842 0.07858
 C218 C 0.37303 1.05230 0.21734
 H219 H 0.31802 1.15400 0.04030
 H220 H 0.30212 1.08235 -0.09556
 H221 H 0.33586 1.01668 0.01692
 H222 H 0.38753 1.02303 0.26238
 H223 H 0.40811 1.20567 0.54290
 H224 H 0.44879 1.14192 0.61540
 C225 C 1.14499 -0.13970 0.16958
 C226 C 1.14412 -0.16870 0.00949
 C227 C 1.11794 -0.15907 -0.13430
 C228 C 1.09259 -0.12140 -0.12248
 C229 C 1.09171 -0.09217 0.03502
 C230 C 1.11818 -0.10103 0.18382
 C231 C 1.17205 -0.14813 0.31449
 C232 C 1.17315 -0.11880 0.47002
 C233 C 1.14716 -0.08098 0.48428
 C234 C 1.11982 -0.07212 0.34318
 H235 H 1.19264 -0.17722 0.30783
 H236 H 1.19418 -0.12548 0.58033
 H237 H 1.14816 -0.05837 0.60553
 H238 H 1.10063 -0.04231 0.35930
 H239 H 1.11738 -0.18098 -0.25842
 H240 H 1.07282 -0.11547 -0.23747
 C241 C 0.63465 0.36291 0.66758
 C242 C 0.63359 0.33133 0.51647
 C243 C 0.60957 0.33930 0.36381
 C244 C 0.58620 0.37794 0.35912
 C245 C 0.58615 0.40979 0.50691
 C246 C 0.61090 0.40281 0.66235
 C247 C 0.65929 0.35593 0.82206
 C248 C 0.66100 0.38796 0.96720
 C249 C 0.63841 0.42732 0.96076
 C250 C 0.61374 0.43489 0.80954
 H251 H 0.67753 0.32588 0.83121
 H252 H 0.68013 0.38230 1.08478
 H253 H 0.64022 0.45220 1.07301
 H254 H 0.59790 0.46632 0.80681
 H255 H 0.60902 0.31534 0.24687
 H256 H 0.56723 0.38263 0.24003
 C257 C 0.91759 -0.16836 -0.33886
 C258 C 0.87502 -0.17277 -0.23208
 C259 C 0.85876 -0.13792 -0.10849
 C260 C 0.88516 -0.10163 -0.07522
 C261 C 0.92834 -0.09769 -0.16850
 C262 C 0.94462 -0.13077 -0.30615
 C263 C 0.93285 -0.19942 -0.48468
 C264 C 0.97467 -0.19521 -0.58744
 C265 C 1.00198 -0.15990 -0.54913
 C266 C 0.98727 -0.12797 -0.41074
 H267 H 0.91225 -0.22676 -0.52348
 H268 H 0.98587 -0.21942 -0.69790
 H269 H 1.03457 -0.15692 -0.62872
 H270 H 1.00984 -0.10128 -0.38956
 H271 H 0.82645 -0.14001 -0.02557
 H272 H 0.87194 -0.07656 0.02811
 C273 C 0.41566 0.33554 0.10864
 C274 C 0.37522 0.32962 0.22633
 C275 C 0.35969 0.36286 0.35802
 C276 C 0.38471 0.40030 0.38374
 C277 C 0.42647 0.40600 0.27976
 C278 C 0.44215 0.37367 0.13702
 C279 C 0.43031 0.30421 -0.03635
 C280 C 0.47095 0.30925 -0.14689
 C281 C 0.49781 0.34529 -0.11469
 C282 C 0.48388 0.37711 0.02573
 H283 H 0.41032 0.27577 -0.06630
 H284 H 0.48181 0.28490 -0.25729
 H285 H 0.52968 0.34867 -0.19923
 H286 H 0.50661 0.40382 0.04417
 H287 H 0.32870 0.35897 0.44838
 H288 H 0.37187 0.42455 0.49150
 C289 C 0.16193 0.63084 -0.07023
 C290 C 0.14095 0.67280 -0.06846
 C291 C 0.09355 0.67483 -0.05530
 C292 C 0.06747 0.63762 -0.04546
 C293 C 0.08735 0.59661 -0.05271
 C294 C 0.13469 0.59260 -0.06802
 C295 C 0.20879 0.62562 -0.06039
 C296 C 0.22849 0.58441 -0.07146
 C297 C 0.20191 0.54737 -0.07914
 C298 C 0.15534 0.55133 -0.07329
 H299 H 0.23074 0.65298 -0.03924
 H300 H 0.26454 0.58120 -0.06940
 H301 H 0.21731 0.51546 -0.08450
 H302 H 0.13558 0.52191 -0.07164
 H303 H 0.07592 0.70540 -0.05977
 H304 H 0.03112 0.64089 -0.03277
 C305 C 0.65422 1.13561 0.64953
 C306 C 0.63606 1.17452 0.58606
 C307 C 0.59086 1.17414 0.54400
 C308 C 0.56533 1.13666 0.55059
 C309 C 0.58345 1.09778 0.59961
 C310 C 0.62781 1.09676 0.65231
 C311 C 0.69661 1.13483 0.72152
 C312 C 0.71379 1.09630 0.78072
 C313 C 0.68896 1.05802 0.77267
 C314 C 0.64615 1.05816 0.71044
 H315 H 0.71632 1.16405 0.73765
 H316 H 0.74639 1.09621 0.83483
 H317 H 0.70256 1.02827 0.81859
 H318 H 0.62725 1.02809 0.71108
 H319 H 0.57553 1.20236 0.49179
 H320 H 0.53140 1.13767 0.50932
 C321 C 0.14777 0.35922 0.03105
 C322 C 0.13743 0.33770 0.20076
 C323 C 0.10591 0.35608 0.34059
 C324 C 0.08330 0.39437 0.31231
 C325 C 0.09116 0.41553 0.14270
 C326 C 0.12521 0.39885 0.00302
 C327 C 0.17949 0.34164 -0.11357
 C328 C 0.19026 0.36340 -0.27804
 C329 C 0.16970 0.40286 -0.30251
 C330 C 0.13763 0.42054 -0.16408
 H331 H 0.19630 0.31098 -0.10156
 H332 H 0.21500 0.34973 -0.38624
 H333 H 0.17860 0.41987 -0.42974
 H334 H 0.12352 0.45162 -0.18937
 H335 H 0.09797 0.34004 0.47123
 H336 H 0.05770 0.40618 0.42078
 C337 C 0.59173 0.84661 0.87608
 C338 C 0.63085 0.83689 0.75155
 C339 C 0.64242 0.86367 0.60233
 C340 C 0.61498 0.89850 0.56991
 C341 C 0.57445 0.90744 0.68322
 C342 C 0.56209 0.88069 0.83769
 C343 C 0.58125 0.82241 1.03707
 C344 C 0.54102 0.82927 1.15104
 C345 C 0.51035 0.85994 1.10587
 C346 C 0.52044 0.88531 0.95119
 H347 H 0.60424 0.79816 1.07635
 H348 H 0.53326 0.81016 1.27302
 H349 H 0.47847 0.86404 1.19115
 H350 H 0.49448 0.90741 0.92161
 H351 H 0.67209 0.85650 0.50531
 H352 H 0.62521 0.91820 0.45190
 C353 C 0.85789 0.14190 -0.11770
 C354 C 0.85988 0.16956 0.04642
 C355 C 0.88788 0.15895 0.18246
 C356 C 0.91394 0.12165 0.15914
 C357 C 0.91324 0.09354 -0.00175
 C358 C 0.88488 0.10331 -0.14247
 C359 C 0.82986 0.15177 -0.25736
 C360 C 0.82777 0.12383 -0.41692
 C361 C 0.85344 0.08578 -0.43980
 C362 C 0.88177 0.07545 -0.30422
 H363 H 0.80927 0.18091 -0.24358
 H364 H 0.80597 0.13163 -0.52296
 H365 H 0.85140 0.06415 -0.56352
 H366 H 0.90062 0.04535 -0.32634
 H367 H 0.88966 0.17997 0.30856
 H368 H 0.93558 0.11505 0.26768
 C369 C 0.34175 0.63183 0.39692
 C370 C 0.36190 0.67300 0.43476
 C371 C 0.40805 0.67494 0.45657
 C372 C 0.43394 0.63746 0.44570
 C373 C 0.41450 0.59675 0.41642
 C374 C 0.36824 0.59328 0.39296
 C375 C 0.29605 0.62790 0.36306
 C376 C 0.27634 0.58706 0.34084
 C377 C 0.30207 0.54944 0.34249
 C378 C 0.34780 0.55236 0.36590
 H379 H 0.27513 0.65612 0.35275
 H380 H 0.24095 0.58460 0.32085
 H381 H 0.28661 0.51788 0.32349
 H382 H 0.36695 0.52244 0.36331
 H383 H 0.42412 0.70561 0.48948
 H384 H 0.46936 0.64018 0.46638
   
