data_POSCAR
  _audit_creation_date              2014-09-24
  _audit_creation_method            'ToBaCCo'
  _symmetry_space_group_name_H-M    'P1'
  _symmetry_Int_Tables_number       1
  _symmetry_cell_setting            triclinic
  loop_
  _symmetry_equiv_pos_as_xyz
 x,y,z
_cell_length_a 29.7330
_cell_length_b 29.7292
_cell_length_c 29.7848
_cell_angle_alpha 90.097100
_cell_angle_beta 90.091200
_cell_angle_gamma 89.997900
loop_
  _atom_site_label
  _atom_site_type_symbol
  _atom_site_fract_x
  _atom_site_fract_y
  _atom_site_fract_z
O1 O 0.45841 0.96284 -0.54499
 O2 O 0.54263 0.96312 -0.45404
 O3 O 0.45511 0.96258 -0.45768
 O4 O 0.54595 0.96229 -0.54143
 O5 O 0.54342 1.03641 -0.54425
 O6 O 0.45774 1.03672 -0.45500
 O7 O 0.54536 1.03712 -0.45692
 O8 O 0.45588 1.03698 -0.54237
 Cu9 Cu 0.50054 0.95526 -0.49952
 Cu10 Cu 0.50061 1.04425 -0.49963
 C11 C 0.44225 0.99993 -0.55874
 C12 C 0.55900 1.00021 -0.44029
 C13 C 0.44129 0.99967 -0.44158
 C14 C 0.55979 0.99926 -0.55764
 O15 O -0.54586 1.45514 -0.03676
 O16 O -0.45685 1.54138 -0.03657
 O17 O -0.45879 1.45393 -0.03622
 O18 O -0.54446 1.54320 -0.03814
 O19 O -0.54689 1.54270 0.03580
 O20 O -0.45817 1.45617 0.03784
 O21 O -0.45947 1.54394 0.03743
 O22 O -0.54615 1.45566 0.03722
 Cu23 Cu -0.50147 1.49839 -0.04434
 Cu24 Cu -0.50267 1.49965 0.04449
 C25 C -0.56115 1.44035 0.00025
 C26 C -0.44317 1.55763 0.00051
 C27 C -0.44361 1.43997 0.00111
 C28 C -0.56070 1.55811 -0.00156
 O29 O 0.03671 0.45540 0.45757
 O30 O 0.03643 0.54432 0.54362
 O31 O 0.03607 0.45642 0.54468
 O32 O 0.03615 0.54324 0.45654
 O33 O -0.03807 0.54296 0.45620
 O34 O -0.03815 0.45659 0.54456
 O35 O -0.03768 0.54381 0.54399
 O36 O -0.03751 0.45567 0.45686
 Cu37 Cu 0.04377 0.49985 0.50064
 Cu38 Cu -0.04529 0.49977 0.50037
 C39 C -0.00032 0.44040 0.44241
 C40 C -0.00062 0.55930 0.55876
 C41 C -0.00109 0.44170 0.55970
 C42 C -0.00098 0.55789 0.44127
 O43 O -0.11649 0.99998 -0.06037
 O44 O 0.11494 0.99808 -0.06182
 O45 O -0.00188 1.05998 -0.11569
 O46 O 0.00072 0.93825 -0.11600
 O47 O -0.00007 0.88333 -0.06135
 O48 O -0.00276 1.11476 -0.06073
 O49 O 0.05974 0.99730 -0.11627
 O50 O -0.06201 1.00139 -0.11545
 Zr51 Zr -0.00085 0.99911 -0.07935
 O52 O 0.04009 0.95809 -0.04151
 O53 O -0.04139 1.03991 -0.04074
 C54 C -0.10353 1.00141 -0.10195
 C55 C 0.10145 0.99716 -0.10327
 C56 C -0.00306 1.10156 -0.10233
 C57 C 0.00085 0.89663 -0.10284
 H58 H 0.05902 1.05895 -0.06018
 O59 O 0.03998 1.03967 -0.04100
 H60 H -0.06068 0.93941 -0.05994
 O61 O -0.04130 0.95853 -0.04081
 O62 O 0.11599 0.99964 0.05946
 O63 O -0.11550 0.99817 0.06106
 O64 O 0.06063 1.11457 0.00187
 O65 O 0.06011 0.88311 -0.00198
 O66 O -0.06136 0.88337 0.00068
 O67 O -0.06108 1.11482 -0.00046
 O68 O 0.00251 1.05977 0.11531
 O69 O -0.00017 0.93815 0.11506
 O70 O 0.00111 1.11467 0.06071
 O71 O -0.00238 0.88336 0.06019
 O72 O 0.11545 1.05964 0.00009
 O73 O -0.11593 1.05998 -0.00159
 O74 O -0.11609 0.93830 0.00231
 O75 O 0.11510 0.93784 -0.00382
 O76 O 0.06162 1.00084 0.11460
 O77 O -0.06021 0.99689 0.11548
 Zr78 Zr 0.07876 0.99885 -0.00097
 Zr79 Zr -0.07941 0.99909 0.00012
 Zr80 Zr -0.00031 1.07811 -0.00005
 Zr81 Zr -0.00056 0.91991 -0.00055
 Zr82 Zr 0.00041 0.99894 0.07861
 O83 O -0.04089 0.95823 0.04058
 O84 O 0.04092 1.03972 0.04020
 C85 C 0.10311 1.00088 0.10108
 C86 C -0.10194 0.99686 0.10250
 C87 C 0.10222 1.10123 0.00162
 C88 C 0.10170 0.89626 -0.00372
 C89 C -0.10291 0.89666 0.00217
 C90 C -0.10268 1.10159 -0.00151
 C91 C 0.00252 1.10140 0.10219
 C92 C -0.00187 0.89658 0.10177
 H93 H -0.05962 1.05872 0.05997
 O94 O -0.04057 1.03957 0.04060
 H95 H 0.05990 0.93899 0.05871
 O96 O 0.04056 0.95826 0.03976
 C97 C 0.34042 1.00056 0.33847
 C98 C 0.34632 1.03801 0.36671
 C99 C 0.37965 1.03792 0.39983
 C100 C 0.40726 1.00006 0.40595
 C101 C 0.40111 0.96243 0.37802
 C102 C 0.36829 0.96283 0.34434
 C103 C 0.30538 1.00088 0.30313
 N104 N 0.30799 0.97253 0.26742
 N105 N 0.27653 0.97299 0.23553
 C106 C 0.24099 1.00157 0.23821
 N107 N 0.23829 1.02980 0.27401
 N108 N 0.26993 1.02958 0.30572
 C109 C 0.20585 1.00183 0.20297
 C110 C 0.16291 1.01936 0.21198
 C111 C 0.12947 1.01888 0.17894
 C112 C 0.13855 1.00163 0.13596
 C113 C 0.18166 0.98463 0.12676
 C114 C 0.21485 0.98436 0.16005
 H115 H 0.32549 1.06764 0.36288
 H116 H 0.38352 1.06734 0.42098
 H117 H 0.42200 0.93284 0.38189
 H118 H 0.36442 0.93339 0.32323
 H119 H 0.15492 1.03291 0.24479
 H120 H 0.09660 1.03234 0.18695
 H121 H 0.18956 0.97088 0.09400
 H122 H 0.24768 0.97079 0.15205
 C123 C -0.33752 0.99826 0.34077
 C124 C -0.34364 0.96088 0.36892
 C125 C -0.37720 0.96110 0.40172
 C126 C -0.40481 0.99901 0.40758
 C127 C -0.39837 1.03659 0.37980
 C128 C -0.36533 1.03607 0.34647
 C129 C -0.30250 0.99776 0.30554
 N130 N -0.30507 1.02613 0.26994
 N131 N -0.27374 1.02550 0.23804
 C132 C -0.23837 0.99670 0.24057
 N133 N -0.23569 0.96845 0.27627
 N134 N -0.26721 0.96884 0.30801
 C135 C -0.20353 0.99619 0.20516
 C136 C -0.16064 0.97825 0.21375
 C137 C -0.12751 0.97861 0.18047
 C138 C -0.13690 0.99616 0.13770
 C139 C -0.17998 1.01352 0.12894
 C140 C -0.21281 1.01389 0.16243
 H141 H -0.32285 0.93120 0.36523
 H142 H -0.38130 0.93172 0.42277
 H143 H -0.41925 1.06621 0.38347
 H144 H -0.36130 1.06545 0.32542
 H145 H -0.15245 0.96449 0.24640
 H146 H -0.09467 0.96480 0.18809
 H147 H -0.18812 1.02748 0.09636
 H148 H -0.24561 1.02775 0.15473
 C149 C -0.34067 1.00110 -0.33912
 C150 C -0.36216 0.96081 -0.35124
 C151 C -0.39494 0.96036 -0.38495
 C152 C -0.40773 1.00045 -0.40668
 C153 C -0.38638 1.04086 -0.39400
 C154 C -0.35294 1.04105 -0.36098
 C155 C -0.30562 1.00148 -0.30385
 N156 N -0.27366 1.03412 -0.30300
 N157 N -0.24197 1.03437 -0.27133
 C158 C -0.24124 1.00225 -0.23896
 N159 N -0.27332 0.96973 -0.23969
 N160 N -0.30476 0.96924 -0.27161
 C161 C -0.20616 1.00256 -0.20373
 C162 C -0.21399 0.98185 -0.16211
 C163 C -0.18087 0.98213 -0.12877
 C164 C -0.13891 1.00228 -0.13676
 C165 C -0.13095 1.02277 -0.17846
 C166 C -0.16444 1.02334 -0.21145
 H167 H -0.35319 0.92946 -0.33507
 H168 H -0.41051 0.92856 -0.39358
 H169 H -0.39510 1.07246 -0.40986
 H170 H -0.33708 1.07265 -0.35214
 H171 H -0.24591 0.96577 -0.15516
 H172 H -0.18780 0.96589 -0.09699
 H173 H -0.09895 1.03874 -0.18538
 H174 H -0.15743 1.03942 -0.24328
 C175 C 0.33805 0.99923 -0.34056
 C176 C 0.34403 0.96189 -0.36891
 C177 C 0.37779 0.96193 -0.40150
 C178 C 0.40574 0.99962 -0.40695
 C179 C 0.39945 1.03717 -0.37897
 C180 C 0.36621 1.03682 -0.34583
 C181 C 0.30280 0.99888 -0.30556
 N182 N 0.30555 1.02679 -0.26952
 N183 N 0.27404 1.02620 -0.23780
 C184 C 0.23829 0.99792 -0.24097
 N185 N 0.23541 0.97016 -0.27713
 N186 N 0.26711 0.97050 -0.30868
 C187 C 0.20329 0.99736 -0.20573
 C188 C 0.16011 0.98042 -0.21493
 C189 C 0.12690 0.98056 -0.18174
 C190 C 0.13647 0.99683 -0.13845
 C191 C 0.17981 1.01328 -0.12913
 C192 C 0.21274 1.01391 -0.16252
 H193 H 0.32298 0.93237 -0.36553
 H194 H 0.38177 0.93258 -0.42271
 H195 H 0.42059 1.06664 -0.38235
 H196 H 0.36228 1.06616 -0.32461
 H197 H 0.15179 0.96761 -0.24797
 H198 H 0.09384 0.96761 -0.18988
 H199 H 0.18812 1.02629 -0.09616
 H200 H 0.24575 1.02700 -0.15437
 C201 C 0.33810 1.33960 0.00074
 C202 C 0.35163 1.36030 0.04093
 C203 C 0.38516 1.39322 0.04085
 C204 C 0.40534 1.40699 0.00034
 C205 C 0.39121 1.38649 -0.03998
 C206 C 0.35835 1.35285 -0.03967
 C207 C 0.30311 1.30427 0.00103
 N208 N 0.30151 1.27268 -0.03192
 N209 N 0.27021 1.24062 -0.03144
 C210 C 0.23900 1.23913 0.00177
 N211 N 0.24045 1.27087 0.03459
 N212 N 0.27202 1.30267 0.03435
 C213 C 0.20413 1.20370 0.00215
 C214 C 0.16284 1.21097 0.02388
 C215 C 0.12956 1.17775 0.02349
 C216 C 0.13736 1.13627 0.00225
 C217 C 0.17888 1.12873 -0.01889
 C218 C 0.21176 1.16231 -0.01937
 H219 H 0.33672 1.35057 0.07262
 H220 H 0.39491 1.40812 0.07262
 H221 H 0.40585 1.39599 -0.07187
 H222 H 0.34839 1.33759 -0.07120
 H223 H 0.15600 1.24261 0.04059
 H224 H 0.09789 1.18431 0.04020
 H225 H 0.18563 1.09713 -0.03574
 H226 H 0.24335 1.15572 -0.03620
 C227 C 0.33886 0.65915 -0.00373
 C228 C 0.35129 0.63856 0.03680
 C229 C 0.38477 0.60559 0.03761
 C230 C 0.40600 0.59167 -0.00234
 C231 C 0.39308 0.61216 -0.04301
 C232 C 0.36026 0.64585 -0.04358
 C233 C 0.30363 0.69422 -0.00436
 N234 N 0.30255 0.72573 -0.03732
 N235 N 0.27092 0.75749 -0.03761
 C236 C 0.23886 0.75872 -0.00519
 N237 N 0.23983 0.72708 0.02762
 N238 N 0.27168 0.69560 0.02815
 C239 C 0.20363 0.79380 -0.00546
 C240 C 0.16214 0.78606 0.01567
 C241 C 0.12879 0.81915 0.01559
 C242 C 0.13662 0.86099 -0.00478
 C243 C 0.17818 0.86889 -0.02569
 C244 C 0.21121 0.83540 -0.02647
 H245 H 0.33550 0.64834 0.06807
 H246 H 0.39359 0.59073 0.06962
 H247 H 0.40859 0.60256 -0.07449
 H248 H 0.35117 0.66104 -0.07534
 H249 H 0.15531 0.75425 0.03194
 H250 H 0.09713 0.81229 0.03217
 H251 H 0.18497 0.90081 -0.04182
 H252 H 0.24294 0.84232 -0.04286
 C253 C -0.34090 0.65998 0.00136
 C254 C -0.36897 0.65390 0.03876
 C255 C -0.40194 0.62039 0.03861
 C256 C -0.40804 0.59280 0.00074
 C257 C -0.38028 0.59914 -0.03683
 C258 C -0.34678 0.63213 -0.03638
 C259 C -0.30563 0.69509 0.00175
 N260 N -0.27008 0.69262 -0.02672
 N261 N -0.23819 0.72408 -0.02621
 C262 C -0.24070 0.75949 0.00256
 N263 N -0.27635 0.76206 0.03091
 N264 N -0.30807 0.73041 0.03063
 C265 C -0.20536 0.79452 0.00294
 C266 C -0.21407 0.83737 0.02093
 C267 C -0.18086 0.87066 0.02054
 C268 C -0.13803 0.86149 0.00289
 C269 C -0.12914 0.81847 -0.01456
 C270 C -0.16258 0.78546 -0.01489
 H271 H -0.36513 0.67470 0.06840
 H272 H -0.42297 0.61637 0.06799
 H273 H -0.38414 0.57827 -0.06643
 H274 H -0.32578 0.63614 -0.06577
 H275 H -0.24676 0.84539 0.03478
 H276 H -0.18858 0.90347 0.03440
 H277 H -0.09651 0.81050 -0.02860
 H278 H -0.15479 0.75270 -0.02881
 C279 C -0.34163 1.33731 0.00161
 C280 C -0.34794 1.36496 0.03942
 C281 C -0.38146 1.39798 0.03955
 C282 C -0.40875 1.40453 0.00157
 C283 C -0.40226 1.37705 -0.03628
 C284 C -0.36934 1.34354 -0.03612
 C285 C -0.30628 1.30228 0.00132
 N286 N -0.30855 1.26718 -0.02785
 N287 N -0.27667 1.23572 -0.02833
 C288 C -0.24100 1.23824 0.00010
 N289 N -0.23865 1.27340 0.02920
 N290 N -0.27073 1.30470 0.02991
 C291 C -0.20546 1.20340 -0.00065
 C292 C -0.16257 1.21246 0.01706
 C293 C -0.12897 1.17960 0.01616
 C294 C -0.13782 1.13673 -0.00173
 C295 C -0.18076 1.12758 -0.01924
 C296 C -0.21411 1.16071 -0.01908
 H297 H -0.32723 1.36081 0.06906
 H298 H -0.38564 1.41877 0.06914
 H299 H -0.42292 1.38122 -0.06597
 H300 H -0.36518 1.32290 -0.06582
 H301 H -0.15484 1.24511 0.03129
 H302 H -0.09625 1.18752 0.03013
 H303 H -0.18847 1.09490 -0.03343
 H304 H -0.24688 1.15269 -0.03286
 C305 C 0.00079 1.33765 0.34057
 C306 C -0.03747 1.36467 0.34694
 C307 C -0.03804 1.39770 0.38040
 C308 C -0.00007 1.40494 0.40758
 C309 C 0.03828 1.37812 0.40104
 C310 C 0.03856 1.34454 0.36814
 C311 C 0.00137 1.30262 0.30523
 N312 N 0.03077 1.26771 0.30741
 N313 N 0.03125 1.23616 0.27560
 C314 C 0.00260 1.23843 0.24012
 N315 N -0.02669 1.27342 0.23786
 N316 N -0.02740 1.30478 0.26984
 C317 C 0.00317 1.20349 0.20469
 C318 C -0.01471 1.21253 0.16196
 C319 C -0.01429 1.17956 0.12848
 C320 C 0.00327 1.13658 0.13730
 C321 C 0.02099 1.12745 0.18008
 C322 C 0.02133 1.16072 0.21331
 H323 H -0.06715 1.36001 0.32634
 H324 H -0.06800 1.41798 0.38461
 H325 H 0.06797 1.38285 0.42162
 H326 H 0.06859 1.32437 0.36391
 H327 H -0.02876 1.24523 0.15425
 H328 H -0.02841 1.18749 0.09589
 H329 H 0.03489 1.09468 0.18776
 H330 H 0.03521 1.15272 0.24597
 C331 C -0.00194 1.33996 -0.33777
 C332 C 0.03636 1.34655 -0.36456
 C333 C 0.03684 1.37996 -0.39752
 C334 C -0.00126 1.40690 -0.40492
 C335 C -0.03966 1.40014 -0.37834
 C336 C -0.03985 1.36729 -0.34482
 C337 C -0.00242 1.30466 -0.30281
 N338 N -0.03191 1.30675 -0.26808
 N339 N -0.03230 1.27496 -0.23661
 C340 C -0.00348 1.23957 -0.23880
 N341 N 0.02589 1.23742 -0.27362
 N342 N 0.02653 1.26939 -0.30489
 C343 C -0.00397 1.20414 -0.20399
 C344 C 0.01407 1.16140 -0.21305
 C345 C 0.01374 1.12790 -0.18021
 C346 C -0.00390 1.13669 -0.13735
 C347 C -0.02180 1.17947 -0.12819
 C348 C -0.02222 1.21273 -0.16133
 H349 H 0.06615 1.32614 -0.35977
 H350 H 0.06685 1.38434 -0.41762
 H351 H -0.06945 1.42053 -0.38319
 H352 H -0.06992 1.36289 -0.32483
 H353 H 0.02817 1.15371 -0.24567
 H354 H 0.02797 1.09531 -0.18816
 H355 H -0.03583 1.18710 -0.09551
 H356 H -0.03624 1.24539 -0.15332
 C357 C -0.00024 0.66049 -0.34094
 C358 C 0.04002 0.64711 -0.36155
 C359 C 0.03998 0.61344 -0.39434
 C360 C -0.00056 0.59300 -0.40807
 C361 C -0.04096 0.60701 -0.38769
 C362 C -0.04069 0.63999 -0.35417
 C363 C -0.00000 0.69556 -0.30571
 N364 N -0.03278 0.69688 -0.27403
 N365 N -0.03233 0.72824 -0.24204
 C366 C 0.00066 0.75981 -0.24070
 N367 N 0.03330 0.75865 -0.27253
 N368 N 0.03310 0.72702 -0.30426
 C369 C 0.00102 0.79473 -0.20533
 C370 C 0.02212 0.83633 -0.21278
 C371 C 0.02178 0.86962 -0.17958
 C372 C 0.00125 0.86153 -0.13793
 C373 C -0.01930 0.81971 -0.13024
 C374 C -0.01985 0.78681 -0.16380
 H375 H 0.07172 0.66222 -0.35183
 H376 H 0.07180 0.60378 -0.40916
 H377 H -0.07287 0.59217 -0.39716
 H378 H -0.07226 0.64985 -0.33898
 H379 H 0.03831 0.84340 -0.24454
 H380 H 0.03798 0.90153 -0.18629
 H381 H -0.03560 0.81272 -0.09851
 H382 H -0.03619 0.75498 -0.15708
 C383 C -0.00141 0.65923 0.33833
 C384 C -0.03942 0.63207 0.34534
 C385 C -0.03939 0.59938 0.37902
 C386 C -0.00106 0.59262 0.40582
 C387 C 0.03713 0.61942 0.39849
 C388 C 0.03681 0.65267 0.36536
 C389 C -0.00167 0.69432 0.30316
 N390 N 0.02751 0.72942 0.30510
 N391 N 0.02710 0.76119 0.27363
 C392 C -0.00228 0.75900 0.23872
 N393 N -0.03133 0.72380 0.23666
 N394 N -0.03115 0.69220 0.26833
 C395 C -0.00258 0.79426 0.20372
 C396 C -0.02105 0.78561 0.16110
 C397 C -0.02063 0.81876 0.12786
 C398 C -0.00247 0.86148 0.13684
 C399 C 0.01548 0.87029 0.17962
 C400 C 0.01579 0.83691 0.21258
 H401 H -0.06943 0.63646 0.32517
 H402 H -0.06925 0.57909 0.38381
 H403 H 0.06709 0.61504 0.41874
 H404 H 0.06668 0.67295 0.36062
 H405 H -0.03532 0.75302 0.15325
 H406 H -0.03489 0.81110 0.09524
 H407 H 0.02992 0.90284 0.18744
 H408 H 0.03009 0.84464 0.24515
   
