data_POSCAR
  _audit_creation_date              2014-09-24
  _audit_creation_method            'ToBaCCo'
  _symmetry_space_group_name_H-M    'P1'
  _symmetry_Int_Tables_number       1
  _symmetry_cell_setting            triclinic
  loop_
  _symmetry_equiv_pos_as_xyz
 x,y,z
_cell_length_a 42.3054
_cell_length_b 42.6570
_cell_length_c 26.4802
_cell_angle_alpha 89.977600
_cell_angle_beta 89.906900
_cell_angle_gamma 90.061300
loop_
  _atom_site_label
  _atom_site_type_symbol
  _atom_site_fract_x
  _atom_site_fract_y
  _atom_site_fract_z
C1 C 0.69045 0.30929 0.50063
 C2 C 0.69912 0.29532 0.54665
 C3 C 0.72314 0.27251 0.54630
 C4 C 0.73998 0.26522 0.50162
 C5 C 0.73137 0.28076 0.45654
 C6 C 0.70615 0.30207 0.45547
 C7 C 0.76658 0.24183 0.50210
 C8 C 0.77567 0.22593 0.45752
 C9 C 0.80136 0.20495 0.45709
 C10 C 0.81679 0.19851 0.50292
 C11 C 0.80753 0.21293 0.54809
 C12 C 0.78317 0.23519 0.54711
 H13 H 0.67141 0.32622 0.49984
 H14 H 0.72844 0.26035 0.58106
 H15 H 0.74445 0.27684 0.42206
 H16 H 0.76262 0.22950 0.42297
 H17 H 0.83591 0.18166 0.50382
 H18 H 0.77766 0.24743 0.58171
 C19 C 0.18161 0.79995 0.50300
 C20 C 0.19747 0.79411 0.54867
 C21 C 0.22398 0.77415 0.54799
 C22 C 0.23359 0.75873 0.50328
 C23 C 0.21660 0.76476 0.45841
 C24 C 0.19137 0.78604 0.45768
 C25 C 0.26138 0.73674 0.50331
 C26 C 0.27843 0.73071 0.45844
 C27 C 0.30373 0.70952 0.45776
 C28 C 0.31348 0.69567 0.50310
 C29 C 0.29757 0.70154 0.54880
 C30 C 0.27100 0.72141 0.54809
 H31 H 0.16185 0.81606 0.50229
 H32 H 0.23731 0.77107 0.58240
 H33 H 0.22258 0.75287 0.42369
 H34 H 0.27247 0.74256 0.42369
 H35 H 0.33330 0.67964 0.50240
 H36 H 0.25764 0.72451 0.58253
 C37 C 0.30234 0.31376 -0.50162
 C38 C 0.28849 0.30398 -0.54700
 C39 C 0.26786 0.27820 -0.54651
 C40 C 0.26226 0.26098 -0.50171
 C41 C 0.27746 0.27087 -0.45693
 C42 C 0.29682 0.29762 -0.45633
 C43 C 0.24090 0.23278 -0.50175
 C44 C 0.22569 0.22272 -0.45696
 C45 C 0.20652 0.19570 -0.45620
 C46 C 0.20120 0.17973 -0.50185
 C47 C 0.21499 0.18980 -0.54719
 C48 C 0.23545 0.21568 -0.54658
 H49 H 0.31788 0.33393 -0.50171
 H50 H 0.25603 0.27203 -0.58123
 H51 H 0.27481 0.25764 -0.42239
 H52 H 0.22837 0.23605 -0.42255
 H53 H 0.18573 0.15950 -0.50248
 H54 H 0.24729 0.22201 -0.58130
 C55 C -0.20139 0.81956 -0.50484
 C56 C -0.21457 0.80946 -0.55070
 C57 C -0.23541 0.78375 -0.55000
 C58 C -0.24127 0.76666 -0.50517
 C59 C -0.22655 0.77683 -0.46015
 C60 C -0.20733 0.80369 -0.45944
 C61 C -0.26237 0.73823 -0.50560
 C62 C -0.27756 0.72775 -0.46103
 C63 C -0.29667 0.70079 -0.46107
 C64 C -0.30199 0.68509 -0.50678
 C65 C -0.28813 0.69542 -0.55188
 C66 C -0.26766 0.72129 -0.55073
 H67 H -0.18600 0.83985 -0.50439
 H68 H -0.24715 0.77732 -0.58467
 H69 H -0.22946 0.76379 -0.42549
 H70 H -0.27507 0.74064 -0.42616
 H71 H -0.31741 0.66482 -0.50742
 H72 H -0.25572 0.72772 -0.58529
 N73 N 0.03502 1.03041 0.09199
 N74 N 0.05726 1.03419 0.12625
 N75 N -0.03037 1.05655 0.05964
 N76 N -0.05090 1.07879 0.07131
 N77 N -0.03138 1.03386 0.09312
 N78 N -0.05270 1.03984 0.12813
 N79 N 0.03601 1.05310 0.05848
 N80 N 0.05889 1.07313 0.06938
 C81 C 0.07213 1.06071 0.11145
 C82 C -0.06488 1.06773 0.11385
 N83 N -0.03239 1.03618 -0.08456
 N84 N -0.05228 1.04436 -0.12048
 N85 N 0.03530 1.05468 -0.05087
 N86 N 0.05629 1.07637 -0.06332
 N87 N 0.03399 1.03282 -0.08575
 N88 N 0.05420 1.03887 -0.12241
 N89 N -0.03087 1.05804 -0.04967
 N90 N -0.04957 1.08178 -0.06129
 Mn91 Mn 0.00254 1.05593 0.00446
 C92 C -0.06316 1.07258 -0.10513
 C93 C 0.06824 1.06580 -0.10764
 N94 N -0.03507 0.96677 0.09093
 N95 N -0.05742 0.96263 0.12497
 N96 N 0.02986 0.94131 0.05527
 N97 N 0.04843 0.91749 0.06706
 N98 N 0.03132 0.96312 0.09019
 N99 N 0.05105 0.95486 0.12630
 N100 N -0.03643 0.94490 0.05611
 N101 N -0.05968 0.92503 0.06589
 Mn102 Mn -0.00001 0.99855 0.09192
 C103 C -0.07272 0.93671 0.10873
 C104 C 0.06189 0.92662 0.11104
 N105 N 0.03053 0.96553 -0.08757
 N106 N 0.05186 0.95955 -0.12256
 N107 N -0.03674 0.94606 -0.05307
 N108 N -0.05774 0.92456 -0.06600
 N109 N -0.03590 0.96869 -0.08672
 N110 N -0.05641 0.96327 -0.12315
 N111 N 0.02954 0.94286 -0.05403
 N112 N 0.05008 0.92063 -0.06566
 Mn113 Mn -0.00097 1.00080 -0.08647
 Mn114 Mn -0.00345 0.94345 0.00106
 Cl115 Cl -0.00046 0.99969 0.00270
 C116 C 0.06406 0.93168 -0.10820
 C117 C -0.07018 0.93596 -0.10935
 N118 N 0.53384 0.53361 0.08947
 N119 N 0.55596 0.53846 0.12353
 N120 N 0.46818 0.55740 0.05469
 N121 N 0.44899 0.58070 0.06665
 N122 N 0.46739 0.53554 0.08962
 N123 N 0.44753 0.54325 0.12594
 N124 N 0.53455 0.55553 0.05466
 N125 N 0.55710 0.57615 0.06449
 C126 C 0.57044 0.56486 0.10733
 C127 C 0.43589 0.57120 0.11077
 N128 N 0.46752 0.53328 -0.08808
 N129 N 0.44600 0.53883 -0.12285
 N130 N 0.53446 0.55443 -0.05464
 N131 N 0.55489 0.57642 -0.06788
 N132 N 0.53400 0.53182 -0.08831
 N133 N 0.55422 0.53774 -0.12506
 N134 N 0.46812 0.55598 -0.05459
 N135 N 0.44710 0.57778 -0.06604
 Mn136 Mn 0.50134 0.55617 0.00002
 C137 C 0.43325 0.56645 -0.10841
 C138 C 0.56740 0.56535 -0.11145
 N139 N 0.46548 0.46815 0.09144
 N140 N 0.44350 0.46373 0.12603
 N141 N 0.53148 0.44380 0.05801
 N142 N 0.55293 0.42231 0.06897
 N143 N 0.53197 0.46646 0.09153
 N144 N 0.55386 0.46124 0.12584
 N145 N 0.46501 0.44545 0.05795
 N146 N 0.44274 0.42479 0.06919
 Mn147 Mn 0.49964 0.50092 0.09087
 C148 C 0.42932 0.43682 0.11146
 C149 C 0.56690 0.43382 0.11112
 N150 N 0.53229 0.46431 -0.08616
 N151 N 0.55244 0.45687 -0.12222
 N152 N 0.46530 0.44399 -0.05134
 N153 N 0.44481 0.42179 -0.06335
 N154 N 0.46584 0.46590 -0.08622
 N155 N 0.44558 0.45936 -0.12248
 N156 N 0.53155 0.44238 -0.05131
 N157 N 0.55102 0.41927 -0.06314
 Mn158 Mn 0.49992 0.49884 -0.08751
 Mn159 Mn 0.49833 0.44356 0.00340
 Cl160 Cl 0.49980 0.49987 0.00165
 C161 C 0.56425 0.42899 -0.10707
 C162 C 0.43233 0.43207 -0.10741
 N163 N 0.30243 0.32000 0.31722
 C164 C 0.31767 0.34798 0.31912
 N165 N 0.32201 0.36201 0.36443
 N166 N 0.31180 0.34841 0.40663
 C167 C 0.29685 0.32024 0.40525
 N168 N 0.29212 0.30640 0.35957
 C169 C 0.33172 0.36167 0.27493
 C170 C 0.34551 0.37446 0.24076
 C171 C 0.36399 0.39112 0.20400
 N172 N 0.37313 0.42093 0.21391
 N173 N 0.39321 0.43570 0.18334
 C174 C 0.40493 0.42117 0.14179
 N175 N 0.39552 0.39139 0.13149
 N176 N 0.37543 0.37655 0.16224
 N177 N -0.17567 0.86208 0.36138
 C178 C -0.18541 0.85085 0.31625
 N179 N -0.20589 0.82637 0.31513
 N180 N -0.21603 0.81340 0.35811
 C181 C -0.20596 0.82434 0.40368
 N182 N -0.18573 0.84911 0.40414
 C183 C -0.17221 0.86389 0.27095
 C184 C -0.15873 0.87626 0.23611
 C185 C -0.14018 0.89263 0.19915
 N186 N -0.12866 0.87776 0.15770
 N187 N -0.10798 0.89214 0.12740
 C188 C -0.09800 0.92172 0.13793
 N189 N -0.10984 0.93654 0.17910
 N190 N -0.13053 0.92225 0.20918
 N191 N 0.67878 0.63837 0.35778
 C192 C 0.68303 0.65304 0.31294
 N193 N 0.69810 0.68113 0.31191
 N194 N 0.70831 0.69420 0.35468
 C195 C 0.70366 0.67972 0.39990
 N196 N 0.68889 0.65144 0.40039
 C197 C 0.66904 0.63987 0.26840
 C198 C 0.65522 0.62734 0.23411
 C199 C 0.63664 0.61067 0.19763
 N200 N 0.62760 0.58088 0.20786
 N201 N 0.60727 0.56610 0.17789
 C202 C 0.59520 0.58057 0.13660
 N203 N 0.60453 0.61034 0.12590
 N204 N 0.62486 0.62521 0.15609
 N205 N 0.20078 1.17474 0.31695
 C206 C 0.18585 1.14659 0.31848
 N207 N 0.18185 1.13211 0.36355
 N208 N 0.19207 1.14545 0.40588
 C209 C 0.20670 1.17380 0.40488
 N210 N 0.21111 1.18807 0.35943
 C211 C 0.17161 1.13325 0.27428
 C212 C 0.15759 1.12083 0.24009
 C213 C 0.13876 1.10464 0.20337
 N214 N 0.12898 1.07502 0.21322
 N215 N 0.10849 1.06079 0.18280
 C216 C 0.09701 1.07569 0.14147
 N217 N 0.10707 1.10527 0.13121
 N218 N 0.12756 1.11958 0.16181
 N219 N 0.64867 0.33790 -0.36641
 C220 C 0.65852 0.32709 -0.32108
 N221 N 0.68134 0.30479 -0.31952
 N222 N 0.69403 0.29388 -0.36223
 C223 C 0.68448 0.30498 -0.40800
 N224 N 0.66136 0.32708 -0.40891
 C225 C 0.64588 0.34089 -0.27595
 C226 C 0.63414 0.35488 -0.24110
 C227 C 0.61891 0.37401 -0.20374
 N228 N 0.60764 0.36165 -0.16002
 N229 N 0.59104 0.37938 -0.12802
 C230 C 0.58512 0.40996 -0.13892
 N231 N 0.59666 0.42222 -0.18246
 N232 N 0.61327 0.40457 -0.21427
 N233 N 0.15051 0.84053 -0.36446
 C234 C 0.16507 0.83510 -0.31987
 N235 N 0.19076 0.81612 -0.31878
 N236 N 0.20143 0.80291 -0.36120
 C237 C 0.18683 0.80825 -0.40623
 N238 N 0.16114 0.82737 -0.40669
 C239 C 0.15303 0.84976 -0.27505
 C240 C 0.14096 0.86347 -0.24022
 C241 C 0.12452 0.88140 -0.20265
 N242 N 0.11224 0.86756 -0.16081
 N243 N 0.09378 0.88380 -0.12939
 C244 C 0.08688 0.91432 -0.13909
 N245 N 0.09946 0.92810 -0.18070
 N246 N 0.11792 0.91192 -0.21193
 N247 N 0.34482 0.65554 -0.36432
 C248 C 0.33033 0.66106 -0.31964
 N249 N 0.30455 0.67994 -0.31849
 N250 N 0.29375 0.69296 -0.36094
 C251 C 0.30829 0.68754 -0.40606
 N252 N 0.33406 0.66852 -0.40657
 C253 C 0.34259 0.64667 -0.27478
 C254 C 0.35492 0.63320 -0.23997
 C255 C 0.37172 0.61558 -0.20246
 N256 N 0.37887 0.58518 -0.21172
 N257 N 0.39767 0.56936 -0.18061
 C258 C 0.41005 0.58338 -0.13913
 N259 N 0.40260 0.61377 -0.12945
 N260 N 0.38381 0.62966 -0.16076
 N261 N -0.17947 1.19742 -0.31588
 C262 C -0.15239 1.18043 -0.31700
 N263 N -0.13781 1.17546 -0.36183
 N264 N -0.15005 1.18675 -0.40434
 C265 C -0.17736 1.20344 -0.40375
 N266 N -0.19170 1.20881 -0.35853
 C267 C -0.14055 1.16511 -0.27265
 C268 C -0.12959 1.15012 -0.23829
 C269 C -0.11531 1.13010 -0.20125
 N270 N -0.10393 1.14170 -0.15715
 N271 N -0.08816 1.12315 -0.12536
 C272 C -0.08321 1.09249 -0.13682
 N273 N -0.09488 1.08098 -0.18075
 N274 N -0.11065 1.09945 -0.21237
 N275 N 0.68435 0.68825 -0.32564
 C276 C 0.66388 0.66378 -0.32817
 N277 N 0.65596 0.65206 -0.37390
 N278 N 0.66821 0.66418 -0.41586
 C279 C 0.68885 0.68857 -0.41385
 N280 N 0.69662 0.70044 -0.36780
 C281 C 0.65098 0.64955 -0.28355
 C282 C 0.63896 0.63570 -0.24877
 C283 C 0.62328 0.61728 -0.21091
 N284 N 0.61581 0.58704 -0.22106
 N285 N 0.59881 0.57027 -0.18844
 C286 C 0.58870 0.58315 -0.14448
 N287 N 0.59646 0.61338 -0.13402
 N288 N 0.61345 0.63021 -0.16678
 N289 N 0.18566 1.18751 -0.32323
 C290 C 0.16747 1.16130 -0.32429
 N291 N 0.16206 1.14699 -0.36902
 N292 N 0.17449 1.15833 -0.41141
 C293 C 0.19286 1.18450 -0.41098
 N294 N 0.19812 1.19889 -0.36582
 C295 C 0.15405 1.14817 -0.27919
 C296 C 0.14159 1.13496 -0.24414
 C297 C 0.12540 1.11692 -0.20633
 N298 N 0.11738 1.08685 -0.21661
 N299 N 0.09998 1.07038 -0.18418
 C300 C 0.09000 1.08337 -0.14023
 N301 N 0.09831 1.11344 -0.12959
 N302 N 0.11571 1.12999 -0.16221
 N303 N 0.31513 0.30895 -0.32052
 C304 C 0.33626 0.33288 -0.32247
 N305 N 0.34485 0.34462 -0.36795
 N306 N 0.33263 0.33302 -0.41023
 C307 C 0.31133 0.30918 -0.40880
 N308 N 0.30289 0.29729 -0.36300
 C309 C 0.34895 0.34677 -0.27752
 C310 C 0.36082 0.36055 -0.24262
 C311 C 0.37636 0.37919 -0.20501
 N312 N 0.38660 0.36648 -0.16097
 N313 N 0.40358 0.38360 -0.12868
 C314 C 0.41092 0.41389 -0.13956
 N315 N 0.40038 0.42652 -0.18341
 N316 N 0.38340 0.40948 -0.21553
 N317 N -0.16003 0.85140 -0.37103
 C318 C -0.16852 0.83966 -0.32552
 N319 N -0.18942 0.81552 -0.32352
 N320 N -0.20154 0.80367 -0.36597
 C321 C -0.19317 0.81557 -0.41180
 N322 N -0.17211 0.83961 -0.41326
 C323 C -0.15564 0.85350 -0.28065
 C324 C -0.14348 0.86710 -0.24581
 C325 C -0.12746 0.88523 -0.20802
 N326 N -0.11772 0.87206 -0.16407
 N327 N -0.10030 0.88854 -0.13153
 C328 C -0.09200 0.91864 -0.14206
 N329 N -0.10203 0.93175 -0.18585
 N330 N -0.11946 0.91534 -0.21823
 N331 N 0.31720 0.69365 0.32193
 C332 C 0.34485 0.67759 0.32314
 N333 N 0.35964 0.67343 0.36792
 N334 N 0.34708 0.68458 0.41033
 C335 C 0.31920 0.70034 0.40966
 N336 N 0.30464 0.70491 0.36447
 C337 C 0.35707 0.66232 0.27898
 C338 C 0.36834 0.64746 0.24469
 C339 C 0.38298 0.62768 0.20763
 N340 N 0.38856 0.59722 0.21898
 N341 N 0.40459 0.57905 0.18716
 C342 C 0.41559 0.59069 0.14281
 N343 N 0.40971 0.62116 0.13114
 N344 N 0.39369 0.63940 0.16311
 N345 N -0.15268 1.15731 0.37055
 C346 C -0.16653 1.16364 0.32569
 N347 N -0.19151 1.18354 0.32432
 N348 N -0.20214 1.19678 0.36674
 C349 C -0.18822 1.19058 0.41203
 N350 N -0.16328 1.17051 0.41277
 C351 C -0.15433 1.14916 0.28080
 C352 C -0.14213 1.13558 0.24595
 C353 C -0.12555 1.11776 0.20836
 N354 N -0.11892 1.08723 0.21750
 N355 N -0.10037 1.07115 0.18625
 C356 C -0.08774 1.08503 0.14477
 N357 N -0.09467 1.11556 0.13521
 N358 N -0.11321 1.13172 0.16665
 N359 N 0.69591 0.31970 0.31919
 C360 C 0.67396 0.34286 0.32073
 N361 N 0.66327 0.35297 0.36606
 N362 N 0.67393 0.34027 0.40859
 C363 C 0.69575 0.31695 0.40758
 N364 N 0.70663 0.30698 0.36193
 C365 C 0.66103 0.35629 0.27560
 C366 C 0.64810 0.36913 0.24075
 C367 C 0.63056 0.38622 0.20350
 N368 N 0.62306 0.41656 0.21255
 N369 N 0.60355 0.43189 0.18193
 C370 C 0.59079 0.41741 0.14117
 N371 N 0.59858 0.38709 0.13166
 N372 N 0.61809 0.37168 0.16250
 N373 N 0.13584 0.82243 0.36777
 C374 C 0.15075 0.81828 0.32301
 N375 N 0.17833 0.80209 0.32184
 N376 N 0.19071 0.79071 0.36438
 C377 C 0.17604 0.79528 0.40956
 N378 N 0.14823 0.81116 0.41019
 C379 C 0.13878 0.83374 0.27886
 C380 C 0.12778 0.84881 0.24460
 C381 C 0.11354 0.86889 0.20758
 N382 N 0.10235 0.85737 0.16329
 N383 N 0.08673 0.87597 0.13140
 C384 C 0.08175 0.90662 0.14293
 N385 N 0.09322 0.91804 0.18704
 N386 N 0.10885 0.89952 0.21877
   
