data_POSCAR
  _audit_creation_date              2014-09-24
  _audit_creation_method            'ToBaCCo'
  _symmetry_space_group_name_H-M    'P1'
  _symmetry_Int_Tables_number       1
  _symmetry_cell_setting            triclinic
  loop_
  _symmetry_equiv_pos_as_xyz
 x,y,z
_cell_length_a 13.3800
_cell_length_b 13.3798
_cell_length_c 13.3798
_cell_angle_alpha 87.262200
_cell_angle_beta 92.737900
_cell_angle_gamma 87.261200
loop_
  _atom_site_label
  _atom_site_type_symbol
  _atom_site_fract_x
  _atom_site_fract_y
  _atom_site_fract_z
O1 O 0.61251 0.52621 0.11293
 O2 O 0.34533 0.51562 0.03636
 O3 O 0.47866 0.38693 0.11553
 O4 O 0.47561 0.65351 0.03374
 O5 O 0.52035 0.61534 -0.11651
 O6 O 0.51806 0.34915 -0.03638
 O7 O 0.38353 0.47978 -0.11615
 O8 O 0.65136 0.48321 -0.03765
 Cu9 Cu 0.47427 0.52468 0.08987
 Cu10 Cu 0.52204 0.47780 -0.09193
 C11 C 0.67811 0.50826 0.04962
 C12 C 0.31789 0.49386 -0.05180
 C13 C 0.49575 0.32186 0.05162
 C14 C 0.50062 0.68051 -0.05347
 O15 O -0.11517 0.61478 0.52137
 O16 O -0.03657 0.34697 0.51826
 O17 O -0.03567 0.48033 0.65229
 O18 O -0.11576 0.47769 0.38583
 O19 O 0.03443 0.52280 0.34793
 O20 O 0.11628 0.51938 0.61423
 O21 O 0.11389 0.38580 0.47491
 O22 O 0.03743 0.65300 0.48587
 Cu23 Cu -0.09107 0.47621 0.52348
 Cu24 Cu 0.09071 0.52400 0.47660
 C25 C -0.05078 0.68042 0.50750
 C26 C 0.05065 0.32020 0.49308
 C27 C 0.05244 0.50247 0.67941
 C28 C -0.05266 0.49762 0.32076
 O29 O 0.51551 0.03714 0.65390
 O30 O 0.52644 0.11359 0.38666
 O31 O 0.38697 0.11506 0.52040
 O32 O 0.65353 0.03317 0.52375
 O33 O 0.61539 -0.11696 0.47868
 O34 O 0.34917 -0.03694 0.48127
 O35 O 0.48309 -0.03686 0.34787
 O36 O 0.47997 -0.11546 0.61564
 Cu37 Cu 0.52484 0.08999 0.52482
 Cu38 Cu 0.47795 -0.09180 0.47703
 C39 C 0.49367 -0.05101 0.68126
 C40 C 0.50808 0.05041 0.32104
 C41 C 0.32192 0.05102 0.50365
 C42 C 0.68056 -0.05406 0.49879
 C43 C 0.48757 -0.07783 -0.21548
 C44 C 0.49321 -0.17994 -0.18395
 C45 C 0.50535 -0.21105 -0.08211
 C46 C 0.51908 -0.13788 -0.00999
 C47 C 0.50020 -0.03538 -0.03859
 C48 C 0.47956 -0.00556 -0.14091
 C49 C 0.44529 0.09431 -0.16428
 C50 C 0.44557 0.16525 -0.09185
 C51 C 0.48044 0.13990 0.00737
 C52 C 0.50119 0.03753 0.03561
 C53 C 0.55334 -0.16358 0.08942
 C54 C 0.55482 -0.09240 0.16170
 C55 C 0.52217 0.00768 0.13781
 C56 C 0.51280 0.07942 0.21226
 C57 C 0.50287 0.18151 0.18171
 C58 C 0.49166 0.21313 0.07994
 H59 H 0.41335 0.11842 -0.23765
 H60 H 0.41418 0.23921 -0.11442
 H61 H 0.58246 -0.23827 0.11236
 H62 H 0.58500 -0.11671 0.23566
 H63 H 0.49034 -0.23642 -0.23932
 H64 H 0.50348 0.23717 0.23793
 C65 C 0.08113 0.50701 0.78800
 C66 C 0.18298 0.49423 0.81917
 C67 C 0.21455 0.48830 0.92132
 C68 C 0.13994 0.48070 0.99360
 C69 C 0.03766 0.50164 0.96376
 C70 C 0.00906 0.52087 0.86128
 C71 C -0.09033 0.55549 0.83579
 C72 C -0.16271 0.55629 0.90689
 C73 C -0.13878 0.52332 1.00683
 C74 C -0.03654 0.50263 1.03667
 C75 C 0.16326 0.44675 1.09362
 C76 C 0.09093 0.44772 1.16464
 C77 C -0.00830 0.48224 1.13906
 C78 C -0.08092 0.49331 1.21217
 C79 C -0.18267 0.50387 1.18062
 C80 C -0.21319 0.51354 1.07854
 H81 H -0.11327 0.58542 0.76141
 H82 H -0.23677 0.58634 0.88272
 H83 H 0.23652 0.41467 1.11789
 H84 H 0.11350 0.41713 1.23892
 H85 H 0.23837 0.49116 0.76273
 H86 H -0.23886 0.50427 1.23631
 C87 C -0.07767 -0.21624 0.51316
 C88 C -0.17982 -0.18467 0.50710
 C89 C -0.21092 -0.08282 0.49457
 C90 C -0.13770 -0.01072 0.48103
 C91 C -0.03522 -0.03933 0.50013
 C92 C -0.00540 -0.14163 0.52099
 C93 C 0.09452 -0.16493 0.55522
 C94 C 0.16551 -0.09255 0.55455
 C95 C 0.14009 0.00663 0.51966
 C96 C 0.03769 0.03487 0.49914
 C97 C -0.16333 0.08872 0.44678
 C98 C -0.09219 0.16105 0.44567
 C99 C 0.00783 0.13709 0.47836
 C100 C 0.07957 0.21149 0.48790
 C101 C 0.18164 0.18097 0.49744
 C102 C 0.21326 0.07923 0.50825
 H103 H 0.11868 -0.23820 0.58735
 H104 H 0.23956 -0.11508 0.58572
 H105 H -0.23793 0.11170 0.41744
 H106 H -0.11646 0.23509 0.41567
 H107 H -0.23631 -0.24002 0.50994
 H108 H 0.23729 0.23721 0.49682
   
