data_POSCAR
  _audit_creation_date              2014-09-24
  _audit_creation_method            'ToBaCCo'
  _symmetry_space_group_name_H-M    'P1'
  _symmetry_Int_Tables_number       1
  _symmetry_cell_setting            triclinic
  loop_
  _symmetry_equiv_pos_as_xyz
 x,y,z
_cell_length_a 27.6137
_cell_length_b 27.5919
_cell_length_c 27.6095
_cell_angle_alpha 90.016900
_cell_angle_beta 90.021500
_cell_angle_gamma 90.002500
loop_
  _atom_site_label
  _atom_site_type_symbol
  _atom_site_fract_x
  _atom_site_fract_y
  _atom_site_fract_z
C1 C 0.45621 0.99890 -0.60397
 C2 C 0.50100 0.99903 -0.62809
 C3 C 0.54576 0.99751 -0.60397
 C4 C 0.54574 0.99817 -0.55225
 C5 C 0.50107 0.99682 -0.52650
 C6 C 0.45627 0.99585 -0.55232
 C7 C 0.41336 0.98915 -0.52558
 C8 C 0.41343 0.98868 -0.47541
 C9 C 0.45667 0.99219 -0.44912
 C10 C 0.50116 0.99617 -0.47455
 C11 C 0.58874 1.00208 -0.52526
 C12 C 0.58883 1.00032 -0.47513
 C13 C 0.54562 0.99905 -0.44824
 C14 C 0.54508 0.99845 -0.39624
 C15 C 0.50008 0.99413 -0.37279
 C16 C 0.45645 0.99166 -0.39799
 H17 H 0.37888 0.98235 -0.54240
 H18 H 0.37880 0.98493 -0.45760
 H19 H 0.62356 1.00767 -0.54174
 H20 H 0.62411 0.99905 -0.45887
 H21 H 0.50106 1.00007 -0.66731
 H22 H 0.49830 0.99429 -0.33353
 C23 C -0.60160 1.45667 0.00507
 C24 C -0.62665 1.50054 0.00535
 C25 C -0.60307 1.54558 0.00193
 C26 C -0.55117 1.54604 0.00077
 C27 C -0.52508 1.50143 0.00080
 C28 C -0.55054 1.45671 0.00251
 C29 C -0.52434 1.41314 0.00092
 C30 C -0.47417 1.41310 -0.00105
 C31 C -0.44790 1.45664 -0.00255
 C32 C -0.47329 1.50140 -0.00073
 C33 C -0.52418 1.58926 0.00159
 C34 C -0.47406 1.58923 -0.00134
 C35 C -0.44714 1.54596 -0.00060
 C36 C -0.39524 1.54543 -0.00176
 C37 C -0.37173 1.50036 -0.00528
 C38 C -0.39684 1.45653 -0.00510
 H39 H -0.54222 1.37831 0.00091
 H40 H -0.45634 1.37824 -0.00113
 H41 H -0.54048 1.62440 0.00553
 H42 H -0.45771 1.62434 -0.00522
 H43 H -0.66589 1.49896 0.00638
 H44 H -0.33249 1.49873 -0.00630
 C45 C -0.00187 0.54539 0.60384
 C46 C -0.00187 0.50063 0.62805
 C47 C -0.00327 0.45580 0.60403
 C48 C -0.00239 0.45569 0.55232
 C49 C -0.00362 0.50035 0.52647
 C50 C -0.00470 0.54524 0.55219
 C51 C -0.01127 0.58813 0.52535
 C52 C -0.01153 0.58797 0.47518
 C53 C -0.00790 0.54464 0.44899
 C54 C -0.00403 0.50017 0.47453
 C55 C 0.00163 0.41261 0.52543
 C56 C 0.00012 0.41242 0.47529
 C57 C -0.00103 0.45562 0.44832
 C58 C -0.00137 0.45607 0.39633
 C59 C -0.00559 0.50106 0.37277
 C60 C -0.00819 0.54476 0.39788
 H61 H -0.01813 0.62267 0.54207
 H62 H -0.01520 0.62259 0.45727
 H63 H 0.00711 0.37779 0.54202
 H64 H -0.00107 0.37709 0.45908
 H65 H -0.00100 0.50066 0.66728
 H66 H -0.00524 0.50279 0.33351
 O67 O -0.12408 1.00243 -0.06481
 O68 O 0.12504 0.99847 -0.06594
 O69 O -0.00183 1.06620 -0.12502
 O70 O 0.00220 0.93474 -0.12486
 O71 O 0.00269 0.87613 -0.06522
 O72 O -0.00166 1.12495 -0.06550
 O73 O 0.06598 0.99848 -0.12519
 O74 O -0.06567 1.00238 -0.12463
 Zr75 Zr 0.00037 1.00051 -0.08564
 O76 O 0.04447 0.95682 -0.04412
 O77 O -0.04333 1.04428 -0.04389
 C78 C -0.11028 1.00354 -0.10970
 C79 C 0.11074 0.99730 -0.11071
 C80 C -0.00301 1.11089 -0.11031
 C81 C 0.00356 0.89009 -0.11009
 H82 H 0.06494 1.06501 -0.06495
 O83 O 0.04438 1.04427 -0.04421
 H84 H -0.06394 0.93598 -0.06424
 O85 O -0.04319 0.95680 -0.04374
 O86 O 0.12556 1.00286 0.06505
 O87 O -0.12346 0.99852 0.06588
 O88 O 0.06606 1.12508 0.00141
 O89 O 0.06600 0.87623 -0.00194
 O90 O -0.06424 0.87612 0.00231
 O91 O -0.06465 1.12498 -0.00191
 O92 O 0.00321 1.06683 0.12472
 O93 O -0.00070 0.93516 0.12500
 O94 O 0.00302 1.12527 0.06492
 O95 O -0.00096 0.87634 0.06553
 O96 O 0.12547 1.06628 0.00126
 O97 O -0.12398 1.06609 -0.00146
 O98 O -0.12381 0.93474 0.00244
 O99 O 0.12550 0.93493 -0.00220
 O100 O 0.06696 1.00290 0.12470
 O101 O -0.06450 0.99888 0.12520
 Zr102 Zr 0.08601 1.00064 -0.00032
 Zr103 Zr -0.08441 1.00051 0.00035
 Zr104 Zr 0.00073 1.08551 -0.00018
 Zr105 Zr 0.00085 0.91578 0.00012
 Zr106 Zr 0.00111 1.00086 0.08561
 O107 O -0.04285 0.95691 0.04425
 O108 O 0.04480 1.04452 0.04372
 C109 C 0.11159 1.00405 0.10992
 C110 C -0.10922 0.99752 0.11065
 C111 C 0.11087 1.11098 0.00235
 C112 C 0.11080 0.89023 -0.00319
 C113 C -0.10905 0.89007 0.00354
 C114 C -0.10944 1.11082 -0.00274
 C115 C 0.00433 1.11146 0.10980
 C116 C -0.00196 0.89044 0.11036
 H117 H -0.06349 1.06520 0.06469
 O118 O -0.04289 1.04442 0.04403
 H119 H 0.06553 0.93633 0.06445
 O120 O 0.04478 0.95705 0.04388
 N121 N 0.37676 0.99094 0.29104
 C122 C 0.33457 1.00868 0.30846
 N123 N 0.33254 1.02389 0.35509
 N124 N 0.37151 1.02083 0.38350
 C125 C 0.41387 1.00200 0.36672
 N126 N 0.41555 0.98791 0.31947
 C127 C 0.29285 1.01074 0.27750
 C128 C 0.25925 1.01122 0.24960
 C129 C 0.22106 1.01060 0.21433
 N130 N 0.17391 1.00903 0.22805
 N131 N 0.13886 1.00708 0.19484
 C132 C 0.14984 1.00648 0.14686
 N133 N 0.19709 1.00810 0.13336
 N134 N 0.23206 1.01007 0.16651
 N135 N -0.33129 0.97167 0.35378
 C136 C -0.33263 0.99019 0.30836
 N137 N -0.37421 1.01033 0.29205
 N138 N -0.41303 1.01255 0.32048
 C139 C -0.41194 0.99522 0.36666
 N140 N -0.37028 0.97392 0.38218
 C141 C -0.29084 0.98887 0.27752
 C142 C -0.25708 0.98894 0.24985
 C143 C -0.21876 0.99012 0.21478
 N144 N -0.22965 0.99072 0.16695
 N145 N -0.19461 0.99303 0.13395
 C146 C -0.14741 0.99496 0.14759
 N147 N -0.13651 0.99430 0.19560
 N148 N -0.17165 0.99200 0.22868
 N149 N -0.33368 1.02816 -0.35139
 C150 C -0.33512 1.00900 -0.30625
 N151 N -0.37634 0.98743 -0.29087
 N152 N -0.41464 0.98440 -0.32000
 C153 C -0.41334 1.00228 -0.36597
 N154 N -0.37213 1.02507 -0.38045
 C155 C -0.29360 1.01078 -0.27501
 C156 C -0.25977 1.01106 -0.24739
 C157 C -0.22106 1.01024 -0.21269
 N158 N -0.23139 1.00968 -0.16474
 N159 N -0.19595 1.00762 -0.13212
 C160 C -0.14889 1.00594 -0.14626
 N161 N -0.13856 1.00656 -0.19439
 N162 N -0.17410 1.00861 -0.22708
 N163 N 0.33991 0.95377 -0.34366
 C164 C 0.33203 0.98987 -0.31121
 N165 N 0.36458 1.02644 -0.30771
 N166 N 0.40368 1.02713 -0.33589
 C167 C 0.41152 0.99138 -0.36877
 N168 N 0.37909 0.95445 -0.37192
 C169 C 0.29098 0.98874 -0.27931
 C170 C 0.25772 0.98889 -0.25102
 C171 C 0.21971 0.99010 -0.21556
 N172 N 0.23094 0.99094 -0.16779
 N173 N 0.19612 0.99318 -0.13453
 C174 C 0.14880 0.99478 -0.14784
 N175 N 0.13759 0.99388 -0.19577
 N176 N 0.17249 0.99165 -0.22910
 N177 N 0.34700 1.33793 0.04030
 C178 C 0.31127 1.33242 0.00701
 N179 N 0.30459 1.36724 -0.02691
 N180 N 0.33286 1.40630 -0.02775
 C181 C 0.36899 1.41182 0.00516
 N182 N 0.37535 1.37707 0.03946
 C183 C 0.27941 1.29137 0.00846
 C184 C 0.25109 1.25812 0.00868
 C185 C 0.21564 1.22012 0.00800
 N186 N 0.16787 1.23134 0.00753
 N187 N 0.13460 1.19647 0.00580
 C188 C 0.14792 1.14913 0.00439
 N189 N 0.19584 1.13793 0.00493
 N190 N 0.22917 1.17287 0.00664
 N191 N 0.29209 0.62460 0.01396
 C192 C 0.30770 0.66593 -0.00728
 N193 N 0.35287 0.66736 -0.02631
 N194 N 0.38173 0.62874 -0.02347
 C195 C 0.36699 0.58740 -0.00106
 N196 N 0.32102 0.58613 0.01675
 C197 C 0.27655 0.70747 -0.00915
 C198 C 0.24893 0.74127 -0.00964
 C199 C 0.21414 0.77985 -0.00913
 N200 N 0.22837 0.82690 -0.00772
 N201 N 0.19555 0.86234 -0.00596
 C202 C 0.14748 0.85178 -0.00543
 N203 N 0.13351 0.80463 -0.00691
 N204 N 0.16625 0.76930 -0.00868
 N205 N -0.29029 0.62434 -0.01361
 C206 C -0.30585 0.66566 0.00771
 N207 N -0.35102 0.66711 0.02675
 N208 N -0.37993 0.62853 0.02383
 C209 C -0.36524 0.58721 0.00133
 N210 N -0.31927 0.58590 -0.01647
 C211 C -0.27468 0.70718 0.00963
 C212 C -0.24705 0.74098 0.01014
 C213 C -0.21230 0.77959 0.00965
 N214 N -0.22657 0.82663 0.00812
 N215 N -0.19378 0.86209 0.00634
 C216 C -0.14570 0.85159 0.00588
 N217 N -0.13168 0.80445 0.00747
 N218 N -0.16439 0.76909 0.00927
 N219 N -0.30319 1.36690 0.02671
 C220 C -0.30991 1.33215 -0.00730
 N221 N -0.34562 1.33778 -0.04059
 N222 N -0.37391 1.37696 -0.03967
 C223 C -0.36750 1.41164 -0.00529
 N224 N -0.33140 1.40600 0.02763
 C225 C -0.27809 1.29107 -0.00884
 C226 C -0.24979 1.25782 -0.00912
 C227 C -0.21431 1.21983 -0.00850
 N228 N -0.22781 1.17258 -0.00694
 N229 N -0.19445 1.13767 -0.00521
 C230 C -0.14653 1.14891 -0.00486
 N231 N -0.13325 1.19626 -0.00648
 N232 N -0.16656 1.23110 -0.00821
 N233 N -0.01176 1.37736 0.29099
 C234 C 0.00977 1.33616 0.30652
 N235 N 0.02866 1.33474 0.35178
 N236 N 0.02536 1.37324 0.38080
 C237 C 0.00263 1.41443 0.36615
 N238 N -0.01500 1.41569 0.32008
 C239 C 0.01175 1.29462 0.27531
 C240 C 0.01213 1.26081 0.24765
 C241 C 0.01136 1.22215 0.21290
 N242 N 0.00973 1.17513 0.22723
 N243 N 0.00762 1.13963 0.19448
 C244 C 0.00689 1.15005 0.14638
 N245 N 0.00858 1.19716 0.13230
 N246 N 0.01071 1.23257 0.16497
 N247 N 0.00917 1.37602 -0.29172
 C248 C -0.01091 1.33437 -0.30799
 N249 N -0.02924 1.33288 -0.35349
 N250 N -0.02688 1.37182 -0.38201
 C251 C -0.00565 1.41355 -0.36651
 N252 N 0.01150 1.41478 -0.32027
 C253 C -0.01229 1.29265 -0.27706
 C254 C -0.01221 1.25893 -0.24932
 C255 C -0.01095 1.22060 -0.21426
 N256 N -0.00922 1.17347 -0.22820
 N257 N -0.00676 1.13830 -0.19516
 C258 C -0.00578 1.14917 -0.14715
 N259 N -0.00755 1.19640 -0.13345
 N260 N -0.01003 1.23148 -0.16643
 N261 N 0.02323 0.66914 -0.35532
 C262 C 0.00781 0.66720 -0.30876
 N263 N -0.01015 0.62507 -0.29138
 N264 N -0.01317 0.58623 -0.31977
 C265 C 0.00114 0.58781 -0.36694
 N266 N 0.02017 0.63012 -0.38369
 C267 C 0.00993 0.70894 -0.27782
 C268 C 0.01046 0.74253 -0.24990
 C269 C 0.00989 0.78069 -0.21459
 N270 N 0.00964 0.76961 -0.16678
 N271 N 0.00772 0.80456 -0.13359
 C272 C 0.00586 0.85185 -0.14705
 N273 N 0.00619 0.86290 -0.19502
 N274 N 0.00809 0.82787 -0.22826
 N275 N 0.02696 0.63649 0.30759
 C276 C -0.00967 0.66899 0.31076
 N277 N -0.04590 0.66115 0.34301
 N278 N -0.04532 0.62204 0.37139
 C279 C -0.00834 0.58965 0.36857
 N280 N 0.02755 0.59745 0.33590
 C281 C -0.01069 0.70995 0.27875
 C282 C -0.01046 0.74319 0.25040
 C283 C -0.00916 0.78123 0.21498
 N284 N -0.00751 0.82845 0.22859
 N285 N -0.00524 0.86342 0.19532
 C286 C -0.00441 0.85227 0.14737
 N287 N -0.00610 0.80495 0.13398
 N288 N -0.00838 0.77005 0.16720
   
