data_POSCAR
  _audit_creation_date              2014-09-24
  _audit_creation_method            'ToBaCCo'
  _symmetry_space_group_name_H-M    'P1'
  _symmetry_Int_Tables_number       1
  _symmetry_cell_setting            triclinic
  loop_
  _symmetry_equiv_pos_as_xyz
 x,y,z
_cell_length_a 28.7858
_cell_length_b 28.8006
_cell_length_c 28.7325
_cell_angle_alpha 89.869300
_cell_angle_beta 89.847200
_cell_angle_gamma 90.050700
loop_
  _atom_site_label
  _atom_site_type_symbol
  _atom_site_fract_x
  _atom_site_fract_y
  _atom_site_fract_z
C1 C 0.17307 0.17138 0.23254
 C2 C 0.21315 0.15190 0.21215
 C3 C 0.23372 0.17166 0.17212
 C4 C 0.21327 0.21158 0.15250
 C5 C 0.17333 0.23161 0.17217
 C6 C 0.15356 0.21126 0.21202
 H7 H 0.22850 0.12123 0.22761
 H8 H 0.22850 0.22734 0.12179
 H9 H 0.12280 0.22678 0.22716
 C10 C -0.17276 0.82716 0.23473
 C11 C -0.21265 0.84678 0.21423
 C12 C -0.23285 0.82713 0.17437
 C13 C -0.21268 0.78728 0.15479
 C14 C -0.17293 0.76698 0.17446
 C15 C -0.15325 0.78717 0.21433
 H16 H -0.22823 0.87748 0.22934
 H17 H -0.22806 0.77192 0.12412
 H18 H -0.12263 0.77150 0.22951
 C19 C -0.17274 0.17238 -0.23409
 C20 C -0.15323 0.21234 -0.21372
 C21 C -0.17295 0.23250 -0.17380
 C22 C -0.21281 0.21223 -0.15401
 C23 C -0.23322 0.17229 -0.17348
 C24 C -0.21273 0.15272 -0.21351
 H25 H -0.12254 0.22800 -0.22897
 H26 H -0.22801 0.22781 -0.12328
 H27 H -0.22810 0.12203 -0.22882
 C28 C 0.17419 0.82846 -0.23220
 C29 C 0.21410 0.84811 -0.21212
 C30 C 0.23454 0.82847 -0.17210
 C31 C 0.21402 0.78851 -0.15237
 C32 C 0.17412 0.76837 -0.17197
 C33 C 0.15453 0.78867 -0.21181
 H34 H 0.22928 0.87877 -0.22789
 H35 H 0.22913 0.77281 -0.12167
 H36 H 0.12384 0.77332 -0.22712
 C37 C 0.17304 1.17308 0.76653
 C38 C 0.21289 1.15347 0.78672
 C39 C 0.23313 1.17311 0.82655
 C40 C 0.21288 1.21290 0.84623
 C41 C 0.17303 1.23310 0.82661
 C42 C 0.15338 1.21287 0.78679
 H43 H 0.22829 1.12284 0.77130
 H44 H 0.22828 1.22830 0.87689
 H45 H 0.12271 1.22823 0.77143
 C46 C 0.82853 0.82671 0.76703
 C47 C 0.84809 0.78671 0.78747
 C48 C 0.82838 0.76623 0.82756
 C49 C 0.78844 0.78666 0.84719
 C50 C 0.76834 0.82652 0.82749
 C51 C 0.78863 0.84621 0.78757
 H52 H 0.87878 0.77135 0.77199
 H53 H 0.77271 0.77149 0.87795
 H54 H 0.77305 0.87691 0.77241
 C55 C 0.17141 0.82746 1.23370
 C56 C 0.21138 0.84707 1.21314
 C57 C 0.23170 0.82738 1.17330
 C58 C 0.21155 0.78754 1.15376
 C59 C 0.17169 0.76727 1.17352
 C60 C 0.15189 0.78748 1.21339
 H61 H 0.22696 0.87777 1.22822
 H62 H 0.22704 0.77214 1.12310
 H63 H 0.12119 0.77183 1.22865
 C64 C 0.82780 1.17268 1.23358
 C65 C 0.78789 1.15317 1.21315
 C66 C 0.76775 1.17290 1.17328
 C67 C 0.78798 1.21277 1.15356
 C68 C 0.82787 1.23320 1.17308
 C69 C 0.84745 1.21270 1.21310
 H70 H 0.77223 1.12245 1.22833
 H71 H 0.77237 1.22796 1.12285
 H72 H 0.87813 1.22808 1.22847
 N73 N 0.54885 0.91796 1.05036
 N74 N 0.58410 0.88928 1.05634
 N75 N 0.45102 0.95030 1.08240
 N76 N 0.41557 0.94452 1.11106
 N77 N 0.45111 0.91806 1.05016
 N78 N 0.41573 0.88944 1.05597
 N79 N 0.54877 0.95022 1.08259
 N80 N 0.58394 0.94440 1.11139
 C81 C 0.60559 0.90625 1.09455
 C82 C 0.39397 0.90642 1.09409
 N83 N 0.45131 1.08254 1.04982
 N84 N 0.41595 1.11118 1.05556
 N85 N 0.54891 1.05020 1.08235
 N86 N 0.58411 1.05596 1.11111
 N87 N 0.54912 1.08244 1.04996
 N88 N 0.58448 1.11104 1.05577
 N89 N 0.45114 1.05028 1.08219
 N90 N 0.41570 1.05605 1.11084
 Mn91 Mn 0.49996 1.00025 1.08294
 C92 C 0.39414 1.09417 1.09377
 C93 C 0.60590 1.09405 1.09405
 N94 N 0.45145 0.91801 0.94994
 N95 N 0.41607 0.88942 0.94416
 N96 N 0.54945 0.95011 0.91773
 N97 N 0.58488 0.94419 0.88910
 N98 N 0.54922 0.91789 0.95015
 N99 N 0.58447 0.88916 0.94449
 N100 N 0.45165 0.95025 0.91755
 N101 N 0.41640 0.94448 0.88881
 Mn102 Mn 0.50016 0.91743 1.00015
 C103 C 0.39460 0.90639 0.90589
 C104 C 0.60632 0.90604 0.90628
 N105 N 0.54965 1.08241 0.94968
 N106 N 0.58501 1.11107 0.94374
 N107 N 0.45193 1.05027 0.91731
 N108 N 0.41668 1.05606 0.88859
 N109 N 0.45187 1.08251 0.94955
 N110 N 0.41659 1.11115 0.94368
 N111 N 0.54971 1.05014 0.91746
 N112 N 0.58509 1.05595 0.88870
 Mn113 Mn 0.50049 1.08304 0.99975
 Mn114 Mn 0.50069 1.00019 0.91694
 Cl115 Cl 0.50032 1.00023 0.99994
 C116 C 0.60673 1.09409 0.90556
 C117 C 0.39505 1.09418 0.90551
 N118 N -0.05025 0.45142 -0.08247
 N119 N -0.05596 0.41625 -0.11130
 N120 N -0.08259 0.54898 -0.04978
 N121 N -0.11124 0.58431 -0.05558
 N122 N -0.05023 0.54916 -0.08209
 N123 N -0.05595 0.58457 -0.11075
 N124 N -0.08258 0.45118 -0.05014
 N125 N -0.11119 0.41583 -0.05607
 C126 C -0.09412 0.39444 -0.09436
 C127 C -0.09413 0.60611 -0.09376
 N128 N -0.05057 0.54810 0.08286
 N129 N -0.05634 0.58327 0.11169
 N130 N -0.08275 0.45053 0.05021
 N131 N -0.11140 0.41514 0.05605
 N132 N -0.05051 0.45041 0.08245
 N133 N -0.05630 0.41500 0.11112
 N134 N -0.08278 0.54832 0.05057
 N135 N -0.11136 0.58364 0.05654
 Mn136 Mn -0.08326 0.49975 0.00021
 C137 C -0.09441 0.60504 0.09481
 C138 C -0.09441 0.39338 0.09420
 N139 N 0.04984 0.54932 -0.08206
 N140 N 0.05584 0.58480 -0.11062
 N141 N 0.08201 0.45146 -0.05016
 N142 N 0.11068 0.41621 -0.05604
 N143 N 0.04983 0.45158 -0.08247
 N144 N 0.05570 0.41640 -0.11125
 N145 N 0.08199 0.54910 -0.04972
 N146 N 0.11075 0.58439 -0.05535
 Mn147 Mn -0.00020 0.50037 -0.08284
 C148 C 0.09397 0.60627 -0.09347
 C149 C 0.09379 0.39475 -0.09428
 N150 N 0.04954 0.45049 0.08233
 N151 N 0.05542 0.41501 0.11088
 N152 N 0.08176 0.54845 0.05042
 N153 N 0.11032 0.58382 0.05627
 N154 N 0.04945 0.54821 0.08276
 N155 N 0.05511 0.58342 0.11154
 N156 N 0.08183 0.45079 0.04997
 N157 N 0.11058 0.41556 0.05557
 Mn158 Mn -0.00053 0.49930 0.08316
 Mn159 Mn 0.08244 0.49995 0.00013
 Cl160 Cl -0.00041 0.49984 0.00016
 C161 C 0.09364 0.39363 0.09370
 C162 C 0.09323 0.60522 0.09454
 N163 N 0.94981 -0.08224 0.54925
 N164 N 0.94415 -0.11095 0.58468
 N165 N 0.91724 -0.05027 0.45130
 N166 N 0.88852 -0.05621 0.41605
 N167 N 0.94950 -0.08248 0.45132
 N168 N 0.94364 -0.11123 0.41609
 N169 N 0.91749 -0.05010 0.54932
 N170 N 0.88891 -0.05604 0.58487
 C171 C 0.90604 -0.09415 0.60652
 C172 C 0.90546 -0.09437 0.39449
 N173 N 0.94950 0.08208 0.45058
 N174 N 0.94368 0.11073 0.41516
 N175 N 0.91742 0.05002 0.54884
 N176 N 0.88879 0.05590 0.58431
 N177 N 0.94967 0.08230 0.54854
 N178 N 0.94386 0.11106 0.58381
 N179 N 0.91721 0.04984 0.45081
 N180 N 0.88850 0.05568 0.41551
 Mn181 Mn 0.91676 -0.00013 0.50007
 C182 C 0.90550 0.09381 0.39367
 C183 C 0.90574 0.09412 0.60574
 N184 N 1.04952 -0.08233 0.45085
 N185 N 1.05526 -0.11109 0.41561
 N186 N 1.08206 -0.04973 0.54841
 N187 N 1.11089 -0.05531 0.58362
 N188 N 1.04985 -0.08204 0.54880
 N189 N 1.05587 -0.11054 0.58433
 N190 N 1.08177 -0.05006 0.45053
 N191 N 1.11036 -0.05595 0.41505
 Mn192 Mn 0.99967 -0.08283 0.50006
 C193 C 1.09334 -0.09415 0.39368
 C194 C 1.09408 -0.09338 0.60563
 N195 N 1.04975 0.08236 0.54795
 N196 N 1.05562 0.11104 0.58321
 N197 N 1.08179 0.04985 0.45002
 N198 N 1.11053 0.05557 0.41461
 N199 N 1.04959 0.08211 0.44997
 N200 N 1.05553 0.11071 0.41446
 N201 N 1.08202 0.05016 0.54790
 N202 N 1.11074 0.05601 0.58313
 Mn203 Mn 0.99962 0.08278 0.49926
 Mn204 Mn 1.08245 0.00006 0.49921
 Cl205 Cl 0.99960 -0.00002 0.49965
 C206 C 1.09380 0.09412 0.60474
 C207 C 1.09369 0.09365 0.39280
 N208 N 1.11440 0.17057 0.29258
 C209 C 1.15295 0.15159 0.27279
 N210 N 1.17161 0.11317 0.29303
 N211 N 1.15271 0.09469 0.33119
 C212 C 1.11434 0.11388 0.35071
 N213 N 1.09548 0.15213 0.33073
 N214 N 0.82821 -0.11449 0.29479
 C215 C 0.84707 -0.15297 0.27490
 N216 N 0.88549 -0.17183 0.29491
 N217 N 0.90410 -0.15318 0.33294
 C218 C 0.88505 -0.11486 0.35257
 N219 N 0.84679 -0.09581 0.33282
 N220 N 0.82837 0.11406 0.70578
 C221 C 0.84719 0.15256 0.72565
 N222 N 0.88566 0.17149 0.70551
 N223 N 0.90434 0.15290 0.66738
 C224 C 0.88532 0.11457 0.64778
 N225 N 0.84702 0.09545 0.66767
 N226 N 1.17192 -0.11248 0.70513
 C227 C 1.15313 -0.15083 0.72544
 N228 N 1.11466 -0.16999 0.70594
 N229 N 1.09581 -0.15168 0.66781
 C230 C 1.11472 -0.11346 0.64765
 N231 N 1.15308 -0.09414 0.66698
 N232 N 0.29410 1.17108 1.11372
 C233 C 0.27404 1.15202 1.15223
 N234 N 0.29405 1.11359 1.17113
 N235 N 0.33223 1.09517 1.15250
 C236 C 0.35204 1.11442 1.11417
 N237 N 0.33229 1.15268 1.09506
 N238 N 0.29485 0.88667 0.82863
 C239 C 0.27477 0.84824 0.84766
 N240 N 0.29467 0.82931 0.88618
 N241 N 0.33277 0.84782 0.90473
 C242 C 0.35260 0.88608 0.88552
 N243 N 0.33296 0.90521 0.84716
 N244 N 0.70501 0.88642 1.17219
 C245 C 0.72493 0.84801 1.15334
 N246 N 0.70518 0.82902 1.11489
 N247 N 0.66719 0.84758 1.09613
 C248 C 0.64744 0.88588 1.11511
 N249 N 0.66702 0.90501 1.15345
 N250 N 0.70658 1.17135 0.88510
 C251 C 0.72656 1.15244 0.84658
 N252 N 0.70657 1.11397 0.82784
 N253 N 0.66848 1.09537 0.84663
 C254 C 0.64875 1.11447 0.88498
 N255 N 0.66849 1.15277 0.90391
 N256 N 0.11383 0.29350 0.17053
 C257 C 0.15234 0.27393 0.15139
 N258 N 0.17127 0.29414 0.11296
 N259 N 0.15254 0.33224 0.09454
 C260 C 0.11415 0.35164 0.11385
 N261 N 0.09509 0.33159 0.15214
 N262 N -0.11372 0.29488 -0.17192
 C263 C -0.15213 0.27484 -0.15290
 N264 N -0.17118 0.29456 -0.11438
 N265 N -0.15269 0.33262 -0.09572
 C266 C -0.11440 0.35250 -0.11487
 N267 N -0.09521 0.33295 -0.15328
 N268 N 0.11459 0.70643 -0.17031
 C269 C 0.15301 0.72605 -0.15118
 N270 N 0.17174 0.70587 -0.11276
 N271 N 0.15290 0.66774 -0.09434
 C272 C 0.11459 0.64829 -0.11363
 N273 N 0.09573 0.66831 -0.15192
 N274 N -0.17123 0.70497 0.11503
 C275 C -0.15221 0.72465 0.15350
 N276 N -0.11391 0.70457 0.17241
 N277 N -0.09547 0.66649 0.15371
 C278 C -0.11464 0.64698 0.11535
 N279 N -0.15282 0.66689 0.09631
 N280 N 1.11374 0.17122 0.70447
 C281 C 1.15216 0.15226 0.72427
 N282 N 1.17111 0.11391 0.70435
 N283 N 1.15251 0.09536 0.66628
 C284 C 1.11421 0.11446 0.64664
 N285 N 1.09511 0.15269 0.66640
 N286 N 0.82921 -0.11477 0.70689
 C287 C 0.84827 -0.15324 0.72671
 N288 N 0.88671 -0.17189 0.70644
 N289 N 0.90513 -0.15305 0.66822
 C290 C 0.88586 -0.11475 0.64867
 N291 N 0.84760 -0.09591 0.66868
 N292 N 1.11311 -0.17157 0.29407
 C293 C 1.15156 -0.15268 0.27389
 N294 N 1.17046 -0.11419 0.29365
 N295 N 1.15190 -0.09552 0.33176
 C296 C 1.11364 -0.11460 0.35170
 N297 N 1.09452 -0.15292 0.33219
 N298 N 0.88596 0.17140 0.29384
 C299 C 0.84751 0.15267 0.27382
 N300 N 0.82847 0.11417 0.29378
 N301 N 0.84691 0.09538 0.33190
 C302 C 0.88520 0.11432 0.35166
 N303 N 0.90443 0.15263 0.33195
 N304 N 0.17103 0.29515 -0.11409
 C305 C 0.15214 0.27532 -0.15253
 N306 N 0.11379 0.29519 -0.17157
 N307 N 0.09516 0.33323 -0.15301
 C308 C 0.11419 0.35289 -0.11467
 N309 N 0.15242 0.33318 -0.09550
 N310 N -0.17138 0.29338 0.11458
 C311 C -0.15238 0.27345 0.15307
 N312 N -0.11396 0.29352 0.17181
 N313 N -0.09548 0.33166 0.15304
 C314 C -0.11468 0.35133 0.11472
 N315 N -0.15293 0.33151 0.09579
 N316 N -0.11349 0.70596 -0.17132
 C317 C -0.15196 0.72599 -0.15247
 N318 N -0.17105 0.70603 -0.11392
 N319 N -0.15266 0.66791 -0.09518
 C320 C -0.11436 0.64814 -0.11423
 N321 N -0.09507 0.66785 -0.15260
 N322 N 0.11260 0.70489 0.17180
 C323 C 0.15097 0.72493 0.15272
 N324 N 0.17007 0.70518 0.11425
 N325 N 0.15166 0.66706 0.09569
 C326 C 0.11341 0.64718 0.11491
 N327 N 0.09417 0.66676 0.15326
 N328 N 0.29530 1.17126 0.88575
 C329 C 0.27543 1.15230 0.84736
 N330 N 0.29532 1.11395 0.82835
 N331 N 0.33342 1.09540 0.84688
 C332 C 0.35312 1.11450 0.88516
 N333 N 0.33339 1.15273 0.90430
 N334 N 0.29389 0.88663 1.17130
 C335 C 0.27406 0.84824 1.15236
 N336 N 0.29407 0.82926 1.11397
 N337 N 0.33225 0.84782 1.09536
 C338 C 0.35191 0.88609 1.11444
 N339 N 0.33206 0.90521 1.15272
 N340 N 0.70574 1.17108 1.11387
 C341 C 0.72546 1.15208 1.15240
 N342 N 0.70544 1.11371 1.17146
 N343 N 0.66737 1.09518 1.15286
 C344 C 0.64782 1.11433 1.11446
 N345 N 0.66768 1.15258 1.09526
 N346 N 0.70591 0.82857 0.88683
 C347 C 0.72601 0.84746 0.84834
 N348 N 0.70634 0.88589 0.82920
 N349 N 0.66824 0.90459 0.84767
 C350 C 0.64830 0.88556 0.88604
 N351 N 0.66780 0.84725 0.90534
   
