data_POSCAR
  _audit_creation_date              2014-09-24
  _audit_creation_method            'ToBaCCo'
  _symmetry_space_group_name_H-M    'P1'
  _symmetry_Int_Tables_number       1
  _symmetry_cell_setting            triclinic
  loop_
  _symmetry_equiv_pos_as_xyz
 x,y,z
_cell_length_a 12.5721
_cell_length_b 12.5724
_cell_length_c 23.7922
_cell_angle_alpha 89.816400
_cell_angle_beta 90.187900
_cell_angle_gamma 90.001700
loop_
  _atom_site_label
  _atom_site_type_symbol
  _atom_site_fract_x
  _atom_site_fract_y
  _atom_site_fract_z
O1 O 0.11637 0.57103 1.05342
 O2 O 0.04807 0.37477 0.94460
 O3 O 0.11591 0.57075 0.94451
 O4 O 0.04811 0.37514 1.05424
 O5 O -0.11807 0.43213 1.05363
 O6 O -0.05045 0.62692 0.94351
 O7 O -0.11830 0.43120 0.94478
 O8 O -0.04979 0.62808 1.05336
 Cu9 Cu 0.09873 0.46702 0.99924
 Cu10 Cu -0.10075 0.53560 0.99882
 C11 C 0.04508 0.63319 1.07178
 C12 C -0.04686 0.36929 0.92632
 C13 C 0.04440 0.63233 0.92530
 C14 C -0.04668 0.37006 1.07245
 O15 O 0.37550 -0.04995 0.44593
 O16 O 0.57125 -0.11787 0.55586
 O17 O 0.37522 -0.05004 0.55558
 O18 O 0.57143 -0.11823 0.44691
 O19 O 0.62844 0.04794 0.44647
 O20 O 0.43170 0.11632 0.55484
 O21 O 0.62739 0.04849 0.55629
 O22 O 0.43254 0.11621 0.44603
 Cu23 Cu 0.46745 -0.10065 0.50108
 Cu24 Cu 0.53605 0.09882 0.50086
 C25 C 0.37043 0.04488 0.42744
 C26 C 0.63282 -0.04636 0.57483
 C27 C 0.36977 0.04489 0.57354
 C28 C 0.63356 -0.04689 0.42832
 C29 C 0.00018 -0.00003 0.25000
 C30 C -0.00010 -0.00039 0.75001
 C31 C 0.07483 -0.28731 0.11426
 C32 C 0.00317 -0.22714 0.14068
 C33 C 0.03748 -0.14545 0.18103
 C34 C -0.03293 -0.09140 0.21192
 H35 H -0.08100 -0.23762 0.13231
 H36 H 0.12161 -0.12790 0.18507
 H37 H 0.15862 -0.27792 0.12398
 H38 H -0.11706 -0.10749 0.20618
 C39 C -0.07618 0.29056 0.11515
 C40 C -0.00440 0.22943 0.14130
 C41 C -0.03829 0.14719 0.18159
 C42 C 0.03263 0.09200 0.21201
 H43 H 0.07965 0.23934 0.13264
 H44 H -0.12242 0.13017 0.18593
 H45 H -0.15984 0.28163 0.12506
 H46 H 0.11669 0.10761 0.20586
 C47 C 0.29008 0.07452 0.61583
 C48 C 0.22927 0.00281 0.64205
 C49 C 0.14712 0.03701 0.68202
 C50 C 0.09182 -0.03356 0.71245
 H51 H 0.23943 -0.08130 0.63370
 H52 H 0.13020 0.12119 0.68611
 H53 H 0.28088 0.15825 0.62545
 H54 H 0.10715 -0.11770 0.70652
 C55 C -0.29272 -0.07411 0.61595
 C56 C -0.22785 -0.00333 0.64030
 C57 C -0.14742 -0.03795 0.68155
 C58 C -0.09111 0.03265 0.71138
 H59 H -0.23334 0.08048 0.62972
 H60 H -0.13271 -0.12232 0.68708
 H61 H -0.28773 -0.15703 0.62847
 H62 H -0.10457 0.11683 0.70406
 C63 C 0.07225 -0.29323 0.88430
 C64 C 0.00159 -0.22832 0.85963
 C65 C 0.03657 -0.14784 0.81861
 C66 C -0.03368 -0.09155 0.78829
 H67 H -0.08229 -0.23380 0.86979
 H68 H 0.12098 -0.13302 0.81369
 H69 H 0.15521 -0.28825 0.87214
 H70 H -0.11794 -0.10502 0.79504
 C71 C -0.07639 0.28960 0.88390
 C72 C -0.00454 0.22879 0.85804
 C73 C -0.03839 0.14668 0.81784
 C74 C 0.03253 0.09138 0.78790
 H75 H 0.07951 0.23892 0.86684
 H76 H -0.12254 0.12985 0.81314
 H77 H -0.16008 0.28042 0.87387
 H78 H 0.11661 0.10673 0.79439
 C79 C -0.28701 -0.07644 0.38587
 C80 C -0.22684 -0.00459 0.35935
 C81 C -0.14524 -0.03846 0.31896
 C82 C -0.09113 0.03241 0.28815
 H83 H -0.23727 0.07950 0.36766
 H84 H -0.12782 -0.12254 0.31484
 H85 H -0.27769 -0.16017 0.37624
 H86 H -0.10712 0.11645 0.29404
 C87 C 0.29087 0.07457 0.38472
 C88 C 0.22973 0.00298 0.35866
 C89 C 0.14741 0.03732 0.31840
 C90 C 0.09226 -0.03315 0.28790
 H91 H 0.23969 -0.08114 0.36737
 H92 H 0.13027 0.12150 0.31416
 H93 H 0.28188 0.15830 0.37471
 H94 H 0.10797 -0.11729 0.29390
   
