data_POSCAR
  _audit_creation_date              2014-09-24
  _audit_creation_method            'ToBaCCo'
  _symmetry_space_group_name_H-M    'P1'
  _symmetry_Int_Tables_number       1
  _symmetry_cell_setting            triclinic
  loop_
  _symmetry_equiv_pos_as_xyz
 x,y,z
_cell_length_a 45.0284
_cell_length_b 45.7289
_cell_length_c 44.0642
_cell_angle_alpha 89.611900
_cell_angle_beta 90.305700
_cell_angle_gamma 89.478200
loop_
  _atom_site_label
  _atom_site_type_symbol
  _atom_site_fract_x
  _atom_site_fract_y
  _atom_site_fract_z
C1 C 0.17272 0.19064 0.20077
 C2 C 0.16130 0.21604 0.18652
 C3 C 0.17220 0.22595 0.15854
 C4 C 0.19597 0.21085 0.14512
 C5 C 0.20900 0.18594 0.15907
 C6 C 0.19674 0.17603 0.18675
 H7 H 0.14445 0.22901 0.19766
 H8 H 0.20458 0.21918 0.12401
 H9 H 0.20421 0.15533 0.19603
 C10 C -0.22857 0.77638 0.28941
 C11 C -0.25355 0.78841 0.27400
 C12 C -0.26449 0.77582 0.24725
 C13 C -0.25097 0.75045 0.23595
 C14 C -0.22656 0.73770 0.25093
 C15 C -0.21594 0.75035 0.27776
 H16 H -0.26316 0.80906 0.28088
 H17 H -0.25880 0.74128 0.21478
 H18 H -0.19786 0.73933 0.28948
 C19 C -0.17928 0.21080 -0.22804
 C20 C -0.20552 0.19882 -0.21579
 C21 C -0.22025 0.21155 -0.19097
 C22 C -0.21052 0.23884 -0.18058
 C23 C -0.18605 0.25250 -0.19385
 C24 C -0.17019 0.23820 -0.21682
 H25 H -0.21517 0.17965 -0.22582
 H26 H -0.22108 0.24919 -0.16139
 H27 H -0.15028 0.24857 -0.22491
 C28 C 0.23664 0.79081 -0.25623
 C29 C 0.22062 0.77037 -0.23886
 C30 C 0.23100 0.76072 -0.21031
 C31 C 0.25841 0.77095 -0.19953
 C32 C 0.27514 0.79090 -0.21659
 C33 C 0.26409 0.80058 -0.24482
 H34 H 0.19877 0.76371 -0.24631
 H35 H 0.26647 0.76376 -0.17751
 H36 H 0.27751 0.81509 -0.25843
 C37 C 0.17654 1.19030 0.80221
 C38 C 0.20316 1.17951 0.81564
 C39 C 0.21552 1.19243 0.84161
 C40 C 0.20167 1.21711 0.85397
 C41 C 0.17537 1.22847 0.84134
 C42 C 0.16296 1.21500 0.81573
 H43 H 0.21487 1.16113 0.80602
 H44 H 0.21159 1.22775 0.87338
 H45 H 0.14168 1.22310 0.80776
 C46 C 0.76256 0.78382 0.70699
 C47 C 0.73845 0.79645 0.72246
 C48 C 0.72765 0.78417 0.74931
 C49 C 0.74103 0.75875 0.76112
 C50 C 0.76543 0.74524 0.74652
 C51 C 0.77505 0.75759 0.71871
 H52 H 0.72739 0.81577 0.71341
 H53 H 0.73365 0.75130 0.78313
 H54 H 0.79322 0.74752 0.70672
 C55 C 0.22612 0.79000 1.26313
 C56 C 0.21073 0.76900 1.24572
 C57 C 0.21913 0.76234 1.21582
 C58 C 0.24416 0.77596 1.20355
 C59 C 0.26065 0.79587 1.22060
 C60 C 0.25163 0.80276 1.25012
 H61 H 0.19248 0.75705 1.25544
 H62 H 0.25069 0.77148 1.18042
 H63 H 0.26358 0.81982 1.26167
 C64 C 0.82729 1.21185 1.22035
 C65 C 0.83434 1.24075 1.21152
 C66 C 0.81914 1.25537 1.18753
 C67 C 0.79686 1.23987 1.17190
 C68 C 0.78854 1.21161 1.18082
 C69 C 0.80316 1.19844 1.20562
 H70 H 0.85188 1.25186 1.22321
 H71 H 0.78694 1.24904 1.15155
 H72 H 0.79494 1.17779 1.21394
 O73 O 0.54380 0.98154 0.93883
 O74 O 0.49028 0.97750 1.06436
 O75 O 0.55770 0.95213 1.02958
 O76 O 0.48147 0.94705 0.97276
 O77 O 0.54541 0.98295 1.06378
 O78 O 0.49051 0.97828 0.93719
 O79 O 0.47221 0.94847 1.02956
 O80 O 0.55348 0.95137 0.97485
 C81 C 0.55155 0.95637 0.94724
 C82 C 0.47706 0.95434 1.05682
 C83 C 0.55457 0.95797 1.05680
 C84 C 0.48398 0.95264 0.94524
 O85 O 0.48620 1.03324 0.96117
 O86 O 0.54003 1.03678 1.04183
 O87 O 0.57544 1.00633 0.97209
 O88 O 0.45188 1.00234 1.02395
 O89 O 0.48286 1.03201 1.04653
 O90 O 0.53934 1.03575 0.96406
 O91 O 0.45481 0.99966 0.96858
 O92 O 0.57605 1.00831 1.02712
 Co93 Co 0.51505 1.00595 0.95437
 Co94 Co 0.51492 1.00604 1.04888
 Co95 Co 0.56147 0.98068 1.00075
 Co96 Co 0.46989 0.97589 0.99855
 O97 O 0.51528 0.99216 1.00083
 C98 C 0.45991 1.02594 0.96321
 C99 C 0.56707 1.03259 1.03729
 C100 C 0.56647 1.03135 0.96474
 C101 C 0.45697 1.02538 1.03872
 O102 O 0.02543 0.50025 0.03378
 O103 O 0.02806 0.55440 -0.05058
 O104 O -0.01121 0.46992 -0.02842
 O105 O 0.00357 0.58954 0.02941
 O106 O 0.02358 0.49932 -0.04220
 O107 O 0.03113 0.55225 0.03783
 O108 O 0.00663 0.59099 -0.02687
 O109 O -0.01009 0.47065 0.02585
 C110 C 0.01675 0.47471 0.03177
 C111 C 0.02719 0.58083 -0.04332
 C112 C 0.01486 0.47389 -0.03773
 C113 C 0.02813 0.57911 0.03745
 O114 O -0.02456 0.55707 0.06133
 O115 O -0.03202 0.50332 -0.06399
 O116 O -0.06152 0.50318 0.02608
 O117 O -0.05103 0.58277 -0.03123
 O118 O -0.02827 0.55702 -0.06610
 O119 O -0.02854 0.50433 0.06052
 O120 O -0.05336 0.57547 0.02636
 O121 O -0.06355 0.50012 -0.02834
 Co122 Co -0.00057 0.52875 0.04413
 Co123 Co -0.00325 0.52853 -0.05047
 Co124 Co -0.03486 0.48971 -0.00115
 Co125 Co -0.02285 0.57951 -0.00050
 O126 O -0.01514 0.53180 -0.00225
 C127 C -0.04887 0.56897 0.05353
 C128 C -0.05796 0.49800 -0.05564
 C129 C -0.05503 0.50037 0.05322
 C130 C -0.04836 0.57481 -0.05820
 O131 O 1.05146 0.03604 0.47546
 O132 O 0.97223 0.03835 0.52941
 O133 O 0.98831 0.01080 0.43767
 O134 O 1.03804 0.00423 0.56452
 O135 O 0.96502 0.03680 0.47196
 O136 O 1.04723 0.03564 0.53002
 O137 O 0.98452 0.00747 0.56484
 O138 O 1.04283 0.00491 0.44103
 C139 C 1.04970 0.03033 0.44809
 C140 C 0.97574 0.03270 0.55688
 C141 C 0.97259 0.03266 0.44502
 C142 C 1.04526 0.02966 0.55740
 O143 O 1.07097 -0.01957 0.53185
 O144 O 0.94777 -0.01763 0.47653
 O145 O 1.03724 -0.04894 0.46273
 O146 O 0.98230 -0.04742 0.54086
 O147 O 0.94913 -0.01505 0.53230
 O148 O 1.07263 -0.02037 0.47724
 O149 O 1.03513 -0.04904 0.53802
 O150 O 0.98126 -0.04430 0.45334
 Co151 Co 1.05640 0.00681 0.50356
 Co152 Co 0.96364 0.00929 0.50276
 Co153 Co 1.01245 -0.01817 0.45387
 Co154 Co 1.01009 -0.01978 0.54797
 O155 O 1.01040 -0.00526 0.50183
 C156 C 1.06218 -0.04471 0.53837
 C157 C 0.95485 -0.03949 0.46066
 C158 C 1.06416 -0.04495 0.46771
 C159 C 0.95571 -0.04097 0.53858
 C160 C 1.13288 0.15490 0.28039
 C161 C 1.16303 0.14979 0.27428
 C162 C 1.17628 0.16185 0.24849
 C163 C 1.15977 0.17953 0.22791
 C164 C 1.12961 0.18515 0.23484
 C165 C 1.11645 0.17299 0.26058
 C166 C 1.11830 0.14028 0.30652
 C167 C 1.08997 0.12803 0.30308
 C168 C 1.07700 0.11247 0.32687
 C169 C 1.09203 0.10880 0.35469
 C170 C 1.11993 0.12184 0.35850
 C171 C 1.13297 0.13735 0.33464
 C172 C 1.07952 0.08982 0.37883
 C173 C 1.08128 0.09765 0.40959
 C174 C 1.07091 0.07872 0.43222
 C175 C 1.05887 0.05151 0.42449
 C176 C 1.05669 0.04397 0.39371
 C177 C 1.06678 0.06292 0.37116
 H178 H 1.17631 0.13587 0.28909
 H179 H 1.19973 0.15767 0.24533
 H180 H 1.11534 0.19766 0.21970
 H181 H 1.09319 0.17751 0.26479
 H182 H 1.07819 0.12965 0.28164
 H183 H 1.05533 0.10293 0.32337
 H184 H 1.13214 0.11919 0.37959
 H185 H 1.15466 0.14683 0.33809
 H186 H 1.09076 0.11837 0.41613
 H187 H 1.07284 0.08513 0.45576
 H188 H 1.04760 0.02313 0.38700
 H189 H 1.06547 0.05607 0.34772
 C190 C 0.81309 -0.17570 0.36044
 C191 C 0.78264 -0.17209 0.35458
 C192 C 0.76862 -0.18850 0.33206
 C193 C 0.78476 -0.20885 0.31436
 C194 C 0.81525 -0.21284 0.32129
 C195 C 0.82906 -0.19659 0.34391
 C196 C 0.82894 -0.15649 0.38203
 C197 C 0.85143 -0.16799 0.40096
 C198 C 0.86964 -0.14942 0.41764
 C199 C 0.86581 -0.11893 0.41572
 C200 C 0.84209 -0.10750 0.39834
 C201 C 0.82381 -0.12612 0.38166
 C202 C 0.88820 -0.09919 0.42921
 C203 C 0.87977 -0.07302 0.44350
 C204 C 0.90135 -0.05369 0.45418
 C205 C 0.93172 -0.06011 0.45053
 C206 C 0.94003 -0.08650 0.43666
 C207 C 0.91856 -0.10578 0.42618
 H208 H 0.76966 -0.15644 0.36739
 H209 H 0.74496 -0.18531 0.32907
 H210 H 0.82944 -0.22699 0.30809
 H211 H 0.85274 -0.19941 0.34743
 H212 H 0.85552 -0.19135 0.40213
 H213 H 0.88736 -0.15887 0.43134
 H214 H 0.83873 -0.08410 0.39624
 H215 H 0.80681 -0.11661 0.36708
 H216 H 0.85653 -0.06746 0.44628
 H217 H 0.89426 -0.03355 0.46483
 H218 H 0.96322 -0.09218 0.43358
 H219 H 0.92578 -0.12551 0.41482
 C220 C 0.87428 0.16285 0.70895
 C221 C 0.87746 0.19322 0.71198
 C222 C 0.85945 0.20912 0.73184
 C223 C 0.83793 0.19514 0.75008
 C224 C 0.83491 0.16454 0.74660
 C225 C 0.85239 0.14891 0.72620
 C226 C 0.89347 0.14566 0.68790
 C227 C 0.90103 0.11638 0.69458
 C228 C 0.91715 0.09953 0.67401
 C229 C 0.92698 0.11163 0.64644
 C230 C 0.92065 0.14132 0.64040
 C231 C 0.90383 0.15799 0.66065
 C232 C 0.94218 0.09291 0.62349
 C233 C 0.93797 0.09825 0.59225
 C234 C 0.95004 0.07939 0.57070
 C235 C 0.96605 0.05428 0.57975
 C236 C 0.97080 0.04912 0.61084
 C237 C 0.95947 0.06846 0.63242
 H238 H 0.89413 0.20487 0.69922
 H239 H 0.86241 0.23251 0.73204
 H240 H 0.81999 0.15181 0.76038
 H241 H 0.84865 0.12566 0.72414
 H242 H 0.89429 0.10622 0.71566
 H243 H 0.92108 0.07673 0.67951
 H244 H 0.92836 0.15175 0.61983
 H245 H 0.89838 0.18034 0.65445
 H246 H 0.92435 0.11635 0.58427
 H247 H 0.94573 0.08388 0.54691
 H248 H 0.98275 0.02981 0.61854
 H249 H 0.96391 0.06387 0.65614
 C250 C 1.19678 -0.17225 0.66422
 C251 C 1.19301 -0.20201 0.67150
 C252 C 1.20623 -0.21428 0.69747
 C253 C 1.22465 -0.19749 0.71641
 C254 C 1.22979 -0.16816 0.70805
 C255 C 1.21567 -0.15566 0.68279
 C256 C 1.17959 -0.15799 0.63889
 C257 C 1.19005 -0.13254 0.62446
 C258 C 1.17197 -0.11669 0.60424
 C259 C 1.14322 -0.12634 0.59698
 C260 C 1.13384 -0.15315 0.60933
 C261 C 1.15146 -0.16843 0.63037
 C262 C 1.12227 -0.10742 0.57896
 C263 C 1.09156 -0.10817 0.58483
 C264 C 1.07203 -0.08873 0.57037
 C265 C 1.08268 -0.06738 0.55032
 C266 C 1.11310 -0.06682 0.54371
 C267 C 1.13264 -0.08694 0.55750
 H268 H 1.17964 -0.21600 0.65733
 H269 H 1.20252 -0.23722 0.70217
 H270 H 1.24297 -0.15397 0.72222
 H271 H 1.21868 -0.13252 0.67880
 H272 H 1.21195 -0.12421 0.62933
 H273 H 1.18023 -0.09620 0.59545
 H274 H 1.11238 -0.16207 0.60356
 H275 H 1.14222 -0.18775 0.64081
 H276 H 1.08249 -0.12286 0.60166
 H277 H 1.04868 -0.08948 0.57611
 H278 H 1.12180 -0.05062 0.52818
 H279 H 1.15592 -0.08602 0.55166
 C280 C 0.28306 1.14178 1.11904
 C281 C 0.26329 1.15836 1.10105
 C282 C 0.23893 1.17264 1.11400
 C283 C 0.23353 1.17102 1.14558
 C284 C 0.25363 1.15419 1.16342
 C285 C 0.27782 1.13978 1.15035
 C286 C 0.30902 1.12655 1.10529
 C287 C 0.33628 1.12476 1.12094
 C288 C 0.36041 1.10967 1.10857
 C289 C 0.35803 1.09619 1.08009
 C290 C 0.33095 1.09845 1.06415
 C291 C 0.30672 1.11336 1.07664
 C292 C 0.38340 1.07905 1.06766
 C293 C 0.37848 1.05281 1.05202
 C294 C 0.40235 1.03575 1.04205
 C295 C 0.43174 1.04439 1.04766
 C296 C 0.43670 1.07099 1.06256
 C297 C 0.41282 1.08816 1.07235
 H298 H 0.26670 1.16050 1.07683
 H299 H 0.22393 1.18402 1.09866
 H300 H 0.25167 1.15281 1.18783
 H301 H 0.29242 1.12694 1.16491
 H302 H 0.33904 1.13506 1.14281
 H303 H 0.38076 1.10807 1.12169
 H304 H 0.32844 1.08867 1.04198
 H305 H 0.28601 1.11405 1.06407
 H306 H 0.35616 1.04494 1.04829
 H307 H 0.39775 1.01543 1.03053
 H308 H 0.45908 1.07844 1.06692
 H309 H 0.41743 1.10854 1.08373
 C310 C 0.35602 0.82607 0.82068
 C311 C 0.33710 0.84357 0.80267
 C312 C 0.31107 0.83208 0.79044
 C313 C 0.30355 0.80265 0.79556
 C314 C 0.32297 0.78495 0.81298
 C315 C 0.34882 0.79661 0.82561
 C316 C 0.38190 0.83930 0.83601
 C317 C 0.38609 0.83532 0.86733
 C318 C 0.40789 0.85094 0.88277
 C319 C 0.42632 0.87064 0.86716
 C320 C 0.42318 0.87326 0.83546
 C321 C 0.40103 0.85794 0.82009
 C322 C 0.44638 0.89033 0.88440
 C323 C 0.44978 0.91969 0.87532
 C324 C 0.46413 0.93959 0.89418
 C325 C 0.47492 0.93067 0.92273
 C326 C 0.47353 0.90100 0.93091
 C327 C 0.45966 0.88098 0.91182
 H328 H 0.34187 0.86649 0.79901
 H329 H 0.29640 0.84657 0.77774
 H330 H 0.31819 0.76209 0.81694
 H331 H 0.36318 0.78267 0.83933
 H332 H 0.37140 0.82134 0.88017
 H333 H 0.40914 0.84869 0.90721
 H334 H 0.43733 0.88772 0.82259
 H335 H 0.39842 0.86109 0.79584
 H336 H 0.43968 0.92785 0.85455
 H337 H 0.46492 0.96236 0.88733
 H338 H 0.48214 0.89350 0.95264
 H339 H 0.45830 0.85839 0.91914
 C340 C 0.66918 0.82262 1.19498
 C341 C 0.69567 0.81273 1.18152
 C342 C 0.71675 0.79698 1.19839
 C343 C 0.71214 0.79107 1.22927
 C344 C 0.68581 0.80090 1.24293
 C345 C 0.66442 0.81633 1.22590
 C346 C 0.64724 0.84015 1.17688
 C347 C 0.63124 0.86334 1.19005
 C348 C 0.61244 0.88114 1.17235
 C349 C 0.60948 0.87647 1.14094
 C350 C 0.62485 0.85274 1.12803
 C351 C 0.64318 0.83468 1.14578
 C352 C 0.59199 0.89709 1.12129
 C353 C 0.57778 0.88714 1.09479
 C354 C 0.56486 0.90693 1.07426
 C355 C 0.56513 0.93703 1.08010
 C356 C 0.57751 0.94697 1.10738
 C357 C 0.59109 0.92725 1.12762
 H358 H 0.70059 0.81778 1.15806
 H359 H 0.73715 0.79013 1.18750
 H360 H 0.68178 0.79652 1.26673
 H361 H 0.64415 0.82321 1.23696
 H362 H 0.63391 0.86840 1.21386
 H363 H 0.60057 0.89882 1.18327
 H364 H 0.62361 0.84855 1.10392
 H365 H 0.65456 0.81665 1.13492
 H366 H 0.57714 0.86408 1.08954
 H367 H 0.55501 0.89875 1.05354
 H368 H 0.57807 0.97013 1.11230
 H369 H 0.60206 0.93588 1.14749
 C370 C 0.71282 1.16328 0.85868
 C371 C 0.73427 1.14883 0.84101
 C372 C 0.75567 1.16445 0.82515
 C373 C 0.75568 1.19524 0.82511
 C374 C 0.73344 1.20983 0.84171
 C375 C 0.71260 1.19409 0.85860
 C376 C 0.69133 1.14606 0.87728
 C377 C 0.66286 1.15707 0.88414
 C378 C 0.64279 1.14039 0.90102
 C379 C 0.65024 1.11182 0.91079
 C380 C 0.67877 1.10098 0.90396
 C381 C 0.69911 1.11800 0.88815
 C382 C 0.62832 1.09293 0.92702
 C383 C 0.63808 1.06991 0.94616
 C384 C 0.61797 1.05007 0.95839
 C385 C 0.58738 1.05360 0.95343
 C386 C 0.57727 1.07738 0.93578
 C387 C 0.59749 1.09653 0.92233
 H388 H 0.73484 1.12525 0.83939
 H389 H 0.77261 1.15204 0.81347
 H390 H 0.73210 1.23345 0.84196
 H391 H 0.69674 1.20623 0.87202
 H392 H 0.65570 1.17840 0.87610
 H393 H 0.62142 1.15002 0.90623
 H394 H 0.68555 1.07901 0.91020
 H395 H 0.72101 1.10884 0.88446
 H396 H 0.66135 1.06669 0.95146
 H397 H 0.62648 1.03163 0.97134
 H398 H 0.55378 1.08043 0.93121
 H399 H 0.58879 1.11344 0.90739
 C400 C 0.13097 0.30033 0.11320
 C401 C 0.11418 0.28108 0.13114
 C402 C 0.12752 0.25703 0.14551
 C403 C 0.15825 0.25187 0.14316
 C404 C 0.17522 0.27141 0.12572
 C405 C 0.16171 0.29511 0.11068
 C406 C 0.11635 0.32567 0.09743
 C407 C 0.13150 0.35210 0.09280
 C408 C 0.11723 0.37610 0.07905
 C409 C 0.08721 0.37459 0.07018
 C410 C 0.07226 0.34800 0.07448
 C411 C 0.08672 0.32384 0.08744
 C412 C 0.07104 0.40078 0.05782
 C413 C 0.04681 0.39754 0.03781
 C414 C 0.02941 0.42163 0.02920
 C415 C 0.03654 0.44976 0.03919
 C416 C 0.06163 0.45345 0.05772
 C417 C 0.07845 0.42920 0.06729
 H418 H 0.09062 0.28460 0.13438
 H419 H 0.11354 0.24230 0.15824
 H420 H 0.19901 0.26858 0.12376
 H421 H 0.17543 0.30913 0.09682
 H422 H 0.15422 0.35461 0.10038
 H423 H 0.12980 0.39589 0.07562
 H424 H 0.04904 0.34585 0.06858
 H425 H 0.07442 0.30374 0.08976
 H426 H 0.04085 0.37631 0.02910
 H427 H 0.01015 0.41820 0.01490
 H428 H 0.06745 0.47492 0.06596
 H429 H 0.09653 0.43275 0.08306
 C430 C -0.15713 0.33708 -0.16387
 C431 C -0.13706 0.31334 -0.16528
 C432 C -0.14647 0.28591 -0.17494
 C433 C -0.17625 0.28143 -0.18298
 C434 C -0.19650 0.30486 -0.18118
 C435 C -0.18701 0.33247 -0.17192
 C436 C -0.14688 0.36623 -0.15340
 C437 C -0.16519 0.38410 -0.13543
 C438 C -0.15450 0.41023 -0.12342
 C439 C -0.12508 0.41897 -0.12872
 C440 C -0.10725 0.40172 -0.14782
 C441 C -0.11808 0.37586 -0.16017
 C442 C -0.11192 0.44401 -0.11202
 C443 C -0.08906 0.46077 -0.12490
 C444 C -0.07273 0.48014 -0.10709
 C445 C -0.07920 0.48346 -0.07617
 C446 C -0.10380 0.46886 -0.06404
 C447 C -0.11981 0.44920 -0.08167
 H448 H -0.11409 0.31578 -0.15849
 H449 H -0.13054 0.26804 -0.17576
 H450 H -0.21954 0.30192 -0.18753
 H451 H -0.20301 0.35026 -0.17148
 H452 H -0.18745 0.37740 -0.12961
 H453 H -0.16908 0.42319 -0.10930
 H454 H -0.08440 0.40742 -0.15221
 H455 H -0.10358 0.36309 -0.17455
 H456 H -0.08292 0.45799 -0.14843
 H457 H -0.05408 0.49138 -0.11714
 H458 H -0.10938 0.47095 -0.04026
 H459 H -0.13703 0.43662 -0.07076
 C460 C 0.17456 0.70639 -0.15489
 C461 C 0.17645 0.70205 -0.18641
 C462 C 0.19518 0.71920 -0.20422
 C463 C 0.21228 0.74139 -0.19108
 C464 C 0.21052 0.74565 -0.15954
 C465 C 0.19201 0.72829 -0.14167
 C466 C 0.15428 0.68831 -0.13602
 C467 C 0.13887 0.70054 -0.11138
 C468 C 0.11941 0.68360 -0.09410
 C469 C 0.11468 0.65405 -0.10115
 C470 C 0.13015 0.64186 -0.12575
 C471 C 0.14980 0.65868 -0.14279
 C472 C 0.09331 0.63602 -0.08354
 C473 C 0.09888 0.60604 -0.07867
 C474 C 0.07771 0.58839 -0.06482
 C475 C 0.05061 0.60031 -0.05498
 C476 C 0.04554 0.63051 -0.05828
 C477 C 0.06659 0.64817 -0.07261
 H478 H 0.16306 0.68570 -0.19750
 H479 H 0.19620 0.71509 -0.22837
 H480 H 0.22298 0.76283 -0.14867
 H481 H 0.19147 0.73201 -0.11745
 H482 H 0.14144 0.72337 -0.10571
 H483 H 0.10815 0.69366 -0.07515
 H484 H 0.12675 0.61936 -0.13227
 H485 H 0.16157 0.64835 -0.16126
 H486 H 0.11952 0.59605 -0.08592
 H487 H 0.08242 0.56523 -0.06217
 H488 H 0.02479 0.64026 -0.05096
 H489 H 0.06139 0.67109 -0.07616
 C490 C -0.17912 0.66880 0.20518
 C491 C -0.16385 0.69201 0.21884
 C492 C -0.17924 0.71369 0.23461
 C493 C -0.21031 0.71289 0.23693
 C494 C -0.22560 0.68935 0.22405
 C495 C -0.21016 0.66745 0.20848
 C496 C -0.16284 0.64754 0.18577
 C497 C -0.17559 0.63758 0.15858
 C498 C -0.15899 0.62072 0.13837
 C499 C -0.12911 0.61365 0.14464
 C500 C -0.11684 0.62228 0.17256
 C501 C -0.13355 0.63889 0.19293
 C502 C -0.11013 0.59973 0.12114
 C503 C -0.08720 0.57995 0.12914
 C504 C -0.06764 0.56933 0.10711
 C505 C -0.07070 0.57816 0.07664
 C506 C -0.09428 0.59700 0.06850
 C507 C -0.11362 0.60776 0.09046
 H508 H -0.14008 0.69419 0.21627
 H509 H -0.16691 0.73183 0.24387
 H510 H -0.24954 0.68808 0.22576
 H511 H -0.22259 0.64965 0.19869
 H512 H -0.19799 0.64392 0.15216
 H513 H -0.16935 0.61392 0.11738
 H514 H -0.09388 0.61740 0.17812
 H515 H -0.12321 0.64565 0.21394
 H516 H -0.08417 0.57294 0.15247
 H517 H -0.04990 0.55453 0.11398
 H518 H -0.09725 0.60426 0.04522
 H519 H -0.13062 0.62332 0.08348
 C520 C 1.13590 0.14784 0.72636
 C521 C 1.15690 0.13312 0.74466
 C522 C 1.17015 0.14691 0.76937
 C523 C 1.16343 0.17636 0.77651
 C524 C 1.14289 0.19124 0.75731
 C525 C 1.12924 0.17716 0.73290
 C526 C 1.12062 0.13232 0.70109
 C527 C 1.11241 0.14701 0.67409
 C528 C 1.09811 0.13213 0.65055
 C529 C 1.09196 0.10211 0.65328
 C530 C 1.10035 0.08750 0.68023
 C531 C 1.11410 0.10242 0.70387
 C532 C 1.07744 0.08569 0.62816
 C533 C 1.05890 0.06192 0.63477
 C534 C 1.04807 0.04425 0.61166
 C535 C 1.05449 0.05041 0.58117
 C536 C 1.07155 0.07510 0.57421
 C537 C 1.08315 0.09243 0.59749
 H538 H 1.16312 0.11067 0.74008
 H539 H 1.18467 0.13352 0.78336
 H540 H 1.13757 0.21412 0.76028
 H541 H 1.11311 0.18928 0.71941
 H542 H 1.11734 0.16994 0.67092
 H543 H 1.09175 0.14423 0.63032
 H544 H 1.09670 0.06429 0.68308
 H545 H 1.11945 0.09040 0.72444
 H546 H 1.05315 0.05650 0.65794
 H547 H 1.03513 0.02529 0.61776
 H548 H 1.07702 0.08026 0.55089
 H549 H 1.09754 0.11035 0.59143
 C550 C 0.80588 -0.17155 0.63469
 C551 C 0.80494 -0.20228 0.63530
 C552 C 0.79019 -0.21710 0.65859
 C553 C 0.77534 -0.20163 0.68170
 C554 C 0.77507 -0.17078 0.67993
 C555 C 0.79033 -0.15608 0.65710
 C556 C 0.82488 -0.15555 0.61258
 C557 C 0.81739 -0.12697 0.60302
 C558 C 0.83759 -0.11009 0.58670
 C559 C 0.86557 -0.12156 0.57883
 C560 C 0.87198 -0.15097 0.58610
 C561 C 0.85209 -0.16761 0.60305
 C562 C 0.88887 -0.10226 0.56578
 C563 C 0.91885 -0.10652 0.57402
 C564 C 0.94056 -0.08709 0.56430
 C565 C 0.93283 -0.06251 0.54666
 C566 C 0.90310 -0.05838 0.53779
 C567 C 0.88137 -0.07823 0.54697
 H568 H 0.81588 -0.21501 0.61794
 H569 H 0.79005 -0.24075 0.65795
 H570 H 0.76505 -0.15758 0.69748
 H571 H 0.79111 -0.13246 0.65809
 H572 H 0.79629 -0.11717 0.60905
 H573 H 0.83171 -0.08758 0.58166
 H574 H 0.89288 -0.16093 0.57962
 H575 H 0.85885 -0.18944 0.60993
 H576 H 0.92557 -0.12422 0.58902
 H577 H 0.96331 -0.09074 0.57160
 H578 H 0.89664 -0.03972 0.52393
 H579 H 0.85868 -0.07451 0.53960
 C580 C 1.19212 -0.17620 0.34618
 C581 C 1.22243 -0.17419 0.33963
 C582 C 1.23394 -0.18647 0.31315
 C583 C 1.21530 -0.20064 0.29193
 C584 C 1.18499 -0.20359 0.29966
 C585 C 1.17370 -0.19166 0.32636
 C586 C 1.17900 -0.16008 0.37199
 C587 C 1.15768 -0.17326 0.39061
 C588 C 1.14200 -0.15669 0.41183
 C589 C 1.14696 -0.12647 0.41453
 C590 C 1.16956 -0.11373 0.39706
 C591 C 1.18550 -0.13040 0.37614
 C592 C 1.12653 -0.10772 0.43261
 C593 C 1.13672 -0.08237 0.44718
 C594 C 1.11660 -0.06248 0.45993
 C595 C 1.08591 -0.06765 0.45853
 C596 C 1.07591 -0.09385 0.44571
 C597 C 1.09593 -0.11354 0.43280
 H598 H 1.23721 -0.16281 0.35492
 H599 H 1.25762 -0.18486 0.30978
 H600 H 1.16906 -0.21322 0.28437
 H601 H 1.15009 -0.19313 0.33065
 H602 H 1.15255 -0.19622 0.38810
 H603 H 1.12526 -0.16738 0.42541
 H604 H 1.17376 -0.09050 0.39816
 H605 H 1.20163 -0.11965 0.36185
 H606 H 1.16018 -0.07747 0.44795
 H607 H 1.12499 -0.04258 0.46984
 H608 H 1.05242 -0.09857 0.44436
 H609 H 1.08712 -0.13255 0.42147
 C610 C 0.87963 0.16423 0.28572
 C611 C 0.86228 0.14967 0.26415
 C612 C 0.84522 0.16526 0.24295
 C613 C 0.84433 0.19622 0.24272
 C614 C 0.86166 0.21068 0.26481
 C615 C 0.87909 0.19494 0.28577
 C616 C 0.89757 0.14725 0.30839
 C617 C 0.90081 0.15724 0.33832
 C618 C 0.91583 0.14027 0.36009
 C619 C 0.92761 0.11263 0.35267
 C620 C 0.92525 0.10309 0.32250
 C621 C 0.91065 0.12027 0.30062
 C622 C 0.94062 0.09314 0.37662
 C623 C 0.96409 0.07361 0.37017
 C624 C 0.97466 0.05398 0.39233
 C625 C 0.96238 0.05383 0.42156
 C626 C 0.93945 0.07377 0.42819
 C627 C 0.92856 0.09298 0.40599
 H628 H 0.86168 0.12602 0.26363
 H629 H 0.83376 0.15253 0.22603
 H630 H 0.86136 0.23418 0.26699
 H631 H 0.89227 0.20698 0.30197
 H632 H 0.89093 0.17777 0.34528
 H633 H 0.91779 0.14869 0.38290
 H634 H 0.93379 0.08188 0.31590
 H635 H 0.90929 0.11214 0.27765
 H636 H 0.97426 0.07338 0.34797
 H637 H 0.99235 0.03888 0.38655
 H638 H 0.92929 0.07406 0.45042
 H639 H 0.91004 0.10711 0.41171
 C640 C 0.13215 0.30265 -0.11751
 C641 C 0.13404 0.30050 -0.14926
 C642 C 0.14803 0.27645 -0.16262
 C643 C 0.16044 0.25402 -0.14452
 C644 C 0.15855 0.25617 -0.11278
 C645 C 0.14458 0.28022 -0.09942
 C646 C 0.11692 0.32801 -0.10334
 C647 C 0.09834 0.32398 -0.07815
 C648 C 0.08315 0.34768 -0.06550
 C649 C 0.08620 0.37594 -0.07776
 C650 C 0.10524 0.38006 -0.10256
 C651 C 0.12042 0.35636 -0.11522
 C652 C 0.06857 0.40079 -0.06567
 C653 C 0.08111 0.42868 -0.06281
 C654 C 0.06384 0.45240 -0.05319
 C655 C 0.03370 0.44866 -0.04624
 C656 C 0.02132 0.42068 -0.04857
 C657 C 0.03857 0.39700 -0.05811
 H658 H 0.12435 0.31724 -0.16381
 H659 H 0.14936 0.27551 -0.18712
 H660 H 0.16759 0.23908 -0.09823
 H661 H 0.14372 0.28136 -0.07491
 H662 H 0.09499 0.30238 -0.06863
 H663 H 0.06889 0.34388 -0.04619
 H664 H 0.10782 0.40151 -0.11271
 H665 H 0.13489 0.36022 -0.13435
 H666 H 0.10427 0.43218 -0.06811
 H667 H 0.07400 0.47370 -0.05144
 H668 H -0.00190 0.41716 -0.04357
 H669 H 0.02815 0.37588 -0.06048
 C670 C -0.15898 0.34227 0.15994
 C671 C -0.13826 0.32492 0.17580
 C672 C -0.14529 0.29650 0.18491
 C673 C -0.17358 0.28456 0.17876
 C674 C -0.19449 0.30273 0.16337
 C675 C -0.18718 0.33098 0.15392
 C676 C -0.15040 0.37134 0.14809
 C677 C -0.15540 0.37847 0.11747
 C678 C -0.14406 0.40424 0.10514
 C679 C -0.12778 0.42370 0.12327
 C680 C -0.12436 0.41728 0.15440
 C681 C -0.13532 0.39124 0.16661
 C682 C -0.11173 0.44856 0.10897
 C683 C -0.08299 0.45577 0.11894
 C684 C -0.06545 0.47487 0.10210
 C685 C -0.07604 0.48684 0.07464
 C686 C -0.10557 0.48170 0.06595
 C687 C -0.12332 0.46291 0.08306
 H688 H -0.11609 0.33295 0.18013
 H689 H -0.12763 0.28374 0.19529
 H690 H -0.21701 0.29573 0.15919
 H691 H -0.20369 0.34414 0.14201
 H692 H -0.16673 0.36334 0.10267
 H693 H -0.14671 0.40802 0.08100
 H694 H -0.11252 0.43200 0.16921
 H695 H -0.13154 0.38635 0.19041
 H696 H -0.07311 0.44509 0.13858
 H697 H -0.04278 0.47848 0.10943
 H698 H -0.11443 0.49094 0.04505
 H699 H -0.14565 0.45857 0.07519
 C700 C -0.18530 0.67971 -0.20506
 C701 C -0.21568 0.68368 -0.19969
 C702 C -0.23226 0.70398 -0.21670
 C703 C -0.21876 0.72161 -0.23919
 C704 C -0.18835 0.71613 -0.24537
 C705 C -0.17201 0.69541 -0.22865
 C706 C -0.16698 0.66123 -0.18443
 C707 C -0.14702 0.64030 -0.19579
 C708 C -0.12872 0.62410 -0.17598
 C709 C -0.12960 0.62895 -0.14445
 C710 C -0.14969 0.65004 -0.13333
 C711 C -0.16832 0.66573 -0.15303
 C712 C -0.10924 0.61289 -0.12317
 C713 C -0.11825 0.60658 -0.09330
 C714 C -0.09847 0.59400 -0.07242
 C715 C -0.06942 0.58664 -0.08102
 C716 C -0.06065 0.59151 -0.11112
 C717 C -0.08025 0.60481 -0.13192
 H718 H -0.22655 0.67129 -0.18197
 H719 H -0.25575 0.70553 -0.21198
 H720 H -0.17607 0.72910 -0.26147
 H721 H -0.14847 0.69288 -0.23299
 H722 H -0.14569 0.63645 -0.21997
 H723 H -0.11397 0.60776 -0.18542
 H724 H -0.15054 0.65512 -0.10940
 H725 H -0.18315 0.68217 -0.14380
 H726 H -0.14059 0.61152 -0.08588
 H727 H -0.10592 0.58996 -0.04944
 H728 H -0.03830 0.58605 -0.11825
 H729 H -0.07229 0.60959 -0.15452
 C730 C 0.16611 0.70676 0.15822
 C731 C 0.15271 0.72438 0.18045
 C732 C 0.16987 0.74204 0.19929
 C733 C 0.20100 0.74224 0.19684
 C734 C 0.21447 0.72404 0.17517
 C735 C 0.19727 0.70675 0.15596
 C736 C 0.14766 0.68864 0.13748
 C737 C 0.15793 0.66127 0.12733
 C738 C 0.14036 0.64411 0.10835
 C739 C 0.11179 0.65357 0.09938
 C740 C 0.10168 0.68110 0.10922
 C741 C 0.11945 0.69847 0.12777
 C742 C 0.09207 0.63431 0.08113
 C743 C 0.07132 0.64621 0.06031
 C744 C 0.05103 0.62821 0.04538
 C745 C 0.05139 0.59789 0.05053
 C746 C 0.07295 0.58581 0.07017
 C747 C 0.09285 0.60379 0.08549
 H748 H 0.12886 0.72456 0.18338
 H749 H 0.15860 0.75602 0.21537
 H750 H 0.23839 0.72320 0.17289
 H751 H 0.20846 0.69378 0.13897
 H752 H 0.17936 0.65274 0.13450
 H753 H 0.14919 0.62330 0.10086
 H754 H 0.07970 0.68904 0.10322
 H755 H 0.11096 0.71966 0.13451
 H756 H 0.07048 0.66949 0.05577
 H757 H 0.03481 0.63804 0.03011
 H758 H 0.07362 0.56251 0.07476
 H759 H 0.10805 0.59377 0.10165
 C760 C 0.29201 1.15255 0.88516
 C761 C 0.26880 1.16448 0.90247
 C762 C 0.24425 1.17770 0.88833
 C763 C 0.24239 1.17955 0.85650
 C764 C 0.26591 1.16825 0.83918
 C765 C 0.29037 1.15482 0.85333
 C766 C 0.31729 1.13690 0.90012
 C767 C 0.34617 1.13888 0.88839
 C768 C 0.36952 1.12263 0.90126
 C769 C 0.36459 1.10413 0.92632
 C770 C 0.33591 1.10290 0.93869
 C771 C 0.31253 1.11899 0.92568
 C772 C 0.38886 1.08497 0.93831
 C773 C 0.38290 1.05603 0.94720
 C774 C 0.40592 1.03716 0.95609
 C775 C 0.43547 1.04671 0.95612
 C776 C 0.44141 1.07589 0.94829
 C777 C 0.41833 1.09484 0.93950
 H778 H 0.26952 1.16351 0.92702
 H779 H 0.22639 1.18589 0.90236
 H780 H 0.26540 1.16969 0.81465
 H781 H 0.30765 1.14558 0.83926
 H782 H 0.35073 1.15282 0.86904
 H783 H 0.39124 1.12388 0.89095
 H784 H 0.33144 1.08921 0.95825
 H785 H 0.29054 1.11670 0.93516
 H786 H 0.36054 1.04758 0.94625
 H787 H 0.40064 1.01483 0.96219
 H788 H 0.46396 1.08395 0.94843
 H789 H 0.42361 1.11715 0.93335
 C790 C 0.33583 0.83806 1.17981
 C791 C 0.30866 0.83605 1.16409
 C792 C 0.28434 0.82244 1.17739
 C793 C 0.28648 0.81071 1.20684
 C794 C 0.31337 0.81319 1.22290
 C795 C 0.33786 0.82667 1.20948
 C796 C 0.36178 0.85195 1.16500
 C797 C 0.38103 0.87016 1.18135
 C798 C 0.40424 0.88459 1.16665
 C799 C 0.40864 0.88117 1.13528
 C800 C 0.38982 0.86229 1.11923
 C801 C 0.36687 0.84775 1.13392
 C802 C 0.43114 0.89860 1.11862
 C803 C 0.44547 0.88685 1.09310
 C804 C 0.46199 0.90472 1.07390
 C805 C 0.46515 0.93456 1.08018
 C806 C 0.45321 0.94584 1.10706
 C807 C 0.43614 0.92807 1.12602
 H808 H 0.30607 0.84527 1.14152
 H809 H 0.26368 0.82137 1.16476
 H810 H 0.31560 0.80419 1.24560
 H811 H 0.35852 0.82765 1.22209
 H812 H 0.37763 0.87395 1.20531
 H813 H 0.41849 0.89872 1.17977
 H814 H 0.39210 0.85944 1.09499
 H815 H 0.35284 0.83345 1.12075
 H816 H 0.44290 0.86406 1.08723
 H817 H 0.47137 0.89546 1.05346
 H818 H 0.45524 0.96885 1.11226
 H819 H 0.42533 0.93794 1.14534
 C820 C 0.72181 1.16366 1.13072
 C821 C 0.74529 1.14906 1.14585
 C822 C 0.76695 1.16460 1.16149
 C823 C 0.76533 1.19526 1.16365
 C824 C 0.74158 1.20991 1.14901
 C825 C 0.72038 1.19439 1.13244
 C826 C 0.69901 1.14674 1.11356
 C827 C 0.66959 1.15708 1.11048
 C828 C 0.64816 1.14055 1.09538
 C829 C 0.65522 1.11275 1.08371
 C830 C 0.68473 1.10263 1.08657
 C831 C 0.70633 1.11957 1.10067
 C832 C 0.63192 1.09387 1.06973
 C833 C 0.63962 1.07230 1.04839
 C834 C 0.61855 1.05254 1.03790
 C835 C 0.58885 1.05468 1.04706
 C836 C 0.58066 1.07699 1.06717
 C837 C 0.60198 1.09604 1.07873
 H838 H 0.74701 1.12546 1.14596
 H839 H 0.78514 1.15237 1.17170
 H840 H 0.73915 1.23343 1.15042
 H841 H 0.70305 1.20665 1.12082
 H842 H 0.66276 1.17768 1.12026
 H843 H 0.62600 1.14965 1.09313
 H844 H 0.69132 1.08124 1.07861
 H845 H 0.72879 1.11103 1.10155
 H846 H 0.66204 1.07022 1.03998
 H847 H 0.62566 1.03522 1.02297
 H848 H 0.55798 1.07896 1.07501
 H849 H 0.59498 1.11174 1.09555
 C850 C 0.66014 0.82907 0.80053
 C851 C 0.68418 0.84435 0.78802
 C852 C 0.70573 0.82977 0.77110
 C853 C 0.70398 0.79950 0.76645
 C854 C 0.68004 0.78409 0.77887
 C855 C 0.65824 0.79875 0.79563
 C856 C 0.63800 0.84473 0.81958
 C857 C 0.62647 0.83156 0.84587
 C858 C 0.60815 0.84744 0.86543
 C859 C 0.60114 0.87696 0.85933
 C860 C 0.61159 0.88967 0.83232
 C861 C 0.62960 0.87371 0.81263
 C862 C 0.58520 0.89516 0.88205
 C863 C 0.56614 0.91816 0.87283
 C864 C 0.55442 0.93760 0.89411
 C865 C 0.56120 0.93421 0.92507
 C866 C 0.57880 0.91031 0.93451
 C867 C 0.59084 0.89114 0.91324
 H868 H 0.68683 0.86752 0.79196
 H869 H 0.72426 0.84209 0.76228
 H870 H 0.67812 0.76076 0.77543
 H871 H 0.63987 0.78637 0.80464
 H872 H 0.63255 0.80934 0.85204
 H873 H 0.60004 0.83676 0.88572
 H874 H 0.60694 0.91239 0.82693
 H875 H 0.63753 0.88435 0.79224
 H876 H 0.56074 0.92152 0.84909
 H877 H 0.54049 0.95560 0.88630
 H878 H 0.58440 0.90717 0.95825
 H879 H 0.60572 0.87399 0.92123
   
