data_POSCAR
  _audit_creation_date              2014-09-24
  _audit_creation_method            'ToBaCCo'
  _symmetry_space_group_name_H-M    'P1'
  _symmetry_Int_Tables_number       1
  _symmetry_cell_setting            triclinic
  loop_
  _symmetry_equiv_pos_as_xyz
 x,y,z
_cell_length_a 18.5280
_cell_length_b 18.5713
_cell_length_c 18.6148
_cell_angle_alpha 90.091500
_cell_angle_beta 89.996000
_cell_angle_gamma 89.936900
loop_
  _atom_site_label
  _atom_site_type_symbol
  _atom_site_fract_x
  _atom_site_fract_y
  _atom_site_fract_z
C1 C 0.26118 0.35680 0.02845
 C2 C 0.27228 0.36719 -0.04776
 C3 C 0.32420 0.32482 -0.08279
 C4 C 0.36487 0.27156 -0.04774
 C5 C 0.35423 0.26076 0.02848
 C6 C 0.30241 0.30379 0.06367
 H7 H 0.29527 0.29719 0.12115
 H8 H 0.33190 0.33226 -0.14006
 C9 C 0.73858 0.64502 0.02941
 C10 C 0.72928 0.63663 -0.04688
 C11 C 0.67815 0.67913 -0.08246
 C12 C 0.63484 0.73000 -0.04696
 C13 C 0.64402 0.73942 0.02978
 C14 C 0.69571 0.69647 0.06515
 H15 H 0.70158 0.70208 0.12289
 H16 H 0.67249 0.67253 -0.14009
 C17 C 0.73633 0.35858 0.96917
 C18 C 0.72713 0.36723 1.04602
 C19 C 0.67553 0.32472 1.08122
 C20 C 0.63286 0.27398 1.04542
 C21 C 0.64147 0.26460 0.96904
 C22 C 0.69309 0.30730 0.93360
 H23 H 0.69887 0.30134 0.87589
 H24 H 0.66893 0.33028 1.13885
 C25 C 0.25978 0.64654 0.97149
 C26 C 0.27008 0.63629 1.04779
 C27 C 0.32224 0.67810 1.08318
 C28 C 0.36438 0.73014 1.04827
 C29 C 0.35441 0.74070 0.97196
 C30 C 0.30228 0.69856 0.93640
 H31 H 0.29596 0.70509 0.87882
 H32 H 0.32932 0.67085 1.14055
 C33 C 0.03264 0.26396 0.35782
 C34 C -0.04448 0.27107 0.36401
 C35 C -0.08059 0.32048 0.32013
 C36 C -0.04466 0.36424 0.27060
 C37 C 0.03247 0.35805 0.26365
 C38 C 0.06864 0.30790 0.30763
 H39 H 0.12688 0.30365 0.30337
 H40 H -0.13884 0.32475 0.32440
 C41 C 0.02953 0.73524 0.64103
 C42 C -0.04748 0.72555 0.63187
 C43 C -0.08287 0.67378 0.67387
 C44 C -0.04753 0.63186 0.72571
 C45 C 0.02947 0.64115 0.73544
 C46 C 0.06499 0.69267 0.69271
 H47 H 0.12287 0.69895 0.69899
 H48 H -0.14063 0.66707 0.66716
 C49 C 0.97011 0.73668 0.35559
 C50 C 1.04660 0.72685 0.36485
 C51 C 1.08239 0.67523 0.32320
 C52 C 1.04727 0.63312 0.27126
 C53 C 0.97034 0.64223 0.26127
 C54 C 0.93452 0.69391 0.30403
 H55 H 0.87659 0.69999 0.29809
 H56 H 1.14021 0.66926 0.33021
 C57 C 0.97139 0.26152 0.64200
 C58 C 1.04830 0.27161 0.63297
 C59 C 1.08337 0.32348 0.67529
 C60 C 1.04751 0.36489 0.72706
 C61 C 0.97106 0.35537 0.73683
 C62 C 0.93558 0.30389 0.69389
 H63 H 0.87767 0.29776 0.69995
 H64 H 1.14117 0.33065 0.66933
 C65 C 0.35491 0.02812 0.26124
 C66 C 0.36573 -0.04826 0.27223
 C67 C 0.32510 -0.08335 0.32537
 C68 C 0.27284 -0.04830 0.36731
 C69 C 0.26173 0.02814 0.35690
 C70 C 0.30302 0.06340 0.30407
 H71 H 0.29580 0.12100 0.29740
 H72 H 0.33296 -0.14074 0.33288
 C73 C 0.64400 0.03162 0.73850
 C74 C 0.63653 -0.04513 0.73036
 C75 C 0.68025 -0.08129 0.68075
 C76 C 0.73051 -0.04572 0.63745
 C77 C 0.73896 0.03099 0.64483
 C78 C 0.69534 0.06718 0.69542
 H79 H 0.70043 0.12517 0.70029
 H80 H 0.67502 -0.13925 0.67575
 C81 C 0.35704 0.97065 0.73826
 C82 C 0.36674 1.04714 0.72770
 C83 C 0.32503 1.08206 0.67531
 C84 C 0.27212 1.04689 0.63432
 C85 C 0.26155 0.97051 0.64490
 C86 C 0.30454 0.93517 0.69644
 H87 H 0.29810 0.87749 0.70300
 H88 H 0.33231 1.13953 0.66796
 C89 C 0.64046 0.96933 0.26645
 C90 C 0.63230 1.04599 0.27519
 C91 C 0.67506 1.08198 0.32567
 C92 C 0.72668 1.04672 0.36816
 C93 C 0.73559 0.96961 0.35991
 C94 C 0.69196 0.93381 0.30920
 H95 H 0.69752 0.87591 0.30355
 H96 H 0.66870 1.13982 0.33086
 O97 O 0.83138 0.92833 0.56436
 O98 O 0.94133 0.84452 0.42424
 O99 O 0.84435 0.93717 0.42681
 O100 O 0.93518 0.81877 0.55337
 O101 O 0.84380 0.74857 0.56910
 O102 O 0.75348 0.86117 0.42883
 O103 O 0.86224 0.75599 0.42552
 O104 O 0.74589 0.84847 0.56269
 Cu105 Cu 0.89169 0.88680 0.49950
 Cu106 Cu 0.79353 0.79268 0.49284
 C107 C 0.77073 0.90826 0.58543
 C108 C 0.92256 0.78192 0.40367
 C109 C 0.78051 0.92086 0.40751
 C110 C 0.90913 0.76495 0.58318
 O111 O 0.06108 0.15667 0.42706
 O112 O 0.17709 0.06557 0.55675
 O113 O 0.06942 0.17393 0.56049
 O114 O 0.15339 0.06060 0.42401
 O115 O 0.24493 0.13605 0.42747
 O116 O 0.15429 0.25373 0.56482
 O117 O 0.25203 0.15389 0.56883
 O118 O 0.14053 0.24471 0.42772
 Cu119 Cu 0.11097 0.10995 0.49979
 Cu120 Cu 0.20826 0.20553 0.49374
 C121 C 0.07992 0.21915 0.40646
 C122 C 0.23295 0.09001 0.58498
 C123 C 0.09195 0.23239 0.58435
 C124 C 0.21726 0.07689 0.40490
 O125 O 0.18086 0.93498 0.44805
 O126 O 0.06146 0.84321 0.57320
 O127 O 0.15316 0.93896 0.57781
 O128 O 0.07236 0.82886 0.43631
 O129 O 0.15237 0.74353 0.43971
 O130 O 0.24418 0.86261 0.57474
 O131 O 0.13920 0.75373 0.57318
 O132 O 0.25054 0.84336 0.43085
 Cu133 Cu 0.11257 0.89025 0.50104
 Cu134 Cu 0.20775 0.79319 0.50828
 C135 C 0.23417 0.90867 0.41706
 C136 C 0.07859 0.78008 0.59355
 C137 C 0.21675 0.92197 0.59732
 C138 C 0.09249 0.76785 0.41644
 O139 O 0.82079 0.06404 0.44589
 O140 O 0.94020 0.15497 0.57154
 O141 O 0.84655 0.05944 0.57543
 O142 O 0.92929 0.16888 0.43457
 O143 O 0.84990 0.25493 0.43868
 O144 O 0.75712 0.13779 0.57396
 O145 O 0.86226 0.24428 0.57322
 O146 O 0.75008 0.15528 0.43087
 Cu147 Cu 0.88867 0.10816 0.49944
 Cu148 Cu 0.79406 0.20616 0.50726
 C149 C 0.76654 0.09007 0.41654
 C150 C 0.92280 0.21762 0.59322
 C151 C 0.78369 0.07798 0.59605
 C152 C 0.90950 0.23013 0.41518
 O153 O 0.42698 0.93988 0.84496
 O154 O 0.55262 0.82098 0.93692
 O155 O 0.56472 0.92908 0.83171
 O156 O 0.42208 0.84861 0.94063
 O157 O 0.42585 0.75746 0.86485
 O158 O 0.56072 0.84986 0.74594
 O159 O 0.57073 0.75213 0.84512
 O160 O 0.42613 0.86172 0.75617
 Cu161 Cu 0.49927 0.88903 0.89220
 Cu162 Cu 0.49226 0.79409 0.79538
 C163 C 0.40567 0.92221 0.78243
 C164 C 0.58449 0.76836 0.91035
 C165 C 0.58445 0.90925 0.77072
 C166 C 0.40273 0.78506 0.92380
 O167 O 0.42553 0.05895 0.15473
 O168 O 0.55905 0.17380 0.06843
 O169 O 0.55968 0.06915 0.17427
 O170 O 0.42468 0.15393 0.05975
 O171 O 0.42138 0.24272 0.13808
 O172 O 0.55967 0.15314 0.25526
 O173 O 0.56031 0.25462 0.15253
 O174 O 0.42135 0.13836 0.24244
 Cu175 Cu 0.49917 0.11034 0.11059
 Cu176 Cu 0.48853 0.20684 0.20645
 C177 C 0.40268 0.07707 0.21665
 C178 C 0.58131 0.23278 0.09100
 C179 C 0.58115 0.09165 0.23351
 C180 C 0.40219 0.21629 0.07736
 O181 O 0.43896 0.17443 0.93206
 O182 O 0.57354 0.06064 0.84498
 O183 O 0.57328 0.15641 0.93905
 O184 O 0.44047 0.06777 0.82462
 O185 O 0.43376 0.15353 0.74647
 O186 O 0.57224 0.24541 0.86107
 O187 O 0.57387 0.13952 0.75675
 O188 O 0.43307 0.25318 0.84676
 Cu189 Cu 0.49925 0.11075 0.88934
 Cu190 Cu 0.50584 0.20723 0.79318
 C191 C 0.41398 0.23225 0.90911
 C192 C 0.59496 0.07916 0.78278
 C193 C 0.59343 0.21941 0.92124
 C194 C 0.41541 0.09073 0.76698
 O195 O 0.44427 0.82302 0.06654
 O196 O 0.57312 0.93947 0.15813
 O197 O 0.57694 0.84781 0.06215
 O198 O 0.43850 0.93072 0.17449
 O199 O 0.43506 0.84652 0.25459
 O200 O 0.57292 0.75637 0.13717
 O201 O 0.57104 0.86122 0.24678
 O202 O 0.42951 0.75016 0.15567
 Cu203 Cu 0.50033 0.88958 0.11099
 Cu204 Cu 0.50621 0.79285 0.20637
 C205 C 0.41437 0.76848 0.09144
 C206 C 0.59264 0.92150 0.22112
 C207 C 0.59591 0.78397 0.07834
 C208 C 0.41480 0.90842 0.23299
 O209 O 0.93506 0.55344 0.81897
 O210 O 0.84476 0.42610 0.93690
 O211 O 0.94178 0.42394 0.84450
 O212 O 0.83062 0.56376 0.92774
 O213 O 0.74541 0.56163 0.84772
 O214 O 0.86284 0.42488 0.75596
 O215 O 0.75409 0.42744 0.86073
 O216 O 0.84388 0.56859 0.74845
 Cu217 Cu 0.89163 0.49917 0.88661
 Cu218 Cu 0.79374 0.49194 0.79238
 C219 C 0.90910 0.58304 0.76504
 C220 C 0.78109 0.40634 0.92045
 C221 C 0.92325 0.40329 0.78197
 C222 C 0.76990 0.58456 0.90745
 O223 O 0.15274 0.42390 0.06069
 O224 O 0.06865 0.56091 0.17345
 O225 O 0.17651 0.55688 0.06562
 O226 O 0.06080 0.42705 0.15648
 O227 O 0.14002 0.42836 0.24462
 O228 O 0.25030 0.57055 0.15450
 O229 O 0.15325 0.56483 0.25350
 O230 O 0.24446 0.42793 0.13580
 Cu231 Cu 0.11038 0.49996 0.10974
 Cu232 Cu 0.20763 0.49421 0.20514
 C233 C 0.21672 0.40498 0.07694
 C234 C 0.09098 0.58455 0.23201
 C235 C 0.23154 0.58626 0.09054
 C236 C 0.07961 0.40673 0.21894
 O237 O 0.92900 0.43465 0.16831
 O238 O 0.84630 0.57564 0.05845
 O239 O 0.93943 0.57202 0.15458
 O240 O 0.82067 0.44579 0.06330
 O241 O 0.75002 0.43045 0.15423
 O242 O 0.86128 0.57345 0.24343
 O243 O 0.75660 0.57413 0.13621
 O244 O 0.84941 0.43882 0.25388
 Cu245 Cu 0.88833 0.49962 0.10752
 Cu246 Cu 0.79343 0.50739 0.20483
 C247 C 0.90916 0.41531 0.22941
 C248 C 0.78331 0.59625 0.07660
 C249 C 0.92184 0.59359 0.21710
 C250 C 0.76662 0.41607 0.08923
 O251 O 0.07279 0.43628 0.82913
 O252 O 0.15209 0.57857 0.93943
 O253 O 0.06120 0.57348 0.84338
 O254 O 0.18072 0.44864 0.93559
 O255 O 0.25040 0.43116 0.84428
 O256 O 0.13928 0.57359 0.75448
 O257 O 0.24361 0.57568 0.86394
 O258 O 0.15300 0.44016 0.74427
 Cu259 Cu 0.11232 0.50137 0.89064
 Cu260 Cu 0.20788 0.50893 0.79432
 C261 C 0.09316 0.41656 0.76828
 C262 C 0.21567 0.59837 0.92289
 C263 C 0.07852 0.59384 0.78047
 C264 C 0.23390 0.41734 0.90938
   
