data_POSCAR
  _audit_creation_date              2014-09-24
  _audit_creation_method            'ToBaCCo'
  _symmetry_space_group_name_H-M    'P1'
  _symmetry_Int_Tables_number       1
  _symmetry_cell_setting            triclinic
  loop_
  _symmetry_equiv_pos_as_xyz
 x,y,z
_cell_length_a 40.3280
_cell_length_b 40.2651
_cell_length_c 40.1342
_cell_angle_alpha 89.877100
_cell_angle_beta 90.108800
_cell_angle_gamma 89.897100
loop_
  _atom_site_label
  _atom_site_type_symbol
  _atom_site_fract_x
  _atom_site_fract_y
  _atom_site_fract_z
C1 C 0.16857 0.16850 0.20735
 N2 N 0.15468 0.19569 0.19292
 C3 C 0.16839 0.20901 0.16509
 N4 N 0.19592 0.19508 0.15163
 C5 C 0.20983 0.16790 0.16604
 N6 N 0.19612 0.15457 0.19388
 C7 C -0.16504 0.83381 0.21049
 N8 N -0.19280 0.84759 0.19717
 C9 C -0.20724 0.83371 0.16999
 N10 N -0.19382 0.80611 0.15606
 C11 C -0.16606 0.79232 0.16939
 N12 N -0.15164 0.80620 0.19656
 C13 C -0.17057 0.16564 -0.20832
 N14 N -0.15737 0.19343 -0.19463
 C15 C -0.17141 0.20708 -0.16716
 N16 N -0.19861 0.19287 -0.15332
 C17 C -0.21181 0.16507 -0.16702
 N18 N -0.19776 0.15144 -0.19449
 C19 C 0.16866 0.83494 -0.20758
 N20 N 0.15405 0.80748 -0.19460
 C21 C 0.16696 0.79277 -0.16703
 N22 N 0.19445 0.80557 -0.15236
 C23 C 0.20908 0.83302 -0.16533
 N24 N 0.19616 0.84773 -0.19292
 C25 C 0.16810 1.16775 0.79317
 N26 N 0.15393 1.19528 0.80650
 C27 C 0.16709 1.20925 0.83428
 N28 N 0.19435 1.19564 0.84877
 C29 C 0.20851 1.16812 0.83546
 N30 N 0.19536 1.15416 0.80768
 C31 C 0.83311 0.83507 0.78918
 N32 N 0.84682 0.80727 0.80261
 C33 C 0.83296 0.79298 0.82987
 N34 N 0.80546 0.80655 0.84378
 C35 C 0.79175 0.83434 0.83036
 N36 N 0.80561 0.84863 0.80310
 C37 C 0.16598 0.83137 1.20942
 N38 N 0.15163 0.80415 1.19573
 C39 C 0.16506 0.78995 1.16825
 N40 N 0.19280 0.80301 1.15438
 C41 C 0.20717 0.83023 1.16806
 N42 N 0.19373 0.84444 1.19555
 C43 C 0.83428 1.16844 1.20804
 N44 N 0.80676 1.15403 1.19505
 C45 C 0.79209 1.16720 1.16757
 N46 N 0.80501 1.19472 1.15301
 C47 C 0.83253 1.20914 1.16598
 N48 N 0.84720 1.19597 1.19347
 O49 O 0.45331 0.93683 0.94489
 O50 O 0.41694 0.96887 0.97504
 C51 C 0.42364 0.94579 0.95363
 O52 O 0.54708 0.93963 1.06332
 O53 O 0.58324 0.96994 1.03124
 C54 C 0.57669 0.94848 1.05438
 O55 O 0.45384 0.93615 1.06011
 O56 O 0.41723 0.96857 1.03041
 C57 C 0.42410 0.94523 1.05160
 O58 O 0.54651 0.94016 0.94128
 O59 O 0.58295 0.97017 0.97335
 C60 C 0.57619 0.94892 0.95014
 Zr61 Zr 0.49993 0.95584 0.96020
 O62 O 0.50312 0.90338 0.95996
 O63 O 0.49597 0.95661 0.90759
 Zr64 Zr 0.50032 0.95507 1.04434
 O65 O 0.50214 0.90276 1.04052
 O66 O 0.49724 0.95297 1.09693
 O67 O 0.47055 0.94910 1.00235
 O68 O 0.52906 0.94944 1.00221
 O69 O 0.54628 1.05566 0.94183
 O70 O 0.58288 1.02529 0.97363
 C71 C 0.57601 1.04686 0.95063
 O72 O 0.45349 1.05792 1.06082
 O73 O 0.41706 1.02618 1.03053
 C74 C 0.42381 1.04913 1.05203
 O75 O 0.54666 1.05518 1.06351
 O76 O 0.58295 1.02564 1.03092
 C77 C 0.57630 1.04679 1.05423
 O78 O 0.45310 1.05869 0.94496
 O79 O 0.41693 1.02613 0.97470
 C80 C 0.42350 1.04952 0.95353
 Zr81 Zr 0.49974 1.03982 0.96061
 O82 O 0.50335 1.09227 0.96090
 O83 O 0.49580 1.03991 0.90799
 Zr84 Zr 0.50006 1.03919 1.04498
 O85 O 0.50356 1.09164 1.04552
 O86 O 0.49658 1.03813 1.09761
 Zr87 Zr 0.45074 0.99754 1.00272
 Zr88 Zr 0.54929 0.99754 1.00246
 O89 O 0.52861 1.04559 1.00274
 O90 O 0.47035 1.04604 1.00289
 O91 O 0.52938 0.99789 0.95383
 O92 O 0.47146 0.99706 1.05086
 O93 O 0.47101 0.99784 0.95443
 O94 O 0.52975 0.99713 1.05114
 H95 H 0.54420 0.93003 1.00211
 H96 H 0.45652 0.99688 1.07043
 H97 H 0.54348 1.06514 1.00271
 H98 H 0.45591 0.99786 0.93492
 H99 H 0.51355 0.96899 1.10581
 H100 H 0.51594 1.02560 1.10617
 H101 H 0.48541 1.10043 1.03143
 H102 H 0.48487 1.10087 0.97458
 H103 H 0.51447 1.02662 0.89921
 H104 H 0.51474 0.96981 0.89892
 H105 H 0.48803 0.89514 0.97754
 H106 H 0.50228 0.89420 1.06369
 O107 O 0.05434 0.54700 -0.06357
 O108 O 0.02469 0.58336 -0.03102
 C109 C 0.04589 0.57670 -0.05430
 O110 O -0.06394 0.45392 -0.06048
 O111 O -0.03189 0.41723 -0.03049
 C112 C -0.05504 0.42413 -0.05183
 O113 O -0.06051 0.54733 -0.06347
 O114 O -0.03052 0.58352 -0.03107
 C115 C -0.05185 0.57698 -0.05431
 O116 O 0.05749 0.45362 -0.06078
 O117 O 0.02573 0.41709 -0.03055
 C118 C 0.04869 0.42387 -0.05202
 Zr119 Zr 0.03880 0.50024 -0.04484
 O120 O 0.03813 0.49748 -0.09749
 O121 O 0.09117 0.50376 -0.04496
 Zr122 Zr -0.04479 0.50049 -0.04491
 O123 O -0.04122 0.49914 -0.09741
 O124 O -0.09713 0.50389 -0.04677
 O125 O -0.00301 0.53011 -0.05105
 O126 O -0.00307 0.47138 -0.05099
 O127 O 0.05780 0.45291 0.05505
 O128 O 0.02575 0.41673 0.02475
 C129 C 0.04887 0.42327 0.04618
 O130 O -0.06064 0.54651 0.05852
 O131 O -0.03098 0.58305 0.02626
 C132 C -0.05212 0.57625 0.04953
 O133 O -0.06350 0.45325 0.05517
 O134 O -0.03170 0.41691 0.02479
 C135 C -0.05465 0.42356 0.04630
 O136 O 0.05501 0.54619 0.05853
 O137 O 0.02526 0.58291 0.02633
 C138 C 0.04650 0.57598 0.04956
 Zr139 Zr 0.03906 0.49975 0.03958
 O140 O 0.03883 0.49567 0.09218
 O141 O 0.09143 0.50329 0.03959
 Zr142 Zr -0.04484 0.49999 0.03955
 O143 O -0.04459 0.49596 0.09215
 O144 O -0.09721 0.50378 0.03932
 Zr145 Zr -0.00292 0.54950 -0.00233
 Zr146 Zr -0.00299 0.45079 -0.00278
 O147 O -0.00290 0.47101 0.04553
 O148 O -0.00286 0.52948 0.04625
 O149 O 0.04543 0.47044 -0.00274
 O150 O -0.05088 0.52900 -0.00258
 O151 O 0.04503 0.52875 -0.00252
 O152 O -0.05136 0.47073 -0.00279
 H153 H -0.00313 0.45637 -0.07052
 H154 H -0.07041 0.54398 -0.00263
 H155 H -0.00286 0.45582 0.06499
 H156 H 0.06454 0.54367 -0.00253
 H157 H -0.10594 0.48753 -0.03068
 H158 H -0.10589 0.48508 0.02599
 H159 H -0.03110 0.51449 0.10092
 H160 H 0.02562 0.51442 0.10095
 H161 H 0.10005 0.48497 0.02570
 H162 H 0.09986 0.48530 -0.03118
 H163 H 0.02141 0.51367 -0.10549
 H164 H -0.06431 0.49920 -0.10588
 O165 O 1.06065 -0.05819 0.45355
 O166 O 1.03076 -0.02612 0.41676
 C167 C 1.05203 -0.04927 0.42367
 O168 O 0.94206 -0.05477 0.54665
 O169 O 0.97404 -0.02487 0.58331
 C170 C 0.95096 -0.04615 0.57649
 O171 O 0.94555 -0.05799 0.45302
 O172 O 0.97572 -0.02609 0.41650
 C173 C 0.95434 -0.04910 0.42322
 O174 O 1.06348 -0.05518 0.54721
 O175 O 1.03155 -0.02495 0.58356
 C176 C 1.05456 -0.04640 0.57696
 Zr177 Zr 1.04482 -0.03946 0.50029
 O178 O 1.04438 -0.09190 0.50419
 O179 O 1.09720 -0.03967 0.49679
 Zr180 Zr 0.96093 -0.03911 0.49992
 O181 O 0.95950 -0.09155 0.50331
 O182 O 0.90866 -0.03570 0.49806
 O183 O 1.00296 -0.04577 0.47043
 O184 O 1.00280 -0.04535 0.52903
 O185 O 1.06360 0.06031 0.54692
 O186 O 1.03160 0.03024 0.58341
 C187 C 1.05465 0.05157 0.57672
 O188 O 0.94501 0.06334 0.45285
 O189 O 0.97500 0.03115 0.41652
 C190 C 0.95364 0.05426 0.42310
 O191 O 0.94175 0.06002 0.54640
 O192 O 0.97403 0.03033 0.58322
 C193 C 0.95072 0.05144 0.57629
 O194 O 1.06080 0.06328 0.45321
 O195 O 1.03072 0.03144 0.41661
 C196 C 1.05214 0.05438 0.42338
 Zr197 Zr 1.04492 0.04467 0.50005
 O198 O 1.04453 0.09712 0.50366
 O199 O 1.09729 0.04461 0.49657
 Zr200 Zr 0.96105 0.04481 0.49972
 O201 O 0.96180 0.09726 0.50337
 O202 O 0.90868 0.04515 0.49648
 Zr203 Zr 1.00312 0.00272 0.45046
 Zr204 Zr 1.00287 0.00271 0.54949
 O205 O 1.00290 0.05079 0.52884
 O206 O 1.00305 0.05125 0.47012
 O207 O 1.05132 0.00260 0.52985
 O208 O 0.95506 0.00281 0.47079
 O209 O 1.05104 0.00258 0.47131
 O210 O 0.95455 0.00283 0.52949
 H211 H 1.00271 -0.06484 0.54414
 H212 H 0.93561 0.00276 0.45568
 H213 H 1.00281 0.07020 0.54398
 H214 H 1.07051 0.00252 0.45630
 H215 H 0.90037 -0.05886 0.49807
 H216 H 0.90052 0.02718 0.51117
 H217 H 0.97441 0.10586 0.48409
 H218 H 1.03126 0.10577 0.48479
 H219 H 1.10591 0.03079 0.51507
 H220 H 1.10585 -0.02589 0.51522
 H221 H 1.03143 -0.10055 0.48515
 H222 H 0.97494 -0.10035 0.48637
 C223 C 1.15456 0.15489 0.23490
 C224 C 1.14195 0.14265 0.25921
 C225 C 1.12674 0.12780 0.28801
 C226 C 1.11958 0.09376 0.28820
 C227 C 1.10452 0.07929 0.31601
 C228 C 1.09655 0.09878 0.34375
 C229 C 1.10375 0.13281 0.34360
 C230 C 1.11881 0.14730 0.31577
 C231 C 1.08090 0.08375 0.37222
 C232 C 1.06777 0.07065 0.39578
 H233 H 1.12557 0.07846 0.26687
 H234 H 1.09906 0.05295 0.31586
 H235 H 1.09768 0.14810 0.36492
 H236 H 1.12422 0.17364 0.31586
 C237 C 0.84965 -0.15207 0.23741
 C238 C 0.86280 -0.13942 0.26119
 C239 C 0.87859 -0.12416 0.28945
 C240 C 0.89679 -0.14355 0.31206
 C241 C 0.91229 -0.12864 0.33940
 C242 C 0.90965 -0.09428 0.34422
 C243 C 0.89143 -0.07491 0.32163
 C244 C 0.87594 -0.08981 0.29430
 C245 C 0.92560 -0.07882 0.37227
 C246 C 0.93882 -0.06549 0.39563
 H247 H 0.89902 -0.17013 0.30852
 H248 H 0.92633 -0.14384 0.35672
 H249 H 0.88924 -0.04832 0.32512
 H250 H 0.86195 -0.07458 0.27696
 C251 C 0.84452 0.15096 0.76290
 C252 C 0.85730 0.13847 0.73885
 C253 C 0.87270 0.12342 0.71030
 C254 C 0.87857 0.08912 0.70982
 C255 C 0.89395 0.07452 0.68228
 C256 C 0.90351 0.09416 0.65511
 C257 C 0.89754 0.12845 0.65553
 C258 C 0.88216 0.14305 0.68307
 C259 C 0.91986 0.07919 0.62705
 C260 C 0.93380 0.06657 0.60374
 H261 H 0.87139 0.07371 0.73076
 H262 H 0.89850 0.04799 0.68224
 H263 H 0.90488 0.14387 0.63467
 H264 H 0.87776 0.16960 0.68320
 C265 C 1.15551 -0.15018 0.76501
 C266 C 1.14362 -0.13702 0.74076
 C267 C 1.12913 -0.12139 0.71191
 C268 C 1.13433 -0.08752 0.70583
 C269 C 1.11976 -0.07225 0.67807
 C270 C 1.09995 -0.09081 0.65629
 C271 C 1.09486 -0.12471 0.66230
 C272 C 1.10942 -0.13997 0.69005
 C273 C 1.08438 -0.07503 0.62810
 C274 C 1.07098 -0.06191 0.60464
 H275 H 1.14948 -0.07291 0.72260
 H276 H 1.12379 -0.04600 0.67370
 H277 H 1.07952 -0.13927 0.64567
 H278 H 1.10520 -0.16616 0.69454
 C279 C 0.23712 1.15373 1.15228
 C280 C 0.26122 1.14109 1.13987
 C281 C 0.28983 1.12590 1.12485
 C282 C 0.31303 1.10902 1.14468
 C283 C 0.34060 1.09389 1.12999
 C284 C 0.34508 1.09558 1.09542
 C285 C 0.32194 1.11255 1.07560
 C286 C 0.29438 1.12769 1.09028
 C287 C 0.37311 1.07949 1.08023
 C288 C 0.39639 1.06578 1.06741
 H289 H 0.30973 1.10746 1.17142
 H290 H 0.35831 1.08077 1.14554
 H291 H 0.32513 1.11396 1.04883
 H292 H 0.27657 1.14065 1.07471
 C293 C 0.23641 0.84600 0.84952
 C294 C 0.26058 0.85766 0.86276
 C295 C 0.28932 0.87179 0.87857
 C296 C 0.31540 0.88413 0.85917
 C297 C 0.34306 0.89843 0.87451
 C298 C 0.34476 0.90045 0.90932
 C299 C 0.31876 0.88796 0.92874
 C300 C 0.29109 0.87365 0.91339
 C301 C 0.37284 0.91594 0.92505
 C302 C 0.39616 0.92932 0.93815
 H303 H 0.31427 0.88286 0.83223
 H304 H 0.36300 0.90809 0.85926
 H305 H 0.31978 0.88946 0.95567
 H306 H 0.27104 0.86423 0.92863
 C307 C 0.76528 0.84781 1.15637
 C308 C 0.74103 0.86047 1.14410
 C309 C 0.71231 0.87576 1.12920
 C310 C 0.68043 0.86728 1.14011
 C311 C 0.65256 0.88206 1.12541
 C312 C 0.65649 0.90540 1.09977
 C313 C 0.68837 0.91391 1.08893
 C314 C 0.71621 0.89914 1.10361
 C315 C 0.62792 0.92043 1.08432
 C316 C 0.60432 0.93316 1.07093
 H317 H 0.67713 0.84922 1.15988
 H318 H 0.62803 0.87526 1.13396
 H319 H 0.69169 0.93189 1.06909
 H320 H 0.74074 0.90588 1.09498
 C321 C 0.76122 1.15059 0.84702
 C322 C 0.73739 1.13757 0.85954
 C323 C 0.70910 1.12186 0.87457
 C324 C 0.68245 1.14113 0.88589
 C325 C 0.65513 1.12585 0.90085
 C326 C 0.65433 1.09125 0.90453
 C327 C 0.68093 1.07198 0.89311
 C328 C 0.70825 1.08725 0.87816
 C329 C 0.62650 1.07557 0.92044
 C330 C 0.60333 1.06245 0.93405
 H331 H 0.68287 1.16791 0.88327
 H332 H 0.63472 1.14099 0.90964
 H333 H 0.68059 1.04521 0.89589
 H334 H 0.72874 1.07212 0.86952
 C335 C 0.15343 0.23745 0.14955
 C336 C 0.14072 0.26120 0.13637
 C337 C 0.12536 0.28939 0.12052
 C338 C 0.10129 0.28458 0.09579
 C339 C 0.08615 0.31193 0.08051
 C340 C 0.09502 0.34421 0.08989
 C341 C 0.11915 0.34904 0.11456
 C342 C 0.13430 0.32168 0.12985
 C343 C 0.07909 0.37230 0.07444
 C344 C 0.06546 0.39568 0.06151
 H345 H 0.09419 0.25972 0.08839
 H346 H 0.06749 0.30792 0.06148
 H347 H 0.12616 0.37390 0.12203
 H348 H 0.15288 0.32567 0.14895
 C349 C -0.15714 0.23619 -0.15243
 C350 C -0.14489 0.26051 -0.14003
 C351 C -0.12992 0.28935 -0.12519
 C352 C -0.14905 0.31118 -0.10600
 C353 C -0.13432 0.33899 -0.09130
 C354 C -0.10041 0.34506 -0.09576
 C355 C -0.08132 0.32327 -0.11503
 C356 C -0.09604 0.29548 -0.12971
 C357 C -0.08501 0.37333 -0.08029
 C358 C -0.07163 0.39672 -0.06731
 H359 H -0.17527 0.30665 -0.10231
 H360 H -0.14930 0.35565 -0.07641
 H361 H -0.05507 0.32769 -0.11859
 H362 H -0.08101 0.27874 -0.14446
 C363 C 0.15128 0.76398 -0.15308
 C364 C 0.13803 0.73992 -0.14118
 C365 C 0.12218 0.71136 -0.12668
 C366 C 0.12231 0.70702 -0.09204
 C367 C 0.10677 0.67942 -0.07783
 C368 C 0.09103 0.65601 -0.09820
 C369 C 0.09091 0.66031 -0.13286
 C370 C 0.10647 0.68794 -0.14707
 C371 C 0.07496 0.62773 -0.08340
 C372 C 0.06161 0.60427 -0.07046
 H373 H 0.13436 0.72499 -0.07604
 H374 H 0.10699 0.67634 -0.05100
 H375 H 0.07880 0.64236 -0.14883
 H376 H 0.10620 0.69107 -0.17389
 C377 C -0.15158 0.76341 0.15441
 C378 C -0.13920 0.73928 0.14175
 C379 C -0.12421 0.71064 0.12652
 C380 C -0.14371 0.68321 0.11782
 C381 C -0.12914 0.65556 0.10265
 C382 C -0.09502 0.65523 0.09615
 C383 C -0.07550 0.68261 0.10495
 C384 C -0.09007 0.71025 0.12011
 C385 C -0.08007 0.62706 0.08003
 C386 C -0.06740 0.60370 0.06626
 H387 H -0.17013 0.68326 0.12265
 H388 H -0.14446 0.63454 0.09590
 H389 H -0.04910 0.68264 0.09998
 H390 H -0.07476 0.73133 0.12671
 C391 C 1.15478 0.15355 0.76557
 C392 C 1.14291 0.14079 0.74117
 C393 C 1.12861 0.12542 0.71217
 C394 C 1.12928 0.09079 0.70879
 C395 C 1.11494 0.07580 0.68087
 C396 C 1.09989 0.09538 0.65620
 C397 C 1.09935 0.13002 0.65950
 C398 C 1.11369 0.14501 0.68743
 C399 C 1.08441 0.07992 0.62787
 C400 C 1.07107 0.06698 0.60436
 H401 H 1.14072 0.07541 0.72780
 H402 H 1.11542 0.04900 0.67861
 H403 H 1.08770 0.14538 0.64061
 H404 H 1.11300 0.17180 0.68980
 C405 C 0.84724 -0.15038 0.76219
 C406 C 0.85991 -0.13735 0.73834
 C407 C 0.87524 -0.12173 0.71002
 C408 C 0.85718 -0.09932 0.69030
 C409 C 0.87222 -0.08392 0.66296
 C410 C 0.90539 -0.09087 0.65526
 C411 C 0.92342 -0.11331 0.67497
 C412 C 0.90839 -0.12870 0.70228
 C413 C 0.92103 -0.07493 0.62730
 C414 C 0.93448 -0.06171 0.60401
 H415 H 0.83154 -0.09373 0.69609
 H416 H 0.85806 -0.06659 0.64791
 H417 H 0.94909 -0.11884 0.66925
 H418 H 0.92259 -0.14596 0.71739
 C419 C 1.15228 -0.15425 0.23670
 C420 C 1.13990 -0.14147 0.26081
 C421 C 1.12491 -0.12617 0.28946
 C422 C 1.14425 -0.10740 0.31148
 C423 C 1.12956 -0.09221 0.33909
 C424 C 1.09548 -0.09575 0.34480
 C425 C 1.07616 -0.11461 0.32283
 C426 C 1.09084 -0.12979 0.29522
 C427 C 1.08025 -0.07967 0.37287
 C428 C 1.06741 -0.06595 0.39620
 H429 H 1.17060 -0.10441 0.30724
 H430 H 1.14472 -0.07763 0.35589
 H431 H 1.04977 -0.11745 0.32697
 H432 H 1.07565 -0.14422 0.27833
 C433 C 0.84915 0.15499 0.23530
 C434 C 0.86235 0.14280 0.25938
 C435 C 0.87806 0.12791 0.28797
 C436 C 0.89229 0.14793 0.31266
 C437 C 0.90764 0.13335 0.34037
 C438 C 0.90881 0.09870 0.34347
 C439 C 0.89457 0.07870 0.31879
 C440 C 0.87923 0.09327 0.29110
 C441 C 0.92468 0.08356 0.37185
 C442 C 0.93793 0.07045 0.39540
 H443 H 0.89154 0.17475 0.31047
 H444 H 0.91859 0.14904 0.35930
 H445 H 0.89535 0.05188 0.32093
 H446 H 0.86832 0.07756 0.27215
 C447 C 0.15275 0.23660 -0.15218
 C448 C 0.13998 0.26078 -0.14000
 C449 C 0.12464 0.28951 -0.12528
 C450 C 0.09173 0.29758 -0.13312
 C451 C 0.07665 0.32523 -0.11847
 C452 C 0.09442 0.34492 -0.09593
 C453 C 0.12737 0.33690 -0.08816
 C454 C 0.14245 0.30925 -0.10281
 C455 C 0.07869 0.37305 -0.08050
 C456 C 0.06519 0.39640 -0.06753
 H457 H 0.07772 0.28246 -0.15042
 H458 H 0.05114 0.33116 -0.12461
 H459 H 0.14132 0.35193 -0.07072
 H460 H 0.16790 0.30320 -0.09655
 C461 C -0.15435 0.23645 0.15117
 C462 C -0.14260 0.26060 0.13792
 C463 C -0.12838 0.28930 0.12203
 C464 C -0.11349 0.31415 0.14129
 C465 C -0.09918 0.34176 0.12582
 C466 C -0.09970 0.34465 0.09102
 C467 C -0.11473 0.31988 0.07176
 C468 C -0.12904 0.29226 0.08724
 C469 C -0.08428 0.37270 0.07511
 C470 C -0.07099 0.39603 0.06188
 H471 H -0.11281 0.31208 0.16820
 H472 H -0.08756 0.36074 0.14094
 H473 H -0.11520 0.32183 0.04484
 H474 H -0.14046 0.27317 0.07211
 C475 C -0.15305 0.76545 -0.15640
 C476 C -0.14054 0.74116 -0.14401
 C477 C -0.12551 0.71237 -0.12891
 C478 C -0.12320 0.71004 -0.09415
 C479 C -0.10837 0.68224 -0.07939
 C480 C -0.09579 0.65663 -0.09931
 C481 C -0.09814 0.65892 -0.13408
 C482 C -0.11298 0.68675 -0.14886
 C483 C -0.08032 0.62820 -0.08398
 C484 C -0.06734 0.60464 -0.07070
 H485 H -0.13277 0.72972 -0.07850
 H486 H -0.10665 0.68074 -0.05248
 H487 H -0.08846 0.63928 -0.14972
 H488 H -0.11461 0.68832 -0.17576
 C489 C 0.14965 0.76141 0.15357
 C490 C 0.13661 0.73754 0.14112
 C491 C 0.12100 0.70917 0.12608
 C492 C 0.14036 0.68280 0.11426
 C493 C 0.12520 0.65544 0.09921
 C494 C 0.09063 0.65434 0.09593
 C495 C 0.07125 0.68066 0.10786
 C496 C 0.08641 0.70802 0.12291
 C497 C 0.07508 0.62649 0.07990
 C498 C 0.06204 0.60331 0.06621
 H499 H 0.16712 0.68346 0.11656
 H500 H 0.14041 0.63524 0.09003
 H501 H 0.04450 0.68009 0.10540
 H502 H 0.07121 0.72830 0.13193
 C503 C 0.23714 1.15354 0.85095
 C504 C 0.26111 1.14111 0.86395
 C505 C 0.28964 1.12604 0.87943
 C506 C 0.31256 1.10846 0.86006
 C507 C 0.34003 1.09338 0.87514
 C508 C 0.34469 1.09582 0.90964
 C509 C 0.32184 1.11351 0.92901
 C510 C 0.29436 1.12860 0.91393
 C511 C 0.37266 1.07981 0.92519
 C512 C 0.39597 1.06613 0.93815
 H513 H 0.30912 1.10630 0.83337
 H514 H 0.35752 1.07971 0.85994
 H515 H 0.32518 1.11550 0.95573
 H516 H 0.27677 1.14211 0.92914
 C517 C 0.23626 0.84426 1.15312
 C518 C 0.26058 0.85613 1.14039
 C519 C 0.28943 0.87046 1.12501
 C520 C 0.28989 0.87614 1.09056
 C521 C 0.31769 0.89058 1.07565
 C522 C 0.34515 0.89940 1.09513
 C523 C 0.34476 0.89359 1.12957
 C524 C 0.31695 0.87913 1.14448
 C525 C 0.37336 0.91506 1.07988
 C526 C 0.39672 0.92858 1.06702
 H527 H 0.26873 0.86956 1.07528
 H528 H 0.31769 0.89506 1.04902
 H529 H 0.36582 0.90040 1.14488
 H530 H 0.31685 0.87489 1.17114
 C531 C 0.76325 1.15172 1.15359
 C532 C 0.73914 1.13866 1.14165
 C533 C 0.71051 1.12303 1.12713
 C534 C 0.69216 1.09988 1.14553
 C535 C 0.66456 1.08444 1.13120
 C536 C 0.65523 1.09211 1.09842
 C537 C 0.67353 1.11533 1.08007
 C538 C 0.70111 1.13076 1.09439
 C539 C 0.62712 1.07599 1.08341
 C540 C 0.60378 1.06259 1.07037
 H541 H 0.69924 1.09370 1.17085
 H542 H 0.65060 1.06649 1.14559
 H543 H 0.66655 1.12141 1.05470
 H544 H 0.71515 1.14859 1.07993
 C545 C 0.76299 0.84900 0.84538
 C546 C 0.73900 0.86149 0.85816
 C547 C 0.71058 0.87656 0.87366
 C548 C 0.71448 0.89495 0.90299
 C549 C 0.68693 0.90963 0.91813
 C550 C 0.65535 0.90599 0.90401
 C551 C 0.65143 0.88761 0.87466
 C552 C 0.67901 0.87292 0.85951
 C553 C 0.62706 0.92101 0.91979
 C554 C 0.60365 0.93369 0.93341
 H555 H 0.73878 0.89792 0.91415
 H556 H 0.69024 0.92377 0.94083
 H557 H 0.62712 0.88463 0.86354
 H558 H 0.67572 0.85875 0.83683
   
