data_POSCAR
  _audit_creation_date              2014-09-24
  _audit_creation_method            'ToBaCCo'
  _symmetry_space_group_name_H-M    'P1'
  _symmetry_Int_Tables_number       1
  _symmetry_cell_setting            triclinic
  loop_
  _symmetry_equiv_pos_as_xyz
 x,y,z
_cell_length_a 29.6733
_cell_length_b 30.2193
_cell_length_c 15.6272
_cell_angle_alpha 90.137600
_cell_angle_beta 89.799100
_cell_angle_gamma 123.152700
loop_
  _atom_site_label
  _atom_site_type_symbol
  _atom_site_fract_x
  _atom_site_fract_y
  _atom_site_fract_z
C1 C 0.41041 0.85366 0.49474
 C2 C 0.42408 0.87960 0.57429
 C3 C 0.45556 0.93539 0.57507
 C4 C 0.46846 0.96538 0.49893
 C5 C 0.45189 0.93727 0.42071
 C6 C 0.42462 0.88218 0.41851
 C7 C 0.49844 1.02511 0.50097
 C8 C 0.51788 1.05530 0.42480
 C9 C 0.54147 1.11027 0.42446
 C10 C 0.55262 1.13653 0.50317
 C11 C 0.53462 1.10820 0.57993
 C12 C 0.50673 1.05291 0.57850
 H13 H 0.38716 0.81086 0.49139
 H14 H 0.47105 0.95460 0.63592
 H15 H 0.45951 0.95684 0.35990
 H16 H 0.51584 1.03726 0.36421
 H17 H 0.57286 1.17917 0.50499
 H18 H 0.49125 1.03272 0.63872
 C19 C 0.14568 0.53030 0.50847
 C20 C 0.11745 0.52278 0.58496
 C21 C 0.06320 0.50649 0.58043
 C22 C 0.03469 0.49017 0.50219
 C23 C 0.06359 0.49438 0.42711
 C24 C 0.11931 0.51629 0.42919
 C25 C -0.02458 0.46907 0.49945
 C26 C -0.05019 0.46760 0.42207
 C27 C -0.10536 0.44889 0.41965
 C28 C -0.13451 0.43280 0.49685
 C29 C -0.11063 0.43326 0.57392
 C30 C -0.05633 0.45033 0.57469
 H31 H 0.18885 0.54844 0.51086
 H32 H 0.04335 0.50513 0.63925
 H33 H 0.04359 0.48106 0.36607
 H34 H -0.02731 0.48293 0.36357
 H35 H -0.17722 0.41698 0.49709
 H36 H -0.04008 0.44749 0.63457
 C37 C 0.46770 0.60070 0.48568
 C38 C 0.46630 0.57815 0.56506
 C39 C 0.48620 0.54508 0.56929
 C40 C 0.50768 0.53489 0.49652
 C41 C 0.50694 0.55740 0.41793
 C42 C 0.48551 0.58847 0.41215
 C43 C 0.52974 0.50038 0.50197
 C44 C 0.53574 0.47718 0.42767
 C45 C 0.55935 0.44777 0.43134
 C46 C 0.57457 0.43874 0.51068
 C47 C 0.56496 0.45728 0.58593
 C48 C 0.54528 0.49016 0.58122
 H49 H 0.45472 0.62783 0.48016
 H50 H 0.48229 0.52542 0.62907
 H51 H 0.52289 0.55150 0.35996
 H52 H 0.52192 0.48102 0.36604
 H53 H 0.59291 0.41609 0.51418
 H54 H 0.54244 0.50726 0.64012
 O55 O 0.43352 0.67319 -0.08281
 O56 O 0.41208 0.74492 -0.10462
 C57 C 0.37843 0.75721 -0.11982
 O58 O 0.33618 0.74071 -0.07495
 O59 O 0.26036 0.64224 -0.09492
 C60 C 0.24399 0.59458 -0.10967
 O61 O 0.25679 0.56928 -0.06193
 O62 O 0.35405 0.59794 -0.10506
 C63 C 0.40171 0.63248 -0.12771
 O64 O 0.43265 0.68759 0.08977
 O65 O 0.41561 0.76212 0.06593
 C66 C 0.37801 0.75957 0.10988
 O67 O 0.32859 0.72580 0.09641
 O68 O 0.24982 0.62780 0.07914
 C69 C 0.25518 0.59589 0.12496
 O70 O 0.28594 0.58087 0.10311
 O71 O 0.38153 0.60211 0.06024
 C72 C 0.41879 0.64060 0.10325
 Cr73 Cr 0.42084 0.71510 -0.00767
 Cr74 Cr 0.29531 0.68326 0.00137
 Cr75 Cr 0.32060 0.59017 -0.00085
 O76 O 0.34569 0.66317 -0.00178
 O77 O 0.58380 0.34101 -0.07835
 O78 O 0.57730 0.25232 -0.08184
 C79 C 0.60595 0.23755 -0.11458
 O80 O 0.65116 0.25001 -0.08428
 O81 O 0.74425 0.33750 -0.08523
 C82 C 0.76008 0.38174 -0.11890
 O83 O 0.74954 0.41413 -0.08850
 O84 O 0.66405 0.41651 -0.07968
 C85 C 0.61658 0.38698 -0.10723
 O86 O 0.58619 0.33949 0.09401
 O87 O 0.57815 0.25003 0.08980
 C88 C 0.60745 0.23501 0.11880
 O89 O 0.65353 0.25053 0.08956
 O90 O 0.74630 0.33807 0.08929
 C91 C 0.76398 0.38397 0.11843
 O92 O 0.75310 0.41524 0.08571
 O93 O 0.66663 0.41588 0.09308
 C94 C 0.62043 0.38419 0.12556
 Cr95 Cr 0.58495 0.29748 0.00581
 Cr96 Cr 0.69736 0.29587 0.00237
 Cr97 Cr 0.70647 0.41195 0.00265
 O98 O 0.66289 0.33508 0.00365
 C99 C 0.39129 0.86298 -0.27335
 C100 C 0.40934 0.84994 -0.34861
 C101 C 0.41431 0.80625 -0.34543
 C102 C 0.40419 0.77749 -0.27084
 C103 C 0.38868 0.79082 -0.19558
 C104 C 0.38307 0.83449 -0.19570
 C105 C 0.37806 0.90145 -0.27412
 C106 C 0.36330 0.91554 -0.19915
 C107 C 0.36043 0.89118 -0.12216
 C108 C 0.36996 0.85089 -0.12023
 H109 H 0.37779 0.92030 -0.33258
 H110 H 0.35414 0.94563 -0.20083
 H111 H 0.34989 0.90292 -0.06384
 H112 H 0.36737 0.83319 -0.05904
 H113 H 0.42857 0.79524 -0.40025
 H114 H 0.40893 0.74439 -0.27196
 C115 C 0.17618 0.51301 -0.31412
 C116 C 0.14387 0.53301 -0.33527
 C117 C 0.13996 0.56578 -0.27623
 C118 C 0.17131 0.58324 -0.20267
 C119 C 0.20714 0.56797 -0.18369
 C120 C 0.20879 0.53118 -0.23888
 C121 C 0.17470 0.47320 -0.36426
 C122 C 0.20822 0.45555 -0.34654
 C123 C 0.24264 0.47576 -0.27689
 C124 C 0.24255 0.51249 -0.22300
 H125 H 0.14661 0.45436 -0.41634
 H126 H 0.20718 0.42577 -0.38669
 H127 H 0.26897 0.46222 -0.26356
 H128 H 0.26958 0.52561 -0.16986
 H129 H 0.11519 0.58114 -0.28968
 H130 H 0.16859 0.61045 -0.16109
 C131 C 0.40211 0.59514 -0.36036
 C132 C 0.44724 0.58993 -0.36029
 C133 C 0.47617 0.60011 -0.28339
 C134 C 0.46266 0.61636 -0.20965
 C135 C 0.42009 0.62357 -0.20986
 C136 C 0.39072 0.61495 -0.28619
 C137 C 0.36562 0.57785 -0.42978
 C138 C 0.32446 0.58711 -0.43104
 C139 C 0.31754 0.61216 -0.36241
 C140 C 0.34958 0.62513 -0.28987
 H141 H 0.36778 0.55624 -0.48310
 H142 H 0.29774 0.57475 -0.48547
 H143 H 0.28594 0.61983 -0.36407
 H144 H 0.34168 0.64295 -0.23665
 H145 H 0.51095 0.59723 -0.28048
 H146 H 0.48513 0.62251 -0.15144
 C147 C 0.53263 0.17557 -0.32618
 C148 C 0.54569 0.13736 -0.33817
 C149 C 0.57583 0.13150 -0.27573
 C150 C 0.59463 0.16397 -0.20364
 C151 C 0.58532 0.20441 -0.19293
 C152 C 0.55555 0.21167 -0.25656
 C153 C 0.49744 0.17887 -0.38256
 C154 C 0.48848 0.21939 -0.37461
 C155 C 0.51579 0.25830 -0.31282
 C156 C 0.54943 0.25494 -0.25498
 H157 H 0.47625 0.14993 -0.43263
 H158 H 0.46095 0.22113 -0.41744
 H159 H 0.51069 0.29112 -0.30933
 H160 H 0.57131 0.28730 -0.21098
 H161 H 0.58615 0.10247 -0.28403
 H162 H 0.61738 0.15791 -0.15640
 C163 C 0.80602 0.36795 -0.34047
 C164 C 0.85684 0.41643 -0.34598
 C165 C 0.87432 0.45239 -0.27763
 C166 C 0.84218 0.44137 -0.20513
 C167 C 0.79114 0.39456 -0.19960
 C168 C 0.77188 0.35835 -0.26920
 C169 C 0.78821 0.32874 -0.40455
 C170 C 0.73616 0.28366 -0.40274
 C171 C 0.70112 0.27662 -0.33710
 C172 C 0.71868 0.31334 -0.27071
 H173 H 0.81423 0.33255 -0.45661
 H174 H 0.72270 0.25448 -0.45316
 H175 H 0.66027 0.24242 -0.33765
 H176 H 0.68995 0.30699 -0.22196
 H177 H 0.91286 0.48977 -0.28106
 H178 H 0.85738 0.46944 -0.15274
 C179 C 0.53445 0.41036 -0.27008
 C180 C 0.57572 0.44153 -0.33067
 C181 C 0.62818 0.45535 -0.31455
 C182 C 0.64025 0.43818 -0.24102
 C183 C 0.60045 0.40691 -0.18005
 C184 C 0.54721 0.39428 -0.19286
 C185 C 0.48052 0.39387 -0.28521
 C186 C 0.44075 0.36506 -0.22388
 C187 C 0.45379 0.35225 -0.14645
 C188 C 0.50639 0.36677 -0.13064
 H189 H 0.46838 0.40284 -0.34435
 H190 H 0.39969 0.35309 -0.23614
 H191 H 0.42294 0.33087 -0.09833
 H192 H 0.51451 0.35704 -0.06861
 H193 H 0.65999 0.47877 -0.36049
 H194 H 0.68115 0.44841 -0.23295
 C195 C 0.82368 0.44890 0.33487
 C196 C 0.86729 0.44188 0.34122
 C197 C 0.87796 0.41971 0.27066
 C198 C 0.84395 0.40056 0.19953
 C199 C 0.79787 0.40240 0.19651
 C200 C 0.78671 0.42548 0.26590
 C201 C 0.81672 0.48003 0.39457
 C202 C 0.77058 0.48144 0.39363
 C203 C 0.73092 0.45254 0.33285
 C204 C 0.73885 0.42495 0.26938
 H205 H 0.84683 0.50327 0.44262
 H206 H 0.76516 0.50427 0.44118
 H207 H 0.69424 0.45211 0.33428
 H208 H 0.70684 0.40237 0.22430
 H209 H 0.91081 0.41382 0.27234
 H210 H 0.85330 0.38348 0.14687
 C211 C 0.51907 0.12203 0.27516
 C212 C 0.55481 0.13901 0.34677
 C213 C 0.60559 0.18659 0.34001
 C214 C 0.62196 0.21593 0.26496
 C215 C 0.58820 0.19947 0.19366
 C216 C 0.53670 0.15185 0.19753
 C217 C 0.46500 0.07829 0.28011
 C218 C 0.43148 0.06137 0.20875
 C219 C 0.45034 0.08817 0.13149
 C220 C 0.50224 0.13322 0.12576
 H221 H 0.44736 0.05730 0.33920
 H222 H 0.39054 0.02734 0.21357
 H223 H 0.42429 0.07454 0.07608
 H224 H 0.51503 0.15308 0.06457
 H225 H 0.63395 0.20069 0.39254
 H226 H 0.66134 0.25250 0.26298
 C227 C 0.55696 0.37558 0.34336
 C228 C 0.57041 0.42822 0.35174
 C229 C 0.59974 0.46474 0.28625
 C230 C 0.61619 0.45017 0.21382
 C231 C 0.60523 0.39905 0.20575
 C232 C 0.57755 0.36198 0.27291
 C233 C 0.52330 0.33596 0.40326
 C234 C 0.51452 0.28576 0.39833
 C235 C 0.53950 0.27427 0.33482
 C236 C 0.57094 0.31198 0.27295
 H237 H 0.50317 0.34321 0.45388
 H238 H 0.48883 0.25585 0.44457
 H239 H 0.53409 0.23583 0.33303
 H240 H 0.59087 0.30193 0.22659
 H241 H 0.61070 0.50521 0.29176
 H242 H 0.63770 0.47908 0.16370
 C243 C 0.19383 0.52136 0.33820
 C244 C 0.15117 0.52927 0.34819
 C245 C 0.14309 0.55667 0.28434
 C246 C 0.17683 0.57715 0.21329
 C247 C 0.22191 0.57356 0.20467
 C248 C 0.23211 0.54732 0.27062
 C249 C 0.19934 0.48818 0.39451
 C250 C 0.24489 0.48592 0.39218
 C251 C 0.28571 0.51663 0.33383
 C252 C 0.27970 0.54708 0.27370
 H253 H 0.16829 0.46361 0.44042
 H254 H 0.24913 0.46127 0.43724
 H255 H 0.32209 0.51656 0.33486
 H256 H 0.31378 0.57148 0.23276
 H257 H 0.11100 0.56352 0.29031
 H258 H 0.16782 0.59695 0.16517
 C259 C 0.37652 0.85253 0.27516
 C260 C 0.41274 0.85400 0.33576
 C261 C 0.43902 0.82815 0.31781
 C262 C 0.42918 0.80001 0.24213
 C263 C 0.39229 0.79637 0.18233
 C264 C 0.36654 0.82384 0.19739
 C265 C 0.34926 0.87814 0.29072
 C266 C 0.31462 0.87726 0.22971
 C267 C 0.30608 0.85060 0.15270
 C268 C 0.33154 0.82398 0.13654
 H269 H 0.35433 0.89895 0.34994
 H270 H 0.29436 0.89746 0.24219
 H271 H 0.27946 0.85040 0.10529
 H272 H 0.32394 0.80417 0.07568
 H273 H 0.46711 0.82935 0.36342
 H274 H 0.44906 0.77918 0.23168
 C275 C 0.50743 0.65585 0.29571
 C276 C 0.47616 0.60371 0.32763
 C277 C 0.43268 0.56461 0.28017
 C278 C 0.41686 0.57710 0.20544
 C279 C 0.44470 0.62916 0.17415
 C280 C 0.49303 0.66851 0.21659
 C281 C 0.55333 0.69539 0.34028
 C282 C 0.58567 0.74610 0.30657
 C283 C 0.57357 0.75796 0.22743
 C284 C 0.52824 0.71965 0.18234
 H285 H 0.56499 0.68719 0.40076
 H286 H 0.62097 0.77601 0.34111
 H287 H 0.59985 0.79696 0.20026
 H288 H 0.52296 0.73041 0.11933
 H289 H 0.40905 0.52431 0.30356
 H290 H 0.38080 0.54581 0.17414
   
