data_POSCAR
  _audit_creation_date              2014-09-24
  _audit_creation_method            'ToBaCCo'
  _symmetry_space_group_name_H-M    'P1'
  _symmetry_Int_Tables_number       1
  _symmetry_cell_setting            triclinic
  loop_
  _symmetry_equiv_pos_as_xyz
 x,y,z
_cell_length_a 34.8891
_cell_length_b 34.8992
_cell_length_c 35.0834
_cell_angle_alpha 97.362300
_cell_angle_beta 81.514900
_cell_angle_gamma 77.280100
loop_
  _atom_site_label
  _atom_site_type_symbol
  _atom_site_fract_x
  _atom_site_fract_y
  _atom_site_fract_z
C1 C 0.50101 0.47913 -0.03635
 C2 C 0.47139 0.51110 -0.03807
 C3 C 0.42909 0.50897 -0.03535
 C4 C 0.47969 0.55038 -0.04200
 C5 C 0.54255 0.48248 -0.03587
 C6 C 0.49356 0.43927 -0.03370
 C7 C 0.40759 0.52268 -0.06363
 C8 C 0.36734 0.52252 -0.06074
 C9 C 0.34741 0.50857 -0.02945
 C10 C 0.36932 0.49493 -0.00089
 C11 C 0.40957 0.49547 -0.00377
 C12 C 0.50364 0.55570 -0.07577
 C13 C 0.51004 0.59333 -0.07956
 C14 C 0.49322 0.62586 -0.04937
 C15 C 0.46915 0.62038 -0.01565
 C16 C 0.46225 0.58299 -0.01216
 C17 C 0.55135 0.50786 -0.00580
 C18 C 0.59092 0.50881 -0.00421
 C19 C 0.62239 0.48434 -0.03283
 C20 C 0.61331 0.45905 -0.06285
 C21 C 0.57379 0.45804 -0.06430
 C22 C 0.50285 0.42093 -0.00184
 C23 C 0.49758 0.38280 0.00064
 C24 C 0.48375 0.36179 -0.02931
 C25 C 0.47365 0.38061 -0.06081
 C26 C 0.47864 0.41900 -0.06309
 H27 H 0.42203 0.53360 -0.08805
 H28 H 0.35178 0.53348 -0.08323
 H29 H 0.35586 0.48482 0.02444
 H30 H 0.42534 0.48594 0.01906
 H31 H 0.51686 0.53087 -0.09928
 H32 H 0.52831 0.59702 -0.10596
 H33 H 0.44335 0.57939 0.01388
 H34 H 0.52763 0.52615 0.01699
 H35 H 0.59654 0.52783 0.02008
 H36 H 0.63693 0.43965 -0.08504
 H37 H 0.56754 0.43797 -0.08749
 H38 H 0.51400 0.43635 0.02131
 H39 H 0.50415 0.37023 0.02622
 H40 H 0.46260 0.36527 -0.08407
 H41 H 0.47151 0.43266 -0.08802
 H42 H 0.45487 0.64514 0.00764
 C43 C -0.02015 0.52827 0.52338
 C44 C -0.02470 0.50148 0.49384
 C45 C -0.02746 0.46100 0.50010
 C46 C -0.02467 0.51011 0.45357
 C47 C -0.01721 0.56911 0.51821
 C48 C -0.02036 0.51846 0.56314
 C49 C 0.00742 0.43039 0.49420
 C50 C 0.00516 0.39172 0.49880
 C51 C -0.03218 0.38310 0.50922
 C52 C -0.06704 0.41391 0.51504
 C53 C -0.06470 0.45270 0.51089
 C54 C 0.00835 0.51987 0.43264
 C55 C 0.00854 0.52663 0.39418
 C56 C -0.02401 0.52325 0.37583
 C57 C -0.05737 0.51422 0.39720
 C58 C -0.05750 0.50742 0.43556
 C59 C -0.04805 0.59518 0.50607
 C60 C -0.04538 0.63396 0.50223
 C61 C -0.01210 0.64753 0.51089
 C62 C 0.01905 0.62106 0.52242
 C63 C 0.01632 0.58237 0.52631
 C64 C -0.05671 0.52530 0.58904
 C65 C -0.05725 0.51667 0.62688
 C66 C -0.02142 0.50179 0.63960
 C67 C 0.01499 0.49424 0.61326
 C68 C 0.01546 0.50238 0.57522
 H69 H 0.03634 0.43644 0.48566
 H70 H 0.03255 0.36851 0.49311
 H71 H -0.09611 0.40794 0.52289
 H72 H -0.09188 0.47614 0.51570
 H73 H 0.03412 0.52178 0.44594
 H74 H 0.03447 0.53384 0.37849
 H75 H -0.08348 0.50042 0.45133
 H76 H -0.07433 0.58561 0.49996
 H77 H -0.06965 0.65361 0.49304
 H78 H 0.04585 0.62977 0.52799
 H79 H 0.04068 0.56263 0.53523
 H80 H -0.08460 0.53738 0.57990
 H81 H -0.08566 0.52234 0.64652
 H82 H 0.04302 0.48164 0.62182
 H83 H 0.04369 0.49623 0.55522
 H84 H -0.08365 0.51279 0.38469
 C85 C 0.53644 -0.01510 0.47558
 C86 C 0.50729 -0.01664 0.50526
 C87 C 0.51629 -0.02099 0.54461
 C88 C 0.46543 -0.01491 0.50008
 C89 C 0.52998 -0.01702 0.43462
 C90 C 0.57714 -0.01334 0.48233
 C91 C 0.53750 -0.05765 0.55158
 C92 C 0.54418 -0.06230 0.58920
 C93 C 0.53082 -0.03007 0.62036
 C94 C 0.50988 0.00691 0.61290
 C95 C 0.50228 0.01113 0.57546
 C96 C 0.44638 -0.04368 0.51279
 C97 C 0.40633 -0.04118 0.51033
 C98 C 0.38420 -0.00938 0.49562
 C99 C 0.40356 0.01889 0.48208
 C100 C 0.44370 0.01634 0.48453
 C101 C 0.53795 0.01264 0.41340
 C102 C 0.53523 0.00951 0.37385
 C103 C 0.52490 -0.02369 0.35470
 C104 C 0.51691 -0.05333 0.37602
 C105 C 0.51918 -0.04993 0.41573
 C106 C 0.58295 0.01834 0.50791
 C107 C 0.62148 0.02057 0.51300
 C108 C 0.65525 -0.00896 0.49233
 C109 C 0.64898 -0.04053 0.46662
 C110 C 0.61047 -0.04260 0.46159
 H111 H 0.54816 -0.08281 0.52800
 H112 H 0.56011 -0.09120 0.59386
 H113 H 0.49776 0.03233 0.63590
 H114 H 0.48544 0.03948 0.57047
 H115 H 0.46261 -0.06824 0.52460
 H116 H 0.39305 -0.06440 0.51974
 H117 H 0.45757 0.03921 0.47503
 H118 H 0.54689 0.03795 0.42739
 H119 H 0.54271 0.03233 0.35807
 H120 H 0.50938 -0.07939 0.36179
 H121 H 0.51371 -0.07352 0.43145
 H122 H 0.55762 0.04178 0.52346
 H123 H 0.62409 0.04591 0.53267
 H124 H 0.67402 -0.06373 0.45006
 H125 H 0.60664 -0.06715 0.44147
 H126 H 0.38732 0.04353 0.47037
 O127 O 0.51294 -0.01286 -0.06689
 O128 O 0.49272 -0.00122 0.04040
 O129 O 0.50209 0.04621 -0.00996
 O130 O 0.50499 -0.06071 -0.01699
 O131 O 0.56995 -0.07405 -0.01731
 O132 O 0.56675 0.03272 -0.00865
 O133 O 0.55759 -0.01587 0.04056
 O134 O 0.57779 -0.02474 -0.06678
 Cu135 Cu 0.49665 -0.00585 -0.01334
 Cu136 Cu 0.57455 -0.02192 -0.01305
 C137 C 0.54871 -0.02023 -0.08505
 C138 C 0.52168 -0.00680 0.05874
 C139 C 0.53406 0.05760 -0.00816
 C140 C 0.53803 -0.08555 -0.01838
 O141 O -0.07769 0.54773 1.01503
 O142 O 0.03083 0.52922 1.01127
 O143 O -0.01606 0.54231 0.96085
 O144 O -0.03027 0.53424 1.06544
 O145 O -0.02431 0.46955 1.05013
 O146 O -0.01045 0.47766 0.94568
 O147 O 0.03692 0.46449 0.99607
 O148 O -0.07162 0.48301 0.99995
 Cu149 Cu -0.02395 0.54491 1.01470
 Cu150 Cu -0.01680 0.46717 0.99642
 C151 C -0.09312 0.51848 1.00801
 C152 C 0.05233 0.49376 1.00310
 C153 C -0.01092 0.51137 0.93548
 C154 C -0.02942 0.50043 1.07554
 O155 O 0.01312 -0.04255 0.52436
 O156 O 0.00257 0.06517 0.52506
 O157 O 0.06223 0.00444 0.52344
 O158 O -0.04591 0.01778 0.52500
 O159 O -0.05699 0.02870 0.58953
 O160 O 0.05114 0.01448 0.58797
 O161 O -0.00770 0.07535 0.58959
 O162 O 0.00194 -0.03181 0.58891
 Cu163 Cu 0.00916 0.01021 0.51797
 Cu164 Cu -0.00403 0.02278 0.59544
 C165 C 0.00895 -0.05540 0.55665
 C166 C -0.00411 0.08852 0.55753
 C167 C 0.07508 0.00721 0.55550
 C168 C -0.06982 0.02519 0.55754
 C169 C -0.33504 0.48247 0.96861
 C170 C -0.32175 0.51063 0.99185
 C171 C -0.27908 0.50643 0.99431
 C172 C -0.26580 0.54056 1.00557
 C173 C -0.22567 0.53764 1.00816
 C174 C -0.19798 0.50025 0.99972
 C175 C -0.21159 0.46609 0.98932
 C176 C -0.25164 0.46902 0.98677
 C177 C -0.15491 0.49506 1.00123
 C178 C -0.13643 0.52614 1.00896
 H179 H -0.34276 0.53764 1.00737
 H180 H -0.28649 0.56966 1.01207
 H181 H -0.21693 0.56481 1.01678
 H182 H -0.19113 0.43686 0.98313
 H183 H -0.26095 0.44183 0.97949
 H184 H -0.13644 0.46485 0.99506
 H185 H -0.31314 0.45812 0.94955
 H186 H -0.15330 0.55682 1.01516
 C187 C 0.30816 0.50989 0.97223
 C188 C 0.28449 0.49529 0.99996
 C189 C 0.24105 0.50097 1.00131
 C190 C 0.22219 0.47203 1.01380
 C191 C 0.18114 0.47673 1.01525
 C192 C 0.15818 0.51083 1.00460
 C193 C 0.17687 0.54032 0.99332
 C194 C 0.21792 0.53544 0.99153
 C195 C 0.11467 0.51723 1.00608
 C196 C 0.09564 0.48615 1.00186
 H197 H 0.29761 0.47719 1.01970
 H198 H 0.23933 0.44558 1.02217
 H199 H 0.16746 0.45403 1.02536
 H200 H 0.15967 0.56715 0.98565
 H201 H 0.23132 0.55899 0.98314
 H202 H 0.09728 0.54756 1.00855
 H203 H 0.29361 0.52281 0.94998
 H204 H 0.11279 0.45550 0.99645
 C205 C -0.01069 -0.31090 0.50725
 C206 C 0.01249 -0.29033 0.52727
 C207 C 0.01310 -0.24827 0.52536
 C208 C 0.02681 -0.22706 0.55509
 C209 C 0.02767 -0.18727 0.55482
 C210 C 0.01480 -0.16772 0.52464
 C211 C 0.00234 -0.18926 0.49420
 C212 C 0.00140 -0.22911 0.49451
 C213 C 0.01448 -0.12529 0.52380
 C214 C 0.01176 -0.09795 0.55742
 H215 H 0.02899 -0.30462 0.54752
 H216 H 0.03672 -0.24129 0.57882
 H217 H 0.03892 -0.17223 0.57805
 H218 H -0.00707 -0.17510 0.47027
 H219 H -0.00803 -0.24475 0.47032
 H220 H 0.01378 -0.11467 0.49614
 H221 H -0.03079 -0.29530 0.49048
 H222 H 0.00937 -0.10727 0.58573
 C223 C -0.03564 0.34208 0.51232
 C224 C -0.00587 0.31390 0.52306
 C225 C -0.00822 0.27227 0.52429
 C226 C 0.01170 0.25119 0.54999
 C227 C 0.01111 0.21143 0.55106
 C228 C -0.00903 0.19179 0.52597
 C229 C -0.02826 0.21261 0.49969
 C230 C -0.02816 0.25259 0.49901
 C231 C -0.00880 0.14928 0.52541
 C232 C -0.00696 0.13132 0.55860
 H233 H 0.01925 0.32310 0.53282
 H234 H 0.02780 0.26554 0.56928
 H235 H 0.02730 0.19589 0.57083
 H236 H -0.04342 0.19791 0.47967
 H237 H -0.04279 0.26764 0.47802
 H238 H -0.01153 0.13200 0.49844
 H239 H -0.06326 0.33446 0.50772
 H240 H -0.00803 0.14918 0.58653
 C241 C 0.53723 -0.03640 -0.34205
 C242 C 0.53233 -0.00596 -0.31037
 C243 C 0.53424 -0.01419 -0.27038
 C244 C 0.55050 0.00977 -0.24524
 C245 C 0.55016 0.00418 -0.20645
 C246 C 0.53260 -0.02487 -0.19196
 C247 C 0.51614 -0.04868 -0.21705
 C248 C 0.51738 -0.04375 -0.25609
 C249 C 0.52811 -0.02846 -0.15019
 C250 C 0.55661 -0.02237 -0.12766
 H251 H 0.52906 0.02461 -0.31482
 H252 H 0.56315 0.03306 -0.25558
 H253 H 0.56218 0.02362 -0.18746
 H254 H 0.50198 -0.07084 -0.20629
 H255 H 0.50378 -0.06201 -0.27465
 H256 H 0.50160 -0.03653 -0.13683
 H257 H 0.54762 -0.06681 -0.33741
 H258 H 0.58518 -0.01875 -0.14149
 C259 C 0.52525 -0.02955 0.31214
 C260 C 0.51819 0.00201 0.29130
 C261 C 0.52325 -0.00400 0.24819
 C262 C 0.50083 0.02459 0.23023
 C263 C 0.50624 0.02053 0.18948
 C264 C 0.53473 -0.01199 0.16597
 C265 C 0.55762 -0.04021 0.18395
 C266 C 0.55178 -0.03647 0.22466
 C267 C 0.54251 -0.01627 0.12287
 C268 C 0.51310 -0.00241 0.10159
 H269 H 0.50746 0.03220 0.30710
 H270 H 0.47916 0.05019 0.24779
 H271 H 0.48892 0.04342 0.17654
 H272 H 0.58013 -0.06520 0.16642
 H273 H 0.57043 -0.05839 0.23760
 H274 H 0.57190 -0.03268 0.10725
 H275 H 0.53052 -0.05976 0.29687
 H276 H 0.48262 0.01059 0.11646
 C277 C 0.49960 -0.33447 -0.05420
 C278 C 0.50159 -0.30681 -0.02257
 C279 C 0.50495 -0.26597 -0.02624
 C280 C 0.52411 -0.24648 -0.00019
 C281 C 0.52617 -0.20717 -0.00171
 C282 C 0.50843 -0.18641 -0.02896
 C283 C 0.48872 -0.20568 -0.05461
 C284 C 0.48728 -0.24526 -0.05356
 C285 C 0.50829 -0.14417 -0.02969
 C286 C 0.53964 -0.12817 -0.02042
 H287 H 0.50228 -0.31589 0.00576
 H288 H 0.53738 -0.26168 0.02149
 H289 H 0.54060 -0.19273 0.01921
 H290 H 0.47436 -0.19004 -0.07546
 H291 H 0.47132 -0.25916 -0.07330
 H292 H 0.48343 -0.12549 -0.03903
 H293 H 0.50455 -0.32757 -0.08349
 H294 H 0.56646 -0.14747 -0.01502
 C295 C 0.47965 0.32046 -0.02862
 C296 C 0.50100 0.29487 -0.00726
 C297 C 0.49939 0.25279 -0.00714
 C298 C 0.52849 0.22834 0.00862
 C299 C 0.52881 0.18836 0.00916
 C300 C 0.50001 0.17175 -0.00632
 C301 C 0.47013 0.19643 -0.02099
 C302 C 0.46974 0.23655 -0.02146
 C303 C 0.49998 0.12919 -0.00714
 C304 C 0.53400 0.09994 -0.00576
 H305 H 0.52215 0.30522 0.00854
 H306 H 0.55125 0.24019 0.02051
 H307 H 0.55141 0.17092 0.02220
 H308 H 0.44719 0.18453 -0.03247
 H309 H 0.44600 0.25451 -0.03273
 H310 H 0.47278 0.12026 -0.01104
 H311 H 0.46152 0.30932 -0.04774
 H312 H 0.56218 0.10768 -0.00447
 C313 C -0.30509 -0.00809 0.49545
 C314 C -0.29372 0.02044 0.52040
 C315 C -0.25134 0.02071 0.52111
 C316 C -0.24148 0.03937 0.55492
 C317 C -0.20187 0.04033 0.55665
 C318 C -0.17118 0.02268 0.52436
 C319 C -0.18125 0.00504 0.49019
 C320 C -0.22081 0.00405 0.48848
 C321 C -0.12861 0.02241 0.52471
 C322 C -0.11291 0.02917 0.55867
 H323 H -0.31594 0.04243 0.54161
 H324 H -0.26451 0.05310 0.58021
 H325 H -0.19577 0.05538 0.58314
 H326 H -0.15836 -0.00819 0.46466
 H327 H -0.22728 -0.00917 0.46131
 H328 H -0.10821 0.01430 0.49689
 H329 H -0.28153 -0.03181 0.47747
 H330 H -0.13196 0.03543 0.58709
 C331 C 0.34121 -0.00495 0.49387
 C332 C 0.31607 -0.02127 0.51844
 C333 C 0.27269 -0.01623 0.51846
 C334 C 0.24883 -0.02434 0.55084
 C335 C 0.20787 -0.02033 0.55227
 C336 C 0.18970 -0.00801 0.52119
 C337 C 0.21369 -0.00080 0.48838
 C338 C 0.25473 -0.00479 0.48695
 C339 C 0.14630 -0.00343 0.52154
 C340 C 0.11807 0.00216 0.55572
 H341 H 0.32806 -0.03660 0.54062
 H342 H 0.26194 -0.03386 0.57524
 H343 H 0.19089 -0.02762 0.57750
 H344 H 0.20060 0.00809 0.46376
 H345 H 0.27215 0.00053 0.46090
 H346 H 0.13598 -0.00279 0.49391
 H347 H 0.32863 0.01419 0.47461
 H348 H 0.12720 0.00430 0.58390
 C349 C -0.02235 0.52958 1.33471
 C350 C -0.04467 0.51336 1.30984
 C351 C -0.04242 0.51796 1.26824
 C352 C -0.05561 0.49098 1.24319
 C353 C -0.05394 0.49397 1.20369
 C354 C -0.03900 0.52418 1.18834
 C355 C -0.02693 0.55192 1.21362
 C356 C -0.02854 0.54889 1.25316
 C357 C -0.03624 0.52808 1.14653
 C358 C -0.03406 0.49634 1.11704
 H359 H -0.06271 0.49404 1.32040
 H360 H -0.06713 0.46733 1.25420
 H361 H -0.06495 0.47289 1.18558
 H362 H -0.01595 0.57588 1.20266
 H363 H -0.01942 0.57113 1.27174
 H364 H -0.03357 0.55645 1.13843
 H365 H -0.00069 0.54498 1.32309
 H366 H -0.03388 0.46701 1.12404
 C367 C -0.02306 0.49413 0.68021
 C368 C 0.00718 0.49805 0.70134
 C369 C 0.00402 0.49366 0.74297
 C370 C 0.02338 0.51529 0.76704
 C371 C 0.02024 0.51252 0.80673
 C372 C -0.00199 0.48759 0.82297
 C373 C -0.02012 0.46485 0.79859
 C374 C -0.01739 0.46799 0.75901
 C375 C -0.00607 0.48401 0.86485
 C376 C -0.00546 0.51508 0.89387
 H377 H 0.03232 0.50828 0.68808
 H378 H 0.04056 0.53479 0.75519
 H379 H 0.03568 0.52948 0.82442
 H380 H -0.03685 0.44494 0.81033
 H381 H -0.03161 0.44995 0.74098
 H382 H -0.01235 0.45692 0.87335
 H383 H -0.05054 0.48904 0.69502
 H384 H -0.00270 0.54356 0.88625
   
