data_POSCAR
  _audit_creation_date              2014-09-24
  _audit_creation_method            'ToBaCCo'
  _symmetry_space_group_name_H-M    'P1'
  _symmetry_Int_Tables_number       1
  _symmetry_cell_setting            triclinic
  loop_
  _symmetry_equiv_pos_as_xyz
 x,y,z
_cell_length_a 20.2531
_cell_length_b 20.2899
_cell_length_c 34.2516
_cell_angle_alpha 88.168700
_cell_angle_beta 91.444600
_cell_angle_gamma 95.353900
loop_
  _atom_site_label
  _atom_site_type_symbol
  _atom_site_fract_x
  _atom_site_fract_y
  _atom_site_fract_z
C1 C 0.01858 0.36886 0.96390
 C2 C 0.02536 0.33339 0.99905
 C3 C 0.01748 0.36163 1.03544
 C4 C 0.00638 0.43009 1.03612
 C5 C 0.00128 0.46723 1.00036
 C6 C 0.00629 0.43602 0.96420
 C7 C -0.00054 0.47276 0.92915
 C8 C -0.01133 0.53929 0.92943
 C9 C -0.01428 0.57213 0.96474
 C10 C -0.00842 0.53591 1.00065
 C11 C 0.00353 0.46351 1.07131
 C12 C -0.00873 0.52978 1.07159
 C13 C -0.01264 0.56800 1.03673
 C14 C -0.02397 0.63639 1.03664
 C15 C -0.03093 0.67025 1.00054
 C16 C -0.02427 0.64006 0.96499
 H17 H 0.00246 0.45036 0.90107
 H18 H -0.01776 0.56460 0.90151
 H19 H 0.01135 0.43928 1.09934
 H20 H -0.01553 0.55014 1.09978
 H21 H 0.03221 0.28112 0.99759
 H22 H -0.03669 0.72292 0.99993
 C23 C 0.36406 0.01508 0.53595
 C24 C 0.32857 0.01465 0.50040
 C25 C 0.35914 0.00561 0.46510
 C26 C 0.42784 -0.00215 0.46493
 C27 C 0.46529 0.00107 0.50049
 C28 C 0.43319 0.00929 0.53618
 C29 C 0.47106 0.01193 0.57109
 C30 C 0.53864 0.00494 0.57122
 C31 C 0.57167 -0.00264 0.53628
 C32 C 0.53484 -0.00455 0.50043
 C33 C 0.45989 -0.01350 0.43027
 C34 C 0.52749 -0.02094 0.43035
 C35 C 0.56694 -0.01361 0.46469
 C36 C 0.63659 -0.01967 0.46500
 C37 C 0.67110 -0.01883 0.50114
 C38 C 0.64029 -0.01004 0.53635
 H39 H 0.44888 0.01940 0.59881
 H40 H 0.56453 0.00518 0.59921
 H41 H 0.43282 -0.01770 0.40269
 H42 H 0.54786 -0.03390 0.40310
 H43 H 0.27558 0.01908 0.50032
 H44 H 0.72440 -0.02129 0.50197
 C45 C 0.11267 0.03993 0.28057
 H46 H 0.10989 0.07880 0.25850
 C47 C 0.16625 0.04278 0.30719
 H48 H 0.20409 0.08407 0.30536
 C49 C 0.06778 -0.06143 0.30955
 H50 H 0.02923 -0.10193 0.31039
 C51 C 0.12054 -0.06073 0.33659
 H52 H 0.12131 -0.10033 0.35850
 N53 N 0.06399 -0.01095 0.28274
 C54 C -0.07614 -0.12009 0.20786
 H55 H -0.12128 -0.10219 0.21779
 C56 C -0.07973 -0.17164 0.18168
 H57 H -0.12798 -0.19419 0.17258
 C58 C 0.04131 -0.11062 0.20667
 H59 H 0.08822 -0.08518 0.21576
 C60 C 0.03999 -0.16150 0.18005
 H61 H 0.08632 -0.17452 0.16874
 Zn62 Zn -0.01243 -0.01317 0.24935
 N63 N -0.01626 -0.09046 0.21957
 C64 C -0.00822 0.04950 0.17511
 N65 N -0.00746 0.06173 0.21397
 C66 C -0.00172 0.12502 0.22673
 C67 C 0.00286 0.17876 0.19994
 C68 C -0.00239 0.10151 0.14752
 C69 C -0.10882 -0.07537 0.29898
 C70 C -0.16026 -0.08012 0.32553
 C71 C -0.17065 0.03655 0.31467
 C72 C -0.11990 0.03872 0.28760
 N73 N -0.08882 -0.01639 0.28102
 H74 H -0.01278 -0.00072 0.16522
 H75 H 0.00040 0.13390 0.25772
 H76 H 0.00772 0.22885 0.21035
 H77 H -0.00263 0.09078 0.11673
 H78 H -0.08433 -0.11893 0.29298
 H79 H -0.17514 -0.12785 0.33918
 H80 H -0.19188 0.08197 0.32087
 H81 H -0.10425 0.08511 0.27296
 C82 C -0.02121 -0.19195 0.16659
 C83 C 0.17015 -0.00757 0.33604
 C84 C -0.19071 -0.02325 0.33472
 C85 C 0.00326 0.16695 0.15985
 C86 C -0.02110 0.14134 0.77643
 H87 H -0.05625 0.13934 0.75218
 C88 C -0.01923 0.19376 0.80211
 H89 H -0.05325 0.23147 0.79729
 C90 C 0.06686 0.09599 0.81163
 H91 H 0.10051 0.05803 0.81530
 C92 C 0.07024 0.14715 0.83803
 H93 H 0.10561 0.14658 0.86223
 N94 N 0.02048 0.09277 0.78219
 C95 C 0.10593 -0.04137 0.70591
 H96 H 0.07490 -0.08651 0.71245
 C97 C 0.15692 -0.04172 0.67929
 H98 H 0.16452 -0.08755 0.66546
 C99 C 0.12946 0.07417 0.71369
 H100 H 0.11725 0.11944 0.72645
 C101 C 0.18120 0.07602 0.68736
 H102 H 0.20945 0.12281 0.68070
 Zn103 Zn 0.01415 0.01676 0.75068
 N104 N 0.09226 0.01629 0.72174
 C105 C -0.04853 0.00796 0.67657
 N106 N -0.05958 0.01705 0.71497
 C107 C -0.12179 0.02400 0.72759
 C108 C -0.17584 0.02085 0.70120
 C109 C -0.10109 0.00311 0.64952
 C110 C 0.05969 -0.07756 0.80427
 C111 C 0.05490 -0.13105 0.83100
 C112 C -0.06102 -0.15188 0.81307
 C113 C -0.05407 -0.09767 0.78682
 N114 N 0.00526 -0.06071 0.78358
 H115 H 0.00092 0.00330 0.66674
 H116 H -0.12953 0.03122 0.75824
 H117 H -0.22521 0.02571 0.71152
 H118 H -0.09155 -0.00527 0.61918
 H119 H 0.10698 -0.04917 0.80025
 H120 H 0.09840 -0.14164 0.84822
 H121 H -0.10882 -0.18024 0.81540
 H122 H -0.09651 -0.08485 0.76955
 C123 C 0.19439 0.01783 0.66897
 C124 C 0.02606 0.19641 0.83393
 C125 C -0.00635 -0.16848 0.83617
 C126 C -0.16555 0.00909 0.66183
 C127 C -0.07455 -0.28135 0.07392
 C128 C -0.02604 -0.32628 0.07082
 C129 C 0.02364 -0.32739 0.10035
 C130 C 0.02417 -0.28549 0.13207
 C131 C -0.02420 -0.24051 0.13478
 C132 C -0.07373 -0.23935 0.10538
 H133 H -0.11352 -0.27864 0.05182
 H134 H 0.06399 -0.35844 0.09809
 H135 H 0.06316 -0.28762 0.15416
 H136 H -0.11091 -0.20439 0.10590
 C137 C 0.06427 0.27108 0.07264
 C138 C 0.01800 0.31893 0.06910
 C139 C -0.03159 0.31767 0.09744
 C140 C -0.03457 0.27027 0.12814
 C141 C 0.01066 0.22195 0.13054
 C142 C 0.06048 0.22324 0.10283
 H143 H 0.10362 0.27045 0.05184
 H144 H -0.07050 0.35081 0.09473
 H145 H -0.07420 0.26921 0.14887
 H146 H 0.09604 0.18648 0.10429
 C147 C 0.32247 -0.03394 0.59977
 C148 C 0.32607 0.01879 0.57214
 C149 C 0.28870 0.07247 0.57742
 C150 C 0.24765 0.07311 0.60954
 C151 C 0.24301 0.01990 0.63703
 C152 C 0.28171 -0.03319 0.63206
 H153 H 0.35021 -0.07629 0.59586
 H154 H 0.29020 0.11319 0.55612
 H155 H 0.21760 0.11413 0.61198
 H156 H 0.27976 -0.07464 0.65283
 C157 C -0.27882 -0.06088 0.58142
 C158 C -0.31695 -0.00795 0.57223
 C159 C -0.30804 0.04929 0.59454
 C160 C -0.26106 0.05368 0.62527
 C161 C -0.22127 0.00165 0.63329
 C162 C -0.23114 -0.05597 0.61153
 H163 H -0.28449 -0.10516 0.56434
 H164 H -0.33588 0.09125 0.58734
 H165 H -0.25352 0.09880 0.64152
 H166 H -0.20079 -0.09657 0.61731
 C167 C 0.03391 -0.30870 0.90627
 C168 C -0.02300 -0.31681 0.92912
 C169 C -0.07567 -0.27830 0.92010
 C170 C -0.07108 -0.23159 0.88919
 C171 C -0.01359 -0.22236 0.86667
 C172 C 0.03835 -0.26240 0.87515
 H173 H 0.07560 -0.33712 0.91318
 H174 H -0.11962 -0.28318 0.93773
 H175 H -0.11154 -0.20090 0.88395
 H176 H 0.08294 -0.25726 0.85812
 C177 C 0.08216 0.31457 0.91454
 C178 C 0.02136 0.33221 0.92746
 C179 C -0.03747 0.30936 0.90784
 C180 C -0.03576 0.26733 0.87641
 C181 C 0.02495 0.24750 0.86406
 C182 C 0.08404 0.27299 0.88291
 H183 H 0.12796 0.33176 0.92955
 H184 H -0.08485 0.32206 0.91786
 H185 H -0.08223 0.24796 0.86302
 H186 H 0.13169 0.25970 0.87375
 C187 C -0.27493 -0.06741 0.43100
 C188 C -0.32578 -0.02444 0.43092
 C189 C -0.33294 0.01778 0.39788
 C190 C -0.29094 0.01665 0.36608
 C191 C -0.23949 -0.02551 0.36677
 C192 C -0.23249 -0.06774 0.39963
 H193 H -0.26770 -0.10112 0.45558
 H194 H -0.36896 0.05405 0.39724
 H195 H -0.29821 0.04972 0.34125
 H196 H -0.19276 -0.09989 0.40190
 C197 C 0.29931 -0.05682 0.41100
 C198 C 0.31662 0.00338 0.42931
 C199 C 0.28825 0.06045 0.41570
 C200 C 0.24239 0.05730 0.38450
 C201 C 0.22354 -0.00324 0.36663
 C202 C 0.25322 -0.06011 0.37987
 H203 H 0.32027 -0.10147 0.42149
 H204 H 0.30049 0.10711 0.42990
 H205 H 0.21971 0.10171 0.37539
 H206 H 0.24009 -0.10730 0.36647
   
