data_POSCAR
  _audit_creation_date              2014-09-24
  _audit_creation_method            'ToBaCCo'
  _symmetry_space_group_name_H-M    'P1'
  _symmetry_Int_Tables_number       1
  _symmetry_cell_setting            triclinic
  loop_
  _symmetry_equiv_pos_as_xyz
 x,y,z
_cell_length_a 57.4703
_cell_length_b 57.6215
_cell_length_c 21.4064
_cell_angle_alpha 89.865800
_cell_angle_beta 90.038800
_cell_angle_gamma 120.027700
loop_
  _atom_site_label
  _atom_site_type_symbol
  _atom_site_fract_x
  _atom_site_fract_y
  _atom_site_fract_z
C1 C 0.30274 0.50743 0.55719
 C2 C 0.31459 0.50739 0.50023
 C3 C 0.30270 0.50755 0.44348
 C4 C 0.27830 0.50790 0.44294
 C5 C 0.26603 0.50798 0.50041
 C6 C 0.27828 0.50775 0.55788
 C7 C 0.26568 0.50770 0.61424
 C8 C 0.24147 0.50774 0.61422
 C9 C 0.22891 0.50784 0.55785
 C10 C 0.24133 0.50802 0.50037
 C11 C 0.26580 0.50800 0.38656
 C12 C 0.24159 0.50802 0.38650
 C13 C 0.22896 0.50798 0.44284
 C14 C 0.20422 0.50774 0.44342
 C15 C 0.19225 0.50762 0.50030
 C16 C 0.20417 0.50760 0.55720
 H17 H 0.27444 0.50756 0.65895
 H18 H 0.23262 0.50763 0.65893
 H19 H 0.27463 0.50800 0.34190
 H20 H 0.23279 0.50803 0.34176
 H21 H 0.33326 0.50693 0.49994
 H22 H 0.17315 0.50725 0.50029
 C23 C 0.49239 -0.30316 0.44306
 C24 C 0.49249 -0.31510 0.49981
 C25 C 0.49253 -0.30330 0.55680
 C26 C 0.49233 -0.27884 0.55758
 C27 C 0.49214 -0.26656 0.50013
 C28 C 0.49217 -0.27876 0.44260
 C29 C 0.49214 -0.26618 0.38628
 C30 C 0.49221 -0.24197 0.38635
 C31 C 0.49230 -0.22948 0.44276
 C32 C 0.49221 -0.24189 0.50020
 C33 C 0.49248 -0.26626 0.61399
 C34 C 0.49254 -0.24206 0.61402
 C35 C 0.49245 -0.22953 0.55768
 C36 C 0.49275 -0.20486 0.55710
 C37 C 0.49278 -0.19290 0.50027
 C38 C 0.49264 -0.20480 0.44343
 H39 H 0.49213 -0.27494 0.34158
 H40 H 0.49223 -0.23309 0.34171
 H41 H 0.49261 -0.27504 0.65868
 H42 H 0.49272 -0.23320 0.65869
 H43 H 0.49284 -0.33378 0.49948
 H44 H 0.49321 -0.17385 0.50029
 C45 C 1.20534 0.69733 0.44365
 C46 C 1.19335 0.68535 0.50040
 C47 C 1.20517 0.69719 0.55737
 C48 C 1.22984 0.72173 0.55806
 C49 C 1.24228 0.73406 0.50059
 C50 C 1.22998 0.72179 0.44312
 C51 C 1.24254 0.73435 0.38675
 C52 C 1.26667 0.75862 0.38668
 C53 C 1.27917 0.77127 0.44302
 C54 C 1.26690 0.75883 0.50055
 C55 C 1.24231 0.73436 0.61442
 C56 C 1.26645 0.75863 0.61440
 C57 C 1.27906 0.77126 0.55802
 C58 C 1.30342 0.79609 0.55736
 C59 C 1.31530 0.80808 0.50045
 C60 C 1.30353 0.79610 0.44357
 H61 H 1.23377 0.72551 0.34209
 H62 H 1.27544 0.76747 0.34194
 H63 H 1.23344 0.72556 0.65913
 H64 H 1.27514 0.76748 0.65910
 H65 H 1.17431 0.66661 0.50009
 H66 H 1.33393 0.82725 0.50042
 C67 C 0.69517 0.48859 0.55861
 C68 C 0.68325 0.48854 0.50169
 C69 C 0.69508 0.48837 0.44493
 C70 C 0.71950 0.48810 0.44431
 C71 C 0.73184 0.48806 0.50179
 C72 C 0.71965 0.48831 0.55931
 C73 C 0.73233 0.48843 0.61564
 C74 C 0.75658 0.48845 0.61557
 C75 C 0.76908 0.48835 0.55915
 C76 C 0.75655 0.48809 0.50171
 C77 C 0.73199 0.48805 0.38790
 C78 C 0.75623 0.48808 0.38783
 C79 C 0.76887 0.48817 0.44415
 C80 C 0.79361 0.48852 0.44461
 C81 C 0.80568 0.48868 0.50131
 C82 C 0.79385 0.48866 0.55831
 H83 H 0.72360 0.48858 0.66035
 H84 H 0.76552 0.48860 0.66022
 H85 H 0.72310 0.48804 0.34328
 H86 H 0.76505 0.48808 0.34314
 H87 H 0.66456 0.48898 0.50142
 H88 H 0.82482 0.48915 0.50093
 C89 C 0.51121 0.20620 0.44334
 C90 C 0.51108 0.19421 0.50014
 C91 C 0.51108 0.20602 0.55704
 C92 C 0.51138 0.23073 0.55767
 C93 C 0.51160 0.24316 0.50010
 C94 C 0.51150 0.23084 0.44264
 C95 C 0.51152 0.24338 0.38621
 C96 C 0.51151 0.26755 0.38609
 C97 C 0.51150 0.28004 0.44240
 C98 C 0.51161 0.26779 0.49996
 C99 C 0.51130 0.24325 0.61398
 C100 C 0.51133 0.26744 0.61380
 C101 C 0.51143 0.28000 0.55736
 C102 C 0.51117 0.30438 0.55655
 C103 C 0.51112 0.31623 0.49966
 C104 C 0.51120 0.30440 0.44291
 H105 H 0.51148 0.23455 0.34160
 H106 H 0.51147 0.27637 0.34140
 H107 H 0.51117 0.23437 0.65871
 H108 H 0.51122 0.27622 0.65839
 H109 H 0.51064 0.17513 0.49992
 H110 H 0.51069 0.33486 0.49955
 C111 C 0.69484 0.20610 0.44337
 C112 C 0.68289 0.19403 0.50007
 C113 C 0.69467 0.20582 0.55707
 C114 C 0.71911 0.23056 0.55794
 C115 C 0.73141 0.24307 0.50050
 C116 C 0.71923 0.23079 0.44292
 C117 C 0.73183 0.24343 0.38662
 C118 C 0.75604 0.26765 0.38674
 C119 C 0.76851 0.28009 0.44318
 C120 C 0.75608 0.26775 0.50061
 C121 C 0.73167 0.24304 0.61438
 C122 C 0.75588 0.26727 0.61446
 C123 C 0.76843 0.27991 0.55814
 C124 C 0.79312 0.30432 0.55757
 C125 C 0.80510 0.31626 0.50080
 C126 C 0.79321 0.30450 0.44394
 H127 H 0.72306 0.23463 0.34192
 H128 H 0.76496 0.27654 0.34214
 H129 H 0.72285 0.23411 0.65904
 H130 H 0.76474 0.27601 0.65913
 H131 H 0.66423 0.17492 0.49968
 H132 H 0.82420 0.33492 0.50087
 O133 O 0.96381 0.44218 0.11541
 O134 O 0.93398 0.44789 0.05544
 C135 C 0.93956 0.43612 0.09992
 O136 O 1.03883 0.56155 0.10863
 O137 O 1.06857 0.55442 0.05217
 C138 C 1.06306 0.56746 0.09338
 O139 O 0.96376 0.52192 0.11471
 O140 O 0.93396 0.48643 0.05501
 C141 C 0.93952 0.50377 0.09927
 O142 O 1.03886 0.47734 0.10879
 O143 O 1.06860 0.51439 0.05264
 C144 C 1.06309 0.49575 0.09383
 Zr145 Zr 1.00128 0.47139 0.07803
 O146 O 1.00389 0.47080 0.17658
 O147 O 0.99997 0.43420 0.07021
 Zr148 Zr 1.00123 0.53012 0.07759
 O149 O 1.00418 0.53298 0.17613
 O150 O 0.99814 0.56522 0.07338
 O151 O 0.97739 0.48884 0.09039
 O152 O 1.02447 0.51234 0.08955
 O153 O 1.03881 0.47707 -0.10868
 O154 O 1.06856 0.51426 -0.05330
 C155 C 1.06305 0.49553 -0.09396
 O156 O 0.96371 0.52182 -0.11621
 O157 O 0.93393 0.48636 -0.05601
 C158 C 0.93948 0.50368 -0.10052
 O159 O 1.03882 0.56151 -0.11035
 O160 O 1.06858 0.55438 -0.05375
 C161 C 1.06306 0.56741 -0.09517
 O162 O 0.96371 0.44174 -0.11477
 O163 O 0.93394 0.44776 -0.05553
 C164 C 0.93947 0.43580 -0.09946
 Zr165 Zr 1.00121 0.47131 -0.07858
 O166 O 1.00416 0.47222 -0.17725
 O167 O 0.99860 0.43334 -0.07615
 Zr168 Zr 1.00120 0.53001 -0.07923
 O169 O 1.00413 0.53240 -0.17784
 O170 O 0.99811 0.56511 -0.07660
 Zr171 Zr 0.96089 0.48056 -0.00038
 Zr172 Zr 1.04140 0.52081 -0.00055
 O173 O 1.02448 0.51226 -0.09064
 O174 O 0.97729 0.48870 -0.09130
 O175 O 1.02546 0.47898 -0.00022
 O176 O 0.97756 0.52245 -0.00079
 O177 O 0.97754 0.45531 -0.00008
 O178 O 1.02541 0.54672 -0.00090
 H179 H 1.03631 0.51822 0.12676
 H180 H 0.96521 0.52977 -0.00088
 H181 H 1.03639 0.51815 -0.12774
 H182 H 0.96524 0.43564 0.00015
 H183 H 1.01466 0.57944 0.05325
 H184 H 1.01419 0.57913 -0.05478
 H185 H 0.99070 0.51468 -0.19445
 H186 H 0.98966 0.47495 -0.19401
 H187 H 1.01262 0.43471 -0.04705
 H188 H 0.99992 0.42809 0.11353
 H189 H 0.99161 0.47660 0.19354
 H190 H 0.99094 0.51526 0.19329
 O191 O 0.55771 0.52113 0.11526
 O192 O 0.55246 0.48608 0.05465
 C193 C 0.56397 0.50318 0.09955
 O194 O 0.43862 0.47705 0.10809
 O195 O 0.44587 0.51395 0.05159
 C196 C 0.43276 0.49537 0.09288
 O197 O 0.47812 0.44154 0.11373
 O198 O 0.51387 0.44752 0.05427
 C199 C 0.49638 0.43560 0.09842
 O200 O 0.52287 0.56106 0.10801
 O201 O 0.48591 0.55386 0.05156
 C202 C 0.50449 0.56690 0.09288
 Zr203 Zr 0.52912 0.52985 0.07635
 O204 O 0.53224 0.53419 0.17453
 O205 O 0.56624 0.56571 0.06511
 Zr206 Zr 0.47016 0.47100 0.07709
 O207 O 0.46800 0.47150 0.17578
 O208 O 0.43488 0.43285 0.07435
 O209 O 0.51153 0.48857 0.08942
 O210 O 0.48802 0.51199 0.08850
 O211 O 0.52311 0.56135 -0.11072
 O212 O 0.48587 0.55384 -0.05504
 C213 C 0.50461 0.56705 -0.09597
 O214 O 0.47832 0.44177 -0.11649
 O215 O 0.51392 0.44758 -0.05661
 C216 C 0.49651 0.43575 -0.10089
 O217 O 0.43858 0.47703 -0.11079
 O218 O 0.44577 0.51386 -0.05451
 C219 C 0.43269 0.49532 -0.09572
 O220 O 0.55855 0.52180 -0.11653
 O221 O 0.55260 0.48617 -0.05675
 C222 C 0.56452 0.50359 -0.10103
 Zr223 Zr 0.52905 0.52975 -0.07997
 O224 O 0.52838 0.53199 -0.17862
 O225 O 0.56716 0.56509 -0.07742
 Zr226 Zr 0.47013 0.47098 -0.07966
 O227 O 0.46754 0.47131 -0.17826
 O228 O 0.43493 0.43278 -0.07614
 Zr229 Zr 0.51977 0.48029 -0.00128
 Zr230 Zr 0.47945 0.52037 -0.00157
 O231 O 0.48796 0.51194 -0.09161
 O232 O 0.51154 0.48846 -0.09220
 O233 O 0.52141 0.54637 -0.00184
 O234 O 0.47777 0.45502 -0.00119
 O235 O 0.54520 0.52215 -0.00157
 O236 O 0.45346 0.47849 -0.00134
 H237 H 0.48208 0.51788 0.12562
 H238 H 0.47038 0.43536 -0.00115
 H239 H 0.48203 0.51785 -0.12882
 H240 H 0.56489 0.52942 -0.00137
 H241 H 0.42078 0.43494 0.05288
 H242 H 0.42079 0.43490 -0.05510
 H243 H 0.48532 0.47575 -0.19509
 H244 H 0.52497 0.51457 -0.19526
 H245 H 0.56544 0.57824 -0.05102
 H246 H 0.57303 0.57204 0.10785
 H247 H 0.51588 0.51885 0.19215
 H248 H 0.48537 0.47454 0.19243
 O249 O 0.47832 0.03633 0.11534
 O250 O 0.51347 0.06618 0.05443
 C251 C 0.49631 0.06054 0.09939
 O252 O 0.52278 -0.03829 0.10810
 O253 O 0.48566 -0.06800 0.05225
 C254 C 0.50438 -0.06247 0.09323
 O255 O 0.55811 0.03658 0.11370
 O256 O 0.55211 0.06627 0.05413
 C257 C 0.56405 0.06074 0.09830
 O258 O 0.43832 -0.03840 0.10891
 O259 O 0.44550 -0.06805 0.05255
 C260 C 0.43246 -0.06256 0.09395
 Zr261 Zr 0.46959 -0.00092 0.07680
 O262 O 0.46531 -0.00205 0.17501
 O263 O 0.43362 0.00016 0.06563
 Zr264 Zr 0.52859 -0.00085 0.07731
 O265 O 0.52873 -0.00324 0.17602
 O266 O 0.56588 0.00044 0.07013
 O267 O 0.51097 0.02284 0.08953
 O268 O 0.48750 -0.02406 0.08905
 O269 O 0.43803 -0.03843 -0.10985
 O270 O 0.44545 -0.06807 -0.05368
 C271 C 0.43226 -0.06260 -0.09476
 O272 O 0.55820 0.03662 -0.11596
 O273 O 0.55214 0.06629 -0.05681
 C274 C 0.56413 0.06077 -0.10078
 O275 O 0.52296 -0.03824 -0.10933
 O276 O 0.48569 -0.06796 -0.05371
 C277 C 0.50448 -0.06243 -0.09447
 O278 O 0.47772 0.03652 -0.11646
 O279 O 0.51343 0.06624 -0.05696
 C280 C 0.49597 0.06069 -0.10118
 Zr281 Zr 0.46973 -0.00087 -0.07960
 O282 O 0.46760 -0.00381 -0.17823
 O283 O 0.43431 0.00179 -0.07734
 Zr284 Zr 0.52864 -0.00079 -0.07936
 O285 O 0.52772 -0.00373 -0.17799
 O286 O 0.56674 0.00190 -0.07716
 Zr287 Zr 0.51930 0.03938 -0.00127
 Zr288 Zr 0.47909 -0.04095 -0.00085
 O289 O 0.48757 -0.02405 -0.09105
 O290 O 0.51114 0.02302 -0.09205
 O291 O 0.45304 -0.02510 -0.00121
 O292 O 0.54466 0.02282 -0.00105
 O293 O 0.47733 0.02283 -0.00137
 O294 O 0.52104 -0.02494 -0.00083
 H295 H 0.48165 -0.03592 0.12622
 H296 H 0.56438 0.03508 -0.00108
 H297 H 0.48164 -0.03595 -0.12804
 H298 H 0.47002 0.03518 -0.00127
 H299 H 0.57188 0.00047 0.11356
 H300 H 0.56549 -0.01187 -0.04747
 H301 H 0.52453 0.01045 -0.19472
 H302 H 0.48507 0.01026 -0.19497
 H303 H 0.42118 -0.01294 -0.05042
 H304 H 0.42729 0.00064 0.10838
 H305 H 0.48023 -0.00383 0.19257
 H306 H 0.52476 0.01042 0.19261
 C307 C 1.10104 0.47646 0.20756
 C308 C 1.12653 0.49941 0.20689
 C309 C 1.13195 0.52034 0.16539
 C310 C 1.11166 0.51869 0.12618
 C311 C 1.19077 0.50689 0.38992
 C312 C 1.08074 0.47481 0.16875
 C313 C 1.14611 0.50215 0.25269
 C314 C 1.16135 0.50405 0.29372
 C315 C 1.17784 0.50579 0.34449
 C316 C 1.08562 0.49615 0.12855
 H317 H 1.09658 0.46017 0.23962
 H318 H 1.15158 0.53827 0.16472
 H319 H 1.11608 0.53549 0.09591
 H320 H 1.06099 0.45712 0.17164
 C321 C 0.47993 0.61120 0.16321
 C322 C 0.50077 0.62660 0.20499
 C323 C 0.52363 0.62389 0.20644
 C324 C 0.52529 0.60523 0.16805
 C325 C 0.49328 0.68360 0.38654
 C326 C 0.48159 0.59254 0.12443
 C327 C 0.49801 0.64350 0.25029
 C328 C 0.49612 0.65692 0.29095
 C329 C 0.49439 0.67173 0.34136
 C330 C 0.50405 0.58892 0.12750
 H331 H 0.46206 0.61302 0.16194
 H332 H 0.53984 0.63563 0.23874
 H333 H 0.54292 0.60307 0.17147
 H334 H 0.46488 0.58029 0.09384
 C335 C 0.38827 -0.13136 0.16541
 C336 C 0.37284 -0.12599 0.20724
 C337 C 0.37546 -0.10052 0.20832
 C338 C 0.39408 -0.08020 0.16951
 C339 C 0.31609 -0.19040 0.39006
 C340 C 0.40689 -0.11104 0.12622
 C341 C 0.35600 -0.14563 0.25294
 C342 C 0.34265 -0.16090 0.29391
 C343 C 0.32791 -0.17743 0.34464
 C344 C 0.41043 -0.08504 0.12892
 H345 H 0.38652 -0.15097 0.16444
 H346 H 0.36370 -0.09610 0.24066
 H347 H 0.39617 -0.06049 0.17264
 H348 H 0.41917 -0.11544 0.09563
 C349 C 0.90118 0.52021 0.21818
 C350 C 0.87516 0.49838 0.21178
 C351 C 0.86980 0.47894 0.16624
 C352 C 0.89056 0.48106 0.12809
 C353 C 0.80797 0.48961 0.38828
 C354 C 0.92194 0.52233 0.18039
 C355 C 0.85468 0.49522 0.25528
 C356 C 0.83868 0.49302 0.29456
 C357 C 0.82140 0.49095 0.34372
 C358 C 0.91698 0.50257 0.13549
 H359 H 0.90558 0.53530 0.25350
 H360 H 0.84975 0.46186 0.16116
 H361 H 0.88605 0.46551 0.09403
 H362 H 0.94198 0.53919 0.18727
 C363 C 0.47970 0.38063 0.21720
 C364 C 0.50156 0.37648 0.21067
 C365 C 0.52109 0.39066 0.16509
 C366 C 0.51904 0.40936 0.12705
 C367 C 0.51012 0.31773 0.38664
 C368 C 0.47766 0.39934 0.17951
 C369 C 0.50464 0.35908 0.25401
 C370 C 0.50678 0.34520 0.29316
 C371 C 0.50880 0.32989 0.34217
 C372 C 0.49751 0.41423 0.13458
 H373 H 0.46453 0.36985 0.25251
 H374 H 0.53819 0.38772 0.15989
 H375 H 0.53466 0.42045 0.09293
 H376 H 0.46077 0.40247 0.18649
 C377 C 0.61906 0.09899 0.21690
 C378 C 0.62308 0.12491 0.21063
 C379 C 0.60882 0.13024 0.16523
 C380 C 0.59017 0.10955 0.12712
 C381 C 0.68157 0.19181 0.38704
 C382 C 0.60040 0.07830 0.17915
 C383 C 0.64041 0.14530 0.25411
 C384 C 0.65422 0.16123 0.29338
 C385 C 0.66946 0.17843 0.34251
 C386 C 0.58542 0.08322 0.13441
 H387 H 0.62990 0.09461 0.25208
 H388 H 0.61166 0.15021 0.16024
 H389 H 0.57899 0.11403 0.09317
 H390 H 0.59736 0.05834 0.18595
 C391 C 0.52073 0.13034 -0.16778
 C392 C 0.50134 0.12501 -0.21370
 C393 C 0.47958 0.09901 -0.22056
 C394 C 0.47747 0.07826 -0.18281
 C395 C 0.51000 0.19235 -0.38972
 C396 C 0.51861 0.10958 -0.12968
 C397 C 0.50447 0.14553 -0.25700
 C398 C 0.50664 0.16158 -0.29612
 C399 C 0.50868 0.17891 -0.34515
 C400 C 0.49716 0.08320 -0.13748
 H401 H 0.53776 0.15037 -0.16233
 H402 H 0.46453 0.09463 -0.25616
 H403 H 0.46066 0.05825 -0.19005
 H404 H 0.53412 0.11409 -0.09528
 C405 C 0.60959 0.47892 -0.16701
 C406 C 0.62372 0.49832 -0.21286
 C407 C 0.61946 0.52005 -0.21990
 C408 C 0.60073 0.52212 -0.18238
 C409 C 0.68259 0.48970 -0.38821
 C410 C 0.59086 0.48100 -0.12914
 C411 C 0.64119 0.49523 -0.25593
 C412 C 0.65512 0.49307 -0.29488
 C413 C 0.67046 0.49104 -0.34374
 C414 C 0.58591 0.50243 -0.13711
 H415 H 0.61260 0.46191 -0.16145
 H416 H 0.63018 0.53510 -0.25548
 H417 H 0.59752 0.53891 -0.18973
 H418 H 0.57981 0.46549 -0.09479
 C419 C 0.86967 0.39079 -0.16569
 C420 C 0.87500 0.37660 -0.21105
 C421 C 0.90104 0.38078 -0.21758
 C422 C 0.92183 0.39952 -0.18011
 C423 C 0.80751 0.31762 -0.38621
 C424 C 0.89047 0.40951 -0.12785
 C425 C 0.85447 0.35915 -0.25417
 C426 C 0.83839 0.34521 -0.29311
 C427 C 0.82101 0.32983 -0.34189
 C428 C 0.91690 0.41440 -0.13538
 H429 H 0.84961 0.38783 -0.16051
 H430 H 0.90542 0.37001 -0.25273
 H431 H 0.94188 0.40268 -0.18711
 H432 H 0.88597 0.42062 -0.09391
 C433 C 0.52408 -0.10037 -0.20686
 C434 C 0.50119 -0.12588 -0.20565
 C435 C 0.48018 -0.13125 -0.16435
 C436 C 0.48171 -0.11092 -0.12586
 C437 C 0.49374 -0.19064 -0.38649
 C438 C 0.52561 -0.08003 -0.16872
 C439 C 0.49854 -0.14556 -0.25075
 C440 C 0.49668 -0.16092 -0.29123
 C441 C 0.49491 -0.17757 -0.34144
 C442 C 0.50421 -0.08489 -0.12870
 H443 H 0.54041 -0.09595 -0.23880
 H444 H 0.46229 -0.15089 -0.16327
 H445 H 0.46486 -0.11533 -0.09573
 H446 H 0.54327 -0.06029 -0.17195
 C447 C 0.38809 0.51970 -0.16610
 C448 C 0.37258 0.49887 -0.20771
 C449 C 0.37530 0.47608 -0.20896
 C450 C 0.39409 0.47446 -0.17056
 C451 C 0.31534 0.50646 -0.38941
 C452 C 0.40687 0.51808 -0.12734
 C453 C 0.35558 0.50161 -0.25304
 C454 C 0.34210 0.50350 -0.29372
 C455 C 0.32723 0.50529 -0.34417
 C456 C 0.41051 0.49569 -0.13024
 H457 H 0.38626 0.53752 -0.16498
 H458 H 0.36348 0.45988 -0.24112
 H459 H 0.39625 0.45688 -0.17381
 H460 H 0.41921 0.53480 -0.09695
 C461 C 1.13209 0.61184 -0.16573
 C462 C 1.12672 0.62728 -0.20760
 C463 C 1.10114 0.62456 -0.20903
 C464 C 1.08073 0.60585 -0.17050
 C465 C 1.19163 0.68453 -0.38924
 C466 C 1.11169 0.59315 -0.12683
 C467 C 1.14648 0.64425 -0.25293
 C468 C 1.16189 0.65772 -0.29359
 C469 C 1.17857 0.67260 -0.34401
 C470 C 1.08560 0.58951 -0.12985
 H471 H 1.15178 0.61365 -0.16449
 H472 H 1.09671 0.63633 -0.24140
 H473 H 1.06093 0.60368 -0.17390
 H474 H 1.11610 0.58086 -0.09620
 C475 C 0.90104 0.52013 -0.21947
 C476 C 0.87500 0.49835 -0.21267
 C477 C 0.86968 0.47892 -0.16690
 C478 C 0.89048 0.48101 -0.12891
 C479 C 0.80759 0.48975 -0.38856
 C480 C 0.92184 0.52222 -0.18185
 C481 C 0.85446 0.49525 -0.25593
 C482 C 0.83840 0.49309 -0.29504
 C483 C 0.82105 0.49107 -0.34404
 C484 C 0.91691 0.50248 -0.13670
 H485 H 0.90541 0.53522 -0.25495
 H486 H 0.84962 0.46187 -0.16150
 H487 H 0.88599 0.46547 -0.09463
 H488 H 0.94189 0.53905 -0.18902
 C489 C 0.47985 0.38083 -0.21913
 C490 C 0.50168 0.37664 -0.21241
 C491 C 0.52122 0.39081 -0.16695
 C492 C 0.51920 0.40953 -0.12917
 C493 C 0.51011 0.31771 -0.38736
 C494 C 0.47783 0.39955 -0.18171
 C495 C 0.50473 0.35919 -0.25545
 C496 C 0.50684 0.34527 -0.29435
 C497 C 0.50882 0.32991 -0.34309
 C498 C 0.49767 0.41442 -0.13687
 H499 H 0.46468 0.37006 -0.25437
 H500 H 0.53830 0.38784 -0.16162
 H501 H 0.53481 0.42062 -0.09514
 H502 H 0.46095 0.40270 -0.18879
 C503 C 0.61933 0.09912 -0.21921
 C504 C 0.62332 0.12503 -0.21324
 C505 C 0.60897 0.13032 -0.16810
 C506 C 0.59027 0.10959 -0.12995
 C507 C 0.68199 0.19211 -0.38978
 C508 C 0.60062 0.07840 -0.18142
 C509 C 0.64071 0.14546 -0.25676
 C510 C 0.65457 0.16143 -0.29604
 C511 C 0.66986 0.17869 -0.34519
 C512 C 0.58556 0.08328 -0.13694
 H513 H 0.63022 0.09478 -0.25421
 H514 H 0.61178 0.15027 -0.16336
 H515 H 0.57903 0.11405 -0.09621
 H516 H 0.59760 0.05845 -0.18798
 C517 C 1.10112 0.47610 -0.20658
 C518 C 1.12657 0.49910 -0.20621
 C519 C 1.13193 0.52010 -0.16522
 C520 C 1.11160 0.51846 -0.12626
 C521 C 1.19070 0.50667 -0.38933
 C522 C 1.08077 0.47446 -0.16798
 C523 C 1.14614 0.50186 -0.25198
 C524 C 1.16134 0.50376 -0.29304
 C525 C 1.17779 0.50553 -0.34387
 C526 C 1.08559 0.49587 -0.12834
 H527 H 1.09672 0.45978 -0.23830
 H528 H 1.15153 0.53806 -0.16480
 H529 H 1.11597 0.53531 -0.09644
 H530 H 1.06105 0.45673 -0.17063
 C531 C 0.48012 0.61146 -0.16650
 C532 C 0.50108 0.62705 -0.20795
 C533 C 0.52400 0.62445 -0.20907
 C534 C 0.52561 0.60569 -0.17067
 C535 C 0.49348 0.68409 -0.38984
 C536 C 0.48172 0.59269 -0.12775
 C537 C 0.49835 0.64400 -0.25332
 C538 C 0.49644 0.65742 -0.29406
 C539 C 0.49464 0.67223 -0.34457
 C540 C 0.50425 0.58918 -0.13050
 H541 H 0.46221 0.61320 -0.16551
 H542 H 0.54030 0.63633 -0.24113
 H543 H 0.54329 0.60361 -0.17381
 H544 H 0.46490 0.58028 -0.09749
 C545 C 0.38796 -0.13140 -0.16514
 C546 C 0.37239 -0.12607 -0.20675
 C547 C 0.37491 -0.10064 -0.20788
 C548 C 0.39358 -0.08031 -0.16939
 C549 C 0.31588 -0.19041 -0.38920
 C550 C 0.40664 -0.11107 -0.12632
 C551 C 0.35557 -0.14568 -0.25230
 C552 C 0.34227 -0.16093 -0.29319
 C553 C 0.32761 -0.17745 -0.34384
 C554 C 0.41011 -0.08510 -0.12914
 H555 H 0.38628 -0.15098 -0.16411
 H556 H 0.36304 -0.09626 -0.24005
 H557 H 0.39562 -0.06062 -0.17258
 H558 H 0.41908 -0.11542 -0.09599
 C559 C 0.48010 -0.13130 0.16372
 C560 C 0.50106 -0.12589 0.20519
 C561 C 0.52392 -0.10037 0.20629
 C562 C 0.52547 -0.08004 0.16786
 C563 C 0.49360 -0.19051 0.38702
 C564 C 0.48164 -0.11098 0.12493
 C565 C 0.49838 -0.14554 0.25061
 C566 C 0.49652 -0.16085 0.29136
 C567 C 0.49475 -0.17745 0.34183
 C568 C 0.50410 -0.08493 0.12769
 H569 H 0.46223 -0.15096 0.16275
 H570 H 0.54022 -0.09593 0.23837
 H571 H 0.54310 -0.06029 0.17100
 H572 H 0.46483 -0.11541 0.09464
 C573 C 0.38824 0.51974 0.16313
 C574 C 0.37271 0.49887 0.20480
 C575 C 0.37535 0.47603 0.20608
 C576 C 0.39411 0.47442 0.16767
 C577 C 0.31594 0.50657 0.38699
 C578 C 0.40700 0.51814 0.12436
 C579 C 0.35583 0.50163 0.25028
 C580 C 0.34247 0.50356 0.29112
 C581 C 0.32775 0.50538 0.34171
 C582 C 0.41058 0.49571 0.12733
 H583 H 0.38647 0.53759 0.16200
 H584 H 0.36351 0.45979 0.23830
 H585 H 0.39623 0.45681 0.17095
 H586 H 0.41937 0.53489 0.09394
 C587 C 1.13205 0.61190 0.16358
 C588 C 1.12668 0.62741 0.20499
 C589 C 1.10113 0.62477 0.20613
 C590 C 1.08073 0.60604 0.16781
 C591 C 1.19114 0.68411 0.38715
 C592 C 1.11166 0.59317 0.12492
 C593 C 1.14635 0.64427 0.25042
 C594 C 1.16163 0.65761 0.29125
 C595 C 1.17816 0.67232 0.34186
 C596 C 1.08559 0.58959 0.12773
 H597 H 1.15172 0.61367 0.16257
 H598 H 1.09672 0.63659 0.23818
 H599 H 1.06096 0.60394 0.17096
 H600 H 1.11605 0.58080 0.09469
 C601 C 0.52102 0.13012 0.16557
 C602 C 0.50177 0.12468 0.21193
 C603 C 0.48016 0.09862 0.21937
 C604 C 0.47805 0.07792 0.18170
 C605 C 0.51021 0.19188 0.38716
 C606 C 0.51889 0.10941 0.12754
 C607 C 0.50487 0.14517 0.25501
 C608 C 0.50700 0.16118 0.29397
 C609 C 0.50895 0.17846 0.34280
 C610 C 0.49759 0.08297 0.13588
 H611 H 0.53793 0.15020 0.15967
 H612 H 0.46522 0.09417 0.25532
 H613 H 0.46134 0.05786 0.18931
 H614 H 0.53426 0.11400 0.09271
 C615 C 0.61832 0.51931 0.21978
 C616 C 0.62276 0.49771 0.21280
 C617 C 0.60890 0.47847 0.16664
 C618 C 0.59028 0.48059 0.12838
 C619 C 0.68166 0.48932 0.38870
 C620 C 0.59970 0.52142 0.18188
 C621 C 0.64016 0.49461 0.25614
 C622 C 0.65407 0.49249 0.29528
 C623 C 0.66943 0.49055 0.34426
 C624 C 0.58517 0.50189 0.13626
 H625 H 0.62885 0.53425 0.25556
 H626 H 0.61206 0.46156 0.16111
 H627 H 0.57946 0.46522 0.09375
 H628 H 0.59636 0.53812 0.18914
 C629 C 0.90124 0.38135 0.21913
 C630 C 0.87517 0.37705 0.21235
 C631 C 0.86980 0.39113 0.16658
 C632 C 0.89058 0.40984 0.12855
 C633 C 0.80767 0.31795 0.38782
 C634 C 0.92201 0.40006 0.18146
 C635 C 0.85463 0.35959 0.25558
 C636 C 0.83857 0.34564 0.29462
 C637 C 0.82119 0.33022 0.34348
 C638 C 0.91703 0.41482 0.13627
 H639 H 0.90565 0.37066 0.25462
 H640 H 0.84971 0.38809 0.16120
 H641 H 0.88605 0.42086 0.09427
 H642 H 0.94208 0.40329 0.18861
   
