data_POSCAR
  _audit_creation_date              2014-09-24
  _audit_creation_method            'ToBaCCo'
  _symmetry_space_group_name_H-M    'P1'
  _symmetry_Int_Tables_number       1
  _symmetry_cell_setting            triclinic
  loop_
  _symmetry_equiv_pos_as_xyz
 x,y,z
_cell_length_a 56.9113
_cell_length_b 57.6885
_cell_length_c 51.7196
_cell_angle_alpha 90.042400
_cell_angle_beta 90.079600
_cell_angle_gamma 119.361500
loop_
  _atom_site_label
  _atom_site_type_symbol
  _atom_site_fract_x
  _atom_site_fract_y
  _atom_site_fract_z
O1 O 0.00307 0.52154 0.03163
 O2 O -0.03433 0.46056 -0.00714
 O3 O -0.00088 0.47456 0.03202
 O4 O -0.03076 0.50710 -0.00688
 O5 O 0.00259 0.52005 -0.03489
 O6 O 0.03375 0.48971 0.00528
 O7 O 0.00042 0.47415 -0.03357
 O8 O 0.03686 0.53614 0.00393
 Cu9 Cu -0.01911 0.48950 0.01520
 Cu10 Cu 0.02186 0.50654 -0.01752
 C11 C 0.02635 0.53921 0.02438
 C12 C -0.02334 0.45704 -0.02700
 C13 C 0.02166 0.47687 0.02543
 C14 C -0.01952 0.51855 -0.02788
 O15 O 0.53665 0.50102 -0.00314
 O16 O 0.47537 0.47092 0.03714
 O17 O 0.49276 0.45513 -0.00230
 O18 O 0.51932 0.51692 0.03598
 O19 O 0.49955 0.53187 0.00917
 O20 O 0.47279 0.47013 -0.02878
 O21 O 0.45594 0.48624 0.01033
 O22 O 0.51674 0.51557 -0.03024
 Cu23 Cu 0.50798 0.48447 0.01963
 Cu24 Cu 0.48438 0.50255 -0.01257
 C25 C 0.53691 0.51306 -0.02378
 C26 C 0.45534 0.47369 0.03069
 C27 C 0.47840 0.45219 -0.02219
 C28 C 0.51365 0.53477 0.02921
 O29 O 0.53377 1.00211 0.02948
 O30 O 0.50369 1.03431 -0.00905
 O31 O 0.48870 1.00218 0.03094
 O32 O 0.54883 1.03295 -0.01084
 O33 O 0.52980 0.99831 -0.03707
 O34 O 0.46975 0.96763 0.00453
 O35 O 0.48491 0.99948 -0.03509
 O36 O 0.51541 0.96717 0.00353
 Cu37 Cu 0.52059 1.02147 0.01264
 Cu38 Cu 0.49813 0.97962 -0.01862
 C39 C 0.52947 0.97907 0.02332
 C40 C 0.48937 1.02255 -0.02869
 C41 C 0.46917 0.97950 0.02499
 C42 C 0.54946 1.02093 -0.03122
 O43 O 1.03545 0.54547 0.49160
 O44 O 1.00000 0.48614 0.53271
 O45 O 1.03274 0.49899 0.49330
 O46 O 1.00310 0.53243 0.53127
 O47 O 0.96735 0.51464 0.50572
 O48 O 0.99905 0.48519 0.46546
 O49 O 0.96609 0.46903 0.50495
 O50 O 0.99982 0.53028 0.46600
 Cu51 Cu 1.02138 0.51737 0.51485
 Cu52 Cu 0.97955 0.49815 0.48289
 C53 C 1.02362 0.54802 0.47185
 C54 C 0.97701 0.46750 0.52584
 C55 C 1.02129 0.48702 0.47249
 C56 C 0.97981 0.52858 0.52529
 O57 O 0.45560 0.49413 0.50070
 O58 O 0.51840 0.52394 0.53886
 O59 O 0.50059 0.53884 0.49933
 O60 O 0.47350 0.47865 0.54007
 O61 O 0.49084 0.46117 0.51333
 O62 O 0.51715 0.52070 0.47247
 O63 O 0.53545 0.50607 0.51224
 O64 O 0.47259 0.47602 0.47429
 Cu65 Cu 0.48529 0.51064 0.52248
 Cu66 Cu 0.50581 0.48928 0.49044
 C67 C 0.45354 0.48027 0.48085
 C68 C 0.53753 0.51988 0.53213
 C69 C 0.51306 0.53972 0.47868
 C70 C 0.47777 0.45976 0.53367
 O71 O 0.53950 0.03423 0.50205
 O72 O 0.47622 0.00244 0.46450
 O73 O 0.49441 0.03541 0.50349
 O74 O 0.52102 0.00099 0.46304
 O75 O 0.50542 -0.03229 0.49084
 O76 O 0.47665 0.00107 0.53007
 O77 O 0.45987 -0.03190 0.49109
 O78 O 0.52205 0.00087 0.52978
 Cu79 Cu 0.50952 0.02167 0.48054
 Cu80 Cu 0.48932 -0.01899 0.51314
 C81 C 0.54128 0.02317 0.52263
 C82 C 0.45744 -0.02032 0.47123
 C83 C 0.48101 0.02409 0.52368
 C84 C 0.51769 -0.02156 0.46997
 C85 C 0.13844 0.42696 0.26237
 C86 C 0.13830 0.42499 0.23599
 C87 C 0.15627 0.41617 0.22976
 N88 N 0.16754 0.41291 0.25154
 C89 C 0.15700 0.41990 0.27155
 C90 C 0.16141 0.41048 0.20443
 C91 C 0.18254 0.40508 0.19873
 C92 C 0.18472 0.39352 0.17600
 C93 C 0.20928 0.39435 0.17676
 C94 C 0.22144 0.40644 0.19991
 N95 N 0.20490 0.41269 0.21331
 C96 C 0.24811 0.41358 0.20712
 C97 C 0.25733 0.41977 0.23292
 C98 C 0.28407 0.43154 0.24067
 C99 C 0.28413 0.43304 0.26713
 C100 C 0.25745 0.42223 0.27468
 N101 N 0.24109 0.41408 0.25374
 C102 C 0.24846 0.41922 0.30053
 C103 C 0.22212 0.41372 0.30719
 C104 C 0.21075 0.40594 0.33150
 C105 C 0.18663 0.40597 0.33096
 C106 C 0.18357 0.41331 0.30614
 N107 N 0.20533 0.41792 0.29180
 C108 C 0.16281 0.41850 0.29800
 H109 H 0.12595 0.43273 0.27327
 H110 H 0.12628 0.42966 0.22304
 H111 H 0.21020 0.42703 0.27378
 H112 H 0.17029 0.38565 0.16031
 H113 H 0.21741 0.38722 0.16177
 H114 H 0.30179 0.43875 0.22861
 H115 H 0.30189 0.44160 0.27932
 H116 H 0.17336 0.40146 0.34733
 H117 H 0.21017 0.42473 0.22966
 H118 H 0.21921 0.40131 0.34817
 C119 C 0.58166 0.71758 0.23784
 C120 C 0.58088 0.71743 0.26435
 C121 C 0.57300 0.73574 0.27162
 N122 N 0.56957 0.74748 0.25044
 C123 C 0.57487 0.73644 0.22975
 C124 C 0.56626 0.73948 0.29702
 C125 C 0.56212 0.76104 0.30343
 C126 C 0.54784 0.76206 0.32470
 C127 C 0.54972 0.78675 0.32458
 C128 C 0.56523 0.80024 0.30332
 N129 N 0.57252 0.78432 0.29041
 C130 C 0.57345 0.82696 0.29678
 C131 C 0.58238 0.83673 0.27160
 C132 C 0.59626 0.86333 0.26466
 C133 C 0.59797 0.86400 0.23818
 C134 C 0.58508 0.83778 0.22985
 N135 N 0.57579 0.82115 0.25032
 C136 C 0.57951 0.82934 0.20383
 C137 C 0.57171 0.80287 0.19656
 C138 C 0.55970 0.79097 0.17329
 C139 C 0.55741 0.76612 0.17318
 C140 C 0.56749 0.76319 0.19665
 N141 N 0.57629 0.78575 0.21071
 C142 C 0.57036 0.74105 0.20388
 H143 H 0.58631 0.70488 0.22607
 H144 H 0.58524 0.70489 0.27672
 H145 H 0.58742 0.79028 0.22779
 H146 H 0.53684 0.74652 0.33869
 H147 H 0.54037 0.79370 0.33847
 H148 H 0.60421 0.88049 0.27729
 H149 H 0.60748 0.88177 0.22643
 H150 H 0.54935 0.75209 0.15738
 H151 H 0.58607 0.78998 0.27507
 H152 H 0.55317 0.79912 0.15785
 C153 C 0.15637 0.71034 0.25869
 C154 C 0.15779 0.70987 0.23225
 C155 C 0.17346 0.73603 0.22434
 N156 N 0.18155 0.75246 0.24505
 C157 C 0.17112 0.73678 0.26608
 C158 C 0.17916 0.74444 0.19834
 C159 C 0.19983 0.77008 0.19116
 C160 C 0.20336 0.78072 0.16653
 C161 C 0.22708 0.80450 0.16685
 C162 C 0.23727 0.80812 0.19184
 N163 N 0.22050 0.78697 0.20648
 C164 C 0.26265 0.82907 0.19999
 C165 C 0.26964 0.83527 0.22641
 C166 C 0.29483 0.85407 0.23553
 C167 C 0.29284 0.85474 0.26186
 C168 C 0.26636 0.83679 0.26810
 N169 N 0.25218 0.82502 0.24639
 C170 C 0.25544 0.83220 0.29335
 C171 C 0.22941 0.81124 0.29928
 C172 C 0.21550 0.80940 0.32187
 C173 C 0.19243 0.78504 0.32145
 C174 C 0.19288 0.77267 0.29861
 N175 N 0.21537 0.78885 0.28510
 C176 C 0.17398 0.74627 0.29172
 H177 H 0.14593 0.69308 0.27098
 H178 H 0.14867 0.69219 0.22030
 H179 H 0.22247 0.78345 0.26897
 H180 H 0.19049 0.77206 0.14983
 H181 H 0.23577 0.81726 0.15028
 H182 H 0.31290 0.86638 0.22461
 H183 H 0.30920 0.86712 0.27478
 H184 H 0.17722 0.77721 0.33642
 H185 H 0.22471 0.78266 0.22484
 H186 H 0.22152 0.82396 0.33725
 C187 C 0.87048 0.59997 0.76620
 C188 C 0.87140 0.60213 0.73978
 C189 C 0.84537 0.59433 0.73159
 N190 N 0.82856 0.58707 0.75213
 C191 C 0.84380 0.59026 0.77331
 C192 C 0.83679 0.59095 0.70555
 C193 C 0.81139 0.58757 0.69781
 C194 C 0.80117 0.58154 0.67283
 C195 C 0.77672 0.58079 0.67307
 C196 C 0.77247 0.58639 0.69817
 N197 N 0.79406 0.59120 0.71295
 C198 C 0.74973 0.58832 0.70637
 C199 C 0.74466 0.59124 0.73255
 C200 C 0.72551 0.59763 0.74123
 C201 C 0.72495 0.59549 0.76765
 C202 C 0.74326 0.58718 0.77426
 N203 N 0.75544 0.58484 0.75279
 C204 C 0.74638 0.57904 0.79923
 C205 C 0.76775 0.57407 0.80546
 C206 C 0.76799 0.55921 0.82642
 C207 C 0.79249 0.55994 0.82618
 C208 C 0.80664 0.57525 0.80510
 N209 N 0.79137 0.58374 0.79251
 C210 C 0.83329 0.58169 0.79843
 H211 H 0.88755 0.60463 0.77862
 H212 H 0.88925 0.60850 0.72812
 H213 H 0.79770 0.59743 0.77742
 H214 H 0.81047 0.57858 0.65587
 H215 H 0.76396 0.57714 0.65632
 H216 H 0.71297 0.60304 0.72990
 H217 H 0.71209 0.59920 0.78039
 H218 H 0.79886 0.54988 0.83980
 H219 H 0.79778 0.59867 0.73168
 H220 H 0.75204 0.54851 0.84025
 C221 C 0.44119 0.14992 0.73660
 C222 C 0.44143 0.14940 0.76310
 C223 C 0.43011 0.16456 0.77149
 N224 N 0.42298 0.17434 0.75100
 C225 C 0.42975 0.16541 0.72965
 C226 C 0.42553 0.16844 0.79757
 C227 C 0.41911 0.18821 0.80516
 C228 C 0.40834 0.18922 0.82890
 C229 C 0.40792 0.21285 0.82967
 C230 C 0.41844 0.22560 0.80637
 N231 N 0.42497 0.21034 0.79145
 C232 C 0.42399 0.25165 0.80023
 C233 C 0.42852 0.26129 0.77459
 C234 C 0.43928 0.28775 0.76758
 C235 C 0.43918 0.28836 0.74108
 C236 C 0.42834 0.26225 0.73276
 N237 N 0.42185 0.24573 0.75327
 C238 C 0.42354 0.25379 0.70670
 C239 C 0.41792 0.22803 0.69908
 C240 C 0.40713 0.21633 0.67540
 C241 C 0.40748 0.19265 0.67463
 C242 C 0.41847 0.19054 0.69787
 N243 N 0.42456 0.21208 0.71274
 C244 C 0.42470 0.17029 0.70402
 H245 H 0.44898 0.14033 0.72397
 H246 H 0.44945 0.13932 0.77477
 H247 H 0.43582 0.21722 0.72974
 H248 H 0.40180 0.17462 0.84424
 H249 H 0.40100 0.21997 0.84570
 H250 H 0.44683 0.30492 0.78017
 H251 H 0.44667 0.30611 0.72938
 H252 H 0.40069 0.17874 0.65864
 H253 H 0.43609 0.21628 0.77443
 H254 H 0.40002 0.22415 0.66011
 C255 C 0.73412 0.13598 0.72907
 C256 C 0.73431 0.13461 0.75555
 C257 C 0.74717 0.16059 0.76451
 N258 N 0.75504 0.17777 0.74444
 C259 C 0.74686 0.16276 0.72277
 C260 C 0.74922 0.16835 0.79068
 C261 C 0.76748 0.19466 0.79866
 C262 C 0.76668 0.20597 0.82209
 C263 C 0.78906 0.23081 0.82298
 C264 C 0.80266 0.23433 0.79981
 N265 N 0.78942 0.21215 0.78517
 C266 C 0.82773 0.25660 0.79339
 C267 C 0.83740 0.26206 0.76775
 C268 C 0.86307 0.28131 0.76044
 C269 C 0.86306 0.28232 0.73395
 C270 C 0.83722 0.26410 0.72591
 N271 N 0.82165 0.25161 0.74661
 C272 C 0.82739 0.26107 0.70029
 C273 C 0.80217 0.23943 0.69299
 C274 C 0.78739 0.23873 0.67138
 C275 C 0.76491 0.21390 0.67070
 C276 C 0.76661 0.20003 0.69186
 N277 N 0.78930 0.21580 0.70543
 C278 C 0.74822 0.17316 0.69777
 H279 H 0.72540 0.11916 0.71600
 H280 H 0.72579 0.11654 0.76687
 H281 H 0.79689 0.20990 0.72090
 H282 H 0.75165 0.19742 0.83712
 H283 H 0.79454 0.24446 0.83907
 H284 H 0.88001 0.29373 0.77275
 H285 H 0.88012 0.29535 0.72210
 H286 H 0.74902 0.20712 0.65638
 H287 H 0.79654 0.20808 0.76818
 H288 H 0.79201 0.25457 0.65769
 C289 C 0.05895 0.44561 0.07272
 N290 N 0.03371 0.44107 0.07819
 N291 N 0.02161 0.45067 0.06291
 C292 C 0.03431 0.46510 0.04160
 N293 N 0.05943 0.46941 0.03601
 N294 N 0.07155 0.45989 0.05131
 C295 C 0.07305 0.43658 0.09039
 N296 N 0.09940 0.44406 0.08649
 N297 N 0.11279 0.43741 0.10336
 C298 C 0.10030 0.42293 0.12470
 N299 N 0.07384 0.41514 0.12844
 N300 N 0.06046 0.42188 0.11160
 C301 C 0.11571 0.41755 0.14430
 N302 N 0.10331 0.40258 0.16543
 N303 N 0.11766 0.39957 0.18419
 C304 C 0.14497 0.41158 0.18261
 N305 N 0.15728 0.42612 0.16124
 N306 N 0.14293 0.42903 0.14243
 C307 C 0.53673 0.60110 0.07674
 N308 N 0.54817 0.58541 0.07972
 N309 N 0.54118 0.56449 0.06430
 C310 C 0.52271 0.55868 0.04520
 N311 N 0.51155 0.57458 0.04203
 N312 N 0.51835 0.59533 0.05758
 C313 C 0.54304 0.62314 0.09467
 N314 N 0.52670 0.63406 0.09601
 N315 N 0.53160 0.65328 0.11299
 C316 C 0.55318 0.66247 0.12910
 N317 N 0.56971 0.65175 0.12761
 N318 N 0.56465 0.63232 0.11079
 C319 C 0.55798 0.68314 0.14825
 N320 N 0.58212 0.69673 0.16050
 N321 N 0.58620 0.71533 0.17801
 C322 C 0.56622 0.72080 0.18406
 N323 N 0.54205 0.70705 0.17193
 N324 N 0.53805 0.68868 0.15425
 C325 C 0.40464 0.93918 0.07569
 N326 N 0.42904 0.95813 0.08456
 N327 N 0.44934 0.97160 0.06824
 C328 C 0.44609 0.96633 0.04251
 N329 N 0.42168 0.94739 0.03362
 N330 N 0.40124 0.93420 0.04990
 C331 C 0.38288 0.92330 0.09389
 N332 N 0.35661 0.91204 0.08661
 N333 N 0.33701 0.89707 0.10313
 C334 C 0.34306 0.89245 0.12733
 N335 N 0.36932 0.90359 0.13452
 N336 N 0.38887 0.91890 0.11817
 C337 C 0.32175 0.87542 0.14544
 N338 N 0.32667 0.86146 0.16369
 N339 N 0.30766 0.84634 0.18057
 C340 C 0.28314 0.84493 0.18015
 N341 N 0.27822 0.85893 0.16186
 N342 N 0.29711 0.87372 0.14467
 C343 C 0.94051 0.55602 0.57438
 N344 N 0.92698 0.53869 0.55498
 N345 N 0.93975 0.53062 0.53889
 C346 C 0.96651 0.53940 0.54173
 N347 N 0.98015 0.55690 0.56103
 N348 N 0.96739 0.56516 0.57702
 C349 C 0.92577 0.56315 0.59311
 N350 N 0.93892 0.58363 0.60998
 N351 N 0.92524 0.58910 0.62762
 C352 C 0.89799 0.57407 0.62916
 N353 N 0.88492 0.55367 0.61226
 N354 N 0.89853 0.54839 0.59450
 C355 C 0.88266 0.57891 0.64916
 N356 N 0.85736 0.55954 0.65503
 N357 N 0.84309 0.56347 0.67311
 C358 C 0.85341 0.58703 0.68583
 N359 N 0.87877 0.60649 0.67999
 N360 N 0.89322 0.60244 0.66205
 C361 C 0.45258 0.39333 0.58143
 N362 N 0.44652 0.41271 0.58756
 N363 N 0.45417 0.43375 0.57219
 C364 C 0.46810 0.43612 0.55013
 N365 N 0.47394 0.41664 0.54394
 N366 N 0.46635 0.39566 0.55931
 C367 C 0.44549 0.37080 0.59889
 N368 N 0.45382 0.35291 0.59363
 N369 N 0.44862 0.33314 0.60997
 C370 C 0.43481 0.33047 0.63215
 N371 N 0.42625 0.34821 0.63733
 N372 N 0.43153 0.36804 0.62100
 C373 C 0.43045 0.30954 0.65079
 N374 N 0.41619 0.30636 0.67278
 N375 N 0.41349 0.28829 0.69028
 C376 C 0.42507 0.27280 0.68653
 N377 N 0.43908 0.27582 0.66439
 N378 N 0.44169 0.29382 0.64685
 C379 C 0.60821 0.06337 0.57100
 N380 N 0.58627 0.04064 0.57889
 N381 N 0.56529 0.02750 0.56315
 C382 C 0.56538 0.03668 0.53898
 N383 N 0.58740 0.05933 0.53099
 N384 N 0.60850 0.07239 0.54669
 C385 C 0.63039 0.07863 0.58915
 N386 N 0.65405 0.09937 0.58098
 N387 N 0.67357 0.11381 0.59786
 C388 C 0.66997 0.10817 0.62353
 N389 N 0.64635 0.08741 0.63163
 N390 N 0.62698 0.07285 0.61476
 C391 C 0.69064 0.12474 0.64251
 N392 N 0.68414 0.12312 0.66790
 N393 N 0.70244 0.13847 0.68528
 C394 C 0.72810 0.15588 0.67806
 N395 N 0.73465 0.15739 0.65261
 N396 N 0.71623 0.14220 0.63513
 C397 C 0.46099 0.06256 0.92446
 N398 N 0.45475 0.03716 0.91892
 N399 N 0.46336 0.02419 0.93412
 C400 C 0.47848 0.03615 0.95541
 N401 N 0.48450 0.06146 0.96107
 N402 N 0.47592 0.07443 0.94587
 C403 C 0.45295 0.07746 0.90693
 N404 N 0.46122 0.10353 0.91143
 N405 N 0.45522 0.11752 0.89483
 C406 C 0.44070 0.10594 0.87315
 N407 N 0.43220 0.07980 0.86875
 N408 N 0.43825 0.06582 0.88533
 C409 C 0.43546 0.12180 0.85418
 N410 N 0.42088 0.11035 0.83248
 N411 N 0.41731 0.12504 0.81469
 C412 C 0.42829 0.15174 0.81788
 N413 N 0.44266 0.16311 0.83971
 N414 N 0.44617 0.14842 0.85753
 C415 C 0.60256 0.53920 0.92612
 N416 N 0.57919 0.53788 0.91817
 N417 N 0.55855 0.53023 0.93439
 C418 C 0.56043 0.52339 0.95909
 N419 N 0.58383 0.52480 0.96710
 N420 N 0.60459 0.53270 0.95093
 C421 C 0.62467 0.54628 0.90772
 N422 N 0.64979 0.55264 0.91601
 N423 N 0.66953 0.55831 0.89908
 C424 C 0.66474 0.55749 0.87327
 N425 N 0.63963 0.55110 0.86503
 N426 N 0.62000 0.54571 0.88194
 C427 C 0.68607 0.56295 0.85439
 N428 N 0.67957 0.55560 0.82934
 N429 N 0.69869 0.56051 0.81200
 C430 C 0.72512 0.57329 0.81890
 N431 N 0.73162 0.58057 0.84404
 N432 N 0.71244 0.57539 0.86149
 C433 C 0.93262 0.39152 0.92486
 N434 N 0.95982 0.40627 0.92255
 N435 N 0.97394 0.42688 0.93821
 C436 C 0.96140 0.43332 0.95690
 N437 N 0.93425 0.41836 0.95944
 N438 N 0.92011 0.39790 0.94364
 C439 C 0.91685 0.36996 0.90653
 N440 N 0.88981 0.35997 0.90447
 N441 N 0.87559 0.34135 0.88695
 C442 C 0.88786 0.33188 0.87100
 N443 N 0.91487 0.34165 0.87324
 N444 N 0.92914 0.36046 0.89061
 C445 C 0.87223 0.31200 0.85118
 N446 N 0.88271 0.29843 0.83869
 N447 N 0.86851 0.28063 0.82048
 C448 C 0.84344 0.27598 0.81394
 N449 N 0.83309 0.28971 0.82632
 N450 N 0.84716 0.30728 0.84469
 C451 C 0.54255 0.93791 0.42201
 N452 N 0.54521 0.96170 0.41480
 N453 N 0.53771 0.97511 0.43061
 C454 C 0.52699 0.96512 0.45416
 N455 N 0.52449 0.94137 0.46143
 N456 N 0.53223 0.92807 0.44569
 C457 C 0.54945 0.92253 0.40391
 N458 N 0.55158 0.90128 0.41212
 N459 N 0.55681 0.88680 0.39538
 C460 C 0.55980 0.89291 0.36981
 N461 N 0.55769 0.91417 0.36165
 N462 N 0.55274 0.92879 0.37840
 C463 C 0.56416 0.87628 0.35104
 N464 N 0.55969 0.87789 0.32551
 N465 N 0.56275 0.86232 0.30841
 C466 C 0.57068 0.84469 0.31608
 N467 N 0.57538 0.84327 0.34165
 N468 N 0.57203 0.85865 0.35883
 C469 C 0.38612 0.45342 0.43272
 N470 N 0.38880 0.46860 0.45378
 N471 N 0.40995 0.47661 0.46951
 C472 C 0.42921 0.46977 0.46472
 N473 N 0.42641 0.45440 0.44379
 N474 N 0.40523 0.44633 0.42810
 C475 C 0.36377 0.44602 0.41446
 N476 N 0.36090 0.43052 0.39361
 N477 N 0.34151 0.42498 0.37628
 C478 C 0.32433 0.43482 0.37911
 N479 N 0.32708 0.45017 0.40004
 N480 N 0.34643 0.45565 0.41741
 C481 C 0.30388 0.42987 0.35930
 N482 N 0.28856 0.44191 0.36078
 N483 N 0.27079 0.43832 0.34226
 C484 C 0.26764 0.42250 0.32158
 N485 N 0.28283 0.41030 0.32022
 N486 N 0.30066 0.41396 0.33871
 C487 C 0.06550 0.61295 0.42260
 N488 N 0.03946 0.59461 0.41760
 N489 N 0.02594 0.57419 0.43357
 C490 C 0.03795 0.57140 0.45514
 N491 N 0.06391 0.58986 0.46025
 N492 N 0.07744 0.61027 0.44427
 C493 C 0.08092 0.63459 0.40424
 N494 N 0.10742 0.65192 0.40850
 N495 N 0.12178 0.67072 0.39125
 C496 C 0.11017 0.67292 0.36911
 N497 N 0.08361 0.65573 0.36495
 N498 N 0.06925 0.63690 0.38219
 C499 C 0.12639 0.69279 0.34953
 N500 N 0.11498 0.69477 0.32716
 N501 N 0.12997 0.71199 0.30893
 C502 C 0.15694 0.72781 0.31236
 N503 N 0.16827 0.72598 0.33484
 N504 N 0.15328 0.70879 0.35307
 C505 C 0.94172 0.54544 0.92384
 N506 N 0.93201 0.53650 0.94789
 N507 N 0.94484 0.52821 0.96375
 C508 C 0.96801 0.52881 0.95625
 N509 N 0.97796 0.53823 0.93235
 N510 N 0.96497 0.54625 0.91640
 C511 C 0.92658 0.55269 0.90562
 N512 N 0.93165 0.55385 0.87989
 N513 N 0.91706 0.55904 0.86311
 C514 C 0.89704 0.56352 0.87145
 N515 N 0.89214 0.56267 0.89722
 N516 N 0.90654 0.55718 0.91400
 C517 C 0.88056 0.56843 0.85273
 N518 N 0.86525 0.57935 0.86023
 N519 N 0.85038 0.58372 0.84304
 C520 C 0.85004 0.57710 0.81775
 N521 N 0.86514 0.56589 0.81042
 N522 N 0.88023 0.56181 0.82752
 C523 C 0.45332 0.38638 0.93148
 N524 N 0.46830 0.38940 0.95297
 N525 N 0.47603 0.41050 0.96832
 C526 C 0.46916 0.42941 0.96267
 N527 N 0.45397 0.42621 0.94129
 N528 N 0.44618 0.40510 0.92601
 C529 C 0.44613 0.36405 0.91365
 N530 N 0.43101 0.36113 0.89230
 N531 N 0.42572 0.34182 0.87530
 C532 C 0.43541 0.32475 0.87898
 N533 N 0.45034 0.32752 0.90045
 N534 N 0.45558 0.34681 0.91749
 C535 C 0.43104 0.30460 0.85936
 N536 N 0.44282 0.28918 0.86176
 N537 N 0.44018 0.27204 0.84319
 C538 C 0.42564 0.26968 0.82152
 N539 N 0.41356 0.28487 0.81930
 N540 N 0.41625 0.30204 0.83784
 C541 C 0.61345 0.05742 0.91893
 N542 N 0.59169 0.03376 0.91270
 N543 N 0.57123 0.02164 0.92915
 C544 C 0.57160 0.03289 0.95234
 N545 N 0.59346 0.05651 0.95863
 N546 N 0.61406 0.06849 0.94228
 C547 C 0.63513 0.07154 0.90009
 N548 N 0.65928 0.09210 0.90756
 N549 N 0.67836 0.10580 0.89016
 C550 C 0.67386 0.09961 0.86463
 N551 N 0.64976 0.07900 0.85719
 N552 N 0.63081 0.06512 0.87462
 C553 C 0.69395 0.11603 0.84522
 N554 N 0.68638 0.11592 0.82032
 N555 N 0.70405 0.13218 0.80300
 C556 C 0.73007 0.14900 0.80979
 N557 N 0.73772 0.14865 0.83463
 N558 N 0.71997 0.13262 0.85207
 C559 C 0.05903 0.45909 0.42431
 N560 N 0.03647 0.45951 0.41656
 N561 N 0.02380 0.46780 0.43254
 C562 C 0.03351 0.47649 0.45671
 N563 N 0.05608 0.47599 0.46449
 N564 N 0.06850 0.46723 0.44864
 C565 C 0.07387 0.45174 0.40598
 N566 N 0.08751 0.43923 0.41399
 N567 N 0.10139 0.43316 0.39713
 C568 C 0.10250 0.43990 0.37182
 N569 N 0.08901 0.45255 0.36391
 N570 N 0.07474 0.45814 0.38064
 C571 C 0.11853 0.43435 0.35329
 N572 N 0.13213 0.45207 0.33429
 N573 N 0.14647 0.44711 0.31708
 C574 C 0.14732 0.42400 0.31786
 N575 N 0.13358 0.40622 0.33686
 N576 N 0.11963 0.41140 0.35442
 C577 C 0.53492 0.60276 0.42722
 N578 N 0.52837 0.60484 0.45203
 N579 N 0.52185 0.58495 0.46867
 C580 C 0.52197 0.56245 0.46114
 N581 N 0.52887 0.56057 0.43644
 N582 N 0.53512 0.58031 0.41977
 C583 C 0.54043 0.62377 0.40831
 N584 N 0.53936 0.61848 0.38263
 N585 N 0.54345 0.63709 0.36526
 C586 C 0.54902 0.66177 0.37289
 N587 N 0.55033 0.66719 0.39858
 N588 N 0.54594 0.64845 0.41600
 C589 C 0.55324 0.68202 0.35352
 N590 N 0.56546 0.70821 0.35987
 N591 N 0.56964 0.72646 0.34197
 C592 C 0.56154 0.71917 0.31712
 N593 N 0.54896 0.69291 0.31097
 N594 N 0.54506 0.67472 0.32876
 C595 C 0.38890 0.93989 0.42470
 N596 N 0.40804 0.96519 0.41907
 N597 N 0.42965 0.97811 0.43418
 C598 C 0.43287 0.96619 0.45548
 N599 N 0.41359 0.94101 0.46125
 N600 N 0.39202 0.92809 0.44613
 C601 C 0.36611 0.92490 0.40708
 N602 N 0.34885 0.89870 0.41126
 N603 N 0.32932 0.88452 0.39435
 C604 C 0.32627 0.89605 0.37268
 N605 N 0.34330 0.92235 0.36866
 N606 N 0.36289 0.93652 0.38554
 C607 C 0.30621 0.87985 0.35305
 N608 N 0.30282 0.89120 0.33141
 N609 N 0.28614 0.87620 0.31271
 C610 C 0.27237 0.84927 0.31490
 N611 N 0.27545 0.83800 0.33675
 N612 N 0.29203 0.85300 0.35548
 C613 C 0.55652 0.94025 0.07331
 N614 N 0.54700 0.93004 0.04945
 N615 N 0.53882 0.94258 0.03317
 C616 C 0.54010 0.96589 0.04014
 N617 N 0.54998 0.97623 0.06382
 N618 N 0.55792 0.96360 0.08014
 C619 C 0.56342 0.92559 0.09223
 N620 N 0.56519 0.93194 0.11769
 N621 N 0.56979 0.91782 0.13530
 C622 C 0.57312 0.89701 0.12808
 N623 N 0.57174 0.89084 0.10256
 N624 N 0.56684 0.90482 0.08494
 C625 C 0.57639 0.88053 0.14779
 N626 N 0.58586 0.86377 0.14153
 N627 N 0.58756 0.84802 0.15941
 C628 C 0.57950 0.84816 0.18412
 N629 N 0.57018 0.86509 0.19029
 N630 N 0.56881 0.88106 0.17253
 C631 C 0.38811 0.44574 0.07902
 N632 N 0.40880 0.44126 0.08499
 N633 N 0.43006 0.44973 0.06938
 C634 C 0.43135 0.46294 0.04724
 N635 N 0.41056 0.46718 0.04118
 N636 N 0.38935 0.45876 0.05678
 C637 C 0.36542 0.43793 0.09687
 N638 N 0.34617 0.44472 0.09180
 N639 N 0.32634 0.43902 0.10857
 C640 C 0.32497 0.42623 0.13101
 N641 N 0.34406 0.41919 0.13598
 N642 N 0.36395 0.42496 0.11922
 C643 C 0.30401 0.42146 0.15012
 N644 N 0.30218 0.40832 0.17245
 N645 N 0.28408 0.40532 0.19036
 C646 C 0.26725 0.41546 0.18666
 N647 N 0.26893 0.42834 0.16418
 N648 N 0.28695 0.43126 0.14625
 C649 C 0.07044 0.60598 0.07112
 N650 N 0.04432 0.58839 0.07662
 N651 N 0.03015 0.56734 0.06149
 C652 C 0.04154 0.56317 0.04023
 N653 N 0.06760 0.58088 0.03458
 N654 N 0.08180 0.60189 0.04978
 C655 C 0.08641 0.62838 0.08861
 N656 N 0.11329 0.64425 0.08485
 N657 N 0.12797 0.66378 0.10144
 C658 C 0.11627 0.66818 0.12234
 N659 N 0.08936 0.65245 0.12597
 N660 N 0.07471 0.63288 0.10943
 C661 C 0.13256 0.68887 0.14132
 N662 N 0.12062 0.69363 0.16178
 N663 N 0.13540 0.71157 0.17963
 C664 C 0.16270 0.72538 0.17774
 N665 N 0.17463 0.72074 0.15717
 N666 N 0.15983 0.70284 0.13927
 C667 C 0.45514 0.06503 0.57230
 N668 N 0.46961 0.07680 0.55069
 N669 N 0.47740 0.06357 0.53492
 C670 C 0.47105 0.03811 0.54021
 N671 N 0.45642 0.02628 0.56172
 N672 N 0.44859 0.03949 0.57746
 C673 C 0.44786 0.08009 0.59044
 N674 N 0.43335 0.06830 0.61202
 N675 N 0.42793 0.08229 0.62915
 C676 C 0.43687 0.10860 0.62537
 N677 N 0.45122 0.12034 0.60369
 N678 N 0.45659 0.10634 0.58653
 C679 C 0.43231 0.12436 0.64502
 N680 N 0.44342 0.15111 0.64241
 N681 N 0.44059 0.16561 0.66094
 C682 C 0.42651 0.15391 0.68276
 N683 N 0.41509 0.12710 0.68519
 N684 N 0.41798 0.11261 0.66669
 C685 C 0.60567 0.54764 0.57941
 N686 N 0.58806 0.55693 0.58248
 N687 N 0.56656 0.54845 0.56713
 C688 C 0.56203 0.53056 0.54802
 N689 N 0.57983 0.52156 0.54475
 N690 N 0.60119 0.52986 0.56022
 C691 C 0.62833 0.55541 0.59736
 N692 N 0.64140 0.54109 0.59835
 N693 N 0.66110 0.54713 0.61541
 C694 C 0.66866 0.56786 0.63197
 N695 N 0.65582 0.58241 0.63082
 N696 N 0.63589 0.57620 0.61390
 C697 C 0.68979 0.57364 0.65126
 N698 N 0.70206 0.59721 0.66413
 N699 N 0.72123 0.60211 0.68160
 C700 C 0.72856 0.58348 0.68698
 N701 N 0.71609 0.55988 0.67423
 N702 N 0.69718 0.55511 0.65662
 C703 C 0.93434 0.40306 0.57541
 N704 N 0.95657 0.42532 0.58379
 N705 N 0.97050 0.44555 0.56776
 C706 C 0.96258 0.44438 0.54281
 N707 N 0.94037 0.42209 0.53437
 N708 N 0.92658 0.40172 0.55035
 C709 C 0.91847 0.38137 0.59353
 N710 N 0.89994 0.35687 0.58489
 N711 N 0.88535 0.33744 0.60156
 C712 C 0.88856 0.34194 0.62744
 N713 N 0.90702 0.36645 0.63603
 N714 N 0.92179 0.38576 0.61940
 C715 C 0.87231 0.32088 0.64601
 N716 N 0.87057 0.32717 0.67094
 N717 N 0.85612 0.30823 0.68801
 C718 C 0.84312 0.28220 0.68095
 N719 N 0.84481 0.27593 0.65592
 N720 N 0.85904 0.29492 0.63874
   
