data_POSCAR
  _audit_creation_date              2014-09-24
  _audit_creation_method            'ToBaCCo'
  _symmetry_space_group_name_H-M    'P1'
  _symmetry_Int_Tables_number       1
  _symmetry_cell_setting            triclinic
  loop_
  _symmetry_equiv_pos_as_xyz
 x,y,z
_cell_length_a 26.4461
_cell_length_b 26.4049
_cell_length_c 26.4010
_cell_angle_alpha 90.106900
_cell_angle_beta 90.000500
_cell_angle_gamma 89.999100
loop_
  _atom_site_label
  _atom_site_type_symbol
  _atom_site_fract_x
  _atom_site_fract_y
  _atom_site_fract_z
C1 C 0.34107 1.00102 -0.47567
 C2 C 0.34100 1.00410 -0.52748
 C3 C 0.39124 1.00305 -0.54279
 N4 N 0.42173 0.99960 -0.50189
 C5 C 0.39130 0.99842 -0.46078
 C6 C 0.40762 1.00316 -0.59386
 C7 C 0.45887 1.00016 -0.60953
 C8 C 0.47416 0.99138 -0.65912
 C9 C 0.52602 0.99073 -0.65910
 C10 C 0.54150 0.99921 -0.60952
 N11 N 0.50025 1.00566 -0.57970
 C12 C 0.59283 1.00124 -0.59388
 C13 C 0.60923 1.00206 -0.54283
 C14 C 0.65947 1.00336 -0.52754
 C15 C 0.65939 1.00153 -0.47567
 C16 C 0.60915 0.99924 -0.46074
 N17 N 0.57874 0.99953 -0.50187
 C18 C 0.59268 0.99801 -0.40979
 C19 C 0.54148 0.99763 -0.39393
 C20 C 0.52608 1.00226 -0.34387
 C21 C 0.47418 1.00166 -0.34387
 C22 C 0.45892 0.99674 -0.39394
 N23 N 0.50023 0.99339 -0.42407
 C24 C 0.40774 0.99626 -0.40985
 H25 H 0.30784 1.00102 -0.45173
 H26 H 0.30769 1.00636 -0.55120
 H27 H 0.50028 0.98557 -0.46245
 H28 H 0.45036 0.98548 -0.69197
 H29 H 0.54967 0.98431 -0.69196
 H30 H 0.69279 1.00509 -0.55130
 H31 H 0.69261 1.00200 -0.45172
 H32 H 0.45042 1.00533 -0.31068
 H33 H 0.50033 1.01741 -0.54225
 H34 H 0.54975 1.00642 -0.31066
 C35 C -0.66103 1.52625 0.00075
 C36 C -0.66106 1.47439 -0.00098
 C37 C -0.61079 1.45921 -0.00129
 N38 N -0.58030 1.50027 0.00013
 C39 C -0.61074 1.54138 0.00136
 C40 C -0.59435 1.40814 -0.00131
 C41 C -0.54302 1.39240 -0.00033
 C42 C -0.52745 1.34262 0.00653
 C43 C -0.47557 1.34268 0.00586
 C44 C -0.46042 1.39246 -0.00130
 N45 N -0.50180 1.42238 -0.00589
 C46 C -0.40925 1.40826 -0.00317
 C47 C -0.39283 1.45919 -0.00218
 C48 C -0.34256 1.47423 -0.00152
 C49 C -0.34253 1.52605 0.00152
 C50 C -0.39278 1.54114 0.00240
 N51 N -0.42330 1.50018 0.00018
 C52 C -0.40915 1.59209 0.00353
 C53 C -0.46030 1.60797 0.00180
 C54 C -0.47539 1.65781 -0.00509
 C55 C -0.52727 1.65793 -0.00579
 C56 C -0.54289 1.60812 0.00078
 N57 N -0.50171 1.57807 0.00621
 C58 C -0.59424 1.59243 0.00155
 H59 H -0.69432 1.55011 0.00124
 H60 H -0.69437 1.45058 -0.00165
 H61 H -0.50186 1.54016 0.01606
 H62 H -0.55104 1.30958 0.01204
 H63 H -0.45173 1.30974 0.01084
 H64 H -0.30930 1.45037 -0.00270
 H65 H -0.30924 1.54987 0.00256
 H66 H -0.55082 1.69103 -0.01114
 H67 H -0.50190 1.46022 -0.01603
 H68 H -0.45151 1.69075 -0.00988
 C69 C -0.00049 0.52553 0.34170
 C70 C -0.00209 0.47367 0.34145
 C71 C -0.00123 0.45833 0.39173
 N72 N 0.00079 0.49927 0.42243
 C73 C 0.00121 0.54042 0.39209
 C74 C -0.00048 0.40727 0.40800
 C75 C 0.00133 0.39155 0.45936
 C76 C 0.00952 0.34193 0.47471
 C77 C 0.00888 0.34185 0.52666
 C78 C 0.00038 0.39143 0.54214
 N79 N -0.00495 0.42133 0.50079
 C80 C -0.00242 0.40705 0.59353
 C81 C -0.00231 0.45809 0.61015
 C82 C -0.00292 0.47320 0.66056
 C83 C -0.00011 0.52500 0.66076
 C84 C 0.00189 0.54018 0.61047
 N85 N 0.00059 0.49915 0.57979
 C86 C 0.00351 0.59127 0.59418
 C87 C 0.00254 0.60716 0.54284
 C88 C -0.00318 0.65715 0.52751
 C89 C -0.00372 0.65711 0.47555
 C90 C 0.00174 0.60715 0.46009
 N91 N 0.00639 0.57709 0.50138
 C92 C 0.00189 0.59134 0.40875
 H93 H -0.00077 0.54951 0.30849
 H94 H -0.00340 0.44995 0.30798
 H95 H 0.01498 0.53889 0.50124
 H96 H 0.01578 0.30908 0.45093
 H97 H 0.01462 0.30895 0.55038
 H98 H -0.00472 0.44936 0.69382
 H99 H 0.00010 0.54880 0.69420
 H100 H -0.00832 0.69022 0.45188
 H101 H -0.01636 0.45884 0.50085
 H102 H -0.00735 0.69031 0.55133
 O103 O -0.12997 1.00157 -0.06838
 O104 O 0.13038 0.99832 -0.06843
 O105 O -0.00161 1.06828 -0.13041
 O106 O 0.00199 0.93120 -0.13014
 O107 O 0.00205 0.86957 -0.06816
 O108 O -0.00165 1.13037 -0.06866
 O109 O 0.06861 0.99805 -0.13028
 O110 O -0.06823 1.00139 -0.13026
 Zr111 Zr 0.00020 0.99989 -0.08905
 O112 O 0.04611 0.95414 -0.04574
 O113 O -0.04570 1.04598 -0.04589
 C114 C -0.11484 1.00222 -0.11508
 C115 C 0.11523 0.99729 -0.11512
 C116 C -0.00248 1.11503 -0.11533
 C117 C 0.00288 0.88456 -0.11489
 H118 H 0.06738 1.06738 -0.06738
 O119 O 0.04583 1.04584 -0.04570
 H120 H -0.06699 0.93255 -0.06708
 O121 O -0.04542 0.95427 -0.04552
 O122 O 0.13042 1.00234 0.06861
 O123 O -0.12995 0.99868 0.06867
 O124 O 0.06854 1.13069 0.00158
 O125 O 0.06875 0.86988 -0.00133
 O126 O -0.06814 0.86979 0.00216
 O127 O -0.06835 1.13056 -0.00183
 O128 O 0.00189 1.06923 0.13044
 O129 O -0.00139 0.93217 0.13070
 O130 O 0.00183 1.13088 0.06849
 O131 O -0.00136 0.87009 0.06894
 O132 O 0.13034 1.06888 0.00166
 O133 O -0.13002 1.06862 -0.00172
 O134 O -0.12991 0.93163 0.00204
 O135 O 0.13045 0.93179 -0.00147
 O136 O 0.06871 1.00251 0.13052
 O137 O -0.06821 0.99893 0.13056
 Zr138 Zr 0.08924 1.00030 0.00011
 Zr139 Zr -0.08879 1.00016 0.00015
 Zr140 Zr 0.00014 1.08942 -0.00002
 Zr141 Zr 0.00028 0.91105 0.00031
 Zr142 Zr 0.00024 1.00056 0.08933
 O143 O -0.04561 0.95441 0.04620
 O144 O 0.04606 1.04639 0.04600
 C145 C 0.11532 1.00333 0.11531
 C146 C -0.11483 0.99804 0.11537
 C147 C 0.11516 1.11556 0.00239
 C148 C 0.11535 0.88509 -0.00218
 C149 C -0.11476 0.88495 0.00298
 C150 C -0.11495 1.11532 -0.00264
 C151 C 0.00266 1.11587 0.11521
 C152 C -0.00216 0.88542 0.11561
 H153 H -0.06707 1.06778 0.06738
 O154 O -0.04547 1.04610 0.04581
 H155 H 0.06754 0.93320 0.06761
 O156 O 0.04593 0.95470 0.04596
 C157 C 0.37113 1.00385 0.36919
 C158 C 0.33890 1.00445 0.33689
 C159 C 0.30027 1.00507 0.29856
 C160 C 0.31348 1.00143 0.24730
 C161 C 0.27584 1.00166 0.21008
 C162 C 0.22485 1.00555 0.22399
 C163 C 0.21166 1.00930 0.27526
 C164 C 0.24929 1.00907 0.31247
 C165 C 0.18611 1.00517 0.18573
 C166 C 0.15372 1.00453 0.15362
 H167 H 0.35279 0.99829 0.23615
 H168 H 0.28645 0.99868 0.17055
 H169 H 0.17234 1.01227 0.28643
 H170 H 0.23868 1.01188 0.35202
 C171 C -0.37068 1.00028 0.36918
 C172 C -0.33842 0.99941 0.33691
 C173 C -0.29973 0.99841 0.29864
 C174 C -0.31298 0.99454 0.24740
 C175 C -0.27532 0.99385 0.21021
 C176 C -0.22428 0.99701 0.22413
 C177 C -0.21105 1.00076 0.27539
 C178 C -0.24870 1.00145 0.31257
 C179 C -0.18557 0.99693 0.18584
 C180 C -0.15320 0.99722 0.15371
 H181 H -0.35234 0.99217 0.23625
 H182 H -0.28597 0.99100 0.17068
 H183 H -0.17170 1.00328 0.28655
 H184 H -0.23807 1.00445 0.35210
 C185 C -0.36880 0.99924 -0.37071
 C186 C -0.33673 1.00028 -0.33828
 C187 C -0.29841 1.00146 -0.29966
 C188 C -0.31222 1.00233 -0.24843
 C189 C -0.27493 1.00312 -0.21087
 C190 C -0.22370 1.00307 -0.22441
 C191 C -0.20990 1.00233 -0.27564
 C192 C -0.24719 1.00153 -0.31320
 C193 C -0.18533 1.00321 -0.18578
 C194 C -0.15315 1.00298 -0.15347
 H195 H -0.35173 1.00227 -0.23757
 H196 H -0.28601 1.00363 -0.17136
 H197 H -0.17040 1.00222 -0.28651
 H198 H -0.23612 1.00086 -0.35271
 C199 C 0.36917 0.99582 -0.37079
 C200 C 0.33709 0.99545 -0.33837
 C201 C 0.29877 0.99508 -0.29973
 C202 C 0.31258 0.99561 -0.24850
 C203 C 0.27530 0.99553 -0.21093
 C204 C 0.22407 0.99492 -0.22446
 C205 C 0.21027 0.99429 -0.27570
 C206 C 0.24755 0.99437 -0.31326
 C207 C 0.18570 0.99539 -0.18584
 C208 C 0.15352 0.99608 -0.15352
 H209 H 0.35209 0.99617 -0.23764
 H210 H 0.28637 0.99607 -0.17142
 H211 H 0.17077 0.99387 -0.28657
 H212 H 0.23649 0.99397 -0.35278
 C213 C 0.36920 1.37117 -0.00024
 C214 C 0.33710 1.33875 0.00072
 C215 C 0.29874 1.30016 0.00181
 C216 C 0.31235 1.24921 0.00745
 C217 C 0.27504 1.21167 0.00821
 C218 C 0.22398 1.22496 0.00334
 C219 C 0.21037 1.27594 -0.00218
 C220 C 0.24768 1.31347 -0.00293
 C221 C 0.18562 1.18632 0.00346
 C222 C 0.15345 1.15399 0.00320
 H223 H 0.35174 1.23853 0.01114
 H224 H 0.28598 1.17236 0.01243
 H225 H 0.17100 1.28662 -0.00604
 H226 H 0.23676 1.35277 -0.00732
 C227 C 0.36934 0.62944 0.00045
 C228 C 0.33728 0.66190 -0.00053
 C229 C 0.29896 0.70053 -0.00165
 C230 C 0.31278 0.75173 -0.00320
 C231 C 0.27549 0.78929 -0.00396
 C232 C 0.22426 0.77578 -0.00319
 C233 C 0.21046 0.72457 -0.00177
 C234 C 0.24774 0.68702 -0.00101
 C235 C 0.18589 0.81441 -0.00329
 C236 C 0.15369 0.84672 -0.00301
 H237 H 0.35229 0.76256 -0.00370
 H238 H 0.28657 0.82877 -0.00499
 H239 H 0.17095 0.71372 -0.00110
 H240 H 0.23667 0.64753 0.00020
 C241 C -0.37051 0.63108 0.00404
 C242 C -0.33824 0.66332 0.00448
 C243 C -0.29959 0.70163 0.00492
 C244 C -0.24851 0.68766 0.00672
 C245 C -0.21088 0.72487 0.00686
 C246 C -0.22419 0.77620 0.00521
 C247 C -0.27528 0.79017 0.00351
 C248 C -0.31291 0.75295 0.00338
 C249 C -0.18548 0.81448 0.00479
 C250 C -0.15312 0.84661 0.00415
 H251 H -0.23782 0.64806 0.00791
 H252 H -0.17149 0.71366 0.00812
 H253 H -0.28598 0.82976 0.00218
 H254 H -0.35230 0.76415 0.00196
 C255 C -0.37067 1.36922 -0.00366
 C256 C -0.33843 1.33695 -0.00409
 C257 C -0.29981 1.29861 -0.00452
 C258 C -0.24879 1.31250 -0.00789
 C259 C -0.21118 1.27526 -0.00802
 C260 C -0.22445 1.22400 -0.00481
 C261 C -0.27548 1.21011 -0.00154
 C262 C -0.31309 1.24735 -0.00140
 C263 C -0.18574 1.18572 -0.00441
 C264 C -0.15335 1.15361 -0.00378
 H265 H -0.23813 1.35204 -0.01030
 H266 H -0.17183 1.28642 -0.01051
 H267 H -0.28615 1.17058 0.00102
 H268 H -0.35244 1.23622 0.00123
 C269 C 0.00058 1.37036 0.37132
 C270 C 0.00151 1.33808 0.33896
 C271 C 0.00255 1.29973 0.30022
 C272 C -0.00074 1.31349 0.24910
 C273 C -0.00008 1.27619 0.21141
 C274 C 0.00390 1.22500 0.22470
 C275 C 0.00733 1.21126 0.27583
 C276 C 0.00666 1.24855 0.31352
 C277 C 0.00391 1.18659 0.18597
 C278 C 0.00356 1.15434 0.15359
 H279 H -0.00394 1.35296 0.23843
 H280 H -0.00281 1.28723 0.17200
 H281 H 0.01036 1.17178 0.28652
 H282 H 0.00923 1.23752 0.35294
 C283 C -0.00298 1.37000 -0.37006
 C284 C -0.00349 1.33756 -0.33798
 C285 C -0.00402 1.29900 -0.29957
 C286 C -0.00035 1.24783 -0.31322
 C287 C -0.00057 1.21037 -0.27582
 C288 C -0.00448 1.22395 -0.22463
 C289 C -0.00825 1.27512 -0.21100
 C290 C -0.00803 1.31257 -0.24840
 C291 C -0.00415 1.18546 -0.18610
 C292 C -0.00357 1.15327 -0.15379
 H293 H 0.00278 1.23694 -0.35269
 H294 H 0.00242 1.17092 -0.28677
 H295 H -0.01123 1.28604 -0.17154
 H296 H -0.01086 1.35204 -0.23745
 C297 C 0.00393 0.62821 -0.36917
 C298 C 0.00432 0.66068 -0.33698
 C299 C 0.00472 0.69941 -0.29861
 C300 C 0.00621 0.68603 -0.24730
 C301 C 0.00633 0.72369 -0.20998
 C302 C 0.00499 0.77488 -0.22381
 C303 C 0.00359 0.78825 -0.27513
 C304 C 0.00346 0.75059 -0.31246
 C305 C 0.00460 0.81361 -0.18540
 C306 C 0.00399 0.84603 -0.15320
 H307 H 0.00717 0.64655 -0.23620
 H308 H 0.00737 0.71293 -0.17041
 H309 H 0.00249 0.82772 -0.28624
 H310 H 0.00229 0.76133 -0.35203
 C311 C 0.00060 0.63044 0.37023
 C312 C -0.00046 0.66283 0.33813
 C313 C -0.00165 0.70137 0.29972
 C314 C -0.00285 0.75262 0.31352
 C315 C -0.00363 0.79008 0.27613
 C316 C -0.00322 0.77643 0.22482
 C317 C -0.00215 0.72517 0.21104
 C318 C -0.00138 0.68771 0.24842
 C319 C -0.00331 0.81495 0.18634
 C320 C -0.00302 0.84717 0.15406
 H321 H -0.00306 0.76357 0.35309
 H322 H -0.00438 0.82961 0.28720
 H323 H -0.00176 0.71420 0.17148
 H324 H -0.00044 0.64818 0.23736
   
