data_POSCAR
  _audit_creation_date              2014-09-24
  _audit_creation_method            'ToBaCCo'
  _symmetry_space_group_name_H-M    'P1'
  _symmetry_Int_Tables_number       1
  _symmetry_cell_setting            triclinic
  loop_
  _symmetry_equiv_pos_as_xyz
 x,y,z
_cell_length_a 55.7861
_cell_length_b 55.8186
_cell_length_c 55.8245
_cell_angle_alpha 90.015400
_cell_angle_beta 90.016500
_cell_angle_gamma 90.017400
loop_
  _atom_site_label
  _atom_site_type_symbol
  _atom_site_fract_x
  _atom_site_fract_y
  _atom_site_fract_z
O1 O 0.31688 0.35024 0.02286
 O2 O 0.34977 0.31750 -0.02380
 O3 O 0.31678 0.35052 -0.02356
 O4 O 0.34993 0.31730 0.02262
 O5 O 0.32199 0.28918 0.02265
 O6 O 0.28866 0.32259 -0.02375
 O7 O 0.32182 0.28938 -0.02398
 O8 O 0.28876 0.32230 0.02288
 Cu9 Cu 0.33615 0.33670 -0.00046
 Cu10 Cu 0.30247 0.30302 -0.00056
 C11 C 0.29721 0.34194 0.03063
 C12 C 0.34150 0.29784 -0.03164
 C13 C 0.29706 0.34232 -0.03133
 C14 C 0.34170 0.29758 0.03032
 O15 O 0.65032 0.68258 -0.02382
 O16 O 0.68318 0.64978 0.02282
 O17 O 0.65020 0.68280 0.02260
 O18 O 0.68322 0.64948 -0.02360
 O19 O 0.71141 0.67734 -0.02380
 O20 O 0.67821 0.71085 0.02262
 O21 O 0.71136 0.67765 0.02283
 O22 O 0.67833 0.71063 -0.02401
 Cu23 Cu 0.66391 0.66335 -0.00050
 Cu24 Cu 0.69767 0.69695 -0.00061
 C25 C 0.65863 0.70221 -0.03167
 C26 C 0.70288 0.65804 0.03058
 C27 C 0.65849 0.70250 0.03030
 C28 C 0.70296 0.65763 -0.03138
 O29 O 0.68320 0.35019 0.97722
 O30 O 0.65028 0.31739 1.02380
 O31 O 0.68325 0.35044 1.02363
 O32 O 0.65016 0.31722 0.97738
 O33 O 0.67811 0.28913 0.97735
 O34 O 0.71138 0.32254 1.02382
 O35 O 0.67824 0.28930 1.02398
 O36 O 0.71133 0.32227 0.97719
 Cu37 Cu 0.66391 0.33662 1.00050
 Cu38 Cu 0.69761 0.30297 1.00060
 C39 C 0.70289 0.34191 0.96945
 C40 C 0.65855 0.29774 1.03163
 C41 C 0.70296 0.34226 1.03142
 C42 C 0.65841 0.29751 0.96966
 O43 O 0.35009 0.68235 1.02393
 O44 O 0.31711 0.64952 0.97735
 O45 O 0.35016 0.68250 0.97750
 O46 O 0.31712 0.64929 1.02377
 O47 O 0.28899 0.67719 1.02397
 O48 O 0.32221 0.71059 0.97749
 O49 O 0.28899 0.67744 0.97734
 O50 O 0.32213 0.71043 1.02412
 Cu51 Cu 0.33643 0.66311 1.00063
 Cu52 Cu 0.30274 0.69675 1.00075
 C53 C 0.34183 0.70201 1.03176
 C54 C 0.29742 0.65780 0.96960
 C55 C 0.34190 0.70221 0.96980
 C56 C 0.29740 0.65748 1.03156
 O57 O -0.02361 0.34979 0.31721
 O58 O 0.02307 0.31707 0.35010
 O59 O 0.02285 0.35010 0.31714
 O60 O -0.02338 0.31684 0.35023
 O61 O -0.02340 0.28873 0.32231
 O62 O 0.02304 0.32217 0.28904
 O63 O 0.02326 0.28896 0.32217
 O64 O -0.02363 0.32186 0.28911
 Cu65 Cu -0.00028 0.33626 0.33648
 Cu66 Cu -0.00017 0.30259 0.30281
 C67 C -0.03138 0.34150 0.29754
 C68 C 0.03092 0.29742 0.34184
 C69 C 0.03063 0.34189 0.29744
 C70 C -0.03108 0.29711 0.34200
 O71 O 0.02312 0.68265 0.64977
 O72 O -0.02362 0.65001 0.68267
 O73 O -0.02333 0.68288 0.64956
 O74 O 0.02284 0.64971 0.68281
 O75 O 0.02302 0.67771 0.71084
 O76 O -0.02336 0.71106 0.67741
 O77 O -0.02364 0.67802 0.71070
 O78 O 0.02330 0.71083 0.67762
 Cu79 Cu -0.00025 0.66349 0.66340
 Cu80 Cu -0.00016 0.69725 0.69698
 C81 C 0.03098 0.70232 0.65799
 C82 C -0.03140 0.65836 0.70230
 C83 C -0.03103 0.70264 0.65772
 C84 C 0.03061 0.65796 0.70250
 O85 O 1.02357 0.65018 0.31716
 O86 O 0.97694 0.68293 0.35009
 O87 O 0.97712 0.64994 0.31708
 O88 O 1.02339 0.68308 0.35025
 O89 O 1.02345 0.71123 0.32238
 O90 O 0.97697 0.67791 0.28903
 O91 O 0.97679 0.71107 0.32222
 O92 O 1.02363 0.67816 0.28911
 Cu93 Cu 1.00026 0.66372 0.33645
 Cu94 Cu 1.00021 0.69744 0.30285
 C95 C 1.03136 0.65850 0.29751
 C96 C 0.96912 0.70260 0.34186
 C97 C 0.96935 0.65819 0.29739
 C98 C 1.03112 0.70281 0.34207
 O99 O 0.97668 0.31727 0.64943
 O100 O 1.02332 0.34998 0.68247
 O101 O 1.02313 0.31709 0.64935
 O102 O 0.97686 0.35024 0.68247
 O103 O 0.97665 0.32225 0.71051
 O104 O 1.02313 0.28892 0.67721
 O105 O 1.02331 0.32198 0.71049
 O106 O 0.97647 0.28911 0.67729
 Cu107 Cu 1.00001 0.33646 0.66313
 Cu108 Cu 0.99988 0.30272 0.69671
 C109 C 0.96883 0.29760 0.65763
 C110 C 1.03107 0.34165 0.70212
 C111 C 1.03083 0.29734 0.65754
 C112 C 0.96906 0.34199 0.70215
 O113 O 0.31703 -0.02323 0.34999
 O114 O 0.34983 0.02350 0.31725
 O115 O 0.31686 0.02319 0.35028
 O116 O 0.35011 -0.02292 0.31707
 O117 O 0.32218 -0.02304 0.28895
 O118 O 0.28874 0.02329 0.32234
 O119 O 0.32189 0.02359 0.28914
 O120 O 0.28893 -0.02335 0.32204
 Cu121 Cu 0.33627 0.00014 0.33646
 Cu122 Cu 0.30259 0.00012 0.30278
 C123 C 0.29738 -0.03106 0.34169
 C124 C 0.34154 0.03132 0.29760
 C125 C 0.29712 0.03091 0.34207
 C126 C 0.34191 -0.03065 0.29735
 O127 O 0.68304 -0.02322 0.65009
 O128 O 0.65015 0.02350 0.68275
 O129 O 0.68311 0.02320 0.64971
 O130 O 0.64997 -0.02293 0.68300
 O131 O 0.67790 -0.02290 0.71112
 O132 O 0.71124 0.02344 0.67764
 O133 O 0.67810 0.02373 0.71086
 O134 O 0.71115 -0.02319 0.67803
 Cu135 Cu 0.66376 0.00013 0.66358
 Cu136 Cu 0.69744 0.00028 0.69726
 C137 C 0.70272 -0.03098 0.65840
 C138 C 0.65843 0.03138 0.70239
 C139 C 0.70283 0.03099 0.65790
 C140 C 0.65819 -0.03059 0.70274
 O141 O 0.34956 0.97654 0.68313
 O142 O 0.31663 1.02311 0.65031
 O143 O 0.34971 1.02296 0.68323
 O144 O 0.31659 0.97669 0.65009
 O145 O 0.28847 0.97654 0.67801
 O146 O 0.32179 1.02303 0.71134
 O147 O 0.28853 1.02318 0.67825
 O148 O 0.32163 0.97639 0.71123
 Cu149 Cu 0.33593 0.99983 0.66388
 Cu150 Cu 0.30226 0.99978 0.69755
 C151 C 0.34130 0.96872 0.70279
 C152 C 0.29696 1.03089 0.65860
 C153 C 0.34149 1.03070 0.70294
 C154 C 0.29688 0.96892 0.65830
 O155 O 0.65037 0.97699 0.31743
 O156 O 0.68323 1.02359 0.35037
 O157 O 0.65015 1.02342 0.31741
 O158 O 0.68334 0.97716 0.35049
 O159 O 0.71146 0.97711 0.32258
 O160 O 0.67809 1.02358 0.28932
 O161 O 0.71134 1.02375 0.32245
 O162 O 0.67832 0.97695 0.28935
 Cu163 Cu 0.66396 1.00028 0.33673
 Cu164 Cu 0.69765 1.00035 0.30308
 C165 C 0.65866 0.96922 0.29776
 C166 C 0.70290 1.03142 0.34211
 C167 C 0.65837 1.03119 0.29772
 C168 C 0.70306 0.96944 0.34227
 C169 C 0.86249 0.79018 0.52230
 C170 C 0.87119 0.78152 0.50051
 C171 C 0.86245 0.79016 0.47872
 C172 C 0.84444 0.80794 0.47847
 C173 C 0.83541 0.81686 0.50050
 C174 C 0.84445 0.80794 0.52254
 C175 C 0.83530 0.81708 0.54415
 C176 C 0.81764 0.83472 0.54414
 C177 C 0.80852 0.84388 0.52252
 C178 C 0.81744 0.83486 0.50049
 C179 C 0.83532 0.81711 0.45685
 C180 C 0.81771 0.83479 0.45684
 C181 C 0.80857 0.84394 0.47845
 C182 C 0.79085 0.86201 0.47868
 C183 C 0.78218 0.87070 0.50048
 C184 C 0.79077 0.86192 0.52226
 H185 H 0.84175 0.81066 0.56128
 H186 H 0.81122 0.84118 0.56127
 H187 H 0.84178 0.81069 0.43972
 H188 H 0.81133 0.84128 0.43971
 H189 H 0.88514 0.76796 0.50050
 H190 H 0.76864 0.88468 0.50048
 C191 C 0.20912 0.13794 0.47869
 C192 C 0.21774 0.12921 0.50049
 C193 C 0.20912 0.13798 0.52227
 C194 C 0.19139 0.15603 0.52252
 C195 C 0.18251 0.16509 0.50049
 C196 C 0.19141 0.15602 0.47845
 C197 C 0.18230 0.16520 0.45684
 C198 C 0.16470 0.18290 0.45684
 C199 C 0.15556 0.19205 0.47846
 C200 C 0.16456 0.18310 0.50049
 C201 C 0.18225 0.16518 0.54414
 C202 C 0.16461 0.18284 0.54414
 C203 C 0.15550 0.19201 0.52252
 C204 C 0.13747 0.20979 0.52228
 C205 C 0.12881 0.21847 0.50048
 C206 C 0.13757 0.20984 0.47870
 H207 H 0.18870 0.15873 0.43971
 H208 H 0.15827 0.18933 0.43971
 H209 H 0.18864 0.15870 0.56127
 H210 H 0.15814 0.18925 0.56127
 H211 H 0.23127 0.11523 0.50050
 H212 H 0.11487 0.23204 0.50046
 C213 C 0.13779 0.78992 0.47764
 C214 C 0.12908 0.78122 0.49941
 C215 C 0.13783 0.78981 0.52122
 C216 C 0.15584 0.80759 0.52151
 C217 C 0.16489 0.81656 0.49951
 C218 C 0.15585 0.80768 0.47745
 C219 C 0.16501 0.81686 0.45586
 C220 C 0.18267 0.83451 0.45592
 C221 C 0.19179 0.84363 0.47757
 C222 C 0.18286 0.83456 0.49957
 C223 C 0.16496 0.81672 0.54316
 C224 C 0.18257 0.83441 0.54322
 C225 C 0.19173 0.84360 0.52163
 C226 C 0.20945 0.86168 0.52145
 C227 C 0.21813 0.87042 0.49968
 C228 C 0.20955 0.86167 0.47787
 H229 H 0.15856 0.81048 0.43872
 H230 H 0.18910 0.84099 0.43881
 H231 H 0.15849 0.81027 0.56027
 H232 H 0.18895 0.84086 0.56037
 H233 H 0.11512 0.76766 0.49938
 H234 H 0.23167 0.88440 0.49972
 C235 C 0.79057 0.13783 0.52097
 C236 C 0.78189 0.12908 0.49920
 C237 C 0.79049 0.13780 0.47739
 C238 C 0.80825 0.15584 0.47710
 C239 C 0.81718 0.16492 0.49911
 C240 C 0.80830 0.15590 0.52116
 C241 C 0.81745 0.16511 0.54276
 C242 C 0.83507 0.18280 0.54271
 C243 C 0.84419 0.19191 0.52107
 C244 C 0.83516 0.18292 0.49906
 C245 C 0.81738 0.16494 0.45546
 C246 C 0.83505 0.18258 0.45541
 C247 C 0.84420 0.19179 0.47700
 C248 C 0.86225 0.20955 0.47721
 C249 C 0.87095 0.21827 0.49898
 C250 C 0.86220 0.20969 0.52079
 H251 H 0.81106 0.15867 0.55990
 H252 H 0.84152 0.18926 0.55982
 H253 H 0.81096 0.15843 0.43834
 H254 H 0.84151 0.18895 0.43827
 H255 H 0.76834 0.11510 0.49922
 H256 H 0.88490 0.23184 0.49896
 C257 C 0.52170 0.79015 0.86204
 C258 C 0.49991 0.78152 0.87082
 C259 C 0.47809 0.79022 0.86219
 C260 C 0.47782 0.80799 0.84418
 C261 C 0.49986 0.81691 0.83511
 C262 C 0.52192 0.80796 0.84408
 C263 C 0.54354 0.81713 0.83494
 C264 C 0.54353 0.83484 0.81736
 C265 C 0.52189 0.84401 0.80828
 C266 C 0.49985 0.83493 0.81718
 C267 C 0.45619 0.81715 0.83508
 C268 C 0.45617 0.83481 0.81746
 C269 C 0.47780 0.84397 0.80830
 C270 C 0.47802 0.86202 0.79058
 C271 C 0.49981 0.87081 0.78197
 C272 C 0.52163 0.86211 0.79059
 H273 H 0.56069 0.81070 0.84135
 H274 H 0.56066 0.84132 0.81096
 H275 H 0.43905 0.81074 0.84156
 H276 H 0.43902 0.84128 0.81108
 H277 H 0.49994 0.76794 0.88475
 H278 H 0.49979 0.88480 0.76846
 C279 C 0.52165 0.20995 0.13812
 C280 C 0.49985 0.21851 0.12930
 C281 C 0.47804 0.20983 0.13797
 C282 C 0.47780 0.19213 0.15606
 C283 C 0.49985 0.18329 0.16517
 C284 C 0.52190 0.19222 0.15616
 C285 C 0.54353 0.18313 0.16535
 C286 C 0.54354 0.16549 0.18300
 C287 C 0.52191 0.15633 0.19212
 C288 C 0.49986 0.16534 0.18318
 C289 C 0.45618 0.18298 0.16519
 C290 C 0.45618 0.16539 0.18289
 C291 C 0.47782 0.15630 0.19208
 C292 C 0.47807 0.13832 0.20987
 C293 C 0.49987 0.12960 0.21853
 C294 C 0.52168 0.13831 0.20988
 H295 H 0.56067 0.18955 0.15891
 H296 H 0.56068 0.15906 0.18943
 H297 H 0.43904 0.18934 0.15868
 H298 H 0.43904 0.15893 0.18929
 H299 H 0.49987 0.23204 0.11533
 H300 H 0.49986 0.11567 0.23210
 C301 C 0.52185 0.13827 0.79018
 C302 C 0.50004 0.12951 0.78158
 C303 C 0.47825 0.13821 0.79026
 C304 C 0.47803 0.15628 0.80798
 C305 C 0.50010 0.16534 0.81686
 C306 C 0.52213 0.15630 0.80794
 C307 C 0.54378 0.16542 0.81708
 C308 C 0.54381 0.18305 0.83475
 C309 C 0.52219 0.19220 0.84390
 C310 C 0.50013 0.18332 0.83484
 C311 C 0.45642 0.16545 0.81712
 C312 C 0.45645 0.18314 0.83473
 C313 C 0.47810 0.19227 0.84386
 C314 C 0.47837 0.21004 0.86187
 C315 C 0.50018 0.21863 0.87064
 C316 C 0.52198 0.20994 0.86196
 H317 H 0.56091 0.15896 0.81066
 H318 H 0.56096 0.18943 0.84122
 H319 H 0.43927 0.15899 0.81072
 H320 H 0.43932 0.18957 0.84118
 H321 H 0.50003 0.11554 0.76804
 H322 H 0.50019 0.23218 0.88460
 C323 C 0.52231 0.79050 0.13788
 C324 C 0.50051 0.78176 0.12924
 C325 C 0.47870 0.79034 0.13801
 C326 C 0.47845 0.80815 0.15599
 C327 C 0.50049 0.81714 0.16498
 C328 C 0.52254 0.80827 0.15591
 C329 C 0.54417 0.81747 0.16502
 C330 C 0.54415 0.83513 0.18266
 C331 C 0.52251 0.84423 0.19182
 C332 C 0.50047 0.83515 0.18293
 C333 C 0.45681 0.81726 0.16514
 C334 C 0.45679 0.83497 0.18272
 C335 C 0.47841 0.84418 0.19183
 C336 C 0.47864 0.86227 0.20953
 C337 C 0.50044 0.87102 0.21817
 C338 C 0.52225 0.86228 0.20956
 H339 H 0.56131 0.81110 0.15854
 H340 H 0.56128 0.84163 0.18905
 H341 H 0.43967 0.81080 0.15871
 H342 H 0.43965 0.84141 0.18913
 H343 H 0.50051 0.76819 0.11530
 H344 H 0.50044 0.88499 0.23170
 C345 C 0.79031 0.47839 0.86223
 C346 C 0.78169 0.50017 0.87099
 C347 C 0.79028 0.52197 0.86223
 C348 C 0.80796 0.52221 0.84412
 C349 C 0.81686 0.50017 0.83505
 C350 C 0.80800 0.47814 0.84414
 C351 C 0.81714 0.45652 0.83499
 C352 C 0.83474 0.45651 0.81729
 C353 C 0.84383 0.47813 0.80809
 C354 C 0.83478 0.50017 0.81701
 C355 C 0.81704 0.54383 0.83492
 C356 C 0.83462 0.54382 0.81719
 C357 C 0.84375 0.52220 0.80804
 C358 C 0.86172 0.52196 0.79022
 C359 C 0.87046 0.50017 0.78158
 C360 C 0.86182 0.47837 0.79029
 H361 H 0.81077 0.43939 0.84149
 H362 H 0.84121 0.43939 0.81088
 H363 H 0.81064 0.56096 0.84139
 H364 H 0.84103 0.56095 0.81074
 H365 H 0.76819 0.50016 0.88500
 H366 H 0.88438 0.50019 0.76799
 C367 C 0.20975 0.47838 0.13786
 C368 C 0.21842 0.50016 0.12913
 C369 C 0.20981 0.52196 0.13787
 C370 C 0.19207 0.52221 0.15593
 C371 C 0.18313 0.50017 0.16496
 C372 C 0.19199 0.47814 0.15589
 C373 C 0.18281 0.45652 0.16500
 C374 C 0.16515 0.45652 0.18264
 C375 C 0.15605 0.47814 0.19182
 C376 C 0.16515 0.50017 0.18294
 C377 C 0.18298 0.54383 0.16511
 C378 C 0.16535 0.54383 0.18278
 C379 C 0.15617 0.52221 0.19189
 C380 C 0.13814 0.52197 0.20966
 C381 C 0.12935 0.50019 0.21825
 C382 C 0.13800 0.47839 0.20957
 H383 H 0.18918 0.43939 0.15852
 H384 H 0.15865 0.43939 0.18902
 H385 H 0.18941 0.56095 0.15867
 H386 H 0.15893 0.56096 0.18922
 H387 H 0.23196 0.50014 0.11517
 H388 H 0.11539 0.50021 0.23181
 C389 C 0.79026 0.47796 0.13780
 C390 C 0.78164 0.49975 0.12905
 C391 C 0.79028 0.52154 0.13779
 C392 C 0.80802 0.52180 0.15584
 C393 C 0.81690 0.49978 0.16493
 C394 C 0.80797 0.47774 0.15589
 C395 C 0.81708 0.45613 0.16509
 C396 C 0.83469 0.45615 0.18278
 C397 C 0.84385 0.47779 0.19191
 C398 C 0.83485 0.49981 0.18294
 C399 C 0.81718 0.54344 0.16496
 C400 C 0.83483 0.54346 0.18263
 C401 C 0.84393 0.52185 0.19182
 C402 C 0.86197 0.52163 0.20959
 C403 C 0.87063 0.49984 0.21830
 C404 C 0.86185 0.47805 0.20969
 H405 H 0.81066 0.43899 0.15864
 H406 H 0.84111 0.43903 0.18923
 H407 H 0.81080 0.56056 0.15847
 H408 H 0.84131 0.56060 0.18901
 H409 H 0.76811 0.49974 0.11506
 H410 H 0.88458 0.49985 0.23186
 C411 C 0.20948 0.52145 0.86245
 C412 C 0.21811 0.49965 0.87117
 C413 C 0.20947 0.47786 0.86242
 C414 C 0.19174 0.47764 0.84433
 C415 C 0.18284 0.49969 0.83531
 C416 C 0.19174 0.52171 0.84440
 C417 C 0.18259 0.54334 0.83529
 C418 C 0.16494 0.54337 0.81763
 C419 C 0.15582 0.52176 0.80842
 C420 C 0.16488 0.49971 0.81730
 C421 C 0.18263 0.45603 0.83513
 C422 C 0.16501 0.45606 0.81743
 C423 C 0.15587 0.47769 0.80831
 C424 C 0.13787 0.47796 0.79052
 C425 C 0.12911 0.49975 0.78193
 C426 C 0.13779 0.52154 0.79064
 H427 H 0.18899 0.56047 0.84179
 H428 H 0.15847 0.56050 0.81125
 H429 H 0.18903 0.43890 0.84157
 H430 H 0.15857 0.43894 0.81097
 H431 H 0.23164 0.49964 0.88515
 H432 H 0.11517 0.49976 0.76835
 C433 C 0.28405 0.35554 0.04800
 C434 C 0.27327 0.36795 0.06199
 C435 C 0.26079 0.38392 0.07791
 C436 C 0.27304 0.39467 0.09701
 C437 C 0.26178 0.41229 0.11080
 C438 C 0.23823 0.41924 0.10555
 C439 C 0.22575 0.40800 0.08688
 C440 C 0.23701 0.39037 0.07309
 C441 C 0.22768 0.43926 0.11785
 C442 C 0.21927 0.45672 0.12738
 H443 H 0.29151 0.38997 0.10076
 H444 H 0.27167 0.42101 0.12506
 H445 H 0.20760 0.41338 0.08254
 H446 H 0.22744 0.38233 0.05823
 C447 C 0.71602 0.64441 0.04794
 C448 C 0.72678 0.63198 0.06192
 C449 C 0.73925 0.61600 0.07784
 C450 C 0.76304 0.60954 0.07303
 C451 C 0.77429 0.59190 0.08682
 C452 C 0.76179 0.58066 0.10546
 C453 C 0.73823 0.58760 0.11069
 C454 C 0.72698 0.60524 0.09691
 C455 C 0.77234 0.56064 0.11776
 C456 C 0.78075 0.54318 0.12730
 H457 H 0.77261 0.61758 0.05819
 H458 H 0.79244 0.58652 0.08249
 H459 H 0.72834 0.57888 0.12493
 H460 H 0.70852 0.60994 0.10064
 C461 C 0.71605 0.35553 0.95211
 C462 C 0.72683 0.36796 0.93813
 C463 C 0.73931 0.38393 0.92222
 C464 C 0.72708 0.39460 0.90307
 C465 C 0.73833 0.41223 0.88928
 C466 C 0.76186 0.41925 0.89458
 C467 C 0.77432 0.40809 0.91329
 C468 C 0.76307 0.39046 0.92709
 C469 C 0.77240 0.43928 0.88226
 C470 C 0.78079 0.45673 0.87272
 H471 H 0.70863 0.38984 0.89929
 H472 H 0.72846 0.42089 0.87498
 H473 H 0.79245 0.41353 0.91767
 H474 H 0.77262 0.38248 0.94198
 C475 C 0.28423 0.64417 0.95227
 C476 C 0.27340 0.63174 0.93831
 C477 C 0.26086 0.61578 0.92241
 C478 C 0.27304 0.60503 0.90328
 C479 C 0.26171 0.58743 0.88949
 C480 C 0.23815 0.58051 0.89479
 C481 C 0.22574 0.59175 0.91349
 C482 C 0.23707 0.60934 0.92728
 C483 C 0.22752 0.56052 0.88247
 C484 C 0.21906 0.54309 0.87294
 H485 H 0.29150 0.60971 0.89949
 H486 H 0.27154 0.57871 0.87520
 H487 H 0.20760 0.58639 0.91787
 H488 H 0.22756 0.61739 0.94217
 C489 C 0.04826 0.28431 0.35551
 C490 C 0.06221 0.27355 0.36800
 C491 C 0.07807 0.26109 0.38405
 C492 C 0.07333 0.23725 0.39032
 C493 C 0.08703 0.22598 0.40801
 C494 C 0.10552 0.23851 0.41950
 C495 C 0.11069 0.26212 0.41276
 C496 C 0.09699 0.27339 0.39506
 C497 C 0.11772 0.22791 0.43956
 C498 C 0.12717 0.21945 0.45704
 H499 H 0.05860 0.22764 0.38207
 H500 H 0.08275 0.20778 0.41323
 H501 H 0.12481 0.27204 0.42167
 H502 H 0.10067 0.29190 0.39051
 C503 C 0.04834 0.71540 0.64431
 C504 C 0.06230 0.72613 0.63181
 C505 C 0.07817 0.73857 0.61577
 C506 C 0.07351 0.76243 0.60953
 C507 C 0.08723 0.77369 0.59185
 C508 C 0.10567 0.76113 0.58034
 C509 C 0.11077 0.73749 0.58705
 C510 C 0.09705 0.72623 0.60473
 C511 C 0.11790 0.77173 0.56030
 C512 C 0.12739 0.78019 0.54285
 H513 H 0.05882 0.77207 0.61779
 H514 H 0.08301 0.79191 0.58665
 H515 H 0.12485 0.72755 0.57812
 H516 H 0.10067 0.70771 0.60926
 C517 C 0.95180 0.71572 0.35555
 C518 C 0.93786 0.72648 0.36805
 C519 C 0.92201 0.73895 0.38410
 C520 C 0.92680 0.76276 0.39044
 C521 C 0.91309 0.77403 0.40813
 C522 C 0.89455 0.76153 0.41954
 C523 C 0.88933 0.73794 0.41273
 C524 C 0.90304 0.72667 0.39504
 C525 C 0.88233 0.77212 0.43960
 C526 C 0.87287 0.78057 0.45707
 H527 H 0.94156 0.77235 0.38225
 H528 H 0.91741 0.79221 0.41341
 H529 H 0.87517 0.72804 0.42158
 H530 H 0.89932 0.70818 0.39043
 C531 C 0.95151 0.28448 0.64390
 C532 C 0.93759 0.27371 0.63138
 C533 C 0.92175 0.26121 0.61532
 C534 C 0.90285 0.27349 0.60426
 C535 C 0.88916 0.26217 0.58658
 C536 C 0.89431 0.23853 0.57990
 C537 C 0.91277 0.22603 0.59144
 C538 C 0.92647 0.23735 0.60911
 C539 C 0.88209 0.22786 0.55987
 C540 C 0.87262 0.21935 0.54242
 H541 H 0.89919 0.29201 0.60877
 H542 H 0.87505 0.27206 0.57763
 H543 H 0.91704 0.20781 0.58627
 H544 H 0.94118 0.22776 0.61740
 C545 C 0.35517 0.04869 0.28448
 C546 C 0.36761 0.06267 0.27371
 C547 C 0.38359 0.07857 0.26121
 C548 C 0.38986 0.07383 0.23737
 C549 C 0.40749 0.08759 0.22606
 C550 C 0.41892 0.10614 0.23855
 C551 C 0.41217 0.11131 0.26216
 C552 C 0.39454 0.09755 0.27347
 C553 C 0.43894 0.11840 0.22792
 C554 C 0.45640 0.12789 0.21946
 H555 H 0.38167 0.05906 0.22779
 H556 H 0.41272 0.08331 0.20787
 H557 H 0.42103 0.12547 0.27205
 H558 H 0.38998 0.10123 0.29198
 C559 C 0.64476 0.04874 0.71548
 C560 C 0.63230 0.06271 0.72625
 C561 C 0.61631 0.07859 0.73874
 C562 C 0.60528 0.09750 0.72645
 C563 C 0.58764 0.11124 0.73777
 C564 C 0.58097 0.10613 0.76142
 C565 C 0.59248 0.08767 0.77393
 C566 C 0.61012 0.07392 0.76261
 C567 C 0.56096 0.11838 0.77207
 C568 C 0.54351 0.12785 0.78055
 H569 H 0.60977 0.10113 0.70792
 H570 H 0.57871 0.12534 0.72786
 H571 H 0.58732 0.08343 0.79215
 H572 H 0.61838 0.05921 0.77221
 C573 C 0.35498 0.95141 0.71594
 C574 C 0.36745 0.93748 0.72673
 C575 C 0.38346 0.92163 0.73925
 C576 C 0.39434 0.90259 0.72704
 C577 C 0.41199 0.88887 0.73835
 C578 C 0.41883 0.89414 0.76192
 C579 C 0.40747 0.91275 0.77436
 C580 C 0.38982 0.92647 0.76305
 C581 C 0.43887 0.88191 0.77255
 C582 C 0.45634 0.87243 0.78101
 H583 H 0.38971 0.89883 0.70856
 H584 H 0.42081 0.87466 0.72850
 H585 H 0.41277 0.91711 0.79252
 H586 H 0.38168 0.94129 0.77259
 C587 C 0.64501 0.95190 0.28456
 C588 C 0.63257 0.93796 0.27372
 C589 C 0.61661 0.92209 0.26114
 C590 C 0.60577 0.90298 0.27329
 C591 C 0.58817 0.88922 0.26191
 C592 C 0.58134 0.89453 0.23835
 C593 C 0.59266 0.91321 0.22597
 C594 C 0.61026 0.92696 0.23735
 C595 C 0.56135 0.88224 0.22766
 C596 C 0.54390 0.87273 0.21917
 H597 H 0.61039 0.89919 0.29175
 H598 H 0.57939 0.87496 0.27171
 H599 H 0.58737 0.91759 0.20782
 H600 H 0.61837 0.94183 0.22787
 C601 C 0.35518 0.28471 0.95104
 C602 C 0.36767 0.27394 0.93711
 C603 C 0.38372 0.26145 0.92128
 C604 C 0.39477 0.27373 0.90239
 C605 C 0.41247 0.26242 0.88871
 C606 C 0.41918 0.23880 0.89389
 C607 C 0.40765 0.22629 0.91234
 C608 C 0.38996 0.23760 0.92602
 C609 C 0.43924 0.22816 0.88170
 C610 C 0.45671 0.21968 0.87226
 H611 H 0.39025 0.29224 0.89871
 H612 H 0.42141 0.27232 0.87461
 H613 H 0.41284 0.20809 0.91662
 H614 H 0.38168 0.22801 0.94072
 C615 C 0.64495 0.71537 0.95102
 C616 C 0.63247 0.72616 0.93711
 C617 C 0.61642 0.73869 0.92130
 C618 C 0.60535 0.72643 0.90238
 C619 C 0.58765 0.73776 0.88873
 C620 C 0.58095 0.76137 0.89395
 C621 C 0.59250 0.77386 0.91242
 C622 C 0.61020 0.76253 0.92607
 C623 C 0.56087 0.77203 0.88179
 C624 C 0.54338 0.78052 0.87239
 H625 H 0.60987 0.70792 0.89867
 H626 H 0.57869 0.72788 0.87462
 H627 H 0.58731 0.79205 0.91674
 H628 H 0.61848 0.77210 0.94080
 C629 C 0.35554 0.71518 0.04904
 C630 C 0.36805 0.72600 0.06294
 C631 C 0.38410 0.73856 0.07873
 C632 C 0.39522 0.72634 0.09763
 C633 C 0.41290 0.73773 0.11128
 C634 C 0.41953 0.76137 0.10608
 C635 C 0.40794 0.77381 0.08762
 C636 C 0.39026 0.76243 0.07397
 C637 C 0.43957 0.77210 0.11824
 C638 C 0.45704 0.78064 0.12766
 H639 H 0.39075 0.70782 0.10133
 H640 H 0.42189 0.72788 0.12538
 H641 H 0.41307 0.79203 0.08332
 H642 H 0.38193 0.77198 0.05926
 C643 C 0.64487 0.28459 0.04894
 C644 C 0.63237 0.27381 0.06286
 C645 C 0.61632 0.26131 0.07869
 C646 C 0.61003 0.23748 0.07390
 C647 C 0.59233 0.22618 0.08759
 C648 C 0.58087 0.23867 0.10610
 C649 C 0.58765 0.26227 0.11132
 C650 C 0.60534 0.27357 0.09764
 C651 C 0.56081 0.22804 0.11829
 C652 C 0.54332 0.21957 0.12773
 H653 H 0.61825 0.22791 0.05915
 H654 H 0.58709 0.20799 0.08327
 H655 H 0.57876 0.27215 0.12546
 H656 H 0.60992 0.29207 0.10135
 C657 C 0.28378 0.04823 0.64498
 C658 C 0.27297 0.06220 0.63256
 C659 C 0.26044 0.07810 0.61662
 C660 C 0.27265 0.09721 0.60585
 C661 C 0.26133 0.11099 0.58825
 C662 C 0.23776 0.10571 0.58136
 C663 C 0.22532 0.08704 0.59261
 C664 C 0.23664 0.07325 0.61021
 C665 C 0.22714 0.11801 0.56136
 C666 C 0.21869 0.12752 0.54392
 H667 H 0.29112 0.10097 0.61051
 H668 H 0.27118 0.12525 0.57952
 H669 H 0.20716 0.08267 0.58727
 H670 H 0.22711 0.05838 0.61827
 C671 C 0.71537 0.04781 0.35504
 C672 C 0.72621 0.06182 0.36740
 C673 C 0.73881 0.07775 0.38329
 C674 C 0.72663 0.09685 0.39412
 C675 C 0.73802 0.11067 0.41165
 C676 C 0.76164 0.10545 0.41842
 C677 C 0.77404 0.08679 0.40710
 C678 C 0.76265 0.07297 0.38957
 C679 C 0.77235 0.11778 0.43836
 C680 C 0.78086 0.12732 0.45577
 H681 H 0.70812 0.10057 0.38956
 H682 H 0.72820 0.12492 0.42044
 H683 H 0.79224 0.08246 0.41234
 H684 H 0.77216 0.05811 0.38146
 C685 C 0.71589 0.95164 0.64484
 C686 C 0.72671 0.93765 0.63245
 C687 C 0.73926 0.92173 0.61654
 C688 C 0.76311 0.92649 0.61029
 C689 C 0.77447 0.91271 0.59271
 C690 C 0.76201 0.89411 0.58133
 C691 C 0.73839 0.88891 0.58807
 C692 C 0.72703 0.90270 0.60565
 C693 C 0.77267 0.88184 0.56134
 C694 C 0.78116 0.87234 0.54391
 H695 H 0.77266 0.94130 0.61844
 H696 H 0.79267 0.91701 0.58748
 H697 H 0.72852 0.87471 0.57924
 H698 H 0.70852 0.89899 0.61019
 C699 C 0.28424 0.95155 0.35528
 C700 C 0.27346 0.93755 0.36769
 C701 C 0.26095 0.92162 0.38362
 C702 C 0.27323 0.90264 0.39453
 C703 C 0.26191 0.88884 0.41211
 C704 C 0.23828 0.89397 0.41885
 C705 C 0.22577 0.91251 0.40746
 C706 C 0.23709 0.92631 0.38988
 C707 C 0.22764 0.88167 0.43883
 C708 C 0.21916 0.87214 0.45625
 H709 H 0.29176 0.89899 0.38998
 H710 H 0.27181 0.87467 0.42095
 H711 H 0.20756 0.91677 0.41268
 H712 H 0.22750 0.94108 0.38171
 C713 C 0.04840 0.35524 0.71535
 C714 C 0.06236 0.36765 0.72621
 C715 C 0.07823 0.38360 0.73880
 C716 C 0.07339 0.38987 0.76262
 C717 C 0.08713 0.40747 0.77401
 C718 C 0.10575 0.41887 0.76163
 C719 C 0.11103 0.41212 0.73804
 C720 C 0.09729 0.39452 0.72665
 C721 C 0.11799 0.43887 0.77233
 C722 C 0.12747 0.45631 0.78086
 H723 H 0.05856 0.38170 0.77212
 H724 H 0.08276 0.41270 0.79219
 H725 H 0.12525 0.42097 0.72823
 H726 H 0.10105 0.38997 0.70816
 C727 C 0.04870 0.64489 0.28433
 C728 C 0.06267 0.63246 0.27353
 C729 C 0.07855 0.61648 0.26101
 C730 C 0.07375 0.61017 0.23719
 C731 C 0.08748 0.59253 0.22588
 C732 C 0.10606 0.58113 0.23835
 C733 C 0.11130 0.58794 0.26194
 C734 C 0.09756 0.60558 0.27325
 C735 C 0.11829 0.56110 0.22773
 C736 C 0.12775 0.54363 0.21926
 H737 H 0.05895 0.61833 0.22764
 H738 H 0.08315 0.58726 0.20771
 H739 H 0.12549 0.57910 0.27181
 H740 H 0.10129 0.61017 0.29174
 C741 C 0.95127 0.35511 0.28437
 C742 C 0.93730 0.36754 0.27358
 C743 C 0.92143 0.38353 0.26107
 C744 C 0.90245 0.39449 0.27332
 C745 C 0.88873 0.41214 0.26201
 C746 C 0.89393 0.41890 0.23842
 C747 C 0.91247 0.40746 0.22593
 C748 C 0.92619 0.38981 0.23724
 C749 C 0.88171 0.43894 0.22779
 C750 C 0.87225 0.45640 0.21932
 H751 H 0.89875 0.38992 0.29182
 H752 H 0.87457 0.42101 0.27190
 H753 H 0.91678 0.41270 0.20775
 H754 H 0.94096 0.38161 0.22767
 C755 C 0.95122 0.64479 0.71548
 C756 C 0.93723 0.63239 0.72628
 C757 C 0.92133 0.61643 0.73880
 C758 C 0.92607 0.61020 0.76265
 C759 C 0.91233 0.59257 0.77397
 C760 C 0.89379 0.58110 0.76148
 C761 C 0.88861 0.58783 0.73786
 C762 C 0.90235 0.60546 0.72655
 C763 C 0.88156 0.56107 0.77212
 C764 C 0.87210 0.54361 0.78059
 H765 H 0.94084 0.61841 0.77222
 H766 H 0.91662 0.58736 0.79217
 H767 H 0.87446 0.57893 0.72798
 H768 H 0.89867 0.60999 0.70804
 C769 C 0.71546 0.64456 0.95235
 C770 C 0.72631 0.63208 0.93845
 C771 C 0.73888 0.61610 0.92258
 C772 C 0.76258 0.60947 0.92760
 C773 C 0.77393 0.59193 0.91376
 C774 C 0.76163 0.58093 0.89483
 C775 C 0.73815 0.58802 0.88940
 C776 C 0.72680 0.60556 0.90324
 C777 C 0.77228 0.56101 0.88240
 C778 C 0.78074 0.54361 0.87277
 H779 H 0.77201 0.61734 0.94264
 H780 H 0.79201 0.58645 0.91826
 H781 H 0.72840 0.57949 0.87494
 H782 H 0.70841 0.61039 0.89931
 C783 C 0.28451 0.35535 0.95241
 C784 C 0.27362 0.36780 0.93851
 C785 C 0.26101 0.38376 0.92265
 C786 C 0.23731 0.39037 0.92771
 C787 C 0.22592 0.40790 0.91388
 C788 C 0.23818 0.41889 0.89493
 C789 C 0.26164 0.41181 0.88946
 C790 C 0.27303 0.39428 0.90329
 C791 C 0.22750 0.43881 0.88252
 C792 C 0.21902 0.45621 0.87292
 H793 H 0.22791 0.38251 0.94276
 H794 H 0.20785 0.41338 0.91841
 H795 H 0.27137 0.42033 0.87498
 H796 H 0.29142 0.38946 0.89933
 C797 C 0.28489 0.64444 0.04784
 C798 C 0.27402 0.63199 0.06175
 C799 C 0.26142 0.61603 0.07763
 C800 C 0.27349 0.60544 0.09692
 C801 C 0.26210 0.58791 0.11075
 C802 C 0.23859 0.58090 0.10535
 C803 C 0.22630 0.59197 0.08646
 C804 C 0.23769 0.60949 0.07263
 C805 C 0.22790 0.56099 0.11776
 C806 C 0.21940 0.54360 0.12736
 H807 H 0.29192 0.61020 0.10082
 H808 H 0.27186 0.57933 0.12518
 H809 H 0.20819 0.58654 0.08199
 H810 H 0.22825 0.61741 0.05763
 C811 C 0.71548 0.35529 0.04770
 C812 C 0.72634 0.36775 0.06163
 C813 C 0.73890 0.38374 0.07752
 C814 C 0.72681 0.39428 0.09683
 C815 C 0.73815 0.41184 0.11067
 C816 C 0.76163 0.41894 0.10525
 C817 C 0.77394 0.40793 0.08636
 C818 C 0.76260 0.39036 0.07252
 C819 C 0.77226 0.43889 0.11767
 C820 C 0.78071 0.45630 0.12728
 H821 H 0.70841 0.38945 0.10073
 H822 H 0.72838 0.42038 0.12511
 H823 H 0.79202 0.41342 0.08188
 H824 H 0.77205 0.38249 0.05750
 C825 C 0.95271 0.71519 0.64470
 C826 C 0.93879 0.72607 0.63226
 C827 C 0.92290 0.73867 0.61632
 C828 C 0.92798 0.76235 0.60969
 C829 C 0.91411 0.77373 0.59218
 C830 C 0.89511 0.76149 0.58123
 C831 C 0.88963 0.73804 0.58833
 C832 C 0.90349 0.72666 0.60583
 C833 C 0.88266 0.77216 0.56133
 C834 C 0.87303 0.78063 0.54394
 H835 H 0.94307 0.77174 0.61752
 H836 H 0.91865 0.79179 0.58669
 H837 H 0.87511 0.72833 0.57983
 H838 H 0.89953 0.70828 0.61066
 C839 C 0.95263 0.28453 0.35497
 C840 C 0.93868 0.27362 0.36736
 C841 C 0.92276 0.26099 0.38325
 C842 C 0.90327 0.27296 0.39362
 C843 C 0.88938 0.26156 0.41109
 C844 C 0.89491 0.23816 0.41827
 C845 C 0.91399 0.22596 0.40743
 C846 C 0.92789 0.23735 0.38996
 C847 C 0.88243 0.22750 0.43816
 C848 C 0.87279 0.21905 0.45555
 H849 H 0.89927 0.29131 0.38872
 H850 H 0.87480 0.27124 0.41950
 H851 H 0.91857 0.20794 0.41300
 H852 H 0.94304 0.22800 0.38222
 C853 C 0.04712 0.28480 0.64455
 C854 C 0.06106 0.27392 0.63213
 C855 C 0.07698 0.26131 0.61622
 C856 C 0.07192 0.23762 0.60960
 C857 C 0.08581 0.22623 0.59211
 C858 C 0.10481 0.23848 0.58118
 C859 C 0.11027 0.26194 0.58828
 C860 C 0.09639 0.27333 0.60576
 C861 C 0.11728 0.22781 0.56129
 C862 C 0.12692 0.21934 0.54391
 H863 H 0.05684 0.22823 0.61741
 H864 H 0.08129 0.20817 0.58662
 H865 H 0.12478 0.27166 0.57979
 H866 H 0.10033 0.29171 0.61059
 C867 C 0.04743 0.71534 0.35507
 C868 C 0.06139 0.72619 0.36751
 C869 C 0.07732 0.73874 0.38346
 C870 C 0.09673 0.72669 0.39387
 C871 C 0.11061 0.73801 0.41141
 C872 C 0.10515 0.76143 0.41861
 C873 C 0.08615 0.77372 0.40772
 C874 C 0.07226 0.76240 0.39018
 C875 C 0.11761 0.77202 0.43855
 C876 C 0.12725 0.78043 0.45597
 H877 H 0.10067 0.70833 0.38897
 H878 H 0.12512 0.72826 0.41986
 H879 H 0.08163 0.79175 0.41329
 H880 H 0.05717 0.77182 0.38240
 C881 C 0.64444 0.95222 0.71602
 C882 C 0.63192 0.93835 0.72687
 C883 C 0.61589 0.92250 0.73941
 C884 C 0.60909 0.92765 0.76302
 C885 C 0.59151 0.91381 0.77433
 C886 C 0.58065 0.89478 0.76207
 C887 C 0.58791 0.88923 0.73869
 C888 C 0.60549 0.90306 0.72739
 C889 C 0.56069 0.88233 0.77266
 C890 C 0.54328 0.87268 0.78108
 H891 H 0.61686 0.94276 0.77242
 H892 H 0.58589 0.91840 0.79233
 H893 H 0.57948 0.87468 0.72897
 H894 H 0.61046 0.89904 0.70906
 C895 C 0.35569 0.95217 0.28410
 C896 C 0.36823 0.93831 0.27327
 C897 C 0.38429 0.92248 0.26073
 C898 C 0.39478 0.90312 0.27279
 C899 C 0.41238 0.88932 0.26148
 C900 C 0.41957 0.89481 0.23807
 C901 C 0.40862 0.91377 0.22579
 C902 C 0.39102 0.92757 0.23709
 C903 C 0.43955 0.88240 0.22747
 C904 C 0.45697 0.87280 0.21905
 H905 H 0.38987 0.89914 0.29114
 H906 H 0.42087 0.87483 0.27122
 H907 H 0.41419 0.91831 0.20776
 H908 H 0.38319 0.94262 0.22767
 C909 C 0.64460 0.04841 0.28451
 C910 C 0.63207 0.06229 0.27370
 C911 C 0.61601 0.07813 0.26118
 C912 C 0.60940 0.07315 0.23747
 C913 C 0.59180 0.08695 0.22616
 C914 C 0.58073 0.10580 0.23851
 C915 C 0.58780 0.11120 0.26198
 C916 C 0.60541 0.09739 0.27329
 C917 C 0.56076 0.11820 0.22788
 C918 C 0.54334 0.12779 0.21944
 H919 H 0.61733 0.05817 0.22800
 H920 H 0.58633 0.08249 0.20808
 H921 H 0.57922 0.12559 0.27177
 H922 H 0.61022 0.10129 0.29169
 C923 C 0.35524 0.04795 0.71615
 C924 C 0.36776 0.06187 0.72694
 C925 C 0.38381 0.07777 0.73940
 C926 C 0.39424 0.09711 0.72727
 C927 C 0.41187 0.11097 0.73850
 C928 C 0.41913 0.10554 0.76191
 C929 C 0.40823 0.08661 0.77427
 C930 C 0.39060 0.07275 0.76304
 C931 C 0.43913 0.11799 0.77243
 C932 C 0.45657 0.12764 0.78079
 H933 H 0.38928 0.10103 0.70892
 H934 H 0.42032 0.12543 0.72870
 H935 H 0.41385 0.08212 0.79230
 H936 H 0.38281 0.05771 0.77252
 C937 C 0.64480 0.71579 0.04753
 C938 C 0.63235 0.72666 0.06144
 C939 C 0.61640 0.73924 0.07734
 C940 C 0.60605 0.72724 0.09681
 C941 C 0.58853 0.73859 0.11069
 C942 C 0.58129 0.76198 0.10517
 C943 C 0.59210 0.77420 0.08610
 C944 C 0.60962 0.76286 0.07221
 C945 C 0.56137 0.77259 0.11765
 C946 C 0.54397 0.78101 0.12731
 H947 H 0.61100 0.70891 0.10081
 H948 H 0.58014 0.72888 0.12526
 H949 H 0.58649 0.79221 0.08153
 H950 H 0.61734 0.77224 0.05708
 C951 C 0.35543 0.28433 0.04755
 C952 C 0.36792 0.27349 0.06146
 C953 C 0.38391 0.26095 0.07735
 C954 C 0.39425 0.27298 0.09682
 C955 C 0.41179 0.26167 0.11071
 C956 C 0.41906 0.23829 0.10519
 C957 C 0.40826 0.22603 0.08612
 C958 C 0.39072 0.23734 0.07223
 C959 C 0.43899 0.22771 0.11769
 C960 C 0.45639 0.21931 0.12737
 H961 H 0.38928 0.29131 0.10082
 H962 H 0.42017 0.27140 0.12527
 H963 H 0.41389 0.20802 0.08156
 H964 H 0.38300 0.22794 0.05710
 C965 C 0.64470 0.28427 0.95241
 C966 C 0.63222 0.27345 0.93847
 C967 C 0.61623 0.26094 0.92255
 C968 C 0.60944 0.23730 0.92759
 C969 C 0.59187 0.22603 0.91370
 C970 C 0.58103 0.23834 0.89470
 C971 C 0.58829 0.26175 0.88925
 C972 C 0.60585 0.27302 0.90314
 C973 C 0.56107 0.22779 0.88221
 C974 C 0.54365 0.21941 0.87255
 H975 H 0.61718 0.22786 0.94268
 H976 H 0.58625 0.20801 0.91820
 H977 H 0.57988 0.27151 0.87474
 H978 H 0.61082 0.29137 0.89921
 C979 C 0.35560 0.71546 0.95256
 C980 C 0.36807 0.72631 0.93863
 C981 C 0.38403 0.73887 0.92273
 C982 C 0.39447 0.72682 0.90334
 C983 C 0.41199 0.73816 0.88946
 C984 C 0.41915 0.76160 0.89491
 C985 C 0.40824 0.77388 0.91389
 C986 C 0.39072 0.76254 0.92778
 C987 C 0.43906 0.77224 0.88243
 C988 C 0.45645 0.78068 0.87277
 H989 H 0.38959 0.70845 0.89940
 H990 H 0.42045 0.72842 0.87496
 H991 H 0.41378 0.79194 0.91840
 H992 H 0.38292 0.77196 0.94285
 C993 C 0.71631 0.95222 0.35600
 C994 C 0.72714 0.93832 0.36849
 C995 C 0.73968 0.92245 0.38450
 C996 C 0.72761 0.90304 0.39490
 C997 C 0.73892 0.88919 0.41247
 C998 C 0.76234 0.89469 0.41970
 C999 C 0.77464 0.91368 0.40883
 C1000 C 0.76333 0.92754 0.39127
 C1001 C 0.77293 0.88223 0.43964
 C1002 C 0.78135 0.87258 0.45704
 H1003 H 0.70925 0.89907 0.38996
 H1004 H 0.72917 0.87468 0.42090
 H1005 H 0.79267 0.91822 0.41443
 H1006 H 0.77276 0.94262 0.38350
 C1007 C 0.28366 0.95169 0.64454
 C1008 C 0.27286 0.93779 0.63201
 C1009 C 0.26038 0.92193 0.61593
 C1010 C 0.23672 0.92697 0.60916
 C1011 C 0.22548 0.91315 0.59152
 C1012 C 0.23784 0.89424 0.58058
 C1013 C 0.26126 0.88879 0.58782
 C1014 C 0.27250 0.90260 0.60546
 C1015 C 0.22730 0.88183 0.56057
 C1016 C 0.21893 0.87222 0.54313
 H1017 H 0.22725 0.94200 0.61698
 H1018 H 0.20744 0.91766 0.58591
 H1019 H 0.27106 0.87433 0.57934
 H1020 H 0.29087 0.89867 0.61041
 C1021 C 0.28385 0.04808 0.35584
 C1022 C 0.27300 0.06193 0.36838
 C1023 C 0.26043 0.07774 0.38443
 C1024 C 0.23679 0.07260 0.39116
 C1025 C 0.22546 0.08639 0.40875
 C1026 C 0.23772 0.10538 0.41969
 C1027 C 0.26113 0.11093 0.41249
 C1028 C 0.27247 0.09713 0.39490
 C1029 C 0.22710 0.11779 0.43964
 C1030 C 0.21865 0.12740 0.45705
 H1031 H 0.22738 0.05752 0.38334
 H1032 H 0.20742 0.08181 0.41432
 H1033 H 0.27086 0.12544 0.42097
 H1034 H 0.29082 0.10115 0.38998
 C1035 C 0.71607 0.04816 0.64409
 C1036 C 0.72689 0.06200 0.63152
 C1037 C 0.73941 0.07779 0.61542
 C1038 C 0.76307 0.07269 0.60869
 C1039 C 0.77436 0.08646 0.59105
 C1040 C 0.76205 0.10538 0.58007
 C1041 C 0.73862 0.11088 0.58726
 C1042 C 0.72733 0.09712 0.60490
 C1043 C 0.77264 0.11775 0.56008
 C1044 C 0.78105 0.12733 0.54264
 H1045 H 0.77251 0.05767 0.61655
 H1046 H 0.79240 0.08191 0.58549
 H1047 H 0.72886 0.12533 0.57874
 H1048 H 0.70897 0.10109 0.60981
 C1049 C 0.95211 0.64444 0.28415
 C1050 C 0.93821 0.63193 0.27332
 C1051 C 0.92234 0.61590 0.26078
 C1052 C 0.92741 0.60918 0.23713
 C1053 C 0.91357 0.59159 0.22583
 C1054 C 0.89460 0.58066 0.23812
 C1055 C 0.88912 0.58785 0.26153
 C1056 C 0.90296 0.60544 0.27284
 C1057 C 0.88216 0.56070 0.22752
 C1058 C 0.87253 0.54329 0.21910
 H1059 H 0.94248 0.61700 0.22771
 H1060 H 0.91810 0.58603 0.20779
 H1061 H 0.87463 0.57937 0.27128
 H1062 H 0.89900 0.61035 0.29120
 C1063 C 0.95184 0.35574 0.71539
 C1064 C 0.93795 0.36824 0.72623
 C1065 C 0.92210 0.38425 0.73880
 C1066 C 0.90277 0.39480 0.72675
 C1067 C 0.88894 0.41235 0.73812
 C1068 C 0.89439 0.41942 0.76158
 C1069 C 0.91332 0.40839 0.77386
 C1070 C 0.92714 0.39085 0.76250
 C1071 C 0.88197 0.43934 0.77225
 C1072 C 0.87235 0.45673 0.78073
 H1073 H 0.89883 0.38999 0.70836
 H1074 H 0.87448 0.42090 0.72838
 H1075 H 0.91782 0.41386 0.79193
 H1076 H 0.94218 0.38296 0.77192
 C1077 C 0.04780 0.64421 0.71577
 C1078 C 0.06167 0.63170 0.72664
 C1079 C 0.07750 0.61570 0.73923
 C1080 C 0.09693 0.60524 0.72724
 C1081 C 0.11075 0.58769 0.73861
 C1082 C 0.10521 0.58052 0.76201
 C1083 C 0.08619 0.59145 0.77424
 C1084 C 0.07237 0.60899 0.76287
 C1085 C 0.11764 0.56059 0.77267
 C1086 C 0.12725 0.54319 0.78112
 H1087 H 0.10094 0.61012 0.70889
 H1088 H 0.12528 0.57921 0.72891
 H1089 H 0.08162 0.58590 0.79226
 H1090 H 0.05727 0.61681 0.77225
 C1091 C 0.04784 0.35568 0.28423
 C1092 C 0.06173 0.36820 0.27340
 C1093 C 0.07758 0.38423 0.26087
 C1094 C 0.09695 0.39474 0.27293
 C1095 C 0.11079 0.41230 0.26160
 C1096 C 0.10533 0.41943 0.23816
 C1097 C 0.08636 0.40846 0.22587
 C1098 C 0.07252 0.39091 0.23720
 C1099 C 0.11778 0.43936 0.22753
 C1100 C 0.12743 0.45675 0.21909
 H1101 H 0.10090 0.38987 0.29129
 H1102 H 0.12528 0.42080 0.27135
 H1103 H 0.08185 0.41398 0.20782
 H1104 H 0.05746 0.38306 0.22777
   
