data_POSCAR
  _audit_creation_date              2014-09-24
  _audit_creation_method            'ToBaCCo'
  _symmetry_space_group_name_H-M    'P1'
  _symmetry_Int_Tables_number       1
  _symmetry_cell_setting            triclinic
  loop_
  _symmetry_equiv_pos_as_xyz
 x,y,z
_cell_length_a 51.4099
_cell_length_b 50.3791
_cell_length_c 49.0749
_cell_angle_alpha 90.264400
_cell_angle_beta 89.823500
_cell_angle_gamma 87.324500
loop_
  _atom_site_label
  _atom_site_type_symbol
  _atom_site_fract_x
  _atom_site_fract_y
  _atom_site_fract_z
C1 C 0.61812 0.64932 0.61680
 C2 C 0.64266 0.63945 0.60785
 C3 C 0.65234 0.61492 0.61675
 C4 C 0.63794 0.60023 0.63513
 C5 C 0.61357 0.60974 0.64365
 C6 C 0.60351 0.63439 0.63427
 C7 C 0.60371 0.67240 0.61140
 N8 N 0.58071 0.67166 0.62495
 C9 C 0.58035 0.64851 0.63894
 C10 C 0.60436 0.59158 0.66178
 N11 N 0.62286 0.57163 0.66490
 C12 C 0.64335 0.57668 0.64846
 C13 C 0.67556 0.60948 0.60342
 N14 N 0.68023 0.63016 0.58678
 C15 C 0.66040 0.64874 0.58952
 H16 H 0.60938 0.68841 0.59833
 H17 H 0.56447 0.64250 0.65172
 H18 H 0.58605 0.59336 0.67275
 H19 H 0.66120 0.56448 0.64680
 H20 H 0.68775 0.59144 0.60502
 H21 H 0.65838 0.66697 0.57797
 C22 C 0.88468 0.35090 0.11407
 C23 C 0.86181 0.36228 0.10268
 C24 C 0.85060 0.38550 0.11359
 C25 C 0.86189 0.39741 0.13627
 C26 C 0.88439 0.38611 0.14758
 C27 C 0.89573 0.36256 0.13655
 C28 C 0.90014 0.32880 0.10731
 N29 N 0.92005 0.32651 0.12545
 C30 C 0.91741 0.34703 0.14351
 C31 C 0.89123 0.40218 0.16892
 N32 N 0.87324 0.42270 0.17096
 C33 C 0.85517 0.41991 0.15118
 C34 C 0.82891 0.39219 0.09828
 N35 N 0.82651 0.37337 0.07868
 C36 C 0.84648 0.35496 0.08122
 H37 H 0.89698 0.31526 0.09057
 H38 H 0.93051 0.35065 0.16022
 H39 H 0.90796 0.39913 0.18208
 H40 H 0.83855 0.43346 0.14770
 H41 H 0.81565 0.40928 0.10136
 H42 H 0.84968 0.33766 0.06826
 C43 C 0.39149 0.14995 -0.11138
 C44 C 0.36933 0.13890 -0.10016
 C45 C 0.35877 0.11715 -0.11255
 C46 C 0.36994 0.10643 -0.13650
 C47 C 0.39181 0.11727 -0.14755
 C48 C 0.40253 0.13929 -0.13502
 C49 C 0.40603 0.17101 -0.10375
 N50 N 0.42530 0.17355 -0.12240
 C51 C 0.42329 0.15432 -0.14163
 C52 C 0.39852 0.10273 -0.17055
 N53 N 0.38097 0.08363 -0.17394
 C54 C 0.36337 0.08582 -0.15323
 C55 C 0.33768 0.11041 -0.09717
 N56 N 0.33499 0.12777 -0.07602
 C57 C 0.35415 0.14535 -0.07769
 H58 H 0.40263 0.18380 -0.08618
 H59 H 0.43607 0.15143 -0.15908
 H60 H 0.41476 0.10609 -0.18403
 H61 H 0.34706 0.07325 -0.15040
 H62 H 0.32503 0.09427 -0.10121
 H63 H 0.35694 0.16145 -0.06346
 C64 C 0.11015 0.84686 0.38703
 C65 C 0.13240 0.85696 0.39899
 C66 C 0.14391 0.87853 0.38747
 C67 C 0.13356 0.89006 0.36368
 C68 C 0.11155 0.88019 0.35194
 C69 C 0.09991 0.85826 0.36355
 C70 C 0.09468 0.82638 0.39401
 N71 N 0.07554 0.82478 0.37509
 C72 C 0.07864 0.84419 0.35634
 C73 C 0.10544 0.89577 0.32965
 N74 N 0.12347 0.91456 0.32740
 C75 C 0.14081 0.91110 0.34807
 C76 C 0.16460 0.88455 0.40371
 N77 N 0.16609 0.86696 0.42456
 C78 C 0.14656 0.84992 0.42183
 H79 H 0.09735 0.81343 0.41143
 H80 H 0.06622 0.84796 0.33886
 H81 H 0.08915 0.89348 0.31603
 H82 H 0.15726 0.92328 0.35180
 H83 H 0.17766 0.90053 0.40059
 H84 H 0.14271 0.83391 0.43570
 N85 N 0.09452 0.16481 0.11404
 N86 N 0.08481 0.15443 0.13618
 C87 C 0.06321 0.16883 0.14368
 C88 C 0.05899 0.18892 0.12494
 C89 C 0.07910 0.18577 0.10633
 H90 H 0.05119 0.16487 0.16118
 H91 H 0.08259 0.19821 0.08892
 Cu92 Cu 0.10079 0.12253 0.15241
 Cu93 Cu 0.12728 0.15150 0.09798
 Cu94 Cu 0.15659 0.09501 0.12679
 N95 N 0.11660 0.08985 0.16717
 N96 N 0.13905 0.07991 0.15791
 C97 C 0.14619 0.05819 0.17245
 C98 C 0.12695 0.05406 0.19144
 C99 C 0.10840 0.07439 0.18750
 H100 H 0.16379 0.04598 0.16914
 H101 H 0.09052 0.07781 0.19892
 N102 N 0.17128 0.11315 0.09518
 N103 N 0.16052 0.13510 0.08470
 C104 C 0.17556 0.14315 0.06407
 C105 C 0.19648 0.12516 0.06120
 C106 C 0.19316 0.10635 0.08111
 H107 H 0.17146 0.16055 0.05171
 H108 H 0.20593 0.08918 0.08516
 H109 H 0.12339 0.11246 0.10959
 H110 H 0.14247 0.13373 0.13269
 N111 N 0.40263 0.83154 0.61558
 N112 N 0.41717 0.84725 0.62988
 C113 C 0.44050 0.83474 0.63432
 C114 C 0.44036 0.80984 0.62245
 C115 C 0.41605 0.80839 0.61080
 H116 H 0.45620 0.84277 0.64589
 H117 H 0.40886 0.79189 0.59934
 Cu118 Cu 0.40322 0.88133 0.64356
 Cu119 Cu 0.36816 0.84293 0.60251
 Cu120 Cu 0.34372 0.90456 0.62477
 N121 N 0.38866 0.91533 0.65690
 N122 N 0.36480 0.92353 0.65053
 C123 C 0.35814 0.94553 0.66505
 C124 C 0.37902 0.95159 0.68116
 C125 C 0.39814 0.93215 0.67545
 H126 H 0.33929 0.95598 0.66448
 H127 H 0.41687 0.92963 0.68530
 N128 N 0.32530 0.88245 0.59871
 N129 N 0.33397 0.85845 0.59116
 C130 C 0.31744 0.84881 0.57270
 C131 C 0.29773 0.86784 0.56823
 C132 C 0.30328 0.88887 0.58499
 H133 H 0.32030 0.83005 0.56206
 H134 H 0.29244 0.90775 0.58642
 H135 H 0.37374 0.88315 0.60483
 H136 H 0.35913 0.86735 0.63530
 N137 N 0.90997 0.66936 0.38721
 N138 N 0.91580 0.66309 0.36181
 C139 C 0.93476 0.67855 0.35304
 C140 C 0.94138 0.69501 0.37428
 C141 C 0.92540 0.68858 0.39571
 H142 H 0.94356 0.67749 0.33299
 H143 H 0.92484 0.69738 0.41586
 Cu144 Cu 0.89928 0.63405 0.34349
 Cu145 Cu 0.88281 0.65211 0.40732
 Cu146 Cu 0.84289 0.61358 0.36798
 N147 N 0.88375 0.60242 0.32909
 N148 N 0.86102 0.59519 0.33802
 C149 C 0.85366 0.57413 0.32350
 C150 C 0.87307 0.56751 0.30482
 C151 C 0.89194 0.58580 0.30892
 H152 H 0.83568 0.56419 0.32655
 H153 H 0.90997 0.58721 0.29771
 N154 N 0.83373 0.62571 0.40505
 N155 N 0.84874 0.64054 0.41998
 C156 C 0.83686 0.64583 0.44404
 C157 C 0.81359 0.63319 0.44437
 C158 C 0.81225 0.62053 0.41945
 H159 H 0.84469 0.65767 0.46024
 H160 H 0.79671 0.60856 0.41229
 H161 H 0.87849 0.61744 0.38433
 H162 H 0.86249 0.64921 0.37217
 N163 N 0.59044 0.33169 -0.11152
 N164 N 0.58050 0.34161 -0.13416
 C165 C 0.55982 0.32771 -0.14134
 C166 C 0.55647 0.30837 -0.12196
 C167 C 0.57613 0.31148 -0.10326
 H168 H 0.54797 0.33136 -0.15922
 H169 H 0.58008 0.29951 -0.08538
 Cu170 Cu 0.59543 0.37184 -0.15188
 Cu171 Cu 0.62197 0.34477 -0.09529
 Cu172 Cu 0.64953 0.39796 -0.12728
 N173 N 0.61073 0.40208 -0.16925
 N174 N 0.63256 0.41138 -0.16017
 C175 C 0.63972 0.43118 -0.17648
 C176 C 0.62116 0.43473 -0.19656
 C177 C 0.60295 0.41606 -0.19137
 H178 H 0.65689 0.44249 -0.17371
 H179 H 0.58565 0.41270 -0.20313
 N180 N 0.66382 0.38168 -0.09378
 N181 N 0.65386 0.36087 -0.08208
 C182 C 0.66854 0.35382 -0.06034
 C183 C 0.68833 0.37131 -0.05809
 C184 C 0.68474 0.38874 -0.07949
 H185 H 0.66495 0.33747 -0.04685
 H186 H 0.69674 0.40513 -0.08439
 H187 H 0.61674 0.38320 -0.10936
 H188 H 0.63714 0.35960 -0.13079
 C189 C -0.02196 0.26853 0.12533
 N190 N -0.03862 0.27105 0.10401
 N191 N -0.05774 0.28984 0.10417
 C192 C -0.06064 0.30712 0.12545
 N193 N -0.04377 0.30466 0.14667
 N194 N -0.02494 0.28558 0.14672
 C195 C -0.00101 0.24777 0.12522
 N196 N 0.00786 0.23703 0.14895
 N197 N 0.02681 0.21807 0.14884
 C198 C 0.03787 0.20951 0.12503
 N199 N 0.02915 0.22040 0.10131
 N200 N 0.00988 0.23904 0.10139
 C201 C 0.52133 0.73018 0.62356
 N202 N 0.51605 0.70453 0.62868
 N203 N 0.53516 0.68574 0.62931
 C204 C 0.56019 0.69189 0.62447
 N205 N 0.56544 0.71753 0.61917
 N206 N 0.54637 0.73637 0.61891
 C207 C 0.50031 0.75090 0.62314
 N208 N 0.50555 0.77679 0.62709
 N209 N 0.48642 0.79557 0.62699
 C210 C 0.46143 0.78916 0.62257
 N211 N 0.45621 0.76329 0.61842
 N212 N 0.47529 0.74447 0.61888
 C213 C 1.01900 0.77070 0.37463
 N214 N 1.02186 0.78722 0.35318
 N215 N 1.04021 0.80505 0.35341
 C216 C 1.05662 0.80679 0.37495
 N217 N 1.05379 0.79009 0.39633
 N218 N 1.03523 0.77251 0.39625
 C219 C 0.99873 0.75114 0.37449
 N220 N 0.99017 0.74084 0.39822
 N221 N 0.97174 0.72311 0.39815
 C222 C 0.96147 0.71477 0.37432
 N223 N 0.97014 0.72494 0.35057
 N224 N 0.98833 0.74295 0.35067
 C225 C 0.48057 0.23088 -0.12178
 N226 N 0.47397 0.21889 -0.14543
 N227 N 0.45632 0.20036 -0.14558
 C228 C 0.44438 0.19339 -0.12214
 N229 N 0.45085 0.20551 -0.09850
 N230 N 0.46875 0.22381 -0.09830
 C231 C 0.50016 0.25115 -0.12168
 N232 N 0.51271 0.25735 -0.09836
 N233 N 0.53075 0.27552 -0.09844
 C234 C 0.53663 0.28835 -0.12178
 N235 N 0.52395 0.28227 -0.14504
 N236 N 0.50616 0.26388 -0.14503
 C237 C 0.12493 -0.02766 0.26962
 N238 N 0.10412 -0.04313 0.27183
 N239 N 0.10374 -0.06222 0.29052
 C240 C 0.12399 -0.06627 0.30800
 N241 N 0.14473 -0.05062 0.30583
 N242 N 0.14528 -0.03183 0.28686
 C243 C 0.12541 -0.00664 0.24908
 N244 N 0.14841 0.00157 0.23932
 N245 N 0.14889 0.02074 0.22074
 C246 C 0.12639 0.03268 0.21160
 N247 N 0.10338 0.02461 0.22149
 N248 N 0.10290 0.00514 0.23976
 C249 C 0.62085 0.51162 -0.27986
 N250 N 0.64285 0.51567 -0.29429
 N251 N 0.64330 0.53490 -0.31278
 C252 C 0.62187 0.55111 -0.31728
 N253 N 0.59982 0.54696 -0.30284
 N254 N 0.59927 0.52746 -0.28461
 C255 C 0.62082 0.49114 -0.25872
 N256 N 0.59823 0.48081 -0.25032
 N257 N 0.59834 0.46255 -0.23075
 C258 C 0.62098 0.45429 -0.21861
 N259 N 0.64352 0.46472 -0.22693
 N260 N 0.64346 0.48268 -0.24675
 C261 C 0.38054 1.02932 0.76427
 N262 N 0.40099 1.04514 0.76741
 N263 N 0.40106 1.06304 0.78748
 C264 C 0.38087 1.06551 0.80543
 N265 N 0.36053 1.04949 0.80232
 N266 N 0.36029 1.03188 0.78202
 C267 C 0.38027 1.00964 0.74217
 N268 N 0.35736 1.00071 0.73304
 N269 N 0.35700 0.98255 0.71326
 C270 C 0.37956 0.97238 0.70216
 N271 N 0.40250 0.98123 0.71134
 N272 N 0.40284 0.99969 0.73087
 C273 C 0.87348 0.48402 0.22759
 N274 N 0.85107 0.47773 0.21507
 N275 N 0.85102 0.45811 0.19678
 C276 C 0.87334 0.44384 0.19059
 N277 N 0.89574 0.45003 0.20324
 N278 N 0.89583 0.46987 0.22130
 C279 C 0.87347 0.50572 0.24765
 N280 N 0.89598 0.51708 0.25459
 N281 N 0.89586 0.53690 0.27268
 C282 C 0.87328 0.54585 0.28469
 N283 N 0.85082 0.53439 0.27787
 N284 N 0.85089 0.51479 0.25955
 C285 C 0.27713 0.12692 -0.01705
 N286 N 0.28506 0.10425 -0.03031
 N287 N 0.30360 0.10456 -0.04931
 C288 C 0.31515 0.12748 -0.05547
 N289 N 0.30737 0.15013 -0.04205
 N290 N 0.28857 0.14989 -0.02330
 C291 C 0.25639 0.12658 0.00353
 N292 N 0.24233 0.14918 0.01016
 N293 N 0.22315 0.14872 0.02846
 C294 C 0.21760 0.12571 0.04105
 N295 N 0.23179 0.10316 0.03458
 N296 N 0.25073 0.10355 0.01601
 C297 C 0.73881 0.63176 0.52872
 N298 N 0.72977 0.60833 0.53729
 N299 N 0.71134 0.60784 0.55638
 C300 C 0.70100 0.63079 0.56732
 N301 N 0.70999 0.65426 0.55870
 N302 N 0.72872 0.65472 0.53988
 C303 C 0.75853 0.63215 0.50710
 N304 N 0.77453 0.65273 0.50485
 N305 N 0.79232 0.65296 0.48503
 C306 C 0.79441 0.63283 0.46654
 N307 N 0.77830 0.61237 0.46870
 N308 N 0.76081 0.61193 0.48874
 C309 C 0.76776 0.37228 0.02108
 N310 N 0.77460 0.39555 0.03245
 N311 N 0.79337 0.39588 0.05108
 C312 C 0.80623 0.37298 0.05875
 N313 N 0.79950 0.34972 0.04725
 N314 N 0.78048 0.34936 0.02888
 C315 C 0.74704 0.37197 0.00061
 N316 N 0.73435 0.34944 -0.00447
 N317 N 0.71547 0.34925 -0.02301
 C318 C 0.70886 0.37151 -0.03738
 N319 N 0.72165 0.39398 -0.03241
 N320 N 0.74028 0.39426 -0.01363
 C321 C 0.22052 0.86670 0.48672
 N322 N 0.21465 0.88921 0.47248
 N323 N 0.19725 0.88923 0.45243
 C324 C 0.18485 0.86682 0.44609
 N325 N 0.19058 0.84433 0.46047
 N326 N 0.20823 0.84423 0.48032
 C327 C 0.24003 0.86675 0.50848
 N328 N 0.25192 0.84371 0.51719
 N329 N 0.27023 0.84397 0.53636
 C330 C 0.27703 0.86727 0.54772
 N331 N 0.26495 0.89026 0.53919
 N332 N 0.24688 0.89002 0.51982
   
