data_POSCAR
  _audit_creation_date              2014-09-24
  _audit_creation_method            'ToBaCCo'
  _symmetry_space_group_name_H-M    'P1'
  _symmetry_Int_Tables_number       1
  _symmetry_cell_setting            triclinic
  loop_
  _symmetry_equiv_pos_as_xyz
 x,y,z
_cell_length_a 39.1158
_cell_length_b 32.3264
_cell_length_c 27.8727
_cell_angle_alpha 89.702400
_cell_angle_beta 90.092100
_cell_angle_gamma 89.697600
loop_
  _atom_site_label
  _atom_site_type_symbol
  _atom_site_fract_x
  _atom_site_fract_y
  _atom_site_fract_z
Si1 Si 1.25406 0.24609 0.25353
 Si2 Si 0.74376 -0.24925 0.25058
 Si3 Si 0.74783 0.24953 -0.25720
 Si4 Si 1.25222 -0.24872 -0.25466
 Si5 Si 0.25257 0.24935 0.75102
 Si6 Si 0.74687 0.75266 0.74553
 Si7 Si 0.74472 0.24762 0.25673
 Si8 Si 0.25283 0.74988 0.24960
 O9 O 1.04695 0.06639 0.09395
 O10 O 1.08470 0.03172 0.04549
 C11 C 1.07777 0.05721 0.08018
 O12 O 0.95059 -0.07951 0.08052
 O13 O 0.91235 -0.03752 0.04066
 C14 C 0.91968 -0.06769 0.07002
 O15 O 1.04554 -0.07946 0.08208
 O16 O 1.08407 -0.03966 0.04058
 C17 C 1.07649 -0.06917 0.07059
 O18 O 0.95174 0.07021 0.09273
 O19 O 0.91293 0.03587 0.04578
 C20 C 0.92070 0.06167 0.07970
 Zr21 Zr 0.99904 0.04803 0.06640
 O22 O 0.99674 0.04253 0.14207
 O23 O 1.00269 0.11324 0.07121
 Zr24 Zr 0.99820 -0.05521 0.05884
 O25 O 0.99840 -0.05272 0.13458
 O26 O 0.99724 -0.12065 0.06054
 O27 O 1.02964 -0.00473 0.07162
 O28 O 0.96853 -0.00367 0.07156
 O29 O 0.95069 0.08247 -0.07291
 O30 O 0.91244 0.04028 -0.03433
 C31 C 0.91977 0.07155 -0.06183
 O32 O 1.04500 -0.06796 -0.09084
 O33 O 1.08372 -0.03456 -0.04294
 C34 C 1.07611 -0.05956 -0.07775
 O35 O 0.94954 -0.06905 -0.08769
 O36 O 0.91192 -0.03345 -0.03990
 C37 C 0.91876 -0.05968 -0.07389
 O38 O 1.04578 0.07689 -0.07971
 O39 O 1.08411 0.03647 -0.03791
 C40 C 1.07673 0.06578 -0.06840
 Zr41 Zr 0.99820 0.05510 -0.05455
 O42 O 0.99428 0.05640 -0.13034
 O43 O 1.00219 0.12032 -0.05363
 Zr44 Zr 0.99757 -0.04841 -0.06214
 O45 O 0.99921 -0.04457 -0.13805
 O46 O 0.99910 -0.11384 -0.06550
 Zr47 Zr 1.04979 -0.00094 0.00162
 Zr48 Zr 0.94678 0.00071 0.00262
 O49 O 0.96763 0.00446 -0.06675
 O50 O 1.02866 0.00344 -0.06792
 O51 O 0.96819 0.06035 0.00694
 O52 O 1.02760 -0.05999 -0.00256
 O53 O 1.02835 0.05882 0.00615
 O54 O 0.96732 -0.05961 -0.00194
 H55 H 0.95334 -0.00514 0.09994
 H56 H 1.04263 -0.08464 -0.00482
 H57 H 0.95152 0.00696 -0.09404
 H58 H 1.04351 0.08323 0.00778
 H59 H 1.00611 -0.13049 0.02945
 H60 H 0.98022 -0.12454 -0.04543
 H61 H 0.97980 -0.02738 -0.14933
 H62 H 1.01325 0.03939 -0.14318
 H63 H 0.98834 0.13024 -0.02635
 H64 H 0.98274 0.12538 0.05431
 H65 H 1.01501 0.02304 0.15214
 H66 H 0.99743 -0.08179 0.14590
 O67 O 1.04801 0.57550 0.58084
 O68 O 1.08673 0.53673 0.53826
 C69 C 1.07895 0.56573 0.56858
 O70 O 0.95435 0.42488 0.58087
 O71 O 0.91569 0.46332 0.53730
 C72 C 0.92342 0.43433 0.56795
 O73 O 1.04913 0.42863 0.58516
 O74 O 1.08718 0.46534 0.53934
 C75 C 1.07997 0.43803 0.57214
 O76 O 0.95360 0.57696 0.57878
 O77 O 0.91500 0.53791 0.53679
 C78 C 0.92266 0.56660 0.56751
 Zr79 Zr 1.00089 0.55253 0.55672
 O80 O 1.00084 0.54568 0.63215
 O81 O 0.99992 0.61776 0.56271
 Zr82 Zr 1.00150 0.44939 0.55864
 O83 O 0.99829 0.45248 0.63440
 O84 O 1.00485 0.38405 0.56186
 O85 O 1.03226 0.50119 0.56704
 O86 O 0.97086 0.50101 0.56644
 O87 O 0.95328 0.57585 0.41311
 O88 O 0.91509 0.53748 0.45677
 C89 C 0.92243 0.56626 0.42578
 O90 O 1.04875 0.42561 0.41312
 O91 O 1.08696 0.46457 0.45596
 C92 C 1.07961 0.43581 0.42529
 O93 O 0.95397 0.42257 0.41714
 O94 O 0.91538 0.46267 0.45812
 C95 C 0.92297 0.43283 0.42881
 O96 O 1.04823 0.57206 0.40867
 O97 O 1.08671 0.53556 0.45475
 C98 C 1.07921 0.56253 0.42160
 Zr99 Zr 1.00075 0.55156 0.43550
 O100 O 0.99725 0.54866 0.35976
 O101 O 1.00347 0.61691 0.43250
 Zr102 Zr 1.00121 0.44832 0.43738
 O103 O 1.00025 0.45536 0.36199
 O104 O 1.00168 0.38318 0.43059
 Zr105 Zr 1.05259 0.50049 0.49704
 Zr106 Zr 0.94954 0.50048 0.49713
 O107 O 0.97058 0.49978 0.42774
 O108 O 1.03199 0.49978 0.42706
 O109 O 0.97043 0.56047 0.49603
 O110 O 1.03100 0.44102 0.49819
 O111 O 1.03041 0.55993 0.49584
 O112 O 0.97111 0.44052 0.49821
 H113 H 0.95529 0.50107 0.59446
 H114 H 1.04605 0.41630 0.49902
 H115 H 0.95477 0.49941 0.39992
 H116 H 1.04527 0.58461 0.49484
 H117 H 0.98841 0.37302 0.53820
 H118 H 1.00917 0.37163 0.46178
 H119 H 0.99944 0.42700 0.34878
 H120 H 1.01686 0.53201 0.34822
 H121 H 0.98707 0.62783 0.45635
 H122 H 1.00932 0.62925 0.53262
 H123 H 0.99986 0.57405 0.64534
 H124 H 1.01797 0.46884 0.64586
 O125 O 0.56121 -0.06760 0.57728
 O126 O 0.52963 -0.10974 0.52806
 C127 C 0.55341 -0.10340 0.55988
 O128 O 0.43915 0.04800 0.59474
 O129 O 0.46914 0.09817 0.55434
 C130 C 0.44650 0.08624 0.58561
 O131 O 0.44256 -0.06544 0.58797
 O132 O 0.46916 -0.10872 0.53444
 C133 C 0.44884 -0.10167 0.57052
 O134 O 0.56377 0.04650 0.58703
 O135 O 0.53156 0.09742 0.55066
 C136 C 0.55596 0.08492 0.57906
 Zr137 Zr 0.54313 -0.00819 0.55886
 O138 O 0.54605 -0.01766 0.63410
 O139 O 0.59693 -0.00875 0.55151
 Zr140 Zr 0.45797 -0.00679 0.56438
 O141 O 0.46024 -0.00964 0.64020
 O142 O 0.40392 -0.00793 0.56383
 O143 O 0.50054 -0.04559 0.56672
 O144 O 0.50114 0.02832 0.57439
 O145 O 0.56030 0.06046 0.42247
 O146 O 0.53015 0.10394 0.47210
 C147 C 0.55352 0.09656 0.43999
 O148 O 0.43528 -0.05074 0.41287
 O149 O 0.46581 -0.10200 0.45133
 C150 C 0.44275 -0.08928 0.42077
 O151 O 0.43188 0.06228 0.43220
 O152 O 0.46694 0.10523 0.47547
 C153 C 0.44110 0.09838 0.44720
 O154 O 0.55505 -0.05221 0.40512
 O155 O 0.52573 -0.10239 0.44632
 C156 C 0.54762 -0.09049 0.41403
 Zr157 Zr 0.53876 0.00263 0.43842
 O158 O 0.53297 0.01422 0.36394
 O159 O 0.59249 -0.00116 0.43099
 Zr160 Zr 0.45379 0.00369 0.44426
 O161 O 0.45376 0.01565 0.36945
 O162 O 0.39979 0.00077 0.44437
 Zr163 Zr 0.49787 -0.06451 0.49456
 Zr164 Zr 0.49900 0.06010 0.50847
 O165 O 0.49631 0.04067 0.43673
 O166 O 0.49563 -0.03350 0.42775
 O167 O 0.54813 0.03363 0.50242
 O168 O 0.44907 -0.03743 0.50090
 O169 O 0.54710 -0.03854 0.49417
 O170 O 0.44938 0.03512 0.50895
 H171 H 0.50187 0.04488 0.60416
 H172 H 0.42853 -0.05524 0.50060
 H173 H 0.49559 0.06233 0.41144
 H174 H 0.56761 -0.05635 0.49062
 H175 H 0.39666 -0.01089 0.59773
 H176 H 0.39211 0.01138 0.47582
 H177 H 0.46348 -0.00890 0.35328
 H178 H 0.52280 -0.01067 0.34926
 H179 H 0.60244 0.00837 0.46163
 H180 H 0.60644 -0.01257 0.58423
 H181 H 0.53580 0.00651 0.65035
 H182 H 0.47949 -0.02825 0.64872
 O183 O 0.55249 0.57122 0.08248
 O184 O 0.58825 0.53307 0.03424
 C185 C 0.58248 0.56057 0.06686
 O186 O 0.45558 0.42338 0.08286
 O187 O 0.41615 0.46429 0.04391
 C188 C 0.42439 0.43422 0.07286
 O189 O 0.55069 0.42719 0.08305
 O190 O 0.58732 0.46275 0.03361
 C191 C 0.58103 0.43640 0.06766
 O192 O 0.45709 0.57779 0.08421
 O193 O 0.41690 0.53891 0.04520
 C194 C 0.42572 0.56855 0.07378
 Zr195 Zr 0.50348 0.55151 0.06051
 O196 O 0.50275 0.54710 0.13634
 O197 O 0.50772 0.61662 0.06498
 Zr198 Zr 0.50229 0.44839 0.05948
 O199 O 0.50325 0.45458 0.13488
 O200 O 0.50407 0.38324 0.06590
 O201 O 0.53413 0.49912 0.06692
 O202 O 0.47276 0.50048 0.07077
 O203 O 0.45155 0.58107 -0.07585
 O204 O 0.41404 0.54072 -0.03354
 C205 C 0.42093 0.57130 -0.06225
 O206 O 0.54383 0.42924 -0.09233
 O207 O 0.58417 0.46406 -0.04879
 C208 C 0.57522 0.43823 -0.08192
 O209 O 0.44918 0.42833 -0.08229
 O210 O 0.41289 0.46691 -0.03572
 C211 C 0.41888 0.43901 -0.06803
 O212 O 0.54611 0.57447 -0.08872
 O213 O 0.58511 0.53450 -0.04770
 C214 C 0.57723 0.56336 -0.07834
 Zr215 Zr 0.49912 0.55312 -0.06087
 O216 O 0.49477 0.54648 -0.13599
 O217 O 0.50078 0.61812 -0.06918
 Zr218 Zr 0.49769 0.44973 -0.06174
 O219 O 0.49198 0.45099 -0.13730
 O220 O 0.49990 0.38427 -0.06235
 Zr221 Zr 0.55172 0.49946 -0.00453
 Zr222 Zr 0.44925 0.50183 0.00279
 O223 O 0.46787 0.50248 -0.06799
 O224 O 0.52884 0.50087 -0.07299
 O225 O 0.47131 0.56131 0.00202
 O226 O 0.52947 0.44039 -0.00336
 O227 O 0.53080 0.55952 -0.00217
 O228 O 0.46959 0.44133 0.00084
 H229 H 0.45788 0.50047 0.09954
 H230 H 0.54437 0.41554 -0.00462
 H231 H 0.45120 0.50379 -0.09479
 H232 H 0.54593 0.58398 -0.00287
 H233 H 0.50199 0.37210 0.03315
 H234 H 0.48096 0.37402 -0.04207
 H235 H 0.50943 0.47006 -0.15029
 H236 H 0.49341 0.57492 -0.14923
 H237 H 0.50598 0.62964 -0.03727
 H238 H 0.49174 0.62866 0.04111
 H239 H 0.52364 0.53196 0.14644
 H240 H 0.50277 0.42605 0.14798
 C241 C 1.18250 0.15582 0.17001
 C242 C 1.21813 0.14985 0.16800
 C243 C 1.23976 0.17733 0.19209
 C244 C 1.22607 0.21044 0.21824
 C245 C 1.19053 0.21580 0.21836
 N246 N 1.17005 0.18869 0.19499
 C247 C 1.15748 0.12746 0.14718
 N248 N 1.12443 0.12946 0.16214
 C249 C 1.09920 0.10629 0.14256
 C250 C 1.10626 0.07909 0.10462
 C251 C 1.14029 0.07591 0.08882
 C252 C 1.16596 0.09997 0.10996
 H253 H 1.26707 0.17226 0.19076
 H254 H 1.17878 0.24138 0.23699
 H255 H 1.07348 0.10997 0.15616
 H256 H 1.14692 0.05567 0.05938
 H257 H 1.22931 0.12394 0.14921
 H258 H 1.19170 0.09782 0.09614
 C259 C 1.18154 0.66937 0.65160
 C260 C 1.18321 0.71216 0.64287
 C261 C 1.20506 0.73643 0.67027
 C262 C 1.22530 0.71820 0.70605
 C263 C 1.22384 0.67517 0.71255
 N264 N 1.20219 0.65211 0.68560
 C265 C 1.15589 0.64343 0.62745
 N266 N 1.16308 0.60310 0.61710
 C267 C 1.13940 0.57751 0.59721
 C268 C 1.10613 0.59206 0.58835
 C269 C 1.09841 0.63345 0.59891
 C270 C 1.12312 0.65915 0.61815
 H271 H 1.20570 0.76954 0.66420
 H272 H 1.23903 0.65983 0.73978
 H273 H 1.14626 0.54574 0.58954
 H274 H 1.07313 0.64607 0.59224
 H275 H 1.16749 0.72680 0.61559
 H276 H 1.11621 0.69065 0.62711
 C277 C 0.65960 0.18262 0.66533
 C278 C 0.68513 0.20131 0.63738
 C279 C 0.71327 0.21917 0.66005
 C280 C 0.71558 0.21867 0.71017
 C281 C 0.68996 0.19906 0.73664
 N282 N 0.66309 0.18149 0.71388
 C283 C 0.63010 0.16156 0.64378
 N284 N 0.61763 0.12771 0.66674
 C285 C 0.59204 0.10470 0.64817
 C286 C 0.57750 0.11529 0.60373
 C287 C 0.58818 0.15169 0.58087
 C288 C 0.61488 0.17477 0.60056
 H289 H 0.73263 0.23407 0.63848
 H290 H 0.69084 0.19855 0.77547
 H291 H 0.58405 0.07714 0.66724
 H292 H 0.57719 0.16102 0.54681
 H293 H 0.68362 0.20165 0.59860
 H294 H 0.62369 0.20221 0.58203
 C295 C 0.68151 0.66502 0.15135
 C296 C 0.67521 0.70782 0.15088
 C297 C 0.69471 0.73348 0.17983
 C298 C 0.72067 0.71673 0.20855
 C299 C 0.72645 0.67394 0.20783
 N300 N 0.70672 0.64936 0.17993
 C301 C 0.65916 0.63641 0.12528
 N302 N 0.65266 0.59851 0.14478
 C303 C 0.62947 0.57233 0.12527
 C304 C 0.61128 0.58439 0.08433
 C305 C 0.61851 0.62232 0.06246
 C306 C 0.64263 0.64842 0.08267
 H307 H 0.68902 0.76631 0.18056
 H308 H 0.74584 0.65976 0.23021
 H309 H 0.62432 0.54299 0.14266
 H310 H 0.60474 0.63216 0.03056
 H311 H 0.65451 0.72122 0.13011
 H312 H 0.64775 0.67790 0.06562
 C313 C 0.81362 -0.15770 0.16728
 C314 C 0.78857 -0.17966 0.14210
 C315 C 0.76691 -0.20634 0.16701
 C316 C 0.76963 -0.21047 0.21694
 C317 C 0.79435 -0.18719 0.24097
 N318 N 0.81581 -0.16220 0.21583
 C319 C 0.83957 -0.13280 0.14189
 N320 N 0.87201 -0.13230 0.15948
 C321 C 0.89769 -0.11175 0.13711
 C322 C 0.89141 -0.08959 0.09445
 C323 C 0.85792 -0.08869 0.07635
 C324 C 0.83199 -0.11056 0.09971
 H325 H 0.74874 -0.22430 0.14682
 H326 H 0.79740 -0.18998 0.27946
 H327 H 0.92299 -0.11266 0.15289
 H328 H 0.85187 -0.07155 0.04396
 H329 H 0.78676 -0.17779 0.10340
 H330 H 0.80630 -0.10977 0.08521
 C331 C 0.82088 0.32875 0.64925
 C332 C 0.78541 0.33340 0.64365
 C333 C 0.76356 0.30784 0.66955
 C334 C 0.77673 0.27805 0.70134
 C335 C 0.81219 0.27289 0.70404
 N336 N 0.83305 0.29832 0.67874
 C337 C 0.84575 0.35716 0.62687
 N338 N 0.87830 0.35647 0.64399
 C339 C 0.90306 0.38142 0.62645
 C340 C 0.89575 0.40941 0.58913
 C341 C 0.86232 0.41105 0.57097
 C342 C 0.83727 0.38484 0.58950
 H343 H 0.73643 0.31228 0.66521
 H344 H 0.82354 0.24959 0.72703
 H345 H 0.92847 0.37902 0.64165
 H346 H 0.85568 0.43196 0.54192
 H347 H 0.77430 0.35724 0.62117
 H348 H 0.81198 0.38606 0.57392
 C349 C 0.34387 -0.19526 0.65877
 C350 C 0.31700 -0.21450 0.63393
 C351 C 0.28845 -0.22855 0.65926
 C352 C 0.28625 -0.22304 0.70901
 C353 C 0.31328 -0.20330 0.73235
 N354 N 0.34087 -0.19014 0.70709
 C355 C 0.37481 -0.17841 0.63473
 N356 N 0.39639 -0.15504 0.66154
 C357 C 0.42318 -0.13434 0.64227
 C358 C 0.42915 -0.13542 0.59271
 C359 C 0.40896 -0.16150 0.56461
 C360 C 0.38181 -0.18325 0.58543
 H361 H 0.26870 -0.24462 0.63984
 H362 H 0.31325 -0.19980 0.77089
 H363 H 0.43824 -0.11447 0.66515
 H364 H 0.41238 -0.16245 0.52616
 H365 H 0.31763 -0.21901 0.59560
 H366 H 0.36599 -0.20195 0.56247
 C367 C 0.32366 0.33158 0.16274
 C368 C 0.29634 0.31174 0.13953
 C369 C 0.27527 0.28510 0.16592
 C370 C 0.28147 0.27885 0.21490
 C371 C 0.30876 0.29942 0.23655
 N372 N 0.32901 0.32458 0.21027
 C373 C 0.34811 0.35853 0.13763
 N374 N 0.38029 0.36100 0.15585
 C375 C 0.40460 0.38539 0.13616
 C376 C 0.39704 0.40987 0.09580
 C377 C 0.36372 0.40882 0.07704
 C378 C 0.33920 0.38282 0.09757
 H379 H 0.25418 0.26977 0.14834
 H380 H 0.31399 0.29574 0.27448
 H381 H 0.42982 0.38553 0.15220
 H382 H 0.35682 0.42758 0.04627
 H383 H 0.29173 0.31605 0.10154
 H384 H 0.31359 0.38234 0.08284
 C385 C 0.81485 0.16737 -0.15603
 C386 C 0.78977 0.14871 -0.18468
 C387 C 0.76902 0.17332 -0.21414
 C388 C 0.77286 0.21638 -0.21463
 C389 C 0.79756 0.23391 -0.18465
 N390 N 0.81798 0.20931 -0.15701
 C391 C 0.84011 0.14257 -0.12847
 N392 N 0.87205 0.15813 -0.12235
 C393 C 0.89744 0.13641 -0.10026
 C394 C 0.89141 0.09633 -0.08262
 C395 C 0.85831 0.08018 -0.08687
 C396 C 0.83263 0.10311 -0.10995
 H397 H 0.75075 0.15844 -0.23742
 H398 H 0.80149 0.26703 -0.18452
 H399 H 0.92242 0.15036 -0.09701
 H400 H 0.85251 0.04950 -0.07348
 H401 H 0.78720 0.11543 -0.18612
 H402 H 0.80732 0.09004 -0.11323
 C403 C 0.81841 0.66662 0.33667
 C404 C 0.78941 0.68241 0.36007
 C405 C 0.76714 0.70880 0.33511
 C406 C 0.77363 0.71879 0.28704
 C407 C 0.80296 0.70277 0.26519
 N408 N 0.82442 0.67764 0.29027
 C409 C 0.84372 0.63995 0.36117
 N410 N 0.87667 0.64177 0.34608
 C411 C 0.90180 0.61832 0.36593
 C412 C 0.89442 0.59042 0.40326
 C413 C 0.86043 0.58734 0.41897
 C414 C 0.83497 0.61221 0.39811
 H415 H 0.74494 0.72099 0.35335
 H416 H 0.80870 0.70994 0.22810
 H417 H 0.92755 0.62174 0.35239
 H418 H 0.85358 0.56603 0.44742
 H419 H 0.78435 0.67520 0.39734
 H420 H 0.80882 0.60920 0.41019
 C421 C 0.34044 0.18864 0.34703
 C422 C 0.34112 0.18418 0.29698
 C423 C 0.31372 0.19863 0.26954
 C424 C 0.28561 0.21750 0.29164
 C425 C 0.28531 0.22024 0.34184
 N426 N 0.31230 0.20571 0.36801
 C427 C 0.36899 0.17330 0.37725
 N428 N 0.36193 0.15611 0.42078
 C429 C 0.38629 0.13645 0.44742
 C430 C 0.41977 0.13269 0.43000
 C431 C 0.42820 0.15248 0.38694
 C432 C 0.40291 0.17311 0.36054
 H433 H 0.31535 0.19684 0.23087
 H434 H 0.26431 0.23502 0.36027
 H435 H 0.37891 0.12082 0.48023
 H436 H 0.45363 0.14926 0.37201
 H437 H 0.36255 0.16968 0.27910
 H438 H 0.40957 0.18716 0.32651
 C439 C 0.31738 0.66702 -0.15557
 C440 C 0.32311 0.66771 -0.20504
 C441 C 0.30260 0.69230 -0.23421
 C442 C 0.27679 0.71668 -0.21407
 C443 C 0.27127 0.71470 -0.16441
 N444 N 0.29166 0.69017 -0.13639
 C445 C 0.34187 0.64491 -0.12499
 N446 N 0.37523 0.65585 -0.12801
 C447 C 0.40038 0.63376 -0.10633
 C448 C 0.39270 0.59728 -0.08107
 C449 C 0.35820 0.58603 -0.07619
 C450 C 0.33257 0.61004 -0.09807
 H451 H 0.30735 0.69286 -0.27249
 H452 H 0.25129 0.73296 -0.14791
 H453 H 0.42647 0.64422 -0.11027
 H454 H 0.35118 0.55813 -0.05701
 H455 H 0.34368 0.64979 -0.22078
 H456 H 0.30612 0.60043 -0.09604
 C457 C 1.18051 -0.15662 -0.17255
 C458 C 1.21621 -0.15246 -0.16836
 C459 C 1.23784 -0.18008 -0.19256
 C460 C 1.22415 -0.21147 -0.22117
 C461 C 1.18850 -0.21473 -0.22405
 N462 N 1.16803 -0.18766 -0.20028
 C463 C 1.15544 -0.12877 -0.14838
 N464 N 1.12215 -0.13066 -0.16247
 C465 C 1.09693 -0.10803 -0.14159
 C466 C 1.10429 -0.08146 -0.10323
 C467 C 1.13853 -0.07841 -0.08830
 C468 C 1.16413 -0.10196 -0.11065
 H469 H 1.26518 -0.17673 -0.18890
 H470 H 1.17665 -0.23888 -0.24478
 H471 H 1.07102 -0.11155 -0.15455
 H472 H 1.14543 -0.05858 -0.05867
 H473 H 1.22755 -0.12809 -0.14738
 H474 H 1.19002 -0.09979 -0.09738
 C475 C 1.18479 0.33530 0.34145
 C476 C 1.20927 0.35182 0.31023
 C477 C 1.23040 0.32519 0.28449
 C478 C 1.22766 0.28222 0.29038
 C479 C 1.20359 0.26696 0.32300
 N480 N 1.18261 0.29348 0.34682
 C481 C 1.15918 0.36199 0.36487
 N482 N 1.12689 0.34740 0.37001
 C483 C 1.10134 0.37063 0.38893
 C484 C 1.10768 0.41114 0.40447
 C485 C 1.14101 0.42657 0.40076
 C486 C 1.16682 0.40218 0.38055
 H487 H 1.24822 0.33856 0.25933
 H488 H 1.20072 0.23397 0.32836
 H489 H 1.07614 0.35723 0.39210
 H490 H 1.14694 0.45751 0.41283
 H491 H 1.21104 0.38483 0.30406
 H492 H 1.19243 0.41446 0.37759
 C493 C 0.65149 -0.18982 0.32885
 C494 C 0.65649 -0.23277 0.33167
 C495 C 0.68526 -0.25037 0.31006
 C496 C 0.70912 -0.22527 0.28651
 C497 C 0.70362 -0.18255 0.28532
 N498 N 0.67519 -0.16617 0.30589
 C499 C 0.62070 -0.16914 0.34816
 N500 N 0.61087 -0.13272 0.32775
 C501 C 0.58508 -0.10933 0.34562
 C502 C 0.56813 -0.12143 0.38774
 C503 C 0.57655 -0.15990 0.40826
 C504 C 0.60283 -0.18398 0.38847
 H505 H 0.68833 -0.28369 0.31042
 H506 H 0.72116 -0.16230 0.26675
 H507 H 0.57927 -0.08001 0.32843
 H508 H 0.56450 -0.17000 0.44123
 H509 H 0.63786 -0.25270 0.34857
 H510 H 0.61031 -0.21247 0.40621
 C511 C 0.67617 0.34431 -0.18331
 C512 C 0.67344 0.33663 -0.23257
 C513 C 0.69525 0.30832 -0.25373
 C514 C 0.72089 0.28879 -0.22677
 C515 C 0.72378 0.29818 -0.17792
 N516 N 0.70145 0.32534 -0.15748
 C517 C 0.65062 0.37037 -0.15889
 N518 N 0.65919 0.39114 -0.11824
 C519 C 0.63599 0.41432 -0.09367
 C520 C 0.60191 0.41665 -0.10949
 C521 C 0.59282 0.39564 -0.15140
 C522 C 0.61688 0.37244 -0.17592
 H523 H 0.69105 0.30080 -0.29099
 H524 H 0.74300 0.28342 -0.15576
 H525 H 0.64396 0.42996 -0.06133
 H526 H 0.56686 0.39644 -0.16495
 H527 H 0.65425 0.35167 -0.25465
 H528 H 0.60862 0.35530 -0.20704
 C529 C 1.18234 0.16208 -0.15923
 C530 C 1.21051 0.14520 -0.18362
 C531 C 1.23214 0.17132 -0.20966
 C532 C 1.22598 0.21407 -0.21103
 C533 C 1.19814 0.22976 -0.18523
 N534 N 1.17710 0.20376 -0.16090
 C535 C 1.15656 0.13594 -0.13486
 N536 N 1.12391 0.15038 -0.13217
 C537 C 1.09837 0.12844 -0.11137
 C538 C 1.10494 0.08935 -0.09099
 C539 C 1.13858 0.07399 -0.09245
 C540 C 1.16444 0.09708 -0.11459
 H541 H 1.25312 0.15786 -0.22953
 H542 H 1.19241 0.26255 -0.18573
 H543 H 1.07296 0.14184 -0.11055
 H544 H 1.14479 0.04409 -0.07696
 H545 H 1.21506 0.11217 -0.18429
 H546 H 1.19024 0.08488 -0.11516
 C547 C 1.18277 0.66458 0.33589
 C548 C 1.21823 0.65768 0.33700
 C549 C 1.23981 0.68464 0.31224
 C550 C 1.22627 0.71826 0.28613
 C551 C 1.19082 0.72480 0.28748
 N552 N 1.17036 0.69800 0.31148
 C553 C 1.15790 0.63593 0.35804
 N554 N 1.12499 0.63777 0.34237
 C555 C 1.09998 0.61368 0.36094
 C556 C 1.10728 0.58566 0.39828
 C557 C 1.14115 0.58272 0.41480
 C558 C 1.16654 0.60782 0.39485
 H559 H 1.26701 0.67816 0.31196
 H560 H 1.17895 0.75054 0.26887
 H561 H 1.07430 0.61713 0.34693
 H562 H 1.14786 0.56187 0.44390
 H563 H 1.22927 0.63110 0.35503
 H564 H 1.19220 0.60589 0.40919
 C565 C 0.65800 0.19154 0.35183
 C566 C 0.69242 0.18578 0.36533
 C567 C 0.71843 0.20215 0.33668
 C568 C 0.71039 0.22410 0.29469
 C569 C 0.67580 0.22919 0.28250
 N570 N 0.65094 0.21280 0.31069
 C571 C 0.62921 0.17283 0.37892
 N572 N 0.59935 0.16528 0.35529
 C573 C 0.57292 0.14467 0.37601
 C574 C 0.57582 0.12995 0.42317
 C575 C 0.60564 0.13874 0.44894
 C576 C 0.63223 0.16060 0.42725
 H577 H 0.74477 0.19806 0.34771
 H578 H 0.66828 0.24595 0.25056
 H579 H 0.55055 0.13751 0.35474
 H580 H 0.60931 0.12625 0.48469
 H581 H 0.69944 0.16813 0.39692
 H582 H 0.65514 0.16652 0.44778
 C583 C 0.68373 0.66286 -0.16001
 C584 C 0.71204 0.64716 -0.18506
 C585 C 0.73282 0.67430 -0.21091
 C586 C 0.72548 0.71678 -0.21148
 C587 C 0.69852 0.73145 -0.18321
 N588 N 0.67813 0.70445 -0.15942
 C589 C 0.65760 0.63561 -0.13878
 N590 N 0.62471 0.64941 -0.13803
 C591 C 0.59876 0.62639 -0.12017
 C592 C 0.60525 0.58696 -0.10084
 C593 C 0.63904 0.57205 -0.10088
 C594 C 0.66529 0.59619 -0.12012
 H595 H 0.75355 0.66170 -0.23197
 H596 H 0.69218 0.76408 -0.18278
 H597 H 0.57321 0.63941 -0.12028
 H598 H 0.64514 0.54188 -0.08601
 H599 H 0.71693 0.61424 -0.18710
 H600 H 0.69125 0.58445 -0.11953
 C601 C 0.81246 -0.15067 -0.17090
 C602 C 0.78978 -0.17615 -0.14545
 C603 C 0.76895 -0.20381 -0.17040
 C604 C 0.77005 -0.20567 -0.22066
 C605 C 0.79209 -0.17855 -0.24482
 N606 N 0.81286 -0.15272 -0.21973
 C607 C 0.83815 -0.12471 -0.14584
 N608 N 0.86944 -0.11955 -0.16627
 C609 C 0.89505 -0.09838 -0.14441
 C610 C 0.89001 -0.08047 -0.09905
 C611 C 0.85757 -0.08414 -0.07799
 C612 C 0.83170 -0.10646 -0.10103
 H613 H 0.75300 -0.22463 -0.15002
 H614 H 0.79426 -0.17955 -0.28346
 H615 H 0.91945 -0.09584 -0.16242
 H616 H 0.85243 -0.07056 -0.04334
 H617 H 0.78936 -0.17636 -0.10663
 H618 H 0.80697 -0.10928 -0.08399
 C619 C 0.81923 0.33130 0.34240
 C620 C 0.78886 0.31821 0.36462
 C621 C 0.76658 0.29213 0.33980
 C622 C 0.77461 0.27916 0.29326
 C623 C 0.80508 0.29276 0.27248
 N624 N 0.82638 0.31787 0.29727
 C625 C 0.84449 0.35827 0.36638
 N626 N 0.87725 0.35737 0.35017
 C627 C 0.90228 0.38106 0.36928
 C628 C 0.89506 0.40827 0.40712
 C629 C 0.86129 0.41043 0.42400
 C630 C 0.83594 0.38540 0.40387
 H631 H 0.74296 0.28277 0.35670
 H632 H 0.81190 0.28371 0.23639
 H633 H 0.92782 0.37851 0.35468
 H634 H 0.85453 0.43119 0.45285
 H635 H 0.78247 0.32745 0.40076
 H636 H 0.81003 0.38790 0.41705
 C637 C 0.33960 -0.18674 0.33049
 C638 C 0.32045 -0.21721 0.35420
 C639 C 0.29238 -0.23488 0.33102
 C640 C 0.28344 -0.22261 0.28418
 C641 C 0.30222 -0.19054 0.26298
 N642 N 0.32933 -0.17386 0.28618
 C643 C 0.36932 -0.16589 0.35261
 N644 N 0.37915 -0.12913 0.33338
 C645 C 0.40449 -0.10607 0.35251
 C646 C 0.42152 -0.11926 0.39431
 C647 C 0.41364 -0.15838 0.41310
 C648 C 0.38741 -0.18182 0.39245
 H649 H 0.27827 -0.25834 0.35002
 H650 H 0.29569 -0.17860 0.22785
 H651 H 0.41024 -0.07648 0.33613
 H652 H 0.42663 -0.16996 0.44475
 H653 H 0.32663 -0.22715 0.39029
 H654 H 0.38130 -0.21158 0.40797
 C655 C 0.31408 0.34559 -0.16136
 C656 C 0.28646 0.32585 -0.13875
 C657 C 0.26699 0.29732 -0.16464
 C658 C 0.27484 0.28915 -0.21276
 C659 C 0.30218 0.31006 -0.23392
 N660 N 0.32090 0.33697 -0.20804
 C661 C 0.33877 0.37189 -0.13585
 N662 N 0.37039 0.37530 -0.15547
 C663 C 0.39569 0.39728 -0.13485
 C664 C 0.39002 0.41784 -0.09142
 C665 C 0.35724 0.41620 -0.07103
 C666 C 0.33149 0.39290 -0.09299
 H667 H 0.24652 0.28119 -0.14669
 H668 H 0.30987 0.30373 -0.27038
 H669 H 0.42032 0.39824 -0.15246
 H670 H 0.35173 0.43218 -0.03794
 H671 H 0.28083 0.33089 -0.10125
 H672 H 0.30642 0.39163 -0.07675
 C673 C 1.18112 -0.16811 0.16099
 C674 C 1.18562 -0.20993 0.14930
 C675 C 1.20825 -0.23427 0.17591
 C676 C 1.22662 -0.21715 0.21410
 C677 C 1.22197 -0.17495 0.22418
 N678 N 1.19962 -0.15172 0.19766
 C679 C 1.15471 -0.14289 0.13635
 N680 N 1.16073 -0.10255 0.12462
 C681 C 1.13665 -0.07839 0.10244
 C682 C 1.10417 -0.09448 0.09218
 C683 C 1.09760 -0.13582 0.10440
 C684 C 1.12272 -0.16006 0.12610
 H685 H 1.21081 -0.26674 0.16708
 H686 H 1.23516 -0.16062 0.25384
 H687 H 1.14255 -0.04651 0.09391
 H688 H 1.07293 -0.14953 0.09713
 H689 H 1.17146 -0.22381 0.12017
 H690 H 1.11687 -0.19171 0.13582
 C691 C 1.18254 0.33074 0.65405
 C692 C 1.21807 0.33637 0.65228
 C693 C 1.23941 0.30980 0.67846
 C694 C 1.22550 0.27799 0.70657
 C695 C 1.19018 0.27168 0.70468
 N696 N 1.16987 0.29821 0.67952
 C697 C 1.15796 0.36045 0.63244
 N698 N 1.12555 0.36089 0.64993
 C699 C 1.10093 0.38655 0.63258
 C700 C 1.10807 0.41391 0.59464
 C701 C 1.14148 0.41457 0.57627
 C702 C 1.16651 0.38787 0.59502
 H703 H 1.26658 0.31524 0.67792
 H704 H 1.17837 0.24677 0.72444
 H705 H 1.07559 0.38484 0.64799
 H706 H 1.14801 0.43476 0.54658
 H707 H 1.22935 0.36198 0.63299
 H708 H 1.19178 0.38807 0.57938
 C709 C 0.66012 -0.19691 0.64494
 C710 C 0.69338 -0.18105 0.64026
 C711 C 0.71959 -0.19618 0.67001
 C712 C 0.71272 -0.22702 0.70407
 C713 C 0.67945 -0.24318 0.70593
 N714 N 0.65429 -0.22745 0.67750
 C715 C 0.63073 -0.17909 0.61830
 N716 N 0.60023 -0.17452 0.64135
 C717 C 0.57316 -0.15437 0.62104
 C718 C 0.57604 -0.13737 0.57494
 C719 C 0.60648 -0.14371 0.54948
 C720 C 0.63394 -0.16451 0.57103
 H721 H 0.74499 -0.18346 0.66670
 H722 H 0.67308 -0.26834 0.72977
 H723 H 0.55030 -0.14916 0.64206
 H724 H 0.60984 -0.12995 0.51427
 H725 H 0.69883 -0.15628 0.61518
 H726 H 0.65771 -0.16793 0.55159
 C727 C 0.68411 0.33840 0.15879
 C728 C 0.68841 0.29733 0.14395
 C729 C 0.70750 0.27006 0.17242
 C730 C 0.72343 0.28422 0.21424
 C731 C 0.71909 0.32575 0.22716
 N732 N 0.69930 0.35132 0.19993
 C733 C 0.66001 0.36620 0.13406
 N734 N 0.63632 0.38680 0.16061
 C735 C 0.61147 0.41040 0.14003
 C736 C 0.60988 0.41457 0.09006
 C737 C 0.63480 0.39501 0.06200
 C738 C 0.65974 0.37023 0.08393
 H739 H 0.70883 0.23774 0.16263
 H740 H 0.73006 0.33759 0.25993
 H741 H 0.59269 0.42542 0.16262
 H742 H 0.63407 0.39755 0.02325
 H743 H 0.67557 0.28593 0.11224
 H744 H 0.67840 0.35416 0.06213
 C745 C 0.81667 0.15298 0.18022
 C746 C 0.80934 0.14814 0.22925
 C747 C 0.78684 0.17566 0.25162
 C748 C 0.77147 0.20780 0.22537
 C749 C 0.77923 0.21133 0.17634
 N750 N 0.80119 0.18417 0.15527
 C751 C 0.84245 0.12670 0.15588
 N752 N 0.83832 0.11669 0.10874
 C753 C 0.86222 0.09456 0.08399
 C754 C 0.89288 0.08248 0.10638
 C755 C 0.89758 0.09254 0.15484
 C756 C 0.87242 0.11426 0.17974
 H757 H 0.78211 0.17224 0.28961
 H758 H 0.76914 0.23654 0.15502
 H759 H 0.85781 0.08771 0.04651
 H760 H 0.92090 0.08385 0.17342
 H761 H 0.82105 0.12356 0.25017
 H762 H 0.87699 0.12254 0.21677
 C763 C 0.82454 0.66980 0.66339
 C764 C 0.83634 0.69841 0.69739
 C765 C 0.81318 0.72400 0.72095
 C766 C 0.77836 0.72208 0.71005
 C767 C 0.76753 0.69434 0.67464
 N768 N 0.79057 0.66908 0.65248
 C769 C 0.84845 0.64026 0.64015
 N770 N 0.84187 0.62569 0.59519
 C771 C 0.86417 0.60026 0.57164
 C772 C 0.89530 0.58895 0.59326
 C773 C 0.90166 0.60212 0.64024
 C774 C 0.87832 0.62725 0.66385
 H775 H 0.82262 0.74448 0.74843
 H776 H 0.74070 0.69199 0.66555
 H777 H 0.85829 0.59045 0.53551
 H778 H 0.92502 0.59331 0.65865
 H779 H 0.86320 0.70107 0.70606
 H780 H 0.88388 0.63640 0.70030
 C781 C 0.34633 0.18328 0.68282
 C782 C 0.34305 0.18592 0.73294
 C783 C 0.31403 0.20413 0.75266
 C784 C 0.28844 0.22035 0.72288
 C785 C 0.29264 0.21787 0.67308
 N786 N 0.32110 0.19953 0.65448
 C787 C 0.37594 0.16203 0.66035
 N788 N 0.38462 0.17096 0.61403
 C789 C 0.40968 0.14987 0.59032
 C790 C 0.42668 0.11685 0.61301
 C791 C 0.41890 0.10807 0.66099
 C792 C 0.39373 0.13045 0.68474
 H793 H 0.31194 0.20645 0.79130
 H794 H 0.27358 0.23073 0.64905
 H795 H 0.41463 0.15699 0.55299
 H796 H 0.43113 0.08232 0.67938
 H797 H 0.36283 0.17477 0.75693
 H798 H 0.38712 0.12118 0.72086
 C799 C 0.32111 0.67184 0.15355
 C800 C 0.32196 0.71506 0.14993
 C801 C 0.29949 0.73862 0.17719
 C802 C 0.27652 0.71938 0.20861
 C803 C 0.27394 0.67604 0.20699
 N804 N 0.29643 0.65358 0.18049
 C805 C 0.34785 0.64612 0.13144
 N806 N 0.34027 0.60746 0.11554
 C807 C 0.36456 0.58197 0.09681
 C808 C 0.39875 0.59482 0.09456
 C809 C 0.40699 0.63435 0.11133
 C810 C 0.38170 0.66002 0.12964
 H811 H 0.30076 0.77184 0.17398
 H812 H 0.25481 0.65960 0.22719
 H813 H 0.35723 0.55165 0.08422
 H814 H 0.43299 0.64567 0.10996
 H815 H 0.34022 0.73054 0.12697
 H816 H 0.38881 0.69004 0.14336
   
