data_POSCAR
  _audit_creation_date              2014-09-24
  _audit_creation_method            'ToBaCCo'
  _symmetry_space_group_name_H-M    'P1'
  _symmetry_Int_Tables_number       1
  _symmetry_cell_setting            triclinic
  loop_
  _symmetry_equiv_pos_as_xyz
 x,y,z
_cell_length_a 43.2515
_cell_length_b 45.2514
_cell_length_c 42.3402
_cell_angle_alpha 88.555600
_cell_angle_beta 90.644400
_cell_angle_gamma 88.819100
loop_
  _atom_site_label
  _atom_site_type_symbol
  _atom_site_fract_x
  _atom_site_fract_y
  _atom_site_fract_z
N1 N 0.28686 0.23323 0.21222
 N2 N 0.27294 0.25808 0.20287
 C3 C 0.28746 0.26891 0.17707
 C4 C 0.31130 0.24942 0.16995
 C5 C 0.31018 0.22711 0.19262
 H6 H 0.27985 0.28809 0.16311
 H7 H 0.32424 0.20705 0.19362
 Cu8 Cu 0.23449 0.27074 0.22264
 Cu9 Cu 0.27165 0.20780 0.24606
 Cu10 Cu 0.20159 0.22842 0.27850
 N11 N 0.19587 0.28312 0.24233
 N12 N 0.18316 0.26587 0.26373
 C13 C 0.15686 0.27862 0.27362
 C14 C 0.15245 0.30551 0.25770
 C15 C 0.17783 0.30765 0.23793
 H16 H 0.14230 0.26897 0.29150
 H17 H 0.18277 0.32561 0.22156
 N18 N 0.22414 0.19160 0.29066
 N19 N 0.25194 0.18485 0.28009
 C20 C 0.26186 0.15921 0.29398
 C21 C 0.23892 0.14921 0.31366
 C22 C 0.21534 0.17011 0.31096
 H23 H 0.28354 0.14795 0.28921
 H24 H 0.19349 0.16967 0.32312
 H25 H 0.22588 0.21925 0.23803
 H26 H 0.24652 0.23979 0.26928
 N27 N 0.73595 -0.20956 0.19232
 N28 N 0.73465 -0.23851 0.19137
 C29 C 0.71197 -0.24585 0.17114
 C30 C 0.69862 -0.21997 0.15818
 C31 C 0.71491 -0.19743 0.17201
 H32 H 0.70582 -0.26834 0.16632
 H33 H 0.71056 -0.17389 0.16933
 Cu34 Cu 0.76271 -0.26353 0.21717
 Cu35 Cu 0.76166 -0.18983 0.22327
 Cu36 Cu 0.78163 -0.23581 0.28690
 N37 N 0.79375 -0.28328 0.24455
 N38 N 0.79982 -0.27291 0.27259
 C39 C 0.82173 -0.29003 0.28698
 C40 C 0.83057 -0.31233 0.26672
 C41 C 0.81201 -0.30727 0.23991
 H42 H 0.83127 -0.28544 0.30998
 H43 H 0.81190 -0.31975 0.21847
 N44 N 0.77775 -0.19269 0.29005
 N45 N 0.77315 -0.17497 0.26512
 C46 C 0.77480 -0.14672 0.27419
 C47 C 0.78026 -0.14679 0.30648
 C48 C 0.78191 -0.17630 0.31576
 H49 H 0.77135 -0.12757 0.25865
 H50 H 0.78683 -0.18521 0.33926
 H51 H 0.79040 -0.22353 0.24203
 H52 H 0.74853 -0.22337 0.25203
 N53 N 0.71136 0.24259 0.79721
 N54 N 0.72085 0.26982 0.79316
 C55 C 0.70310 0.28808 0.81018
 C56 C 0.68152 0.27137 0.82619
 C57 C 0.68747 0.24252 0.81734
 H58 H 0.70617 0.31169 0.81126
 H59 H 0.67504 0.22303 0.82455
 Cu60 Cu 0.75592 0.27937 0.76650
 Cu61 Cu 0.73052 0.21022 0.77462
 Cu62 Cu 0.80284 0.21924 0.74956
 N63 N 0.79951 0.28290 0.75380
 N64 N 0.81820 0.25975 0.75083
 C65 C 0.84739 0.26901 0.74766
 C66 C 0.84705 0.29971 0.74797
 C67 C 0.81614 0.30767 0.75156
 H68 H 0.86719 0.25441 0.74471
 H69 H 0.80670 0.32969 0.75474
 N70 N 0.77754 0.18689 0.73479
 N71 N 0.74910 0.18335 0.74464
 C72 C 0.73667 0.16031 0.72993
 C73 C 0.75845 0.14888 0.70951
 C74 C 0.78416 0.16628 0.71336
 H75 H 0.71318 0.15314 0.73302
 H76 H 0.80594 0.16444 0.70118
 H77 H 0.77537 0.24094 0.78333
 H78 H 0.76286 0.24134 0.74101
 N79 N 0.27861 -0.25987 0.79939
 N80 N 0.26183 -0.28140 0.81101
 C81 C 0.27698 -0.29427 0.83588
 C82 C 0.30458 -0.27980 0.84019
 C83 C 0.30484 -0.25815 0.81655
 H84 H 0.26834 -0.31238 0.85016
 H85 H 0.32287 -0.24245 0.81193
 Cu86 Cu 0.22140 -0.28967 0.79287
 Cu87 Cu 0.26565 -0.23622 0.76227
 Cu88 Cu 0.18690 -0.23709 0.74750
 N89 N 0.18317 -0.29733 0.76982
 N90 N 0.16993 -0.27644 0.75197
 C91 C 0.14435 -0.28693 0.73835
 C92 C 0.14110 -0.31624 0.74804
 C93 C 0.16625 -0.32196 0.76832
 H94 H 0.12940 -0.27384 0.72262
 H95 H 0.17232 -0.34258 0.78049
 N96 N 0.21350 -0.20558 0.73167
 N97 N 0.24387 -0.20632 0.73513
 C98 C 0.25569 -0.18339 0.71867
 C99 C 0.23143 -0.16736 0.70457
 C100 C 0.20507 -0.18202 0.71340
 H101 H 0.28003 -0.17853 0.71733
 H102 H 0.18158 -0.17669 0.70589
 H103 H 0.22313 -0.23651 0.78115
 H104 H 0.22778 -0.25917 0.74521
 N105 N 0.72627 -0.22689 0.81626
 N106 N 0.73587 -0.25383 0.82409
 C107 C 0.72165 -0.26302 0.85040
 C108 C 0.70172 -0.24078 0.85971
 C109 C 0.70498 -0.21811 0.83736
 H110 H 0.72522 -0.28454 0.86169
 H111 H 0.69305 -0.19686 0.83669
 Cu112 Cu 0.76574 -0.27486 0.79952
 Cu113 Cu 0.74292 -0.20610 0.77924
 Cu114 Cu 0.79200 -0.24788 0.73143
 N115 N 0.80367 -0.28979 0.78192
 N116 N 0.81292 -0.28124 0.75379
 C117 C 0.83761 -0.29812 0.74587
 C118 C 0.84467 -0.31762 0.77106
 C119 C 0.82257 -0.31137 0.79349
 H120 H 0.84986 -0.29580 0.72384
 H121 H 0.81920 -0.32273 0.81591
 N122 N 0.77864 -0.20658 0.72110
 N123 N 0.76198 -0.19020 0.74030
 C124 C 0.76032 -0.16226 0.72856
 C125 C 0.77615 -0.16118 0.70048
 C126 C 0.78741 -0.18957 0.69631
 H127 H 0.74860 -0.14395 0.73959
 H128 H 0.80222 -0.19688 0.67751
 H129 H 0.74943 -0.24331 0.75382
 H130 H 0.78439 -0.23017 0.77480
 N131 N 0.26977 0.23077 0.79823
 N132 N 0.25316 0.25500 0.80209
 C133 C 0.26406 0.26911 0.82738
 C134 C 0.28896 0.25293 0.83993
 C135 C 0.29189 0.22869 0.82081
 H136 H 0.25537 0.29020 0.83531
 H137 H 0.30910 0.21106 0.82285
 Cu138 Cu 0.22057 0.26684 0.77223
 Cu139 Cu 0.26233 0.20448 0.76342
 Cu140 Cu 0.20369 0.22503 0.71010
 N141 N 0.18808 0.27835 0.74217
 N142 N 0.18138 0.26201 0.71791
 C143 C 0.15838 0.27545 0.70084
 C144 C 0.15043 0.30173 0.71513
 C145 C 0.16975 0.30269 0.74133
 H146 H 0.14856 0.26693 0.67940
 H147 H 0.17028 0.31979 0.75868
 N148 N 0.22904 0.18849 0.70647
 N149 N 0.25130 0.18080 0.72679
 C150 C 0.26467 0.15533 0.71776
 C151 C 0.25022 0.14640 0.69037
 C152 C 0.22769 0.16803 0.68395
 H153 H 0.28388 0.14440 0.73002
 H154 H 0.21160 0.16897 0.66424
 H155 H 0.24439 0.23650 0.73212
 H156 H 0.21605 0.21573 0.75655
 N157 N 0.25613 -0.22965 0.18056
 N158 N 0.24228 -0.25478 0.17601
 C159 C 0.25771 -0.26997 0.15403
 C160 C 0.28256 -0.25336 0.14413
 C161 C 0.28061 -0.22775 0.16133
 H162 H 0.25167 -0.29177 0.14646
 H163 H 0.29681 -0.20986 0.16135
 Cu164 Cu 0.20622 -0.26587 0.20032
 Cu165 Cu 0.24318 -0.20308 0.21366
 Cu166 Cu 0.20493 -0.24003 0.27380
 N167 N 0.17683 -0.28019 0.23117
 N168 N 0.17690 -0.27042 0.26014
 C169 C 0.15667 -0.28587 0.27750
 C170 C 0.14297 -0.30633 0.25832
 C171 C 0.15626 -0.30199 0.22898
 H172 H 0.15277 -0.28280 0.30240
 H173 H 0.15256 -0.31485 0.20814
 N174 N 0.22549 -0.20205 0.27954
 N175 N 0.23924 -0.18759 0.25637
 C176 C 0.25141 -0.16282 0.26768
 C177 C 0.24495 -0.16151 0.29960
 C178 C 0.22831 -0.18671 0.30621
 H179 H 0.26450 -0.14725 0.25373
 H180 H 0.21953 -0.19377 0.32892
 H181 H 0.23824 -0.24107 0.23875
 H182 H 0.20111 -0.22049 0.23032
 N183 N 0.70930 0.24739 0.20082
 N184 N 0.71952 0.27452 0.19975
 C185 C 0.70540 0.28978 0.17591
 C186 C 0.68513 0.27127 0.16093
 C187 C 0.68811 0.24449 0.17758
 H188 H 0.71009 0.31256 0.16977
 H189 H 0.67636 0.22421 0.17275
 Cu190 Cu 0.75226 0.28729 0.22741
 Cu191 Cu 0.72521 0.21811 0.23190
 Cu192 Cu 0.79443 0.23538 0.26770
 N193 N 0.79374 0.29469 0.24224
 N194 N 0.81133 0.27360 0.25530
 C195 C 0.84026 0.28367 0.25873
 C196 C 0.84038 0.31272 0.24771
 C197 C 0.81054 0.31903 0.23754
 H198 H 0.85974 0.27085 0.26826
 H199 H 0.80219 0.33918 0.22574
 N200 N 0.77251 0.19851 0.27751
 N201 N 0.74596 0.19200 0.26397
 C202 C 0.73544 0.16692 0.27738
 C203 C 0.75623 0.15723 0.30074
 C204 C 0.77950 0.17784 0.30004
 H205 H 0.71350 0.15727 0.27162
 H206 H 0.79956 0.17831 0.31545
 H207 H 0.74733 0.24549 0.26362
 H208 H 0.76835 0.23603 0.22638
 C209 C 0.26978 -0.00158 0.47318
 C210 C 0.27112 -0.03282 0.47483
 C211 C 0.26929 -0.04737 0.50442
 C212 C 0.26730 -0.03121 0.53223
 C213 C 0.27036 -0.00011 0.53065
 C214 C 0.27112 0.01437 0.50103
 H215 H 0.27135 0.03831 0.49959
 H216 H 0.26816 -0.07127 0.50570
 C217 C 0.78031 -0.01048 0.47686
 C218 C 0.76930 0.01923 0.47717
 C219 C 0.76480 0.03291 0.50616
 C220 C 0.76960 0.01736 0.53494
 C221 C 0.78025 -0.01249 0.53483
 C222 C 0.78576 -0.02579 0.50572
 H223 H 0.79467 -0.04835 0.50551
 H224 H 0.75603 0.05553 0.50631
 C225 C 0.46510 0.27787 0.01168
 C226 C 0.46134 0.28370 -0.02104
 C227 C 0.48727 0.29021 -0.03926
 C228 C 0.51684 0.29123 -0.02550
 C229 C 0.52058 0.28616 0.00745
 C230 C 0.49450 0.27956 0.02563
 H231 H 0.49706 0.27546 0.05088
 H232 H 0.48445 0.29442 -0.06447
 C233 C 0.46782 0.73675 0.02208
 C234 C 0.47215 0.73143 -0.01034
 C235 C 0.50122 0.73583 -0.02376
 C236 C 0.52615 0.74524 -0.00536
 C237 C 0.52144 0.75175 0.02674
 C238 C 0.49240 0.74737 0.04017
 H239 H 0.48898 0.75198 0.06491
 H240 H 0.50469 0.73099 -0.04843
 C241 C 0.01129 0.47318 0.25499
 C242 C -0.02054 0.47492 0.24643
 C243 C -0.03625 0.50245 0.24731
 C244 C -0.02105 0.52799 0.25668
 C245 C 0.01117 0.52636 0.26277
 C246 C 0.02691 0.49908 0.26179
 H247 H 0.05133 0.49781 0.26793
 H248 H -0.06085 0.50374 0.24219
 C249 C -0.02123 0.51786 0.73411
 C250 C 0.00787 0.52057 0.71978
 C251 C 0.02321 0.49529 0.70901
 C252 C 0.01031 0.46720 0.71255
 C253 C -0.01861 0.46423 0.72778
 C254 C -0.03409 0.48982 0.73798
 H255 H -0.05595 0.48789 0.75007
 H256 H 0.04566 0.49746 0.69813
 C257 C 0.36900 0.26943 0.10742
 C258 C 0.36837 0.24439 0.08962
 C259 C 0.34907 0.22093 0.09629
 C260 C 0.32990 0.22318 0.12263
 C261 C 0.32999 0.24879 0.14122
 C262 C 0.34949 0.27246 0.13329
 O263 O 0.39029 0.28837 0.09805
 C264 C 0.40329 0.27502 0.07381
 C265 C 0.39054 0.24814 0.06757
 C266 C 0.40089 0.23019 0.04352
 C267 C 0.42540 0.24039 0.02509
 C268 C 0.43911 0.26786 0.03126
 C269 C 0.42799 0.28539 0.05603
 H270 H 0.34930 0.20130 0.08218
 H271 H 0.31511 0.20492 0.12874
 H272 H 0.35037 0.29193 0.14759
 H273 H 0.39055 0.20909 0.03916
 H274 H 0.43397 0.22687 0.00619
 H275 H 0.43820 0.30641 0.06113
 C276 C 0.62843 0.76296 0.11078
 C277 C 0.62230 0.79006 0.09644
 C278 C 0.64048 0.81448 0.10136
 C279 C 0.66589 0.81094 0.12211
 C280 C 0.67319 0.78307 0.13709
 C281 C 0.65406 0.75868 0.13086
 O282 O 0.60800 0.74270 0.10326
 C283 C 0.58868 0.75732 0.08358
 C284 C 0.59656 0.78632 0.07838
 C285 C 0.58025 0.80531 0.05754
 C286 C 0.55504 0.79377 0.04107
 C287 C 0.54644 0.76402 0.04620
 C288 C 0.56313 0.74568 0.06819
 H289 H 0.63518 0.83561 0.08978
 H290 H 0.68006 0.82998 0.12583
 H291 H 0.65826 0.73712 0.14187
 H292 H 0.58711 0.82795 0.05357
 H293 H 0.54244 0.80777 0.02403
 H294 H 0.55717 0.72276 0.07207
 C295 C 0.62119 0.27397 -0.10981
 C296 C 0.61154 0.30308 -0.11251
 C297 C 0.62385 0.32287 -0.13437
 C298 C 0.64711 0.31225 -0.15425
 C299 C 0.65732 0.28222 -0.15222
 C300 C 0.64407 0.26286 -0.12956
 O301 O 0.60604 0.25870 -0.08795
 C302 C 0.58629 0.27857 -0.07672
 C303 C 0.58864 0.30606 -0.09106
 C304 C 0.56906 0.32975 -0.08412
 C305 C 0.54588 0.32478 -0.06179
 C306 C 0.54315 0.29671 -0.04662
 C307 C 0.56381 0.27334 -0.05396
 H308 H 0.61572 0.34564 -0.13620
 H309 H 0.65667 0.32736 -0.17159
 H310 H 0.65135 0.23987 -0.12726
 H311 H 0.57106 0.35105 -0.09605
 H312 H 0.52980 0.34259 -0.05651
 H313 H 0.56159 0.25154 -0.04318
 C314 C 0.37007 0.73075 -0.10180
 C315 C 0.37468 0.70230 -0.09024
 C316 C 0.35683 0.67887 -0.09995
 C317 C 0.33338 0.68503 -0.12256
 C318 C 0.32862 0.71410 -0.13529
 C319 C 0.34729 0.73724 -0.12463
 O320 O 0.38917 0.74991 -0.08923
 C321 C 0.40637 0.73320 -0.06941
 C322 C 0.39863 0.70384 -0.06928
 C323 C 0.41438 0.68236 -0.05089
 C324 C 0.43893 0.69158 -0.03176
 C325 C 0.44659 0.72184 -0.03082
 C326 C 0.43029 0.74288 -0.05014
 H327 H 0.36079 0.65667 -0.09044
 H328 H 0.31935 0.66708 -0.13056
 H329 H 0.34403 0.75972 -0.13361
 H330 H 0.40824 0.65932 -0.05154
 H331 H 0.45203 0.67525 -0.01777
 H332 H 0.43614 0.76604 -0.05015
 C333 C 0.10098 0.37446 0.25083
 C334 C 0.07785 0.36688 0.27131
 C335 C 0.07741 0.33989 0.28752
 C336 C 0.10189 0.31986 0.28260
 C337 C 0.12642 0.32701 0.26180
 C338 C 0.12570 0.35485 0.24558
 O339 O 0.09689 0.40134 0.23786
 C340 C 0.07064 0.41084 0.25053
 C341 C 0.05813 0.39055 0.27119
 C342 C 0.03094 0.39594 0.28747
 C343 C 0.01590 0.42337 0.28212
 C344 C 0.02794 0.44450 0.26047
 C345 C 0.05594 0.43825 0.24472
 H346 H 0.05886 0.33444 0.30346
 H347 H 0.10145 0.29885 0.29523
 H348 H 0.14383 0.36127 0.22958
 H349 H 0.02172 0.37969 0.30380
 H350 H -0.00517 0.42820 0.29475
 H351 H 0.06572 0.45411 0.22829
 C352 C 0.09221 0.61713 0.74300
 C353 C 0.07248 0.62582 0.71870
 C354 C 0.07388 0.65331 0.70361
 C355 C 0.09660 0.67267 0.71387
 C356 C 0.11788 0.66424 0.73863
 C357 C 0.11536 0.63581 0.75331
 O358 O 0.08669 0.59016 0.75440
 C359 C 0.06308 0.58164 0.73676
 C360 C 0.05363 0.60259 0.71440
 C361 C 0.02988 0.59792 0.69276
 C362 C 0.01514 0.57058 0.69439
 C363 C 0.02382 0.54907 0.71788
 C364 C 0.04834 0.55455 0.73915
 H365 H 0.05801 0.65968 0.68457
 H366 H 0.09769 0.69394 0.70181
 H367 H 0.13061 0.62831 0.77241
 H368 H 0.02322 0.61455 0.67502
 H369 H -0.00286 0.56606 0.67734
 H370 H 0.05564 0.53819 0.75695
 C371 C -0.11324 0.62527 0.25442
 C372 C -0.09856 0.62415 0.28335
 C373 C -0.10633 0.64283 0.30759
 C374 C -0.13011 0.66379 0.30181
 C375 C -0.14593 0.66588 0.27206
 C376 C -0.13720 0.64593 0.24809
 O377 O -0.10227 0.60517 0.23479
 C378 C -0.08024 0.59111 0.25186
 C379 C -0.07716 0.60195 0.28174
 C380 C -0.05622 0.59017 0.30399
 C381 C -0.03770 0.56611 0.29515
 C382 C -0.03986 0.55465 0.26432
 C383 C -0.06170 0.56727 0.24239
 H384 H -0.09446 0.64135 0.33023
 H385 H -0.13598 0.67814 0.32093
 H386 H -0.14833 0.64643 0.22508
 H387 H -0.05465 0.59880 0.32755
 H388 H -0.02224 0.55585 0.31264
 H389 H -0.06433 0.55857 0.21895
 C390 C -0.10626 0.36733 0.73856
 C391 C -0.07745 0.35629 0.74711
 C392 C -0.07191 0.32662 0.75489
 C393 C -0.09715 0.30758 0.75407
 C394 C -0.12753 0.31862 0.74680
 C395 C -0.13189 0.34912 0.73893
 O396 O -0.10634 0.39587 0.73048
 C397 C -0.07699 0.40309 0.73439
 C398 C -0.05845 0.37981 0.74507
 C399 C -0.02726 0.38288 0.75225
 C400 C -0.01460 0.41097 0.74774
 C401 C -0.03268 0.43493 0.73456
 C402 C -0.06457 0.43087 0.72844
 H403 H -0.04893 0.31836 0.76112
 H404 H -0.09298 0.28451 0.76035
 H405 H -0.15438 0.35844 0.73244
 H406 H -0.01331 0.36445 0.76154
 H407 H 0.00932 0.41395 0.75438
 H408 H -0.07922 0.44872 0.71895
 C409 C 0.26199 0.08797 0.37142
 C410 C 0.23650 0.07038 0.36946
 C411 C 0.21136 0.07719 0.34964
 C412 C 0.21251 0.10328 0.33115
 C413 C 0.23873 0.12148 0.33239
 C414 C 0.26400 0.11355 0.35251
 O415 O 0.28209 0.07887 0.39372
 C416 C 0.26905 0.05497 0.40602
 C417 C 0.24129 0.04866 0.39174
 C418 C 0.22305 0.02535 0.40164
 C419 C 0.23360 0.00811 0.42766
 C420 C 0.26170 0.01463 0.44335
 C421 C 0.27983 0.03826 0.43219
 H422 H 0.19127 0.06334 0.34906
 H423 H 0.19303 0.10937 0.31588
 H424 H 0.28393 0.12753 0.35436
 H425 H 0.20114 0.02104 0.39023
 H426 H 0.21933 -0.00962 0.43643
 H427 H 0.30109 0.04394 0.44412
 C428 C 0.76797 0.10018 0.63883
 C429 C 0.74593 0.07935 0.64479
 C430 C 0.72738 0.07988 0.67141
 C431 C 0.73168 0.10285 0.69267
 C432 C 0.75442 0.12454 0.68714
 C433 C 0.77286 0.12298 0.65979
 O434 O 0.78284 0.09605 0.61200
 C435 C 0.76997 0.07204 0.60078
 C436 C 0.74733 0.06084 0.61997
 C437 C 0.73101 0.03565 0.61268
 C438 C 0.73843 0.02142 0.58454
 C439 C 0.76174 0.03258 0.56446
 C440 C 0.77751 0.05841 0.57263
 H441 H 0.71011 0.06330 0.67560
 H442 H 0.71747 0.10355 0.71352
 H443 H 0.79013 0.13930 0.65455
 H444 H 0.71329 0.02722 0.62811
 H445 H 0.72612 0.00176 0.57831
 H446 H 0.79538 0.06732 0.55767
 C447 C 0.25572 -0.11422 0.63981
 C448 C 0.23175 -0.09380 0.64052
 C449 C 0.20782 -0.09561 0.66207
 C450 C 0.20838 -0.11969 0.68355
 C451 C 0.23277 -0.14111 0.68333
 C452 C 0.25707 -0.13806 0.66144
 O453 O 0.27513 -0.10927 0.61624
 C454 C 0.26311 -0.08521 0.60179
 C455 C 0.23665 -0.07484 0.61588
 C456 C 0.21964 -0.05052 0.60420
 C457 C 0.23032 -0.03625 0.57683
 C458 C 0.25755 -0.04642 0.56176
 C459 C 0.27413 -0.07137 0.57437
 H460 H 0.18903 -0.07943 0.66188
 H461 H 0.18969 -0.12178 0.70022
 H462 H 0.27562 -0.15443 0.66034
 H463 H 0.19869 -0.04302 0.61552
 H464 H 0.21716 -0.01751 0.56701
 H465 H 0.29476 -0.07974 0.56310
 C466 C 0.77787 -0.09774 0.37706
 C467 C 0.79302 -0.07337 0.36554
 C468 C 0.80376 -0.07130 0.33471
 C469 C 0.79887 -0.09541 0.31509
 C470 C 0.78407 -0.12107 0.32678
 C471 C 0.77340 -0.12215 0.35823
 O472 O 0.76869 -0.09502 0.40665
 C473 C 0.77844 -0.06845 0.41410
 C474 C 0.79374 -0.05437 0.38992
 C475 C 0.80645 -0.02659 0.39301
 C476 C 0.80289 -0.01266 0.42206
 C477 C 0.78598 -0.02617 0.44691
 C478 C 0.77403 -0.05474 0.44286
 H479 H 0.81538 -0.05180 0.32605
 H480 H 0.80718 -0.09436 0.29107
 H481 H 0.76168 -0.14130 0.36765
 H482 H 0.81882 -0.01610 0.37384
 H483 H 0.81303 0.00877 0.42511
 H484 H 0.76115 -0.06573 0.46135
 C485 C 0.63171 0.76573 -0.08816
 C486 C 0.64117 0.74751 -0.06324
 C487 C 0.67038 0.73431 -0.06118
 C488 C 0.69055 0.73953 -0.08621
 C489 C 0.68126 0.75759 -0.11267
 C490 C 0.65161 0.77148 -0.11331
 O491 O 0.60232 0.77463 -0.08613
 C492 C 0.59312 0.76161 -0.05945
 C493 C 0.61609 0.74475 -0.04465
 C494 C 0.61119 0.72757 -0.01761
 C495 C 0.58140 0.72792 -0.00509
 C496 C 0.55741 0.74570 -0.01926
 C497 C 0.56329 0.76260 -0.04706
 H498 H 0.67713 0.71990 -0.04140
 H499 H 0.71325 0.72898 -0.08521
 H500 H 0.64369 0.78488 -0.13347
 H501 H 0.62947 0.71384 -0.00697
 H502 H 0.57681 0.71387 0.01530
 H503 H 0.54516 0.77578 -0.05875
 C504 C 0.35897 0.25835 -0.10669
 C505 C 0.34849 0.27861 -0.08542
 C506 C 0.31872 0.29079 -0.08677
 C507 C 0.29905 0.28187 -0.11120
 C508 C 0.30939 0.26110 -0.13358
 C509 C 0.33980 0.24903 -0.13097
 O510 O 0.38827 0.25007 -0.10185
 C511 C 0.39649 0.26545 -0.07698
 C512 C 0.37299 0.28322 -0.06595
 C513 C 0.37682 0.30161 -0.04042
 C514 C 0.40606 0.30163 -0.02570
 C515 C 0.43057 0.28340 -0.03664
 C516 C 0.42567 0.26514 -0.06272
 H517 H 0.31099 0.30678 -0.06983
 H518 H 0.27583 0.29119 -0.11262
 H519 H 0.34868 0.23351 -0.14782
 H520 H 0.35807 0.31558 -0.03230
 H521 H 0.40976 0.31600 -0.00600
 H522 H 0.44404 0.25110 -0.07155
 C523 C 0.35218 0.74964 0.09104
 C524 C 0.35776 0.72002 0.08667
 C525 C 0.33911 0.69815 0.09934
 C526 C 0.31382 0.70718 0.11749
 C527 C 0.30785 0.73761 0.12289
 C528 C 0.32728 0.75911 0.10913
 O529 O 0.37317 0.76679 0.07771
 C530 C 0.39251 0.74755 0.06477
 C531 C 0.38416 0.71863 0.06966
 C532 C 0.40199 0.69482 0.05956
 C533 C 0.42949 0.70111 0.04373
 C534 C 0.43823 0.73073 0.03783
 C535 C 0.41957 0.75429 0.04868
 H536 H 0.34413 0.67495 0.09579
 H537 H 0.29956 0.69035 0.12808
 H538 H 0.32344 0.78249 0.11270
 H539 H 0.39532 0.67224 0.06434
 H540 H 0.44433 0.68298 0.03665
 H541 H 0.42621 0.77706 0.04507
 C542 C 0.62271 0.26790 0.09777
 C543 C 0.62736 0.29404 0.08142
 C544 C 0.65063 0.31329 0.08932
 C545 C 0.66982 0.30536 0.11522
 C546 C 0.66536 0.27864 0.13284
 C547 C 0.64151 0.25955 0.12362
 O548 O 0.59846 0.25340 0.08726
 C549 C 0.58753 0.27084 0.06387
 C550 C 0.60437 0.29600 0.05931
 C551 C 0.59589 0.31813 0.03732
 C552 C 0.56872 0.31433 0.01959
 C553 C 0.55091 0.28857 0.02384
 C554 C 0.56074 0.26641 0.04617
 H555 H 0.65372 0.33386 0.07623
 H556 H 0.68801 0.32025 0.12142
 H557 H 0.63706 0.23921 0.13659
 H558 H 0.60916 0.33804 0.03465
 H559 H 0.56093 0.33196 0.00350
 H560 H 0.54737 0.24675 0.05031
 C561 C -0.09700 0.62500 0.74958
 C562 C -0.09002 0.61294 0.77900
 C563 C -0.10295 0.62340 0.80647
 C564 C -0.12436 0.64697 0.80354
 C565 C -0.13222 0.66005 0.77346
 C566 C -0.11753 0.64917 0.74614
 O567 O -0.08394 0.61022 0.72635
 C568 C -0.06832 0.58849 0.74151
 C569 C -0.07108 0.58934 0.77380
 C570 C -0.05764 0.56808 0.79423
 C571 C -0.04061 0.54497 0.78080
 C572 C -0.03766 0.54347 0.74759
 C573 C -0.05188 0.56544 0.72767
 H574 H -0.09735 0.61330 0.82932
 H575 H -0.13451 0.65500 0.82500
 H576 H -0.12322 0.65791 0.72272
 H577 H -0.06047 0.56906 0.81955
 H578 H -0.03007 0.52798 0.79612
 H579 H -0.05105 0.56409 0.70223
 C580 C -0.11006 0.37976 0.24996
 C581 C -0.08574 0.37089 0.23151
 C582 C -0.08340 0.34266 0.21927
 C583 C -0.10735 0.32300 0.22594
 C584 C -0.13312 0.33217 0.24387
 C585 C -0.13445 0.36089 0.25609
 O586 O -0.10735 0.40700 0.26036
 C587 C -0.08088 0.41566 0.24800
 C588 C -0.06695 0.39458 0.22977
 C589 C -0.03935 0.39936 0.21410
 C590 C -0.02517 0.42668 0.21809
 C591 C -0.03806 0.44805 0.23848
 C592 C -0.06679 0.44260 0.25296
 H593 H -0.06388 0.33603 0.20513
 H594 H -0.10639 0.30104 0.21634
 H595 H -0.15394 0.36829 0.26988
 H596 H -0.02904 0.38265 0.19946
 H597 H -0.00365 0.43084 0.20611
 H598 H -0.07727 0.45832 0.26868
 C599 C 0.10330 0.37277 0.71002
 C600 C 0.07993 0.36537 0.68959
 C601 C 0.07873 0.33778 0.67585
 C602 C 0.10244 0.31701 0.68372
 C603 C 0.12652 0.32409 0.70518
 C604 C 0.12695 0.35262 0.71808
 O605 O 0.09964 0.39943 0.72181
 C606 C 0.07331 0.40915 0.70869
 C607 C 0.06020 0.38925 0.68872
 C608 C 0.03159 0.39452 0.67397
 C609 C 0.01570 0.42105 0.68062
 C610 C 0.02855 0.44135 0.70188
 C611 C 0.05811 0.43558 0.71538
 H612 H 0.05994 0.33223 0.66013
 H613 H 0.10152 0.29527 0.67375
 H614 H 0.14486 0.35905 0.73439
 H615 H 0.02147 0.37846 0.65865
 H616 H -0.00700 0.42534 0.67025
 H617 H 0.06812 0.45045 0.73215
 C618 C 0.08403 0.63334 0.25485
 C619 C 0.08483 0.62307 0.28571
 C620 C 0.10306 0.63557 0.30887
 C621 C 0.12144 0.65947 0.29981
 C622 C 0.12165 0.67002 0.26794
 C623 C 0.10240 0.65683 0.24524
 O624 O 0.06581 0.61784 0.23636
 C625 C 0.05506 0.59719 0.25592
 C626 C 0.06618 0.59929 0.28636
 C627 C 0.05968 0.57868 0.31017
 C628 C 0.04116 0.55483 0.30220
 C629 C 0.02904 0.55252 0.27114
 C630 C 0.03590 0.57410 0.24773
 H631 H 0.10344 0.62698 0.33297
 H632 H 0.13621 0.66903 0.31745
 H633 H 0.10201 0.66432 0.22076
 H634 H 0.06920 0.58047 0.33378
 H635 H 0.03629 0.53805 0.32005
 H636 H 0.02753 0.57226 0.22367
 C637 C 0.77746 -0.10805 0.63073
 C638 C 0.79223 -0.08455 0.64381
 C639 C 0.80206 -0.08472 0.67523
 C640 C 0.79639 -0.11013 0.69386
 C641 C 0.78187 -0.13480 0.68062
 C642 C 0.77244 -0.13383 0.64857
 O643 O 0.76867 -0.10292 0.60093
 C644 C 0.77829 -0.07569 0.59499
 C645 C 0.79314 -0.06356 0.62029
 C646 C 0.80546 -0.03540 0.61893
 C647 C 0.80202 -0.01900 0.59044
 C648 C 0.78550 -0.03049 0.56443
 C649 C 0.77390 -0.05951 0.56679
 H650 H 0.81327 -0.06584 0.68514
 H651 H 0.80353 -0.11077 0.71848
 H652 H 0.76091 -0.15229 0.63814
 H653 H 0.81749 -0.02646 0.63898
 H654 H 0.81207 0.00267 0.58871
 H655 H 0.76130 -0.06901 0.54741
 C656 C 0.25098 -0.11518 0.37242
 C657 C 0.27526 -0.09748 0.36441
 C658 C 0.29035 -0.09929 0.33569
 C659 C 0.28005 -0.12031 0.31438
 C660 C 0.25514 -0.13905 0.32211
 C661 C 0.24045 -0.13631 0.35167
 O662 O 0.23954 -0.10959 0.40068
 C663 C 0.25705 -0.08791 0.41074
 C664 C 0.27930 -0.07974 0.38944
 C665 C 0.30002 -0.05735 0.39502
 C666 C 0.29749 -0.04256 0.42360
 C667 C 0.27437 -0.05016 0.44574
 C668 C 0.25410 -0.07346 0.43933
 H669 H 0.30938 -0.08505 0.32990
 H670 H 0.29184 -0.12216 0.29211
 H671 H 0.22121 -0.14997 0.35830
 H672 H 0.31737 -0.05137 0.37792
 H673 H 0.31335 -0.02497 0.42844
 H674 H 0.23610 -0.07955 0.45567
 C675 C 0.76580 0.10665 0.37292
 C676 C 0.74494 0.08513 0.36612
 C677 C 0.72747 0.08558 0.33833
 C678 C 0.73154 0.10927 0.31679
 C679 C 0.75285 0.13189 0.32328
 C680 C 0.77031 0.13030 0.35182
 O681 O 0.78004 0.10220 0.40062
 C682 C 0.76791 0.07731 0.41155
 C683 C 0.74632 0.06592 0.39135
 C684 C 0.73086 0.03990 0.39813
 C685 C 0.73819 0.02489 0.42677
 C686 C 0.76072 0.03600 0.44774
 C687 C 0.77546 0.06281 0.44016
 H688 H 0.71124 0.06835 0.33343
 H689 H 0.71815 0.10982 0.29505
 H690 H 0.78657 0.14716 0.35785
 H691 H 0.71392 0.03138 0.38191
 H692 H 0.72662 0.00449 0.43255
 H693 H 0.79276 0.07170 0.45577
 C694 C 0.25211 0.09116 0.62467
 C695 C 0.27389 0.07109 0.63638
 C696 C 0.28840 0.07400 0.66553
 C697 C 0.28023 0.09868 0.68328
 C698 C 0.25796 0.11997 0.67167
 C699 C 0.24365 0.11586 0.64187
 O700 O 0.24128 0.08446 0.59635
 C701 C 0.25661 0.05964 0.59005
 C702 C 0.27687 0.05051 0.61377
 C703 C 0.29558 0.02528 0.61184
 C704 C 0.29328 0.00879 0.58432
 C705 C 0.27237 0.01762 0.55960
 C706 C 0.25383 0.04351 0.56259
 H707 H 0.30547 0.05790 0.67427
 H708 H 0.29142 0.10101 0.70600
 H709 H 0.22672 0.13149 0.63198
 H710 H 0.31152 0.01865 0.63072
 H711 H 0.30793 -0.01073 0.58209
 H712 H 0.23761 0.05076 0.54418
   
