data_POSCAR
  _audit_creation_date              2014-09-24
  _audit_creation_method            'ToBaCCo'
  _symmetry_space_group_name_H-M    'P1'
  _symmetry_Int_Tables_number       1
  _symmetry_cell_setting            triclinic
  loop_
  _symmetry_equiv_pos_as_xyz
 x,y,z
_cell_length_a 29.7462
_cell_length_b 29.6851
_cell_length_c 29.5820
_cell_angle_alpha 90.030700
_cell_angle_beta 90.161800
_cell_angle_gamma 89.986700
loop_
  _atom_site_label
  _atom_site_type_symbol
  _atom_site_fract_x
  _atom_site_fract_y
  _atom_site_fract_z
O1 O 0.31751 1.04334 0.03325
 O2 O 0.31282 0.95682 -0.05499
 O3 O 0.30135 1.04022 -0.05100
 O4 O 0.31883 0.95142 0.03548
 O5 O 0.24557 0.94808 0.04675
 O6 O 0.22817 1.03454 -0.03965
 O7 O 0.24089 0.94574 -0.04045
 O8 O 0.24509 1.03479 0.04722
 Cu9 Cu 0.31992 0.99728 -0.00869
 Cu10 Cu 0.23254 0.99038 0.00409
 C11 C 0.28241 1.05443 0.05477
 C12 C 0.27634 0.93622 -0.06277
 C13 C 0.26124 1.05245 -0.05969
 C14 C 0.28500 0.93486 0.05587
 O15 O 0.70131 0.54049 0.53530
 O16 O 0.71886 0.45078 0.45105
 O17 O 0.70234 0.44885 0.53392
 O18 O 0.70602 0.53314 0.44449
 O19 O 0.77865 0.54355 0.45670
 O20 O 0.77534 0.45650 0.54574
 O21 O 0.79239 0.45685 0.46092
 O22 O 0.77466 0.54448 0.54597
 Cu23 Cu 0.69969 0.49432 0.49195
 Cu24 Cu 0.78757 0.50151 0.50361
 C25 C 0.73523 0.55734 0.55537
 C26 C 0.75885 0.43859 0.44194
 C27 C 0.73816 0.43686 0.55376
 C28 C 0.74282 0.55190 0.43440
 O29 O 0.79682 0.94965 1.04063
 O30 O 0.79832 1.03467 0.95029
 O31 O 0.80593 1.03737 1.03927
 O32 O 0.78648 0.94910 0.95348
 O33 O 0.71319 0.95522 0.96400
 O34 O 0.73264 1.04757 1.04385
 O35 O 0.72473 1.04259 0.95624
 O36 O 0.72428 0.96112 1.05123
 Cu37 Cu 0.80433 0.99203 0.99541
 Cu38 Cu 0.71636 1.00262 1.00444
 C39 C 0.76068 0.94101 1.06161
 C40 C 0.76176 1.05234 0.93710
 C41 C 0.77230 1.05770 1.05614
 C42 C 0.74646 0.93694 0.94461
 O43 O 0.26354 0.45203 0.54856
 O44 O 0.27733 0.54335 0.46565
 O45 O 0.26232 0.53829 0.55065
 O46 O 0.28565 0.45429 0.46336
 O47 O 0.21400 0.45398 0.44342
 O48 O 0.18930 0.53107 0.53854
 O49 O 0.20435 0.54107 0.45183
 O50 O 0.19250 0.44409 0.52785
 Cu51 Cu 0.27967 0.49711 0.50814
 Cu52 Cu 0.19277 0.49232 0.48856
 C53 C 0.22570 0.43244 0.55206
 C54 C 0.24270 0.55869 0.44568
 C55 C 0.22204 0.54831 0.56026
 C56 C 0.25406 0.43986 0.43849
 O57 O 1.05597 0.21959 0.03978
 O58 O 0.96589 0.19870 -0.04317
 O59 O 1.05204 0.21133 -0.04635
 O60 O 0.96933 0.20522 0.04557
 O61 O 0.95627 0.27829 0.03943
 O62 O 1.03859 0.28429 -0.05280
 O63 O 0.95239 0.27180 -0.04587
 O64 O 1.04254 0.29272 0.03584
 Cu65 Cu 1.01179 0.20122 -0.00028
 Cu66 Cu 0.99672 0.28932 -0.00642
 C67 C 1.06463 0.25976 0.05166
 C68 C 0.94347 0.23186 -0.05834
 C69 C 1.05927 0.24897 -0.06523
 C70 C 0.94837 0.24047 0.05769
 O71 O 0.53133 0.79072 0.54865
 O72 O 0.44315 0.76837 0.46410
 O73 O 0.44615 0.77023 0.55140
 O74 O 0.52831 0.78694 0.45981
 O75 O 0.54652 0.71480 0.46253
 O76 O 0.46408 0.69807 0.55401
 O77 O 0.46133 0.69620 0.46400
 O78 O 0.54958 0.71854 0.54885
 Cu79 Cu 0.48567 0.78634 0.50591
 Cu80 Cu 0.50657 0.69943 0.50774
 C81 C 0.55566 0.75854 0.56283
 C82 C 0.43760 0.72864 0.44924
 C83 C 0.44119 0.73125 0.56836
 C84 C 0.55144 0.75382 0.44571
 O85 O 0.02974 0.79539 -0.04299
 O86 O -0.05342 0.78621 0.04856
 O87 O 0.03142 0.80547 0.04609
 O88 O -0.05614 0.77940 -0.03809
 O89 O -0.03989 0.70701 -0.03336
 O90 O 0.04828 0.73312 0.05081
 O91 O -0.03684 0.71400 0.05586
 O92 O 0.04539 0.72306 -0.03573
 Cu93 Cu -0.01333 0.79902 0.00265
 Cu94 Cu 0.00553 0.71197 0.01015
 C95 C 0.05149 0.76061 -0.05525
 C96 C -0.05897 0.74847 0.06793
 C97 C 0.05446 0.77369 0.06306
 C98 C -0.06290 0.73893 -0.05035
 O99 O 0.53737 0.30066 0.45084
 O100 O 0.45280 0.28505 0.54045
 O101 O 0.53801 0.30359 0.54120
 O102 O 0.45160 0.28316 0.45379
 O103 O 0.46850 0.21067 0.45432
 O104 O 0.55489 0.23114 0.54150
 O105 O 0.46982 0.21263 0.54330
 O106 O 0.55403 0.22821 0.45355
 Cu107 Cu 0.49393 0.30062 0.49631
 Cu108 Cu 0.51334 0.21341 0.49831
 C109 C 0.55957 0.26701 0.43643
 C110 C 0.44705 0.24608 0.55712
 C111 C 0.56056 0.27072 0.55682
 C112 C 0.44532 0.24338 0.43930
 O113 O 1.04423 0.03917 0.28972
 O114 O 0.95105 -0.04075 0.27469
 O115 O 1.03890 -0.04636 0.27361
 O116 O 0.95558 0.04454 0.28766
 O117 O 0.95684 0.05670 0.21400
 O118 O 1.03874 -0.03527 0.19973
 O119 O 0.95205 -0.02991 0.20087
 O120 O 1.04443 0.05177 0.21612
 Cu121 Cu 0.99753 -0.00191 0.28882
 Cu122 Cu 0.99832 0.01226 0.20030
 C123 C 1.06024 0.05905 0.25546
 C124 C 0.93548 -0.04894 0.23548
 C125 C 1.05264 -0.05649 0.23425
 C126 C 0.94145 0.06550 0.25302
 O127 O 0.54937 0.54428 0.71933
 O128 O 0.46425 0.45585 0.69993
 O129 O 0.46457 0.54545 0.69989
 O130 O 0.54996 0.45698 0.71505
 O131 O 0.53307 0.45188 0.78760
 O132 O 0.45097 0.54401 0.77325
 O133 O 0.44851 0.45615 0.77283
 O134 O 0.53768 0.53918 0.79290
 Cu135 Cu 0.50814 0.50098 0.70110
 Cu136 Cu 0.49096 0.49815 0.78903
 C137 C 0.55861 0.55590 0.75963
 C138 C 0.44248 0.44036 0.73342
 C139 C 0.44373 0.56028 0.73412
 C140 C 0.55551 0.43887 0.75355
 O141 O 0.95113 1.03164 0.80181
 O142 O 1.04517 0.95337 0.78480
 O143 O 1.03864 1.03978 0.80037
 O144 O 0.95832 0.94635 0.78226
 O145 O 0.95572 0.96315 0.70954
 O146 O 1.04065 1.05127 0.72659
 O147 O 1.04416 0.96629 0.71125
 O148 O 0.95289 1.04840 0.72916
 Cu149 Cu 0.99843 0.99136 0.79967
 Cu150 Cu 0.99810 1.00869 0.71176
 C151 C 0.93608 1.05371 0.76837
 C152 C 1.06052 0.94625 0.74544
 C153 C 1.05411 1.06057 0.76622
 C154 C 0.94279 0.93953 0.74276
 O155 O 0.44651 0.54498 0.28352
 O156 O 0.53980 0.46417 0.29688
 O157 O 0.53081 0.55150 0.30268
 O158 O 0.45316 0.45694 0.28159
 O159 O 0.46034 0.46725 0.20803
 O160 O 0.55007 0.55024 0.23060
 O161 O 0.54708 0.46228 0.22260
 O162 O 0.46571 0.55473 0.21205
 Cu163 Cu 0.49111 0.50356 0.29857
 Cu164 Cu 0.50733 0.50867 0.21090
 C165 C 0.44176 0.56510 0.24585
 C166 C 0.55844 0.44859 0.26161
 C167 C 0.55419 0.56652 0.27021
 C168 C 0.44228 0.44714 0.24123
 O169 O 0.24820 0.12598 0.19616
 O170 O 0.28877 0.11647 0.26607
 O171 O 0.13310 0.19993 0.23150
 O172 O 0.11772 0.26292 0.27039
 O173 O 0.20971 0.23772 0.11919
 O174 O 0.27724 0.28125 0.10966
 O175 O 0.24752 0.32626 0.35173
 O176 O 0.18906 0.27404 0.36396
 O177 O 0.36140 0.24509 0.32243
 O178 O 0.37998 0.19048 0.26677
 O179 O 0.32800 0.35977 0.24132
 O180 O 0.27778 0.37511 0.18286
 O181 O 0.25688 0.37305 0.29157
 O182 O 0.21817 0.37919 0.21476
 O183 O 0.37472 0.30205 0.26015
 O184 O 0.38777 0.23058 0.21215
 O185 O 0.30233 0.26443 0.36701
 O186 O 0.23425 0.21698 0.37826
 O187 O 0.26716 0.17169 0.13741
 O188 O 0.32278 0.22937 0.12430
 O189 O 0.15023 0.25506 0.16422
 O190 O 0.13600 0.31419 0.22027
 O191 O 0.17916 0.14161 0.25053
 O192 O 0.23425 0.12910 0.30936
 Zr193 Zr 0.24421 0.17016 0.25190
 O194 O 0.28495 0.20974 0.29470
 Zr195 Zr 0.17609 0.25601 0.23028
 O196 O 0.21272 0.29899 0.27333
 Zr197 Zr 0.26462 0.23735 0.16443
 O198 O 0.30489 0.28076 0.20379
 Zr199 Zr 0.24618 0.26146 0.32343
 O200 O 0.20403 0.21885 0.28428
 Zr201 Zr 0.33394 0.24392 0.25695
 O202 O 0.29727 0.19925 0.21479
 Zr203 Zr 0.26449 0.32928 0.23588
 O204 O 0.22495 0.28960 0.19149
 O205 O 0.21357 0.20549 0.19982
 O206 O 0.29667 0.29466 0.28805
 C207 C 0.25872 0.13279 0.15459
 C208 C 0.14037 0.15832 0.24075
 C209 C 0.16791 0.24652 0.12561
 C210 C 0.25098 0.36554 0.33389
 C211 C 0.34416 0.25581 0.36069
 C212 C 0.36666 0.34386 0.25229
 H213 H 0.29887 0.19014 0.31781
 H214 H 0.32794 0.29501 0.18451
 H215 H 0.19515 0.18570 0.18023
 H216 H 0.19193 0.32127 0.28672
 H217 H 0.16534 0.25290 0.35380
 H218 H 0.12570 0.28222 0.29645
 H219 H 0.39210 0.25736 0.19276
 H220 H 0.34285 0.20854 0.14094
 H221 H 0.25878 0.19452 0.37936
 H222 H 0.21289 0.14544 0.32906
 H223 H 0.29465 0.35849 0.15943
 H224 H 0.25672 0.30725 0.11336
 H225 H 0.31541 0.12097 0.24660
 H226 H 0.36488 0.16781 0.28593
 H227 H 0.14898 0.33093 0.19449
 H228 H 0.19483 0.38182 0.23838
 O229 O 0.73432 0.87683 0.20005
 O230 O 0.68962 0.88460 0.26590
 O231 O 0.85981 0.82824 0.25324
 O232 O 0.88508 0.77025 0.29217
 O233 O 0.79907 0.76764 0.13581
 O234 O 0.74056 0.71315 0.12616
 O235 O 0.76652 0.69482 0.37334
 O236 O 0.80789 0.75904 0.38474
 O237 O 0.63768 0.74741 0.32934
 O238 O 0.61252 0.79320 0.26993
 O239 O 0.69681 0.63661 0.25542
 O240 O 0.75774 0.62698 0.20756
 O241 O 0.75784 0.64147 0.31877
 O242 O 0.81020 0.63499 0.24934
 O243 O 0.63874 0.68515 0.26666
 O244 O 0.61692 0.75193 0.21645
 O245 O 0.69615 0.74315 0.37884
 O246 O 0.75235 0.80615 0.38885
 O247 O 0.73412 0.82439 0.14383
 O248 O 0.68594 0.75833 0.13431
 O249 O 0.85772 0.76641 0.18534
 O250 O 0.87736 0.71417 0.24748
 O251 O 0.80244 0.87836 0.26218
 O252 O 0.74039 0.88511 0.31375
 Zr253 Zr 0.74359 0.83870 0.25962
 O254 O 0.70780 0.79556 0.30311
 Zr255 Zr 0.82785 0.76541 0.24989
 O256 O 0.79660 0.72027 0.29467
 Zr257 Zr 0.74247 0.76259 0.17762
 O258 O 0.70824 0.71545 0.21801
 Zr259 Zr 0.75345 0.75487 0.33879
 O260 O 0.78970 0.80093 0.29836
 Zr261 Zr 0.66874 0.74979 0.26562
 O262 O 0.69960 0.79739 0.22208
 Zr263 Zr 0.75389 0.67791 0.25737
 O264 O 0.78854 0.72051 0.21165
 O265 O 0.78442 0.80612 0.21306
 O266 O 0.71211 0.70975 0.30392
 C267 C 0.73167 0.86512 0.15828
 C268 C 0.84434 0.86809 0.25945
 C269 C 0.84114 0.76740 0.14517
 C270 C 0.76447 0.65384 0.36002
 C271 C 0.65400 0.74336 0.36936
 C272 C 0.65496 0.64545 0.26028
 H273 H 0.68886 0.81381 0.32349
 H274 H 0.69009 0.69597 0.19792
 H275 H 0.80091 0.82756 0.19356
 H276 H 0.81993 0.70337 0.31142
 H277 H 0.82875 0.78209 0.37277
 H278 H 0.87714 0.75595 0.32125
 H279 H 0.62102 0.72594 0.19593
 H280 H 0.66320 0.77953 0.14628
 H281 H 0.72220 0.82020 0.38918
 H282 H 0.76239 0.87469 0.33662
 H283 H 0.73942 0.63727 0.18159
 H284 H 0.76516 0.69166 0.13278
 H285 H 0.66487 0.87271 0.24690
 H286 H 0.62241 0.82054 0.28628
 H287 H 0.86862 0.69323 0.22293
 H288 H 0.82880 0.63699 0.27705
 O289 O 0.74452 0.13724 0.81696
 O290 O 0.69641 0.12606 0.75187
 O291 O 0.86584 0.18611 0.75150
 O292 O 0.89172 0.24678 0.72090
 O293 O 0.80503 0.25625 0.87331
 O294 O 0.74215 0.30474 0.88079
 O295 O 0.76030 0.31447 0.63512
 O296 O 0.81510 0.25419 0.62831
 O297 O 0.64301 0.26015 0.67822
 O298 O 0.61922 0.21189 0.73849
 O299 O 0.69811 0.37198 0.73879
 O300 O 0.75478 0.38370 0.80011
 O301 O 0.76737 0.36817 0.68959
 O302 O 0.80872 0.37975 0.76017
 O303 O 0.64084 0.32130 0.74125
 O304 O 0.62040 0.25516 0.79082
 O305 O 0.70129 0.25126 0.62937
 O306 O 0.75709 0.20258 0.62080
 O307 O 0.73846 0.19282 0.86963
 O308 O 0.69187 0.25737 0.87698
 O309 O 0.86287 0.24477 0.82437
 O310 O 0.87998 0.30067 0.76313
 O311 O 0.81033 0.13354 0.75461
 O312 O 0.74578 0.12051 0.70565
 Zr313 Zr 0.75062 0.17205 0.75486
 O314 O 0.71447 0.21216 0.70850
 Zr315 Zr 0.83249 0.24759 0.76022
 O316 O 0.80015 0.29065 0.71409
 Zr317 Zr 0.74715 0.25252 0.83247
 O318 O 0.71083 0.29609 0.78964
 Zr319 Zr 0.75823 0.25322 0.67115
 O320 O 0.79520 0.20896 0.71336
 Zr321 Zr 0.67317 0.25812 0.74304
 O322 O 0.70542 0.21422 0.78963
 Zr323 Zr 0.75601 0.33299 0.74970
 O324 O 0.79235 0.29334 0.79649
 O325 O 0.79053 0.20796 0.79984
 O326 O 0.71545 0.29803 0.70390
 C327 C 0.73897 0.15125 0.85778
 C328 C 0.85168 0.14539 0.75070
 C329 C 0.84690 0.25173 0.86401
 C330 C 0.76556 0.35542 0.64833
 C331 C 0.65935 0.25529 0.63825
 C332 C 0.65630 0.36160 0.73821
 H333 H 0.69708 0.19208 0.68830
 H334 H 0.69149 0.31586 0.80813
 H335 H 0.80764 0.18776 0.82023
 H336 H 0.82300 0.30759 0.69683
 H337 H 0.83503 0.22945 0.63844
 H338 H 0.88308 0.25632 0.69007
 H339 H 0.62422 0.28077 0.81189
 H340 H 0.66798 0.23777 0.86443
 H341 H 0.77630 0.17776 0.63187
 H342 H 0.77051 0.12521 0.68393
 H343 H 0.72619 0.38107 0.81690
 H344 H 0.76185 0.32936 0.87006
 H345 H 0.67256 0.13822 0.77171
 H346 H 0.63032 0.18510 0.72209
 H347 H 0.87215 0.31963 0.78951
 H348 H 0.83353 0.37150 0.73956
 O349 O 0.24471 0.85428 0.82194
 O350 O 0.29053 0.87087 0.75897
 O351 O 0.12373 0.80401 0.76201
 O352 O 0.10490 0.75069 0.71239
 O353 O 0.18315 0.73113 0.87217
 O354 O 0.24763 0.68562 0.88154
 O355 O 0.24053 0.68706 0.63225
 O356 O 0.18478 0.74363 0.62487
 O357 O 0.35311 0.73822 0.68541
 O358 O 0.37407 0.78324 0.74790
 O359 O 0.29742 0.62235 0.74650
 O360 O 0.23474 0.60594 0.79214
 O361 O 0.23648 0.62926 0.68261
 O362 O 0.18419 0.61432 0.74897
 O363 O 0.35337 0.67453 0.74498
 O364 O 0.36882 0.73950 0.80028
 O365 O 0.29715 0.74984 0.63419
 O366 O 0.23303 0.80004 0.62702
 O367 O 0.24219 0.79741 0.87356
 O368 O 0.29712 0.73547 0.87897
 O369 O 0.12639 0.73943 0.82102
 O370 O 0.11284 0.68929 0.75522
 O371 O 0.17824 0.85793 0.76023
 O372 O 0.24106 0.87250 0.70916
 Zr373 Zr 0.23937 0.82146 0.75899
 O374 O 0.27963 0.78447 0.71379
 Zr375 Zr 0.15926 0.74334 0.75811
 O376 O 0.19502 0.70406 0.71095
 Zr377 Zr 0.24195 0.73829 0.83379
 O378 O 0.28034 0.69680 0.79100
 Zr379 Zr 0.23794 0.74500 0.67247
 O380 O 0.19706 0.78528 0.71479
 Zr381 Zr 0.31976 0.73726 0.74835
 O382 O 0.28437 0.77925 0.79442
 Zr383 Zr 0.23819 0.66075 0.74661
 O384 O 0.19950 0.69731 0.79409
 O385 O 0.19908 0.78233 0.80051
 O386 O 0.28004 0.69889 0.70503
 C387 C 0.24415 0.83931 0.86270
 C388 C 0.13693 0.84510 0.76196
 C389 C 0.14146 0.73355 0.86133
 C390 C 0.23894 0.64513 0.64227
 C391 C 0.33866 0.74503 0.64496
 C392 C 0.33899 0.63364 0.74596
 H393 H 0.29813 0.80572 0.69612
 H394 H 0.29874 0.67663 0.81014
 H395 H 0.18068 0.80050 0.82153
 H396 H 0.17398 0.68737 0.69118
 H397 H 0.16093 0.76359 0.63682
 H398 H 0.11209 0.73296 0.68504
 H399 H 0.36510 0.71219 0.81904
 H400 H 0.31763 0.76035 0.87061
 H401 H 0.25687 0.82194 0.63480
 H402 H 0.21669 0.86564 0.68735
 H403 H 0.25485 0.61301 0.81786
 H404 H 0.22755 0.66118 0.87095
 H405 H 0.31584 0.85817 0.77665
 H406 H 0.36287 0.81163 0.73455
 H407 H 0.12153 0.66763 0.77914
 H408 H 0.16473 0.61962 0.72233
 O409 O 0.24485 0.36749 0.69851
 O410 O 0.19594 0.36965 0.76403
 O411 O 0.36547 0.31435 0.74361
 O412 O 0.38913 0.25353 0.78272
 O413 O 0.30354 0.26214 0.62530
 O414 O 0.24384 0.20926 0.61229
 O415 O 0.26427 0.16966 0.85582
 O416 O 0.31468 0.22927 0.87105
 O417 O 0.14287 0.23381 0.81823
 O418 O 0.11982 0.28439 0.75993
 O419 O 0.19776 0.12504 0.73898
 O420 O 0.25731 0.11962 0.68347
 O421 O 0.26600 0.12213 0.79551
 O422 O 0.31006 0.11976 0.72448
 O423 O 0.14176 0.17468 0.75506
 O424 O 0.12032 0.24219 0.70701
 O425 O 0.20124 0.22470 0.86721
 O426 O 0.26157 0.27988 0.88204
 O427 O 0.23732 0.31949 0.63890
 O428 O 0.19075 0.25489 0.62286
 O429 O 0.36245 0.25544 0.67416
 O430 O 0.38260 0.20056 0.73164
 O431 O 0.30884 0.36307 0.76075
 O432 O 0.24786 0.36763 0.81165
 Zr433 Zr 0.25015 0.32448 0.75484
 O434 O 0.21415 0.27912 0.79539
 Zr435 Zr 0.33296 0.25124 0.73875
 O436 O 0.30077 0.20265 0.77944
 Zr437 Zr 0.24679 0.25508 0.66696
 O438 O 0.21125 0.20612 0.70389
 Zr439 Zr 0.25877 0.23408 0.82698
 O440 O 0.29567 0.28305 0.79039
 Zr441 Zr 0.17352 0.23797 0.75459
 O442 O 0.20512 0.28754 0.71423
 Zr443 Zr 0.25660 0.16450 0.73908
 O444 O 0.29242 0.21003 0.69741
 O445 O 0.28983 0.29485 0.70537
 O446 O 0.21608 0.19349 0.78866
 C447 C 0.23925 0.35916 0.65626
 C448 C 0.35031 0.35365 0.75399
 C449 C 0.34572 0.25985 0.63427
 C450 C 0.26748 0.13028 0.83812
 C451 C 0.15917 0.22775 0.85796
 C452 C 0.15647 0.13485 0.74689
 H453 H 0.19621 0.29659 0.81732
 H454 H 0.19199 0.18861 0.68306
 H455 H 0.30665 0.31708 0.68711
 H456 H 0.32368 0.18375 0.79455
 H457 H 0.33574 0.25361 0.86241
 H458 H 0.38300 0.23261 0.80797
 H459 H 0.12328 0.21682 0.68555
 H460 H 0.16679 0.27224 0.63816
 H461 H 0.23446 0.29915 0.88109
 H462 H 0.26880 0.35475 0.83427
 H463 H 0.23370 0.12948 0.66205
 H464 H 0.26736 0.18634 0.61797
 H465 H 0.17299 0.36190 0.74100
 H466 H 0.12976 0.30870 0.78052
 H467 H 0.37254 0.18041 0.70693
 H468 H 0.33348 0.12400 0.74792
 O469 O 0.74661 0.62392 0.70058
 O470 O 0.78464 0.61276 0.77164
 O471 O 0.62913 0.69874 0.74069
 O472 O 0.61709 0.76161 0.78292
 O473 O 0.70269 0.73904 0.62730
 O474 O 0.77226 0.78130 0.61751
 O475 O 0.74532 0.82196 0.85880
 O476 O 0.68761 0.76614 0.87108
 O477 O 0.85998 0.73961 0.82723
 O478 O 0.87397 0.68136 0.76936
 O479 O 0.82882 0.85340 0.74491
 O480 O 0.77112 0.86898 0.68707
 O481 O 0.76704 0.86723 0.80082
 O482 O 0.72062 0.88083 0.73082
 O483 O 0.87417 0.79465 0.76397
 O484 O 0.88561 0.72425 0.71778
 O485 O 0.80217 0.76210 0.87204
 O486 O 0.74304 0.71439 0.88714
 O487 O 0.75622 0.67147 0.64094
 O488 O 0.81523 0.72492 0.62839
 O489 O 0.64456 0.75542 0.67444
 O490 O 0.63316 0.81281 0.73141
 O491 O 0.67525 0.63902 0.75460
 O492 O 0.73093 0.62274 0.81274
 Zr493 Zr 0.74049 0.66675 0.75732
 O494 O 0.78218 0.70495 0.80046
 Zr495 Zr 0.67300 0.75425 0.73952
 O496 O 0.71192 0.79644 0.78145
 Zr497 Zr 0.75906 0.73561 0.67065
 O498 O 0.80218 0.77642 0.70970
 Zr499 Zr 0.74520 0.75732 0.83017
 O500 O 0.70175 0.71527 0.79191
 Zr501 Zr 0.83139 0.73802 0.76193
 O502 O 0.79267 0.69574 0.71917
 Zr503 Zr 0.76392 0.82554 0.74328
 O504 O 0.72133 0.78785 0.70002
 O505 O 0.70879 0.70373 0.70697
 O506 O 0.79592 0.78920 0.79407
 C507 C 0.75200 0.63205 0.65823
 C508 C 0.63634 0.65661 0.74746
 C509 C 0.66107 0.74769 0.63510
 C510 C 0.75749 0.86013 0.84251
 C511 C 0.84368 0.75263 0.86523
 C512 C 0.86719 0.83652 0.75551
 H513 H 0.79548 0.68519 0.82387
 H514 H 0.82508 0.79008 0.68983
 H515 H 0.68962 0.68475 0.68732
 H516 H 0.69234 0.81929 0.79567
 H517 H 0.66685 0.74097 0.86410
 H518 H 0.62706 0.77996 0.80898
 H519 H 0.88651 0.74830 0.69467
 H520 H 0.83553 0.70428 0.64499
 H521 H 0.72790 0.68653 0.87714
 H522 H 0.70443 0.63370 0.82965
 H523 H 0.79522 0.85655 0.66776
 H524 H 0.75154 0.80707 0.62167
 H525 H 0.81172 0.61752 0.75285
 H526 H 0.86208 0.66293 0.79449
 H527 H 0.64904 0.83234 0.70955
 H528 H 0.69820 0.88201 0.75542
 O529 O 0.22407 0.63433 0.30994
 O530 O 0.18628 0.62849 0.23894
 O531 O 0.35566 0.67965 0.26180
 O532 O 0.38368 0.73931 0.22629
 O533 O 0.29392 0.74701 0.37929
 O534 O 0.23046 0.79499 0.38830
 O535 O 0.26457 0.82084 0.14342
 O536 O 0.31410 0.75722 0.13541
 O537 O 0.13989 0.76779 0.17864
 O538 O 0.11456 0.71398 0.24030
 O539 O 0.19447 0.87401 0.25929
 O540 O 0.25667 0.87896 0.31361
 O541 O 0.25727 0.87179 0.20043
 O542 O 0.30639 0.87773 0.26892
 O543 O 0.13703 0.82602 0.24333
 O544 O 0.10964 0.76407 0.28606
 O545 O 0.19985 0.76184 0.13144
 O546 O 0.25775 0.71141 0.12136
 O547 O 0.22976 0.68398 0.36836
 O548 O 0.18015 0.74791 0.37818
 O549 O 0.35362 0.73819 0.33214
 O550 O 0.37571 0.79351 0.27482
 O551 O 0.29694 0.63048 0.25957
 O552 O 0.24321 0.62629 0.19822
 Zr553 Zr 0.24049 0.67254 0.25255
 O554 O 0.20785 0.71687 0.20783
 Zr555 Zr 0.32542 0.74359 0.26694
 O556 O 0.29625 0.79119 0.22277
 Zr557 Zr 0.23749 0.74683 0.33610
 O558 O 0.20445 0.79452 0.29517
 Zr559 Zr 0.25529 0.75816 0.17546
 O560 O 0.28869 0.70982 0.21615
 Zr561 Zr 0.16720 0.76184 0.24429
 O562 O 0.19573 0.71371 0.28902
 Zr563 Zr 0.25196 0.83268 0.25937
 O564 O 0.28525 0.78845 0.30455
 O565 O 0.28000 0.70346 0.30167
 O566 O 0.21247 0.80245 0.20942
 C567 C 0.22357 0.64427 0.35212
 C568 C 0.33908 0.63962 0.26088
 C569 C 0.33616 0.74267 0.37160
 C570 C 0.26278 0.86134 0.15872
 C571 C 0.15757 0.76533 0.13909
 C572 C 0.15289 0.86545 0.25158
 H573 H 0.19016 0.69880 0.18608
 H574 H 0.18531 0.81348 0.31472
 H575 H 0.29528 0.68194 0.32213
 H576 H 0.31997 0.80869 0.20739
 H577 H 0.33250 0.73142 0.14590
 H578 H 0.37866 0.75862 0.19951
 H579 H 0.11882 0.77794 0.31503
 H580 H 0.15755 0.72799 0.36383
 H581 H 0.23945 0.68507 0.13012
 H582 H 0.27034 0.63385 0.18044
 H583 H 0.23044 0.87394 0.33347
 H584 H 0.25314 0.81866 0.38253
 H585 H 0.16018 0.64027 0.25593
 H586 H 0.11945 0.69548 0.21292
 H587 H 0.36453 0.81519 0.29761
 H588 H 0.32876 0.87208 0.24491
 O589 O 0.74015 0.37563 0.29702
 O590 O 0.78476 0.39055 0.23172
 O591 O 0.62688 0.30651 0.24092
 O592 O 0.61093 0.24171 0.20813
 O593 O 0.69823 0.25242 0.36220
 O594 O 0.76685 0.21416 0.37200
 O595 O 0.74417 0.19114 0.12467
 O596 O 0.68887 0.24479 0.11400
 O597 O 0.85932 0.26214 0.16816
 O598 O 0.87322 0.31845 0.22848
 O599 O 0.82240 0.14711 0.23803
 O600 O 0.76465 0.12724 0.29146
 O601 O 0.75726 0.13931 0.17990
 O602 O 0.71174 0.12368 0.25007
 O603 O 0.87020 0.20611 0.22859
 O604 O 0.88095 0.27316 0.27914
 O605 O 0.80145 0.25642 0.11802
 O606 O 0.73302 0.30260 0.10861
 O607 O 0.75277 0.32472 0.35326
 O608 O 0.81075 0.26779 0.36371
 O609 O 0.63906 0.25019 0.31323
 O610 O 0.63045 0.19033 0.25330
 O611 O 0.67495 0.36618 0.24061
 O612 O 0.73167 0.38226 0.18397
 Zr613 Zr 0.73900 0.33649 0.23823
 O614 O 0.78164 0.30091 0.19431
 Zr615 Zr 0.66911 0.25002 0.24850
 O616 O 0.70801 0.21108 0.20368
 Zr617 Zr 0.75449 0.26171 0.32029
 O618 O 0.79669 0.22185 0.27954
 Zr619 Zr 0.74367 0.25282 0.15899
 O620 O 0.69985 0.29159 0.19961
 Zr621 Zr 0.82843 0.26312 0.23172
 O622 O 0.78980 0.30388 0.27570
 Zr623 Zr 0.75815 0.17688 0.24053
 O624 O 0.71628 0.21255 0.28617
 O625 O 0.70520 0.29717 0.28532
 O626 O 0.79260 0.21602 0.19363
 C627 C 0.74618 0.36499 0.33854
 C628 C 0.63538 0.34893 0.24001
 C629 C 0.65609 0.24951 0.35329
 C630 C 0.75003 0.15070 0.13860
 C631 C 0.84343 0.25932 0.12791
 C632 C 0.86178 0.16394 0.23237
 H633 H 0.79672 0.32229 0.17377
 H634 H 0.81855 0.20588 0.29898
 H635 H 0.68538 0.31522 0.30514
 H636 H 0.68799 0.19026 0.18704
 H637 H 0.66380 0.26298 0.12626
 H638 H 0.62102 0.23002 0.17855
 H639 H 0.88035 0.24785 0.30085
 H640 H 0.83022 0.29146 0.35066
 H641 H 0.75629 0.32615 0.11195
 H642 H 0.70881 0.36927 0.16338
 H643 H 0.78684 0.13838 0.31377
 H644 H 0.75029 0.18653 0.36336
 H645 H 0.81135 0.38268 0.25031
 H646 H 0.86270 0.33877 0.20418
 H647 H 0.64210 0.17322 0.27956
 H648 H 0.68889 0.12558 0.22579
 C649 C 0.28493 0.09174 0.08745
 C650 C 0.25885 0.09347 0.12418
 H651 H 0.30929 0.11818 0.08134
 H652 H 0.23716 0.06529 0.13227
 C653 C 0.72908 0.59290 0.58922
 C654 C 0.75362 0.59362 0.62718
 H655 H 0.70431 0.61895 0.58284
 H656 H 0.77541 0.56555 0.63555
 C657 C 0.76184 0.90864 0.09583
 C658 C 0.72770 0.90084 0.12421
 H659 H 0.79264 0.88944 0.10005
 H660 H 0.69764 0.92144 0.12360
 C661 C 0.22049 0.39538 0.58417
 C662 C 0.23844 0.39785 0.62550
 H663 H 0.20150 0.36596 0.57384
 H664 H 0.25424 0.42886 0.63665
 C665 C 0.76307 0.08377 0.89859
 C666 C 0.73397 0.11776 0.89407
 H667 H 0.79073 0.08076 0.87498
 H668 H 0.70908 0.12381 0.92005
 C669 C 0.24733 0.59773 0.41555
 C670 C 0.21678 0.60702 0.38370
 H671 H 0.27738 0.61823 0.41833
 H672 H 0.18875 0.58441 0.37788
 C673 C 0.27601 0.90324 0.90359
 C674 C 0.24332 0.87262 0.89937
 H675 H 0.30479 0.90116 0.88121
 H676 H 0.21647 0.87067 0.92397
 C677 C 0.76624 0.40271 0.40909
 C678 C 0.74205 0.40147 0.37127
 H679 H 0.79249 0.37812 0.41524
 H680 H 0.71889 0.42866 0.36355
 C681 C 0.09953 0.26815 0.08550
 C682 C 0.13739 0.24397 0.08673
 H683 H 0.09348 0.29414 0.11052
 H684 H 0.14512 0.22055 0.05972
 C685 C 0.59033 0.76740 0.59705
 C686 C 0.62959 0.74543 0.59680
 H687 H 0.58308 0.79178 0.62331
 H688 H 0.63807 0.72374 0.56858
 C689 C 0.08201 0.76378 0.90921
 C690 C 0.10900 0.72946 0.89796
 H691 H 0.08446 0.79531 0.89086
 H692 H 0.10978 0.69881 0.91784
 C693 C 0.59105 0.27292 0.39849
 C694 C 0.62552 0.24476 0.39188
 H695 H 0.58613 0.30121 0.37584
 H696 H 0.63293 0.21883 0.41658
 C697 C 0.90929 0.74473 0.10551
 C698 C 0.87228 0.77005 0.10710
 H699 H 0.91577 0.71996 0.13164
 H700 H 0.86357 0.79173 0.07892
 C701 C 0.41451 0.23971 0.59378
 C702 C 0.37697 0.26431 0.59626
 H703 H 0.42111 0.21378 0.61872
 H704 H 0.36830 0.28731 0.56915
 C705 C 0.90918 0.22448 0.91047
 C706 C 0.87900 0.25653 0.90093
 H707 H 0.90668 0.19188 0.89407
 H708 H 0.87793 0.28762 0.92015
 C709 C 0.40440 0.72060 0.41321
 C710 C 0.36653 0.74475 0.41077
 H711 H 0.41160 0.69521 0.38791
 H712 H 0.35773 0.76736 0.43814
 C713 C 0.09820 0.09015 0.26156
 C714 C 0.10168 0.12772 0.23705
 H715 H 0.12284 0.08277 0.28758
 H716 H 0.07484 0.13684 0.21393
 C717 C 0.59471 0.58844 0.76788
 C718 C 0.59768 0.62619 0.74363
 H719 H 0.61893 0.58142 0.79439
 H720 H 0.57115 0.63487 0.71997
 C721 C 0.90094 0.08413 0.77530
 C722 C 0.88535 0.11057 0.74227
 H723 H 0.88689 0.08727 0.80896
 H724 H 0.90031 0.10979 0.70891
 C725 C 0.40928 0.60192 0.24141
 C726 C 0.37022 0.60149 0.26337
 H727 H 0.41725 0.62952 0.21883
 H728 H 0.36035 0.57206 0.28263
 C729 C 0.09760 0.91417 0.73945
 C730 C 0.10184 0.87910 0.76726
 H731 H 0.12004 0.91795 0.71090
 H732 H 0.07662 0.87309 0.79296
 C733 C 0.59438 0.41511 0.26603
 C734 C 0.59723 0.38004 0.23787
 H735 H 0.61857 0.41897 0.29324
 H736 H 0.57079 0.37367 0.21342
 C737 C 0.90023 0.92053 0.22997
 C738 C 0.87735 0.90405 0.26515
 H739 H 0.89107 0.91009 0.19602
 H740 H 0.88397 0.91565 0.29927
 C741 C 0.41091 0.40269 0.72684
 C742 C 0.38206 0.39090 0.75932
 H743 H 0.41133 0.38442 0.69511
 H744 H 0.37921 0.41118 0.78965
 C745 C 0.09158 0.25176 0.89760
 C746 C 0.12745 0.22468 0.89559
 H747 H 0.08669 0.27765 0.87223
 H748 H 0.13485 0.20170 0.92309
 C749 C 0.58372 0.76069 0.40884
 C750 C 0.62239 0.73777 0.40701
 H751 H 0.57621 0.78599 0.38352
 H752 H 0.63185 0.71562 0.43457
 C753 C 0.90489 0.72940 0.91648
 C754 C 0.87488 0.76027 0.90292
 H755 H 0.90402 0.69597 0.90173
 H756 H 0.87234 0.79234 0.92027
 C757 C 0.41200 0.23521 0.40345
 C758 C 0.37463 0.26004 0.39970
 H759 H 0.41848 0.20833 0.37952
 H760 H 0.36634 0.28440 0.42569
 C761 C 0.08742 0.78360 0.09878
 C762 C 0.12734 0.76305 0.09976
 H763 H 0.07825 0.80718 0.12518
 H764 H 0.13761 0.74239 0.07137
 C765 C 0.59263 0.27823 0.59416
 C766 C 0.62830 0.25142 0.59973
 H767 H 0.58695 0.30604 0.61720
 H768 H 0.63594 0.22622 0.57435
 C769 C 0.91476 0.23760 0.09362
 C770 C 0.87573 0.25979 0.09062
 H771 H 0.92162 0.21605 0.12240
 H772 H 0.86700 0.27775 0.05993
 C773 C 0.40882 0.72462 0.60543
 C774 C 0.37149 0.74960 0.60814
 H775 H 0.41497 0.69810 0.62985
 H776 H 0.36359 0.77315 0.58127
 C777 C 0.25276 0.08904 0.90804
 C778 C 0.27449 0.09190 0.86871
 H779 H 0.22704 0.11356 0.91633
 H780 H 0.29700 0.06514 0.85834
 C781 C 0.74306 0.58326 0.39605
 C782 C 0.76981 0.61921 0.39501
 H783 H 0.71747 0.57910 0.37020
 H784 H 0.79215 0.62606 0.42320
 C785 C 0.77894 0.09116 0.08872
 C786 C 0.74443 0.11504 0.10509
 H787 H 0.81276 0.09817 0.10054
 H788 H 0.71069 0.11026 0.09202
 C789 C 0.21384 0.58036 0.59710
 C790 C 0.24321 0.61351 0.60474
 H791 H 0.18373 0.57730 0.61740
 H792 H 0.27095 0.61878 0.58164
 C793 C 0.73847 0.90083 0.91188
 C794 C 0.76237 0.89810 0.87385
 H795 H 0.71185 0.87686 0.91861
 H796 H 0.78620 0.92441 0.86548
 C797 C 0.26380 0.40446 0.40539
 C798 C 0.24600 0.40457 0.36395
 H799 H 0.28607 0.37737 0.41559
 H800 H 0.22698 0.43343 0.35215
 C801 C 0.29077 0.89947 0.09016
 C802 C 0.26397 0.89872 0.12638
 H803 H 0.31619 0.87378 0.08537
 H804 H 0.24147 0.92678 0.13262
 C805 C 0.73632 0.39913 0.58564
 C806 C 0.76983 0.39067 0.61435
 H807 H 0.70607 0.37874 0.58663
 H808 H 0.79861 0.41298 0.61628
 C809 C 0.08813 0.09586 0.77228
 C810 C 0.12369 0.09798 0.74478
 H811 H 0.08447 0.11966 0.79982
 H812 H 0.12919 0.07152 0.72011
 C813 C 0.58558 0.60394 0.27845
 C814 C 0.62392 0.60726 0.25540
 H815 H 0.57750 0.62851 0.30428
 H816 H 0.63356 0.58039 0.23255
 C817 C 0.08477 0.90641 0.22850
 C818 C 0.12128 0.90335 0.25467
 H819 H 0.07920 0.88233 0.20151
 H820 H 0.12874 0.92999 0.27864
 C821 C 0.58761 0.40168 0.75882
 C822 C 0.62424 0.39868 0.73303
 H823 H 0.58188 0.37718 0.78535
 H824 H 0.63229 0.42541 0.70945
 C825 C 0.90538 0.09895 0.25818
 C826 C 0.89997 0.13286 0.22901
 H827 H 0.88268 0.09557 0.28658
 H828 H 0.92472 0.13877 0.20286
 C829 C 0.41138 0.59733 0.72833
 C830 C 0.37180 0.59675 0.74943
 H831 H 0.41937 0.62436 0.70510
 H832 H 0.36243 0.56742 0.76911
 C833 C 0.90785 0.90536 0.73529
 C834 C 0.90552 0.86757 0.75975
 H835 H 0.88331 0.91157 0.70886
 H836 H 0.93200 0.85948 0.78365
 C837 C 0.40740 0.41309 0.23269
 C838 C 0.40402 0.37588 0.25794
 H839 H 0.38445 0.41845 0.20468
 H840 H 0.42938 0.36860 0.28329
   
