data_POSCAR
  _audit_creation_date              2014-09-24
  _audit_creation_method            'ToBaCCo'
  _symmetry_space_group_name_H-M    'P1'
  _symmetry_Int_Tables_number       1
  _symmetry_cell_setting            triclinic
  loop_
  _symmetry_equiv_pos_as_xyz
 x,y,z
_cell_length_a 40.7512
_cell_length_b 41.5257
_cell_length_c 41.1624
_cell_angle_alpha 89.585500
_cell_angle_beta 90.837700
_cell_angle_gamma 89.472100
loop_
  _atom_site_label
  _atom_site_type_symbol
  _atom_site_fract_x
  _atom_site_fract_y
  _atom_site_fract_z
N1 N 0.16563 0.17002 0.17061
 N2 N -0.15750 0.84249 0.15899
 N3 N -0.16241 0.16653 -0.17062
 N4 N 0.17000 0.82363 -0.16398
 N5 N 0.16408 1.17348 0.82647
 N6 N 0.82702 0.82619 0.83221
 N7 N 0.16001 0.84102 1.15626
 N8 N 0.83357 1.17359 1.17439
 N9 N 0.46424 0.97152 1.05459
 N10 N 0.43956 0.96783 1.07454
 N11 N 0.53163 0.94686 1.03185
 N12 N 0.55732 0.92740 1.03293
 N13 N 0.53335 0.96819 1.05519
 N14 N 0.56055 0.96385 1.07267
 N15 N 0.46251 0.95080 1.03072
 N16 N 0.43625 0.93255 1.03367
 C17 C 0.42226 0.94350 1.06125
 C18 C 0.57506 0.93804 1.05861
 N19 N 0.53371 0.97439 0.94083
 N20 N 0.55834 0.97027 0.92088
 N21 N 0.46345 0.95468 0.96091
 N22 N 0.43695 0.93724 0.95640
 N23 N 0.46496 0.97776 0.93902
 N24 N 0.43955 0.97643 0.91878
 N25 N 0.53268 0.95083 0.96221
 N26 N 0.55706 0.93018 0.95760
 Mn27 Mn 0.49747 0.95037 0.99640
 C28 C 0.57276 0.94267 0.93161
 C29 C 0.42233 0.95099 0.92999
 N30 N 0.53568 1.03722 1.05874
 N31 N 0.56192 1.03732 1.07786
 N32 N 0.46760 1.06409 1.03616
 N33 N 0.44325 1.08469 1.04018
 N34 N 0.46638 1.04056 1.05758
 N35 N 0.44070 1.04433 1.07651
 N36 N 0.53648 1.06111 1.03773
 N37 N 0.56329 1.07829 1.04219
 Mn38 Mn 0.49995 1.00436 1.05695
 C39 C 0.57885 1.06316 1.06742
 C40 C 0.42666 1.07212 1.06541
 N41 N 0.46823 1.04677 0.94219
 N42 N 0.44432 1.05263 0.92110
 N43 N 0.53708 1.06471 0.96806
 N44 N 0.56400 1.08204 0.96751
 N45 N 0.53693 1.04369 0.94438
 N46 N 0.56365 1.04649 0.92680
 N47 N 0.46766 1.06760 0.96603
 N48 N 0.44277 1.08804 0.96193
 Mn49 Mn 0.50102 1.01068 0.94124
 Mn50 Mn 0.50213 1.06482 1.00199
 Cl51 Cl 0.50012 1.00756 0.99916
 C52 C 0.42862 1.07836 0.93360
 C53 C 0.58022 1.07063 0.94154
 N54 N 0.03493 0.47327 0.06510
 N55 N 0.03928 0.44982 0.08655
 N56 N 0.05431 0.53800 0.03435
 N57 N 0.07400 0.56301 0.03443
 N58 N 0.03238 0.54069 0.05721
 N59 N 0.03637 0.56782 0.07333
 N60 N 0.05585 0.47043 0.04131
 N61 N 0.07480 0.44473 0.04582
 C62 C 0.06432 0.43230 0.07435
 C63 C 0.06254 0.58141 0.05883
 N64 N 0.02564 0.52999 -0.05598
 N65 N 0.02606 0.55468 -0.07640
 N66 N 0.05209 0.46445 -0.02836
 N67 N 0.07294 0.44020 -0.03091
 N68 N 0.02817 0.46211 -0.04987
 N69 N 0.03189 0.43584 -0.06742
 N70 N 0.05011 0.53170 -0.03496
 N71 N 0.06796 0.55740 -0.04068
 Mn72 Mn 0.05349 0.50105 0.00308
 C73 C 0.05282 0.57141 -0.06671
 C74 C 0.06002 0.42249 -0.05531
 N75 N -0.03803 0.53904 0.06040
 N76 N -0.04127 0.56602 0.07683
 N77 N -0.05898 0.46805 0.04648
 N78 N -0.07545 0.44144 0.05204
 N79 N -0.03542 0.47156 0.06825
 N80 N -0.03541 0.44745 0.08935
 N81 N -0.06272 0.53542 0.03995
 N82 N -0.08379 0.55962 0.04229
 Mn83 Mn -0.00153 0.50630 0.06315
 C84 C -0.06998 0.57845 0.06536
 C85 C -0.06065 0.42898 0.07902
 N86 N -0.04199 0.46045 -0.04661
 N87 N -0.04580 0.43410 -0.06395
 N88 N -0.06680 0.52884 -0.02951
 N89 N -0.08754 0.55309 -0.03375
 N90 N -0.04500 0.52835 -0.05269
 N91 N -0.05016 0.55260 -0.07317
 N92 N -0.06352 0.46161 -0.02322
 N93 N -0.08293 0.43633 -0.02436
 Mn94 Mn -0.00833 0.49526 -0.05177
 Mn95 Mn -0.06340 0.49838 0.00848
 Cl96 Cl -0.00495 0.50024 0.00571
 C97 C -0.07147 0.41932 -0.04985
 C98 C -0.07699 0.56763 -0.06112
 N99 N 1.04310 0.04398 0.53167
 N100 N 1.04812 0.06260 0.55706
 N101 N 1.06059 0.01986 0.46360
 N102 N 1.08020 0.02275 0.43858
 N103 N 1.03836 0.04293 0.46325
 N104 N 1.04213 0.06209 0.43784
 N105 N 1.06408 0.01977 0.53197
 N106 N 1.08381 0.02121 0.55766
 C107 C 1.07371 0.04825 0.57295
 C108 C 1.06838 0.04914 0.42267
 N109 N 1.03261 -0.06978 0.46445
 N110 N 1.03322 -0.08844 0.43864
 N111 N 1.06043 -0.04966 0.53247
 N112 N 1.08069 -0.05456 0.55745
 N113 N 1.03704 -0.07116 0.53236
 N114 N 1.04087 -0.09149 0.55685
 N115 N 1.05661 -0.04893 0.46370
 N116 N 1.07385 -0.05246 0.43703
 Mn117 Mn 1.06089 -0.01478 0.49807
 C118 C 1.05912 -0.07736 0.42176
 C119 C 1.06819 -0.08093 0.57224
 N120 N 0.96771 0.04694 0.46714
 N121 N 0.96328 0.06533 0.44109
 N122 N 0.94977 0.02672 0.53836
 N123 N 0.93257 0.03210 0.56477
 N124 N 0.97294 0.04825 0.53536
 N125 N 0.97204 0.06895 0.55947
 N126 N 0.94341 0.02663 0.47013
 N127 N 0.92171 0.03079 0.44635
 Mn128 Mn 1.00554 0.04594 0.49918
 C129 C 0.93434 0.05504 0.42848
 C130 C 0.94678 0.05861 0.57764
 N131 N 0.96707 -0.06687 0.53651
 N132 N 0.96384 -0.08736 0.56083
 N133 N 0.93988 -0.04240 0.47070
 N134 N 0.91871 -0.04369 0.44615
 N135 N 0.96206 -0.06538 0.46838
 N136 N 0.95672 -0.08277 0.44220
 N137 N 0.94614 -0.04283 0.53901
 N138 N 0.92816 -0.04626 0.56526
 Mn139 Mn 0.99965 -0.06865 0.50029
 Mn140 Mn 0.94436 -0.00794 0.50476
 Cl141 Cl 1.00261 -0.01134 0.50058
 C142 C 0.93954 -0.07423 0.57860
 C143 C 0.92945 -0.06912 0.42871
 C144 C 1.10120 0.14615 0.23054
 C145 C 1.12017 0.13221 0.25620
 C146 C 1.15463 0.13025 0.25220
 C147 C 1.16930 0.14327 0.22450
 C148 C 1.15023 0.15714 0.19938
 C149 C 1.11605 0.15815 0.20260
 C150 C 1.17440 0.11525 0.27580
 C151 C 1.16073 0.10132 0.30310
 C152 C 1.12660 0.10272 0.30840
 C153 C 1.10619 0.11977 0.28539
 C154 C 1.07274 0.12450 0.29274
 C155 C 1.05958 0.11256 0.32134
 C156 C 1.07881 0.09441 0.34314
 C157 C 1.11236 0.08840 0.33650
 C158 C 1.13018 0.06781 0.35805
 C159 C 1.11560 0.05495 0.38562
 C160 C 1.08301 0.06239 0.39292
 C161 C 1.06464 0.08206 0.37154
 H162 H 1.07478 0.14735 0.23091
 H163 H 1.19578 0.14251 0.22241
 H164 H 1.10072 0.16817 0.18326
 H165 H 1.20079 0.11389 0.27296
 H166 H 1.17781 0.09055 0.32028
 H167 H 1.05626 0.13836 0.27731
 H168 H 1.03391 0.11726 0.32623
 H169 H 1.15519 0.06049 0.35389
 H170 H 1.13010 0.03934 0.40154
 H171 H 1.03911 0.08725 0.37669
 C172 C 0.90339 -0.14104 0.22604
 C173 C 0.88306 -0.13117 0.25177
 C174 C 0.84880 -0.12899 0.24554
 C175 C 0.83562 -0.13820 0.21534
 C176 C 0.85612 -0.14798 0.19010
 C177 C 0.89009 -0.14916 0.19583
 C178 C 0.82787 -0.11752 0.26941
 C179 C 0.84024 -0.10726 0.29916
 C180 C 0.87412 -0.10921 0.30667
 C181 C 0.89561 -0.12291 0.28320
 C182 C 0.92873 -0.12865 0.29219
 C183 C 0.94073 -0.12039 0.32269
 C184 C 0.92059 -0.10517 0.34505
 C185 C 0.88717 -0.09864 0.33718
 C186 C 0.86843 -0.08122 0.35999
 C187 C 0.88224 -0.07151 0.38956
 C188 C 0.91482 -0.07929 0.39755
 C189 C 0.93385 -0.09617 0.37523
 H190 H 0.92977 -0.14185 0.22814
 H191 H 0.80926 -0.13769 0.21142
 H192 H 0.90662 -0.15616 0.17678
 H193 H 0.80163 -0.11596 0.26486
 H194 H 0.82241 -0.09887 0.31629
 H195 H 0.94586 -0.14053 0.27649
 H196 H 0.96625 -0.12558 0.32865
 H197 H 0.84335 -0.07391 0.35533
 H198 H 0.86726 -0.05805 0.40634
 H199 H 0.95937 -0.10161 0.38103
 C200 C 0.86556 0.10058 0.77425
 C201 C 0.87809 0.11792 0.74750
 C202 C 0.88001 0.15190 0.75016
 C203 C 0.86735 0.16774 0.77737
 C204 C 0.85357 0.15023 0.80289
 C205 C 0.85362 0.11655 0.80140
 C206 C 0.89402 0.16998 0.72542
 C207 C 0.90630 0.15516 0.69797
 C208 C 0.90408 0.12152 0.69365
 C209 C 0.88867 0.10276 0.71830
 C210 C 0.88319 0.06976 0.71240
 C211 C 0.89268 0.05546 0.68357
 C212 C 0.90895 0.07311 0.65991
 C213 C 0.91577 0.10617 0.66499
 C214 C 0.93430 0.12240 0.64121
 C215 C 0.94445 0.10672 0.61318
 C216 C 0.93621 0.07458 0.60766
 C217 C 0.91854 0.05783 0.63115
 H218 H 0.86494 0.07466 0.77512
 H219 H 0.86746 0.19382 0.77837
 H220 H 0.84374 0.10253 0.82121
 H221 H 0.89556 0.19596 0.72729
 H222 H 0.91626 0.17101 0.67986
 H223 H 0.87042 0.05447 0.72916
 H224 H 0.88740 0.03019 0.67987
 H225 H 0.94202 0.14699 0.64382
 H226 H 0.95857 0.11999 0.59555
 H227 H 0.91276 0.03268 0.62732
 C228 C 1.13974 -0.11414 0.77605
 C229 C 1.13326 -0.13276 0.74807
 C230 C 1.13577 -0.16674 0.75115
 C231 C 1.14709 -0.18101 0.78028
 C232 C 1.15503 -0.16206 0.80722
 C233 C 1.15028 -0.12865 0.80508
 C234 C 1.12754 -0.18632 0.72498
 C235 C 1.11643 -0.17298 0.69579
 C236 C 1.11419 -0.13929 0.69124
 C237 C 1.12424 -0.11887 0.71729
 C238 C 1.12605 -0.08538 0.71137
 C239 C 1.11750 -0.07218 0.68128
 C240 C 1.10565 -0.09157 0.65630
 C241 C 1.10303 -0.12533 0.66118
 C242 C 1.08855 -0.14364 0.63599
 C243 C 1.07768 -0.12903 0.60717
 C244 C 1.08147 -0.09596 0.60214
 C245 C 1.09577 -0.07732 0.62661
 H246 H 1.13650 -0.08835 0.77640
 H247 H 1.15056 -0.20690 0.78175
 H248 H 1.15550 -0.11364 0.82590
 H249 H 1.12953 -0.21231 0.72713
 H250 H 1.11100 -0.18982 0.67670
 H251 H 1.13514 -0.06877 0.72929
 H252 H 1.11966 -0.04639 0.67772
 H253 H 1.08412 -0.16909 0.63826
 H254 H 1.06616 -0.14372 0.58867
 H255 H 1.09791 -0.05152 0.62305
 C256 C 0.22639 1.10628 1.14627
 C257 C 0.25374 1.12473 1.13677
 C258 C 0.25034 1.15875 1.13706
 C259 C 0.22150 1.17336 1.14823
 C260 C 0.19494 1.15475 1.15824
 C261 C 0.19751 1.12114 1.15663
 C262 C 0.27578 1.17812 1.12635
 C263 C 0.30445 1.16456 1.11462
 C264 C 0.30922 1.13085 1.11397
 C265 C 0.28411 1.11066 1.12664
 C266 C 0.29054 1.07727 1.12952
 C267 C 0.32015 1.06393 1.11964
 C268 C 0.34408 1.08306 1.10549
 C269 C 0.33864 1.11670 1.10175
 C270 C 0.36262 1.13471 1.08523
 C271 C 0.39099 1.12002 1.07370
 C272 C 0.39676 1.08708 1.07855
 C273 C 0.37330 1.06868 1.09463
 H274 H 0.22626 1.08036 1.14534
 H275 H 0.21974 1.19939 1.14940
 H276 H 0.17702 1.10630 1.16359
 H277 H 0.27340 1.20415 1.12675
 H278 H 0.32296 1.18131 1.10720
 H279 H 0.27346 1.06083 1.14029
 H280 H 0.32414 1.03823 1.12267
 H281 H 0.35978 1.16003 1.07988
 H282 H 0.40860 1.13462 1.06092
 H283 H 0.37734 1.04299 1.09779
 C284 C 0.22919 0.85383 0.89938
 C285 C 0.25379 0.86829 0.88032
 C286 C 0.24888 0.86912 0.84617
 C287 C 0.22165 0.85413 0.83188
 C288 C 0.19791 0.83926 0.85104
 C289 C 0.20170 0.83976 0.88488
 C290 C 0.27122 0.88477 0.82634
 C291 C 0.29838 0.89999 0.83963
 C292 C 0.30491 0.89920 0.87340
 C293 C 0.28291 0.88204 0.89393
 C294 C 0.29136 0.87818 0.92712
 C295 C 0.32019 0.89073 0.93988
 C296 C 0.34119 0.90853 0.92045
 C297 C 0.33340 0.91397 0.88718
 C298 C 0.35452 0.93407 0.86915
 C299 C 0.38294 0.94670 0.88329
 C300 C 0.39134 0.93950 0.91558
 C301 C 0.37017 0.92075 0.93415
 H302 H 0.23008 0.85359 0.92555
 H303 H 0.21893 0.85389 0.80564
 H304 H 0.18325 0.82911 0.90017
 H305 H 0.26756 0.88546 0.80020
 H306 H 0.31459 0.91116 0.82255
 H307 H 0.27678 0.86440 0.94373
 H308 H 0.32608 0.88648 0.96533
 H309 H 0.34954 0.94088 0.84425
 H310 H 0.39873 0.96163 0.86868
 H311 H 0.37620 0.91576 0.95946
 C312 C 0.77863 0.90626 1.14008
 C313 C 0.75432 0.88882 1.12292
 C314 C 0.76177 0.85648 1.11482
 C315 C 0.79107 0.84177 1.12572
 C316 C 0.81383 0.85861 1.14489
 C317 C 0.80785 0.89141 1.15061
 C318 C 0.73965 0.83859 1.09642
 C319 C 0.70994 0.85184 1.08610
 C320 C 0.70073 0.88358 1.09436
 C321 C 0.72299 0.90219 1.11364
 C322 C 0.71270 0.93301 1.12394
 C323 C 0.68179 0.94527 1.11576
 C324 C 0.66013 0.92772 1.09641
 C325 C 0.66957 0.89697 1.08475
 C326 C 0.64737 0.88091 1.06379
 C327 C 0.61690 0.89439 1.05571
 C328 C 0.60727 0.92419 1.06820
 C329 C 0.62902 0.94084 1.08851
 H330 H 0.77594 0.93145 1.14562
 H331 H 0.79548 0.81678 1.11986
 H332 H 0.82568 0.90557 1.16386
 H333 H 0.74527 0.81386 1.09008
 H334 H 0.69422 0.83599 1.07254
 H335 H 0.72767 0.94798 1.13930
 H336 H 0.67481 0.96884 1.12465
 H337 H 0.65291 0.85817 1.05264
 H338 H 0.60073 0.88127 1.03952
 H339 H 0.62198 0.96425 1.09774
 C340 C 0.75248 1.13296 0.82551
 C341 C 0.74464 1.12942 0.85870
 C342 C 0.76772 1.14048 0.88212
 C343 C 0.79823 1.15248 0.87246
 C344 C 0.80587 1.15504 0.83947
 C345 C 0.78247 1.14569 0.81621
 C346 C 0.76026 1.13948 0.91505
 C347 C 0.73003 1.12842 0.92533
 C348 C 0.70637 1.11681 0.90300
 C349 C 0.71450 1.11581 0.86935
 C350 C 0.69265 1.10051 0.84758
 C351 C 0.66330 1.08763 0.85808
 C352 C 0.65402 1.09033 0.89040
 C353 C 0.67509 1.10551 0.91326
 C354 C 0.66361 1.10935 0.94530
 C355 C 0.63284 1.09809 0.95419
 C356 C 0.61271 1.08224 0.93173
 C357 C 0.62351 1.07821 0.89992
 H358 H 0.73567 1.12688 0.80612
 H359 H 0.81617 1.15981 0.89058
 H360 H 0.78753 1.14820 0.79056
 H361 H 0.77783 1.14774 0.93310
 H362 H 0.72634 1.12829 0.95119
 H363 H 0.69804 1.09718 0.82227
 H364 H 0.64744 1.07585 0.84054
 H365 H 0.67735 1.12179 0.96384
 H366 H 0.62484 1.10168 0.97891
 H367 H 0.60775 1.06640 0.88230
 C368 C 0.14326 0.23231 0.10723
 C369 C 0.13296 0.25878 0.12618
 C370 C 0.13193 0.25431 0.16035
 C371 C 0.14258 0.22521 0.17473
 C372 C 0.15344 0.19954 0.15564
 C373 C 0.15319 0.20327 0.12179
 C374 C 0.12047 0.27897 0.18009
 C375 C 0.10938 0.30792 0.16673
 C376 C 0.11011 0.31376 0.13291
 C377 C 0.12337 0.28930 0.11245
 C378 C 0.12735 0.29646 0.07915
 C379 C 0.11802 0.32616 0.06609
 C380 C 0.10345 0.34960 0.08537
 C381 C 0.09866 0.34354 0.11893
 C382 C 0.08196 0.36735 0.13697
 C383 C 0.07115 0.39602 0.12237
 C384 C 0.07690 0.40223 0.08952
 C385 C 0.09324 0.37900 0.07114
 H386 H 0.14340 0.23303 0.08106
 H387 H 0.14278 0.22261 0.20096
 H388 H 0.16089 0.18354 0.10653
 H389 H 0.11981 0.27576 0.20624
 H390 H 0.10128 0.32573 0.18381
 H391 H 0.13855 0.27984 0.06257
 H392 H 0.12185 0.33066 0.04045
 H393 H 0.07597 0.36422 0.16219
 H394 H 0.05816 0.41347 0.13695
 H395 H 0.09715 0.38339 0.04548
 C396 C -0.09952 0.22549 -0.14040
 C397 C -0.11919 0.25095 -0.12847
 C398 C -0.15369 0.24689 -0.12920
 C399 C -0.16767 0.21951 -0.14346
 C400 C -0.14788 0.19474 -0.15581
 C401 C -0.11369 0.19787 -0.15354
 C402 C -0.17414 0.27021 -0.11578
 C403 C -0.16116 0.29740 -0.10116
 C404 C -0.12703 0.30299 -0.10047
 C405 C -0.10585 0.28007 -0.11561
 C406 C -0.07226 0.28754 -0.11839
 C407 C -0.05973 0.31626 -0.10661
 C408 C -0.07980 0.33815 -0.09052
 C409 C -0.11350 0.33136 -0.08619
 C410 C -0.13218 0.35321 -0.06751
 C411 C -0.11824 0.38127 -0.05514
 C412 C -0.08552 0.38873 -0.06132
 C413 C -0.06632 0.36693 -0.07878
 H414 H -0.07309 0.22579 -0.13917
 H415 H -0.19414 0.21755 -0.14501
 H416 H -0.09775 0.17878 -0.16198
 H417 H -0.20056 0.26727 -0.11629
 H418 H -0.17870 0.31435 -0.09170
 H419 H -0.05516 0.27217 -0.13081
 H420 H -0.03395 0.32129 -0.10996
 H421 H -0.15744 0.34901 -0.06150
 H422 H -0.13336 0.39755 -0.04121
 H423 H -0.04070 0.37221 -0.08295
 C424 C 0.17251 0.74040 -0.12764
 C425 C 0.13896 0.73191 -0.12733
 C426 C 0.11593 0.75401 -0.14121
 C427 C 0.12614 0.78419 -0.15279
 C428 C 0.15942 0.79255 -0.15205
 C429 C 0.18243 0.77006 -0.13995
 C430 C 0.08285 0.74586 -0.14349
 C431 C 0.07208 0.71600 -0.13275
 C432 C 0.09393 0.69340 -0.11815
 C433 C 0.12765 0.70210 -0.11417
 C434 C 0.14877 0.68118 -0.09634
 C435 C 0.13765 0.65238 -0.08352
 C436 C 0.10533 0.64277 -0.08863
 C437 C 0.08308 0.66272 -0.10659
 C438 C 0.05103 0.65086 -0.11243
 C439 C 0.04144 0.62099 -0.10005
 C440 C 0.06325 0.60220 -0.08123
 C441 C 0.09517 0.61321 -0.07571
 H442 H 0.19184 0.72434 -0.11937
 H443 H 0.10818 0.80127 -0.16245
 H444 H 0.20838 0.77539 -0.14016
 H445 H 0.06509 0.76264 -0.15404
 H446 H 0.04613 0.71173 -0.13526
 H447 H 0.17396 0.68691 -0.09084
 H448 H 0.15468 0.63731 -0.06962
 H449 H 0.03297 0.66380 -0.12691
 H450 H 0.01669 0.61281 -0.10483
 H451 H 0.11233 0.59853 -0.06153
 C452 C -0.10514 0.78566 0.11176
 C453 C -0.11844 0.75537 0.12015
 C454 C -0.14669 0.75504 0.13986
 C455 C -0.15891 0.78371 0.15305
 C456 C -0.14504 0.81329 0.14493
 C457 C -0.11867 0.81419 0.12367
 C458 C -0.16262 0.72615 0.14621
 C459 C -0.15155 0.69751 0.13281
 C460 C -0.12292 0.69645 0.11394
 C461 C -0.10503 0.72551 0.10923
 C462 C -0.07376 0.72358 0.09501
 C463 C -0.06066 0.69424 0.08523
 C464 C -0.07891 0.66608 0.08755
 C465 C -0.11087 0.66701 0.10071
 C466 C -0.12967 0.63851 0.09960
 C467 C -0.11656 0.61002 0.08724
 C468 C -0.08423 0.60889 0.07653
 C469 C -0.06546 0.63690 0.07666
 H470 H -0.08494 0.78805 0.09530
 H471 H -0.17973 0.78331 0.16915
 H472 H -0.10820 0.83709 0.11682
 H473 H -0.18423 0.72575 0.16126
 H474 H -0.16506 0.67617 0.13897
 H475 H -0.05815 0.74427 0.09258
 H476 H -0.03619 0.69370 0.07524
 H477 H -0.15485 0.63778 0.10724
 H478 H -0.13149 0.58857 0.08672
 H479 H -0.04061 0.63608 0.06757
 C480 C 1.12994 0.17255 0.74124
 C481 C 1.13047 0.13938 0.73362
 C482 C 1.14443 0.11780 0.75696
 C483 C 1.15524 0.12903 0.78743
 C484 C 1.15343 0.16189 0.79495
 C485 C 1.14136 0.18348 0.77124
 C486 C 1.14750 0.08515 0.74979
 C487 C 1.13736 0.07336 0.71978
 C488 C 1.12266 0.09372 0.69597
 C489 C 1.11801 0.12703 0.70356
 C490 C 1.10022 0.14672 0.68130
 C491 C 1.08803 0.13461 0.65228
 C492 C 1.09371 0.10264 0.64380
 C493 C 1.11165 0.08180 0.66513
 C494 C 1.11799 0.04999 0.65445
 C495 C 1.10618 0.03933 0.62435
 C496 C 1.08745 0.05980 0.60412
 C497 C 1.08139 0.09144 0.61399
 H498 H 1.12159 0.19083 0.72427
 H499 H 1.16495 0.11218 0.80544
 H500 H 1.14083 0.20910 0.77590
 H501 H 1.15813 0.06850 0.76750
 H502 H 1.14045 0.04783 0.71635
 H503 H 1.09427 0.17155 0.68607
 H504 H 1.07415 0.15057 0.63615
 H505 H 1.13244 0.03290 0.66849
 H506 H 1.11135 0.01479 0.61711
 H507 H 1.06726 0.10756 0.59822
 C508 C 0.85034 -0.10993 0.77355
 C509 C 0.86302 -0.12804 0.74750
 C510 C 0.86458 -0.16196 0.75130
 C511 C 0.85241 -0.17692 0.77924
 C512 C 0.83932 -0.15881 0.80487
 C513 C 0.83890 -0.12503 0.80159
 C514 C 0.87810 -0.18100 0.72710
 C515 C 0.89082 -0.16715 0.69931
 C516 C 0.88982 -0.13350 0.69419
 C517 C 0.87447 -0.11372 0.71803
 C518 C 0.87038 -0.08052 0.71122
 C519 C 0.88135 -0.06699 0.68239
 C520 C 0.89772 -0.08570 0.65964
 C521 C 0.90293 -0.11908 0.66558
 C522 C 0.92154 -0.13657 0.64279
 C523 C 0.93338 -0.12176 0.61490
 C524 C 0.92695 -0.08917 0.60850
 C525 C 0.90913 -0.07119 0.63100
 H526 H 0.84960 -0.08399 0.77339
 H527 H 0.85248 -0.20300 0.78067
 H528 H 0.83008 -0.11007 0.82113
 H529 H 0.87912 -0.20699 0.72977
 H530 H 0.90039 -0.18372 0.68173
 H531 H 0.85785 -0.06438 0.72734
 H532 H 0.87727 -0.04147 0.67804
 H533 H 0.92810 -0.16157 0.64611
 H534 H 0.94751 -0.13605 0.59809
 H535 H 0.90468 -0.04574 0.62650
 C536 C 1.13922 -0.09924 0.22128
 C537 C 1.12721 -0.11921 0.24641
 C538 C 1.12485 -0.15265 0.24019
 C539 C 1.13606 -0.16549 0.21090
 C540 C 1.14837 -0.14548 0.18642
 C541 C 1.14936 -0.11222 0.19180
 C542 C 1.11136 -0.17321 0.26322
 C543 C 1.09952 -0.16131 0.29224
 C544 C 1.10174 -0.12831 0.29991
 C545 C 1.11717 -0.10719 0.27726
 C546 C 1.12295 -0.07506 0.28663
 C547 C 1.11361 -0.06382 0.31687
 C548 C 1.09708 -0.08369 0.33851
 C549 C 1.08998 -0.11594 0.32996
 C550 C 1.07100 -0.13433 0.35174
 C551 C 1.06077 -0.12156 0.38122
 C552 C 1.06942 -0.09033 0.39020
 C553 C 1.08747 -0.07143 0.36869
 H554 H 1.14032 -0.07342 0.22333
 H555 H 1.13528 -0.19128 0.20715
 H556 H 1.15807 -0.09616 0.17302
 H557 H 1.10961 -0.19882 0.25863
 H558 H 1.08982 -0.17889 0.30880
 H559 H 1.13581 -0.05824 0.27150
 H560 H 1.11912 -0.03914 0.32325
 H561 H 1.06296 -0.15838 0.34638
 H562 H 1.04631 -0.13638 0.39726
 H563 H 1.09353 -0.04690 0.37519
 C564 C 0.89795 0.14298 0.23156
 C565 C 0.87931 0.13157 0.25787
 C566 C 0.84468 0.13210 0.25427
 C567 C 0.82959 0.14574 0.22644
 C568 C 0.84833 0.15842 0.20094
 C569 C 0.88276 0.15596 0.20377
 C570 C 0.82514 0.11943 0.27867
 C571 C 0.83918 0.10595 0.30659
 C572 C 0.87352 0.10545 0.31172
 C573 C 0.89384 0.11956 0.28750
 C574 C 0.92781 0.12218 0.29415
 C575 C 0.94158 0.11101 0.32322
 C576 C 0.92234 0.09593 0.34644
 C577 C 0.88817 0.09217 0.34072
 C578 C 0.87016 0.07489 0.36417
 C579 C 0.88533 0.06286 0.39239
 C580 C 0.91874 0.06788 0.39845
 C581 C 0.93716 0.08441 0.37536
 H582 H 0.92436 0.14172 0.23139
 H583 H 0.80304 0.14752 0.22528
 H584 H 0.89818 0.16406 0.18418
 H585 H 0.79862 0.11981 0.27612
 H586 H 0.82223 0.09711 0.32433
 H587 H 0.94440 0.13383 0.27776
 H588 H 0.96770 0.11400 0.32745
 H589 H 0.84448 0.06957 0.36113
 H590 H 0.87071 0.04971 0.40971
 H591 H 0.96324 0.08775 0.37960
 C592 C 0.09771 0.23089 -0.14774
 C593 C 0.11593 0.25627 -0.13366
 C594 C 0.15051 0.25249 -0.13150
 C595 C 0.16602 0.22542 -0.14469
 C596 C 0.14772 0.20091 -0.15923
 C597 C 0.11344 0.20367 -0.16013
 C598 C 0.16960 0.27582 -0.11640
 C599 C 0.15517 0.30284 -0.10289
 C600 C 0.12092 0.30808 -0.10475
 C601 C 0.10111 0.28508 -0.12152
 C602 C 0.06742 0.29215 -0.12647
 C603 C 0.05349 0.32054 -0.11519
 C604 C 0.07220 0.34250 -0.09758
 C605 C 0.10597 0.33614 -0.09126
 C606 C 0.12333 0.35804 -0.07139
 C607 C 0.10813 0.38569 -0.05962
 C608 C 0.07528 0.39264 -0.06735
 C609 C 0.05732 0.37085 -0.08617
 H610 H 0.07129 0.23105 -0.14902
 H611 H 0.19257 0.22352 -0.14391
 H612 H 0.09878 0.18467 -0.17065
 H613 H 0.19607 0.27309 -0.11483
 H614 H 0.17182 0.31985 -0.09213
 H615 H 0.05130 0.27666 -0.14006
 H616 H 0.02769 0.32525 -0.12013
 H617 H 0.14850 0.35423 -0.06387
 H618 H 0.12235 0.40191 -0.04462
 H619 H 0.03162 0.37574 -0.09158
 C620 C -0.14102 0.23170 0.11123
 C621 C -0.12628 0.25623 0.12993
 C622 C -0.12210 0.25063 0.16373
 C623 C -0.13478 0.22282 0.17834
 C624 C -0.15133 0.19951 0.15977
 C625 C -0.15321 0.20403 0.12588
 C626 C -0.10592 0.27313 0.18298
 C627 C -0.09396 0.30135 0.16951
 C628 C -0.09863 0.30870 0.13621
 C629 C -0.11582 0.28612 0.11627
 C630 C -0.12323 0.29471 0.08371
 C631 C -0.11415 0.32425 0.07097
 C632 C -0.09662 0.34610 0.08978
 C633 C -0.08774 0.33839 0.12238
 C634 C -0.06830 0.36083 0.13969
 C635 C -0.05929 0.39003 0.12550
 C636 C -0.06956 0.39795 0.09386
 C637 C -0.08801 0.37579 0.07606
 H638 H -0.14325 0.23295 0.08514
 H639 H -0.13307 0.22008 0.20452
 H640 H -0.16441 0.18595 0.11057
 H641 H -0.10253 0.26894 0.20885
 H642 H -0.08222 0.31758 0.18624
 H643 H -0.13722 0.27958 0.06763
 H644 H -0.12095 0.33003 0.04602
 H645 H -0.05920 0.35637 0.16402
 H646 H -0.04451 0.40664 0.13949
 H647 H -0.09539 0.38149 0.05124
 C648 C -0.10973 0.76428 -0.14697
 C649 C -0.12887 0.73862 -0.13509
 C650 C -0.16317 0.74384 -0.13282
 C651 C -0.17762 0.77283 -0.14369
 C652 C -0.15851 0.79800 -0.15622
 C653 C -0.12427 0.79329 -0.15715
 C654 C -0.18309 0.72001 -0.11990
 C655 C -0.16970 0.69123 -0.10841
 C656 C -0.13571 0.68473 -0.11015
 C657 C -0.11517 0.70819 -0.12506
 C658 C -0.08188 0.70013 -0.13010
 C659 C -0.06887 0.67054 -0.12016
 C660 C -0.08815 0.64821 -0.10391
 C661 C -0.12168 0.65524 -0.09805
 C662 C -0.13961 0.63275 -0.07957
 C663 C -0.12496 0.60439 -0.06801
 C664 C -0.09221 0.59716 -0.07478
 C665 C -0.07393 0.61902 -0.09298
 H666 H -0.08335 0.76300 -0.14803
 H667 H -0.20410 0.77545 -0.14319
 H668 H -0.10850 0.81240 -0.16552
 H669 H -0.20939 0.72376 -0.11835
 H670 H -0.18694 0.67405 -0.09917
 H671 H -0.06534 0.71592 -0.14255
 H672 H -0.04325 0.66532 -0.12480
 H673 H -0.16470 0.63677 -0.07267
 H674 H -0.13940 0.58798 -0.05359
 H675 H -0.04830 0.61382 -0.09765
 C676 C 0.09517 0.78177 0.13194
 C677 C 0.11407 0.75524 0.12110
 C678 C 0.14859 0.75899 0.11983
 C679 C 0.16340 0.78720 0.13115
 C680 C 0.14442 0.81276 0.14290
 C681 C 0.11019 0.81002 0.14248
 C682 C 0.16829 0.73443 0.10768
 C683 C 0.15457 0.70612 0.09643
 C684 C 0.12044 0.70081 0.09778
 C685 C 0.10000 0.72526 0.11145
 C686 C 0.06647 0.71847 0.11606
 C687 C 0.05331 0.68891 0.10748
 C688 C 0.07266 0.66535 0.09296
 C689 C 0.10626 0.67135 0.08692
 C690 C 0.12420 0.64765 0.06992
 C691 C 0.10972 0.61880 0.06068
 C692 C 0.07711 0.61236 0.06830
 C693 C 0.05858 0.63577 0.08431
 H694 H 0.06874 0.78164 0.13214
 H695 H 0.18992 0.78911 0.13134
 H696 H 0.09501 0.82978 0.15076
 H697 H 0.19470 0.73715 0.10675
 H698 H 0.17167 0.68824 0.08795
 H699 H 0.04990 0.73517 0.12741
 H700 H 0.02758 0.68455 0.11206
 H701 H 0.14926 0.65093 0.06272
 H702 H 0.12431 0.60124 0.04778
 H703 H 0.03302 0.63120 0.08951
 C704 C 0.22337 1.14670 0.89204
 C705 C 0.25259 1.14139 0.87459
 C706 C 0.25080 1.14416 0.84022
 C707 C 0.22149 1.15385 0.82449
 C708 C 0.19321 1.16030 0.84230
 C709 C 0.19428 1.15595 0.87607
 C710 C 0.27839 1.13777 0.82169
 C711 C 0.30775 1.12812 0.83636
 C712 C 0.31096 1.12514 0.87047
 C713 C 0.28335 1.13323 0.88997
 C714 C 0.28766 1.13364 0.92409
 C715 C 0.31757 1.12539 0.93874
 C716 C 0.34410 1.11549 0.92016
 C717 C 0.34104 1.11477 0.88575
 C718 C 0.36795 1.10272 0.86807
 C719 C 0.39640 1.09183 0.88391
 C720 C 0.39945 1.09306 0.91775
 C721 C 0.37347 1.10545 0.93582
 H722 H 0.22206 1.14363 0.91800
 H723 H 0.22087 1.15723 0.79835
 H724 H 0.17250 1.16030 0.89022
 H725 H 0.27724 1.14010 0.79544
 H726 H 0.32788 1.12408 0.82018
 H727 H 0.26849 1.14103 0.94024
 H728 H 0.31972 1.12618 0.96501
 H729 H 0.36740 1.10012 0.84206
 H730 H 0.41611 1.08198 0.86953
 H731 H 0.37550 1.10576 0.96212
 C732 C 0.22055 0.86539 1.09279
 C733 C 0.24818 0.87450 1.11175
 C734 C 0.24505 0.87398 1.14603
 C735 C 0.21615 0.86304 1.16041
 C736 C 0.18929 0.85348 1.14130
 C737 C 0.19165 0.85522 1.10741
 C738 C 0.27082 0.88417 1.16590
 C739 C 0.29958 0.89557 1.15259
 C740 C 0.30411 0.89645 1.11864
 C741 C 0.27860 0.88438 1.09796
 C742 C 0.28469 0.88185 1.06436
 C743 C 0.31439 0.89141 1.05132
 C744 C 0.33877 0.90489 1.07093
 C745 C 0.33365 0.90832 1.10477
 C746 C 0.35811 0.92415 1.12326
 C747 C 0.38661 0.93528 1.10886
 C748 C 0.39207 0.93075 1.07574
 C749 C 0.36813 0.91538 1.05683
 H750 H 0.22024 0.86642 1.06662
 H751 H 0.21466 0.86162 1.18665
 H752 H 0.17100 0.84846 1.09216
 H753 H 0.26866 0.88360 1.19212
 H754 H 0.31836 0.90257 1.16975
 H755 H 0.26726 0.87161 1.04753
 H756 H 0.31809 0.88863 1.02548
 H757 H 0.35558 0.92923 1.14873
 H758 H 0.40458 0.94750 1.12388
 H759 H 0.37192 0.91246 1.03099
 C760 C 0.75048 1.17748 1.13681
 C761 C 0.74204 1.14465 1.13462
 C762 C 0.76398 1.12167 1.14873
 C763 C 0.79429 1.13127 1.16211
 C764 C 0.80317 1.16399 1.16279
 C765 C 0.78023 1.18683 1.15067
 C766 C 0.75566 1.08916 1.14918
 C767 C 0.72575 1.07898 1.13646
 C768 C 0.70334 1.10090 1.12162
 C769 C 0.71236 1.13402 1.11936
 C770 C 0.69195 1.15527 1.10109
 C771 C 0.66305 1.14486 1.08656
 C772 C 0.65281 1.11315 1.09032
 C773 C 0.67249 1.09077 1.10834
 C774 C 0.66006 1.05934 1.11282
 C775 C 0.62971 1.05063 1.09959
 C776 C 0.61094 1.07266 1.08113
 C777 C 0.62275 1.10381 1.07636
 H778 H 0.73427 1.19665 1.12875
 H779 H 0.81142 1.11308 1.17117
 H780 H 0.78523 1.21235 1.15218
 H781 H 0.77232 1.07138 1.15983
 H782 H 0.72136 1.05346 1.13765
 H783 H 0.69819 1.18005 1.09665
 H784 H 0.64830 1.16199 1.07256
 H785 H 0.67274 1.04118 1.12715
 H786 H 0.62094 1.02643 1.10377
 H787 H 0.60811 1.12109 1.06242
 C788 C 0.76715 0.84746 0.89589
 C789 C 0.74116 0.86167 0.87750
 C790 C 0.74551 0.86512 0.84356
 C791 C 0.77389 0.85326 0.82872
 C792 C 0.79940 0.83853 0.84707
 C793 C 0.79561 0.83630 0.88097
 C794 C 0.72140 0.88022 0.82438
 C795 C 0.69326 0.89278 0.83817
 C796 C 0.68767 0.89003 0.87184
 C797 C 0.71126 0.87292 0.89160
 C798 C 0.70381 0.86702 0.92451
 C799 C 0.67471 0.87811 0.93789
 C800 C 0.65235 0.89640 0.91939
 C801 C 0.65887 0.90324 0.88628
 C802 C 0.63660 0.92371 0.86914
 C803 C 0.60883 0.93614 0.88407
 C804 C 0.60194 0.92839 0.91636
 C805 C 0.62368 0.90834 0.93392
 H806 H 0.76660 0.84526 0.92197
 H807 H 0.77572 0.85479 0.80251
 H808 H 0.81505 0.82617 0.89620
 H809 H 0.72445 0.88266 0.79835
 H810 H 0.67578 0.90370 0.82149
 H811 H 0.71965 0.85302 0.94046
 H812 H 0.66990 0.87271 0.96318
 H813 H 0.64040 0.93145 0.84446
 H814 H 0.59257 0.95196 0.87015
 H815 H 0.61881 0.90284 0.95919
   
