data_POSCAR
  _audit_creation_date              2014-09-24
  _audit_creation_method            'ToBaCCo'
  _symmetry_space_group_name_H-M    'P1'
  _symmetry_Int_Tables_number       1
  _symmetry_cell_setting            triclinic
  loop_
  _symmetry_equiv_pos_as_xyz
 x,y,z
_cell_length_a 25.3288
_cell_length_b 25.8155
_cell_length_c 23.7824
_cell_angle_alpha 89.272000
_cell_angle_beta 89.505900
_cell_angle_gamma 87.271800
loop_
  _atom_site_label
  _atom_site_type_symbol
  _atom_site_fract_x
  _atom_site_fract_y
  _atom_site_fract_z
C1 C 0.18654 0.15297 0.21864
 N2 N 0.21635 0.13963 0.17289
 C3 C 0.22399 0.17453 0.13083
 N4 N 0.20066 0.22274 0.13424
 C5 C 0.17122 0.23659 0.18006
 N6 N 0.16443 0.20182 0.22242
 C7 C -0.15421 0.82594 0.22652
 N8 N -0.20317 0.84985 0.22987
 C9 C -0.24035 0.84044 0.19080
 N10 N -0.22865 0.80593 0.14924
 C11 C -0.18029 0.78109 0.14644
 N12 N -0.14313 0.79168 0.18473
 C13 C -0.18279 0.18641 -0.24023
 N14 N -0.21251 0.15080 -0.21283
 C15 C -0.21701 0.15182 -0.15573
 N16 N -0.19037 0.18691 -0.12690
 C17 C -0.16249 0.22339 -0.15333
 N18 N -0.15912 0.22360 -0.21030
 C19 C 0.15194 0.85481 -0.19493
 N20 N 0.19979 0.86259 -0.17176
 C21 C 0.22849 0.82195 -0.14850
 N22 N 0.20805 0.77428 -0.14650
 C23 C 0.16019 0.76657 -0.16898
 N24 N 0.13278 0.80657 -0.19435
 C25 C 0.15583 1.18263 0.77577
 N26 N 0.20441 1.15800 0.77189
 C27 C 0.24130 1.16534 0.81177
 N28 N 0.22996 1.19825 0.85484
 C29 C 0.18212 1.22419 0.85812
 N30 N 0.14501 1.21558 0.81892
 C31 C 0.82920 0.84855 0.78030
 N32 N 0.85568 0.80156 0.77532
 C33 C 0.84967 0.76422 0.81561
 N34 N 0.81658 0.77386 0.85987
 C35 C 0.79007 0.82026 0.86463
 N36 N 0.79672 0.85746 0.82504
 C37 C 0.17826 0.82869 1.24126
 N38 N 0.21632 0.84349 1.20476
 C39 C 0.21569 0.82848 1.15027
 N40 N 0.17775 0.79689 1.13265
 C41 C 0.14033 0.78084 1.16940
 N42 N 0.14015 0.79780 1.22318
 C43 C 0.84829 1.14741 1.18579
 N44 N 0.86050 1.19804 1.17798
 C45 C 0.82366 1.23268 1.15608
 N46 N 0.77455 1.21697 1.14525
 C47 C 0.76268 1.16677 1.15134
 N48 N 0.79996 1.13170 1.17043
 O49 O 0.41037 1.10606 1.04318
 O50 O 0.36228 1.04648 0.99767
 C51 C 0.36669 1.08989 1.02351
 O52 O 0.59810 1.05664 0.89409
 O53 O 0.63928 1.01948 0.97121
 C54 C 0.63974 1.04593 0.92466
 O55 O 0.45132 1.06645 0.86263
 O56 O 0.38229 1.03103 0.91050
 C57 C 0.40124 1.05983 0.87100
 O58 O 0.55128 1.09797 1.08648
 O59 O 0.61846 1.03945 1.06247
 C60 C 0.60038 1.08138 1.08691
 Zr61 Zr 0.48557 1.06757 1.04688
 O62 O 0.48881 1.14881 1.03702
 O63 O 0.46303 1.07637 1.13210
 Zr64 Zr 0.51769 1.03863 0.91081
 O65 O 0.52657 1.11729 0.88816
 O66 O 0.53145 1.01591 0.82651
 O67 O 0.45702 1.06449 0.96515
 O68 O 0.54586 1.06153 0.98770
 O69 O 0.54617 0.91994 1.13195
 O70 O 0.61570 0.95270 1.08251
 C71 C 0.59612 0.92765 1.12462
 O72 O 0.44438 0.87624 0.91562
 O73 O 0.37963 0.94027 0.92901
 C74 C 0.39581 0.89459 0.91245
 O75 O 0.59039 0.87658 0.94220
 O76 O 0.63722 0.93422 0.99228
 C77 C 0.63363 0.89236 0.96357
 O78 O 0.40286 0.91587 1.08949
 O79 O 0.36005 0.95533 1.01451
 C80 C 0.36136 0.92515 1.05843
 Zr81 Zr 0.48128 0.94100 1.07865
 O82 O 0.48279 0.86213 1.10406
 O83 O 0.45572 0.96366 1.16010
 Zr84 Zr 0.51320 0.91193 0.94274
 O85 O 0.51660 0.83029 0.95109
 O86 O 0.52687 0.90212 0.85543
 Zr87 Zr 0.42327 0.99185 0.97558
 Zr88 Zr 0.57576 0.98780 1.01410
 O89 O 0.54088 0.91578 1.02416
 O90 O 0.45230 0.91757 1.00185
 O91 O 0.52742 1.00541 1.08461
 O92 O 0.47221 0.97436 0.90577
 O93 O 0.43573 1.00750 1.06085
 O94 O 0.56425 0.97168 0.92839
 H95 H 0.56937 1.09110 0.98595
 H96 H 0.45456 0.96845 0.86953
 H97 H 0.56208 0.88494 1.03767
 H98 H 0.40433 1.01420 1.08533
 H99 H 0.56601 0.99637 0.82521
 H100 H 0.56521 0.90500 0.84850
 H101 H 0.50975 0.82254 0.99120
 H102 H 0.46745 0.84270 1.07307
 H103 H 0.48385 0.98406 1.17636
 H104 H 0.45986 1.11422 1.13858
 H105 H 0.49667 1.15543 0.99691
 H106 H 0.49633 1.13756 0.90478
 O107 O -0.11138 0.44141 0.08898
 O108 O -0.04860 0.37821 0.06537
 C109 C -0.09332 0.39361 0.08828
 O110 O -0.07053 0.55344 -0.13047
 O111 O -0.03858 0.61945 -0.07841
 C112 C -0.06285 0.60206 -0.12145
 O113 O -0.07342 0.40966 -0.09535
 O114 O -0.03086 0.36400 -0.02413
 C115 C -0.06159 0.36703 -0.06735
 O116 O -0.11461 0.58435 0.06655
 O117 O -0.05853 0.63420 0.01515
 C118 C -0.09998 0.62838 0.04649
 Zr119 Zr -0.07856 0.50937 0.05721
 O120 O -0.16086 0.51076 0.04254
 O121 O -0.09022 0.52117 0.14428
 Zr122 Zr -0.05052 0.48679 -0.07974
 O123 O -0.13286 0.48853 -0.09378
 O124 O -0.03345 0.46672 -0.16427
 O125 O -0.07264 0.45249 -0.00407
 O126 O -0.07579 0.54228 -0.02234
 O127 O 0.06214 0.59013 0.10980
 O128 O 0.02780 0.63703 0.03482
 C129 C 0.05033 0.63341 0.08359
 O130 O 0.11730 0.41628 -0.05750
 O131 O 0.05964 0.36608 -0.00873
 C132 C 0.10238 0.37214 -0.03795
 O133 O 0.10356 0.55696 -0.09796
 O134 O 0.04750 0.62114 -0.06238
 C135 C 0.08587 0.60483 -0.09485
 O136 O 0.07855 0.44626 0.13142
 O137 O 0.04372 0.38085 0.08093
 C138 C 0.07197 0.39770 0.12131
 Zr139 Zr 0.05146 0.51305 0.08509
 O140 O 0.13304 0.52221 0.09830
 O141 O 0.03594 0.52069 0.17221
 Zr142 Zr 0.07996 0.49126 -0.05157
 O143 O 0.15968 0.50235 -0.03041
 O144 O 0.10450 0.47155 -0.13402
 Zr145 Zr 0.00372 0.42405 0.01805
 Zr146 Zr -0.00275 0.57654 -0.01260
 O147 O 0.07330 0.54750 0.00969
 O148 O 0.07776 0.45682 0.02790
 O149 O -0.01792 0.55847 0.07249
 O150 O 0.01865 0.44297 -0.06672
 O151 O -0.01386 0.46804 0.09016
 O152 O 0.01478 0.53260 -0.08535
 H153 H -0.10728 0.56412 -0.03356
 H154 H 0.02570 0.41462 -0.09385
 H155 H 0.10170 0.57256 0.01101
 H156 H -0.01936 0.44958 0.12637
 H157 H -0.01183 0.49411 -0.18072
 H158 H 0.07423 0.48047 -0.15878
 H159 H 0.17185 0.47288 -0.00605
 H160 H 0.15206 0.48932 0.08785
 H161 H 0.00239 0.54164 0.17601
 H162 H -0.12898 0.52241 0.15058
 H163 H -0.16617 0.48818 0.00997
 H164 H -0.13724 0.48223 -0.13446
 O165 O 0.89084 0.11366 0.53507
 O166 O 0.92554 0.07578 0.61559
 C167 C 0.89376 0.10870 0.58953
 O168 O 0.92215 -0.09673 0.42442
 O169 O 0.98404 -0.06208 0.36553
 C170 C 0.94669 -0.09338 0.37643
 O171 O 0.89066 -0.06800 0.57522
 O172 O 0.92621 -0.00895 0.63386
 C173 C 0.89441 -0.04540 0.62331
 O174 O 0.92623 0.08787 0.38252
 O175 O 0.98363 0.02554 0.34522
 C176 C 0.94836 0.06328 0.34037
 Zr177 Zr 0.93407 0.07320 0.47060
 O178 O 0.85333 0.07167 0.44871
 O179 O 0.93238 0.15445 0.45716
 Zr180 Zr 0.93299 -0.05520 0.49967
 O181 O 0.85168 -0.04773 0.48036
 O182 O 0.92892 -0.13494 0.52011
 O183 O 0.91353 0.01831 0.53127
 O184 O 0.93387 0.00007 0.43623
 O185 O 1.10496 0.08495 0.42184
 O186 O 1.07097 0.02394 0.36461
 C187 C 1.10234 0.06074 0.37449
 O188 O 1.07885 -0.06636 0.61429
 O189 O 1.01854 -0.00787 0.65340
 C190 C 1.05667 -0.04314 0.65690
 O191 O 1.10847 -0.09685 0.46467
 O192 O 1.07023 -0.06236 0.38460
 C193 C 1.10435 -0.09282 0.41049
 O194 O 1.07959 0.10827 0.57631
 O195 O 1.01483 0.07692 0.63377
 C196 C 1.05438 0.10573 0.62396
 Zr197 Zr 1.06442 0.07175 0.49891
 O198 O 1.14732 0.07206 0.50956
 O199 O 1.06133 0.15329 0.48702
 Zr200 Zr 1.06339 -0.05736 0.52789
 O201 O 1.14513 -0.06623 0.54454
 O202 O 1.05489 -0.13661 0.54867
 Zr203 Zr 0.98229 0.02347 0.57973
 Zr204 Zr 1.01554 -0.00761 0.41937
 O205 O 1.08319 -0.00164 0.46934
 O206 O 1.06436 0.01621 0.56339
 O207 O 1.00935 0.07292 0.43422
 O208 O 0.98871 -0.05642 0.56301
 O209 O 0.98965 0.09065 0.52959
 O210 O 1.00816 -0.07571 0.46783
 H211 H 0.90846 -0.00403 0.40534
 H212 H 0.98431 -0.08158 0.59431
 H213 H 1.11905 -0.00594 0.45258
 H214 H 0.98500 0.12517 0.54719
 H215 H 0.95978 -0.15314 0.50219
 H216 H 1.05221 -0.15579 0.51312
 H217 H 1.15759 -0.03102 0.55014
 H218 H 1.15561 0.05569 0.54646
 H219 H 1.05099 0.16067 0.44761
 H220 H 0.96195 0.16189 0.43132
 H221 H 0.83484 0.05453 0.48016
 H222 H 0.83803 -0.08289 0.48489
 N223 N 1.16562 0.03860 0.29815
 N224 N 1.19007 0.06490 0.25439
 C225 C 1.17592 0.11566 0.25928
 C226 C 1.14416 0.12319 0.30666
 C227 C 1.13840 0.07413 0.32916
 H228 H 1.12441 0.15899 0.32043
 H229 H 1.16657 -0.00166 0.30358
 H230 H 1.21173 0.04708 0.22179
 N231 N 0.96518 -0.15536 0.29936
 N232 N 0.93645 -0.17867 0.25776
 C233 C 0.88539 -0.16238 0.26401
 C234 C 0.88013 -0.12996 0.31018
 C235 C 0.93088 -0.12670 0.33087
 H236 H 0.84456 -0.10950 0.32521
 H237 H 1.00608 -0.15895 0.30371
 H238 H 0.95298 -0.20202 0.22599
 N239 N 0.86836 0.19725 0.62068
 N240 N 0.84893 0.21931 0.67042
 C241 C 0.82977 0.18112 0.70268
 C242 C 0.83684 0.13425 0.67467
 C243 C 0.86232 0.14579 0.62424
 H244 H 0.83144 0.09606 0.69224
 H245 H 0.89094 0.21645 0.59074
 H246 H 0.85304 0.25787 0.68171
 N247 N 1.09331 -0.02556 0.75135
 N248 N 1.12106 -0.05246 0.78964
 C249 C 1.12236 -0.10294 0.77568
 C250 C 1.09475 -0.10844 0.72657
 C251 C 1.07723 -0.05857 0.71226
 H252 H 1.09125 -0.14334 0.70236
 H253 H 1.08844 0.01486 0.75024
 H254 H 1.13975 -0.03629 0.82376
 N255 N 0.31044 1.17023 1.01246
 N256 N 0.27048 1.19488 1.04447
 C257 C 0.25680 1.16144 1.08545
 C258 C 0.28581 1.11490 1.07954
 C259 C 0.31901 1.12215 1.03399
 H260 H 0.28699 1.08206 1.10839
 H261 H 0.33305 1.18826 0.98167
 H262 H 0.25802 1.23386 1.04024
 N263 N 0.36122 0.80775 0.89892
 N264 N 0.31305 0.78765 0.88503
 C265 C 0.27984 0.82777 0.87018
 C266 C 0.30546 0.87392 0.87471
 C267 C 0.35605 0.85964 0.89310
 H268 H 0.28902 0.91289 0.86742
 H269 H 0.39380 0.78605 0.91467
 H270 H 0.30535 0.74825 0.88571
 N271 N 0.64572 0.92428 1.21430
 N272 N 0.69392 0.90108 1.23176
 C273 C 0.71055 0.86744 1.19168
 C274 C 0.67379 0.86803 1.14880
 C275 C 0.63429 0.90410 1.16421
 H276 H 0.67763 0.84844 1.10884
 H277 H 0.62602 0.95576 1.23374
 H278 H 0.71417 0.91095 1.26786
 N279 N 0.72667 1.07483 0.95142
 N280 N 0.76552 1.10566 0.92979
 C281 C 0.75425 1.11640 0.87554
 C282 C 0.70748 1.09297 0.86128
 C283 C 0.69093 1.06837 0.91083
 H284 H 0.68594 1.09742 0.82228
 H285 H 0.72389 1.06351 0.99363
 H286 H 0.79671 1.11904 0.95320
 N287 N 0.10732 0.35968 0.21143
 N288 N 0.13305 0.31613 0.22719
 C289 C 0.14353 0.28750 0.18107
 C290 C 0.12318 0.31309 0.13439
 C291 C 0.10034 0.35837 0.15541
 H292 H 0.12433 0.30031 0.09118
 H293 H 0.09401 0.38900 0.23866
 H294 H 0.14342 0.30653 0.26856
 N295 N -0.08969 0.27947 -0.04382
 N296 N -0.11678 0.24260 -0.06574
 C297 C -0.13108 0.25680 -0.11830
 C298 C -0.11246 0.30568 -0.13049
 C299 C -0.08640 0.31855 -0.08154
 H300 H -0.11804 0.32874 -0.16847
 H301 H -0.07500 0.27824 -0.00288
 H302 H -0.12533 0.20822 -0.04464
 N303 N 0.09095 0.65061 -0.18626
 N304 N 0.10885 0.69471 -0.20557
 C305 C 0.13788 0.71539 -0.16519
 C306 C 0.13825 0.68347 -0.11797
 C307 C 0.10800 0.64281 -0.13322
 H308 H 0.15454 0.69087 -0.07707
 H309 H 0.06506 0.62785 -0.20792
 H310 H 0.10001 0.71091 -0.24504
 N311 N -0.18356 0.68237 0.04244
 N312 N -0.20496 0.72304 0.06884
 C313 C -0.16885 0.74112 0.10398
 C314 C -0.12213 0.71122 0.09900
 C315 C -0.13334 0.67442 0.05972
 H316 H -0.08653 0.71337 0.12357
 H317 H -0.20366 0.65948 0.01460
 H318 H -0.24429 0.73651 0.06463
 N319 N 1.03646 0.16703 0.70161
 N320 N 1.06534 0.18941 0.74376
 C321 C 1.11626 0.17254 0.73757
 C322 C 1.12133 0.14071 0.69089
 C323 C 1.07061 0.13828 0.66994
 H324 H 1.15669 0.11990 0.67582
 H325 H 0.99550 0.17121 0.69698
 H326 H 1.04897 0.21244 0.77587
 N327 N 0.83137 -0.03316 0.70241
 N328 N 0.81336 -0.06340 0.74682
 C329 C 0.83523 -0.11175 0.74091
 C330 C 0.86611 -0.11391 0.69246
 C331 C 0.86261 -0.06405 0.66997
 H332 H 0.89035 -0.14654 0.67724
 H333 H 0.82309 0.00654 0.69707
 H334 H 0.78931 -0.04945 0.77973
 N335 N 1.19343 -0.10444 0.36935
 N336 N 1.21367 -0.12398 0.31874
 C337 C 1.17604 -0.15189 0.29565
 C338 C 1.13200 -0.15141 0.33071
 C339 C 1.14386 -0.12047 0.37555
 H340 H 1.09399 -0.16627 0.32140
 H341 H 1.21073 -0.07588 0.39276
 H342 H 1.24979 -0.11456 0.30073
 N343 N 0.91123 0.03690 0.25067
 N344 N 0.88105 0.06042 0.20797
 C345 C 0.88227 0.11215 0.21410
 C346 C 0.91227 0.12284 0.26107
 C347 C 0.92842 0.07460 0.28347
 H348 H 0.91591 0.16018 0.28051
 H349 H 0.91340 -0.00289 0.25948
 H350 H 0.85872 0.04061 0.17923
 N351 N 0.18551 0.31752 -0.03317
 N352 N 0.20812 0.27581 -0.06310
 C353 C 0.17182 0.26069 -0.09984
 C354 C 0.12536 0.29103 -0.09320
 C355 C 0.13572 0.32605 -0.05148
 H356 H 0.09001 0.29048 -0.11842
 H357 H 0.20542 0.33992 -0.00470
 H358 H 0.24753 0.26229 -0.06013
 N359 N -0.18119 0.36563 0.11607
 N360 N -0.20441 0.32067 0.13418
 C361 C -0.16560 0.28409 0.14327
 C362 C -0.11671 0.30463 0.13079
 C363 C -0.12865 0.35559 0.11289
 H364 H -0.07833 0.28433 0.13072
 H365 H -0.20207 0.39960 0.10341
 H366 H -0.24514 0.31668 0.13813
 N367 N -0.06553 0.65283 -0.21122
 N368 N -0.08888 0.70068 -0.22804
 C369 C -0.12229 0.71653 -0.18660
 C370 C -0.12141 0.67983 -0.14363
 C371 C -0.08557 0.64109 -0.16025
 H372 H -0.14115 0.68278 -0.10312
 H373 H -0.03436 0.63313 -0.23210
 H374 H -0.07945 0.72097 -0.26477
 N375 N 0.03513 0.69376 0.16212
 N376 N 0.05913 0.73234 0.18523
 C377 C 0.10030 0.74473 0.15228
 C378 C 0.10220 0.71289 0.10551
 C379 C 0.06012 0.68106 0.11373
 H380 H 0.13246 0.71009 0.07313
 H381 H 0.00368 0.67488 0.18061
 H382 H 0.04878 0.74814 0.22425
 N383 N 0.36556 1.09852 0.78091
 N384 N 0.32240 1.12573 0.76515
 C385 C 0.29194 1.13526 0.81098
 C386 C 0.31602 1.11257 0.85751
 C387 C 0.36235 1.08947 0.83670
 H388 H 0.30178 1.11279 0.90057
 H389 H 0.39607 1.08592 0.75381
 H390 H 0.31449 1.13812 0.72397
 N391 N 0.27796 0.88593 1.03123
 N392 N 0.24112 0.85801 1.05453
 C393 C 0.25201 0.85132 1.10950
 C394 C 0.29831 0.87555 1.12168
 C395 C 0.31337 0.89711 1.07073
 H396 H 0.31752 0.87811 1.16196
 H397 H 0.27876 0.89692 0.98886
 H398 H 0.20826 0.84532 1.03334
 N399 N 0.62356 1.16302 1.13166
 N400 N 0.66636 1.18586 1.14737
 C401 C 0.70833 1.15244 1.14112
 C402 C 0.69170 1.10598 1.12037
 C403 C 0.63746 1.11470 1.11451
 H404 H 0.71578 1.07213 1.10828
 H405 H 0.58582 1.18119 1.13074
 H406 H 0.66674 1.22411 1.16114
 N407 N 0.68844 0.81038 0.96779
 N408 N 0.73099 0.79109 0.94152
 C409 C 0.75108 0.82900 0.90957
 C410 C 0.72116 0.87455 0.91699
 C411 C 0.68178 0.86090 0.95368
 H412 H 0.72384 0.91074 0.89384
 H413 H 0.66291 0.78863 0.99223
 H414 H 0.74351 0.75195 0.94240
   
