data_POSCAR
  _audit_creation_date              2014-09-24
  _audit_creation_method            'ToBaCCo'
  _symmetry_space_group_name_H-M    'P1'
  _symmetry_Int_Tables_number       1
  _symmetry_cell_setting            triclinic
  loop_
  _symmetry_equiv_pos_as_xyz
 x,y,z
_cell_length_a 45.3119
_cell_length_b 45.3156
_cell_length_c 45.2885
_cell_angle_alpha 89.994000
_cell_angle_beta 90.000400
_cell_angle_gamma 89.950000
loop_
  _atom_site_label
  _atom_site_type_symbol
  _atom_site_fract_x
  _atom_site_fract_y
  _atom_site_fract_z
C1 C 0.19565 0.15714 0.19565
 C2 C 0.18292 0.14459 0.22097
 C3 C 0.15737 0.15686 0.23410
 C4 C 0.14492 0.18229 0.22089
 C5 C 0.15748 0.19505 0.19564
 C6 C 0.18298 0.18249 0.18302
 C7 C 0.22095 0.14460 0.18288
 C8 C 0.23422 0.15707 0.15750
 C9 C 0.22113 0.18264 0.14524
 C10 C 0.19581 0.19532 0.15777
 C11 C 0.18302 0.22061 0.14525
 C12 C 0.15763 0.23337 0.15774
 C13 C 0.14502 0.22043 0.18297
 H14 H 0.19250 0.12444 0.22951
 H15 H 0.12611 0.19320 0.23078
 H16 H 0.23086 0.12579 0.19378
 H17 H 0.22971 0.19230 0.12515
 H18 H 0.19267 0.23022 0.12558
 H19 H 0.12567 0.23035 0.19297
 C20 C -0.19566 0.84284 0.19569
 C21 C -0.18291 0.85542 0.22098
 C22 C -0.15734 0.84316 0.23410
 C23 C -0.14488 0.81775 0.22088
 C24 C -0.15741 0.80502 0.19559
 C25 C -0.18283 0.81765 0.18290
 C26 C -0.22094 0.85540 0.18290
 C27 C -0.23403 0.84312 0.15733
 C28 C -0.22076 0.81772 0.14489
 C29 C -0.19544 0.80504 0.15743
 C30 C -0.18271 0.77969 0.14498
 C31 C -0.15743 0.76682 0.15758
 C32 C -0.14491 0.77967 0.18290
 H33 H -0.19253 0.87553 0.22956
 H34 H -0.12609 0.80682 0.23079
 H35 H -0.22955 0.87551 0.19249
 H36 H -0.23062 0.80679 0.12609
 H37 H -0.19271 0.76972 0.12566
 H38 H -0.12518 0.77014 0.19252
 C39 C -0.19591 0.15755 -0.19529
 C40 C -0.18320 0.14509 -0.22065
 C41 C -0.15796 0.15769 -0.23359
 C42 C -0.14547 0.18306 -0.22081
 C43 C -0.15799 0.19580 -0.19553
 C44 C -0.18333 0.18303 -0.18272
 C45 C -0.22118 0.14502 -0.18253
 C46 C -0.23443 0.15748 -0.15712
 C47 C -0.22135 0.18303 -0.14483
 C48 C -0.19608 0.19575 -0.15738
 C49 C -0.18332 0.22105 -0.14487
 C50 C -0.15804 0.23391 -0.15746
 C51 C -0.14551 0.22111 -0.18282
 H52 H -0.19318 0.12576 -0.23058
 H53 H -0.12579 0.19270 -0.23039
 H54 H -0.23104 0.12621 -0.19344
 H55 H -0.22991 0.19264 -0.12471
 H56 H -0.19335 0.23102 -0.12557
 H57 H -0.12582 0.23065 -0.19247
 C58 C 0.19546 0.84245 -0.19571
 C59 C 0.18272 0.85499 -0.22101
 C60 C 0.15733 0.84255 -0.23427
 C61 C 0.14507 0.81698 -0.22118
 C62 C 0.15764 0.80422 -0.19591
 C63 C 0.18291 0.81698 -0.18311
 C64 C 0.22080 0.85490 -0.18299
 C65 C 0.23373 0.84229 -0.15773
 C66 C 0.22096 0.81693 -0.14521
 C67 C 0.19567 0.80422 -0.15770
 C68 C 0.18297 0.77892 -0.14521
 C69 C 0.15767 0.76609 -0.15778
 C70 C 0.14514 0.77893 -0.18313
 H71 H 0.19361 0.87381 -0.23088
 H72 H 0.12497 0.80737 -0.22975
 H73 H 0.23073 0.87423 -0.19299
 H74 H 0.23053 0.80729 -0.12550
 H75 H 0.19303 0.76895 -0.12591
 H76 H 0.12543 0.76939 -0.19275
 C77 C 0.15720 1.19571 0.80422
 C78 C 0.14463 1.18296 0.77893
 C79 C 0.15692 1.15741 0.76580
 C80 C 0.18235 1.14498 0.77901
 C81 C 0.19507 1.15750 0.80430
 C82 C 0.18241 1.18291 0.81700
 C83 C 0.14461 1.22097 0.81702
 C84 C 0.15688 1.23406 0.84260
 C85 C 0.18230 1.22081 0.85503
 C86 C 0.19501 1.19552 0.84248
 C87 C 0.22037 1.18280 0.85493
 C88 C 0.23327 1.15755 0.84232
 C89 C 0.22043 1.14503 0.81699
 H90 H 0.12451 1.19256 0.77036
 H91 H 0.19329 1.12620 0.76910
 H92 H 0.12449 1.22956 0.80743
 H93 H 0.19322 1.23067 0.87383
 H94 H 0.23033 1.19281 0.87425
 H95 H 0.22998 1.12531 0.80737
 C96 C 0.84287 0.80435 0.80430
 C97 C 0.85544 0.81713 0.77902
 C98 C 0.84317 0.84272 0.76593
 C99 C 0.81779 0.85518 0.77920
 C100 C 0.80509 0.84265 0.80451
 C101 C 0.81768 0.81717 0.81712
 C102 C 0.85543 0.77905 0.81705
 C103 C 0.84316 0.76593 0.84261
 C104 C 0.81776 0.77918 0.85506
 C105 C 0.80504 0.80448 0.84254
 C106 C 0.77971 0.81721 0.85503
 C107 C 0.76687 0.84254 0.84251
 C108 C 0.77976 0.85514 0.81724
 H109 H 0.87554 0.80751 0.77041
 H110 H 0.80687 0.87400 0.76934
 H111 H 0.87553 0.77045 0.80743
 H112 H 0.80682 0.76929 0.87385
 H113 H 0.77016 0.80760 0.87475
 H114 H 0.76980 0.87446 0.80723
 C115 C 0.15754 0.80406 1.19531
 C116 C 0.14507 0.81678 1.22067
 C117 C 0.15767 0.84202 1.23359
 C118 C 0.18304 0.85451 1.22082
 C119 C 0.19580 0.84199 1.19554
 C120 C 0.18302 0.81664 1.18275
 C121 C 0.14502 0.77878 1.18257
 C122 C 0.15749 0.76552 1.15716
 C123 C 0.18305 0.77860 1.14488
 C124 C 0.19576 0.80388 1.15742
 C125 C 0.22106 0.81663 1.14491
 C126 C 0.23392 0.84192 1.15748
 C127 C 0.22110 0.85445 1.18283
 H128 H 0.12573 0.80680 1.23060
 H129 H 0.19267 0.87420 1.23039
 H130 H 0.12620 0.76893 1.19348
 H131 H 0.19267 0.77003 1.12476
 H132 H 0.23104 0.80660 1.12561
 H133 H 0.23064 0.87415 1.19247
 C134 C 0.84249 1.19544 1.19562
 C135 C 0.85503 1.18272 1.22092
 C136 C 0.84259 1.15733 1.23420
 C137 C 0.81703 1.14506 1.22111
 C138 C 0.80428 1.15761 1.19582
 C139 C 0.81703 1.18288 1.18301
 C140 C 0.85494 1.22078 1.18288
 C141 C 0.84233 1.23368 1.15760
 C142 C 0.81698 1.22090 1.14508
 C143 C 0.80427 1.19561 1.15759
 C144 C 0.77898 1.18289 1.14510
 C145 C 0.76616 1.15760 1.15770
 C146 C 0.77899 1.14510 1.18306
 H147 H 0.87384 1.19362 1.23079
 H148 H 0.80742 1.12496 1.22969
 H149 H 0.87426 1.23071 1.19288
 H150 H 0.80734 1.23045 1.12537
 H151 H 0.76901 1.19294 1.12580
 H152 H 0.76945 1.12539 1.19268
 N153 N 0.53094 1.05235 0.96811
 N154 N 0.55328 1.07066 0.96439
 N155 N 0.46888 1.03178 0.94756
 N156 N 0.44652 1.03554 0.92925
 N157 N 0.46883 1.05225 0.96809
 N158 N 0.44642 1.07052 0.96434
 N159 N 0.53099 1.03188 0.94758
 N160 N 0.55338 1.03568 0.92931
 C161 C 0.56696 1.05992 0.94013
 C162 C 0.43283 1.05976 0.94005
 N163 N 0.46908 0.94768 0.96798
 N164 N 0.44675 0.92938 0.96420
 N165 N 0.53115 0.96830 0.94751
 N166 N 0.55353 0.96459 0.92921
 N167 N 0.53119 0.94778 0.96800
 N168 N 0.55360 0.92953 0.96423
 N169 N 0.46904 0.96821 0.94749
 N170 N 0.44667 0.96445 0.92919
 Mn171 Mn 0.50002 1.00004 0.94718
 C172 C 0.43309 0.94017 0.93995
 C173 C 0.56722 0.94035 0.93998
 N174 N 0.46880 1.05217 1.03171
 N175 N 0.44640 1.07044 1.03551
 N176 N 0.53096 1.03175 1.05221
 N177 N 0.55332 1.03552 1.07052
 N178 N 0.53091 1.05227 1.03173
 N179 N 0.55324 1.07059 1.03551
 N180 N 0.46885 1.03165 1.05219
 N181 N 0.44648 1.03536 1.07051
 Mn182 Mn 0.49987 1.05261 0.99991
 C183 C 0.43280 1.05962 1.05977
 C184 C 0.56689 1.05980 1.05976
 N185 N 0.53118 0.94770 1.03161
 N186 N 0.55359 0.92945 1.03536
 N187 N 0.46901 0.96807 1.05212
 N188 N 0.44665 0.96424 1.07042
 N189 N 0.46907 0.94760 1.03159
 N190 N 0.44675 0.92926 1.03532
 N191 N 0.53112 0.96818 1.05214
 N192 N 0.55349 0.96443 1.07044
 Mn193 Mn 0.50013 0.94734 0.99979
 Mn194 Mn 0.49998 0.99991 1.05252
 Cl195 Cl 0.50000 0.99998 0.99985
 C196 C 0.56719 0.94022 1.05964
 C197 C 0.43309 0.93998 1.05960
 N198 N 0.05223 0.46878 -0.03166
 N199 N 0.07049 0.44637 -0.03542
 N200 N 0.03182 0.53092 -0.05223
 N201 N 0.03561 0.55327 -0.07055
 N202 N 0.05233 0.53089 -0.03173
 N203 N 0.07065 0.55321 -0.03551
 N204 N 0.03172 0.46882 -0.05217
 N205 N 0.03544 0.44643 -0.07045
 C206 C 0.05968 0.43275 -0.05967
 C207 C 0.05988 0.56685 -0.05979
 N208 N -0.05225 0.53116 -0.03169
 N209 N -0.07050 0.55357 -0.03547
 N210 N -0.03186 0.46898 -0.05214
 N211 N -0.03568 0.44662 -0.07043
 N212 N -0.05235 0.46905 -0.03163
 N213 N -0.07070 0.44674 -0.03537
 N214 N -0.03176 0.53108 -0.05221
 N215 N -0.03549 0.55344 -0.07053
 Mn216 Mn -0.00002 0.49995 -0.05254
 C217 C -0.05971 0.56715 -0.05976
 C218 C -0.05996 0.43307 -0.05963
 N219 N 0.05235 0.53095 0.03189
 N220 N 0.07067 0.55329 0.03561
 N221 N 0.03176 0.46892 0.05247
 N222 N 0.03550 0.44656 0.07080
 N223 N 0.05225 0.46885 0.03195
 N224 N 0.07051 0.44644 0.03573
 N225 N 0.03186 0.53103 0.05240
 N226 N 0.03565 0.55341 0.07067
 Mn227 Mn 0.05264 0.49987 0.00011
 C228 C 0.05991 0.56698 0.05986
 C229 C 0.05972 0.43287 0.06002
 N230 N -0.05233 0.46911 0.03198
 N231 N -0.07063 0.44676 0.03575
 N232 N -0.03172 0.53118 0.05242
 N233 N -0.03546 0.55356 0.07071
 N234 N -0.05223 0.53121 0.03192
 N235 N -0.07049 0.55361 0.03567
 N236 N -0.03182 0.46907 0.05249
 N237 N -0.03559 0.44671 0.07079
 Mn238 Mn -0.05264 0.50013 0.00015
 Mn239 Mn 0.00002 0.50005 0.05280
 Cl240 Cl 0.00000 0.50000 0.00013
 C241 C -0.05985 0.43312 0.06001
 C242 C -0.05970 0.56724 0.05992
 N243 N 0.94767 0.03184 0.53104
 N244 N 0.92937 0.03561 0.55340
 N245 N 0.96819 0.05231 0.46890
 N246 N 0.96442 0.07061 0.44652
 N247 N 0.94769 0.03183 0.46890
 N248 N 0.92940 0.03561 0.44652
 N249 N 0.96817 0.05232 0.53104
 N250 N 0.96439 0.07062 0.55341
 C251 C 0.94013 0.05986 0.56704
 C252 C 0.94017 0.05985 0.43288
 N253 N 1.05227 0.03175 0.46892
 N254 N 1.07056 0.03548 0.44653
 N255 N 1.03175 0.05228 0.53105
 N256 N 1.03550 0.07057 0.55342
 N257 N 1.05225 0.03176 0.53106
 N258 N 1.07054 0.03552 0.55345
 N259 N 1.03177 0.05226 0.46891
 N260 N 1.03553 0.07054 0.44651
 Mn261 Mn 0.99997 0.05264 0.49997
 C262 C 1.05978 0.05973 0.43288
 C263 C 1.05975 0.05978 0.56707
 N264 N 0.94769 -0.03174 0.46891
 N265 N 0.92941 -0.03548 0.44653
 N266 N 0.96819 -0.05225 0.53107
 N267 N 0.96444 -0.07052 0.55346
 N268 N 0.94768 -0.03174 0.53106
 N269 N 0.92940 -0.03547 0.55345
 N270 N 0.96819 -0.05226 0.46892
 N271 N 0.96444 -0.07054 0.44654
 Mn272 Mn 0.94733 0.00005 0.49998
 C273 C 0.94019 -0.05974 0.43289
 C274 C 0.94019 -0.05972 0.56710
 N275 N 1.05226 -0.03181 0.53108
 N276 N 1.07056 -0.03558 0.55346
 N277 N 1.03177 -0.05231 0.46894
 N278 N 1.03554 -0.07062 0.44658
 N279 N 1.05227 -0.03183 0.46893
 N280 N 1.07057 -0.03562 0.44656
 N281 N 1.03177 -0.05229 0.53108
 N282 N 1.03553 -0.07059 0.55346
 Mn283 Mn 1.05261 -0.00003 0.50000
 Mn284 Mn 0.99998 -0.05263 0.50000
 Cl285 Cl 0.99997 0.00001 0.49999
 C286 C 1.05978 -0.05983 0.56710
 C287 C 1.05980 -0.05987 0.43294
 C288 C 1.10182 0.13510 0.29167
 C289 C 1.11930 0.11884 0.31116
 C290 C 1.14930 0.11502 0.30524
 C291 C 1.16185 0.12741 0.27992
 C292 C 1.14461 0.14407 0.25984
 C293 C 1.11424 0.14760 0.26634
 C294 C 1.10647 0.10611 0.33730
 C295 C 1.09574 0.09548 0.35920
 C296 C 1.08320 0.08304 0.38487
 C297 C 1.07250 0.07241 0.40679
 H298 H 1.07846 0.13798 0.29592
 H299 H 1.16312 0.10265 0.32035
 H300 H 1.18540 0.12480 0.27705
 H301 H 1.09948 0.15897 0.25142
 C302 C 0.89820 -0.13508 0.29167
 C303 C 0.88071 -0.11885 0.31118
 C304 C 0.85070 -0.11506 0.30526
 C305 C 0.83815 -0.12744 0.27995
 C306 C 0.85540 -0.14406 0.25985
 C307 C 0.88578 -0.14757 0.26633
 C308 C 0.89354 -0.10613 0.33731
 C309 C 0.90426 -0.09550 0.35922
 C310 C 0.91679 -0.08306 0.38488
 C311 C 0.92748 -0.07242 0.40680
 H312 H 0.92156 -0.13794 0.29591
 H313 H 0.83688 -0.10271 0.32039
 H314 H 0.81461 -0.12484 0.27708
 H315 H 0.90055 -0.15892 0.25141
 C316 C 0.87789 0.14998 0.69105
 C317 C 0.88047 0.11931 0.68855
 C318 C 0.87051 0.10115 0.71147
 C319 C 0.85800 0.11360 0.73680
 C320 C 0.85532 0.14442 0.73953
 C321 C 0.86541 0.16248 0.71636
 C322 C 0.89332 0.10648 0.66247
 C323 C 0.90407 0.09578 0.64060
 C324 C 0.91664 0.08327 0.61498
 C325 C 0.92737 0.07260 0.59309
 H326 H 0.88545 0.16423 0.67340
 H327 H 0.87247 0.07738 0.70980
 H328 H 0.85077 0.09915 0.75441
 H329 H 0.86330 0.18625 0.71764
 C330 C 1.11551 -0.14934 0.69459
 C331 C 1.11923 -0.11933 0.68870
 C332 C 1.13546 -0.10186 0.70821
 C333 C 1.14800 -0.11430 0.73352
 C334 C 1.14454 -0.14468 0.73999
 C335 C 1.12794 -0.16191 0.71988
 C336 C 1.10643 -0.10648 0.66260
 C337 C 1.09573 -0.09576 0.64072
 C338 C 1.08320 -0.08324 0.61508
 C339 C 1.07252 -0.07256 0.59317
 H340 H 1.10317 -0.16315 0.67946
 H341 H 1.13827 -0.07849 0.70398
 H342 H 1.15934 -0.09955 0.74845
 H343 H 1.12539 -0.18546 0.72272
 C344 C 0.29178 1.10152 1.13562
 C345 C 0.31127 1.11902 1.11939
 C346 C 0.30536 1.14903 1.11569
 C347 C 0.28007 1.16159 1.12814
 C348 C 0.25998 1.14433 1.14473
 C349 C 0.26647 1.11394 1.14817
 C350 C 0.33735 1.10619 1.10656
 C351 C 0.35922 1.09548 1.09583
 C352 C 0.38484 1.08297 1.08326
 C353 C 0.40673 1.07230 1.07254
 H354 H 0.29602 1.07815 1.13841
 H355 H 0.32047 1.16286 1.10336
 H356 H 0.27722 1.18514 1.12560
 H357 H 0.25156 1.09917 1.15950
 C358 C 0.30908 0.85000 0.87809
 C359 C 0.31157 0.88067 0.88059
 C360 C 0.28864 0.89883 0.87062
 C361 C 0.26332 0.88638 0.85817
 C362 C 0.26059 0.85555 0.85554
 C363 C 0.28377 0.83750 0.86566
 C364 C 0.33767 0.89351 0.89336
 C365 C 0.35954 0.90423 0.90404
 C366 C 0.38516 0.91676 0.91654
 C367 C 0.40704 0.92744 0.92721
 H368 H 0.32673 0.83574 0.88566
 H369 H 0.29031 0.92260 0.87253
 H370 H 0.24570 0.90083 0.85092
 H371 H 0.28248 0.81373 0.86360
 C372 C 0.69478 0.88486 1.14922
 C373 C 0.68889 0.88107 1.11920
 C374 C 0.70842 0.86484 1.10172
 C375 C 0.73375 0.85236 1.11416
 C376 C 0.74022 0.85587 1.14456
 C377 C 0.72010 0.87248 1.16180
 C378 C 0.66276 0.89380 1.10635
 C379 C 0.64086 0.90444 1.09561
 C380 C 0.61520 0.91690 1.08306
 C381 C 0.59328 0.92753 1.07237
 H382 H 0.67964 0.89720 1.16303
 H383 H 0.70418 0.86199 1.07835
 H384 H 0.74868 0.84101 1.09940
 H385 H 0.72294 0.87507 1.18535
 C386 C 0.70806 1.10194 0.86469
 C387 C 0.68855 1.11943 0.88093
 C388 C 0.69444 1.14943 0.88470
 C389 C 0.71974 1.16198 0.87229
 C390 C 0.73983 1.14473 0.85566
 C391 C 0.73337 1.11435 0.85217
 C392 C 0.66245 1.10660 0.89368
 C393 C 0.64056 1.09589 0.90434
 C394 C 0.61492 1.08336 0.91680
 C395 C 0.59302 1.07267 0.92745
 H396 H 0.70383 1.07858 0.86185
 H397 H 0.67932 1.16325 0.89704
 H398 H 0.72258 1.18552 0.87487
 H399 H 0.74830 1.09959 0.84082
 C400 C 0.14987 0.30876 0.12200
 C401 C 0.11919 0.31127 0.11945
 C402 C 0.10105 0.28834 0.12937
 C403 C 0.11352 0.26300 0.14182
 C404 C 0.14435 0.26026 0.14448
 C405 C 0.16239 0.28344 0.13442
 C406 C 0.10634 0.33738 0.10668
 C407 C 0.09561 0.35926 0.09599
 C408 C 0.08309 0.38490 0.08347
 C409 C 0.07242 0.40680 0.07278
 H410 H 0.16411 0.32642 0.11446
 H411 H 0.07728 0.29002 0.12743
 H412 H 0.09908 0.24538 0.14902
 H413 H 0.18616 0.28214 0.13652
 C414 C -0.12967 0.28882 -0.10089
 C415 C -0.11965 0.31170 -0.11906
 C416 C -0.12215 0.30918 -0.14975
 C417 C -0.13462 0.28390 -0.16226
 C418 C -0.14477 0.26077 -0.14419
 C419 C -0.14216 0.26352 -0.11335
 C420 C -0.10681 0.33775 -0.10623
 C421 C -0.09607 0.35960 -0.09552
 C422 C -0.08349 0.38519 -0.08301
 C423 C -0.07275 0.40705 -0.07235
 H424 H -0.12776 0.29051 -0.07710
 H425 H -0.11455 0.32680 -0.16402
 H426 H -0.13668 0.28260 -0.18604
 H427 H -0.14944 0.24594 -0.09888
 C428 C 0.12178 0.69082 -0.15006
 C429 C 0.11933 0.68828 -0.11936
 C430 C 0.12936 0.71116 -0.10120
 C431 C 0.14183 0.73647 -0.11366
 C432 C 0.14440 0.73924 -0.14451
 C433 C 0.13422 0.71612 -0.16257
 C434 C 0.10654 0.66221 -0.10651
 C435 C 0.09584 0.64035 -0.09578
 C436 C 0.08332 0.61475 -0.08323
 C437 C 0.07263 0.59288 -0.07253
 H438 H 0.11415 0.67321 -0.16432
 H439 H 0.12750 0.70945 -0.07741
 H440 H 0.14912 0.75404 -0.09920
 H441 H 0.13624 0.71744 -0.18636
 C442 C -0.12907 0.71177 0.10109
 C443 C -0.11905 0.68890 0.11930
 C444 C -0.12152 0.69148 0.14999
 C445 C -0.13397 0.71682 0.16246
 C446 C -0.14414 0.73993 0.14435
 C447 C -0.14155 0.73712 0.11351
 C448 C -0.10626 0.66278 0.10650
 C449 C -0.09557 0.64089 0.09580
 C450 C -0.08307 0.61524 0.08331
 C451 C -0.07240 0.59332 0.07264
 H452 H -0.12719 0.71003 0.07731
 H453 H -0.11391 0.67387 0.16428
 H454 H -0.13601 0.71817 0.18624
 H455 H -0.14883 0.75468 0.09902
 C456 C 1.13520 0.10186 0.70823
 C457 C 1.11893 0.11933 0.68873
 C458 C 1.11510 0.14933 0.69465
 C459 C 1.12749 0.16189 0.71996
 C460 C 1.14415 0.14465 0.74005
 C461 C 1.14769 0.11428 0.73356
 C462 C 1.10620 0.10649 0.66260
 C463 C 1.09556 0.09576 0.64071
 C464 C 1.08310 0.08321 0.61506
 C465 C 1.07246 0.07251 0.59315
 H466 H 1.13808 0.07850 0.70398
 H467 H 1.10273 0.16314 0.67953
 H468 H 1.12486 0.18543 0.72283
 H469 H 1.15907 0.09953 0.74847
 C470 C 0.88488 -0.14920 0.69473
 C471 C 0.88111 -0.11919 0.68884
 C472 C 0.86490 -0.10171 0.70839
 C473 C 0.85243 -0.11414 0.73372
 C474 C 0.85593 -0.14452 0.74018
 C475 C 0.87251 -0.16177 0.72005
 C476 C 0.89381 -0.10635 0.66270
 C477 C 0.90444 -0.09563 0.64079
 C478 C 0.91687 -0.08310 0.61512
 C479 C 0.92750 -0.07242 0.59320
 H480 H 0.89720 -0.16302 0.67957
 H481 H 0.86206 -0.07834 0.70416
 H482 H 0.84111 -0.09938 0.74867
 H483 H 0.87509 -0.18532 0.72288
 C484 C 1.14993 -0.12211 0.30895
 C485 C 1.11925 -0.11954 0.31144
 C486 C 1.10110 -0.12951 0.28852
 C487 C 1.11356 -0.14202 0.26319
 C488 C 1.14439 -0.14470 0.26047
 C489 C 1.16244 -0.13459 0.28364
 C490 C 1.10642 -0.10669 0.33752
 C491 C 1.09571 -0.09594 0.35938
 C492 C 1.08320 -0.08337 0.38500
 C493 C 1.07253 -0.07264 0.40688
 H494 H 1.16418 -0.11455 0.32660
 H495 H 1.07733 -0.12755 0.29019
 H496 H 1.09912 -0.14925 0.24558
 H497 H 1.18621 -0.13670 0.28236
 C498 C 0.85068 0.11556 0.30537
 C499 C 0.88069 0.11929 0.31126
 C500 C 0.89817 0.13552 0.29175
 C501 C 0.88573 0.14804 0.26643
 C502 C 0.85535 0.14457 0.25996
 C503 C 0.83811 0.12798 0.28007
 C504 C 0.89353 0.10651 0.33737
 C505 C 0.90425 0.09580 0.35926
 C506 C 0.91677 0.08328 0.38490
 C507 C 0.92745 0.07259 0.40680
 H508 H 0.83687 0.10323 0.32050
 H509 H 0.92153 0.13833 0.29598
 H510 H 0.90049 0.15938 0.25150
 H511 H 0.81457 0.12542 0.27722
 C512 C 0.13511 0.29157 -0.10178
 C513 C 0.11885 0.31108 -0.11925
 C514 C 0.11506 0.30519 -0.14927
 C515 C 0.12746 0.27990 -0.16185
 C516 C 0.14410 0.25979 -0.14462
 C517 C 0.14761 0.26625 -0.11423
 C518 C 0.10611 0.33720 -0.10639
 C519 C 0.09546 0.35909 -0.09564
 C520 C 0.08300 0.38474 -0.08310
 C521 C 0.07236 0.40666 -0.07240
 H522 H 0.13797 0.29580 -0.07840
 H523 H 0.10270 0.32032 -0.16308
 H524 H 0.12486 0.27706 -0.18541
 H525 H 0.15898 0.25133 -0.09947
 C526 C -0.10115 0.28862 0.12927
 C527 C -0.11931 0.31154 0.11929
 C528 C -0.14999 0.30903 0.12177
 C529 C -0.16248 0.28371 0.13420
 C530 C -0.14441 0.26055 0.14433
 C531 C -0.11359 0.26329 0.14172
 C532 C -0.10648 0.33764 0.10654
 C533 C -0.09577 0.35952 0.09587
 C534 C -0.08325 0.38516 0.08338
 C535 C -0.07257 0.40705 0.07272
 H536 H -0.07737 0.29031 0.12737
 H537 H -0.16425 0.32667 0.11419
 H538 H -0.18625 0.28241 0.13625
 H539 H -0.09913 0.24569 0.14897
 C540 C -0.13509 0.70834 -0.10184
 C541 C -0.11885 0.68884 -0.11933
 C542 C -0.11507 0.69476 -0.14935
 C543 C -0.12746 0.72008 -0.16190
 C544 C -0.14408 0.74017 -0.14464
 C545 C -0.14758 0.73367 -0.11426
 C546 C -0.10612 0.66270 -0.10650
 C547 C -0.09547 0.64080 -0.09577
 C548 C -0.08303 0.61514 -0.08321
 C549 C -0.07239 0.59323 -0.07251
 H550 H -0.13794 0.70408 -0.07846
 H551 H -0.10272 0.67964 -0.16318
 H552 H -0.12486 0.72295 -0.18546
 H553 H -0.15894 0.74859 -0.09948
 C554 C 0.10194 0.70803 0.13535
 C555 C 0.11943 0.68852 0.11911
 C556 C 0.14944 0.69441 0.11536
 C557 C 0.16199 0.71969 0.12777
 C558 C 0.14474 0.73979 0.14439
 C559 C 0.11436 0.73334 0.14787
 C560 C 0.10660 0.66243 0.10635
 C561 C 0.09589 0.64056 0.09567
 C562 C 0.08336 0.61493 0.08319
 C563 C 0.07266 0.59304 0.07254
 H564 H 0.07858 0.70381 0.13818
 H565 H 0.16326 0.67928 0.10301
 H566 H 0.18553 0.72253 0.12520
 H567 H 0.09959 0.74826 0.15922
 C568 C 0.30863 1.12168 0.84994
 C569 C 0.31120 1.11918 0.88063
 C570 C 0.28832 1.12918 0.89882
 C571 C 0.26297 1.14166 0.88640
 C572 C 0.26017 1.14427 0.85556
 C573 C 0.28329 1.13413 0.83746
 C574 C 0.33732 1.10639 0.89343
 C575 C 0.35921 1.09568 0.90413
 C576 C 0.38485 1.08316 0.91664
 C577 C 0.40675 1.07248 0.92732
 H578 H 0.32625 1.11408 0.83565
 H579 H 0.29005 1.12728 0.92261
 H580 H 0.24539 1.14892 0.90088
 H581 H 0.28195 1.13618 0.81368
 C582 C 0.28884 0.87027 1.10090
 C583 C 0.31171 0.88031 1.11906
 C584 C 0.30919 0.87782 1.14976
 C585 C 0.28390 0.86535 1.16227
 C586 C 0.26077 0.85519 1.14420
 C587 C 0.26353 0.85778 1.11336
 C588 C 0.33777 0.89314 1.10622
 C589 C 0.35961 0.90388 1.09551
 C590 C 0.38520 0.91645 1.08299
 C591 C 0.40706 0.92718 1.07231
 H592 H 0.29053 0.87216 1.07711
 H593 H 0.32680 0.88544 1.16402
 H594 H 0.28259 0.86331 1.18606
 H595 H 0.24595 0.85050 1.09890
 C596 C 0.69088 1.12170 1.14999
 C597 C 0.68835 1.11922 1.11929
 C598 C 0.71123 1.12925 1.10113
 C599 C 0.73654 1.14172 1.11358
 C600 C 0.73930 1.14431 1.14443
 C601 C 0.71618 1.13415 1.16250
 C602 C 0.66227 1.10644 1.10645
 C603 C 0.64042 1.09574 1.09573
 C604 C 0.61481 1.08323 1.08319
 C605 C 0.59293 1.07254 1.07250
 H606 H 0.67327 1.11409 1.16425
 H607 H 0.70953 1.12737 1.07734
 H608 H 0.75412 1.14901 1.09912
 H609 H 0.71749 1.13619 1.18628
 C610 C 0.69150 0.85026 0.87830
 C611 C 0.68894 0.88094 0.88077
 C612 C 0.71184 0.89909 0.87080
 C613 C 0.73720 0.88664 0.85837
 C614 C 0.73999 0.85581 0.85578
 C615 C 0.71685 0.83776 0.86590
 C616 C 0.66281 0.89378 0.89349
 C617 C 0.64090 0.90450 0.90413
 C618 C 0.61524 0.91701 0.91660
 C619 C 0.59332 0.92767 0.92725
 H620 H 0.67387 0.83601 0.88587
 H621 H 0.71012 0.92287 0.87268
 H622 H 0.75479 0.90109 0.85113
 H623 H 0.71818 0.81399 0.86385
   
