data_POSCAR
  _audit_creation_date              2014-09-24
  _audit_creation_method            'ToBaCCo'
  _symmetry_space_group_name_H-M    'P1'
  _symmetry_Int_Tables_number       1
  _symmetry_cell_setting            triclinic
  loop_
  _symmetry_equiv_pos_as_xyz
 x,y,z
_cell_length_a 54.5357
_cell_length_b 52.2429
_cell_length_c 54.8672
_cell_angle_alpha 89.868200
_cell_angle_beta 90.618400
_cell_angle_gamma 89.421600
loop_
  _atom_site_label
  _atom_site_type_symbol
  _atom_site_fract_x
  _atom_site_fract_y
  _atom_site_fract_z
C1 C 0.21085 0.51947 1.02934
 H2 H 0.20838 0.53265 1.01425
 C3 C 0.19558 0.52120 1.04951
 H4 H 0.18114 0.53547 1.04873
 C5 C 0.23166 0.48378 1.04652
 H6 H 0.24552 0.46898 1.04521
 C7 C 0.21711 0.48504 1.06728
 H8 H 0.22129 0.47157 1.08172
 N9 N 0.22846 0.50101 1.02817
 C10 C 0.28272 0.53081 0.97813
 H11 H 0.28183 0.51676 0.96371
 C12 C 0.29934 0.55089 0.97670
 H13 H 0.31078 0.55240 0.96077
 C14 C 0.26875 0.54571 1.01634
 H15 H 0.25714 0.54330 1.03200
 C16 C 0.28531 0.56591 1.01580
 H17 H 0.28627 0.57876 1.03122
 Zn18 Zn 0.24711 0.49989 0.99929
 N19 N 0.26776 0.52868 0.99766
 C20 C 0.22436 0.51803 0.95536
 N21 N 0.22450 0.49957 0.97288
 C22 C 0.20744 0.48078 0.97291
 C23 C 0.18940 0.47991 0.95470
 C24 C 0.20672 0.51780 0.93670
 C25 C 0.28502 0.46788 1.01634
 C26 C 0.30103 0.44688 1.01643
 C27 C 0.28177 0.43217 0.97922
 C28 C 0.26581 0.45323 0.98007
 N29 N 0.26758 0.47045 0.99857
 H30 H 0.23771 0.53314 0.95591
 H31 H 0.20771 0.46662 0.98733
 H32 H 0.17572 0.46506 0.95540
 H33 H 0.20714 0.53248 0.92276
 H34 H 0.28649 0.48224 1.03044
 H35 H 0.31482 0.44509 1.03071
 H36 H 0.28021 0.41861 0.96440
 H37 H 0.25228 0.45597 0.96576
 C38 C 0.30100 0.56868 0.99582
 C39 C 0.19837 0.50385 1.06923
 C40 C 0.29953 0.42878 0.99766
 C41 C 0.18885 0.49860 0.93625
 C42 C 0.79321 0.51298 -0.02250
 H43 H 0.79530 0.52632 -0.00759
 C44 C 0.80961 0.51337 -0.04185
 H45 H 0.82442 0.52701 -0.04157
 C46 C 0.77193 0.47824 -0.04025
 H47 H 0.75740 0.46439 -0.03942
 C48 C 0.78790 0.47800 -0.06000
 H49 H 0.78515 0.46418 -0.07441
 N50 N 0.77477 0.49566 -0.02208
 C51 C 0.71593 0.52604 0.02268
 H52 H 0.71398 0.51041 0.03545
 C53 C 0.69910 0.54634 0.02267
 H54 H 0.68430 0.54638 0.03568
 C55 C 0.73717 0.54456 -0.01033
 H56 H 0.75164 0.54348 -0.02358
 C57 C 0.72091 0.56541 -0.01078
 H58 H 0.72302 0.58023 -0.02440
 Zn59 Zn 0.75427 0.49547 0.00555
 N60 N 0.73436 0.52537 0.00619
 C61 C 0.77347 0.51168 0.05138
 N62 N 0.77488 0.49376 0.03348
 C63 C 0.79213 0.47481 0.03427
 C64 C 0.80887 0.47331 0.05364
 C65 C 0.78988 0.51090 0.07112
 C66 C 0.71450 0.46772 -0.01238
 C67 C 0.69709 0.44833 -0.01313
 C68 C 0.71820 0.42752 0.02053
 C69 C 0.73506 0.44749 0.02084
 N70 N 0.73295 0.46704 0.00449
 H71 H 0.75993 0.52688 0.05017
 H72 H 0.79302 0.46100 0.01964
 H73 H 0.82237 0.45798 0.05396
 H74 H 0.78884 0.52565 0.08491
 H75 H 0.71310 0.48362 -0.02499
 H76 H 0.68241 0.44927 -0.02657
 H77 H 0.71987 0.41232 0.03391
 H78 H 0.74952 0.44751 0.03442
 C79 C 0.70135 0.56623 0.00562
 C80 C 0.80712 0.49568 -0.06095
 C81 C 0.69876 0.42797 0.00356
 C82 C 0.80803 0.49164 0.07232
 C83 C -0.01618 0.29218 0.46622
 H84 H -0.02945 0.29407 0.48064
 C85 C -0.01654 0.30947 0.44684
 H86 H -0.03082 0.32398 0.44653
 C87 C 0.01758 0.26994 0.44935
 H88 H 0.03120 0.25484 0.45069
 C89 C 0.01772 0.28661 0.42938
 H90 H 0.03196 0.28405 0.41603
 N91 N 0.00070 0.27294 0.46718
 C92 C -0.03323 0.21552 0.51305
 H93 H -0.02017 0.21426 0.52800
 C94 C -0.05429 0.20055 0.51323
 H95 H -0.05739 0.18769 0.52837
 C96 C -0.04479 0.23340 0.47482
 H97 H -0.04091 0.24604 0.45977
 C98 C -0.06586 0.21846 0.47406
 H99 H -0.07824 0.21994 0.45854
 Zn100 Zn -0.00024 0.25160 0.49502
 N101 N -0.02911 0.23186 0.49424
 C102 C -0.01848 0.27336 0.53892
 N103 N 0.00016 0.27337 0.52264
 C104 C 0.01906 0.29003 0.52484
 C105 C 0.01992 0.30728 0.54422
 C106 C -0.01829 0.29020 0.55864
 C107 C 0.02829 0.21077 0.47788
 C108 C 0.04741 0.19279 0.47789
 C109 C 0.06287 0.21139 0.51521
 C110 C 0.04349 0.22906 0.51444
 N111 N 0.02680 0.22858 0.49585
 H112 H -0.03378 0.26065 0.53649
 H113 H 0.03344 0.28994 0.51141
 H114 H 0.03523 0.32023 0.54579
 H115 H -0.03344 0.29012 0.57124
 H116 H 0.01447 0.21047 0.46358
 H117 H 0.04811 0.17860 0.46356
 H118 H 0.07612 0.21226 0.53001
 H119 H 0.04171 0.24298 0.52885
 C120 C -0.07086 0.20194 0.49352
 C121 C 0.00066 0.30711 0.42789
 C122 C 0.06502 0.19294 0.49675
 C123 C 0.00107 0.30749 0.56146
 C124 C 0.97844 0.70973 0.52947
 H125 H 0.96507 0.70889 0.51479
 C126 C 0.97785 0.69180 0.54835
 H127 H 0.96399 0.67711 0.54800
 C128 C 1.01334 0.72935 0.54711
 H129 H 1.02731 0.74382 0.54644
 C130 C 1.01344 0.71178 0.56634
 H131 H 1.02731 0.71324 0.58053
 N132 N 0.99586 0.72817 0.52929
 C133 C 0.96752 0.79361 0.48826
 H134 H 0.98260 0.79671 0.47598
 C135 C 0.94795 0.81101 0.48878
 H136 H 0.94791 0.82737 0.47663
 C137 C 0.94947 0.76872 0.51933
 H138 H 0.95033 0.75254 0.53157
 C139 C 0.92941 0.78549 0.52026
 H140 H 0.91500 0.78204 0.53326
 Zn141 Zn 0.99589 0.75120 0.50255
 N142 N 0.96794 0.77294 0.50337
 C143 C 0.98162 0.73781 0.45403
 N144 N 0.99593 0.73152 0.47367
 C145 C 1.01058 0.71031 0.47362
 C146 C 1.01095 0.69420 0.45341
 C147 C 0.98179 0.72244 0.43320
 C148 C 1.02594 0.78971 0.52175
 C149 C 1.04578 0.80641 0.52250
 C150 C 1.06115 0.78674 0.48582
 C151 C 1.04108 0.77035 0.48582
 N152 N 1.02400 0.77211 0.50363
 H153 H 0.96999 0.75465 0.45448
 H154 H 1.02178 0.70578 0.48947
 H155 H 1.02256 0.67725 0.45371
 H156 H 0.97024 0.72751 0.41772
 H157 H 1.01187 0.79097 0.53545
 H158 H 1.04680 0.82058 0.53683
 H159 H 1.07462 0.78499 0.47154
 H160 H 1.03906 0.75642 0.47144
 C161 C 0.92859 0.80704 0.50497
 C162 C 0.99551 0.69269 0.56714
 C163 C 1.06363 0.80515 0.50427
 C164 C 0.99639 0.70020 0.43292
 C165 C 0.46826 -0.02267 0.28816
 H166 H 0.48209 -0.03766 0.28820
 C167 C 0.44910 -0.02349 0.30478
 H168 H 0.44840 -0.03917 0.31768
 C169 C 0.45321 0.01661 0.27195
 H170 H 0.45511 0.03238 0.25936
 C171 C 0.43375 0.01659 0.28833
 H172 H 0.42056 0.03221 0.28789
 N173 N 0.46995 -0.00286 0.27217
 C174 C 0.51600 -0.03355 0.21431
 H175 H 0.53075 -0.01986 0.21434
 C176 C 0.51630 -0.05390 0.19787
 H177 H 0.53135 -0.05513 0.18524
 C178 C 0.47788 -0.04685 0.22981
 H179 H 0.46284 -0.04397 0.24219
 C180 C 0.47707 -0.06709 0.21325
 H181 H 0.46162 -0.07988 0.21400
 Zn182 Zn 0.49776 -0.00247 0.25185
 N183 N 0.49725 -0.03071 0.23021
 C184 C 0.54458 -0.02052 0.26929
 N185 N 0.52575 -0.00365 0.27260
 C186 C 0.52599 0.01319 0.29144
 C187 C 0.54588 0.01387 0.30760
 C188 C 0.56509 -0.02017 0.28476
 C189 C 0.48075 0.03050 0.21493
 C190 C 0.48128 0.05141 0.19905
 C191 C 0.51748 0.06637 0.22017
 C192 C 0.51632 0.04510 0.23556
 N193 N 0.49817 0.02767 0.23267
 H194 H 0.54394 -0.03417 0.25460
 H195 H 0.51060 0.02612 0.29390
 H196 H 0.54532 0.02715 0.32270
 H197 H 0.58017 -0.03320 0.28123
 H198 H 0.46674 0.01614 0.21281
 H199 H 0.46766 0.05285 0.18461
 H200 H 0.53204 0.08004 0.22284
 H201 H 0.53020 0.04238 0.24954
 C202 C 0.49655 -0.07115 0.19693
 C203 C 0.43159 -0.00360 0.30512
 C204 C 0.49997 0.06961 0.20141
 C205 C 0.56600 -0.00275 0.30425
 C206 C 0.53737 -0.02005 0.71066
 H207 H 0.52431 -0.03549 0.70983
 C208 C 0.55728 -0.01990 0.69489
 H209 H 0.55937 -0.03528 0.68185
 C210 C 0.54965 0.01946 0.72778
 H211 H 0.54633 0.03509 0.74019
 C212 C 0.56976 0.02041 0.71230
 H213 H 0.58202 0.03655 0.71338
 N214 N 0.53399 -0.00063 0.72677
 C215 C 0.48714 -0.03127 0.78337
 H216 H 0.47309 -0.01649 0.78334
 C217 C 0.48656 -0.05091 0.80059
 H218 H 0.47184 -0.05131 0.81367
 C219 C 0.52367 -0.04834 0.76660
 H220 H 0.53844 -0.04691 0.75373
 C221 C 0.52366 -0.06852 0.78339
 H222 H 0.53842 -0.08254 0.78325
 Zn223 Zn 0.50548 -0.00129 0.74613
 N224 N 0.50553 -0.03026 0.76688
 C225 C 0.46202 -0.02150 0.72468
 N226 N 0.47823 -0.00189 0.72452
 C227 C 0.47621 0.01743 0.70795
 C228 C 0.45716 0.01767 0.69076
 C229 C 0.44270 -0.02206 0.70775
 C230 C 0.52239 0.03115 0.78298
 C231 C 0.52175 0.05158 0.79930
 C232 C 0.48253 0.06443 0.78211
 C233 C 0.48410 0.04395 0.76584
 N234 N 0.50388 0.02786 0.76652
 H235 H 0.46419 -0.03690 0.73772
 H236 H 0.48961 0.03256 0.70799
 H237 H 0.45611 0.03302 0.67749
 H238 H 0.42988 -0.03773 0.70824
 H239 H 0.53762 0.01770 0.78351
 H240 H 0.53654 0.05380 0.81243
 H241 H 0.46662 0.07700 0.78149
 H242 H 0.46927 0.04064 0.75307
 C243 C 0.50508 -0.06975 0.80085
 C244 C 0.57371 0.00062 0.69548
 C245 C 0.50154 0.06841 0.79908
 C246 C 0.44012 -0.00231 0.69046
 C247 C 0.25411 -0.00389 0.49972
 C248 C 0.74597 0.00765 0.49735
 C249 C 0.49965 0.24709 0.99963
 C250 C 0.50037 0.74811 -0.00033
 C251 C 1.00709 0.50709 0.24684
 C252 C -0.00558 0.49650 0.75405
 C253 C 0.12332 0.13655 0.49847
 C254 C 0.11614 0.14827 0.47640
 C255 C 0.09730 0.16661 0.47585
 C256 C 0.08527 0.17371 0.49737
 C257 C 0.09256 0.16211 0.51946
 C258 C 0.11135 0.14372 0.52000
 C259 C 0.14302 0.11670 0.49899
 C260 C 0.14064 0.09460 0.51338
 C261 C 0.15902 0.07576 0.51368
 C262 C 0.18023 0.07861 0.49963
 C263 C 0.18264 0.10077 0.48531
 C264 C 0.16424 0.11960 0.48498
 C265 C 0.19960 0.05839 0.49970
 C266 C 0.21112 0.05125 0.47796
 C267 C 0.22889 0.03180 0.47785
 C268 C 0.23629 0.01936 0.49965
 C269 C 0.22390 0.02607 0.52122
 C270 C 0.20616 0.04552 0.52132
 H271 H 0.12485 0.14298 0.45948
 H272 H 0.09226 0.17539 0.45859
 H273 H 0.08348 0.16697 0.53631
 H274 H 0.11663 0.13521 0.53732
 H275 H 0.12433 0.09162 0.52406
 H276 H 0.15638 0.05871 0.52456
 H277 H 0.19891 0.10369 0.47456
 H278 H 0.16676 0.13659 0.47399
 H279 H 0.20583 0.06016 0.46083
 H280 H 0.23622 0.02611 0.46043
 H281 H 0.22792 0.01608 0.53812
 H282 H 0.19753 0.05046 0.53838
 C283 C 0.64637 0.62565 -0.00058
 C284 C 0.63967 0.59989 0.00190
 C285 C 0.65756 0.58074 0.00431
 C286 C 0.68256 0.58688 0.00402
 C287 C 0.68932 0.61265 0.00157
 C288 C 0.67136 0.63191 -0.00048
 C289 C 0.62712 0.64570 -0.00333
 C290 C 0.62760 0.66796 0.01098
 C291 C 0.60812 0.68561 0.00989
 C292 C 0.58790 0.68141 -0.00570
 C293 C 0.58815 0.65975 -0.02088
 C294 C 0.60744 0.64204 -0.01958
 C295 C 0.56591 0.69850 -0.00507
 C296 C 0.54240 0.68802 -0.00686
 C297 C 0.52153 0.70353 -0.00563
 C298 C 0.52328 0.73019 -0.00160
 C299 C 0.54707 0.74073 -0.00109
 C300 C 0.56804 0.72512 -0.00243
 H301 H 0.62052 0.59459 0.00213
 H302 H 0.65184 0.56102 0.00592
 H303 H 0.70849 0.61787 0.00140
 H304 H 0.67697 0.65163 -0.00243
 H305 H 0.64256 0.67115 0.02373
 H306 H 0.60842 0.70198 0.02195
 H307 H 0.57322 0.65627 -0.03357
 H308 H 0.60687 0.62528 -0.03115
 H309 H 0.54001 0.66759 -0.00899
 H310 H 0.50417 0.69416 -0.00823
 H311 H 0.54937 0.76121 0.00072
 H312 H 0.58592 0.73392 -0.00162
 C313 C 0.86922 -0.13843 0.50981
 C314 C 0.89363 -0.13020 0.50877
 C315 C 0.91284 -0.14792 0.50700
 C316 C 0.90807 -0.17427 0.50644
 C317 C 0.88366 -0.18256 0.50758
 C318 C 0.86438 -0.16478 0.50907
 C319 C 0.84901 -0.11938 0.51130
 C320 C 0.82827 -0.12117 0.49601
 C321 C 0.81041 -0.10174 0.49581
 C322 C 0.81293 -0.08026 0.51100
 C323 C 0.83307 -0.07922 0.52716
 C324 C 0.85096 -0.09849 0.52723
 C325 C 0.79572 -0.05814 0.50874
 C326 C 0.80476 -0.03314 0.50957
 C327 C 0.78915 -0.01213 0.50628
 C328 C 0.76390 -0.01534 0.50112
 C329 C 0.75473 -0.04055 0.50189
 C330 C 0.77045 -0.06165 0.50520
 H331 H 0.89785 -0.10999 0.50902
 H332 H 0.93149 -0.14104 0.50638
 H333 H 0.87950 -0.20278 0.50704
 H334 H 0.84572 -0.17159 0.50991
 H335 H 0.82641 -0.13702 0.48347
 H336 H 0.79523 -0.10300 0.48301
 H337 H 0.83524 -0.06324 0.53951
 H338 H 0.86653 -0.09693 0.53953
 H339 H 0.82413 -0.02970 0.51243
 H340 H 0.79727 0.00652 0.50812
 H341 H 0.73530 -0.04389 0.49939
 H342 H 0.76280 -0.08069 0.50513
 C343 C 0.35190 0.36661 0.99667
 C344 C 0.34741 0.38152 0.97565
 C345 C 0.32995 0.40129 0.97580
 C346 C 0.31689 0.40686 0.99706
 C347 C 0.32106 0.39188 1.01797
 C348 C 0.33819 0.37182 1.01772
 C349 C 0.37140 0.34642 0.99692
 C350 C 0.38564 0.34192 1.01807
 C351 C 0.40463 0.32380 1.01810
 C352 C 0.41010 0.31003 0.99689
 C353 C 0.39583 0.31422 0.97579
 C354 C 0.37654 0.33206 0.97586
 C355 C 0.43143 0.29231 0.99661
 C356 C 0.44884 0.29398 0.97811
 C357 C 0.47019 0.27903 0.97914
 C358 C 0.47497 0.26219 0.99888
 C359 C 0.45624 0.25912 1.01625
 C360 C 0.43507 0.27440 1.01540
 H361 H 0.35787 0.37845 0.95924
 H362 H 0.32721 0.41279 0.95952
 H363 H 0.31096 0.39566 1.03449
 H364 H 0.34070 0.36043 1.03408
 H365 H 0.38263 0.35292 1.03448
 H366 H 0.41562 0.32115 1.03449
 H367 H 0.39960 0.30364 0.95927
 H368 H 0.36570 0.33460 0.95938
 H369 H 0.44636 0.30751 0.96329
 H370 H 0.48358 0.28126 0.96487
 H371 H 0.45757 0.24503 1.03061
 H372 H 0.42144 0.27221 1.02945
 C373 C 0.86555 0.15385 0.49281
 C374 C 0.87115 0.16895 0.51330
 C375 C 0.89177 0.18462 0.51351
 C376 C 0.90698 0.18587 0.49310
 C377 C 0.90116 0.17134 0.47240
 C378 C 0.88078 0.15535 0.47231
 C379 C 0.84457 0.13582 0.49313
 C380 C 0.83107 0.13063 0.47172
 C381 C 0.81271 0.11215 0.47166
 C382 C 0.80718 0.09880 0.49310
 C383 C 0.81994 0.10460 0.51469
 C384 C 0.83855 0.12277 0.51468
 C385 C 0.78948 0.07754 0.49272
 C386 C 0.77166 0.07545 0.51083
 C387 C 0.75675 0.05388 0.51199
 C388 C 0.76009 0.03324 0.49570
 C389 C 0.77676 0.03662 0.47642
 C390 C 0.79134 0.05834 0.47506
 H391 H 0.85960 0.16870 0.52922
 H392 H 0.89575 0.19592 0.52957
 H393 H 0.91279 0.17181 0.45653
 H394 H 0.87739 0.14366 0.45640
 H395 H 0.83481 0.14069 0.45492
 H396 H 0.80294 0.10813 0.45484
 H397 H 0.81623 0.09428 0.53137
 H398 H 0.84878 0.12585 0.53141
 H399 H 0.76940 0.09048 0.52420
 H400 H 0.74288 0.05367 0.52586
 H401 H 0.77927 0.02170 0.46297
 H402 H 0.80484 0.05958 0.46078
 C403 C 0.35520 0.62830 -0.00461
 C404 C 0.33205 0.63280 0.00557
 C405 C 0.31432 0.61364 0.00539
 C406 C 0.31949 0.58945 -0.00469
 C407 C 0.34273 0.58506 -0.01486
 C408 C 0.36031 0.60431 -0.01494
 C409 C 0.37425 0.64830 -0.00404
 C410 C 0.38807 0.65347 -0.02490
 C411 C 0.40687 0.67142 -0.02408
 C412 C 0.41241 0.68432 -0.00230
 C413 C 0.39836 0.67942 0.01848
 C414 C 0.37933 0.66170 0.01757
 C415 C 0.43350 0.70193 -0.00112
 C416 C 0.45052 0.70021 0.01815
 C417 C 0.47145 0.71537 0.01826
 C418 C 0.47626 0.73249 -0.00107
 C419 C 0.45801 0.73538 -0.01942
 C420 C 0.43722 0.71996 -0.01964
 H421 H 0.32760 0.65124 0.01344
 H422 H 0.29651 0.61787 0.01300
 H423 H 0.34760 0.56655 -0.02229
 H424 H 0.37816 0.60023 -0.02257
 H425 H 0.38439 0.64352 -0.04182
 H426 H 0.41756 0.67469 -0.04029
 H427 H 0.40219 0.68924 0.03544
 H428 H 0.36903 0.65793 0.03393
 H429 H 0.44805 0.68654 0.03276
 H430 H 0.48449 0.71316 0.03317
 H431 H 0.45935 0.74949 -0.03370
 H432 H 0.42390 0.72221 -0.03430
 C433 C 0.12332 -0.14132 0.50393
 C434 C 0.11582 -0.15271 0.52583
 C435 C 0.09655 -0.17016 0.52595
 C436 C 0.08439 -0.17668 0.50416
 C437 C 0.09198 -0.16544 0.48224
 C438 C 0.11118 -0.14794 0.48213
 C439 C 0.14344 -0.12232 0.50381
 C440 C 0.16049 -0.12195 0.48476
 C441 C 0.17898 -0.10363 0.48431
 C442 C 0.18092 -0.08533 0.50293
 C443 C 0.16407 -0.08585 0.52212
 C444 C 0.14552 -0.10411 0.52253
 C445 C 0.20017 -0.06546 0.50212
 C446 C 0.21291 -0.05835 0.52336
 C447 C 0.23057 -0.03918 0.52269
 C448 C 0.23654 -0.02694 0.50056
 C449 C 0.22289 -0.03359 0.47953
 C450 C 0.20534 -0.05284 0.48020
 H451 H 0.12503 -0.14834 0.54288
 H452 H 0.09132 -0.17877 0.54307
 H453 H 0.08271 -0.16975 0.46522
 H454 H 0.11619 -0.13918 0.46501
 H455 H 0.15966 -0.13597 0.47029
 H456 H 0.19192 -0.10391 0.46947
 H457 H 0.16486 -0.07175 0.53652
 H458 H 0.13245 -0.10359 0.53724
 H459 H 0.20911 -0.06754 0.54061
 H460 H 0.23901 -0.03359 0.53975
 H461 H 0.22569 -0.02363 0.46248
 H462 H 0.19526 -0.05733 0.46367
 C463 C 0.64315 0.37011 1.00572
 C464 C 0.66809 0.36312 1.00666
 C465 C 0.68622 0.38188 1.00598
 C466 C 0.67972 0.40791 1.00393
 C467 C 0.65479 0.41482 1.00267
 C468 C 0.63670 0.39614 1.00368
 C469 C 0.62375 0.35049 1.00691
 C470 C 0.60352 0.35419 1.02213
 C471 C 0.58440 0.33663 1.02226
 C472 C 0.58490 0.31509 1.00693
 C473 C 0.60555 0.31098 0.99223
 C474 C 0.62484 0.32847 0.99230
 C475 C 0.56342 0.29777 1.00549
 C476 C 0.56644 0.27120 1.00276
 C477 C 0.54601 0.25528 1.00090
 C478 C 0.52188 0.26543 1.00106
 C479 C 0.51920 0.29204 1.00507
 C480 C 0.53955 0.30789 1.00677
 H481 H 0.67352 0.34319 1.00832
 H482 H 0.70533 0.37607 1.00686
 H483 H 0.64927 0.43475 1.00131
 H484 H 0.61762 0.40202 1.00269
 H485 H 0.60246 0.37077 1.03391
 H486 H 0.56912 0.34005 1.03430
 H487 H 0.60643 0.29474 0.98005
 H488 H 0.64020 0.32526 0.98031
 H489 H 0.58459 0.26266 1.00236
 H490 H 0.54900 0.23485 0.99909
 H491 H 0.50149 0.30106 1.00736
 H492 H 0.53647 0.32826 1.00893
 C493 C 0.50527 0.13002 1.14797
 C494 C 0.48230 0.12259 1.15681
 C495 C 0.48058 0.10341 1.17451
 C496 C 0.50179 0.09115 1.18376
 C497 C 0.52479 0.09901 1.17533
 C498 C 0.52651 0.11824 1.15771
 C499 C 0.50700 0.14902 1.12784
 C500 C 0.52395 0.14530 1.10902
 C501 C 0.52457 0.16210 1.08922
 C502 C 0.50817 0.18298 1.08764
 C503 C 0.49170 0.18717 1.10679
 C504 C 0.49112 0.17037 1.12667
 C505 C 0.50731 0.19939 1.06548
 C506 C 0.50378 0.22597 1.06714
 C507 C 0.50178 0.24099 1.04605
 C508 C 0.50238 0.22982 1.02262
 C509 C 0.50757 0.20328 1.02130
 C510 C 0.50959 0.18834 1.04233
 H511 H 0.46556 0.13108 1.14953
 H512 H 0.46260 0.09807 1.18083
 H513 H 0.54149 0.08981 1.18184
 H514 H 0.54450 0.12374 1.15155
 H515 H 0.53628 0.12893 1.10920
 H516 H 0.53772 0.15854 1.07494
 H517 H 0.47872 0.20298 1.10605
 H518 H 0.47806 0.17397 1.14102
 H519 H 0.50264 0.23518 1.08475
 H520 H 0.49913 0.26146 1.04799
 H521 H 0.51033 0.19365 1.00415
 H522 H 0.51255 0.16792 1.04039
 C523 C -0.00476 0.63651 0.62485
 C524 C -0.02686 0.64732 0.61608
 C525 C -0.02677 0.66563 0.59746
 C526 C -0.00458 0.67357 0.58722
 C527 C 0.01753 0.66291 0.59613
 C528 C 0.01744 0.64458 0.61472
 C529 C -0.00486 0.61666 0.64427
 C530 C 0.01092 0.59529 0.64298
 C531 C 0.01079 0.57651 0.66114
 C532 C -0.00512 0.57866 0.68103
 C533 C -0.02094 0.60002 0.68232
 C534 C -0.02081 0.61881 0.66414
 C535 C -0.00530 0.55860 0.70025
 C536 C -0.02750 0.55004 0.70989
 C537 C -0.02769 0.53064 0.72747
 C538 C -0.00561 0.51979 0.73660
 C539 C 0.01653 0.52793 0.72610
 C540 C 0.01671 0.54729 0.70853
 H541 H -0.04427 0.64133 0.62334
 H542 H -0.04408 0.67368 0.59116
 H543 H 0.03491 0.66843 0.58846
 H544 H 0.03478 0.63682 0.62127
 H545 H 0.02310 0.59285 0.62769
 H546 H 0.02286 0.56005 0.65938
 H547 H -0.03318 0.60237 0.69758
 H548 H -0.03295 0.63523 0.66581
 H549 H -0.04483 0.55777 0.70326
 H550 H -0.04528 0.52376 0.73344
 H551 H 0.03383 0.51909 0.73133
 H552 H 0.03414 0.55334 0.70136
 C553 C 0.50507 0.87197 -0.14346
 C554 C 0.50113 0.89788 -0.13762
 C555 C 0.50116 0.91666 -0.15572
 C556 C 0.50543 0.91010 -0.18010
 C557 C 0.50994 0.88433 -0.18600
 C558 C 0.50965 0.86542 -0.16787
 C559 C 0.50425 0.85207 -0.12403
 C560 C 0.52049 0.83094 -0.12401
 C561 C 0.52039 0.81313 -0.10487
 C562 C 0.50425 0.81631 -0.08533
 C563 C 0.48761 0.83697 -0.08569
 C564 C 0.48749 0.85452 -0.10486
 C565 C 0.50510 0.79889 -0.06402
 C566 C 0.50572 0.80915 -0.04048
 C567 C 0.50496 0.79324 -0.02010
 C568 C 0.50256 0.76643 -0.02256
 C569 C 0.50377 0.75622 -0.04640
 C570 C 0.50484 0.77223 -0.06685
 H571 H 0.49823 0.90374 -0.11895
 H572 H 0.49814 0.93644 -0.15060
 H573 H 0.51316 0.87878 -0.20471
 H574 H 0.51253 0.84565 -0.17306
 H575 H 0.53377 0.82857 -0.13837
 H576 H 0.53346 0.79738 -0.10491
 H577 H 0.47468 0.83955 -0.07102
 H578 H 0.47426 0.87010 -0.10461
 H579 H 0.50690 0.82965 -0.03784
 H580 H 0.50637 0.80243 -0.00255
 H581 H 0.50308 0.73572 -0.04917
 H582 H 0.50474 0.76383 -0.08488
 C583 C 1.00290 0.36156 0.37007
 C584 C 1.01103 0.33637 0.36630
 C585 C 1.01037 0.31840 0.38525
 C586 C 1.00108 0.32506 0.40839
 C587 C 0.99248 0.35042 0.41167
 C588 C 0.99354 0.36835 0.39286
 C589 C 1.00463 0.38113 0.35065
 C590 C 1.01468 0.40508 0.35608
 C591 C 1.01502 0.42434 0.33849
 C592 C 1.00500 0.42028 0.31510
 C593 C 0.99563 0.39599 0.30940
 C594 C 0.99555 0.37653 0.32703
 C595 C 1.00384 0.44175 0.29728
 C596 C 1.00790 0.43789 0.27231
 C597 C 1.00822 0.45873 0.25620
 C598 C 1.00563 0.48411 0.26476
 C599 C 0.99930 0.48736 0.28950
 C600 C 0.99869 0.46662 0.30543
 H601 H 1.01829 0.33069 0.34880
 H602 H 1.01647 0.29910 0.38131
 H603 H 0.98597 0.35710 0.42910
 H604 H 0.98709 0.38770 0.39618
 H605 H 1.02221 0.40891 0.37403
 H606 H 1.02304 0.44254 0.34329
 H607 H 0.98767 0.39227 0.29162
 H608 H 0.98765 0.35819 0.32248
 H609 H 1.01142 0.41887 0.26529
 H610 H 1.01144 0.45516 0.23706
 H611 H 0.99451 0.50587 0.29689
 H612 H 0.99403 0.47013 0.32428
 C613 C 0.49529 0.86907 0.14443
 C614 C 0.51763 0.87761 0.15404
 C615 C 0.51810 0.89726 0.17128
 C616 C 0.49612 0.90848 0.17984
 C617 C 0.47370 0.89907 0.17050
 C618 C 0.47336 0.87989 0.15280
 C619 C 0.49489 0.84978 0.12483
 C620 C 0.48377 0.85570 0.10237
 C621 C 0.48409 0.83800 0.08337
 C622 C 0.49504 0.81365 0.08657
 C623 C 0.50584 0.80768 0.10936
 C624 C 0.50601 0.82569 0.12820
 C625 C 0.49566 0.79507 0.06594
 C626 C 0.51550 0.77797 0.06305
 C627 C 0.51687 0.76197 0.04267
 C628 C 0.49900 0.76344 0.02388
 C629 C 0.47837 0.77944 0.02781
 C630 C 0.47670 0.79486 0.04843
 H631 H 0.53477 0.86944 0.14778
 H632 H 0.53579 0.90299 0.17836
 H633 H 0.45629 0.90735 0.17575
 H634 H 0.45591 0.87360 0.14546
 H635 H 0.47537 0.87434 0.09935
 H636 H 0.47620 0.84372 0.06599
 H637 H 0.51405 0.78905 0.11276
 H638 H 0.51458 0.82076 0.14551
 H639 H 0.53040 0.77728 0.07622
 H640 H 0.53221 0.74883 0.04191
 H641 H 0.46372 0.78056 0.01434
 H642 H 0.46056 0.80686 0.05043
 C643 C 0.00076 0.36141 0.62083
 C644 C 0.00770 0.36906 0.59732
 C645 C 0.00801 0.35153 0.57813
 C646 C 0.00129 0.32596 0.58197
 C647 C -0.00557 0.31826 0.60547
 C648 C -0.00578 0.33577 0.62469
 C649 C 0.00017 0.38017 0.64116
 C650 C -0.01871 0.37964 0.65841
 C651 C -0.01947 0.39754 0.67729
 C652 C -0.00141 0.41644 0.67935
 C653 C 0.01752 0.41690 0.66216
 C654 C 0.01832 0.39896 0.64334
 C655 C -0.00249 0.43584 0.69911
 C656 C 0.01904 0.44424 0.71068
 C657 C 0.01810 0.46313 0.72863
 C658 C -0.00452 0.47359 0.73629
 C659 C -0.02596 0.46560 0.72396
 C660 C -0.02500 0.44678 0.70594
 H661 H 0.01243 0.38876 0.59362
 H662 H 0.01300 0.35811 0.56015
 H663 H -0.01052 0.29859 0.60904
 H664 H -0.01081 0.32915 0.64265
 H665 H -0.03314 0.36561 0.65711
 H666 H -0.03417 0.39651 0.69036
 H667 H 0.03154 0.43140 0.66302
 H668 H 0.03327 0.39973 0.63054
 H669 H 0.03673 0.43636 0.70573
 H670 H 0.03529 0.46986 0.73610
 H671 H -0.04355 0.47429 0.72797
 H672 H -0.04186 0.44138 0.69680
 C673 C 0.49764 0.12717 0.85367
 C674 C 0.51891 0.12405 0.83974
 C675 C 0.52011 0.10514 0.82178
 C676 C 0.49990 0.08932 0.81718
 C677 C 0.47840 0.09294 0.83064
 C678 C 0.47735 0.11157 0.84885
 C679 C 0.49698 0.14587 0.87388
 C680 C 0.48891 0.13830 0.89696
 C681 C 0.48890 0.15554 0.91635
 C682 C 0.49661 0.18094 0.91305
 C683 C 0.50447 0.18855 0.88980
 C684 C 0.50483 0.17112 0.87046
 C685 C 0.49680 0.19909 0.93397
 C686 C 0.51521 0.21757 0.93645
 C687 C 0.51611 0.23357 0.95686
 C688 C 0.49914 0.23088 0.97595
 C689 C 0.47989 0.21332 0.97252
 C690 C 0.47878 0.19768 0.95199
 H691 H 0.53485 0.13575 0.84323
 H692 H 0.53684 0.10278 0.81154
 H693 H 0.46265 0.08086 0.82756
 H694 H 0.46070 0.11372 0.85928
 H695 H 0.48314 0.11881 0.90014
 H696 H 0.48331 0.14875 0.93408
 H697 H 0.51015 0.20801 0.88643
 H698 H 0.51096 0.17743 0.85275
 H699 H 0.52930 0.21943 0.92284
 H700 H 0.53021 0.24789 0.95732
 H701 H 0.46587 0.21131 0.98621
 H702 H 0.46375 0.18440 0.95031
 C703 C 0.99846 0.64898 0.37172
 C704 C 1.00156 0.67546 0.36828
 C705 C 1.00025 0.69229 0.38806
 C706 C 0.99619 0.68290 0.41165
 C707 C 0.99254 0.65662 0.41504
 C708 C 0.99341 0.63989 0.39529
 C709 C 1.00127 0.63066 0.35115
 C710 C 1.01194 0.60644 0.35533
 C711 C 1.01411 0.58877 0.33649
 C712 C 1.00618 0.59492 0.31269
 C713 C 0.99586 0.61932 0.30832
 C714 C 0.99336 0.63696 0.32736
 C715 C 1.00802 0.57535 0.29306
 C716 C 0.98968 0.57306 0.27499
 C717 C 0.98982 0.55233 0.25883
 C718 C 1.00769 0.53269 0.26111
 C719 C 1.02734 0.53668 0.27760
 C720 C 1.02751 0.55761 0.29323
 H721 H 1.00571 0.68311 0.35046
 H722 H 1.00320 0.71252 0.38509
 H723 H 0.98896 0.64904 0.43303
 H724 H 0.99018 0.61977 0.39857
 H725 H 1.01874 0.60103 0.37324
 H726 H 1.02165 0.57004 0.34079
 H727 H 0.98974 0.62483 0.29021
 H728 H 0.98489 0.65537 0.32349
 H729 H 0.97463 0.58668 0.27390
 H730 H 0.97549 0.55167 0.24514
 H731 H 1.04207 0.52270 0.27923
 H732 H 1.04264 0.55941 0.30603
 C733 C 1.14957 0.50659 0.12980
 C734 C 1.16378 0.48462 0.12523
 C735 C 1.17985 0.48372 0.10559
 C736 C 1.18265 0.50500 0.08987
 C737 C 1.16885 0.52734 0.09525
 C738 C 1.15249 0.52799 0.11465
 C739 C 1.13114 0.50690 0.14966
 C740 C 1.12582 0.52959 0.16246
 C741 C 1.10729 0.53021 0.17987
 C742 C 1.09405 0.50805 0.18521
 C743 C 1.09981 0.48520 0.17310
 C744 C 1.11799 0.48466 0.15538
 C745 C 1.07336 0.50893 0.20237
 C746 C 1.07152 0.49067 0.22098
 C747 C 1.05099 0.49028 0.23599
 C748 C 1.03111 0.50740 0.23193
 C749 C 1.03405 0.52677 0.21419
 C750 C 1.05478 0.52742 0.19954
 H751 H 1.16237 0.46785 0.13674
 H752 H 1.18909 0.46568 0.10247
 H753 H 1.17074 0.54484 0.08496
 H754 H 1.14177 0.54527 0.11742
 H755 H 1.13589 0.54695 0.15900
 H756 H 1.10326 0.54801 0.18917
 H757 H 1.08959 0.46796 0.17672
 H758 H 1.12113 0.46697 0.14563
 H759 H 1.08609 0.47672 0.22397
 H760 H 1.05107 0.47655 0.25070
 H761 H 1.01973 0.54098 0.21117
 H762 H 1.05591 0.54188 0.18542
 C763 C 0.63078 0.00417 0.64197
 C764 C 0.62590 -0.01895 0.65403
 C765 C 0.60768 -0.02005 0.67173
 C766 C 0.59408 0.00198 0.67782
 C767 C 0.59947 0.02524 0.66622
 C768 C 0.61759 0.02631 0.64849
 C769 C 0.64862 0.00496 0.62177
 C770 C 0.64275 0.01840 0.60025
 C771 C 0.65892 0.01844 0.58074
 C772 C 0.68138 0.00511 0.58228
 C773 C 0.68752 -0.00798 0.60394
 C774 C 0.67122 -0.00816 0.62347
 C775 C 0.69792 0.00454 0.56102
 C776 C 0.72328 0.00791 0.56384
 C777 C 0.73842 0.00861 0.54344
 C778 C 0.72860 0.00658 0.51956
 C779 C 0.70329 0.00129 0.51724
 C780 C 0.68822 0.00073 0.53758
 H781 H 0.63564 -0.03636 0.64925
 H782 H 0.60410 -0.03818 0.68055
 H783 H 0.58916 0.04249 0.67034
 H784 H 0.62114 0.04444 0.63967
 H785 H 0.62537 0.02844 0.59829
 H786 H 0.65385 0.02893 0.56437
 H787 H 0.70465 -0.01853 0.60555
 H788 H 0.67627 -0.01853 0.63992
 H789 H 0.73133 0.01055 0.58178
 H790 H 0.75790 0.01139 0.54621
 H791 H 0.69476 -0.00281 0.49987
 H792 H 0.66887 -0.00301 0.53498
 C793 C -0.14059 0.49474 0.88053
 C794 C -0.14985 0.47175 0.88990
 C795 C -0.16694 0.47206 0.90871
 C796 C -0.17523 0.49537 0.91858
 C797 C -0.16618 0.51836 0.90901
 C798 C -0.14905 0.51805 0.89023
 C799 C -0.12186 0.49440 0.86102
 C800 C -0.12254 0.51273 0.84221
 C801 C -0.10454 0.51279 0.82425
 C802 C -0.08550 0.49447 0.82464
 C803 C -0.08494 0.47599 0.84329
 C804 C -0.10288 0.47598 0.86129
 C805 C -0.06601 0.49494 0.80596
 C806 C -0.05705 0.47213 0.79577
 C807 C -0.03820 0.47257 0.77872
 C808 C -0.02818 0.49594 0.77078
 C809 C -0.03668 0.51866 0.78191
 C810 C -0.05559 0.51821 0.79886
 H811 H -0.14394 0.45348 0.88265
 H812 H -0.17332 0.45400 0.91583
 H813 H -0.17239 0.53665 0.91598
 H814 H -0.14211 0.53609 0.88362
 H815 H -0.13713 0.52692 0.84123
 H816 H -0.10563 0.52705 0.80992
 H817 H -0.07027 0.46188 0.84431
 H818 H -0.10156 0.46188 0.87575
 H819 H -0.06453 0.45385 0.80109
 H820 H -0.03119 0.45445 0.77214
 H821 H -0.02843 0.53688 0.77773
 H822 H -0.06155 0.53604 0.80701
 C823 C 0.37548 -0.00404 0.35993
 C824 C 0.38196 -0.02667 0.34766
 C825 C 0.39988 -0.02646 0.32963
 C826 C 0.41171 -0.00361 0.32343
 C827 C 0.40495 0.01910 0.33541
 C828 C 0.38705 0.01888 0.35346
 C829 C 0.35711 -0.00444 0.37974
 C830 C 0.33993 0.01561 0.38219
 C831 C 0.32303 0.01547 0.40116
 C832 C 0.32288 -0.00474 0.41811
 C833 C 0.33995 -0.02487 0.41559
 C834 C 0.35687 -0.02472 0.39663
 C835 C 0.30518 -0.00467 0.43851
 C836 C 0.29368 -0.02733 0.44577
 C837 C 0.27717 -0.02726 0.46507
 C838 C 0.27104 -0.00433 0.47727
 C839 C 0.28364 0.01805 0.47058
 C840 C 0.30010 0.01798 0.45126
 H841 H 0.37309 -0.04456 0.35191
 H842 H 0.40441 -0.04419 0.32045
 H843 H 0.41399 0.03694 0.33132
 H844 H 0.38274 0.03656 0.36281
 H845 H 0.33940 0.03131 0.36927
 H846 H 0.30987 0.03106 0.40242
 H847 H 0.34058 -0.04050 0.42858
 H848 H 0.37012 -0.04023 0.39551
 H849 H 0.29745 -0.04519 0.43650
 H850 H 0.26960 -0.04539 0.47059
 H851 H 0.28071 0.03575 0.48042
 H852 H 0.30929 0.03559 0.44665
 C853 C 0.13188 0.49779 0.88109
 C854 C 0.14239 0.47478 0.88969
 C855 C 0.16103 0.47505 0.90736
 C856 C 0.16946 0.49833 0.91698
 C857 C 0.15896 0.52135 0.90828
 C858 C 0.14044 0.52107 0.89049
 C859 C 0.11192 0.49749 0.86253
 C860 C 0.11194 0.51477 0.84288
 C861 C 0.09310 0.51454 0.82543
 C862 C 0.07370 0.49713 0.82732
 C863 C 0.07368 0.47989 0.84705
 C864 C 0.09262 0.48002 0.86440
 C865 C 0.05360 0.49699 0.80878
 C866 C 0.04313 0.47389 0.80109
 C867 C 0.02435 0.47381 0.78359
 C868 C 0.01613 0.49674 0.77240
 C869 C 0.02582 0.51994 0.78124
 C870 C 0.04449 0.52003 0.79886
 H871 H 0.13638 0.45657 0.88251
 H872 H 0.16900 0.45700 0.91332
 H873 H 0.16469 0.53959 0.91559
 H874 H 0.13244 0.53908 0.88442
 H875 H 0.12676 0.52823 0.84082
 H876 H 0.09390 0.52777 0.81025
 H877 H 0.05881 0.46655 0.84932
 H878 H 0.09196 0.46673 0.87956
 H879 H 0.04954 0.45576 0.80849
 H880 H 0.01631 0.45567 0.77866
 H881 H 0.01879 0.53820 0.77478
 H882 H 0.05144 0.53825 0.80510
 C883 C 0.62799 -0.00047 0.35402
 C884 C 0.62101 -0.02359 0.34297
 C885 C 0.60099 -0.02436 0.32688
 C886 C 0.58765 -0.00195 0.32104
 C887 C 0.59504 0.02127 0.33161
 C888 C 0.61475 0.02196 0.34803
 C889 C 0.64836 0.00017 0.37234
 C890 C 0.66321 0.02195 0.37474
 C891 C 0.68098 0.02331 0.39322
 C892 C 0.68467 0.00272 0.40932
 C893 C 0.67061 -0.01941 0.40645
 C894 C 0.65249 -0.02060 0.38832
 C895 C 0.70193 0.00485 0.43011
 C896 C 0.71969 -0.01419 0.43458
 C897 C 0.73467 -0.01316 0.45539
 C898 C 0.73136 0.00631 0.47295
 C899 C 0.71442 0.02619 0.46732
 C900 C 0.69989 0.02542 0.44628
 H901 H 0.63097 -0.04120 0.34676
 H902 H 0.59575 -0.04268 0.31939
 H903 H 0.58561 0.03905 0.32722
 H904 H 0.61924 0.04008 0.35640
 H905 H 0.66103 0.03806 0.36246
 H906 H 0.69179 0.04049 0.39505
 H907 H 0.67298 -0.03539 0.41891
 H908 H 0.64120 -0.03749 0.38742
 H909 H 0.72199 -0.02987 0.42190
 H910 H 0.74865 -0.02778 0.45739
 H911 H 0.71186 0.04198 0.47983
 H912 H 0.68639 0.04044 0.44309
 C913 C 0.86224 0.49071 0.13018
 C914 C 0.86879 0.48504 0.10607
 C915 C 0.85119 0.48525 0.08743
 C916 C 0.82655 0.49116 0.09238
 C917 C 0.81995 0.49690 0.11649
 C918 C 0.83761 0.49669 0.13519
 C919 C 0.88128 0.49086 0.14976
 C920 C 0.88157 0.51021 0.16754
 C921 C 0.90081 0.51152 0.18457
 C922 C 0.92015 0.49355 0.18410
 C923 C 0.91928 0.47360 0.16700
 C924 C 0.90007 0.47225 0.15006
 C925 C 0.94196 0.49649 0.20021
 C926 C 0.96551 0.49324 0.19067
 C927 C 0.98627 0.49663 0.20528
 C928 C 0.98428 0.50416 0.22995
 C929 C 0.96043 0.50585 0.23971
 C930 C 0.93958 0.50265 0.22495
 H931 H 0.88769 0.48093 0.10150
 H932 H 0.85699 0.48129 0.06899
 H933 H 0.80107 0.50126 0.12092
 H934 H 0.83196 0.50092 0.15362
 H935 H 0.86746 0.52494 0.16766
 H936 H 0.90111 0.52720 0.19744
 H937 H 0.93368 0.45919 0.16654
 H938 H 0.90008 0.45676 0.13698
 H939 H 0.96794 0.48822 0.17170
 H940 H 1.00378 0.49277 0.19699
 H941 H 0.95795 0.50996 0.25887
 H942 H 0.92160 0.50462 0.23296
 C943 C 0.38306 -0.00340 0.63542
 C944 C 0.38926 0.01955 0.64718
 C945 C 0.40761 0.01987 0.66516
 C946 C 0.42013 -0.00277 0.67185
 C947 C 0.41373 -0.02577 0.66029
 C948 C 0.39544 -0.02608 0.64225
 C949 C 0.36398 -0.00362 0.61589
 C950 C 0.36741 -0.01823 0.59469
 C951 C 0.34961 -0.01825 0.57618
 C952 C 0.32793 -0.00370 0.57844
 C953 C 0.32448 0.01087 0.59966
 C954 C 0.34231 0.01092 0.61817
 C955 C 0.30903 -0.00365 0.55872
 C956 C 0.29683 0.01912 0.55197
 C957 C 0.27912 0.01923 0.53337
 C958 C 0.27246 -0.00363 0.52142
 C959 C 0.28569 -0.02614 0.52756
 C960 C 0.30338 -0.02625 0.54616
 H961 H 0.38022 0.03738 0.64217
 H962 H 0.41195 0.03785 0.67391
 H963 H 0.42320 -0.04349 0.66486
 H964 H 0.39089 -0.04411 0.63372
 H965 H 0.38409 -0.02929 0.59222
 H966 H 0.35303 -0.02932 0.55989
 H967 H 0.30782 0.02198 0.60211
 H968 H 0.33898 0.02208 0.63443
 H969 H 0.30144 0.03705 0.56067
 H970 H 0.27111 0.03746 0.52810
 H971 H 0.28222 -0.04383 0.51794
 H972 H 0.31254 -0.04411 0.55078
   
