data_POSCAR
  _audit_creation_date              2014-09-24
  _audit_creation_method            'ToBaCCo'
  _symmetry_space_group_name_H-M    'P1'
  _symmetry_Int_Tables_number       1
  _symmetry_cell_setting            triclinic
  loop_
  _symmetry_equiv_pos_as_xyz
 x,y,z
_cell_length_a 51.2525
_cell_length_b 51.2167
_cell_length_c 51.2251
_cell_angle_alpha 93.989700
_cell_angle_beta 93.835500
_cell_angle_gamma 94.219400
loop_
  _atom_site_label
  _atom_site_type_symbol
  _atom_site_fract_x
  _atom_site_fract_y
  _atom_site_fract_z
C1 C 0.27589 0.47757 1.00372
 C2 C 0.26410 0.50101 0.99974
 C3 C 0.27968 0.52364 0.99492
 C4 C 0.30691 0.52291 0.99439
 C5 C 0.31852 0.49940 0.99808
 C6 C 0.30304 0.47672 1.00260
 C7 C 0.23550 0.50186 1.00061
 C8 C 0.22346 0.49731 1.02388
 C9 C 0.19629 0.49839 1.02475
 C10 C 0.18106 0.50344 1.00217
 C11 C 0.19295 0.50769 0.97885
 C12 C 0.22017 0.50720 0.97814
 H13 H 0.26391 0.46001 1.00726
 H14 H 0.27061 0.54181 0.99207
 H15 H 0.23532 0.49336 1.04130
 H16 H 0.22937 0.51048 0.96007
 H17 H 0.33959 0.49871 0.99749
 H18 H 0.15997 0.50401 1.00269
 C19 C 0.72051 0.47769 0.00579
 C20 C 0.73607 0.50015 0.00045
 C21 C 0.72424 0.52343 -0.00419
 C22 C 0.69708 0.52430 -0.00319
 C23 C 0.68163 0.50177 0.00186
 C24 C 0.69329 0.47843 0.00620
 C25 C 0.76468 0.49928 -0.00028
 C26 C 0.77677 0.50327 -0.02365
 C27 C 0.80395 0.50217 -0.02437
 C28 C 0.81913 0.49767 -0.00159
 C29 C 0.80720 0.49397 0.02180
 C30 C 0.77998 0.49448 0.02240
 H31 H 0.72955 0.45961 0.00915
 H32 H 0.73620 0.54087 -0.00812
 H33 H 0.76494 0.50681 -0.04123
 H34 H 0.77074 0.49162 0.04054
 H35 H 0.66056 0.50238 0.00236
 H36 H 0.84023 0.49707 -0.00202
 C37 C 0.02303 0.22437 0.49682
 C38 C -0.00039 0.23623 0.50066
 C39 C -0.02312 0.22070 0.50525
 C40 C -0.02248 0.19345 0.50570
 C41 C 0.00098 0.18176 0.50214
 C42 C 0.02377 0.19718 0.49784
 C43 C -0.00114 0.26485 0.49990
 C44 C 0.00269 0.27679 0.47644
 C45 C 0.00169 0.30400 0.47568
 C46 C -0.00256 0.31934 0.49850
 C47 C -0.00610 0.30755 0.52198
 C48 C -0.00568 0.28030 0.52263
 H49 H 0.04067 0.23633 0.49345
 H50 H -0.04130 0.22977 0.50802
 H51 H 0.00603 0.26484 0.45883
 H52 H -0.00842 0.27116 0.54082
 H53 H 0.00151 0.16066 0.50267
 H54 H -0.00308 0.34046 0.49804
 C55 C 1.02299 0.77969 0.49409
 C56 C 1.00054 0.76408 0.49935
 C57 C 0.97716 0.77583 0.50370
 C58 C 0.97617 0.80298 0.50251
 C59 C 0.99868 0.81850 0.49755
 C60 C 1.02214 0.80693 0.49349
 C61 C 1.00153 0.73548 0.50031
 C62 C 0.99722 0.72358 0.52369
 C63 C 0.99841 0.69641 0.52464
 C64 C 1.00333 0.68105 0.50206
 C65 C 1.00735 0.69279 0.47863
 C66 C 1.00675 0.72001 0.47783
 H67 H 1.04113 0.77065 0.49096
 H68 H 0.95973 0.76382 0.50758
 H69 H 0.99336 0.73554 0.54112
 H70 H 1.00985 0.72910 0.45967
 H71 H 0.99789 0.83957 0.49692
 H72 H 1.00399 0.65996 0.50264
 C73 C 0.49658 0.02252 0.22373
 C74 C 0.50110 -0.00081 0.23557
 C75 C 0.50649 -0.02318 0.22001
 C76 C 0.50705 -0.02228 0.19279
 C77 C 0.50282 0.00111 0.18114
 C78 C 0.49773 0.02355 0.19658
 C79 C 0.50015 -0.00185 0.26416
 C80 C 0.47688 0.00265 0.27616
 C81 C 0.47593 0.00141 0.30331
 C82 C 0.49838 -0.00376 0.31859
 C83 C 0.52171 -0.00797 0.30677
 C84 C 0.52252 -0.00732 0.27955
 H85 H 0.49259 0.03989 0.23568
 H86 H 0.50975 -0.04131 0.22903
 H87 H 0.45950 0.00670 0.26433
 H88 H 0.54061 -0.01056 0.27041
 H89 H 0.50343 0.00183 0.16007
 H90 H 0.49771 -0.00443 0.33965
 C91 C 0.49345 0.02248 0.78005
 C92 C 0.49822 -0.00017 0.76460
 C93 C 0.50225 -0.02355 0.77654
 C94 C 0.50121 -0.02433 0.80375
 C95 C 0.49673 -0.00159 0.81909
 C96 C 0.49300 0.02183 0.80729
 C97 C 0.49901 0.00062 0.73598
 C98 C 0.52236 -0.00345 0.72396
 C99 C 0.52313 -0.00242 0.69677
 C100 C 0.50045 0.00209 0.68150
 C101 C 0.47706 0.00586 0.69335
 C102 C 0.47639 0.00542 0.72060
 H103 H 0.49056 0.04062 0.77091
 H104 H 0.50575 -0.04110 0.76459
 H105 H 0.53991 -0.00698 0.73579
 H106 H 0.45827 0.00834 0.72978
 H107 H 0.49618 -0.00206 0.84019
 H108 H 0.50100 0.00262 0.66041
 C109 C 0.28840 0.03830 0.45395
 H110 H 0.28939 0.05385 0.46949
 C111 C 0.30661 0.03892 0.43489
 H112 H 0.32161 0.05506 0.43564
 C113 C 0.26866 -0.00257 0.43491
 H114 H 0.25439 -0.01909 0.43550
 C115 C 0.28655 -0.00273 0.41547
 H116 H 0.28585 -0.01928 0.40099
 N117 N 0.27005 0.01768 0.45376
 C118 C 0.21155 0.04560 0.50464
 H119 H 0.21205 0.03086 0.51876
 C120 C 0.19340 0.06456 0.50617
 H121 H 0.17994 0.06453 0.52160
 C122 C 0.22763 0.06289 0.46649
 H123 H 0.24053 0.06171 0.45068
 C124 C 0.20971 0.08220 0.46729
 H125 H 0.20899 0.09601 0.45221
 Zn126 Zn 0.24940 0.01648 0.48292
 N127 N 0.22814 0.04506 0.48500
 C128 C 0.27420 0.03655 0.53269
 N129 N 0.27309 0.01719 0.51293
 C130 C 0.29026 -0.00183 0.51303
 C131 C 0.30938 -0.00206 0.53368
 C132 C 0.29309 0.03706 0.55377
 C133 C 0.20742 -0.01723 0.46017
 C134 C 0.18819 -0.03818 0.45860
 C135 C 0.20840 -0.05299 0.49835
 C136 C 0.22726 -0.03176 0.49919
 N137 N 0.22638 -0.01436 0.48029
 H138 H 0.26079 0.05184 0.53193
 H139 H 0.28920 -0.01670 0.49684
 H140 H 0.32307 -0.01720 0.53349
 H141 H 0.29406 0.05262 0.56933
 H142 H 0.20689 -0.00282 0.44571
 H143 H 0.17284 -0.04001 0.44283
 H144 H 0.20887 -0.06642 0.51377
 H145 H 0.24201 -0.02878 0.51539
 C146 C 0.19231 0.08287 0.48720
 C147 C 0.30588 0.01805 0.41569
 C148 C 0.18857 -0.05608 0.47800
 C149 C 0.31087 0.01760 0.55418
 C150 C 0.71153 0.00304 0.54472
 H151 H 0.71218 0.01707 0.52990
 C152 C 0.69324 0.00462 0.56363
 H153 H 0.67982 0.02001 0.56348
 C154 C 0.72740 -0.03493 0.56230
 H155 H 0.74028 -0.05068 0.56125
 C156 C 0.70933 -0.03407 0.58157
 H157 H 0.70847 -0.04905 0.59548
 N158 N 0.72809 -0.01653 0.54435
 C159 C 0.79068 0.01161 0.49750
 H160 H 0.78973 -0.00463 0.48269
 C161 C 0.80983 0.03237 0.49723
 H162 H 0.82365 0.03222 0.48212
 C163 C 0.77432 0.03129 0.53575
 H164 H 0.76078 0.03051 0.55101
 C165 C 0.79323 0.05249 0.53622
 H166 H 0.79408 0.06811 0.55171
 Zn167 Zn 0.74959 -0.01866 0.51585
 N168 N 0.77335 0.01147 0.51648
 C169 C 0.72783 -0.00265 0.46754
 N170 N 0.72680 -0.02151 0.48499
 C171 C 0.70779 -0.04170 0.48221
 C172 C 0.68865 -0.04337 0.46130
 C173 C 0.70907 -0.00360 0.44635
 C174 C 0.78835 -0.04737 0.53789
 C175 C 0.80650 -0.06637 0.53865
 C176 C 0.78673 -0.08605 0.49706
 C177 C 0.76889 -0.06667 0.49708
 N178 N 0.77017 -0.04773 0.51723
 H179 H 0.74262 0.01362 0.47046
 H180 H 0.70713 -0.05611 0.49667
 H181 H 0.67324 -0.05918 0.45955
 H182 H 0.70963 0.01181 0.43290
 H183 H 0.78925 -0.03176 0.55335
 H184 H 0.82138 -0.06549 0.55481
 H185 H 0.78614 -0.10061 0.48060
 H186 H 0.75476 -0.06621 0.48053
 C187 C 0.81117 0.05295 0.51680
 C188 C 0.69197 -0.01422 0.58207
 C189 C 0.80590 -0.08567 0.51788
 C190 C 0.68917 -0.02400 0.44337
 C191 C 0.46077 0.21143 1.04687
 H192 H 0.44523 0.21045 1.03138
 C193 C 0.46013 0.19324 1.06592
 H194 H 0.44397 0.17827 1.06522
 C195 C 0.50169 0.23110 1.06577
 H196 H 0.51823 0.24532 1.06512
 C197 C 0.50182 0.21323 1.08520
 H198 H 0.51837 0.21390 1.09960
 N199 N 0.48143 0.22972 1.04699
 C200 C 0.45373 0.28817 0.99611
 H201 H 0.46845 0.28755 0.98194
 C202 C 0.43487 0.30640 0.99460
 H203 H 0.43494 0.31980 0.97915
 C204 C 0.43641 0.27231 1.03433
 H205 H 0.43754 0.25946 1.05016
 C206 C 0.41719 0.29032 1.03357
 H207 H 0.40340 0.29116 1.04868
 Zn208 Zn 0.48269 0.25028 1.01781
 N209 N 0.45421 0.27165 1.01577
 C210 C 0.46259 0.22533 0.96809
 N211 N 0.48192 0.22646 0.98781
 C212 C 0.50087 0.20922 0.98769
 C213 C 0.50106 0.19000 0.96705
 C214 C 0.46203 0.20634 0.94703
 C215 C 0.51649 0.29227 1.04044
 C216 C 0.53747 0.31145 1.04194
 C217 C 0.55221 0.29104 1.00216
 C218 C 0.53094 0.27223 1.00139
 N219 N 0.51357 0.27323 1.02034
 H220 H 0.44735 0.23880 0.96887
 H221 H 0.51572 0.21029 1.00385
 H222 H 0.51615 0.17626 0.96722
 H223 H 0.44650 0.20536 0.93149
 H224 H 0.50209 0.29290 1.05494
 H225 H 0.53934 0.32686 1.05770
 H226 H 0.56562 0.29048 0.98669
 H227 H 0.52792 0.25741 0.98520
 C228 C 0.41658 0.30765 1.01362
 C229 C 0.48100 0.19394 1.08504
 C230 C 0.55535 0.31095 1.02249
 C231 C 0.48143 0.18849 0.94658
 C232 C 0.49571 0.78779 -0.04610
 H233 H 0.48168 0.78707 -0.03125
 C234 C 0.49408 0.80610 -0.06493
 H235 H 0.47865 0.81947 -0.06471
 C236 C 0.53374 0.77209 -0.06377
 H237 H 0.54955 0.75927 -0.06278
 C238 C 0.53284 0.79020 -0.08297
 H239 H 0.54783 0.79114 -0.09689
 N240 N 0.51535 0.77130 -0.04580
 C241 C 0.48756 0.70863 0.00110
 H242 H 0.50382 0.70966 0.01583
 C243 C 0.46687 0.68941 0.00146
 H244 H 0.46711 0.67562 0.01657
 C245 C 0.46773 0.72487 -0.03706
 H246 H 0.46843 0.73838 -0.05232
 C247 C 0.44662 0.70588 -0.03743
 H248 H 0.43097 0.70495 -0.05285
 Zn249 Zn 0.51759 0.74984 -0.01732
 N250 N 0.48759 0.72594 -0.01788
 C251 C 0.50155 0.77160 0.03108
 N252 N 0.52035 0.77270 0.01355
 C253 C 0.54045 0.79182 0.01628
 C254 C 0.54209 0.81098 0.03723
 C255 C 0.50246 0.79038 0.05231
 C256 C 0.54649 0.71116 -0.03946
 C257 C 0.56558 0.69310 -0.04026
 C258 C 0.58513 0.71307 0.00130
 C259 C 0.56567 0.73081 0.00132
 N260 N 0.54675 0.72939 -0.01880
 H261 H 0.48536 0.75672 0.02820
 H262 H 0.55482 0.79253 0.00176
 H263 H 0.55782 0.82646 0.03894
 H264 H 0.48711 0.78975 0.06585
 H265 H 0.53090 0.71015 -0.05490
 H266 H 0.56479 0.67818 -0.05642
 H267 H 0.59967 0.71377 0.01774
 H268 H 0.56513 0.74497 0.01788
 C269 C 0.44626 0.68797 -0.01801
 C270 C 0.51294 0.80748 -0.08338
 C271 C 0.58486 0.69385 -0.01952
 C272 C 0.52278 0.81038 0.05525
 C273 C 1.04602 0.46148 0.21105
 H274 H 1.03043 0.44594 0.21011
 C275 C 1.06510 0.46085 0.19285
 H276 H 1.06430 0.44472 0.17791
 C277 C 1.06521 0.50235 0.23066
 H278 H 1.06467 0.51887 0.24487
 C279 C 1.08466 0.50250 0.21279
 H280 H 1.09920 0.51904 0.21343
 N281 N 1.04629 0.48210 0.22932
 C282 C 0.99522 0.45425 0.28791
 H283 H 0.98116 0.46899 0.28731
 C284 C 0.99361 0.43535 0.30619
 H285 H 0.97817 0.43542 0.31965
 C286 C 1.03330 0.43693 0.27197
 H287 H 1.04913 0.43808 0.25908
 C288 C 1.03242 0.41767 0.29003
 H289 H 1.04744 0.40387 0.29086
 Zn290 Zn 1.01712 0.48333 0.24996
 N291 N 1.01487 0.45476 0.27133
 C292 C 0.96731 0.46332 0.22516
 N293 N 0.98714 0.48267 0.22624
 C294 C 0.98714 0.50171 0.20901
 C295 C 0.96653 0.50196 0.18985
 C296 C 0.94626 0.46283 0.20623
 C297 C 1.04000 0.51695 0.29187
 C298 C 1.04165 0.53785 0.31108
 C299 C 1.00202 0.55277 0.29083
 C300 C 1.00109 0.53158 0.27199
 N301 N 1.01989 0.51415 0.27290
 H302 H 0.96799 0.44801 0.23862
 H303 H 1.00339 0.51658 0.21004
 H304 H 0.96680 0.51712 0.17611
 H305 H 0.93064 0.44728 0.20529
 H306 H 1.05437 0.50251 0.29243
 H307 H 1.05740 0.53962 0.32645
 H308 H 0.98666 0.56621 0.29035
 H309 H 0.98489 0.52865 0.25722
 C310 C 1.01250 0.41705 0.30743
 C311 C 1.08438 0.48171 0.19352
 C312 C 1.02234 0.55577 0.31068
 C313 C 0.94595 0.48231 0.18840
 C314 C -0.04471 0.49647 0.78844
 H315 H -0.02997 0.48241 0.78781
 C316 C -0.06364 0.49486 0.80671
 H317 H -0.06360 0.47942 0.82014
 C318 C -0.06202 0.53454 0.77255
 H319 H -0.06085 0.55035 0.75967
 C320 C -0.08131 0.53367 0.79061
 H321 H -0.09512 0.54868 0.79145
 N322 N -0.04419 0.51611 0.77187
 C323 C 0.00269 0.48818 0.70939
 H324 H 0.01756 0.50441 0.71039
 C325 C 0.00289 0.46751 0.69021
 H326 H 0.01803 0.46773 0.67641
 C327 C -0.03569 0.46842 0.72564
 H328 H -0.05098 0.46915 0.73914
 C329 C -0.03622 0.44732 0.70669
 H330 H -0.05179 0.43172 0.70577
 Zn331 Zn -0.01564 0.51830 0.75042
 N332 N -0.01634 0.48824 0.72668
 C333 C 0.03253 0.50222 0.77231
 N334 N 0.01516 0.52108 0.77328
 C335 C 0.01800 0.54124 0.79226
 C336 C 0.03886 0.54288 0.81144
 C337 C 0.05368 0.50313 0.79112
 C338 C -0.03749 0.54711 0.71159
 C339 C -0.03813 0.56613 0.69338
 C340 C 0.00350 0.58577 0.71317
 C341 C 0.00336 0.56636 0.73106
 N342 N -0.01686 0.54743 0.72980
 H343 H 0.02957 0.48598 0.75754
 H344 H 0.00361 0.55566 0.79286
 H345 H 0.04065 0.55866 0.82682
 H346 H 0.06707 0.48772 0.79061
 H347 H -0.05301 0.53150 0.71070
 H348 H -0.05426 0.56529 0.67848
 H349 H 0.02002 0.60031 0.71374
 H350 H 0.01988 0.56587 0.74522
 C351 C -0.01677 0.44695 0.68879
 C352 C -0.08195 0.51375 0.80797
 C353 C -0.01729 0.58542 0.69396
 C354 C 0.05671 0.52350 0.81099
 C355 C 0.10932 0.12573 0.50580
 C356 C 0.11017 0.15525 0.51493
 C357 C 0.09118 0.15934 0.49132
 C358 C 0.09004 0.13003 0.48222
 C359 C 0.13237 0.13173 0.48889
 C360 C 0.11339 0.13582 0.46527
 C361 C 0.13358 0.16105 0.49800
 C362 C 0.11420 0.16540 0.47438
 C363 C 0.06770 0.17384 0.49309
 C364 C 0.04789 0.18491 0.49500
 C365 C 0.15465 0.11543 0.48791
 C366 C 0.17224 0.10108 0.48743
 H367 H 0.10753 0.10926 0.51871
 H368 H 0.10858 0.16339 0.53536
 H369 H 0.07189 0.11741 0.47576
 H370 H 0.11498 0.12765 0.44484
 H371 H 0.15175 0.17361 0.50447
 H372 H 0.11592 0.18189 0.46149
 C373 C 0.62688 0.60735 -0.03281
 C374 C 0.65654 0.60668 -0.03678
 C375 C 0.65977 0.59175 -0.01191
 C376 C 0.63035 0.59209 -0.00794
 C377 C 0.63278 0.63323 -0.01571
 C378 C 0.63604 0.61827 0.00913
 C379 C 0.66221 0.63297 -0.01969
 C380 C 0.66570 0.61762 0.00521
 C381 C 0.67398 0.56816 -0.00936
 C382 C 0.68489 0.54835 -0.00680
 C383 C 0.61683 0.65572 -0.01746
 C384 C 0.60277 0.67352 -0.01856
 H385 H 0.61075 0.60336 -0.04847
 H386 H 0.66514 0.60163 -0.05563
 H387 H 0.61738 0.57505 -0.00309
 H388 H 0.62746 0.62327 0.02800
 H389 H 0.67512 0.65005 -0.02454
 H390 H 0.68183 0.62158 0.02087
 C391 C 0.88528 -0.13193 0.49186
 C392 C 0.90901 -0.12994 0.51241
 C393 C 0.90844 -0.16004 0.51065
 C394 C 0.88501 -0.16225 0.49005
 C395 C 0.86677 -0.13329 0.51420
 C396 C 0.86611 -0.16340 0.51244
 C397 C 0.89020 -0.13109 0.53478
 C398 C 0.88996 -0.16145 0.53301
 C399 C 0.93213 -0.17412 0.50827
 C400 C 0.95202 -0.18494 0.50589
 C401 C 0.84418 -0.11746 0.51585
 C402 C 0.82631 -0.10348 0.51691
 H403 H 0.88313 -0.11963 0.47495
 H404 H 0.92689 -0.11631 0.51237
 H405 H 0.88314 -0.17522 0.47163
 H406 H 0.84821 -0.17697 0.51247
 H407 H 0.89208 -0.11811 0.55319
 H408 H 0.89216 -0.17375 0.54990
 C409 C 0.37366 0.39042 0.99435
 C410 C 0.34401 0.38958 0.98598
 C411 C 0.34059 0.40915 1.00939
 C412 C 0.37004 0.41029 1.01772
 C413 C 0.36800 0.36783 1.01191
 C414 C 0.36459 0.38741 1.03533
 C415 C 0.33856 0.36663 1.00356
 C416 C 0.33488 0.38661 1.02698
 C417 C 0.32620 0.43270 1.00754
 C418 C 0.31521 0.45255 1.00555
 C419 C 0.38420 0.34548 1.01293
 C420 C 0.39847 0.32781 1.01341
 H421 H 0.38976 0.39176 0.98094
 H422 H 0.33539 0.39073 0.96566
 H423 H 0.38284 0.42848 1.02353
 H424 H 0.37323 0.38626 1.05563
 H425 H 0.32580 0.34841 0.99776
 H426 H 0.31875 0.38533 1.04037
 C427 C 0.86951 0.14029 0.51578
 C428 C 0.89356 0.14463 0.53610
 C429 C 0.91173 0.14460 0.51343
 C430 C 0.88809 0.14058 0.49310
 C431 C 0.87123 0.11049 0.51613
 C432 C 0.88944 0.11051 0.49350
 C433 C 0.89488 0.11451 0.53646
 C434 C 0.91339 0.11480 0.51379
 C435 C 0.93473 0.16288 0.51136
 C436 C 0.95404 0.17720 0.50908
 C437 C 0.84917 0.09078 0.51705
 C438 C 0.83155 0.07389 0.51724
 H439 H 0.85121 0.15053 0.51661
 H440 H 0.89553 0.15888 0.55360
 H441 H 0.88555 0.15150 0.47525
 H442 H 0.88753 0.09628 0.47598
 H443 H 0.89743 0.10357 0.55431
 H444 H 0.93167 0.10450 0.51295
 C445 C 0.35904 0.62840 -0.02202
 C446 C 0.35840 0.60187 -0.03873
 C447 C 0.35484 0.58734 -0.01380
 C448 C 0.35516 0.61347 0.00293
 C449 C 0.38887 0.62784 -0.01689
 C450 C 0.38526 0.61327 0.00801
 C451 C 0.38854 0.60171 -0.03361
 C452 C 0.38467 0.58685 -0.00868
 C453 C 0.33660 0.56436 -0.01150
 C454 C 0.32232 0.54506 -0.00901
 C455 C 0.40852 0.64992 -0.01800
 C456 C 0.42538 0.66756 -0.01831
 H457 H 0.34874 0.64576 -0.02752
 H458 H 0.34713 0.59691 -0.05792
 H459 H 0.34122 0.61804 0.01797
 H460 H 0.39651 0.61819 0.02722
 H461 H 0.40248 0.59711 -0.04865
 H462 H 0.39503 0.56953 -0.00318
 C463 C 0.10329 -0.11594 0.46043
 C464 C 0.10418 -0.14608 0.46107
 C465 C 0.08650 -0.14548 0.48414
 C466 C 0.08527 -0.11564 0.48352
 C467 C 0.12732 -0.11206 0.48030
 C468 C 0.10960 -0.11151 0.50334
 C469 C 0.12862 -0.14189 0.48092
 C470 C 0.11054 -0.14160 0.50400
 C471 C 0.06344 -0.16347 0.48687
 C472 C 0.04417 -0.17765 0.48970
 C473 C 0.14968 -0.09283 0.47877
 C474 C 0.16765 -0.07640 0.47810
 H475 H 0.10056 -0.10517 0.44250
 H476 H 0.10168 -0.16052 0.44372
 H477 H 0.06720 -0.10504 0.48462
 H478 H 0.11206 -0.09710 0.52071
 H479 H 0.14670 -0.15246 0.47983
 H480 H 0.11326 -0.15235 0.52195
 C481 C 0.64132 0.37187 1.02452
 C482 C 0.64450 0.38666 0.99939
 C483 C 0.64486 0.41286 1.01600
 C484 C 0.64199 0.39847 1.04111
 C485 C 0.61140 0.37209 1.01997
 C486 C 0.61177 0.39830 1.03658
 C487 C 0.61431 0.38653 0.99489
 C488 C 0.61493 0.41303 1.01146
 C489 C 0.66286 0.43590 1.01321
 C490 C 0.67706 0.45515 1.01032
 C491 C 0.59215 0.34977 1.02158
 C492 C 0.57569 0.33183 1.02231
 H493 H 0.65194 0.35468 1.02992
 H494 H 0.65816 0.38214 0.98407
 H495 H 0.65359 0.40365 1.06009
 H496 H 0.59810 0.40283 1.05189
 H497 H 0.60273 0.38139 0.97589
 H498 H 0.60427 0.43019 1.00606
 C499 C 0.48226 0.13266 1.16232
 C500 C 0.46450 0.10669 1.15723
 C501 C 0.48903 0.09123 1.15945
 C502 C 0.50683 0.11678 1.16480
 C503 C 0.48514 0.13294 1.13268
 C504 C 0.50964 0.11745 1.13493
 C505 C 0.46735 0.10738 1.12736
 C506 C 0.49189 0.09159 1.12981
 C507 C 0.49161 0.06753 1.17356
 C508 C 0.49416 0.04765 1.18442
 C509 C 0.48331 0.15557 1.11685
 C510 C 0.48211 0.17348 1.10287
 H511 H 0.47829 0.14982 1.17550
 H512 H 0.44597 0.10198 1.16657
 H513 H 0.52309 0.12038 1.18036
 H514 H 0.52819 0.12211 1.12560
 H515 H 0.45109 0.10376 1.11179
 H516 H 0.49587 0.07446 1.11658
 C517 C 0.01054 0.63426 0.61627
 C518 C -0.00825 0.63000 0.59117
 C519 C -0.00963 0.65986 0.59115
 C520 C 0.00920 0.66434 0.61595
 C521 C -0.01331 0.63307 0.63292
 C522 C -0.01471 0.66294 0.63298
 C523 C -0.03214 0.62861 0.60811
 C524 C -0.03351 0.65871 0.60776
 C525 C -0.00720 0.67397 0.56742
 C526 C -0.00477 0.68483 0.54749
 C527 C -0.01505 0.61724 0.65556
 C528 C -0.01620 0.60325 0.67349
 H529 H 0.02864 0.62405 0.62001
 H530 H -0.00558 0.61659 0.57374
 H531 H 0.02623 0.67920 0.61890
 H532 H -0.01738 0.67630 0.65044
 H533 H -0.04916 0.61374 0.60513
 H534 H -0.05160 0.66893 0.60398
 C535 C 0.53429 0.88744 -0.13569
 C536 C 0.52541 0.88678 -0.16529
 C537 C 0.50811 0.90938 -0.15921
 C538 C 0.51697 0.91038 -0.12988
 C539 C 0.51086 0.86793 -0.13187
 C540 C 0.49359 0.89057 -0.12584
 C541 C 0.50199 0.86686 -0.16119
 C542 C 0.48469 0.88987 -0.15537
 C543 C 0.50614 0.93298 -0.17358
 C544 C 0.50405 0.95284 -0.18459
 C545 C 0.51201 0.84549 -0.11571
 C546 C 0.51260 0.82774 -0.10147
 H547 H 0.55470 0.88618 -0.12743
 H548 H 0.53847 0.88551 -0.18169
 H549 H 0.52311 0.92852 -0.11715
 H550 H 0.48051 0.89190 -0.10946
 H551 H 0.49584 0.84870 -0.17388
 H552 H 0.46427 0.89112 -0.16362
 C553 C 0.99619 0.37625 0.39218
 C554 C 0.98419 0.34761 0.39196
 C555 C 1.00813 0.34109 0.40929
 C556 C 1.02009 0.36954 0.40981
 C557 C 1.01065 0.36848 0.36783
 C558 C 1.03460 0.36198 0.38516
 C559 C 0.99867 0.34004 0.36726
 C560 C 1.02262 0.33325 0.38498
 C561 C 1.00631 0.32669 0.43291
 C562 C 1.00436 0.31567 0.45280
 C563 C 1.01169 0.38467 0.34540
 C564 C 1.01221 0.39893 0.32767
 H565 H 0.98532 0.39409 0.39492
 H566 H 0.96344 0.34155 0.39502
 H567 H 1.02888 0.38152 0.42755
 H568 H 1.05535 0.36806 0.38209
 H569 H 0.98989 0.32809 0.34950
 H570 H 1.03347 0.31539 0.38232
 C571 C 0.52427 0.87105 0.14110
 C572 C 0.54153 0.89736 0.14223
 C573 C 0.51674 0.91228 0.14446
 C574 C 0.49946 0.88637 0.14364
 C575 C 0.52056 0.87152 0.11113
 C576 C 0.49581 0.88648 0.11340
 C577 C 0.53784 0.89742 0.11195
 C578 C 0.51304 0.91268 0.11448
 C579 C 0.51401 0.93529 0.16241
 C580 C 0.51116 0.95451 0.17657
 C581 C 0.52207 0.84919 0.09195
 C582 C 0.52271 0.83125 0.07554
 H583 H 0.52891 0.85367 0.15182
 H584 H 0.56030 0.90210 0.15431
 H585 H 0.48365 0.88209 0.15687
 H586 H 0.47701 0.88177 0.10135
 H587 H 0.55364 0.90171 0.09871
 H588 H 0.50840 0.93003 0.10372
 C589 C -0.03918 0.38140 0.60805
 C590 C -0.02017 0.38467 0.58603
 C591 C -0.01368 0.35601 0.58788
 C592 C -0.03267 0.35242 0.60956
 C593 C -0.01628 0.38982 0.62852
 C594 C -0.00978 0.36118 0.63043
 C595 C 0.00268 0.39335 0.60681
 C596 C 0.00920 0.36445 0.60836
 C597 C -0.01166 0.33789 0.56483
 C598 C -0.00942 0.32369 0.54548
 C599 C -0.01715 0.40936 0.65066
 C600 C -0.01728 0.42614 0.66834
 H601 H -0.05909 0.38858 0.60818
 H602 H -0.02442 0.39414 0.56753
 H603 H -0.04718 0.33536 0.61041
 H604 H -0.00553 0.35174 0.64894
 H605 H 0.01721 0.41039 0.60590
 H606 H 0.02912 0.35729 0.60824
 C607 C 0.50461 0.11003 0.88978
 C608 C 0.48424 0.08603 0.88552
 C609 C 0.48490 0.08761 0.85572
 C610 C 0.50531 0.11131 0.85973
 C611 C 0.48206 0.12822 0.88950
 C612 C 0.48272 0.12986 0.85972
 C613 C 0.46165 0.10451 0.88550
 C614 C 0.46232 0.10575 0.85539
 C615 C 0.48708 0.06458 0.83762
 C616 C 0.48947 0.04526 0.82342
 C617 C 0.48110 0.15035 0.90903
 C618 C 0.48093 0.16804 0.92579
 H619 H 0.52199 0.11202 0.90412
 H620 H 0.48488 0.06777 0.89594
 H621 H 0.52329 0.11386 0.84893
 H622 H 0.48208 0.14814 0.84934
 H623 H 0.44368 0.10196 0.89631
 H624 H 0.44496 0.10371 0.84103
 C625 C 1.03478 0.60987 0.39901
 C626 C 1.04233 0.63981 0.40016
 C627 C 1.01666 0.64468 0.41291
 C628 C 1.00910 0.61503 0.41209
 C629 C 1.02028 0.61148 0.37201
 C630 C 0.99464 0.61638 0.38479
 C631 C 1.02785 0.64113 0.37276
 C632 C 1.00215 0.64630 0.38591
 C633 C 1.01404 0.66256 0.43602
 C634 C 1.01130 0.67666 0.45531
 C635 C 1.02172 0.59236 0.34961
 C636 C 1.02231 0.57601 0.33162
 H637 H 1.04822 0.59468 0.40416
 H638 H 1.06191 0.64966 0.40676
 H639 H 1.00137 0.60448 0.42851
 H640 H 0.97504 0.60655 0.37823
 H641 H 1.03558 0.65163 0.35631
 H642 H 0.98870 0.66149 0.38078
 C643 C 1.12580 0.50327 0.11017
 C644 C 1.15518 0.51291 0.11070
 C645 C 1.15933 0.48983 0.09100
 C646 C 1.13016 0.48023 0.09017
 C647 C 1.13230 0.48589 0.13262
 C648 C 1.13645 0.46280 0.11293
 C649 C 1.16148 0.49550 0.13352
 C650 C 1.16590 0.47243 0.11342
 C651 C 1.17359 0.49244 0.06735
 C652 C 1.18457 0.49502 0.04750
 C653 C 1.11634 0.48404 0.15520
 C654 C 1.10228 0.48283 0.17308
 H655 H 1.10915 0.51594 0.10906
 H656 H 1.16303 0.53355 0.10952
 H657 H 1.11742 0.47398 0.07210
 H658 H 1.12858 0.44217 0.11410
 H659 H 1.17418 0.50175 0.15161
 H660 H 1.18256 0.45978 0.11446
 C661 C 0.60384 -0.00908 0.61939
 C662 C 0.59328 -0.03070 0.63647
 C663 C 0.59050 -0.00950 0.65863
 C664 C 0.60075 0.01213 0.64173
 C665 C 0.63177 -0.01221 0.63096
 C666 C 0.62901 0.00900 0.65311
 C667 C 0.62156 -0.03388 0.64783
 C668 C 0.61841 -0.01263 0.67028
 C669 C 0.56700 -0.00755 0.67319
 C670 C 0.54721 -0.00547 0.68435
 C671 C 0.65412 -0.01334 0.61464
 C672 C 0.67179 -0.01391 0.60028
 H673 H 0.59806 -0.00763 0.59829
 H674 H 0.57833 -0.04700 0.62978
 H675 H 0.59195 0.03106 0.63936
 H676 H 0.64396 0.02530 0.65978
 H677 H 0.63040 -0.05280 0.65016
 H678 H 0.62411 -0.01407 0.69139
 C679 C -0.13076 0.48925 0.88656
 C680 C -0.12847 0.50975 0.91041
 C681 C -0.15854 0.50901 0.90948
 C682 C -0.16105 0.48847 0.88594
 C683 C -0.13085 0.51172 0.86819
 C684 C -0.16092 0.51098 0.86718
 C685 C -0.12834 0.53225 0.89175
 C686 C -0.15867 0.53151 0.89115
 C687 C -0.17310 0.50706 0.93301
 C688 C -0.18425 0.50500 0.95283
 C689 C -0.11452 0.51284 0.84584
 C690 C -0.10016 0.51342 0.82816
 H691 H -0.11912 0.47188 0.88445
 H692 H -0.11526 0.50922 0.92842
 H693 H -0.17467 0.47045 0.88381
 H694 H -0.17407 0.51150 0.84914
 H695 H -0.11471 0.55027 0.89389
 H696 H -0.17032 0.54886 0.89331
 C697 C 0.36629 0.01306 0.33776
 C698 C 0.39078 0.03302 0.34025
 C699 C 0.40842 0.01005 0.34085
 C700 C 0.38435 -0.00995 0.33810
 C701 C 0.36679 0.01391 0.36783
 C702 C 0.38447 -0.00903 0.36839
 C703 C 0.39087 0.03390 0.37056
 C704 C 0.40884 0.01091 0.37091
 C705 C 0.43206 0.00749 0.32661
 C706 C 0.45189 0.00496 0.31563
 C707 C 0.34421 0.01574 0.38376
 C708 C 0.32633 0.01694 0.39781
 H709 H 0.34853 0.01396 0.32432
 H710 H 0.39366 0.05029 0.32851
 H711 H 0.38193 -0.02800 0.32460
 H712 H 0.38163 -0.02632 0.38012
 H713 H 0.39330 0.05195 0.38408
 H714 H 0.42657 0.01000 0.38440
 C715 C 0.14219 0.52455 0.87184
 C716 C 0.14351 0.54207 0.89793
 C717 C 0.14520 0.51737 0.91317
 C718 C 0.14418 0.49984 0.88748
 C719 C 0.11218 0.52122 0.87229
 C720 C 0.11392 0.49656 0.88756
 C721 C 0.11320 0.53875 0.89798
 C722 C 0.11519 0.51405 0.91355
 C723 C 0.16296 0.51462 0.93626
 C724 C 0.17695 0.51177 0.95554
 C725 C 0.09316 0.52276 0.84990
 C726 C 0.07688 0.52342 0.83192
 H727 H 0.15306 0.52890 0.85442
 H728 H 0.15589 0.56075 0.90247
 H729 H 0.15712 0.48380 0.88341
 H730 H 0.10156 0.47786 0.88306
 H731 H 0.10025 0.55478 0.90205
 H732 H 0.10427 0.50970 0.93094
 C733 C 0.61801 -0.04271 0.36575
 C734 C 0.58958 -0.03978 0.37350
 C735 C 0.58719 -0.01785 0.35468
 C736 C 0.61524 -0.02073 0.34661
 C737 C 0.62799 -0.02175 0.38777
 C738 C 0.62559 0.00018 0.36896
 C739 C 0.59993 -0.01887 0.39579
 C740 C 0.59722 0.00307 0.37673
 C741 C 0.56416 -0.01505 0.33687
 C742 C 0.54493 -0.01214 0.32283
 C743 C 0.65033 -0.02330 0.40684
 C744 C 0.66828 -0.02395 0.42316
 H745 H 0.62683 -0.06156 0.36145
 H746 H 0.57452 -0.05618 0.37516
 H747 H 0.62126 -0.02146 0.32617
 H748 H 0.64065 0.01659 0.36730
 H749 H 0.59386 -0.01813 0.41622
 H750 H 0.58843 0.02193 0.38107
 C751 C 0.86786 0.50277 0.12688
 C752 C 0.87527 0.50836 0.09888
 C753 C 0.85533 0.48586 0.08763
 C754 C 0.84760 0.48027 0.11529
 C755 C 0.88899 0.48303 0.12822
 C756 C 0.86907 0.46049 0.11701
 C757 C 0.89665 0.48862 0.10054
 C758 C 0.87646 0.46613 0.08898
 C759 C 0.83730 0.48804 0.06460
 C760 C 0.82320 0.49043 0.04527
 C761 C 0.90846 0.48206 0.15033
 C762 C 0.92519 0.48186 0.16799
 H763 H 0.86453 0.51783 0.14271
 H764 H 0.87764 0.52807 0.09119
 H765 H 0.82721 0.47686 0.12107
 H766 H 0.86674 0.44080 0.12474
 H767 H 0.91702 0.49204 0.09470
 H768 H 0.87980 0.45108 0.07314
 C769 C 0.36888 0.01163 0.64025
 C770 C 0.39001 -0.00836 0.63762
 C771 C 0.41142 0.01402 0.64502
 C772 C 0.39068 0.03401 0.64797
 C773 C 0.37092 0.01689 0.61127
 C774 C 0.39233 0.03928 0.61865
 C775 C 0.39170 -0.00307 0.60839
 C776 C 0.41340 0.01927 0.61603
 C777 C 0.43439 0.01182 0.66310
 C778 C 0.45366 0.00941 0.67727
 C779 C 0.34886 0.01787 0.59175
 C780 C 0.33124 0.01807 0.57498
 H781 H 0.35031 0.00851 0.64998
 H782 H 0.38930 -0.02798 0.64562
 H783 H 0.39054 0.04923 0.66447
 H784 H 0.39303 0.05888 0.61063
 H785 H 0.39189 -0.01831 0.59191
 H786 H 0.43195 0.02239 0.60625
   
