data_POSCAR
  _audit_creation_date              2014-09-24
  _audit_creation_method            'ToBaCCo'
  _symmetry_space_group_name_H-M    'P1'
  _symmetry_Int_Tables_number       1
  _symmetry_cell_setting            triclinic
  loop_
  _symmetry_equiv_pos_as_xyz
 x,y,z
_cell_length_a 28.9997
_cell_length_b 28.9850
_cell_length_c 53.2608
_cell_angle_alpha 85.335600
_cell_angle_beta 92.837900
_cell_angle_gamma 120.184500
loop_
  _atom_site_label
  _atom_site_type_symbol
  _atom_site_fract_x
  _atom_site_fract_y
  _atom_site_fract_z
C1 C 0.01586 0.09889 0.53231
 H2 H 0.05266 0.09796 0.53198
 C3 C 0.01304 0.13604 0.54621
 H4 H 0.04767 0.16303 0.55693
 C5 C -0.07372 0.06480 0.51843
 H6 H -0.10694 0.03773 0.50709
 C7 C -0.07833 0.10145 0.53215
 H8 H -0.11533 0.10221 0.53129
 N9 N -0.02702 0.06433 0.51877
 C10 C 0.00670 -0.06289 0.50772
 H11 H 0.00820 -0.06057 0.48737
 C12 C 0.00945 -0.10425 0.52180
 H13 H 0.01314 -0.13361 0.51209
 C14 C -0.00421 -0.02966 0.54485
 H15 H -0.01124 -0.00158 0.55372
 C16 C -0.00163 -0.07033 0.55965
 H17 H -0.00531 -0.07220 0.57989
 Zn18 Zn -0.01499 0.02061 0.49876
 N19 N -0.00059 -0.02702 0.51935
 C20 C 0.09017 0.06760 0.47875
 N21 N 0.04331 0.06779 0.47800
 C22 C 0.03736 0.10543 0.46363
 C23 C 0.07960 0.14525 0.44933
 C24 C 0.13364 0.10686 0.46469
 C25 C -0.12008 -0.06011 0.49113
 C26 C -0.16294 -0.09891 0.47783
 C27 C -0.11357 -0.05850 0.43942
 C28 C -0.07172 -0.02061 0.45355
 N29 N -0.07535 -0.02253 0.47895
 H30 H 0.09436 0.03799 0.49075
 H31 H -0.00020 0.10492 0.46365
 H32 H 0.07390 0.17476 0.43799
 H33 H 0.17111 0.10704 0.46596
 H34 H -0.12183 -0.06089 0.51142
 H35 H -0.19786 -0.12661 0.48862
 H36 H -0.10628 -0.05660 0.41959
 H37 H -0.03517 0.00860 0.44425
 C38 C 0.00421 -0.10897 0.54811
 C39 C -0.03430 0.13812 0.54605
 C40 C -0.16026 -0.10024 0.45138
 C41 C 0.12880 0.14678 0.44998
 C42 C 1.11575 0.03998 0.13193
 H43 H 1.11615 0.07755 0.13160
 C44 C 1.15224 0.03580 0.11761
 H45 H 1.18089 0.07056 0.10638
 C46 C 1.07926 -0.05010 0.14803
 H47 H 1.05123 -0.08312 0.16023
 C48 C 1.11533 -0.05601 0.13402
 H49 H 1.11417 -0.09405 0.13524
 N50 N 1.08011 -0.00261 0.14665
 C51 C 0.95366 0.03303 0.15711
 H52 H 0.95462 0.03418 0.17739
 C53 C 0.91322 0.03601 0.14301
 H54 H 0.88323 0.03955 0.15263
 C55 C 0.98920 0.02255 0.12027
 H56 H 1.01774 0.01551 0.11155
 C57 C 0.94952 0.02541 0.10545
 H58 H 0.94894 0.02196 0.08534
 Zn59 Zn 1.03608 0.01032 0.16647
 N60 N 0.99018 0.02576 0.14565
 C61 C 1.08214 0.11505 0.18461
 N62 N 1.08248 0.06817 0.18586
 C63 C 1.11927 0.06159 0.20004
 C64 C 1.15782 0.10309 0.21376
 C65 C 1.12011 0.15778 0.19811
 C66 C 0.95332 -0.09437 0.17650
 C67 C 0.91350 -0.13708 0.19090
 C68 C 0.95346 -0.08876 0.22818
 C69 C 0.99246 -0.04695 0.21306
 N70 N 0.99130 -0.05019 0.18768
 H71 H 1.05320 0.11975 0.17280
 H72 H 1.11889 0.02402 0.20044
 H73 H 1.18651 0.09680 0.22505
 H74 H 1.12004 0.19521 0.19656
 H75 H 0.95262 -0.09534 0.15622
 H76 H 0.88232 -0.17086 0.18150
 H77 H 0.95453 -0.08507 0.24829
 H78 H 1.02219 -0.01106 0.22155
 C79 C 0.91014 0.03104 0.11687
 C80 C 1.15251 -0.01260 0.11859
 C81 C 0.91257 -0.13409 0.21706
 C82 C 1.15894 0.15218 0.21274
 C83 C 0.04019 0.94211 0.87041
 H84 H 0.00292 0.90457 0.87013
 C85 C 0.08271 0.94559 0.88517
 H86 H 0.07787 0.91034 0.89616
 C87 C 0.09223 1.03270 0.85519
 H88 H 0.09594 1.06615 0.84309
 C89 C 0.13602 1.03791 0.86965
 H90 H 0.17298 1.07587 0.86891
 N91 N 0.04557 0.98523 0.85584
 C92 C -0.11858 0.94720 0.84177
 H93 H -0.12061 0.94619 0.82147
 C94 C -0.16147 0.94241 0.85486
 H95 H -0.19684 0.93520 0.84414
 C96 C -0.06930 0.95733 0.87966
 H97 H -0.03247 0.96542 0.88917
 C98 C -0.11121 0.95264 0.89356
 H99 H -0.10451 0.95791 0.91352
 Zn100 Zn -0.01326 0.97302 0.83475
 N101 N -0.07343 0.95521 0.85422
 C102 C -0.07171 0.86954 0.81482
 N103 N -0.02520 0.91713 0.81471
 C104 C 0.01751 0.92584 0.80137
 C105 C 0.01467 0.88585 0.78743
 C106 C -0.07633 0.82825 0.80106
 C107 C 0.00755 1.07798 0.82588
 C108 C 0.00996 1.12193 0.81180
 C109 C -0.00146 1.07665 0.77389
 C110 C -0.00367 1.03356 0.78869
 N111 N 0.00032 1.03477 0.81421
 H112 H -0.10478 0.86309 0.82601
 H113 H 0.05417 0.96390 0.80187
 H114 H 0.04915 0.89382 0.77686
 H115 H -0.11317 0.79019 0.80174
 H116 H 0.00937 1.07735 0.84623
 H117 H 0.01368 1.15504 0.82153
 H118 H -0.00538 1.07467 0.75363
 H119 H -0.01066 0.99840 0.77978
 C120 C -0.15813 0.94645 0.88124
 C121 C 0.13159 0.99383 0.88479
 C122 C 0.00441 1.12119 0.78546
 C123 C -0.03248 0.83604 0.78735
 C124 C 0.46609 -0.01429 -0.01245
 C125 C 0.47043 -0.01171 0.01392
 C126 C 0.51501 -0.00936 0.02657
 C127 C 0.55469 -0.01079 0.01326
 C128 C 0.54907 -0.01594 -0.01296
 C129 C 0.50510 -0.01704 -0.02569
 H130 H 0.50125 -0.02000 -0.04594
 H131 H 0.51885 -0.00633 0.04682
 C132 C -0.03420 0.44708 0.65310
 C133 C -0.03294 0.44322 0.67963
 C134 C -0.03347 0.48266 0.69297
 C135 C -0.03383 0.52662 0.68013
 C136 C -0.03282 0.53162 0.65360
 C137 C -0.03372 0.49147 0.64025
 H138 H -0.03353 0.49502 0.61982
 H139 H -0.03309 0.47940 0.71341
 C140 C 0.55693 0.56011 0.32042
 C141 C 0.55017 0.56230 0.34623
 C142 C 0.50544 0.52066 0.35873
 C143 C 0.46682 0.47746 0.34565
 C144 C 0.47242 0.47645 0.31961
 C145 C 0.51771 0.51748 0.30722
 H146 H 0.52246 0.51623 0.28726
 H147 H 0.50066 0.52189 0.37870
 C148 C 0.00561 0.27049 0.57294
 C149 C -0.03952 0.25746 0.58682
 C150 C -0.08361 0.20557 0.58701
 C151 C -0.08235 0.16672 0.57354
 C152 C -0.03680 0.17934 0.55980
 C153 C 0.00699 0.23179 0.55952
 C154 C -0.03992 0.29739 0.60105
 C155 C -0.03916 0.33142 0.61294
 C156 C -0.03748 0.37166 0.62684
 C157 C -0.03586 0.40609 0.63875
 H158 H 0.03987 0.31056 0.57257
 H159 H -0.11875 0.19505 0.59773
 H160 H -0.11648 0.12660 0.57427
 H161 H 0.04226 0.24302 0.54877
 C162 C 0.79958 0.73048 0.24102
 C163 C 0.77733 0.74522 0.25935
 C164 C 0.80034 0.79904 0.26444
 C165 C 0.84494 0.83809 0.25104
 C166 C 0.86723 0.82385 0.23231
 C167 C 0.84424 0.76951 0.22756
 C168 C 0.73018 0.70543 0.27256
 C169 C 0.69044 0.67240 0.28354
 C170 C 0.64382 0.63375 0.29634
 C171 C 0.60411 0.60050 0.30727
 H172 H 0.78213 0.68889 0.23696
 H173 H 0.78332 0.81092 0.27852
 H174 H 0.86105 0.87960 0.25485
 H175 H 0.86075 0.75724 0.21344
 C176 C 0.27202 0.02299 -0.09833
 C177 C 0.26445 -0.00346 -0.07440
 C178 C 0.21404 -0.02876 -0.06337
 C179 C 0.17110 -0.02854 -0.07638
 C180 C 0.17801 -0.00299 -0.10066
 C181 C 0.22911 0.02332 -0.11138
 C182 C 0.30801 -0.00576 -0.06138
 C183 C 0.34419 -0.00817 -0.05042
 C184 C 0.38641 -0.01103 -0.03746
 C185 C 0.42254 -0.01301 -0.02622
 H186 H 0.31088 0.04264 -0.10706
 H187 H 0.20778 -0.04917 -0.04481
 H188 H 0.13241 -0.04855 -0.06750
 H189 H 0.23556 0.04274 -0.13015
 C190 C 0.02963 0.77812 0.57107
 C191 C -0.00785 0.75254 0.59033
 C192 C -0.04026 0.77304 0.59624
 C193 C -0.03567 0.81857 0.58278
 C194 C 0.00147 0.84430 0.56319
 C195 C 0.03428 0.82370 0.55756
 C196 C -0.01368 0.70484 0.60383
 C197 C -0.01882 0.66480 0.61513
 C198 C -0.02463 0.61803 0.62840
 C199 C -0.02895 0.57841 0.63980
 H200 H 0.05503 0.76265 0.56639
 H201 H -0.06951 0.75347 0.61106
 H202 H -0.06216 0.83283 0.58730
 H203 H 0.06357 0.84287 0.54276
 C204 C 0.22893 0.27216 0.25276
 C205 C 0.28117 0.28124 0.25345
 C206 C 0.29357 0.24883 0.24052
 C207 C 0.25391 0.20722 0.22713
 C208 C 0.20114 0.19736 0.22649
 C209 C 0.18912 0.23052 0.23932
 C210 C 0.32210 0.32338 0.26759
 C211 C 0.35670 0.35839 0.27944
 C212 C 0.39730 0.39925 0.29334
 C213 C 0.43176 0.43424 0.30525
 H214 H 0.21889 0.29700 0.26274
 H215 H 0.33391 0.25564 0.24085
 H216 H 0.26463 0.18298 0.21710
 H217 H 0.14880 0.22362 0.23936
 C218 C 0.72848 -0.03294 -0.10398
 C219 C 0.72392 -0.04517 -0.07801
 C220 C 0.75666 -0.06243 -0.06561
 C221 C 0.79464 -0.06642 -0.07902
 C222 C 0.80092 -0.05301 -0.10528
 C223 C 0.76630 -0.03689 -0.11751
 C224 C 0.68642 -0.03888 -0.06402
 C225 C 0.65525 -0.03317 -0.05235
 C226 C 0.61874 -0.02647 -0.03872
 C227 C 0.58730 -0.02120 -0.02704
 H228 H 0.70345 -0.01924 -0.11376
 H229 H 0.75304 -0.07263 -0.04550
 H230 H 0.81795 -0.08132 -0.06862
 H231 H 0.76981 -0.02428 -0.13731
 C232 C 0.25945 -0.04359 0.10196
 C233 C 0.27341 -0.01845 0.07775
 C234 C 0.24639 0.00664 0.06651
 C235 C 0.20626 0.00749 0.07958
 C236 C 0.19259 -0.01675 0.10412
 C237 C 0.21922 -0.04285 0.11507
 C238 C 0.31614 -0.01731 0.06456
 C239 C 0.35203 -0.01574 0.05334
 C240 C 0.39387 -0.01373 0.03996
 C241 C 0.42912 -0.01237 0.02827
 H242 H 0.28018 -0.06308 0.11084
 H243 H 0.25671 0.02602 0.04774
 H244 H 0.18598 0.02727 0.07052
 H245 H 0.21003 -0.06132 0.13403
 C246 C 0.75810 0.82086 0.39806
 C247 C 0.72333 0.77214 0.41068
 C248 C 0.72555 0.76668 0.43689
 C249 C 0.76316 0.80929 0.45049
 C250 C 0.80033 0.85901 0.43818
 C251 C 0.79590 0.86372 0.41150
 C252 C 0.68614 0.72729 0.39673
 C253 C 0.65527 0.68946 0.38514
 C254 C 0.61913 0.64506 0.37163
 C255 C 0.58801 0.60724 0.36010
 H256 H 0.75615 0.82580 0.37772
 H257 H 0.69887 0.72889 0.44687
 H258 H 0.76441 0.80085 0.47055
 H259 H 0.82003 0.90076 0.40056
 C260 C -0.04053 0.19421 0.73698
 C261 C -0.00805 0.24732 0.74310
 C262 C 0.02961 0.25952 0.76264
 C263 C 0.03437 0.21868 0.77620
 C264 C 0.00150 0.16506 0.77035
 C265 C -0.03584 0.15335 0.75048
 C266 C -0.01396 0.28911 0.72955
 C267 C -0.01911 0.32398 0.71820
 C268 C -0.02490 0.36493 0.70489
 C269 C -0.02916 0.40026 0.69345
 H270 H -0.06993 0.18430 0.72194
 H271 H 0.05507 0.30053 0.76750
 H272 H 0.06382 0.22902 0.79121
 H273 H -0.06236 0.11245 0.74578
 C274 C 0.79796 0.05569 0.09344
 C275 C 0.77381 0.01820 0.07514
 C276 C 0.79507 -0.01390 0.07000
 C277 C 0.83992 -0.00903 0.08327
 C278 C 0.86421 0.02811 0.10191
 C279 C 0.84287 0.06063 0.10676
 C280 C 0.72668 0.01189 0.06191
 C281 C 0.68706 0.00619 0.05084
 C282 C 0.64070 -0.00048 0.03786
 C283 C 0.60133 -0.00568 0.02672
 H284 H 0.78187 0.08083 0.09752
 H285 H 0.77659 -0.04318 0.05595
 H286 H 0.85474 -0.03533 0.07939
 H287 H 0.86093 0.08990 0.12082
 C288 C 0.25319 0.22272 0.40983
 C289 C 0.26183 0.27487 0.40924
 C290 C 0.22740 0.28515 0.42210
 C291 C 0.18435 0.24352 0.43540
 C292 C 0.17503 0.19087 0.43600
 C293 C 0.21008 0.18093 0.42316
 C294 C 0.30588 0.31802 0.39547
 C295 C 0.34258 0.35459 0.38402
 C296 C 0.38551 0.39759 0.37068
 C297 C 0.42234 0.43417 0.35931
 H298 H 0.27961 0.21432 0.39990
 H299 H 0.23386 0.32540 0.42188
 H300 H 0.15866 0.25266 0.44545
 H301 H 0.20369 0.14077 0.42310
 C302 C -0.08219 0.71873 0.74608
 C303 C -0.03792 0.71148 0.74642
 C304 C 0.00750 0.74414 0.76047
 C305 C 0.00897 0.78423 0.77394
 C306 C -0.03503 0.79233 0.77352
 C307 C -0.08084 0.75887 0.75959
 C308 C -0.03847 0.67108 0.73217
 C309 C -0.03790 0.63774 0.72028
 C310 C -0.03649 0.59906 0.70637
 C311 C -0.03514 0.56613 0.69447
 H312 H -0.11755 0.69369 0.73522
 H313 H 0.04190 0.73874 0.76096
 H314 H 0.04446 0.80870 0.78483
 H315 H -0.11513 0.76442 0.75875
   
