data_POSCAR
  _audit_creation_date              2014-09-24
  _audit_creation_method            'ToBaCCo'
  _symmetry_space_group_name_H-M    'P1'
  _symmetry_Int_Tables_number       1
  _symmetry_cell_setting            triclinic
  loop_
  _symmetry_equiv_pos_as_xyz
 x,y,z
_cell_length_a 43.4158
_cell_length_b 41.7770
_cell_length_c 40.4310
_cell_angle_alpha 90.021500
_cell_angle_beta 86.532000
_cell_angle_gamma 89.957000
loop_
  _atom_site_label
  _atom_site_type_symbol
  _atom_site_fract_x
  _atom_site_fract_y
  _atom_site_fract_z
N1 N 0.17396 1.24091 0.13901
 N2 N 0.15045 1.23972 0.16099
 C3 C 0.13094 1.26389 0.15528
 C4 C 0.14276 1.28131 0.12808
 C5 C 0.17027 1.26586 0.11859
 H6 H 0.10957 1.26810 0.16969
 H7 H 0.18627 1.27174 0.09801
 Cu8 Cu 0.14730 1.20596 0.19418
 Cu9 Cu 0.20691 1.20914 0.13740
 Cu10 Cu 0.20168 1.14897 0.19661
 N11 N 0.14472 1.17241 0.22762
 N12 N 0.16611 1.15024 0.22840
 C13 C 0.15864 1.12971 0.25322
 C14 C 0.13085 1.13937 0.26905
 C15 C 0.12285 1.16674 0.25196
 H16 H 0.17243 1.10913 0.25889
 H17 H 0.10251 1.18135 0.25653
 N18 N 0.23585 1.15187 0.16232
 N19 N 0.23787 1.17480 0.13987
 C20 C 0.26305 1.16965 0.11945
 C21 C 0.27766 1.14209 0.12941
 C22 C 0.25971 1.13156 0.15676
 H23 H 0.26998 1.18470 0.09861
 H24 H 0.26328 1.11021 0.17110
 H25 H 0.18099 1.17216 0.15860
 H26 H 0.20284 1.19751 0.18712
 N27 N 0.81975 0.76744 0.14713
 N28 N 0.84140 0.76777 0.16846
 C29 C 0.86139 0.74374 0.16117
 C30 C 0.85179 0.72749 0.13371
 C31 C 0.82521 0.74328 0.12555
 H32 H 0.88180 0.73893 0.17436
 H33 H 0.81092 0.73779 0.10533
 Cu34 Cu 0.84182 0.80047 0.20273
 Cu35 Cu 0.78660 0.79897 0.14810
 Cu36 Cu 0.78693 0.85709 0.20941
 N37 N 0.84184 0.83303 0.23717
 N38 N 0.82026 0.85509 0.23956
 C39 C 0.82591 0.87508 0.26455
 C40 C 0.85268 0.86520 0.27880
 C41 C 0.86201 0.83824 0.26063
 H42 H 0.81165 0.89551 0.27135
 H43 H 0.88219 0.82369 0.26378
 N44 N 0.75522 0.85503 0.17655
 N45 N 0.75510 0.83293 0.15324
 C46 C 0.73120 0.83843 0.13428
 C47 C 0.71542 0.86535 0.14611
 C48 C 0.73139 0.87514 0.17301
 H49 H 0.72603 0.82410 0.11310
 H50 H 0.72636 0.89568 0.18864
 H51 H 0.81070 0.83530 0.16969
 H52 H 0.78671 0.80889 0.19813
 N53 N 0.82352 1.24290 -0.14118
 N54 N 0.84560 1.24323 -0.16486
 C55 C 0.86496 1.26759 -0.15944
 C56 C 0.85444 1.28347 -0.13082
 C57 C 0.82800 1.26706 -0.11999
 H58 H 0.88535 1.27311 -0.17503
 H59 H 0.81349 1.27173 -0.09785
 Cu60 Cu 0.84800 1.21122 -0.19993
 Cu61 Cu 0.79145 1.21043 -0.13876
 Cu62 Cu 0.79663 1.15048 -0.19780
 N63 N 0.85128 1.17597 -0.23146
 N64 N 0.83132 1.15236 -0.23046
 C65 C 0.83950 1.13110 -0.25440
 C66 C 0.86626 1.14180 -0.27153
 C67 C 0.87292 1.17052 -0.25609
 H68 H 0.82689 1.10936 -0.25863
 H69 H 0.89227 1.18619 -0.26188
 N70 N 0.76314 1.15264 -0.16281
 N71 N 0.76115 1.17553 -0.14033
 C72 C 0.73639 1.17003 -0.11944
 C73 C 0.72202 1.14225 -0.12913
 C74 C 0.73967 1.13196 -0.15682
 H75 H 0.72951 1.18507 -0.09854
 H76 H 0.73614 1.11060 -0.17115
 H77 H 0.81890 1.17550 -0.16200
 H78 H 0.79335 1.19906 -0.18861
 N79 N 0.18167 0.76684 -0.14737
 N80 N 0.16012 0.76707 -0.16884
 C81 C 0.14029 0.74291 -0.16174
 C82 C 0.14987 0.72665 -0.13428
 C83 C 0.17629 0.74259 -0.12592
 H84 H 0.11995 0.73803 -0.17503
 H85 H 0.19049 0.73718 -0.10560
 Cu86 Cu 0.15960 0.79999 -0.20286
 Cu87 Cu 0.21450 0.79867 -0.14792
 Cu88 Cu 0.21368 0.85732 -0.20862
 N89 N 0.15921 0.83285 -0.23695
 N90 N 0.18043 0.85526 -0.23887
 C91 C 0.17452 0.87555 -0.26350
 C92 C 0.14797 0.86550 -0.27803
 C93 C 0.13902 0.83811 -0.26039
 H94 H 0.18848 0.89628 -0.26989
 H95 H 0.11904 0.82337 -0.26382
 N96 N 0.24535 0.85525 -0.17571
 N97 N 0.24566 0.83296 -0.15263
 C98 C 0.26949 0.83850 -0.13359
 C99 C 0.28502 0.86565 -0.14513
 C100 C 0.26898 0.87553 -0.17194
 H101 H 0.27476 0.82407 -0.11251
 H102 H 0.27387 0.89619 -0.18741
 H103 H 0.19005 0.83488 -0.16923
 H104 H 0.21454 0.80904 -0.19783
 C105 C 0.50021 0.98879 0.00059
 C106 C 0.00058 0.50197 0.99974
 C107 C 1.00003 -0.01328 0.50041
 C108 C 0.14432 0.32294 1.08509
 C109 C 0.13065 0.34873 1.06955
 C110 C 0.10181 0.36054 1.08133
 C111 C 0.08677 0.34579 1.10910
 C112 C 0.10043 0.32002 1.12473
 C113 C 0.12938 0.30796 1.11289
 C114 C 0.08780 0.38713 1.06300
 C115 C 0.06458 0.40553 1.07558
 C116 C 0.04967 0.43081 1.05636
 C117 C 0.01896 0.43892 1.06515
 C118 C 0.00369 0.46201 1.04730
 C119 C 0.01905 0.47882 1.02090
 C120 C 0.04983 0.47002 1.01180
 C121 C 0.06507 0.44678 1.02959
 H122 H 0.16657 0.31487 1.07490
 H123 H 0.14270 0.35948 1.04809
 H124 H 0.06410 0.35332 1.11853
 H125 H 0.08775 0.30946 1.14580
 H126 H 0.09700 0.39125 1.03790
 H127 H 0.05508 0.40148 1.10056
 H128 H 0.00643 0.42675 1.08543
 H129 H -0.02041 0.46665 1.05404
 H130 H 0.06217 0.48045 0.99042
 H131 H 0.08889 0.44151 1.02221
 C132 C -0.14097 0.69123 1.08428
 C133 C -0.12591 0.66597 1.06739
 C134 C -0.10253 0.64874 1.08195
 C135 C -0.09423 0.65759 1.11381
 C136 C -0.10925 0.68292 1.13069
 C137 C -0.13276 0.70010 1.11612
 C138 C -0.08653 0.62287 1.06249
 C139 C -0.07121 0.59879 1.07613
 C140 C -0.05420 0.57363 1.05656
 C141 C -0.03037 0.55721 1.07117
 C142 C -0.01316 0.53387 1.05355
 C143 C -0.02006 0.52524 1.02104
 C144 C -0.04367 0.54241 1.00632
 C145 C -0.06087 0.56576 1.02394
 H146 H -0.15869 0.70405 1.07204
 H147 H -0.13254 0.65989 1.04275
 H148 H -0.07569 0.64565 1.12558
 H149 H -0.10228 0.68900 1.15514
 H150 H -0.08761 0.62406 1.03588
 H151 H -0.07019 0.59764 1.10277
 H152 H -0.02442 0.56311 1.09609
 H153 H 0.00612 0.52333 1.06533
 H154 H -0.04878 0.53778 0.98088
 H155 H -0.07936 0.57738 1.01180
 C156 C -0.14699 0.32764 0.91145
 C157 C -0.13299 0.35297 0.92739
 C158 C -0.10281 0.36250 0.91766
 C159 C -0.08675 0.34585 0.89169
 C160 C -0.10076 0.32051 0.87574
 C161 C -0.13102 0.31100 0.88548
 C162 C -0.08858 0.38874 0.93622
 C163 C -0.06436 0.40601 0.92420
 C164 C -0.04923 0.43117 0.94341
 C165 C -0.01838 0.43878 0.93470
 C166 C -0.00289 0.46176 0.95244
 C167 C -0.01811 0.47893 0.97870
 C168 C -0.04900 0.47060 0.98778
 C169 C -0.06448 0.44752 0.97005
 H170 H -0.17036 0.32120 0.91957
 H171 H -0.14583 0.36521 0.94743
 H172 H -0.06310 0.35157 0.88411
 H173 H -0.08751 0.30802 0.85625
 H174 H -0.09862 0.39366 0.96084
 H175 H -0.05432 0.40111 0.89959
 H176 H -0.00594 0.42632 0.91452
 H177 H 0.02127 0.46604 0.94572
 H178 H -0.06125 0.48131 1.00907
 H179 H -0.08838 0.44270 0.97742
 C180 C 0.14260 0.69039 0.91510
 C181 C 0.12756 0.66512 0.93193
 C182 C 0.10430 0.64781 0.91726
 C183 C 0.09613 0.65660 0.88534
 C184 C 0.11112 0.68195 0.86852
 C185 C 0.13449 0.69921 0.88321
 C186 C 0.08828 0.62198 0.93669
 C187 C 0.07299 0.59790 0.92305
 C188 C 0.05589 0.57287 0.94265
 C189 C 0.03195 0.55660 0.92809
 C190 C 0.01460 0.53345 0.94578
 C191 C 0.02144 0.52489 0.97833
 C192 C 0.04521 0.54187 0.99297
 C193 C 0.06255 0.56501 0.97527
 H194 H 0.16021 0.70327 0.92744
 H195 H 0.13411 0.65909 0.95661
 H196 H 0.07769 0.64460 0.87347
 H197 H 0.10424 0.68799 0.84403
 H198 H 0.08928 0.62323 0.96332
 H199 H 0.07202 0.59669 0.89641
 H200 H 0.02603 0.56248 0.90316
 H201 H -0.00476 0.52305 0.93405
 H202 H 0.05030 0.53727 1.01842
 H203 H 0.08113 0.57651 0.98736
 C204 C 1.08586 0.13695 0.30892
 C205 C 1.06922 0.12175 0.33510
 C206 C 1.08048 0.09383 0.34932
 C207 C 1.10870 0.08108 0.33643
 C208 C 1.12536 0.09620 0.31023
 C209 C 1.11424 0.12440 0.29591
 C210 C 1.06152 0.07807 0.37640
 C211 C 1.07319 0.05809 0.39846
 C212 C 1.05424 0.04116 0.42476
 C213 C 1.06615 0.01320 0.43824
 C214 C 1.04917 -0.00392 0.46272
 C215 C 1.02016 0.00716 0.47566
 C216 C 1.00792 0.03478 0.46117
 C217 C 1.02490 0.05189 0.43661
 H218 H 1.07609 0.15844 0.29899
 H219 H 1.04741 0.13194 0.34435
 H220 H 1.11776 0.05899 0.34582
 H221 H 1.14683 0.08529 0.30121
 H222 H 1.03710 0.08334 0.37789
 H223 H 1.09767 0.05304 0.39696
 H224 H 1.08846 0.00406 0.42919
 H225 H 1.05869 -0.02621 0.47110
 H226 H 0.98497 0.04315 0.46874
 H227 H 1.01487 0.07349 0.42723
 C228 C 1.14443 -0.09088 0.68170
 C229 C 1.12920 -0.07568 0.65662
 C230 C 1.10240 -0.08887 0.64462
 C231 C 1.09089 -0.11765 0.65848
 C232 C 1.10601 -0.13284 0.68373
 C233 C 1.13302 -0.11966 0.69592
 C234 C 1.08657 -0.07104 0.61885
 C235 C 1.06763 -0.08465 0.59788
 C236 C 1.05160 -0.06648 0.57239
 C237 C 1.02525 -0.07985 0.55947
 C238 C 1.00907 -0.06338 0.53592
 C239 C 1.01945 -0.03342 0.52356
 C240 C 1.04550 -0.01982 0.53738
 C241 C 1.06173 -0.03632 0.56077
 H242 H 1.16497 -0.07954 0.68994
 H243 H 1.13846 -0.05343 0.64652
 H244 H 1.06978 -0.12815 0.65061
 H245 H 1.09612 -0.15480 0.69370
 H246 H 1.09117 -0.04565 0.61732
 H247 H 1.06308 -0.11007 0.59956
 H248 H 1.01666 -0.10286 0.56827
 H249 H 0.98801 -0.07392 0.52797
 H250 H 1.05333 0.00391 0.53020
 H251 H 1.08218 -0.02517 0.56945
 C252 C 0.85530 -0.09217 0.32036
 C253 C 0.87030 -0.07725 0.34578
 C254 C 0.89765 -0.08993 0.35705
 C255 C 0.90991 -0.11794 0.34209
 C256 C 0.89497 -0.13289 0.31657
 C257 C 0.86744 -0.12020 0.30511
 C258 C 0.91311 -0.07237 0.38331
 C259 C 0.93367 -0.08556 0.40275
 C260 C 0.94930 -0.06736 0.42846
 C261 C 0.97786 -0.07829 0.43833
 C262 C 0.99371 -0.06145 0.46187
 C263 C 0.98088 -0.03380 0.47735
 C264 C 0.95244 -0.02261 0.46665
 C265 C 0.93659 -0.03945 0.44318
 H266 H 0.83430 -0.08126 0.31273
 H267 H 0.86042 -0.05559 0.35672
 H268 H 0.93142 -0.12806 0.34931
 H269 H 0.90546 -0.15423 0.30578
 H270 H 0.90699 -0.04742 0.38649
 H271 H 0.94007 -0.11043 0.39948
 H272 H 0.98837 -0.09951 0.42714
 H273 H 1.01635 -0.06987 0.46762
 H274 H 0.94247 -0.00041 0.47601
 H275 H 0.91441 -0.03036 0.43678
 C276 C 0.91013 0.14059 0.68707
 C277 C 0.92696 0.12527 0.66106
 C278 C 0.91728 0.09576 0.64887
 C279 C 0.89050 0.08157 0.66366
 C280 C 0.87363 0.09683 0.68963
 C281 C 0.88313 0.12662 0.70189
 C282 C 0.93638 0.08007 0.62179
 C283 C 0.92558 0.05757 0.60181
 C284 C 0.94486 0.04081 0.57567
 C285 C 0.93545 0.01051 0.56539
 C286 C 0.95288 -0.00643 0.54110
 C287 C 0.97963 0.00700 0.52510
 C288 C 0.98949 0.03709 0.53638
 C289 C 0.97209 0.05401 0.56082
 H290 H 0.91861 0.16334 0.69538
 H291 H 0.94765 0.13663 0.65034
 H292 H 0.88274 0.05831 0.65594
 H293 H 0.85332 0.08477 0.70014
 H294 H 0.96022 0.08753 0.61851
 H295 H 0.90172 0.05019 0.60503
 H296 H 0.91483 -0.00046 0.57676
 H297 H 0.94546 -0.03031 0.53495
 H298 H 1.01094 0.04755 0.52663
 H299 H 0.98010 0.07742 0.56778
 C300 C 0.31788 1.13699 0.08231
 C301 C 0.34340 1.12165 0.06670
 C302 C 0.35736 1.09555 0.08169
 C303 C 0.34505 1.08497 0.11280
 C304 C 0.31949 1.10032 0.12843
 C305 C 0.30546 1.12644 0.11333
 C306 C 0.38365 1.07944 0.06328
 C307 C 0.40358 1.05967 0.07715
 C308 C 0.42899 1.04301 0.05790
 C309 C 0.43999 1.01396 0.06989
 C310 C 0.46325 0.99700 0.05204
 C311 C 0.47722 1.00928 0.02226
 C312 C 0.46553 1.03825 0.01011
 C313 C 0.44227 1.05517 0.02793
 H314 H 0.30771 1.15680 0.06966
 H315 H 0.35222 1.13019 0.04266
 H316 H 0.35444 1.06444 0.12496
 H317 H 0.31070 1.09145 0.15228
 H318 H 0.38632 1.08414 0.03695
 H319 H 0.40094 1.05446 0.10335
 H320 H 0.42991 1.00385 0.09272
 H321 H 0.46990 0.97388 0.06135
 H322 H 0.47405 1.04776 -0.01359
 H323 H 0.43486 1.07774 0.01800
 C324 C 0.68285 1.13633 -0.08119
 C325 C 0.65760 1.12081 -0.06531
 C326 C 0.64324 1.09508 -0.08050
 C327 C 0.65492 1.08501 -0.11205
 C328 C 0.68023 1.10053 -0.12794
 C329 C 0.69460 1.12632 -0.11268
 C330 C 0.61721 1.07880 -0.06191
 C331 C 0.59666 1.05984 -0.07587
 C332 C 0.57138 1.04309 -0.05656
 C333 C 0.55946 1.01480 -0.06935
 C334 C 0.53623 0.99779 -0.05157
 C335 C 0.52321 1.00930 -0.02100
 C336 C 0.53583 1.03746 -0.00806
 C337 C 0.55905 1.05444 -0.02581
 H338 H 0.69335 1.15585 -0.06840
 H339 H 0.64928 1.12893 -0.04092
 H340 H 0.64522 1.06475 -0.12437
 H341 H 0.68852 1.09210 -0.15216
 H342 H 0.61521 1.08276 -0.03542
 H343 H 0.59864 1.05545 -0.10226
 H344 H 0.56881 1.00530 -0.09280
 H345 H 0.52891 0.97521 -0.06158
 H346 H 0.52798 1.04629 0.01617
 H347 H 0.56715 1.07643 -0.01523
 C348 C 0.32363 0.91049 -0.14410
 C349 C 0.34845 0.92570 -0.13024
 C350 C 0.36253 0.91218 -0.10322
 C351 C 0.35101 0.88304 -0.09012
 C352 C 0.32618 0.86782 -0.10397
 C353 C 0.31204 0.88138 -0.13106
 C354 C 0.38795 0.92999 -0.08855
 C355 C 0.40849 0.91648 -0.06932
 C356 C 0.43269 0.93480 -0.05315
 C357 C 0.44410 0.92254 -0.02406
 C358 C 0.46618 0.93935 -0.00732
 C359 C 0.47864 0.96839 -0.01996
 C360 C 0.46652 0.98086 -0.04892
 C361 C 0.44435 0.96408 -0.06562
 H362 H 0.31344 0.92189 -0.16481
 H363 H 0.35665 0.94825 -0.14067
 H364 H 0.36041 0.87220 -0.06866
 H365 H 0.31799 0.84556 -0.09305
 H366 H 0.38935 0.95536 -0.09377
 H367 H 0.40713 0.89115 -0.06398
 H368 H 0.43521 0.90026 -0.01364
 H369 H 0.47302 0.92981 0.01600
 H370 H 0.47387 1.00397 -0.05854
 H371 H 0.43649 0.97424 -0.08821
 C372 C 0.67566 0.90925 0.14631
 C373 C 0.65070 0.92442 0.13262
 C374 C 0.63748 0.91165 0.10469
 C375 C 0.64999 0.88336 0.09052
 C376 C 0.67495 0.86820 0.10420
 C377 C 0.68824 0.88099 0.13220
 C378 C 0.61187 0.92942 0.09027
 C379 C 0.59205 0.91616 0.07004
 C380 C 0.56776 0.93450 0.05403
 C381 C 0.55729 0.92307 0.02413
 C382 C 0.53521 0.94000 0.00751
 C383 C 0.52177 0.96827 0.02103
 C384 C 0.53292 0.97993 0.05084
 C385 C 0.55512 0.96303 0.06741
 H386 H 0.68513 0.92002 0.16778
 H387 H 0.64172 0.94631 0.14389
 H388 H 0.64128 0.87318 0.06836
 H389 H 0.68395 0.84664 0.09240
 H390 H 0.60974 0.95454 0.09650
 H391 H 0.59414 0.89107 0.06371
 H392 H 0.56694 0.90139 0.01302
 H393 H 0.52905 0.93116 -0.01636
 H394 H 0.52487 1.00252 0.06121
 H395 H 0.56225 0.97253 0.09062
   
