data_POSCAR
  _audit_creation_date              2014-09-24
  _audit_creation_method            'ToBaCCo'
  _symmetry_space_group_name_H-M    'P1'
  _symmetry_Int_Tables_number       1
  _symmetry_cell_setting            triclinic
  loop_
  _symmetry_equiv_pos_as_xyz
 x,y,z
_cell_length_a 40.1819
_cell_length_b 34.4271
_cell_length_c 30.3562
_cell_angle_alpha 89.519400
_cell_angle_beta 90.248500
_cell_angle_gamma 84.883200
loop_
  _atom_site_label
  _atom_site_type_symbol
  _atom_site_fract_x
  _atom_site_fract_y
  _atom_site_fract_z
C1 C 1.22915 0.22148 0.20826
 C2 C 1.24724 0.24961 0.17956
 C3 C 1.26637 0.27309 0.20298
 C4 C 1.26551 0.26649 0.25334
 C5 C 1.25656 0.19931 0.23606
 C6 C 1.27552 0.22262 0.25990
 C7 C 1.20955 0.24783 0.24132
 C8 C 1.22826 0.27105 0.26511
 H9 H 1.24565 0.25013 0.14393
 H10 H 1.28079 0.28559 0.27279
 H11 H 1.25944 0.16777 0.23841
 H12 H 1.18288 0.24784 0.24628
 C13 C 0.73184 -0.28363 0.16900
 C14 C 0.74909 -0.25006 0.14905
 C15 C 0.76251 -0.22697 0.17945
 C16 C 0.75662 -0.23942 0.22782
 C17 C 0.75790 -0.30528 0.19930
 C18 C 0.77039 -0.28259 0.23066
 C19 C 0.70594 -0.26445 0.20057
 C20 C 0.71849 -0.24147 0.23147
 H21 H 0.75206 -0.24633 0.11386
 H22 H 0.76722 -0.22063 0.25288
 H23 H 0.76372 -0.33660 0.19873
 H24 H 0.67985 -0.27013 0.19952
 C25 C 0.72646 0.22585 -0.31981
 C26 C 0.74811 0.25149 -0.34158
 C27 C 0.76599 0.27429 -0.31154
 C28 C 0.75862 0.26670 -0.26487
 C29 C 0.74805 0.20224 -0.28928
 C30 C 0.76556 0.22435 -0.25853
 C31 C 0.70492 0.25090 -0.29196
 C32 C 0.72215 0.27393 -0.26192
 H33 H 0.75023 0.25353 -0.37710
 H34 H 0.77215 0.28425 -0.24130
 H35 H 0.75117 0.17066 -0.28969
 H36 H 0.67786 0.25214 -0.29390
 C37 C 1.23089 -0.26778 -0.30959
 C38 C 1.26214 -0.25580 -0.33273
 C39 C 1.28194 -0.23507 -0.30682
 C40 C 1.26824 -0.22816 -0.25954
 C41 C 1.24381 -0.28968 -0.26808
 C42 C 1.26355 -0.26939 -0.24200
 C43 C 1.21335 -0.22953 -0.29270
 C44 C 1.23229 -0.20902 -0.26575
 H45 H 1.26806 -0.26345 -0.36650
 H46 H 1.28402 -0.21124 -0.23813
 H47 H 1.23918 -0.31970 -0.26140
 H48 H 1.18701 -0.22121 -0.29813
 C49 C 0.23674 0.22252 0.80216
 C50 C 0.24889 0.25549 0.82466
 C51 C 0.26748 0.27958 0.79704
 C52 C 0.26971 0.26658 0.75127
 C53 C 0.21651 0.24007 0.76294
 C54 C 0.23327 0.26377 0.73659
 C55 C 0.26768 0.20100 0.78130
 C56 C 0.28493 0.22384 0.75428
 H57 H 0.24606 0.25988 0.85981
 H58 H 0.28363 0.28508 0.72902
 H59 H 0.19021 0.23633 0.75856
 H60 H 0.27485 0.17024 0.78663
 C61 C 0.73232 0.72165 0.82690
 C62 C 0.74808 0.75416 0.84523
 C63 C 0.76380 0.77712 0.81291
 C64 C 0.75945 0.76336 0.76736
 C65 C 0.70882 0.73873 0.79423
 C66 C 0.72321 0.76169 0.76118
 C67 C 0.75825 0.69975 0.80150
 C68 C 0.77268 0.72215 0.76775
 H69 H 0.74994 0.75884 0.88041
 H70 H 0.77094 0.78130 0.74196
 H71 H 0.68276 0.73273 0.79349
 H72 H 0.76448 0.66861 0.80510
 C73 C 0.71990 0.23027 0.31131
 C74 C 0.74006 0.25809 0.33743
 C75 C 0.76209 0.27657 0.31219
 C76 C 0.76163 0.26548 0.26279
 C77 C 0.70345 0.25533 0.27430
 C78 C 0.72491 0.27345 0.24863
 C79 C 0.74607 0.20251 0.28819
 C80 C 0.76753 0.22056 0.26204
 H81 H 0.73738 0.26240 0.37256
 H82 H 0.77908 0.28060 0.24178
 H83 H 0.67681 0.25702 0.26761
 H84 H 0.74587 0.17108 0.28992
 C85 C 0.22972 0.72827 0.30909
 C86 C 0.26045 0.74142 0.33258
 C87 C 0.28022 0.76189 0.30620
 C88 C 0.26719 0.76721 0.25823
 C89 C 0.21196 0.76576 0.28967
 C90 C 0.23105 0.78589 0.26234
 C91 C 0.24345 0.70544 0.26920
 C92 C 0.26334 0.72538 0.24284
 H93 H 0.26587 0.73514 0.36701
 H94 H 0.28306 0.78377 0.23640
 H95 H 0.18554 0.77393 0.29406
 H96 H 0.23981 0.67495 0.26436
 O97 O 1.04403 0.06324 0.08047
 O98 O 1.08223 0.02842 0.03666
 C99 C 1.07437 0.05294 0.06802
 O100 O 0.95425 -0.06851 0.07085
 O101 O 0.91567 -0.02799 0.03239
 C102 C 0.92378 -0.05649 0.05990
 O103 O 1.04695 -0.07006 0.07613
 O104 O 1.08366 -0.03838 0.03409
 C105 C 1.07690 -0.06231 0.06550
 O106 O 0.95150 0.07521 0.07552
 O107 O 0.91404 0.04230 0.03620
 C108 C 0.92137 0.06840 0.06468
 Zr109 Zr 0.99793 0.04834 0.05530
 O110 O 0.99695 0.03849 0.12408
 O111 O 0.99953 0.10913 0.06343
 Zr112 Zr 1.00005 -0.04855 0.05025
 O113 O 0.99846 -0.04737 0.11985
 O114 O 1.00521 -0.11025 0.04856
 O115 O 1.02924 -0.00258 0.06108
 O116 O 0.96930 0.00180 0.06075
 O117 O 0.95046 0.08357 -0.07152
 O118 O 0.91365 0.04564 -0.03770
 C119 C 0.92050 0.07494 -0.06244
 O120 O 1.04615 -0.06226 -0.08866
 O121 O 1.08328 -0.03460 -0.04343
 C122 C 1.07626 -0.05587 -0.07680
 O123 O 0.95334 -0.06116 -0.08393
 O124 O 0.91536 -0.02506 -0.04096
 C125 C 0.92304 -0.05087 -0.07123
 O126 O 1.04299 0.07273 -0.07745
 O127 O 1.08162 0.03197 -0.03945
 C128 C 1.07345 0.06059 -0.06661
 Zr129 Zr 0.99717 0.05379 -0.05594
 O130 O 0.99537 0.04999 -0.12531
 O131 O 0.99684 0.11511 -0.06111
 Zr132 Zr 0.99938 -0.04340 -0.06084
 O133 O 0.99529 -0.04067 -0.13036
 O134 O 1.00502 -0.10513 -0.06225
 Zr135 Zr 1.04909 -0.00083 -0.00301
 Zr136 Zr 0.94817 0.00634 -0.00271
 O137 O 0.96855 0.00790 -0.06635
 O138 O 1.02839 0.00361 -0.06710
 O139 O 0.96782 0.06107 0.00021
 O140 O 1.02920 -0.05533 -0.00572
 O141 O 1.02627 0.05649 0.00007
 O142 O 0.97005 -0.05159 -0.00561
 H143 H 0.95412 0.00199 0.08642
 H144 H 1.04494 -0.07916 -0.00679
 H145 H 0.95298 0.01056 -0.09183
 H146 H 1.04017 0.07880 0.00168
 H147 H 0.98775 -0.11839 0.02844
 H148 H 0.98565 -0.11468 -0.04685
 H149 H 1.01038 -0.02141 -0.14086
 H150 H 0.99379 0.07720 -0.13649
 H151 H 1.00113 0.12475 -0.03125
 H152 H 0.98559 0.12216 0.03974
 H153 H 0.99581 0.06460 0.13773
 H154 H 0.99922 -0.07492 0.12984
 O155 O 1.04066 0.57240 0.58087
 O156 O 1.07910 0.53343 0.54165
 C157 C 1.07103 0.56103 0.56954
 O158 O 0.95155 0.43851 0.58331
 O159 O 0.91321 0.47609 0.54115
 C160 C 0.92124 0.44933 0.57074
 O161 O 1.04431 0.43462 0.58563
 O162 O 1.08116 0.46708 0.54445
 C163 C 1.07431 0.44161 0.57414
 O164 O 0.94810 0.58341 0.57430
 O165 O 0.91124 0.54671 0.53892
 C166 C 0.91817 0.57522 0.56430
 Zr167 Zr 0.99486 0.55477 0.55792
 O168 O 0.99321 0.55024 0.62732
 O169 O 0.99619 0.61600 0.56086
 Zr170 Zr 0.99716 0.45804 0.56217
 O171 O 0.99661 0.46754 0.63084
 O172 O 0.99895 0.39702 0.57205
 O173 O 1.02639 0.50444 0.56879
 O174 O 0.96611 0.50879 0.56766
 O175 O 0.94875 0.58113 0.42919
 O176 O 0.91156 0.54541 0.46552
 C177 C 0.91873 0.57331 0.43899
 O178 O 1.04438 0.43097 0.42845
 O179 O 1.08097 0.46484 0.46806
 C180 C 1.07430 0.43867 0.43963
 O181 O 0.95163 0.43527 0.42948
 O182 O 0.91311 0.47450 0.46827
 C183 C 0.92122 0.44653 0.44066
 O184 O 1.04104 0.56869 0.42322
 O185 O 1.07932 0.53193 0.46610
 C186 C 1.07134 0.55806 0.43593
 Zr187 Zr 0.99515 0.55191 0.44654
 O188 O 0.99346 0.54261 0.37790
 O189 O 0.99549 0.61251 0.43492
 Zr190 Zr 0.99728 0.45487 0.45062
 O191 O 0.99462 0.45536 0.38092
 O192 O 1.00132 0.39314 0.45206
 Zr193 Zr 1.04638 0.50138 0.50461
 Zr194 Zr 0.94570 0.50846 0.50377
 O195 O 0.96646 0.50554 0.44028
 O196 O 1.02656 0.50105 0.44019
 O197 O 0.96537 0.56326 0.50167
 O198 O 1.02628 0.44697 0.50689
 O199 O 1.02362 0.55881 0.50219
 O200 O 0.96783 0.45061 0.50648
 H201 H 0.95059 0.51071 0.59300
 H202 H 1.04146 0.42268 0.50778
 H203 H 0.95096 0.50646 0.41472
 H204 H 1.03733 0.58132 0.50152
 H205 H 1.00414 0.38487 0.54324
 H206 H 0.98419 0.38498 0.47267
 H207 H 1.01358 0.46905 0.36981
 H208 H 0.99163 0.56886 0.36404
 H209 H 0.99799 0.62471 0.46392
 H210 H 0.98346 0.62724 0.53511
 H211 H 0.99179 0.57734 0.63831
 H212 H 0.99688 0.44140 0.64478
 O213 O 0.57510 -0.06837 0.56894
 O214 O 0.54518 -0.11174 0.53168
 C215 C 0.56953 -0.10326 0.55746
 O216 O 0.44675 0.03700 0.58825
 O217 O 0.47007 0.08365 0.54677
 C218 C 0.45074 0.07292 0.57806
 O219 O 0.45750 -0.07043 0.58607
 O220 O 0.48539 -0.11266 0.53762
 C221 C 0.46567 -0.10506 0.57112
 O222 O 0.56744 0.03804 0.57086
 O223 O 0.53086 0.08425 0.53731
 C224 C 0.55705 0.07374 0.56133
 Zr225 Zr 0.55018 -0.01459 0.55112
 O226 O 0.54987 -0.01718 0.62070
 O227 O 0.60295 -0.01631 0.54938
 Zr228 Zr 0.46851 -0.01560 0.56224
 O229 O 0.48035 -0.01827 0.63017
 O230 O 0.41672 -0.01519 0.57516
 O231 O 0.51297 -0.05128 0.56338
 O232 O 0.50727 0.01958 0.56623
 O233 O 0.55636 0.04509 0.42203
 O234 O 0.52523 0.08743 0.46698
 C235 C 0.54745 0.07969 0.43659
 O236 O 0.44557 -0.06312 0.42517
 O237 O 0.48087 -0.10923 0.46126
 C238 C 0.45674 -0.09886 0.43363
 O239 O 0.43227 0.04363 0.43927
 O240 O 0.46389 0.08714 0.47338
 C241 C 0.43836 0.07865 0.44993
 O242 O 0.56314 -0.06180 0.41456
 O243 O 0.53998 -0.10878 0.45576
 C244 C 0.56020 -0.09770 0.42562
 Zr245 Zr 0.54087 -0.00939 0.44023
 O246 O 0.52879 -0.00306 0.37239
 O247 O 0.59198 -0.00950 0.42410
 Zr248 Zr 0.45904 -0.01049 0.45174
 O249 O 0.45403 -0.00161 0.38280
 O250 O 0.40709 -0.01548 0.45708
 Zr251 Zr 0.50958 -0.07186 0.49837
 Zr252 Zr 0.50006 0.04663 0.50414
 O253 O 0.49649 0.02540 0.43970
 O254 O 0.50227 -0.04526 0.43562
 O255 O 0.54971 0.02230 0.49648
 O256 O 0.46017 -0.04707 0.50599
 O257 O 0.55471 -0.04532 0.49333
 O258 O 0.45426 0.02146 0.50968
 H259 H 0.50826 0.03625 0.59260
 H260 H 0.44185 -0.06446 0.50701
 H261 H 0.49298 0.04481 0.41545
 H262 H 0.57647 -0.06100 0.49057
 H263 H 0.40670 -0.03062 0.55210
 H264 H 0.39930 -0.00067 0.48345
 H265 H 0.46755 -0.02316 0.36815
 H266 H 0.52690 -0.02941 0.36033
 H267 H 0.60450 -0.01191 0.45221
 H268 H 0.60876 0.00044 0.52445
 H269 H 0.57338 -0.01615 0.63021
 H270 H 0.45874 -0.01763 0.64586
 O271 O 0.54491 0.55417 0.08000
 O272 O 0.58099 0.51823 0.03436
 C273 C 0.57454 0.54356 0.06510
 O274 O 0.45277 0.42272 0.06657
 O275 O 0.41371 0.46619 0.03300
 C276 C 0.42222 0.43613 0.05812
 O277 O 0.54560 0.41589 0.06444
 O278 O 0.58129 0.45314 0.02752
 C279 C 0.57526 0.42480 0.05384
 O280 O 0.45218 0.56765 0.07943
 O281 O 0.41344 0.53643 0.04055
 C282 C 0.42172 0.56201 0.06885
 Zr283 Zr 0.49773 0.53907 0.05838
 O284 O 0.49864 0.52362 0.12590
 O285 O 0.49905 0.59826 0.07573
 Zr286 Zr 0.49821 0.44301 0.04627
 O287 O 0.50010 0.44245 0.11585
 O288 O 0.49841 0.38157 0.04475
 O289 O 0.52855 0.48744 0.05944
 O290 O 0.46833 0.49311 0.06160
 O291 O 0.44743 0.58148 -0.06560
 O292 O 0.41102 0.54310 -0.03172
 C293 C 0.41764 0.57325 -0.05509
 O294 O 0.54062 0.43573 -0.09403
 O295 O 0.57920 0.46124 -0.04924
 C296 C 0.57108 0.44095 -0.08277
 O297 O 0.44799 0.43963 -0.08690
 O298 O 0.41162 0.47366 -0.04000
 C299 C 0.41824 0.44985 -0.07240
 O300 O 0.54010 0.57085 -0.07365
 O301 O 0.57851 0.52687 -0.03977
 C302 C 0.57049 0.55759 -0.06373
 Zr303 Zr 0.49433 0.55128 -0.05247
 O304 O 0.49116 0.55275 -0.12194
 O305 O 0.49594 0.61249 -0.05036
 Zr306 Zr 0.49477 0.45476 -0.06440
 O307 O 0.48947 0.46243 -0.13342
 O308 O 0.49830 0.39341 -0.07157
 Zr309 Zr 0.54632 0.49260 -0.00549
 Zr310 Zr 0.44591 0.50167 -0.00089
 O311 O 0.46474 0.50671 -0.06506
 O312 O 0.52443 0.50132 -0.06843
 O313 O 0.46661 0.55560 0.00517
 O314 O 0.52558 0.43892 -0.01145
 O315 O 0.52453 0.55001 0.00257
 O316 O 0.46683 0.44376 -0.00869
 H317 H 0.45355 0.49246 0.08761
 H318 H 0.54080 0.41497 -0.01544
 H319 H 0.44873 0.51112 -0.08991
 H320 H 0.53822 0.57245 0.00478
 H321 H 0.50576 0.37315 0.01505
 H322 H 0.48050 0.38339 -0.05338
 H323 H 0.50531 0.48129 -0.14275
 H324 H 0.49022 0.58065 -0.13049
 H325 H 0.48446 0.62153 -0.02306
 H326 H 0.50024 0.61308 0.04786
 H327 H 0.49747 0.54853 0.14213
 H328 H 0.50011 0.41475 0.12495
 C329 C 1.16801 0.14423 0.14596
 N330 N 1.20067 0.14431 0.13436
 N331 N 1.22010 0.16914 0.15322
 C332 C 1.20740 0.19490 0.18397
 N333 N 1.17475 0.19468 0.19495
 N334 N 1.15551 0.17000 0.17640
 C335 C 1.14548 0.11752 0.12668
 N336 N 1.11397 0.11803 0.14251
 N337 N 1.09202 0.09617 0.12460
 C338 C 1.10064 0.07268 0.09015
 N339 N 1.13240 0.07153 0.07447
 N340 N 1.15453 0.09355 0.09254
 C341 C 1.16679 0.65902 0.62850
 N342 N 1.15492 0.69428 0.64416
 N343 N 1.17548 0.71827 0.66136
 C344 C 1.20883 0.70809 0.66363
 N345 N 1.22090 0.67303 0.64705
 N346 N 1.20025 0.64897 0.62956
 C347 C 1.14297 0.63194 0.61380
 N348 N 1.15263 0.59897 0.59112
 N349 N 1.12999 0.57537 0.57778
 C350 C 1.09711 0.58370 0.58739
 N351 N 1.08776 0.61633 0.61050
 N352 N 1.11021 0.63994 0.62343
 C353 C 0.65809 0.16569 0.61351
 N354 N 0.65940 0.20435 0.60558
 N355 N 0.68336 0.22329 0.62414
 C356 C 0.70681 0.20425 0.65114
 N357 N 0.70621 0.16519 0.65674
 N358 N 0.68243 0.14638 0.63831
 C359 C 0.62944 0.14488 0.60074
 N360 N 0.62560 0.11059 0.62123
 N361 N 0.60080 0.08971 0.61024
 C362 C 0.57856 0.10224 0.57845
 N363 N 0.58171 0.13718 0.55833
 N364 N 0.60665 0.15845 0.56968
 C365 C 0.67521 0.64162 0.09955
 N366 N 0.66679 0.68065 0.09876
 N367 N 0.68679 0.70492 0.11673
 C368 C 0.71571 0.69096 0.13675
 N369 N 0.72501 0.65205 0.13511
 N370 N 0.70517 0.62777 0.11664
 C371 C 0.64975 0.61522 0.09037
 N372 N 0.65786 0.57791 0.07754
 N373 N 0.63399 0.55397 0.07120
 C374 C 0.60151 0.56620 0.07920
 N375 N 0.59368 0.60324 0.09283
 N376 N 0.61736 0.62728 0.09837
 C377 C 0.82525 -0.14367 0.13581
 N378 N 0.79904 -0.15284 0.11085
 N379 N 0.77854 -0.17840 0.12546
 C380 C 0.78315 -0.19551 0.16581
 N381 N 0.80895 -0.18572 0.19124
 N382 N 0.82970 -0.16042 0.17641
 C383 C 0.84984 -0.11853 0.11770
 N384 N 0.88072 -0.11891 0.13604
 N385 N 0.90392 -0.09866 0.11782
 C386 C 0.89714 -0.07692 0.08077
 N387 N 0.86609 -0.07603 0.06269
 N388 N 0.84295 -0.09667 0.08068
 C389 C 0.82637 0.35642 0.64314
 N390 N 0.80705 0.33782 0.61497
 N391 N 0.78770 0.31120 0.62983
 C392 C 0.78661 0.30232 0.67348
 N393 N 0.80571 0.32130 0.70177
 N394 N 0.82548 0.34758 0.68681
 C395 C 0.84930 0.38374 0.62605
 N396 N 0.87730 0.39024 0.64893
 N397 N 0.89971 0.41215 0.63166
 C398 C 0.89473 0.42886 0.59121
 N399 N 0.86640 0.42303 0.56864
 N400 N 0.84418 0.40064 0.58567
 C401 C 0.37159 -0.19569 0.64659
 N402 N 0.36085 -0.18744 0.68818
 N403 N 0.33263 -0.20029 0.70321
 C404 C 0.31386 -0.22168 0.67713
 N405 N 0.32478 -0.23022 0.63567
 N406 N 0.35301 -0.21742 0.62064
 C407 C 0.40090 -0.17793 0.62873
 N408 N 0.41085 -0.18382 0.58630
 N409 N 0.43413 -0.16316 0.56856
 C410 C 0.44842 -0.13598 0.59272
 N411 N 0.43909 -0.13107 0.63542
 N412 N 0.41604 -0.15177 0.65316
 C413 C 0.32726 0.35035 0.14272
 N414 N 0.30088 0.33786 0.12052
 N415 N 0.28123 0.31354 0.13976
 C416 C 0.28711 0.30110 0.18194
 N417 N 0.31320 0.31407 0.20422
 N418 N 0.33302 0.33802 0.18489
 C419 C 0.35079 0.37450 0.12102
 N420 N 0.38184 0.37576 0.13822
 N421 N 0.40419 0.39582 0.11807
 C422 C 0.39631 0.41584 0.08023
 N423 N 0.36506 0.41514 0.06314
 N424 N 0.34272 0.39456 0.08309
 C425 C 0.82421 0.16706 -0.16212
 N426 N 0.80402 0.14763 -0.18817
 N427 N 0.78523 0.16649 -0.21906
 C428 C 0.78549 0.20563 -0.22514
 N429 N 0.80535 0.22532 -0.19851
 N430 N 0.82464 0.20628 -0.16788
 C431 C 0.84708 0.14500 -0.13106
 N432 N 0.87588 0.15940 -0.11826
 N433 N 0.89858 0.13738 -0.09483
 C434 C 0.89321 0.10034 -0.08275
 N435 N 0.86403 0.08623 -0.09458
 N436 N 0.84149 0.10812 -0.11852
 C437 C 0.82454 0.66383 0.33596
 N438 N 0.80186 0.64476 0.31358
 N439 N 0.78455 0.66224 0.28047
 C440 C 0.78911 0.69948 0.26848
 N441 N 0.81124 0.71901 0.29150
 N442 N 0.82891 0.70131 0.32442
 C443 C 0.84654 0.64259 0.36830
 N444 N 0.87598 0.65628 0.37943
 N445 N 0.89827 0.63452 0.40362
 C446 C 0.89188 0.59847 0.41796
 N447 N 0.86204 0.58513 0.40794
 N448 N 0.83982 0.60678 0.38329
 C449 C 0.34345 0.17462 0.35494
 N450 N 0.34752 0.21022 0.33702
 N451 N 0.32579 0.22598 0.30698
 C452 C 0.29973 0.20635 0.29331
 N453 N 0.29585 0.17093 0.31135
 N454 N 0.31718 0.15549 0.34157
 C455 C 0.36749 0.15484 0.38624
 N456 N 0.35907 0.12192 0.40640
 N457 N 0.38151 0.09952 0.42945
 C458 C 0.41335 0.10908 0.43366
 N459 N 0.42178 0.14279 0.41477
 N460 N 0.39913 0.16540 0.39147
 C461 C 0.31939 0.67305 -0.14083
 N462 N 0.29167 0.65824 -0.15680
 N463 N 0.27309 0.67749 -0.18769
 C464 C 0.28147 0.71226 -0.20374
 N465 N 0.30866 0.72761 -0.18684
 N466 N 0.32734 0.70827 -0.15605
 C467 C 0.34290 0.64910 -0.11262
 N468 N 0.37398 0.66026 -0.10583
 N469 N 0.39724 0.63635 -0.08592
 C470 C 0.39033 0.60045 -0.07182
 N471 N 0.35897 0.58954 -0.07746
 N472 N 0.33568 0.61343 -0.09776
 C473 C 1.17661 -0.12874 -0.18656
 N474 N 1.16832 -0.13371 -0.22933
 N475 N 1.18755 -0.15714 -0.25513
 C476 C 1.21602 -0.17668 -0.23943
 N477 N 1.22509 -0.17076 -0.19692
 N478 N 1.20575 -0.14712 -0.17094
 C479 C 1.15188 -0.10768 -0.15753
 N480 N 1.15931 -0.09720 -0.11572
 N481 N 1.13556 -0.08007 -0.08979
 C482 C 1.10350 -0.07346 -0.10458
 N483 N 1.09630 -0.08395 -0.14624
 N484 N 1.11997 -0.10052 -0.17217
 C485 C 1.17503 0.34136 0.35656
 N486 N 1.16774 0.30437 0.34900
 N487 N 1.18614 0.28164 0.32175
 C488 C 1.21268 0.29483 0.30080
 N489 N 1.22096 0.33147 0.30944
 N490 N 1.20235 0.35445 0.33691
 C491 C 1.15050 0.36710 0.38066
 N492 N 1.15691 0.40297 0.39516
 N493 N 1.13294 0.42602 0.41480
 C494 C 1.10176 0.41411 0.41974
 N495 N 1.09561 0.37837 0.40524
 N496 N 1.11951 0.35532 0.38630
 C497 C 0.65510 -0.19119 0.32873
 N498 N 0.68618 -0.17917 0.32304
 N499 N 0.70684 -0.19554 0.29283
 C500 C 0.69694 -0.22425 0.26682
 N501 N 0.66603 -0.23652 0.27302
 N502 N 0.64549 -0.22035 0.30332
 C503 C 0.63119 -0.17011 0.35844
 N504 N 0.60039 -0.18241 0.36614
 N505 N 0.57764 -0.16058 0.38934
 C506 C 0.58500 -0.12556 0.40512
 N507 N 0.61589 -0.11382 0.39791
 N508 N 0.63858 -0.13565 0.37525
 C509 C 0.66568 0.35301 -0.18595
 N510 N 0.65172 0.33140 -0.21675
 N511 N 0.67038 0.30609 -0.24066
 C512 C 0.70397 0.30114 -0.23527
 N513 N 0.71835 0.32299 -0.20449
 N514 N 0.69943 0.34842 -0.17997
 C515 C 0.64308 0.37943 -0.15991
 N516 N 0.65273 0.39711 -0.12265
 N517 N 0.63011 0.41793 -0.09817
 C518 C 0.59729 0.42153 -0.11025
 N519 N 0.58807 0.40438 -0.14775
 N520 N 0.61047 0.38382 -0.17201
 C521 C 1.17274 0.15261 -0.12968
 N522 N 1.20327 0.13701 -0.14285
 N523 N 1.22436 0.15929 -0.16265
 C524 C 1.21580 0.19799 -0.16959
 N525 N 1.18568 0.21364 -0.15505
 N526 N 1.16454 0.19138 -0.13568
 C527 C 1.14761 0.12798 -0.11280
 N528 N 1.11491 0.14155 -0.11424
 N529 N 1.09148 0.11950 -0.10034
 C530 C 1.09981 0.08305 -0.08423
 N531 N 1.13259 0.06937 -0.08251
 N532 N 1.15610 0.09135 -0.09700
 C533 C 1.16616 0.65544 0.37294
 N534 N 1.19975 0.64640 0.37404
 N535 N 1.22018 0.67045 0.35584
 C536 C 1.20771 0.70448 0.33642
 N537 N 1.17420 0.71369 0.33649
 N538 N 1.15387 0.68970 0.35438
 C539 C 1.14271 0.62825 0.38850
 N540 N 1.11015 0.63475 0.37668
 N541 N 1.08794 0.61119 0.39060
 C542 C 1.09735 0.58013 0.41691
 N543 N 1.13006 0.57326 0.42865
 N544 N 1.15248 0.59680 0.41433
 C545 C 0.64111 0.17512 0.36893
 N546 N 0.65238 0.16606 0.32800
 N547 N 0.67802 0.18275 0.31115
 C548 C 0.69383 0.20902 0.33459
 N549 N 0.68273 0.21823 0.37584
 N550 N 0.65692 0.20130 0.39289
 C551 C 0.61307 0.15502 0.38619
 N552 N 0.60154 0.16002 0.42802
 N553 N 0.57831 0.13809 0.44360
 C554 C 0.56578 0.11070 0.41775
 N555 N 0.57684 0.10657 0.37582
 N556 N 0.59976 0.12846 0.36029
 C557 C 0.67299 0.65341 -0.10120
 N558 N 0.70234 0.63747 -0.11761
 N559 N 0.72315 0.65986 -0.13749
 C560 C 0.71556 0.69907 -0.14150
 N561 N 0.68723 0.71514 -0.12199
 N562 N 0.66624 0.69270 -0.10255
 C563 C 0.64680 0.62850 -0.08937
 N564 N 0.61434 0.64302 -0.09153
 N565 N 0.59001 0.61988 -0.08500
 C566 C 0.59726 0.58136 -0.07631
 N567 N 0.62976 0.56681 -0.07383
 N568 N 0.65413 0.58989 -0.08095
 C569 C 0.82497 -0.13982 -0.14542
 N570 N 0.82530 -0.15123 -0.18828
 N571 N 0.80483 -0.17711 -0.20246
 C572 C 0.78362 -0.19312 -0.17412
 N573 N 0.78326 -0.18128 -0.13146
 N574 N 0.80328 -0.15510 -0.11748
 C575 C 0.84909 -0.11349 -0.12830
 N576 N 0.84369 -0.09524 -0.08905
 N577 N 0.86661 -0.07407 -0.07157
 C578 C 0.89607 -0.07072 -0.09241
 N579 N 0.90139 -0.08880 -0.13176
 N580 N 0.87830 -0.10955 -0.14949
 C581 C 0.82566 0.35525 0.36474
 N582 N 0.79894 0.34503 0.38800
 N583 N 0.77868 0.32015 0.37130
 C584 C 0.78421 0.30468 0.33060
 N585 N 0.81074 0.31522 0.30725
 N586 N 0.83114 0.33983 0.32407
 C587 C 0.84935 0.38103 0.38377
 N588 N 0.87966 0.38320 0.36490
 N589 N 0.90201 0.40474 0.38278
 C590 C 0.89490 0.42545 0.41997
 N591 N 0.86438 0.42379 0.43869
 N592 N 0.84206 0.40184 0.42098
 C593 C 0.36686 -0.19264 0.35378
 N594 N 0.35493 -0.18325 0.31273
 N595 N 0.32777 -0.19824 0.29728
 C596 C 0.31126 -0.22293 0.32247
 N597 N 0.32341 -0.23263 0.36337
 N598 N 0.35065 -0.21777 0.37876
 C599 C 0.39456 -0.17257 0.37228
 N600 N 0.40754 -0.18200 0.41288
 N601 N 0.42955 -0.16027 0.43161
 C602 C 0.43925 -0.12831 0.41035
 N603 N 0.42674 -0.11950 0.36952
 N604 N 0.40506 -0.14133 0.35071
 C605 C 0.32107 0.36550 -0.15240
 N606 N 0.32382 0.35555 -0.19549
 N607 N 0.30569 0.32862 -0.21221
 C608 C 0.28440 0.31020 -0.18637
 N609 N 0.28129 0.32069 -0.14339
 N610 N 0.29923 0.34785 -0.12672
 C611 C 0.34404 0.39156 -0.13306
 N612 N 0.33938 0.40569 -0.09164
 N613 N 0.36229 0.42596 -0.07273
 C614 C 0.39078 0.43238 -0.09447
 N615 N 0.39517 0.41861 -0.13599
 N616 N 0.37216 0.39880 -0.15502
 C617 C 1.17646 -0.13496 0.17877
 N618 N 1.16743 -0.13972 0.22128
 N619 N 1.18629 -0.16279 0.24848
 C620 C 1.21510 -0.18220 0.23447
 N621 N 1.22495 -0.17645 0.19224
 N622 N 1.20597 -0.15314 0.16483
 C623 C 1.15195 -0.11466 0.14830
 N624 N 1.16007 -0.10231 0.10731
 N625 N 1.13649 -0.08528 0.08043
 C626 C 1.10399 -0.08082 0.09341
 N627 N 1.09615 -0.09332 0.13419
 N628 N 1.11959 -0.10971 0.16105
 C629 C 1.17486 0.33786 0.65184
 N630 N 1.20536 0.34779 0.66493
 N631 N 1.22524 0.32329 0.68991
 C632 C 1.21526 0.28811 0.70242
 N633 N 1.18533 0.27795 0.68789
 N634 N 1.16558 0.30228 0.66318
 C635 C 1.14996 0.36577 0.63055
 N636 N 1.11748 0.35820 0.63199
 N637 N 1.09377 0.38297 0.61454
 C638 C 1.10148 0.41634 0.59465
 N639 N 1.13407 0.42410 0.59279
 N640 N 1.15795 0.39934 0.61087
 C641 C 0.66334 -0.19536 0.65787
 N642 N 0.69584 -0.18702 0.66018
 N643 N 0.71573 -0.20106 0.69313
 C644 C 0.70360 -0.22344 0.72537
 N645 N 0.67120 -0.23175 0.72255
 N646 N 0.65151 -0.21807 0.68966
 C647 C 0.64007 -0.17670 0.62486
 N648 N 0.60761 -0.18523 0.62346
 N649 N 0.58505 -0.16401 0.59878
 C650 C 0.59428 -0.13354 0.57454
 N651 N 0.62687 -0.12581 0.57508
 N652 N 0.64939 -0.14707 0.59948
 C653 C 0.67747 0.33338 0.14330
 N654 N 0.67222 0.29583 0.15222
 N655 N 0.68939 0.27608 0.18384
 C656 C 0.71262 0.29296 0.20782
 N657 N 0.71899 0.33013 0.19790
 N658 N 0.70164 0.35006 0.16609
 C659 C 0.65323 0.35645 0.11520
 N660 N 0.65755 0.39366 0.10274
 N661 N 0.63315 0.41529 0.08161
 C662 C 0.60351 0.40060 0.07300
 N663 N 0.59944 0.36339 0.08512
 N664 N 0.62387 0.34172 0.10561
 C665 C 0.82854 0.15813 0.17003
 N666 N 0.80421 0.14092 0.19161
 N667 N 0.78522 0.16072 0.22119
 C668 C 0.78972 0.19850 0.23039
 N669 N 0.81392 0.21581 0.20856
 N670 N 0.83313 0.19590 0.17922
 C671 C 0.85083 0.13575 0.13909
 N672 N 0.87990 0.14969 0.12678
 N673 N 0.90151 0.12850 0.10167
 C674 C 0.89482 0.09277 0.08722
 N675 N 0.86540 0.07899 0.09871
 N676 N 0.84383 0.10010 0.12433
 C677 C 0.82678 0.66525 0.66885
 N678 N 0.81253 0.64518 0.70112
 N679 N 0.79569 0.66392 0.73325
 C680 C 0.79207 0.70353 0.73444
 N681 N 0.80621 0.72376 0.70188
 N682 N 0.82364 0.70492 0.66996
 C683 C 0.84735 0.64377 0.63573
 N684 N 0.87381 0.65963 0.61756
 N685 N 0.89541 0.63804 0.59275
 C686 C 0.89108 0.60006 0.58456
 N687 N 0.86407 0.58449 0.60164
 N688 N 0.84271 0.60594 0.62700
 C689 C 0.36614 0.17247 0.68324
 N690 N 0.35629 0.15656 0.72149
 N691 N 0.33114 0.17370 0.74444
 C692 C 0.31476 0.20764 0.73026
 N693 N 0.32501 0.22428 0.69243
 N694 N 0.35022 0.20689 0.66916
 C695 C 0.39134 0.14989 0.65656
 N696 N 0.40067 0.16176 0.61589
 N697 N 0.42091 0.13821 0.59090
 C698 C 0.43218 0.10201 0.60580
 N699 N 0.42321 0.09073 0.64659
 N700 N 0.40335 0.11416 0.67146
 C701 C 0.32438 0.66339 0.15220
 N702 N 0.29447 0.65095 0.16342
 N703 N 0.27428 0.67174 0.19075
 C704 C 0.28313 0.70581 0.20759
 N705 N 0.31260 0.71882 0.19530
 N706 N 0.33291 0.69789 0.16820
 C707 C 0.34874 0.63805 0.12763
 N708 N 0.38124 0.64559 0.12770
 N709 N 0.40423 0.62108 0.10891
 C710 C 0.39564 0.58815 0.08925
 N711 N 0.36302 0.58074 0.08854
 N712 N 0.33998 0.60516 0.10780
   
