data_POSCAR
  _audit_creation_date              2014-09-24
  _audit_creation_method            'ToBaCCo'
  _symmetry_space_group_name_H-M    'P1'
  _symmetry_Int_Tables_number       1
  _symmetry_cell_setting            triclinic
  loop_
  _symmetry_equiv_pos_as_xyz
 x,y,z
_cell_length_a 29.3251
_cell_length_b 28.8033
_cell_length_c 41.4049
_cell_angle_alpha 90.803900
_cell_angle_beta 90.086600
_cell_angle_gamma 90.433400
loop_
  _atom_site_label
  _atom_site_type_symbol
  _atom_site_fract_x
  _atom_site_fract_y
  _atom_site_fract_z
Si1 Si 1.25497 0.25155 0.25018
 Si2 Si 0.75563 -0.24956 0.25166
 Si3 Si 0.75603 0.25133 -0.24843
 Si4 Si 1.25668 -0.24844 -0.24950
 Si5 Si 0.24428 0.24858 0.75006
 Si6 Si 0.74343 0.74908 0.74876
 Si7 Si 0.74577 0.24977 0.24927
 Si8 Si 0.24474 0.74951 0.24971
 O9 O 1.07784 0.02197 0.04132
 O10 O 0.92194 -0.02757 0.04002
 O11 O 0.97556 0.07625 0.04108
 O12 O 1.02411 -0.08228 0.03994
 O13 O 0.91292 0.05010 0.02245
 O14 O 1.08712 -0.05596 0.02271
 O15 O 0.94774 -0.09157 0.02203
 O16 O 1.05230 0.08580 0.02402
 C17 C 1.07152 0.06373 0.04576
 C18 C 0.92883 -0.06914 0.04414
 C19 C 0.93439 0.06984 0.04474
 C20 C 1.06515 -0.07577 0.04434
 O21 O 1.07884 -0.02610 -0.03936
 O22 O 0.92234 0.01999 -0.03999
 O23 O 1.02417 0.07657 -0.03881
 O24 O 0.97671 -0.08279 -0.04051
 O25 O 0.91374 -0.05792 -0.02242
 O26 O 1.08701 0.05181 -0.02070
 O27 O 1.05336 -0.09060 -0.02262
 O28 O 0.94743 0.08453 -0.02170
 Co29 Co 1.07478 -0.00217 0.00095
 Co30 Co 0.92563 -0.00377 0.00005
 Co31 Co 0.99989 0.07279 0.00109
 Co32 Co 1.00045 -0.07887 -0.00024
 O33 O 1.00020 -0.00301 0.00047
 C34 C 1.07267 -0.06788 -0.04412
 C35 C 0.92839 0.06186 -0.04383
 C36 C 1.06528 0.07068 -0.04274
 C37 C 0.93564 -0.07679 -0.04467
 O38 O 1.08037 0.52520 0.53998
 O39 O 0.92435 0.47613 0.54085
 O40 O 0.97738 0.57987 0.54063
 O41 O 1.02683 0.42164 0.53951
 O42 O 0.91461 0.55353 0.52247
 O43 O 1.08925 0.44737 0.52102
 O44 O 0.95005 0.41188 0.52312
 O45 O 1.05394 0.58907 0.52325
 C46 C 1.07364 0.56683 0.54474
 C47 C 0.93112 0.43457 0.54515
 C48 C 0.93629 0.57337 0.54459
 C49 C 1.06796 0.42818 0.54321
 O50 O 1.07930 0.47733 0.45927
 O51 O 0.92275 0.52225 0.46050
 O52 O 1.02513 0.57969 0.46034
 O53 O 0.97707 0.42024 0.45984
 O54 O 0.91458 0.44459 0.47886
 O55 O 1.08822 0.55539 0.47812
 O56 O 1.05404 0.41282 0.47635
 O57 O 0.94863 0.58716 0.47781
 Co58 Co 1.07632 0.50121 0.49965
 Co59 Co 0.92703 0.49922 0.50062
 Co60 Co 1.00131 0.57603 0.50048
 Co61 Co 1.00196 0.42455 0.49973
 O62 O 1.00166 0.50026 0.50012
 C63 C 1.07290 0.43554 0.45462
 C64 C 0.92910 0.56396 0.45613
 C65 C 1.06624 0.57417 0.45617
 C66 C 0.93586 0.42580 0.45629
 O67 O 0.57667 0.02489 0.54065
 O68 O 0.42047 -0.02400 0.53864
 O69 O 0.47474 0.07952 0.54070
 O70 O 0.52222 -0.07924 0.53826
 O71 O 0.41206 0.05395 0.52179
 O72 O 0.58539 -0.05283 0.52134
 O73 O 0.44580 -0.08784 0.52010
 O74 O 0.55155 0.08920 0.52386
 C75 C 0.57082 0.06668 0.54539
 C76 C 0.42680 -0.06573 0.54232
 C77 C 0.43360 0.07293 0.54436
 C78 C 0.56323 -0.07269 0.54282
 O79 O 0.57771 -0.02205 0.45957
 O80 O 0.42158 0.02480 0.45915
 O81 O 0.52355 0.08107 0.46084
 O82 O 0.47514 -0.07810 0.45772
 O83 O 0.41216 -0.05325 0.47582
 O84 O 0.58610 0.05562 0.47890
 O85 O 0.55165 -0.08664 0.47577
 O86 O 0.44678 0.08899 0.47798
 Co87 Co 0.57358 0.00135 0.50006
 Co88 Co 0.42448 0.00042 0.49891
 Co89 Co 0.49913 0.07670 0.50071
 Co90 Co 0.49872 -0.07499 0.49808
 O91 O 0.49899 0.00086 0.49944
 C92 C 0.57124 -0.06374 0.45450
 C93 C 0.42786 0.06666 0.45564
 C94 C 0.56461 0.07475 0.45687
 C95 C 0.43404 -0.07223 0.45357
 O96 O 0.57711 0.52742 0.04097
 O97 O 0.42166 0.47601 0.04059
 O98 O 0.47466 0.58078 0.04203
 O99 O 0.52379 0.42241 0.03952
 O100 O 0.41186 0.55391 0.02405
 O101 O 0.58649 0.44962 0.02225
 O102 O 0.44731 0.41262 0.02160
 O103 O 0.55102 0.59110 0.02390
 C104 C 0.57041 0.56909 0.04557
 C105 C 0.42860 0.43434 0.04409
 C106 C 0.43365 0.57376 0.04620
 C107 C 0.56480 0.42934 0.04381
 O108 O 0.57733 0.47942 -0.03991
 O109 O 0.42052 0.52503 -0.03892
 O110 O 0.52160 0.58231 -0.03848
 O111 O 0.47589 0.42258 -0.04072
 O112 O 0.41277 0.44694 -0.02233
 O113 O 0.58488 0.55734 -0.02117
 O114 O 0.55277 0.41474 -0.02301
 O115 O 0.44502 0.58943 -0.02021
 Co116 Co 0.57359 0.50330 0.00055
 Co117 Co 0.42457 0.50062 0.00083
 Co118 Co 0.49816 0.57791 0.00171
 Co119 Co 0.49985 0.42611 -0.00054
 O120 O 0.49906 0.50198 0.00064
 C121 C 0.57173 0.43753 -0.04461
 C122 C 0.42633 0.56693 -0.04252
 C123 C 0.56260 0.57613 -0.04297
 C124 C 0.43471 0.42820 -0.04466
 C125 C 1.12835 0.12956 0.12411
 C126 C 1.14421 0.17584 0.12115
 C127 C 1.16611 0.19835 0.14772
 C128 C 1.17232 0.17430 0.17699
 C129 C 1.15607 0.12822 0.18007
 C130 C 1.13401 0.10572 0.15351
 C131 C 1.11847 0.05942 0.15700
 C132 C 1.12462 0.03607 0.18591
 C133 C 1.14606 0.05814 0.21192
 C134 C 1.16167 0.10372 0.20918
 C135 C 1.18174 0.24467 0.14421
 C136 C 1.17631 0.26784 0.11516
 C137 C 1.15508 0.24570 0.08911
 C138 C 1.13904 0.20029 0.09195
 C139 C 1.19732 0.19660 0.20318
 C140 C 1.21940 0.21694 0.22345
 C141 C 1.10733 0.10620 0.09661
 C142 C 1.09057 0.08691 0.07346
 H143 H 1.10154 0.04079 0.13746
 H144 H 1.11274 0.00065 0.18815
 H145 H 1.15066 0.03983 0.23433
 H146 H 1.17814 0.11951 0.23005
 H147 H 1.19838 0.26347 0.16378
 H148 H 1.18873 0.30312 0.11285
 H149 H 1.15097 0.26382 0.06657
 H150 H 1.12266 0.18460 0.07102
 C151 C 1.12962 0.62996 0.62450
 C152 C 1.13165 0.67899 0.62694
 C153 C 1.15372 0.70063 0.65380
 C154 C 1.17362 0.67307 0.67805
 C155 C 1.17091 0.62406 0.67592
 C156 C 1.14891 0.60239 0.64901
 C157 C 1.14731 0.55328 0.64709
 C158 C 1.16702 0.52642 0.67105
 C159 C 1.18825 0.54765 0.69747
 C160 C 1.19027 0.59592 0.70001
 C161 C 1.15577 0.74975 0.65554
 C162 C 1.13670 0.77667 0.63139
 C163 C 1.11510 0.75548 0.60511
 C164 C 1.11245 0.70722 0.60280
 C165 C 1.19920 0.69546 0.70395
 C166 C 1.22144 0.71613 0.72399
 C167 C 1.10897 0.60796 0.59631
 C168 C 1.09246 0.58956 0.57272
 H169 H 1.13102 0.53515 0.62706
 H170 H 1.16596 0.48893 0.66908
 H171 H 1.20337 0.52660 0.71605
 H172 H 1.20717 0.61091 0.72099
 H173 H 1.17213 0.76792 0.67552
 H174 H 1.13872 0.81416 0.63307
 H175 H 1.10031 0.77653 0.58641
 H176 H 1.09524 0.69236 0.58191
 C177 C 0.63098 0.13064 0.62347
 C178 C 0.66727 0.16228 0.61802
 C179 C 0.69027 0.18352 0.64465
 C180 C 0.67667 0.17325 0.67662
 C181 C 0.64029 0.14179 0.68207
 C182 C 0.61737 0.12037 0.65541
 C183 C 0.58108 0.08902 0.66145
 C184 C 0.56774 0.07920 0.69293
 C185 C 0.59020 0.10008 0.71898
 C186 C 0.62611 0.13105 0.71376
 C187 C 0.72670 0.21478 0.63856
 C188 C 0.73982 0.22494 0.60710
 C189 C 0.71716 0.20432 0.58106
 C190 C 0.68134 0.17329 0.58631
 C191 C 0.70011 0.19579 0.70355
 C192 C 0.72119 0.21639 0.72430
 C193 C 0.60839 0.10814 0.59615
 C194 C 0.59067 0.08940 0.57309
 H195 H 0.56260 0.07191 0.64196
 H196 H 0.53975 0.05534 0.69712
 H197 H 0.57971 0.09229 0.74338
 H198 H 0.64257 0.14648 0.73476
 H199 H 0.74553 0.23164 0.65797
 H200 H 0.76772 0.24893 0.60291
 H201 H 0.72745 0.21235 0.55666
 H202 H 0.66483 0.15812 0.56524
 C203 C 0.62690 0.63523 0.12386
 C204 C 0.66168 0.66862 0.11859
 C205 C 0.68443 0.68971 0.14534
 C206 C 0.67229 0.67718 0.17718
 C207 C 0.63660 0.64489 0.18247
 C208 C 0.61375 0.62384 0.15569
 C209 C 0.57801 0.59175 0.16150
 C210 C 0.56504 0.58104 0.19291
 C211 C 0.58754 0.60149 0.21911
 C212 C 0.62302 0.63303 0.21409
 C213 C 0.71914 0.72307 0.13950
 C214 C 0.73090 0.73525 0.10814
 C215 C 0.70866 0.71452 0.08196
 C216 C 0.67447 0.68154 0.08697
 C217 C 0.69693 0.69786 0.20413
 C218 C 0.71923 0.71705 0.22480
 C219 C 0.60566 0.61185 0.09647
 C220 C 0.58909 0.59237 0.07334
 H221 H 0.55942 0.57506 0.14189
 H222 H 0.53716 0.55699 0.19694
 H223 H 0.57733 0.59301 0.24345
 H224 H 0.63947 0.64820 0.23519
 H225 H 0.73750 0.74020 0.15902
 H226 H 0.75742 0.76089 0.10415
 H227 H 0.71792 0.72406 0.05762
 H228 H 0.65809 0.66650 0.06581
 C229 C 0.87464 -0.13017 0.12386
 C230 C 0.90229 -0.14941 0.14827
 C231 C 0.88162 -0.16979 0.17574
 C232 C 0.83354 -0.17093 0.17848
 C233 C 0.80592 -0.15163 0.15408
 C234 C 0.82654 -0.13116 0.12670
 C235 C 0.79822 -0.11240 0.10248
 C236 C 0.75089 -0.11410 0.10517
 C237 C 0.73069 -0.13424 0.13193
 C238 C 0.75770 -0.15271 0.15621
 C239 C 0.90980 -0.18912 0.19975
 C240 C 0.95712 -0.18872 0.19657
 C241 C 0.97732 -0.16910 0.16959
 C242 C 0.95042 -0.14934 0.14573
 C243 C 0.81193 -0.19460 0.20510
 C244 C 0.79139 -0.21548 0.22546
 C245 C 0.89534 -0.10946 0.09571
 C246 C 0.91120 -0.09157 0.07211
 H247 H 0.81227 -0.09640 0.08117
 H248 H 0.72978 -0.09972 0.08637
 H249 H 0.69390 -0.13557 0.13390
 H250 H 0.74029 -0.16789 0.17657
 H251 H 0.89557 -0.20484 0.22112
 H252 H 0.97821 -0.20388 0.21507
 H253 H 1.01403 -0.16937 0.16711
 H254 H 0.96770 -0.13436 0.12523
 C255 C 0.87514 0.37387 0.62464
 C256 C 0.90169 0.36233 0.65195
 C257 C 0.88054 0.34158 0.67914
 C258 C 0.83304 0.33255 0.67883
 C259 C 0.80639 0.34479 0.65172
 C260 C 0.82752 0.36531 0.62451
 C261 C 0.80023 0.37659 0.59752
 C262 C 0.75344 0.36786 0.59743
 C263 C 0.73273 0.34801 0.62410
 C264 C 0.75869 0.33664 0.65101
 C265 C 0.90774 0.33004 0.70605
 C266 C 0.95459 0.33863 0.70610
 C267 C 0.97529 0.35878 0.67950
 C268 C 0.94930 0.37069 0.65269
 C269 C 0.81149 0.30827 0.70533
 C270 C 0.79120 0.28669 0.72554
 C271 C 0.89648 0.39464 0.59665
 C272 C 0.91293 0.41237 0.57314
 H273 H 0.81471 0.39217 0.57620
 H274 H 0.73313 0.37660 0.57655
 H275 H 0.69636 0.34127 0.62392
 H276 H 0.74089 0.32136 0.67116
 H277 H 0.89310 0.31433 0.72728
 H278 H 0.97496 0.32952 0.72686
 H279 H 1.01170 0.36510 0.67962
 H280 H 0.96692 0.38633 0.63258
 C281 C 0.37230 -0.12886 0.62114
 C282 C 0.38849 -0.11757 0.65255
 C283 C 0.36807 -0.13848 0.67990
 C284 C 0.33175 -0.17060 0.67560
 C285 C 0.31551 -0.18182 0.64417
 C286 C 0.33586 -0.16087 0.61686
 C287 C 0.31904 -0.17256 0.58568
 C288 C 0.28311 -0.20405 0.58162
 C289 C 0.26318 -0.22459 0.60833
 C290 C 0.27903 -0.21376 0.63928
 C291 C 0.38460 -0.12660 0.71107
 C292 C 0.42040 -0.09490 0.71510
 C293 C 0.44046 -0.07450 0.68835
 C294 C 0.42484 -0.08559 0.65736
 C295 C 0.31081 -0.19274 0.70312
 C296 C 0.29104 -0.21334 0.72400
 C297 C 0.39249 -0.10703 0.59322
 C298 C 0.40852 -0.08858 0.56990
 H299 H 0.33344 -0.15755 0.56413
 H300 H 0.27070 -0.21258 0.55761
 H301 H 0.23531 -0.24909 0.60506
 H302 H 0.26233 -0.23073 0.65923
 H303 H 0.37003 -0.14161 0.73257
 H304 H 0.43264 -0.08613 0.73912
 H305 H 0.46818 -0.04985 0.69161
 H306 H 0.44148 -0.06878 0.63730
 C307 C 0.37719 0.36844 0.12277
 C308 C 0.38466 0.38685 0.15425
 C309 C 0.36386 0.36535 0.18123
 C310 C 0.33600 0.32554 0.17649
 C311 C 0.32952 0.30642 0.14508
 C312 C 0.35004 0.32808 0.11812
 C313 C 0.34258 0.30877 0.08689
 C314 C 0.31567 0.26910 0.08246
 C315 C 0.29580 0.24771 0.10886
 C316 C 0.30255 0.26596 0.13985
 C317 C 0.37136 0.38450 0.21245
 C318 C 0.39883 0.42379 0.21691
 C319 C 0.41929 0.44479 0.19053
 C320 C 0.41237 0.42670 0.15949
 C321 C 0.31255 0.30465 0.20344
 C322 C 0.29100 0.28520 0.22396
 C323 C 0.39632 0.39163 0.09505
 C324 C 0.41139 0.41097 0.07178
 H325 H 0.35746 0.32403 0.06558
 H326 H 0.31031 0.25482 0.05842
 H327 H 0.27498 0.21684 0.10534
 H328 H 0.28647 0.24790 0.15959
 H329 H 0.35620 0.36926 0.23367
 H330 H 0.40428 0.43799 0.24096
 H331 H 0.44063 0.47527 0.19412
 H332 H 0.42902 0.44421 0.13973
 C333 C 0.87176 0.12611 -0.12149
 C334 C 0.88755 0.11711 -0.15327
 C335 C 0.86673 0.13938 -0.17989
 C336 C 0.83046 0.17068 -0.17453
 C337 C 0.81463 0.17963 -0.14274
 C338 C 0.83530 0.15723 -0.11616
 C339 C 0.81882 0.16668 -0.08463
 C340 C 0.78302 0.19745 -0.07949
 C341 C 0.76288 0.21947 -0.10546
 C342 C 0.77831 0.21078 -0.13675
 C343 C 0.88290 0.12972 -0.21142
 C344 C 0.91872 0.09894 -0.21653
 C345 C 0.93917 0.07726 -0.19051
 C346 C 0.92393 0.08613 -0.15918
 C347 C 0.80925 0.19428 -0.20135
 C348 C 0.78962 0.21569 -0.22185
 C349 C 0.89270 0.10327 -0.09424
 C350 C 0.90937 0.08443 -0.07131
 H351 H 0.83340 0.15048 -0.06362
 H352 H 0.77089 0.20429 -0.05522
 H353 H 0.73517 0.24345 -0.10134
 H354 H 0.76146 0.22881 -0.15610
 H355 H 0.86802 0.14579 -0.23239
 H356 H 0.93068 0.09189 -0.24082
 H357 H 0.96689 0.05333 -0.19462
 H358 H 0.94086 0.06838 -0.13972
 C359 C 0.87127 0.62577 0.37823
 C360 C 0.88726 0.61679 0.34652
 C361 C 0.86600 0.63838 0.31983
 C362 C 0.82912 0.66893 0.32512
 C363 C 0.81294 0.67767 0.35684
 C364 C 0.83405 0.65595 0.38347
 C365 C 0.81730 0.66514 0.41497
 C366 C 0.78077 0.69504 0.41999
 C367 C 0.76018 0.71644 0.39395
 C368 C 0.77589 0.70798 0.36270
 C369 C 0.88237 0.62886 0.28833
 C370 C 0.91882 0.59883 0.28333
 C371 C 0.93971 0.57777 0.30944
 C372 C 0.92428 0.58655 0.34074
 C373 C 0.80795 0.69240 0.29834
 C374 C 0.78849 0.71402 0.27793
 C375 C 0.89278 0.60389 0.40554
 C376 C 0.90982 0.58581 0.42857
 H377 H 0.83219 0.64939 0.43604
 H378 H 0.76842 0.70168 0.44423
 H379 H 0.73190 0.73976 0.39797
 H380 H 0.75866 0.72547 0.34328
 H381 H 0.86715 0.64445 0.26731
 H382 H 0.93093 0.59187 0.25908
 H383 H 0.96795 0.55443 0.30543
 H384 H 0.94155 0.56931 0.36027
 C385 C 0.37116 0.12976 0.37786
 C386 C 0.38703 0.12019 0.34619
 C387 C 0.36582 0.14149 0.31936
 C388 C 0.32899 0.17214 0.32446
 C389 C 0.31291 0.18144 0.35613
 C390 C 0.33408 0.16017 0.38292
 C391 C 0.31743 0.16993 0.41436
 C392 C 0.28088 0.19987 0.41918
 C393 C 0.26017 0.22076 0.39298
 C394 C 0.27584 0.21180 0.36178
 C395 C 0.38214 0.13149 0.28791
 C396 C 0.41841 0.10118 0.28309
 C397 C 0.43916 0.08032 0.30932
 C398 C 0.42382 0.08961 0.34058
 C399 C 0.30762 0.19496 0.29750
 C400 C 0.28801 0.21598 0.27687
 C401 C 0.39239 0.10787 0.40526
 C402 C 0.40912 0.08943 0.42827
 H403 H 0.33242 0.15457 0.43555
 H404 H 0.26859 0.20691 0.44338
 H405 H 0.23184 0.24406 0.39683
 H406 H 0.25854 0.22894 0.34223
 H407 H 0.36701 0.14691 0.26679
 H408 H 0.43045 0.09383 0.25887
 H409 H 0.46721 0.05671 0.30543
 H410 H 0.44101 0.07251 0.36021
 C411 C 0.37133 0.63019 -0.12094
 C412 C 0.33517 0.66185 -0.11627
 C413 C 0.31501 0.68352 -0.14329
 C414 C 0.33101 0.67319 -0.17485
 C415 C 0.36690 0.64129 -0.17955
 C416 C 0.38727 0.61980 -0.15247
 C417 C 0.42329 0.58815 -0.15770
 C418 C 0.43854 0.57785 -0.18883
 C419 C 0.41849 0.59875 -0.21531
 C420 C 0.38307 0.63019 -0.21087
 C421 C 0.27896 0.71525 -0.13800
 C422 C 0.26324 0.72507 -0.10694
 C423 C 0.28287 0.70370 -0.08051
 C424 C 0.31845 0.67247 -0.08497
 C425 C 0.31017 0.69586 -0.20211
 C426 C 0.29062 0.71664 -0.22290
 C427 C 0.39164 0.60801 -0.09328
 C428 C 0.40781 0.58949 -0.07008
 H429 H 0.43989 0.57094 -0.13786
 H430 H 0.46593 0.55337 -0.19242
 H431 H 0.43042 0.59054 -0.23944
 H432 H 0.36848 0.64562 -0.23218
 H433 H 0.26252 0.73283 -0.15772
 H434 H 0.23569 0.74942 -0.10336
 H435 H 0.27052 0.71139 -0.05642
 H436 H 0.33263 0.65679 -0.06362
 C437 C 1.12908 -0.12948 -0.12383
 C438 C 1.14788 -0.10145 -0.14838
 C439 C 1.17007 -0.12259 -0.17524
 C440 C 1.17342 -0.17151 -0.17727
 C441 C 1.15395 -0.19955 -0.15298
 C442 C 1.13173 -0.17845 -0.12617
 C443 C 1.11300 -0.20714 -0.10198
 C444 C 1.11622 -0.25532 -0.10422
 C445 C 1.13794 -0.27598 -0.13047
 C446 C 1.15659 -0.24861 -0.15466
 C447 C 1.18897 -0.09399 -0.19938
 C448 C 1.18625 -0.04578 -0.19696
 C449 C 1.16478 -0.02506 -0.17062
 C450 C 1.14557 -0.05239 -0.14659
 C451 C 1.19913 -0.19327 -0.20313
 C452 C 1.22145 -0.21349 -0.22313
 C453 C 1.10828 -0.10801 -0.09567
 C454 C 1.09164 -0.09008 -0.07209
 H455 H 1.09572 -0.19270 -0.08111
 H456 H 1.10178 -0.27672 -0.08548
 H457 H 1.14041 -0.31342 -0.13209
 H458 H 1.17307 -0.26638 -0.17460
 H459 H 1.20604 -0.10858 -0.22029
 H460 H 1.20100 -0.02439 -0.21559
 H461 H 1.16312 0.01239 -0.16877
 H462 H 1.12910 -0.03466 -0.12661
 C463 C 1.12806 0.37326 0.37479
 C464 C 1.14757 0.40098 0.35034
 C465 C 1.16972 0.37947 0.32361
 C466 C 1.17229 0.33049 0.32160
 C467 C 1.15203 0.30277 0.34575
 C468 C 1.12985 0.32424 0.37243
 C469 C 1.11032 0.29587 0.39649
 C470 C 1.11275 0.24764 0.39426
 C471 C 1.13443 0.22661 0.36814
 C472 C 1.15384 0.25366 0.34407
 C473 C 1.18935 0.40775 0.29958
 C474 C 1.18742 0.45601 0.30200
 C475 C 1.16601 0.47709 0.32823
 C476 C 1.14607 0.45008 0.35213
 C477 C 1.19803 0.30828 0.29596
 C478 C 1.22025 0.28753 0.27618
 C479 C 1.10760 0.39507 0.40292
 C480 C 1.09133 0.41322 0.42654
 H481 H 1.09303 0.31060 0.41726
 H482 H 1.09771 0.22648 0.41290
 H483 H 1.13628 0.18913 0.36651
 H484 H 1.17025 0.23561 0.32422
 H485 H 1.20640 0.39287 0.27875
 H486 H 1.20273 0.47716 0.28346
 H487 H 1.16497 0.51457 0.33010
 H488 H 1.12966 0.46808 0.37202
 C489 C 0.62778 -0.12631 0.37526
 C490 C 0.64736 -0.09900 0.35063
 C491 C 0.67000 -0.12093 0.32427
 C492 C 0.67294 -0.16992 0.32282
 C493 C 0.65245 -0.19724 0.34708
 C494 C 0.62982 -0.17535 0.37340
 C495 C 0.61003 -0.20334 0.39758
 C496 C 0.61260 -0.25159 0.39580
 C497 C 0.63471 -0.27303 0.37002
 C498 C 0.65441 -0.24637 0.34586
 C499 C 0.68968 -0.09306 0.30004
 C500 C 0.68724 -0.04478 0.30186
 C501 C 0.66531 -0.02329 0.32771
 C502 C 0.64538 -0.04990 0.35184
 C503 C 0.69900 -0.19253 0.29751
 C504 C 0.72128 -0.21351 0.27788
 C505 C 0.60694 -0.10407 0.40309
 C506 C 0.59028 -0.08582 0.42653
 H507 H 0.59237 -0.18829 0.41808
 H508 H 0.59734 -0.27244 0.41451
 H509 H 0.63667 -0.31053 0.36874
 H510 H 0.67113 -0.26474 0.32628
 H511 H 0.70710 -0.10826 0.27948
 H512 H 0.70256 -0.02394 0.28316
 H513 H 0.66383 0.01421 0.32910
 H514 H 0.62854 -0.03160 0.37141
 C515 C 0.62850 0.37419 -0.12380
 C516 C 0.64706 0.40122 -0.14899
 C517 C 0.66920 0.37908 -0.17552
 C518 C 0.67277 0.33010 -0.17665
 C519 C 0.65343 0.30304 -0.15177
 C520 C 0.63127 0.32514 -0.12528
 C521 C 0.61265 0.29736 -0.10055
 C522 C 0.61587 0.24913 -0.10194
 C523 C 0.63748 0.22751 -0.12785
 C524 C 0.65607 0.25396 -0.15256
 C525 C 0.68774 0.40676 -0.20030
 C526 C 0.68474 0.45502 -0.19884
 C527 C 0.66336 0.47670 -0.17283
 C528 C 0.64451 0.45030 -0.14817
 C529 C 0.69843 0.30735 -0.20224
 C530 C 0.72069 0.28654 -0.22206
 C531 C 0.60771 0.39672 -0.09594
 C532 C 0.59098 0.41521 -0.07254
 H533 H 0.59543 0.31255 -0.07991
 H534 H 0.60148 0.22844 -0.08280
 H535 H 0.63993 0.19003 -0.12882
 H536 H 0.67246 0.23546 -0.17222
 H537 H 0.70470 0.39142 -0.22100
 H538 H 0.69919 0.47571 -0.21796
 H539 H 0.66147 0.51419 -0.17172
 H540 H 0.62808 0.46874 -0.12849
 C541 C 1.12804 0.12688 -0.12126
 C542 C 1.15967 0.16371 -0.11645
 C543 C 1.18001 0.18544 -0.14348
 C544 C 1.16895 0.16991 -0.17520
 C545 C 1.13776 0.13271 -0.18000
 C546 C 1.11704 0.11126 -0.15294
 C547 C 1.08560 0.07443 -0.15831
 C548 C 1.07525 0.05895 -0.18953
 C549 C 1.09570 0.07978 -0.21597
 C550 C 1.12660 0.11631 -0.21141
 C551 C 1.21116 0.22261 -0.13803
 C552 C 1.22210 0.23759 -0.10682
 C553 C 1.20241 0.21611 -0.08039
 C554 C 1.17149 0.17963 -0.08499
 C555 C 1.19019 0.19251 -0.20250
 C556 C 1.20997 0.21338 -0.22330
 C557 C 1.10620 0.10589 -0.09358
 C558 C 1.08783 0.08940 -0.07035
 H559 H 1.06898 0.05701 -0.13850
 H560 H 1.05143 0.03048 -0.19321
 H561 H 1.08758 0.06758 -0.24016
 H562 H 1.14166 0.13149 -0.23269
 H563 H 1.22736 0.24056 -0.15776
 H564 H 1.24600 0.26601 -0.10314
 H565 H 1.21106 0.22782 -0.05617
 H566 H 1.15704 0.16410 -0.06364
 C567 C 1.12866 0.63089 0.37740
 C568 C 1.15966 0.66830 0.38217
 C569 C 1.18027 0.68988 0.35514
 C570 C 1.17027 0.67357 0.32342
 C571 C 1.13958 0.63591 0.31865
 C572 C 1.11852 0.61467 0.34571
 C573 C 1.08759 0.57740 0.34031
 C574 C 1.07802 0.56132 0.30911
 C575 C 1.09882 0.58190 0.28270
 C576 C 1.12925 0.61884 0.28728
 C577 C 1.21066 0.72768 0.36059
 C578 C 1.22078 0.74333 0.39179
 C579 C 1.20090 0.72198 0.41821
 C580 C 1.17061 0.68497 0.41360
 C581 C 1.19215 0.69579 0.29610
 C582 C 1.21235 0.71644 0.27531
 C583 C 1.10677 0.60978 0.40513
 C584 C 1.08850 0.59314 0.42841
 H585 H 1.07073 0.56014 0.36009
 H586 H 1.05453 0.53256 0.30541
 H587 H 1.09134 0.56919 0.25853
 H588 H 1.14456 0.63384 0.26603
 H589 H 1.22690 0.74562 0.34088
 H590 H 1.24418 0.77218 0.39547
 H591 H 1.20891 0.73423 0.44241
 H592 H 1.15595 0.66960 0.43495
 C593 C 0.62890 0.12910 0.37825
 C594 C 0.66124 0.16530 0.38301
 C595 C 0.68204 0.18655 0.35595
 C596 C 0.67072 0.17115 0.32425
 C597 C 0.63904 0.13438 0.31950
 C598 C 0.61791 0.11338 0.34659
 C599 C 0.58608 0.07688 0.34126
 C600 C 0.57568 0.06135 0.31006
 C601 C 0.59646 0.08180 0.28359
 C602 C 0.62776 0.11798 0.28812
 C603 C 0.71388 0.22311 0.36136
 C604 C 0.72513 0.23791 0.39256
 C605 C 0.70501 0.21690 0.41901
 C606 C 0.67335 0.18107 0.41445
 C607 C 0.69209 0.19356 0.29690
 C608 C 0.71182 0.21437 0.27604
 C609 C 0.60632 0.10890 0.40595
 C610 C 0.58745 0.09300 0.42920
 H611 H 0.56921 0.05977 0.36109
 H612 H 0.55155 0.03315 0.30641
 H613 H 0.58830 0.06955 0.25942
 H614 H 0.64306 0.13287 0.26682
 H615 H 0.73043 0.24069 0.34161
 H616 H 0.74961 0.26583 0.39621
 H617 H 0.71389 0.22848 0.44322
 H618 H 0.65861 0.16587 0.43582
 C619 C 0.62564 0.62997 -0.12218
 C620 C 0.65775 0.66642 -0.11756
 C621 C 0.67875 0.68722 -0.14469
 C622 C 0.66783 0.67118 -0.17631
 C623 C 0.63635 0.63419 -0.18091
 C624 C 0.61504 0.61360 -0.15374
 C625 C 0.58347 0.57682 -0.15891
 C626 C 0.57351 0.56063 -0.19002
 C627 C 0.59445 0.58069 -0.21657
 C628 C 0.62550 0.61714 -0.21221
 C629 C 0.71045 0.72396 -0.13944
 C630 C 0.72133 0.73938 -0.10832
 C631 C 0.70094 0.71884 -0.08178
 C632 C 0.66944 0.68284 -0.08620
 C633 C 0.68938 0.69318 -0.20372
 C634 C 0.70930 0.71378 -0.22458
 C635 C 0.60315 0.60998 -0.09440
 C636 C 0.58464 0.59424 -0.07098
 H637 H 0.56647 0.56000 -0.13901
 H638 H 0.54962 0.53218 -0.19354
 H639 H 0.58663 0.56792 -0.24067
 H640 H 0.64096 0.63170 -0.23355
 H641 H 0.72718 0.74121 -0.15925
 H642 H 0.74571 0.76741 -0.10479
 H643 H 0.70951 0.73091 -0.05763
 H644 H 0.65449 0.66802 -0.06476
 C645 C 0.87147 -0.13268 -0.12399
 C646 C 0.86199 -0.18096 -0.12442
 C647 C 0.83954 -0.20169 -0.15146
 C648 C 0.82627 -0.17395 -0.17781
 C649 C 0.83594 -0.12573 -0.17747
 C650 C 0.85862 -0.10499 -0.15046
 C651 C 0.86764 -0.05664 -0.15055
 C652 C 0.85456 -0.02956 -0.17657
 C653 C 0.83248 -0.04988 -0.20300
 C654 C 0.82318 -0.09742 -0.20357
 C655 C 0.83057 -0.25010 -0.15135
 C656 C 0.84293 -0.27709 -0.12514
 C657 C 0.86467 -0.25675 -0.09862
 C658 C 0.87428 -0.20930 -0.09816
 C659 C 0.80084 -0.19520 -0.20429
 C660 C 0.77870 -0.21543 -0.22465
 C661 C 0.89420 -0.11175 -0.09618
 C662 C 0.91309 -0.09540 -0.07274
 H663 H 0.88472 -0.03928 -0.13052
 H664 H 0.86152 0.00739 -0.17621
 H665 H 0.82244 -0.02868 -0.22315
 H666 H 0.80595 -0.11173 -0.22464
 H667 H 0.81385 -0.26765 -0.17143
 H668 H 0.83554 -0.31397 -0.12542
 H669 H 0.87421 -0.27786 -0.07831
 H670 H 0.89133 -0.19515 -0.07698
 C671 C 0.87138 0.36941 0.37719
 C672 C 0.86309 0.32091 0.37646
 C673 C 0.84128 0.29992 0.34924
 C674 C 0.82745 0.32760 0.32300
 C675 C 0.83594 0.37605 0.32364
 C676 C 0.85802 0.39705 0.35082
 C677 C 0.86597 0.44559 0.35099
 C678 C 0.85242 0.47263 0.32507
 C679 C 0.83087 0.45208 0.29850
 C680 C 0.82264 0.40434 0.29766
 C681 C 0.83356 0.25130 0.34905
 C682 C 0.84652 0.22433 0.37512
 C683 C 0.86761 0.24491 0.40181
 C684 C 0.87599 0.29259 0.40258
 C685 C 0.80257 0.30604 0.29635
 C686 C 0.78079 0.28556 0.27589
 C687 C 0.89380 0.39055 0.40508
 C688 C 0.91274 0.40705 0.42846
 H689 H 0.88258 0.46314 0.37113
 H690 H 0.85858 0.50972 0.32561
 H691 H 0.82045 0.47325 0.27843
 H692 H 0.80584 0.38985 0.27648
 H693 H 0.81738 0.23355 0.32883
 H694 H 0.84008 0.18727 0.37462
 H695 H 0.87762 0.22382 0.42202
 H696 H 0.89257 0.30693 0.42388
 C697 C 0.37037 -0.13019 0.37447
 C698 C 0.36041 -0.17837 0.37481
 C699 C 0.33846 -0.19999 0.34784
 C700 C 0.32595 -0.17321 0.32082
 C701 C 0.33616 -0.12511 0.32037
 C702 C 0.35853 -0.10353 0.34725
 C703 C 0.36826 -0.05537 0.34626
 C704 C 0.35619 -0.02924 0.31953
 C705 C 0.33434 -0.05033 0.29329
 C706 C 0.32434 -0.09773 0.29358
 C707 C 0.32925 -0.24831 0.34871
 C708 C 0.34074 -0.27435 0.37557
 C709 C 0.36182 -0.25314 0.40203
 C710 C 0.37174 -0.20577 0.40176
 C711 C 0.30061 -0.19528 0.29448
 C712 C 0.27840 -0.21623 0.27444
 C713 C 0.39276 -0.10836 0.40220
 C714 C 0.41147 -0.09138 0.42556
 H715 H 0.38519 -0.03743 0.36611
 H716 H 0.36376 0.00759 0.31920
 H717 H 0.32507 -0.02986 0.27260
 H718 H 0.30736 -0.11267 0.27261
 H719 H 0.31301 -0.26653 0.32871
 H720 H 0.33314 -0.31118 0.37587
 H721 H 0.37062 -0.27352 0.42288
 H722 H 0.38829 -0.19093 0.42292
 C723 C 0.37110 0.37001 -0.12342
 C724 C 0.36170 0.32172 -0.12312
 C725 C 0.33971 0.30003 -0.15000
 C726 C 0.32679 0.32683 -0.17690
 C727 C 0.33647 0.37503 -0.17732
 C728 C 0.35875 0.39672 -0.15049
 C729 C 0.36790 0.44501 -0.15137
 C730 C 0.35532 0.47114 -0.17798
 C731 C 0.33360 0.44991 -0.20422
 C732 C 0.32419 0.40240 -0.20402
 C733 C 0.33089 0.25163 -0.14919
 C734 C 0.34296 0.22556 -0.12246
 C735 C 0.36420 0.24684 -0.09609
 C736 C 0.37364 0.29431 -0.09630
 C737 C 0.30164 0.30472 -0.20318
 C738 C 0.27963 0.28405 -0.22340
 C739 C 0.39343 0.39191 -0.09580
 C740 C 0.41214 0.40898 -0.07253
 H741 H 0.38473 0.46305 -0.13152
 H742 H 0.36239 0.50806 -0.17823
 H743 H 0.32396 0.47037 -0.22484
 H744 H 0.30728 0.38736 -0.22499
 H745 H 0.31455 0.23338 -0.16913
 H746 H 0.33570 0.18866 -0.12221
 H747 H 0.37348 0.22644 -0.07536
 H748 H 0.39032 0.30921 -0.07522
 C749 C 1.12717 -0.13330 0.12276
 C750 C 1.11193 -0.12288 0.15448
 C751 C 1.13282 -0.14437 0.18142
 C752 C 1.16900 -0.17592 0.17649
 C753 C 1.18400 -0.18662 0.14472
 C754 C 1.16300 -0.16529 0.11782
 C755 C 1.17844 -0.17677 0.08633
 C756 C 1.21353 -0.20848 0.08154
 C757 C 1.23410 -0.22932 0.10783
 C758 C 1.21972 -0.21859 0.13908
 C759 C 1.11670 -0.13383 0.21283
 C760 C 1.08083 -0.10301 0.21754
 C761 C 1.06044 -0.08195 0.19125
 C762 C 1.07582 -0.09146 0.16003
 C763 C 1.19110 -0.19789 0.20371
 C764 C 1.21166 -0.21811 0.22440
 C765 C 1.10549 -0.11195 0.09512
 C766 C 1.08738 -0.09502 0.07195
 H767 H 1.16355 -0.16149 0.06509
 H768 H 1.22482 -0.21691 0.05730
 H769 H 1.26136 -0.25394 0.10400
 H770 H 1.23690 -0.23574 0.15868
 H771 H 1.13152 -0.14942 0.23400
 H772 H 1.06879 -0.09542 0.24173
 H773 H 1.03260 -0.05802 0.19504
 H774 H 1.05890 -0.07420 0.14035
 C775 C 1.13098 0.37222 0.62150
 C776 C 1.12029 0.38768 0.65320
 C777 C 1.14020 0.36561 0.68025
 C778 C 1.17047 0.32813 0.67540
 C779 C 1.18137 0.31288 0.64365
 C780 C 1.16174 0.33514 0.61665
 C781 C 1.17338 0.31949 0.58516
 C782 C 1.20346 0.28279 0.58050
 C783 C 1.22245 0.26079 0.60690
 C784 C 1.21164 0.27548 0.63815
 C785 C 1.12914 0.38168 0.71169
 C786 C 1.09925 0.41858 0.71630
 C787 C 1.07973 0.44014 0.68986
 C788 C 1.08995 0.42496 0.65861
 C789 C 1.19115 0.30511 0.70266
 C790 C 1.21052 0.28396 0.72343
 C791 C 1.10935 0.39333 0.59386
 C792 C 1.09091 0.40975 0.57070
 H793 H 1.15948 0.33545 0.56383
 H794 H 1.21200 0.27130 0.55627
 H795 H 1.24569 0.23219 0.60318
 H796 H 1.22725 0.25709 0.65784
 H797 H 1.14347 0.36592 0.73296
 H798 H 1.09117 0.43051 0.74051
 H799 H 1.05657 0.46880 0.69357
 H800 H 1.07405 0.44289 0.63881
 C801 C 0.62534 -0.13014 0.62098
 C802 C 0.61623 -0.11380 0.65273
 C803 C 0.63710 -0.13545 0.67959
 C804 C 0.66675 -0.17338 0.67451
 C805 C 0.67575 -0.18979 0.64274
 C806 C 0.65517 -0.16796 0.61590
 C807 C 0.66500 -0.18474 0.58438
 C808 C 0.69420 -0.22212 0.57951
 C809 C 0.71410 -0.24370 0.60575
 C810 C 0.70507 -0.22792 0.63703
 C811 C 0.62763 -0.11849 0.71108
 C812 C 0.59827 -0.08120 0.71593
 C813 C 0.57779 -0.06009 0.68969
 C814 C 0.58654 -0.07605 0.65839
 C815 C 0.68875 -0.19560 0.70157
 C816 C 0.70900 -0.21611 0.72222
 C817 C 0.60353 -0.10875 0.59351
 C818 C 0.58532 -0.09189 0.57040
 H819 H 0.65031 -0.16918 0.56316
 H820 H 0.70134 -0.23448 0.55524
 H821 H 0.73667 -0.27281 0.60187
 H822 H 0.72126 -0.24604 0.65661
 H823 H 0.64276 -0.13388 0.73221
 H824 H 0.59136 -0.06863 0.74018
 H825 H 0.55500 -0.03120 0.69359
 H826 H 0.56985 -0.05847 0.63875
 C827 C 0.62730 0.37067 0.12148
 C828 C 0.62188 0.38947 0.15304
 C829 C 0.64261 0.36743 0.17980
 C830 C 0.66833 0.32659 0.17487
 C831 C 0.67330 0.30749 0.14335
 C832 C 0.65302 0.32977 0.11657
 C833 C 0.65899 0.31032 0.08527
 C834 C 0.68408 0.26990 0.08058
 C835 C 0.70356 0.24787 0.10679
 C836 C 0.69830 0.26623 0.13785
 C837 C 0.63694 0.38692 0.21107
 C838 C 0.61127 0.42695 0.21582
 C839 C 0.59080 0.44835 0.18970
 C840 C 0.59602 0.43007 0.15860
 C841 C 0.69074 0.30441 0.20181
 C842 C 0.71117 0.28414 0.22251
 C843 C 0.60569 0.39265 0.09411
 C844 C 0.58739 0.40991 0.07116
 H845 H 0.64439 0.32610 0.06411
 H846 H 0.68832 0.25554 0.05648
 H847 H 0.72294 0.21640 0.10305
 H848 H 0.71395 0.24763 0.15743
 H849 H 0.65211 0.37136 0.23212
 H850 H 0.60715 0.44139 0.23991
 H851 H 0.57071 0.47923 0.19356
 H852 H 0.57956 0.44804 0.13904
 C853 C 0.86962 0.12835 0.12239
 C854 C 0.85369 0.17442 0.11975
 C855 C 0.83216 0.19637 0.14654
 C856 C 0.82615 0.17191 0.17570
 C857 C 0.84202 0.12584 0.17835
 C858 C 0.86386 0.10397 0.15160
 C859 C 0.87934 0.05783 0.15474
 C860 C 0.87340 0.03396 0.18350
 C861 C 0.85207 0.05538 0.20965
 C862 C 0.83648 0.10081 0.20724
 C863 C 0.81688 0.24263 0.14338
 C864 C 0.82216 0.26626 0.11448
 C865 C 0.84289 0.24464 0.08821
 C866 C 0.85866 0.19932 0.09069
 C867 C 0.80204 0.19402 0.20227
 C868 C 0.78066 0.21457 0.22268
 C869 C 0.89230 0.10643 0.09511
 C870 C 0.91135 0.08925 0.07218
 H871 H 0.89607 0.03972 0.13503
 H872 H 0.88541 -0.00134 0.18548
 H873 H 0.84757 0.03669 0.23194
 H874 H 0.82013 0.11608 0.22822
 H875 H 0.80064 0.26107 0.16312
 H876 H 0.80997 0.30148 0.11246
 H877 H 0.84686 0.26311 0.06578
 H878 H 0.87464 0.18406 0.06958
 C879 C 0.87121 0.63055 0.62258
 C880 C 0.85899 0.67796 0.62145
 C881 C 0.83641 0.69901 0.64814
 C882 C 0.82573 0.67240 0.67568
 C883 C 0.83803 0.62504 0.67686
 C884 C 0.86088 0.60402 0.65021
 C885 C 0.87266 0.55654 0.65183
 C886 C 0.86217 0.53057 0.67902
 C887 C 0.83988 0.55115 0.70508
 C888 C 0.82786 0.59786 0.70415
 C889 C 0.82477 0.74657 0.64651
 C890 C 0.83463 0.77238 0.61915
 C891 C 0.85644 0.75170 0.59297
 C892 C 0.86867 0.70509 0.59400
 C893 C 0.80048 0.69381 0.70198
 C894 C 0.77849 0.71400 0.72222
 C895 C 0.89430 0.60929 0.59523
 C896 C 0.91347 0.59253 0.57220
 H897 H 0.88999 0.53902 0.63214
 H898 H 0.87139 0.49427 0.67985
 H899 H 0.83183 0.53083 0.72615
 H900 H 0.81059 0.61242 0.72499
 H901 H 0.80787 0.76436 0.66626
 H902 H 0.82518 0.80860 0.61827
 H903 H 0.86400 0.77188 0.57175
 H904 H 0.88568 0.69063 0.57303
 C905 C 0.36959 0.12890 0.62322
 C906 C 0.36069 0.17715 0.62327
 C907 C 0.33898 0.19833 0.65027
 C908 C 0.32577 0.17104 0.67694
 C909 C 0.33492 0.12286 0.67700
 C910 C 0.35693 0.10169 0.65004
 C911 C 0.36548 0.05340 0.65054
 C912 C 0.35260 0.02678 0.67692
 C913 C 0.33119 0.04752 0.70329
 C914 C 0.32236 0.09502 0.70347
 C915 C 0.33071 0.24672 0.64983
 C916 C 0.34301 0.27326 0.62331
 C917 C 0.36392 0.25247 0.59680
 C918 C 0.37286 0.20503 0.59667
 C919 C 0.30085 0.19268 0.70331
 C920 C 0.27909 0.21314 0.72356
 C921 C 0.39190 0.10762 0.59554
 C922 C 0.41071 0.09123 0.57223
 H923 H 0.38205 0.03573 0.63057
 H924 H 0.35918 -0.01014 0.67687
 H925 H 0.32132 0.02669 0.72372
 H926 H 0.30568 0.10967 0.72452
 H927 H 0.31463 0.26462 0.66988
 H928 H 0.33617 0.31014 0.62334
 H929 H 0.37336 0.27322 0.57622
 H930 H 0.38930 0.19053 0.57549
 C931 C 0.36817 0.62806 0.12537
 C932 C 0.32007 0.63210 0.12484
 C933 C 0.29699 0.65279 0.15152
 C934 C 0.32212 0.66942 0.17861
 C935 C 0.37015 0.66499 0.17929
 C936 C 0.39327 0.64433 0.15259
 C937 C 0.44138 0.64106 0.15363
 C938 C 0.46595 0.65793 0.18020
 C939 C 0.44334 0.67785 0.20635
 C940 C 0.39597 0.68139 0.20605
 C941 C 0.24893 0.65684 0.15023
 C942 C 0.22440 0.64118 0.12332
 C943 C 0.24695 0.62100 0.09725
 C944 C 0.29420 0.61633 0.09789
 C945 C 0.29858 0.69377 0.20460
 C946 C 0.27752 0.71554 0.22462
 C947 C 0.39177 0.60831 0.09756
 C948 C 0.41096 0.59233 0.07420
 H949 H 0.46051 0.62572 0.13391
 H950 H 0.50275 0.65572 0.18047
 H951 H 0.46261 0.69079 0.22695
 H952 H 0.37986 0.69720 0.22693
 H953 H 0.22977 0.67219 0.16991
 H954 H 0.18769 0.64475 0.12270
 H955 H 0.22773 0.60887 0.07640
 H956 H 0.31016 0.60035 0.07703
   
