data_POSCAR
  _audit_creation_date              2014-09-24
  _audit_creation_method            'ToBaCCo'
  _symmetry_space_group_name_H-M    'P1'
  _symmetry_Int_Tables_number       1
  _symmetry_cell_setting            triclinic
  loop_
  _symmetry_equiv_pos_as_xyz
 x,y,z
_cell_length_a 45.2701
_cell_length_b 45.2194
_cell_length_c 45.1171
_cell_angle_alpha 89.873400
_cell_angle_beta 90.218500
_cell_angle_gamma 89.913200
loop_
  _atom_site_label
  _atom_site_type_symbol
  _atom_site_fract_x
  _atom_site_fract_y
  _atom_site_fract_z
Si1 Si 0.25002 0.50112 0.99963
 Si2 Si 0.74976 0.49952 0.00051
 Si3 Si -0.00020 0.24972 0.50182
 Si4 Si 1.00030 0.75011 0.49860
 Si5 Si 0.49898 0.00034 0.25011
 Si6 Si 0.50143 0.00044 0.75003
 C7 C 0.29458 0.02350 0.46524
 H8 H 0.29488 0.04017 0.48240
 C9 C 0.31494 0.02480 0.44214
 H10 H 0.33057 0.04289 0.44142
 C11 C 0.27395 -0.02050 0.44570
 H12 H 0.25845 -0.03853 0.44758
 C13 C 0.29395 -0.02006 0.42218
 H14 H 0.29356 -0.03784 0.40615
 N15 N 0.27461 0.00112 0.46660
 C16 C 0.20505 0.03448 0.52412
 H17 H 0.20495 0.01723 0.54079
 C18 C 0.18458 0.05752 0.52559
 H19 H 0.16906 0.05809 0.54378
 C20 C 0.22534 0.05435 0.48004
 H21 H 0.24078 0.05263 0.46193
 C22 C 0.20523 0.07781 0.48064
 H23 H 0.20545 0.09396 0.46290
 Zn24 Zn 0.24990 -0.00021 0.50029
 N25 N 0.22492 0.03332 0.50164
 C26 C 0.27456 0.02015 0.55472
 N27 N 0.27505 -0.00150 0.53384
 C28 C 0.29513 -0.02385 0.53513
 C29 C 0.31578 -0.02510 0.55813
 C30 C 0.29485 0.01976 0.57814
 C31 C 0.20487 -0.03493 0.47672
 C32 C 0.18444 -0.05796 0.47540
 C33 C 0.20573 -0.07821 0.52026
 C34 C 0.22580 -0.05476 0.52071
 N35 N 0.22503 -0.03375 0.49908
 H36 H 0.25896 0.03816 0.55290
 H37 H 0.29528 -0.04054 0.51798
 H38 H 0.33149 -0.04317 0.55880
 H39 H 0.29458 0.03755 0.59416
 H40 H 0.20450 -0.01771 0.46004
 H41 H 0.16867 -0.05854 0.45731
 H42 H 0.20623 -0.09434 0.53802
 H43 H 0.24148 -0.05302 0.53872
 C44 C 0.18432 0.07947 0.50352
 C45 C 0.31498 0.00268 0.42034
 C46 C 0.18452 -0.07988 0.49751
 C47 C 0.31599 -0.00296 0.57992
 C48 C 0.70539 0.02262 0.53582
 H49 H 0.70452 0.03956 0.51887
 C50 C 0.68558 0.02341 0.55944
 H51 H 0.66937 0.04099 0.56040
 C52 C 0.72678 -0.02165 0.55423
 H53 H 0.74251 -0.03946 0.55185
 C54 C 0.70735 -0.02175 0.57821
 H55 H 0.70878 -0.03940 0.59440
 N56 N 0.72554 0.00041 0.53371
 C57 C 0.79520 0.03508 0.47709
 H58 H 0.79548 0.01815 0.46019
 C59 C 0.81566 0.05809 0.47616
 H60 H 0.83136 0.05897 0.45814
 C61 C 0.77443 0.05418 0.52123
 H62 H 0.75879 0.05218 0.53914
 C63 C 0.79453 0.07761 0.52117
 H64 H 0.79411 0.09345 0.53913
 Zn65 Zn 0.75014 0.00004 0.49989
 N66 N 0.77509 0.03356 0.49934
 C67 C 0.72603 0.02183 0.44571
 N68 N 0.72510 -0.00026 0.46621
 C69 C 0.70495 -0.02243 0.46417
 C70 C 0.68482 -0.02314 0.44067
 C71 C 0.70629 0.02200 0.42185
 C72 C 0.79554 -0.03507 0.52242
 C73 C 0.81607 -0.05809 0.52323
 C74 C 0.79438 -0.07758 0.47834
 C75 C 0.77422 -0.05414 0.47840
 N76 N 0.77514 -0.03352 0.50029
 H77 H 0.74177 0.03960 0.44803
 H78 H 0.70432 -0.03940 0.48110
 H79 H 0.66862 -0.04070 0.43977
 H80 H 0.70748 0.03968 0.40568
 H81 H 0.79602 -0.01813 0.53932
 H82 H 0.83202 -0.05898 0.54115
 H83 H 0.79375 -0.09342 0.46039
 H84 H 0.75834 -0.05212 0.46059
 C85 C 0.81567 0.07964 0.49854
 C86 C 0.68631 0.00094 0.58098
 C87 C 0.81583 -0.07963 0.50085
 C88 C 0.68524 -0.00064 0.41916
 C89 C 0.47668 0.20557 1.03541
 H90 H 0.45986 0.20482 1.01834
 C91 C 0.47580 0.18559 1.05902
 H92 H 0.45825 0.16937 1.05985
 C93 C 0.52077 0.22680 1.05415
 H94 H 0.53855 0.24252 1.05190
 C95 C 0.52076 0.20721 1.07812
 H96 H 0.53830 0.20851 1.09444
 N97 N 0.49886 0.22572 1.03346
 C98 C 0.46476 0.29586 0.97640
 H99 H 0.48187 0.29619 0.95972
 C100 C 0.44178 0.31641 0.97515
 H101 H 0.44111 0.33223 0.95711
 C102 C 0.44518 0.27486 1.02028
 H103 H 0.44697 0.25909 1.03821
 C104 C 0.42177 0.29505 1.01990
 H105 H 0.40573 0.29456 1.03763
 Zn106 Zn 0.49951 0.25052 0.99963
 N107 N 0.46603 0.27560 0.99867
 C108 C 0.47828 0.22676 0.94524
 N109 N 0.50015 0.22564 0.96597
 C110 C 0.52231 0.20541 0.96418
 C111 C 0.52323 0.18539 0.94070
 C112 C 0.47832 0.20713 0.92138
 C113 C 0.53428 0.29574 1.02260
 C114 C 0.55734 0.31613 1.02380
 C115 C 0.57743 0.29455 0.97925
 C116 C 0.55394 0.27453 0.97891
 N117 N 0.53302 0.27545 1.00045
 H118 H 0.46050 0.24256 0.94735
 H119 H 0.53911 0.20463 0.98129
 H120 H 0.54078 0.16911 0.94000
 H121 H 0.46081 0.20847 0.90502
 H122 H 0.51712 0.29622 1.03922
 H123 H 0.55801 0.33197 1.04175
 H124 H 0.59353 0.29392 0.96159
 H125 H 0.55215 0.25874 0.96108
 C126 C 0.42000 0.31634 0.99723
 C127 C 0.49813 0.18615 1.08072
 C128 C 0.57921 0.31586 1.00181
 C129 C 0.50095 0.18600 0.91895
 C130 C 0.47766 0.79496 -0.03612
 H131 H 0.46084 0.79600 -0.01918
 C132 C 0.47701 0.81489 -0.05979
 H133 H 0.45964 0.83135 -0.06080
 C134 C 0.52156 0.77311 -0.05440
 H135 H 0.53920 0.75719 -0.05193
 C136 C 0.52178 0.79264 -0.07842
 H137 H 0.53934 0.79109 -0.09456
 N138 N 0.49965 0.77456 -0.03390
 C139 C 0.46479 0.70570 0.02388
 H140 H 0.48181 0.70545 0.04077
 C141 C 0.44165 0.68541 0.02515
 H142 H 0.44076 0.66989 0.04343
 C143 C 0.44563 0.72616 -0.02062
 H144 H 0.44766 0.74159 -0.03881
 C145 C 0.42207 0.70622 -0.02023
 H146 H 0.40616 0.70656 -0.03821
 Zn147 Zn 0.50011 0.75011 0.00019
 N148 N 0.46636 0.72554 0.00127
 C149 C 0.47925 0.77515 0.05406
 N150 N 0.50114 0.77544 0.03349
 C151 C 0.52362 0.79529 0.03503
 C152 C 0.52479 0.81584 0.05802
 C153 C 0.47956 0.79534 0.07746
 C154 C 0.53441 0.70423 -0.02213
 C155 C 0.55730 0.68358 -0.02303
 C156 C 0.57763 0.70528 0.02147
 C157 C 0.55430 0.72556 0.02151
 N158 N 0.53335 0.72472 -0.00017
 H159 H 0.46116 0.75974 0.05204
 H160 H 0.54051 0.79528 0.01813
 H161 H 0.54298 0.83133 0.05893
 H162 H 0.46160 0.79520 0.09324
 H163 H 0.51723 0.70383 -0.03886
 H164 H 0.55783 0.66760 -0.04085
 H165 H 0.59377 0.70589 0.03922
 H166 H 0.55266 0.74152 0.03921
 C167 C 0.42002 0.68531 0.00275
 C168 C 0.49938 0.81401 -0.08126
 C169 C 0.57922 0.68379 -0.00091
 C170 C 0.50244 0.81619 0.07954
 C171 C 1.03588 0.47581 0.20465
 H172 H 1.01879 0.45912 0.20422
 C173 C 1.05881 0.47479 0.18411
 H174 H 1.05947 0.45691 0.16821
 C175 C 1.05547 0.51952 0.22585
 H176 H 1.05369 0.53730 0.24169
 C177 C 1.07883 0.51936 0.20569
 H178 H 1.09484 0.53711 0.20627
 N179 N 1.03464 0.49788 0.22501
 C180 C 0.97861 0.46289 0.29515
 H181 H 0.96189 0.47998 0.29595
 C182 C 0.97772 0.43936 0.31520
 H183 H 0.96026 0.43862 0.33153
 C184 C 1.02248 0.44404 0.27375
 H185 H 1.04019 0.44623 0.25793
 C186 C 1.02246 0.42015 0.29342
 H187 H 1.03992 0.40382 0.29209
 Zn188 Zn 1.00131 0.49858 0.25015
 N189 N 1.00069 0.46475 0.27489
 C190 C 0.94686 0.47799 0.22590
 N191 N 0.96764 0.49968 0.22524
 C192 C 0.96612 0.52209 0.20515
 C193 C 0.94297 0.52339 0.18470
 C194 C 0.92329 0.47843 0.20581
 C195 C 1.02470 0.53351 0.29536
 C196 C 1.02592 0.55667 0.31571
 C197 C 0.98083 0.57627 0.29457
 C198 C 0.98048 0.55271 0.27459
 N199 N 1.00229 0.53199 0.27529
 H200 H 0.94885 0.45996 0.24152
 H201 H 0.98318 0.53882 0.20487
 H202 H 0.94211 0.54152 0.16901
 H203 H 0.90733 0.46062 0.20622
 H204 H 1.04154 0.51650 0.29567
 H205 H 1.04407 0.55758 0.33137
 H206 H 0.96295 0.59220 0.29409
 H207 H 0.96244 0.55070 0.25901
 C208 C 0.99993 0.41765 0.31460
 C209 C 1.08058 0.49689 0.18431
 C210 C 1.00368 0.57837 0.31562
 C211 C 0.92127 0.50122 0.18469
 C212 C -0.03722 0.47870 0.79580
 H213 H -0.02003 0.46209 0.79709
 C214 C -0.06074 0.47794 0.81567
 H215 H -0.06138 0.46073 0.83237
 C216 C -0.05637 0.52208 0.77322
 H217 H -0.05433 0.53952 0.75697
 C218 C -0.08028 0.52219 0.79271
 H219 H -0.09674 0.53948 0.79084
 N220 N -0.03553 0.50043 0.77500
 C221 C 0.02099 0.46414 0.70601
 H222 H 0.03777 0.48112 0.70503
 C223 C 0.02190 0.44038 0.68633
 H224 H 0.03943 0.43935 0.67011
 C225 C -0.02305 0.44582 0.72749
 H226 H -0.04084 0.44829 0.74317
 C227 C -0.02301 0.42171 0.70819
 H228 H -0.04054 0.40551 0.70968
 Zn229 Zn -0.00186 0.50052 0.75028
 N230 N -0.00119 0.46638 0.72612
 C231 C 0.05232 0.47983 0.77518
 N232 N 0.03161 0.50165 0.77548
 C233 C 0.03317 0.52427 0.79522
 C234 C 0.05634 0.52568 0.81564
 C235 C 0.07590 0.48037 0.79524
 C236 C -0.02450 0.53488 0.70406
 C237 C -0.02545 0.55779 0.68332
 C238 C 0.01925 0.57763 0.70486
 C239 C 0.01934 0.55430 0.72522
 N240 N -0.00242 0.53359 0.72453
 H241 H 0.05030 0.46164 0.75984
 H242 H 0.01617 0.54111 0.79522
 H243 H 0.05727 0.54400 0.83102
 H244 H 0.09183 0.46248 0.79509
 H245 H -0.04129 0.51788 0.70377
 H246 H -0.04336 0.55852 0.66737
 H247 H 0.03707 0.59356 0.70536
 H248 H 0.03714 0.55248 0.74113
 C249 C -0.00040 0.41883 0.68716
 C250 C -0.08265 0.49994 0.81435
 C251 C -0.00327 0.57949 0.68343
 C252 C 0.07802 0.50342 0.81596
 C253 C 0.14756 0.15475 0.49578
 C254 C 0.11843 0.14809 0.50364
 C255 C 0.11093 0.11917 0.51167
 C256 C 0.13239 0.09694 0.51177
 C257 C 0.03220 0.22606 0.50217
 C258 C 0.16910 0.13251 0.49586
 C259 C 0.09596 0.17065 0.50315
 C260 C 0.07649 0.18885 0.50280
 C261 C 0.05294 0.20933 0.50244
 C262 C 0.16173 0.10333 0.50384
 H263 H 0.15360 0.17708 0.48955
 H264 H 0.08842 0.11374 0.51764
 H265 H 0.12588 0.07464 0.51754
 H266 H 0.19155 0.13817 0.48993
 C267 C 0.65449 0.64722 0.00714
 C268 C 0.64783 0.61791 -0.00020
 C269 C 0.61888 0.61019 -0.00781
 C270 C 0.59663 0.63162 -0.00810
 C271 C 0.72603 0.53189 0.00061
 C272 C 0.63223 0.66874 0.00689
 C273 C 0.67046 0.59552 0.00023
 C274 C 0.68872 0.57610 0.00045
 C275 C 0.70926 0.55259 0.00058
 C276 C 0.60304 0.66116 -0.00077
 H277 H 0.67685 0.65344 0.01304
 H278 H 0.61345 0.58755 -0.01339
 H279 H 0.57432 0.62497 -0.01360
 H280 H 0.63790 0.69134 0.01235
 C281 C 0.88939 -0.11941 0.50755
 C282 C 0.88171 -0.14824 0.49945
 C283 C 0.85243 -0.15479 0.49187
 C284 C 0.83091 -0.13254 0.49237
 C285 C 0.96787 -0.22627 0.49824
 C286 C 0.86796 -0.09718 0.50808
 C287 C 0.90412 -0.17085 0.49880
 C288 C 0.92357 -0.18907 0.49844
 C289 C 0.94712 -0.20956 0.49823
 C290 C 0.83845 -0.10346 0.50051
 H291 H 0.91201 -0.11406 0.51332
 H292 H 0.84624 -0.17705 0.48560
 H293 H 0.80834 -0.13812 0.48670
 H294 H 0.87459 -0.07495 0.51395
 C295 C 0.38036 0.38995 0.98961
 C296 C 0.35149 0.38234 0.99745
 C297 C 0.34485 0.35308 1.00509
 C298 C 0.36706 0.33151 1.00494
 C299 C 0.27365 0.46868 0.99906
 C300 C 0.40256 0.36847 0.98943
 C301 C 0.32896 0.40483 0.99796
 C302 C 0.31078 0.42433 0.99833
 C303 C 0.29034 0.44791 0.99872
 C304 C 0.39619 0.33899 0.99710
 H305 H 0.38578 0.41256 0.98381
 H306 H 0.32256 0.34695 1.01118
 H307 H 0.36141 0.30896 1.01067
 H308 H 0.42482 0.37506 0.98378
 C309 C 0.85221 0.15476 0.50740
 C310 C 0.88141 0.14820 0.49968
 C311 C 0.88904 0.11938 0.49147
 C312 C 0.86765 0.09717 0.49100
 C313 C 0.96743 0.22611 0.50157
 C314 C 0.83072 0.13253 0.50696
 C315 C 0.90379 0.17076 0.50039
 C316 C 0.92322 0.18896 0.50087
 C317 C 0.94672 0.20941 0.50130
 C318 C 0.83822 0.10347 0.49874
 H319 H 0.84605 0.17701 0.51377
 H320 H 0.91161 0.11402 0.48559
 H321 H 0.87425 0.07494 0.48506
 H322 H 0.80821 0.13813 0.51276
 C323 C 0.34485 0.64889 -0.00591
 C324 C 0.35133 0.61970 0.00223
 C325 C 0.38010 0.61205 0.01072
 C326 C 0.40234 0.63341 0.01103
 C327 C 0.27354 0.53356 0.00015
 C328 C 0.36711 0.67035 -0.00563
 C329 C 0.32878 0.59731 0.00154
 C330 C 0.31060 0.57786 0.00104
 C331 C 0.29019 0.55431 0.00054
 C332 C 0.39613 0.66282 0.00284
 H333 H 0.32264 0.65506 -0.01251
 H334 H 0.38540 0.58948 0.01691
 H335 H 0.42453 0.62678 0.01717
 H336 H 0.36158 0.69285 -0.01178
 C337 C 0.14799 -0.15510 0.50551
 C338 C 0.11875 -0.14841 0.49781
 C339 C 0.11109 -0.11948 0.48984
 C340 C 0.13250 -0.09728 0.48961
 C341 C 0.03268 -0.22629 0.49881
 C342 C 0.16949 -0.13289 0.50532
 C343 C 0.09635 -0.17096 0.49830
 C344 C 0.07691 -0.18915 0.49859
 C345 C 0.05340 -0.20960 0.49878
 C346 C 0.16196 -0.10370 0.49737
 H347 H 0.15416 -0.17744 0.51169
 H348 H 0.08850 -0.11402 0.48397
 H349 H 0.12588 -0.07497 0.48387
 H350 H 0.19202 -0.13858 0.51112
 C351 C 0.65463 0.35191 0.99423
 C352 C 0.64812 0.38123 1.00172
 C353 C 0.61924 0.38911 1.00932
 C354 C 0.59691 0.36784 1.00943
 C355 C 0.72625 0.46706 1.00076
 C356 C 0.63228 0.33055 0.99431
 C357 C 0.67080 0.40350 1.00134
 C358 C 0.68907 0.42286 1.00111
 C359 C 0.70956 0.44634 1.00091
 C360 C 0.60315 0.33830 1.00193
 H361 H 0.67692 0.34558 0.98833
 H362 H 0.61393 0.41177 1.01500
 H363 H 0.57465 0.37463 1.01491
 H364 H 0.63782 0.30795 0.98872
 C365 C 0.52497 0.12948 1.13691
 C366 C 0.49847 0.12103 1.15033
 C367 C 0.47192 0.13439 1.14157
 C368 C 0.47182 0.15587 1.11922
 C369 C 0.49876 0.03294 1.22660
 C370 C 0.52492 0.15097 1.11459
 C371 C 0.49842 0.09780 1.17220
 C372 C 0.49848 0.07786 1.18996
 C373 C 0.49861 0.05391 1.21008
 C374 C 0.49831 0.16426 1.10532
 H375 H 0.54562 0.11915 1.14339
 H376 H 0.45127 0.12799 1.15179
 H377 H 0.45103 0.16595 1.11284
 H378 H 0.54562 0.15661 1.10405
 C379 C -0.01033 0.61939 0.60968
 C380 C -0.00226 0.64822 0.61740
 C381 C 0.00529 0.65474 0.64678
 C382 C 0.00485 0.63246 0.66835
 C383 C 0.00001 0.72648 0.53114
 C384 C -0.01079 0.59712 0.63117
 C385 C -0.00147 0.67085 0.59494
 C386 C -0.00090 0.68914 0.57547
 C387 C -0.00035 0.70971 0.55192
 C388 C -0.00318 0.60337 0.66076
 H389 H -0.01608 0.61407 0.58698
 H390 H 0.01153 0.67700 0.65301
 H391 H 0.01052 0.63803 0.69099
 H392 H -0.01661 0.57488 0.62450
 C393 C 0.47389 0.86635 -0.14217
 C394 C 0.50059 0.87943 -0.15055
 C395 C 0.52697 0.87054 -0.13692
 C396 C 0.52665 0.84892 -0.11473
 C397 C 0.50138 0.96792 -0.22635
 C398 C 0.47351 0.84473 -0.11996
 C399 C 0.50081 0.90282 -0.17224
 C400 C 0.50102 0.92288 -0.18988
 C401 C 0.50124 0.94692 -0.20987
 C402 C 0.49987 0.83593 -0.10582
 H403 H 0.45334 0.87308 -0.15257
 H404 H 0.54774 0.88065 -0.14311
 H405 H 0.54725 0.84295 -0.10400
 H406 H 0.45260 0.83489 -0.11385
 C407 C 0.97364 0.35731 0.36685
 C408 C 1.00019 0.34861 0.38029
 C409 C 1.02673 0.36184 0.37167
 C410 C 1.02672 0.38395 0.34996
 C411 C 0.99991 0.27319 0.46915
 C412 C 0.97357 0.37943 0.34514
 C413 C 1.00008 0.32702 0.40377
 C414 C 1.00002 0.30947 0.42392
 C415 C 0.99996 0.28958 0.44806
 C416 C 1.00010 0.39318 0.33661
 H417 H 0.95296 0.34723 0.37337
 H418 H 1.04738 0.35541 0.38206
 H419 H 1.04744 0.39437 0.34420
 H420 H 0.95278 0.38579 0.33503
 C421 C 0.49356 0.85292 0.15468
 C422 C 0.50158 0.88208 0.14813
 C423 C 0.51016 0.88961 0.11933
 C424 C 0.51063 0.86815 0.09712
 C425 C 0.49917 0.96806 0.22630
 C426 C 0.49399 0.83138 0.13246
 C427 C 0.50073 0.90453 0.17068
 C428 C 0.50011 0.92395 0.18892
 C429 C 0.49952 0.94741 0.20948
 C430 C 0.50249 0.83878 0.10339
 H431 H 0.48691 0.84684 0.17692
 H432 H 0.51629 0.91214 0.11398
 H433 H 0.51682 0.87467 0.07489
 H434 H 0.48790 0.80891 0.13805
 C435 C -0.02718 0.36269 0.63075
 C436 C -0.00065 0.34920 0.62241
 C437 C 0.02587 0.35783 0.63585
 C438 C 0.02594 0.38014 0.65727
 C439 C -0.00033 0.27328 0.53432
 C440 C -0.02717 0.38498 0.65216
 C441 C -0.00052 0.32744 0.59918
 C442 C -0.00046 0.30977 0.57922
 C443 C -0.00039 0.28975 0.55527
 C444 C -0.00057 0.39414 0.66550
 H445 H -0.04781 0.35631 0.62035
 H446 H 0.04654 0.34755 0.62954
 H447 H 0.04672 0.38644 0.66738
 H448 H -0.04788 0.39560 0.65769
 C449 C 0.47431 0.12937 0.86295
 C450 C 0.50086 0.12085 0.84965
 C451 C 0.52737 0.13416 0.85842
 C452 C 0.52739 0.15565 0.88066
 C453 C 0.50124 0.03291 0.77359
 C454 C 0.47427 0.15086 0.88517
 C455 C 0.50101 0.09764 0.82787
 C456 C 0.50109 0.07771 0.81016
 C457 C 0.50116 0.05382 0.79010
 C458 C 0.50085 0.16410 0.89445
 H459 H 0.45369 0.11907 0.85646
 H460 H 0.54805 0.12772 0.84829
 H461 H 0.54815 0.16569 0.88706
 H462 H 0.45355 0.15655 0.89562
 C463 C 0.99513 0.65390 0.35139
 C464 C 1.00307 0.64765 0.38076
 C465 C 1.01147 0.61892 0.38874
 C466 C 1.01184 0.59648 0.36752
 C467 C 1.00067 0.72638 0.46624
 C468 C 0.99548 0.63145 0.33010
 C469 C 1.00227 0.67043 0.40297
 C470 C 1.00167 0.68882 0.42225
 C471 C 1.00107 0.70951 0.44561
 C472 C 1.00380 0.60245 0.33795
 H473 H 0.98862 0.67608 0.34497
 H474 H 1.01752 0.61381 0.41144
 H475 H 1.01789 0.57432 0.37440
 H476 H 0.98947 0.63681 0.30746
 C477 C 1.15566 0.50531 0.14784
 C478 C 1.14900 0.49791 0.11846
 C479 C 1.12014 0.49001 0.11069
 C480 C 1.09797 0.48955 0.13212
 C481 C 1.22661 0.50045 0.03217
 C482 C 1.13348 0.50488 0.16937
 C483 C 1.17150 0.49872 0.09602
 C484 C 1.18964 0.49932 0.07655
 C485 C 1.21001 0.49996 0.05296
 C486 C 1.10436 0.49700 0.16172
 H487 H 1.17795 0.51144 0.15410
 H488 H 1.11471 0.48439 0.08798
 H489 H 1.07571 0.48387 0.12541
 H490 H 1.13915 0.51043 0.19201
 C491 C 0.63006 -0.02598 0.63705
 C492 C 0.62169 0.00052 0.65060
 C493 C 0.63501 0.02709 0.64200
 C494 C 0.65635 0.02721 0.61967
 C495 C 0.53394 0.00052 0.72663
 C496 C 0.65140 -0.02592 0.61474
 C497 C 0.59857 0.00059 0.67242
 C498 C 0.57870 0.00060 0.69013
 C499 C 0.55484 0.00056 0.71017
 C500 C 0.66463 0.00072 0.60562
 H501 H 0.61975 -0.04665 0.64340
 H502 H 0.62867 0.04774 0.65233
 H503 H 0.66639 0.04801 0.61341
 H504 H 0.65697 -0.04662 0.60408
 C505 C -0.14294 0.47354 0.86630
 C506 C -0.15201 0.50015 0.87918
 C507 C -0.13908 0.52679 0.87023
 C508 C -0.11688 0.52680 0.84877
 C509 C -0.22714 0.49962 0.96774
 C510 C -0.12073 0.47349 0.84485
 C511 C -0.17361 0.50001 0.90250
 C512 C -0.19112 0.49988 0.92256
 C513 C -0.21091 0.49973 0.94665
 C514 C -0.10726 0.50010 0.83602
 H515 H -0.15279 0.45279 0.87308
 H516 H -0.14580 0.54750 0.88020
 H517 H -0.10668 0.54760 0.84276
 H518 H -0.11408 0.45263 0.83518
 C519 C 0.35149 -0.00571 0.34508
 C520 C 0.38070 0.00201 0.35175
 C521 C 0.38833 0.01017 0.38067
 C522 C 0.36692 0.01055 0.40288
 C523 C 0.46668 0.00026 0.27380
 C524 C 0.33000 -0.00536 0.36730
 C525 C 0.40310 0.00130 0.32920
 C526 C 0.42252 0.00082 0.31100
 C527 C 0.44600 0.00043 0.29053
 C528 C 0.33750 0.00276 0.39648
 H529 H 0.34534 -0.01203 0.32274
 H530 H 0.41090 0.01605 0.38611
 H531 H 0.37353 0.01642 0.42519
 H532 H 0.30750 -0.01118 0.36162
 C533 C 0.15356 0.49535 0.85219
 C534 C 0.14736 0.50360 0.88139
 C535 C 0.11866 0.51203 0.88912
 C536 C 0.09620 0.51213 0.86781
 C537 C 0.22617 0.50173 0.96722
 C538 C 0.13109 0.49542 0.83080
 C539 C 0.17015 0.50305 0.90372
 C540 C 0.18856 0.50262 0.92309
 C541 C 0.20927 0.50213 0.94654
 C542 C 0.10212 0.50378 0.83840
 H543 H 0.17571 0.48880 0.84597
 H544 H 0.11358 0.51831 0.91169
 H545 H 0.07407 0.51821 0.87450
 H546 H 0.13640 0.48918 0.80828
 C547 C 0.62828 0.02649 0.36340
 C548 C 0.61979 0.00002 0.34982
 C549 C 0.63323 -0.02658 0.35833
 C550 C 0.65482 -0.02679 0.38058
 C551 C 0.53153 0.00028 0.27371
 C552 C 0.64987 0.02634 0.38563
 C553 C 0.59648 0.00005 0.32803
 C554 C 0.57648 0.00011 0.31031
 C555 C 0.55250 0.00020 0.29023
 C556 C 0.66324 -0.00034 0.39464
 H557 H 0.61788 0.04718 0.35712
 H558 H 0.62681 -0.04721 0.34797
 H559 H 0.66496 -0.04762 0.38676
 H560 H 0.65554 0.04700 0.39630
 C561 C 0.84591 0.49311 0.14818
 C562 C 0.85230 0.50097 0.11888
 C563 C 0.88107 0.50909 0.11117
 C564 C 0.90341 0.50930 0.13259
 C565 C 0.77373 0.49964 0.03282
 C566 C 0.86827 0.49328 0.16969
 C567 C 0.82960 0.50045 0.09646
 C568 C 0.81127 0.50011 0.07702
 C569 C 0.79063 0.49981 0.05351
 C570 C 0.89729 0.50138 0.16212
 H571 H 0.82369 0.48681 0.15439
 H572 H 0.88629 0.51508 0.08852
 H573 H 0.92560 0.51516 0.12593
 H574 H 0.86281 0.48736 0.19228
 C575 C 0.38983 -0.01029 0.61930
 C576 C 0.38250 -0.00209 0.64823
 C577 C 0.35333 0.00557 0.65501
 C578 C 0.33159 0.00514 0.63288
 C579 C 0.46910 0.00023 0.72614
 C580 C 0.36817 -0.01075 0.59718
 C581 C 0.40515 -0.00126 0.67069
 C582 C 0.42473 -0.00067 0.68886
 C583 C 0.44835 -0.00011 0.70935
 C584 C 0.33879 -0.00300 0.60368
 H585 H 0.41237 -0.01613 0.61378
 H586 H 0.34741 0.01193 0.67736
 H587 H 0.30912 0.01093 0.63864
 H588 H 0.37455 -0.01664 0.57485
   
