data_POSCAR
  _audit_creation_date              2014-09-24
  _audit_creation_method            'ToBaCCo'
  _symmetry_space_group_name_H-M    'P1'
  _symmetry_Int_Tables_number       1
  _symmetry_cell_setting            triclinic
  loop_
  _symmetry_equiv_pos_as_xyz
 x,y,z
_cell_length_a 12.7830
_cell_length_b 12.8102
_cell_length_c 34.2998
_cell_angle_alpha 90.409800
_cell_angle_beta 89.835700
_cell_angle_gamma 120.166900
loop_
  _atom_site_label
  _atom_site_type_symbol
  _atom_site_fract_x
  _atom_site_fract_y
  _atom_site_fract_z
C1 C 0.08097 0.18384 0.54968
 H2 H 0.16376 0.18495 0.54215
 C3 C 0.08473 0.26859 0.57604
 H4 H 0.17081 0.33451 0.58859
 C5 C -0.13158 0.09351 0.54284
 H6 H -0.21568 0.02342 0.53058
 C7 C -0.13213 0.17668 0.56954
 H8 H -0.21727 0.17061 0.57715
 N9 N -0.02541 0.09941 0.53336
 C10 C 0.12994 -0.09840 0.54348
 H11 H 0.21421 -0.02801 0.53164
 C12 C 0.13042 -0.18036 0.57026
 H13 H 0.21568 -0.17318 0.57825
 C14 C -0.08297 -0.19019 0.54945
 H15 H -0.16589 -0.19226 0.54159
 C16 C -0.08677 -0.27378 0.57589
 H17 H -0.17301 -0.33985 0.58813
 Zn18 Zn -0.00077 -0.00372 0.49971
 N19 N 0.02362 -0.10569 0.53346
 C20 C 0.22579 0.09403 0.45582
 N21 N 0.12662 0.10067 0.46628
 C22 C 0.10552 0.18626 0.45113
 C23 C 0.18645 0.27153 0.42510
 C24 C 0.30938 0.17773 0.42945
 C25 C -0.22307 -0.09679 0.45419
 C26 C -0.30638 -0.17914 0.42722
 C27 C -0.19190 -0.28252 0.42529
 C28 C -0.11119 -0.19822 0.45188
 N29 N -0.12830 -0.10859 0.46611
 H30 H 0.23887 0.02282 0.46697
 H31 H 0.02454 0.18785 0.45929
 H32 H 0.16697 0.33834 0.41349
 H33 H 0.38749 0.17095 0.42107
 H34 H -0.23257 -0.02225 0.46463
 H35 H -0.38060 -0.16712 0.41796
 H36 H -0.17458 -0.35235 0.41473
 H37 H -0.03321 -0.20365 0.46107
 C38 C 0.02070 -0.26959 0.58676
 C39 C -0.02260 0.26572 0.58645
 C40 C -0.29137 -0.27398 0.41213
 C41 C 0.28987 0.26800 0.41378
 C42 C 1.18849 0.08312 0.11745
 H43 H 1.19059 0.16581 0.12570
 C44 C 1.27295 0.08729 0.09094
 H45 H 1.33977 0.17358 0.07907
 C46 C 1.09558 -0.12957 0.12240
 H47 H 1.02439 -0.21387 0.13388
 C48 C 1.17844 -0.12967 0.09554
 H49 H 1.17115 -0.21469 0.08711
 N50 N 1.10296 -0.02356 0.13294
 C51 C 0.90450 0.12946 0.12286
 H52 H 0.97635 0.21369 0.13445
 C53 C 0.82236 0.12993 0.09597
 H54 H 0.83081 0.21522 0.08765
 C55 C 0.80950 -0.08353 0.11758
 H56 H 0.80640 -0.16649 0.12569
 C57 C 0.72575 -0.08730 0.09099
 H58 H 0.65838 -0.17358 0.07894
 Zn59 Zn 0.99939 -0.00013 0.16672
 N60 N 0.89576 0.02315 0.13326
 C61 C 1.09597 0.22566 0.21117
 N62 N 1.10338 0.12717 0.20048
 C63 C 1.18901 0.10620 0.21589
 C64 C 1.27354 0.18654 0.24247
 C65 C 1.17891 0.30866 0.23809
 C66 C 0.90464 -0.22449 0.21075
 C67 C 0.82275 -0.30694 0.23773
 C68 C 0.72640 -0.18634 0.24260
 C69 C 0.80989 -0.10654 0.21591
 N70 N 0.89589 -0.12703 0.20024
 H71 H 1.02465 0.23855 0.19977
 H72 H 1.19110 0.02568 0.20754
 H73 H 1.34042 0.16719 0.25428
 H74 H 1.17159 0.38626 0.24665
 H75 H 0.97633 -0.23687 0.19918
 H76 H 0.83119 -0.38370 0.24613
 H77 H 0.65922 -0.16739 0.25463
 H78 H 0.80681 -0.02673 0.20773
 C79 C 0.73157 0.02022 0.07968
 C80 C 1.26862 -0.01987 0.07950
 C81 C 0.73222 -0.28794 0.25401
 C82 C 1.26916 0.28921 0.25407
 C83 C 0.10592 0.91905 0.88199
 H84 H 0.02500 0.83632 0.87369
 C85 C 0.18646 0.91471 0.90819
 H86 H 0.16680 0.82826 0.91975
 C87 C 0.22629 1.13193 0.87757
 H88 H 0.23953 1.21636 0.86646
 C89 C 0.30952 1.13184 0.90409
 H90 H 0.38753 1.21688 0.91262
 N91 N 0.12725 1.02593 0.86690
 C92 C -0.22292 0.87313 0.87854
 H93 H -0.23313 0.78894 0.86792
 C94 C -0.30611 0.87224 0.90546
 H95 H -0.38108 0.78624 0.91462
 C96 C -0.10947 1.08675 0.88138
 H97 H -0.03097 1.17024 0.87242
 C98 C -0.19010 1.09029 0.90792
 H99 H -0.17261 1.17722 0.91880
 Zn100 Zn 0.00007 1.00288 0.83337
 N101 N -0.12741 0.97986 0.86691
 C102 C -0.13094 0.77509 0.78987
 N103 N -0.02462 0.87524 0.79960
 C104 C 0.08179 0.89721 0.78343
 C105 C 0.08540 0.81632 0.75699
 C106 C -0.13162 0.69152 0.76309
 C107 C 0.13073 1.22930 0.78995
 C108 C 0.13106 1.31187 0.76325
 C109 C -0.08601 1.18685 0.75731
 C110 C -0.08206 1.10698 0.78367
 N111 N 0.02453 1.12957 0.79976
 H112 H -0.21503 0.76112 0.80200
 H113 H 0.16470 0.97882 0.79113
 H114 H 0.17150 0.83646 0.74458
 H115 H -0.21686 0.61253 0.75530
 H116 H 0.21503 1.24365 0.80189
 H117 H 0.21624 1.39048 0.75540
 H118 H -0.17226 1.16620 0.74497
 H119 H -0.16488 1.02563 0.79138
 C120 C -0.29005 0.98221 0.92065
 C121 C 0.28974 1.02187 0.91971
 C122 C 0.02133 1.29078 0.74663
 C123 C -0.02207 0.71198 0.74635
 O124 O 0.64700 0.08496 -0.03796
 O125 O 0.43959 0.08415 0.03735
 O126 O 0.65892 0.11603 0.03764
 O127 O 0.45961 0.11680 -0.03809
 O128 O 0.35601 -0.08229 -0.03844
 O129 O 0.56178 -0.08306 0.03681
 O130 O 0.34251 -0.11494 0.03695
 O131 O 0.54363 -0.11393 -0.03891
 Cu132 Cu 0.56070 0.11924 -0.00021
 Cu133 Cu 0.44161 -0.11732 -0.00098
 C134 C 0.63063 -0.01559 -0.05132
 C135 C 0.35480 -0.01680 0.04999
 C136 C 0.64624 0.01763 0.05008
 C137 C 0.37296 0.01867 -0.05102
 O138 O -0.08260 0.35579 0.70412
 O139 O -0.08306 0.56046 0.62896
 O140 O -0.11834 0.34055 0.62837
 O141 O -0.11800 0.54153 0.70422
 O142 O 0.08154 0.64439 0.70414
 O143 O 0.08114 0.43652 0.62897
 O144 O 0.11648 0.65770 0.62890
 O145 O 0.11688 0.45995 0.70469
 Cu146 Cu -0.11882 0.44004 0.66654
 Cu147 Cu 0.11732 0.55847 0.66655
 C148 C 0.01849 0.37334 0.71723
 C149 C 0.01800 0.64502 0.61614
 C150 C -0.01991 0.35218 0.61584
 C151 C -0.01949 0.62811 0.71697
 O152 O 0.64782 0.56294 0.37173
 O153 O 0.44002 0.35610 0.29631
 O154 O 0.65958 0.54369 0.29615
 O155 O 0.45999 0.34333 0.37178
 O156 O 0.35683 0.43896 0.37208
 O157 O 0.56283 0.64574 0.29692
 O158 O 0.34336 0.45825 0.29673
 O159 O 0.54502 0.65857 0.37266
 Cu160 Cu 0.56120 0.44216 0.33395
 Cu161 Cu 0.44273 0.55982 0.33470
 C162 C 0.63206 0.64747 0.38514
 C163 C 0.35540 0.37232 0.28365
 C164 C 0.64706 0.62944 0.28367
 C165 C 0.37344 0.35476 0.38465
   
