data_POSCAR
  _audit_creation_date              2014-09-24
  _audit_creation_method            'ToBaCCo'
  _symmetry_space_group_name_H-M    'P1'
  _symmetry_Int_Tables_number       1
  _symmetry_cell_setting            triclinic
  loop_
  _symmetry_equiv_pos_as_xyz
 x,y,z
_cell_length_a 22.9939
_cell_length_b 23.4215
_cell_length_c 23.1202
_cell_angle_alpha 90.111900
_cell_angle_beta 90.120800
_cell_angle_gamma 89.659000
loop_
  _atom_site_label
  _atom_site_type_symbol
  _atom_site_fract_x
  _atom_site_fract_y
  _atom_site_fract_z
C1 C 0.15390 0.17373 0.23398
 N2 N 0.18854 0.13317 0.20962
 C3 C 0.22675 0.14826 0.16742
 N4 N 0.22848 0.20267 0.14785
 C5 C 0.19340 0.24270 0.17143
 N6 N 0.15624 0.22787 0.21426
 C7 C -0.15416 0.83206 0.22397
 N8 N -0.19039 0.86943 0.19709
 C9 C -0.22593 0.85078 0.15411
 N10 N -0.22402 0.79565 0.13658
 C11 C -0.18736 0.75854 0.16260
 N12 N -0.15215 0.77707 0.20594
 C13 C -0.17615 0.14975 -0.24104
 N14 N -0.14596 0.19890 -0.23063
 C15 C -0.16262 0.23420 -0.18626
 N16 N -0.20796 0.21851 -0.15175
 C17 C -0.23762 0.16948 -0.16220
 N18 N -0.22109 0.13550 -0.20636
 C19 C 0.17885 0.83033 -0.25720
 N20 N 0.21917 0.85640 -0.22326
 C21 C 0.23560 0.83231 -0.17216
 N22 N 0.20997 0.78271 -0.15444
 C23 C 0.16928 0.75670 -0.18861
 N24 N 0.15433 0.78088 -0.23962
 C25 C 0.13873 1.16402 0.76222
 N26 N 0.19059 1.13764 0.77252
 C27 C 0.22592 1.15739 0.81537
 N28 N 0.20794 1.20243 0.84867
 C29 C 0.15614 1.22865 0.83785
 N30 N 0.12182 1.20880 0.79512
 C31 C 0.85408 0.82474 0.75421
 N32 N 0.86945 0.77996 0.78807
 C33 C 0.83566 0.76331 0.83259
 N34 N 0.78581 0.79310 0.84420
 C35 C 0.76928 0.83830 0.81024
 N36 N 0.80431 0.85456 0.76570
 C37 C 0.16851 0.85487 1.22887
 N38 N 0.22036 0.85949 1.20200
 C39 C 0.24014 0.81744 1.16686
 N40 N 0.20779 0.77070 1.15866
 C41 C 0.15573 0.76509 1.18572
 N42 N 0.13539 0.80752 1.22079
 C43 C 0.82218 1.16279 1.23417
 N44 N 0.76674 1.16313 1.21486
 C45 C 0.74919 1.19920 1.17232
 N46 N 0.78795 1.23535 1.14863
 C47 C 0.84369 1.23574 1.16789
 N48 N 0.86137 1.19846 1.20966
 N49 N 0.55492 1.06402 1.11065
 N50 N 0.59418 1.07423 1.15049
 N51 N 0.42903 1.09440 1.07139
 N52 N 0.37401 1.11119 1.06842
 N53 N 0.43494 1.05482 1.11136
 N54 N 0.38486 1.04450 1.13655
 N55 N 0.55225 1.10536 1.07277
 N56 N 0.59121 1.14504 1.08518
 C57 C 0.61624 1.12447 1.13415
 C58 C 0.34789 1.08080 1.11072
 N59 N 0.43416 1.06385 0.90430
 N60 N 0.38958 1.07239 0.86847
 N61 N 0.55275 1.10872 0.94841
 N62 N 0.59998 1.13990 0.95295
 N63 N 0.55885 1.06965 0.90761
 N64 N 0.61139 1.07376 0.88420
 N65 N 0.43190 1.10087 0.94706
 N66 N 0.38714 1.13564 0.94151
 Mn67 Mn 0.49131 1.10290 1.00981
 C68 C 0.36115 1.11759 0.89280
 C69 C 0.63551 1.11945 0.91160
 N70 N 0.44651 0.93494 1.10923
 N71 N 0.40650 0.92647 1.14833
 N72 N 0.56742 0.90364 1.06450
 N73 N 0.62155 0.88574 1.05725
 N74 N 0.56589 0.94309 1.10523
 N75 N 0.61817 0.95235 1.12640
 N76 N 0.44364 0.89714 1.06759
 N77 N 0.39998 0.86161 1.07701
 Mn78 Mn 0.50084 0.99918 1.10906
 C79 C 0.37817 0.88110 1.12803
 C80 C 0.65183 0.91524 1.09738
 N81 N 0.56491 0.94317 0.90179
 N82 N 0.60988 0.93438 0.86634
 N83 N 0.44122 0.89944 0.94160
 N84 N 0.39179 0.87091 0.94233
 N85 N 0.43978 0.93935 0.90142
 N86 N 0.38868 0.93855 0.87467
 N87 N 0.56337 0.90267 0.94102
 N88 N 0.60617 0.86582 0.93378
 Mn89 Mn 0.49980 1.00408 0.90246
 Mn90 Mn 0.50345 0.90002 1.00371
 Cl91 Cl 0.49890 1.00152 1.00566
 C92 C 0.63496 0.88566 0.88758
 C93 C 0.36005 0.89398 0.89886
 N94 N 0.06726 0.44210 0.11105
 N95 N 0.07728 0.40488 0.15219
 N96 N 0.10565 0.55759 0.06817
 N97 N 0.14113 0.60099 0.07286
 N98 N 0.06466 0.56038 0.10753
 N99 N 0.07089 0.60613 0.14041
 N100 N 0.10650 0.43844 0.07019
 N101 N 0.14473 0.39768 0.08236
 C102 C 0.12532 0.37785 0.13388
 C103 C 0.11892 0.63035 0.11774
 N104 N 0.06609 0.55960 -0.09507
 N105 N 0.07558 0.60456 -0.12888
 N106 N 0.10607 0.43779 -0.05492
 N107 N 0.13301 0.38820 -0.05115
 N108 N 0.06543 0.43659 -0.09517
 N109 N 0.06386 0.38494 -0.11877
 N110 N 0.10624 0.55703 -0.05456
 N111 N 0.14334 0.59940 -0.05905
 Mn112 Mn 0.10647 0.49739 0.00694
 C113 C 0.12418 0.62858 -0.10533
 C114 C 0.10804 0.35612 -0.09241
 N115 N -0.05911 0.55671 0.11030
 N116 N -0.06640 0.59775 0.14829
 N117 N -0.09592 0.43491 0.07064
 N118 N -0.11596 0.38214 0.06749
 N119 N -0.05585 0.43822 0.11127
 N120 N -0.04828 0.38840 0.13654
 N121 N -0.10094 0.55636 0.07174
 N122 N -0.13813 0.59855 0.08213
 Mn123 Mn 0.00400 0.49971 0.11021
 C124 C -0.11561 0.62310 0.13045
 C125 C -0.08716 0.35451 0.11033
 N126 N -0.06148 0.43689 -0.09613
 N127 N -0.07034 0.39289 -0.13169
 N128 N -0.10327 0.55659 -0.05322
 N129 N -0.13424 0.60410 -0.05103
 N130 N -0.06277 0.55996 -0.09335
 N131 N -0.06561 0.61087 -0.11866
 N132 N -0.10030 0.43671 -0.05443
 N133 N -0.13652 0.39369 -0.06055
 Mn134 Mn 0.00186 0.49856 -0.09628
 Mn135 Mn -0.10078 0.49604 0.00865
 Cl136 Cl 0.00277 0.49794 0.00690
 C137 C -0.11763 0.36667 -0.10854
 C138 C -0.11220 0.63705 -0.09328
 N139 N 1.08912 -0.07168 0.42595
 N140 N 1.09669 -0.09564 0.37468
 N141 N 1.11593 -0.02618 0.55004
 N142 N 1.15182 -0.02454 0.59504
 N143 N 1.09024 -0.07602 0.54708
 N144 N 1.10769 -0.10963 0.58926
 N145 N 1.11404 -0.02128 0.42773
 N146 N 1.13805 -0.00944 0.37749
 C147 C 1.12803 -0.05653 0.34563
 C148 C 1.14603 -0.07721 0.61862
 N149 N 1.02379 0.11584 0.55452
 N150 N 1.01245 0.13593 0.60656
 N151 N 1.07468 0.09527 0.43176
 N152 N 1.10099 0.10582 0.38200
 N153 N 1.02286 0.11931 0.43255
 N154 N 1.01254 0.14610 0.38352
 N155 N 1.07525 0.09084 0.55399
 N156 N 1.09982 0.09386 0.60563
 Mn157 Mn 1.09573 0.03499 0.49105
 C158 C 1.06063 0.12346 0.63725
 C159 C 1.06183 0.13837 0.35311
 N160 N 0.97202 -0.11404 0.54781
 N161 N 0.98333 -0.13995 0.59712
 N162 N 0.91921 -0.08638 0.42649
 N163 N 0.89292 -0.09440 0.37601
 N164 N 0.97079 -0.11081 0.42616
 N165 N 0.98081 -0.13568 0.37606
 N166 N 0.92042 -0.08958 0.54954
 N167 N 0.89534 -0.09904 0.60018
 Mn168 Mn 1.03056 -0.09361 0.48670
 C169 C 0.93472 -0.13180 0.62861
 C170 C 0.93170 -0.12643 0.34582
 N171 N 0.90403 0.08100 0.43148
 N172 N 0.89454 0.10810 0.38207
 N173 N 0.88057 0.02772 0.55312
 N174 N 0.85541 0.01765 0.60327
 N175 N 0.90466 0.07849 0.55362
 N176 N 0.89542 0.10437 0.60377
 N177 N 0.87931 0.03049 0.43063
 N178 N 0.85320 0.02189 0.38060
 Mn179 Mn 0.96378 0.09936 0.49299
 Mn180 Mn 0.89906 -0.02959 0.49001
 Cl181 Cl 0.99723 0.00277 0.49024
 C182 C 0.86180 0.07089 0.35151
 C183 C 0.86368 0.06623 0.63372
 N184 N 1.10983 0.15966 0.26631
 N185 N 1.06448 0.15064 0.29286
 N186 N 0.88742 -0.14923 0.25728
 N187 N 0.93048 -0.13389 0.28468
 N188 N 0.84288 0.11057 0.72317
 N189 N 0.85682 0.06789 0.69499
 N190 N 1.15860 -0.14485 0.69012
 N191 N 1.17262 -0.09577 0.67138
 N192 N 0.25752 1.10962 1.14107
 N193 N 0.28679 1.07397 1.11516
 N194 N 0.26961 0.86089 0.86322
 N195 N 0.29777 0.88979 0.89809
 N196 N 0.74279 0.88691 1.12502
 N197 N 0.71312 0.92019 1.09657
 N198 N 0.72655 1.14933 0.87650
 N199 N 0.69674 1.12899 0.91550
 N200 N 0.18563 0.29602 0.14318
 N201 N 0.14486 0.32764 0.16165
 N202 N -0.13024 0.28535 -0.17286
 N203 N -0.14517 0.31533 -0.12911
 N204 N 0.13977 0.70556 -0.17101
 N205 N 0.15273 0.67960 -0.12450
 N206 N -0.17736 0.70405 0.13711
 N207 N -0.13479 0.67491 0.15582
 N208 N 1.10045 0.14163 0.72764
 N209 N 1.06007 0.12294 0.69856
 N210 N 0.89299 -0.15561 0.71840
 N211 N 0.93503 -0.13996 0.68969
 N212 N 1.14989 -0.10171 0.25890
 N213 N 1.13657 -0.05772 0.28483
 N214 N 0.83931 0.11949 0.26549
 N215 N 0.85149 0.07481 0.29085
 N216 N 0.13395 0.26478 -0.12509
 N217 N 0.11031 0.29540 -0.08866
 N218 N -0.11827 0.26621 0.14046
 N219 N -0.08252 0.29413 0.11340
 N220 N -0.14266 0.72734 -0.12940
 N221 N -0.11997 0.69788 -0.09113
 N222 N 0.12252 0.71537 0.17416
 N223 N 0.14408 0.68183 0.13666
 N224 N 0.27911 1.12774 0.82891
 N225 N 0.30844 1.14368 0.87267
 N226 N 0.29377 0.82383 1.13731
 N227 N 0.32541 0.86463 1.15390
 N228 N 0.69507 1.18913 1.14418
 N229 N 0.66661 1.14624 1.16133
 N230 N 0.71775 0.87129 0.82398
 N231 N 0.68675 0.85718 0.86720
   
