data_POSCAR
  _audit_creation_date              2014-09-24
  _audit_creation_method            'ToBaCCo'
  _symmetry_space_group_name_H-M    'P1'
  _symmetry_Int_Tables_number       1
  _symmetry_cell_setting            triclinic
  loop_
  _symmetry_equiv_pos_as_xyz
 x,y,z
_cell_length_a 33.7067
_cell_length_b 35.1365
_cell_length_c 33.1012
_cell_angle_alpha 90.074100
_cell_angle_beta 90.600400
_cell_angle_gamma 90.001600
loop_
  _atom_site_label
  _atom_site_type_symbol
  _atom_site_fract_x
  _atom_site_fract_y
  _atom_site_fract_z
C1 C 0.15804 0.18267 0.20307
 C2 C 0.15900 0.21222 0.17491
 C3 C 0.18837 0.21352 0.14610
 C4 C 0.21733 0.18459 0.14506
 C5 C 0.21628 0.15525 0.17299
 C6 C 0.18637 0.15435 0.20232
 C7 C 0.13315 0.17539 0.23472
 N8 N 0.14559 0.14308 0.25364
 C9 C 0.17810 0.13002 0.23385
 C10 C 0.24786 0.13156 0.16513
 N11 N 0.26826 0.14564 0.13301
 C12 C 0.24964 0.17807 0.12071
 C13 C 0.18160 0.24598 0.12340
 N14 N 0.14886 0.26394 0.13805
 C15 C 0.13500 0.24331 0.16939
 H16 H 0.10823 0.19295 0.24311
 H17 H 0.19485 0.10484 0.24208
 H18 H 0.25496 0.10606 0.18193
 H19 H 0.25898 0.19578 0.09578
 H20 H 0.19909 0.25541 0.09810
 H21 H 0.10924 0.25060 0.18710
 C22 C -0.15611 0.81068 0.21768
 C23 C -0.15733 0.78129 0.18896
 C24 C -0.18678 0.78072 0.15946
 C25 C -0.21553 0.80978 0.15832
 C26 C -0.21410 0.83873 0.18664
 C27 C -0.18427 0.83918 0.21639
 C28 C -0.13119 0.81829 0.24998
 N29 N -0.14370 0.85091 0.26825
 C30 C -0.17610 0.86374 0.24771
 C31 C -0.24538 0.86276 0.17883
 N32 N -0.26610 0.84937 0.14644
 C33 C -0.24795 0.81683 0.13359
 C34 C -0.18038 0.74884 0.13598
 N35 N -0.14777 0.73024 0.15060
 C36 C -0.13365 0.75000 0.18292
 H37 H -0.10607 0.80109 0.25910
 H38 H -0.19275 0.88912 0.25519
 H39 H -0.25268 0.88821 0.19572
 H40 H -0.25728 0.79923 0.10842
 H41 H -0.19817 0.74024 0.11018
 H42 H -0.10784 0.74211 0.20079
 C43 C -0.15661 0.19266 -0.21366
 C44 C -0.15611 0.22151 -0.18435
 C45 C -0.18482 0.22233 -0.15494
 C46 C -0.21435 0.19440 -0.15423
 C47 C -0.21507 0.16584 -0.18300
 C48 C -0.18585 0.16499 -0.21312
 C49 C -0.13252 0.18520 -0.24601
 N50 N -0.14633 0.15355 -0.26542
 C51 C -0.17892 0.14110 -0.24537
 C52 C -0.24740 0.14308 -0.17462
 N53 N -0.26604 0.15742 -0.14146
 C54 C -0.24585 0.18877 -0.12903
 C55 C -0.17746 0.25339 -0.13078
 N56 N -0.14484 0.27163 -0.14488
 C57 C -0.13156 0.25223 -0.17756
 H58 H -0.10705 0.20200 -0.25440
 H59 H -0.19647 0.11645 -0.25375
 H60 H -0.25635 0.11820 -0.19166
 H61 H -0.25362 0.20635 -0.10338
 H62 H -0.19470 0.26165 -0.10485
 H63 H -0.10597 0.26006 -0.19522
 C64 C 0.12997 0.81926 -0.19025
 C65 C 0.13148 0.79324 -0.15830
 C66 C 0.16323 0.79357 -0.13158
 C67 C 0.19376 0.82015 -0.13628
 C68 C 0.19243 0.84583 -0.16785
 C69 C 0.16024 0.84534 -0.19511
 C70 C 0.10402 0.82359 -0.22220
 N71 N 0.11771 0.85161 -0.24653
 C72 C 0.15218 0.86519 -0.23003
 C73 C 0.22709 0.86661 -0.16622
 N74 N 0.24929 0.85407 -0.13423
 C75 C 0.22896 0.82568 -0.11590
 C76 C 0.15866 0.76321 -0.10588
 N77 N 0.12487 0.74445 -0.11659
 C78 C 0.10794 0.76284 -0.14835
 H79 H 0.07753 0.80688 -0.22789
 H80 H 0.17085 0.88715 -0.24254
 H81 H 0.23527 0.88871 -0.18725
 H82 H 0.23940 0.80971 -0.08991
 H83 H 0.17913 0.75501 -0.08207
 H84 H 0.08136 0.75364 -0.16424
 C85 C 0.18121 1.16591 0.79104
 C86 C 0.20919 1.16580 0.82273
 C87 C 0.20762 1.19345 0.85233
 C88 C 0.17835 1.22155 0.85069
 C89 C 0.15094 1.22201 0.81937
 C90 C 0.15232 1.19385 0.78930
 C91 C 0.17571 1.14274 0.75796
 N92 N 0.14420 1.15577 0.73610
 C93 C 0.12973 1.18722 0.75512
 C94 C 0.12701 1.25331 0.82513
 N95 N 0.13944 1.27162 0.85935
 C96 C 0.17071 1.25217 0.87506
 C97 C 0.23882 1.18737 0.87850
 N98 N 0.25949 1.15671 0.86555
 C99 C 0.24150 1.14318 0.83140
 H100 H 0.19345 1.11810 0.75030
 H101 H 0.10475 1.20428 0.74533
 H102 H 0.10273 1.26183 0.80554
 H103 H 0.18716 1.26011 0.90208
 H104 H 0.24644 1.20442 0.90473
 H105 H 0.25128 1.11921 0.81358
 C106 C 0.82718 0.84211 0.79222
 C107 C 0.79594 0.83978 0.81947
 C108 C 0.79471 0.81053 0.84710
 C109 C 0.82484 0.78321 0.84795
 C110 C 0.85588 0.78523 0.82099
 C111 C 0.85704 0.81508 0.79259
 C112 C 0.83462 0.86705 0.76149
 N113 N 0.86822 0.85612 0.74259
 C114 C 0.88236 0.82424 0.76146
 C115 C 0.87993 0.75422 0.82867
 N116 N 0.86415 0.73367 0.85947
 C117 C 0.83030 0.75142 0.87129
 C118 C 0.76038 0.81468 0.86867
 N119 N 0.74078 0.84577 0.85469
 C120 C 0.76243 0.86137 0.82450
 H121 H 0.81639 0.89120 0.75297
 H122 H 0.90857 0.80840 0.75323
 H123 H 0.90682 0.74697 0.81278
 H124 H 0.81049 0.74223 0.89481
 H125 H 0.75006 0.79615 0.89248
 H126 H 0.75447 0.88612 0.80684
 C127 C 0.18255 0.84405 1.21130
 C128 C 0.21262 0.84202 1.18271
 C129 C 0.21325 0.81268 1.15489
 C130 C 0.18348 0.78464 1.15562
 C131 C 0.15363 0.78676 1.18399
 C132 C 0.15316 0.81676 1.21202
 C133 C 0.17566 0.86913 1.24221
 N134 N 0.14251 0.85779 1.26200
 C135 C 0.12856 0.82577 1.24359
 C136 C 0.12941 0.75570 1.17823
 N137 N 0.14372 0.73461 1.14725
 C138 C 0.17684 0.75217 1.13314
 C139 C 0.24639 0.81806 1.13144
 N140 N 0.26553 0.84997 1.14468
 C141 C 0.24507 0.86456 1.17607
 H142 H 0.19404 0.89345 1.24950
 H143 H 0.10267 0.80989 1.25285
 H144 H 0.10338 0.74866 1.19561
 H145 H 0.19505 0.74233 1.10855
 H146 H 0.25595 0.79972 1.10715
 H147 H 0.25337 0.88982 1.19294
 C148 C 0.81316 1.15589 1.20384
 C149 C 0.78506 1.15585 1.17236
 C150 C 0.78394 1.18535 1.14467
 C151 C 0.81144 1.21539 1.14809
 C152 C 0.83917 1.21530 1.17927
 C153 C 0.84000 1.18539 1.20734
 C154 C 0.82056 1.13111 1.23520
 N155 N 0.85128 1.14476 1.25783
 C156 C 0.86339 1.17812 1.24084
 C157 C 0.86177 1.24765 1.17546
 N158 N 0.84877 1.26749 1.14276
 C159 C 0.81785 1.24798 1.12578
 C160 C 0.75313 1.17763 1.11800
 N161 N 0.73583 1.14421 1.12904
 C162 C 0.75534 1.13082 1.16211
 H163 H 0.80457 1.10502 1.24123
 H164 H 0.88717 1.19621 1.25167
 H165 H 0.88610 1.25618 1.19509
 H166 H 0.80101 1.25661 1.09937
 H167 H 0.74428 1.19509 1.09257
 H168 H 0.74814 1.10474 1.17782
 N169 N 0.54177 1.05165 0.93753
 N170 N 0.57220 1.07406 0.92944
 N171 N 0.45775 1.02335 0.91229
 N172 N 0.42725 1.02526 0.88715
 N173 N 0.45794 1.05238 0.93729
 N174 N 0.42729 1.07484 0.92992
 N175 N 0.54083 1.02263 0.91249
 N176 N 0.57035 1.02445 0.88676
 C177 C 0.58967 1.05658 0.89764
 C178 C 0.40858 1.05747 0.89846
 N179 N 0.45710 0.91826 0.95148
 N180 N 0.42558 0.89603 0.95017
 N181 N 0.54017 0.94149 0.92118
 N182 N 0.57122 0.93568 0.89809
 N183 N 0.54045 0.91793 0.95188
 N184 N 0.57168 0.89536 0.95058
 N185 N 0.45672 0.94213 0.92103
 N186 N 0.42483 0.93689 0.89820
 Mn187 Mn 0.49884 0.98235 0.91633
 C188 C 0.40587 0.90787 0.91670
 C189 C 0.59041 0.90670 0.91676
 N190 N 0.45834 1.06085 1.02412
 N191 N 0.42846 1.08509 1.02668
 N192 N 0.54169 1.03645 1.05535
 N193 N 0.57130 1.04382 1.08054
 N194 N 0.54210 1.06009 1.02462
 N195 N 0.57209 1.08417 1.02811
 N196 N 0.45806 1.03700 1.05468
 N197 N 0.42804 1.04445 1.07881
 Mn198 Mn 0.50009 1.05679 0.98083
 C199 C 0.40982 1.07456 1.06096
 C200 C 0.59002 1.07357 1.06318
 N201 N 0.54108 0.92583 1.03816
 N202 N 0.57116 0.90271 1.04526
 N203 N 0.45765 0.95497 1.06292
 N204 N 0.42698 0.95249 1.08733
 N205 N 0.45791 0.92614 1.03766
 N206 N 0.42764 0.90331 1.04410
 N207 N 0.54151 0.95454 1.06361
 N208 N 0.57210 0.95166 1.08877
 Mn209 Mn 0.49917 0.92165 0.99484
 Mn210 Mn 0.49970 0.99580 1.05970
 Cl211 Cl 0.49946 0.98924 0.98800
 C212 C 0.59026 0.91912 1.07692
 C213 C 0.40865 0.92004 1.07517
 N214 N 0.04311 0.45862 0.07708
 N215 N 0.04775 0.42841 0.10043
 N216 N 0.07045 0.53965 0.05154
 N217 N 0.09378 0.56949 0.05647
 N218 N 0.04284 0.53903 0.07921
 N219 N 0.04668 0.56852 0.10377
 N220 N 0.07083 0.45963 0.04952
 N221 N 0.09495 0.43025 0.05325
 C222 C 0.08029 0.41108 0.08520
 C223 C 0.07869 0.58715 0.08927
 N224 N 0.04400 0.54122 -0.06412
 N225 N 0.04712 0.57198 -0.08663
 N226 N 0.07145 0.46125 -0.03715
 N227 N 0.09564 0.43211 -0.04195
 N228 N 0.04386 0.46133 -0.06540
 N229 N 0.04838 0.43226 -0.09016
 N230 N 0.07097 0.54128 -0.03523
 N231 N 0.09311 0.57219 -0.03718
 Mn232 Mn 0.07139 0.50049 0.00719
 C233 C 0.07797 0.59085 -0.06959
 C234 C 0.08086 0.41439 -0.07514
 N235 N -0.04279 0.53904 0.07754
 N236 N -0.04758 0.56786 0.10267
 N237 N -0.07032 0.45962 0.04698
 N238 N -0.09436 0.43008 0.05023
 N239 N -0.04285 0.45877 0.07543
 N240 N -0.04753 0.42870 0.09881
 N241 N -0.06988 0.53991 0.04873
 N242 N -0.09379 0.56933 0.05348
 Mn243 Mn 0.00006 0.49880 0.07789
 C244 C -0.07953 0.58645 0.08734
 C245 C -0.07982 0.41113 0.08280
 N246 N -0.04130 0.46152 -0.06730
 N247 N -0.04558 0.43269 -0.09252
 N248 N -0.06870 0.54163 -0.03858
 N249 N -0.09198 0.57160 -0.04355
 N250 N -0.04096 0.54122 -0.06612
 N251 N -0.04459 0.57057 -0.09060
 N252 N -0.06928 0.46124 -0.04001
 N253 N -0.09332 0.43203 -0.04582
 Mn254 Mn 0.00141 0.50126 -0.06615
 Mn255 Mn -0.07011 0.50066 0.00428
 Cl256 Cl 0.00064 0.50029 0.00588
 C257 C -0.07812 0.41460 -0.07877
 C258 C -0.07647 0.58925 -0.07625
 N259 N 0.93273 0.04607 0.54188
 N260 N 0.90895 0.05094 0.57284
 N261 N 0.95672 0.06980 0.45527
 N262 N 0.95020 0.09203 0.42384
 N263 N 0.93001 0.04263 0.45687
 N264 N 0.90448 0.04577 0.42645
 N265 N 0.95927 0.07341 0.54037
 N266 N 0.95413 0.09771 0.57044
 C267 C 0.92253 0.08320 0.59037
 C268 C 0.91751 0.07676 0.40613
 N269 N 1.07020 0.04614 0.45313
 N270 N 1.09394 0.04996 0.42202
 N271 N 1.04500 0.07584 0.53770
 N272 N 1.04976 0.09999 0.56795
 N273 N 1.07354 0.05041 0.53775
 N274 N 1.09855 0.05660 0.56799
 N275 N 1.04218 0.07210 0.45244
 N276 N 1.04608 0.09430 0.42046
 Mn277 Mn 1.00077 0.07332 0.49647
 C278 C 1.07858 0.07999 0.40186
 C279 C 1.08340 0.08764 0.58646
 N280 N 0.93282 -0.03952 0.46126
 N281 N 0.90765 -0.04618 0.43130
 N282 N 0.96439 -0.06101 0.54682
 N283 N 0.96128 -0.08371 0.57831
 N284 N 0.93568 -0.03577 0.54621
 N285 N 0.91214 -0.04068 0.57746
 N286 N 0.96110 -0.06522 0.46200
 N287 N 0.95604 -0.09000 0.43234
 Mn288 Mn 0.93231 0.00335 0.50152
 C289 C 0.92249 -0.07773 0.41356
 C290 C 0.92860 -0.07066 0.59718
 N291 N 1.07625 -0.03111 0.54180
 N292 N 1.10153 -0.03240 0.57239
 N293 N 1.04614 -0.06281 0.45994
 N294 N 1.05012 -0.08774 0.43049
 N295 N 1.07259 -0.03557 0.45706
 N296 N 1.09531 -0.04117 0.42533
 N297 N 1.04960 -0.05818 0.54471
 N298 N 1.05599 -0.07863 0.57762
 Mn299 Mn 1.07357 0.00748 0.49736
 Mn300 Mn 1.00533 -0.06224 0.50344
 Cl301 Cl 1.00295 0.00552 0.49969
 C302 C 1.08863 -0.06216 0.59438
 C303 C 1.08084 -0.07390 0.40919
 C304 C 1.12990 0.12618 0.28700
 C305 C 1.09801 0.14007 0.30648
 C306 C 1.08059 0.12358 0.34357
 C307 C 1.09635 0.09472 0.36461
 H308 H 1.08302 0.16513 0.29533
 H309 H 1.05362 0.13677 0.35434
 H310 H 1.14418 0.10061 0.29792
 H311 H 1.12339 0.08108 0.35513
 C312 C 0.87179 -0.13109 0.30136
 C313 C 0.90332 -0.14415 0.32243
 C314 C 0.92049 -0.12521 0.35871
 C315 C 0.90402 -0.09560 0.37788
 H316 H 0.91822 -0.16982 0.31299
 H317 H 0.94810 -0.13687 0.37030
 H318 H 0.85761 -0.10498 0.31061
 H319 H 0.87622 -0.08350 0.36781
 C320 C 0.86847 0.13629 0.70091
 C321 C 0.90076 0.14903 0.68129
 C322 C 0.91785 0.13141 0.64450
 C323 C 0.90448 0.09949 0.62686
 H324 H 0.91620 0.17406 0.69198
 H325 H 0.94313 0.14581 0.63155
 H326 H 0.85307 0.11136 0.68983
 H327 H 0.87960 0.08410 0.63899
 C328 C 1.09942 -0.13785 0.71833
 C329 C 1.11370 -0.11088 0.69397
 C330 C 1.09326 -0.10101 0.65592
 C331 C 1.10779 -0.07373 0.63237
 H332 H 1.14071 -0.09579 0.70160
 H333 H 1.06629 -0.11589 0.64725
 H334 H 1.07215 -0.15221 0.70950
 H335 H 1.13456 -0.05874 0.64145
 C336 C 0.30150 1.13112 1.11520
 C337 C 0.31973 1.09911 1.12806
 C338 C 0.35602 1.08210 1.11029
 C339 C 0.37392 1.09371 1.07642
 H340 H 0.30834 1.08390 1.15376
 H341 H 0.36823 1.05787 1.12636
 H342 H 0.31360 1.14644 1.08984
 H343 H 0.36235 1.11734 1.05911
 C344 C 0.28577 0.86604 0.87856
 C345 C 0.30658 0.89340 0.85987
 C346 C 0.34619 0.90706 0.87334
 C347 C 0.36745 0.89205 0.90386
 H348 H 0.29444 0.90738 0.83347
 H349 H 0.35818 0.93107 0.85697
 H350 H 0.29802 0.85250 0.90516
 H351 H 0.35690 0.86800 0.92087
 C352 C 0.70076 0.86688 1.13134
 C353 C 0.67996 0.85362 1.09944
 C354 C 0.64362 0.87164 1.08243
 C355 C 0.62658 0.90373 1.09601
 H356 H 0.68933 0.82794 1.08433
 H357 H 0.63023 0.85703 1.05687
 H358 H 0.69108 0.89259 1.14622
 H359 H 0.63886 0.91940 1.12126
 C360 C 0.70090 1.14442 0.87749
 C361 C 0.68073 1.11343 0.86578
 C362 C 0.64511 1.10123 0.88785
 C363 C 0.62531 1.07000 0.87671
 H364 H 0.69013 1.09681 0.84007
 H365 H 0.63505 1.11784 0.91341
 H366 H 0.69034 1.16004 0.90359
 H367 H 0.63558 1.05338 0.85127
 C368 C 0.13008 0.29843 0.12435
 C369 C 0.14669 0.32216 0.09775
 C370 C 0.12827 0.35825 0.08377
 C371 C 0.09694 0.37523 0.10100
 H372 H 0.17505 0.31501 0.08483
 H373 H 0.14215 0.37178 0.05815
 H374 H 0.10146 0.30514 0.13692
 H375 H 0.08294 0.36329 0.12729
 C376 C -0.12640 0.30548 -0.12905
 C377 C -0.14254 0.32614 -0.09925
 C378 C -0.12503 0.36124 -0.08195
 C379 C -0.09407 0.37986 -0.09746
 H380 H -0.17010 0.31716 -0.08595
 H381 H -0.13916 0.37248 -0.05520
 H382 H -0.09861 0.31402 -0.14222
 H383 H -0.07965 0.37005 -0.12451
 C384 C 0.10994 0.70942 -0.10057
 C385 C 0.13177 0.68662 -0.07667
 C386 C 0.11822 0.64880 -0.06323
 C387 C 0.09124 0.62818 -0.08360
 H388 H 0.16076 0.69554 -0.06616
 H389 H 0.13232 0.63705 -0.03645
 H390 H 0.08036 0.70090 -0.10980
 H391 H 0.07810 0.63857 -0.11141
 C392 C -0.12955 0.69591 0.13580
 C393 C -0.14462 0.67550 0.10491
 C394 C -0.12670 0.64010 0.08862
 C395 C -0.09590 0.62141 0.10534
 H396 H -0.17140 0.68505 0.08986
 H397 H -0.14029 0.62878 0.06135
 H398 H -0.10248 0.68684 0.15063
 H399 H -0.08191 0.63134 0.13287
 C400 C 1.13083 0.13882 0.70145
 C401 C 1.09970 0.15185 0.67977
 C402 C 1.08401 0.13381 0.64236
 C403 C 1.10114 0.10468 0.62298
 H404 H 1.08372 0.17676 0.68965
 H405 H 1.05668 0.14562 0.63026
 H406 H 1.14619 0.11352 0.69160
 H407 H 1.12864 0.09236 0.63360
 C408 C 0.88261 -0.12509 0.70987
 C409 C 0.91498 -0.13610 0.68965
 C410 C 0.93004 -0.11676 0.65303
 C411 C 0.91233 -0.08731 0.63422
 H412 H 0.93168 -0.16066 0.69962
 H413 H 0.95715 -0.12826 0.64065
 H414 H 0.86643 -0.10025 0.69987
 H415 H 0.88518 -0.07496 0.64515
 C416 C 1.12562 -0.12598 0.29504
 C417 C 1.14056 -0.09481 0.31341
 C418 C 1.12394 -0.07699 0.35002
 C419 C 1.09584 -0.09267 0.37287
 H420 H 1.16633 -0.08068 0.30149
 H421 H 1.13646 -0.04979 0.35889
 H422 H 1.09910 -0.13918 0.30658
 H423 H 1.08310 -0.12003 0.36553
 C424 C 0.86585 0.12693 0.29150
 C425 C 0.89629 0.14075 0.31365
 C426 C 0.91318 0.12263 0.35041
 C427 C 0.89843 0.09197 0.36924
 H428 H 0.91073 0.16681 0.30480
 H429 H 0.93941 0.13626 0.36290
 H430 H 0.85212 0.10045 0.30030
 H431 H 0.87205 0.07773 0.35824
 C432 C 0.12509 0.30404 -0.12367
 C433 C 0.09545 0.32464 -0.13999
 C434 C 0.08014 0.36033 -0.12217
 C435 C 0.09786 0.37946 -0.09187
 H436 H 0.08085 0.31531 -0.16746
 H437 H 0.05299 0.37148 -0.13536
 H438 H 0.13876 0.31323 -0.09566
 H439 H 0.12540 0.36992 -0.07842
 C440 C -0.13385 0.30299 0.13017
 C441 C -0.14502 0.32136 0.09633
 C442 C -0.12759 0.35779 0.08206
 C443 C -0.09602 0.37526 0.09884
 H444 H -0.16841 0.30961 0.07757
 H445 H -0.14154 0.37041 0.05567
 H446 H -0.11073 0.31471 0.14928
 H447 H -0.08078 0.36329 0.12470
 C448 C -0.11976 0.70091 -0.12549
 C449 C -0.13623 0.68109 -0.09505
 C450 C -0.12033 0.64518 -0.07797
 C451 C -0.09117 0.62474 -0.09439
 H452 H -0.16276 0.69132 -0.08068
 H453 H -0.13419 0.63490 -0.05068
 H454 H -0.09251 0.69096 -0.13877
 H455 H -0.07709 0.63369 -0.12194
 C456 C 0.12569 0.69972 0.13342
 C457 C 0.14188 0.67768 0.10483
 C458 C 0.12456 0.64153 0.08966
 C459 C 0.09410 0.62296 0.10646
 H460 H 0.16919 0.68636 0.09079
 H461 H 0.13854 0.62941 0.06327
 H462 H 0.09800 0.69151 0.14707
 H463 H 0.07986 0.63364 0.13326
 C464 C 0.29499 1.14318 0.88513
 C465 C 0.31550 1.11340 0.87154
 C466 C 0.35217 1.10115 0.89210
 C467 C 0.37201 1.07090 0.87886
 H468 H 0.30555 1.09789 0.84509
 H469 H 0.36294 1.11686 0.91822
 H470 H 0.30561 1.15812 0.91183
 H471 H 0.36093 1.05504 0.85298
 C472 C 0.30160 0.86659 1.13020
 C473 C 0.31840 0.85599 1.09549
 C474 C 0.35519 0.87294 1.07945
 C475 C 0.37216 0.90512 1.09317
 H476 H 0.30518 0.83344 1.07767
 H477 H 0.36834 0.85815 1.05416
 H478 H 0.31489 0.88882 1.14841
 H479 H 0.35934 0.92146 1.11739
 C480 C 0.70264 1.12473 1.11073
 C481 C 0.67976 1.14006 1.08156
 C482 C 0.64447 1.12079 1.06365
 C483 C 0.62534 1.09179 1.08123
 H484 H 0.68704 1.16773 1.06951
 H485 H 0.63311 1.13211 1.03539
 H486 H 0.69614 1.09651 1.12181
 H487 H 0.63493 1.08100 1.11027
 C488 C 0.70316 0.85818 0.86971
 C489 C 0.68499 0.88965 0.85603
 C490 C 0.64641 0.90361 0.87057
 C491 C 0.62809 0.89053 0.90345
 H492 H 0.69832 0.90638 0.83245
 H493 H 0.63315 0.92675 0.85356
 H494 H 0.68951 0.84082 0.89260
 H495 H 0.64086 0.86834 0.92199
   
