data_POSCAR
  _audit_creation_date              2014-09-24
  _audit_creation_method            'ToBaCCo'
  _symmetry_space_group_name_H-M    'P1'
  _symmetry_Int_Tables_number       1
  _symmetry_cell_setting            triclinic
  loop_
  _symmetry_equiv_pos_as_xyz
 x,y,z
_cell_length_a 35.0402
_cell_length_b 35.0582
_cell_length_c 35.0583
_cell_angle_alpha 89.985700
_cell_angle_beta 90.000100
_cell_angle_gamma 90.010600
loop_
  _atom_site_label
  _atom_site_type_symbol
  _atom_site_fract_x
  _atom_site_fract_y
  _atom_site_fract_z
C1 C 0.28241 0.23399 0.23333
 C2 C 0.26607 0.21763 0.26598
 C3 C 0.23380 0.23377 0.28215
 C4 C 0.21748 0.26646 0.26586
 C5 C 0.23363 0.28262 0.23359
 C6 C 0.26628 0.26629 0.21724
 C7 C 0.31370 0.22444 0.21157
 N8 N 0.31668 0.25017 0.18291
 C9 C 0.28801 0.27587 0.18594
 C10 C 0.21191 0.31393 0.22406
 N11 N 0.18322 0.31692 0.24976
 C12 C 0.18619 0.28821 0.27544
 C13 C 0.22423 0.21199 0.31343
 N14 N 0.24992 0.18329 0.31637
 C15 C 0.27562 0.18630 0.28768
 H16 H 0.33285 0.20064 0.21616
 H17 H 0.28338 0.29968 0.16681
 H18 H 0.21655 0.33310 0.20029
 H19 H 0.16702 0.28357 0.29922
 H20 H 0.20044 0.21661 0.33259
 H21 H 0.29940 0.16714 0.28302
 C22 C 0.71682 -0.23439 0.23280
 C23 C 0.73317 -0.21805 0.26545
 C24 C 0.76558 -0.23408 0.28147
 C25 C 0.78202 -0.26663 0.26505
 C26 C 0.76586 -0.28279 0.23278
 C27 C 0.73307 -0.26658 0.21657
 C28 C 0.68540 -0.22493 0.21116
 N29 N 0.68247 -0.25060 0.18245
 C30 C 0.71129 -0.27619 0.18530
 C31 C 0.78771 -0.31398 0.22312
 N32 N 0.81648 -0.31686 0.24876
 C33 C 0.81345 -0.28823 0.27452
 C34 C 0.77514 -0.21236 0.31277
 N35 N 0.74933 -0.18379 0.31589
 C36 C 0.72354 -0.18684 0.28727
 H37 H 0.66616 -0.20122 0.21591
 H38 H 0.71602 -0.29994 0.16611
 H39 H 0.78306 -0.33312 0.19931
 H40 H 0.83263 -0.28353 0.29830
 H41 H 0.79902 -0.21692 0.33184
 H42 H 0.69966 -0.16777 0.28274
 C43 C 0.71792 0.23506 0.76644
 C44 C 0.73443 0.21865 0.73392
 C45 C 0.76677 0.23477 0.71786
 C46 C 0.78300 0.26751 0.73414
 C47 C 0.76668 0.28374 0.76630
 C48 C 0.73396 0.26742 0.78254
 C49 C 0.68653 0.22550 0.78807
 N50 N 0.68340 0.25130 0.81665
 C51 C 0.71207 0.27705 0.81372
 C52 C 0.78834 0.31510 0.77586
 N53 N 0.81715 0.31803 0.75027
 C54 C 0.81434 0.28926 0.72464
 C55 C 0.77648 0.21293 0.68668
 N56 N 0.75081 0.18421 0.68369
 C57 C 0.72498 0.18727 0.71226
 H58 H 0.66744 0.20164 0.78341
 H59 H 0.71663 0.30092 0.83281
 H60 H 0.78354 0.33431 0.79958
 H61 H 0.83361 0.28455 0.70094
 H62 H 0.80034 0.21753 0.66760
 H63 H 0.70117 0.16812 0.71685
 C64 C 0.28260 -0.23521 0.76757
 C65 C 0.26627 -0.21886 0.73491
 C66 C 0.23381 -0.23481 0.71894
 C67 C 0.21728 -0.26730 0.73541
 C68 C 0.23342 -0.28348 0.76769
 C69 C 0.26627 -0.26734 0.78386
 C70 C 0.31406 -0.22579 0.78916
 N71 N 0.31694 -0.25145 0.81792
 C72 C 0.28805 -0.27697 0.81513
 C73 C 0.21148 -0.31461 0.77741
 N74 N 0.18268 -0.31743 0.75178
 C75 C 0.18578 -0.28883 0.72598
 C76 C 0.22430 -0.21309 0.68761
 N77 N 0.25020 -0.18460 0.68444
 C78 C 0.27599 -0.18769 0.71305
 H79 H 0.33335 -0.20213 0.78437
 H80 H 0.28327 -0.30068 0.83437
 H81 H 0.21609 -0.33374 0.80123
 H82 H 0.16661 -0.28410 0.70221
 H83 H 0.20040 -0.21760 0.66856
 H84 H 0.29993 -0.16869 0.71755
 C85 C 0.71689 -0.23463 0.76743
 C86 C 0.73325 -0.21827 0.73479
 C87 C 0.76565 -0.23429 0.71877
 C88 C 0.78209 -0.26685 0.73518
 C89 C 0.76592 -0.28303 0.76745
 C90 C 0.73313 -0.26683 0.78366
 C91 C 0.68547 -0.22517 0.78906
 N92 N 0.68253 -0.25086 0.81777
 C93 C 0.71134 -0.27646 0.81492
 C94 C 0.78776 -0.31424 0.77711
 N95 N 0.81653 -0.31711 0.75147
 C96 C 0.81352 -0.28846 0.72571
 C97 C 0.77522 -0.21255 0.68747
 N98 N 0.74941 -0.18398 0.68436
 C99 C 0.72363 -0.18704 0.71298
 H100 H 0.66624 -0.20145 0.78432
 H101 H 0.71606 -0.30022 0.83411
 H102 H 0.78310 -0.33339 0.80091
 H103 H 0.83270 -0.28375 0.70194
 H104 H 0.79910 -0.21710 0.66840
 H105 H 0.69975 -0.16797 0.71751
 C106 C 0.28302 0.23422 0.76657
 C107 C 0.26653 0.21778 0.73406
 C108 C 0.23411 0.23381 0.71806
 C109 C 0.21781 0.26648 0.73438
 C110 C 0.23411 0.28273 0.76652
 C111 C 0.26690 0.26652 0.78271
 C112 C 0.31447 0.22476 0.78815
 N113 N 0.31755 0.25055 0.81675
 C114 C 0.28880 0.27621 0.81387
 C115 C 0.21236 0.31401 0.77611
 N116 N 0.18351 0.31688 0.75057
 C117 C 0.18641 0.28813 0.72494
 C118 C 0.22442 0.21197 0.68688
 N119 N 0.25017 0.18333 0.68382
 C120 C 0.27603 0.18645 0.71236
 H121 H 0.33363 0.20097 0.78346
 H122 H 0.28419 0.30004 0.83298
 H123 H 0.21710 0.33324 0.79981
 H124 H 0.16712 0.28341 0.70127
 H125 H 0.20051 0.21651 0.66784
 H126 H 0.29989 0.16737 0.71690
 C127 C 0.28267 -0.23499 0.23266
 C128 C 0.26635 -0.21865 0.26532
 C129 C 0.23388 -0.23460 0.28130
 C130 C 0.21734 -0.26707 0.26481
 C131 C 0.23347 -0.28323 0.23253
 C132 C 0.26633 -0.26710 0.21636
 C133 C 0.31413 -0.22557 0.21106
 N134 N 0.31699 -0.25120 0.18230
 C135 C 0.28810 -0.27672 0.18509
 C136 C 0.21152 -0.31435 0.22281
 N137 N 0.18273 -0.31718 0.24844
 C138 C 0.18584 -0.28860 0.27424
 C139 C 0.22438 -0.21291 0.31263
 N140 N 0.25029 -0.18442 0.31580
 C141 C 0.27607 -0.18750 0.28719
 H142 H 0.33344 -0.20192 0.21586
 H143 H 0.28330 -0.30041 0.16585
 H144 H 0.21612 -0.33347 0.19898
 H145 H 0.16667 -0.28388 0.29802
 H146 H 0.20047 -0.21743 0.33168
 H147 H 0.30002 -0.16850 0.28271
 C148 C 0.71855 0.23481 0.23345
 C149 C 0.73489 0.21849 0.26611
 C150 C 0.76709 0.23472 0.28235
 C151 C 0.78333 0.26748 0.26611
 C152 C 0.76717 0.28361 0.23382
 C153 C 0.73460 0.26718 0.21740
 C154 C 0.68732 0.22517 0.21164
 N155 N 0.68429 0.25090 0.18299
 C156 C 0.71288 0.27671 0.18608
 C157 C 0.78880 0.31501 0.22432
 N158 N 0.81744 0.31806 0.25008
 C159 C 0.81456 0.28932 0.27576
 C160 C 0.77666 0.21295 0.31363
 N161 N 0.75104 0.18416 0.31651
 C162 C 0.72539 0.18712 0.28777
 H163 H 0.66824 0.20130 0.21619
 H164 H 0.71747 0.30055 0.16697
 H165 H 0.78410 0.33416 0.20052
 H166 H 0.83370 0.28470 0.29958
 H167 H 0.80039 0.21763 0.33285
 H168 H 0.70166 0.16789 0.28306
 O169 O 0.21855 0.03620 0.46303
 O170 O 0.21871 -0.03811 0.53732
 O171 O 0.21857 0.03619 0.53730
 O172 O 0.21872 -0.03809 0.46301
 O173 O 0.28183 -0.03795 0.46300
 O174 O 0.28169 0.03632 0.53730
 O175 O 0.28182 -0.03798 0.53732
 O176 O 0.28167 0.03634 0.46302
 Cu177 Cu 0.21227 -0.00097 0.50017
 Cu178 Cu 0.28812 -0.00081 0.50016
 C179 C 0.25008 0.04881 0.45049
 C180 C 0.25029 -0.05057 0.54987
 C181 C 0.25011 0.04880 0.54983
 C182 C 0.25030 -0.05054 0.45045
 O183 O 0.78201 0.03679 0.53730
 O184 O 0.78149 -0.03749 0.46300
 O185 O 0.78202 0.03680 0.46303
 O186 O 0.78150 -0.03751 0.53732
 O187 O 0.71839 -0.03710 0.53733
 O188 O 0.71890 0.03722 0.46303
 O189 O 0.71837 -0.03708 0.46301
 O190 O 0.71889 0.03720 0.53730
 Cu191 Cu 0.78812 -0.00041 0.50017
 Cu192 Cu 0.71227 0.00009 0.50017
 C193 C 0.75054 0.04955 0.54982
 C194 C 0.74984 -0.04981 0.45045
 C195 C 0.75054 0.04957 0.45051
 C196 C 0.74986 -0.04984 0.54988
 O197 O 0.46331 0.28218 0.03597
 O198 O 0.53763 0.28253 -0.03833
 O199 O 0.46328 0.28235 -0.03832
 O200 O 0.53762 0.28236 0.03597
 O201 O 0.53776 0.21928 0.03584
 O202 O 0.46342 0.21927 -0.03844
 O203 O 0.53777 0.21944 -0.03845
 O204 O 0.46345 0.21910 0.03585
 Cu205 Cu 0.50045 0.28872 -0.00117
 Cu206 Cu 0.50061 0.21291 -0.00132
 C207 C 0.45085 0.25058 0.04846
 C208 C 0.55025 0.25104 -0.05092
 C209 C 0.45080 0.25081 -0.05091
 C210 C 0.55022 0.25082 0.04845
 O211 O 0.53690 0.78043 0.03720
 O212 O 0.46256 0.78018 -0.03710
 O213 O 0.46256 0.78026 0.03719
 O214 O 0.53690 0.78036 -0.03711
 O215 O 0.53704 0.71728 -0.03703
 O216 O 0.46270 0.71718 0.03727
 O217 O 0.46269 0.71710 -0.03702
 O218 O 0.53704 0.71735 0.03728
 Cu219 Cu 0.49972 0.78667 0.00004
 Cu220 Cu 0.49988 0.71086 0.00013
 C221 C 0.54951 0.74893 0.04978
 C222 C 0.45007 0.74860 -0.04959
 C223 C 0.45008 0.74870 0.04976
 C224 C 0.54952 0.74883 -0.04961
 O225 O 0.03662 0.46413 0.28089
 O226 O -0.03771 0.53842 0.28053
 O227 O -0.03768 0.46412 0.28101
 O228 O 0.03666 0.53841 0.28041
 O229 O 0.03656 0.53804 0.21733
 O230 O -0.03778 0.46374 0.21793
 O231 O -0.03781 0.53804 0.21745
 O232 O 0.03652 0.46376 0.21781
 Cu233 Cu -0.00052 0.50133 0.28707
 Cu234 Cu -0.00064 0.50087 0.21126
 C235 C 0.04910 0.45140 0.24941
 C236 C -0.05032 0.55075 0.24893
 C237 C -0.05025 0.45136 0.24957
 C238 C 0.04918 0.55074 0.24877
 O239 O 0.03657 0.53775 0.78301
 O240 O -0.03778 0.46346 0.78251
 O241 O 0.03653 0.46347 0.78262
 O242 O -0.03780 0.53776 0.78289
 O243 O -0.03770 0.53809 0.71981
 O244 O 0.03662 0.46381 0.71954
 O245 O -0.03769 0.46379 0.71943
 O246 O 0.03666 0.53809 0.71993
 Cu247 Cu -0.00063 0.50059 0.78912
 Cu248 Cu -0.00052 0.50099 0.71331
 C249 C 0.04918 0.55044 0.75155
 C250 C -0.05027 0.45107 0.75089
 C251 C 0.04912 0.45110 0.75103
 C252 C -0.05030 0.55046 0.75140
 C253 C 0.34494 0.25020 0.15462
 C254 C 0.36922 0.25026 0.13028
 C255 C 0.39766 0.25035 0.10177
 C256 C 0.42194 0.25045 0.07742
 C257 C 0.65566 0.74932 0.15575
 C258 C 0.63130 0.74924 0.13147
 C259 C 0.60279 0.74913 0.10302
 C260 C 0.57846 0.74903 0.07872
 C261 C 0.65656 0.25131 -0.15670
 C262 C 0.63216 0.25129 -0.13245
 C263 C 0.60361 0.25124 -0.10406
 C264 C 0.57924 0.25116 -0.07980
 C265 C 0.34376 0.74849 -0.15540
 C266 C 0.36815 0.74846 -0.13114
 C267 C 0.39671 0.74847 -0.10274
 C268 C 0.42108 0.74851 -0.07848
 C269 C 0.15497 0.34521 0.24976
 C270 C 0.13069 0.36956 0.24973
 C271 C 0.10227 0.39807 0.24964
 C272 C 0.07800 0.42243 0.24954
 C273 C 0.15577 0.65597 0.75185
 C274 C 0.13130 0.63179 0.75187
 C275 C 0.10266 0.60348 0.75182
 C276 C 0.07822 0.57928 0.75172
 C277 C -0.15668 0.65648 0.24871
 C278 C -0.13227 0.63225 0.24870
 C279 C -0.10370 0.60387 0.24874
 C280 C -0.07931 0.57963 0.24881
 C281 C -0.15613 0.34482 0.75033
 C282 C -0.13185 0.36918 0.75041
 C283 C -0.10344 0.39772 0.75055
 C284 C -0.07917 0.42209 0.75070
 C285 C 0.24991 0.15498 0.34460
 C286 C 0.24993 0.13063 0.36888
 C287 C 0.24997 0.10212 0.39730
 C288 C 0.25002 0.07777 0.42158
 C289 C 0.75089 0.15587 0.65551
 C290 C 0.75090 0.13148 0.63128
 C291 C 0.75083 0.10292 0.60292
 C292 C 0.75072 0.07854 0.57869
 C293 C 0.25028 -0.15640 0.65611
 C294 C 0.25033 -0.13214 0.63174
 C295 C 0.25035 -0.10374 0.60320
 C296 C 0.25033 -0.07947 0.57884
 C297 C 0.74933 -0.15558 0.34420
 C298 C 0.74939 -0.13132 0.36856
 C299 C 0.74951 -0.10293 0.39710
 C300 C 0.74965 -0.07868 0.42146
 C301 C 0.65571 0.74906 -0.15554
 C302 C 0.63134 0.74899 -0.13126
 C303 C 0.60282 0.74892 -0.10283
 C304 C 0.57848 0.74887 -0.07853
 C305 C 0.34443 0.25063 -0.15662
 C306 C 0.36885 0.25070 -0.13240
 C307 C 0.39742 0.25077 -0.10403
 C308 C 0.42180 0.25080 -0.07979
 C309 C 0.34382 0.74873 0.15562
 C310 C 0.36820 0.74869 0.13135
 C311 C 0.39674 0.74867 0.10294
 C312 C 0.42110 0.74867 0.07867
 C313 C 0.65608 0.25085 0.15466
 C314 C 0.63181 0.25082 0.13030
 C315 C 0.60340 0.25081 0.10177
 C316 C 0.57913 0.25082 0.07741
 C317 C -0.15663 0.65623 0.75152
 C318 C -0.13223 0.63199 0.75154
 C319 C -0.10367 0.60360 0.75153
 C320 C -0.07929 0.57934 0.75149
 C321 C -0.15590 0.34490 0.25010
 C322 C -0.13167 0.36933 0.25006
 C323 C -0.10332 0.39792 0.24994
 C324 C -0.07910 0.42234 0.24979
 C325 C 0.15520 0.34511 0.75064
 C326 C 0.13086 0.36940 0.75071
 C327 C 0.10237 0.39785 0.75082
 C328 C 0.07805 0.42216 0.75092
 C329 C 0.15581 0.65623 0.24837
 C330 C 0.13133 0.63206 0.24836
 C331 C 0.10268 0.60376 0.24844
 C332 C 0.07823 0.57957 0.24856
 C333 C 0.74941 -0.15573 0.65606
 C334 C 0.74945 -0.13145 0.63171
 C335 C 0.74955 -0.10303 0.60319
 C336 C 0.74968 -0.07875 0.57884
 C337 C 0.25036 -0.15625 0.34415
 C338 C 0.25039 -0.13202 0.36853
 C339 C 0.25038 -0.10365 0.39709
 C340 C 0.25035 -0.07941 0.42147
 C341 C 0.75104 0.15584 0.34473
 C342 C 0.75099 0.13147 0.36898
 C343 C 0.75087 0.10293 0.39738
 C344 C 0.75073 0.07856 0.42163
 C345 C 0.25010 0.15501 0.65563
 C346 C 0.25006 0.13065 0.63137
 C347 C 0.25005 0.10212 0.60298
 C348 C 0.25006 0.07777 0.57872
   
