data_POSCAR
  _audit_creation_date              2014-09-24
  _audit_creation_method            'ToBaCCo'
  _symmetry_space_group_name_H-M    'P1'
  _symmetry_Int_Tables_number       1
  _symmetry_cell_setting            triclinic
  loop_
  _symmetry_equiv_pos_as_xyz
 x,y,z
_cell_length_a 73.0668
_cell_length_b 73.2517
_cell_length_c 21.4685
_cell_angle_alpha 89.862900
_cell_angle_beta 90.120000
_cell_angle_gamma 119.951600
loop_
  _atom_site_label
  _atom_site_type_symbol
  _atom_site_fract_x
  _atom_site_fract_y
  _atom_site_fract_z
C1 C 0.25114 0.50156 0.52735
 C2 C 0.25104 0.50001 0.46404
 C3 C 0.23518 0.50173 0.42467
 C4 C 0.26699 0.49663 0.43129
 C5 C 0.26879 0.50292 0.56554
 C6 C 0.23356 0.50166 0.56174
 C7 C 0.22382 0.48642 0.37966
 C8 C 0.20874 0.48768 0.34268
 C9 C 0.20446 0.50450 0.34912
 C10 C 0.21660 0.52013 0.39417
 C11 C 0.23169 0.51876 0.43089
 C12 C 0.26965 0.47945 0.44657
 C13 C 0.28554 0.47708 0.41827
 C14 C 0.29898 0.49181 0.37392
 C15 C 0.29581 0.50861 0.35728
 C16 C 0.27989 0.51093 0.38549
 C17 C 0.28980 0.51834 0.55323
 C18 C 0.30631 0.51913 0.58833
 C19 C 0.30210 0.50468 0.63702
 C20 C 0.28098 0.48964 0.65031
 C21 C 0.26450 0.48880 0.61497
 C22 C 0.23800 0.51739 0.60601
 C23 C 0.22171 0.51735 0.63996
 C24 C 0.20063 0.50148 0.63058
 C25 C 0.19621 0.48567 0.58636
 C26 C 0.21254 0.48568 0.55253
 H27 H 0.22658 0.47333 0.37318
 H28 H 0.20134 0.47572 0.30734
 H29 H 0.21400 0.53307 0.40447
 H30 H 0.24054 0.53098 0.46483
 H31 H 0.25963 0.46808 0.48122
 H32 H 0.28766 0.46404 0.43224
 H33 H 0.27795 0.52419 0.37275
 H34 H 0.29343 0.52966 0.51606
 H35 H 0.32238 0.53081 0.57660
 H36 H 0.27717 0.47856 0.68826
 H37 H 0.24839 0.47692 0.62564
 H38 H 0.25412 0.52979 0.61401
 H39 H 0.22558 0.52987 0.67318
 H40 H 0.18017 0.47305 0.57888
 H41 H 0.20881 0.47310 0.51968
 H42 H 0.30570 0.51999 0.32250
 C43 C 0.50440 -0.24970 0.52955
 C44 C 0.50362 -0.25076 0.46606
 C45 C 0.50572 -0.26730 0.43215
 C46 C 0.50083 -0.23537 0.42789
 C47 C 0.50648 -0.23105 0.56330
 C48 C 0.50355 -0.26706 0.56761
 C49 C 0.52295 -0.27034 0.44361
 C50 C 0.52428 -0.28662 0.41418
 C51 C 0.50855 -0.29999 0.37200
 C52 C 0.49169 -0.29647 0.35903
 C53 C 0.49033 -0.28023 0.38873
 C54 C 0.51488 -0.22457 0.37910
 C55 C 0.51299 -0.20936 0.34490
 C56 C 0.49693 -0.20473 0.35866
 C57 C 0.48247 -0.21606 0.40632
 C58 C 0.48433 -0.23132 0.44034
 C59 C 0.49231 -0.23368 0.61113
 C60 C 0.49370 -0.21614 0.64135
 C61 C 0.50938 -0.19565 0.62449
 C62 C 0.52391 -0.19312 0.57771
 C63 C 0.52255 -0.21064 0.54771
 C64 C 0.48726 -0.28786 0.55905
 C65 C 0.48750 -0.30441 0.59064
 C66 C 0.50401 -0.30063 0.63248
 C67 C 0.51979 -0.27942 0.64280
 C68 C 0.51949 -0.26291 0.61092
 H69 H 0.53526 -0.26021 0.47586
 H70 H 0.53767 -0.28867 0.42414
 H71 H 0.47928 -0.30660 0.32706
 H72 H 0.47698 -0.27806 0.37902
 H73 H 0.52760 -0.22761 0.36839
 H74 H 0.52413 -0.20117 0.30772
 H75 H 0.47309 -0.23976 0.47709
 H76 H 0.47986 -0.24929 0.62403
 H77 H 0.48220 -0.21859 0.67690
 H78 H 0.53642 -0.17757 0.56459
 H79 H 0.53396 -0.20829 0.51194
 H80 H 0.47463 -0.29136 0.52629
 H81 H 0.47522 -0.32017 0.57894
 H82 H 0.53228 -0.27525 0.67645
 H83 H 0.53204 -0.24689 0.61896
 H84 H 0.47002 -0.21276 0.41834
 C85 C 1.25045 0.75264 0.53256
 C86 C 1.24889 0.75403 0.46949
 C87 C 1.26460 0.77285 0.43411
 C88 C 1.23165 0.73688 0.43274
 C89 C 1.23354 0.73522 0.56975
 C90 C 1.26908 0.76888 0.56737
 C91 C 1.26894 0.79313 0.45055
 C92 C 1.28493 0.81082 0.42039
 C93 C 1.29685 0.80873 0.37196
 C94 C 1.29154 0.78809 0.35392
 C95 C 1.27566 0.77046 0.38462
 C96 C 1.21961 0.74159 0.39169
 C97 C 1.20301 0.72559 0.35799
 C98 C 1.19815 0.70453 0.36452
 C99 C 1.21058 0.69992 0.40455
 C100 C 1.22727 0.71597 0.43795
 C101 C 1.23870 0.72381 0.61168
 C102 C 1.22296 0.70715 0.64605
 C103 C 1.20146 0.70135 0.63942
 C104 C 1.19657 0.71337 0.59798
 C105 C 1.21240 0.73015 0.56424
 C106 C 1.28963 0.77421 0.54991
 C107 C 1.30708 0.79104 0.57833
 C108 C 1.30449 0.80282 0.62611
 C109 C 1.28366 0.79643 0.64565
 C110 C 1.26625 0.77973 0.61655
 H111 H 1.26011 0.79527 0.48747
 H112 H 1.28739 0.82605 0.43438
 H113 H 1.30035 0.78530 0.31851
 H114 H 1.27251 0.75491 0.37117
 H115 H 1.22288 0.75766 0.38644
 H116 H 1.19401 0.72972 0.32666
 H117 H 1.23664 0.71204 0.46841
 H118 H 1.25495 0.72749 0.61678
 H119 H 1.22780 0.69831 0.67540
 H120 H 1.18062 0.71049 0.59289
 H121 H 1.20812 0.73922 0.53374
 H122 H 1.29215 0.76558 0.51323
 H123 H 1.32258 0.79437 0.56341
 H124 H 1.28047 0.80502 0.68077
 H125 H 1.25049 0.77582 0.63076
 H126 H 1.20716 0.68386 0.41101
 C127 C 0.75245 0.50353 0.53564
 C128 C 0.75364 0.50571 0.47259
 C129 C 0.77120 0.50646 0.43595
 C130 C 0.73709 0.50739 0.43720
 C131 C 0.73519 0.50392 0.57034
 C132 C 0.76809 0.50091 0.57333
 C133 C 0.79237 0.52099 0.44999
 C134 C 0.80870 0.52089 0.41638
 C135 C 0.80412 0.50646 0.36755
 C136 C 0.78290 0.49229 0.35274
 C137 C 0.76662 0.49234 0.38648
 C138 C 0.74173 0.52656 0.40939
 C139 C 0.72613 0.52830 0.37647
 C140 C 0.70573 0.51079 0.37001
 C141 C 0.70122 0.49155 0.39763
 C142 C 0.71677 0.48988 0.43099
 C143 C 0.71764 0.48505 0.58940
 C144 C 0.70138 0.48528 0.62277
 C145 C 0.70259 0.50452 0.63942
 C146 C 0.72055 0.52345 0.62013
 C147 C 0.73650 0.52310 0.58533
 C148 C 0.77334 0.48541 0.55899
 C149 C 0.78822 0.48332 0.59476
 C150 C 0.79792 0.49635 0.64709
 C151 C 0.79205 0.51153 0.66178
 C152 C 0.77745 0.51376 0.62540
 H153 H 0.79624 0.53229 0.48723
 H154 H 0.82490 0.53219 0.42824
 H155 H 0.77887 0.48082 0.31592
 H156 H 0.75040 0.48101 0.37488
 H157 H 0.75739 0.54018 0.41355
 H158 H 0.73011 0.54325 0.35522
 H159 H 0.71300 0.47493 0.45182
 H160 H 0.71655 0.47011 0.57836
 H161 H 0.68841 0.47030 0.63793
 H162 H 0.72206 0.53864 0.62962
 H163 H 0.74999 0.53781 0.57045
 H164 H 0.76581 0.47480 0.52024
 H165 H 0.79133 0.47082 0.58244
 H166 H 0.79939 0.52253 0.69968
 H167 H 0.77375 0.52590 0.63747
 H168 H 0.68559 0.47786 0.39390
 C169 C 0.48647 0.24080 0.53162
 C170 C 0.48662 0.24084 0.46807
 C171 C 0.48770 0.25861 0.43162
 C172 C 0.48545 0.22297 0.43217
 C173 C 0.48754 0.22411 0.56809
 C174 C 0.48491 0.25725 0.56758
 C175 C 0.47240 0.25467 0.38601
 C176 C 0.47258 0.27133 0.35370
 C177 C 0.48816 0.29228 0.36616
 C178 C 0.50389 0.29612 0.41046
 C179 C 0.50374 0.27944 0.44258
 C180 C 0.46900 0.20228 0.44241
 C181 C 0.46871 0.18544 0.41116
 C182 C 0.48471 0.18899 0.36841
 C183 C 0.50074 0.20981 0.35656
 C184 C 0.50107 0.22664 0.38807
 C185 C 0.50393 0.21974 0.55866
 C186 C 0.50408 0.20313 0.59026
 C187 C 0.48786 0.19044 0.63281
 C188 C 0.47187 0.19561 0.64343
 C189 C 0.47180 0.21223 0.61166
 C190 C 0.50047 0.26940 0.61133
 C191 C 0.49965 0.28552 0.64358
 C192 C 0.48300 0.28978 0.63355
 C193 C 0.46703 0.27688 0.59064
 C194 C 0.46800 0.26086 0.55824
 H195 H 0.46003 0.23869 0.37635
 H196 H 0.46051 0.26783 0.31896
 H197 H 0.51605 0.31206 0.42140
 H198 H 0.51595 0.28279 0.47671
 H199 H 0.45652 0.19917 0.47520
 H200 H 0.45593 0.16962 0.42033
 H201 H 0.51383 0.24251 0.37930
 H202 H 0.51640 0.22893 0.52565
 H203 H 0.51647 0.19978 0.57834
 H204 H 0.45957 0.18730 0.67753
 H205 H 0.45917 0.21559 0.62030
 H206 H 0.51348 0.26659 0.61991
 H207 H 0.51185 0.29410 0.67778
 H208 H 0.45417 0.27960 0.57925
 H209 H 0.45568 0.25145 0.52506
 H210 H 0.51335 0.21303 0.32419
 C211 C 0.74762 0.25454 0.53373
 C212 C 0.74758 0.25393 0.47019
 C213 C 0.72982 0.23684 0.43498
 C214 C 0.76523 0.27035 0.43262
 C215 C 0.76442 0.27266 0.56888
 C216 C 0.73107 0.23693 0.57107
 C217 C 0.73380 0.22466 0.39277
 C218 C 0.71721 0.20828 0.36013
 C219 C 0.69634 0.20395 0.36853
 C220 C 0.69244 0.21648 0.40983
 C221 C 0.70905 0.23281 0.44275
 C222 C 0.78620 0.27531 0.44318
 C223 C 0.80271 0.29146 0.40944
 C224 C 0.79852 0.30270 0.36380
 C225 C 0.77746 0.29722 0.35199
 C226 C 0.76098 0.28117 0.38599
 C227 C 0.76951 0.29340 0.55532
 C228 C 0.78648 0.31037 0.58503
 C229 C 0.79861 0.30708 0.63038
 C230 C 0.79255 0.28602 0.64589
 C231 C 0.77574 0.26912 0.61545
 C232 C 0.71937 0.24097 0.61503
 C233 C 0.70348 0.22450 0.64953
 C234 C 0.69911 0.20366 0.64116
 C235 C 0.71120 0.19973 0.59806
 C236 C 0.72708 0.21621 0.56352
 H237 H 0.74975 0.22767 0.38578
 H238 H 0.72070 0.19907 0.32795
 H239 H 0.67651 0.21342 0.41743
 H240 H 0.70572 0.24226 0.47446
 H241 H 0.78977 0.26681 0.47796
 H242 H 0.81875 0.29508 0.41877
 H243 H 0.74491 0.27751 0.37693
 H244 H 0.76050 0.29647 0.52097
 H245 H 0.78958 0.32602 0.57328
 H246 H 0.80143 0.28233 0.67887
 H247 H 0.77203 0.25321 0.62678
 H248 H 0.72238 0.25687 0.62200
 H249 H 0.69470 0.22809 0.68312
 H250 H 0.70815 0.18385 0.59029
 H251 H 0.73620 0.21281 0.53064
 H252 H 0.77376 0.30570 0.31747
 O253 O 0.97019 0.51693 -0.11070
 O254 O 0.94767 0.49027 -0.04581
 C255 C 0.95139 0.50322 -0.09169
 O256 O 1.02775 0.48032 -0.11235
 O257 O 1.05252 0.50966 -0.06027
 C258 C 1.04718 0.49447 -0.09989
 O259 O 0.96838 0.45349 -0.10810
 O260 O 0.94686 0.45941 -0.04381
 C261 C 0.94987 0.44924 -0.08820
 O262 O 1.02926 0.54773 -0.11232
 O263 O 1.05317 0.54162 -0.06071
 C264 C 1.04845 0.55218 -0.09979
 Zr265 Zr 1.00012 0.52336 -0.07752
 O266 O 1.00084 0.52456 -0.17603
 O267 O 0.99812 0.55121 -0.07440
 Zr268 Zr 0.99892 0.47665 -0.07750
 O269 O 0.99932 0.47670 -0.17613
 O270 O 0.99583 0.44633 -0.07587
 O271 O 0.98050 0.49089 -0.08652
 O272 O 1.01760 0.50867 -0.09219
 O273 O 1.03363 0.54949 0.10448
 O274 O 1.05524 0.54249 0.04419
 C275 C 1.05216 0.55359 0.08539
 O276 O 0.97305 0.45551 0.11985
 O277 O 0.94905 0.46051 0.06449
 C278 C 0.95386 0.45102 0.10707
 O279 O 1.03177 0.48190 0.10384
 O280 O 1.05442 0.51023 0.04418
 C281 C 1.05059 0.49565 0.08499
 O282 O 0.97475 0.51977 0.11997
 O283 O 0.94985 0.49159 0.06425
 C284 C 0.95530 0.50585 0.10710
 Zr285 Zr 1.00325 0.52483 0.07900
 O286 O 1.00754 0.52725 0.17679
 O287 O 1.00159 0.55287 0.07705
 Zr288 Zr 1.00202 0.47813 0.07922
 O289 O 1.00640 0.48029 0.17702
 O290 O 0.99885 0.44778 0.07944
 Zr291 Zr 0.96952 0.48565 0.00626
 Zr292 Zr 1.03259 0.51579 -0.00464
 O293 O 1.02120 0.51033 0.08742
 O294 O 0.98405 0.49259 0.09469
 O295 O 1.02069 0.53675 -0.00251
 O296 O 0.98199 0.46522 0.00403
 O297 O 0.98328 0.51863 0.00376
 O298 O 1.01925 0.48277 -0.00235
 H299 H 1.02633 0.51292 -0.13046
 H300 H 0.97220 0.44980 0.00575
 H301 H 1.03139 0.51515 0.12247
 H302 H 0.97386 0.52474 0.00495
 H303 H 1.00849 0.44760 -0.05497
 H304 H 1.00986 0.44827 0.05159
 H305 H 0.99505 0.48216 0.19542
 H306 H 0.99648 0.51389 0.19523
 H307 H 1.01374 0.56342 0.05248
 H308 H 1.01113 0.56226 -0.05425
 H309 H 0.99025 0.51043 -0.19120
 H310 H 0.98728 0.47820 -0.19074
 O311 O 0.45512 0.48160 0.11676
 O312 O 0.45855 0.50863 0.05463
 C313 C 0.44983 0.49544 0.10015
 O314 O 0.55000 0.51816 0.09768
 O315 O 0.54365 0.48869 0.04324
 C316 C 0.55469 0.50386 0.08187
 O317 O 0.51793 0.54534 0.10554
 O318 O 0.48864 0.53906 0.04942
 C319 C 0.50312 0.54948 0.09067
 O320 O 0.48384 0.45095 0.10947
 O321 O 0.51215 0.45673 0.04947
 C322 C 0.49809 0.44639 0.09184
 Zr323 Zr 0.47834 0.47536 0.07905
 O324 O 0.48149 0.47571 0.17718
 O325 O 0.44860 0.44743 0.08449
 Zr326 Zr 0.52409 0.52192 0.07020
 O327 O 0.52750 0.52261 0.16822
 O328 O 0.55136 0.55210 0.06264
 O329 O 0.49173 0.50789 0.08750
 O330 O 0.51088 0.48993 0.08545
 O331 O 0.48052 0.44822 -0.10724
 O332 O 0.51089 0.45563 -0.05526
 C333 C 0.49546 0.44422 -0.09290
 O334 O 0.51337 0.54224 -0.12234
 O335 O 0.48610 0.53733 -0.05881
 C336 C 0.49906 0.54670 -0.10440
 O337 O 0.54568 0.51535 -0.12079
 O338 O 0.54196 0.48773 -0.06079
 C339 C 0.55123 0.50176 -0.10408
 O340 O 0.45139 0.47829 -0.11226
 O341 O 0.45635 0.50656 -0.05398
 C342 C 0.44640 0.49233 -0.09620
 Zr343 Zr 0.47557 0.47306 -0.07788
 O344 O 0.47427 0.46975 -0.17594
 O345 O 0.44589 0.44516 -0.06953
 Zr346 Zr 0.52105 0.51981 -0.08662
 O347 O 0.52070 0.51774 -0.18501
 O348 O 0.54838 0.55006 -0.09004
 Zr349 Zr 0.48345 0.51263 -0.00280
 Zr350 Zr 0.51606 0.48237 -0.00489
 O351 O 0.50761 0.48750 -0.09431
 O352 O 0.48832 0.50527 -0.09393
 O353 O 0.48321 0.46151 0.00066
 O354 O 0.51630 0.53307 -0.00811
 O355 O 0.46411 0.47969 0.00169
 O356 O 0.53588 0.51534 -0.00964
 H357 H 0.51643 0.48580 0.12170
 H358 H 0.52184 0.54847 -0.00980
 H359 H 0.51182 0.48245 -0.13140
 H360 H 0.44859 0.47359 0.00391
 H361 H 0.56200 0.55050 0.03854
 H362 H 0.55987 0.54915 -0.06848
 H363 H 0.50685 0.51542 -0.19959
 H364 H 0.47723 0.48338 -0.19393
 H365 H 0.44820 0.43454 -0.04794
 H366 H 0.44938 0.43668 0.05867
 H367 H 0.48270 0.48899 0.19253
 H368 H 0.51397 0.51992 0.18653
 O369 O 0.51907 -0.02967 0.12087
 O370 O 0.49156 -0.05302 0.05990
 C371 C 0.50503 -0.04867 0.10470
 O372 O 0.48377 0.02932 0.10466
 O373 O 0.51325 0.05211 0.04920
 C374 C 0.49816 0.04818 0.08816
 O375 O 0.45586 -0.02971 0.11306
 O376 O 0.46102 -0.05320 0.05604
 C377 C 0.45109 -0.04877 0.09798
 O378 O 0.55062 0.02926 0.11132
 O379 O 0.54512 0.05223 0.05236
 C380 C 0.55548 0.04817 0.09398
 Zr381 Zr 0.52554 -0.00037 0.08249
 O382 O 0.52633 0.00207 0.18081
 O383 O 0.55384 -0.00157 0.08049
 Zr384 Zr 0.47926 -0.00031 0.07630
 O385 O 0.47616 0.00045 0.17407
 O386 O 0.45029 -0.00094 0.06289
 O387 O 0.49290 -0.01896 0.09276
 O388 O 0.51155 0.01802 0.09014
 O389 O 0.55239 0.02789 -0.10366
 O390 O 0.54598 0.05142 -0.05160
 C391 C 0.55698 0.04696 -0.08958
 O392 O 0.45719 -0.03068 -0.11543
 O393 O 0.46153 -0.05344 -0.05189
 C394 C 0.45212 -0.04954 -0.09687
 O395 O 0.48547 0.02864 -0.11189
 O396 O 0.51434 0.05185 -0.05474
 C397 C 0.49979 0.04763 -0.09601
 O398 O 0.52056 -0.03132 -0.10665
 O399 O 0.49180 -0.05394 -0.04822
 C400 C 0.50603 -0.05015 -0.09012
 Zr401 Zr 0.52667 -0.00138 -0.07455
 O402 O 0.52833 0.00046 -0.17300
 O403 O 0.55447 -0.00354 -0.07095
 Zr404 Zr 0.48067 -0.00098 -0.08057
 O405 O 0.48291 0.00091 -0.17894
 O406 O 0.45085 -0.00281 -0.08430
 Zr407 Zr 0.48723 -0.03211 0.00271
 Zr408 Zr 0.51891 0.03062 -0.00034
 O409 O 0.51305 0.01712 -0.08977
 O410 O 0.49424 -0.02006 -0.08882
 O411 O 0.53914 0.01791 0.00351
 O412 O 0.46734 -0.01904 -0.00155
 O413 O 0.52017 -0.01926 0.00545
 O414 O 0.48596 0.01822 -0.00332
 H415 H 0.51621 0.02779 0.12605
 H416 H 0.45183 -0.02857 -0.00221
 H417 H 0.51818 0.02653 -0.12663
 H418 H 0.52605 -0.02886 0.00727
 H419 H 0.44465 -0.00130 0.10509
 H420 H 0.45126 0.00768 -0.05449
 H421 H 0.48418 -0.01119 -0.19362
 H422 H 0.51529 -0.01169 -0.18950
 H423 H 0.56342 0.00601 -0.03743
 H424 H 0.55809 -0.00123 0.12454
 H425 H 0.51230 -0.00874 0.19640
 H426 H 0.49022 0.00511 0.19234
 C427 C 1.18878 0.52456 0.30658
 C428 C 1.17295 0.52535 0.27204
 C429 C 1.15682 0.50726 0.24376
 C430 C 1.15727 0.48839 0.24877
 C431 C 1.17305 0.48748 0.28317
 C432 C 1.18923 0.50550 0.31386
 C433 C 1.14000 0.50872 0.20903
 C434 C 1.12054 0.49219 0.20057
 C435 C 1.10313 0.49355 0.16931
 C436 C 1.08228 0.47795 0.18229
 C437 C 1.06529 0.47857 0.15464
 C438 C 1.06874 0.49477 0.11276
 C439 C 1.08965 0.51018 0.09857
 C440 C 1.10668 0.50958 0.12646
 H441 H 1.20105 0.53938 0.32485
 H442 H 1.17327 0.54025 0.26771
 H443 H 1.14545 0.47416 0.22614
 H444 H 1.17148 0.47208 0.28757
 H445 H 1.14344 0.52422 0.19394
 H446 H 1.11659 0.47714 0.22098
 H447 H 1.07908 0.46532 0.21464
 H448 H 1.04942 0.46635 0.16637
 H449 H 1.09289 0.52277 0.06609
 H450 H 1.12252 0.52153 0.11369
 C451 C 0.51563 0.66985 0.37694
 C452 C 0.51641 0.65302 0.34909
 C453 C 0.51108 0.64815 0.28608
 C454 C 0.50539 0.66084 0.25100
 C455 C 0.50457 0.67764 0.27891
 C456 C 0.50962 0.68229 0.34220
 C457 C 0.51221 0.63018 0.25851
 C458 C 0.50141 0.61987 0.20742
 C459 C 0.50219 0.60171 0.17977
 C460 C 0.48592 0.58836 0.13915
 C461 C 0.48616 0.57137 0.11068
 C462 C 0.50278 0.56733 0.12196
 C463 C 0.51913 0.58070 0.16252
 C464 C 0.51891 0.59776 0.19091
 H465 H 0.51943 0.67292 0.42596
 H466 H 0.52098 0.64362 0.37709
 H467 H 0.50193 0.65816 0.20178
 H468 H 0.50031 0.68722 0.25068
 H469 H 0.52145 0.62471 0.28338
 H470 H 0.49068 0.62418 0.18602
 H471 H 0.47292 0.59109 0.12938
 H472 H 0.47330 0.56142 0.07967
 H473 H 0.53227 0.57816 0.17174
 H474 H 0.53211 0.60799 0.22033
 C475 C 0.32499 -0.15388 0.37526
 C476 C 0.34216 -0.13644 0.34780
 C477 C 0.34886 -0.13769 0.28767
 C478 C 0.33756 -0.15668 0.25463
 C479 C 0.32045 -0.17419 0.28205
 C480 C 0.31386 -0.17326 0.34324
 C481 C 0.36729 -0.11876 0.26074
 C482 C 0.37909 -0.11966 0.21426
 C483 C 0.39772 -0.10096 0.18703
 C484 C 0.41155 -0.10425 0.14964
 C485 C 0.42897 -0.08732 0.12137
 C486 C 0.43301 -0.06661 0.12976
 C487 C 0.41924 -0.06325 0.16733
 C488 C 0.40172 -0.08021 0.19536
 H489 H 0.32128 -0.15220 0.42287
 H490 H 0.35053 -0.12197 0.37428
 H491 H 0.34153 -0.15806 0.20704
 H492 H 0.31199 -0.18815 0.25371
 H493 H 0.37175 -0.10382 0.28251
 H494 H 0.37557 -0.13487 0.19644
 H495 H 0.40884 -0.12003 0.14206
 H496 H 0.43925 -0.09051 0.09276
 H497 H 0.42175 -0.04751 0.17417
 H498 H 0.39122 -0.07690 0.22217
 C499 C 0.81995 0.50306 0.26768
 C500 C 0.83581 0.50184 0.23497
 C501 C 0.85351 0.50358 0.26620
 C502 C 0.85487 0.50632 0.33130
 C503 C 0.83901 0.50758 0.36399
 C504 C 0.82135 0.50591 0.33257
 C505 C 0.86972 0.50175 0.22955
 C506 C 0.88973 0.50941 0.24872
 C507 C 0.90606 0.50800 0.21149
 C508 C 0.92739 0.52246 0.22337
 C509 C 0.94335 0.52178 0.18954
 C510 C 0.93834 0.50644 0.14324
 C511 C 0.91697 0.49170 0.13201
 C512 C 0.90100 0.49240 0.16589
 H513 H 0.80661 0.50188 0.24210
 H514 H 0.83429 0.49960 0.18497
 H515 H 0.86783 0.50697 0.35753
 H516 H 0.84029 0.50932 0.41415
 H517 H 0.86514 0.49477 0.18373
 H518 H 0.89485 0.51816 0.29187
 H519 H 0.93175 0.53449 0.25868
 H520 H 0.95962 0.53332 0.19971
 H521 H 0.91253 0.47952 0.09717
 H522 H 0.88480 0.48048 0.15682
 C523 C 0.46847 0.30947 0.32348
 C524 C 0.46803 0.32630 0.29422
 C525 C 0.48679 0.34407 0.27458
 C526 C 0.50614 0.34475 0.28568
 C527 C 0.50656 0.32788 0.31476
 C528 C 0.48774 0.31004 0.33401
 C529 C 0.48548 0.36170 0.24496
 C530 C 0.50087 0.37661 0.20978
 C531 C 0.49949 0.39421 0.18017
 C532 C 0.51286 0.40481 0.12982
 C533 C 0.51236 0.42167 0.10101
 C534 C 0.49850 0.42841 0.12215
 C535 C 0.48522 0.41792 0.17290
 C536 C 0.48578 0.40110 0.20187
 H537 H 0.45372 0.29616 0.33889
 H538 H 0.45294 0.32544 0.28700
 H539 H 0.52104 0.35837 0.27316
 H540 H 0.52166 0.32877 0.32199
 H541 H 0.47078 0.36172 0.25048
 H542 H 0.51479 0.37553 0.19953
 H543 H 0.52371 0.39997 0.11250
 H544 H 0.52285 0.42940 0.06211
 H545 H 0.47452 0.42285 0.19080
 H546 H 0.47574 0.39391 0.24188
 C547 C 0.66260 0.18869 0.30729
 C548 C 0.64611 0.17199 0.27508
 C549 C 0.64536 0.15253 0.26947
 C550 C 0.66139 0.15004 0.29791
 C551 C 0.67791 0.16677 0.32976
 C552 C 0.67873 0.18627 0.33467
 C553 C 0.62736 0.13526 0.23521
 C554 C 0.62688 0.11761 0.21595
 C555 C 0.60850 0.10025 0.18380
 C556 C 0.60497 0.07969 0.19040
 C557 C 0.58775 0.06280 0.16134
 C558 C 0.57386 0.06615 0.12410
 C559 C 0.57767 0.08683 0.11626
 C560 C 0.59480 0.10372 0.14584
 H561 H 0.66289 0.20359 0.31005
 H562 H 0.63394 0.17435 0.25412
 H563 H 0.66122 0.13522 0.29702
 H564 H 0.68991 0.16434 0.35159
 H565 H 0.61391 0.13728 0.22588
 H566 H 0.64001 0.11515 0.22543
 H567 H 0.61542 0.07665 0.21885
 H568 H 0.58540 0.04710 0.16794
 H569 H 0.56734 0.08997 0.08753
 H570 H 0.59743 0.11945 0.13805
 C571 C 0.46829 0.15573 -0.31532
 C572 C 0.46785 0.13840 -0.28647
 C573 C 0.48646 0.13770 -0.27737
 C574 C 0.50561 0.15460 -0.29888
 C575 C 0.50612 0.17194 -0.32789
 C576 C 0.48746 0.17295 -0.33680
 C577 C 0.48514 0.11884 -0.24723
 C578 C 0.50144 0.11909 -0.21759
 C579 C 0.50019 0.10038 -0.18667
 C580 C 0.51495 0.10356 -0.14002
 C581 C 0.51470 0.08646 -0.11035
 C582 C 0.49973 0.06569 -0.12706
 C583 C 0.48500 0.06247 -0.17410
 C584 C 0.48526 0.07961 -0.20378
 H585 H 0.45329 0.15494 -0.32294
 H586 H 0.45282 0.12542 -0.27130
 H587 H 0.52028 0.15446 -0.29423
 H588 H 0.52143 0.18478 -0.34129
 H589 H 0.46986 0.10462 -0.24696
 H590 H 0.51613 0.13383 -0.21277
 H591 H 0.52671 0.11937 -0.12626
 H592 H 0.52632 0.08958 -0.07441
 H593 H 0.47339 0.04669 -0.18848
 H594 H 0.47403 0.07646 -0.24086
 C595 C 0.69080 0.52164 -0.28446
 C596 C 0.67483 0.52166 -0.24880
 C597 C 0.65393 0.50529 -0.25435
 C598 C 0.64923 0.48852 -0.29487
 C599 C 0.66522 0.48816 -0.32942
 C600 C 0.68635 0.50480 -0.32527
 C601 C 0.63732 0.50579 -0.21669
 C602 C 0.61823 0.50004 -0.24024
 C603 C 0.60170 0.50109 -0.20378
 C604 C 0.58870 0.50746 -0.23340
 C605 C 0.57263 0.50819 -0.20042
 C606 C 0.56888 0.50193 -0.13770
 C607 C 0.58174 0.49530 -0.10814
 C608 C 0.59818 0.49508 -0.14075
 H609 H 0.70676 0.53446 -0.27761
 H610 H 0.67879 0.53463 -0.21721
 H611 H 0.63321 0.47554 -0.29940
 H612 H 0.66070 0.47516 -0.36121
 H613 H 0.64134 0.51232 -0.17014
 H614 H 0.61504 0.49570 -0.28894
 H615 H 0.59110 0.51203 -0.28204
 H616 H 0.56280 0.51318 -0.22440
 H617 H 0.57914 0.49038 -0.05980
 H618 H 0.60778 0.48975 -0.11718
 C619 C 0.82818 0.34379 -0.37291
 C620 C 0.84621 0.36047 -0.34612
 C621 C 0.85296 0.35847 -0.28672
 C622 C 0.84153 0.33926 -0.25486
 C623 C 0.82363 0.32245 -0.28175
 C624 C 0.81653 0.32432 -0.34146
 C625 C 0.87234 0.37638 -0.26032
 C626 C 0.87541 0.37994 -0.19894
 C627 C 0.89468 0.39790 -0.17233
 C628 C 0.89326 0.40626 -0.11505
 C629 C 0.91114 0.42304 -0.08806
 C630 C 0.93095 0.43157 -0.11730
 C631 C 0.93244 0.42298 -0.17425
 C632 C 0.91448 0.40634 -0.20159
 H633 H 0.82414 0.34604 -0.41970
 H634 H 0.85497 0.37503 -0.37205
 H635 H 0.84656 0.33699 -0.20946
 H636 H 0.81511 0.30826 -0.25426
 H637 H 0.88388 0.38752 -0.29270
 H638 H 0.86290 0.37005 -0.16686
 H639 H 0.87822 0.39989 -0.09132
 H640 H 0.90947 0.42918 -0.04390
 H641 H 0.94748 0.42916 -0.19782
 H642 H 0.91624 0.39986 -0.24494
 C643 C 0.51463 -0.15911 -0.38031
 C644 C 0.51555 -0.14154 -0.35178
 C645 C 0.51216 -0.14145 -0.28750
 C646 C 0.50824 -0.15923 -0.25195
 C647 C 0.50730 -0.17681 -0.28053
 C648 C 0.51045 -0.17696 -0.34502
 C649 C 0.51343 -0.12237 -0.25932
 C650 C 0.50418 -0.12256 -0.20518
 C651 C 0.50504 -0.10361 -0.17740
 C652 C 0.48964 -0.10644 -0.13348
 C653 C 0.48991 -0.08912 -0.10545
 C654 C 0.50572 -0.06848 -0.12039
 C655 C 0.52127 -0.06562 -0.16397
 C656 C 0.52102 -0.08297 -0.19197
 H657 H 0.51691 -0.15882 -0.43020
 H658 H 0.51872 -0.12804 -0.38021
 H659 H 0.50629 -0.15954 -0.20198
 H660 H 0.50448 -0.19017 -0.25195
 H661 H 0.52136 -0.10795 -0.28616
 H662 H 0.49461 -0.13737 -0.18131
 H663 H 0.47727 -0.12214 -0.12096
 H664 H 0.47769 -0.09196 -0.07198
 H665 H 0.53380 -0.04996 -0.17611
 H666 H 0.53360 -0.08007 -0.22397
 C667 C 0.33749 0.52428 -0.31015
 C668 C 0.35411 0.52456 -0.27694
 C669 C 0.35337 0.50568 -0.26001
 C670 C 0.33533 0.48644 -0.27563
 C671 C 0.31875 0.48617 -0.30894
 C672 C 0.31966 0.50507 -0.32682
 C673 C 0.37144 0.50674 -0.22509
 C674 C 0.37575 0.49095 -0.22379
 C675 C 0.39399 0.49192 -0.19017
 C676 C 0.40054 0.47753 -0.20659
 C677 C 0.41749 0.47763 -0.17610
 C678 C 0.42828 0.49210 -0.12807
 C679 C 0.42160 0.50638 -0.11105
 C680 C 0.40459 0.50624 -0.14149
 H681 H 0.33852 0.53913 -0.32223
 H682 H 0.36767 0.53960 -0.26480
 H683 H 0.33374 0.47152 -0.26175
 H684 H 0.30529 0.47110 -0.32133
 H685 H 0.38206 0.52152 -0.20259
 H686 H 0.36617 0.47693 -0.25104
 H687 H 0.39257 0.46621 -0.24350
 H688 H 0.42216 0.46637 -0.19038
 H689 H 0.42943 0.51763 -0.07389
 H690 H 0.39969 0.51716 -0.12586
 C691 C 1.18955 0.67722 -0.26990
 C692 C 1.17361 0.66014 -0.23731
 C693 C 1.15291 0.64920 -0.26042
 C694 C 1.14857 0.65554 -0.31781
 C695 C 1.16442 0.67272 -0.35026
 C696 C 1.18530 0.68399 -0.32708
 C697 C 1.13661 0.63100 -0.22423
 C698 C 1.11573 0.62308 -0.23183
 C699 C 1.09912 0.60493 -0.19618
 C700 C 1.07826 0.60094 -0.20029
 C701 C 1.06189 0.58390 -0.16897
 C702 C 1.06594 0.57033 -0.13257
 C703 C 1.08680 0.57424 -0.12835
 C704 C 1.10320 0.59125 -0.16004
 H705 H 1.20497 0.68550 -0.24836
 H706 H 1.17747 0.65560 -0.19329
 H707 H 1.13311 0.64704 -0.33901
 H708 H 1.16028 0.67635 -0.39516
 H709 H 1.14227 0.62463 -0.18848
 H710 H 1.11027 0.63062 -0.26434
 H711 H 1.07457 0.61107 -0.22797
 H712 H 1.04603 0.58140 -0.17328
 H713 H 1.09044 0.56398 -0.10115
 H714 H 1.11885 0.59326 -0.15663
 C715 C 0.81653 0.50054 -0.25317
 C716 C 0.83208 0.49947 -0.21806
 C717 C 0.84510 0.49275 -0.24516
 C718 C 0.84164 0.48614 -0.30756
 C719 C 0.82588 0.48689 -0.34265
 C720 C 0.81322 0.49451 -0.31656
 C721 C 0.86205 0.49278 -0.20709
 C722 C 0.88053 0.49668 -0.23150
 C723 C 0.89829 0.49841 -0.19355
 C724 C 0.91894 0.51100 -0.21573
 C725 C 0.93616 0.51290 -0.18198
 C726 C 0.93310 0.50197 -0.12555
 C727 C 0.91238 0.48921 -0.10344
 C728 C 0.89514 0.48745 -0.13704
 H729 H 0.80674 0.50553 -0.22942
 H730 H 0.83418 0.50425 -0.16964
 H731 H 0.85108 0.48035 -0.32947
 H732 H 0.82450 0.48243 -0.39115
 H733 H 0.85986 0.49133 -0.15709
 H734 H 0.88342 0.50026 -0.28070
 H735 H 0.92177 0.51948 -0.25932
 H736 H 0.95187 0.52271 -0.20072
 H737 H 0.90945 0.48043 -0.06042
 H738 H 0.87939 0.47716 -0.11934
 C739 C 0.46326 0.30637 -0.32476
 C740 C 0.46288 0.32306 -0.29461
 C741 C 0.48157 0.34054 -0.27354
 C742 C 0.50081 0.34107 -0.28397
 C743 C 0.50125 0.32434 -0.31373
 C744 C 0.48248 0.30660 -0.33500
 C745 C 0.48031 0.35811 -0.24333
 C746 C 0.49573 0.37283 -0.20771
 C747 C 0.49474 0.39065 -0.17834
 C748 C 0.50888 0.40166 -0.12979
 C749 C 0.50904 0.41894 -0.10184
 C750 C 0.49505 0.42568 -0.12190
 C751 C 0.48089 0.41472 -0.17055
 C752 C 0.48081 0.39749 -0.19876
 H753 H 0.44823 0.29301 -0.33775
 H754 H 0.44780 0.32222 -0.28732
 H755 H 0.51573 0.35459 -0.27099
 H756 H 0.51659 0.32606 -0.32261
 H757 H 0.46571 0.35830 -0.24923
 H758 H 0.50955 0.37155 -0.19742
 H759 H 0.51989 0.39687 -0.11340
 H760 H 0.52016 0.42702 -0.06449
 H761 H 0.47007 0.41964 -0.18761
 H762 H 0.47012 0.38999 -0.23730
 C763 C 0.66262 0.18553 -0.31319
 C764 C 0.64636 0.16896 -0.27994
 C765 C 0.64890 0.15249 -0.25616
 C766 C 0.66832 0.15318 -0.26534
 C767 C 0.68458 0.16976 -0.29868
 C768 C 0.68190 0.18609 -0.32311
 C769 C 0.63116 0.13531 -0.22094
 C770 C 0.62881 0.11608 -0.21265
 C771 C 0.61057 0.09875 -0.17944
 C772 C 0.60502 0.07786 -0.19263
 C773 C 0.58776 0.06105 -0.16321
 C774 C 0.57571 0.06477 -0.11941
 C775 C 0.58159 0.08572 -0.10503
 C776 C 0.59885 0.10252 -0.13447
 H777 H 0.65997 0.19776 -0.33192
 H778 H 0.63164 0.16891 -0.27331
 H779 H 0.67124 0.14123 -0.24600
 H780 H 0.69941 0.16998 -0.30443
 H781 H 0.61901 0.13842 -0.20438
 H782 H 0.63988 0.11229 -0.23413
 H783 H 0.61391 0.07450 -0.22653
 H784 H 0.58377 0.04513 -0.17524
 H785 H 0.57284 0.08919 -0.07098
 H786 H 0.60305 0.11838 -0.12122
 C787 C 1.18603 0.50611 -0.26883
 C788 C 1.16984 0.50607 -0.23427
 C789 C 1.15058 0.50112 -0.26256
 C790 C 1.14797 0.49654 -0.32673
 C791 C 1.16417 0.49654 -0.36127
 C792 C 1.18337 0.50132 -0.33270
 C793 C 1.13404 0.50174 -0.22420
 C794 C 1.11346 0.49153 -0.23924
 C795 C 1.09696 0.49239 -0.20131
 C796 C 1.07585 0.47646 -0.20881
 C797 C 1.05970 0.47696 -0.17541
 C798 C 1.06431 0.49353 -0.13391
 C799 C 1.08545 0.50953 -0.12649
 C800 C 1.10158 0.50905 -0.16000
 H801 H 1.20058 0.50967 -0.24539
 H802 H 1.17233 0.50980 -0.18508
 H803 H 1.13370 0.49341 -0.35089
 H804 H 1.16184 0.49323 -0.41069
 H805 H 1.13908 0.51027 -0.18068
 H806 H 1.10817 0.48138 -0.27969
 H807 H 1.07181 0.46355 -0.24071
 H808 H 1.04360 0.46440 -0.18245
 H809 H 1.08957 0.52267 -0.09548
 H810 H 1.11751 0.52204 -0.15435
 C811 C 0.52438 0.68467 -0.31748
 C812 C 0.52537 0.66785 -0.29024
 C813 C 0.50707 0.64828 -0.28191
 C814 C 0.48766 0.64577 -0.30228
 C815 C 0.48660 0.66256 -0.32949
 C816 C 0.50495 0.68242 -0.33798
 C817 C 0.50902 0.63082 -0.25360
 C818 C 0.49290 0.61405 -0.22610
 C819 C 0.49494 0.59685 -0.19643
 C820 C 0.48024 0.58454 -0.15063
 C821 C 0.48153 0.56823 -0.12113
 C822 C 0.49750 0.56370 -0.13712
 C823 C 0.51198 0.57572 -0.18398
 C824 C 0.51069 0.59209 -0.21347
 H825 H 0.53918 0.69908 -0.32476
 H826 H 0.54060 0.67013 -0.27589
 H827 H 0.47320 0.63081 -0.29822
 H828 H 0.47110 0.65983 -0.34199
 H829 H 0.52460 0.63253 -0.25277
 H830 H 0.47780 0.61329 -0.22165
 H831 H 0.46782 0.58771 -0.13709
 H832 H 0.47000 0.55920 -0.08559
 H833 H 0.52435 0.57253 -0.19783
 H834 H 0.52189 0.60073 -0.25004
 C835 C 0.34102 -0.16739 -0.38171
 C836 C 0.35821 -0.14948 -0.35624
 C837 C 0.35736 -0.14309 -0.29544
 C838 C 0.33874 -0.15470 -0.26085
 C839 C 0.32143 -0.17249 -0.28635
 C840 C 0.32219 -0.17929 -0.34736
 C841 C 0.37589 -0.12402 -0.27005
 C842 C 0.38063 -0.12162 -0.20921
 C843 C 0.39934 -0.10293 -0.18306
 C844 C 0.40809 -0.10524 -0.12752
 C845 C 0.42540 -0.08797 -0.10025
 C846 C 0.43418 -0.06784 -0.12743
 C847 C 0.42531 -0.06545 -0.18289
 C848 C 0.40808 -0.08284 -0.21056
 H849 H 0.34237 -0.17116 -0.42953
 H850 H 0.37228 -0.14058 -0.38421
 H851 H 0.33734 -0.14995 -0.21422
 H852 H 0.30778 -0.18118 -0.25682
 H853 H 0.38652 -0.11229 -0.30292
 H854 H 0.37115 -0.13437 -0.17733
 H855 H 0.40154 -0.12051 -0.10517
 H856 H 0.43170 -0.09037 -0.05724
 H857 H 0.43163 -0.05015 -0.20478
 H858 H 0.40136 -0.08039 -0.25253
 C859 C 0.47596 -0.19016 0.30738
 C860 C 0.47482 -0.17390 0.27670
 C861 C 0.49325 -0.15485 0.26306
 C862 C 0.51295 -0.15261 0.27916
 C863 C 0.51409 -0.16884 0.30987
 C864 C 0.49562 -0.18775 0.32462
 C865 C 0.49136 -0.13798 0.23056
 C866 C 0.50621 -0.11755 0.23378
 C867 C 0.50481 -0.10043 0.20105
 C868 C 0.51810 -0.07959 0.22061
 C869 C 0.51800 -0.06282 0.18990
 C870 C 0.50463 -0.06649 0.13860
 C871 C 0.49126 -0.08736 0.11902
 C872 C 0.49141 -0.10414 0.14962
 H873 H 0.46147 -0.20468 0.31715
 H874 H 0.45947 -0.17615 0.26402
 H875 H 0.52758 -0.13850 0.26759
 H876 H 0.52946 -0.16645 0.32280
 H877 H 0.47679 -0.14263 0.20572
 H878 H 0.51981 -0.11284 0.26352
 H879 H 0.52869 -0.07625 0.25975
 H880 H 0.52852 -0.04695 0.20621
 H881 H 0.48090 -0.09075 0.07928
 H882 H 0.48139 -0.11984 0.13165
 C883 C 0.31360 0.47028 0.32745
 C884 C 0.33021 0.46870 0.30085
 C885 C 0.35005 0.48673 0.29197
 C886 C 0.35313 0.50635 0.31209
 C887 C 0.33653 0.50793 0.33850
 C888 C 0.31654 0.48995 0.34605
 C889 C 0.36716 0.48449 0.26240
 C890 C 0.38317 0.50025 0.23124
 C891 C 0.40000 0.49828 0.19883
 C892 C 0.41144 0.51289 0.15186
 C893 C 0.42753 0.51190 0.11999
 C894 C 0.43275 0.49633 0.13467
 C895 C 0.42153 0.48184 0.18238
 C896 C 0.40533 0.48281 0.21426
 H897 H 0.29835 0.45616 0.33255
 H898 H 0.32746 0.45338 0.28627
 H899 H 0.36839 0.52050 0.30849
 H900 H 0.33942 0.52321 0.35396
 H901 H 0.36565 0.46903 0.26316
 H902 H 0.38343 0.51506 0.22575
 H903 H 0.40782 0.52508 0.13941
 H904 H 0.43588 0.52342 0.08381
 H905 H 0.42527 0.46977 0.19521
 H906 H 0.39734 0.47165 0.25145
 C907 C 1.16102 0.68782 0.32407
 C908 C 1.14377 0.67161 0.29300
 C909 C 1.14499 0.65464 0.26740
 C910 C 1.16391 0.65413 0.27424
 C911 C 1.18121 0.67041 0.30518
 C912 C 1.17996 0.68742 0.33051
 C913 C 1.12592 0.63754 0.23665
 C914 C 1.12611 0.62315 0.19846
 C915 C 1.10680 0.60581 0.16935
 C916 C 1.10896 0.59551 0.11721
 C917 C 1.09125 0.57870 0.08947
 C918 C 1.07093 0.57177 0.11344
 C919 C 1.06875 0.58205 0.16567
 C920 C 1.08645 0.59875 0.19360
 H921 H 1.15937 0.70048 0.34409
 H922 H 1.12933 0.67230 0.28921
 H923 H 1.16543 0.64111 0.25698
 H924 H 1.19561 0.66969 0.30908
 H925 H 1.11125 0.63741 0.24462
 H926 H 1.14099 0.62433 0.18596
 H927 H 1.12443 0.60047 0.09785
 H928 H 1.09350 0.57111 0.04932
 H929 H 1.05336 0.57694 0.18586
 H930 H 1.08402 0.60565 0.23498
 C931 C 0.47999 0.15266 0.37097
 C932 C 0.48038 0.13580 0.34204
 C933 C 0.48582 0.13690 0.27893
 C934 C 0.49050 0.15519 0.24489
 C935 C 0.49015 0.17208 0.27391
 C936 C 0.48491 0.17101 0.33728
 C937 C 0.48576 0.11844 0.25039
 C938 C 0.49610 0.11936 0.19779
 C939 C 0.49617 0.10081 0.17038
 C940 C 0.51265 0.10412 0.13003
 C941 C 0.51333 0.08709 0.10328
 C942 C 0.49742 0.06629 0.11603
 C943 C 0.48072 0.06298 0.15558
 C944 C 0.48002 0.08001 0.18218
 H945 H 0.47612 0.15145 0.42003
 H946 H 0.47658 0.12189 0.36930
 H947 H 0.49405 0.15644 0.19568
 H948 H 0.49363 0.18587 0.24649
 H949 H 0.47766 0.10374 0.27587
 H950 H 0.50584 0.13441 0.17528
 H951 H 0.52517 0.11997 0.11959
 H952 H 0.52638 0.09024 0.07278
 H953 H 0.46805 0.04719 0.16577
 H954 H 0.46661 0.07674 0.21106
 C955 C 0.68655 0.53004 0.34069
 C956 C 0.67087 0.53143 0.30702
 C957 C 0.65754 0.51532 0.26592
 C958 C 0.66059 0.49792 0.25827
 C959 C 0.67616 0.49648 0.29223
 C960 C 0.68925 0.51246 0.33397
 C961 C 0.64098 0.51752 0.23180
 C962 C 0.62429 0.50145 0.20368
 C963 C 0.60746 0.50346 0.17090
 C964 C 0.59502 0.48804 0.12698
 C965 C 0.57829 0.48851 0.09708
 C966 C 0.57337 0.50434 0.11090
 C967 C 0.58592 0.51993 0.15454
 C968 C 0.60277 0.51950 0.18433
 H969 H 0.69634 0.54256 0.37274
 H970 H 0.66902 0.54507 0.31362
 H971 H 0.65133 0.48547 0.22558
 H972 H 0.67822 0.48298 0.28505
 H973 H 0.64260 0.53302 0.23099
 H974 H 0.62258 0.48593 0.20403
 H975 H 0.59817 0.47543 0.11598
 H976 H 0.56899 0.47620 0.06383
 H977 H 0.58249 0.53225 0.16663
 H978 H 0.61156 0.53136 0.21909
 C979 C 0.81435 0.32280 0.26500
 C980 C 0.83071 0.33962 0.23279
 C981 C 0.84918 0.35423 0.26388
 C982 C 0.85081 0.35182 0.32843
 C983 C 0.83447 0.33496 0.36059
 C984 C 0.81606 0.32028 0.32925
 C985 C 0.86596 0.37200 0.22776
 C986 C 0.88620 0.38298 0.24617
 C987 C 0.90308 0.40049 0.20956
 C988 C 0.92414 0.40602 0.22084
 C989 C 0.94061 0.42242 0.18777
 C990 C 0.93639 0.43382 0.14277
 C991 C 0.91530 0.42852 0.13212
 C992 C 0.89883 0.41210 0.16526
 H993 H 0.80041 0.31166 0.23952
 H994 H 0.82896 0.34115 0.18324
 H995 H 0.86440 0.36311 0.35473
 H996 H 0.83603 0.33369 0.41036
 H997 H 0.86150 0.37535 0.18292
 H998 H 0.89104 0.37837 0.28821
 H999 H 0.92789 0.39748 0.25508
 H1000 H 0.95664 0.42611 0.19743
 H1001 H 0.91149 0.43712 0.09830
 H1002 H 0.88290 0.40886 0.15661
   
