data_POSCAR
  _audit_creation_date              2014-09-24
  _audit_creation_method            'ToBaCCo'
  _symmetry_space_group_name_H-M    'P1'
  _symmetry_Int_Tables_number       1
  _symmetry_cell_setting            triclinic
  loop_
  _symmetry_equiv_pos_as_xyz
 x,y,z
_cell_length_a 46.1190
_cell_length_b 46.1188
_cell_length_c 37.9346
_cell_angle_alpha 89.969200
_cell_angle_beta 89.965000
_cell_angle_gamma 90.004500
loop_
  _atom_site_label
  _atom_site_type_symbol
  _atom_site_fract_x
  _atom_site_fract_y
  _atom_site_fract_z
O1 O -0.02805 0.29504 0.03366
 O2 O 0.02890 0.29476 -0.03471
 O3 O -0.02785 0.29494 -0.03493
 O4 O 0.02864 0.29499 0.03385
 O5 O 0.02843 0.24717 0.03391
 O6 O -0.02782 0.24711 -0.03463
 O7 O 0.02848 0.24699 -0.03461
 O8 O -0.02789 0.24721 0.03386
 Cu9 Cu 0.00042 0.29974 -0.00056
 Cu10 Cu 0.00030 0.24235 -0.00035
 C11 C -0.03775 0.27111 0.04541
 C12 C 0.03856 0.27076 -0.04634
 C13 C -0.03758 0.27097 -0.04644
 C14 C 0.03827 0.27104 0.04556
 O15 O 0.52838 0.79496 0.46560
 O16 O 0.47178 0.79504 0.53433
 O17 O 0.52850 0.79492 0.53417
 O18 O 0.47167 0.79499 0.46575
 O19 O 0.47180 0.74717 0.46582
 O20 O 0.52823 0.74710 0.53419
 O21 O 0.47188 0.74722 0.53434
 O22 O 0.52814 0.74713 0.46567
 Cu23 Cu 0.50009 0.79979 0.49996
 Cu24 Cu 0.50001 0.74238 0.50001
 C25 C 0.53801 0.77098 0.45397
 C26 C 0.46208 0.77110 0.54600
 C27 C 0.53815 0.77094 0.54580
 C28 C 0.46195 0.77104 0.45416
 O29 O 1.02956 0.70624 0.03419
 O30 O 0.97268 0.70591 -0.03418
 O31 O 1.02941 0.70620 -0.03434
 O32 O 0.97283 0.70587 0.03441
 O33 O 0.97273 0.75369 0.03434
 O34 O 1.02893 0.75397 -0.03437
 O35 O 0.97261 0.75374 -0.03416
 O36 O 1.02906 0.75401 0.03419
 Cu37 Cu 1.00114 0.70125 0.00003
 Cu38 Cu 1.00081 0.75861 -0.00000
 C39 C 1.03917 0.73024 0.04586
 C40 C 0.96286 0.72983 -0.04579
 C41 C 1.03899 0.73020 -0.04610
 C42 C 0.96303 0.72978 0.04605
 O43 O 0.52815 0.20387 0.53458
 O44 O 0.47158 0.20386 0.46591
 O45 O 0.52830 0.20400 0.46601
 O46 O 0.47143 0.20389 0.53449
 O47 O 0.47160 0.25172 0.53447
 O48 O 0.52804 0.25183 0.46606
 O49 O 0.47171 0.25168 0.46596
 O50 O 0.52793 0.25170 0.53456
 Cu51 Cu 0.49987 0.19909 0.50025
 Cu52 Cu 0.49981 0.25651 0.50027
 C53 C 0.53778 0.22784 0.54623
 C54 C 0.46191 0.22782 0.45427
 C55 C 0.53795 0.22799 0.45440
 C56 C 0.46173 0.22785 0.54611
 O57 O 0.70510 -0.02813 0.03380
 O58 O 0.70534 0.02887 -0.03451
 O59 O 0.70510 -0.02787 -0.03480
 O60 O 0.70517 0.02856 0.03404
 O61 O 0.75299 0.02833 0.03395
 O62 O 0.75292 -0.02788 -0.03465
 O63 O 0.75312 0.02842 -0.03456
 O64 O 0.75293 -0.02798 0.03385
 Cu65 Cu 0.70037 0.00036 -0.00038
 Cu66 Cu 0.75776 0.00021 -0.00035
 C67 C 0.72904 -0.03784 0.04546
 C68 C 0.72933 0.03851 -0.04621
 C69 C 0.72905 -0.03760 -0.04640
 C70 C 0.72914 0.03817 0.04568
 O71 O 0.20463 0.47173 0.53425
 O72 O 0.20460 0.52836 0.46555
 O73 O 0.20477 0.47164 0.46567
 O74 O 0.20459 0.52846 0.53414
 O75 O 0.25242 0.52834 0.53415
 O76 O 0.25260 0.47192 0.46575
 O77 O 0.25243 0.52828 0.46563
 O78 O 0.25245 0.47198 0.53426
 Cu79 Cu 0.19984 0.50004 0.49990
 Cu80 Cu 0.25724 0.50014 0.49995
 C81 C 0.22859 0.46209 0.54591
 C82 C 0.22856 0.53807 0.45392
 C83 C 0.22877 0.46199 0.45409
 C84 C 0.22854 0.53819 0.54577
 O85 O 0.29391 1.02948 0.03408
 O86 O 0.29421 0.97265 -0.03437
 O87 O 0.29384 1.02940 -0.03445
 O88 O 0.29431 0.97274 0.03423
 O89 O 0.24649 0.97261 0.03431
 O90 O 0.24607 1.02886 -0.03434
 O91 O 0.24639 0.97253 -0.03420
 O92 O 0.24614 1.02894 0.03421
 Cu93 Cu 0.29887 1.00109 -0.00014
 Cu94 Cu 0.24151 1.00071 0.00001
 C95 C 0.26992 1.03907 0.04583
 C96 C 0.27029 0.96281 -0.04592
 C97 C 0.26982 1.03896 -0.04612
 C98 C 0.27042 0.96292 0.04594
 O99 O 0.79572 0.47160 0.46596
 O100 O 0.79581 0.52813 0.53467
 O101 O 0.79564 0.47143 0.53454
 O102 O 0.79578 0.52830 0.46609
 O103 O 0.74795 0.52818 0.46614
 O104 O 0.74781 0.47173 0.53451
 O105 O 0.74798 0.52805 0.53465
 O106 O 0.74789 0.47186 0.46602
 Cu107 Cu 0.80055 0.49985 0.50032
 Cu108 Cu 0.74314 0.49997 0.50033
 C109 C 0.77173 0.46200 0.45432
 C110 C 0.77186 0.53782 0.54633
 C111 C 0.77164 0.46179 0.54615
 C112 C 0.77183 0.53802 0.45448
 O113 O 0.23020 0.26968 0.20515
 O114 O 0.29570 0.25523 0.25770
 O115 O 0.26985 0.22961 0.20500
 O116 O 0.25616 0.29516 0.25788
 O117 O 0.23010 0.26935 0.29523
 O118 O 0.24364 0.20384 0.24224
 O119 O 0.26975 0.22925 0.29498
 O120 O 0.20421 0.24381 0.24252
 Cu121 Cu 0.26558 0.26500 0.22767
 Cu122 Cu 0.23434 0.23398 0.27252
 C123 C 0.20603 0.25898 0.21464
 C124 C 0.29390 0.24000 0.28552
 C125 C 0.25881 0.20556 0.21435
 C126 C 0.24101 0.29344 0.28579
 O127 O 0.70478 0.74393 0.25759
 O128 O 0.77047 0.73012 0.20500
 O129 O 0.74466 0.70435 0.25770
 O130 O 0.73043 0.76981 0.20487
 O131 O 0.75627 0.79580 0.24219
 O132 O 0.77049 0.73033 0.29503
 O133 O 0.79617 0.75623 0.24234
 O134 O 0.73049 0.77005 0.29491
 Cu135 Cu 0.73502 0.73445 0.22752
 Cu136 Cu 0.76593 0.76570 0.27238
 C137 C 0.70643 0.75912 0.28544
 C138 C 0.79453 0.74104 0.21448
 C139 C 0.75978 0.70617 0.28559
 C140 C 0.74115 0.79398 0.21430
 O141 O 0.79596 0.24406 0.24234
 O142 O 0.73049 0.22991 0.29523
 O143 O 0.75627 0.20429 0.24246
 O144 O 0.77032 0.26981 0.29512
 O145 O 0.74426 0.29568 0.25787
 O146 O 0.73020 0.23015 0.20522
 O147 O 0.70455 0.25591 0.25799
 O148 O 0.77002 0.27005 0.20509
 Cu149 Cu 0.76585 0.23444 0.27255
 Cu150 Cu 0.73466 0.26553 0.22778
 C151 C 0.79416 0.25924 0.21447
 C152 C 0.70635 0.24071 0.28584
 C153 C 0.74106 0.20605 0.21463
 C154 C 0.75948 0.29392 0.28569
 O155 O 0.20401 0.75667 0.24210
 O156 O 0.26952 0.77028 0.29503
 O157 O 0.24387 0.79623 0.24240
 O158 O 0.22953 0.73053 0.29477
 O159 O 0.25557 0.70473 0.25743
 O160 O 0.26977 0.77040 0.20494
 O161 O 0.29537 0.74439 0.25759
 O162 O 0.22981 0.73061 0.20479
 Cu163 Cu 0.23415 0.76600 0.27235
 Cu164 Cu 0.26521 0.73495 0.22741
 C165 C 0.20574 0.74155 0.21420
 C166 C 0.29363 0.75945 0.28555
 C167 C 0.25902 0.79452 0.21450
 C168 C 0.24035 0.70643 0.28528
 O169 O 0.76996 0.26909 0.70491
 O170 O 0.75620 0.20355 0.75778
 O171 O 0.73018 0.22913 0.70511
 O172 O 0.79579 0.24338 0.75754
 O173 O 0.76990 0.26927 0.79496
 O174 O 0.70433 0.25513 0.74243
 O175 O 0.73008 0.22933 0.79507
 O176 O 0.74401 0.29492 0.74231
 Cu177 Cu 0.76561 0.23370 0.72756
 Cu178 Cu 0.73449 0.26474 0.77247
 C179 C 0.75914 0.29319 0.71440
 C180 C 0.74101 0.20525 0.78565
 C181 C 0.70607 0.23993 0.71459
 C182 C 0.79404 0.25854 0.78542
 O183 O 0.24369 0.79625 0.75754
 O184 O 0.22953 0.73070 0.70487
 O185 O 0.20384 0.75668 0.75753
 O186 O 0.26953 0.77044 0.70493
 O187 O 0.29525 0.74443 0.74238
 O188 O 0.22952 0.73050 0.79486
 O189 O 0.25543 0.70478 0.74223
 O190 O 0.26946 0.77030 0.79501
 Cu191 Cu 0.23408 0.76610 0.72744
 Cu192 Cu 0.26498 0.73491 0.77239
 C193 C 0.25874 0.79446 0.78550
 C194 C 0.24031 0.70656 0.71433
 C195 C 0.20548 0.74148 0.78540
 C196 C 0.29360 0.75958 0.71447
 O197 O 0.25537 0.29526 0.74225
 O198 O 0.26911 0.22965 0.79500
 O199 O 0.29496 0.25538 0.74232
 O200 O 0.22936 0.26965 0.79491
 O201 O 0.20348 0.24369 0.75759
 O202 O 0.26906 0.22946 0.70498
 O203 O 0.24304 0.20388 0.75768
 O204 O 0.22934 0.26949 0.70491
 Cu205 Cu 0.26479 0.26506 0.77238
 Cu206 Cu 0.23365 0.23406 0.72751
 C207 C 0.24023 0.29357 0.71436
 C208 C 0.25818 0.20558 0.78557
 C209 C 0.29320 0.24021 0.71446
 C210 C 0.20523 0.25886 0.78546
 O211 O 0.73035 0.77004 0.79483
 O212 O 0.74467 0.70436 0.74257
 O213 O 0.77033 0.73030 0.79517
 O214 O 0.70482 0.74397 0.74223
 O215 O 0.73069 0.76991 0.70481
 O216 O 0.79619 0.75624 0.75774
 O217 O 0.77066 0.73017 0.70514
 O218 O 0.75634 0.79585 0.75741
 Cu219 Cu 0.73496 0.73459 0.77247
 Cu220 Cu 0.76605 0.76562 0.72750
 C221 C 0.74112 0.79415 0.78526
 C222 C 0.75988 0.70606 0.71471
 C223 C 0.79444 0.74116 0.78570
 C224 C 0.70658 0.75905 0.71427
 C225 C 0.26849 0.10661 0.12151
 C226 C 0.24262 0.09362 0.11012
 C227 C 0.24311 0.07125 0.08534
 C228 C 0.26958 0.06110 0.07146
 C229 C 0.29555 0.07387 0.08341
 C230 C 0.29496 0.09648 0.10798
 C231 C 0.26762 0.13118 0.14671
 C232 C 0.28435 0.15616 0.14072
 C233 C 0.28194 0.18014 0.16308
 C234 C 0.26295 0.17952 0.19208
 C235 C 0.24690 0.15417 0.19865
 C236 C 0.24912 0.13031 0.17612
 H237 H 0.22262 0.06208 0.07694
 H238 H 0.31638 0.06670 0.07350
 H239 H 0.29463 0.19933 0.15733
 H240 H 0.23209 0.15297 0.22077
 H241 H 0.31524 0.10598 0.11655
 H242 H 0.29860 0.15750 0.11808
 H243 H 0.22188 0.10123 0.11981
 H244 H 0.23622 0.11120 0.18157
 C245 C 0.77056 0.60648 0.62312
 C246 C 0.79683 0.59777 0.60763
 C247 C 0.79739 0.57512 0.58312
 C248 C 0.77164 0.56092 0.57340
 C249 C 0.74543 0.56948 0.58919
 C250 C 0.74491 0.59194 0.61384
 C251 C 0.76957 0.63126 0.64800
 C252 C 0.75225 0.62994 0.67843
 C253 C 0.74975 0.65398 0.70062
 C254 C 0.76439 0.67992 0.69274
 C255 C 0.78229 0.68100 0.66276
 C256 C 0.78492 0.65688 0.64068
 H257 H 0.81793 0.56902 0.57143
 H258 H 0.72521 0.55897 0.58230
 H259 H 0.73584 0.65241 0.72355
 H260 H 0.79387 0.70065 0.65597
 H261 H 0.72430 0.59843 0.62500
 H262 H 0.74046 0.61035 0.68493
 H263 H 0.81695 0.60845 0.61453
 H264 H 0.79822 0.65860 0.61723
 C265 C 0.73041 0.89334 0.12217
 C266 C 0.70414 0.90195 0.10659
 C267 C 0.70356 0.92463 0.08209
 C268 C 0.72927 0.93897 0.07246
 C269 C 0.75547 0.93049 0.08831
 C270 C 0.75601 0.90799 0.11295
 C271 C 0.73143 0.86859 0.14715
 C272 C 0.71619 0.84290 0.13991
 C273 C 0.71884 0.81884 0.16212
 C274 C 0.73665 0.82004 0.19215
 C275 C 0.75120 0.84604 0.19993
 C276 C 0.74867 0.87002 0.17762
 H277 H 0.68303 0.93066 0.07034
 H278 H 0.77567 0.94109 0.08149
 H279 H 0.70733 0.79913 0.15540
 H280 H 0.76503 0.84772 0.22289
 H281 H 0.77663 0.90159 0.12418
 H282 H 0.70295 0.84109 0.11645
 H283 H 0.68405 0.89118 0.11344
 H284 H 0.76037 0.88967 0.18407
 C285 C 0.22997 0.39317 0.62249
 C286 C 0.20369 0.40191 0.60706
 C287 C 0.20311 0.42464 0.58263
 C288 C 0.22885 0.43891 0.57292
 C289 C 0.25506 0.43032 0.58864
 C290 C 0.25560 0.40776 0.61321
 C291 C 0.23095 0.36834 0.64735
 C292 C 0.21554 0.34275 0.64009
 C293 C 0.21807 0.31864 0.66223
 C294 C 0.23593 0.31967 0.69223
 C295 C 0.25067 0.34557 0.70001
 C296 C 0.24827 0.36960 0.67776
 H297 H 0.18256 0.43075 0.57099
 H298 H 0.27527 0.44086 0.58175
 H299 H 0.20641 0.29903 0.65551
 H300 H 0.26456 0.34711 0.72295
 H301 H 0.27622 0.40126 0.62433
 H302 H 0.20224 0.34107 0.61666
 H303 H 0.18357 0.39120 0.61396
 H304 H 0.26011 0.38916 0.68423
 C305 C 0.89347 0.26982 0.12219
 C306 C 0.90808 0.24419 0.11298
 C307 C 0.93056 0.24471 0.08832
 C308 C 0.93908 0.27090 0.07243
 C309 C 0.92478 0.29663 0.08204
 C310 C 0.90211 0.29607 0.10657
 C311 C 0.86874 0.26883 0.14720
 C312 C 0.84307 0.28413 0.13999
 C313 C 0.81903 0.28152 0.16224
 C314 C 0.82021 0.26369 0.19227
 C315 C 0.84619 0.24908 0.20002
 C316 C 0.87015 0.25157 0.17767
 H317 H 0.94113 0.22450 0.08151
 H318 H 0.93084 0.31716 0.07027
 H319 H 0.79934 0.29308 0.15554
 H320 H 0.84785 0.23523 0.22298
 H321 H 0.89138 0.31618 0.11340
 H322 H 0.84127 0.29739 0.11653
 H323 H 0.90166 0.22359 0.12424
 H324 H 0.88978 0.23982 0.18411
 C325 C 0.39325 0.76984 0.62271
 C326 C 0.40778 0.74418 0.61342
 C327 C 0.43030 0.74468 0.58881
 C328 C 0.43893 0.77088 0.57305
 C329 C 0.42474 0.79665 0.58277
 C330 C 0.40204 0.79611 0.60725
 C331 C 0.36844 0.76889 0.64758
 C332 C 0.34287 0.78434 0.64030
 C333 C 0.31875 0.78181 0.66242
 C334 C 0.31974 0.76392 0.69241
 C335 C 0.34562 0.74915 0.70023
 C336 C 0.36967 0.75155 0.67800
 H337 H 0.44078 0.72445 0.58191
 H338 H 0.43089 0.81718 0.57111
 H339 H 0.29915 0.79348 0.65567
 H340 H 0.34713 0.73524 0.72317
 H341 H 0.39138 0.81624 0.61415
 H342 H 0.34121 0.79765 0.61687
 H343 H 0.40124 0.72356 0.62457
 H344 H 0.38921 0.73968 0.68449
 C345 C 0.10675 0.73173 0.12149
 C346 C 0.09375 0.75759 0.11004
 C347 C 0.07138 0.75708 0.08528
 C348 C 0.06122 0.73060 0.07147
 C349 C 0.07400 0.70464 0.08348
 C350 C 0.09662 0.70525 0.10803
 C351 C 0.13133 0.73263 0.14666
 C352 C 0.15633 0.71594 0.14066
 C353 C 0.18032 0.71838 0.16299
 C354 C 0.17969 0.73737 0.19197
 C355 C 0.15432 0.75338 0.19855
 C356 C 0.13045 0.75112 0.17605
 H357 H 0.06220 0.77756 0.07685
 H358 H 0.06683 0.68380 0.07362
 H359 H 0.19953 0.70573 0.15723
 H360 H 0.15312 0.76818 0.22065
 H361 H 0.10613 0.68498 0.11664
 H362 H 0.15767 0.70169 0.11804
 H363 H 0.10137 0.77834 0.11968
 H364 H 0.11133 0.76399 0.18150
 C365 C 0.60654 0.22926 0.62289
 C366 C 0.59194 0.25488 0.61362
 C367 C 0.56944 0.25433 0.58902
 C368 C 0.56091 0.22811 0.57326
 C369 C 0.57519 0.20238 0.58297
 C370 C 0.59786 0.20298 0.60744
 C371 C 0.63133 0.23028 0.64776
 C372 C 0.65697 0.21496 0.64047
 C373 C 0.68107 0.21759 0.66257
 C374 C 0.67996 0.23547 0.69255
 C375 C 0.65401 0.25009 0.70039
 C376 C 0.62999 0.24759 0.67818
 H377 H 0.55889 0.27452 0.58212
 H378 H 0.56912 0.18183 0.57131
 H379 H 0.70073 0.20603 0.65581
 H380 H 0.65241 0.26398 0.72332
 H381 H 0.60859 0.18287 0.61434
 H382 H 0.65871 0.20168 0.61703
 H383 H 0.59840 0.27551 0.62476
 H384 H 0.61038 0.25935 0.68467
 C385 C 0.73085 0.10613 0.87816
 C386 C 0.75671 0.09312 0.88958
 C387 C 0.75618 0.07073 0.91435
 C388 C 0.72969 0.06057 0.92818
 C389 C 0.70374 0.07336 0.91620
 C390 C 0.70436 0.09599 0.89164
 C391 C 0.73178 0.13072 0.85300
 C392 C 0.75029 0.12985 0.82360
 C393 C 0.75264 0.15377 0.80116
 C394 C 0.73672 0.17917 0.80782
 C395 C 0.71771 0.17980 0.83679
 C396 C 0.71517 0.15576 0.85907
 H397 H 0.77666 0.06155 0.92276
 H398 H 0.68289 0.06618 0.92607
 H399 H 0.76746 0.15257 0.77905
 H400 H 0.70512 0.19903 0.84260
 H401 H 0.68410 0.10553 0.88305
 H402 H 0.76310 0.11070 0.81811
 H403 H 0.77746 0.10074 0.87993
 H404 H 0.70091 0.15709 0.88170
 C405 C 0.22988 0.60688 0.37718
 C406 C 0.25553 0.59234 0.38648
 C407 C 0.25501 0.56984 0.41111
 C408 C 0.22880 0.56123 0.42687
 C409 C 0.20305 0.57544 0.41714
 C410 C 0.20361 0.59812 0.39265
 C411 C 0.23085 0.63166 0.35225
 C412 C 0.24820 0.63037 0.32184
 C413 C 0.25064 0.65439 0.29957
 C414 C 0.23592 0.68030 0.30735
 C415 C 0.21801 0.68136 0.33732
 C416 C 0.21544 0.65726 0.35948
 H417 H 0.27523 0.55934 0.41802
 H418 H 0.18250 0.56931 0.42880
 H419 H 0.26456 0.65284 0.27665
 H420 H 0.20637 0.70099 0.34404
 H421 H 0.18348 0.60879 0.38573
 H422 H 0.26004 0.61080 0.31539
 H423 H 0.27615 0.59885 0.37533
 H424 H 0.20211 0.65896 0.38291
 C425 C 0.26909 0.89389 0.87753
 C426 C 0.29534 0.90262 0.89306
 C427 C 0.29587 0.92534 0.91749
 C428 C 0.27011 0.93960 0.92712
 C429 C 0.24393 0.93100 0.91132
 C430 C 0.24344 0.90847 0.88674
 C431 C 0.26815 0.86912 0.85260
 C432 C 0.25089 0.87047 0.82213
 C433 C 0.24847 0.84648 0.79984
 C434 C 0.26313 0.82053 0.80764
 C435 C 0.28094 0.81941 0.83768
 C436 C 0.28349 0.84349 0.85986
 H437 H 0.31638 0.93146 0.92919
 H438 H 0.22370 0.94153 0.91814
 H439 H 0.23463 0.84810 0.77688
 H440 H 0.29253 0.79976 0.84441
 H441 H 0.22284 0.90199 0.87555
 H442 H 0.23910 0.89007 0.81566
 H443 H 0.31547 0.89192 0.88622
 H444 H 0.29675 0.84174 0.88332
 C445 C 0.77021 0.39334 0.37753
 C446 C 0.79652 0.40201 0.39294
 C447 C 0.79715 0.42465 0.41745
 C448 C 0.77143 0.43890 0.42725
 C449 C 0.74519 0.43039 0.41154
 C450 C 0.74460 0.40792 0.38690
 C451 C 0.76916 0.36859 0.35263
 C452 C 0.75181 0.36995 0.32225
 C453 C 0.74928 0.34595 0.30000
 C454 C 0.76394 0.32000 0.30777
 C455 C 0.78186 0.31887 0.33771
 C456 C 0.78450 0.34295 0.35985
 H457 H 0.81771 0.43071 0.42908
 H458 H 0.72500 0.44092 0.41850
 H459 H 0.73536 0.34756 0.27711
 H460 H 0.79345 0.29921 0.34441
 H461 H 0.72396 0.40147 0.37579
 H462 H 0.74002 0.38956 0.31582
 H463 H 0.81662 0.39130 0.38597
 H464 H 0.79783 0.34119 0.38325
 C465 C 0.10613 0.26921 0.87797
 C466 C 0.09313 0.24336 0.88945
 C467 C 0.07075 0.24390 0.91424
 C468 C 0.06060 0.27039 0.92803
 C469 C 0.07339 0.29634 0.91598
 C470 C 0.09602 0.29571 0.89140
 C471 C 0.13072 0.26827 0.85279
 C472 C 0.12980 0.24977 0.82340
 C473 C 0.15371 0.24738 0.80095
 C474 C 0.17915 0.26324 0.80759
 C475 C 0.17981 0.28226 0.83653
 C476 C 0.15578 0.28484 0.85881
 H477 H 0.06157 0.22343 0.92270
 H478 H 0.06622 0.31719 0.92582
 H479 H 0.15248 0.23256 0.77887
 H480 H 0.19908 0.29481 0.84232
 H481 H 0.10555 0.31597 0.88277
 H482 H 0.11063 0.23699 0.81794
 H483 H 0.10074 0.22260 0.87983
 H484 H 0.15714 0.29910 0.88143
 C485 C 0.60682 0.76952 0.37724
 C486 C 0.59806 0.79583 0.39260
 C487 C 0.57537 0.79643 0.41708
 C488 C 0.56115 0.77069 0.42691
 C489 C 0.56976 0.74445 0.41125
 C490 C 0.59227 0.74389 0.38663
 C491 C 0.63163 0.76851 0.35237
 C492 C 0.65720 0.78398 0.35957
 C493 C 0.68131 0.78142 0.33744
 C494 C 0.68030 0.76347 0.30752
 C495 C 0.65443 0.74868 0.29978
 C496 C 0.63039 0.75111 0.32202
 H497 H 0.56924 0.81699 0.42867
 H498 H 0.55925 0.72425 0.41823
 H499 H 0.70091 0.79311 0.34413
 H500 H 0.65291 0.73473 0.27690
 H501 H 0.59878 0.72325 0.37556
 H502 H 0.65887 0.79734 0.38295
 H503 H 0.60873 0.81594 0.38561
 H504 H 0.61084 0.73923 0.31559
 C505 C 0.89390 0.73101 0.87773
 C506 C 0.90266 0.70476 0.89325
 C507 C 0.92539 0.70424 0.91766
 C508 C 0.93963 0.73000 0.92727
 C509 C 0.93100 0.75619 0.91147
 C510 C 0.90846 0.75667 0.88692
 C511 C 0.86911 0.73194 0.85282
 C512 C 0.87042 0.74923 0.82236
 C513 C 0.84642 0.75161 0.80007
 C514 C 0.82051 0.73687 0.80788
 C515 C 0.81943 0.71904 0.83792
 C516 C 0.84351 0.71653 0.86010
 H517 H 0.93154 0.68372 0.92936
 H518 H 0.94152 0.77642 0.91828
 H519 H 0.84800 0.76547 0.77710
 H520 H 0.79981 0.70739 0.84466
 H521 H 0.90195 0.77727 0.87573
 H522 H 0.88999 0.76107 0.81587
 H523 H 0.89198 0.68462 0.88643
 H524 H 0.84179 0.70325 0.88356
 C525 C 0.39326 0.22921 0.37746
 C526 C 0.40191 0.20293 0.39298
 C527 C 0.42455 0.20234 0.41750
 C528 C 0.43880 0.22807 0.42721
 C529 C 0.43029 0.25429 0.41140
 C530 C 0.40784 0.25483 0.38674
 C531 C 0.36853 0.23022 0.35251
 C532 C 0.36994 0.24752 0.32207
 C533 C 0.34596 0.25004 0.29979
 C534 C 0.31998 0.23545 0.30759
 C535 C 0.31880 0.21757 0.33759
 C536 C 0.34286 0.21492 0.35976
 H537 H 0.43061 0.18180 0.42920
 H538 H 0.44083 0.27449 0.41829
 H539 H 0.34761 0.26393 0.27685
 H540 H 0.29911 0.20603 0.34432
 H541 H 0.40139 0.27546 0.37555
 H542 H 0.38957 0.25926 0.31561
 H543 H 0.39120 0.18282 0.38608
 H544 H 0.34107 0.20163 0.38321
 C545 C 0.73038 0.89375 0.87680
 C546 C 0.75602 0.90828 0.88612
 C547 C 0.75550 0.93074 0.91076
 C548 C 0.72928 0.93932 0.92651
 C549 C 0.70352 0.92513 0.91675
 C550 C 0.70409 0.90248 0.89225
 C551 C 0.73138 0.86897 0.85193
 C552 C 0.74873 0.87027 0.82152
 C553 C 0.75125 0.84623 0.79934
 C554 C 0.73660 0.82029 0.80721
 C555 C 0.71867 0.81923 0.83717
 C556 C 0.71602 0.84335 0.85924
 H557 H 0.77571 0.94123 0.91768
 H558 H 0.68298 0.93124 0.92842
 H559 H 0.76518 0.84779 0.77643
 H560 H 0.70708 0.79957 0.84395
 H561 H 0.68397 0.89180 0.88532
 H562 H 0.76053 0.88987 0.81502
 H563 H 0.77665 0.90178 0.87498
 H564 H 0.70270 0.84164 0.88267
 C565 C 0.23047 0.39299 0.37767
 C566 C 0.25604 0.40765 0.38697
 C567 C 0.25540 0.43021 0.41149
 C568 C 0.22913 0.43877 0.42715
 C569 C 0.20345 0.42443 0.41743
 C570 C 0.20413 0.40168 0.39304
 C571 C 0.23157 0.36816 0.35283
 C572 C 0.24898 0.36944 0.32246
 C573 C 0.25145 0.34543 0.30021
 C574 C 0.23669 0.31952 0.30795
 C575 C 0.21876 0.31845 0.33791
 C576 C 0.21615 0.34255 0.36005
 H577 H 0.27557 0.44081 0.41839
 H578 H 0.18286 0.43051 0.42901
 H579 H 0.26540 0.34699 0.27731
 H580 H 0.20708 0.29883 0.34461
 H581 H 0.18406 0.39093 0.38613
 H582 H 0.26082 0.38902 0.31601
 H583 H 0.27671 0.40119 0.37590
 H584 H 0.20278 0.34084 0.38343
 C585 C 0.26820 0.10646 0.87811
 C586 C 0.29471 0.09634 0.89151
 C587 C 0.29535 0.07373 0.91610
 C588 C 0.26942 0.06095 0.92819
 C589 C 0.24291 0.07108 0.91442
 C590 C 0.24236 0.09345 0.88961
 C591 C 0.26726 0.13106 0.85296
 C592 C 0.24874 0.13022 0.82360
 C593 C 0.24643 0.15413 0.80115
 C594 C 0.26241 0.17950 0.80775
 C595 C 0.28144 0.18010 0.83669
 C596 C 0.28393 0.15607 0.85897
 H597 H 0.31621 0.06657 0.92592
 H598 H 0.22245 0.06191 0.92291
 H599 H 0.23160 0.15295 0.77907
 H600 H 0.29407 0.19931 0.84245
 H601 H 0.22159 0.10106 0.88002
 H602 H 0.23588 0.11109 0.81816
 H603 H 0.31496 0.10586 0.88285
 H604 H 0.29820 0.15739 0.88157
 C605 C 0.77045 0.60683 0.37775
 C606 C 0.79672 0.59819 0.39329
 C607 C 0.79731 0.57551 0.41780
 C608 C 0.77159 0.56120 0.42747
 C609 C 0.74538 0.56971 0.41166
 C610 C 0.74484 0.59220 0.38702
 C611 C 0.76944 0.63157 0.35278
 C612 C 0.75218 0.63015 0.32232
 C613 C 0.74967 0.65412 0.30000
 C614 C 0.76425 0.68012 0.30776
 C615 C 0.78208 0.68130 0.33777
 C616 C 0.78471 0.65725 0.35999
 H617 H 0.81785 0.56946 0.42951
 H618 H 0.72518 0.55913 0.41852
 H619 H 0.73582 0.65246 0.27705
 H620 H 0.79361 0.70100 0.34447
 H621 H 0.72422 0.59862 0.37582
 H622 H 0.74045 0.61051 0.31589
 H623 H 0.81682 0.60893 0.38641
 H624 H 0.79797 0.65905 0.38344
 C625 C 0.10636 0.73162 0.87795
 C626 C 0.09342 0.75750 0.88942
 C627 C 0.07110 0.75701 0.91428
 C628 C 0.06094 0.73054 0.92816
 C629 C 0.07364 0.70457 0.91610
 C630 C 0.09620 0.70514 0.89145
 C631 C 0.13094 0.73248 0.85277
 C632 C 0.15591 0.71577 0.85879
 C633 C 0.17994 0.71822 0.83649
 C634 C 0.17937 0.73724 0.80753
 C635 C 0.15402 0.75327 0.80091
 C636 C 0.13012 0.75100 0.82337
 H637 H 0.06198 0.77750 0.92275
 H638 H 0.06645 0.68373 0.92600
 H639 H 0.19913 0.70555 0.84228
 H640 H 0.15288 0.76810 0.77881
 H641 H 0.10567 0.68486 0.88282
 H642 H 0.15721 0.70150 0.88142
 H643 H 0.10107 0.77824 0.87975
 H644 H 0.11101 0.76389 0.81792
 C645 C 0.60688 0.22971 0.37782
 C646 C 0.59217 0.25527 0.38710
 C647 C 0.56964 0.25461 0.41168
 C648 C 0.56116 0.22835 0.42742
 C649 C 0.57555 0.20268 0.41773
 C650 C 0.59827 0.20338 0.39328
 C651 C 0.63167 0.23085 0.35291
 C652 C 0.65735 0.21558 0.36013
 C653 C 0.68144 0.21830 0.33797
 C654 C 0.68028 0.23620 0.30799
 C655 C 0.65429 0.25079 0.30024
 C656 C 0.63029 0.24820 0.32251
 H657 H 0.55900 0.27477 0.41856
 H658 H 0.56952 0.18211 0.42938
 H659 H 0.70113 0.20676 0.34467
 H660 H 0.65265 0.26470 0.27732
 H661 H 0.60907 0.18332 0.38639
 H662 H 0.65913 0.20226 0.38355
 H663 H 0.59857 0.27593 0.37596
 H664 H 0.61065 0.25993 0.31606
 C665 C 0.89364 0.26943 0.87694
 C666 C 0.90825 0.24383 0.88626
 C667 C 0.93076 0.24443 0.91084
 C668 C 0.93930 0.27067 0.92653
 C669 C 0.92502 0.29638 0.91677
 C670 C 0.90233 0.29575 0.89233
 C671 C 0.86883 0.26836 0.85211
 C672 C 0.84318 0.28365 0.85943
 C673 C 0.81905 0.28096 0.83737
 C674 C 0.82015 0.26305 0.80742
 C675 C 0.84612 0.24846 0.79955
 C676 C 0.87016 0.25102 0.82172
 H677 H 0.94132 0.22424 0.91777
 H678 H 0.93109 0.31695 0.92838
 H679 H 0.79938 0.29250 0.84415
 H680 H 0.84771 0.23455 0.77664
 H681 H 0.89159 0.31583 0.88540
 H682 H 0.84145 0.29696 0.88285
 H683 H 0.90179 0.22319 0.87517
 H684 H 0.88978 0.23928 0.81521
 C685 C 0.39306 0.76968 0.37760
 C686 C 0.40763 0.74404 0.38689
 C687 C 0.43015 0.74457 0.41147
 C688 C 0.43875 0.77079 0.42719
 C689 C 0.42449 0.79653 0.41749
 C690 C 0.40179 0.79595 0.39305
 C691 C 0.36828 0.76870 0.35269
 C692 C 0.34268 0.78412 0.35990
 C693 C 0.31861 0.78160 0.33772
 C694 C 0.31970 0.76374 0.30772
 C695 C 0.34560 0.74898 0.29998
 C696 C 0.36959 0.75137 0.32227
 H697 H 0.44068 0.72436 0.41835
 H698 H 0.43061 0.81707 0.42912
 H699 H 0.29899 0.79326 0.34441
 H700 H 0.34718 0.73510 0.27704
 H701 H 0.39109 0.81607 0.38614
 H702 H 0.34095 0.79742 0.38332
 H703 H 0.40114 0.72342 0.37576
 H704 H 0.38916 0.73953 0.31583
 C705 C 0.26942 0.89413 0.12270
 C706 C 0.24374 0.90867 0.11355
 C707 C 0.24416 0.93117 0.08892
 C708 C 0.27031 0.93978 0.07300
 C709 C 0.29611 0.92557 0.08258
 C710 C 0.29564 0.90288 0.10707
 C711 C 0.26853 0.86934 0.14762
 C712 C 0.28386 0.84372 0.14027
 C713 C 0.28129 0.81960 0.16241
 C714 C 0.26348 0.82066 0.19246
 C715 C 0.24886 0.84661 0.20036
 C716 C 0.25129 0.87064 0.17813
 H717 H 0.22392 0.94168 0.08214
 H718 H 0.31660 0.93169 0.07078
 H719 H 0.29285 0.79994 0.15560
 H720 H 0.23502 0.84818 0.22335
 H721 H 0.31579 0.89219 0.11386
 H722 H 0.29709 0.84201 0.11678
 H723 H 0.22317 0.90217 0.12482
 H724 H 0.23952 0.89024 0.18466
 C725 C 0.76995 0.39281 0.62265
 C726 C 0.74438 0.40750 0.61338
 C727 C 0.74502 0.43006 0.58883
 C728 C 0.77129 0.43857 0.57311
 C729 C 0.79697 0.42421 0.58281
 C730 C 0.79628 0.40147 0.60723
 C731 C 0.76883 0.36798 0.64749
 C732 C 0.78414 0.34233 0.64021
 C733 C 0.78147 0.31822 0.66231
 C734 C 0.76357 0.31930 0.69229
 C735 C 0.74893 0.34525 0.70011
 C736 C 0.75147 0.36929 0.67789
 H737 H 0.72486 0.44067 0.58194
 H738 H 0.81754 0.43026 0.57118
 H739 H 0.79305 0.29856 0.65557
 H740 H 0.73502 0.34683 0.72304
 H741 H 0.81634 0.39068 0.61412
 H742 H 0.79747 0.34062 0.61679
 H743 H 0.72372 0.40107 0.62449
 H744 H 0.73971 0.38890 0.68438
 C745 C 0.73056 0.10674 0.12259
 C746 C 0.70426 0.09803 0.10719
 C747 C 0.70367 0.07542 0.08263
 C748 C 0.72942 0.06125 0.07278
 C749 C 0.75565 0.06981 0.08847
 C750 C 0.75620 0.09224 0.11316
 C751 C 0.73156 0.13146 0.14755
 C752 C 0.71614 0.15706 0.14039
 C753 C 0.71872 0.18111 0.16259
 C754 C 0.73665 0.17999 0.19252
 C755 C 0.75138 0.15406 0.20021
 C756 C 0.74892 0.13010 0.17791
 H757 H 0.68312 0.06932 0.07102
 H758 H 0.77586 0.05933 0.08146
 H759 H 0.70707 0.20075 0.15594
 H760 H 0.76531 0.15246 0.22310
 H761 H 0.77683 0.09872 0.12426
 H762 H 0.70280 0.15882 0.11700
 H763 H 0.68414 0.10867 0.11420
 H764 H 0.76077 0.11051 0.18429
 C765 C 0.22986 0.60712 0.62231
 C766 C 0.20360 0.59844 0.60677
 C767 C 0.20303 0.57572 0.58234
 C768 C 0.22876 0.56140 0.57273
 C769 C 0.25495 0.56995 0.58854
 C770 C 0.25548 0.59248 0.61311
 C771 C 0.23084 0.63190 0.64723
 C772 C 0.21551 0.65754 0.63997
 C773 C 0.21809 0.68161 0.66215
 C774 C 0.23591 0.68048 0.69218
 C775 C 0.25055 0.65453 0.69997
 C776 C 0.24811 0.63054 0.67768
 H777 H 0.18250 0.56965 0.57064
 H778 H 0.27516 0.55937 0.58173
 H779 H 0.20651 0.70128 0.65542
 H780 H 0.26441 0.65291 0.72292
 H781 H 0.27609 0.59892 0.62430
 H782 H 0.20225 0.65930 0.61652
 H783 H 0.18349 0.60918 0.61360
 H784 H 0.25989 0.61093 0.68416
 C785 C 0.89419 0.73086 0.12275
 C786 C 0.90302 0.70461 0.10729
 C787 C 0.92572 0.70412 0.08283
 C788 C 0.93988 0.72992 0.07311
 C789 C 0.93121 0.75610 0.08886
 C790 C 0.90869 0.75654 0.11347
 C791 C 0.86938 0.73176 0.14762
 C792 C 0.87060 0.74909 0.17803
 C793 C 0.84654 0.75148 0.20025
 C794 C 0.82067 0.73671 0.19243
 C795 C 0.81968 0.71882 0.16245
 C796 C 0.84382 0.71631 0.14034
 H797 H 0.93190 0.68361 0.07116
 H798 H 0.94167 0.77635 0.08196
 H799 H 0.84805 0.76538 0.22317
 H800 H 0.80008 0.70715 0.15570
 H801 H 0.90212 0.77714 0.12460
 H802 H 0.89014 0.76095 0.18452
 H803 H 0.89238 0.68446 0.11419
 H804 H 0.84217 0.70300 0.11692
 C805 C 0.39280 0.22934 0.62268
 C806 C 0.40143 0.20305 0.60717
 C807 C 0.42416 0.20242 0.58273
 C808 C 0.43853 0.22812 0.57309
 C809 C 0.43003 0.25434 0.58889
 C810 C 0.40749 0.25493 0.61346
 C811 C 0.36798 0.23040 0.64757
 C812 C 0.36934 0.24769 0.67800
 C813 C 0.34530 0.25025 0.70023
 C814 C 0.31932 0.23569 0.69239
 C815 C 0.31819 0.21783 0.66240
 C816 C 0.34231 0.21515 0.64028
 H817 H 0.43020 0.18188 0.57104
 H818 H 0.44064 0.27453 0.58205
 H819 H 0.34692 0.26412 0.72316
 H820 H 0.29851 0.20631 0.65564
 H821 H 0.40107 0.27556 0.62463
 H822 H 0.38897 0.25941 0.68450
 H823 H 0.39064 0.18297 0.61402
 H824 H 0.34055 0.20187 0.61684
 C825 C 0.10679 0.26970 0.12253
 C826 C 0.09816 0.29597 0.10696
 C827 C 0.07557 0.29653 0.08238
 C828 C 0.06134 0.27079 0.07266
 C829 C 0.06982 0.24459 0.08851
 C830 C 0.09223 0.24406 0.11323
 C831 C 0.13148 0.26871 0.14753
 C832 C 0.13003 0.25143 0.17800
 C833 C 0.15398 0.24893 0.20032
 C834 C 0.17998 0.26352 0.19255
 C835 C 0.18118 0.28138 0.16254
 C836 C 0.15715 0.28401 0.14032
 H837 H 0.06953 0.31707 0.07065
 H838 H 0.05930 0.22438 0.08162
 H839 H 0.15231 0.23505 0.22326
 H840 H 0.20088 0.29292 0.15583
 H841 H 0.09866 0.22345 0.12446
 H842 H 0.11040 0.23968 0.18442
 H843 H 0.10885 0.31608 0.11387
 H844 H 0.15897 0.29728 0.11686
 C845 C 0.60711 0.76942 0.62227
 C846 C 0.59842 0.79572 0.60682
 C847 C 0.57569 0.79635 0.58241
 C848 C 0.56137 0.77064 0.57274
 C849 C 0.56993 0.74440 0.58847
 C850 C 0.59248 0.74382 0.61302
 C851 C 0.63192 0.76838 0.64715
 C852 C 0.63060 0.75104 0.67757
 C853 C 0.65460 0.74862 0.69985
 C854 C 0.68051 0.76335 0.69208
 C855 C 0.68161 0.78122 0.66207
 C856 C 0.65753 0.78378 0.63990
 H857 H 0.56961 0.81691 0.57077
 H858 H 0.55935 0.72422 0.58161
 H859 H 0.65301 0.73472 0.72279
 H860 H 0.70124 0.79287 0.65536
 H861 H 0.59894 0.72318 0.62415
 H862 H 0.61102 0.73921 0.68403
 H863 H 0.60916 0.81582 0.61369
 H864 H 0.65926 0.79709 0.61647
   
