data_POSCAR
  _audit_creation_date              2014-09-24
  _audit_creation_method            'ToBaCCo'
  _symmetry_space_group_name_H-M    'P1'
  _symmetry_Int_Tables_number       1
  _symmetry_cell_setting            triclinic
  loop_
  _symmetry_equiv_pos_as_xyz
 x,y,z
_cell_length_a 34.5853
_cell_length_b 34.4325
_cell_length_c 32.8950
_cell_angle_alpha 90.104900
_cell_angle_beta 91.563000
_cell_angle_gamma 85.905900
loop_
  _atom_site_label
  _atom_site_type_symbol
  _atom_site_fract_x
  _atom_site_fract_y
  _atom_site_fract_z
C1 C 0.17679 0.57069 1.03200
 H2 H 0.18236 0.58037 1.00156
 C3 C 0.14042 0.57937 1.04836
 H4 H 0.11954 0.59771 1.03080
 C5 C 0.19675 0.53217 1.08934
 H6 H 0.21775 0.51147 1.10379
 C7 C 0.16076 0.54041 1.10710
 H8 H 0.15567 0.52662 1.13577
 N9 N 0.20301 0.54548 1.05139
 C10 C 0.29543 0.52666 0.96427
 H11 H 0.29033 0.49683 0.95668
 C12 C 0.32850 0.54280 0.95058
 H13 H 0.34800 0.52499 0.93197
 C14 C 0.27781 0.58381 1.00158
 H15 H 0.25885 0.59886 1.02298
 C16 C 0.31087 0.60111 0.98868
 H17 H 0.31634 0.63000 0.99939
 Zn18 Zn 0.23658 0.51636 1.01689
 N19 N 0.27129 0.54686 0.98987
 C20 C 0.20115 0.49734 0.93931
 N21 N 0.20245 0.49196 0.98033
 C22 C 0.17537 0.47198 0.99888
 C23 C 0.14572 0.45619 0.97630
 C24 C 0.17161 0.48211 0.91540
 C25 C 0.30084 0.49178 1.06484
 C26 C 0.33048 0.46546 1.07954
 C27 C 0.29157 0.41271 1.05956
 C28 C 0.26326 0.43998 1.04391
 N29 N 0.26857 0.47871 1.04633
 H30 H 0.22221 0.51433 0.92522
 H31 H 0.17623 0.46922 1.03164
 H32 H 0.12417 0.44137 0.99229
 H33 H 0.17076 0.48685 0.88287
 H34 H 0.30462 0.52268 1.06590
 H35 H 0.35694 0.47613 1.09223
 H36 H 0.28765 0.38194 1.05610
 H37 H 0.23806 0.42994 1.02823
 C38 C 0.33731 0.58009 0.96367
 C39 C 0.13075 0.56157 1.08492
 C40 C 0.32612 0.42546 1.07633
 C41 C 0.14328 0.46135 0.93401
 C42 C 0.80756 0.48886 -0.07574
 H43 H 0.80943 0.51127 -0.05282
 C44 C 0.83697 0.48282 -0.10360
 H45 H 0.86107 0.50124 -0.10236
 C46 C 0.77432 0.43683 -0.10394
 H47 H 0.75044 0.41825 -0.10296
 C48 C 0.80300 0.43011 -0.13293
 H49 H 0.80085 0.40643 -0.15437
 N50 N 0.77742 0.46562 -0.07591
 C51 C 0.69050 0.52673 -0.00247
 H52 H 0.69052 0.50593 0.02214
 C53 C 0.66163 0.55701 -0.00516
 H54 H 0.64008 0.56000 0.01811
 C55 C 0.71736 0.54648 -0.06406
 H56 H 0.73801 0.54105 -0.08785
 C57 C 0.68933 0.57776 -0.06752
 H58 H 0.68905 0.59672 -0.09375
 Zn59 Zn 0.74502 0.47257 -0.03092
 N60 N 0.71692 0.52144 -0.03218
 C61 C 0.78640 0.50068 0.03655
 N62 N 0.77796 0.46810 0.01565
 C63 C 0.79685 0.43291 0.02409
 C64 C 0.82524 0.42940 0.05508
 C65 C 0.81545 0.49868 0.06691
 C66 C 0.67768 0.44320 -0.05925
 C67 C 0.64086 0.43038 -0.05363
 C68 C 0.66392 0.40177 0.01035
 C69 C 0.70014 0.41590 0.00395
 N70 N 0.70585 0.43728 -0.02983
 H71 H 0.77184 0.52852 0.02845
 H72 H 0.79051 0.40776 0.00600
 H73 H 0.84043 0.40132 0.06114
 H74 H 0.82264 0.52497 0.08267
 H75 H 0.68268 0.46126 -0.08521
 H76 H 0.61804 0.43747 -0.07615
 H77 H 0.65905 0.38696 0.03856
 H78 H 0.72224 0.41281 0.02776
 C79 C 0.66035 0.58243 -0.03844
 C80 C 0.83524 0.45276 -0.13225
 C81 C 0.63334 0.41078 -0.01772
 C82 C 0.83530 0.46274 0.07620
 C83 C -0.03953 0.31370 0.45025
 H84 H -0.05342 0.30554 0.47772
 C85 C -0.04761 0.35080 0.43440
 H86 H -0.06918 0.36961 0.44932
 C87 C 0.00599 0.29829 0.39922
 H88 H 0.02827 0.27830 0.38696
 C89 C -0.00139 0.33551 0.38201
 H90 H 0.01510 0.34316 0.35610
 N91 N -0.01245 0.28865 0.43340
 C92 C -0.03223 0.18470 0.50408
 H93 H -0.00458 0.17970 0.52007
 C94 C -0.05953 0.15657 0.50539
 H95 H -0.05266 0.13042 0.52308
 C96 C -0.07305 0.22343 0.45893
 H97 H -0.07767 0.24844 0.43920
 C98 C -0.10122 0.19644 0.45979
 H99 H -0.12759 0.20256 0.44191
 Zn100 Zn 0.00339 0.24680 0.46867
 N101 N -0.03904 0.21691 0.48032
 C102 C 0.00111 0.28552 0.54556
 N103 N 0.02379 0.27294 0.51431
 C104 C 0.05761 0.28919 0.50709
 C105 C 0.06908 0.32035 0.53042
 C106 C 0.01132 0.31721 0.56949
 C107 C 0.03189 0.19349 0.41063
 C108 C 0.05336 0.15992 0.39794
 C109 C 0.09397 0.16342 0.45854
 C110 C 0.07166 0.19677 0.47013
 N111 N 0.04097 0.21081 0.44647
 H112 H -0.02653 0.27338 0.54959
 H113 H 0.07423 0.28005 0.48094
 H114 H 0.09567 0.33313 0.52303
 H115 H -0.00831 0.32840 0.59247
 H116 H 0.00655 0.20443 0.39307
 H117 H 0.04490 0.14606 0.36987
 H118 H 0.11699 0.15188 0.47896
 H119 H 0.07726 0.20968 0.49947
 C120 C -0.09418 0.16166 0.48201
 C121 C -0.02713 0.36317 0.40099
 C122 C 0.08418 0.14378 0.42263
 C123 C 0.04491 0.33613 0.56078
 C124 C 1.00338 0.69312 0.56239
 H125 H 0.97823 0.69535 0.54202
 C126 C 1.00913 0.66159 0.58898
 H127 H 0.98787 0.64000 0.58948
 C128 C 1.06247 0.71784 0.58509
 H129 H 1.08369 0.73923 0.58244
 C130 C 1.06891 0.68714 0.61292
 H131 H 1.09507 0.68526 0.63187
 N132 N 1.03024 0.71998 0.56030
 C133 C 0.97549 0.82342 0.49918
 H134 H 0.99164 0.82312 0.47146
 C135 C 0.94913 0.85489 0.50743
 H136 H 0.94462 0.87793 0.48515
 C137 C 0.96344 0.79420 0.56225
 H138 H 0.96991 0.77099 0.58400
 C139 C 0.93696 0.82520 0.57183
 H140 H 0.92328 0.82481 0.60093
 Zn141 Zn 1.02331 0.75598 0.51676
 N142 N 0.98221 0.79395 0.52650
 C143 C 0.98502 0.73660 0.44140
 N144 N 1.01344 0.72635 0.46960
 C145 C 1.03614 0.69267 0.46612
 C146 C 1.03087 0.66778 0.43341
 C147 C 0.97907 0.71266 0.40772
 C148 C 1.06950 0.81875 0.52693
 C149 C 1.09716 0.84391 0.51554
 C150 C 1.12345 0.79439 0.46985
 C151 C 1.09482 0.77043 0.48153
 N152 N 1.06815 0.78318 0.50908
 H153 H 0.96678 0.76308 0.44500
 H154 H 1.05831 0.68501 0.48911
 H155 H 1.04940 0.64120 0.43128
 H156 H 0.95618 0.72099 0.38568
 H157 H 1.04794 0.82835 0.54866
 H158 H 1.09709 0.87258 0.52913
 H159 H 1.14359 0.78433 0.44684
 H160 H 1.09306 0.74237 0.46723
 C161 C 0.92964 0.85637 0.54439
 C162 C 1.04246 0.65807 0.61428
 C163 C 1.12403 0.83202 0.48605
 C164 C 1.00203 0.67762 0.40373
 C165 C 0.44435 -0.01003 0.29393
 H166 H 0.43576 -0.03294 0.27390
 C167 C 0.41963 0.00372 0.32461
 H168 H 0.39222 -0.00912 0.32757
 C169 C 0.49081 0.03370 0.31480
 H170 H 0.51889 0.04496 0.31107
 C171 C 0.46707 0.04840 0.34552
 H172 H 0.47755 0.07111 0.36465
 N173 N 0.47970 0.00437 0.29047
 C174 C 0.48482 -0.08748 0.23408
 H175 H 0.47967 -0.09072 0.26609
 C176 C 0.47284 -0.11570 0.20665
 H177 H 0.45906 -0.14013 0.21887
 C178 C 0.50765 -0.05093 0.18018
 H179 H 0.52103 -0.02565 0.16950
 C180 C 0.49625 -0.07828 0.15182
 H181 H 0.50143 -0.07271 0.12021
 Zn182 Zn 0.51912 -0.01593 0.25610
 N183 N 0.50225 -0.05593 0.22059
 C184 C 0.55685 -0.06681 0.31371
 N185 N 0.56038 -0.03342 0.29253
 C186 C 0.58660 -0.00774 0.30459
 C187 C 0.60896 -0.01419 0.34030
 C188 C 0.57856 -0.07436 0.34965
 C189 C 0.50417 0.05229 0.21242
 C190 C 0.51041 0.08113 0.18429
 C191 C 0.57690 0.05495 0.17958
 C192 C 0.56915 0.02598 0.20734
 N193 N 0.53328 0.02544 0.22332
 H194 H 0.53522 -0.08634 0.30445
 H195 H 0.58782 0.01956 0.28867
 H196 H 0.62776 0.00791 0.35045
 H197 H 0.57408 -0.10043 0.36672
 H198 H 0.47566 0.05059 0.22469
 H199 H 0.48678 0.10210 0.17570
 H200 H 0.60532 0.05496 0.16656
 H201 H 0.59137 0.00334 0.21526
 C202 C 0.47893 -0.11180 0.16463
 C203 C 0.43140 0.03257 0.35180
 C204 C 0.54702 0.08247 0.16740
 C205 C 0.60374 -0.04698 0.36436
 C206 C 0.53158 -0.00189 0.70715
 H207 H 0.51376 -0.02647 0.70599
 C208 C 0.56161 0.00036 0.67995
 H209 H 0.56696 -0.02305 0.65841
 C210 C 0.54563 0.05844 0.73675
 H211 H 0.53870 0.08145 0.75828
 C212 C 0.57594 0.06192 0.71007
 H213 H 0.59196 0.08773 0.71172
 N214 N 0.52442 0.02670 0.73505
 C215 C 0.46118 -0.02920 0.82900
 H216 H 0.43454 -0.01069 0.82875
 C217 C 0.46698 -0.05932 0.85737
 H218 H 0.44416 -0.06431 0.87818
 C219 C 0.52345 -0.04428 0.80247
 H220 H 0.54589 -0.03755 0.78195
 C221 C 0.53054 -0.07456 0.83037
 H222 H 0.55843 -0.09085 0.83041
 Zn223 Zn 0.48154 0.02208 0.76874
 N224 N 0.48914 -0.02246 0.80213
 C225 C 0.41669 -0.01229 0.73249
 N226 N 0.43785 0.01951 0.73366
 C227 C 0.43113 0.04900 0.70641
 C228 C 0.40279 0.04677 0.67567
 C229 C 0.38783 -0.01558 0.70241
 C230 C 0.50498 0.06760 0.83245
 C231 C 0.50149 0.09498 0.86355
 C232 C 0.43740 0.11544 0.83706
 C233 C 0.44217 0.08758 0.80630
 N234 N 0.47557 0.06436 0.80472
 H235 H 0.42316 -0.03584 0.75380
 H236 H 0.44880 0.07369 0.70780
 H237 H 0.39835 0.07027 0.65386
 H238 H 0.37225 -0.04173 0.70115
 H239 H 0.53088 0.04815 0.83086
 H240 H 0.52540 0.09687 0.88517
 H241 H 0.41021 0.13290 0.83841
 H242 H 0.41874 0.08366 0.78461
 C243 C 0.50211 -0.08248 0.85836
 C244 C 0.58436 0.03258 0.68119
 C245 C 0.46719 0.11909 0.86647
 C246 C 0.38120 0.01382 0.67300
 C247 C 0.22560 -0.03733 0.46088
 C248 C 0.23495 0.00139 0.45862
 C249 C 0.20763 0.02988 0.44314
 C250 C 0.17043 0.01993 0.43066
 C251 C 0.16117 -0.01913 0.43345
 C252 C 0.18881 -0.04784 0.44846
 C253 C 0.27250 0.01213 0.47528
 C254 C 0.30052 0.02488 0.44960
 C255 C 0.33698 0.03328 0.46547
 C256 C 0.34499 0.02930 0.50745
 C257 C 0.31707 0.01616 0.53351
 C258 C 0.28079 0.00777 0.51699
 H259 H 0.24669 -0.05906 0.47369
 H260 H 0.21515 0.05986 0.44176
 H261 H 0.29408 0.02772 0.41727
 H262 H 0.25857 -0.00200 0.53630
 H263 H 0.13239 -0.02716 0.42478
 H264 H 0.37357 0.03468 0.51941
 C265 C 0.79929 -0.02352 0.53589
 C266 C 0.77485 0.00716 0.52026
 C267 C 0.79066 0.03988 0.50428
 C268 C 0.83108 0.04222 0.50381
 C269 C 0.85565 0.01082 0.51908
 C270 C 0.83966 -0.02219 0.53518
 C271 C 0.73268 0.00552 0.52292
 C272 C 0.71445 0.01824 0.55851
 C273 C 0.67488 0.01365 0.56359
 C274 C 0.65392 -0.00451 0.53259
 C275 C 0.67187 -0.01696 0.49655
 C276 C 0.71130 -0.01151 0.49169
 H277 H 0.78668 -0.04876 0.54822
 H278 H 0.77130 0.06390 0.49320
 H279 H 0.73163 0.03062 0.58260
 H280 H 0.72565 -0.02173 0.46439
 H281 H 0.88685 0.01206 0.51853
 H282 H 0.62334 -0.00815 0.53595
 C283 C 0.52240 0.31494 1.03541
 C284 C 0.49515 0.29024 1.04883
 C285 C 0.46049 0.30573 1.06519
 C286 C 0.45234 0.34620 1.06776
 C287 C 0.47968 0.37093 1.05327
 C288 C 0.51464 0.35538 1.03693
 C289 C 0.50024 0.24848 1.04019
 C290 C 0.52145 0.22317 1.06702
 C291 C 0.52435 0.18311 1.05916
 C292 C 0.50690 0.16866 1.02375
 C293 C 0.48672 0.19417 0.99591
 C294 C 0.48313 0.23407 1.00475
 H295 H 0.54847 0.30252 1.02142
 H296 H 0.43928 0.28589 1.07385
 H297 H 0.53440 0.23444 1.09460
 H298 H 0.46776 0.25433 0.98381
 H299 H 0.47380 0.40220 1.05441
 H300 H 0.50912 0.13759 1.01801
 C301 C 0.52281 0.69750 -0.02076
 C302 C 0.48462 0.71182 -0.01412
 C303 C 0.45420 0.68729 -0.01946
 C304 C 0.46206 0.64861 -0.03247
 C305 C 0.50081 0.63446 -0.03822
 C306 C 0.53122 0.65900 -0.03271
 C307 C 0.47740 0.75392 -0.00730
 C308 C 0.48706 0.77894 -0.03806
 C309 C 0.48882 0.81867 -0.03092
 C310 C 0.47982 0.83389 0.00759
 C311 C 0.46993 0.80907 0.03954
 C312 C 0.46819 0.76887 0.03113
 H313 H 0.54607 0.71686 -0.01716
 H314 H 0.42454 0.69897 -0.01605
 H315 H 0.49486 0.76690 -0.06747
 H316 H 0.46289 0.74833 0.05479
 H317 H 0.50725 0.60476 -0.04818
 H318 H 0.48177 0.86475 0.01251
 C319 C 0.99801 0.54911 0.27644
 C320 C 0.99680 0.51076 0.26232
 C321 C 0.99157 0.48060 0.29000
 C322 C 0.98596 0.48887 0.33149
 C323 C 0.98748 0.52770 0.34483
 C324 C 0.99331 0.55782 0.31756
 C325 C 0.99469 0.50408 0.21796
 C326 C 1.02061 0.52093 0.19220
 C327 C 1.01279 0.52360 0.15002
 C328 C 0.97889 0.50816 0.13404
 C329 C 0.95445 0.48876 0.15926
 C330 C 0.96259 0.48666 0.20108
 H331 H 1.00133 0.57243 0.25503
 H332 H 0.98938 0.45133 0.27849
 H333 H 1.04532 0.53435 0.20561
 H334 H 0.94229 0.47399 0.22083
 H335 H 0.98402 0.53493 0.37656
 H336 H 0.97234 0.50914 0.10169
 C337 C 0.03682 0.51115 0.71368
 C338 C 0.03005 0.47215 0.72074
 C339 C 0.03392 0.44488 0.68920
 C340 C 0.04478 0.45630 0.65043
 C341 C 0.05007 0.49593 0.64328
 C342 C 0.04621 0.52345 0.67481
 C343 C 0.01804 0.46013 0.76105
 C344 C -0.02081 0.45312 0.76712
 C345 C -0.03312 0.44380 0.80593
 C346 C -0.00571 0.43976 0.83825
 C347 C 0.03351 0.44579 0.83226
 C348 C 0.04504 0.45684 0.79364
 H349 H 0.03340 0.53209 0.73818
 H350 H 0.02943 0.41466 0.69537
 H351 H -0.04162 0.45664 0.74193
 H352 H 0.07507 0.46206 0.78859
 H353 H 0.05750 0.50550 0.61334
 H354 H -0.01505 0.43229 0.86822
 N355 N 0.11018 0.04506 0.39218
 N356 N 0.08789 0.07784 0.38959
 C357 C 0.10366 0.10511 0.41308
 C358 C 0.13785 0.08881 0.43090
 C359 C 0.14078 0.05067 0.41717
 H360 H 0.15689 0.10203 0.45268
 H361 H 0.10392 0.01920 0.37758
 H362 H 0.06143 0.08056 0.37346
 N363 N 0.59708 0.66769 -0.05914
 N364 N 0.63101 0.64763 -0.06077
 C365 C 0.62805 0.61259 -0.04346
 C366 C 0.59034 0.61004 -0.03079
 C367 C 0.57170 0.64563 -0.04124
 H368 H 0.57832 0.58601 -0.01553
 H369 H 0.59154 0.69600 -0.07023
 H370 H 0.65584 0.65825 -0.07276
 N371 N 0.85497 -0.07664 0.58383
 N372 N 0.87787 -0.10895 0.58588
 C373 C 0.90200 -0.10997 0.55425
 C374 C 0.89421 -0.07604 0.53149
 C375 C 0.86402 -0.05598 0.55116
 H376 H 0.90662 -0.06808 0.50313
 H377 H 0.83256 -0.06964 0.60380
 H378 H 0.87545 -0.13036 0.60788
 N379 N 0.38864 0.34141 1.10184
 N380 N 0.35524 0.36234 1.10399
 C381 C 0.35877 0.39708 1.08640
 C382 C 0.39605 0.39842 1.07244
 C383 C 0.41408 0.36219 1.08218
 H384 H 0.40695 0.42106 1.05409
 H385 H 0.39312 0.31294 1.11271
 H386 H 0.33014 0.35237 1.11607
 N387 N 0.82905 0.09929 0.45717
 N388 N 0.84793 0.13070 0.45189
 C389 C 0.87807 0.13049 0.47893
 C390 C 0.87839 0.09656 0.50210
 C391 C 0.84658 0.07781 0.48745
 H392 H 0.89793 0.08738 0.52704
 H393 H 0.80446 0.09273 0.44003
 H394 H 0.84002 0.15157 0.42966
 N395 N 0.43168 0.59723 -0.07341
 N396 N 0.39874 0.58005 -0.07526
 C397 C 0.37516 0.59523 -0.04634
 C398 C 0.39410 0.62392 -0.02553
 C399 C 0.43001 0.62391 -0.04341
 H400 H 0.38407 0.64110 0.00018
 H401 H 0.45467 0.59083 -0.09282
 H402 H 0.39298 0.55829 -0.09622
 N403 N 0.20408 -0.11980 0.44761
 N404 N 0.18720 -0.15142 0.45781
 C405 C 0.15144 -0.14079 0.47103
 C406 C 0.14508 -0.10065 0.46847
 C407 C 0.17917 -0.08849 0.45349
 H408 H 0.11967 -0.08274 0.47722
 H409 H 0.23232 -0.11977 0.43710
 H410 H 0.20044 -0.17962 0.45664
 N411 N 0.53081 0.41373 0.99757
 N412 N 0.56184 0.42734 0.98176
 C413 C 0.59315 0.40354 0.99230
 C414 C 0.58152 0.37346 1.01587
 C415 C 0.54173 0.38090 1.01833
 H416 H 0.59941 0.34939 1.02907
 H417 H 0.50262 0.42630 0.99322
 H418 H 0.56143 0.45287 0.96460
 N419 N 0.57854 0.15998 1.10689
 N420 N 0.58477 0.13287 1.13520
 C421 C 0.55331 0.11204 1.13652
 C422 C 0.52628 0.12587 1.10730
 C423 C 0.54339 0.15620 1.08928
 H424 H 0.49742 0.11653 1.10140
 H425 H 0.59770 0.18111 1.10040
 H426 H 0.60936 0.12995 1.15440
 N427 N 0.06821 0.58892 0.69406
 N428 N 0.06758 0.62418 0.67806
 C429 C 0.04993 0.62369 0.64105
 C430 C 0.03938 0.58624 0.63293
 C431 C 0.05154 0.56508 0.66731
 H432 H 0.02450 0.57596 0.60607
 H433 H 0.08005 0.58144 0.72277
 H434 H 0.07837 0.64822 0.69275
 N435 N 0.53310 0.82995 -0.08713
 N436 N 0.53645 0.85546 -0.11643
 C437 C 0.50910 0.88503 -0.11219
 C438 C 0.48764 0.87798 -0.07804
 C439 C 0.50374 0.84260 -0.06333
 H440 H 0.46269 0.89493 -0.06668
 H441 H 0.55018 0.80377 -0.08422
 H442 H 0.55624 0.85141 -0.13970
 N443 N 0.95929 0.46706 0.39451
 N444 N 0.95420 0.43169 0.41322
 C445 C 0.96945 0.40281 0.38940
 C446 C 0.98371 0.41938 0.35459
 C447 C 0.97697 0.45966 0.35901
 H448 H 0.99807 0.40423 0.32976
 H449 H 0.94885 0.49389 0.40612
 H450 H 0.94306 0.42965 0.44221
 N451 N 0.45149 0.80306 0.11069
 N452 N 0.45388 0.82543 0.14595
 C453 C 0.46900 0.85921 0.13629
 C454 C 0.47551 0.85912 0.09454
 C455 C 0.46486 0.82340 0.07960
 H456 H 0.48868 0.88118 0.07750
 H457 H 0.44081 0.77549 0.10994
 H458 H 0.44616 0.81583 0.17446
 N459 N 0.07530 0.43136 0.58650
 N460 N 0.07601 0.39975 0.56370
 C461 C 0.05308 0.37402 0.57993
 C462 C 0.03701 0.39040 0.61485
 C463 C 0.05184 0.42688 0.61791
 H464 H 0.01702 0.37780 0.63490
 H465 H 0.09116 0.45531 0.58058
 H466 H 0.09144 0.39669 0.53692
 N467 N 0.44139 0.19785 0.93491
 N468 N 0.43642 0.17827 0.90080
 C469 C 0.46246 0.14720 0.90044
 C470 C 0.48464 0.14692 0.93623
 C471 C 0.47055 0.17958 0.95716
 H472 H 0.50848 0.12651 0.94541
 H473 H 0.42502 0.22338 0.94242
 H474 H 0.41612 0.18693 0.87794
 N475 N 0.97961 0.62997 0.30957
 N476 N 0.98126 0.66147 0.33242
 C477 C 0.99564 0.65079 0.36954
 C478 C 1.00323 0.61077 0.37038
 C479 C 0.99262 0.59861 0.33183
 H480 H 1.01445 0.59293 0.39567
 H481 H 0.96884 0.63012 0.27961
 H482 H 0.97285 0.68967 0.32247
 N483 N 1.02790 0.55656 0.08744
 N484 N 1.06106 0.56917 0.06998
 C485 C 1.09152 0.56069 0.09589
 C486 C 1.07776 0.54440 0.13111
 C487 C 1.03812 0.54155 0.12431
 H488 H 1.09467 0.53298 0.15710
 H489 H 1.00033 0.55909 0.07355
 H490 H 1.06149 0.57923 0.04012
 N491 N 0.66895 0.05475 0.62650
 N492 N 0.64524 0.05978 0.65719
 C493 C 0.61640 0.03563 0.65249
 C494 C 0.62216 0.01438 0.61697
 C495 C 0.65582 0.02732 0.60139
 H496 H 0.60452 -0.00757 0.60425
 H497 H 0.69338 0.07041 0.62292
 H498 H 0.64938 0.07922 0.68102
 N499 N -0.10066 0.42731 0.78597
 N500 N -0.13528 0.42948 0.80233
 C501 C -0.13218 0.44439 0.84010
 C502 C -0.09379 0.45146 0.84826
 C503 C -0.07474 0.44027 0.81324
 H504 H -0.08149 0.46367 0.87562
 H505 H -0.09507 0.41704 0.75667
 H506 H -0.16059 0.42162 0.78740
 N507 N 0.39527 0.06792 0.44790
 N508 N 0.41980 0.06816 0.41784
 C509 C 0.40824 0.04418 0.38797
 C510 C 0.37431 0.02858 0.39971
 C511 C 0.36738 0.04409 0.43792
 H512 H 0.35819 0.00692 0.38424
 H513 H 0.39819 0.08334 0.47504
 H514 H 0.44467 0.08358 0.41908
 N515 N 0.05914 0.41502 0.89714
 N516 N 0.08816 0.41864 0.92346
 C517 C 0.11031 0.44653 0.91027
 C518 C 0.09479 0.46085 0.87339
 C519 C 0.06209 0.44035 0.86643
 H520 H 0.10454 0.48432 0.85535
 H521 H 0.03779 0.39537 0.90039
 H522 H 0.09235 0.40212 0.94998
 N523 N 0.62157 -0.06045 0.47174
 N524 N 0.60434 -0.06910 0.43690
 C525 C 0.62043 -0.05009 0.40647
 C526 C 0.64984 -0.02890 0.42301
 C527 C 0.64929 -0.03603 0.46445
 H528 H 0.66736 -0.00894 0.40767
 H529 H 0.61360 -0.07031 0.50012
 H530 H 0.58043 -0.08595 0.43473
 N531 N 0.90667 0.43772 0.15469
 N532 N 0.87544 0.43069 0.13265
 C533 C 0.86764 0.46031 0.10631
 C534 C 0.89537 0.48711 0.11138
 C535 C 0.91966 0.47161 0.14226
 H536 H 0.89769 0.51389 0.09473
 H537 H 0.91914 0.41924 0.17733
 H538 H 0.85970 0.40614 0.13589
 N539 N 0.30732 -0.01370 0.60176
 N540 N 0.32401 -0.01423 0.63838
 C541 C 0.35373 0.00903 0.63838
 C542 C 0.35596 0.02507 0.59997
 C543 C 0.32611 0.00983 0.57748
 H544 H 0.37714 0.04421 0.58963
 H545 H 0.28420 -0.03027 0.59364
 H546 H 0.31507 -0.03053 0.66270
   
