data_POSCAR
  _audit_creation_date              2014-09-24
  _audit_creation_method            'ToBaCCo'
  _symmetry_space_group_name_H-M    'P1'
  _symmetry_Int_Tables_number       1
  _symmetry_cell_setting            triclinic
  loop_
  _symmetry_equiv_pos_as_xyz
 x,y,z
_cell_length_a 54.3912
_cell_length_b 54.3616
_cell_length_c 20.3158
_cell_angle_alpha 89.949500
_cell_angle_beta 89.946700
_cell_angle_gamma 119.987900
loop_
  _atom_site_label
  _atom_site_type_symbol
  _atom_site_fract_x
  _atom_site_fract_y
  _atom_site_fract_z
C1 C 0.20505 0.51310 0.44255
 C2 C 0.19198 0.50998 0.50379
 C3 C 0.20613 0.51353 0.56353
 C4 C 0.23486 0.52008 0.56259
 C5 C 0.24851 0.52248 0.50111
 C6 C 0.23373 0.51940 0.44085
 C7 C 0.24703 0.51971 0.38117
 C8 C 0.27393 0.52276 0.38010
 C9 C 0.28854 0.52507 0.43866
 C10 C 0.27609 0.52545 0.49992
 C11 C 0.24925 0.52129 0.62105
 C12 C 0.27613 0.52422 0.61978
 C13 C 0.28995 0.52605 0.55997
 C14 C 0.31583 0.52555 0.55797
 C15 C 0.32765 0.52553 0.49671
 C16 C 0.31441 0.52497 0.43767
 H17 H 0.23634 0.51615 0.33444
 H18 H 0.28272 0.52216 0.33270
 H19 H 0.23936 0.51853 0.66872
 H20 H 0.28535 0.52375 0.66652
 H21 H 0.17022 0.50573 0.50511
 H22 H 0.34717 0.52466 0.49482
 C23 C 0.47649 -0.20956 0.44097
 C24 C 0.47524 -0.19769 0.50090
 C25 C 0.47694 -0.20933 0.56083
 C26 C 0.47907 -0.23421 0.56128
 C27 C 0.48011 -0.24674 0.50075
 C28 C 0.47886 -0.23428 0.44036
 C29 C 0.48166 -0.24579 0.38097
 C30 C 0.48646 -0.26861 0.38061
 C31 C 0.48793 -0.28143 0.43961
 C32 C 0.48463 -0.27038 0.50059
 C33 C 0.48182 -0.24586 0.62052
 C34 C 0.48633 -0.26887 0.62060
 C35 C 0.48785 -0.28152 0.56141
 C36 C 0.49525 -0.30311 0.56096
 C37 C 0.49937 -0.31285 0.50046
 C38 C 0.49537 -0.30304 0.43985
 H39 H 0.48108 -0.23664 0.33405
 H40 H 0.49023 -0.27518 0.33331
 H41 H 0.48133 -0.23674 0.66751
 H42 H 0.48984 -0.27574 0.66781
 H43 H 0.47478 -0.17795 0.50087
 H44 H 0.50415 -0.33001 0.50062
 C45 C 1.20685 0.68904 0.44011
 C46 C 1.19470 0.67614 0.49989
 C47 C 1.20660 0.68879 0.56036
 C48 C 1.23244 0.71521 0.56085
 C49 C 1.24521 0.72868 0.50006
 C50 C 1.23233 0.71539 0.43957
 C51 C 1.24402 0.72960 0.38019
 C52 C 1.26739 0.75680 0.37967
 C53 C 1.28053 0.77085 0.43853
 C54 C 1.26934 0.75661 0.49964
 C55 C 1.24421 0.72985 0.61979
 C56 C 1.26758 0.75712 0.61950
 C57 C 1.28064 0.77101 0.56029
 C58 C 1.30266 0.79989 0.55955
 C59 C 1.31266 0.81352 0.49877
 C60 C 1.30255 0.79971 0.43838
 H61 H 1.23453 0.72023 0.33332
 H62 H 1.27400 0.76708 0.33229
 H63 H 1.23472 0.72093 0.66697
 H64 H 1.27426 0.76763 0.66654
 H65 H 1.17466 0.65624 0.49921
 H66 H 1.33011 0.83532 0.49843
 C67 C 0.69055 0.48399 0.56177
 C68 C 0.67889 0.48529 0.50124
 C69 C 0.69070 0.48401 0.44130
 C70 C 0.71545 0.48177 0.44080
 C71 C 0.72802 0.48078 0.50139
 C72 C 0.71528 0.48137 0.56220
 C73 C 0.72915 0.48212 0.62120
 C74 C 0.75506 0.48278 0.62085
 C75 C 0.76833 0.48265 0.56149
 C76 C 0.75454 0.48146 0.50102
 C77 C 0.72884 0.48225 0.38134
 C78 C 0.75472 0.48298 0.38097
 C79 C 0.76819 0.48316 0.44005
 C80 C 0.79572 0.48669 0.43982
 C81 C 0.80922 0.48851 0.49943
 C82 C 0.79618 0.48648 0.56034
 H83 H 0.72077 0.48344 0.66849
 H84 H 0.76510 0.48469 0.66791
 H85 H 0.71992 0.48303 0.33435
 H86 H 0.76451 0.48437 0.33369
 H87 H 0.66020 0.48765 0.50063
 H88 H 0.83052 0.49152 0.49821
 C89 C 0.52252 0.21065 0.56069
 C90 C 0.52283 0.19815 0.50087
 C91 C 0.51961 0.20874 0.44089
 C92 C 0.51705 0.23333 0.43983
 C93 C 0.51708 0.24662 0.50004
 C94 C 0.51969 0.23515 0.56074
 C95 C 0.51886 0.24813 0.61974
 C96 C 0.51449 0.27127 0.61952
 C97 C 0.51172 0.28306 0.56013
 C98 C 0.51304 0.27053 0.49964
 C99 C 0.51327 0.24421 0.38043
 C100 C 0.50930 0.26755 0.37993
 C101 C 0.50900 0.28095 0.43882
 C102 C 0.50343 0.30367 0.43868
 C103 C 0.50116 0.31506 0.49840
 C104 C 0.50540 0.30548 0.55922
 H105 H 0.52107 0.24016 0.66689
 H106 H 0.51256 0.27922 0.66680
 H107 H 0.51291 0.23450 0.33370
 H108 H 0.50574 0.27451 0.33282
 H109 H 0.52390 0.17873 0.50115
 H110 H 0.49691 0.33256 0.49724
 C111 C 0.68970 0.20337 0.44768
 C112 C 0.67778 0.19183 0.50886
 C113 C 0.69134 0.20465 0.56774
 C114 C 0.71703 0.23090 0.56597
 C115 C 0.72919 0.24341 0.50424
 C116 C 0.71552 0.22951 0.44479
 C117 C 0.72876 0.24132 0.38436
 C118 C 0.75505 0.26606 0.38207
 C119 C 0.76920 0.27991 0.44011
 C120 C 0.75605 0.26877 0.50195
 C121 C 0.73164 0.24410 0.62398
 C122 C 0.75780 0.26900 0.62182
 C123 C 0.77049 0.28185 0.56147
 C124 C 0.79831 0.30581 0.55851
 C125 C 0.81091 0.31601 0.49681
 C126 C 0.79683 0.30373 0.43810
 H127 H 0.71926 0.23122 0.33813
 H128 H 0.76454 0.27378 0.33418
 H129 H 0.72332 0.23495 0.67181
 H130 H 0.76837 0.27738 0.66823
 H131 H 0.65828 0.17145 0.51070
 H132 H 0.83219 0.33428 0.49422
 O133 O 1.03886 0.56037 0.12129
 O134 O 1.07077 0.55430 0.05961
 C135 C 1.06456 0.56678 0.10581
 O136 O 0.95968 0.43350 0.11363
 O137 O 0.92816 0.44109 0.05436
 C138 C 0.93406 0.42716 0.09755
 O139 O 1.03872 0.47570 0.12234
 O140 O 1.07085 0.51352 0.06058
 C141 C 1.06449 0.49487 0.10712
 O142 O 0.95983 0.52329 0.11353
 O143 O 0.92837 0.48397 0.05499
 C144 C 0.93423 0.50384 0.09797
 Zr145 Zr 0.99945 0.52933 0.08191
 O146 O 0.99633 0.52974 0.18571
 O147 O 1.00084 0.56874 0.07294
 Zr148 Zr 0.99941 0.46714 0.08251
 O149 O 0.99620 0.46374 0.18632
 O150 O 1.00092 0.42915 0.07464
 O151 O 1.02462 0.51084 0.09591
 O152 O 0.97476 0.48589 0.09427
 O153 O 0.96059 0.52316 -0.11611
 O154 O 0.92867 0.48391 -0.05780
 C155 C 0.93486 0.50368 -0.10136
 O156 O 1.03985 0.47571 -0.11941
 O157 O 1.07134 0.51358 -0.05717
 C158 C 1.06544 0.49494 -0.10328
 O159 O 0.96085 0.43398 -0.11490
 O160 O 0.92878 0.44137 -0.05754
 C161 C 0.93510 0.42773 -0.10059
 O162 O 1.03963 0.56030 -0.12104
 O163 O 1.07132 0.55441 -0.05827
 C164 C 1.06528 0.56681 -0.10511
 Zr165 Zr 1.00006 0.52944 -0.08263
 O166 O 0.99747 0.52944 -0.18656
 O167 O 1.00282 0.56968 -0.07895
 Zr168 Zr 1.00021 0.46737 -0.08201
 O169 O 0.99759 0.46503 -0.18600
 O170 O 1.00299 0.42990 -0.07858
 Zr171 Zr 1.04255 0.51971 0.00069
 Zr172 Zr 0.95713 0.47696 -0.00080
 O173 O 0.97560 0.48609 -0.09524
 O174 O 1.02544 0.51106 -0.09521
 O175 O 0.97408 0.52130 -0.00079
 O176 O 1.02493 0.47535 0.00088
 O177 O 1.02490 0.54644 0.00004
 O178 O 0.97418 0.44965 -0.00017
 H179 H 0.96211 0.47955 0.13328
 H180 H 1.03793 0.46751 0.00137
 H181 H 0.96330 0.47989 -0.13476
 H182 H 1.03793 0.56727 0.00001
 H183 H 1.00076 0.42269 0.12034
 H184 H 0.98759 0.41625 -0.04943
 H185 H 1.01260 0.48344 -0.20357
 H186 H 1.01125 0.52426 -0.20401
 H187 H 0.98693 0.56770 -0.05128
 H188 H 1.00080 0.57525 0.11845
 H189 H 1.00976 0.52428 0.20398
 H190 H 1.00938 0.48275 0.20439
 O191 O 0.43890 0.47996 0.11886
 O192 O 0.44679 0.51861 0.05725
 C193 C 0.43347 0.49991 0.10305
 O194 O 0.56496 0.52336 0.11576
 O195 O 0.55645 0.48406 0.05616
 C196 C 0.57051 0.50350 0.09997
 O197 O 0.52544 0.56306 0.12179
 O198 O 0.48850 0.55880 0.05901
 C199 C 0.50709 0.57064 0.10570
 O200 O 0.47389 0.43582 0.11245
 O201 O 0.51288 0.44222 0.05438
 C202 C 0.49267 0.42868 0.09703
 Zr203 Zr 0.46931 0.47037 0.08090
 O204 O 0.46925 0.46726 0.18477
 O205 O 0.42824 0.43407 0.07679
 Zr206 Zr 0.53260 0.53118 0.08322
 O207 O 0.53423 0.52968 0.18717
 O208 O 0.57066 0.57098 0.08238
 O209 O 0.48900 0.51413 0.09520
 O210 O 0.51246 0.48766 0.09448
 O211 O 0.47578 0.43743 -0.11710
 O212 O 0.51394 0.44307 -0.05710
 C213 C 0.49442 0.43017 -0.10135
 O214 O 0.52669 0.56428 -0.12002
 O215 O 0.48913 0.55933 -0.05848
 C216 C 0.50804 0.57154 -0.10440
 O217 O 0.56597 0.52443 -0.11411
 O218 O 0.55702 0.48466 -0.05595
 C219 C 0.57135 0.50440 -0.09907
 O220 O 0.44098 0.48170 -0.12387
 O221 O 0.44756 0.51939 -0.06055
 C222 C 0.43514 0.50134 -0.10799
 Zr223 Zr 0.47033 0.47124 -0.08390
 O224 O 0.47052 0.46836 -0.18773
 O225 O 0.42922 0.43493 -0.08073
 Zr226 Zr 0.53361 0.53218 -0.08166
 O227 O 0.53704 0.53252 -0.18549
 O228 O 0.57164 0.57189 -0.07640
 Zr229 Zr 0.48138 0.52389 -0.00052
 Zr230 Zr 0.52152 0.47873 -0.00037
 O231 O 0.51359 0.48880 -0.09524
 O232 O 0.49018 0.51514 -0.09610
 O233 O 0.47696 0.45251 -0.00166
 O234 O 0.52590 0.54931 0.00092
 O235 O 0.45349 0.47971 -0.00181
 O236 O 0.55010 0.52287 0.00094
 H237 H 0.51815 0.48076 0.13353
 H238 H 0.53440 0.57024 0.00135
 H239 H 0.51966 0.48243 -0.13456
 H240 H 0.43279 0.47261 -0.00252
 H241 H 0.58516 0.56853 0.05856
 H242 H 0.58619 0.56877 -0.05497
 H243 H 0.51867 0.52883 -0.20382
 H244 H 0.47724 0.48763 -0.20541
 H245 H 0.43092 0.41918 -0.06109
 H246 H 0.42978 0.41909 0.05271
 H247 H 0.47363 0.48590 0.20283
 H248 H 0.51593 0.52670 0.20437
 O249 O 0.56243 0.03710 -0.11444
 O250 O 0.55745 0.06945 -0.05196
 C251 C 0.57002 0.06296 -0.09735
 O252 O 0.43465 -0.03712 -0.11834
 O253 O 0.43920 -0.07044 -0.05863
 C254 C 0.42679 -0.06323 -0.10296
 O255 O 0.47992 0.04196 -0.12260
 O256 O 0.51813 0.07159 -0.05837
 C257 C 0.50046 0.06685 -0.10603
 O258 O 0.52086 -0.04245 -0.11271
 O259 O 0.48039 -0.07289 -0.05606
 C260 C 0.50026 -0.06774 -0.09849
 Zr261 Zr 0.52903 -0.00217 -0.07940
 O262 O 0.52951 -0.00437 -0.18340
 O263 O 0.56821 -0.00159 -0.07420
 Zr264 Zr 0.46884 0.00157 -0.08374
 O265 O 0.46749 -0.00076 -0.18775
 O266 O 0.43300 0.00717 -0.08276
 O267 O 0.51290 0.02501 -0.09367
 O268 O 0.48572 -0.02478 -0.09470
 O269 O 0.51791 -0.04393 0.11724
 O270 O 0.47884 -0.07374 0.05587
 C271 C 0.49785 -0.06903 0.10026
 O272 O 0.47647 0.04036 0.11971
 O273 O 0.51529 0.07123 0.05878
 C274 C 0.49647 0.06576 0.10436
 O275 O 0.43165 -0.03861 0.11150
 O276 O 0.43770 -0.07127 0.05311
 C277 C 0.42427 -0.06455 0.09585
 O278 O 0.55846 0.03529 0.12727
 O279 O 0.55517 0.06853 0.06435
 C280 C 0.56628 0.06137 0.11185
 Zr281 Zr 0.52676 -0.00327 0.08575
 O282 O 0.52471 -0.00723 0.18953
 O283 O 0.56624 -0.00217 0.08547
 Zr284 Zr 0.46655 0.00045 0.08113
 O285 O 0.46236 -0.00313 0.18481
 O286 O 0.43067 0.00589 0.07519
 Zr287 Zr 0.52100 0.04172 0.00267
 Zr288 Zr 0.47465 -0.04336 -0.00041
 O289 O 0.48314 -0.02602 0.09504
 O290 O 0.51017 0.02374 0.09768
 O291 O 0.51863 -0.02858 0.00260
 O292 O 0.47701 0.02627 -0.00081
 O293 O 0.54579 0.02192 0.00451
 O294 O 0.44909 -0.02429 -0.00251
 H295 H 0.47941 -0.03703 -0.13432
 H296 H 0.47023 0.04013 -0.00184
 H297 H 0.47585 -0.03879 0.13378
 H298 H 0.56673 0.03401 0.00639
 H299 H 0.41717 -0.00979 -0.06176
 H300 H 0.41549 -0.01079 0.05201
 H301 H 0.48094 0.01068 0.20387
 H302 H 0.52062 0.00732 0.20698
 H303 H 0.56352 -0.01938 0.06248
 H304 H 0.56479 -0.01902 -0.05093
 H305 H 0.52820 0.01189 -0.20101
 H306 H 0.48688 0.01234 -0.20402
 C307 C 1.14965 0.50132 0.28536
 C308 C 1.14132 0.48066 0.33484
 C309 C 1.16047 0.48417 0.38461
 C310 C 1.18798 0.50823 0.38605
 C311 C 1.19634 0.52843 0.33467
 C312 C 1.17714 0.52507 0.28425
 C313 C 1.12872 0.49865 0.23559
 C314 C 1.13649 0.51982 0.18741
 C315 C 1.11582 0.51805 0.14292
 C316 C 1.08755 0.49544 0.14729
 C317 C 1.08066 0.47384 0.19429
 C318 C 1.10099 0.47544 0.23872
 C319 C 1.18445 0.54539 0.23400
 C320 C 1.16454 0.54271 0.18622
 C321 C 1.11363 0.45728 0.33504
 C322 C 1.09378 0.45471 0.28772
 H323 H 1.20563 0.56372 0.23209
 H324 H 1.17105 0.55888 0.14856
 H325 H 1.10706 0.44114 0.37291
 H326 H 1.07245 0.43665 0.29037
 H327 H 1.15382 0.46830 0.42324
 H328 H 1.21703 0.54749 0.33607
 H329 H 1.12149 0.53467 0.10669
 H330 H 1.05916 0.45610 0.19793
 C331 C 0.50472 0.65235 0.28129
 C332 C 0.48104 0.65620 0.28240
 C333 C 0.47857 0.67252 0.33300
 C334 C 0.49957 0.68474 0.38244
 C335 C 0.52361 0.68131 0.37854
 C336 C 0.52624 0.66516 0.32858
 C337 C 0.50637 0.63338 0.23178
 C338 C 0.52947 0.62865 0.23300
 C339 C 0.53005 0.60915 0.18923
 C340 C 0.50755 0.59392 0.14479
 C341 C 0.48510 0.59984 0.14205
 C342 C 0.48432 0.61947 0.18599
 C343 C 0.54951 0.66069 0.32665
 C344 C 0.55111 0.64273 0.27961
 C345 C 0.45983 0.64268 0.23436
 C346 C 0.46156 0.62481 0.18675
 H347 H 0.56632 0.67063 0.36278
 H348 H 0.56910 0.63931 0.28073
 H349 H 0.44152 0.64559 0.23416
 H350 H 0.44471 0.61476 0.15089
 H351 H 0.45950 0.67410 0.33632
 H352 H 0.54009 0.69080 0.41566
 H353 H 0.54769 0.60521 0.19140
 H354 H 0.46780 0.58848 0.10776
 C355 C 0.34450 -0.14749 0.27557
 C356 C 0.33257 -0.13836 0.32427
 C357 C 0.31768 -0.15658 0.37635
 C358 C 0.31447 -0.18397 0.38060
 C359 C 0.32598 -0.19309 0.33012
 C360 C 0.34111 -0.17484 0.27757
 C361 C 0.36214 -0.12744 0.22351
 C362 C 0.37547 -0.13586 0.17667
 C363 C 0.39446 -0.11575 0.13121
 C364 C 0.40022 -0.08740 0.13322
 C365 C 0.38513 -0.08002 0.17792
 C366 C 0.36646 -0.09975 0.22366
 C367 C 0.35378 -0.18293 0.22816
 C368 C 0.37050 -0.16384 0.17836
 C369 C 0.33654 -0.11081 0.32126
 C370 C 0.35316 -0.09183 0.27167
 H371 H 0.35117 -0.20404 0.22862
 H372 H 0.38000 -0.17089 0.14154
 H373 H 0.32725 -0.10364 0.35844
 H374 H 0.35626 -0.07053 0.27201
 H375 H 0.30875 -0.14933 0.41432
 H376 H 0.32459 -0.21366 0.33367
 H377 H 0.40577 -0.12179 0.09689
 H378 H 0.38900 -0.05844 0.17967
 C379 C 0.84912 0.49772 0.27499
 C380 C 0.85639 0.52037 0.31858
 C381 C 0.83789 0.51698 0.37017
 C382 C 0.81251 0.49107 0.37898
 C383 C 0.80506 0.46876 0.33401
 C384 C 0.82336 0.47202 0.28163
 C385 C 0.86957 0.50045 0.22372
 C386 C 0.86293 0.47743 0.18180
 C387 C 0.88348 0.47926 0.13695
 C388 C 0.91067 0.50371 0.13509
 C389 C 0.91631 0.52712 0.17515
 C390 C 0.89597 0.52553 0.21985
 C391 C 0.81699 0.44984 0.23712
 C392 C 0.83635 0.45260 0.18778
 C393 C 0.88254 0.54555 0.31136
 C394 C 0.90203 0.54808 0.26286
 H395 H 0.79708 0.43001 0.24117
 H396 H 0.83070 0.43495 0.15486
 H397 H 0.88830 0.56319 0.34457
 H398 H 0.92229 0.56759 0.26008
 H399 H 0.84365 0.53404 0.40520
 H400 H 0.78564 0.44870 0.34134
 H401 H 0.87885 0.46114 0.10635
 H402 H 0.93700 0.54619 0.17375
 C403 C 0.49452 0.34727 0.27348
 C404 C 0.51963 0.34612 0.28034
 C405 C 0.52205 0.33060 0.33277
 C406 C 0.49950 0.31630 0.37763
 C407 C 0.47414 0.31685 0.36859
 C408 C 0.47160 0.33248 0.31689
 C409 C 0.49279 0.36558 0.22224
 C410 C 0.46835 0.36804 0.21819
 C411 C 0.46778 0.38739 0.17362
 C412 C 0.49158 0.40462 0.13389
 C413 C 0.51532 0.40071 0.13588
 C414 C 0.51614 0.38139 0.18061
 C415 C 0.44705 0.33457 0.30942
 C416 C 0.44546 0.35209 0.26092
 C417 C 0.54213 0.36136 0.23608
 C418 C 0.54031 0.37852 0.18677
 H419 H 0.42919 0.32314 0.34245
 H420 H 0.42644 0.35372 0.25796
 H421 H 0.56151 0.36043 0.24032
 H422 H 0.55819 0.39010 0.15407
 H423 H 0.54173 0.33051 0.34034
 H424 H 0.45689 0.30601 0.40350
 H425 H 0.44924 0.38992 0.17207
 H426 H 0.53373 0.41377 0.10551
 C427 C 0.64461 0.14657 0.29018
 C428 C 0.64740 0.17372 0.29013
 C429 C 0.66314 0.19298 0.34034
 C430 C 0.67618 0.18516 0.38942
 C431 C 0.67396 0.15825 0.38726
 C432 C 0.65796 0.13876 0.33825
 C433 C 0.62638 0.12548 0.24071
 C434 C 0.62243 0.09792 0.24319
 C435 C 0.60362 0.07740 0.19900
 C436 C 0.58866 0.08416 0.15259
 C437 C 0.59385 0.11229 0.14888
 C438 C 0.61249 0.13296 0.19339
 C439 C 0.65426 0.11128 0.33775
 C440 C 0.63670 0.09115 0.29112
 C441 C 0.63376 0.18067 0.24089
 C442 C 0.61684 0.16072 0.19298
 H443 H 0.66453 0.10508 0.37459
 H444 H 0.63391 0.06999 0.29331
 H445 H 0.63594 0.20160 0.23975
 H446 H 0.60676 0.16694 0.15588
 H447 H 0.66459 0.21359 0.34252
 H448 H 0.68387 0.15221 0.42542
 H449 H 0.60010 0.05596 0.20201
 H450 H 0.58261 0.11782 0.11323
 C451 C 0.51665 0.15664 -0.28063
 C452 C 0.54186 0.17062 -0.31754
 C453 C 0.54450 0.19003 -0.36633
 C454 C 0.52206 0.19522 -0.37875
 C455 C 0.49722 0.18162 -0.34030
 C456 C 0.49434 0.16218 -0.29120
 C457 C 0.51293 0.13467 -0.23261
 C458 C 0.48710 0.11951 -0.19833
 C459 C 0.48312 0.09749 -0.15551
 C460 C 0.50495 0.09113 -0.14647
 C461 C 0.53072 0.10666 -0.18054
 C462 C 0.53475 0.12827 -0.22432
 C463 C 0.46914 0.14715 -0.25464
 C464 C 0.46557 0.12617 -0.20904
 C465 C 0.56332 0.16384 -0.30722
 C466 C 0.55974 0.14291 -0.26165
 H467 H 0.45179 0.15124 -0.26234
 H468 H 0.44560 0.11473 -0.18276
 H469 H 0.58277 0.17431 -0.33570
 H470 H 0.57637 0.13762 -0.25687
 H471 H 0.56338 0.20010 -0.39690
 H472 H 0.47964 0.18506 -0.35112
 H473 H 0.46311 0.08517 -0.12980
 H474 H 0.54703 0.10094 -0.17520
 C475 C 0.64871 0.49621 -0.27816
 C476 C 0.65086 0.47151 -0.27989
 C477 C 0.66640 0.46806 -0.33103
 C478 C 0.67874 0.48874 -0.38118
 C479 C 0.67648 0.51342 -0.37783
 C480 C 0.66188 0.51744 -0.32625
 C481 C 0.63120 0.49936 -0.22703
 C482 C 0.62869 0.52382 -0.22672
 C483 C 0.61062 0.52599 -0.18121
 C484 C 0.59419 0.50356 -0.13730
 C485 C 0.59775 0.47955 -0.13640
 C486 C 0.61627 0.47735 -0.18145
 C487 C 0.65944 0.54192 -0.32318
 C488 C 0.64325 0.54514 -0.27396
 C489 C 0.63646 0.45037 -0.23194
 C490 C 0.61939 0.45319 -0.18378
 H491 H 0.66973 0.55851 -0.35982
 H492 H 0.64146 0.56411 -0.27403
 H493 H 0.63787 0.43118 -0.23254
 H494 H 0.60822 0.43612 -0.14868
 H495 H 0.66745 0.44869 -0.33405
 H496 H 0.68597 0.52945 -0.41608
 H497 H 0.60837 0.54471 -0.18234
 H498 H 0.58527 0.46214 -0.10293
 C499 C 0.85192 0.34992 -0.28246
 C500 C 0.82485 0.34717 -0.28517
 C501 C 0.80624 0.33120 -0.33630
 C502 C 0.81508 0.31890 -0.38543
 C503 C 0.84236 0.32202 -0.38147
 C504 C 0.86063 0.33707 -0.32981
 C505 C 0.87204 0.36761 -0.23081
 C506 C 0.89921 0.37064 -0.22927
 C507 C 0.91889 0.38879 -0.18304
 C508 C 0.91209 0.40474 -0.13965
 C509 C 0.88436 0.40072 -0.14012
 C510 C 0.86422 0.38213 -0.18587
 C511 C 0.88776 0.34009 -0.32564
 C512 C 0.90668 0.35647 -0.27593
 C513 C 0.81740 0.36126 -0.23801
 C514 C 0.83679 0.37854 -0.18944
 H515 H 0.89457 0.33004 -0.36168
 H516 H 0.92761 0.35867 -0.27507
 H517 H 0.79662 0.35940 -0.23947
 H518 H 0.83038 0.38948 -0.15496
 H519 H 0.78561 0.32962 -0.33991
 H520 H 0.84931 0.31257 -0.41886
 H521 H 0.94002 0.39147 -0.18313
 H522 H 0.87886 0.41291 -0.10719
 C523 C 0.48930 -0.15451 -0.27692
 C524 C 0.46277 -0.17928 -0.28444
 C525 C 0.45890 -0.19810 -0.33610
 C526 C 0.48138 -0.19199 -0.37959
 C527 C 0.50798 -0.16755 -0.37025
 C528 C 0.51205 -0.14863 -0.31919
 C529 C 0.49297 -0.13364 -0.22589
 C530 C 0.51906 -0.10825 -0.22081
 C531 C 0.52179 -0.08751 -0.17587
 C532 C 0.49860 -0.09177 -0.13661
 C533 C 0.47297 -0.11796 -0.14008
 C534 C 0.46997 -0.13887 -0.18521
 C535 C 0.53811 -0.12345 -0.31104
 C536 C 0.54155 -0.10358 -0.26269
 C537 C 0.44051 -0.18420 -0.24143
 C538 C 0.44410 -0.16440 -0.19249
 H539 H 0.55582 -0.11877 -0.34325
 H540 H 0.56181 -0.08412 -0.25902
 H541 H 0.41999 -0.20327 -0.24632
 H542 H 0.42633 -0.16888 -0.16085
 H543 H 0.43837 -0.21687 -0.34388
 H544 H 0.52514 -0.16287 -0.40430
 H545 H 0.54168 -0.06757 -0.17343
 H546 H 0.45494 -0.12150 -0.11033
 C547 C 0.35897 0.51200 -0.28693
 C548 C 0.35532 0.53582 -0.28412
 C549 C 0.33950 0.53976 -0.33377
 C550 C 0.32811 0.52032 -0.38647
 C551 C 0.33174 0.49640 -0.38732
 C552 C 0.34689 0.49204 -0.33780
 C553 C 0.37676 0.50843 -0.23735
 C554 C 0.38080 0.48494 -0.24168
 C555 C 0.39882 0.48230 -0.19699
 C556 C 0.41344 0.50319 -0.14865
 C557 C 0.40849 0.52627 -0.14349
 C558 C 0.39016 0.52901 -0.18809
 C559 C 0.35090 0.46848 -0.33947
 C560 C 0.36750 0.46493 -0.29203
 C561 C 0.36841 0.55559 -0.23297
 C562 C 0.38550 0.55224 -0.18583
 H563 H 0.34150 0.45288 -0.37840
 H564 H 0.37047 0.44669 -0.29565
 H565 H 0.36581 0.57406 -0.22996
 H566 H 0.39541 0.56814 -0.14776
 H567 H 0.33738 0.55856 -0.33341
 H568 H 0.32293 0.48126 -0.42742
 H569 H 0.40210 0.46427 -0.20146
 H570 H 0.41947 0.54242 -0.10639
 C571 C 1.15104 0.64531 -0.28308
 C572 C 1.17872 0.64953 -0.28094
 C573 C 1.19817 0.66566 -0.33092
 C574 C 1.18955 0.67666 -0.38340
 C575 C 1.16184 0.67255 -0.38351
 C576 C 1.14265 0.65716 -0.33354
 C577 C 1.12997 0.62707 -0.23337
 C578 C 1.10222 0.62244 -0.23709
 C579 C 1.08181 0.60388 -0.19253
 C580 C 1.08856 0.58927 -0.14504
 C581 C 1.11680 0.59485 -0.14035
 C582 C 1.13763 0.61376 -0.18477
 C583 C 1.11490 0.65262 -0.33451
 C584 C 1.09502 0.63562 -0.28688
 C585 C 1.18590 0.63659 -0.23027
 C586 C 1.16571 0.61901 -0.18310
 H587 H 1.10833 0.66188 -0.37308
 H588 H 1.07365 0.63220 -0.29000
 H589 H 1.20714 0.63964 -0.22776
 H590 H 1.17205 0.60916 -0.14554
 H591 H 1.21927 0.66822 -0.33114
 H592 H 1.15510 0.68105 -0.42354
 H593 H 1.06033 0.60011 -0.19658
 H594 H 1.12233 0.58389 -0.10388
 C595 C 0.85024 0.49746 -0.28049
 C596 C 0.85855 0.51884 -0.32823
 C597 C 0.83994 0.51530 -0.37941
 C598 C 0.81279 0.49089 -0.38283
 C599 C 0.80428 0.47002 -0.33306
 C600 C 0.82320 0.47303 -0.28226
 C601 C 0.87080 0.50012 -0.22969
 C602 C 0.86337 0.47795 -0.18439
 C603 C 0.88388 0.47972 -0.13943
 C604 C 0.91163 0.50342 -0.14019
 C605 C 0.91811 0.52595 -0.18411
 C606 C 0.89800 0.52425 -0.22943
 C607 C 0.81617 0.45169 -0.23471
 C608 C 0.83593 0.45405 -0.18682
 C609 C 0.88569 0.54300 -0.32522
 C610 C 0.90505 0.54573 -0.27640
 H611 H 0.79544 0.43270 -0.23540
 H612 H 0.82982 0.43683 -0.15206
 H613 H 0.89220 0.55971 -0.36161
 H614 H 0.92598 0.56446 -0.27653
 H615 H 0.84665 0.53150 -0.41729
 H616 H 0.78377 0.45080 -0.33619
 H617 H 0.87861 0.46219 -0.10609
 H618 H 0.93925 0.54438 -0.18519
 C619 C 0.49736 0.35009 -0.28050
 C620 C 0.47498 0.33632 -0.32545
 C621 C 0.47757 0.32076 -0.37698
 C622 C 0.50207 0.31832 -0.38361
 C623 C 0.52406 0.33160 -0.33679
 C624 C 0.52191 0.34782 -0.28550
 C625 C 0.49558 0.36839 -0.22932
 C626 C 0.51863 0.38368 -0.18671
 C627 C 0.51764 0.40279 -0.14154
 C628 C 0.49389 0.40672 -0.13964
 C629 C 0.47050 0.39011 -0.18075
 C630 C 0.47136 0.37125 -0.22609
 C631 C 0.54420 0.36274 -0.24062
 C632 C 0.54260 0.38038 -0.19217
 C633 C 0.45077 0.33909 -0.31938
 C634 C 0.44893 0.35617 -0.27031
 H635 H 0.56329 0.36124 -0.24381
 H636 H 0.56048 0.39189 -0.15945
 H637 H 0.43330 0.32838 -0.35363
 H638 H 0.43011 0.35819 -0.26808
 H639 H 0.46050 0.31061 -0.41254
 H640 H 0.54344 0.33074 -0.34257
 H641 H 0.53581 0.41550 -0.11037
 H642 H 0.45201 0.39274 -0.17957
 C643 C 0.65043 0.14953 -0.26930
 C644 C 0.66370 0.14186 -0.31791
 C645 C 0.67870 0.16107 -0.36834
 C646 C 0.67980 0.18744 -0.37167
 C647 C 0.66708 0.19528 -0.32181
 C648 C 0.65244 0.17634 -0.27000
 C649 C 0.63265 0.12842 -0.21925
 C650 C 0.61850 0.13560 -0.17189
 C651 C 0.59952 0.11457 -0.12830
 C652 C 0.59391 0.08634 -0.13379
 C653 C 0.60954 0.08003 -0.17924
 C654 C 0.62882 0.10091 -0.22218
 C655 C 0.63879 0.18311 -0.22036
 C656 C 0.62235 0.16319 -0.17171
 C657 C 0.66058 0.11462 -0.31706
 C658 C 0.64330 0.09442 -0.27014
 H659 H 0.64028 0.20374 -0.21999
 H660 H 0.61157 0.16902 -0.13541
 H661 H 0.67084 0.10856 -0.35426
 H662 H 0.64067 0.07332 -0.27250
 H663 H 0.68838 0.15504 -0.40711
 H664 H 0.66770 0.21549 -0.32487
 H665 H 0.58780 0.11978 -0.09320
 H666 H 0.60584 0.05856 -0.18328
 C667 C 1.15192 0.50168 -0.27723
 C668 C 1.14438 0.47989 -0.32338
 C669 C 1.16336 0.48349 -0.37372
 C670 C 1.18996 0.50858 -0.37853
 C671 C 1.19780 0.52979 -0.32999
 C672 C 1.17860 0.52656 -0.27960
 C673 C 1.13081 0.49901 -0.22790
 C674 C 1.13753 0.52144 -0.18401
 C675 C 1.11654 0.51959 -0.14046
 C676 C 1.08896 0.49566 -0.14166
 C677 C 1.08313 0.47295 -0.18424
 C678 C 1.10380 0.47460 -0.22774
 C679 C 1.18492 0.54817 -0.23338
 C680 C 1.16475 0.54564 -0.18641
 C681 C 1.11750 0.45538 -0.32016
 C682 C 1.09755 0.45274 -0.27296
 H683 H 1.20540 0.56747 -0.23445
 H684 H 1.17033 0.56299 -0.15250
 H685 H 1.11158 0.43839 -0.35540
 H686 H 1.07680 0.43376 -0.27301
 H687 H 1.15719 0.46700 -0.41059
 H688 H 1.21784 0.54951 -0.33415
 H689 H 1.12130 0.53716 -0.10782
 H690 H 1.06213 0.45429 -0.18531
 C691 C 0.50462 0.65251 -0.28033
 C692 C 0.48026 0.65518 -0.28315
 C693 C 0.47782 0.67156 -0.33364
 C694 C 0.49937 0.68468 -0.38169
 C695 C 0.52391 0.68220 -0.37660
 C696 C 0.52668 0.66628 -0.32622
 C697 C 0.50647 0.63372 -0.23062
 C698 C 0.53037 0.63027 -0.22990
 C699 C 0.53125 0.61098 -0.18586
 C700 C 0.50826 0.59469 -0.14331
 C701 C 0.48487 0.59920 -0.14273
 C702 C 0.48379 0.61860 -0.18681
 C703 C 0.55065 0.66300 -0.32252
 C704 C 0.55250 0.64532 -0.27502
 C705 C 0.45836 0.64041 -0.23715
 C706 C 0.46011 0.62246 -0.18978
 H707 H 0.56785 0.67370 -0.35754
 H708 H 0.57107 0.64285 -0.27471
 H709 H 0.43945 0.64229 -0.23858
 H710 H 0.44257 0.61113 -0.15598
 H711 H 0.45844 0.67250 -0.33812
 H712 H 0.54069 0.69231 -0.41298
 H713 H 0.54951 0.60797 -0.18643
 H714 H 0.46708 0.58685 -0.11015
 C715 C 0.34615 -0.14649 -0.28063
 C716 C 0.33388 -0.13754 -0.32887
 C717 C 0.31832 -0.15610 -0.37969
 C718 C 0.31483 -0.18361 -0.38322
 C719 C 0.32661 -0.19258 -0.33306
 C720 C 0.34241 -0.17399 -0.28177
 C721 C 0.36447 -0.12612 -0.23004
 C722 C 0.37801 -0.13445 -0.18359
 C723 C 0.39727 -0.11424 -0.13900
 C724 C 0.40319 -0.08584 -0.14153
 C725 C 0.38822 -0.07839 -0.18639
 C726 C 0.36913 -0.09830 -0.23108
 C727 C 0.35547 -0.18189 -0.23298
 C728 C 0.37284 -0.16250 -0.18456
 C729 C 0.33824 -0.10983 -0.32684
 C730 C 0.35555 -0.09053 -0.27866
 H731 H 0.35266 -0.20308 -0.23286
 H732 H 0.38268 -0.16940 -0.14827
 H733 H 0.32872 -0.10279 -0.36371
 H734 H 0.35891 -0.06913 -0.27970
 H735 H 0.30917 -0.14898 -0.41744
 H736 H 0.32499 -0.21325 -0.33613
 H737 H 0.40854 -0.12029 -0.10462
 H738 H 0.39229 -0.05674 -0.18855
 C739 C 0.48747 -0.15578 0.27746
 C740 C 0.51083 -0.15030 0.31705
 C741 C 0.50712 -0.16889 0.36865
 C742 C 0.48031 -0.19257 0.38114
 C743 C 0.45719 -0.19837 0.34028
 C744 C 0.46068 -0.17989 0.28811
 C745 C 0.49083 -0.13514 0.22610
 C746 C 0.46727 -0.13989 0.18823
 C747 C 0.47006 -0.11902 0.14312
 C748 C 0.49605 -0.09335 0.13717
 C749 C 0.51976 -0.08965 0.17331
 C750 C 0.51724 -0.11035 0.21811
 C751 C 0.43783 -0.18443 0.24771
 C752 C 0.44112 -0.16482 0.19847
 C753 C 0.53717 -0.12579 0.30582
 C754 C 0.54032 -0.10611 0.25719
 H755 H 0.41711 -0.20302 0.25496
 H756 H 0.42291 -0.16893 0.16907
 H757 H 0.55534 -0.12145 0.33589
 H758 H 0.56082 -0.08710 0.25120
 H759 H 0.52479 -0.16452 0.40068
 H760 H 0.43652 -0.21661 0.35049
 H761 H 0.45169 -0.12204 0.11566
 H762 H 0.53994 -0.07012 0.16862
 C763 C 0.35617 0.51082 0.27691
 C764 C 0.35645 0.53680 0.28028
 C765 C 0.34138 0.54108 0.33101
 C766 C 0.32626 0.51950 0.37752
 C767 C 0.32525 0.49325 0.37175
 C768 C 0.34038 0.48886 0.32194
 C769 C 0.37392 0.50706 0.22760
 C770 C 0.37486 0.48173 0.22703
 C771 C 0.39341 0.47907 0.18373
 C772 C 0.41119 0.50160 0.14142
 C773 C 0.40897 0.52636 0.14031
 C774 C 0.39057 0.52932 0.18397
 C775 C 0.34101 0.46340 0.31811
 C776 C 0.35803 0.45991 0.27149
 C777 C 0.37265 0.55824 0.23435
 C778 C 0.38923 0.55446 0.18670
 H779 H 0.32881 0.44631 0.35252
 H780 H 0.35848 0.44021 0.27121
 H781 H 0.37289 0.57828 0.23590
 H782 H 0.40153 0.57156 0.15253
 H783 H 0.34231 0.56138 0.33606
 H784 H 0.31374 0.47679 0.40812
 H785 H 0.39463 0.45977 0.18457
 H786 H 0.42240 0.54375 0.10774
 C787 C 1.15115 0.64520 0.28076
 C788 C 1.14436 0.66065 0.32532
 C789 C 1.16371 0.67634 0.37481
 C790 C 1.18940 0.67625 0.38069
 C791 C 1.19641 0.66138 0.33478
 C792 C 1.17724 0.64575 0.28438
 C793 C 1.12993 0.62702 0.23153
 C794 C 1.13622 0.61079 0.18825
 C795 C 1.11523 0.59211 0.14439
 C796 C 1.08797 0.58920 0.14492
 C797 C 1.08248 0.60647 0.18709
 C798 C 1.10332 0.62532 0.23056
 C799 C 1.18309 0.62986 0.23895
 C800 C 1.16299 0.61284 0.19143
 C801 C 1.11790 0.65919 0.32125
 C802 C 1.09768 0.64176 0.27469
 H803 H 1.20319 0.63024 0.24075
 H804 H 1.16826 0.60079 0.15765
 H805 H 1.11253 0.67110 0.35534
 H806 H 1.07726 0.64072 0.27413
 H807 H 1.15836 0.68767 0.41073
 H808 H 1.21614 0.66117 0.33995
 H809 H 1.11974 0.57903 0.11202
 H810 H 1.06172 0.60469 0.18750
 C811 C 0.50644 0.15255 0.28142
 C812 C 0.53177 0.17887 0.28331
 C813 C 0.53581 0.19806 0.33417
 C814 C 0.51464 0.19080 0.38225
 C815 C 0.48910 0.16481 0.37836
 C816 C 0.48493 0.14549 0.32832
 C817 C 0.50288 0.13142 0.23131
 C818 C 0.47814 0.10468 0.23175
 C819 C 0.47568 0.08394 0.18742
 C820 C 0.49789 0.08948 0.14327
 C821 C 0.52203 0.11689 0.14123
 C822 C 0.52471 0.13791 0.18569
 C823 C 0.46008 0.11887 0.32571
 C824 C 0.45674 0.09878 0.27820
 C825 C 0.55275 0.18500 0.23543
 C826 C 0.54917 0.16495 0.18717
 H827 H 0.44334 0.11329 0.36157
 H828 H 0.43752 0.07822 0.27874
 H829 H 0.57226 0.20531 0.23580
 H830 H 0.56585 0.17050 0.15131
 H831 H 0.55555 0.21809 0.33772
 H832 H 0.47295 0.15932 0.41582
 H833 H 0.45680 0.06311 0.18907
 H834 H 0.53916 0.12148 0.10724
 C835 C 0.64810 0.49529 0.27756
 C836 C 0.64742 0.46924 0.28483
 C837 C 0.66251 0.46584 0.33685
 C838 C 0.67803 0.48831 0.38095
 C839 C 0.67920 0.51450 0.37165
 C840 C 0.66416 0.51808 0.32028
 C841 C 0.63054 0.49832 0.22643
 C842 C 0.63014 0.52387 0.22172
 C843 C 0.61172 0.52591 0.17692
 C844 C 0.59335 0.50251 0.13755
 C845 C 0.59507 0.47749 0.14042
 C846 C 0.61350 0.47521 0.18536
 C847 C 0.66400 0.54366 0.31236
 C848 C 0.64725 0.54650 0.26390
 C849 C 0.63091 0.44692 0.24126
 C850 C 0.61439 0.44994 0.19216
 H851 H 0.67641 0.56141 0.34487
 H852 H 0.64718 0.56636 0.26045
 H853 H 0.63037 0.42680 0.24583
 H854 H 0.60183 0.43216 0.16001
 H855 H 0.66144 0.44559 0.34456
 H856 H 0.69104 0.53170 0.40602
 H857 H 0.61087 0.54540 0.17477
 H858 H 0.58108 0.45935 0.11044
 C859 C 0.84911 0.34634 0.27218
 C860 C 0.82341 0.34629 0.28010
 C861 C 0.80529 0.33089 0.33247
 C862 C 0.81292 0.31577 0.37629
 C863 C 0.83817 0.31515 0.36604
 C864 C 0.85647 0.33057 0.31438
 C865 C 0.86948 0.36459 0.22132
 C866 C 0.89587 0.36595 0.21640
 C867 C 0.91617 0.38519 0.17234
 C868 C 0.91052 0.40342 0.13396
 C869 C 0.88335 0.40068 0.13678
 C870 C 0.86282 0.38145 0.18104
 C871 C 0.88258 0.33158 0.30601
 C872 C 0.90198 0.34901 0.25786
 C873 C 0.81698 0.36257 0.23713
 C874 C 0.83627 0.37967 0.18815
 H875 H 0.88841 0.31940 0.33814
 H876 H 0.92225 0.34982 0.25425
 H877 H 0.79714 0.36253 0.24221
 H878 H 0.83061 0.39207 0.15652
 H879 H 0.78599 0.33163 0.34103
 H880 H 0.84409 0.30369 0.40028
 H881 H 0.93685 0.38682 0.17012
 H882 H 0.87873 0.41454 0.10748
   
