data_POSCAR
  _audit_creation_date              2014-09-24
  _audit_creation_method            'ToBaCCo'
  _symmetry_space_group_name_H-M    'P1'
  _symmetry_Int_Tables_number       1
  _symmetry_cell_setting            triclinic
  loop_
  _symmetry_equiv_pos_as_xyz
 x,y,z
_cell_length_a 41.1161
_cell_length_b 41.1161
_cell_length_c 41.0487
_cell_angle_alpha 89.986100
_cell_angle_beta 90.014200
_cell_angle_gamma 89.834900
loop_
  _atom_site_label
  _atom_site_type_symbol
  _atom_site_fract_x
  _atom_site_fract_y
  _atom_site_fract_z
C1 C 0.19919 0.15584 0.19984
 C2 C 0.18508 0.14210 0.22774
 C3 C 0.15722 0.15614 0.24162
 C4 C 0.14326 0.18399 0.22766
 C5 C 0.15706 0.19802 0.19976
 C6 C 0.18515 0.18392 0.18575
 C7 C 0.22710 0.14202 0.18579
 C8 C 0.24103 0.15597 0.15794
 C9 C 0.22712 0.18382 0.14393
 C10 C 0.19921 0.19794 0.15767
 C11 C 0.18514 0.22584 0.14386
 C12 C 0.15730 0.23978 0.15780
 C13 C 0.14330 0.22593 0.18563
 H14 H 0.19579 0.12055 0.23867
 H15 H 0.12170 0.19475 0.23851
 H16 H 0.23799 0.12046 0.19654
 H17 H 0.23802 0.19452 0.12237
 H18 H 0.19580 0.23676 0.12232
 H19 H 0.12176 0.23692 0.19624
 C20 C -0.19918 0.84419 0.19962
 C21 C -0.18511 0.85792 0.22754
 C22 C -0.15722 0.84393 0.24141
 C23 C -0.14319 0.81612 0.22744
 C24 C -0.15696 0.80209 0.19952
 C25 C -0.18508 0.81615 0.18551
 C26 C -0.22712 0.85796 0.18557
 C27 C -0.24102 0.84402 0.15770
 C28 C -0.22705 0.81621 0.14367
 C29 C -0.19912 0.80214 0.15741
 C30 C -0.18498 0.77428 0.14360
 C31 C -0.15711 0.76039 0.15754
 C32 C -0.14315 0.77424 0.18539
 H33 H -0.19586 0.87944 0.23848
 H34 H -0.12161 0.80539 0.23830
 H35 H -0.23805 0.87948 0.19633
 H36 H -0.23793 0.80552 0.12211
 H37 H -0.19561 0.76336 0.12205
 H38 H -0.12158 0.76328 0.19601
 C39 C -0.20067 0.15714 -0.19838
 C40 C -0.18658 0.14330 -0.22627
 C41 C -0.15879 0.15720 -0.24020
 C42 C -0.14485 0.18501 -0.22637
 C43 C -0.15861 0.19916 -0.19849
 C44 C -0.18666 0.18521 -0.18439
 C45 C -0.22852 0.14347 -0.18425
 C46 C -0.24243 0.15753 -0.15640
 C47 C -0.22855 0.18537 -0.14249
 C48 C -0.20069 0.19935 -0.15632
 C49 C -0.18663 0.22723 -0.14262
 C50 C -0.15884 0.24101 -0.15666
 C51 C -0.14488 0.22704 -0.18447
 H52 H -0.19719 0.12177 -0.23718
 H53 H -0.12334 0.19558 -0.23735
 H54 H -0.23938 0.12192 -0.19491
 H55 H -0.23942 0.19614 -0.12094
 H56 H -0.19726 0.23824 -0.12109
 H57 H -0.12336 0.23790 -0.19516
 C58 C 0.19960 0.84292 -0.19997
 C59 C 0.18547 0.85675 -0.22785
 C60 C 0.15765 0.84282 -0.24178
 C61 C 0.14378 0.81496 -0.22789
 C62 C 0.15762 0.80083 -0.20001
 C63 C 0.18565 0.81483 -0.18595
 C64 C 0.22746 0.85663 -0.18586
 C65 C 0.24140 0.84260 -0.15805
 C66 C 0.22761 0.81476 -0.14410
 C67 C 0.19976 0.80073 -0.15789
 C68 C 0.18577 0.77283 -0.14415
 C69 C 0.15798 0.75900 -0.15814
 C70 C 0.14395 0.77294 -0.18595
 H71 H 0.19610 0.87831 -0.23872
 H72 H 0.12226 0.80428 -0.23879
 H73 H 0.23833 0.87818 -0.19648
 H74 H 0.23860 0.80408 -0.12257
 H75 H 0.19646 0.76185 -0.12262
 H76 H 0.12244 0.76203 -0.19660
 C77 C 0.15582 1.19919 0.80019
 C78 C 0.14208 1.18508 0.77229
 C79 C 0.15611 1.15721 0.75842
 C80 C 0.18397 1.14325 0.77238
 C81 C 0.19801 1.15706 0.80027
 C82 C 0.18391 1.18516 0.81427
 C83 C 0.14200 1.22711 0.81423
 C84 C 0.15596 1.24105 0.84207
 C85 C 0.18382 1.22714 0.85608
 C86 C 0.19793 1.19923 0.84235
 C87 C 0.22584 1.18516 0.85615
 C88 C 0.23978 1.15732 0.84221
 C89 C 0.22592 1.14331 0.81439
 H90 H 0.12052 1.19578 0.76137
 H91 H 0.19473 1.12169 0.76153
 H92 H 0.12044 1.23799 0.80349
 H93 H 0.19452 1.23805 0.87763
 H94 H 0.23677 1.19583 0.87768
 H95 H 0.23691 1.12177 0.80378
 C96 C 0.84418 0.80083 0.80036
 C97 C 0.85790 0.81490 0.77243
 C98 C 0.84391 0.84278 0.75855
 C99 C 0.81610 0.85681 0.77253
 C100 C 0.80209 0.84306 0.80046
 C101 C 0.81615 0.81494 0.81447
 C102 C 0.85796 0.77290 0.81441
 C103 C 0.84403 0.75901 0.84230
 C104 C 0.81623 0.77299 0.85633
 C105 C 0.80215 0.80092 0.84258
 C106 C 0.77430 0.81506 0.85641
 C107 C 0.76040 0.84292 0.84245
 C108 C 0.77424 0.85688 0.81460
 H109 H 0.87942 0.80414 0.76149
 H110 H 0.80538 0.87839 0.76167
 H111 H 0.87948 0.76196 0.80366
 H112 H 0.80555 0.76212 0.87791
 H113 H 0.76338 0.80443 0.87797
 H114 H 0.76328 0.87844 0.80397
 C115 C 0.15714 0.79933 1.19840
 C116 C 0.14332 0.81343 1.22629
 C117 C 0.15721 0.84123 1.24020
 C118 C 0.18501 0.85516 1.22635
 C119 C 0.19916 0.84139 1.19847
 C120 C 0.18520 0.81334 1.18439
 C121 C 0.14346 0.77147 1.18428
 C122 C 0.15751 0.75756 1.15644
 C123 C 0.18534 0.77143 1.14250
 C124 C 0.19932 0.79930 1.15631
 C125 C 0.22720 0.81336 1.14260
 C126 C 0.24098 0.84115 1.15662
 C127 C 0.22702 0.85512 1.18444
 H128 H 0.12179 0.80282 1.23721
 H129 H 0.19559 0.87668 1.23732
 H130 H 0.12193 0.76061 1.19496
 H131 H 0.19611 0.76055 1.12095
 H132 H 0.23820 0.80272 1.12106
 H133 H 0.23789 0.87664 1.19511
 C134 C 0.84290 1.19962 1.19997
 C135 C 0.85675 1.18549 1.22785
 C136 C 0.84282 1.15768 1.24179
 C137 C 0.81496 1.14380 1.22792
 C138 C 0.80082 1.15763 1.20004
 C139 C 0.81481 1.18566 1.18597
 C140 C 0.85661 1.22747 1.18585
 C141 C 0.84257 1.24140 1.15803
 C142 C 0.81473 1.22760 1.14410
 C143 C 0.80070 1.19976 1.15790
 C144 C 0.77280 1.18576 1.14417
 C145 C 0.75897 1.15798 1.15818
 C146 C 0.77292 1.14395 1.18599
 H147 H 0.87831 1.19613 1.23870
 H148 H 0.80429 1.12228 1.23882
 H149 H 0.87816 1.23834 1.19645
 H150 H 0.80403 1.23858 1.12257
 H151 H 0.76180 1.19644 1.12264
 H152 H 0.76202 1.12245 1.19665
 N153 N 0.53392 1.05811 0.96550
 N154 N 0.55841 1.07842 0.96142
 N155 N 0.46570 1.03524 0.94266
 N156 N 0.44111 1.03937 0.92237
 N157 N 0.46547 1.05777 0.96535
 N158 N 0.44072 1.07787 0.96114
 N159 N 0.53414 1.03558 0.94282
 N160 N 0.55878 1.03991 0.92267
 C161 C 0.57356 1.06669 0.93464
 C162 C 0.42587 1.06601 0.93427
 N163 N 0.46638 0.94252 0.96506
 N164 N 0.44190 0.92225 0.96080
 N165 N 0.53470 0.96551 0.94265
 N166 N 0.55934 0.96144 0.92243
 N167 N 0.53482 0.94286 0.96523
 N168 N 0.55955 0.92275 0.96101
 N169 N 0.46625 0.96518 0.94249
 N170 N 0.44168 0.96096 0.92223
 Mn171 Mn 0.50020 1.00038 0.94227
 C172 C 0.42684 0.93413 0.93402
 C173 C 0.57450 0.93472 0.93426
 N174 N 0.46532 1.05758 1.03554
 N175 N 0.44057 1.07768 1.03977
 N176 N 0.53390 1.03527 1.05826
 N177 N 0.55849 1.03948 1.07851
 N178 N 0.53377 1.05792 1.03569
 N179 N 0.55826 1.07819 1.03993
 N180 N 0.46546 1.03493 1.05811
 N181 N 0.44081 1.03896 1.07834
 Mn182 Mn 0.49962 1.05823 1.00052
 C183 C 0.42563 1.06568 1.06652
 C184 C 0.57332 1.06632 1.06670
 N185 N 0.53469 0.94267 1.03541
 N186 N 0.55944 0.92258 1.03962
 N187 N 0.46601 0.96485 1.05793
 N188 N 0.44136 0.96050 1.07806
 N189 N 0.46624 0.94233 1.03524
 N190 N 0.44177 0.92201 1.03929
 N191 N 0.53446 0.96520 1.05809
 N192 N 0.55905 0.96108 1.07838
 Mn193 Mn 0.50053 0.94221 1.00024
 Mn194 Mn 0.49996 1.00006 1.05849
 Cl195 Cl 0.50008 1.00022 1.00038
 C196 C 0.57429 0.93444 1.06648
 C197 C 0.42659 0.93372 1.06606
 N198 N 0.05758 0.46534 -0.03553
 N199 N 0.07767 0.44059 -0.03976
 N200 N 0.03528 0.53393 -0.05824
 N201 N 0.03950 0.55852 -0.07848
 N202 N 0.05792 0.53379 -0.03565
 N203 N 0.07819 0.55827 -0.03989
 N204 N 0.03493 0.46549 -0.05811
 N205 N 0.03897 0.44085 -0.07834
 C206 C 0.06569 0.42566 -0.06652
 C207 C 0.06633 0.57335 -0.06666
 N208 N -0.05733 0.53471 -0.03542
 N209 N -0.07742 0.55946 -0.03963
 N210 N -0.03514 0.46604 -0.05795
 N211 N -0.03948 0.44139 -0.07809
 N212 N -0.05767 0.46626 -0.03527
 N213 N -0.07799 0.44179 -0.03933
 N214 N -0.03479 0.53449 -0.05809
 N215 N -0.03891 0.55908 -0.07838
 Mn216 Mn 0.00007 0.49998 -0.05848
 C217 C -0.06555 0.57432 -0.06648
 C218 C -0.06627 0.42662 -0.06610
 N219 N 0.05809 0.53392 0.03453
 N220 N 0.07840 0.55840 0.03863
 N221 N 0.03521 0.46569 0.05734
 N222 N 0.03933 0.44109 0.07763
 N223 N 0.05774 0.46547 0.03466
 N224 N 0.07784 0.44071 0.03887
 N225 N 0.03554 0.53413 0.05720
 N226 N 0.03987 0.55876 0.07736
 Mn227 Mn 0.05822 0.49962 -0.00050
 C228 C 0.06666 0.57354 0.06541
 C229 C 0.06598 0.42586 0.06573
 N230 N -0.05750 0.46637 0.03490
 N231 N -0.07778 0.44189 0.03916
 N232 N -0.03453 0.53468 0.05735
 N233 N -0.03860 0.55932 0.07758
 N234 N -0.05717 0.53482 0.03476
 N235 N -0.07728 0.55954 0.03898
 N236 N -0.03486 0.46624 0.05748
 N237 N -0.03908 0.44166 0.07774
 Mn238 Mn -0.05780 0.50054 -0.00026
 Mn239 Mn 0.00034 0.50019 0.05773
 Cl240 Cl 0.00021 0.50008 -0.00038
 C241 C -0.06591 0.42683 0.06594
 C242 C -0.06532 0.57449 0.06574
 N243 N 0.94233 -0.03502 0.46570
 N244 N 0.92214 -0.03915 0.44105
 N245 N 0.96496 -0.05768 0.53426
 N246 N 0.96083 -0.07788 0.55891
 N247 N 0.94233 -0.03506 0.53426
 N248 N 0.92215 -0.03923 0.55892
 N249 N 0.96495 -0.05765 0.46570
 N250 N 0.96078 -0.07783 0.44104
 C251 C 0.93402 -0.06591 0.42601
 C252 C 0.93407 -0.06600 0.57395
 N253 N 1.05759 -0.03521 0.53428
 N254 N 1.07781 -0.03944 0.55892
 N255 N 1.03501 -0.05776 0.46573
 N256 N 1.03922 -0.07798 0.44110
 N257 N 1.05758 -0.03521 0.46572
 N258 N 1.07778 -0.03945 0.44108
 N259 N 1.03503 -0.05778 0.53429
 N260 N 1.03927 -0.07800 0.55892
 Mn261 Mn 0.99999 -0.05810 0.50000
 C262 C 1.06601 -0.06619 0.57394
 C263 C 1.06595 -0.06619 0.42607
 N264 N 0.94223 0.03500 0.53426
 N265 N 0.92200 0.03920 0.55889
 N266 N 0.96480 0.05760 0.46572
 N267 N 0.96057 0.07784 0.44109
 N268 N 0.94224 0.03505 0.46571
 N269 N 0.92202 0.03929 0.44106
 N270 N 0.96478 0.05757 0.53428
 N271 N 0.96053 0.07776 0.55894
 Mn272 Mn 0.94190 -0.00001 0.49998
 C273 C 0.93379 0.06592 0.57393
 C274 C 0.93384 0.06604 0.42606
 N275 N 1.05749 0.03487 0.46574
 N276 N 1.07769 0.03903 0.44110
 N277 N 1.03486 0.05748 0.53429
 N278 N 1.03901 0.07767 0.55894
 N279 N 1.05749 0.03486 0.53430
 N280 N 1.07768 0.03903 0.55896
 N281 N 1.03487 0.05750 0.46573
 N282 N 1.03905 0.07770 0.44108
 Mn283 Mn 1.05792 -0.00017 0.50001
 Mn284 Mn 0.99983 0.05792 0.50001
 Cl285 Cl 0.99991 -0.00009 0.50000
 C286 C 1.06581 0.06580 0.42607
 C287 C 1.06577 0.06579 0.57398
 C288 C 1.14371 0.14272 0.26877
 C289 C 1.13174 0.13091 0.29282
 C290 C 1.11773 0.11712 0.32099
 C291 C 1.10578 0.10538 0.34507
 C292 C 1.09182 0.09162 0.37328
 C293 C 1.07992 0.07986 0.39738
 C294 C 0.85626 -0.14267 0.26859
 C295 C 0.86820 -0.13087 0.29265
 C296 C 0.88218 -0.11711 0.32085
 C297 C 0.89411 -0.10539 0.34494
 C298 C 0.90806 -0.09167 0.37318
 C299 C 0.91993 -0.07993 0.39730
 C300 C 0.85548 0.14292 0.73113
 C301 C 0.86748 0.13106 0.70711
 C302 C 0.88156 0.11726 0.67895
 C303 C 0.89359 0.10551 0.65489
 C304 C 0.90765 0.09176 0.62670
 C305 C 0.91961 0.08000 0.60261
 C306 C 1.14411 -0.14367 0.73110
 C307 C 1.13211 -0.13176 0.70707
 C308 C 1.11807 -0.11786 0.67893
 C309 C 1.10610 -0.10602 0.65488
 C310 C 1.09210 -0.09216 0.62669
 C311 C 1.08018 -0.08032 0.60261
 C312 C 0.26820 1.14248 1.14448
 C313 C 0.29226 1.13062 1.13255
 C314 C 0.32045 1.11681 1.11856
 C315 C 0.34454 1.10507 1.10661
 C316 C 0.37278 1.09135 1.09262
 C317 C 0.39690 1.07964 1.08069
 C318 C 0.27002 0.85679 0.85622
 C319 C 0.29401 0.86864 0.86816
 C320 C 0.32211 0.88251 0.88212
 C321 C 0.34612 0.89434 0.89402
 C322 C 0.37424 0.90818 0.90797
 C323 C 0.39826 0.92001 0.91986
 C324 C 0.73179 0.85748 1.14425
 C325 C 0.70771 0.86934 1.13234
 C326 C 0.67950 0.88317 1.11840
 C327 C 0.65539 0.89495 1.10649
 C328 C 0.62714 0.90870 1.09255
 C329 C 0.60301 0.92044 1.08065
 C330 C 0.73047 1.14414 0.85713
 C331 C 0.70647 1.13231 0.86909
 C332 C 0.67836 1.11848 0.88306
 C333 C 0.65434 1.10665 0.89495
 C334 C 0.62620 1.09278 0.90883
 C335 C 0.60217 1.08090 0.92064
 C336 C 0.14309 0.26848 0.14353
 C337 C 0.13123 0.29253 0.13159
 C338 C 0.11737 0.32071 0.11763
 C339 C 0.10556 0.34480 0.10572
 C340 C 0.09175 0.37303 0.09179
 C341 C 0.07998 0.39714 0.07989
 C342 C -0.14459 0.26966 -0.14251
 C343 C -0.13262 0.29366 -0.13075
 C344 C -0.11856 0.32179 -0.11704
 C345 C -0.10655 0.34582 -0.10538
 C346 C -0.09250 0.37397 -0.09172
 C347 C -0.08051 0.39801 -0.08005
 C348 C 0.14382 0.73033 -0.14393
 C349 C 0.13196 0.70631 -0.13208
 C350 C 0.11806 0.67817 -0.11823
 C351 C 0.10619 0.65414 -0.10643
 C352 C 0.09231 0.62598 -0.09260
 C353 C 0.08045 0.60195 -0.08077
 C354 C -0.14283 0.73174 0.14328
 C355 C -0.13089 0.70772 0.13137
 C356 C -0.11693 0.67957 0.11747
 C357 C -0.10504 0.65550 0.10561
 C358 C -0.09115 0.62730 0.09174
 C359 C -0.07934 0.60319 0.07989
 C360 C 1.14269 0.14369 0.73127
 C361 C 1.13087 0.13172 0.70723
 C362 C 1.11709 0.11771 0.67906
 C363 C 1.10534 0.10575 0.65499
 C364 C 1.09159 0.09179 0.62677
 C365 C 1.07983 0.07990 0.60267
 C366 C 0.85730 -0.14375 0.73137
 C367 C 0.86910 -0.13181 0.70730
 C368 C 0.88285 -0.11784 0.67910
 C369 C 0.89458 -0.10591 0.65501
 C370 C 0.90830 -0.09197 0.62677
 C371 C 0.92004 -0.08009 0.60266
 C372 C 1.14295 -0.14450 0.26887
 C373 C 1.13110 -0.13249 0.29290
 C374 C 1.11730 -0.11840 0.32105
 C375 C 1.10555 -0.10638 0.34511
 C376 C 1.09180 -0.09232 0.37331
 C377 C 1.08003 -0.08036 0.39739
 C378 C 0.85634 0.14414 0.26891
 C379 C 0.86826 0.13215 0.29293
 C380 C 0.88217 0.11812 0.32108
 C381 C 0.89402 0.10615 0.34513
 C382 C 0.90788 0.09215 0.37331
 C383 C 0.91971 0.08022 0.39739
 C384 C 0.14247 0.26822 -0.14447
 C385 C 0.13062 0.29228 -0.13254
 C386 C 0.11681 0.32047 -0.11855
 C387 C 0.10507 0.34456 -0.10660
 C388 C 0.09135 0.37280 -0.09262
 C389 C 0.07964 0.39693 -0.08069
 C390 C -0.14325 0.27002 0.14375
 C391 C -0.13140 0.29400 0.13180
 C392 C -0.11754 0.32210 0.11783
 C393 C -0.10572 0.34610 0.10591
 C394 C -0.09187 0.37423 0.09197
 C395 C -0.08004 0.39824 0.08008
 C396 C -0.14251 0.73182 -0.14425
 C397 C -0.13064 0.70774 -0.13234
 C398 C -0.11681 0.67953 -0.11839
 C399 C -0.10504 0.65543 -0.10648
 C400 C -0.09128 0.62718 -0.09254
 C401 C -0.07955 0.60305 -0.08064
 C402 C 0.14412 0.73045 0.14291
 C403 C 0.13229 0.70645 0.13097
 C404 C 0.11844 0.67833 0.11701
 C405 C 0.10662 0.65432 0.10512
 C406 C 0.09274 0.62618 0.09124
 C407 C 0.08086 0.60215 0.07943
 C408 C 0.26848 1.14312 0.85648
 C409 C 0.29253 1.13125 0.86842
 C410 C 0.32072 1.11740 0.88238
 C411 C 0.34481 1.10559 0.89428
 C412 C 0.37304 1.09179 0.90822
 C413 C 0.39715 1.08001 0.92011
 C414 C 0.26963 0.85539 1.14246
 C415 C 0.29363 0.86736 1.13069
 C416 C 0.32176 0.88141 1.11698
 C417 C 0.34578 0.89342 1.10531
 C418 C 0.37394 0.90748 1.09166
 C419 C 0.39798 0.91947 1.07999
 C420 C 0.73030 1.14381 1.14398
 C421 C 0.70629 1.13194 1.13212
 C422 C 0.67816 1.11804 1.11827
 C423 C 0.65413 1.10617 1.10645
 C424 C 0.62597 1.09228 1.09262
 C425 C 0.60193 1.08043 1.08081
 C426 C 0.73175 0.85721 0.85672
 C427 C 0.70774 0.86915 0.86863
 C428 C 0.67959 0.88312 0.88254
 C429 C 0.65552 0.89501 0.89439
 C430 C 0.62732 0.90889 0.90827
 C431 C 0.60321 0.92070 0.92012
   
