data_POSCAR
  _audit_creation_date              2014-09-24
  _audit_creation_method            'ToBaCCo'
  _symmetry_space_group_name_H-M    'P1'
  _symmetry_Int_Tables_number       1
  _symmetry_cell_setting            triclinic
  loop_
  _symmetry_equiv_pos_as_xyz
 x,y,z
_cell_length_a 51.3209
_cell_length_b 51.2409
_cell_length_c 52.0930
_cell_angle_alpha 89.969300
_cell_angle_beta 89.962800
_cell_angle_gamma 90.803600
loop_
  _atom_site_label
  _atom_site_type_symbol
  _atom_site_fract_x
  _atom_site_fract_y
  _atom_site_fract_z
O1 O -0.02444 0.27075 0.02488
 O2 O 0.02637 0.27104 -0.02504
 O3 O -0.02441 0.27106 -0.02506
 O4 O 0.02633 0.27078 0.02483
 O5 O 0.02574 0.22773 0.02462
 O6 O -0.02501 0.22801 -0.02529
 O7 O 0.02556 0.22804 -0.02548
 O8 O -0.02490 0.22770 0.02480
 Cu9 Cu 0.00101 0.27522 -0.00007
 Cu10 Cu 0.00029 0.22356 -0.00035
 C11 C -0.03331 0.24917 0.03346
 C12 C 0.03466 0.24960 -0.03393
 C13 C -0.03336 0.24958 -0.03377
 C14 C 0.03471 0.24921 0.03329
 O15 O 0.52629 0.77245 0.47511
 O16 O 0.47542 0.77195 0.52497
 O17 O 0.52623 0.77212 0.52505
 O18 O 0.47553 0.77212 0.47502
 O19 O 0.47532 0.72908 0.47468
 O20 O 0.52564 0.72907 0.52505
 O21 O 0.47501 0.72890 0.52481
 O22 O 0.52602 0.72941 0.47503
 Cu23 Cu 0.50090 0.77647 0.50006
 Cu24 Cu 0.50044 0.72480 0.49986
 C25 C 0.53489 0.75102 0.46653
 C26 C 0.46653 0.75035 0.53347
 C27 C 0.53459 0.75059 0.53365
 C28 C 0.46681 0.75059 0.46621
 O29 O 1.02649 0.72856 0.02501
 O30 O 0.97566 0.72874 -0.02488
 O31 O 1.02635 0.72813 -0.02495
 O32 O 0.97567 0.72907 0.02506
 O33 O 0.97651 0.77211 0.02455
 O34 O 1.02792 0.77112 -0.02482
 O35 O 0.97716 0.77177 -0.02558
 O36 O 1.02707 0.77156 0.02518
 Cu37 Cu 1.00093 0.72433 0.00010
 Cu38 Cu 1.00226 0.77594 -0.00023
 C39 C 1.03545 0.75003 0.03379
 C40 C 0.96779 0.75029 -0.03388
 C41 C 1.03594 0.74945 -0.03345
 C42 C 0.96739 0.75074 0.03336
 O43 O 0.47444 0.22786 0.47532
 O44 O 0.52508 0.22762 0.52534
 O45 O 0.47431 0.22815 0.52522
 O46 O 0.52513 0.22713 0.47538
 O47 O 0.52660 0.27017 0.47534
 O48 O 0.47530 0.27120 0.52480
 O49 O 0.52588 0.27068 0.52530
 O50 O 0.47589 0.27090 0.47470
 Cu51 Cu 0.49963 0.22338 0.50035
 Cu52 Cu 0.50101 0.27506 0.49998
 C53 C 0.46656 0.24942 0.46638
 C54 C 0.53409 0.24912 0.53395
 C55 C 0.46609 0.24983 0.53355
 C56 C 0.53463 0.24846 0.46686
 O57 O 0.72148 0.02480 -0.02606
 O58 O 0.72135 -0.02608 0.02389
 O59 O 0.72127 0.02470 0.02394
 O60 O 0.72155 -0.02599 -0.02611
 O61 O 0.76453 -0.02533 -0.02593
 O62 O 0.76425 0.02533 0.02407
 O63 O 0.76429 -0.02551 0.02394
 O64 O 0.76446 0.02550 -0.02583
 Cu65 Cu 0.71710 -0.00071 -0.00110
 Cu66 Cu 0.76869 0.00007 -0.00092
 C67 C 0.74301 0.03389 -0.03448
 C68 C 0.74280 -0.03460 0.03249
 C69 C 0.74272 0.03371 0.03257
 C70 C 0.74310 -0.03437 -0.03457
 O71 O 0.22079 0.47459 0.52406
 O72 O 0.22099 0.52544 0.47405
 O73 O 0.22099 0.47462 0.47403
 O74 O 0.22082 0.52540 0.52408
 O75 O 0.26380 0.52602 0.52414
 O76 O 0.26397 0.47518 0.47422
 O77 O 0.26397 0.52604 0.47422
 O78 O 0.26377 0.47516 0.52414
 Cu79 Cu 0.21659 0.49995 0.49904
 Cu80 Cu 0.26818 0.50066 0.49919
 C81 C 0.24225 0.46615 0.53265
 C82 C 0.24252 0.53447 0.46559
 C83 C 0.24252 0.46617 0.46558
 C84 C 0.24229 0.53443 0.53267
 O85 O 0.27798 1.02697 0.02428
 O86 O 0.27768 0.97660 -0.02621
 O87 O 0.27781 1.02749 -0.02569
 O88 O 0.27803 0.97610 0.02377
 O89 O 0.23505 0.97548 0.02391
 O90 O 0.23487 1.02697 -0.02540
 O91 O 0.23470 0.97628 -0.02614
 O92 O 0.23504 1.02626 0.02459
 Cu93 Cu 0.28217 1.00184 -0.00099
 Cu94 Cu 0.23063 1.00118 -0.00072
 C95 C 0.25655 1.03528 0.03315
 C96 C 0.25612 0.96788 -0.03488
 C97 C 0.25630 1.03608 -0.03408
 C98 C 0.25657 0.96699 0.03233
 O99 O 0.77748 0.47522 0.47350
 O100 O 0.77783 0.52601 0.52347
 O101 O 0.77782 0.47517 0.52345
 O102 O 0.77747 0.52609 0.47352
 O103 O 0.73448 0.52534 0.47372
 O104 O 0.73484 0.47460 0.52374
 O105 O 0.73485 0.52540 0.52374
 O106 O 0.73449 0.47474 0.47371
 Cu107 Cu 0.78196 0.50068 0.49846
 Cu108 Cu 0.73036 0.49996 0.49879
 C109 C 0.75592 0.46634 0.46499
 C110 C 0.75639 0.53440 0.53217
 C111 C 0.75638 0.46618 0.53217
 C112 C 0.75591 0.53437 0.46502
 C113 C 0.25141 0.23000 0.23048
 C114 C 0.23177 0.24912 0.23008
 C115 C 0.23137 0.26823 0.24936
 C116 C 0.24982 0.26854 0.26922
 C117 C 0.26952 0.24944 0.26956
 C118 C 0.26988 0.23030 0.25031
 H119 H 0.28517 0.21591 0.25033
 H120 H 0.21604 0.28258 0.24933
 C121 C 0.74908 0.77010 0.22915
 C122 C 0.76937 0.75164 0.22962
 C123 C 0.76977 0.73282 0.24920
 C124 C 0.75071 0.73217 0.26852
 C125 C 0.73089 0.75112 0.26846
 C126 C 0.73024 0.76968 0.24869
 H127 H 0.71486 0.78398 0.24850
 H128 H 0.78510 0.71848 0.24938
 C129 C 0.76938 0.24880 0.23036
 C130 C 0.74904 0.22983 0.23017
 C131 C 0.73031 0.22991 0.24978
 C132 C 0.73104 0.24870 0.26934
 C133 C 0.75084 0.26825 0.26903
 C134 C 0.76986 0.26787 0.24967
 H135 H 0.78521 0.28263 0.24963
 H136 H 0.71494 0.21516 0.24981
 C137 C 0.23198 0.75090 0.22958
 C138 C 0.25213 0.77008 0.22967
 C139 C 0.27084 0.76990 0.24929
 C140 C 0.27026 0.75083 0.26863
 C141 C 0.25006 0.73170 0.26860
 C142 C 0.23136 0.73187 0.24897
 H143 H 0.21568 0.71747 0.24922
 H144 H 0.28648 0.78436 0.24907
 C145 C 0.73212 0.25038 0.72973
 C146 C 0.75212 0.26971 0.72989
 C147 C 0.77082 0.26960 0.74950
 C148 C 0.77034 0.25046 0.76877
 C149 C 0.75026 0.23120 0.76869
 C150 C 0.73160 0.23129 0.74904
 H151 H 0.71601 0.21679 0.74922
 H152 H 0.78637 0.28415 0.74934
 C153 C 0.26908 0.75003 0.73031
 C154 C 0.24879 0.73100 0.73022
 C155 C 0.23013 0.73109 0.74990
 C156 C 0.23086 0.74996 0.76941
 C157 C 0.25060 0.76958 0.76899
 C158 C 0.26955 0.76918 0.74957
 H159 H 0.28487 0.78397 0.74943
 H160 H 0.21481 0.71630 0.75003
 C161 C 0.24852 0.26971 0.73022
 C162 C 0.26841 0.25083 0.73008
 C163 C 0.26887 0.23184 0.74949
 C164 C 0.25033 0.23151 0.76928
 C165 C 0.23048 0.25043 0.76949
 C166 C 0.22998 0.26938 0.75004
 H167 H 0.21451 0.28358 0.74989
 H168 H 0.28429 0.21759 0.74962
 C169 C 0.75266 0.73062 0.72971
 C170 C 0.73299 0.74972 0.72942
 C171 C 0.73267 0.76876 0.74876
 C172 C 0.75119 0.76900 0.76855
 C173 C 0.77094 0.74996 0.76878
 C174 C 0.77123 0.73088 0.74947
 H175 H 0.78653 0.71650 0.74939
 H176 H 0.71731 0.78309 0.74885
 C177 C 0.25661 0.09292 0.09151
 C178 C 0.23305 0.08244 0.08212
 C179 C 0.23301 0.06351 0.06283
 C180 C 0.25659 0.05444 0.05248
 C181 C 0.28019 0.06501 0.06196
 C182 C 0.28017 0.08405 0.08118
 C183 C 0.25657 0.11300 0.11205
 C184 C 0.27350 0.13477 0.11078
 C185 C 0.27327 0.15377 0.13002
 C186 C 0.25621 0.15133 0.15103
 C187 C 0.23938 0.12951 0.15236
 C188 C 0.23951 0.11059 0.13305
 C189 C 0.25581 0.17155 0.17143
 C190 C 0.25399 0.16433 0.19742
 C191 C 0.25300 0.18335 0.21659
 C192 C 0.25356 0.20993 0.21013
 C193 C 0.25584 0.21722 0.18424
 C194 C 0.25692 0.19821 0.16505
 H195 H 0.21458 0.08914 0.08949
 H196 H 0.21441 0.05599 0.05608
 H197 H 0.29878 0.05860 0.05460
 H198 H 0.29864 0.09158 0.08824
 H199 H 0.28670 0.13727 0.09471
 H200 H 0.28661 0.17027 0.12860
 H201 H 0.22583 0.12724 0.16818
 H202 H 0.22642 0.09391 0.13468
 H203 H 0.25345 0.14395 0.20292
 H204 H 0.25133 0.17735 0.23647
 H205 H 0.25654 0.23765 0.17889
 H206 H 0.25812 0.20436 0.14519
 C207 C 0.75667 0.59345 0.59095
 C208 C 0.73307 0.58252 0.58211
 C209 C 0.73298 0.56342 0.56297
 C210 C 0.75649 0.55478 0.55230
 C211 C 0.78010 0.56574 0.56113
 C212 C 0.78017 0.58490 0.58022
 C213 C 0.75674 0.61361 0.61139
 C214 C 0.77346 0.63551 0.60978
 C215 C 0.77342 0.65453 0.62899
 C216 C 0.75675 0.65199 0.65029
 C217 C 0.74009 0.63006 0.65193
 C218 C 0.74006 0.61110 0.63267
 C219 C 0.75658 0.67221 0.67067
 C220 C 0.75511 0.66498 0.69668
 C221 C 0.75428 0.68400 0.71584
 C222 C 0.75470 0.71057 0.70936
 C223 C 0.75668 0.71787 0.68345
 C224 C 0.75756 0.69886 0.66426
 H225 H 0.71463 0.58895 0.58979
 H226 H 0.71446 0.55542 0.55656
 H227 H 0.79855 0.55948 0.55334
 H228 H 0.79867 0.59275 0.58686
 H229 H 0.78636 0.63809 0.59348
 H230 H 0.78663 0.67112 0.62732
 H231 H 0.72683 0.62772 0.66797
 H232 H 0.72714 0.59431 0.63457
 H233 H 0.75470 0.64461 0.70220
 H234 H 0.75284 0.67801 0.73574
 H235 H 0.75728 0.73830 0.67809
 H236 H 0.75849 0.70501 0.64439
 C237 C 0.74275 0.90656 0.08967
 C238 C 0.71919 0.91661 0.08053
 C239 C 0.71917 0.93595 0.06161
 C240 C 0.74277 0.94587 0.05146
 C241 C 0.76635 0.93575 0.06075
 C242 C 0.76631 0.91629 0.07955
 C243 C 0.74278 0.88610 0.10983
 C244 C 0.75962 0.86479 0.10800
 C245 C 0.75985 0.84567 0.12713
 C246 C 0.74336 0.84755 0.14858
 C247 C 0.72647 0.86882 0.15037
 C248 C 0.72612 0.88785 0.13115
 C249 C 0.74407 0.82760 0.16918
 C250 C 0.74383 0.83512 0.19512
 C251 C 0.74520 0.81640 0.21455
 C252 C 0.74682 0.78980 0.20842
 C253 C 0.74644 0.78219 0.18253
 C254 C 0.74528 0.80092 0.16308
 H255 H 0.70073 0.90926 0.08781
 H256 H 0.70058 0.94312 0.05500
 H257 H 0.78495 0.94282 0.05353
 H258 H 0.78477 0.90912 0.08646
 H259 H 0.77250 0.86282 0.09166
 H260 H 0.77323 0.82961 0.12537
 H261 H 0.71341 0.87065 0.16659
 H262 H 0.71309 0.90417 0.13317
 H263 H 0.74316 0.85555 0.20037
 H264 H 0.74551 0.82269 0.23439
 H265 H 0.74719 0.76174 0.17739
 H266 H 0.74510 0.79455 0.14326
 C267 C 0.24218 0.40659 0.59104
 C268 C 0.21869 0.41753 0.58274
 C269 C 0.21869 0.43681 0.56374
 C270 C 0.24221 0.44567 0.55272
 C271 C 0.26571 0.43474 0.56106
 C272 C 0.26569 0.41538 0.57996
 C273 C 0.24222 0.38617 0.61125
 C274 C 0.25835 0.36435 0.60898
 C275 C 0.25857 0.34524 0.62813
 C276 C 0.24275 0.34760 0.65001
 C277 C 0.22657 0.36938 0.65225
 C278 C 0.22625 0.38842 0.63304
 C279 C 0.24340 0.32756 0.67056
 C280 C 0.24378 0.33499 0.69654
 C281 C 0.24514 0.31615 0.71588
 C282 C 0.24615 0.28955 0.70963
 C283 C 0.24513 0.28205 0.68373
 C284 C 0.24395 0.30087 0.66437
 H285 H 0.20025 0.41094 0.59073
 H286 H 0.20025 0.44480 0.55772
 H287 H 0.28417 0.44115 0.55298
 H288 H 0.28412 0.40754 0.58619
 H289 H 0.27068 0.36197 0.59229
 H290 H 0.27143 0.32880 0.62600
 H291 H 0.21402 0.37159 0.66880
 H292 H 0.21379 0.40513 0.63542
 H293 H 0.24363 0.35541 0.70187
 H294 H 0.24592 0.32236 0.73574
 H295 H 0.24540 0.26160 0.67850
 H296 H 0.24325 0.29456 0.64454
 C297 C 0.90818 0.24894 0.09282
 C298 C 0.92037 0.22567 0.08554
 C299 C 0.93924 0.22572 0.06617
 C300 C 0.94648 0.24906 0.05374
 C301 C 0.93432 0.27233 0.06100
 C302 C 0.91533 0.27225 0.08024
 C303 C 0.88812 0.24890 0.11345
 C304 C 0.88677 0.26972 0.13096
 C305 C 0.86782 0.26978 0.15024
 C306 C 0.84992 0.24894 0.15257
 C307 C 0.85131 0.22805 0.13520
 C308 C 0.87013 0.22807 0.11580
 C309 C 0.82974 0.24905 0.17294
 C310 C 0.82431 0.22639 0.18729
 C311 C 0.80506 0.22642 0.20626
 C312 C 0.79056 0.24897 0.21093
 C313 C 0.79622 0.27173 0.19687
 C314 C 0.81565 0.27178 0.17807
 H315 H 0.91564 0.20744 0.09509
 H316 H 0.94835 0.20749 0.06113
 H317 H 0.93936 0.29062 0.05169
 H318 H 0.90603 0.29044 0.08504
 H319 H 0.90060 0.28584 0.13002
 H320 H 0.86740 0.28597 0.16359
 H321 H 0.83750 0.21190 0.13634
 H322 H 0.87031 0.21195 0.10238
 H323 H 0.83515 0.20872 0.18399
 H324 H 0.80138 0.20879 0.21723
 H325 H 0.78525 0.28933 0.20013
 H326 H 0.81930 0.28945 0.16716
 C327 C 0.40786 0.75004 0.59270
 C328 C 0.42011 0.72678 0.58545
 C329 C 0.43900 0.72684 0.56611
 C330 C 0.44624 0.75019 0.55368
 C331 C 0.43403 0.77344 0.56090
 C332 C 0.41500 0.77335 0.58010
 C333 C 0.38780 0.75000 0.61333
 C334 C 0.38640 0.77087 0.63080
 C335 C 0.36745 0.77094 0.65007
 C336 C 0.34959 0.75007 0.65245
 C337 C 0.35103 0.72913 0.63514
 C338 C 0.36985 0.72914 0.61574
 C339 C 0.32940 0.75020 0.67283
 C340 C 0.32401 0.72757 0.68724
 C341 C 0.30478 0.72763 0.70623
 C342 C 0.29024 0.75017 0.71085
 C343 C 0.29585 0.77289 0.69671
 C344 C 0.31528 0.77293 0.67790
 H345 H 0.41539 0.70855 0.59501
 H346 H 0.44816 0.70863 0.56110
 H347 H 0.43905 0.79173 0.55158
 H348 H 0.40566 0.79153 0.58488
 H349 H 0.40020 0.78701 0.62982
 H350 H 0.36699 0.78716 0.66337
 H351 H 0.33726 0.71296 0.63633
 H352 H 0.37007 0.71298 0.60236
 H353 H 0.33488 0.70991 0.68399
 H354 H 0.30114 0.71003 0.71726
 H355 H 0.28486 0.79049 0.69994
 H356 H 0.31889 0.79057 0.66694
 C357 C 0.09315 0.74996 0.09210
 C358 C 0.08251 0.77350 0.08339
 C359 C 0.06364 0.77354 0.06407
 C360 C 0.05461 0.74998 0.05309
 C361 C 0.06519 0.72641 0.06193
 C362 C 0.08429 0.72643 0.08105
 C363 C 0.11338 0.74997 0.11260
 C364 C 0.11396 0.72990 0.13104
 C365 C 0.13301 0.72989 0.15021
 C366 C 0.15170 0.75010 0.15158
 C367 C 0.15112 0.77023 0.13331
 C368 C 0.13229 0.77009 0.11395
 C369 C 0.17184 0.75018 0.17195
 C370 C 0.17742 0.77305 0.18586
 C371 C 0.19658 0.77319 0.20490
 C372 C 0.21095 0.75063 0.20998
 C373 C 0.20513 0.72767 0.19631
 C374 C 0.18570 0.72742 0.17752
 H375 H 0.08848 0.79196 0.09176
 H376 H 0.05595 0.79213 0.05797
 H377 H 0.05893 0.70784 0.05393
 H378 H 0.09236 0.70796 0.08692
 H379 H 0.09945 0.71437 0.13093
 H380 H 0.13287 0.71430 0.16426
 H381 H 0.16555 0.78586 0.13375
 H382 H 0.13280 0.78558 0.09981
 H383 H 0.16673 0.79074 0.18219
 H384 H 0.20025 0.79096 0.21563
 H385 H 0.21593 0.71003 0.19992
 H386 H 0.18185 0.70957 0.16696
 C387 C 0.59284 0.24913 0.59295
 C388 C 0.58045 0.27238 0.58594
 C389 C 0.56146 0.27237 0.56674
 C390 C 0.55426 0.24909 0.55422
 C391 C 0.56652 0.22581 0.56127
 C392 C 0.58566 0.22585 0.58035
 C393 C 0.61315 0.24919 0.61329
 C394 C 0.61486 0.22831 0.63073
 C395 C 0.63398 0.22838 0.64981
 C396 C 0.65168 0.24940 0.65201
 C397 C 0.64998 0.27030 0.63468
 C398 C 0.63100 0.27016 0.61547
 C399 C 0.67193 0.24952 0.67227
 C400 C 0.67703 0.27221 0.68665
 C401 C 0.69629 0.27241 0.70558
 C402 C 0.71113 0.25006 0.71017
 C403 C 0.70583 0.22728 0.69605
 C404 C 0.68638 0.22700 0.67728
 H405 H 0.58517 0.29057 0.59555
 H406 H 0.55225 0.29060 0.56187
 H407 H 0.56151 0.20758 0.55187
 H408 H 0.59509 0.20768 0.58497
 H409 H 0.60116 0.21208 0.62989
 H410 H 0.63468 0.21217 0.66313
 H411 H 0.66363 0.28658 0.63573
 H412 H 0.63056 0.28631 0.60208
 H413 H 0.66590 0.28971 0.68344
 H414 H 0.69965 0.29002 0.71665
 H415 H 0.71704 0.20983 0.69929
 H416 H 0.68297 0.20931 0.66634
 C417 C 0.74333 0.09360 0.90731
 C418 C 0.71976 0.08212 0.91558
 C419 C 0.71964 0.06278 0.93451
 C420 C 0.74310 0.05442 0.94550
 C421 C 0.76668 0.06589 0.93719
 C422 C 0.76678 0.08530 0.91834
 C423 C 0.74349 0.11410 0.88717
 C424 C 0.75979 0.13625 0.88947
 C425 C 0.76011 0.15544 0.87040
 C426 C 0.74424 0.15283 0.84856
 C427 C 0.72790 0.13072 0.84628
 C428 C 0.72748 0.11159 0.86541
 C429 C 0.74497 0.17298 0.82810
 C430 C 0.74520 0.16567 0.80209
 C431 C 0.74661 0.18462 0.78283
 C432 C 0.74784 0.21121 0.78920
 C433 C 0.74699 0.21858 0.81514
 C434 C 0.74574 0.19965 0.83442
 H435 H 0.70137 0.08833 0.90763
 H436 H 0.70114 0.05436 0.94052
 H437 H 0.78509 0.05988 0.94524
 H438 H 0.78527 0.09358 0.91212
 H439 H 0.77215 0.13883 0.90614
 H440 H 0.77309 0.17214 0.87256
 H441 H 0.71530 0.12831 0.82976
 H442 H 0.71490 0.09463 0.86300
 H443 H 0.74488 0.14528 0.79666
 H444 H 0.74727 0.17853 0.76293
 H445 H 0.74744 0.23902 0.82045
 H446 H 0.74516 0.20585 0.85427
 C447 C 0.24289 0.59416 0.40732
 C448 C 0.21931 0.58272 0.41563
 C449 C 0.21917 0.56339 0.43458
 C450 C 0.24263 0.55499 0.44555
 C451 C 0.26621 0.56641 0.43719
 C452 C 0.26633 0.58581 0.41833
 C453 C 0.24306 0.61466 0.38718
 C454 C 0.25942 0.63676 0.38944
 C455 C 0.25976 0.65595 0.37036
 C456 C 0.24384 0.65339 0.34855
 C457 C 0.22743 0.63132 0.34631
 C458 C 0.22700 0.61220 0.36545
 C459 C 0.24459 0.67353 0.32807
 C460 C 0.24473 0.66621 0.30207
 C461 C 0.24619 0.68515 0.28279
 C462 C 0.24756 0.71174 0.28913
 C463 C 0.24679 0.71913 0.31507
 C464 C 0.24550 0.70020 0.33437
 H465 H 0.20092 0.58896 0.40770
 H466 H 0.20067 0.55502 0.44061
 H467 H 0.28463 0.56036 0.44522
 H468 H 0.28482 0.59405 0.41209
 H469 H 0.27183 0.63931 0.40608
 H470 H 0.27279 0.67262 0.37249
 H471 H 0.21478 0.62895 0.32982
 H472 H 0.21436 0.59527 0.36307
 H473 H 0.24431 0.64581 0.29665
 H474 H 0.24678 0.67904 0.26289
 H475 H 0.24736 0.73956 0.32037
 H476 H 0.24500 0.70643 0.35422
 C477 C 0.25546 0.90963 0.90555
 C478 C 0.23240 0.92223 0.91260
 C479 C 0.23260 0.94104 0.93202
 C480 C 0.25592 0.94783 0.94466
 C481 C 0.27901 0.93530 0.93751
 C482 C 0.27875 0.91631 0.91825
 C483 C 0.25517 0.88953 0.88507
 C484 C 0.26854 0.86604 0.88835
 C485 C 0.26797 0.84694 0.86920
 C486 C 0.25420 0.85099 0.84623
 C487 C 0.24099 0.87462 0.84292
 C488 C 0.24138 0.89362 0.86217
 C489 C 0.25346 0.83056 0.82593
 C490 C 0.23060 0.82586 0.81166
 C491 C 0.22980 0.80640 0.79288
 C492 C 0.25167 0.79094 0.78824
 C493 C 0.27463 0.79584 0.80214
 C494 C 0.27554 0.81545 0.82077
 H495 H 0.21412 0.91727 0.90330
 H496 H 0.21448 0.95034 0.93706
 H497 H 0.29729 0.94009 0.94689
 H498 H 0.29685 0.90707 0.91304
 H499 H 0.27903 0.86223 0.90596
 H500 H 0.27796 0.82879 0.87260
 H501 H 0.23059 0.87860 0.82531
 H502 H 0.23119 0.91171 0.85900
 H503 H 0.21316 0.83690 0.81528
 H504 H 0.21199 0.80323 0.78211
 H505 H 0.29178 0.78424 0.79879
 H506 H 0.29360 0.81886 0.83103
 C507 C 0.75535 0.40789 0.40573
 C508 C 0.77861 0.41454 0.41848
 C509 C 0.77883 0.43358 0.43769
 C510 C 0.75573 0.44615 0.44471
 C511 C 0.73243 0.43935 0.43204
 C512 C 0.73227 0.42051 0.41267
 C513 C 0.75512 0.38783 0.38525
 C514 C 0.74159 0.39207 0.36224
 C515 C 0.74126 0.37312 0.34297
 C516 C 0.75429 0.34940 0.34638
 C517 C 0.76781 0.34520 0.36946
 C518 C 0.76831 0.36426 0.38864
 C519 C 0.75360 0.32903 0.32606
 C520 C 0.77565 0.31385 0.32102
 C521 C 0.77478 0.29429 0.30236
 C522 C 0.75189 0.28953 0.28832
 C523 C 0.73005 0.30506 0.29284
 C524 C 0.73081 0.32446 0.31166
 H525 H 0.79671 0.40526 0.41334
 H526 H 0.79709 0.43838 0.44710
 H527 H 0.71432 0.44870 0.43699
 H528 H 0.71403 0.41555 0.40331
 H529 H 0.73155 0.41023 0.35901
 H530 H 0.73106 0.37719 0.32526
 H531 H 0.77765 0.32698 0.37292
 H532 H 0.77861 0.36036 0.40634
 H533 H 0.79365 0.31717 0.33141
 H534 H 0.79190 0.28262 0.29908
 H535 H 0.71230 0.30199 0.28196
 H536 H 0.71339 0.33557 0.31520
 C537 C 0.09226 0.25001 0.90779
 C538 C 0.08107 0.22640 0.91629
 C539 C 0.06223 0.22621 0.93568
 C540 C 0.05387 0.24972 0.94681
 C541 C 0.06512 0.27338 0.93811
 C542 C 0.08420 0.27347 0.91895
 C543 C 0.11229 0.25017 0.88729
 C544 C 0.13520 0.26520 0.88995
 C545 C 0.15416 0.26524 0.87069
 C546 C 0.15048 0.25048 0.84817
 C547 C 0.12741 0.23557 0.84551
 C548 C 0.10860 0.23531 0.86493
 C549 C 0.17067 0.25056 0.82763
 C550 C 0.17582 0.22775 0.81360
 C551 C 0.19489 0.22779 0.79446
 C552 C 0.20963 0.25048 0.78928
 C553 C 0.20435 0.27336 0.80300
 C554 C 0.18505 0.27343 0.82193
 H555 H 0.08715 0.20802 0.90812
 H556 H 0.05414 0.20758 0.94177
 H557 H 0.05929 0.29191 0.94611
 H558 H 0.09240 0.29196 0.91257
 H559 H 0.13864 0.27658 0.90717
 H560 H 0.17188 0.27654 0.87364
 H561 H 0.12367 0.22437 0.82826
 H562 H 0.09094 0.22381 0.86228
 H563 H 0.16537 0.20971 0.81762
 H564 H 0.19826 0.21003 0.78378
 H565 H 0.21535 0.29114 0.79921
 H566 H 0.18127 0.29148 0.83196
 C567 C 0.59411 0.75172 0.40787
 C568 C 0.58346 0.72800 0.41685
 C569 C 0.56431 0.72776 0.43594
 C570 C 0.55533 0.75125 0.44644
 C571 C 0.56602 0.77497 0.43749
 C572 C 0.58522 0.77520 0.41845
 C573 C 0.61432 0.75198 0.38745
 C574 C 0.63587 0.76915 0.38892
 C575 C 0.65484 0.76941 0.36965
 C576 C 0.65262 0.75259 0.34844
 C577 C 0.63107 0.73543 0.34698
 C578 C 0.61215 0.73510 0.36628
 C579 C 0.67272 0.75287 0.32793
 C580 C 0.66543 0.75112 0.30197
 C581 C 0.68434 0.75093 0.28267
 C582 C 0.71090 0.75228 0.28896
 C583 C 0.71825 0.75446 0.31483
 C584 C 0.69934 0.75470 0.33415
 H585 H 0.59015 0.70958 0.40930
 H586 H 0.55653 0.70915 0.44246
 H587 H 0.55951 0.79341 0.44514
 H588 H 0.59284 0.79379 0.41170
 H589 H 0.63820 0.78220 0.40512
 H590 H 0.67111 0.78300 0.37120
 H591 H 0.62898 0.72204 0.33101
 H592 H 0.59565 0.72183 0.36449
 H593 H 0.64507 0.75007 0.29657
 H594 H 0.67828 0.74931 0.26281
 H595 H 0.73865 0.75576 0.32006
 H596 H 0.70557 0.75585 0.35397
 C597 C 0.90930 0.75036 0.90686
 C598 C 0.92234 0.77360 0.91378
 C599 C 0.94122 0.77362 0.93311
 C600 C 0.94762 0.75035 0.94580
 C601 C 0.93461 0.72710 0.93881
 C602 C 0.91559 0.72713 0.91962
 C603 C 0.88920 0.75033 0.88639
 C604 C 0.86568 0.73637 0.88960
 C605 C 0.84675 0.73631 0.87033
 C606 C 0.85098 0.75007 0.84729
 C607 C 0.87457 0.76400 0.84409
 C608 C 0.89342 0.76420 0.86345
 C609 C 0.83083 0.74993 0.82676
 C610 C 0.82608 0.77255 0.81227
 C611 C 0.80695 0.77247 0.79320
 C612 C 0.79188 0.74990 0.78845
 C613 C 0.79682 0.72719 0.80258
 C614 C 0.81609 0.72719 0.82153
 H615 H 0.91770 0.79184 0.90443
 H616 H 0.95089 0.79186 0.93804
 H617 H 0.93909 0.70885 0.94820
 H618 H 0.90603 0.70889 0.91450
 H619 H 0.86175 0.72581 0.90723
 H620 H 0.82862 0.72578 0.87365
 H621 H 0.87866 0.77444 0.82644
 H622 H 0.91152 0.77485 0.86031
 H623 H 0.83687 0.79046 0.81594
 H624 H 0.80376 0.79011 0.78225
 H625 H 0.78553 0.70952 0.79914
 H626 H 0.81955 0.70930 0.83198
 C627 C 0.40799 0.24962 0.40728
 C628 C 0.42114 0.27282 0.41412
 C629 C 0.44006 0.27279 0.43340
 C630 C 0.44638 0.24951 0.44610
 C631 C 0.43328 0.22629 0.43918
 C632 C 0.41421 0.22637 0.42005
 C633 C 0.38785 0.24965 0.38690
 C634 C 0.36423 0.23592 0.39029
 C635 C 0.34524 0.23593 0.37109
 C636 C 0.34953 0.24951 0.34797
 C637 C 0.37322 0.26320 0.34459
 C638 C 0.39214 0.26334 0.36388
 C639 C 0.32934 0.24940 0.32750
 C640 C 0.32471 0.27199 0.31294
 C641 C 0.30557 0.27192 0.29389
 C642 C 0.29040 0.24941 0.28926
 C643 C 0.29521 0.22673 0.30349
 C644 C 0.31448 0.22671 0.32241
 H645 H 0.41653 0.29106 0.40476
 H646 H 0.44980 0.29100 0.43828
 H647 H 0.43771 0.20804 0.44859
 H648 H 0.40456 0.20817 0.41498
 H649 H 0.36027 0.22551 0.40800
 H650 H 0.32702 0.22559 0.37452
 H651 H 0.37735 0.27350 0.32686
 H652 H 0.41032 0.27380 0.36063
 H653 H 0.33560 0.28986 0.31651
 H654 H 0.30246 0.28953 0.28286
 H655 H 0.28382 0.20911 0.30013
 H656 H 0.31787 0.20886 0.33293
 C657 C 0.74365 0.90607 0.90719
 C658 C 0.72006 0.91694 0.91530
 C659 C 0.71985 0.93624 0.93424
 C660 C 0.74327 0.94517 0.94539
 C661 C 0.76687 0.93433 0.93722
 C662 C 0.76705 0.91495 0.91837
 C663 C 0.74391 0.88561 0.88707
 C664 C 0.76005 0.86383 0.88957
 C665 C 0.76051 0.84469 0.87049
 C666 C 0.74493 0.84699 0.84846
 C667 C 0.72874 0.86873 0.84599
 C668 C 0.72817 0.88780 0.86514
 C669 C 0.74584 0.82693 0.82799
 C670 C 0.74652 0.83433 0.80200
 C671 C 0.74803 0.81547 0.78273
 C672 C 0.74891 0.78888 0.78907
 C673 C 0.74765 0.78141 0.81498
 C674 C 0.74630 0.80026 0.83427
 H675 H 0.70171 0.91028 0.90721
 H676 H 0.70134 0.94418 0.94014
 H677 H 0.78525 0.94080 0.94540
 H678 H 0.78555 0.90715 0.91228
 H679 H 0.77220 0.86150 0.90638
 H680 H 0.77336 0.82827 0.87279
 H681 H 0.71636 0.87089 0.82932
 H682 H 0.71572 0.90449 0.86260
 H683 H 0.74645 0.85474 0.79661
 H684 H 0.74899 0.82164 0.76286
 H685 H 0.74781 0.76096 0.82026
 H686 H 0.74538 0.79399 0.85411
 C687 C 0.24292 0.40645 0.40738
 C688 C 0.26632 0.41523 0.41863
 C689 C 0.26619 0.43466 0.43745
 C690 C 0.24263 0.44566 0.44554
 C691 C 0.21921 0.43683 0.43433
 C692 C 0.21936 0.41749 0.41541
 C693 C 0.24311 0.38591 0.38729
 C694 C 0.22737 0.38806 0.36535
 C695 C 0.22784 0.36890 0.34627
 C696 C 0.24393 0.34708 0.34880
 C697 C 0.25952 0.34483 0.37084
 C698 C 0.25917 0.36406 0.38984
 C699 C 0.24470 0.32688 0.32841
 C700 C 0.24514 0.30024 0.33482
 C701 C 0.24638 0.28126 0.31562
 C702 C 0.24755 0.28856 0.28966
 C703 C 0.24668 0.31512 0.28319
 C704 C 0.24528 0.33411 0.30238
 H705 H 0.28480 0.40731 0.41261
 H706 H 0.28458 0.44103 0.44567
 H707 H 0.20073 0.44488 0.44015
 H708 H 0.20100 0.41092 0.40728
 H709 H 0.21497 0.40478 0.36275
 H710 H 0.21544 0.37104 0.32961
 H711 H 0.27231 0.32836 0.37320
 H712 H 0.27132 0.36175 0.40665
 H713 H 0.24429 0.29407 0.35470
 H714 H 0.24653 0.26085 0.32102
 H715 H 0.24759 0.32118 0.26328
 H716 H 0.24522 0.35449 0.29687
 C717 C 0.25591 0.09463 0.90843
 C718 C 0.23242 0.08413 0.91799
 C719 C 0.23253 0.06494 0.93705
 C720 C 0.25619 0.05563 0.94697
 C721 C 0.27972 0.06629 0.93736
 C722 C 0.27955 0.08558 0.91838
 C723 C 0.25573 0.11481 0.88799
 C724 C 0.27268 0.13656 0.88920
 C725 C 0.27239 0.15559 0.86996
 C726 C 0.25528 0.15316 0.84902
 C727 C 0.23839 0.13137 0.84778
 C728 C 0.23857 0.11244 0.86708
 C729 C 0.25490 0.17331 0.82857
 C730 C 0.25315 0.16600 0.80261
 C731 C 0.25213 0.18495 0.78336
 C732 C 0.25258 0.21155 0.78972
 C733 C 0.25480 0.21894 0.81558
 C734 C 0.25593 0.19999 0.83484
 H735 H 0.21390 0.09096 0.91089
 H736 H 0.21398 0.05737 0.94391
 H737 H 0.29837 0.05971 0.94441
 H738 H 0.29796 0.09314 0.91118
 H739 H 0.28595 0.13900 0.90520
 H740 H 0.28575 0.17207 0.87131
 H741 H 0.22481 0.12913 0.83201
 H742 H 0.22547 0.09577 0.86551
 H743 H 0.25268 0.14560 0.79719
 H744 H 0.25051 0.17888 0.76351
 H745 H 0.25541 0.23939 0.82083
 H746 H 0.25708 0.20620 0.85468
 C747 C 0.75529 0.59299 0.40583
 C748 C 0.73222 0.57970 0.41277
 C749 C 0.73240 0.56080 0.43212
 C750 C 0.75571 0.55462 0.44475
 C751 C 0.77880 0.56788 0.43774
 C752 C 0.77856 0.58696 0.41856
 C753 C 0.75503 0.61308 0.38535
 C754 C 0.76825 0.63701 0.38869
 C755 C 0.76771 0.65608 0.36951
 C756 C 0.75412 0.65155 0.34646
 C757 C 0.74107 0.62747 0.34309
 C758 C 0.74144 0.60850 0.36236
 C759 C 0.75339 0.67191 0.32613
 C760 C 0.73059 0.67580 0.31171
 C761 C 0.72983 0.69508 0.29277
 C762 C 0.75168 0.71118 0.28812
 C763 C 0.77456 0.70715 0.30222
 C764 C 0.77543 0.68772 0.32102
 H765 H 0.71397 0.58415 0.40344
 H766 H 0.71429 0.55092 0.43706
 H767 H 0.79706 0.56357 0.44713
 H768 H 0.79665 0.59677 0.41342
 H769 H 0.77860 0.64117 0.40636
 H770 H 0.77757 0.67456 0.37295
 H771 H 0.73083 0.62312 0.32541
 H772 H 0.73138 0.59007 0.35915
 H773 H 0.71318 0.66420 0.31531
 H774 H 0.71210 0.69755 0.28184
 H775 H 0.79169 0.71926 0.29885
 H776 H 0.79343 0.68495 0.33141
 C777 C 0.09443 0.74821 0.90910
 C778 C 0.08322 0.72485 0.91825
 C779 C 0.06403 0.72523 0.93729
 C780 C 0.05542 0.74905 0.94755
 C781 C 0.06673 0.77245 0.93829
 C782 C 0.08605 0.77200 0.91937
 C783 C 0.11471 0.74777 0.88880
 C784 C 0.13694 0.76400 0.89052
 C785 C 0.15598 0.76365 0.87133
 C786 C 0.15309 0.74719 0.84992
 C787 C 0.13086 0.73097 0.84819
 C788 C 0.11192 0.73118 0.86747
 C789 C 0.17307 0.74718 0.82932
 C790 C 0.16559 0.74708 0.80337
 C791 C 0.18439 0.74771 0.78396
 C792 C 0.21101 0.74844 0.79011
 C793 C 0.21853 0.74792 0.81602
 C794 C 0.19974 0.74750 0.83545
 H795 H 0.08952 0.70621 0.91088
 H796 H 0.05592 0.70677 0.94387
 H797 H 0.06070 0.79121 0.94560
 H798 H 0.09416 0.79032 0.91247
 H799 H 0.13971 0.77681 0.90685
 H800 H 0.17279 0.77653 0.87304
 H801 H 0.12824 0.71794 0.83200
 H802 H 0.09489 0.71863 0.86552
 H803 H 0.14518 0.74707 0.79809
 H804 H 0.17816 0.74814 0.76410
 H805 H 0.23896 0.74799 0.82120
 H806 H 0.20605 0.74718 0.85528
 C807 C 0.59417 0.24709 0.40859
 C808 C 0.58216 0.22380 0.41701
 C809 C 0.56291 0.22424 0.43599
 C810 C 0.55515 0.24800 0.44688
 C811 C 0.56717 0.27129 0.43844
 C812 C 0.58651 0.27083 0.41955
 C813 C 0.61451 0.24662 0.38834
 C814 C 0.63707 0.26232 0.39046
 C815 C 0.65615 0.26196 0.37131
 C816 C 0.65301 0.24600 0.34957
 C817 C 0.63046 0.23028 0.34747
 C818 C 0.61145 0.23053 0.36667
 C819 C 0.67305 0.24598 0.32903
 C820 C 0.66566 0.24623 0.30305
 C821 C 0.68452 0.24683 0.28370
 C822 C 0.71112 0.24720 0.28995
 C823 C 0.71855 0.24636 0.31587
 C824 C 0.69970 0.24593 0.33524
 H825 H 0.58788 0.20519 0.40913
 H826 H 0.55408 0.20595 0.44209
 H827 H 0.56162 0.28992 0.44642
 H828 H 0.59521 0.28911 0.41323
 H829 H 0.64007 0.27472 0.40704
 H830 H 0.67321 0.27447 0.37332
 H831 H 0.62762 0.21762 0.33104
 H832 H 0.59415 0.21840 0.36441
 H833 H 0.64528 0.24654 0.29771
 H834 H 0.67838 0.24752 0.26383
 H835 H 0.73897 0.24618 0.32110
 H836 H 0.70596 0.24532 0.35507
 C837 C 0.90824 0.25000 0.90689
 C838 C 0.91536 0.27318 0.91970
 C839 C 0.93430 0.27305 0.93895
 C840 C 0.94644 0.24970 0.94598
 C841 C 0.93923 0.22649 0.93333
 C842 C 0.92042 0.22666 0.91395
 C843 C 0.88826 0.25018 0.88624
 C844 C 0.87030 0.22935 0.88367
 C845 C 0.85162 0.22947 0.86417
 C846 C 0.85033 0.25049 0.84693
 C847 C 0.86816 0.27136 0.84951
 C848 C 0.88698 0.27116 0.86888
 C849 C 0.83035 0.25068 0.82642
 C850 C 0.81617 0.27337 0.82136
 C851 C 0.79686 0.27334 0.80246
 C852 C 0.79143 0.25065 0.78824
 C853 C 0.80608 0.22817 0.79281
 C854 C 0.82520 0.22811 0.81188
 H855 H 0.90606 0.29142 0.91505
 H856 H 0.93932 0.29123 0.94844
 H857 H 0.94835 0.20821 0.93819
 H858 H 0.91572 0.20853 0.90422
 H859 H 0.87042 0.21312 0.89697
 H860 H 0.83785 0.21331 0.86284
 H861 H 0.86780 0.28765 0.83627
 H862 H 0.90079 0.28729 0.87001
 H863 H 0.81963 0.29097 0.83241
 H864 H 0.78579 0.29088 0.79925
 H865 H 0.80260 0.21061 0.78169
 H866 H 0.83614 0.21049 0.81511
 C867 C 0.40848 0.75066 0.40669
 C868 C 0.41556 0.77390 0.41942
 C869 C 0.43448 0.77388 0.43871
 C870 C 0.44666 0.75059 0.44586
 C871 C 0.43951 0.72732 0.43328
 C872 C 0.42071 0.72737 0.41387
 C873 C 0.38848 0.75072 0.38601
 C874 C 0.37058 0.72984 0.38348
 C875 C 0.35184 0.72989 0.36401
 C876 C 0.35045 0.75089 0.34675
 C877 C 0.36825 0.77179 0.34928
 C878 C 0.38712 0.77167 0.36862
 C879 C 0.33038 0.75104 0.32628
 C880 C 0.31627 0.77376 0.32111
 C881 C 0.29693 0.77372 0.30223
 C882 C 0.29137 0.75098 0.28813
 C883 C 0.30590 0.72846 0.29281
 C884 C 0.32506 0.72841 0.31186
 H885 H 0.40624 0.79210 0.41470
 H886 H 0.43945 0.79211 0.44813
 H887 H 0.44864 0.70907 0.43823
 H888 H 0.41605 0.70920 0.40421
 H889 H 0.37076 0.71362 0.39680
 H890 H 0.33811 0.71369 0.36274
 H891 H 0.36783 0.78807 0.33602
 H892 H 0.40088 0.78783 0.36970
 H893 H 0.31983 0.79141 0.33206
 H894 H 0.28596 0.79131 0.29894
 H895 H 0.30232 0.71085 0.28180
 H896 H 0.33592 0.71075 0.31516
 C897 C 0.25673 0.90747 0.09076
 C898 C 0.23317 0.91802 0.08213
 C899 C 0.23311 0.93723 0.06308
 C900 C 0.25662 0.94640 0.05229
 C901 C 0.28019 0.93579 0.06088
 C902 C 0.28023 0.91650 0.07986
 C903 C 0.25677 0.88724 0.11117
 C904 C 0.27324 0.86562 0.10940
 C905 C 0.27319 0.84656 0.12862
 C906 C 0.25679 0.84879 0.15009
 C907 C 0.24037 0.87044 0.15189
 C908 C 0.24033 0.88942 0.13263
 C909 C 0.25661 0.82856 0.17050
 C910 C 0.25552 0.83576 0.19652
 C911 C 0.25458 0.81672 0.21572
 C912 C 0.25450 0.79015 0.20927
 C913 C 0.25616 0.78288 0.18334
 C914 C 0.25716 0.80191 0.16413
 H915 H 0.21473 0.91121 0.08994
 H916 H 0.21462 0.94495 0.05687
 H917 H 0.29864 0.94244 0.05298
 H918 H 0.29870 0.90894 0.08632
 H919 H 0.28595 0.86329 0.09298
 H920 H 0.28620 0.83020 0.12681
 H921 H 0.22731 0.87254 0.16807
 H922 H 0.22762 0.90598 0.13465
 H923 H 0.25545 0.85613 0.20202
 H924 H 0.25340 0.82270 0.23562
 H925 H 0.25635 0.76246 0.17800
 H926 H 0.25780 0.79578 0.14425
 C927 C 0.75664 0.40711 0.59103
 C928 C 0.73306 0.41757 0.58234
 C929 C 0.73298 0.43666 0.56317
 C930 C 0.75648 0.44579 0.55232
 C931 C 0.78006 0.43529 0.56099
 C932 C 0.78013 0.41613 0.58010
 C933 C 0.75670 0.38695 0.61149
 C934 C 0.77320 0.36535 0.60978
 C935 C 0.77313 0.34632 0.62901
 C936 C 0.75666 0.34854 0.65044
 C937 C 0.74023 0.37018 0.65219
 C938 C 0.74022 0.38914 0.63291
 C939 C 0.75642 0.32829 0.67082
 C940 C 0.75524 0.33545 0.69684
 C941 C 0.75431 0.31639 0.71602
 C942 C 0.75434 0.28983 0.70953
 C943 C 0.75605 0.28260 0.68360
 C944 C 0.75703 0.30166 0.66441
 H945 H 0.71463 0.41077 0.59017
 H946 H 0.71447 0.44429 0.55689
 H947 H 0.79851 0.44192 0.55305
 H948 H 0.79861 0.40864 0.58661
 H949 H 0.78594 0.36302 0.59339
 H950 H 0.78615 0.32997 0.62725
 H951 H 0.72712 0.37227 0.66833
 H952 H 0.72748 0.40569 0.63489
 H953 H 0.75511 0.35582 0.70237
 H954 H 0.75309 0.32233 0.73593
 H955 H 0.75633 0.26219 0.67823
 H956 H 0.75774 0.29555 0.64453
 C957 C 0.74258 0.09317 0.09092
 C958 C 0.71907 0.08178 0.08242
 C959 C 0.71909 0.06252 0.06343
 C960 C 0.74265 0.05415 0.05264
 C961 C 0.76617 0.06553 0.06119
 C962 C 0.76612 0.08486 0.08008
 C963 C 0.74259 0.11358 0.11111
 C964 C 0.75895 0.13569 0.10900
 C965 C 0.75916 0.15477 0.12815
 C966 C 0.74311 0.15208 0.14987
 C967 C 0.72669 0.13000 0.15196
 C968 C 0.72638 0.11098 0.13275
 C969 C 0.74377 0.17207 0.17044
 C970 C 0.74385 0.16457 0.19640
 C971 C 0.74524 0.18338 0.21578
 C972 C 0.74660 0.21001 0.20956
 C973 C 0.74589 0.21757 0.18366
 C974 C 0.74466 0.19878 0.16428
 H975 H 0.70061 0.08801 0.09023
 H976 H 0.70064 0.05418 0.05724
 H977 H 0.78465 0.05950 0.05328
 H978 H 0.78456 0.09306 0.08649
 H979 H 0.77146 0.13833 0.09242
 H980 H 0.77220 0.17146 0.12615
 H981 H 0.71395 0.12753 0.16839
 H982 H 0.71375 0.09403 0.13500
 H983 H 0.74344 0.14414 0.20171
 H984 H 0.74581 0.17714 0.23564
 H985 H 0.74646 0.23805 0.17848
 H986 H 0.74421 0.20513 0.14445
 C987 C 0.24229 0.59393 0.59109
 C988 C 0.21877 0.58246 0.58269
 C989 C 0.21875 0.56320 0.56369
 C990 C 0.24227 0.55489 0.55275
 C991 C 0.26579 0.56634 0.56119
 C992 C 0.26579 0.58568 0.58010
 C993 C 0.24235 0.61436 0.61130
 C994 C 0.25869 0.63650 0.60915
 C995 C 0.25892 0.65561 0.62828
 C996 C 0.24292 0.65294 0.65005
 C997 C 0.22654 0.63083 0.65219
 C998 C 0.22621 0.61178 0.63298
 C999 C 0.24356 0.67301 0.67059
 C1000 C 0.24360 0.66560 0.69658
 C1001 C 0.24497 0.68447 0.71592
 C1002 C 0.24635 0.71109 0.70964
 C1003 C 0.24568 0.71856 0.68372
 C1004 C 0.24447 0.69970 0.66437
 H1005 H 0.20034 0.58863 0.59060
 H1006 H 0.20029 0.55481 0.55759
 H1007 H 0.28425 0.56037 0.55319
 H1008 H 0.28425 0.59393 0.58641
 H1009 H 0.27115 0.63914 0.59254
 H1010 H 0.27193 0.67230 0.62623
 H1011 H 0.21383 0.62836 0.66864
 H1012 H 0.21359 0.59483 0.63529
 H1013 H 0.24317 0.64518 0.70195
 H1014 H 0.24550 0.67828 0.73579
 H1015 H 0.24626 0.73901 0.67846
 H1016 H 0.24405 0.70600 0.64453
 C1017 C 0.90865 0.75156 0.09250
 C1018 C 0.91533 0.72810 0.08031
 C1019 C 0.93437 0.72784 0.06113
 C1020 C 0.94706 0.75107 0.05354
 C1021 C 0.94028 0.77456 0.06556
 C1022 C 0.92135 0.77479 0.08487
 C1023 C 0.88857 0.75175 0.11311
 C1024 C 0.87096 0.77245 0.11510
 C1025 C 0.85205 0.77255 0.13444
 C1026 C 0.85022 0.75188 0.15210
 C1027 C 0.86780 0.73122 0.15017
 C1028 C 0.88681 0.73119 0.13096
 C1029 C 0.82989 0.75176 0.17234
 C1030 C 0.81553 0.72885 0.17774
 C1031 C 0.79602 0.72883 0.19646
 C1032 C 0.79054 0.75167 0.21018
 C1033 C 0.80526 0.77443 0.20520
 C1034 C 0.82459 0.77454 0.18630
 H1035 H 0.90562 0.70992 0.08538
 H1036 H 0.93903 0.70944 0.05213
 H1037 H 0.94981 0.79277 0.06026
 H1038 H 0.91698 0.79314 0.09411
 H1039 H 0.87147 0.78837 0.10144
 H1040 H 0.83852 0.78855 0.13528
 H1041 H 0.86706 0.71522 0.16376
 H1042 H 0.90037 0.71521 0.13030
 H1043 H 0.81904 0.71109 0.16712
 H1044 H 0.78488 0.71107 0.19996
 H1045 H 0.80170 0.79215 0.21590
 H1046 H 0.83563 0.79236 0.18279
 C1047 C 0.40720 0.25062 0.59252
 C1048 C 0.41374 0.22721 0.58017
 C1049 C 0.43284 0.22697 0.56104
 C1050 C 0.44572 0.25017 0.55367
 C1051 C 0.43907 0.27362 0.56585
 C1052 C 0.42009 0.27383 0.58511
 C1053 C 0.38709 0.25079 0.61309
 C1054 C 0.36962 0.27159 0.61522
 C1055 C 0.35071 0.27169 0.63454
 C1056 C 0.34872 0.25090 0.65205
 C1057 C 0.36613 0.23011 0.64997
 C1058 C 0.38516 0.23009 0.63077
 C1059 C 0.32845 0.25082 0.67234
 C1060 C 0.31388 0.22802 0.67763
 C1061 C 0.29450 0.22804 0.69647
 C1062 C 0.28936 0.25082 0.71042
 C1063 C 0.30428 0.27347 0.70553
 C1064 C 0.32349 0.27354 0.68651
 H1065 H 0.40389 0.20907 0.58508
 H1066 H 0.43739 0.20860 0.55192
 H1067 H 0.44874 0.29180 0.56070
 H1068 H 0.41582 0.29214 0.59447
 H1069 H 0.37027 0.28762 0.60167
 H1070 H 0.33730 0.28779 0.63550
 H1071 H 0.36526 0.21401 0.66344
 H1072 H 0.39859 0.21401 0.63001
 H1073 H 0.31716 0.21031 0.66684
 H1074 H 0.28321 0.21036 0.69992
 H1075 H 0.30101 0.29113 0.71642
 H1076 H 0.33470 0.29127 0.68309
 C1077 C 0.09351 0.24908 0.09225
 C1078 C 0.08697 0.27236 0.07966
 C1079 C 0.06787 0.27240 0.06055
 C1080 C 0.05501 0.24913 0.05345
 C1081 C 0.06163 0.22581 0.06589
 C1082 C 0.08059 0.22580 0.08513
 C1083 C 0.11365 0.24909 0.11276
 C1084 C 0.13104 0.22824 0.11507
 C1085 C 0.14991 0.22824 0.13440
 C1086 C 0.15196 0.24917 0.15171
 C1087 C 0.13468 0.27004 0.14940
 C1088 C 0.11567 0.26996 0.13021
 C1089 C 0.17211 0.24924 0.17207
 C1090 C 0.18690 0.27194 0.17717
 C1091 C 0.20617 0.27189 0.19610
 C1092 C 0.21098 0.24918 0.21030
 C1093 C 0.19583 0.22665 0.20560
 C1094 C 0.17673 0.22661 0.18650
 H1095 H 0.09683 0.29055 0.08434
 H1096 H 0.06333 0.29067 0.05121
 H1097 H 0.05196 0.20758 0.06096
 H1098 H 0.08484 0.20759 0.09471
 H1099 H 0.13034 0.21208 0.10170
 H1100 H 0.16323 0.21207 0.13554
 H1101 H 0.13562 0.28625 0.16271
 H1102 H 0.10231 0.28609 0.12928
 H1103 H 0.18386 0.28959 0.16620
 H1104 H 0.21763 0.28948 0.19942
 H1105 H 0.19880 0.20907 0.21671
 H1106 H 0.16534 0.20898 0.18323
 C1107 C 0.59359 0.75045 0.59250
 C1108 C 0.58693 0.77376 0.58000
 C1109 C 0.56773 0.77383 0.56098
 C1110 C 0.55487 0.75055 0.55386
 C1111 C 0.56156 0.72723 0.56626
 C1112 C 0.58062 0.72719 0.58541
 C1113 C 0.61395 0.75038 0.61284
 C1114 C 0.63129 0.72947 0.61497
 C1115 C 0.65034 0.72936 0.63414
 C1116 C 0.65262 0.75023 0.65149
 C1117 C 0.63540 0.77118 0.64934
 C1118 C 0.61622 0.77122 0.63030
 C1119 C 0.67295 0.75017 0.67171
 C1120 C 0.68778 0.77283 0.67686
 C1121 C 0.70720 0.77266 0.69566
 C1122 C 0.71211 0.74986 0.70970
 C1123 C 0.69692 0.72736 0.70494
 C1124 C 0.67769 0.72745 0.68598
 H1125 H 0.59681 0.79195 0.58467
 H1126 H 0.56313 0.79210 0.55168
 H1127 H 0.55190 0.70899 0.56133
 H1128 H 0.58493 0.70896 0.59492
 H1129 H 0.63043 0.71334 0.60157
 H1130 H 0.66360 0.71313 0.63513
 H1131 H 0.63650 0.78737 0.66268
 H1132 H 0.60291 0.78740 0.62953
 H1133 H 0.68468 0.79055 0.66602
 H1134 H 0.71866 0.79023 0.69902
 H1135 H 0.69996 0.70972 0.71593
 H1136 H 0.66627 0.70984 0.68268
   
