data_POSCAR
  _audit_creation_date              2014-09-24
  _audit_creation_method            'ToBaCCo'
  _symmetry_space_group_name_H-M    'P1'
  _symmetry_Int_Tables_number       1
  _symmetry_cell_setting            triclinic
  loop_
  _symmetry_equiv_pos_as_xyz
 x,y,z
_cell_length_a 32.0042
_cell_length_b 32.1759
_cell_length_c 43.6616
_cell_angle_alpha 90.000200
_cell_angle_beta 90.000000
_cell_angle_gamma 90.000000
loop_
  _atom_site_label
  _atom_site_type_symbol
  _atom_site_fract_x
  _atom_site_fract_y
  _atom_site_fract_z
B1 B 0.26866 0.23437 0.28041
 B2 B 0.21855 0.22574 0.27235
 B3 B 0.23513 0.27397 0.27886
 B4 B 0.28358 0.27966 0.26433
 B5 B 0.29644 0.23296 0.24799
 B6 B 0.25575 0.19924 0.25342
 B7 B 0.22784 0.26358 0.21841
 B8 B 0.27794 0.27224 0.22653
 B9 B 0.26135 0.22402 0.22001
 B10 B 0.21289 0.21830 0.23454
 B11 B 0.20000 0.26502 0.25087
 B12 B 0.24071 0.29875 0.24541
 B13 B 0.73872 0.77605 0.22001
 B14 B 0.72212 0.72783 0.22653
 B15 B 0.77222 0.73648 0.21841
 B16 B 0.78718 0.78176 0.23454
 B17 B 0.74431 0.80082 0.25342
 B18 B 0.70362 0.76711 0.24799
 B19 B 0.76494 0.72609 0.27886
 B20 B 0.78152 0.77432 0.27235
 B21 B 0.73141 0.76570 0.28040
 B22 B 0.71649 0.72040 0.26433
 B23 B 0.75935 0.70131 0.24541
 B24 B 0.80007 0.73504 0.25086
 B25 B 0.73872 0.22403 -0.21998
 B26 B 0.72215 0.27225 -0.22651
 B27 B 0.77225 0.26358 -0.21839
 B28 B 0.78718 0.21829 -0.23451
 B29 B 0.74430 0.19925 -0.25339
 B30 B 0.70363 0.23299 -0.24796
 B31 B 0.76496 0.27397 -0.27883
 B32 B 0.78152 0.22574 -0.27233
 B33 B 0.73141 0.23438 -0.28038
 B34 B 0.71651 0.27968 -0.26430
 B35 B 0.75939 0.29876 -0.24539
 B36 B 0.80008 0.26501 -0.25084
 B37 B 0.26865 0.76571 -0.28038
 B38 B 0.21854 0.77435 -0.27233
 B39 B 0.23511 0.72612 -0.27884
 B40 B 0.28355 0.72041 -0.26431
 B41 B 0.29643 0.76710 -0.24796
 B42 B 0.25576 0.80084 -0.25340
 B43 B 0.22782 0.73650 -0.21839
 B44 B 0.27792 0.72783 -0.22651
 B45 B 0.26134 0.77605 -0.21999
 B46 B 0.21288 0.78180 -0.23451
 B47 B 0.19998 0.73508 -0.25085
 B48 B 0.24068 0.70133 -0.24539
 B49 B 1.23766 1.27523 0.71983
 B50 B 1.22229 1.22681 0.72708
 B51 B 1.27202 1.23639 0.71834
 B52 B 1.28625 1.28233 0.73380
 B53 B 1.24331 1.30084 0.75290
 B54 B 1.20330 1.26611 0.74826
 B55 B 1.26608 1.22712 0.77896
 B56 B 1.28144 1.27555 0.77174
 B57 B 1.23170 1.26600 0.78040
 B58 B 1.21751 1.22005 0.76500
 B59 B 1.26045 1.20151 0.74586
 B60 B 1.30048 1.23624 0.75052
 B61 B 0.76837 0.73406 0.78040
 B62 B 0.71862 0.72451 0.77174
 B63 B 0.73399 0.77294 0.77897
 B64 B 0.78256 0.78001 0.76500
 B65 B 0.79677 0.73395 0.74826
 B66 B 0.75676 0.69923 0.75290
 B67 B 0.72804 0.76368 0.71835
 B68 B 0.77778 0.77326 0.72708
 B69 B 0.76241 0.72483 0.71983
 B70 B 0.71382 0.71774 0.73380
 B71 B 0.69959 0.76382 0.75052
 B72 B 0.73962 0.79856 0.74587
 B73 B 1.23766 0.72485 0.28019
 B74 B 1.22231 0.77328 0.27295
 B75 B 1.27204 0.76368 0.28168
 B76 B 1.28625 0.71773 0.26623
 B77 B 1.24330 0.69924 0.24713
 B78 B 1.20330 0.73398 0.25176
 B79 B 1.26610 0.77294 0.22106
 B80 B 1.28144 0.72450 0.22829
 B81 B 1.23170 0.73408 0.21962
 B82 B 1.21753 0.78003 0.23502
 B83 B 1.26048 0.79856 0.25416
 B84 B 1.30050 0.76380 0.24950
 B85 B 0.76836 1.26601 0.21962
 B86 B 0.71862 1.27559 0.22829
 B87 B 0.73396 1.22715 0.22106
 B88 B 0.78253 1.22006 0.23502
 B89 B 0.79676 1.26611 0.25176
 B90 B 0.75677 1.30085 0.24713
 B91 B 0.72802 1.23641 0.28168
 B92 B 0.77775 1.22681 0.27295
 B93 B 0.76241 1.27524 0.28019
 B94 B 0.71382 1.28236 0.26623
 B95 B 0.69957 1.23629 0.24950
 B96 B 0.73958 1.20153 0.25415
 O97 O 0.45282 1.07847 0.02286
 O98 O 0.54725 0.92160 0.02286
 O99 O 0.41954 0.95100 0.01937
 O100 O 0.58053 1.04907 0.01937
 O101 O 0.47650 0.92895 0.03770
 O102 O 0.52357 1.07113 0.03770
 O103 O 0.57176 0.97959 0.03840
 O104 O 0.42832 1.02049 0.03840
 C105 C 0.43269 1.05818 0.04230
 C106 C 0.56738 0.94189 0.04230
 C107 C 0.43839 0.93265 0.04019
 C108 C 0.56168 1.06743 0.04019
 O109 O 0.54723 1.07848 -0.02284
 O110 O 0.45284 0.92159 -0.02284
 O111 O 0.41953 1.04906 -0.01935
 O112 O 0.58054 0.95102 -0.01935
 O113 O 0.52359 0.92895 -0.03768
 O114 O 0.47648 1.07112 -0.03768
 O115 O 0.57175 1.02050 -0.03838
 O116 O 0.42832 0.97957 -0.03838
 Co117 Co 0.50003 1.06761 0.00001
 Co118 Co 0.50004 0.93246 0.00001
 Co119 Co 0.43164 1.00003 0.00001
 Co120 Co 0.56843 1.00004 0.00001
 O121 O 0.50004 1.00004 0.00001
 C122 C 0.56737 1.05819 -0.04228
 C123 C 0.43270 0.94188 -0.04228
 C124 C 0.43838 1.06742 -0.04017
 C125 C 0.56170 0.93266 -0.04017
 O126 O 0.97614 0.57107 0.53759
 O127 O 1.02393 0.42900 0.53760
 O128 O 0.92824 0.47987 0.53851
 O129 O 1.07183 0.52021 0.53851
 O130 O 0.95313 0.42182 0.52325
 O131 O 1.04694 0.57825 0.52324
 O132 O 1.08070 0.45081 0.51894
 O133 O 0.91937 0.54927 0.51893
 C134 C 0.93801 0.56749 0.53989
 C135 C 1.06206 0.43259 0.53989
 C136 C 0.93292 0.44222 0.54261
 C137 C 1.06715 0.55786 0.54261
 O138 O 1.02392 0.57108 0.46242
 O139 O 0.97615 0.42900 0.46242
 O140 O 0.92824 0.52020 0.46151
 O141 O 1.07184 0.47988 0.46151
 O142 O 1.04695 0.42183 0.47678
 O143 O 0.95312 0.57824 0.47677
 O144 O 1.08069 0.54928 0.48108
 O145 O 0.91938 0.45079 0.48108
 Co146 Co 1.00003 0.56754 0.50001
 Co147 Co 1.00004 0.43254 0.50001
 Co148 Co 0.93156 0.50003 0.50001
 Co149 Co 1.06851 0.50004 0.50001
 O150 O 1.00004 0.50004 0.50001
 C151 C 1.06205 0.56749 0.46013
 C152 C 0.93803 0.43258 0.46013
 C153 C 0.93291 0.55785 0.45740
 C154 C 1.06716 0.44222 0.45741
 O155 O 1.02891 0.45210 0.05851
 O156 O 1.02890 0.54798 -0.05848
 O157 O 1.02877 0.42055 -0.03534
 O158 O 1.02876 0.57952 0.03537
 O159 O 1.05201 0.47781 -0.05253
 O160 O 1.05201 0.52227 0.05256
 O161 O 1.05202 0.57143 -0.01627
 O162 O 1.05203 0.42866 0.01630
 C163 C 1.05590 0.43198 0.04429
 C164 C 1.05589 0.56811 -0.04426
 C165 C 1.05595 0.43984 -0.04995
 C166 C 1.05595 0.56024 0.04998
 O167 O 0.97117 0.54798 0.05851
 O168 O 0.97118 0.45209 -0.05848
 O169 O 0.97132 0.42055 0.03537
 O170 O 0.97131 0.57952 -0.03534
 O171 O 0.94807 0.52226 -0.05253
 O172 O 0.94807 0.47781 0.05256
 O173 O 0.94805 0.57142 0.01630
 O174 O 0.94806 0.42864 -0.01627
 Co175 Co 1.00004 0.50004 0.04997
 Co176 Co 1.00004 0.50004 -0.04994
 Co177 Co 1.00005 0.43219 0.00001
 Co178 Co 1.00003 0.56789 0.00001
 O179 O 1.00004 0.50004 0.00002
 C180 C 0.94418 0.56810 0.04428
 C181 C 0.94419 0.43196 -0.04426
 C182 C 0.94413 0.43984 0.04998
 C183 C 0.94413 0.56023 -0.04996
 O184 O 0.52915 0.95221 0.55844
 O185 O 0.52914 1.04787 0.44159
 O186 O 0.52852 0.92045 0.46458
 O187 O 0.52851 1.07962 0.53545
 O188 O 0.55195 0.97766 0.44749
 O189 O 0.55195 1.02243 0.55254
 O190 O 0.55209 1.07146 0.48383
 O191 O 0.55210 0.92863 0.51620
 C192 C 0.55609 0.93206 0.54417
 C193 C 0.55608 1.06803 0.45586
 C194 C 0.55577 0.93968 0.45000
 C195 C 0.55576 1.06041 0.55003
 O196 O 0.47093 1.04787 0.55844
 O197 O 0.47094 0.95221 0.44159
 O198 O 0.47157 0.92046 0.53545
 O199 O 0.47156 1.07962 0.46458
 O200 O 0.44813 1.02242 0.44749
 O201 O 0.44813 0.97765 0.55254
 O202 O 0.44798 1.07145 0.51620
 O203 O 0.44800 0.92861 0.48383
 Co204 Co 0.50004 1.00004 0.54995
 Co205 Co 0.50004 1.00004 0.45008
 Co206 Co 0.50005 0.93215 0.50001
 Co207 Co 0.50003 1.06792 0.50001
 O208 O 0.50004 1.00004 0.50001
 C209 C 0.44399 1.06802 0.54417
 C210 C 0.44400 0.93205 0.45586
 C211 C 0.44432 0.93967 0.55003
 C212 C 0.44431 1.06040 0.45000
 O213 O 1.07143 1.05076 0.48172
 O214 O 0.92858 1.05071 0.51830
 O215 O 0.98096 1.05259 0.44753
 O216 O 1.01905 1.05260 0.55249
 O217 O 0.92216 1.03333 0.46633
 O218 O 1.07786 1.03339 0.53369
 O219 O 0.94993 1.02368 0.55920
 O220 O 1.05010 1.02371 0.44081
 C221 C 1.06782 1.05290 0.45376
 C222 C 0.93219 1.05285 0.54626
 C223 C 0.94315 1.05865 0.45085
 C224 C 1.05685 1.05870 0.54917
 O225 O 1.07146 0.94937 0.51830
 O226 O 0.92862 0.94931 0.48172
 O227 O 1.01909 0.94749 0.44753
 O228 O 0.98100 0.94748 0.55249
 O229 O 0.92219 0.96669 0.53369
 O230 O 1.07789 0.96675 0.46633
 O231 O 1.05012 0.97641 0.55921
 O232 O 0.94995 0.97636 0.44081
 Co233 Co 1.06774 1.00007 0.50001
 Co234 Co 0.93231 1.00001 0.50001
 Co235 Co 1.00002 1.00004 0.44988
 Co236 Co 1.00002 1.00004 0.55014
 O237 O 1.00002 1.00004 0.50001
 C238 C 1.06785 0.94723 0.54626
 C239 C 0.93223 0.94718 0.45376
 C240 C 1.05690 0.94142 0.45085
 C241 C 0.94320 0.94138 0.54917
 O242 O 0.57137 0.55061 -0.01851
 O243 O 0.42864 0.55056 0.01853
 O244 O 0.48127 0.55271 -0.05251
 O245 O 0.51874 0.55272 0.05253
 O246 O 0.42241 0.53384 -0.03347
 O247 O 0.57761 0.53390 0.03349
 O248 O 0.44974 0.52314 0.05931
 O249 O 0.55029 0.52317 -0.05929
 C250 C 0.56801 0.55244 -0.04648
 C251 C 0.43201 0.55239 0.04650
 C252 C 0.44351 0.55906 -0.04900
 C253 C 0.55649 0.55910 0.04902
 O254 O 0.57140 0.44952 0.01853
 O255 O 0.42867 0.44947 -0.01851
 O256 O 0.51878 0.44737 -0.05250
 O257 O 0.48130 0.44736 0.05253
 O258 O 0.42243 0.46618 0.03348
 O259 O 0.57764 0.46624 -0.03347
 O260 O 0.55031 0.47694 0.05931
 O261 O 0.44976 0.47690 -0.05929
 Co262 Co 0.56765 0.50006 0.00001
 Co263 Co 0.43239 0.50002 0.00001
 Co264 Co 0.50002 0.50004 -0.05017
 Co265 Co 0.50002 0.50004 0.05019
 O266 O 0.50002 0.50004 0.00001
 C267 C 0.56804 0.44769 0.04650
 C268 C 0.43204 0.44764 -0.04648
 C269 C 0.55654 0.44102 -0.04900
 C270 C 0.44356 0.44098 0.04902
 C271 C 0.31501 1.15955 0.14744
 N272 N 0.31805 1.11752 0.14837
 N273 N 0.34159 1.09734 0.12805
 C274 C 0.36309 1.11862 0.10636
 N275 N 0.35999 1.16064 0.10540
 N276 N 0.33646 1.18081 0.12572
 C277 C 0.29287 1.18148 0.17095
 C278 C 0.27677 1.20010 0.19175
 C279 C 0.38858 1.09700 0.08455
 C280 C 0.40939 1.07909 0.06571
 C281 C 0.81895 0.66388 0.64673
 N282 N 0.82215 0.62185 0.64645
 N283 N 0.84629 0.60289 0.62587
 C284 C 0.86826 0.62542 0.60513
 N285 N 0.86502 0.66745 0.60539
 N286 N 0.84088 0.68639 0.62597
 C287 C 0.79589 0.68442 0.67046
 C288 C 0.77894 0.70198 0.69142
 C289 C 0.89410 0.60503 0.58289
 C290 C 0.91498 0.58789 0.56370
 C291 C 0.68506 0.84053 0.14744
 N292 N 0.66361 0.81926 0.12571
 N293 N 0.64008 0.83944 0.10539
 C294 C 0.63698 0.88145 0.10637
 N295 N 0.65848 0.90273 0.12806
 N296 N 0.68201 0.88255 0.14838
 C297 C 0.70720 0.81859 0.17095
 C298 C 0.72330 0.79997 0.19175
 C299 C 0.61149 0.90308 0.08455
 C300 C 0.59068 0.92098 0.06571
 C301 C 1.18112 0.33620 0.64674
 N302 N 1.15923 0.31368 0.62595
 N303 N 1.13509 0.33263 0.60537
 C304 C 1.13181 0.37465 0.60514
 N305 N 1.15375 0.39718 0.62589
 N306 N 1.17788 0.37823 0.64648
 C307 C 1.20418 0.31565 0.67046
 C308 C 1.22113 0.29809 0.69142
 C309 C 1.10596 0.39505 0.58289
 C310 C 1.08509 0.41218 0.56370
 C311 C 0.68505 1.15957 -0.14741
 N312 N 0.66357 1.18083 -0.12571
 N313 N 0.64004 1.16066 -0.10539
 C314 C 0.63697 1.11864 -0.10634
 N315 N 0.65851 1.09736 -0.12801
 N316 N 0.68204 1.11754 -0.14833
 C317 C 0.70720 1.18150 -0.17092
 C318 C 0.72330 1.20012 -0.19173
 C319 C 0.61148 1.09701 -0.08453
 C320 C 0.59067 1.07911 -0.06569
 C321 C 1.18110 0.66390 0.35329
 N322 N 1.17793 0.62187 0.35358
 N323 N 1.15379 0.60291 0.37416
 C324 C 1.13179 0.62544 0.39488
 N325 N 1.13502 0.66747 0.39462
 N326 N 1.15915 0.68642 0.37404
 C327 C 1.20417 0.68444 0.32956
 C328 C 1.22112 0.70200 0.30861
 C329 C 1.10595 0.60504 0.41713
 C330 C 1.08507 0.58790 0.43632
 C331 C 0.31502 0.84051 -0.14741
 N332 N 0.33651 0.81924 -0.12571
 N333 N 0.36005 0.83941 -0.10540
 C334 C 0.36310 0.88143 -0.10634
 N335 N 0.34155 0.90272 -0.12800
 N336 N 0.31802 0.88254 -0.14832
 C337 C 0.29287 0.81859 -0.17092
 C338 C 0.27676 0.79997 -0.19173
 C339 C 0.38859 0.90306 -0.08453
 C340 C 0.40941 0.92097 -0.06569
 C341 C 0.81896 0.33619 0.35329
 N342 N 0.82215 0.37822 0.35358
 N343 N 0.84629 0.39717 0.37416
 C344 C 0.86828 0.37464 0.39488
 N345 N 0.86505 0.33261 0.39462
 N346 N 0.84091 0.31367 0.37404
 C347 C 0.79590 0.31564 0.32956
 C348 C 0.77894 0.29809 0.30861
 C349 C 0.89412 0.39503 0.41713
 C350 C 0.91500 0.41217 0.43632
 C351 C 1.17404 0.31701 0.14059
 N352 N 1.13932 0.30135 0.12702
 N353 N 1.11923 0.32311 0.10560
 C354 C 1.13319 0.36121 0.09704
 N355 N 1.16802 0.37679 0.11051
 N356 N 1.18813 0.35502 0.13192
 C357 C 1.19312 0.29573 0.16597
 C358 C 1.20853 0.27986 0.18834
 C359 C 1.10866 0.38645 0.07660
 C360 C 1.08593 0.40754 0.06091
 C361 C 0.67454 0.81740 0.64049
 N362 N 0.68826 0.85567 0.63211
 N363 N 0.66813 0.87741 0.61069
 C364 C 0.63365 0.86154 0.59692
 N365 N 0.62007 0.82318 0.60519
 N366 N 0.64017 0.80146 0.62662
 C367 C 0.69359 0.79609 0.66587
 C368 C 0.70893 0.78014 0.68824
 C369 C 0.60904 0.88670 0.57647
 C370 C 0.58622 0.90771 0.56078
 C371 C 1.17401 0.68309 -0.14057
 N372 N 1.18812 0.64509 -0.13189
 N373 N 1.16801 0.62332 -0.11047
 C374 C 1.13316 0.63889 -0.09701
 N375 N 1.11919 0.67698 -0.10559
 N376 N 1.13928 0.69874 -0.12701
 C377 C 1.19309 0.70436 -0.16595
 C378 C 1.20850 0.72023 -0.18832
 C379 C 1.10864 0.61364 -0.07658
 C380 C 1.08591 0.59255 -0.06089
 C381 C 0.67451 1.18270 0.35953
 N382 N 0.68825 1.14445 0.36793
 N383 N 0.66812 1.12271 0.38935
 C384 C 0.63362 1.13856 0.40311
 N385 N 0.62002 1.17690 0.39482
 N386 N 0.64012 1.19863 0.37339
 C387 C 0.69356 1.20401 0.33415
 C388 C 0.70890 1.21995 0.31178
 C389 C 0.60902 1.11340 0.42356
 C390 C 0.58621 1.09238 0.43925
 C391 C 0.82603 0.68306 0.14058
 N392 N 0.81194 0.64504 0.13192
 N393 N 0.83205 0.62327 0.11051
 C394 C 0.86688 0.63886 0.09704
 N395 N 0.88083 0.67697 0.10559
 N396 N 0.86074 0.69873 0.12701
 C397 C 0.80694 0.70433 0.16597
 C398 C 0.79153 0.72020 0.18833
 C399 C 0.89141 0.61362 0.07660
 C400 C 0.91415 0.59253 0.06091
 C401 C 0.32553 1.18267 0.64049
 N402 N 0.31182 1.14440 0.63211
 N403 N 0.33195 1.12266 0.61069
 C404 C 0.36643 1.13853 0.59692
 N405 N 0.38000 1.17689 0.60519
 N406 N 0.35989 1.19862 0.62662
 C407 C 0.30647 1.20397 0.66587
 C408 C 0.29114 1.21992 0.68824
 C409 C 0.39104 1.11338 0.57647
 C410 C 0.41386 1.09236 0.56078
 C411 C 0.82606 0.31699 -0.14056
 N412 N 0.81195 0.35499 -0.13188
 N413 N 0.83206 0.37676 -0.11047
 C414 C 0.86691 0.36119 -0.09701
 N415 N 0.88088 0.32310 -0.10559
 N416 N 0.86079 0.30134 -0.12701
 C417 C 0.80698 0.29572 -0.16595
 C418 C 0.79156 0.27985 -0.18831
 C419 C 0.89143 0.38643 -0.07657
 C420 C 0.91417 0.40753 -0.06088
 C421 C 0.32557 0.81738 0.35953
 N422 N 0.31183 0.85564 0.36793
 N423 N 0.33195 0.87737 0.38935
 C424 C 0.36645 0.86152 0.40311
 N425 N 0.38006 0.82318 0.39482
 N426 N 0.35995 0.80145 0.37339
 C427 C 0.30651 0.79608 0.33415
 C428 C 0.29117 0.78013 0.31178
 C429 C 0.39106 0.88668 0.42356
 C430 C 0.41387 0.90770 0.43925
 C431 C 1.15505 1.17006 0.34441
 N432 N 1.11299 1.16650 0.34681
 N433 N 1.09606 1.14808 0.37117
 C434 C 1.12065 1.13311 0.39395
 N435 N 1.16270 1.13688 0.39159
 N436 N 1.17962 1.15530 0.36726
 C437 C 1.17373 1.18855 0.31796
 C438 C 1.19161 1.20428 0.29669
 C439 C 1.10279 1.10830 0.41779
 C440 C 1.08725 1.08457 0.43577
 C441 C 0.65545 0.66757 -0.15673
 N442 N 0.68018 0.65166 -0.13440
 N443 N 0.66336 0.63368 -0.10986
 C444 C 0.62129 0.63156 -0.10675
 N445 N 0.59655 0.64768 -0.12901
 N446 N 0.61337 0.66567 -0.15358
 C447 C 0.67396 0.68609 -0.18321
 C448 C 0.69177 0.70214 -0.20437
 C449 C 0.60330 0.60723 -0.08272
 C450 C 0.58762 0.58383 -0.06460
 C451 C 0.84497 1.17002 0.65561
 N452 N 0.82038 1.15519 0.63279
 N453 N 0.83729 1.13676 0.60846
 C454 C 0.87934 1.13306 0.60606
 N455 N 0.90395 1.14810 0.62881
 N456 N 0.88704 1.16653 0.65317
 C457 C 0.82631 1.18852 0.68206
 C458 C 0.80844 1.20426 0.70333
 C459 C 0.89721 1.10825 0.58223
 C460 C 0.91275 1.08452 0.56425
 C461 C 0.34457 0.66753 0.15675
 N462 N 0.31983 0.65152 0.13447
 N463 N 0.33664 0.63353 0.10993
 C464 C 0.37870 0.63151 0.10676
 N465 N 0.40346 0.64772 0.12898
 N466 N 0.38665 0.66572 0.15355
 C467 C 0.32607 0.68606 0.18323
 C468 C 0.30828 0.70212 0.20439
 C469 C 0.39669 0.60718 0.08274
 C470 C 0.41238 0.58378 0.06461
 C471 C 1.15509 0.83007 0.65561
 N472 N 1.11302 0.83355 0.65317
 N473 N 1.09611 0.85198 0.62881
 C474 C 1.12071 0.86703 0.60606
 N475 N 1.16276 0.86334 0.60846
 N476 N 1.17968 0.84491 0.63280
 C477 C 1.17375 0.81157 0.68206
 C478 C 1.19162 0.79583 0.70333
 C479 C 1.10284 0.89184 0.58223
 C480 C 1.08730 0.91556 0.56425
 C481 C 0.65549 0.33256 0.15675
 N482 N 0.68022 0.34857 0.13447
 N483 N 0.66341 0.36656 0.10993
 C484 C 0.62135 0.36858 0.10677
 N485 N 0.59660 0.35237 0.12899
 N486 N 0.61341 0.33437 0.15355
 C487 C 0.67399 0.31403 0.18323
 C488 C 0.69178 0.29797 0.20439
 C489 C 0.60335 0.39291 0.08274
 C490 C 0.58767 0.41631 0.06462
 C491 C 0.84501 0.83000 0.34442
 N492 N 0.82044 0.84474 0.36727
 N493 N 0.83736 0.86317 0.39160
 C494 C 0.87941 0.86696 0.39395
 N495 N 0.90400 0.85200 0.37116
 N496 N 0.88708 0.83357 0.34681
 C497 C 0.82634 0.81151 0.31796
 C498 C 0.80846 0.79578 0.29669
 C499 C 0.89727 0.89177 0.41779
 C500 C 0.91280 0.91550 0.43577
 C501 C 0.34461 0.33249 -0.15673
 N502 N 0.38669 0.33441 -0.15358
 N503 N 0.40351 0.35241 -0.12902
 C504 C 0.37877 0.36851 -0.10675
 N505 N 0.33670 0.36637 -0.10986
 N506 N 0.31988 0.34838 -0.13440
 C507 C 0.32610 0.31397 -0.18321
 C508 C 0.30830 0.29792 -0.20436
 C509 C 0.39675 0.39284 -0.08272
 C510 C 0.41243 0.41625 -0.06460
 C511 C 1.17677 0.32348 -0.14397
 N512 N 1.18911 0.36299 -0.13785
 N513 N 1.16824 0.38620 -0.11769
 C514 C 1.13431 0.37064 -0.10303
 N515 N 1.12211 0.33107 -0.10905
 N516 N 1.14295 0.30788 -0.12922
 C517 C 1.19649 0.30033 -0.16816
 C518 C 1.21229 0.28312 -0.18983
 C519 C 1.10937 0.39658 -0.08337
 C520 C 1.08630 0.41730 -0.06768
 C521 C 0.67623 0.82295 0.35599
 N522 N 0.64202 0.80763 0.37042
 N523 N 0.62122 0.83089 0.39058
 C524 C 0.63385 0.87023 0.39690
 N525 N 0.66817 0.88551 0.38256
 N526 N 0.68899 0.86223 0.36241
 C527 C 0.69595 0.79980 0.33181
 C528 C 0.71182 0.78264 0.31015
 C529 C 0.60902 0.89627 0.41656
 C530 C 0.58603 0.91707 0.43225
 C531 C 0.82330 0.67659 -0.14398
 N532 N 0.81097 0.63708 -0.13786
 N533 N 0.83184 0.61386 -0.11769
 C534 C 0.86576 0.62943 -0.10303
 N535 N 0.87796 0.66900 -0.10905
 N536 N 0.85712 0.69220 -0.12922
 C537 C 0.80358 0.69973 -0.16816
 C538 C 0.78778 0.71695 -0.18983
 C539 C 0.89071 0.60349 -0.08337
 C540 C 0.91378 0.58277 -0.06768
 C541 C 0.32385 1.17712 0.35599
 N542 N 0.31108 1.13784 0.36242
 N543 N 0.33191 1.11456 0.38256
 C544 C 0.36622 1.12984 0.39690
 N545 N 0.37886 1.16918 0.39058
 N546 N 0.35806 1.19244 0.37042
 C547 C 0.30412 1.20026 0.33181
 C548 C 0.28825 1.21742 0.31015
 C549 C 0.39106 1.10380 0.41656
 C550 C 0.41405 1.08300 0.43225
 C551 C 1.17676 0.67661 0.14400
 N552 N 1.18912 0.63712 0.13785
 N553 N 1.16825 0.61390 0.11769
 C554 C 1.13430 0.62945 0.10306
 N555 N 1.12207 0.66901 0.10910
 N556 N 1.14291 0.69220 0.12927
 C557 C 1.19648 0.69975 0.16819
 C558 C 1.21229 0.71697 0.18985
 C559 C 1.10935 0.60351 0.08339
 C560 C 1.08629 0.58278 0.06770
 C561 C 0.67621 1.17714 0.64404
 N562 N 0.68900 1.13787 0.63759
 N563 N 0.66817 1.11459 0.61745
 C564 C 0.63384 1.12986 0.60313
 N565 N 0.62118 1.16919 0.60947
 N566 N 0.64198 1.19245 0.62962
 C567 C 0.69594 1.20028 0.66822
 C568 C 0.71181 1.21744 0.68987
 C569 C 0.60900 1.10382 0.58347
 C570 C 0.58602 1.08301 0.56777
 C571 C 0.82331 0.32348 0.14400
 N572 N 0.81096 0.36297 0.13786
 N573 N 0.83183 0.38619 0.11770
 C574 C 0.86578 0.37063 0.10306
 N575 N 0.87800 0.33107 0.10909
 N576 N 0.85715 0.30788 0.12927
 C577 C 0.80359 0.30033 0.16819
 C578 C 0.78778 0.28312 0.18985
 C579 C 0.89072 0.39657 0.08339
 C580 C 0.91379 0.41730 0.06770
 C581 C 0.32386 0.82294 0.64403
 N582 N 0.35809 0.80763 0.62962
 N583 N 0.37889 0.83089 0.60947
 C584 C 0.36624 0.87023 0.60313
 N585 N 0.33190 0.88549 0.61744
 N586 N 0.31108 0.86222 0.63759
 C587 C 0.30412 0.79981 0.66821
 C588 C 0.28826 0.78265 0.68987
 C589 C 0.39107 0.89627 0.58347
 C590 C 0.41406 0.91707 0.56777
 C591 C 0.32167 1.16549 -0.14772
 N592 N 0.32403 1.12340 -0.14733
 N593 N 0.34756 1.10405 -0.12657
 C594 C 0.36975 1.12622 -0.10574
 N595 N 0.36735 1.16830 -0.10611
 N596 N 0.34382 1.18765 -0.12687
 C597 C 0.29912 1.18640 -0.17157
 C598 C 0.28247 1.20417 -0.19258
 C599 C 0.39505 1.10540 -0.08333
 C600 C 0.41557 1.08800 -0.06404
 C601 C 0.81778 0.66078 0.35146
 N602 N 0.82022 0.61871 0.35045
 N603 N 0.84318 0.59808 0.37088
 C604 C 0.86471 0.61894 0.39279
 N605 N 0.86221 0.66100 0.39383
 N606 N 0.83925 0.68162 0.37340
 C607 C 0.79609 0.68315 0.32792
 C608 C 0.78024 0.70204 0.30712
 C609 C 0.88960 0.59686 0.41476
 C610 C 0.90998 0.57874 0.43375
 C611 C 0.67836 1.16553 0.14774
 N612 N 0.65612 1.18769 0.12694
 N613 N 0.63259 1.16834 0.10618
 C614 C 0.63029 1.12625 0.10576
 N615 N 0.65257 1.10409 0.12653
 N616 N 0.67610 1.12344 0.14730
 C617 C 0.70092 1.18644 0.17159
 C618 C 0.71756 1.20421 0.19260
 C619 C 0.60500 1.10543 0.08335
 C620 C 0.58449 1.08802 0.06406
 C621 C 1.18225 0.66082 0.64855
 N622 N 1.17992 0.61875 0.64952
 N623 N 1.15695 0.59812 0.62908
 C624 C 1.13534 0.61898 0.60723
 N625 N 1.13773 0.66104 0.60623
 N626 N 1.16069 0.68166 0.62666
 C627 C 1.20395 0.68319 0.67210
 C628 C 1.21980 0.70208 0.69290
 C629 C 1.11045 0.59689 0.58526
 C630 C 1.09007 0.57876 0.56626
 C631 C 0.67839 0.83457 -0.14772
 N632 N 0.65618 0.81241 -0.12690
 N633 N 0.63265 0.83176 -0.10614
 C634 C 0.63031 0.87385 -0.10574
 N635 N 0.65257 0.89601 -0.12653
 N636 N 0.67611 0.87666 -0.14729
 C637 C 0.70095 0.81366 -0.17157
 C638 C 0.71759 0.79589 -0.19258
 C639 C 0.60502 0.89467 -0.08333
 C640 C 0.58451 0.91207 -0.06404
 C641 C 1.18228 0.33928 0.35147
 N642 N 1.16078 0.31844 0.37338
 N643 N 1.13782 0.33906 0.39382
 C644 C 1.13536 0.38112 0.39279
 N645 N 1.15692 0.40198 0.37091
 N646 N 1.17989 0.38135 0.35047
 C647 C 1.20398 0.31691 0.32792
 C648 C 1.21982 0.29802 0.30712
 C649 C 1.11047 0.40321 0.41476
 C650 C 1.09009 0.42133 0.43376
 C651 C 0.32170 0.83456 0.14774
 N652 N 0.32399 0.87665 0.14731
 N653 N 0.34753 0.89600 0.12655
 C654 C 0.36978 0.87384 0.10576
 N655 N 0.36744 0.83175 0.10616
 N656 N 0.34391 0.81240 0.12692
 C657 C 0.29915 0.81365 0.17159
 C658 C 0.28250 0.79589 0.19260
 C659 C 0.39507 0.89465 0.08335
 C660 C 0.41558 0.91206 0.06406
 C661 C 0.81781 0.33927 0.64856
 N662 N 0.82020 0.38134 0.64955
 N663 N 0.84317 0.40197 0.62912
 C664 C 0.86473 0.38111 0.60723
 N665 N 0.86228 0.33905 0.60621
 N666 N 0.83932 0.31843 0.62664
 C667 C 0.79611 0.31691 0.67210
 C668 C 0.78027 0.29802 0.69290
 C669 C 0.88962 0.40320 0.58526
 C670 C 0.91000 0.42132 0.56626
 C671 C 1.15407 1.17014 0.65779
 N672 N 1.11200 1.16534 0.65819
 N673 N 1.09255 1.14750 0.63464
 C674 C 1.11453 1.13436 0.60991
 N675 N 1.15657 1.13933 0.60948
 N676 N 1.17603 1.15716 0.63301
 C677 C 1.17536 1.18851 0.68317
 C678 C 1.19478 1.20448 0.70357
 C679 C 1.09428 1.11090 0.58640
 C680 C 1.07725 1.08856 0.56820
 C681 C 0.65362 0.67250 0.15668
 N682 N 0.67538 0.66004 0.13166
 N683 N 0.65587 0.64185 0.10829
 C684 C 0.61396 0.63594 0.10915
 N685 N 0.59217 0.64858 0.13412
 N686 N 0.61168 0.66677 0.15750
 C687 C 0.67504 0.69080 0.18205
 C688 C 0.69454 0.70643 0.20257
 C689 C 0.59377 0.61202 0.08584
 C690 C 0.57679 0.58932 0.06783
 C691 C 1.15414 0.83000 0.34224
 N692 N 1.11205 0.83463 0.34190
 N693 N 1.09261 0.85247 0.36545
 C694 C 1.11463 0.86579 0.39012
 N695 N 1.15669 0.86098 0.39048
 N696 N 1.17613 0.84314 0.36694
 C697 C 1.17541 0.81161 0.31686
 C698 C 1.19482 0.79562 0.29646
 C699 C 1.09437 0.88924 0.41363
 C700 C 1.07732 0.91158 0.43182
 C701 C 0.65369 0.32763 -0.15665
 N702 N 0.67548 0.34023 -0.13168
 N703 N 0.65598 0.35842 -0.10832
 C704 C 0.61404 0.36419 -0.10911
 N705 N 0.59222 0.35142 -0.13403
 N706 N 0.61173 0.33322 -0.15742
 C707 C 0.67510 0.30932 -0.18202
 C708 C 0.69458 0.29367 -0.20255
 C709 C 0.59384 0.38812 -0.08581
 C710 C 0.57686 0.41081 -0.06781
 C711 C 0.84593 1.17009 0.34223
 N712 N 0.82394 1.15700 0.36696
 N713 N 0.84338 1.13916 0.39050
 C714 C 0.88544 1.13430 0.39012
 N715 N 0.90745 1.14755 0.36543
 N716 N 0.88800 1.16540 0.34188
 C717 C 0.82465 1.18848 0.31685
 C718 C 0.80524 1.20447 0.29645
 C719 C 0.90568 1.11084 0.41363
 C720 C 0.92273 1.08850 0.43182
 C721 C 0.34638 0.67245 -0.15665
 N722 N 0.32459 0.65988 -0.13168
 N723 N 0.34409 0.64168 -0.10832
 C724 C 0.38602 0.63589 -0.10912
 N725 N 0.40783 0.64864 -0.13405
 N726 N 0.38833 0.66684 -0.15743
 C727 C 0.32497 0.69077 -0.18203
 C728 C 0.30549 0.70641 -0.20255
 C729 C 0.40621 0.61196 -0.08581
 C730 C 0.42319 0.58927 -0.06781
 C731 C 0.84600 0.82993 0.65779
 N732 N 0.82405 0.84283 0.63299
 N733 N 0.84350 0.86066 0.60946
 C734 C 0.88553 0.86572 0.60992
 N735 N 0.90751 0.85266 0.63468
 N736 N 0.88805 0.83481 0.65823
 C737 C 0.82471 0.81156 0.68317
 C738 C 0.80528 0.79558 0.70357
 C739 C 0.90577 0.88918 0.58640
 C740 C 0.92280 0.91152 0.56821
 C741 C 0.34644 0.32758 0.15668
 N742 N 0.32467 0.34006 0.13167
 N743 N 0.34417 0.35826 0.10830
 C744 C 0.38609 0.36414 0.10915
 N745 N 0.40789 0.35148 0.13411
 N746 N 0.38838 0.33328 0.15749
 C747 C 0.32502 0.30928 0.18205
 C748 C 0.30552 0.29364 0.20258
 C749 C 0.40628 0.38807 0.08584
 C750 C 0.42325 0.41076 0.06783
   
