data_POSCAR
  _audit_creation_date              2014-09-24
  _audit_creation_method            'ToBaCCo'
  _symmetry_space_group_name_H-M    'P1'
  _symmetry_Int_Tables_number       1
  _symmetry_cell_setting            triclinic
  loop_
  _symmetry_equiv_pos_as_xyz
 x,y,z
_cell_length_a 34.3359
_cell_length_b 31.4918
_cell_length_c 18.3332
_cell_angle_alpha 89.478900
_cell_angle_beta 90.729700
_cell_angle_gamma 89.136000
loop_
  _atom_site_label
  _atom_site_type_symbol
  _atom_site_fract_x
  _atom_site_fract_y
  _atom_site_fract_z
C1 C 1.28170 0.21114 0.27286
 C2 C 1.24675 0.22895 0.24641
 C3 C 1.21578 0.20254 0.22804
 C4 C 1.22003 0.15811 0.23333
 C5 C 1.25590 0.14050 0.25929
 C6 C 1.28663 0.16719 0.28246
 C7 C 1.24370 0.27559 0.23950
 C8 C 1.27370 0.29781 0.20505
 C9 C 1.27614 0.34233 0.20979
 C10 C 1.24751 0.36356 0.25014
 C11 C 1.21612 0.34232 0.28060
 C12 C 1.21404 0.29812 0.27491
 H13 H 1.30569 0.23202 0.28509
 H14 H 1.18866 0.21653 0.20778
 H15 H 1.29510 0.27980 0.17483
 H16 H 1.19065 0.28129 0.30107
 H17 H 1.25937 0.10630 0.26309
 H18 H 1.24989 0.39716 0.26028
 C19 C 0.78048 -0.28901 0.25464
 C20 C 0.74729 -0.27019 0.22188
 C21 C 0.71656 -0.29578 0.19872
 C22 C 0.71744 -0.33934 0.21416
 C23 C 0.74798 -0.35634 0.25687
 C24 C 0.78069 -0.33215 0.27528
 C25 C 0.74201 -0.22375 0.22456
 C26 C 0.77186 -0.19640 0.20435
 C27 C 0.76972 -0.15273 0.21983
 C28 C 0.73630 -0.13709 0.25695
 C29 C 0.70525 -0.16444 0.27396
 C30 C 0.70860 -0.20738 0.25744
 H31 H 0.80553 -0.26954 0.26579
 H32 H 0.69163 -0.28154 0.17047
 H33 H 0.79713 -0.20951 0.17726
 H34 H 0.68554 -0.22858 0.27350
 H35 H 0.74611 -0.38903 0.27539
 H36 H 0.73436 -0.10408 0.27264
 C37 C 0.77774 0.19793 -0.25801
 C38 C 0.74741 0.22522 -0.28146
 C39 C 0.71239 0.20842 -0.30685
 C40 C 0.70671 0.16470 -0.30745
 C41 C 0.73704 0.13704 -0.28284
 C42 C 0.77273 0.15375 -0.25700
 C43 C 0.75030 0.27148 -0.27320
 C44 C 0.78034 0.29401 -0.30644
 C45 C 0.78094 0.33874 -0.30353
 C46 C 0.75195 0.35968 -0.26300
 C47 C 0.72227 0.33744 -0.22868
 C48 C 0.72141 0.29332 -0.23449
 H49 H 0.80434 0.21119 -0.23604
 H50 H 0.68884 0.22965 -0.32434
 H51 H 0.80172 0.27669 -0.33790
 H52 H 0.69826 0.27586 -0.20869
 H53 H 0.73235 0.10312 -0.28074
 H54 H 0.75269 0.39377 -0.25641
 C55 C 1.27991 -0.29590 -0.19904
 C56 C 1.24833 -0.27130 -0.22626
 C57 C 1.21405 -0.29149 -0.24888
 C58 C 1.21208 -0.33587 -0.24735
 C59 C 1.24475 -0.35985 -0.22525
 C60 C 1.27850 -0.34059 -0.19737
 C61 C 1.25233 -0.22480 -0.23537
 C62 C 1.28617 -0.20869 -0.26653
 C63 C 1.29022 -0.16519 -0.27973
 C64 C 1.25937 -0.13715 -0.26036
 C65 C 1.22540 -0.15260 -0.22562
 C66 C 1.22250 -0.19674 -0.21439
 H67 H 1.30526 -0.27978 -0.17801
 H68 H 1.18947 -0.27292 -0.26980
 H69 H 1.30950 -0.23029 -0.28179
 H70 H 1.19714 -0.20946 -0.18782
 H71 H 1.24384 -0.39395 -0.23213
 H72 H 1.26199 -0.10355 -0.27201
 C73 C 0.20360 0.28248 0.73144
 C74 C 0.22577 0.24753 0.75526
 C75 C 0.20743 0.21014 0.77668
 C76 C 0.16666 0.20666 0.77172
 C77 C 0.14447 0.24261 0.74677
 C78 C 0.16322 0.28066 0.72740
 C79 C 0.26832 0.25076 0.75789
 C80 C 0.28515 0.28597 0.79094
 C81 C 0.32567 0.28951 0.79577
 C82 C 0.34898 0.25726 0.76614
 C83 C 0.33263 0.22479 0.72492
 C84 C 0.29198 0.22078 0.72303
 H85 H 0.21796 0.31119 0.71380
 H86 H 0.22521 0.18325 0.79494
 H87 H 0.26642 0.31131 0.81043
 H88 H 0.27864 0.19532 0.69271
 H89 H 0.11301 0.24120 0.74297
 H90 H 0.38036 0.25835 0.77309
 C91 C 0.69553 0.77943 0.74595
 C92 C 0.72177 0.74742 0.76756
 C93 C 0.70789 0.70964 0.79673
 C94 C 0.66803 0.70399 0.80514
 C95 C 0.64198 0.73810 0.79034
 C96 C 0.65527 0.77641 0.75991
 C97 C 0.76368 0.75230 0.75557
 C98 C 0.78294 0.78906 0.77744
 C99 C 0.82324 0.79280 0.76805
 C100 C 0.84398 0.75890 0.73492
 C101 C 0.82430 0.72211 0.71126
 C102 C 0.78452 0.71906 0.72414
 H103 H 0.70690 0.80588 0.71519
 H104 H 0.72817 0.68453 0.81336
 H105 H 0.76680 0.81401 0.80471
 H106 H 0.76954 0.69021 0.70973
 H107 H 0.61137 0.73414 0.80162
 H108 H 0.87521 0.76092 0.72849
 C109 C 0.71687 0.29344 0.28071
 C110 C 0.73236 0.25424 0.30515
 C111 C 0.70698 0.22138 0.32349
 C112 C 0.66652 0.22814 0.31755
 C113 C 0.65161 0.26738 0.29314
 C114 C 0.67683 0.29967 0.27333
 C115 C 0.77504 0.24806 0.30473
 C116 C 0.79833 0.28155 0.32759
 C117 C 0.83772 0.28294 0.31060
 C118 C 0.85496 0.24794 0.27443
 C119 C 0.83215 0.21248 0.25483
 C120 C 0.79220 0.21298 0.27032
 H121 H 0.73595 0.31833 0.26212
 H122 H 0.71848 0.19070 0.34115
 H123 H 0.78494 0.30856 0.35433
 H124 H 0.77413 0.18736 0.25108
 H125 H 0.62044 0.27191 0.28555
 H126 H 0.88546 0.24869 0.26024
 C127 C 0.21397 0.78761 0.24486
 C128 C 0.23282 0.75129 0.27344
 C129 C 0.21133 0.71798 0.30116
 C130 C 0.17070 0.71857 0.29679
 C131 C 0.15144 0.75544 0.26770
 C132 C 0.17304 0.79009 0.23956
 C133 C 0.27471 0.74472 0.26338
 C134 C 0.30143 0.77368 0.29034
 C135 C 0.34077 0.77150 0.26950
 C136 C 0.35346 0.73681 0.22831
 C137 C 0.32699 0.70576 0.20643
 C138 C 0.28771 0.71009 0.22288
 H139 H 0.23143 0.81354 0.22485
 H140 H 0.22677 0.68969 0.32071
 H141 H 0.29108 0.79857 0.32591
 H142 H 0.26720 0.68699 0.20268
 H143 H 0.11990 0.75634 0.26427
 H144 H 0.38370 0.73390 0.21273
 O145 O 1.05284 0.07503 0.13762
 O146 O 1.09569 0.03710 0.06768
 C147 C 1.08794 0.06448 0.11794
 O148 O 0.94133 -0.07250 0.13488
 O149 O 0.89879 -0.03316 0.06391
 C150 C 0.90592 -0.06064 0.11521
 O151 O 1.05066 -0.07542 0.13687
 O152 O 1.09468 -0.03752 0.07048
 C153 C 1.08600 -0.06717 0.11817
 O154 O 0.94581 0.08206 0.13161
 O155 O 0.90162 0.04509 0.06277
 C156 C 0.91081 0.07470 0.10959
 Zr157 Zr 0.99790 0.05563 0.09456
 O158 O 0.99912 0.06011 0.20972
 O159 O 0.99850 0.12238 0.08087
 Zr160 Zr 0.99720 -0.05116 0.09729
 O161 O 0.99622 -0.04884 0.21268
 O162 O 0.99407 -0.11829 0.10034
 O163 O 1.03278 0.00178 0.11044
 O164 O 0.96326 0.00277 0.10890
 O165 O 0.93756 0.07739 -0.12515
 O166 O 0.89697 0.03455 -0.06107
 C167 C 0.90271 0.06490 -0.10735
 O168 O 1.05538 -0.06950 -0.12899
 O169 O 1.09685 -0.03134 -0.05785
 C170 C 1.09049 -0.05769 -0.11011
 O171 O 0.94659 -0.07958 -0.11848
 O172 O 0.90113 -0.04086 -0.05477
 C173 C 0.91121 -0.07159 -0.09880
 O174 O 1.04615 0.07660 -0.13348
 O175 O 1.09225 0.04120 -0.06299
 C176 C 1.08189 0.06801 -0.11515
 Zr177 Zr 0.99433 0.05556 -0.08836
 O178 O 0.99035 0.06162 -0.20307
 O179 O 0.99358 0.12220 -0.07575
 Zr180 Zr 0.99898 -0.05121 -0.08741
 O181 O 0.99317 -0.04965 -0.20258
 O182 O 1.00562 -0.11811 -0.08924
 Zr183 Zr 1.05606 0.00218 0.00438
 Zr184 Zr 0.93854 0.00171 0.00352
 O185 O 0.96242 0.00125 -0.10162
 O186 O 1.03151 0.00287 -0.10202
 O187 O 0.96098 0.06357 0.00329
 O188 O 1.03216 -0.05898 0.00559
 O189 O 1.03054 0.06334 0.00245
 O190 O 0.96381 -0.05976 0.00439
 H191 H 0.94547 0.00365 0.15097
 H192 H 1.05006 -0.08388 0.00381
 H193 H 0.94447 0.00021 -0.14430
 H194 H 1.04776 0.08832 0.00241
 H195 H 1.01526 -0.13006 0.07019
 H196 H 0.99011 -0.12950 -0.04857
 H197 H 1.01645 -0.03568 -0.22238
 H198 H 0.99593 0.03318 -0.22291
 H199 H 0.99165 0.13439 -0.12569
 H200 H 1.00190 0.13437 0.13030
 H201 H 0.98605 0.03492 0.22975
 H202 H 1.01854 -0.03165 0.22907
 O203 O 1.05349 0.57446 0.64795
 O204 O 1.09767 0.53953 0.57584
 C205 C 1.08867 0.56540 0.62803
 O206 O 0.94374 0.42594 0.61908
 O207 O 0.90180 0.46932 0.55399
 C208 C 0.90884 0.43831 0.59902
 O209 O 1.05108 0.42316 0.62947
 O210 O 1.09643 0.46184 0.56685
 C211 C 1.08641 0.43085 0.61103
 O212 O 0.94663 0.58183 0.63338
 O213 O 0.90291 0.54698 0.56125
 C214 C 0.91153 0.57550 0.61002
 Zr215 Zr 1.00000 0.55546 0.60198
 O216 O 1.00081 0.54854 0.71719
 O217 O 1.00133 0.62259 0.60497
 Zr218 Zr 0.99909 0.44993 0.58941
 O219 O 0.99510 0.44804 0.70459
 O220 O 1.00150 0.38281 0.58348
 O221 O 1.03499 0.50126 0.61151
 O222 O 0.96476 0.50295 0.60694
 O223 O 0.94603 0.59130 0.38631
 O224 O 0.90274 0.54610 0.43998
 C225 C 0.91113 0.57903 0.40068
 O226 O 1.05768 0.44062 0.36488
 O227 O 1.09934 0.47419 0.44250
 C228 C 1.09252 0.44977 0.38776
 O229 O 0.95055 0.43055 0.37003
 O230 O 0.90488 0.46648 0.43736
 C231 C 0.91525 0.43714 0.39095
 O232 O 1.05250 0.58582 0.37905
 O233 O 1.09740 0.54685 0.44662
 C234 C 1.08785 0.57590 0.39759
 Zr235 Zr 0.99998 0.56437 0.41947
 O236 O 0.99622 0.57482 0.30554
 O237 O 1.00123 0.63024 0.44071
 Zr238 Zr 1.00209 0.45886 0.40466
 O239 O 0.99686 0.46910 0.29051
 O240 O 1.00798 0.39289 0.38642
 Zr241 Zr 1.05920 0.50623 0.50689
 Zr242 Zr 0.94172 0.50726 0.50034
 O243 O 0.96650 0.51206 0.39651
 O244 O 1.03628 0.51219 0.39968
 O245 O 0.96526 0.56828 0.51008
 O246 O 1.03409 0.44590 0.49789
 O247 O 1.03427 0.56734 0.51286
 O248 O 0.96663 0.44597 0.49409
 H249 H 0.94616 0.50195 0.64773
 H250 H 1.05068 0.42009 0.49411
 H251 H 0.94864 0.51346 0.35363
 H252 H 1.05145 0.59227 0.51624
 H253 H 0.98040 0.37388 0.54995
 H254 H 1.00082 0.37850 0.43234
 H255 H 1.02236 0.47869 0.27258
 H256 H 1.00801 0.54962 0.28243
 H257 H 1.00150 0.64470 0.39249
 H258 H 1.00184 0.63055 0.65719
 H259 H 0.97442 0.54106 0.73352
 H260 H 1.01654 0.46522 0.72472
 O261 O 0.56497 -0.05674 0.64046
 O262 O 0.53336 -0.10677 0.57218
 C263 C 0.55860 -0.09570 0.62195
 O264 O 0.42519 0.05989 0.61723
 O265 O 0.46052 0.10676 0.55003
 C266 C 0.43387 0.09808 0.59716
 O267 O 0.42495 -0.05519 0.62592
 O268 O 0.46091 -0.10577 0.56603
 C269 C 0.43266 -0.09418 0.60986
 O270 O 0.56663 0.05924 0.62839
 O271 O 0.53448 0.10617 0.55088
 C272 C 0.56113 0.09655 0.60032
 Zr273 Zr 0.54453 0.00116 0.59469
 O274 O 0.54240 0.00677 0.70962
 O275 O 0.60593 0.00359 0.59183
 Zr276 Zr 0.44824 0.00090 0.58583
 O277 O 0.45015 0.00623 0.70100
 O278 O 0.38661 -0.00134 0.58399
 O279 O 0.49668 -0.03785 0.60760
 O280 O 0.49560 0.03926 0.60056
 O281 O 0.57056 0.05783 0.37650
 O282 O 0.53019 0.10599 0.43236
 C283 C 0.55935 0.09641 0.39087
 O284 O 0.43301 -0.06235 0.36659
 O285 O 0.46731 -0.10945 0.43996
 C286 C 0.44080 -0.10033 0.39061
 O287 O 0.42648 0.05236 0.36234
 O288 O 0.45727 0.10326 0.42878
 C289 C 0.43075 0.09131 0.38142
 O290 O 0.57179 -0.05856 0.37607
 O291 O 0.53832 -0.10734 0.44437
 C292 C 0.56529 -0.09691 0.39736
 Zr293 Zr 0.54880 -0.00127 0.41231
 O294 O 0.55483 -0.00493 0.29771
 O295 O 0.60976 -0.00020 0.43037
 Zr296 Zr 0.45280 -0.00314 0.40142
 O297 O 0.46196 -0.00249 0.28730
 O298 O 0.39212 -0.00209 0.38226
 Zr299 Zr 0.49940 -0.06570 0.50350
 Zr300 Zr 0.49655 0.06381 0.49366
 O301 O 0.49983 0.03569 0.39058
 O302 O 0.50198 -0.04157 0.39573
 O303 O 0.55325 0.03780 0.50148
 O304 O 0.44341 -0.03755 0.49545
 O305 O 0.55460 -0.03738 0.50676
 O306 O 0.44132 0.03613 0.49021
 H307 H 0.49534 0.05933 0.64190
 H308 H 0.41960 -0.05484 0.49399
 H309 H 0.49947 0.05492 0.34750
 H310 H 0.57865 -0.05508 0.51048
 H311 H 0.37692 0.02056 0.54893
 H312 H 0.37982 0.00293 0.42994
 H313 H 0.47395 -0.03007 0.27380
 H314 H 0.53492 0.01396 0.27471
 H315 H 0.62185 -0.00071 0.38157
 H316 H 0.61518 0.00373 0.64331
 H317 H 0.52689 -0.01706 0.72850
 H318 H 0.45987 -0.02111 0.72179
 O319 O 0.55477 0.56720 0.13989
 O320 O 0.59767 0.52825 0.07266
 C321 C 0.58992 0.55584 0.12219
 O322 O 0.44508 0.41837 0.13158
 O323 O 0.40381 0.45991 0.06147
 C324 C 0.41044 0.43099 0.11072
 O325 O 0.55382 0.41823 0.14141
 O326 O 0.59775 0.45588 0.07422
 C327 C 0.58896 0.42771 0.12329
 O328 O 0.44648 0.57669 0.11847
 O329 O 0.40405 0.53621 0.05197
 C330 C 0.41209 0.56778 0.09422
 Zr331 Zr 0.50041 0.54803 0.09537
 O332 O 0.49341 0.54798 0.20998
 O333 O 0.50369 0.61505 0.09137
 Zr334 Zr 0.50014 0.44141 0.09966
 O335 O 0.49557 0.44740 0.21428
 O336 O 0.49959 0.37450 0.11074
 O337 O 0.53520 0.49422 0.11382
 O338 O 0.46583 0.49561 0.10838
 O339 O 0.44663 0.56975 -0.12993
 O340 O 0.40470 0.52941 -0.06383
 C341 C 0.41167 0.55808 -0.11248
 O342 O 0.55906 0.42174 -0.12547
 O343 O 0.59981 0.45917 -0.05189
 C344 C 0.59376 0.43286 -0.10415
 O345 O 0.44920 0.41587 -0.11968
 O346 O 0.40511 0.45654 -0.05779
 C347 C 0.41380 0.42640 -0.10233
 O348 O 0.55581 0.56857 -0.12436
 O349 O 0.59862 0.53115 -0.04979
 C350 C 0.59031 0.56000 -0.09854
 Zr351 Zr 0.50167 0.54641 -0.09008
 O352 O 0.50276 0.54011 -0.20464
 O353 O 0.50186 0.61345 -0.09770
 Zr354 Zr 0.50332 0.43981 -0.08535
 O355 O 0.50008 0.43792 -0.20060
 O356 O 0.50862 0.37275 -0.08249
 Zr357 Zr 0.55927 0.49342 0.00857
 Zr358 Zr 0.44384 0.49445 0.00106
 O359 O 0.46864 0.49299 -0.10317
 O360 O 0.53762 0.49311 -0.09949
 O361 O 0.46698 0.55577 0.00002
 O362 O 0.53547 0.43229 0.00940
 O363 O 0.53433 0.55482 0.00477
 O364 O 0.46745 0.43231 0.00504
 H365 H 0.44705 0.49723 0.14892
 H366 H 0.55337 0.40734 0.00933
 H367 H 0.45146 0.49232 -0.14698
 H368 H 0.55088 0.58024 0.00680
 H369 H 0.51226 0.36249 0.06731
 H370 H 0.48755 0.36207 -0.05121
 H371 H 0.51730 0.46037 -0.21919
 H372 H 0.50172 0.56941 -0.22482
 H373 H 0.49292 0.62420 -0.05015
 H374 H 0.50322 0.62482 0.14261
 H375 H 0.51562 0.53175 0.23168
 H376 H 0.52069 0.45789 0.23343
 C377 C 1.14192 0.11512 0.10781
 C378 C 1.17411 0.13679 0.13487
 C379 C 1.18717 0.13110 0.20724
 C380 C 1.16671 0.10261 0.25303
 C381 C 1.13398 0.08023 0.22496
 C382 C 1.12150 0.08671 0.15166
 C383 C 1.11478 0.05201 0.27154
 N384 N 1.12696 0.04722 0.34183
 N385 N 1.15696 0.06874 0.36855
 C386 C 1.17713 0.09633 0.32675
 H387 H 1.13229 0.12127 0.05231
 H388 H 1.18877 0.15873 0.09898
 H389 H 1.09018 0.03383 0.25275
 H390 H 1.20093 0.11318 0.35175
 C391 C 1.13787 0.62085 0.62207
 C392 C 1.16645 0.64631 0.65254
 C393 C 1.17725 0.64154 0.72601
 C394 C 1.15755 0.61167 0.77017
 C395 C 1.12923 0.58497 0.73843
 C396 C 1.12000 0.58925 0.66340
 C397 C 1.11114 0.55478 0.78307
 N398 N 1.12018 0.55251 0.85525
 N399 N 1.14594 0.57843 0.88557
 C400 C 1.16479 0.60799 0.84561
 H401 H 1.12898 0.62635 0.56606
 H402 H 1.18083 0.66926 0.61815
 H403 H 1.08996 0.53304 0.76126
 H404 H 1.18465 0.62891 0.87331
 C405 C 0.62363 0.12837 0.57272
 C406 C 0.66063 0.14007 0.59709
 C407 C 0.66751 0.14964 0.67050
 C408 C 0.63573 0.14986 0.71921
 C409 C 0.59808 0.13809 0.69417
 C410 C 0.59206 0.12646 0.62055
 C411 C 0.56756 0.13730 0.74439
 N412 N 0.57428 0.14819 0.81480
 N413 N 0.60949 0.15946 0.83828
 C414 C 0.64043 0.16063 0.79302
 H415 H 0.62051 0.11710 0.51739
 H416 H 0.68434 0.14067 0.55867
 H417 H 0.53838 0.12863 0.72785
 H418 H 0.66841 0.16968 0.81520
 C419 C 0.61641 0.61864 0.18489
 C420 C 0.64708 0.64502 0.20307
 C421 C 0.68566 0.63268 0.18961
 C422 C 0.69341 0.59224 0.15903
 C423 C 0.66257 0.56359 0.14842
 C424 C 0.62335 0.57818 0.15582
 C425 C 0.67244 0.52129 0.13111
 N426 N 0.70973 0.51042 0.11553
 N427 N 0.73800 0.53882 0.11717
 C428 C 0.73111 0.57937 0.13799
 H429 H 0.58697 0.63063 0.19193
 H430 H 0.64055 0.67552 0.22728
 H431 H 0.65134 0.49642 0.13222
 H432 H 0.75515 0.60112 0.13765
 C433 C 0.87456 -0.11937 0.18628
 C434 C 0.84183 -0.14107 0.21090
 C435 C 0.80358 -0.12523 0.19868
 C436 C 0.79917 -0.08470 0.16466
 C437 C 0.83272 -0.06049 0.14746
 C438 C 0.87089 -0.07950 0.15204
 C439 C 0.82651 -0.01769 0.12687
 N440 N 0.78995 -0.00244 0.11383
 N441 N 0.75896 -0.02687 0.12092
 C442 C 0.76232 -0.06749 0.14535
 H443 H 0.90293 -0.13453 0.19263
 H444 H 0.84655 -0.17148 0.23790
 H445 H 0.85003 0.00432 0.12355
 H446 H 0.73611 -0.08582 0.14854
 C447 C 0.88059 0.37200 0.64740
 C448 C 0.84942 0.34662 0.66657
 C449 C 0.81089 0.36247 0.66343
 C450 C 0.80431 0.40428 0.63499
 C451 C 0.83611 0.43161 0.62412
 C452 C 0.87482 0.41466 0.62676
 C453 C 0.82754 0.47502 0.61130
 N454 N 0.79037 0.48815 0.59757
 N455 N 0.76110 0.46099 0.59701
 C456 C 0.76685 0.41945 0.61439
 H457 H 0.90960 0.35799 0.64919
 H458 H 0.85607 0.31503 0.68742
 H459 H 0.84956 0.49893 0.61390
 H460 H 0.74209 0.39866 0.61241
 C461 C 0.38930 -0.11384 0.71111
 C462 C 0.35251 -0.12627 0.73448
 C463 C 0.32807 -0.15016 0.68972
 C464 C 0.34250 -0.16365 0.62110
 C465 C 0.38043 -0.15156 0.59778
 C466 C 0.40347 -0.12426 0.64144
 C467 C 0.39349 -0.16674 0.53058
 N468 N 0.37008 -0.19109 0.48866
 N469 N 0.33428 -0.20108 0.50908
 C470 C 0.31967 -0.18810 0.57360
 H471 H 0.40590 -0.09309 0.74618
 H472 H 0.34286 -0.11671 0.78801
 H473 H 0.42244 -0.16062 0.51183
 H474 H 0.29024 -0.19681 0.58687
 C475 C 0.37831 0.36746 0.16056
 C476 C 0.34533 0.34527 0.18056
 C477 C 0.30813 0.36501 0.18100
 C478 C 0.30521 0.40865 0.15893
 C479 C 0.33943 0.43217 0.14749
 C480 C 0.37599 0.41074 0.14326
 C481 C 0.33558 0.47650 0.13871
 N482 N 0.29988 0.49475 0.12930
 N483 N 0.26781 0.47161 0.12874
 C484 C 0.26929 0.42920 0.14196
 H485 H 0.40590 0.35042 0.15805
 H486 H 0.34975 0.31267 0.19818
 H487 H 0.36053 0.49678 0.13989
 H488 H 0.24245 0.41184 0.13781
 C489 C 0.87159 0.10370 -0.21326
 C490 C 0.84043 0.12370 -0.25049
 C491 C 0.80333 0.12670 -0.21973
 C492 C 0.79780 0.10939 -0.14911
 C493 C 0.82947 0.08908 -0.11039
 C494 C 0.86730 0.08597 -0.14314
 C495 C 0.82192 0.07446 -0.03897
 N496 N 0.78612 0.07918 -0.00969
 N497 N 0.75687 0.09795 -0.04617
 C498 C 0.76152 0.11340 -0.11447
 H499 H 0.89955 0.10217 -0.23991
 H500 H 0.84550 0.13770 -0.30367
 H501 H 0.84363 0.06021 -0.00442
 H502 H 0.73676 0.12905 -0.14043
 C503 C 0.85479 0.58462 0.31924
 C504 C 0.82310 0.60625 0.28908
 C505 C 0.81318 0.64796 0.31043
 C506 C 0.83668 0.66768 0.36517
 C507 C 0.87036 0.64600 0.39294
 C508 C 0.87876 0.60414 0.37003
 C509 C 0.89347 0.66601 0.44608
 N510 N 0.88269 0.70454 0.47177
 N511 N 0.84998 0.72392 0.44914
 C512 C 0.82630 0.70654 0.39812
 H513 H 0.86118 0.55252 0.30154
 H514 H 0.80703 0.59025 0.24647
 H515 H 0.91953 0.65104 0.46867
 H516 H 0.79888 0.72253 0.38673
 C517 C 0.37898 0.10459 0.28844
 C518 C 0.34150 0.11867 0.27006
 C519 C 0.32314 0.15107 0.30906
 C520 C 0.34429 0.16965 0.36840
 C521 C 0.38322 0.15580 0.38581
 C522 C 0.39978 0.12055 0.34907
 C523 C 0.40373 0.17765 0.44015
 N524 N 0.38576 0.20881 0.47811
 N525 N 0.34843 0.21896 0.46691
 C526 C 0.32695 0.19995 0.41450
 H527 H 0.39098 0.07875 0.25672
 H528 H 0.32726 0.10470 0.22316
 H529 H 0.43412 0.17153 0.45162
 H530 H 0.29644 0.20856 0.40996
 C531 C 0.38143 0.62165 -0.17302
 C532 C 0.34905 0.64761 -0.18843
 C533 C 0.31094 0.63413 -0.17336
 C534 C 0.30654 0.59323 -0.14079
 C535 C 0.33874 0.56489 -0.13585
 C536 C 0.37706 0.58042 -0.14531
 C537 C 0.33117 0.52197 -0.12009
 N538 N 0.29555 0.51043 -0.09664
 N539 N 0.26692 0.53891 -0.08910
 C540 C 0.27141 0.58002 -0.10930
 H541 H 0.41016 0.63441 -0.18142
 H542 H 0.35426 0.67807 -0.21399
 H543 H 0.35295 0.49746 -0.12748
 H544 H 0.24760 0.60203 -0.10047
 C545 C 1.12139 -0.11431 -0.18759
 C546 C 1.15358 -0.13675 -0.21486
 C547 C 1.19218 -0.12413 -0.20082
 C548 C 1.19754 -0.08605 -0.16112
 C549 C 1.16462 -0.06071 -0.14024
 C550 C 1.12582 -0.07667 -0.14800
 C551 C 1.17222 -0.02006 -0.11251
 N552 N 1.20918 -0.00834 -0.09699
 N553 N 1.23940 -0.03423 -0.10819
 C554 C 1.23484 -0.07271 -0.13922
 H555 H 1.09270 -0.12726 -0.19645
 H556 H 1.14813 -0.16528 -0.24566
 H557 H 1.14962 0.00328 -0.10529
 H558 H 1.26047 -0.09249 -0.14532
 C559 C 1.11811 0.39310 0.30779
 C560 C 1.14714 0.36453 0.28740
 C561 C 1.18504 0.36789 0.31514
 C562 C 1.19384 0.40101 0.36418
 C563 C 1.16558 0.43300 0.37827
 C564 C 1.12628 0.42724 0.35428
 C565 C 1.17821 0.46934 0.41584
 N566 N 1.21460 0.47040 0.44526
 N567 N 1.23961 0.43804 0.43867
 C568 C 1.23044 0.40334 0.39932
 H569 H 1.08882 0.38778 0.28769
 H570 H 1.14001 0.33986 0.24886
 H571 H 1.16046 0.49767 0.41997
 H572 H 1.25190 0.37800 0.39522
 C573 C 0.60213 -0.12285 0.29239
 C574 C 0.63854 -0.13348 0.26399
 C575 C 0.66848 -0.14987 0.30894
 C576 C 0.66029 -0.15849 0.38329
 C577 C 0.62307 -0.14776 0.41222
 C578 C 0.59413 -0.12779 0.36715
 C579 C 0.61653 -0.15654 0.48614
 N580 N 0.64513 -0.17462 0.52823
 N581 N 0.67998 -0.18430 0.50141
 C582 C 0.68854 -0.17686 0.43047
 H583 H 0.58093 -0.10723 0.25657
 H584 H 0.64358 -0.12829 0.20639
 H585 H 0.58865 -0.15031 0.51022
 H586 H 0.71740 -0.18513 0.41168
 C587 C 0.62169 0.37810 -0.18556
 C588 C 0.65220 0.35362 -0.21248
 C589 C 0.69073 0.36115 -0.19129
 C590 C 0.69857 0.39432 -0.14186
 C591 C 0.66808 0.42229 -0.12030
 C592 C 0.62851 0.41241 -0.13877
 C593 C 0.67904 0.45888 -0.08135
 N594 N 0.71633 0.46357 -0.05802
 N595 N 0.74385 0.43473 -0.07182
 C596 C 0.73623 0.40025 -0.11277
 H597 H 0.59236 0.36972 -0.20163
 H598 H 0.64560 0.32867 -0.25083
 H599 H 0.65939 0.48486 -0.07118
 H600 H 0.75970 0.37777 -0.12221
 C601 C 1.14179 0.11187 -0.11503
 C602 C 1.16071 0.14784 -0.14144
 C603 C 1.14916 0.16775 -0.20784
 C604 C 1.12166 0.14662 -0.25286
 C605 C 1.10346 0.10926 -0.22665
 C606 C 1.11112 0.09403 -0.15447
 C607 C 1.07850 0.08745 -0.27441
 N608 N 1.07173 0.10242 -0.34298
 N609 N 1.08866 0.13738 -0.36756
 C610 C 1.11358 0.15970 -0.32533
 H611 H 1.14941 0.09976 -0.06131
 H612 H 1.18262 0.16203 -0.10671
 H613 H 1.06539 0.05780 -0.25866
 H614 H 1.12772 0.18656 -0.34993
 C615 C 1.14536 0.62238 0.40537
 C616 C 1.16206 0.66049 0.38336
 C617 C 1.15137 0.68077 0.31673
 C618 C 1.12645 0.65867 0.26793
 C619 C 1.11011 0.61950 0.29039
 C620 C 1.11719 0.60314 0.36200
 C621 C 1.08751 0.59697 0.23968
 N622 N 1.08135 0.61276 0.17147
 N623 N 1.09672 0.64928 0.15014
 C624 C 1.11927 0.67251 0.19551
 H625 H 1.15276 0.60929 0.45845
 H626 H 1.18244 0.67528 0.42054
 H627 H 1.07575 0.56625 0.25308
 H628 H 1.13212 0.70078 0.17335
 C629 C 0.58753 0.16715 0.40774
 C630 C 0.61518 0.19761 0.39277
 C631 C 0.63911 0.19377 0.33210
 C632 C 0.63367 0.15991 0.28302
 C633 C 0.60505 0.12906 0.29759
 C634 C 0.58315 0.13166 0.36278
 C635 C 0.59855 0.09762 0.24491
 N636 N 0.62041 0.09630 0.18387
 N637 N 0.64801 0.12459 0.17132
 C638 C 0.65526 0.15646 0.21854
 H639 H 0.57077 0.17044 0.45709
 H640 H 0.61834 0.22417 0.42946
 H641 H 0.57549 0.07500 0.25006
 H642 H 0.67750 0.17901 0.20475
 C643 C 0.61474 0.62997 -0.07939
 C644 C 0.63132 0.66648 -0.10609
 C645 C 0.65436 0.66531 -0.16843
 C646 C 0.66198 0.62559 -0.20302
 C647 C 0.64402 0.58845 -0.17608
 C648 C 0.61942 0.59142 -0.11556
 C649 C 0.64993 0.54987 -0.21234
 N650 N 0.67245 0.54863 -0.27249
 N651 N 0.68875 0.58349 -0.29915
 C652 C 0.68399 0.62189 -0.26716
 H653 H 0.59570 0.63255 -0.03289
 H654 H 0.62578 0.69609 -0.07801
 H655 H 0.63687 0.52081 -0.19325
 H656 H 0.69685 0.64904 -0.29328
 C657 C 0.89130 -0.14582 -0.10987
 C658 C 0.87231 -0.17863 -0.14561
 C659 C 0.84369 -0.17012 -0.19904
 C660 C 0.83366 -0.12688 -0.21518
 C661 C 0.85309 -0.09333 -0.17823
 C662 C 0.88259 -0.10297 -0.12580
 C663 C 0.84317 -0.05118 -0.19698
 N664 N 0.81554 -0.04308 -0.24896
 N665 N 0.79757 -0.07425 -0.28393
 C666 C 0.80581 -0.11574 -0.26920
 H667 H 0.91419 -0.15403 -0.07076
 H668 H 0.88011 -0.21114 -0.13129
 H669 H 0.85703 -0.02466 -0.17068
 H670 H 0.79091 -0.13953 -0.30067
 C671 C 0.87301 0.37688 0.41910
 C672 C 0.85872 0.33709 0.40021
 C673 C 0.85823 0.32332 0.32742
 C674 C 0.87080 0.35176 0.27231
 C675 C 0.88576 0.39210 0.29181
 C676 C 0.88761 0.40443 0.36603
 C677 C 0.89830 0.41929 0.23590
 N678 N 0.89551 0.40713 0.16530
 N679 N 0.88101 0.36968 0.14691
 C680 C 0.86843 0.34172 0.19781
 H681 H 0.87503 0.38497 0.47627
 H682 H 0.84807 0.31658 0.44310
 H683 H 0.90958 0.45042 0.24772
 H684 H 0.85658 0.31210 0.17935
 C685 C 0.42973 -0.17491 0.34923
 C686 C 0.40584 -0.20547 0.31748
 C687 C 0.36809 -0.19459 0.29168
 C688 C 0.35503 -0.15197 0.29710
 C689 C 0.37591 -0.12406 0.34156
 C690 C 0.41514 -0.13390 0.36185
 C691 C 0.35588 -0.08787 0.36637
 N692 N 0.32130 -0.07595 0.33536
 N693 N 0.30496 -0.09878 0.28280
 C694 C 0.32085 -0.13637 0.26210
 H695 H 0.45924 -0.18358 0.36555
 H696 H 0.41676 -0.23781 0.31424
 H697 H 0.36675 -0.07022 0.41203
 H698 H 0.30621 -0.15424 0.22004
 C699 C 0.39223 0.37980 -0.19940
 C700 C 0.37294 0.34392 -0.22089
 C701 C 0.34308 0.32675 -0.17866
 C702 C 0.33065 0.34902 -0.11569
 C703 C 0.34890 0.38765 -0.09655
 C704 C 0.38266 0.40037 -0.13470
 C705 C 0.33293 0.41115 -0.03904
 N706 N 0.30310 0.39530 -0.00029
 N707 N 0.28901 0.35697 -0.01289
 C708 C 0.30245 0.33284 -0.06802
 H709 H 0.41657 0.39011 -0.23185
 H710 H 0.38185 0.32941 -0.27141
 H711 H 0.34247 0.44245 -0.02541
 H712 H 0.29106 0.30125 -0.07336
 C713 C 1.10592 -0.11635 0.21878
 C714 C 1.12396 -0.15355 0.24503
 C715 C 1.15438 -0.17329 0.20731
 C716 C 1.16625 -0.15419 0.14000
 C717 C 1.14796 -0.11563 0.11354
 C718 C 1.11607 -0.09729 0.15182
 C719 C 1.16148 -0.09806 0.04787
 N720 N 1.18932 -0.11849 0.00935
 N721 N 1.20441 -0.15563 0.03126
 C722 C 1.19357 -0.17433 0.09444
 H723 H 1.08211 -0.10334 0.25021
 H724 H 1.11439 -0.16649 0.29666
 H725 H 1.15099 -0.06807 0.02674
 H726 H 1.20575 -0.20537 0.10710
 C727 C 1.11661 0.38997 0.71340
 C728 C 1.13080 0.35123 0.74190
 C729 C 1.14263 0.31838 0.69569
 C730 C 1.14180 0.32553 0.61948
 C731 C 1.12799 0.36505 0.59063
 C732 C 1.11467 0.39768 0.63775
 C733 C 1.12674 0.37002 0.51476
 N734 N 1.13887 0.33822 0.47075
 N735 N 1.15211 0.30133 0.49778
 C736 C 1.15401 0.29388 0.57063
 H737 H 1.10536 0.41353 0.75068
 H738 H 1.13247 0.34679 0.80052
 H739 H 1.11669 0.39912 0.49053
 H740 H 1.16462 0.26315 0.58961
 C741 C 0.56888 -0.16907 0.67293
 C742 C 0.59166 -0.19983 0.70977
 C743 C 0.62912 -0.19028 0.73768
 C744 C 0.64151 -0.14754 0.73216
 C745 C 0.62178 -0.11928 0.68412
 C746 C 0.58362 -0.12867 0.65865
 C747 C 0.64201 -0.08315 0.66151
 N748 N 0.67476 -0.07132 0.69758
 N749 N 0.68916 -0.09416 0.75337
 C750 C 0.67333 -0.13175 0.77254
 H751 H 0.54007 -0.17733 0.65353
 H752 H 0.58035 -0.23165 0.71230
 H753 H 0.63293 -0.06556 0.61367
 H754 H 0.68638 -0.14966 0.81744
 C755 C 0.62013 0.39989 0.23514
 C756 C 0.64055 0.36772 0.27216
 C757 C 0.66142 0.33703 0.23361
 C758 C 0.66375 0.33987 0.15674
 C759 C 0.64288 0.37250 0.11910
 C760 C 0.62002 0.40203 0.15877
 C761 C 0.64363 0.37265 0.04261
 N762 N 0.66450 0.34284 0.00650
 N763 N 0.68435 0.31230 0.04189
 C764 C 0.68450 0.30958 0.11567
 H765 H 0.60225 0.42173 0.26607
 H766 H 0.63852 0.36551 0.33101
 H767 H 0.62769 0.39592 0.01128
 H768 H 0.70050 0.28352 0.14110
 C769 C 0.87061 0.10198 0.21083
 C770 C 0.85421 0.13664 0.24759
 C771 C 0.84857 0.17613 0.21256
 C772 C 0.85716 0.17961 0.13736
 C773 C 0.87407 0.14452 0.10020
 C774 C 0.88137 0.10539 0.13743
 C775 C 0.88447 0.15031 0.02694
 N776 N 0.87679 0.18785 -0.00750
 N777 N 0.85986 0.22022 0.02667
 C778 C 0.84984 0.21743 0.09784
 H779 H 0.87708 0.07298 0.24116
 H780 H 0.84714 0.13304 0.30471
 H781 H 0.89838 0.12524 -0.00327
 H782 H 0.83615 0.24471 0.12275
 C783 C 0.89339 0.62857 0.70250
 C784 C 0.87552 0.66648 0.72253
 C785 C 0.84487 0.68405 0.68118
 C786 C 0.83078 0.66109 0.61963
 C787 C 0.84821 0.62128 0.60056
 C788 C 0.88194 0.60633 0.63940
 C789 C 0.83089 0.59829 0.54349
 N790 N 0.79974 0.61476 0.50631
 N791 N 0.78502 0.65295 0.52124
 C792 C 0.79981 0.67688 0.57568
 H793 H 0.91788 0.61748 0.73573
 H794 H 0.88566 0.68210 0.77150
 H795 H 0.84049 0.56688 0.52907
 H796 H 0.78727 0.70814 0.58367
 C797 C 0.37523 0.12134 0.66251
 C798 C 0.35036 0.15140 0.69176
 C799 C 0.35846 0.19456 0.68619
 C800 C 0.39279 0.20743 0.64989
 C801 C 0.42061 0.17649 0.62792
 C802 C 0.41058 0.13284 0.63024
 C803 C 0.45717 0.19095 0.60473
 N804 N 0.46304 0.23306 0.59469
 N805 N 0.43509 0.26173 0.60691
 C806 C 0.40010 0.25032 0.63350
 H807 H 0.36648 0.08849 0.66603
 H808 H 0.32468 0.14055 0.71967
 H809 H 0.48154 0.16982 0.59587
 H810 H 0.37812 0.27476 0.64041
 C811 C 0.36032 0.59438 0.17348
 C812 C 0.33987 0.62886 0.20157
 C813 C 0.34071 0.66852 0.16641
 C814 C 0.35899 0.67280 0.09842
 C815 C 0.38049 0.63823 0.07076
 C816 C 0.38181 0.59916 0.10985
 C817 C 0.40152 0.64463 0.00637
 N818 N 0.39926 0.68251 -0.02934
 N819 N 0.37773 0.71463 -0.00450
 C820 C 0.35756 0.71112 0.05828
 H821 H 0.36193 0.56500 0.20461
 H822 H 0.32569 0.62541 0.25372
 H823 H 0.41973 0.61998 -0.01576
 H824 H 0.34057 0.73820 0.07623
   
