data_POSCAR
  _audit_creation_date              2014-09-24
  _audit_creation_method            'ToBaCCo'
  _symmetry_space_group_name_H-M    'P1'
  _symmetry_Int_Tables_number       1
  _symmetry_cell_setting            triclinic
  loop_
  _symmetry_equiv_pos_as_xyz
 x,y,z
_cell_length_a 49.1344
_cell_length_b 49.4748
_cell_length_c 49.6016
_cell_angle_alpha 87.767400
_cell_angle_beta 91.348200
_cell_angle_gamma 88.185400
loop_
  _atom_site_label
  _atom_site_type_symbol
  _atom_site_fract_x
  _atom_site_fract_y
  _atom_site_fract_z
C1 C 0.22104 0.52253 1.05665
 H2 H 0.23176 0.54122 1.05462
 C3 C 0.20144 0.51967 1.07643
 H4 H 0.19756 0.53675 1.08888
 C5 C 0.21151 0.47947 1.04040
 H6 H 0.21536 0.46403 1.02599
 C7 C 0.19191 0.47560 1.05995
 H8 H 0.18206 0.45638 1.06068
 N9 N 0.22560 0.50260 1.03909
 C10 C 0.27619 0.55495 0.99336
 H11 H 0.26529 0.55346 0.97433
 C12 C 0.29626 0.57417 0.99586
 H13 H 0.30043 0.58735 0.97862
 C14 C 0.28602 0.53766 1.03786
 H15 H 0.28246 0.52278 1.05384
 C16 C 0.30601 0.55671 1.04134
 H17 H 0.31724 0.55671 1.06038
 Zn18 Zn 0.24890 0.50740 1.00964
 N19 N 0.27162 0.53709 1.01417
 C20 C 0.21155 0.53629 0.97500
 N21 N 0.22607 0.51251 0.97849
 C22 C 0.22241 0.49188 0.96157
 C23 C 0.20371 0.49485 0.93996
 C24 C 0.19280 0.54022 0.95349
 C25 C 0.27785 0.45892 1.02750
 C26 C 0.29787 0.43840 1.02553
 C27 C 0.30632 0.45508 0.98018
 C28 C 0.28665 0.47556 0.98325
 N29 N 0.27270 0.47699 1.00650
 H30 H 0.21435 0.55213 0.98914
 H31 H 0.23325 0.47272 0.96537
 H32 H 0.20052 0.47784 0.92730
 H33 H 0.18166 0.55941 0.95096
 H34 H 0.26721 0.46102 1.04617
 H35 H 0.30237 0.42491 1.04287
 H36 H 0.31664 0.45416 0.96119
 H37 H 0.28260 0.49058 0.96710
 C38 C 0.31184 0.57492 1.01996
 C39 C 0.18594 0.49606 1.07826
 C40 C 0.31264 0.43639 1.00167
 C41 C 0.18845 0.51922 0.93575
 C42 C 0.77870 0.51356 -0.05538
 H43 H 0.76604 0.53145 -0.05263
 C44 C 0.79849 0.51394 -0.07518
 H45 H 0.80079 0.53224 -0.08749
 C46 C 0.79258 0.46883 -0.04126
 H47 H 0.79039 0.45149 -0.02760
 C48 C 0.81240 0.46823 -0.06090
 H49 H 0.82504 0.45007 -0.06252
 N50 N 0.77618 0.49121 -0.03889
 C51 C 0.72512 0.53719 0.01058
 H52 H 0.73675 0.53246 0.02900
 C53 C 0.70572 0.55849 0.00977
 H54 H 0.70275 0.56995 0.02767
 C55 C 0.71317 0.52652 -0.03423
 H56 H 0.71589 0.51358 -0.05111
 C57 C 0.69370 0.54771 -0.03599
 H58 H 0.68189 0.55124 -0.05456
 Zn59 Zn 0.75206 0.49068 -0.00978
 N60 N 0.72846 0.52171 -0.01125
 C61 C 0.78909 0.51123 0.02688
 N62 N 0.77413 0.48920 0.02204
 C63 C 0.77685 0.46628 0.03809
 C64 C 0.79523 0.46500 0.06008
 C65 C 0.80732 0.51099 0.04889
 C66 C 0.72779 0.44579 -0.03372
 C67 C 0.70890 0.42539 -0.03551
 C68 C 0.69435 0.43513 0.00939
 C69 C 0.71324 0.45558 0.01018
 N70 N 0.72954 0.46045 -0.01113
 H71 H 0.78710 0.52891 0.01335
 H72 H 0.76544 0.44869 0.03338
 H73 H 0.79753 0.44653 0.07248
 H74 H 0.81934 0.52858 0.05224
 H75 H 0.74033 0.45052 -0.05076
 H76 H 0.70736 0.41421 -0.05379
 H77 H 0.68112 0.43191 0.02630
 H78 H 0.71458 0.46801 0.02760
 C79 C 0.68948 0.56383 -0.01366
 C80 C 0.81588 0.49114 -0.07796
 C81 C 0.69175 0.42003 -0.01383
 C82 C 0.81073 0.48756 0.06562
 C83 C -0.02579 0.28002 0.46950
 H84 H -0.04457 0.26944 0.47171
 C85 C -0.02369 0.29980 0.44878
 H86 H -0.04141 0.30400 0.43580
 C87 C 0.01849 0.28881 0.48590
 H88 H 0.03475 0.28456 0.50069
 C89 C 0.02159 0.30855 0.46551
 H90 H 0.04101 0.31815 0.46458
 N91 N -0.00489 0.27505 0.48760
 C92 C -0.05618 0.23036 0.53914
 H93 H -0.05169 0.24185 0.55669
 C94 C -0.07785 0.21272 0.53957
 H95 H -0.09022 0.21116 0.55731
 C96 C -0.04449 0.21688 0.49545
 H97 H -0.03077 0.21796 0.47872
 C98 C -0.06610 0.19925 0.49489
 H99 H -0.06891 0.18680 0.47763
 Zn100 Zn -0.00747 0.25147 0.51827
 N101 N -0.03989 0.23191 0.51737
 C102 C -0.02693 0.29192 0.55125
 N103 N -0.00600 0.27368 0.54841
 C104 C 0.01673 0.27367 0.56462
 C105 C 0.01919 0.29288 0.58435
 C106 C -0.02544 0.31128 0.57091
 C107 C 0.03828 0.22212 0.49868
 C108 C 0.05843 0.20151 0.49972
 C109 C 0.04420 0.18843 0.54452
 C110 C 0.02412 0.20903 0.54247
 N111 N 0.02165 0.22549 0.51991
 H112 H -0.04443 0.29193 0.53760
 H113 H 0.03352 0.25963 0.56148
 H114 H 0.03769 0.29307 0.59665
 H115 H -0.04191 0.32620 0.57231
 H116 H 0.03542 0.23486 0.48058
 H117 H 0.07082 0.19864 0.48224
 H118 H 0.04599 0.17587 0.56287
 H119 H 0.01034 0.21190 0.55889
 C120 C -0.08276 0.19663 0.51738
 C121 C 0.00014 0.31501 0.44663
 C122 C 0.06154 0.18420 0.52283
 C123 C -0.00190 0.31225 0.58738
 C124 C 0.98540 0.72444 0.52593
 H125 H 0.96660 0.73593 0.52180
 C126 C 0.98687 0.70504 0.54718
 H127 H 0.96904 0.70191 0.55918
 C128 C 1.03055 0.71301 0.51384
 H129 H 1.04733 0.71597 0.50042
 C130 C 1.03304 0.69367 0.53508
 H131 H 1.05211 0.68229 0.53813
 N132 N 1.00715 0.72820 0.50992
 C133 C 0.95756 0.78417 0.46107
 H134 H 0.95989 0.77437 0.44212
 C135 C 0.93810 0.80525 0.46309
 H136 H 0.92557 0.81140 0.44555
 C137 C 0.97291 0.78986 0.50606
 H138 H 0.98712 0.78427 0.52247
 C139 C 0.95351 0.81056 0.50914
 H140 H 0.95252 0.82015 0.52834
 Zn141 Zn 1.00478 0.75286 0.47976
 N142 N 0.97459 0.77711 0.48238
 C143 C 0.97904 0.71845 0.44436
 N144 N 1.00234 0.73188 0.44885
 C145 C 1.02479 0.72747 0.43389
 C146 C 1.02451 0.70844 0.41384
 C147 C 0.97778 0.69947 0.42428
 C148 C 1.05268 0.77681 0.50011
 C149 C 1.07308 0.79586 0.49968
 C150 C 1.05806 0.81015 0.45448
 C151 C 1.03786 0.79100 0.45585
 N152 N 1.03552 0.77483 0.47841
 H153 H 0.96176 0.72178 0.45707
 H154 H 1.04337 0.73768 0.43839
 H155 H 1.04278 0.70457 0.40263
 H156 H 0.95940 0.68825 0.42159
 H157 H 1.04982 0.76453 0.51825
 H158 H 1.08582 0.79787 0.51755
 H159 H 1.05950 0.82283 0.43632
 H160 H 1.02358 0.78938 0.43911
 C161 C 0.93621 0.81908 0.48728
 C162 C 1.01094 0.68929 0.55203
 C163 C 1.07569 0.81316 0.47679
 C164 C 1.00094 0.69384 0.40919
 C165 C 0.44940 -0.02676 0.27294
 H166 H 0.45402 -0.04457 0.26175
 C167 C 0.42809 -0.02701 0.29109
 H168 H 0.41610 -0.04491 0.29345
 C169 C 0.46034 0.01762 0.28487
 H170 H 0.47354 0.03464 0.28284
 C171 C 0.43898 0.01841 0.30289
 H172 H 0.43581 0.03610 0.31476
 N173 N 0.46503 -0.00464 0.27022
 C174 C 0.51670 -0.05203 0.22272
 H175 H 0.53499 -0.05004 0.23490
 C176 C 0.51575 -0.07207 0.20362
 H177 H 0.53385 -0.08473 0.20158
 C178 C 0.47254 -0.03569 0.20923
 H179 H 0.45583 -0.02124 0.21146
 C180 C 0.47058 -0.05544 0.19006
 H181 H 0.45156 -0.05622 0.17879
 Zn182 Zn 0.49615 -0.00515 0.24855
 N183 N 0.49525 -0.03437 0.22514
 C184 C 0.53026 -0.03204 0.28716
 N185 N 0.52657 -0.00826 0.27269
 C186 C 0.54212 0.01333 0.27771
 C187 C 0.56220 0.01150 0.29821
 C188 C 0.55036 -0.03489 0.30749
 C189 C 0.47396 0.04224 0.22132
 C190 C 0.47368 0.06356 0.20201
 C191 C 0.52088 0.05271 0.19333
 C192 C 0.52016 0.03137 0.21253
 N193 N 0.49697 0.02660 0.22613
 H194 H 0.51717 -0.04868 0.28322
 H195 H 0.53816 0.03237 0.26669
 H196 H 0.57350 0.02929 0.30261
 H197 H 0.55298 -0.05413 0.31856
 H198 H 0.45546 0.03751 0.23161
 H199 H 0.45506 0.07548 0.19798
 H200 H 0.53931 0.05584 0.18222
 H201 H 0.53791 0.01810 0.21613
 C202 C 0.49254 -0.07400 0.18645
 C203 C 0.42279 -0.00425 0.30639
 C204 C 0.49728 0.06881 0.18757
 C205 C 0.56633 -0.01278 0.31369
 C206 C 0.55216 -0.02015 0.72831
 H207 H 0.54770 -0.03819 0.74017
 C208 C 0.57344 -0.02087 0.71011
 H209 H 0.58560 -0.03935 0.70849
 C210 C 0.54060 0.02523 0.71440
 H211 H 0.52703 0.04278 0.71553
 C212 C 0.56181 0.02550 0.69620
 H213 H 0.56450 0.04340 0.68339
 N214 N 0.53613 0.00262 0.72993
 C215 C 0.47980 -0.04277 0.77509
 H216 H 0.46253 -0.03765 0.76179
 C217 C 0.47793 -0.06366 0.79462
 H218 H 0.45938 -0.07487 0.79579
 C219 C 0.52427 -0.03342 0.79094
 H220 H 0.54196 -0.02098 0.78981
 C221 C 0.52337 -0.05433 0.81062
 H222 H 0.54045 -0.05789 0.82464
 Zn223 Zn 0.50382 0.00266 0.74985
 N224 N 0.50273 -0.02812 0.77362
 C225 C 0.47337 -0.02038 0.70978
 N226 N 0.47503 0.00249 0.72393
 C227 C 0.45843 0.02452 0.71785
 C228 C 0.43923 0.02401 0.69659
 C229 C 0.45425 -0.02193 0.68878
 C230 C 0.52331 0.04796 0.77702
 C231 C 0.52187 0.06813 0.79593
 C232 C 0.47469 0.05792 0.80261
 C233 C 0.47714 0.03774 0.78386
 N234 N 0.50115 0.03315 0.77151
 H235 H 0.48716 -0.03742 0.71474
 H236 H 0.46071 0.04282 0.72879
 H237 H 0.42690 0.04207 0.69142
 H238 H 0.45312 -0.04058 0.67816
 H239 H 0.54247 0.04334 0.76768
 H240 H 0.54007 0.07888 0.80084
 H241 H 0.45531 0.06125 0.81207
 H242 H 0.46000 0.02528 0.77952
 C243 C 0.49980 -0.06947 0.81286
 C244 C 0.57819 0.00206 0.69350
 C245 C 0.49741 0.07310 0.80933
 C246 C 0.43714 0.00062 0.68153
 C247 C 0.22110 -0.02278 0.49254
 C248 C 0.23449 0.00099 0.49840
 C249 C 0.21947 0.02391 0.50602
 C250 C 0.19097 0.02326 0.50760
 C251 C 0.17786 -0.00075 0.50180
 C252 C 0.19270 -0.02388 0.49434
 C253 C 0.26430 0.00164 0.49642
 C254 C 0.27628 0.00054 0.47107
 C255 C 0.30467 -0.00083 0.46914
 C256 C 0.32099 -0.00095 0.49269
 C257 C 0.30934 -0.00005 0.51826
 C258 C 0.28081 0.00157 0.51992
 H259 H 0.23284 -0.04036 0.48654
 H260 H 0.22997 0.04217 0.51062
 H261 H 0.26352 0.00020 0.45297
 H262 H 0.27136 0.00165 0.53944
 H263 H 0.15592 -0.00142 0.50304
 H264 H 0.34294 -0.00154 0.49095
 C265 C 0.78076 -0.01840 0.49853
 C266 C 0.76379 0.00473 0.50074
 C267 C 0.77525 0.03002 0.50419
 C268 C 0.80359 0.03218 0.50557
 C269 C 0.82039 0.00900 0.50334
 C270 C 0.80925 -0.01653 0.50006
 C271 C 0.73408 0.00206 0.50138
 C272 C 0.72079 0.00359 0.52601
 C273 C 0.69273 -0.00050 0.52726
 C274 C 0.67794 -0.00520 0.50345
 C275 C 0.69090 -0.00642 0.47853
 C276 C 0.71919 -0.00304 0.47775
 H277 H 0.77165 -0.03793 0.49673
 H278 H 0.76216 0.04782 0.50634
 H279 H 0.73248 0.00703 0.54429
 H280 H 0.72971 -0.00453 0.45888
 H281 H 0.84228 0.01103 0.50407
 H282 H 0.65610 -0.00734 0.50434
 C283 C 0.52579 0.27674 0.99093
 C284 C 0.50080 0.26402 0.99308
 C285 C 0.47647 0.27961 0.99336
 C286 C 0.47687 0.30804 0.99154
 C287 C 0.50211 0.32048 0.98930
 C288 C 0.52648 0.30502 0.98876
 C289 C 0.49996 0.23434 0.99430
 C290 C 0.49964 0.22021 1.01932
 C291 C 0.49785 0.19196 1.02052
 C292 C 0.49674 0.17798 0.99645
 C293 C 0.49714 0.19188 0.97120
 C294 C 0.49875 0.22022 0.97036
 H295 H 0.54455 0.26465 0.99045
 H296 H 0.45728 0.26949 0.99453
 H297 H 0.50030 0.23125 1.03776
 H298 H 0.49857 0.23143 0.95114
 H299 H 0.50303 0.34234 0.98852
 H300 H 0.49619 0.15609 0.99752
 C301 C 0.52455 0.71920 -0.00128
 C302 C 0.50029 0.73330 0.00443
 C303 C 0.47684 0.71902 0.01043
 C304 C 0.47740 0.69063 0.01065
 C305 C 0.50189 0.67674 0.00513
 C306 C 0.52558 0.69077 -0.00081
 C307 C 0.49919 0.76308 0.00398
 C308 C 0.49961 0.77789 -0.02070
 C309 C 0.49639 0.80617 -0.02135
 C310 C 0.49381 0.81955 0.00290
 C311 C 0.49395 0.80503 0.02781
 C312 C 0.49639 0.77665 0.02814
 H313 H 0.54254 0.73039 -0.00608
 H314 H 0.45820 0.73007 0.01491
 H315 H 0.50134 0.76738 -0.03938
 H316 H 0.49587 0.76505 0.04711
 H317 H 0.50250 0.65483 0.00546
 H318 H 0.49218 0.84146 0.00230
 C319 C 0.99722 0.51964 0.27767
 C320 C 0.99719 0.49383 0.26697
 C321 C 0.99900 0.47070 0.28427
 C322 C 1.00118 0.47321 0.31235
 C323 C 1.00146 0.49919 0.32279
 C324 C 0.99956 0.52244 0.30564
 C325 C 0.99682 0.49100 0.23758
 C326 C 1.02144 0.48980 0.22389
 C327 C 1.02154 0.48715 0.19579
 C328 C 0.99654 0.48541 0.18169
 C329 C 0.97178 0.48658 0.19523
 C330 C 0.97203 0.48957 0.22325
 H331 H 0.99616 0.53746 0.26421
 H332 H 0.99938 0.45083 0.27580
 H333 H 1.04047 0.49078 0.23524
 H334 H 0.95305 0.49051 0.23392
 H335 H 1.00272 0.50142 0.34443
 H336 H 0.99619 0.48410 0.15993
 C337 C 0.00903 0.53263 0.71622
 C338 C 0.00563 0.50904 0.73226
 C339 C 0.00419 0.48394 0.72018
 C340 C 0.00685 0.48228 0.69223
 C341 C 0.00976 0.50601 0.67631
 C342 C 0.01073 0.53139 0.68803
 C343 C 0.00479 0.51042 0.76181
 C344 C -0.01941 0.50543 0.77531
 C345 C -0.02010 0.50620 0.80356
 C346 C 0.00388 0.51166 0.81808
 C347 C 0.02833 0.51644 0.80484
 C348 C 0.02850 0.51607 0.77655
 H349 H 0.01044 0.55187 0.72579
 H350 H 0.00209 0.46567 0.73263
 H351 H -0.03757 0.50081 0.76379
 H352 H 0.04710 0.51987 0.76593
 H353 H 0.01073 0.50459 0.65461
 H354 H 0.00354 0.51195 0.83989
 C355 C 0.11884 0.11596 0.52381
 C356 C 0.12536 0.14087 0.51093
 C357 C 0.10705 0.16326 0.51138
 C358 C 0.08176 0.16108 0.52382
 C359 C 0.07536 0.13625 0.53640
 C360 C 0.09361 0.11408 0.53654
 C361 C 0.13852 0.09233 0.52221
 C362 C 0.13426 0.06697 0.53505
 C363 C 0.15198 0.04498 0.53115
 C364 C 0.17445 0.04760 0.51443
 C365 C 0.17984 0.07319 0.50289
 C366 C 0.16211 0.09551 0.50670
 C367 C 0.14973 0.14306 0.49700
 C368 C 0.16754 0.12079 0.49465
 H369 H 0.15478 0.16212 0.48714
 H370 H 0.18574 0.12335 0.48302
 H371 H 0.11244 0.18233 0.50176
 H372 H 0.05580 0.13364 0.54559
 H373 H 0.14782 0.02566 0.54097
 H374 H 0.19720 0.07550 0.49000
 H375 H 0.08720 0.09550 0.54614
 H376 H 0.11725 0.06356 0.54794
 C377 C 0.62351 0.62368 -0.01240
 C378 C 0.62037 0.59941 -0.02621
 C379 C 0.64209 0.58038 -0.02698
 C380 C 0.66724 0.58499 -0.01422
 C381 C 0.67055 0.60938 -0.00117
 C382 C 0.64905 0.62850 -0.00027
 C383 C 0.59924 0.64272 -0.01074
 C384 C 0.59974 0.66684 0.00349
 C385 C 0.57606 0.68289 0.00593
 C386 C 0.55132 0.67541 -0.00583
 C387 C 0.55091 0.65208 -0.02102
 C388 C 0.57444 0.63562 -0.02330
 C389 C 0.59543 0.59397 -0.03875
 C390 C 0.57299 0.61173 -0.03742
 H391 H 0.59309 0.57548 -0.04949
 H392 H 0.55403 0.60638 -0.04714
 H393 H 0.63905 0.56148 -0.03680
 H394 H 0.68986 0.61372 0.00843
 H395 H 0.57691 0.70071 0.01790
 H396 H 0.53201 0.64638 -0.03065
 H397 H 0.65281 0.64674 0.01023
 H398 H 0.61801 0.67335 0.01344
 C399 C 0.88293 -0.11045 0.49465
 C400 C 0.87478 -0.13181 0.47843
 C401 C 0.89195 -0.15491 0.47626
 C402 C 0.91763 -0.15674 0.48947
 C403 C 0.92596 -0.13490 0.50457
 C404 C 0.90891 -0.11220 0.50726
 C405 C 0.86386 -0.08650 0.49710
 C406 C 0.86918 -0.06545 0.51458
 C407 C 0.85123 -0.04319 0.51568
 C408 C 0.82751 -0.04107 0.49931
 C409 C 0.82153 -0.06243 0.48246
 C410 C 0.83933 -0.08521 0.48151
 C411 C 0.84978 -0.12974 0.46417
 C412 C 0.83267 -0.10674 0.46530
 H413 H 0.84355 -0.14597 0.45156
 H414 H 0.81378 -0.10594 0.45352
 H415 H 0.88523 -0.17148 0.46438
 H416 H 0.94601 -0.13508 0.51411
 H417 H 0.85591 -0.02763 0.52968
 H418 H 0.80322 -0.06121 0.46980
 H419 H 0.91672 -0.09609 0.51892
 H420 H 0.88692 -0.06587 0.52782
 C421 C 0.37944 0.37770 0.99670
 C422 C 0.38009 0.40314 0.98273
 C423 C 0.35844 0.42205 0.98463
 C424 C 0.33533 0.41589 0.99959
 C425 C 0.33434 0.39026 1.01270
 C426 C 0.35608 0.37145 1.01140
 C427 C 0.40370 0.35864 0.99516
 C428 C 0.40623 0.33380 1.01007
 C429 C 0.42973 0.31726 1.00862
 C430 C 0.45122 0.32487 0.99206
 C431 C 0.44853 0.34932 0.97671
 C432 C 0.42539 0.36639 0.97857
 C433 C 0.40232 0.40963 0.96684
 C434 C 0.42427 0.39148 0.96446
 H435 H 0.40269 0.42902 0.95592
 H436 H 0.44094 0.39745 0.95183
 H437 H 0.35990 0.44183 0.97472
 H438 H 0.31661 0.38457 1.02387
 H439 H 0.43132 0.29879 1.02107
 H440 H 0.46466 0.35531 0.96342
 H441 H 0.35411 0.35211 1.02184
 H442 H 0.39062 0.32707 1.02345
 C443 C 0.86219 0.13062 0.51879
 C444 C 0.86201 0.14917 0.49632
 C445 C 0.87935 0.17123 0.49626
 C446 C 0.89665 0.17538 0.51854
 C447 C 0.89559 0.15788 0.54138
 C448 C 0.87861 0.13581 0.54158
 C449 C 0.84547 0.10589 0.51700
 C450 C 0.84679 0.08472 0.53690
 C451 C 0.83247 0.06117 0.53337
 C452 C 0.81613 0.05832 0.51024
 C453 C 0.81386 0.07950 0.49067
 C454 C 0.82887 0.10300 0.49360
 C455 C 0.84489 0.14533 0.47390
 C456 C 0.82838 0.12294 0.47274
 H457 H 0.84443 0.15973 0.45685
 H458 H 0.81571 0.12077 0.45482
 H459 H 0.87971 0.18498 0.47872
 H460 H 0.90875 0.16067 0.55881
 H461 H 0.83452 0.04484 0.54855
 H462 H 0.80155 0.07704 0.47255
 H463 H 0.87899 0.12288 0.55960
 H464 H 0.85941 0.08550 0.55490
 C465 C 0.38184 0.62558 0.02323
 C466 C 0.35749 0.63516 0.00975
 C467 C 0.33444 0.61902 0.00951
 C468 C 0.33537 0.59303 0.02203
 C469 C 0.35954 0.58371 0.03546
 C470 C 0.38238 0.59972 0.03619
 C471 C 0.40630 0.64293 0.02216
 C472 C 0.43137 0.63529 0.03510
 C473 C 0.45407 0.65124 0.03198
 C474 C 0.45247 0.67526 0.01598
 C475 C 0.42727 0.68373 0.00404
 C476 C 0.40427 0.66779 0.00700
 C477 C 0.35652 0.66046 -0.00401
 C478 C 0.37945 0.67632 -0.00554
 H479 H 0.33789 0.66786 -0.01429
 H480 H 0.37779 0.69545 -0.01695
 H481 H 0.31586 0.62661 -0.00075
 H482 H 0.36119 0.56356 0.04479
 H483 H 0.47308 0.64459 0.04199
 H484 H 0.42579 0.70225 -0.00841
 H485 H 0.40039 0.59112 0.04645
 H486 H 0.43402 0.61699 0.04751
 C487 C 0.13099 -0.12082 0.48024
 C488 C 0.10518 -0.11720 0.46708
 C489 C 0.08765 -0.13893 0.46554
 C490 C 0.09528 -0.16455 0.47693
 C491 C 0.12113 -0.16830 0.48941
 C492 C 0.13879 -0.14679 0.49103
 C493 C 0.14845 -0.09663 0.48269
 C494 C 0.17405 -0.09773 0.49624
 C495 C 0.18873 -0.07425 0.49934
 C496 C 0.17835 -0.04914 0.48894
 C497 C 0.15339 -0.04803 0.47455
 C498 C 0.13834 -0.07139 0.47157
 C499 C 0.09671 -0.09178 0.45597
 C500 C 0.11296 -0.06939 0.45810
 H501 H 0.07701 -0.08907 0.44575
 H502 H 0.10530 -0.05009 0.44947
 H503 H 0.06759 -0.13559 0.45623
 H504 H 0.12771 -0.18794 0.49801
 H505 H 0.20787 -0.07563 0.51067
 H506 H 0.14543 -0.02880 0.46599
 H507 H 0.15829 -0.15089 0.50103
 H508 H 0.18286 -0.11634 0.50508
 C509 C 0.62471 0.36633 0.98124
 C510 C 0.64287 0.36449 1.00387
 C511 C 0.66509 0.38163 1.00515
 C512 C 0.66986 0.40029 0.98389
 C513 C 0.65270 0.40104 0.96089
 C514 C 0.63040 0.38433 0.95952
 C515 C 0.59994 0.34940 0.98167
 C516 C 0.57914 0.35201 0.96158
 C517 C 0.55565 0.33707 0.96374
 C518 C 0.55247 0.31884 0.98565
 C519 C 0.57327 0.31544 1.00541
 C520 C 0.59668 0.33100 1.00389
 C521 C 0.63859 0.34578 1.02516
 C522 C 0.61621 0.32911 1.02497
 H523 H 0.65268 0.34409 1.04232
 H524 H 0.61373 0.31509 1.04201
 H525 H 0.67862 0.38062 1.02278
 H526 H 0.65601 0.41528 0.94423
 H527 H 0.53967 0.33997 0.94837
 H528 H 0.57058 0.30166 1.02261
 H529 H 0.61779 0.38605 0.94142
 H530 H 0.58020 0.36602 0.94447
 C531 C 0.49737 0.12656 1.12023
 C532 C 0.47613 0.10802 1.12296
 C533 C 0.47575 0.09005 1.14552
 C534 C 0.49676 0.08952 1.16517
 C535 C 0.51790 0.10770 1.16242
 C536 C 0.51816 0.12615 1.14036
 C537 C 0.49729 0.14499 1.09545
 C538 C 0.51677 0.16498 1.09121
 C539 C 0.51651 0.18072 1.06717
 C540 C 0.49700 0.17678 1.04677
 C541 C 0.47700 0.15762 1.05114
 C542 C 0.47683 0.14195 1.07531
 C543 C 0.45585 0.10688 1.10276
 C544 C 0.45639 0.12323 1.07930
 H545 H 0.43964 0.09265 1.10483
 H546 H 0.44057 0.12113 1.06399
 H547 H 0.45965 0.07563 1.14724
 H548 H 0.53434 0.10757 1.17737
 H549 H 0.53204 0.19553 1.06419
 H550 H 0.46154 0.15490 1.03559
 H551 H 0.53508 0.13947 1.13917
 H552 H 0.53242 0.16868 1.10610
 C553 C 0.01356 0.62585 0.61464
 C554 C 0.02786 0.62256 0.59048
 C555 C 0.02706 0.64332 0.57035
 C556 C 0.01258 0.66780 0.57394
 C557 C -0.00076 0.67136 0.59834
 C558 C -0.00036 0.65071 0.61840
 C559 C 0.01364 0.60252 0.63493
 C560 C -0.00151 0.60291 0.65871
 C561 C -0.00189 0.58010 0.67621
 C562 C 0.01298 0.55637 0.67064
 C563 C 0.02883 0.55614 0.64745
 C564 C 0.02889 0.57870 0.62943
 C565 C 0.04271 0.59851 0.58640
 C566 C 0.04346 0.57717 0.60559
 H567 H 0.05387 0.59609 0.56801
 H568 H 0.05514 0.55893 0.60138
 H569 H 0.03725 0.64005 0.55155
 H570 H -0.01152 0.69023 0.60204
 H571 H -0.01460 0.58080 0.69373
 H572 H 0.04084 0.53814 0.64311
 H573 H -0.01105 0.65466 0.63664
 H574 H -0.01377 0.62034 0.66384
 C575 C 0.49336 0.87416 -0.11932
 C576 C 0.51676 0.87339 -0.13543
 C577 C 0.51866 0.89154 -0.15778
 C578 C 0.49728 0.91021 -0.16467
 C579 C 0.47369 0.91013 -0.14934
 C580 C 0.47169 0.89241 -0.12698
 C581 C 0.49287 0.85577 -0.09460
 C582 C 0.47167 0.85683 -0.07599
 C583 C 0.47278 0.84030 -0.05256
 C584 C 0.49478 0.82205 -0.04722
 C585 C 0.51572 0.82027 -0.06583
 C586 C 0.51518 0.83735 -0.08920
 C587 C 0.53813 0.85464 -0.12905
 C588 C 0.53721 0.83678 -0.10663
 H589 H 0.55592 0.85381 -0.14154
 H590 H 0.55432 0.82275 -0.10251
 H591 H 0.53678 0.89119 -0.16984
 H592 H 0.45695 0.92440 -0.15422
 H593 H 0.45642 0.84190 -0.03838
 H594 H 0.53296 0.80641 -0.06152
 H595 H 0.45309 0.89350 -0.11592
 H596 H 0.45437 0.87068 -0.07874
 C597 C 1.00538 0.38109 0.38890
 C598 C 0.98745 0.35992 0.38415
 C599 C 0.98608 0.33796 0.40291
 C600 C 1.00219 0.33661 0.42696
 C601 C 1.02002 0.35795 0.43124
 C602 C 1.02162 0.37965 0.41265
 C603 C 1.00579 0.40448 0.36875
 C604 C 1.02299 0.42649 0.37172
 C605 C 1.02175 0.44836 0.35310
 C606 C 1.00346 0.44895 0.33095
 C607 C 0.98688 0.42673 0.32725
 C608 C 0.98788 0.40460 0.34597
 C609 C 0.97072 0.36092 0.36081
 C610 C 0.97083 0.38282 0.34222
 H611 H 0.95701 0.34468 0.35704
 H612 H 0.95721 0.38278 0.32471
 H613 H 0.97282 0.32168 0.39814
 H614 H 1.03204 0.35899 0.44967
 H615 H 1.03521 0.46497 0.35609
 H616 H 0.97261 0.42701 0.31022
 H617 H 1.03537 0.39534 0.41765
 H618 H 1.03744 0.42739 0.38832
 C619 C 0.49131 0.86946 0.12330
 C620 C 0.47413 0.89295 0.12178
 C621 C 0.47441 0.91121 0.14272
 C622 C 0.49162 0.90676 0.16580
 C623 C 0.50822 0.88290 0.16728
 C624 C 0.50807 0.86462 0.14649
 C625 C 0.49127 0.85117 0.09982
 C626 C 0.50826 0.82772 0.09881
 C627 C 0.50852 0.81231 0.07577
 C628 C 0.49182 0.81979 0.05322
 C629 C 0.47409 0.84247 0.05446
 C630 C 0.47388 0.85827 0.07732
 C631 C 0.45703 0.89847 0.09911
 C632 C 0.45683 0.88146 0.07741
 H633 H 0.44374 0.91641 0.09798
 H634 H 0.44345 0.88683 0.06022
 H635 H 0.46207 0.92963 0.13994
 H636 H 0.52098 0.87759 0.18485
 H637 H 0.52251 0.79498 0.07528
 H638 H 0.46070 0.84814 0.03734
 H639 H 0.52127 0.84683 0.14903
 H640 H 0.52191 0.82125 0.11530
 C641 C 0.00698 0.38137 0.63660
 C642 C -0.01693 0.36620 0.63793
 C643 C -0.01956 0.34327 0.62231
 C644 C 0.00160 0.33487 0.60573
 C645 C 0.02579 0.34915 0.60554
 C646 C 0.02850 0.37207 0.62074
 C647 C 0.00815 0.40690 0.65183
 C648 C 0.02976 0.42484 0.64947
 C649 C 0.02931 0.44903 0.66296
 C650 C 0.00756 0.45583 0.67940
 C651 C -0.01384 0.43798 0.68241
 C652 C -0.01398 0.41386 0.66830
 C653 C -0.03811 0.37413 0.65463
 C654 C -0.03649 0.39723 0.66980
 H655 H -0.05629 0.36235 0.65593
 H656 H -0.05346 0.40254 0.68233
 H657 H -0.03814 0.33202 0.62290
 H658 H 0.04238 0.34308 0.59287
 H659 H 0.04600 0.46263 0.66043
 H660 H -0.03087 0.44344 0.69483
 H661 H 0.04751 0.38230 0.61954
 H662 H 0.04689 0.42094 0.63685
 C663 C 0.49585 0.12838 0.87478
 C664 C 0.48047 0.10467 0.87586
 C665 C 0.48086 0.08704 0.85439
 C666 C 0.49609 0.09270 0.83134
 C667 C 0.51066 0.11665 0.82996
 C668 C 0.51060 0.13425 0.85134
 C669 C 0.49591 0.14594 0.89881
 C670 C 0.51176 0.16910 0.90054
 C671 C 0.51185 0.18416 0.92381
 C672 C 0.49604 0.17667 0.94592
 C673 C 0.47976 0.15396 0.94411
 C674 C 0.47986 0.13844 0.92105
 C675 C 0.46493 0.09850 0.89846
 C676 C 0.46443 0.11515 0.92044
 H677 H 0.45299 0.08045 0.89919
 H678 H 0.45214 0.10941 0.93747
 H679 H 0.46980 0.06847 0.85603
 H680 H 0.52216 0.12186 0.81225
 H681 H 0.52490 0.20135 0.92473
 H682 H 0.46707 0.14818 0.96083
 H683 H 0.52225 0.15227 0.84909
 H684 H 0.52464 0.17565 0.88440
 C685 C 1.00053 0.62495 0.35857
 C686 C 1.02244 0.62863 0.37700
 C687 C 1.02288 0.65174 0.39249
 C688 C 1.00134 0.67104 0.39067
 C689 C 0.97958 0.66740 0.37254
 C690 C 0.97922 0.64477 0.35651
 C691 C 1.00050 0.59950 0.34304
 C692 C 0.98028 0.59418 0.32344
 C693 C 0.98044 0.56946 0.31066
 C694 C 1.00058 0.54948 0.31728
 C695 C 1.02133 0.55494 0.33594
 C696 C 1.02160 0.57977 0.34862
 C697 C 1.04331 0.60881 0.38063
 C698 C 1.04273 0.58476 0.36700
 H699 H 1.06005 0.61164 0.39476
 H700 H 1.05903 0.56977 0.37102
 H701 H 1.03947 0.65411 0.40692
 H702 H 0.96272 0.68206 0.37088
 H703 H 0.96433 0.56562 0.29616
 H704 H 1.03725 0.53969 0.34068
 H705 H 0.96182 0.64288 0.34314
 H706 H 0.96411 0.60871 0.31785
 C707 C 1.12008 0.49055 0.13300
 C708 C 1.12089 0.47447 0.11009
 C709 C 1.14276 0.47606 0.09245
 C710 C 1.16453 0.49346 0.09703
 C711 C 1.16383 0.50869 0.12052
 C712 C 1.14208 0.50728 0.13812
 C713 C 1.09559 0.48928 0.15052
 C714 C 1.09208 0.50552 0.17299
 C715 C 1.06834 0.50442 0.18791
 C716 C 1.04751 0.48702 0.18096
 C717 C 1.05112 0.47030 0.15900
 C718 C 1.07471 0.47153 0.14364
 C719 C 1.09963 0.45712 0.10459
 C720 C 1.07716 0.45553 0.12111
 H721 H 1.10030 0.44464 0.08713
 H722 H 1.06120 0.44191 0.11586
 H723 H 1.14168 0.46459 0.07436
 H724 H 1.18041 0.52136 0.12607
 H725 H 1.06598 0.51783 0.20449
 H726 H 1.03539 0.45647 0.15365
 H727 H 1.14299 0.51946 0.15566
 H728 H 1.10712 0.51962 0.17909
 C729 C 0.63302 0.00100 0.62695
 C730 C 0.61564 -0.02083 0.63207
 C731 C 0.59882 -0.02087 0.65455
 C732 C 0.59836 0.00093 0.67179
 C733 C 0.61567 0.02246 0.66684
 C734 C 0.63293 0.02247 0.64484
 C735 C 0.64989 0.00070 0.60210
 C736 C 0.66832 0.02105 0.59536
 C737 C 0.68261 0.02039 0.57133
 C738 C 0.67875 -0.00042 0.55340
 C739 C 0.66108 -0.02115 0.56026
 C740 C 0.64683 -0.02086 0.58443
 C741 C 0.61439 -0.04204 0.61426
 C742 C 0.62946 -0.04194 0.59083
 H743 H 0.60109 -0.05873 0.61819
 H744 H 0.62735 -0.05857 0.57742
 H745 H 0.58510 -0.03734 0.65794
 H746 H 0.61565 0.03949 0.67993
 H747 H 0.69625 0.03655 0.56643
 H748 H 0.65846 -0.03761 0.54670
 H749 H 0.64553 0.03973 0.64188
 H750 H 0.67189 0.03770 0.60825
 C751 C -0.11768 0.49468 0.86650
 C752 C -0.11436 0.48068 0.89186
 C753 C -0.13614 0.47941 0.90958
 C754 C -0.16159 0.49172 0.90253
 C755 C -0.16503 0.50510 0.87714
 C756 C -0.14343 0.50659 0.85934
 C757 C -0.09342 0.49663 0.84875
 C758 C -0.09411 0.51101 0.82360
 C759 C -0.07052 0.51344 0.80859
 C760 C -0.04568 0.50154 0.81818
 C761 C -0.04505 0.48633 0.84267
 C762 C -0.06849 0.48405 0.85808
 C763 C -0.08923 0.46831 0.89963
 C764 C -0.06683 0.46984 0.88305
 H765 H -0.08675 0.45744 0.91898
 H766 H -0.04775 0.46016 0.89013
 H767 H -0.13298 0.46938 0.92928
 H768 H -0.18454 0.51440 0.87095
 H769 H -0.07153 0.52544 0.78983
 H770 H -0.02609 0.47657 0.85002
 H771 H -0.14731 0.51723 0.84019
 H772 H -0.11248 0.52101 0.81542
 C773 C 0.36519 -0.00385 0.37048
 C774 C 0.38398 -0.02591 0.36816
 C775 C 0.40173 -0.02645 0.34643
 C776 C 0.40190 -0.00478 0.32739
 C777 C 0.38339 0.01710 0.32968
 C778 C 0.36508 0.01751 0.35081
 C779 C 0.34734 -0.00360 0.39461
 C780 C 0.32717 0.01677 0.39840
 C781 C 0.31249 0.01708 0.42221
 C782 C 0.31773 -0.00275 0.44274
 C783 C 0.33675 -0.02379 0.43867
 C784 C 0.35134 -0.02452 0.41474
 C785 C 0.38580 -0.04674 0.38811
 C786 C 0.37012 -0.04586 0.41109
 H787 H 0.40020 -0.06360 0.38633
 H788 H 0.37288 -0.06206 0.42635
 H789 H 0.41641 -0.04315 0.34505
 H790 H 0.38327 0.03405 0.31517
 H791 H 0.29769 0.03336 0.42501
 H792 H 0.34043 -0.03942 0.45439
 H793 H 0.35157 0.03504 0.35176
 H794 H 0.32265 0.03276 0.38342
 C795 C 0.12465 0.52344 0.87414
 C796 C 0.12107 0.53645 0.89879
 C797 C 0.14215 0.53558 0.91843
 C798 C 0.16708 0.52201 0.91397
 C799 C 0.17096 0.51010 0.88907
 C800 C 0.15010 0.51077 0.86941
 C801 C 0.10089 0.52311 0.85458
 C802 C 0.10169 0.50917 0.83033
 C803 C 0.07840 0.50781 0.81380
 C804 C 0.05376 0.52047 0.82083
 C805 C 0.05311 0.53539 0.84433
 C806 C 0.07622 0.53644 0.86137
 C807 C 0.09629 0.54979 0.90397
 C808 C 0.07443 0.54997 0.88557
 H809 H 0.09364 0.55998 0.92272
 H810 H 0.05557 0.56026 0.89071
 H811 H 0.13869 0.54467 0.93763
 H812 H 0.19018 0.50005 0.88478
 H813 H 0.07945 0.49591 0.79596
 H814 H 0.03433 0.54567 0.84975
 H815 H 0.15427 0.50106 0.85080
 H816 H 0.11982 0.49851 0.82413
 C817 C 0.62121 -0.01625 0.38334
 C818 C 0.62768 -0.00088 0.35982
 C819 C 0.61023 -0.00047 0.33690
 C820 C 0.58582 -0.01455 0.33723
 C821 C 0.57943 -0.02951 0.36076
 C822 C 0.59686 -0.03050 0.38339
 C823 C 0.64003 -0.01574 0.40756
 C824 C 0.63592 -0.03114 0.43152
 C825 C 0.65297 -0.02867 0.45411
 C826 C 0.67459 -0.01081 0.45352
 C827 C 0.67968 0.00363 0.42931
 C828 C 0.66268 0.00120 0.40638
 C829 C 0.65110 0.01455 0.35957
 C830 C 0.66802 0.01585 0.38244
 H831 H 0.65609 0.02635 0.34159
 H832 H 0.68552 0.02861 0.38139
 H833 H 0.61559 0.01105 0.31889
 H834 H 0.56046 -0.03997 0.36205
 H835 H 0.64907 -0.04072 0.47222
 H836 H 0.69633 0.01748 0.42853
 H837 H 0.59048 -0.04199 0.40091
 H838 H 0.61962 -0.04512 0.43335
 C839 C 0.87435 0.48605 0.12695
 C840 C 0.87245 0.46473 0.10881
 C841 C 0.85089 0.46476 0.08972
 C842 C 0.83162 0.48629 0.08766
 C843 C 0.83351 0.50742 0.10556
 C844 C 0.85445 0.50726 0.12511
 C845 C 0.89823 0.48570 0.14640
 C846 C 0.90157 0.50533 0.16600
 C847 C 0.92506 0.50505 0.18247
 C848 C 0.94579 0.48534 0.17970
 C849 C 0.94220 0.46507 0.16108
 C850 C 0.91856 0.46495 0.14466
 C851 C 0.89261 0.44407 0.10908
 C852 C 0.91535 0.44438 0.12637
 H853 H 0.89117 0.42778 0.09518
 H854 H 0.93076 0.42831 0.12528
 H855 H 0.84981 0.44864 0.07557
 H856 H 0.81881 0.52423 0.10426
 H857 H 0.92743 0.52081 0.19682
 H858 H 0.95800 0.44948 0.15926
 H859 H 0.85506 0.52423 0.13807
 H860 H 0.88644 0.52119 0.16877
 C861 C 0.38300 -0.00237 0.61180
 C862 C 0.37522 0.01274 0.63416
 C863 C 0.39268 0.01346 0.65700
 C864 C 0.41831 -0.00009 0.65761
 C865 C 0.42625 -0.01414 0.63488
 C866 C 0.40890 -0.01540 0.61239
 C867 C 0.36368 -0.00316 0.58806
 C868 C 0.36870 -0.01939 0.56592
 C869 C 0.35071 -0.01868 0.54378
 C870 C 0.32724 -0.00172 0.54291
 C871 C 0.32141 0.01368 0.56541
 C872 C 0.33930 0.01286 0.58803
 C873 C 0.35030 0.02739 0.63334
 C874 C 0.33295 0.02783 0.61060
 H875 H 0.34434 0.03913 0.65036
 H876 H 0.31417 0.03991 0.61077
 H877 H 0.38624 0.02449 0.67431
 H878 H 0.44623 -0.02393 0.63420
 H879 H 0.35523 -0.03160 0.52722
 H880 H 0.30324 0.02671 0.56514
 H881 H 0.41643 -0.02627 0.59554
 H882 H 0.38628 -0.03293 0.56531
   
