data_POSCAR
  _audit_creation_date              2014-09-24
  _audit_creation_method            'ToBaCCo'
  _symmetry_space_group_name_H-M    'P1'
  _symmetry_Int_Tables_number       1
  _symmetry_cell_setting            triclinic
  loop_
  _symmetry_equiv_pos_as_xyz
 x,y,z
_cell_length_a 24.4109
_cell_length_b 30.1297
_cell_length_c 19.4153
_cell_angle_alpha 89.951000
_cell_angle_beta 89.993500
_cell_angle_gamma 90.046500
loop_
  _atom_site_label
  _atom_site_type_symbol
  _atom_site_fract_x
  _atom_site_fract_y
  _atom_site_fract_z
C1 C 0.17873 0.25765 0.09490
 C2 C 0.19600 0.21550 0.11811
 C3 C 0.23182 0.21457 0.17537
 C4 C 0.24434 0.25318 0.21341
 C5 C 0.22315 0.29399 0.19053
 C6 C 0.19141 0.29668 0.13055
 C7 C 0.27710 0.25050 0.27874
 C8 C 0.30756 0.28711 0.30273
 C9 C 0.33565 0.28563 0.36603
 C10 C 0.33476 0.24587 0.40420
 C11 C 0.30902 0.20745 0.37844
 C12 C 0.27810 0.21108 0.31769
 H13 H 0.15369 0.26039 0.05006
 H14 H 0.24974 0.18389 0.19191
 H15 H 0.23048 0.32396 0.21971
 H16 H 0.31064 0.31664 0.27135
 H17 H 0.35699 0.24418 0.45209
 H18 H 0.25372 0.18289 0.30209
 C19 C 0.83438 0.24318 0.11560
 C20 C 0.81041 0.28281 0.13826
 C21 C 0.77445 0.28159 0.19439
 C22 C 0.76549 0.24220 0.23178
 C23 C 0.78928 0.20264 0.20738
 C24 C 0.82288 0.20266 0.14831
 C25 C 0.73334 0.24346 0.29741
 C26 C 0.70169 0.20704 0.31968
 C27 C 0.67010 0.20883 0.38100
 C28 C 0.66960 0.24945 0.41769
 C29 C 0.69906 0.28654 0.39456
 C30 C 0.73293 0.28238 0.33706
 H31 H 0.86431 0.24454 0.07498
 H32 H 0.75424 0.31202 0.20947
 H33 H 0.78251 0.17184 0.23478
 H34 H 0.69975 0.17811 0.28705
 H35 H 0.64558 0.25349 0.46371
 H36 H 0.75797 0.31052 0.32251
 C37 C 0.66344 0.75739 0.61694
 C38 C 0.68470 0.71705 0.64094
 C39 C 0.72172 0.71782 0.69604
 C40 C 0.73221 0.75686 0.73369
 C41 C 0.70951 0.79694 0.70917
 C42 C 0.67696 0.79768 0.64921
 C43 C 0.76559 0.75474 0.79876
 C44 C 0.79452 0.79198 0.82393
 C45 C 0.82683 0.78969 0.88464
 C46 C 0.83085 0.74808 0.91784
 C47 C 0.80579 0.71009 0.89085
 C48 C 0.77060 0.71431 0.83469
 H49 H 0.63457 0.75778 0.57510
 H50 H 0.74182 0.68710 0.70957
 H51 H 0.71675 0.82771 0.73629
 H52 H 0.79407 0.82214 0.79406
 H53 H 0.85490 0.74386 0.96381
 H54 H 0.74822 0.68511 0.81882
 C55 C 0.32787 0.74421 0.59836
 C56 C 0.30112 0.78265 0.62084
 C57 C 0.26630 0.78006 0.67773
 C58 C 0.26306 0.74140 0.71808
 C59 C 0.29209 0.70345 0.69654
 C60 C 0.32432 0.70426 0.63607
 C61 C 0.23212 0.74254 0.78451
 C62 C 0.20399 0.70502 0.80974
 C63 C 0.17182 0.70717 0.87057
 C64 C 0.16833 0.74869 0.90437
 C65 C 0.19405 0.78665 0.87808
 C66 C 0.22806 0.78270 0.82090
 H67 H 0.35319 0.74625 0.55289
 H68 H 0.24321 0.80934 0.69172
 H69 H 0.29155 0.67396 0.72837
 H70 H 0.20496 0.67499 0.77945
 H71 H 0.14434 0.75292 0.95038
 H72 H 0.25041 0.81169 0.80405
 O73 O 0.95977 -0.02882 -0.06802
 O74 O 1.06283 0.05614 -0.03339
 O75 O 1.06531 -0.02809 -0.07131
 O76 O 0.95803 0.05013 -0.01387
 O77 O 0.96819 0.02510 0.09211
 O78 O 1.07549 -0.05122 0.03586
 O79 O 1.07384 0.03161 0.07297
 O80 O 0.97081 -0.05554 0.03708
 Cu81 Cu 1.01085 0.01505 -0.05703
 Cu82 Cu 1.02259 -0.01462 0.07029
 C83 C 0.94911 -0.05770 -0.02256
 C84 C 1.08513 0.05914 0.02531
 C85 C 1.08737 -0.05406 -0.02745
 C86 C 0.94537 0.05117 0.04967
 O87 O 0.57451 0.44505 0.54726
 O88 O 0.46056 0.52058 0.58657
 O89 O 0.47055 0.43994 0.53172
 O90 O 0.56658 0.52734 0.58739
 O91 O 0.57265 0.55134 0.48020
 O92 O 0.46920 0.46954 0.42764
 O93 O 0.46859 0.55062 0.48323
 O94 O 0.57597 0.46955 0.44015
 Cu95 Cu 0.51713 0.48070 0.57384
 Cu96 Cu 0.52110 0.51244 0.44689
 C97 C 0.59388 0.44356 0.48670
 C98 C 0.44813 0.55055 0.54346
 C99 C 0.45487 0.43925 0.46931
 C100 C 0.58590 0.55440 0.54315
 O101 O -0.06931 0.54857 0.04011
 O102 O 0.04216 0.47399 0.08902
 O103 O 0.03477 0.55346 0.03165
 O104 O -0.06422 0.46712 0.08299
 O105 O -0.06157 0.44008 -0.02248
 O106 O 0.03897 0.52479 -0.07294
 O107 O 0.04518 0.44667 -0.01626
 O108 O -0.06652 0.52288 -0.06632
 Cu109 Cu -0.01394 0.51307 0.07169
 Cu110 Cu -0.01099 0.48052 -0.05480
 C111 C -0.08557 0.54985 -0.02184
 C112 C 0.06242 0.44731 0.04553
 C113 C 0.05223 0.55465 -0.03013
 C114 C -0.07984 0.43877 0.03864
 O115 O 0.42350 1.04967 0.54066
 O116 O 0.53398 0.97417 0.58990
 O117 O 0.52758 1.05455 0.53405
 O118 O 0.42746 0.96730 0.57837
 O119 O 0.43161 0.94205 0.47189
 O120 O 0.53380 1.02696 0.42900
 O121 O 0.53742 0.94718 0.48446
 O122 O 0.42728 1.02520 0.43368
 Cu123 Cu 0.47836 1.01350 0.57153
 Cu124 Cu 0.48314 0.98276 0.44431
 C125 C 0.40729 1.05134 0.47874
 C126 C 0.55382 0.94707 0.54673
 C127 C 0.54616 1.05645 0.47285
 C128 C 0.41212 0.93993 0.53228
 C129 C 1.13354 0.17692 0.03652
 C130 C 1.17594 0.17575 0.08623
 C131 C 1.19504 0.13246 0.10410
 C132 C 1.16746 0.09386 0.08191
 C133 C 1.12154 0.09697 0.03881
 C134 C 1.10793 0.13864 0.01299
 C135 C 1.05289 0.15972 0.00910
 C136 C 1.07993 0.20157 0.03551
 H137 H 1.22962 0.12710 0.13752
 H138 H 1.18065 0.06177 0.10085
 H139 H 1.02299 0.14511 0.04598
 H140 H 1.03810 0.16266 -0.04485
 H141 H 1.06589 0.21124 0.08790
 H142 H 1.07912 0.22869 -0.00335
 C143 C 0.65980 0.66451 0.54284
 C144 C 0.66634 0.67332 0.61338
 C145 C 0.65679 0.63750 0.65913
 C146 C 0.63471 0.59709 0.63566
 C147 C 0.62182 0.59113 0.56559
 C148 C 0.63910 0.62425 0.51970
 C149 C 0.61119 0.64498 0.45949
 C150 C 0.63280 0.68928 0.48519
 H151 H 0.66260 0.64166 0.71404
 H152 H 0.62400 0.57195 0.67323
 H153 H 0.56581 0.64223 0.46215
 H154 H 0.62972 0.63453 0.40979
 H155 H 0.59874 0.71114 0.50194
 H156 H 0.66298 0.70475 0.44964
 C157 C -0.16771 0.36390 0.14881
 C158 C -0.17372 0.32612 0.10744
 C159 C -0.15957 0.33034 0.03722
 C160 C -0.13246 0.36868 0.01305
 C161 C -0.11869 0.40340 0.05875
 C162 C -0.14064 0.40141 0.12528
 C163 C -0.11474 0.40966 0.19379
 C164 C -0.14462 0.36862 0.21964
 H165 H -0.16607 0.30300 0.00199
 H166 H -0.11862 0.36946 -0.03992
 H167 H -0.12963 0.44087 0.21780
 H168 H -0.06945 0.40566 0.19278
 H169 H -0.17682 0.37625 0.25835
 H170 H -0.11670 0.34090 0.23370
 C171 C 0.32256 0.86318 0.63643
 C172 C 0.31543 0.82688 0.59212
 C173 C 0.32947 0.83311 0.52227
 C174 C 0.35739 0.87182 0.50106
 C175 C 0.37216 0.90477 0.54942
 C176 C 0.35032 0.90103 0.61574
 C177 C 0.37708 0.90649 0.68440
 C178 C 0.34665 0.86502 0.70712
 H179 H 0.32258 0.80691 0.48515
 H180 H 0.37123 0.87409 0.44818
 H181 H 0.36306 0.93698 0.71131
 H182 H 0.42226 0.90195 0.68232
 H183 H 0.31521 0.87167 0.74713
 H184 H 0.37416 0.83648 0.71820
 C185 C -0.16058 0.65881 -0.01683
 C186 C -0.17663 0.66549 -0.08519
 C187 C -0.16331 0.63203 -0.13337
 C188 C -0.13661 0.59285 -0.11255
 C189 C -0.12274 0.58599 -0.04293
 C190 C -0.13454 0.62005 0.00376
 C191 C -0.16656 0.61782 0.06917
 C192 C -0.19495 0.66021 0.04665
 H193 H -0.17144 0.63686 -0.18768
 H194 H -0.12546 0.56863 -0.15125
 H195 H -0.14011 0.62238 0.11523
 H196 H -0.19438 0.58860 0.07128
 H197 H -0.18480 0.68919 0.07967
 H198 H -0.23932 0.65570 0.03567
 C199 C 0.31863 1.12634 0.36951
 C200 C 0.31748 1.16538 0.40944
 C201 C 0.33166 1.16066 0.47977
 C202 C 0.35561 1.12123 0.50436
 C203 C 0.36705 1.08578 0.45912
 C204 C 0.34379 1.08789 0.39335
 C205 C 0.36713 1.07699 0.32443
 C206 C 0.33966 1.11884 0.29796
 H207 H 0.32724 1.18803 0.51537
 H208 H 0.37002 1.12046 0.55709
 H209 H 0.34925 1.04610 0.30266
 H210 H 0.41261 1.07891 0.32317
 H211 H 0.30604 1.11198 0.26083
 H212 H 0.36926 1.14479 0.28123
 C213 C 1.15637 -0.13774 -0.14304
 C214 C 1.17775 -0.16887 -0.09645
 C215 C 1.16967 -0.16098 -0.02567
 C216 C 1.14299 -0.12233 -0.00294
 C217 C 1.12320 -0.09062 -0.05040
 C218 C 1.12938 -0.09975 -0.12052
 C219 C 1.15479 -0.07145 -0.17479
 C220 C 1.18488 -0.11256 -0.19899
 H221 H 1.18314 -0.18509 0.01208
 H222 H 1.13680 -0.11787 0.05184
 H223 H 1.18234 -0.04552 -0.15323
 H224 H 1.12407 -0.05922 -0.21254
 H225 H 1.22986 -0.11032 -0.19092
 H226 H 1.17211 -0.12374 -0.25113
 C227 C 0.68384 0.36827 0.38125
 C228 C 0.68918 0.33122 0.42451
 C229 C 0.67659 0.33733 0.49482
 C230 C 0.65021 0.37640 0.51717
 C231 C 0.63562 0.40983 0.46948
 C232 C 0.65734 0.40645 0.40297
 C233 C 0.63142 0.41355 0.33413
 C234 C 0.66067 0.37185 0.31024
 H235 H 0.68269 0.31063 0.53135
 H236 H 0.63655 0.37827 0.57015
 H237 H 0.64666 0.44418 0.30854
 H238 H 0.58609 0.40984 0.33530
 H239 H 0.69292 0.37850 0.27112
 H240 H 0.63232 0.34413 0.29752
 C241 C 0.84855 -0.12996 -0.11896
 C242 C 0.85708 -0.17270 -0.09137
 C243 C 0.89961 -0.17611 -0.04131
 C244 C 0.92745 -0.13846 -0.01674
 C245 C 0.91505 -0.09602 -0.04192
 C246 C 0.87728 -0.09293 -0.09574
 C247 C 0.82832 -0.06360 -0.10098
 C248 C 0.79671 -0.10384 -0.12606
 H249 H 0.91330 -0.20741 -0.02077
 H250 H 0.95964 -0.14278 0.02109
 H251 H 0.83347 -0.03763 -0.14117
 H252 H 0.81425 -0.05122 -0.05001
 H253 H 0.78331 -0.10055 -0.18054
 H254 H 0.76431 -0.11496 -0.08964
 C255 C 0.35704 0.36792 0.36649
 C256 C 0.36830 0.32477 0.39008
 C257 C 0.41338 0.32012 0.43542
 C258 C 0.44028 0.35757 0.46243
 C259 C 0.42423 0.40070 0.44333
 C260 C 0.38489 0.40487 0.39147
 C261 C 0.33441 0.43276 0.39010
 C262 C 0.30399 0.39240 0.36277
 H263 H 0.42797 0.28783 0.45118
 H264 H 0.47382 0.35276 0.49821
 H265 H 0.33746 0.46015 0.35190
 H266 H 0.32092 0.44303 0.44243
 H267 H 0.28955 0.39667 0.30888
 H268 H 0.27288 0.37913 0.39924
 C269 C 0.14921 0.62682 -0.13339
 C270 C 0.14123 0.66964 -0.10573
 C271 C 0.09894 0.67326 -0.05547
 C272 C 0.07164 0.63570 -0.02975
 C273 C 0.08413 0.59311 -0.05415
 C274 C 0.12084 0.58981 -0.10907
 C275 C 0.16953 0.56035 -0.11587
 C276 C 0.20075 0.60052 -0.14214
 H277 H 0.08528 0.70463 -0.03524
 H278 H 0.04012 0.64015 0.00894
 H279 H 0.16342 0.53439 -0.15581
 H280 H 0.18462 0.54793 -0.06536
 H281 H 0.21296 0.59719 -0.19704
 H282 H 0.23397 0.61156 -0.10687
 C283 C 0.64406 1.12939 0.37243
 C284 C 0.63791 1.17167 0.40273
 C285 C 0.59646 1.17497 0.45412
 C286 C 0.56801 1.13736 0.47796
 C287 C 0.57871 1.09511 0.45069
 C288 C 0.61474 1.09246 0.39502
 C289 C 0.66226 1.06207 0.38553
 C290 C 0.69458 1.10217 0.36116
 H291 H 0.58455 1.20614 0.47672
 H292 H 0.53720 1.14149 0.51760
 H293 H 0.65479 1.03732 0.34415
 H294 H 0.67746 1.04804 0.43496
 H295 H 0.70611 1.09993 0.30589
 H296 H 0.72853 1.11154 0.39647
 C297 C 0.16726 0.35549 0.04117
 C298 C 0.16711 0.33984 0.10941
 C299 C 0.14158 0.36737 0.15887
 C300 C 0.11077 0.40476 0.13853
 C301 C 0.10485 0.41566 0.06818
 C302 C 0.13782 0.39252 0.02165
 C303 C 0.13025 0.37669 -0.05031
 C304 C 0.16261 0.33555 -0.02933
 H305 H 0.14149 0.35809 0.21276
 H306 H 0.08799 0.42267 0.17745
 H307 H 0.15218 0.39791 -0.08821
 H308 H 0.08671 0.36940 -0.06284
 H309 H 0.20294 0.33308 -0.05562
 H310 H 0.13660 0.30547 -0.03252
 C311 C 0.63891 0.87477 0.66466
 C312 C 0.65538 0.84023 0.62120
 C313 C 0.64854 0.84686 0.54958
 C314 C 0.61866 0.88349 0.52431
 C315 C 0.59508 0.91437 0.57009
 C316 C 0.60931 0.91072 0.63985
 C317 C 0.57441 0.91255 0.70300
 C318 C 0.60694 0.87325 0.73014
 H319 H 0.66343 0.82245 0.51323
 H320 H 0.61092 0.88580 0.46951
 H321 H 0.53075 0.90447 0.69239
 H322 H 0.58125 0.94346 0.73299
 H323 H 0.58218 0.84242 0.73529
 H324 H 0.63260 0.88161 0.77562
 C325 C 0.84839 0.14860 0.05339
 C326 C 0.84791 0.16065 0.12333
 C327 C 0.87040 0.12968 0.17015
 C328 C 0.89893 0.09196 0.14639
 C329 C 0.90530 0.08402 0.07514
 C330 C 0.87546 0.11112 0.03034
 C331 C 0.88866 0.13120 -0.03778
 C332 C 0.85948 0.17278 -0.01267
 H333 H 0.86952 0.13613 0.22499
 H334 H 0.91930 0.07102 0.18378
 H335 H 0.86690 0.11431 -0.08068
 H336 H 0.93338 0.13609 -0.04564
 H337 H 0.82134 0.18010 -0.04177
 H338 H 0.88860 0.20088 -0.00790
 C339 C 0.34390 0.62158 0.63671
 C340 C 0.35760 0.66478 0.61538
 C341 C 0.40575 0.66926 0.57533
 C342 C 0.43348 0.63183 0.55019
 C343 C 0.41530 0.58873 0.56614
 C344 C 0.37264 0.58448 0.61377
 C345 C 0.32160 0.55733 0.60909
 C346 C 0.29031 0.59781 0.63426
 H347 H 0.42224 0.70147 0.56226
 H348 H 0.46955 0.63664 0.51853
 H349 H 0.32149 0.52950 0.64671
 H350 H 0.31142 0.54780 0.55526
 H351 H 0.27231 0.59320 0.68637
 H352 H 0.26199 0.61186 0.59506
   
