data_POSCAR
  _audit_creation_date              2014-09-24
  _audit_creation_method            'ToBaCCo'
  _symmetry_space_group_name_H-M    'P1'
  _symmetry_Int_Tables_number       1
  _symmetry_cell_setting            triclinic
  loop_
  _symmetry_equiv_pos_as_xyz
 x,y,z
_cell_length_a 32.8455
_cell_length_b 32.8620
_cell_length_c 33.1052
_cell_angle_alpha 89.435400
_cell_angle_beta 89.882800
_cell_angle_gamma 89.675300
loop_
  _atom_site_label
  _atom_site_type_symbol
  _atom_site_fract_x
  _atom_site_fract_y
  _atom_site_fract_z
N1 N 0.28999 0.19785 0.17831
 N2 N 0.27786 0.23186 0.16074
 C3 C 0.30137 0.23910 0.12810
 C4 C 0.32976 0.20803 0.12530
 C5 C 0.32163 0.18233 0.15756
 H6 H 0.29887 0.26558 0.10857
 H7 H 0.33844 0.15520 0.16610
 Cu8 Cu 0.23432 0.26496 0.18347
 Cu9 Cu 0.26650 0.17862 0.22889
 Cu10 Cu 0.17990 0.22847 0.26181
 N11 N 0.18196 0.28846 0.19846
 N12 N 0.16044 0.27373 0.22874
 C13 C 0.12694 0.29690 0.23380
 C14 C 0.12755 0.32777 0.20516
 C15 C 0.16278 0.32147 0.18314
 H16 H 0.10459 0.29258 0.25748
 H17 H 0.17421 0.34029 0.15869
 N18 N 0.20018 0.17780 0.28718
 N19 N 0.23347 0.15895 0.27477
 C20 C 0.24065 0.12663 0.29911
 C21 C 0.21049 0.12519 0.32819
 C22 C 0.18526 0.15791 0.31972
 H23 H 0.26640 0.10616 0.29654
 H24 H 0.15870 0.16713 0.33676
 H25 H 0.21015 0.20205 0.21392
 H26 H 0.24131 0.23178 0.25008
 N27 N 0.71255 -0.19567 0.17558
 N28 N 0.72939 -0.22428 0.15353
 C29 C 0.70563 -0.23129 0.12125
 C30 C 0.67206 -0.20578 0.12336
 C31 C 0.67754 -0.18339 0.15809
 H32 H 0.71156 -0.25412 0.09863
 H33 H 0.65701 -0.16078 0.17035
 Cu34 Cu 0.77898 -0.25212 0.17059
 Cu35 Cu 0.73544 -0.17939 0.22710
 Cu36 Cu 0.83186 -0.21669 0.24939
 N37 N 0.82577 -0.28150 0.19237
 N38 N 0.84626 -0.26771 0.22339
 C39 C 0.87729 -0.29340 0.23177
 C40 C 0.87609 -0.32498 0.20443
 C41 C 0.84306 -0.31645 0.17985
 H42 H 0.89911 -0.28934 0.25582
 H43 H 0.83262 -0.33425 0.15462
 N44 N 0.80497 -0.17360 0.28092
 N45 N 0.76832 -0.15927 0.27238
 C46 C 0.75842 -0.13040 0.29935
 C47 C 0.79015 -0.12681 0.32638
 C48 C 0.81916 -0.15461 0.31387
 H49 H 0.73025 -0.11320 0.29942
 H50 H 0.84831 -0.16070 0.32790
 H51 H 0.79301 -0.18946 0.20711
 H52 H 0.77231 -0.23036 0.24066
 N53 N 0.71905 0.19059 0.82381
 N54 N 0.73053 0.22483 0.84044
 C55 C 0.70682 0.23228 0.87278
 C56 C 0.67883 0.20122 0.87632
 C57 C 0.68745 0.17522 0.84483
 H58 H 0.70861 0.25911 0.89133
 H59 H 0.67087 0.14812 0.83686
 Cu60 Cu 0.77277 0.25854 0.81636
 Cu61 Cu 0.74305 0.17138 0.77370
 Cu62 Cu 0.82474 0.22537 0.73533
 N63 N 0.82367 0.28343 0.79943
 N64 N 0.84389 0.27050 0.76769
 C65 C 0.87630 0.29465 0.76132
 C66 C 0.87629 0.32430 0.79072
 C67 C 0.84264 0.31612 0.81458
 H68 H 0.89758 0.29157 0.73655
 H69 H 0.83208 0.33342 0.84022
 N70 N 0.80617 0.17362 0.71214
 N71 N 0.77531 0.15268 0.72710
 C72 C 0.76930 0.11966 0.70409
 C73 C 0.79755 0.12004 0.67314
 C74 C 0.82051 0.15453 0.67917
 H75 H 0.74529 0.09769 0.70858
 H76 H 0.84509 0.16541 0.66023
 H77 H 0.79914 0.19734 0.78504
 H78 H 0.76403 0.22562 0.75052
 N79 N 0.27872 -0.19595 0.83053
 N80 N 0.26621 -0.22969 0.84816
 C81 C 0.29159 -0.23915 0.87881
 C82 C 0.32152 -0.20981 0.88031
 C83 C 0.31240 -0.18280 0.84935
 H84 H 0.28910 -0.26575 0.89813
 H85 H 0.32963 -0.15620 0.84054
 Cu86 Cu 0.21880 -0.25847 0.82825
 Cu87 Cu 0.25231 -0.17318 0.78268
 Cu88 Cu 0.16803 -0.22444 0.74660
 N89 N 0.17077 -0.28637 0.80853
 N90 N 0.15112 -0.27283 0.77648
 C91 C 0.12010 -0.29804 0.76841
 C92 C 0.12034 -0.32905 0.79694
 C93 C 0.15274 -0.32063 0.82210
 H94 H 0.09929 -0.29445 0.74333
 H95 H 0.16284 -0.33859 0.84777
 N96 N 0.18975 -0.17491 0.72060
 N97 N 0.22155 -0.15512 0.73460
 C98 C 0.22971 -0.12356 0.70965
 C99 C 0.20184 -0.12367 0.67849
 C100 C 0.17694 -0.15651 0.68634
 H101 H 0.25475 -0.10268 0.71311
 H102 H 0.15194 -0.16669 0.66787
 H103 H 0.19518 -0.19621 0.79500
 H104 H 0.22899 -0.22730 0.76190
 N105 N 0.71292 -0.19924 0.82555
 N106 N 0.72835 -0.23013 0.84605
 C107 C 0.70456 -0.23779 0.87842
 C108 C 0.67268 -0.21016 0.87812
 C109 C 0.67895 -0.18608 0.84424
 H110 H 0.70947 -0.26211 0.90016
 H111 H 0.65958 -0.16165 0.83335
 Cu112 Cu 0.77699 -0.25839 0.82732
 Cu113 Cu 0.73620 -0.18070 0.77449
 Cu114 Cu 0.82810 -0.22403 0.74577
 N115 N 0.82569 -0.28588 0.80778
 N116 N 0.84585 -0.27187 0.77627
 C117 C 0.87738 -0.29693 0.76843
 C118 C 0.87684 -0.32838 0.79648
 C119 C 0.84376 -0.32037 0.82113
 H120 H 0.89843 -0.29319 0.74354
 H121 H 0.83318 -0.33881 0.84625
 N122 N 0.80440 -0.17587 0.71858
 N123 N 0.76898 -0.15984 0.72894
 C124 C 0.75998 -0.12908 0.70320
 C125 C 0.79116 -0.12580 0.67533
 C126 C 0.81884 -0.15576 0.68598
 H127 H 0.73247 -0.11087 0.70410
 H128 H 0.84681 -0.16307 0.67030
 H129 H 0.76790 -0.23334 0.75822
 H130 H 0.79457 -0.19621 0.79119
 N131 N 0.28836 0.19304 0.82464
 N132 N 0.27516 0.22609 0.84264
 C133 C 0.29846 0.23308 0.87525
 C134 C 0.32788 0.20291 0.87754
 C135 C 0.32056 0.17796 0.84503
 H136 H 0.29524 0.25894 0.89498
 H137 H 0.33829 0.15172 0.83605
 Cu138 Cu 0.23098 0.25885 0.82020
 Cu139 Cu 0.26538 0.17447 0.77407
 Cu140 Cu 0.17747 0.22288 0.74199
 N141 N 0.17856 0.28211 0.80481
 N142 N 0.15739 0.26755 0.77460
 C143 C 0.12392 0.29070 0.76899
 C144 C 0.12420 0.32140 0.79719
 C145 C 0.15920 0.31502 0.81955
 H146 H 0.10194 0.28663 0.74511
 H147 H 0.17042 0.33382 0.84369
 N148 N 0.19857 0.17309 0.71663
 N149 N 0.23247 0.15489 0.72859
 C150 C 0.24019 0.12317 0.70423
 C151 C 0.20974 0.12146 0.67563
 C152 C 0.18378 0.15337 0.68439
 H153 H 0.26645 0.10329 0.70649
 H154 H 0.15682 0.16221 0.66771
 H155 H 0.23878 0.22750 0.75342
 H156 H 0.20859 0.19598 0.78965
 N157 N 0.27581 -0.18644 0.17071
 N158 N 0.25906 -0.21525 0.14917
 C159 C 0.28398 -0.22463 0.11822
 C160 C 0.31811 -0.20035 0.12067
 C161 C 0.31192 -0.17647 0.15425
 H162 H 0.27818 -0.24796 0.09617
 H163 H 0.33260 -0.15415 0.16626
 Cu164 Cu 0.20722 -0.23904 0.16456
 Cu165 Cu 0.25058 -0.16536 0.21951
 Cu166 Cu 0.16565 -0.21640 0.25474
 N167 N 0.16411 -0.27184 0.18815
 N168 N 0.14799 -0.26284 0.22336
 C169 C 0.11974 -0.29081 0.23298
 C170 C 0.11814 -0.31882 0.20219
 C171 C 0.14667 -0.30592 0.17416
 H172 H 0.10205 -0.29113 0.26057
 H173 H 0.15458 -0.32054 0.14606
 N174 N 0.18834 -0.16858 0.28194
 N175 N 0.22060 -0.14894 0.26831
 C176 C 0.22932 -0.11852 0.29379
 C177 C 0.20131 -0.11923 0.32493
 C178 C 0.17573 -0.15123 0.31652
 H179 H 0.25467 -0.09790 0.29052
 H180 H 0.15031 -0.16148 0.33469
 H181 H 0.22458 -0.22098 0.23330
 H182 H 0.19089 -0.18201 0.20853
 N183 N 0.72118 0.19288 0.17261
 N184 N 0.73174 0.22794 0.15635
 C185 C 0.70730 0.23612 0.12464
 C186 C 0.67991 0.20458 0.12110
 C187 C 0.68962 0.17760 0.15192
 H188 H 0.70833 0.26360 0.10643
 H189 H 0.67374 0.14988 0.15974
 Cu190 Cu 0.77426 0.26129 0.17979
 Cu191 Cu 0.74584 0.17260 0.22224
 Cu192 Cu 0.82687 0.22647 0.26036
 N193 N 0.82536 0.28580 0.19624
 N194 N 0.84585 0.27207 0.22767
 C195 C 0.87835 0.29600 0.23370
 C196 C 0.87820 0.32627 0.20444
 C197 C 0.84428 0.31885 0.18105
 H198 H 0.89979 0.29244 0.25825
 H199 H 0.83353 0.33694 0.15572
 N200 N 0.80865 0.17419 0.28371
 N201 N 0.77812 0.15319 0.26874
 C202 C 0.77204 0.11993 0.29205
 C203 C 0.79989 0.12022 0.32324
 C204 C 0.82272 0.15490 0.31700
 H205 H 0.74812 0.09794 0.28772
 H206 H 0.84697 0.16582 0.33602
 H207 H 0.76603 0.22659 0.24547
 H208 H 0.80150 0.19962 0.21063
 C209 C 0.20169 -0.02181 0.46488
 C210 C 0.20371 0.02119 0.46504
 C211 C 0.20392 0.04158 0.50201
 C212 C 0.20371 0.02027 0.53888
 C213 C 0.20169 -0.02273 0.53891
 C214 C 0.19997 -0.04305 0.50185
 H215 H 0.19834 -0.07601 0.50176
 H216 H 0.20502 0.07458 0.50209
 C217 C 0.79709 -0.02459 0.53651
 C218 C 0.80021 0.01833 0.53613
 C219 C 0.80262 0.03892 0.49884
 C220 C 0.80066 0.01814 0.46201
 C221 C 0.79730 -0.02477 0.46266
 C222 C 0.79642 -0.04553 0.49984
 H223 H 0.79462 -0.07850 0.50025
 H224 H 0.80490 0.07184 0.49847
 C225 C 0.46613 0.19913 -0.02106
 C226 C 0.46642 0.20070 0.02162
 C227 C 0.50379 0.20037 0.04205
 C228 C 0.54089 0.20016 0.02103
 C229 C 0.54068 0.19864 -0.02162
 C230 C 0.50330 0.19737 -0.04198
 H231 H 0.50315 0.19608 -0.07471
 H232 H 0.50403 0.20112 0.07481
 C233 C 0.46010 0.79389 0.02344
 C234 C 0.46048 0.79193 -0.01924
 C235 C 0.49783 0.79178 -0.03979
 C236 C 0.53501 0.79217 -0.01902
 C237 C 0.53484 0.79377 0.02374
 C238 C 0.49733 0.79517 0.04417
 H239 H 0.49710 0.79664 0.07688
 H240 H 0.49795 0.79095 -0.07256
 C241 C 0.02294 0.46497 0.19743
 C242 C -0.02019 0.46447 0.19717
 C243 C -0.04167 0.50148 0.19624
 C244 C -0.02153 0.53896 0.19748
 C245 C 0.02151 0.53946 0.19783
 C246 C 0.04310 0.50255 0.19685
 H247 H 0.07612 0.50310 0.19680
 H248 H -0.07470 0.50108 0.19586
 C249 C 0.02080 0.45949 0.80085
 C250 C -0.02230 0.45960 0.79970
 C251 C -0.04330 0.49689 0.80027
 C252 C -0.02262 0.53412 0.80014
 C253 C 0.02047 0.53405 0.80088
 C254 C 0.04143 0.49675 0.80210
 H255 H 0.07445 0.49673 0.80294
 H256 H -0.07632 0.49695 0.79979
 N257 N 0.39107 0.17387 0.09976
 C258 C 0.36388 0.20499 0.09671
 N259 N 0.36987 0.23420 0.06807
 N260 N 0.40193 0.23236 0.04342
 C261 C 0.42895 0.20106 0.04624
 N262 N 0.42311 0.17204 0.07510
 N263 N 0.63660 0.76966 0.06560
 C264 C 0.63864 0.79523 0.09749
 N265 N 0.60691 0.82091 0.10441
 N266 N 0.57440 0.82093 0.08041
 C267 C 0.57242 0.79550 0.04837
 N268 N 0.60404 0.76969 0.04167
 N269 N 0.63952 0.22740 -0.06635
 C270 C 0.64429 0.19903 -0.09552
 N271 N 0.61550 0.16991 -0.09956
 N272 N 0.58302 0.16929 -0.07539
 C273 C 0.57833 0.19753 -0.04604
 N274 N 0.60710 0.22669 -0.04213
 N275 N 0.36444 0.75987 -0.06659
 C276 C 0.35690 0.79115 -0.09265
 N277 N 0.38324 0.82281 -0.09412
 N278 N 0.41580 0.82331 -0.07020
 C279 C 0.42305 0.79230 -0.04376
 N280 N 0.39709 0.76032 -0.04277
 N281 N 0.06761 0.36604 0.22806
 C282 C 0.09904 0.36223 0.20169
 N283 N 0.10476 0.39175 0.17331
 N284 N 0.07991 0.42391 0.17140
 C285 C 0.04823 0.42759 0.19759
 N286 N 0.04283 0.39822 0.22614
 N287 N 0.09884 0.60876 0.82823
 C288 C 0.09443 0.63757 0.79885
 N289 N 0.06491 0.63270 0.77068
 N290 N 0.04083 0.60025 0.77179
 C291 C 0.04492 0.57166 0.80135
 N292 N 0.07468 0.57633 0.82933
 N293 N -0.10297 0.61291 0.17344
 C294 C -0.09757 0.64171 0.20205
 N295 N -0.06630 0.63718 0.22852
 N296 N -0.04149 0.60503 0.22651
 C297 C -0.04674 0.57637 0.19779
 N298 N -0.07818 0.58076 0.17150
 N299 N -0.06699 0.36273 0.76646
 C300 C -0.09711 0.35696 0.79404
 N301 N -0.10172 0.38446 0.82409
 N302 N -0.07719 0.41649 0.82642
 C303 C -0.04686 0.42208 0.79902
 N304 N -0.04256 0.39484 0.76875
 N305 N 0.23724 0.06849 0.36920
 C306 C 0.20774 0.09687 0.36268
 N307 N 0.17651 0.09967 0.38945
 N308 N 0.17481 0.07489 0.42151
 C309 C 0.20409 0.04621 0.42779
 N310 N 0.23557 0.04379 0.40130
 N311 N 0.77470 0.05968 0.63660
 C312 C 0.79999 0.09208 0.63885
 N313 N 0.82618 0.09938 0.60790
 N314 N 0.82684 0.07532 0.57575
 C315 C 0.80155 0.04284 0.57343
 N316 N 0.77544 0.03558 0.60447
 N317 N 0.22763 -0.06542 0.63937
 C318 C 0.20076 -0.09645 0.64303
 N319 N 0.17376 -0.10271 0.61277
 N320 N 0.17368 -0.07880 0.58003
 C321 C 0.20036 -0.04752 0.57646
 N322 N 0.22747 -0.04150 0.60666
 N323 N 0.82559 -0.09979 0.38554
 C324 C 0.79231 -0.09958 0.36130
 N325 N 0.76090 -0.07410 0.37009
 N326 N 0.76278 -0.04961 0.40188
 C327 C 0.79634 -0.04938 0.42573
 N328 N 0.82748 -0.07528 0.41731
 N329 N 0.63305 0.76219 -0.06504
 C330 C 0.63795 0.79140 -0.09389
 N331 N 0.60944 0.82128 -0.09736
 N332 N 0.57730 0.82199 -0.07276
 C333 C 0.57259 0.79305 -0.04360
 N334 N 0.60080 0.76284 -0.04057
 N335 N 0.39156 0.17147 -0.09896
 C336 C 0.36234 0.20042 -0.09434
 N337 N 0.36663 0.22825 -0.06465
 N338 N 0.39907 0.22722 -0.04055
 C339 C 0.42827 0.19823 -0.04507
 N340 N 0.42400 0.17052 -0.07489
 N341 N 0.35652 0.77338 0.06266
 C342 C 0.35434 0.79884 0.09462
 N343 N 0.38664 0.82296 0.10272
 N344 N 0.41991 0.82167 0.07971
 C345 C 0.42210 0.79642 0.04753
 N346 N 0.38982 0.77215 0.03964
 N347 N 0.63789 0.23255 0.06608
 C348 C 0.64505 0.20237 0.09349
 N349 N 0.61838 0.17107 0.09629
 N350 N 0.58571 0.16999 0.07255
 C351 C 0.57872 0.19998 0.04490
 N352 N 0.60522 0.23143 0.04233
 N353 N -0.06691 0.63350 0.77059
 C354 C -0.09713 0.63805 0.79825
 N355 N -0.10214 0.60873 0.82700
 N356 N -0.07785 0.57613 0.82801
 C357 C -0.04739 0.57178 0.80057
 N358 N -0.04268 0.60087 0.77161
 N359 N -0.06465 0.36653 0.22946
 C360 C -0.09398 0.36101 0.20127
 N361 N -0.09823 0.38902 0.17115
 N362 N -0.07394 0.42132 0.16926
 C363 C -0.04428 0.42664 0.19723
 N364 N -0.04046 0.39888 0.22761
 N365 N 0.10129 0.38542 0.82763
 C366 C 0.09587 0.35600 0.79970
 N367 N 0.06500 0.36012 0.77277
 N368 N 0.04049 0.39252 0.77370
 C369 C 0.04562 0.42181 0.80178
 N370 N 0.07671 0.41778 0.82856
 N371 N 0.06674 0.63573 0.23148
 C372 C 0.09240 0.64482 0.20054
 N373 N 0.09429 0.61943 0.16848
 N374 N 0.07120 0.58624 0.16737
 C375 C 0.04512 0.57747 0.19808
 N376 N 0.04368 0.60255 0.23036
 N377 N 0.76193 -0.07258 0.63136
 C378 C 0.79325 -0.09829 0.64015
 N379 N 0.82603 -0.09912 0.61513
 N380 N 0.82753 -0.07501 0.58259
 C381 C 0.79645 -0.04896 0.57407
 N382 N 0.76341 -0.04851 0.59877
 N383 N 0.22821 -0.06293 0.36475
 C384 C 0.20046 -0.09301 0.36057
 N385 N 0.17273 -0.09918 0.39043
 N386 N 0.17277 -0.07606 0.42326
 C387 C 0.20030 -0.04568 0.42730
 N388 N 0.22819 -0.03981 0.39756
 N389 N 0.77714 0.05922 0.36020
 C390 C 0.80193 0.09208 0.35798
 N391 N 0.82725 0.09964 0.38931
 N392 N 0.82750 0.07545 0.42182
 C393 C 0.80268 0.04256 0.42417
 N394 N 0.77751 0.03496 0.39270
 N395 N 0.23748 0.06641 0.63407
 C396 C 0.20724 0.09374 0.64123
 N397 N 0.17547 0.09614 0.61515
 N398 N 0.17395 0.07201 0.58311
 C399 C 0.20396 0.04437 0.57617
 N400 N 0.23598 0.04234 0.60196
   
