data_POSCAR
  _audit_creation_date              2014-09-24
  _audit_creation_method            'ToBaCCo'
  _symmetry_space_group_name_H-M    'P1'
  _symmetry_Int_Tables_number       1
  _symmetry_cell_setting            triclinic
  loop_
  _symmetry_equiv_pos_as_xyz
 x,y,z
_cell_length_a 18.9051
_cell_length_b 18.8858
_cell_length_c 18.8923
_cell_angle_alpha 90.098200
_cell_angle_beta 89.971200
_cell_angle_gamma 89.962200
loop_
  _atom_site_label
  _atom_site_type_symbol
  _atom_site_fract_x
  _atom_site_fract_y
  _atom_site_fract_z
C1 C 0.28722 1.05498 -0.46253
 C2 C 0.28699 1.05877 -0.53503
 C3 C 0.34624 1.02201 -0.55844
 N4 N 0.38342 0.99753 -0.50250
 C5 C 0.34701 1.01696 -0.44400
 C6 C 0.36399 1.00664 -0.62972
 C7 C 0.43460 0.98777 -0.64714
 C8 C 0.45524 0.94621 -0.70418
 C9 C 0.52791 0.94478 -0.70415
 C10 C 0.55006 0.98563 -0.64717
 N11 N 0.49273 1.01007 -0.61162
 C12 C 0.62129 1.00243 -0.63013
 C13 C 0.63944 1.01948 -0.55938
 C14 C 0.69891 1.05659 -0.53734
 C15 C 0.69881 1.05509 -0.46475
 C16 C 0.63902 1.01780 -0.44484
 N17 N 0.60236 0.99683 -0.50262
 C18 C 0.62076 0.99894 -0.37498
 C19 C 0.55093 0.97886 -0.35793
 C20 C 0.53025 0.94157 -0.29824
 C21 C 0.45740 0.94064 -0.29832
 C22 C 0.43587 0.97751 -0.35799
 N23 N 0.49318 0.99947 -0.39458
 C24 C 0.36562 0.99646 -0.37472
 H25 H 0.24847 1.07868 -0.42761
 H26 H 0.24810 1.08669 -0.56633
 H27 H 0.49284 1.03430 -0.43737
 H28 H 0.42174 0.91811 -0.74113
 H29 H 0.56032 0.91536 -0.74113
 H30 H 0.73779 1.08328 -0.56970
 H31 H 0.73775 1.07968 -0.43074
 H32 H 0.42433 0.91613 -0.25856
 H33 H 0.49330 1.04579 -0.56940
 H34 H 0.56388 0.91784 -0.25848
 C35 C -0.71257 1.53845 0.05551
 C36 C -0.71323 1.46593 0.05644
 C37 C -0.65550 1.44370 0.01685
 N38 N -0.61883 1.50040 -0.00704
 C39 C -0.65442 1.55843 0.01546
 C40 C -0.63797 1.37260 0.00025
 C41 C -0.56717 1.35513 -0.01762
 C42 C -0.54524 1.29686 -0.05692
 C43 C -0.47249 1.29654 -0.05555
 C44 C -0.45192 1.35489 -0.01608
 N45 N -0.50982 1.39104 0.00566
 C46 C -0.38174 1.37148 0.00345
 C47 C -0.36292 1.44098 0.02311
 C48 C -0.30144 1.46079 0.05781
 C49 C -0.30088 1.53349 0.05907
 C50 C -0.36197 1.55539 0.02496
 N51 N -0.40010 1.49881 0.00374
 C52 C -0.37954 1.62571 0.00728
 C53 C -0.44895 1.64360 -0.01379
 C54 C -0.46758 1.70228 -0.05354
 C55 C -0.54025 1.70293 -0.05717
 C56 C -0.56411 1.64501 -0.01868
 N57 N -0.50791 1.60828 0.00612
 C58 C -0.63560 1.62874 -0.00265
 H59 H -0.74955 1.57228 0.08328
 H60 H -0.75082 1.43370 0.08509
 H61 H -0.50996 1.56582 0.04133
 H62 H -0.57782 1.25876 -0.08456
 H63 H -0.43877 1.25794 -0.08121
 H64 H -0.26120 1.42667 0.08002
 H65 H -0.26009 1.56617 0.08242
 H66 H -0.57143 1.74147 -0.08571
 H67 H -0.51042 1.43348 0.04110
 H68 H -0.43260 1.74036 -0.07809
 C69 C 0.07099 0.53113 0.29016
 C70 C 0.06667 0.45889 0.29084
 C71 C 0.03028 0.44054 0.35192
 N72 N 0.01478 0.49939 0.38988
 C73 C 0.03819 0.55489 0.35129
 C74 C 0.00809 0.37133 0.37069
 C75 C -0.01137 0.35603 0.44166
 C76 C -0.05694 0.30241 0.46249
 C77 C -0.05808 0.30270 0.53515
 C78 C -0.01301 0.35636 0.55723
 N79 N 0.01380 0.38994 0.49977
 C80 C 0.00515 0.37145 0.62867
 C81 C 0.02866 0.44020 0.64819
 C82 C 0.06535 0.45727 0.70946
 C83 C 0.07210 0.52937 0.71051
 C84 C 0.04001 0.55458 0.64958
 N85 N 0.01502 0.49973 0.61069
 C86 C 0.03523 0.62707 0.63026
 C87 C 0.04253 0.64763 0.55817
 C88 C 0.07389 0.71022 0.53585
 C89 C 0.07219 0.71036 0.46356
 C90 C 0.04050 0.64763 0.44271
 N91 N 0.02429 0.60859 0.50068
 C92 C 0.03186 0.62675 0.37122
 H93 H 0.09916 0.56189 0.25102
 H94 H 0.09008 0.42427 0.25166
 H95 H -0.00330 0.56100 0.50089
 H96 H -0.08766 0.26752 0.42905
 H97 H -0.08982 0.26799 0.56773
 H98 H 0.08749 0.42178 0.74846
 H99 H 0.10110 0.55905 0.74996
 H100 H 0.09676 0.75007 0.43053
 H101 H 0.05253 0.42931 0.50023
 H102 H 0.10021 0.74991 0.56763
 O103 O -0.18899 1.00099 -0.09647
 O104 O 0.17509 0.99905 -0.09651
 O105 O -0.00930 1.09432 -0.18367
 O106 O -0.00293 0.90239 -0.18244
 O107 O -0.00226 0.81650 -0.09572
 O108 O -0.01063 1.18109 -0.09740
 O109 O 0.08881 0.99581 -0.18289
 O110 O -0.10269 0.99902 -0.18298
 Zr111 Zr -0.00703 0.99878 -0.12548
 O112 O 0.05765 0.93553 -0.06487
 O113 O -0.07172 1.06303 -0.06530
 C114 C -0.16802 1.00066 -0.16191
 C115 C 0.15415 0.99636 -0.16185
 C116 C -0.01070 1.15989 -0.16287
 C117 C -0.00037 0.83709 -0.16112
 H118 H 0.08625 1.09380 -0.09526
 O119 O 0.05623 1.06356 -0.06496
 H120 H -0.10035 0.90401 -0.09476
 O121 O -0.07051 0.93473 -0.06467
 O122 O 0.17506 1.00397 0.09474
 O123 O -0.18912 0.99704 0.09488
 O124 O 0.08714 1.18260 0.00057
 O125 O 0.09008 0.81828 -0.00368
 O126 O -0.10155 0.81673 0.00128
 O127 O -0.10424 1.18092 -0.00411
 O128 O -0.00512 1.09531 0.18158
 O129 O -0.00729 0.90369 0.18132
 O130 O -0.00630 1.18163 0.09513
 O131 O -0.00621 0.81725 0.09481
 O132 O 0.17409 1.09676 0.00145
 O133 O -0.18986 1.09388 -0.00179
 O134 O -0.18834 0.90274 0.00299
 O135 O 0.17586 0.90522 -0.00310
 O136 O 0.08878 1.00277 0.18122
 O137 O -0.10288 0.99675 0.18131
 Zr138 Zr 0.11739 1.00055 -0.00087
 Zr139 Zr -0.13139 0.99867 -0.00069
 Zr140 Zr -0.00804 1.12411 -0.00115
 Zr141 Zr -0.00613 0.87493 -0.00065
 Zr142 Zr -0.00701 0.99962 0.12379
 O143 O -0.07086 0.93475 0.06373
 O144 O 0.05655 1.06443 0.06330
 C145 C 0.15413 1.00465 0.16016
 C146 C -0.16826 0.99613 0.16027
 C147 C 0.15266 1.16204 0.00186
 C148 C 0.15530 0.83967 -0.00451
 C149 C -0.16701 0.83745 0.00340
 C150 C -0.16943 1.15941 -0.00371
 C151 C -0.00470 1.16071 0.16064
 C152 C -0.00626 0.83822 0.16022
 H153 H -0.10146 1.09323 0.09326
 O154 O -0.07117 1.06309 0.06301
 H155 H 0.08815 0.90653 0.09301
 O156 O 0.05738 0.93629 0.06300
 N157 N 0.32811 1.01251 0.24733
 C158 C 0.31089 1.00701 0.31705
 N159 N 0.24122 1.00120 0.33415
 N160 N 0.19139 1.00095 0.28439
 C161 C 0.20905 1.00630 0.21506
 N162 N 0.27837 1.01205 0.19740
 N163 N -0.25601 0.99313 0.33407
 C164 C -0.32552 1.00011 0.31673
 N165 N -0.34244 1.00475 0.24691
 N166 N -0.29255 1.00280 0.19713
 C167 C -0.22339 0.99621 0.21502
 N168 N -0.20601 0.99142 0.28444
 N169 N -0.25599 0.98187 -0.33442
 C170 C -0.32397 0.99936 -0.31889
 N171 N -0.34024 1.01746 -0.25114
 N172 N -0.29068 1.01775 -0.20102
 C173 C -0.22275 1.00069 -0.21690
 N174 N -0.20630 0.98283 -0.28452
 N175 N 0.32639 1.01326 -0.25079
 C176 C 0.31042 0.99525 -0.31858
 N177 N 0.24268 0.97697 -0.33420
 N178 N 0.19289 0.97725 -0.28431
 C179 C 0.20908 0.99515 -0.21665
 N180 N 0.27678 1.01289 -0.20073
 N181 N 0.32637 1.24966 0.00680
 C182 C 0.30901 1.31933 0.00105
 N183 N 0.23924 1.33637 -0.00393
 N184 N 0.18946 1.28651 -0.00320
 C185 C 0.20732 1.21721 0.00241
 N186 N 0.27672 1.19968 0.00732
 N187 N 0.32922 0.75213 0.00078
 C188 C 0.31178 0.68242 -0.00441
 N189 N 0.24211 0.66556 -0.01071
 N190 N 0.19246 0.71555 -0.01118
 C191 C 0.21031 0.78484 -0.00569
 N192 N 0.27964 0.80229 0.00010
 N193 N -0.33906 0.74911 0.02474
 C194 C -0.32354 0.68109 0.00706
 N195 N -0.25599 0.66495 -0.01161
 N196 N -0.20596 0.71456 -0.01213
 C197 C -0.22172 0.78247 0.00528
 N198 N -0.28921 0.79890 0.02355
 N199 N -0.34179 1.24743 0.01753
 C200 C -0.32631 1.31556 0.00053
 N201 N -0.25902 1.33158 -0.01903
 N202 N -0.20910 1.28184 -0.02065
 C203 C -0.22473 1.21388 -0.00361
 N204 N -0.29204 1.19750 0.01524
 N205 N 0.00619 1.24790 0.33502
 C206 C 0.00310 1.31779 0.31781
 N207 N -0.00405 1.33487 0.24822
 N208 N -0.00680 1.28508 0.19833
 C209 C -0.00287 1.21564 0.21585
 N210 N 0.00326 1.19793 0.28519
 N211 N 0.00104 1.24781 -0.33664
 C212 C -0.00142 1.31768 -0.31891
 N213 N -0.00935 1.33449 -0.24928
 N214 N -0.01330 1.28441 -0.19989
 C215 C -0.00997 1.21497 -0.21792
 N216 N -0.00309 1.19757 -0.28731
 N217 N 0.02187 0.66310 -0.24655
 C218 C 0.02652 0.68019 -0.31636
 N219 N 0.01709 0.74941 -0.33406
 N220 N 0.00775 0.79918 -0.28499
 C221 C 0.00599 0.78181 -0.21551
 N222 N 0.01247 0.71270 -0.19718
 N223 N 0.01882 0.66519 0.24546
 C224 C 0.02179 0.68252 0.31526
 N225 N 0.00942 0.75116 0.33341
 N226 N -0.00091 0.80062 0.28433
 C227 C -0.00101 0.78320 0.21472
 N228 N 0.00832 0.71442 0.19619
   
