data_POSCAR
  _audit_creation_date              2014-09-24
  _audit_creation_method            'ToBaCCo'
  _symmetry_space_group_name_H-M    'P1'
  _symmetry_Int_Tables_number       1
  _symmetry_cell_setting            triclinic
  loop_
  _symmetry_equiv_pos_as_xyz
 x,y,z
_cell_length_a 47.1249
_cell_length_b 42.2204
_cell_length_c 42.1493
_cell_angle_alpha 89.932800
_cell_angle_beta 90.001900
_cell_angle_gamma 89.936800
loop_
  _atom_site_label
  _atom_site_type_symbol
  _atom_site_fract_x
  _atom_site_fract_y
  _atom_site_fract_z
N1 N 0.19745 1.25483 0.16819
 N2 N 0.17896 1.25549 0.19157
 C3 C 0.15840 1.27659 0.18471
 C4 C 0.16458 1.28982 0.15560
 C5 C 0.18935 1.27555 0.14561
 H6 H 0.13981 1.28095 0.19914
 H7 H 0.19996 1.27895 0.12311
 Cu8 Cu 0.18208 1.22678 0.22735
 Cu9 Cu 0.22909 1.22503 0.16744
 Cu10 Cu 0.22897 1.16681 0.22545
 N11 N 0.17884 1.19092 0.25592
 N12 N 0.19728 1.16751 0.25519
 C13 C 0.18910 1.14491 0.27582
 C14 C 0.16434 1.15491 0.29009
 C15 C 0.15824 1.18405 0.27696
 H16 H 0.19967 1.12239 0.27917
 H17 H 0.13968 1.19852 0.28136
 N18 N 0.25903 1.17038 0.19309
 N19 N 0.25908 1.19260 0.17097
 C20 C 0.28099 1.18740 0.15110
 C21 C 0.29529 1.16083 0.16136
 C22 C 0.28091 1.15049 0.18786
 H23 H 0.28543 1.20096 0.12989
 H24 H 0.28528 1.12923 0.20133
 H25 H 0.20605 1.19089 0.19129
 H26 H 0.23157 1.21473 0.21541
 N27 N 0.80213 0.74552 0.16883
 N28 N 0.82062 0.74484 0.19220
 C29 C 0.84119 0.72378 0.18534
 C30 C 0.83506 0.71058 0.15623
 C31 C 0.81026 0.72483 0.14629
 H32 H 0.85977 0.71938 0.19976
 H33 H 0.79964 0.72141 0.12380
 Cu34 Cu 0.81748 0.77349 0.22797
 Cu35 Cu 0.77045 0.77526 0.16807
 Cu36 Cu 0.77052 0.83340 0.22602
 N37 N 0.82069 0.80931 0.25650
 N38 N 0.80223 0.83270 0.25575
 C39 C 0.81040 0.85529 0.27634
 C40 C 0.83518 0.84531 0.29061
 C41 C 0.84130 0.81619 0.27752
 H42 H 0.79981 0.87780 0.27965
 H43 H 0.85988 0.80174 0.28191
 N44 N 0.74046 0.82983 0.19368
 N45 N 0.74043 0.80765 0.17158
 C46 C 0.71851 0.81284 0.15171
 C47 C 0.70419 0.83938 0.16194
 C48 C 0.71856 0.84970 0.18843
 H49 H 0.71408 0.79931 0.13051
 H50 H 0.71418 0.87095 0.20187
 H51 H 0.79347 0.80940 0.19189
 H52 H 0.76798 0.78549 0.21603
 N53 N 0.80219 1.25438 -0.16849
 N54 N 0.82067 1.25508 -0.19187
 C55 C 0.84124 1.27608 -0.18496
 C56 C 0.83512 1.28921 -0.15582
 C57 C 0.81033 1.27499 -0.14590
 H58 H 0.85981 1.28047 -0.19939
 H59 H 0.79972 1.27838 -0.12340
 Cu60 Cu 0.81751 1.22654 -0.22771
 Cu61 Cu 0.77051 1.22471 -0.16779
 Cu62 Cu 0.77056 1.16673 -0.22590
 N63 N 0.82072 1.19078 -0.25633
 N64 N 0.80225 1.16744 -0.25564
 C65 C 0.81041 1.14488 -0.27630
 C66 C 0.83519 1.15484 -0.29055
 C67 C 0.84132 1.18391 -0.27738
 H68 H 0.79983 1.12241 -0.27967
 H69 H 0.85989 1.19832 -0.28174
 N70 N 0.74051 1.17029 -0.19353
 N71 N 0.74049 1.19241 -0.17137
 C72 C 0.71858 1.18722 -0.15151
 C73 C 0.70425 1.16074 -0.16181
 C74 C 0.71861 1.15046 -0.18833
 H75 H 0.71416 1.20070 -0.13027
 H76 H 0.71422 1.12927 -0.20184
 H77 H 0.79352 1.19059 -0.19170
 H78 H 0.76802 1.21463 -0.21577
 N79 N 0.19805 0.74553 -0.16857
 N80 N 0.17956 0.74485 -0.19194
 C81 C 0.15904 0.72377 -0.18503
 C82 C 0.16519 0.71058 -0.15589
 C83 C 0.18996 0.72484 -0.14598
 H84 H 0.14047 0.71937 -0.19945
 H85 H 0.20058 0.72142 -0.12348
 Cu86 Cu 0.18265 0.77349 -0.22777
 Cu87 Cu 0.22966 0.77528 -0.16788
 Cu88 Cu 0.22948 0.83341 -0.22597
 N89 N 0.17936 0.80930 -0.25640
 N90 N 0.19778 0.83270 -0.25571
 C91 C 0.18957 0.85528 -0.27636
 C92 C 0.16481 0.84529 -0.29061
 C93 C 0.15874 0.81617 -0.27744
 H94 H 0.20011 0.87779 -0.27973
 H95 H 0.14020 0.80173 -0.28180
 N96 N 0.25955 0.82985 -0.19361
 N97 N 0.25962 0.80767 -0.17146
 C98 C 0.28152 0.81287 -0.15159
 C99 C 0.29579 0.83942 -0.16188
 C100 C 0.28140 0.84973 -0.18840
 H101 H 0.28597 0.79935 -0.13036
 H102 H 0.28574 0.87097 -0.20190
 H103 H 0.20658 0.80941 -0.19178
 H104 H 0.23212 0.78549 -0.21586
 C105 C 0.46936 0.97992 -0.02065
 C106 C 0.48424 1.00016 -0.00017
 C107 C 0.46929 1.02041 0.02028
 C108 C 0.43958 1.02040 0.02022
 C109 C 0.42483 1.00018 -0.00023
 C110 C 0.43964 0.97995 -0.02065
 C111 C 0.51541 1.00015 -0.00013
 C112 C 0.53033 1.02040 -0.02062
 C113 C 0.56004 1.02036 -0.02055
 C114 C 0.57482 1.00012 -0.00006
 C115 C 0.56003 0.97990 0.02040
 C116 C 0.53031 0.97989 0.02040
 H117 H 0.48088 0.96427 -0.03645
 H118 H 0.48077 1.03606 0.03611
 H119 H 0.51883 1.03606 -0.03648
 H120 H 0.51881 0.96425 0.03623
 H121 H 0.40180 1.00018 -0.00026
 H122 H 0.59784 1.00011 -0.00003
 C123 C -0.02055 0.46558 0.98333
 C124 C 0.00024 0.48221 1.00031
 C125 C 0.02105 0.46551 1.01731
 C126 C 0.02089 0.43234 1.01756
 C127 C 0.00026 0.41583 1.00034
 C128 C -0.02038 0.43241 0.98310
 C129 C 0.00024 0.51705 1.00030
 C130 C -0.02056 0.53372 1.01728
 C131 C -0.02041 0.56689 1.01751
 C132 C 0.00022 0.58343 1.00027
 C133 C 0.02086 0.56688 0.98304
 C134 C 0.02103 0.53371 0.98329
 H135 H -0.03655 0.47845 0.97003
 H136 H 0.03704 0.47833 1.03060
 H137 H -0.03656 0.52089 1.03058
 H138 H 0.03703 0.52086 0.97001
 H139 H 0.00027 0.39014 1.00035
 H140 H 0.00022 0.60912 1.00026
 C141 C 0.97897 -0.01676 0.46570
 C142 C 0.99980 0.00013 0.48238
 C143 C 1.02062 0.01704 0.46566
 C144 C 1.02044 0.01730 0.43243
 C145 C 0.99978 0.00017 0.41588
 C146 C 0.97913 -0.01698 0.43248
 C147 C 0.99982 0.00011 0.51727
 C148 C 1.02069 -0.01681 0.53396
 C149 C 1.02054 -0.01706 0.56719
 C150 C 0.99987 0.00007 0.58377
 C151 C 0.97917 0.01722 0.56720
 C152 C 0.97898 0.01700 0.53398
 H153 H 0.96297 -0.02999 0.47858
 H154 H 1.03664 0.03026 0.47850
 H155 H 1.03672 -0.03002 0.52110
 H156 H 0.96293 0.03023 0.52112
 H157 H 0.99977 0.00018 0.39015
 H158 H 0.99988 0.00005 0.60951
 C159 C 0.10179 0.36023 1.05630
 C160 C 0.12265 0.37312 1.08161
 C161 C 0.11333 0.34652 1.10422
 C162 C 0.09279 0.33336 1.07920
 C163 C 0.07832 0.38131 1.07025
 C164 C 0.06904 0.35471 1.09288
 C165 C 0.09885 0.39452 1.09526
 C166 C 0.08986 0.36760 1.11818
 C167 C 0.13242 0.32657 1.12306
 C168 C 0.14772 0.30958 1.13844
 C169 C 0.05838 0.40014 1.05136
 C170 C 0.04153 0.41509 1.03589
 H171 H 0.10647 0.35741 1.03064
 H172 H 0.14491 0.38046 1.07720
 H173 H 0.09049 0.30799 1.07280
 H174 H 0.04679 0.34733 1.09730
 H175 H 0.10111 0.41989 1.10164
 H176 H 0.08516 0.37041 1.14383
 C177 C -0.11031 0.61531 1.06882
 C178 C -0.11121 0.61634 1.10559
 C179 C -0.11281 0.65266 1.10405
 C180 C -0.11224 0.65194 1.06761
 C181 C -0.07782 0.61787 1.07015
 C182 C -0.07946 0.65419 1.06865
 C183 C -0.07839 0.61860 1.10659
 C184 C -0.08031 0.65520 1.10534
 C185 C -0.13189 0.67262 1.12285
 C186 C -0.14718 0.68963 1.13818
 C187 C -0.05789 0.59906 1.05128
 C188 C -0.04104 0.58412 1.03582
 H189 H -0.12242 0.59868 1.05358
 H190 H -0.12448 0.60101 1.12100
 H191 H -0.12637 0.66587 1.05179
 H192 H -0.06619 0.66955 1.05325
 H193 H -0.06425 0.60467 1.12240
 H194 H -0.06818 0.67180 1.12056
 C195 C -0.07882 0.34522 0.93117
 C196 C -0.11161 0.34688 0.93290
 C197 C -0.11276 0.34692 0.89647
 C198 C -0.08025 0.34498 0.89448
 C199 C -0.07777 0.38158 0.93042
 C200 C -0.07892 0.38163 0.89399
 C201 C -0.11028 0.38356 0.93244
 C202 C -0.11175 0.38328 0.89569
 C203 C -0.13183 0.32703 0.87764
 C204 C -0.14712 0.31009 0.86228
 C205 C -0.05785 0.40034 0.94931
 C206 C -0.04101 0.41523 0.96478
 H207 H -0.06507 0.32977 0.94597
 H208 H -0.12526 0.33237 0.94869
 H209 H -0.06810 0.32891 0.87867
 H210 H -0.06526 0.39613 0.87820
 H211 H -0.12239 0.39964 0.94827
 H212 H -0.12551 0.39870 0.88087
 C213 C 0.11074 0.61595 0.93241
 C214 C 0.11224 0.61628 0.89565
 C215 C 0.11317 0.65264 0.89640
 C216 C 0.11199 0.65263 0.93283
 C217 C 0.07823 0.61784 0.93035
 C218 C 0.07920 0.65421 0.93106
 C219 C 0.07941 0.61785 0.89392
 C220 C 0.08066 0.65450 0.89437
 C221 C 0.13222 0.67261 0.87757
 C222 C 0.14748 0.68962 0.86221
 C223 C 0.05832 0.59903 0.94924
 C224 C 0.04149 0.58409 0.96471
 H225 H 0.12287 0.59988 0.94827
 H226 H 0.12604 0.60091 0.88087
 H227 H 0.12560 0.66716 0.94862
 H228 H 0.06541 0.66961 0.94582
 H229 H 0.06578 0.60333 0.87813
 H230 H 0.06849 0.67056 0.87853
 C231 C 1.11042 0.06761 0.38333
 C232 C 1.11174 0.06727 0.34659
 C233 C 1.11299 0.10364 0.34666
 C234 C 1.11198 0.10430 0.38309
 C235 C 1.07792 0.06978 0.38141
 C236 C 1.07916 0.10614 0.38148
 C237 C 1.07896 0.06915 0.34498
 C238 C 1.08048 0.10577 0.34477
 C239 C 1.13211 0.12243 0.32675
 C240 C 1.14744 0.13777 0.30979
 C241 C 1.05796 0.05095 0.40022
 C242 C 1.04109 0.03555 0.41517
 H243 H 1.12250 0.05170 0.39940
 H244 H 1.12536 0.05150 0.33202
 H245 H 1.12578 0.11898 0.39853
 H246 H 1.06554 0.12192 0.39604
 H247 H 1.06517 0.05449 0.32951
 H248 H 1.06837 0.12166 0.32871
 C249 C 1.10760 -0.08068 0.60708
 C250 C 1.12006 -0.07039 0.63951
 C251 C 1.11333 -0.10342 0.65285
 C252 C 1.10120 -0.11403 0.62075
 C253 C 1.07818 -0.06955 0.61815
 C254 C 1.07147 -0.10259 0.63150
 C255 C 1.09033 -0.05897 0.65025
 C256 C 1.08390 -0.09227 0.66387
 C257 C 1.13250 -0.12222 0.67275
 C258 C 1.14787 -0.13756 0.68969
 C259 C 1.05816 -0.05073 0.59936
 C260 C 1.04125 -0.03532 0.58443
 H261 H 1.11711 -0.07569 0.58351
 H262 H 1.14027 -0.05737 0.64303
 H263 H 1.10588 -0.13689 0.60885
 H264 H 1.05126 -0.11562 0.62800
 H265 H 1.08564 -0.03613 0.66217
 H266 H 1.07435 -0.09723 0.68743
 C267 C 0.93050 -0.09797 0.36123
 C268 C 0.90472 -0.11668 0.37419
 C269 C 0.88655 -0.10337 0.34700
 C270 C 0.91204 -0.08495 0.33376
 C271 C 0.92163 -0.06948 0.38161
 C272 C 0.90345 -0.05619 0.35441
 C273 C 0.89615 -0.08789 0.39489
 C274 C 0.87765 -0.07489 0.36736
 C275 C 0.86742 -0.12218 0.32715
 C276 C 0.85208 -0.13754 0.31025
 C277 C 0.94160 -0.05064 0.40036
 C278 C 0.95847 -0.03523 0.41526
 H279 H 0.95245 -0.10725 0.35890
 H280 H 0.90503 -0.14177 0.38210
 H281 H 0.91839 -0.08394 0.30842
 H282 H 0.90315 -0.03110 0.34649
 H283 H 0.88984 -0.08887 0.42025
 H284 H 0.85569 -0.06562 0.36967
 C285 C 0.92023 0.06857 0.65458
 C286 C 0.91905 0.10521 0.65520
 C287 C 0.88655 0.10357 0.65289
 C288 C 0.88745 0.06719 0.65255
 C289 C 0.92163 0.06970 0.61818
 C290 C 0.88914 0.06803 0.61583
 C291 C 0.92074 0.10608 0.61852
 C292 C 0.88792 0.10473 0.61649
 C293 C 0.86742 0.12236 0.67280
 C294 C 0.85209 0.13770 0.68975
 C295 C 0.94161 0.05087 0.59938
 C296 C 0.95849 0.03546 0.58445
 H297 H 0.93373 0.05350 0.67004
 H298 H 0.93115 0.12070 0.67160
 H299 H 0.87354 0.05141 0.66676
 H300 H 0.87707 0.05252 0.59943
 H301 H 0.93465 0.12186 0.60431
 H302 H 0.87441 0.11982 0.60106
 C303 C 0.38935 1.07633 0.11387
 C304 C 0.38811 1.11306 0.11430
 C305 C 0.35562 1.11133 0.11169
 C306 C 0.35656 1.07496 0.11157
 C307 C 0.39095 1.07728 0.07747
 C308 C 0.35846 1.07562 0.07494
 C309 C 0.39005 1.11365 0.07755
 C310 C 0.35726 1.11224 0.07529
 C311 C 0.33505 1.12970 0.13013
 C312 C 0.31731 1.14422 0.14470
 C313 C 0.40960 1.05770 0.05778
 C314 C 0.42386 1.04099 0.04097
 H315 H 0.40277 1.06136 0.12950
 H316 H 0.40005 1.12868 0.13071
 H317 H 0.34257 1.05923 0.12574
 H318 H 0.34646 1.06003 0.05855
 H319 H 0.40405 1.12934 0.06335
 H320 H 0.34385 1.12719 0.05962
 C321 C 0.60200 1.09000 -0.11121
 C322 C 0.61446 1.12255 -0.10135
 C323 C 0.64393 1.11126 -0.11214
 C324 C 0.63181 1.07907 -0.12231
 C325 C 0.60863 1.07723 -0.07788
 C326 C 0.63810 1.06602 -0.08870
 C327 C 0.62075 1.10942 -0.06771
 C328 C 0.65048 1.09845 -0.07880
 C329 C 0.66449 1.12963 -0.13059
 C330 C 0.68223 1.14414 -0.14516
 C331 C 0.58999 1.05765 -0.05817
 C332 C 0.57574 1.04095 -0.04133
 H333 H 0.58183 1.08630 -0.12429
 H334 H 0.60498 1.14602 -0.10678
 H335 H 0.63659 1.06679 -0.14497
 H336 H 0.64764 1.04257 -0.08329
 H337 H 0.61598 1.12169 -0.04504
 H338 H 0.67063 1.10210 -0.06566
 C339 C 0.39015 0.92335 -0.11439
 C340 C 0.38848 0.88664 -0.11417
 C341 C 0.35598 0.88897 -0.11220
 C342 C 0.35735 0.92532 -0.11273
 C343 C 0.39120 0.92305 -0.07796
 C344 C 0.35870 0.92530 -0.07606
 C345 C 0.38987 0.88670 -0.07739
 C346 C 0.35708 0.88871 -0.07577
 C347 C 0.33547 0.87058 -0.13066
 C348 C 0.31777 0.85605 -0.14523
 C349 C 0.40979 0.94264 -0.05825
 C350 C 0.42400 0.95935 -0.04142
 H351 H 0.40397 0.93781 -0.13003
 H352 H 0.40047 0.87052 -0.13006
 H353 H 0.34376 0.94101 -0.12746
 H354 H 0.34665 0.94140 -0.06019
 H355 H 0.40347 0.87104 -0.06263
 H356 H 0.34326 0.87428 -0.06008
 C357 C 0.60939 0.92298 0.11428
 C358 C 0.61139 0.88629 0.11384
 C359 C 0.64388 0.88892 0.11216
 C360 C 0.64218 0.92525 0.11291
 C361 C 0.60858 0.92299 0.07784
 C362 C 0.64107 0.92554 0.07624
 C363 C 0.61024 0.88666 0.07705
 C364 C 0.64303 0.88897 0.07572
 C365 C 0.66443 0.87053 0.13065
 C366 C 0.68217 0.85601 0.14525
 C367 C 0.58995 0.94258 0.05809
 C368 C 0.57571 0.95929 0.04122
 H369 H 0.59533 0.93718 0.12990
 H370 H 0.59943 0.86993 0.12953
 H371 H 0.65553 0.94093 0.12785
 H372 H 0.65309 0.94188 0.06057
 H373 H 0.59688 0.87101 0.06208
 H374 H 0.65708 0.87480 0.06006
   
