data_POSCAR
  _audit_creation_date              2014-09-24
  _audit_creation_method            'ToBaCCo'
  _symmetry_space_group_name_H-M    'P1'
  _symmetry_Int_Tables_number       1
  _symmetry_cell_setting            triclinic
  loop_
  _symmetry_equiv_pos_as_xyz
 x,y,z
_cell_length_a 24.1006
_cell_length_b 25.2348
_cell_length_c 24.0814
_cell_angle_alpha 90.738100
_cell_angle_beta 91.934700
_cell_angle_gamma 90.892800
loop_
  _atom_site_label
  _atom_site_type_symbol
  _atom_site_fract_x
  _atom_site_fract_y
  _atom_site_fract_z
O1 O 0.54531 0.11100 0.01710
 O2 O 0.44900 -0.06604 -0.11193
 O3 O 0.58593 0.03206 -0.07453
 O4 O 0.40850 0.08554 -0.05345
 O5 O 0.54838 -0.03654 -0.11503
 O6 O 0.44439 0.11476 0.02439
 O7 O 0.42761 0.01389 -0.11227
 O8 O 0.61236 0.05682 0.02264
 C9 C 0.59594 0.10328 0.01914
 C10 C 0.42897 -0.02836 -0.13744
 C11 C 0.57699 0.00531 -0.11760
 C12 C 0.41616 0.12182 -0.01895
 O13 O 0.44257 0.04027 0.09587
 O14 O 0.56600 -0.09118 -0.01922
 O15 O 0.57292 -0.03295 0.05862
 O16 O 0.39135 -0.05640 -0.03171
 O17 O 0.46569 -0.10197 -0.01192
 O18 O 0.54700 0.03845 0.09923
 O19 O 0.37870 0.02205 0.02964
 O20 O 0.63826 -0.03774 -0.01926
 Co21 Co 0.49568 0.06970 0.05256
 Co22 Co 0.50647 -0.06534 -0.05996
 Co23 Co 0.57579 -0.00060 -0.00917
 Co24 Co 0.40917 0.01482 -0.04004
 O25 O 0.49317 0.00905 -0.01289
 C26 C 0.39336 0.02861 0.08057
 C27 C 0.61805 -0.08599 -0.02473
 C28 C 0.56823 -0.00640 0.10188
 C29 C 0.41410 -0.09755 -0.01267
 O30 O -0.10605 0.46935 -0.01820
 O31 O 0.02589 0.52172 0.12763
 O32 O -0.01953 0.40664 0.06926
 O33 O -0.06144 0.58871 0.04002
 O34 O 0.05544 0.43475 0.10887
 O35 O -0.09323 0.56108 -0.03907
 O36 O 0.02591 0.59716 0.08981
 O37 O -0.05970 0.39898 -0.02219
 C38 C -0.10418 0.42093 -0.01291
 C39 C 0.01795 0.56964 0.13129
 C40 C 0.01051 0.40988 0.11148
 C41 C -0.09989 0.58664 0.00492
 O42 O -0.00871 0.53580 -0.10661
 O43 O 0.12533 0.47474 0.03007
 O44 O 0.04129 0.41553 -0.06478
 O45 O 0.07861 0.59452 -0.00802
 O46 O 0.11071 0.56109 0.06671
 O47 O -0.03415 0.44421 -0.10094
 O48 O -0.00891 0.60520 -0.05550
 O49 O 0.08264 0.40107 0.02481
 Co50 Co -0.05366 0.50224 -0.05873
 Co51 Co 0.07257 0.49818 0.07587
 Co52 Co 0.01108 0.41487 0.00261
 Co53 Co 0.00877 0.58684 0.01590
 O54 O 0.00963 0.50063 0.00888
 C55 C -0.00183 0.58420 -0.10162
 C56 C 0.12575 0.42731 0.01781
 C57 C 0.00996 0.41942 -0.10589
 C58 C 0.11762 0.58982 0.02572
 O59 O -0.01261 -0.11579 0.47696
 O60 O 0.09824 0.03463 0.54005
 O61 O 0.04812 -0.01785 0.38824
 O62 O -0.01343 -0.04236 0.64278
 O63 O 0.08298 0.04948 0.43810
 O64 O -0.01481 -0.09666 0.57262
 O65 O 0.06464 -0.03732 0.57587
 O66 O -0.03209 -0.08159 0.39782
 C67 C -0.01563 -0.11980 0.42583
 C68 C 0.10561 -0.00883 0.56478
 C69 C 0.08629 0.01542 0.39913
 C70 C -0.01969 -0.09046 0.62435
 O71 O -0.11094 -0.04161 0.55636
 O72 O -0.00688 0.10753 0.46130
 O73 O -0.09864 -0.00039 0.40722
 O74 O 0.03175 0.04745 0.61969
 O75 O 0.00431 0.09576 0.55547
 O76 O -0.11253 -0.06922 0.45845
 O77 O -0.06795 0.02759 0.58890
 O78 O -0.01941 0.06010 0.38715
 Co79 Co -0.05852 -0.07377 0.51445
 Co80 Co 0.04059 0.06549 0.49907
 Co81 Co -0.02446 -0.00954 0.40484
 Co82 Co -0.00311 -0.00626 0.57929
 O83 O -0.01111 -0.00307 0.49531
 C84 C -0.11178 0.00143 0.58270
 C85 C -0.01899 0.10393 0.41122
 C86 C -0.13013 -0.03552 0.42430
 C87 C 0.02231 0.09277 0.60383
 C88 C -0.29995 0.23153 0.01446
 N89 N -0.30152 0.26278 -0.03095
 N90 N -0.26748 0.30469 -0.03383
 C91 C -0.23120 0.31691 0.00885
 N92 N -0.22978 0.28577 0.05435
 N93 N -0.26382 0.24384 0.05724
 C94 C -0.33543 0.18554 0.01666
 C95 C -0.36594 0.14734 0.01797
 C96 C -0.19003 0.35786 0.00292
 C97 C -0.15253 0.38903 -0.00351
 C98 C 0.31847 0.77852 0.01509
 N99 N 0.31823 0.73815 -0.02268
 N100 N 0.28204 0.69793 -0.01949
 C101 C 0.24501 0.69689 0.02164
 N102 N 0.24540 0.73716 0.05954
 N103 N 0.28157 0.77739 0.05633
 C104 C 0.35417 0.82379 0.00849
 C105 C 0.38328 0.86186 -0.00007
 C106 C 0.20278 0.65632 0.02244
 C107 C 0.16511 0.62444 0.02338
 C108 C 0.33189 0.25948 -0.03014
 N109 N 0.33798 0.29511 0.01236
 N110 N 0.30205 0.33430 0.01761
 C111 C 0.25895 0.33911 -0.01955
 N112 N 0.25319 0.30379 -0.06237
 N113 N 0.28911 0.26458 -0.06761
 C114 C 0.36458 0.21252 -0.03012
 C115 C 0.38944 0.17159 -0.02685
 C116 C 0.21496 0.37485 -0.00837
 C117 C 0.17545 0.40107 0.00287
 C118 C -0.28402 0.78457 -0.00745
 N119 N -0.28758 0.74400 -0.04495
 N120 N -0.25541 0.70183 -0.03886
 C121 C -0.21906 0.69870 0.00519
 N122 N -0.21562 0.73923 0.04276
 N123 N -0.24779 0.78140 0.03668
 C124 C -0.31779 0.83054 -0.01460
 C125 C -0.34652 0.86897 -0.01996
 C126 C -0.18028 0.65614 0.00842
 C127 C -0.14514 0.62264 0.00859
 C128 C 0.00230 -0.34234 0.27098
 N129 N 0.04975 -0.32070 0.29387
 N130 N 0.04781 -0.28003 0.32950
 C131 C -0.00170 -0.25967 0.34311
 N132 N -0.04917 -0.28163 0.32067
 N133 N -0.04721 -0.32227 0.28501
 C134 C 0.00514 -0.37869 0.22518
 C135 C 0.00953 -0.40491 0.18358
 C136 C -0.00385 -0.21162 0.37504
 C137 C -0.00769 -0.16996 0.39930
 C138 C 0.02783 0.31155 0.76997
 N139 N -0.01310 0.30284 0.73076
 N140 N -0.01231 0.26019 0.69762
 C141 C 0.02919 0.22472 0.70298
 N142 N 0.07025 0.23351 0.74203
 N143 N 0.06946 0.27619 0.77516
 C144 C 0.02337 0.35361 0.81008
 C145 C 0.01806 0.38590 0.84671
 C146 C 0.02833 0.17759 0.66903
 C147 C 0.02627 0.13832 0.63999
 C148 C -0.02155 0.31242 0.23994
 N149 N -0.05974 0.27284 0.23153
 N150 N -0.06468 0.23448 0.26863
 C151 C -0.03162 0.23460 0.31532
 N152 N 0.00631 0.27439 0.32391
 N153 N 0.01126 0.31275 0.28680
 C154 C -0.01157 0.34963 0.19680
 C155 C -0.00188 0.37851 0.15878
 C156 C -0.03138 0.18973 0.35119
 C157 C -0.02776 0.15090 0.37956
 C158 C 0.00460 -0.31043 0.78078
 N159 N 0.04439 -0.27182 0.78445
 N160 N 0.03962 -0.22816 0.75423
 C161 C -0.00548 -0.22149 0.72000
 N162 N -0.04515 -0.26017 0.71610
 N163 N -0.04037 -0.30382 0.74632
 C164 C 0.00553 -0.35318 0.81934
 C165 C 0.00348 -0.38553 0.85556
 C166 C -0.01122 -0.17410 0.68829
 C167 C -0.01568 -0.13503 0.66040
 C168 C 0.33532 -0.04056 0.72552
 N169 N 0.33178 0.00119 0.69070
 N170 N 0.29091 0.00331 0.65210
 C171 C 0.25224 -0.03627 0.64701
 N172 N 0.25606 -0.07823 0.68152
 N173 N 0.29693 -0.08035 0.72012
 C174 C 0.37336 -0.03847 0.77289
 C175 C 0.40184 -0.03459 0.81504
 C176 C 0.20296 -0.02943 0.61260
 C177 C 0.15948 -0.02136 0.58800
 C178 C -0.34867 -0.04207 0.24575
 N179 N -0.31273 -0.08284 0.24843
 N180 N -0.27552 -0.08572 0.29045
 C181 C -0.27309 -0.04799 0.33116
 N182 N -0.30941 -0.00752 0.32877
 N183 N -0.34664 -0.00465 0.28676
 C184 C -0.38166 -0.03365 0.19601
 C185 C -0.40621 -0.02320 0.15320
 C186 C -0.22635 -0.04554 0.36968
 C187 C -0.18394 -0.04169 0.39754
 C188 C 0.28265 0.01851 0.20471
 N189 N 0.27363 0.06292 0.23526
 N190 N 0.23835 0.06189 0.27671
 C191 C 0.21123 0.01631 0.28920
 N192 N 0.22031 -0.02814 0.25870
 N193 N 0.25561 -0.02712 0.21723
 C194 C 0.32042 0.02010 0.15971
 C195 C 0.35294 0.02296 0.12275
 C196 C 0.17012 0.01609 0.33116
 C197 C 0.13336 0.01593 0.36402
 C198 C -0.32924 0.03231 0.74779
 N199 N -0.33301 -0.00096 0.70306
 N200 N -0.29337 -0.00107 0.66571
 C201 C -0.24861 0.03206 0.67184
 N202 N -0.24505 0.06561 0.71635
 N203 N -0.28469 0.06573 0.75369
 C204 C -0.36683 0.02624 0.79263
 C205 C -0.39487 0.01830 0.83246
 C206 C -0.20181 0.02571 0.63680
 C207 C -0.16122 0.01681 0.61027
   
