data_POSCAR
  _audit_creation_date              2014-09-24
  _audit_creation_method            'ToBaCCo'
  _symmetry_space_group_name_H-M    'P1'
  _symmetry_Int_Tables_number       1
  _symmetry_cell_setting            triclinic
  loop_
  _symmetry_equiv_pos_as_xyz
 x,y,z
_cell_length_a 55.2749
_cell_length_b 55.2417
_cell_length_c 22.5783
_cell_angle_alpha 89.992900
_cell_angle_beta 90.026400
_cell_angle_gamma 119.992900
loop_
  _atom_site_label
  _atom_site_type_symbol
  _atom_site_fract_x
  _atom_site_fract_y
  _atom_site_fract_z
C1 C 0.18800 0.50687 0.49672
 C2 C 0.20171 0.50896 0.44294
 C3 C 0.22627 0.50725 0.44459
 C4 C 0.23619 0.50180 0.49786
 C5 C 0.22079 0.49828 0.55026
 C6 C 0.19754 0.50228 0.55099
 C7 C 0.26312 0.50104 0.49915
 C8 C 0.27827 0.50541 0.55254
 C9 C 0.30369 0.50548 0.55356
 C10 C 0.31502 0.50274 0.50034
 C11 C 0.30102 0.49919 0.44664
 C12 C 0.27465 0.49707 0.44659
 H13 H 0.16817 0.50630 0.49592
 H14 H 0.23829 0.51168 0.40442
 H15 H 0.22756 0.49366 0.59125
 H16 H 0.27116 0.50962 0.59371
 H17 H 0.33474 0.50297 0.50067
 H18 H 0.26376 0.49296 0.40486
 C19 C 0.50659 -0.31210 0.49828
 C20 C 0.50795 -0.29871 0.44440
 C21 C 0.50530 -0.27465 0.44607
 C22 C 0.49975 -0.26497 0.49949
 C23 C 0.49718 -0.27993 0.55208
 C24 C 0.50184 -0.30277 0.55270
 C25 C 0.49738 -0.23896 0.50055
 C26 C 0.50223 -0.22326 0.55319
 C27 C 0.50005 -0.19901 0.55424
 C28 C 0.49428 -0.18949 0.50159
 C29 C 0.49009 -0.20413 0.44846
 C30 C 0.49082 -0.22916 0.44857
 H31 H 0.50665 -0.33163 0.49744
 H32 H 0.50894 -0.26280 0.40580
 H33 H 0.49262 -0.27313 0.59316
 H34 H 0.50851 -0.22907 0.59357
 H35 H 0.49332 -0.17038 0.50184
 H36 H 0.48600 -0.24083 0.40769
 C37 C 1.30923 0.81714 0.50027
 C38 C 1.29664 0.80550 0.44548
 C39 C 1.27278 0.77853 0.44568
 C40 C 1.26284 0.76251 0.49824
 C41 C 1.27713 0.77462 0.55161
 C42 C 1.29942 0.80215 0.55310
 C43 C 1.23763 0.73350 0.49724
 C44 C 1.22202 0.72092 0.54929
 C45 C 1.19915 0.69327 0.54922
 C46 C 1.19063 0.67929 0.49447
 C47 C 1.20494 0.69161 0.44201
 C48 C 1.22887 0.71808 0.44400
 H49 H 1.32798 0.83741 0.50244
 H50 H 1.26131 0.77070 0.40490
 H51 H 1.27110 0.76311 0.59271
 H52 H 1.22814 0.73228 0.59039
 H53 H 1.17156 0.65929 0.49147
 H54 H 1.24045 0.72622 0.40338
 C55 C 0.81345 0.49839 0.50446
 C56 C 0.79922 0.49427 0.45073
 C57 C 0.77373 0.49406 0.45025
 C58 C 0.76310 0.49981 0.50200
 C59 C 0.77838 0.50462 0.55519
 C60 C 0.80303 0.50319 0.55701
 C61 C 0.73663 0.50134 0.50004
 C62 C 0.72098 0.49816 0.55199
 C63 C 0.69723 0.50149 0.55132
 C64 C 0.68791 0.50553 0.49606
 C65 C 0.70240 0.50778 0.44367
 C66 C 0.72706 0.50657 0.44620
 H67 H 0.83288 0.49806 0.50532
 H68 H 0.76233 0.48912 0.40901
 H69 H 0.77188 0.51024 0.59549
 H70 H 0.72790 0.49413 0.59346
 H71 H 0.66836 0.50549 0.49277
 H72 H 0.73878 0.51026 0.40568
 C73 C 0.50080 0.31470 0.50046
 C74 C 0.49684 0.30025 0.44722
 C75 C 0.49420 0.27371 0.44806
 C76 C 0.49820 0.26239 0.50081
 C77 C 0.50289 0.27784 0.55380
 C78 C 0.50334 0.30363 0.55480
 C79 C 0.49866 0.23528 0.49988
 C80 C 0.49497 0.21968 0.55227
 C81 C 0.49786 0.19565 0.55246
 C82 C 0.50158 0.18577 0.49763
 C83 C 0.50417 0.20009 0.44486
 C84 C 0.50369 0.22516 0.44655
 H85 H 0.50044 0.33408 0.49894
 H86 H 0.48966 0.26248 0.40671
 H87 H 0.50783 0.27078 0.59412
 H88 H 0.49103 0.22688 0.59347
 H89 H 0.50110 0.16598 0.49505
 H90 H 0.50787 0.23670 0.40569
 C91 C 0.68671 0.18316 0.50378
 C92 C 0.69634 0.19782 0.45038
 C93 C 0.72088 0.22398 0.45033
 C94 C 0.73692 0.23507 0.50237
 C95 C 0.72709 0.21931 0.55513
 C96 C 0.70170 0.19390 0.55651
 C97 C 0.76346 0.26297 0.50173
 C98 C 0.77416 0.27862 0.55439
 C99 C 0.79903 0.30479 0.55483
 C100 C 0.81210 0.31602 0.50014
 C101 C 0.80155 0.30137 0.44706
 C102 C 0.77804 0.27454 0.44840
 H103 H 0.66740 0.16329 0.50430
 H104 H 0.72681 0.23566 0.40942
 H105 H 0.73912 0.22628 0.59556
 H106 H 0.76242 0.27119 0.59498
 H107 H 0.83158 0.33565 0.49825
 H108 H 0.77113 0.26314 0.40724
 O109 O 1.03903 0.55930 0.11036
 O110 O 1.06929 0.55340 0.05063
 C111 C 1.06389 0.56526 0.09402
 O112 O 0.96057 0.43523 0.10370
 O113 O 0.92924 0.44277 0.05156
 C114 C 0.93542 0.42928 0.09002
 O115 O 1.03856 0.47698 0.10790
 O116 O 1.06914 0.51348 0.04920
 C117 C 1.06353 0.49580 0.09190
 O118 O 0.96092 0.52263 0.10832
 O119 O 0.92947 0.48459 0.05410
 C120 C 0.93571 0.50351 0.09441
 Zr121 Zr 0.99969 0.52922 0.07573
 O122 O 0.99796 0.52972 0.16937
 O123 O 1.00096 0.56799 0.06915
 Zr124 Zr 0.99940 0.46762 0.07208
 O125 O 0.99751 0.46247 0.16500
 O126 O 1.00262 0.43116 0.06268
 O127 O 1.02430 0.51062 0.08471
 O128 O 0.97559 0.48638 0.08595
 O129 O 0.95922 0.52394 -0.10017
 O130 O 0.92847 0.48524 -0.04665
 C131 C 0.93422 0.50481 -0.08521
 O132 O 1.03710 0.47703 -0.11217
 O133 O 1.06874 0.51383 -0.05513
 C134 C 1.06235 0.49570 -0.09728
 O135 O 0.95866 0.43619 -0.10572
 O136 O 0.92830 0.44344 -0.04914
 C137 C 0.93376 0.43033 -0.08982
 O138 O 1.03688 0.56028 -0.10965
 O139 O 1.06833 0.55386 -0.05528
 C140 C 1.06205 0.56621 -0.09630
 Zr141 Zr 0.99840 0.52996 -0.07262
 O142 O 0.99464 0.53066 -0.16578
 O143 O 1.00149 0.56965 -0.06595
 Zr144 Zr 0.99817 0.46848 -0.07638
 O145 O 0.99466 0.46649 -0.16984
 O146 O 1.00091 0.43159 -0.07559
 Zr147 Zr 1.04075 0.51961 -0.00201
 Zr148 Zr 0.95713 0.47801 0.00131
 O149 O 0.97412 0.48733 -0.08471
 O150 O 1.02294 0.51158 -0.08741
 O151 O 0.97383 0.52166 0.00284
 O152 O 1.02339 0.47593 -0.00315
 O153 O 1.02377 0.54622 0.00083
 O154 O 0.97354 0.45078 -0.00145
 H155 H 0.96379 0.48018 0.12196
 H156 H 1.03630 0.46836 -0.00391
 H157 H 0.96157 0.48148 -0.11958
 H158 H 1.03676 0.56669 0.00100
 H159 H 0.98432 0.41591 0.04882
 H160 H 0.98417 0.41696 -0.05492
 H161 H 1.00927 0.48468 -0.18560
 H162 H 1.00682 0.52415 -0.18305
 H163 H 0.98562 0.56739 -0.04152
 H164 H 1.00142 0.57434 0.11039
 H165 H 1.01144 0.52441 0.18462
 H166 H 1.00510 0.48129 0.18234
 O167 O 0.43787 0.47584 0.10935
 O168 O 0.44403 0.51316 0.05310
 C169 C 0.43171 0.49478 0.09453
 O170 O 0.56252 0.52276 0.10494
 O171 O 0.55536 0.48449 0.05091
 C172 C 0.56873 0.50386 0.09007
 O173 O 0.52141 0.55954 0.11039
 O174 O 0.48438 0.55369 0.05348
 C175 C 0.50264 0.56588 0.09527
 O176 O 0.47455 0.43468 0.10315
 O177 O 0.51323 0.44229 0.05008
 C178 C 0.49367 0.42870 0.08872
 Zr179 Zr 0.46849 0.46764 0.07409
 O180 O 0.46758 0.46403 0.16747
 O181 O 0.42979 0.43021 0.06560
 Zr182 Zr 0.52971 0.52895 0.07535
 O183 O 0.53181 0.52796 0.16889
 O184 O 0.56636 0.56873 0.07316
 O185 O 0.48665 0.51067 0.08662
 O186 O 0.51117 0.48617 0.08584
 O187 O 0.47539 0.43539 -0.10429
 O188 O 0.51372 0.44280 -0.05010
 C189 C 0.49459 0.42952 -0.08969
 O190 O 0.52059 0.55881 -0.11038
 O191 O 0.48430 0.55362 -0.05191
 C192 C 0.50198 0.56531 -0.09472
 O193 O 0.56214 0.52235 -0.10483
 O194 O 0.55520 0.48435 -0.05009
 C195 C 0.56825 0.50335 -0.09005
 O196 O 0.43838 0.47659 -0.10967
 O197 O 0.44435 0.51359 -0.05259
 C198 C 0.43236 0.49563 -0.09489
 Zr199 Zr 0.46883 0.46804 -0.07428
 O200 O 0.46926 0.46583 -0.16785
 O201 O 0.42930 0.43112 -0.07118
 Zr202 Zr 0.53018 0.52948 -0.07304
 O203 O 0.53522 0.53318 -0.16595
 O204 O 0.56670 0.56910 -0.06391
 Zr205 Zr 0.47829 0.51951 0.00058
 Zr206 Zr 0.52026 0.47763 0.00049
 O207 O 0.51155 0.48674 -0.08486
 O208 O 0.48716 0.51111 -0.08550
 O209 O 0.47665 0.45061 -0.00014
 O210 O 0.52194 0.54592 0.00115
 O211 O 0.45195 0.47584 -0.00010
 O212 O 0.54731 0.52132 0.00111
 H213 H 0.51723 0.47986 0.12103
 H214 H 0.52943 0.56639 0.00109
 H215 H 0.51758 0.48057 -0.12031
 H216 H 0.43146 0.46816 -0.00039
 H217 H 0.58080 0.56675 0.05139
 H218 H 0.58227 0.56602 -0.05280
 H219 H 0.51948 0.51611 -0.18306
 H220 H 0.47348 0.48428 -0.18345
 H221 H 0.43125 0.41743 -0.04632
 H222 H 0.42321 0.42384 0.10652
 H223 H 0.47334 0.48273 0.18391
 H224 H 0.51352 0.52406 0.18452
 O225 O 0.44008 -0.03881 -0.11221
 O226 O 0.44438 -0.07013 -0.05249
 C227 C 0.43321 -0.06398 -0.09616
 O228 O 0.56382 0.03768 -0.10146
 O229 O 0.55668 0.06932 -0.04949
 C230 C 0.57014 0.06294 -0.08764
 O231 O 0.52195 -0.04008 -0.10572
 O232 O 0.48415 -0.07081 -0.05013
 C233 C 0.50265 -0.06506 -0.09122
 O234 O 0.47683 0.03900 -0.10650
 O235 O 0.51477 0.06997 -0.05135
 C236 C 0.49577 0.06406 -0.09142
 Zr237 Zr 0.46971 -0.00005 -0.07493
 O238 O 0.46695 0.00052 -0.16830
 O239 O 0.43133 -0.00070 -0.06627
 Zr240 Zr 0.53054 -0.00097 -0.07159
 O241 O 0.53348 0.00134 -0.16510
 O242 O 0.56684 -0.00461 -0.06590
 O243 O 0.48761 -0.02525 -0.08478
 O244 O 0.51259 0.02366 -0.08481
 O245 O 0.47567 0.03990 0.10267
 O246 O 0.51461 0.07034 0.04953
 C247 C 0.49528 0.06483 0.08839
 O248 O 0.51968 -0.03961 0.11395
 O249 O 0.48311 -0.07047 0.05572
 C250 C 0.50058 -0.06463 0.09892
 O251 O 0.56172 0.03850 0.10809
 O252 O 0.55554 0.06967 0.05189
 C253 C 0.56810 0.06364 0.09283
 O254 O 0.43787 -0.03809 0.10920
 O255 O 0.44335 -0.06986 0.05356
 C256 C 0.43125 -0.06338 0.09483
 Zr257 Zr 0.46849 0.00044 0.07295
 O258 O 0.46645 0.00343 0.16599
 O259 O 0.42930 -0.00171 0.06436
 Zr260 Zr 0.52936 -0.00055 0.07686
 O261 O 0.53211 0.00255 0.17031
 O262 O 0.56568 -0.00427 0.07377
 Zr263 Zr 0.47807 -0.04229 0.00137
 Zr264 Zr 0.52102 0.04161 0.00019
 O265 O 0.51112 0.02399 0.08572
 O266 O 0.48617 -0.02475 0.08715
 O267 O 0.47748 0.02560 -0.00165
 O268 O 0.52165 -0.02551 0.00321
 O269 O 0.45209 -0.02459 -0.00101
 O270 O 0.54757 0.02443 0.00262
 H271 H 0.51924 0.03600 -0.12000
 H272 H 0.52895 -0.03863 0.00428
 H273 H 0.51696 0.03611 0.12128
 H274 H 0.43159 -0.03739 -0.00178
 H275 H 0.58141 0.01221 -0.04533
 H276 H 0.58110 0.01348 0.05802
 H277 H 0.51335 -0.01046 0.18627
 H278 H 0.47466 -0.00726 0.18340
 H279 H 0.43250 0.01559 0.04431
 H280 H 0.42448 -0.00140 -0.10713
 H281 H 0.48533 0.00483 -0.18415
 H282 H 0.51493 -0.01241 -0.18105
 C283 C 1.15920 0.52409 0.33623
 C284 C 1.16098 0.51083 0.28518
 C285 C 1.17856 0.49941 0.28433
 C286 C 1.19336 0.50015 0.33540
 C287 C 1.19025 0.51178 0.38872
 C288 C 1.17365 0.52466 0.38729
 C289 C 1.14283 0.50724 0.23613
 C290 C 1.12612 0.50417 0.19831
 C291 C 1.10519 0.50072 0.15775
 C292 C 1.08648 0.49815 0.12610
 H293 H 1.14594 0.53336 0.33717
 H294 H 1.18004 0.48901 0.24496
 H295 H 1.20547 0.48968 0.33386
 H296 H 1.17174 0.53537 0.42558
 C297 C 0.49802 0.67772 0.28597
 C298 C 0.51016 0.66076 0.28654
 C299 C 0.52392 0.65954 0.33729
 C300 C 0.52435 0.67393 0.38833
 C301 C 0.51081 0.68990 0.39010
 C302 C 0.49858 0.69244 0.33705
 C303 C 0.50714 0.64285 0.23737
 C304 C 0.50494 0.62644 0.19962
 C305 C 0.50304 0.60600 0.15938
 C306 C 0.50227 0.58788 0.12831
 H307 H 0.48726 0.67880 0.24681
 H308 H 0.53378 0.64681 0.33798
 H309 H 0.53551 0.67249 0.42632
 H310 H 0.48758 0.70404 0.33576
 C311 C 0.32082 -0.17955 0.28752
 C312 C 0.33777 -0.15046 0.28903
 C313 C 0.33908 -0.13588 0.34052
 C314 C 0.32459 -0.15024 0.39117
 C315 C 0.30844 -0.17975 0.39183
 C316 C 0.30605 -0.19409 0.33819
 C317 C 0.35538 -0.13526 0.23974
 C318 C 0.37145 -0.12100 0.20153
 C319 C 0.39148 -0.10259 0.16046
 C320 C 0.40935 -0.08545 0.12863
 H321 H 0.31973 -0.19108 0.24784
 H322 H 0.35185 -0.11331 0.34199
 H323 H 0.32600 -0.13788 0.42955
 H324 H 0.29443 -0.21667 0.33593
 C325 C 0.82737 0.50728 0.29375
 C326 C 0.84145 0.49213 0.29292
 C327 C 0.83993 0.47597 0.34208
 C328 C 0.82524 0.47573 0.39265
 C329 C 0.81187 0.49169 0.39475
 C330 C 0.81258 0.50700 0.34428
 C331 C 0.85927 0.49473 0.24391
 C332 C 0.87534 0.49714 0.20517
 C333 C 0.89536 0.49991 0.16280
 C334 C 0.91336 0.50189 0.12965
 H335 H 0.82854 0.51999 0.25611
 H336 H 0.85078 0.46418 0.34196
 H337 H 0.82478 0.46348 0.43055
 H338 H 0.80275 0.51973 0.34484
 C339 C 0.51650 0.35519 0.32829
 C340 C 0.49597 0.34076 0.28543
 C341 C 0.47597 0.31261 0.29443
 C342 C 0.47633 0.29907 0.34668
 C343 C 0.49657 0.31372 0.39053
 C344 C 0.51683 0.34180 0.38039
 C345 C 0.49465 0.35588 0.23480
 C346 C 0.49415 0.37034 0.19537
 C347 C 0.49400 0.38913 0.15326
 C348 C 0.49394 0.40657 0.12129
 H349 H 0.53201 0.37700 0.32192
 H350 H 0.45983 0.30131 0.26172
 H351 H 0.46041 0.27747 0.35353
 H352 H 0.53291 0.35346 0.41298
 C353 C 0.68100 0.17123 0.29219
 C354 C 0.65177 0.15680 0.29181
 C355 C 0.63718 0.15741 0.34193
 C356 C 0.65168 0.17156 0.39291
 C357 C 0.68102 0.18533 0.39444
 C358 C 0.69557 0.18550 0.34315
 C359 C 0.63650 0.13952 0.24218
 C360 C 0.62272 0.12381 0.20303
 C361 C 0.60527 0.10407 0.16045
 C362 C 0.58907 0.08614 0.12740
 H363 H 0.69250 0.17076 0.25377
 H364 H 0.61455 0.14631 0.34214
 H365 H 0.63995 0.17138 0.43148
 H366 H 0.71816 0.19570 0.34328
 C367 C 0.51237 0.15331 -0.33885
 C368 C 0.49766 0.15377 -0.28912
 C369 C 0.48318 0.16850 -0.29096
 C370 C 0.48327 0.18257 -0.34276
 C371 C 0.49766 0.18187 -0.39407
 C372 C 0.51244 0.16712 -0.39051
 C373 C 0.49673 0.13776 -0.23796
 C374 C 0.49646 0.12297 -0.19843
 C375 C 0.49645 0.10405 -0.15639
 C376 C 0.49634 0.08653 -0.12439
 H377 H 0.52382 0.14211 -0.33784
 H378 H 0.47144 0.16873 -0.25277
 H379 H 0.47088 0.19273 -0.34288
 H380 H 0.52503 0.16685 -0.42687
 C381 C 0.65441 0.51598 -0.34118
 C382 C 0.65462 0.50118 -0.29132
 C383 C 0.66925 0.48660 -0.29277
 C384 C 0.68349 0.48669 -0.34423
 C385 C 0.68314 0.50123 -0.39564
 C386 C 0.66843 0.51607 -0.39254
 C387 C 0.63883 0.50055 -0.24005
 C388 C 0.62445 0.50067 -0.20003
 C389 C 0.60628 0.50137 -0.15703
 C390 C 0.58957 0.50223 -0.12407
 H391 H 0.64332 0.52753 -0.34045
 H392 H 0.66932 0.47482 -0.25447
 H393 H 0.69357 0.47423 -0.34393
 H394 H 0.66842 0.52880 -0.42895
 C395 C 0.84259 0.36238 -0.33877
 C396 C 0.83960 0.34738 -0.28692
 C397 C 0.82156 0.31847 -0.28603
 C398 C 0.80724 0.30448 -0.33750
 C399 C 0.81107 0.31917 -0.39130
 C400 C 0.82851 0.34856 -0.39026
 C401 C 0.85670 0.36182 -0.23650
 C402 C 0.87251 0.37535 -0.19731
 C403 C 0.89258 0.39281 -0.15531
 C404 C 0.91086 0.40917 -0.12315
 H405 H 0.85629 0.38485 -0.33979
 H406 H 0.81922 0.30661 -0.24611
 H407 H 0.79471 0.28194 -0.33551
 H408 H 0.83117 0.36124 -0.42888
 C409 C 0.51963 -0.13939 -0.33825
 C410 C 0.50487 -0.15371 -0.28752
 C411 C 0.49020 -0.18298 -0.28705
 C412 C 0.48961 -0.19784 -0.33784
 C413 C 0.50348 -0.18354 -0.38974
 C414 C 0.51897 -0.15417 -0.38898
 C415 C 0.50343 -0.13801 -0.23803
 C416 C 0.50238 -0.12353 -0.19928
 C417 C 0.50159 -0.10494 -0.15739
 C418 C 0.50158 -0.08758 -0.12503
 H419 H 0.53108 -0.11675 -0.33914
 H420 H 0.47862 -0.19428 -0.24812
 H421 H 0.47735 -0.22045 -0.33737
 H422 H 0.53016 -0.14262 -0.42804
 C423 C 0.36220 0.52484 -0.33621
 C424 C 0.34778 0.50741 -0.28849
 C425 C 0.31861 0.49108 -0.29037
 C426 C 0.30402 0.49145 -0.34077
 C427 C 0.31853 0.50800 -0.38996
 C428 C 0.34771 0.52517 -0.38658
 C429 C 0.36338 0.50467 -0.24043
 C430 C 0.37756 0.50231 -0.20286
 C431 C 0.39541 0.49963 -0.16198
 C432 C 0.41171 0.49759 -0.12977
 H433 H 0.38478 0.53752 -0.33530
 H434 H 0.30725 0.47736 -0.25382
 H435 H 0.28158 0.47782 -0.34246
 H436 H 0.35939 0.53832 -0.42356
 C437 C 1.15606 0.63635 -0.34272
 C438 C 1.15429 0.65144 -0.29505
 C439 C 1.16813 0.68064 -0.29769
 C440 C 1.18338 0.69467 -0.34836
 C441 C 1.18475 0.67964 -0.39786
 C442 C 1.17106 0.65016 -0.39332
 C443 C 1.13699 0.63638 -0.24527
 C444 C 1.12140 0.62217 -0.20637
 C445 C 1.10192 0.60393 -0.16425
 C446 C 1.08426 0.58723 -0.13141
 H447 H 1.14563 0.61373 -0.34101
 H448 H 1.16668 0.69255 -0.26113
 H449 H 1.19270 0.71715 -0.34931
 H450 H 1.17243 0.63744 -0.42812
 C451 C 0.86145 0.52324 -0.33188
 C452 C 0.84666 0.50809 -0.28190
 C453 C 0.81742 0.49279 -0.28330
 C454 C 0.80311 0.49204 -0.33511
 C455 C 0.81792 0.50641 -0.38619
 C456 C 0.84722 0.52244 -0.38363
 C457 C 0.86189 0.50680 -0.23133
 C458 C 0.87607 0.50580 -0.19184
 C459 C 0.89443 0.50490 -0.14948
 C460 C 0.91170 0.50455 -0.11740
 H461 H 0.88407 0.53512 -0.33135
 H462 H 0.80576 0.48085 -0.24501
 H463 H 0.78055 0.47934 -0.33601
 H464 H 0.85916 0.53400 -0.42199
 C465 C 0.49508 0.31727 -0.28564
 C466 C 0.50531 0.34609 -0.28676
 C467 C 0.51688 0.36107 -0.33883
 C468 C 0.51721 0.34731 -0.39031
 C469 C 0.50578 0.31798 -0.39120
 C470 C 0.49552 0.30333 -0.33716
 C471 C 0.50253 0.36049 -0.23635
 C472 C 0.50021 0.37408 -0.19729
 C473 C 0.49771 0.39171 -0.15547
 C474 C 0.49596 0.40820 -0.12333
 H475 H 0.48598 0.30542 -0.24551
 H476 H 0.52522 0.38348 -0.34002
 H477 H 0.52687 0.36000 -0.42909
 H478 H 0.48606 0.28084 -0.33503
 C479 C 0.67601 0.17902 -0.28457
 C480 C 0.66261 0.14979 -0.28319
 C481 C 0.66382 0.13520 -0.33272
 C482 C 0.67749 0.14962 -0.38413
 C483 C 0.69015 0.17889 -0.38677
 C484 C 0.68980 0.19351 -0.33601
 C485 C 0.64563 0.13437 -0.23333
 C486 C 0.63008 0.12020 -0.19433
 C487 C 0.61045 0.10201 -0.15237
 C488 C 0.59258 0.08500 -0.12035
 H489 H 0.67505 0.19052 -0.24664
 H490 H 0.65350 0.11259 -0.33218
 H491 H 0.67772 0.13784 -0.42226
 H492 H 0.69910 0.21603 -0.33699
 C493 C 1.16844 0.48531 -0.29442
 C494 C 1.15472 0.50078 -0.29165
 C495 C 1.15609 0.51733 -0.33954
 C496 C 1.17045 0.51802 -0.39068
 C497 C 1.18388 0.50201 -0.39547
 C498 C 1.18312 0.48606 -0.34566
 C499 C 1.13766 0.49881 -0.24186
 C500 C 1.12204 0.49778 -0.20355
 C501 C 1.10240 0.49704 -0.16277
 C502 C 1.08460 0.49650 -0.13120
 H503 H 1.16727 0.47219 -0.25759
 H504 H 1.14574 0.52959 -0.33765
 H505 H 1.17151 0.53182 -0.42585
 H506 H 1.19241 0.47288 -0.34688
 C507 C 0.51756 0.65606 -0.33822
 C508 C 0.50091 0.65437 -0.29027
 C509 C 0.48516 0.66779 -0.29286
 C510 C 0.48575 0.68251 -0.34396
 C511 C 0.50182 0.68362 -0.39381
 C512 C 0.51809 0.67047 -0.38919
 C513 C 0.49940 0.63754 -0.24034
 C514 C 0.49902 0.62228 -0.20182
 C515 C 0.49947 0.60331 -0.16075
 C516 C 0.50043 0.58632 -0.12892
 H517 H 0.53005 0.64595 -0.33648
 H518 H 0.47199 0.66639 -0.25598
 H519 H 0.47237 0.69158 -0.34501
 H520 H 0.53201 0.67182 -0.42436
 C521 C 0.33320 -0.14272 -0.32817
 C522 C 0.34255 -0.15562 -0.28830
 C523 C 0.33638 -0.18317 -0.29831
 C524 C 0.32147 -0.19748 -0.34905
 C525 C 0.31289 -0.18419 -0.39029
 C526 C 0.31848 -0.15687 -0.37877
 C527 C 0.36028 -0.13940 -0.24018
 C528 C 0.37599 -0.12404 -0.20278
 C529 C 0.39521 -0.10438 -0.16238
 C530 C 0.41225 -0.08644 -0.13063
 H531 H 0.33793 -0.12140 -0.32093
 H532 H 0.34368 -0.19330 -0.26786
 H533 H 0.31758 -0.21845 -0.35722
 H534 H 0.31185 -0.14628 -0.40954
 C535 C 0.50257 -0.17534 0.29237
 C536 C 0.48658 -0.16212 0.29199
 C537 C 0.46970 -0.16492 0.34067
 C538 C 0.46971 -0.17985 0.39058
 C539 C 0.48666 -0.19214 0.39247
 C540 C 0.50254 -0.19037 0.34227
 C541 C 0.48937 -0.14349 0.24459
 C542 C 0.49205 -0.12668 0.20738
 C543 C 0.49531 -0.10588 0.16668
 C544 C 0.49794 -0.08736 0.13438
 H545 H 0.51586 -0.17313 0.25510
 H546 H 0.45731 -0.15471 0.34091
 H547 H 0.45710 -0.18110 0.42843
 H548 H 0.51604 -0.19934 0.34283
 C549 C 0.35707 0.51920 0.33064
 C550 C 0.34315 0.49866 0.28754
 C551 C 0.31490 0.47867 0.29515
 C552 C 0.30076 0.47902 0.34639
 C553 C 0.31494 0.49919 0.39060
 C554 C 0.34310 0.51949 0.38174
 C555 C 0.35887 0.49726 0.23828
 C556 C 0.37374 0.49663 0.20007
 C557 C 0.39282 0.49620 0.15929
 C558 C 0.41018 0.49572 0.12792
 H559 H 0.37895 0.53470 0.32531
 H560 H 0.30400 0.46254 0.26221
 H561 H 0.27909 0.46311 0.35229
 H562 H 0.35438 0.53553 0.41466
 C563 C 1.17497 0.67761 0.28692
 C564 C 1.16329 0.64859 0.28322
 C565 C 1.16778 0.63413 0.32884
 C566 C 1.18274 0.64840 0.37928
 C567 C 1.19339 0.67734 0.38472
 C568 C 1.19007 0.69196 0.33731
 C569 C 1.14428 0.63310 0.23611
 C570 C 1.12711 0.61913 0.19939
 C571 C 1.10586 0.60161 0.15957
 C572 C 1.08696 0.58560 0.12820
 H573 H 1.17142 0.68896 0.25205
 H574 H 1.15875 0.61165 0.32650
 H575 H 1.18518 0.63668 0.41496
 H576 H 1.19778 0.71420 0.34065
 C577 C 0.52363 0.16223 0.33140
 C578 C 0.50616 0.15971 0.28406
 C579 C 0.48958 0.17224 0.28758
 C580 C 0.48984 0.18651 0.33904
 C581 C 0.50651 0.18814 0.38771
 C582 C 0.52382 0.17633 0.38288
 C583 C 0.50361 0.14213 0.23460
 C584 C 0.50136 0.12610 0.19587
 C585 C 0.49881 0.10595 0.15408
 C586 C 0.49692 0.08767 0.12188
 H587 H 0.53649 0.15254 0.32925
 H588 H 0.47580 0.17021 0.25141
 H589 H 0.47610 0.19517 0.34183
 H590 H 0.53704 0.17749 0.41946
 C591 C 0.67489 0.49347 0.28602
 C592 C 0.66284 0.51049 0.28214
 C593 C 0.66578 0.52825 0.32918
 C594 C 0.67972 0.52827 0.38077
 C595 C 0.69092 0.51045 0.38611
 C596 C 0.68899 0.49354 0.33765
 C597 C 0.64532 0.50819 0.23275
 C598 C 0.62934 0.50642 0.19437
 C599 C 0.60928 0.50477 0.15334
 C600 C 0.59119 0.50395 0.12211
 H601 H 0.67260 0.47950 0.25004
 H602 H 0.65650 0.54148 0.32674
 H603 H 0.68119 0.54173 0.41712
 H604 H 0.69724 0.47945 0.34075
 C605 C 0.83566 0.31372 0.29534
 C606 C 0.84379 0.34186 0.28600
 C607 C 0.83711 0.35619 0.32801
 C608 C 0.82292 0.34275 0.37966
 C609 C 0.81520 0.31472 0.39024
 C610 C 0.82128 0.30013 0.34712
 C611 C 0.86085 0.35705 0.23611
 C612 C 0.87623 0.37146 0.19718
 C613 C 0.89552 0.39011 0.15538
 C614 C 0.91314 0.40735 0.12331
 H615 H 0.84096 0.30250 0.26334
 H616 H 0.84341 0.37799 0.32144
 H617 H 0.81816 0.35436 0.41170
 H618 H 0.81570 0.27857 0.35432
   
