data_POSCAR
  _audit_creation_date              2014-09-24
  _audit_creation_method            'ToBaCCo'
  _symmetry_space_group_name_H-M    'P1'
  _symmetry_Int_Tables_number       1
  _symmetry_cell_setting            triclinic
  loop_
  _symmetry_equiv_pos_as_xyz
 x,y,z
_cell_length_a 30.9401
_cell_length_b 25.1848
_cell_length_c 13.2262
_cell_angle_alpha 90.028200
_cell_angle_beta 89.985400
_cell_angle_gamma 90.009600
loop_
  _atom_site_label
  _atom_site_type_symbol
  _atom_site_fract_x
  _atom_site_fract_y
  _atom_site_fract_z
C1 C 0.71839 0.27838 0.55234
 C2 C 0.72314 0.28501 0.44583
 C3 C 0.75629 0.25869 0.39460
 C4 C 0.78496 0.22402 0.44366
 C5 C 0.78260 0.21910 0.55155
 C6 C 0.74825 0.24498 0.60235
 H7 H 0.74592 0.24108 0.68368
 H8 H 0.75772 0.26278 0.31293
 C9 C 0.22129 0.78171 0.55616
 C10 C 0.21943 0.78004 0.44910
 C11 C 0.24948 0.74871 0.39688
 C12 C 0.28143 0.71939 0.44731
 C13 C 0.28427 0.72176 0.55522
 C14 C 0.25335 0.75283 0.60695
 H15 H 0.25376 0.75492 0.68882
 H16 H 0.24816 0.74720 0.31494
 C17 C 0.28012 0.27853 -0.55062
 C18 C 0.27737 0.28369 -0.44419
 C19 C 0.24502 0.25639 -0.39183
 C20 C 0.21554 0.22251 -0.44099
 C21 C 0.21674 0.21888 -0.54942
 C22 C 0.25027 0.24587 -0.60089
 H23 H 0.25227 0.24383 -0.68261
 H24 H 0.24461 0.25939 -0.30995
 C25 C -0.22300 0.78359 -0.55523
 C26 C -0.21967 0.77884 -0.44885
 C27 C -0.24916 0.74611 -0.39752
 C28 C -0.28279 0.71876 -0.44791
 C29 C -0.28446 0.72189 -0.55631
 C30 C -0.25536 0.75580 -0.60654
 H31 H -0.25608 0.75852 -0.68843
 H32 H -0.24689 0.74436 -0.31582
 N33 N 0.04610 0.94240 -0.17586
 N34 N 0.07714 0.93386 -0.24217
 N35 N -0.04520 0.90502 -0.10996
 N36 N -0.07479 0.86885 -0.13118
 N37 N -0.04489 0.94247 -0.17915
 N38 N -0.07443 0.93299 -0.24877
 N39 N 0.04545 0.90477 -0.10718
 N40 N 0.07569 0.86903 -0.12600
 C41 C 0.09543 0.88821 -0.20982
 C42 C -0.09299 0.88722 -0.21745
 N43 N -0.04698 0.94298 0.17749
 N44 N -0.07820 0.93488 0.24352
 N45 N 0.04426 0.90519 0.11185
 N46 N 0.07405 0.86925 0.13283
 N47 N 0.04401 0.94278 0.18081
 N48 N 0.07379 0.93367 0.25001
 N49 N -0.04641 0.90518 0.10907
 N50 N -0.07688 0.86975 0.12783
 Mn51 Mn -0.00047 0.90441 0.00096
 C52 C -0.09668 0.88931 0.21130
 C53 C 0.09242 0.88793 0.21871
 N54 N -0.04428 1.05740 -0.18041
 N55 N -0.07272 1.06844 -0.25173
 N56 N 0.04586 1.09362 -0.10733
 N57 N 0.07705 1.12836 -0.12399
 N58 N 0.04638 1.05618 -0.17636
 N59 N 0.07792 1.06419 -0.24165
 N60 N -0.04534 1.09367 -0.10908
 N61 N -0.07519 1.12973 -0.12876
 Mn62 Mn 0.00078 0.99957 -0.17889
 C63 C -0.09219 1.11307 -0.21748
 C64 C 0.09696 1.10908 -0.20755
 N65 N 0.04362 1.05760 0.18160
 N66 N 0.07177 1.06888 0.25340
 N67 N -0.04633 1.09400 0.10832
 N68 N -0.07720 1.12911 0.12540
 N69 N -0.04696 1.05664 0.17743
 N70 N -0.07826 1.06505 0.24313
 N71 N 0.04484 1.09374 0.11011
 N72 N 0.07453 1.12995 0.13018
 Mn73 Mn -0.00153 0.99994 0.18025
 Mn74 Mn -0.00024 1.09435 0.00048
 Cl75 Cl -0.00037 0.99955 0.00068
 C76 C 0.09124 1.11352 0.21932
 C77 C -0.09704 1.11009 0.20923
 N78 N 0.45479 0.44077 0.17862
 N79 N 0.42484 0.43133 0.24720
 N80 N 0.54569 0.40370 0.11000
 N81 N 0.57681 0.36901 0.12784
 N82 N 0.54585 0.44132 0.17877
 N83 N 0.57747 0.43393 0.24407
 N84 N 0.45497 0.40336 0.10941
 N85 N 0.42532 0.36706 0.12979
 C86 C 0.40655 0.38552 0.21545
 C87 C 0.59655 0.38888 0.21111
 N88 N 0.54550 0.44142 -0.17883
 N89 N 0.57412 0.43083 -0.24996
 N90 N 0.45516 0.40425 -0.10971
 N91 N 0.42467 0.36894 -0.12932
 N92 N 0.45473 0.44233 -0.17759
 N93 N 0.42372 0.43440 -0.24427
 N94 N 0.54606 0.40442 -0.10878
 N95 N 0.57543 0.36796 -0.13005
 Mn96 Mn 0.50048 0.40328 0.00019
 C97 C 0.59286 0.38534 -0.21792
 C98 C 0.40514 0.38871 -0.21291
 N99 N 0.54573 0.55496 0.18062
 N100 N 0.57697 0.56285 0.24686
 N101 N 0.45524 0.59278 0.11142
 N102 N 0.42489 0.62833 0.12998
 N103 N 0.45447 0.55491 0.17956
 N104 N 0.42313 0.56316 0.24549
 N105 N 0.54602 0.59215 0.11121
 N106 N 0.57731 0.62661 0.12851
 Mn107 Mn 0.50016 0.49798 0.18040
 C108 C 0.59653 0.60746 0.21288
 C109 C 0.40486 0.60892 0.21312
 N110 N 0.45553 0.55670 -0.17739
 N111 N 0.42727 0.56801 -0.24872
 N112 N 0.54639 0.59265 -0.10611
 N113 N 0.57592 0.62914 -0.12563
 N114 N 0.54573 0.55645 -0.17767
 N115 N 0.57404 0.56801 -0.24892
 N116 N 0.45516 0.59327 -0.10657
 N117 N 0.42603 0.63011 -0.12718
 Mn118 Mn 0.50038 0.49915 -0.17867
 Mn119 Mn 0.50071 0.59327 0.00252
 Cl120 Cl 0.50041 0.49840 0.00103
 C121 C 0.40873 0.61339 -0.21570
 C122 C 0.59310 0.61280 -0.21437
 N123 N 0.33237 0.28167 0.30762
 C124 C 0.31327 0.30632 0.38755
 N125 N 0.32360 0.35768 0.40635
 N126 N 0.35299 0.38285 0.35073
 C127 C 0.37268 0.35792 0.27248
 N128 N 0.36165 0.30694 0.25125
 N129 N -0.18554 0.86512 0.38928
 C130 C -0.19074 0.81177 0.38229
 N131 N -0.16702 0.78458 0.31302
 N132 N -0.13779 0.80945 0.25617
 C133 C -0.13137 0.86246 0.26647
 N134 N -0.15594 0.88991 0.33348
 N135 N 0.67656 0.64073 0.40778
 C136 C 0.68779 0.69116 0.38221
 N137 N 0.67230 0.71126 0.29386
 N138 N 0.64425 0.68388 0.23800
 C139 C 0.63112 0.63492 0.26744
 N140 N 0.64840 0.61337 0.35220
 N141 N 0.14573 1.17891 0.43138
 C142 C 0.18435 1.19346 0.39113
 N143 N 0.19054 1.18457 0.29044
 N144 N 0.16061 1.16014 0.23471
 C145 C 0.12327 1.14325 0.27762
 N146 N 0.11616 1.15352 0.37663
 N147 N 0.66048 0.34264 -0.43055
 C148 C 0.68577 0.30425 -0.38966
 N149 N 0.67970 0.29241 -0.29003
 N150 N 0.64998 0.31770 -0.23493
 C151 C 0.62541 0.35648 -0.27691
 N152 N 0.63117 0.36838 -0.37573
 N153 N 0.18366 0.86317 -0.38896
 C154 C 0.18909 0.80991 -0.38107
 N155 N 0.16573 0.78303 -0.31071
 N156 N 0.13660 0.80812 -0.25379
 C157 C 0.12997 0.86104 -0.26507
 N158 N 0.15421 0.88817 -0.33310
 N159 N 0.34494 0.66119 -0.43035
 C160 C 0.31654 0.69531 -0.38696
 N161 N 0.31964 0.70308 -0.28514
 N162 N 0.34926 0.67769 -0.23011
 C163 C 0.37671 0.64286 -0.27458
 N164 N 0.37410 0.63517 -0.37565
 N165 N -0.19215 1.18265 -0.28907
 C166 C -0.18521 1.19341 -0.38881
 N167 N -0.14599 1.18052 -0.42801
 N168 N -0.11648 1.15496 -0.37344
 C169 C -0.12430 1.14281 -0.27553
 N170 N -0.16230 1.15802 -0.23345
 N171 N 0.64609 0.67970 -0.42642
 C172 C 0.68514 0.69348 -0.38754
 N173 N 0.69208 0.68391 -0.28737
 N174 N 0.66245 0.65933 -0.23101
 C175 C 0.62468 0.64310 -0.27275
 N176 N 0.61681 0.65421 -0.37107
 N177 N 0.17708 1.14146 -0.40251
 C178 C 0.18795 1.19220 -0.37851
 N179 N 0.17231 1.21296 -0.29077
 N180 N 0.14436 1.18585 -0.23411
 C181 C 0.13157 1.13650 -0.26210
 N182 N 0.14908 1.11436 -0.34613
 N183 N 0.31682 0.36470 -0.39271
 C184 C 0.31020 0.31172 -0.38279
 N185 N 0.33301 0.28481 -0.31152
 N186 N 0.36262 0.30952 -0.25540
 C187 C 0.37035 0.36210 -0.26841
 N188 N 0.34675 0.38931 -0.33756
 N189 N -0.17467 0.85759 -0.41059
 C190 C -0.18626 0.80703 -0.38820
 N191 N -0.16813 0.78356 -0.30587
 N192 N -0.13877 0.80917 -0.25035
 C193 C -0.12662 0.85934 -0.27484
 N194 N -0.14521 0.88313 -0.35573
 N195 N 0.31456 0.63598 0.38644
 C196 C 0.31198 0.68979 0.38237
 N197 N 0.33775 0.71632 0.31642
 N198 N 0.36647 0.69028 0.26006
 C199 C 0.37048 0.63679 0.26780
 N200 N 0.34376 0.61001 0.33122
 N201 N -0.17137 1.21470 0.29394
 C202 C -0.18727 1.19383 0.38131
 N203 N -0.17675 1.14292 0.40476
 N204 N -0.14893 1.11569 0.34809
 C205 C -0.13129 1.13786 0.26429
 N206 N -0.14363 1.18746 0.23698
 N207 N 0.66571 0.28469 0.31797
 C208 C 0.69151 0.31291 0.38132
 N209 N 0.68825 0.36667 0.38223
 N210 N 0.65840 0.39100 0.32638
 C211 C 0.63174 0.36258 0.26536
 N212 N 0.63634 0.30909 0.26090
 N213 N 0.16769 0.78460 0.30699
 C214 C 0.18611 0.80834 0.38873
 N215 N 0.17480 0.85906 0.41063
 N216 N 0.14521 0.88446 0.35593
 C217 C 0.12627 0.86036 0.27573
 N218 N 0.13823 0.81007 0.25166
   
