data_POSCAR
  _audit_creation_date              2014-09-24
  _audit_creation_method            'ToBaCCo'
  _symmetry_space_group_name_H-M    'P1'
  _symmetry_Int_Tables_number       1
  _symmetry_cell_setting            triclinic
  loop_
  _symmetry_equiv_pos_as_xyz
 x,y,z
_cell_length_a 33.8525
_cell_length_b 20.8682
_cell_length_c 20.6814
_cell_angle_alpha 89.825200
_cell_angle_beta 90.107000
_cell_angle_gamma 89.899100
loop_
  _atom_site_label
  _atom_site_type_symbol
  _atom_site_fract_x
  _atom_site_fract_y
  _atom_site_fract_z
O1 O 0.05591 0.10890 0.11951
 O2 O 0.09929 0.05231 0.05613
 C3 C 0.09135 0.09266 0.10190
 O4 O -0.05489 -0.11891 0.11050
 O5 O -0.09833 -0.05632 0.05269
 C6 C -0.09036 -0.10166 0.09370
 O7 O 0.05620 -0.11243 0.11740
 O8 O 0.09937 -0.05415 0.05537
 C9 C 0.09174 -0.09585 0.10035
 O10 O -0.05508 0.11583 0.11299
 O11 O -0.09843 0.05510 0.05368
 C12 C -0.09054 0.09926 0.09573
 Zr13 Zr 0.00043 0.07993 0.08212
 O14 O -0.00322 0.07861 0.18425
 O15 O 0.00488 0.18111 0.08239
 Zr16 Zr 0.00061 -0.08185 0.08107
 O17 O -0.00136 -0.07632 0.18302
 O18 O 0.00470 -0.18304 0.08354
 O19 O 0.03578 -0.00119 0.09399
 O20 O -0.03394 -0.00113 0.09332
 O21 O -0.05529 0.11828 -0.11149
 O22 O -0.09855 0.05599 -0.05352
 C23 C -0.09070 0.10112 -0.09471
 O24 O 0.05583 -0.11015 -0.11947
 O25 O 0.09923 -0.05287 -0.05685
 C26 C 0.09127 -0.09356 -0.10226
 O27 O -0.05517 -0.11627 -0.11334
 O28 O -0.09848 -0.05520 -0.05434
 C29 C -0.09062 -0.09947 -0.09627
 O30 O 0.05573 0.11212 -0.11795
 O31 O 0.09917 0.05338 -0.05623
 C32 C 0.09121 0.09507 -0.10102
 Zr33 Zr 0.00029 0.08172 -0.08146
 O34 O -0.00437 0.08272 -0.18355
 O35 O 0.00478 0.18289 -0.08030
 Zr36 Zr 0.00038 -0.08043 -0.08264
 O37 O -0.00427 -0.07938 -0.18473
 O38 O 0.00499 -0.18163 -0.08289
 Zr39 Zr 0.05909 -0.00027 -0.00034
 Zr40 Zr -0.05824 -0.00013 -0.00032
 O41 O -0.03397 0.00080 -0.09390
 O42 O 0.03549 0.00072 -0.09475
 O43 O -0.03483 0.09343 0.00041
 O44 O 0.03478 -0.09295 -0.00087
 O45 O 0.03468 0.09251 0.00045
 O46 O -0.03464 -0.09368 -0.00089
 H47 H -0.05192 -0.00153 0.13107
 H48 H 0.05271 -0.13052 -0.00104
 H49 H -0.05198 0.00120 -0.13172
 H50 H 0.05266 0.12992 0.00078
 H51 H -0.01505 -0.19975 0.05266
 H52 H -0.01736 -0.19869 -0.05741
 H53 H 0.01764 -0.05287 -0.20153
 H54 H 0.01759 0.05654 -0.20073
 H55 H -0.01734 0.19942 -0.05396
 H56 H -0.01743 0.19818 0.05660
 H57 H 0.01503 0.04480 0.19979
 H58 H -0.00124 -0.12116 0.19891
 O59 O 0.55503 0.61401 0.61543
 O60 O 0.59859 0.55571 0.55410
 C61 C 0.59054 0.59735 0.59863
 O62 O 0.44486 0.38325 0.61044
 O63 O 0.40110 0.44524 0.55271
 C64 C 0.40930 0.40015 0.59391
 O65 O 0.55509 0.38983 0.61736
 O66 O 0.59862 0.44774 0.55544
 C67 C 0.59057 0.40644 0.60048
 O68 O 0.44466 0.62080 0.60833
 O69 O 0.40103 0.55855 0.55124
 C70 C 0.40916 0.60393 0.59181
 Zr71 Zr 0.49982 0.58256 0.57906
 O72 O 0.49809 0.57467 0.68093
 O73 O 0.50358 0.68369 0.58253
 Zr74 Zr 0.49988 0.42200 0.58138
 O75 O 0.49873 0.43538 0.68260
 O76 O 0.50092 0.32129 0.59288
 O77 O 0.53543 0.50231 0.59253
 O78 O 0.46488 0.50239 0.59173
 O79 O 0.44442 0.61786 0.38400
 O80 O 0.40094 0.55703 0.44292
 C81 C 0.40894 0.60134 0.40092
 O82 O 0.55509 0.38816 0.38154
 O83 O 0.59864 0.44669 0.44257
 C84 C 0.59059 0.40491 0.39822
 O85 O 0.44468 0.38265 0.38732
 O86 O 0.40105 0.44467 0.44457
 C87 C 0.40919 0.39952 0.40380
 O88 O 0.55498 0.61165 0.37852
 O89 O 0.59858 0.55431 0.44122
 C90 C 0.59048 0.59514 0.39575
 Zr91 Zr 0.49971 0.58133 0.41561
 O92 O 0.49517 0.57975 0.31350
 O93 O 0.50417 0.68254 0.41473
 Zr94 Zr 0.49985 0.41970 0.41780
 O95 O 0.49539 0.41948 0.31566
 O96 O 0.50377 0.31844 0.41950
 Zr97 Zr 0.55891 0.50122 0.49821
 Zr98 Zr 0.44062 0.50140 0.49811
 O99 O 0.46531 0.50041 0.40480
 O100 O 0.53510 0.50033 0.40393
 O101 O 0.46454 0.59466 0.49707
 O102 O 0.53421 0.40883 0.49975
 O103 O 0.53410 0.59374 0.49722
 O104 O 0.46478 0.40813 0.49965
 H105 H 0.44672 0.50266 0.62926
 H106 H 0.55206 0.37117 0.50008
 H107 H 0.44746 0.50004 0.36678
 H108 H 0.55178 0.63152 0.49686
 H109 H 0.50757 0.30291 0.55032
 H110 H 0.48220 0.30243 0.44742
 H111 H 0.51780 0.44461 0.29847
 H112 H 0.51747 0.55396 0.29693
 H113 H 0.48171 0.69972 0.43985
 H114 H 0.48535 0.70069 0.54923
 H115 H 0.49770 0.61915 0.69757
 H116 H 0.49755 0.39189 0.70183
 C117 C 0.18635 0.17929 0.19656
 N118 N 0.19273 0.13518 0.14959
 N119 N 0.16245 0.10732 0.11964
 C120 C 0.12470 0.12254 0.13560
 N121 N 0.11834 0.16651 0.18270
 N122 N 0.14861 0.19439 0.21262
 C123 C 0.21968 0.21084 0.22879
 N124 N 0.21324 0.25621 0.27449
 N125 N 0.24347 0.28556 0.30308
 C126 C 0.28123 0.27059 0.28701
 N127 N 0.28768 0.22510 0.24142
 N128 N 0.25744 0.19577 0.21280
 C129 C 0.31451 0.30358 0.31787
 N130 N 0.35228 0.28847 0.30203
 N131 N 0.38248 0.31891 0.32955
 C132 C 0.37598 0.36562 0.37385
 N133 N 0.33820 0.38066 0.38976
 N134 N 0.30801 0.35018 0.36227
 C135 C 0.81440 0.80365 0.17941
 N136 N 0.85209 0.78784 0.19548
 N137 N 0.88247 0.81783 0.16800
 C138 C 0.87625 0.86474 0.12349
 N139 N 0.83856 0.88045 0.10734
 N140 N 0.80819 0.85045 0.13480
 C141 C 0.78092 0.77124 0.21032
 N142 N 0.74323 0.78705 0.19422
 N143 N 0.71283 0.75822 0.22288
 C144 C 0.71902 0.71256 0.26870
 N145 N 0.75670 0.69667 0.28471
 N146 N 0.78710 0.72547 0.25602
 C147 C 0.68556 0.68145 0.30101
 N148 N 0.69184 0.63692 0.34790
 N149 N 0.66151 0.60927 0.37788
 C150 C 0.62380 0.62513 0.36206
 N151 N 0.61750 0.66956 0.31505
 N152 N 0.64784 0.69724 0.28508
 C153 C 0.81408 0.19575 0.81831
 N154 N 0.80783 0.14905 0.86294
 N155 N 0.83818 0.11903 0.89083
 C156 C 0.87588 0.13465 0.87510
 N157 N 0.88213 0.18145 0.83056
 N158 N 0.85177 0.21144 0.80266
 C159 C 0.78066 0.22825 0.78695
 N160 N 0.78695 0.27404 0.74138
 N161 N 0.75663 0.30304 0.71233
 C162 C 0.71891 0.28731 0.72782
 N163 N 0.71261 0.24161 0.77349
 N164 N 0.74294 0.21259 0.80252
 C165 C 0.68553 0.31873 0.69525
 N166 N 0.64780 0.30309 0.71072
 N167 N 0.61751 0.33118 0.68067
 C168 C 0.62387 0.37589 0.63403
 N169 N 0.66161 0.39158 0.61863
 N170 N 0.69189 0.36351 0.64870
 C171 C 0.18622 0.82095 0.80200
 N172 N 0.19261 0.86508 0.84896
 N173 N 0.16234 0.89246 0.87936
 C174 C 0.12460 0.87672 0.86389
 N175 N 0.11822 0.83269 0.81684
 N176 N 0.14849 0.80528 0.78647
 C177 C 0.21955 0.79010 0.76912
 N178 N 0.21312 0.74487 0.72327
 N179 N 0.24337 0.71618 0.69405
 C180 C 0.28112 0.73172 0.70959
 N181 N 0.28755 0.77708 0.75532
 N182 N 0.25730 0.80575 0.78457
 C183 C 0.31442 0.69932 0.67817
 N184 N 0.35219 0.71476 0.69372
 N185 N 0.38241 0.68462 0.66592
 C186 C 0.37593 0.63791 0.62162
 N187 N 0.33815 0.62259 0.60596
 N188 N 0.30795 0.65276 0.63372
 C189 C 0.18624 0.18239 0.80457
 N190 N 0.19262 0.13743 0.85105
 N191 N 0.16235 0.10949 0.88100
 C192 C 0.12458 0.12547 0.86556
 N193 N 0.11821 0.17034 0.81900
 N194 N 0.14848 0.19829 0.78908
 C195 C 0.21962 0.21375 0.77202
 N196 N 0.21320 0.25946 0.72632
 N197 N 0.24344 0.28839 0.69727
 C198 C 0.28122 0.27268 0.71283
 N199 N 0.28765 0.22688 0.75845
 N200 N 0.25741 0.19795 0.78752
 C201 C 0.31456 0.30519 0.68133
 N202 N 0.35237 0.28962 0.69690
 N203 N 0.38256 0.31965 0.66886
 C204 C 0.37606 0.36637 0.62423
 N205 N 0.33825 0.38184 0.60858
 N206 N 0.30806 0.35180 0.63659
 C207 C 0.81415 0.80755 0.81557
 N208 N 0.80787 0.85357 0.86070
 N209 N 0.83821 0.88306 0.88891
 C210 C 0.87594 0.86762 0.87305
 N211 N 0.88222 0.82152 0.82800
 N212 N 0.85188 0.79205 0.79978
 C213 C 0.78070 0.77543 0.78399
 N214 N 0.78702 0.73000 0.73828
 N215 N 0.75671 0.70123 0.70925
 C216 C 0.71896 0.71681 0.72485
 N217 N 0.71264 0.76218 0.77063
 N218 N 0.74295 0.79097 0.79966
 C219 C 0.68555 0.68543 0.69242
 N220 N 0.64778 0.70099 0.70794
 N221 N 0.61750 0.67284 0.67819
 C222 C 0.62388 0.62811 0.63180
 N223 N 0.66165 0.61251 0.61634
 N224 N 0.69192 0.64064 0.64610
 C225 C 0.18444 0.81871 0.19095
 N226 N 0.14677 0.80347 0.20723
 N227 N 0.11632 0.83165 0.17766
 C228 C 0.12233 0.87619 0.13057
 N229 N 0.16011 0.89146 0.11450
 N230 N 0.19054 0.86328 0.14410
 C231 C 0.21804 0.78710 0.22308
 N232 N 0.25572 0.80234 0.20679
 N233 N 0.28616 0.77328 0.23550
 C234 C 0.28006 0.72786 0.28155
 N235 N 0.24238 0.71268 0.29789
 N236 N 0.21194 0.74176 0.26920
 C237 C 0.31362 0.69535 0.31286
 N238 N 0.30742 0.64929 0.35820
 N239 N 0.33780 0.61946 0.38627
 C240 C 0.37551 0.63457 0.37007
 N241 N 0.38172 0.68071 0.32479
 N242 N 0.35133 0.71053 0.29669
 C243 C 0.81423 0.19285 0.18327
 N244 N 0.80795 0.14680 0.13819
 N245 N 0.83829 0.11708 0.11021
 C246 C 0.87603 0.13232 0.12629
 N247 N 0.88230 0.17843 0.17131
 N248 N 0.85197 0.20814 0.19929
 C249 C 0.78078 0.22528 0.21453
 N250 N 0.78709 0.27086 0.26010
 N251 N 0.75678 0.29993 0.28880
 C252 C 0.71903 0.28452 0.27300
 N253 N 0.71272 0.23900 0.22737
 N254 N 0.74303 0.20992 0.19867
 C255 C 0.68561 0.31621 0.30509
 N256 N 0.64784 0.30072 0.28948
 N257 N 0.61756 0.32909 0.31898
 C258 C 0.62393 0.37400 0.36521
 N259 N 0.66170 0.38955 0.38074
 N260 N 0.69198 0.36119 0.35124
   
