data_POSCAR
  _audit_creation_date              2014-09-24
  _audit_creation_method            'ToBaCCo'
  _symmetry_space_group_name_H-M    'P1'
  _symmetry_Int_Tables_number       1
  _symmetry_cell_setting            triclinic
  loop_
  _symmetry_equiv_pos_as_xyz
 x,y,z
_cell_length_a 58.8209
_cell_length_b 58.8613
_cell_length_c 17.7666
_cell_angle_alpha 90.009000
_cell_angle_beta 90.025100
_cell_angle_gamma 119.940300
loop_
  _atom_site_label
  _atom_site_type_symbol
  _atom_site_fract_x
  _atom_site_fract_y
  _atom_site_fract_z
C1 C 0.22161 0.48505 0.46057
 C2 C 0.22196 0.48581 0.54107
 C3 C 0.24369 0.48729 0.57928
 C4 C 0.26472 0.48733 0.54126
 C5 C 0.26371 0.48564 0.46142
 C6 C 0.24235 0.48445 0.42289
 H7 H 0.24252 0.48395 0.36189
 H8 H 0.24408 0.48805 0.64022
 C9 C 0.51274 -0.26449 0.46032
 C10 C 0.51612 -0.26238 0.53983
 C11 C 0.51710 -0.24102 0.57784
 C12 C 0.51391 -0.22177 0.54007
 C13 C 0.51054 -0.22387 0.46056
 C14 C 0.50943 -0.24530 0.42255
 H15 H 0.50807 -0.24575 0.36165
 H16 H 0.51846 -0.24058 0.63874
 C17 C 1.26149 0.77926 0.45912
 C18 C 1.26010 0.77986 0.53919
 C19 C 1.23893 0.75926 0.57716
 C20 C 1.21923 0.73771 0.53831
 C21 C 1.22046 0.73687 0.45900
 C22 C 1.24168 0.75727 0.42076
 H23 H 1.24169 0.75667 0.35977
 H24 H 1.23835 0.75947 0.63816
 C25 C 0.78097 0.52010 0.46120
 C26 C 0.77979 0.51691 0.54076
 C27 C 0.75786 0.51484 0.57928
 C28 C 0.73804 0.51739 0.54214
 C29 C 0.73957 0.52046 0.46254
 C30 C 0.76104 0.52203 0.42381
 H31 H 0.76153 0.52336 0.36286
 H32 H 0.75754 0.51383 0.64019
 C33 C 0.49152 0.26680 0.46094
 C34 C 0.48850 0.26558 0.54055
 C35 C 0.48627 0.24353 0.57866
 C36 C 0.48835 0.22353 0.54107
 C37 C 0.49144 0.22520 0.46147
 C38 C 0.49328 0.24685 0.42315
 H39 H 0.49451 0.24739 0.36219
 H40 H 0.48536 0.24315 0.63959
 C41 C 0.73787 0.21901 0.46115
 C42 C 0.73685 0.22011 0.54046
 C43 C 0.75713 0.24131 0.57918
 C44 C 0.77915 0.26124 0.54129
 C45 C 0.77987 0.26005 0.46121
 C46 C 0.75942 0.23887 0.42277
 H47 H 0.75974 0.23840 0.36176
 H48 H 0.75643 0.24121 0.64016
 N49 N 0.97191 0.52520 0.07938
 N50 N 0.95255 0.53010 0.08990
 N51 N 1.02709 0.53723 0.13251
 N52 N 1.04639 0.55039 0.18066
 N53 N 1.02713 0.55282 0.07956
 N54 N 1.04648 0.57705 0.09019
 N55 N 0.97192 0.50960 0.13224
 N56 N 0.95258 0.50346 0.18024
 C57 C 0.94069 0.51631 0.15276
 C58 C 1.05828 0.57509 0.15320
 N59 N 1.02742 0.47250 0.08323
 N60 N 1.04722 0.46828 0.09426
 N61 N 0.97208 0.46075 0.13447
 N62 N 0.95263 0.44796 0.18241
 N63 N 0.97217 0.44477 0.08303
 N64 N 0.95277 0.42064 0.09448
 N65 N 1.02728 0.48845 0.13471
 N66 N 1.04696 0.49554 0.18218
 Mn67 Mn 0.99958 0.49900 0.13432
 C68 C 1.05916 0.48283 0.15603
 C69 C 0.94079 0.42306 0.15641
 N70 N 1.02717 0.55218 -0.08271
 N71 N 1.04627 0.57640 -0.09506
 N72 N 0.97199 0.50855 -0.13426
 N73 N 0.95267 0.50207 -0.18267
 N74 N 0.97198 0.52455 -0.08274
 N75 N 0.95265 0.52941 -0.09462
 N76 N 1.02719 0.53619 -0.13424
 N77 N 1.04632 0.54906 -0.18310
 Mn78 Mn 0.99955 0.53895 -0.00164
 C79 C 1.05804 0.57402 -0.15755
 C80 C 0.94080 0.51515 -0.15683
 N81 N 0.97217 0.44407 -0.07914
 N82 N 0.95300 0.41978 -0.09007
 N83 N 1.02729 0.48725 -0.13201
 N84 N 1.04628 0.49294 -0.18090
 N85 N 1.02734 0.47171 -0.07903
 N86 N 1.04637 0.46638 -0.09038
 N87 N 0.97212 0.45964 -0.13204
 N88 N 0.95292 0.44639 -0.18043
 Mn89 Mn 0.99978 0.45800 0.00206
 Mn90 Mn 0.99965 0.49791 -0.13398
 Cl91 Cl 0.99965 0.49847 0.00016
 C92 C 0.94118 0.42166 -0.15317
 C93 C 1.05801 0.47988 -0.15378
 N94 N 0.51157 0.53909 -0.13263
 N95 N 0.50524 0.55215 -0.18061
 N96 N 0.55485 0.52730 -0.07901
 N97 N 0.57914 0.53226 -0.08924
 N98 N 0.53934 0.51166 -0.13195
 N99 N 0.55262 0.50553 -0.17971
 N100 N 0.52703 0.55473 -0.07960
 N101 N 0.53167 0.57889 -0.09001
 C102 C 0.51787 0.57685 -0.15301
 C103 C 0.57732 0.51844 -0.15201
 N104 N 0.53798 0.51069 0.13453
 N105 N 0.55081 0.50419 0.18295
 N106 N 0.52619 0.55413 0.08257
 N107 N 0.53088 0.57825 0.09427
 N108 N 0.51017 0.53811 0.13398
 N109 N 0.50350 0.55087 0.18210
 N110 N 0.55400 0.52671 0.08311
 N111 N 0.57818 0.53157 0.09506
 Mn112 Mn 0.54078 0.54098 0.00178
 C113 C 0.57576 0.51730 0.15726
 C114 C 0.51650 0.57579 0.15627
 N115 N 0.49049 0.46270 -0.13448
 N116 N 0.49726 0.44997 -0.18240
 N117 N 0.44667 0.47419 -0.08376
 N118 N 0.42262 0.46982 -0.09518
 N119 N 0.46276 0.49018 -0.13512
 N120 N 0.45014 0.49713 -0.18289
 N121 N 0.47443 0.44667 -0.08316
 N122 N 0.46982 0.42257 -0.09468
 Mn123 Mn 0.50104 0.50090 -0.13438
 C124 C 0.48427 0.42506 -0.15654
 C125 C 0.42521 0.48431 -0.15706
 N126 N 0.46135 0.48904 0.13160
 N127 N 0.44793 0.49453 0.18064
 N128 N 0.47365 0.44603 0.07905
 N129 N 0.46900 0.42186 0.08949
 N130 N 0.48917 0.46167 0.13200
 N131 N 0.49551 0.44861 0.17994
 N132 N 0.44583 0.47343 0.07859
 N133 N 0.42141 0.46786 0.09009
 Mn134 Mn 0.49966 0.49988 0.13386
 Mn135 Mn 0.45987 0.45981 -0.00236
 Cl136 Cl 0.50033 0.50039 -0.00025
 C137 C 0.42316 0.48130 0.15359
 C138 C 0.48284 0.42390 0.15243
 N139 N 0.44440 -0.02759 0.08075
 N140 N 0.42007 -0.04663 0.09219
 N141 N 0.48817 0.02733 0.13326
 N142 N 0.49483 0.04675 0.18130
 N143 N 0.47247 0.02758 0.08106
 N144 N 0.46800 0.04719 0.09211
 N145 N 0.46012 -0.02782 0.13290
 N146 N 0.44695 -0.04700 0.18131
 C147 C 0.42209 -0.05855 0.15483
 C148 C 0.48215 0.05893 0.15462
 N149 N 0.55261 0.02665 0.08107
 N150 N 0.57692 0.04571 0.09277
 N151 N 0.50883 -0.02838 0.13278
 N152 N 0.50221 -0.04786 0.18057
 N153 N 0.52458 -0.02851 0.08058
 N154 N 0.52912 -0.04809 0.09137
 N155 N 0.53686 0.02676 0.13330
 N156 N 0.54999 0.04588 0.18198
 Mn157 Mn 0.49849 -0.00053 0.13390
 C158 C 0.57485 0.05751 0.15563
 C159 C 0.51495 -0.05994 0.15369
 N160 N 0.47250 0.02769 -0.08120
 N161 N 0.46802 0.04731 -0.09210
 N162 N 0.46020 -0.02764 -0.13363
 N163 N 0.44716 -0.04709 -0.18139
 N164 N 0.44446 -0.02749 -0.08146
 N165 N 0.42024 -0.04686 -0.09225
 N166 N 0.48821 0.02750 -0.13339
 N167 N 0.49487 0.04697 -0.18125
 Mn168 Mn 0.45819 0.00005 -0.00022
 C169 C 0.48218 0.05911 -0.15450
 C170 C 0.42236 -0.05886 -0.15458
 N171 N 0.52462 -0.02841 -0.08160
 N172 N 0.52928 -0.04789 -0.09300
 N173 N 0.53688 0.02693 -0.13342
 N174 N 0.54997 0.04623 -0.18154
 N175 N 0.55262 0.02677 -0.08123
 N176 N 0.57689 0.04596 -0.09238
 N177 N 0.50888 -0.02821 -0.13374
 N178 N 0.50240 -0.04752 -0.18210
 Mn179 Mn 0.53887 -0.00087 -0.00029
 Mn180 Mn 0.49854 -0.00036 -0.13438
 Cl181 Cl 0.49853 -0.00043 -0.00024
 C182 C 0.51519 -0.05960 -0.15563
 C183 C 0.57479 0.05790 -0.15489
 C184 C 1.17319 0.50445 0.39437
 C185 C 1.16251 0.48821 0.33152
 C186 C 1.17223 0.47188 0.30937
 C187 C 1.19210 0.47127 0.35093
 C188 C 1.20235 0.48672 0.41640
 C189 C 1.19307 0.50390 0.43609
 C190 C 1.14097 0.48763 0.29129
 C191 C 1.12258 0.48677 0.25861
 C192 C 1.10073 0.48548 0.22156
 C193 C 1.08185 0.48426 0.19101
 H194 H 1.16602 0.51741 0.41154
 H195 H 1.16409 0.45922 0.26076
 H196 H 1.19845 0.45766 0.33379
 H197 H 1.20127 0.51708 0.48359
 C198 C 0.53209 0.68707 0.39431
 C199 C 0.51482 0.67528 0.33411
 C200 C 0.49740 0.68393 0.31420
 C201 C 0.49693 0.70401 0.35511
 C202 C 0.51367 0.71557 0.41765
 C203 C 0.53168 0.70711 0.43531
 C204 C 0.51489 0.65415 0.29347
 C205 C 0.51507 0.63632 0.26057
 C206 C 0.51542 0.61532 0.22321
 C207 C 0.51585 0.59731 0.19221
 H208 H 0.54597 0.68082 0.40949
 H209 H 0.48395 0.67496 0.26756
 H210 H 0.48264 0.70965 0.33953
 H211 H 0.54605 0.71644 0.47957
 C212 C 0.31064 -0.15299 0.39534
 C213 C 0.32171 -0.15845 0.33328
 C214 C 0.31233 -0.18446 0.31148
 C215 C 0.29225 -0.20497 0.35231
 C216 C 0.28141 -0.19984 0.41665
 C217 C 0.29059 -0.17341 0.43630
 C218 C 0.34291 -0.13735 0.29267
 C219 C 0.36084 -0.11952 0.25963
 C220 C 0.38202 -0.09847 0.22204
 C221 C 0.40024 -0.08034 0.19086
 H222 H 0.31747 -0.13289 0.41205
 H223 H 0.32075 -0.18893 0.26341
 H224 H 0.28606 -0.22488 0.33519
 H225 H 0.28182 -0.16837 0.48213
 C226 C 0.83582 0.53767 0.32087
 C227 C 0.84024 0.51652 0.32913
 C228 C 0.82467 0.49608 0.37861
 C229 C 0.80504 0.49697 0.42058
 C230 C 0.80096 0.51848 0.41405
 C231 C 0.81621 0.53860 0.36287
 C232 C 0.86126 0.51617 0.28863
 C233 C 0.87912 0.51603 0.25585
 C234 C 0.90032 0.51601 0.21872
 C235 C 0.91864 0.51610 0.18805
 H236 H 0.84776 0.55359 0.28275
 H237 H 0.82789 0.47961 0.38533
 H238 H 0.79325 0.48109 0.45895
 H239 H 0.81331 0.55529 0.35686
 C240 C 0.46658 0.30987 0.37955
 C241 C 0.48669 0.32542 0.32911
 C242 C 0.50800 0.32128 0.32009
 C243 C 0.50939 0.30192 0.36216
 C244 C 0.48957 0.28668 0.41416
 C245 C 0.46793 0.29052 0.42158
 C246 C 0.48575 0.34605 0.28826
 C247 C 0.48499 0.36356 0.25526
 C248 C 0.48416 0.38432 0.21802
 C249 C 0.48351 0.40226 0.18741
 H250 H 0.44998 0.31287 0.38686
 H251 H 0.52366 0.33319 0.28121
 H252 H 0.52618 0.29920 0.35543
 H253 H 0.45226 0.27871 0.46055
 C254 C 0.66985 0.17264 0.38504
 C255 C 0.67506 0.15751 0.33467
 C256 C 0.70086 0.16281 0.32461
 C257 C 0.72136 0.18301 0.36525
 C258 C 0.71620 0.19800 0.41673
 C259 C 0.69031 0.19284 0.42564
 C260 C 0.65385 0.13633 0.29422
 C261 C 0.63595 0.11847 0.26114
 C262 C 0.61483 0.09741 0.22335
 C263 C 0.59666 0.07928 0.19194
 H264 H 0.64997 0.16876 0.39313
 H265 H 0.70512 0.15123 0.28577
 H266 H 0.74118 0.18670 0.35750
 H267 H 0.68596 0.20442 0.46419
 C268 C 0.50450 0.17285 -0.39220
 C269 C 0.48718 0.16188 -0.33175
 C270 C 0.47081 0.17180 -0.31195
 C271 C 0.47142 0.19234 -0.35319
 C272 C 0.48822 0.20312 -0.41594
 C273 C 0.50517 0.19335 -0.43356
 C274 C 0.48603 0.14021 -0.29089
 C275 C 0.48507 0.12187 -0.25784
 C276 C 0.48400 0.10019 -0.22048
 C277 C 0.48313 0.08152 -0.18972
 H278 H 0.51756 0.16558 -0.40736
 H279 H 0.45732 0.16346 -0.26515
 H280 H 0.45788 0.19897 -0.33770
 H281 H 0.51953 0.20199 -0.47810
 C282 C 0.68896 0.53563 -0.39015
 C283 C 0.67776 0.51853 -0.32938
 C284 C 0.68699 0.50157 -0.30969
 C285 C 0.70708 0.50140 -0.35136
 C286 C 0.71806 0.51797 -0.41444
 C287 C 0.70901 0.53552 -0.43192
 C288 C 0.65656 0.51826 -0.28813
 C289 C 0.63864 0.51816 -0.25497
 C290 C 0.61746 0.51818 -0.21767
 C291 C 0.59922 0.51827 -0.18705
 H292 H 0.68225 0.54915 -0.40522
 H293 H 0.67845 0.48824 -0.26263
 H294 H 0.71319 0.48745 -0.33593
 H295 H 0.71788 0.54975 -0.47667
 C296 C 0.84681 0.31038 -0.39390
 C297 C 0.84123 0.32128 -0.33165
 C298 C 0.81518 0.31178 -0.31003
 C299 C 0.79473 0.29176 -0.35125
 C300 C 0.79997 0.28110 -0.41579
 C301 C 0.82645 0.29038 -0.43524
 C302 C 0.86229 0.34245 -0.29076
 C303 C 0.88010 0.36037 -0.25761
 C304 C 0.90117 0.38155 -0.22002
 C305 C 0.91933 0.39978 -0.18894
 H306 H 0.86695 0.31730 -0.41048
 H307 H 0.81063 0.32007 -0.26182
 H308 H 0.77477 0.28547 -0.33426
 H309 H 0.83157 0.28175 -0.48124
 C310 C 0.52991 -0.17005 -0.31384
 C311 C 0.51277 -0.16107 -0.33370
 C312 C 0.49545 -0.17266 -0.39391
 C313 C 0.49553 -0.19286 -0.43496
 C314 C 0.51326 -0.20168 -0.41727
 C315 C 0.53006 -0.19028 -0.35476
 C316 C 0.51316 -0.13970 -0.29313
 C317 C 0.51355 -0.12160 -0.26013
 C318 C 0.51408 -0.10020 -0.22261
 C319 C 0.51457 -0.08176 -0.19151
 H320 H 0.54342 -0.16121 -0.26725
 H321 H 0.48180 -0.16612 -0.40911
 H322 H 0.48116 -0.20202 -0.47929
 H323 H 0.54419 -0.19615 -0.33923
 C324 C 0.33263 0.50488 -0.39824
 C325 C 0.32729 0.48965 -0.33327
 C326 C 0.30143 0.47457 -0.30819
 C327 C 0.28091 0.47425 -0.34873
 C328 C 0.28582 0.48875 -0.41603
 C329 C 0.31215 0.50461 -0.43895
 C330 C 0.34825 0.48896 -0.29334
 C331 C 0.36575 0.48806 -0.26063
 C332 C 0.38628 0.48677 -0.22330
 C333 C 0.40394 0.48561 -0.19243
 H334 H 0.35264 0.51694 -0.41762
 H335 H 0.29706 0.46269 -0.25792
 H336 H 0.26105 0.46156 -0.32911
 H337 H 0.31708 0.51729 -0.48755
 C338 C 1.17312 0.66942 -0.38722
 C339 C 1.15783 0.67434 -0.33667
 C340 C 1.16293 0.70004 -0.32597
 C341 C 1.18309 0.72071 -0.36614
 C342 C 1.19824 0.71585 -0.41778
 C343 C 1.19329 0.69006 -0.42734
 C344 C 1.13671 0.65297 -0.29662
 C345 C 1.11890 0.63497 -0.26373
 C346 C 1.09788 0.61380 -0.22597
 C347 C 1.07979 0.59567 -0.19438
 H348 H 1.16940 0.64963 -0.39580
 H349 H 1.15122 0.70408 -0.28699
 H350 H 1.18661 0.74045 -0.35788
 H351 H 1.20499 0.68593 -0.46602
 C352 C 0.84697 0.53359 -0.39461
 C353 C 0.84099 0.51621 -0.33450
 C354 C 0.81482 0.49958 -0.31424
 C355 C 0.79464 0.50001 -0.35471
 C356 C 0.80029 0.51688 -0.41711
 C357 C 0.82688 0.53408 -0.43518
 C358 C 0.86181 0.51545 -0.29413
 C359 C 0.87954 0.51502 -0.26139
 C360 C 0.90061 0.51478 -0.22414
 C361 C 0.91884 0.51481 -0.19308
 H362 H 0.86720 0.54687 -0.41002
 H363 H 0.80997 0.48607 -0.26762
 H364 H 0.77457 0.48633 -0.33889
 H365 H 0.83232 0.54851 -0.47939
 C366 C 0.47165 0.30058 -0.31322
 C367 C 0.48823 0.32673 -0.33356
 C368 C 0.50542 0.33272 -0.39418
 C369 C 0.50578 0.31266 -0.43516
 C370 C 0.48863 0.28608 -0.41695
 C371 C 0.47195 0.28042 -0.35407
 C372 C 0.48740 0.34748 -0.29305
 C373 C 0.48670 0.36503 -0.26020
 C374 C 0.48587 0.38577 -0.22295
 C375 C 0.48514 0.40363 -0.19211
 H376 H 0.45825 0.29572 -0.26629
 H377 H 0.51863 0.35295 -0.40974
 H378 H 0.52005 0.31809 -0.47985
 H379 H 0.45827 0.26037 -0.33817
 C380 C 0.68976 0.15246 -0.38337
 C381 C 0.67485 0.15799 -0.33306
 C382 C 0.68048 0.18390 -0.32318
 C383 C 0.70081 0.20418 -0.36394
 C384 C 0.71559 0.19869 -0.41531
 C385 C 0.71009 0.17270 -0.42406
 C386 C 0.65360 0.13700 -0.29243
 C387 C 0.63572 0.11918 -0.25933
 C388 C 0.61465 0.09806 -0.22172
 C389 C 0.59654 0.07983 -0.19062
 H390 H 0.68562 0.13250 -0.39128
 H391 H 0.66906 0.18838 -0.28437
 H392 H 0.70480 0.22409 -0.35629
 H393 H 0.72151 0.16811 -0.46251
 C394 C 1.18408 0.49704 -0.30888
 C395 C 1.15828 0.47969 -0.33102
 C396 C 1.15348 0.46347 -0.39352
 C397 C 1.17441 0.46503 -0.43490
 C398 C 1.20060 0.48319 -0.41515
 C399 C 1.20507 0.49866 -0.35009
 C400 C 1.13676 0.47916 -0.29103
 C401 C 1.11877 0.47908 -0.25836
 C402 C 1.09770 0.47928 -0.22105
 C403 C 1.07965 0.47955 -0.18994
 H404 H 1.18801 0.50969 -0.26053
 H405 H 1.13355 0.44974 -0.41066
 H406 H 1.17007 0.45187 -0.48217
 H407 H 1.22479 0.51301 -0.33302
 C408 C 0.49454 0.67044 -0.37802
 C409 C 0.51528 0.67601 -0.32881
 C410 C 0.53588 0.70184 -0.32077
 C411 C 0.53595 0.72197 -0.36266
 C412 C 0.51551 0.71641 -0.41349
 C413 C 0.49458 0.69055 -0.41989
 C414 C 0.51574 0.65510 -0.28827
 C415 C 0.51619 0.63741 -0.25550
 C416 C 0.51676 0.61651 -0.21849
 C417 C 0.51727 0.59849 -0.18799
 H418 H 0.47848 0.65053 -0.38455
 H419 H 0.55202 0.70635 -0.28283
 H420 H 0.55221 0.74180 -0.35677
 H421 H 0.47845 0.68592 -0.45798
 C422 C 0.32787 -0.17514 -0.38098
 C423 C 0.32261 -0.16026 -0.32979
 C424 C 0.29682 -0.16557 -0.31954
 C425 C 0.27639 -0.18539 -0.36125
 C426 C 0.28163 -0.19994 -0.41411
 C427 C 0.30747 -0.19498 -0.42268
 C428 C 0.34379 -0.13903 -0.28957
 C429 C 0.36163 -0.12097 -0.25698
 C430 C 0.38264 -0.09956 -0.22010
 C431 C 0.40070 -0.08107 -0.18963
 H432 H 0.34775 -0.17122 -0.38923
 H433 H 0.29255 -0.15416 -0.28007
 H434 H 0.25659 -0.18899 -0.35369
 H435 H 0.31184 -0.20623 -0.46240
 C436 C 0.49189 -0.18713 0.32118
 C437 C 0.51283 -0.16149 0.32950
 C438 C 0.53340 -0.15639 0.37885
 C439 C 0.53287 -0.17676 0.42057
 C440 C 0.51160 -0.20243 0.41392
 C441 C 0.49132 -0.20755 0.36295
 C442 C 0.51300 -0.14025 0.28898
 C443 C 0.51327 -0.12219 0.25630
 C444 C 0.51372 -0.10075 0.21939
 C445 C 0.51423 -0.08222 0.18889
 H446 H 0.47588 -0.19128 0.28310
 H447 H 0.54974 -0.13664 0.38556
 H448 H 0.54888 -0.17249 0.45874
 H449 H 0.47481 -0.22723 0.35684
 C450 C 0.30863 0.46174 0.38773
 C451 C 0.32278 0.48065 0.33273
 C452 C 0.31700 0.50059 0.31824
 C453 C 0.29745 0.50191 0.35935
 C454 C 0.28361 0.48338 0.41581
 C455 C 0.28903 0.46301 0.42886
 C456 C 0.34373 0.48008 0.29258
 C457 C 0.36158 0.48003 0.25954
 C458 C 0.38279 0.48031 0.22164
 C459 C 0.40112 0.48072 0.19008
 H460 H 0.31293 0.44620 0.39931
 H461 H 0.32783 0.51532 0.27583
 H462 H 0.29350 0.51772 0.34839
 H463 H 0.27835 0.44838 0.47159
 C464 C 1.18447 0.68080 0.32152
 C465 C 1.15852 0.67509 0.33130
 C466 C 1.15289 0.68986 0.38185
 C467 C 1.17308 0.71012 0.42291
 C468 C 1.19911 0.71570 0.41429
 C469 C 1.20470 0.70107 0.36265
 C470 C 1.13756 0.65388 0.29042
 C471 C 1.11973 0.63601 0.25723
 C472 C 1.09858 0.61496 0.21964
 C473 C 1.08029 0.59684 0.18867
 H474 H 1.18903 0.66948 0.28252
 H475 H 1.13289 0.68565 0.38969
 H476 H 1.16841 0.72144 0.46157
 H477 H 1.22465 0.70512 0.35511
 C478 C 0.50801 0.18685 0.32210
 C479 C 0.48658 0.16152 0.33100
 C480 C 0.46637 0.15714 0.38086
 C481 C 0.46773 0.17793 0.42247
 C482 C 0.48948 0.20329 0.41517
 C483 C 0.50941 0.20767 0.36374
 C484 C 0.48560 0.13988 0.29052
 C485 C 0.48480 0.12157 0.25774
 C486 C 0.48386 0.09993 0.22063
 C487 C 0.48307 0.08129 0.18995
 H488 H 0.52374 0.19044 0.28364
 H489 H 0.44968 0.13763 0.38804
 H490 H 0.45199 0.17422 0.46102
 H491 H 0.52628 0.22710 0.35714
 C492 C 0.67146 0.49682 0.38372
 C493 C 0.67618 0.51710 0.33377
 C494 C 0.70174 0.53806 0.32414
 C495 C 0.72246 0.53895 0.36517
 C496 C 0.71774 0.51897 0.41672
 C497 C 0.69214 0.49766 0.42474
 C498 C 0.65471 0.51673 0.29391
 C499 C 0.63665 0.51660 0.26144
 C500 C 0.61546 0.51664 0.22436
 C501 C 0.59734 0.51684 0.19339
 H502 H 0.65176 0.48048 0.39147
 H503 H 0.70561 0.55385 0.28560
 H504 H 0.74206 0.55549 0.35804
 H505 H 0.68817 0.48188 0.46340
 C506 C 0.82460 0.32810 0.38313
 C507 C 0.83964 0.32314 0.33171
 C508 C 0.83453 0.29746 0.32075
 C509 C 0.81475 0.27685 0.36196
 C510 C 0.80004 0.28178 0.41503
 C511 C 0.80480 0.30751 0.42432
 C512 C 0.86080 0.34450 0.29189
 C513 C 0.87881 0.36245 0.25951
 C514 C 0.90016 0.38351 0.22266
 C515 C 0.91861 0.40154 0.19200
 H516 H 0.82836 0.34789 0.39193
 H517 H 0.84606 0.29342 0.28109
 H518 H 0.81131 0.25714 0.35384
 H519 H 0.79342 0.31165 0.46422
   
