data_POSCAR
  _audit_creation_date              2014-09-24
  _audit_creation_method            'ToBaCCo'
  _symmetry_space_group_name_H-M    'P1'
  _symmetry_Int_Tables_number       1
  _symmetry_cell_setting            triclinic
  loop_
  _symmetry_equiv_pos_as_xyz
 x,y,z
_cell_length_a 55.4816
_cell_length_b 54.5984
_cell_length_c 56.2595
_cell_angle_alpha 84.025200
_cell_angle_beta 85.609200
_cell_angle_gamma 94.438900
loop_
  _atom_site_label
  _atom_site_type_symbol
  _atom_site_fract_x
  _atom_site_fract_y
  _atom_site_fract_z
C1 C 0.27516 0.49593 0.99799
 C2 C 0.26388 0.51736 1.00210
 C3 C 0.27773 0.53846 1.00723
 C4 C 0.30309 0.53868 1.00811
 C5 C 0.31401 0.51686 1.00380
 C6 C 0.30028 0.49538 0.99919
 C7 C 0.23736 0.51768 1.00177
 C8 C 0.22324 0.52120 1.02272
 C9 C 0.19801 0.52309 1.02261
 C10 C 0.18754 0.52167 1.00064
 C11 C 0.20152 0.51824 0.97955
 C12 C 0.22642 0.51583 0.98033
 H13 H 0.26423 0.47953 0.99464
 H14 H 0.26828 0.55435 1.01125
 H15 H 0.23237 0.52336 1.03879
 H16 H 0.23747 0.51352 0.96411
 H17 H 0.33353 0.51665 1.00280
 H18 H 0.16814 0.52191 0.99987
 C19 C 0.72010 0.48291 -0.01259
 C20 C 0.73589 0.50212 -0.00635
 C21 C 0.72694 0.52477 -0.00207
 C22 C 0.70246 0.52849 -0.00451
 C23 C 0.68686 0.50902 -0.01053
 C24 C 0.69545 0.48616 -0.01454
 C25 C 0.76190 0.49871 -0.00487
 C26 C 0.77577 0.49204 -0.02474
 C27 C 0.80076 0.48895 -0.02391
 C28 C 0.81122 0.49233 -0.00222
 C29 C 0.79748 0.49894 0.01780
 C30 C 0.77283 0.50223 0.01627
 H31 H 0.72705 0.46546 -0.01592
 H32 H 0.73923 0.53972 0.00233
 H33 H 0.76663 0.48880 -0.04057
 H34 H 0.76210 0.50753 0.03152
 H35 H 0.66776 0.51151 -0.01152
 H36 H 0.83037 0.49069 -0.00084
 C37 C 0.02885 0.22510 0.51204
 C38 C 0.00773 0.23685 0.50778
 C39 C -0.01331 0.22283 0.50308
 C40 C -0.01349 0.19711 0.50278
 C41 C 0.00793 0.18570 0.50674
 C42 C 0.02915 0.19949 0.51142
 C43 C 0.00758 0.26383 0.50838
 C44 C 0.00085 0.27875 0.48854
 C45 C 0.00122 0.30469 0.48839
 C46 C 0.00785 0.31496 0.50926
 C47 C 0.01463 0.30023 0.52921
 C48 C 0.01458 0.27466 0.52857
 H49 H 0.04504 0.23594 0.51579
 H50 H -0.02972 0.23193 0.50038
 H51 H -0.00328 0.26990 0.47283
 H52 H 0.01994 0.26311 0.54380
 H53 H 0.00828 0.16604 0.50565
 H54 H 0.00668 0.33442 0.51078
 C55 C 1.01280 0.76746 0.49611
 C56 C 0.99238 0.75238 0.49153
 C57 C 0.97101 0.76297 0.48601
 C58 C 0.96983 0.78855 0.48502
 C59 C 0.99040 0.80351 0.48929
 C60 C 1.01236 0.79343 0.49449
 C61 C 0.99367 0.72556 0.49112
 C62 C 0.99622 0.71028 0.51227
 C63 C 0.99582 0.68434 0.51231
 C64 C 0.99390 0.67451 0.49017
 C65 C 0.99163 0.68971 0.46889
 C66 C 0.99133 0.71523 0.46958
 H67 H 1.02933 0.75881 0.49933
 H68 H 0.95538 0.75125 0.48229
 H69 H 0.99692 0.71878 0.52876
 H70 H 0.98913 0.72714 0.45337
 H71 H 0.98866 0.82307 0.48963
 H72 H 0.99533 0.65503 0.48898
 C73 C 0.49681 0.03301 0.22470
 C74 C 0.50480 0.01263 0.23828
 C75 C 0.51326 -0.00697 0.22664
 C76 C 0.51356 -0.00649 0.20161
 C77 C 0.50561 0.01411 0.18828
 C78 C 0.49729 0.03398 0.19963
 C79 C 0.50390 0.01157 0.26471
 C80 C 0.48220 0.01505 0.27801
 C81 C 0.48084 0.01295 0.30318
 C82 C 0.50170 0.00802 0.31487
 C83 C 0.52357 0.00458 0.30184
 C84 C 0.52449 0.00631 0.27671
 H85 H 0.49019 0.04810 0.23369
 H86 H 0.51941 -0.02270 0.23716
 H87 H 0.46615 0.01842 0.26876
 H88 H 0.54117 0.00339 0.26646
 H89 H 0.50582 0.01466 0.16896
 H90 H 0.50101 0.00720 0.33423
 C91 C 0.49361 0.02856 0.77051
 C92 C 0.50054 0.00690 0.76161
 C93 C 0.50760 -0.01241 0.77732
 C94 C 0.50792 -0.01041 0.80212
 C95 C 0.50104 0.01172 0.81057
 C96 C 0.49386 0.03111 0.79500
 C97 C 0.50074 0.00445 0.73575
 C98 C 0.52248 0.00101 0.72258
 C99 C 0.52289 -0.00162 0.69799
 C100 C 0.50106 -0.00135 0.68688
 C101 C 0.47908 0.00170 0.69994
 C102 C 0.47915 0.00504 0.72435
 H103 H 0.48811 0.04342 0.75834
 H104 H 0.51350 -0.02863 0.76981
 H105 H 0.53906 0.00041 0.73155
 H106 H 0.46231 0.00722 0.73470
 H107 H 0.50046 0.01387 0.82950
 H108 H 0.50120 -0.00293 0.66784
 C109 C 0.28571 0.02268 0.48373
 H110 H 0.28843 0.03499 0.49735
 C111 C 0.30217 0.02440 0.46344
 H112 H 0.31760 0.03806 0.46170
 C113 C 0.26330 -0.01137 0.47061
 H114 H 0.24854 -0.02573 0.47377
 C115 C 0.27921 -0.01019 0.44999
 H116 H 0.27611 -0.02340 0.43722
 N117 N 0.26699 0.00474 0.48712
 C118 C 0.21437 0.02585 0.54116
 H119 H 0.21483 0.01057 0.55495
 C120 C 0.19731 0.04306 0.54371
 H121 H 0.18501 0.04116 0.55981
 C122 C 0.22937 0.04622 0.50303
 H123 H 0.24139 0.04686 0.48688
 C124 C 0.21250 0.06382 0.50481
 H125 H 0.21174 0.07791 0.48991
 Zn126 Zn 0.24847 0.00053 0.51714
 N127 N 0.22973 0.02752 0.52094
 C128 C 0.27247 0.01341 0.55768
 N129 N 0.27070 -0.00269 0.54087
 C130 C 0.28640 -0.02045 0.53902
 C131 C 0.30494 -0.02242 0.55433
 C132 C 0.29076 0.01207 0.57341
 C133 C 0.20762 -0.02590 0.50491
 C134 C 0.18949 -0.04518 0.50579
 C135 C 0.21002 -0.06839 0.53588
 C136 C 0.22772 -0.04847 0.53459
 N137 N 0.22623 -0.02782 0.51916
 H138 H 0.26021 0.02779 0.55846
 H139 H 0.28482 -0.03274 0.52523
 H140 H 0.31730 -0.03664 0.55250
 H141 H 0.29233 0.02547 0.58623
 H142 H 0.20679 -0.00918 0.49296
 H143 H 0.17485 -0.04330 0.49423
 H144 H 0.21124 -0.08464 0.54837
 H145 H 0.24240 -0.04945 0.54610
 C146 C 0.19579 0.06202 0.52513
 C147 C 0.29933 0.00747 0.44646
 C148 C 0.19049 -0.06672 0.52149
 C149 C 0.30751 -0.00581 0.57161
 C150 C 0.71574 0.00018 0.51255
 H151 H 0.71707 0.01491 0.49795
 C152 C 0.69838 0.00000 0.53187
 H153 H 0.68628 0.01463 0.53189
 C154 C 0.72912 -0.03748 0.52941
 H155 H 0.74081 -0.05229 0.52816
 C156 C 0.71203 -0.03836 0.54913
 H157 H 0.71113 -0.05367 0.56313
 N158 N 0.73069 -0.01835 0.51166
 C159 C 0.79340 0.01194 0.46321
 H160 H 0.79294 -0.00107 0.44996
 C161 C 0.81275 0.03009 0.46205
 H162 H 0.82701 0.03118 0.44762
 C163 C 0.77571 0.02573 0.49858
 H164 H 0.76165 0.02350 0.51320
 C165 C 0.79464 0.04425 0.49802
 H166 H 0.79491 0.05614 0.51227
 Zn167 Zn 0.75204 -0.01743 0.48365
 N168 N 0.77551 0.00995 0.48140
 C169 C 0.73562 0.00426 0.44011
 N170 N 0.73267 -0.01529 0.45745
 C171 C 0.71422 -0.03325 0.45783
 C172 C 0.69771 -0.03196 0.44037
 C173 C 0.71941 0.00636 0.42230
 C174 C 0.78489 -0.04922 0.50158
 C175 C 0.79906 -0.06926 0.50254
 C176 C 0.78070 -0.08259 0.46796
 C177 C 0.76686 -0.06226 0.46766
 N178 N 0.76912 -0.04614 0.48440
 H179 H 0.75008 0.01863 0.44046
 H180 H 0.71212 -0.04842 0.47204
 H181 H 0.68319 -0.04651 0.44102
 H182 H 0.72159 0.02243 0.40908
 H183 H 0.78667 -0.03584 0.51437
 H184 H 0.81187 -0.07105 0.51607
 H185 H 0.77859 -0.09528 0.45456
 H186 H 0.75463 -0.05921 0.45382
 C187 C 0.81369 0.04633 0.47980
 C188 C 0.69626 -0.01952 0.55047
 C189 C 0.79715 -0.08624 0.48552
 C190 C 0.69995 -0.01176 0.42247
 C191 C 0.44845 0.21944 1.00743
 H192 H 0.43543 0.21901 0.99408
 C193 C 0.44632 0.20124 1.02701
 H194 H 0.43128 0.18711 1.02885
 C195 C 0.48433 0.23797 1.02070
 H196 H 0.49957 0.25179 1.01776
 C197 C 0.48292 0.22009 1.04052
 H198 H 0.49716 0.22046 1.05263
 N199 N 0.46733 0.23720 1.00454
 C200 C 0.44640 0.29544 0.95303
 H201 H 0.46153 0.29637 0.93954
 C202 C 0.42911 0.31261 0.95097
 H203 H 0.43085 0.32658 0.93565
 C204 C 0.42632 0.27662 0.98987
 H205 H 0.42573 0.26308 1.00537
 C206 C 0.40852 0.29335 0.98844
 H207 H 0.39435 0.29248 1.00293
 Zn208 Zn 0.47124 0.25837 0.97542
 N209 N 0.44488 0.27810 0.97238
 C210 C 0.45717 0.23688 0.93389
 N211 N 0.47348 0.23755 0.95072
 C212 C 0.49079 0.22129 0.95215
 C213 C 0.49196 0.20314 0.93654
 C214 C 0.45766 0.21894 0.91786
 C215 C 0.49969 0.29699 0.99059
 C216 C 0.51965 0.31414 0.99072
 C217 C 0.53914 0.29654 0.95737
 C218 C 0.51873 0.27974 0.95783
 N219 N 0.49962 0.28015 0.97441
 H220 H 0.44320 0.24962 0.93343
 H221 H 0.50330 0.22203 0.96596
 H222 H 0.50577 0.19024 0.93815
 H223 H 0.44403 0.21807 0.90513
 H224 H 0.48415 0.29704 1.00342
 H225 H 0.51945 0.32719 1.00396
 H226 H 0.55409 0.29614 0.94391
 H227 H 0.51810 0.26658 0.94477
 C228 C 0.41007 0.31195 0.96903
 C229 C 0.46395 0.20114 1.04365
 C230 C 0.53972 0.31408 0.97394
 C231 C 0.47495 0.20147 0.91941
 C232 C 0.50545 0.80099 -0.00280
 H233 H 0.49205 0.80039 0.01231
 C234 C 0.50421 0.81764 -0.02313
 H235 H 0.48984 0.82999 -0.02354
 C236 C 0.54075 0.78587 -0.02039
 H237 H 0.55508 0.77361 -0.01914
 C238 C 0.54034 0.80244 -0.04100
 H239 H 0.55420 0.80253 -0.05565
 N240 N 0.52326 0.78524 -0.00196
 C241 C 0.49104 0.72537 0.05076
 H242 H 0.50465 0.72523 0.06355
 C243 C 0.47119 0.70769 0.05418
 H244 H 0.46943 0.69431 0.06996
 C245 C 0.47731 0.74270 0.01438
 H246 H 0.48019 0.75579 -0.00154
 C247 C 0.45726 0.72523 0.01700
 H248 H 0.44491 0.72521 0.00300
 Zn249 Zn 0.52315 0.76301 0.02618
 N250 N 0.49377 0.74238 0.03111
 C251 C 0.50851 0.78194 0.06950
 N252 N 0.52690 0.78213 0.05204
 C253 C 0.54731 0.79774 0.05137
 C254 C 0.54973 0.81420 0.06864
 C255 C 0.51016 0.79807 0.08710
 C256 C 0.54535 0.72641 0.00533
 C257 C 0.56076 0.70776 0.00269
 C258 C 0.58162 0.72048 0.03612
 C259 C 0.56570 0.73901 0.03814
 N260 N 0.54790 0.74144 0.02291
 H261 H 0.49210 0.76999 0.06932
 H262 H 0.56148 0.79780 0.03703
 H263 H 0.56604 0.82662 0.06770
 H264 H 0.49493 0.79822 0.10031
 H265 H 0.53085 0.72859 -0.00633
 H266 H 0.55827 0.69594 -0.01139
 H267 H 0.59526 0.71823 0.04877
 H268 H 0.56706 0.75083 0.05233
 C269 C 0.45418 0.70716 0.03694
 C270 C 0.52175 0.81842 -0.04261
 C271 C 0.57890 0.70427 0.01848
 C272 C 0.53083 0.81473 0.08665
 C273 C 1.01281 0.48802 0.21316
 H274 H 0.99839 0.47365 0.21244
 C275 C 1.03399 0.48897 0.19793
 H276 H 1.03570 0.47530 0.18540
 C277 C 1.02744 0.52398 0.22960
 H278 H 1.02461 0.53786 0.24164
 C279 C 1.04890 0.52570 0.21459
 H280 H 1.06263 0.54070 0.21554
 N281 N 1.00996 0.50528 0.22867
 C282 C 0.95452 0.47004 0.28326
 H283 H 0.94098 0.48324 0.28200
 C284 C 0.95142 0.45009 0.30119
 H285 H 0.93520 0.44782 0.31348
 C286 C 0.99258 0.45759 0.26930
 H287 H 1.00901 0.46106 0.25744
 C288 C 0.99019 0.43737 0.28693
 H289 H 1.00486 0.42547 0.28834
 Zn290 Zn 0.97979 0.50339 0.24715
 N291 N 0.97497 0.47356 0.26793
 C292 C 0.93827 0.48679 0.22433
 N293 N 0.95578 0.50549 0.22515
 C294 C 0.95823 0.52570 0.20860
 C295 C 0.94293 0.52758 0.19008
 C296 C 0.92255 0.48790 0.20604
 C297 C 0.99506 0.52936 0.28396
 C298 C 0.99478 0.54692 0.30026
 C299 C 0.96123 0.56408 0.28134
 C300 C 0.96222 0.54619 0.26530
 N301 N 0.97901 0.52934 0.26688
 H302 H 0.93701 0.47062 0.23733
 H303 H 0.97252 0.54014 0.20952
 H304 H 0.94530 0.54379 0.17701
 H305 H 0.90925 0.47249 0.20518
 H306 H 1.00788 0.51541 0.28510
 H307 H 1.00739 0.54627 0.31402
 H308 H 0.94775 0.57735 0.27987
 H309 H 0.94927 0.54553 0.25193
 C310 C 0.96962 0.43369 0.30348
 C311 C 1.05233 0.50808 0.19842
 C312 C 0.97762 0.56452 0.29917
 C313 C 0.92505 0.50834 0.18837
 C314 C -0.00727 0.45541 0.79378
 H315 H 0.00670 0.44263 0.79401
 C316 C -0.02612 0.45262 0.81201
 H317 H -0.02676 0.43734 0.82602
 C318 C -0.02292 0.49121 0.77549
 H319 H -0.02117 0.50668 0.76167
 C320 C -0.04207 0.48915 0.79341
 H321 H -0.05491 0.50311 0.79309
 N322 N -0.00593 0.47454 0.77608
 C323 C 0.04429 0.45259 0.72026
 H324 H 0.05816 0.46784 0.71900
 C325 C 0.04598 0.43459 0.70448
 H326 H 0.06153 0.43588 0.69141
 C327 C 0.00686 0.43294 0.73848
 H328 H -0.00874 0.43283 0.75123
 C329 C 0.00776 0.41460 0.72294
 H330 H -0.00725 0.40052 0.72397
 Zn331 Zn 0.02222 0.47900 0.75435
 N332 N 0.02488 0.45157 0.73671
 C333 C 0.06640 0.46742 0.77425
 N334 N 0.04879 0.48341 0.77302
 C335 C 0.04821 0.50224 0.78699
 C336 C 0.06568 0.50548 0.80318
 C337 C 0.08429 0.46999 0.79026
 C338 C 0.00273 0.50542 0.71668
 C339 C 0.00122 0.52425 0.69827
 C340 C 0.03698 0.54576 0.71080
 C341 C 0.03782 0.52644 0.72904
 N342 N 0.02080 0.50680 0.73161
 H343 H 0.06617 0.45218 0.76344
 H344 H 0.03379 0.51446 0.78588
 H345 H 0.06481 0.52057 0.81420
 H346 H 0.09774 0.45668 0.79156
 H347 H -0.01037 0.48944 0.71897
 H348 H -0.01339 0.52280 0.68665
 H349 H 0.05097 0.56097 0.70864
 H350 H 0.05238 0.52691 0.74071
 C351 C 0.02731 0.41552 0.70534
 C352 C -0.04365 0.46986 0.81221
 C353 C 0.01863 0.54466 0.69496
 C354 C 0.08382 0.48901 0.80526
 C355 C 0.07420 0.19739 0.50449
 C356 C 0.09500 0.18477 0.50713
 C357 C 0.09359 0.16148 0.52058
 C358 C 0.07108 0.15159 0.53234
 C359 C 0.05031 0.16416 0.52963
 C360 C 0.05156 0.18700 0.51539
 C361 C 0.11580 0.14805 0.52194
 C362 C 0.11501 0.12328 0.52550
 C363 C 0.13658 0.10882 0.52615
 C364 C 0.13295 0.08372 0.53508
 C365 C 0.15223 0.06877 0.53514
 C366 C 0.17573 0.07851 0.52617
 C367 C 0.17951 0.10368 0.51733
 C368 C 0.16017 0.11871 0.51729
 H369 H 0.07569 0.21495 0.49335
 H370 H 0.11215 0.19292 0.49813
 H371 H 0.06938 0.13425 0.54377
 H372 H 0.03322 0.15602 0.53876
 H373 H 0.13305 0.15900 0.51900
 H374 H 0.09753 0.11267 0.52783
 H375 H 0.11500 0.07552 0.54183
 H376 H 0.14855 0.04936 0.54161
 H377 H 0.19743 0.11173 0.51035
 H378 H 0.16381 0.13779 0.50978
 C379 C 0.69885 0.56555 0.01828
 C380 C 0.68819 0.58739 0.02221
 C381 C 0.67135 0.59658 0.00691
 C382 C 0.66646 0.58433 -0.01321
 C383 C 0.67703 0.56259 -0.01710
 C384 C 0.69292 0.55265 -0.00113
 C385 C 0.65889 0.61869 0.01232
 C386 C 0.63612 0.62146 0.00670
 C387 C 0.62223 0.64280 0.01152
 C388 C 0.59706 0.64018 0.01005
 C389 C 0.58309 0.65999 0.01282
 C390 C 0.59395 0.68307 0.01698
 C391 C 0.61909 0.68569 0.01902
 C392 C 0.63317 0.66577 0.01621
 H393 H 0.71109 0.55833 0.03084
 H394 H 0.69250 0.59668 0.03765
 H395 H 0.65444 0.59148 -0.02602
 H396 H 0.67269 0.55343 -0.03260
 H397 H 0.66812 0.63190 0.02232
 H398 H 0.62653 0.60675 -0.00126
 H399 H 0.58813 0.62274 0.00651
 H400 H 0.56369 0.65723 0.01163
 H401 H 0.62795 0.70335 0.02203
 H402 H 0.65257 0.66872 0.01701
 C403 C 0.94811 -0.17825 0.46390
 C404 C 0.92720 -0.16617 0.46040
 C405 C 0.90493 -0.17540 0.47283
 C406 C 0.90371 -0.19783 0.48788
 C407 C 0.92467 -0.21002 0.49128
 C408 C 0.94717 -0.20002 0.47974
 C409 C 0.88376 -0.16069 0.47001
 C410 C 0.86532 -0.16128 0.48700
 C411 C 0.84640 -0.14353 0.48585
 C412 C 0.83484 -0.13780 0.50740
 C413 C 0.81841 -0.11965 0.50728
 C414 C 0.81302 -0.10695 0.48556
 C415 C 0.82371 -0.11351 0.46392
 C416 C 0.84014 -0.13167 0.46403
 H417 H 0.96514 -0.17039 0.45444
 H418 H 0.92858 -0.14912 0.44847
 H419 H 0.88671 -0.20594 0.49716
 H420 H 0.92344 -0.22683 0.50352
 H421 H 0.88490 -0.14701 0.45451
 H422 H 0.86538 -0.17333 0.50353
 H423 H 0.83907 -0.14688 0.52444
 H424 H 0.81009 -0.11538 0.52423
 H425 H 0.81996 -0.10408 0.44687
 H426 H 0.84800 -0.13617 0.44700
 C427 C 0.33159 0.46641 1.00996
 C428 C 0.34440 0.44602 1.00606
 C429 C 0.33821 0.43088 0.98844
 C430 C 0.31868 0.43640 0.97483
 C431 C 0.30596 0.45707 0.97856
 C432 C 0.31252 0.47250 0.99596
 C433 C 0.35356 0.41060 0.98394
 C434 C 0.34579 0.38985 0.97505
 C435 C 0.36201 0.36995 0.97176
 C436 C 0.35273 0.34514 0.97650
 C437 C 0.36820 0.32615 0.97522
 C438 C 0.39315 0.33170 0.96866
 C439 C 0.40218 0.35653 0.96287
 C440 C 0.38680 0.37545 0.96439
 H441 H 0.33676 0.47755 1.02388
 H442 H 0.35932 0.44212 1.01681
 H443 H 0.31378 0.42538 0.96074
 H444 H 0.29155 0.46141 0.96731
 H445 H 0.37187 0.41240 0.98942
 H446 H 0.32688 0.38654 0.97182
 H447 H 0.33363 0.34047 0.98195
 H448 H 0.36073 0.30715 0.97952
 H449 H 0.42133 0.36139 0.95788
 H450 H 0.39438 0.39440 0.95997
 C451 C 0.94814 0.19082 0.48208
 C452 C 0.92718 0.17631 0.47819
 C453 C 0.92186 0.15260 0.49054
 C454 C 0.93746 0.14396 0.50749
 C455 C 0.95826 0.15850 0.51151
 C456 C 0.96402 0.18200 0.49870
 C457 C 0.89965 0.13752 0.48598
 C458 C 0.89835 0.11276 0.48786
 C459 C 0.87630 0.09698 0.48416
 C460 C 0.87896 0.07300 0.47810
 C461 C 0.85865 0.05685 0.47601
 C462 C 0.83514 0.06424 0.48025
 C463 C 0.83242 0.08832 0.48614
 C464 C 0.85278 0.10457 0.48805
 H465 H 0.95210 0.20877 0.47180
 H466 H 0.91531 0.18346 0.46522
 H467 H 0.93343 0.12616 0.51800
 H468 H 0.96969 0.15143 0.52494
 H469 H 0.88454 0.14717 0.47991
 H470 H 0.91443 0.10345 0.49157
 H471 H 0.89686 0.06661 0.47525
 H472 H 0.86133 0.03828 0.47184
 H473 H 0.81451 0.09451 0.48948
 H474 H 0.84999 0.12270 0.49333
 C475 C 0.30987 0.58409 0.00768
 C476 C 0.32449 0.60506 0.01169
 C477 C 0.34675 0.60282 0.02155
 C478 C 0.35419 0.57906 0.02729
 C479 C 0.33970 0.55811 0.02326
 C480 C 0.31731 0.56009 0.01308
 C481 C 0.36245 0.62552 0.02406
 C482 C 0.37994 0.62614 0.03926
 C483 C 0.39786 0.64765 0.03965
 C484 C 0.42052 0.64334 0.04795
 C485 C 0.43859 0.66268 0.04743
 C486 C 0.43432 0.68695 0.03889
 C487 C 0.41131 0.69145 0.03136
 C488 C 0.39323 0.67202 0.03175
 H489 H 0.29337 0.58705 -0.00085
 H490 H 0.31850 0.62318 0.00675
 H491 H 0.37149 0.57639 0.03435
 H492 H 0.34606 0.54034 0.02880
 H493 H 0.35980 0.64195 0.01238
 H494 H 0.38236 0.60973 0.05107
 H495 H 0.42452 0.62477 0.05420
 H496 H 0.45617 0.65844 0.05304
 H497 H 0.40727 0.71001 0.02517
 H498 H 0.37572 0.67624 0.02599
 C499 C 0.03628 -0.16625 0.48638
 C500 C 0.05625 -0.15035 0.48980
 C501 C 0.07410 -0.15822 0.50442
 C502 C 0.07167 -0.18275 0.51539
 C503 C 0.05165 -0.19887 0.51186
 C504 C 0.03327 -0.19080 0.49758
 C505 C 0.09421 -0.13974 0.50797
 C506 C 0.11415 -0.14454 0.51911
 C507 C 0.13340 -0.12474 0.52158
 C508 C 0.15761 -0.13046 0.52219
 C509 C 0.17624 -0.11174 0.52282
 C510 C 0.17090 -0.08701 0.52291
 C511 C 0.14659 -0.08150 0.52353
 C512 C 0.12803 -0.10014 0.52306
 H513 H 0.02367 -0.15922 0.47415
 H514 H 0.05773 -0.13167 0.48086
 H515 H 0.08477 -0.18956 0.52714
 H516 H 0.05015 -0.21724 0.52141
 H517 H 0.09263 -0.12099 0.50021
 H518 H 0.11732 -0.16332 0.52536
 H519 H 0.16218 -0.14931 0.52142
 H520 H 0.19485 -0.11648 0.52241
 H521 H 0.14193 -0.06268 0.52430
 H522 H 0.10951 -0.09515 0.52384
 C523 C 0.66041 0.47047 0.96403
 C524 C 0.64289 0.45179 0.96036
 C525 C 0.64295 0.42787 0.97219
 C526 C 0.66133 0.42288 0.98751
 C527 C 0.67891 0.44161 0.99116
 C528 C 0.67837 0.46570 0.97979
 C529 C 0.62250 0.40946 0.96950
 C530 C 0.62278 0.38500 0.97510
 C531 C 0.60129 0.36735 0.97397
 C532 C 0.60468 0.34268 0.97070
 C533 C 0.58474 0.32542 0.97035
 C534 C 0.56097 0.33244 0.97363
 C535 C 0.55759 0.35711 0.97703
 C536 C 0.57748 0.37435 0.97729
 H537 H 0.65971 0.48878 0.95478
 H538 H 0.62895 0.45618 0.94851
 H539 H 0.66172 0.40491 0.99748
 H540 H 0.69233 0.43749 1.00366
 H541 H 0.60656 0.41657 0.96230
 H542 H 0.63933 0.37738 0.98013
 H543 H 0.62282 0.33674 0.96842
 H544 H 0.58791 0.30646 0.96802
 H545 H 0.53950 0.36311 0.97948
 H546 H 0.57407 0.39298 0.98065
 C547 C 0.49669 0.07985 1.18992
 C548 C 0.49059 0.10031 1.17522
 C549 C 0.47722 0.09714 1.15540
 C550 C 0.46901 0.07302 1.15127
 C551 C 0.47515 0.05258 1.16592
 C552 C 0.48940 0.05575 1.18514
 C553 C 0.47249 0.11928 1.13937
 C554 C 0.46918 0.11854 1.11604
 C555 C 0.46632 0.14044 1.09880
 C556 C 0.45890 0.13632 1.07614
 C557 C 0.45752 0.15604 1.05853
 C558 C 0.46360 0.18046 1.06311
 C559 C 0.47061 0.18472 1.08591
 C560 C 0.47201 0.16496 1.10358
 H561 H 0.50775 0.08286 1.20457
 H562 H 0.49692 0.11868 1.17895
 H563 H 0.45776 0.06978 1.13685
 H564 H 0.46873 0.03424 1.16222
 H565 H 0.47303 0.13668 1.14695
 H566 H 0.46923 0.10099 1.10872
 H567 H 0.45455 0.11768 1.07186
 H568 H 0.45247 0.15204 1.04104
 H569 H 0.47527 0.20335 1.09003
 H570 H 0.47822 0.16914 1.12055
 C571 C -0.01337 0.64370 0.53612
 C572 C -0.01219 0.62786 0.55700
 C573 C -0.00062 0.63590 0.57640
 C574 C 0.00933 0.66058 0.57466
 C575 C 0.00806 0.67661 0.55373
 C576 C -0.00308 0.66842 0.53385
 C577 C 0.00024 0.61777 0.59784
 C578 C 0.01483 0.62053 0.61552
 C579 C 0.01588 0.60090 0.63565
 C580 C 0.02224 0.60745 0.65797
 C581 C 0.02321 0.58927 0.67729
 C582 C 0.01802 0.56415 0.67456
 C583 C 0.01233 0.55760 0.65202
 C584 C 0.01136 0.57571 0.63279
 H585 H -0.02332 0.63652 0.52219
 H586 H -0.02039 0.60908 0.55793
 H587 H 0.01806 0.66777 0.58931
 H588 H 0.01676 0.69511 0.55304
 H589 H -0.01155 0.60090 0.59868
 H590 H 0.02624 0.63747 0.61561
 H591 H 0.02610 0.62670 0.66056
 H592 H 0.02762 0.59490 0.69445
 H593 H 0.00898 0.53838 0.64914
 H594 H 0.00752 0.56980 0.61560
 C595 C 0.52483 0.97454 -0.16029
 C596 C 0.53014 0.95516 -0.14384
 C597 C 0.52499 0.93057 -0.14805
 C598 C 0.51558 0.92565 -0.16970
 C599 C 0.51057 0.94501 -0.18639
 C600 C 0.51454 0.96991 -0.18178
 C601 C 0.52944 0.91064 -0.12941
 C602 C 0.51553 0.88919 -0.12536
 C603 C 0.51792 0.87056 -0.10478
 C604 C 0.49713 0.85591 -0.09441
 C605 C 0.49841 0.83892 -0.07429
 C606 C 0.52062 0.83593 -0.06439
 C607 C 0.54161 0.84999 -0.07524
 C608 C 0.54029 0.86720 -0.09523
 H609 H 0.52951 0.99317 -0.15624
 H610 H 0.53786 0.95943 -0.12748
 H611 H 0.51197 0.90683 -0.17375
 H612 H 0.50233 0.94016 -0.20227
 H613 H 0.54297 0.91481 -0.11719
 H614 H 0.50035 0.88613 -0.13602
 H615 H 0.47975 0.85799 -0.10159
 H616 H 0.48203 0.82803 -0.06649
 H617 H 0.55897 0.84802 -0.06797
 H618 H 0.55678 0.87772 -0.10320
 C619 C 1.00435 0.34527 0.46389
 C620 C 0.99868 0.36046 0.44396
 C621 C 0.98424 0.35111 0.42710
 C622 C 0.97514 0.32616 0.43077
 C623 C 0.98065 0.31087 0.45084
 C624 C 0.99540 0.32008 0.46792
 C625 C 0.97875 0.36821 0.40638
 C626 C 0.97332 0.36098 0.38522
 C627 C 0.97020 0.37898 0.36430
 C628 C 0.97710 0.37330 0.34113
 C629 C 0.97629 0.39077 0.32122
 C630 C 0.96821 0.41415 0.32410
 C631 C 0.96013 0.41932 0.34719
 C632 C 0.96105 0.40193 0.36707
 H633 H 1.01665 0.35340 0.47546
 H634 H 1.00604 0.37961 0.44149
 H635 H 0.96326 0.31850 0.41852
 H636 H 0.97233 0.29212 0.45323
 H637 H 0.98114 0.38779 0.40820
 H638 H 0.97331 0.34167 0.38240
 H639 H 0.98391 0.35562 0.33850
 H640 H 0.98228 0.38612 0.30360
 H641 H 0.95390 0.43718 0.35005
 H642 H 0.95480 0.40661 0.38459
 C643 C 0.53567 0.97633 0.16729
 C644 C 0.54174 0.95644 0.15496
 C645 C 0.53366 0.93208 0.16425
 C646 C 0.52028 0.92796 0.18683
 C647 C 0.51422 0.94788 0.19917
 C648 C 0.52149 0.97230 0.18935
 C649 C 0.53919 0.91181 0.14956
 C650 C 0.52640 0.88965 0.15210
 C651 C 0.52998 0.87049 0.13559
 C652 C 0.52129 0.84593 0.14346
 C653 C 0.52230 0.82765 0.12786
 C654 C 0.53185 0.83356 0.10390
 C655 C 0.54099 0.85805 0.09612
 C656 C 0.54001 0.87634 0.11173
 H657 H 0.54198 0.99490 0.15949
 H658 H 0.55232 0.96016 0.13778
 H659 H 0.51438 0.90950 0.19510
 H660 H 0.50326 0.94417 0.21613
 H661 H 0.55362 0.91596 0.13531
 H662 H 0.51207 0.88531 0.16640
 H663 H 0.51337 0.84093 0.16170
 H664 H 0.51533 0.80891 0.13448
 H665 H 0.54797 0.86334 0.07764
 H666 H 0.54616 0.89513 0.10462
 C667 C 0.03624 0.33413 0.54820
 C668 C 0.04130 0.34608 0.56823
 C669 C 0.03153 0.33618 0.59128
 C670 C 0.01742 0.31332 0.59400
 C671 C 0.01242 0.30129 0.57390
 C672 C 0.02140 0.31183 0.55076
 C673 C 0.03614 0.35074 0.61158
 C674 C 0.02247 0.34796 0.63259
 C675 C 0.02542 0.36507 0.65120
 C676 C 0.01751 0.35676 0.67519
 C677 C 0.01861 0.37290 0.69292
 C678 C 0.02742 0.39781 0.68697
 C679 C 0.03534 0.40608 0.66294
 C680 C 0.03431 0.38998 0.64527
 H681 H 0.04378 0.34246 0.53062
 H682 H 0.05244 0.36350 0.56560
 H683 H 0.01011 0.30461 0.61146
 H684 H 0.00096 0.28408 0.57640
 H685 H 0.05072 0.36535 0.60841
 H686 H 0.00812 0.33318 0.63632
 H687 H 0.01036 0.33774 0.68020
 H688 H 0.01250 0.36589 0.71128
 H689 H 0.04156 0.42530 0.65758
 H690 H 0.03963 0.39742 0.62688
 C691 C 0.49712 0.07731 0.79382
 C692 C 0.49282 0.09869 0.80465
 C693 C 0.47843 0.09718 0.82648
 C694 C 0.46700 0.07406 0.83641
 C695 C 0.47140 0.05274 0.82568
 C696 C 0.48699 0.05407 0.80464
 C697 C 0.47638 0.11972 0.83887
 C698 C 0.47316 0.11866 0.86286
 C699 C 0.47344 0.14052 0.87645
 C700 C 0.47742 0.13699 0.90084
 C701 C 0.47798 0.15677 0.91462
 C702 C 0.47443 0.18066 0.90439
 C703 C 0.47002 0.18425 0.88005
 C704 C 0.46952 0.16437 0.86617
 H705 H 0.50918 0.07881 0.77756
 H706 H 0.50156 0.11630 0.79647
 H707 H 0.45487 0.07229 0.85260
 H708 H 0.46288 0.03510 0.83402
 H709 H 0.47987 0.13742 0.82811
 H710 H 0.47199 0.10080 0.87343
 H711 H 0.48023 0.11880 0.90931
 H712 H 0.48086 0.15328 0.93345
 H713 H 0.46717 0.20246 0.87170
 H714 H 0.46577 0.16778 0.84759
 C715 C 1.00325 0.68980 0.42485
 C716 C 1.00256 0.67864 0.40361
 C717 C 0.98821 0.65643 0.40292
 C718 C 0.97454 0.64554 0.42400
 C719 C 0.97531 0.65664 0.44524
 C720 C 0.98983 0.67875 0.44596
 C721 C 0.98934 0.64424 0.38055
 C722 C 0.97175 0.62790 0.37527
 C723 C 0.97380 0.61366 0.35426
 C724 C 0.95253 0.60289 0.34624
 C725 C 0.95372 0.58756 0.32785
 C726 C 0.97627 0.58246 0.31723
 C727 C 0.99757 0.59357 0.32494
 C728 C 0.99638 0.60894 0.34329
 H729 H 1.01483 0.70668 0.42495
 H730 H 1.01347 0.68726 0.38771
 H731 H 0.96383 0.62806 0.42446
 H732 H 0.96467 0.64778 0.46121
 H733 H 1.00515 0.64922 0.36800
 H734 H 0.95494 0.62480 0.38667
 H735 H 0.93492 0.60600 0.35455
 H736 H 0.93701 0.57900 0.32254
 H737 H 1.01520 0.59009 0.31699
 H738 H 1.01323 0.61629 0.34932
 C739 C 1.16170 0.53789 0.04278
 C740 C 1.14676 0.53976 0.06351
 C741 C 1.15280 0.52973 0.08596
 C742 C 1.17482 0.51880 0.08749
 C743 C 1.18997 0.51710 0.06678
 C744 C 1.18347 0.52612 0.04387
 C745 C 1.13558 0.53091 0.10719
 C746 C 1.13350 0.51411 0.12657
 C747 C 1.11391 0.51344 0.14613
 C748 C 1.10536 0.49059 0.15892
 C749 C 1.08570 0.48890 0.17626
 C750 C 1.07437 0.51011 0.18139
 C751 C 1.08363 0.53316 0.16936
 C752 C 1.10322 0.53484 0.15194
 H753 H 1.15629 0.54640 0.02601
 H754 H 1.13013 0.54875 0.06190
 H755 H 1.18040 0.51145 0.10462
 H756 H 1.20615 0.50751 0.06888
 H757 H 1.12260 0.54469 0.10565
 H758 H 1.14487 0.49885 0.12707
 H759 H 1.11347 0.47388 0.15500
 H760 H 1.07923 0.47095 0.18555
 H761 H 1.07527 0.54983 0.17291
 H762 H 1.10983 0.55288 0.14300
 C763 C 0.56732 0.01027 0.68721
 C764 C 0.58875 0.00898 0.67278
 C765 C 0.58948 -0.00683 0.65463
 C766 C 0.56823 -0.02149 0.65132
 C767 C 0.54684 -0.02024 0.66580
 C768 C 0.54606 -0.00414 0.68372
 C769 C 0.61213 -0.00618 0.63861
 C770 C 0.61708 -0.02394 0.62462
 C771 C 0.63862 -0.02234 0.60697
 C772 C 0.64507 -0.04401 0.59761
 C773 C 0.66409 -0.04319 0.57969
 C774 C 0.67708 -0.02062 0.57060
 C775 C 0.67088 0.00104 0.58019
 C776 C 0.65181 0.00026 0.59806
 H777 H 0.56723 0.02313 0.70063
 H778 H 0.60474 0.02067 0.67557
 H779 H 0.56767 -0.03342 0.63717
 H780 H 0.53081 -0.03174 0.66279
 H781 H 0.62521 0.00954 0.63871
 H782 H 0.60505 -0.04069 0.62615
 H783 H 0.63509 -0.06162 0.60392
 H784 H 0.66812 -0.06017 0.57243
 H785 H 0.68065 0.01871 0.57371
 H786 H 0.64714 0.01753 0.60419
 C787 C -0.19110 0.49001 0.93210
 C788 C -0.17611 0.48569 0.91210
 C789 C -0.15446 0.47451 0.91487
 C790 C -0.14867 0.46656 0.93814
 C791 C -0.16355 0.47090 0.95816
 C792 C -0.18488 0.48318 0.95566
 C793 C -0.13843 0.47154 0.89317
 C794 C -0.11435 0.47051 0.89349
 C795 C -0.09740 0.46906 0.87201
 C796 C -0.07375 0.46290 0.87563
 C797 C -0.05654 0.46264 0.85624
 C798 C -0.06251 0.46866 0.83264
 C799 C -0.08624 0.47459 0.82890
 C800 C -0.10351 0.47484 0.84834
 H801 H -0.20680 0.50000 0.92878
 H802 H -0.18110 0.49183 0.89434
 H803 H -0.13281 0.45667 0.94105
 H804 H -0.15849 0.46377 0.97557
 H805 H -0.14681 0.47130 0.87647
 H806 H -0.10624 0.47123 0.91032
 H807 H -0.06844 0.45856 0.89363
 H808 H -0.03832 0.45844 0.85980
 H809 H -0.09142 0.47919 0.81092
 H810 H -0.12128 0.48022 0.84460
 C811 C 0.44206 0.03317 0.31048
 C812 C 0.42035 0.03513 0.32430
 C813 C 0.41355 0.01882 0.34514
 C814 C 0.42917 0.00076 0.35212
 C815 C 0.45080 -0.00118 0.33835
 C816 C 0.45756 0.01503 0.31743
 C817 C 0.39079 0.02177 0.35983
 C818 C 0.37862 0.00298 0.37425
 C819 C 0.35702 0.00524 0.39093
 C820 C 0.34423 -0.01659 0.40220
 C821 C 0.32514 -0.01579 0.41967
 C822 C 0.31825 0.00694 0.42634
 C823 C 0.33063 0.02888 0.41467
 C824 C 0.34986 0.02809 0.39721
 H825 H 0.44693 0.04612 0.29460
 H826 H 0.40881 0.04941 0.31871
 H827 H 0.42509 -0.01161 0.36848
 H828 H 0.46225 -0.01548 0.34409
 H829 H 0.38387 0.03979 0.35819
 H830 H 0.38471 -0.01535 0.37395
 H831 H 0.34943 -0.03445 0.39791
 H832 H 0.31638 -0.03308 0.42857
 H833 H 0.32566 0.04670 0.41927
 H834 H 0.35937 0.04540 0.38936
 C835 C 0.17321 0.53477 0.95062
 C836 C 0.16062 0.53321 0.93025
 C837 C 0.16426 0.51440 0.91548
 C838 C 0.18138 0.49743 0.92128
 C839 C 0.19412 0.49910 0.94169
 C840 C 0.18979 0.51751 0.95679
 C841 C 0.14853 0.51245 0.89544
 C842 C 0.15162 0.49776 0.87795
 C843 C 0.13411 0.49551 0.85948
 C844 C 0.14211 0.48941 0.83673
 C845 C 0.12588 0.48727 0.81902
 C846 C 0.10127 0.49103 0.82384
 C847 C 0.09320 0.49648 0.84681
 C848 C 0.10935 0.49859 0.86445
 H849 H 0.16977 0.54936 0.96177
 H850 H 0.14760 0.54654 0.92626
 H851 H 0.18450 0.48238 0.91071
 H852 H 0.20668 0.48545 0.94618
 H853 H 0.13355 0.52404 0.89515
 H854 H 0.16755 0.48762 0.87650
 H855 H 0.16102 0.48662 0.83256
 H856 H 0.13263 0.48303 0.80148
 H857 H 0.07422 0.49871 0.85133
 H858 H 0.10223 0.50217 0.88208
 C859 C 0.54283 -0.01755 0.33572
 C860 C 0.56285 -0.02187 0.34864
 C861 C 0.58576 -0.00967 0.34098
 C862 C 0.58838 0.00637 0.31946
 C863 C 0.56828 0.01065 0.30648
 C864 C 0.54523 -0.00098 0.31468
 C865 C 0.60593 -0.01409 0.35637
 C866 C 0.62718 -0.00018 0.35446
 C867 C 0.64565 -0.00389 0.37190
 C868 C 0.67021 0.00296 0.36455
 C869 C 0.68794 0.00025 0.38083
 C870 C 0.68139 -0.00914 0.40488
 C871 C 0.65674 -0.01558 0.41228
 C872 C 0.63908 -0.01295 0.39604
 H873 H 0.52539 -0.02716 0.34224
 H874 H 0.56029 -0.03450 0.36498
 H875 H 0.60572 0.01576 0.31249
 H876 H 0.57066 0.02353 0.29031
 H877 H 0.60260 -0.02918 0.37061
 H878 H 0.63142 0.01451 0.33999
 H879 H 0.67570 0.01026 0.34612
 H880 H 0.70678 0.00530 0.37454
 H881 H 0.65098 -0.02214 0.43083
 H882 H 0.62027 -0.01740 0.40268
 C883 C 0.79767 0.49215 0.06264
 C884 C 0.80937 0.49415 0.08361
 C885 C 0.83274 0.50628 0.08263
 C886 C 0.84372 0.51743 0.06032
 C887 C 0.83206 0.51538 0.03940
 C888 C 0.80910 0.50238 0.04027
 C889 C 0.84506 0.50702 0.10509
 C890 C 0.86931 0.50890 0.10531
 C891 C 0.88250 0.50921 0.12727
 C892 C 0.90722 0.51754 0.12458
 C893 C 0.92085 0.51752 0.14442
 C894 C 0.91012 0.50900 0.16752
 C895 C 0.88538 0.50056 0.17032
 C896 C 0.87167 0.50063 0.15042
 H897 H 0.77998 0.48200 0.06383
 H898 H 0.80039 0.48567 0.10057
 H899 H 0.86122 0.52793 0.05890
 H900 H 0.84100 0.52405 0.02248
 H901 H 0.83365 0.50517 0.12174
 H902 H 0.88042 0.51024 0.08848
 H903 H 0.91612 0.52402 0.10698
 H904 H 0.93998 0.52367 0.14156
 H905 H 0.87660 0.49392 0.18792
 H906 H 0.85285 0.49348 0.15332
 C907 C 0.43908 0.01815 0.69179
 C908 C 0.41793 0.01777 0.67973
 C909 C 0.41346 0.00027 0.66363
 C910 C 0.43018 -0.01752 0.66056
 C911 C 0.45133 -0.01705 0.67249
 C912 C 0.45615 0.00095 0.68800
 C913 C 0.39124 0.00093 0.65055
 C914 C 0.38960 -0.00810 0.62936
 C915 C 0.36806 -0.00712 0.61530
 C916 C 0.37102 -0.01082 0.59098
 C917 C 0.35139 -0.01042 0.57689
 C918 C 0.32821 -0.00644 0.58684
 C919 C 0.32511 -0.00287 0.61123
 C920 C 0.34479 -0.00332 0.62539
 H921 H 0.44235 0.03223 0.70365
 H922 H 0.40523 0.03149 0.68264
 H923 H 0.42695 -0.03202 0.64919
 H924 H 0.46386 -0.03095 0.66975
 H925 H 0.37654 0.01045 0.65799
 H926 H 0.40527 -0.01555 0.62108
 H927 H 0.38868 -0.01386 0.58274
 H928 H 0.35446 -0.01287 0.55808
 H929 H 0.30737 -0.00014 0.61946
 H930 H 0.34151 -0.00113 0.64420
   
