data_POSCAR
  _audit_creation_date              2014-09-24
  _audit_creation_method            'ToBaCCo'
  _symmetry_space_group_name_H-M    'P1'
  _symmetry_Int_Tables_number       1
  _symmetry_cell_setting            triclinic
  loop_
  _symmetry_equiv_pos_as_xyz
 x,y,z
_cell_length_a 28.3991
_cell_length_b 28.3865
_cell_length_c 31.0382
_cell_angle_alpha 90.094300
_cell_angle_beta 89.953000
_cell_angle_gamma 120.046100
loop_
  _atom_site_label
  _atom_site_type_symbol
  _atom_site_fract_x
  _atom_site_fract_y
  _atom_site_fract_z
O1 O 0.05210 0.56641 1.29145
 O2 O -0.05410 0.51330 1.20790
 O3 O -0.05358 0.51208 1.29181
 O4 O 0.05185 0.56629 1.20768
 O5 O 0.05261 0.48897 1.20729
 O6 O -0.05374 0.43431 1.29046
 O7 O -0.05297 0.43626 1.20655
 O8 O 0.05209 0.48870 1.29132
 Cu9 Cu -0.00102 0.54726 1.24976
 Cu10 Cu -0.00043 0.45431 1.24885
 C11 C 0.07010 0.53659 1.30589
 C12 C -0.07163 0.46581 1.19262
 C13 C -0.07168 0.46390 1.30557
 C14 C 0.07027 0.53684 1.19306
 O15 O 0.43281 0.48687 1.29265
 O16 O 0.48611 0.43369 1.20912
 O17 O 0.48688 0.43514 1.29307
 O18 O 0.43312 0.48659 1.20883
 O19 O 0.51045 0.56473 1.20879
 O20 O 0.56469 0.51279 1.29210
 O21 O 0.56330 0.51195 1.20821
 O22 O 0.51051 0.56446 1.29296
 Cu23 Cu 0.45200 0.45276 1.25095
 Cu24 Cu 0.54496 0.54632 1.25050
 C25 C 0.46253 0.53469 1.30740
 C26 C 0.53369 0.46374 1.19417
 C27 C 0.53503 0.46514 1.30698
 C28 C 0.46266 0.53450 1.19433
 O29 O 0.51333 0.94683 1.29321
 O30 O 0.56687 1.05331 1.20987
 O31 O 0.56489 1.05268 1.29388
 O32 O 0.51360 0.94734 1.20940
 O33 O 0.43553 0.94651 1.20924
 O34 O 0.48751 1.05306 1.29254
 O35 O 0.48868 1.05220 1.20865
 O36 O 0.43588 0.94708 1.29343
 Cu37 Cu 0.54747 1.00012 1.25165
 Cu38 Cu 0.45409 0.99961 1.25095
 C39 C 0.46555 0.92881 1.30790
 C40 C 0.53689 1.07076 1.19475
 C41 C 0.53504 1.07106 1.30774
 C42 C 0.46574 0.92894 1.19480
 O43 O 0.94767 0.51243 0.70799
 O44 O 1.05413 0.56451 0.79125
 O45 O 1.05356 0.56419 0.70706
 O46 O 0.94845 0.51146 0.79192
 O47 O 0.94744 0.43328 0.79074
 O48 O 1.05374 0.48667 0.70711
 O49 O 1.05340 0.48645 0.79094
 O50 O 0.94788 0.43486 0.70673
 Cu51 Cu 1.00105 0.54597 0.74959
 Cu52 Cu 1.00054 0.45251 0.74881
 C53 C 0.92969 0.46482 0.69294
 C54 C 1.07177 0.53434 0.80557
 C55 C 1.07177 0.53448 0.69247
 C56 C 0.92995 0.46328 0.80587
 O57 O 0.48762 0.43448 0.70867
 O58 O 0.43610 0.48914 0.79210
 O59 O 0.43620 0.48886 0.70803
 O60 O 0.48887 0.43634 0.79255
 O61 O 0.56710 0.51355 0.79149
 O62 O 0.51399 0.56654 0.70798
 O63 O 0.51420 0.56652 0.79178
 O64 O 0.56535 0.51221 0.70755
 Cu65 Cu 0.45435 0.45445 0.75037
 Cu66 Cu 0.54800 0.54745 0.74965
 C67 C 0.53521 0.46404 0.69367
 C68 C 0.46635 0.53704 0.80640
 C69 C 0.46612 0.53673 0.69353
 C70 C 0.53706 0.46603 0.80651
 O71 O 0.56516 0.05227 0.70807
 O72 O 0.51092 -0.05390 0.79138
 O73 O 0.51076 -0.05359 0.70722
 O74 O 0.56362 0.05177 0.79197
 O75 O 0.48648 0.05278 0.79106
 O76 O 0.43312 -0.05371 0.70756
 O77 O 0.43364 -0.05314 0.79135
 O78 O 0.48741 0.05209 0.70711
 Cu79 Cu 0.54535 -0.00097 0.74967
 Cu80 Cu 0.45242 -0.00042 0.74924
 C81 C 0.53552 0.07020 0.69316
 C82 C 0.46316 -0.07146 0.80585
 C83 C 0.46279 -0.07178 0.69277
 C84 C 0.53402 0.07030 0.80603
 O85 O 0.41323 0.66960 0.95078
 O86 O 0.41554 0.76135 0.96403
 C87 C 0.38171 0.76886 0.94258
 O88 O 0.33122 0.74396 0.95070
 O89 O 0.23944 0.65450 0.96370
 C90 C 0.23193 0.61307 0.94224
 O91 O 0.25682 0.58751 0.95041
 O92 O 0.34617 0.58521 0.96393
 C93 C 0.38766 0.61909 0.94260
 O94 O 0.41524 0.65455 1.03646
 O95 O 0.41298 0.74401 1.04971
 C96 C 0.38739 0.76889 1.05787
 O97 O 0.34602 0.76132 1.03641
 O98 O 0.25652 0.66953 1.04941
 C99 C 0.23151 0.61900 1.05742
 O100 O 0.23914 0.58516 1.03601
 O101 O 0.33082 0.58750 1.04954
 C102 C 0.38129 0.61309 1.05780
 Cr103 Cr 0.41124 0.70588 1.00024
 Cr104 Cr 0.29481 0.70583 1.00006
 Cr105 Cr 0.29474 0.58935 0.99998
 O106 O 0.33360 0.66702 1.00010
 O107 O 0.58516 0.34536 0.96387
 O108 O 0.58731 0.25567 0.95120
 C109 C 0.61318 0.23113 0.94270
 O110 O 0.65502 0.23923 0.96373
 O111 O 0.74475 0.33111 0.95110
 C112 C 0.76928 0.38155 0.94261
 O113 O 0.76121 0.41535 0.96365
 O114 O 0.66935 0.41304 0.95113
 C115 C 0.61891 0.38714 0.94277
 O116 O 0.58746 0.33126 1.04970
 O117 O 0.58514 0.23933 1.03706
 C118 C 0.61889 0.23128 1.05810
 O119 O 0.66931 0.25581 1.04962
 O120 O 0.76117 0.34549 1.03699
 C121 C 0.76934 0.38745 1.05797
 O122 O 0.74488 0.41337 1.04951
 O123 O 0.65518 0.41549 1.03702
 C124 C 0.61332 0.38175 1.05808
 Cr125 Cr 0.58937 0.29445 1.00045
 Cr126 Cr 0.70601 0.29446 1.00036
 Cr127 Cr 0.70610 0.41121 1.00033
 O128 O 0.66717 0.33338 1.00039
 O129 O 0.65408 0.41457 0.53606
 O130 O 0.74354 0.41231 0.54909
 C131 C 0.76835 0.38663 0.55715
 O132 O 0.76056 0.34511 0.53572
 O133 O 0.66876 0.25559 0.54888
 C134 C 0.61827 0.23080 0.55711
 O135 O 0.58447 0.23848 0.53582
 O136 O 0.58682 0.33026 0.54916
 C137 C 0.61259 0.38078 0.55740
 O138 O 0.66869 0.41232 0.45038
 O139 O 0.76043 0.41460 0.46339
 C140 C 0.76806 0.38082 0.44192
 O141 O 0.74331 0.33030 0.45005
 O142 O 0.65389 0.23850 0.46319
 C143 C 0.61231 0.23067 0.44194
 O144 O 0.58660 0.25544 0.45019
 O145 O 0.58441 0.34501 0.46351
 C146 C 0.61817 0.38661 0.44226
 Cr147 Cr 0.70517 0.41042 0.49972
 Cr148 Cr 0.70512 0.29389 0.49946
 Cr149 Cr 0.58861 0.29382 0.49967
 O150 O 0.66629 0.33270 0.49961
 O151 O 0.34488 0.58486 0.53664
 O152 O 0.25514 0.58693 0.54891
 C153 C 0.23098 0.61310 0.55770
 O154 O 0.23947 0.65530 0.53705
 O155 O 0.33137 0.74517 0.54903
 C156 C 0.38172 0.76929 0.55774
 O157 O 0.41539 0.76081 0.53696
 O158 O 0.41323 0.66895 0.54876
 C159 C 0.38704 0.61857 0.55739
 O160 O 0.33118 0.58695 0.45075
 O161 O 0.23933 0.58480 0.46301
 C162 C 0.23089 0.61849 0.44232
 O163 O 0.25508 0.66887 0.45105
 O164 O 0.34482 0.76082 0.46306
 C165 C 0.38702 0.76938 0.44233
 O166 O 0.41322 0.74525 0.45096
 O167 O 0.41525 0.65541 0.46274
 C168 C 0.38153 0.61317 0.44202
 Cr169 Cr 0.29422 0.58906 0.49983
 Cr170 Cr 0.29426 0.70596 0.50004
 Cr171 Cr 0.41111 0.70602 0.49985
 O172 O 0.33320 0.66702 0.49991
 C173 C 0.47534 0.60641 0.35811
 C174 C 0.44235 0.55447 0.33991
 C175 C 0.38876 0.52251 0.35536
 C176 C 0.36892 0.54179 0.38809
 C177 C 0.40219 0.59331 0.40657
 C178 C 0.45558 0.62543 0.39111
 H179 H 0.51676 0.63240 0.34720
 H180 H 0.36189 0.48239 0.34227
 H181 H 0.32761 0.51596 0.39926
 H182 H 0.48221 0.66544 0.40448
 C183 C 0.47761 0.86722 0.35581
 C184 C 0.44573 0.88889 0.34039
 C185 C 0.39385 0.87001 0.35858
 C186 C 0.37483 0.83126 0.39155
 C187 C 0.40688 0.80994 0.40696
 C188 C 0.45834 0.82814 0.38849
 H189 H 0.51769 0.88042 0.34272
 H190 H 0.36792 0.88547 0.34770
 H191 H 0.33487 0.81792 0.40492
 H192 H 0.48412 0.81263 0.39961
 C193 C 0.12819 0.52365 0.36000
 C194 C 0.11204 0.55776 0.34016
 C195 C 0.13585 0.61220 0.35378
 C196 C 0.17471 0.63202 0.38664
 C197 C 0.19046 0.59777 0.40686
 C198 C 0.16684 0.54338 0.39305
 H199 H 0.11061 0.48150 0.35027
 H200 H 0.12439 0.63959 0.33908
 H201 H 0.19206 0.67412 0.39644
 H202 H 0.17817 0.51593 0.40779
 C203 C 0.52260 0.39452 0.36116
 C204 C 0.55662 0.44460 0.34097
 C205 C 0.61130 0.47513 0.35390
 C206 C 0.63145 0.45611 0.38648
 C207 C 0.59727 0.40630 0.40704
 C208 C 0.54265 0.37565 0.39389
 H209 H 0.48028 0.37003 0.35194
 H210 H 0.63858 0.51382 0.33890
 H211 H 0.67371 0.48074 0.39581
 H212 H 0.51526 0.33700 0.40892
 C213 C 0.52251 0.13298 0.35503
 C214 C 0.55446 0.11110 0.34012
 C215 C 0.60608 0.12986 0.35870
 C216 C 0.62480 0.16869 0.39160
 C217 C 0.59269 0.19018 0.40656
 C218 C 0.54151 0.17218 0.38769
 H219 H 0.48262 0.11984 0.34159
 H220 H 0.63205 0.11424 0.34819
 H221 H 0.66458 0.18194 0.40529
 H222 H 0.51575 0.18790 0.39850
 C223 C 0.86244 0.38761 0.35265
 C224 C 0.88640 0.44226 0.33972
 C225 C 0.87051 0.47626 0.36020
 C226 C 0.83198 0.45624 0.39325
 C227 C 0.80825 0.40167 0.40642
 C228 C 0.82366 0.36748 0.38555
 H229 H 0.87374 0.36034 0.33743
 H230 H 0.88822 0.51857 0.35099
 H231 H 0.82084 0.48362 0.40850
 H232 H 0.80616 0.32524 0.39489
 C233 C 0.60462 0.47686 1.13974
 C234 C 0.55459 0.44254 1.15995
 C235 C 0.52440 0.38788 1.14678
 C236 C 0.54366 0.36806 1.11402
 C237 C 0.59343 0.40251 1.09346
 C238 C 0.62375 0.45712 1.10681
 H239 H 0.62886 0.51918 1.14911
 H240 H 0.48575 0.36034 1.16174
 H241 H 0.51924 0.32578 1.10457
 H242 H 0.66233 0.48475 1.09179
 C243 C 0.87025 0.39452 1.14141
 C244 C 0.88855 0.44611 1.16008
 C245 C 0.86642 0.47775 1.14506
 C246 C 0.82743 0.45850 1.11229
 C247 C 0.80982 0.40734 1.09337
 C248 C 0.83159 0.37553 1.10839
 H249 H 0.88608 0.36878 1.15199
 H250 H 0.87920 0.51760 1.15853
 H251 H 0.81152 0.48406 1.10146
 H252 H 0.81869 0.33579 1.09467
 C253 C 0.52391 0.12827 1.14008
 C254 C 0.55816 0.11265 1.16043
 C255 C 0.61275 0.13692 1.14725
 C256 C 0.63258 0.17570 1.11432
 C257 C 0.59818 0.19091 1.09361
 C258 C 0.54364 0.16683 1.10700
 H259 H 0.48164 0.11035 1.14945
 H260 H 0.64024 0.12587 1.16232
 H261 H 0.67480 0.19342 1.10486
 H262 H 0.51606 0.17773 1.09189
 C263 C 0.47572 0.60525 1.14006
 C264 C 0.44147 0.55508 1.16007
 C265 C 0.38703 0.52448 1.14660
 C266 C 0.36734 0.54350 1.11368
 C267 C 0.40178 0.59339 1.09329
 C268 C 0.45616 0.62411 1.10696
 H269 H 0.51789 0.62978 1.14967
 H270 H 0.35957 0.48572 1.16144
 H271 H 0.32524 0.51882 1.10394
 H272 H 0.48371 0.66282 1.09209
 C273 C 0.13630 0.61276 1.14577
 C274 C 0.11229 0.55823 1.15898
 C275 C 0.12832 0.52407 1.13894
 C276 C 0.16710 0.54384 1.10607
 C277 C 0.19096 0.59831 1.09267
 C278 C 0.17536 0.63265 1.11307
 H279 H 0.12489 0.64013 1.16065
 H280 H 0.11055 0.48183 1.14837
 H281 H 0.17837 0.51637 1.09117
 H282 H 0.19293 0.67482 1.10351
 C283 C 0.47576 0.86327 1.14700
 C284 C 0.44520 0.88714 1.16044
 C285 C 0.39514 0.87128 1.14028
 C286 C 0.37634 0.83285 1.10707
 C287 C 0.40702 0.80915 1.09344
 C288 C 0.45681 0.82457 1.11397
 H289 H 0.51444 0.87455 1.16195
 H290 H 0.37064 0.88895 1.14987
 H291 H 0.33771 0.82172 1.09208
 H292 H 0.48146 0.80712 1.10427
 C293 C 0.52476 0.38770 0.64645
 C294 C 0.55551 0.44235 0.65951
 C295 C 0.60552 0.47630 0.63919
 C296 C 0.62408 0.45623 0.60619
 C297 C 0.59319 0.40166 0.59290
 C298 C 0.54348 0.36752 0.61360
 H299 H 0.48611 0.36047 0.66156
 H300 H 0.63016 0.51861 0.64850
 H301 H 0.66268 0.48358 0.59106
 H302 H 0.51870 0.32528 0.60415
 C303 C 0.52300 0.12806 0.63877
 C304 C 0.55704 0.11214 0.65903
 C305 C 0.61165 0.13616 0.64596
 C306 C 0.63170 0.17503 0.61315
 C307 C 0.59748 0.19049 0.59251
 C308 C 0.54294 0.16668 0.60581
 H309 H 0.48073 0.11030 0.64810
 H310 H 0.63895 0.12485 0.66101
 H311 H 0.67390 0.19258 0.60370
 H312 H 0.51554 0.17783 0.59073
 C313 C 0.87157 0.39431 0.63846
 C314 C 0.88758 0.44431 0.65887
 C315 C 0.86346 0.47485 0.64601
 C316 C 0.82441 0.45594 0.61329
 C317 C 0.80885 0.40622 0.59250
 C318 C 0.83277 0.37555 0.60558
 H319 H 0.88938 0.36983 0.64761
 H320 H 0.87483 0.51349 0.66117
 H321 H 0.80680 0.48057 0.60402
 H322 H 0.82156 0.33696 0.59038
 C323 C 0.47597 0.61233 0.64582
 C324 C 0.44532 0.55789 0.65934
 C325 C 0.39498 0.52378 0.63946
 C326 C 0.37602 0.54349 0.60649
 C327 C 0.40681 0.59788 0.59279
 C328 C 0.45688 0.63214 0.61303
 H329 H 0.51487 0.63972 0.66053
 H330 H 0.37039 0.48163 0.64911
 H331 H 0.33718 0.51603 0.59173
 H332 H 0.48164 0.67423 0.60330
 C333 C 0.47554 0.86947 0.64189
 C334 C 0.44259 0.88835 0.66018
 C335 C 0.38904 0.86681 0.64471
 C336 C 0.36920 0.82786 0.61185
 C337 C 0.40242 0.80969 0.59327
 C338 C 0.45577 0.83085 0.60876
 H339 H 0.51693 0.88484 0.65282
 H340 H 0.36221 0.88003 0.65787
 H341 H 0.32791 0.81244 0.60067
 H342 H 0.48235 0.81751 0.59531
 C343 C 0.13050 0.60621 0.64179
 C344 C 0.11165 0.55430 0.65990
 C345 C 0.13329 0.52241 0.64430
 C346 C 0.17231 0.54171 0.61154
 C347 C 0.19048 0.59320 0.59316
 C348 C 0.16919 0.62525 0.60875
 H349 H 0.11506 0.63215 0.65281
 H350 H 0.12010 0.48231 0.65732
 H351 H 0.18781 0.51593 0.60028
 H352 H 0.18251 0.66523 0.59545
 C353 C 0.47640 0.61294 0.85397
 C354 C 0.44581 0.55841 0.84062
 C355 C 0.39565 0.52423 0.86066
 C356 C 0.37675 0.54397 0.89367
 C357 C 0.40744 0.59843 0.90722
 C358 C 0.45734 0.63279 0.88681
 H359 H 0.51516 0.64032 0.83909
 H360 H 0.37113 0.48200 0.85113
 H361 H 0.33803 0.51647 0.90857
 H362 H 0.48199 0.67496 0.89647
 C363 C 0.13753 0.52445 0.85320
 C364 C 0.11363 0.55498 0.83984
 C365 C 0.12953 0.60512 0.86000
 C366 C 0.16800 0.62402 0.89313
 C367 C 0.19171 0.59336 0.90669
 C368 C 0.17628 0.54350 0.88615
 H369 H 0.12624 0.48571 0.83824
 H370 H 0.11185 0.62960 0.85048
 H371 H 0.17913 0.66269 0.90812
 H372 H 0.19374 0.51887 0.89580
 C373 C 0.47626 0.87108 0.86029
 C374 C 0.44199 0.88684 0.84016
 C375 C 0.38756 0.86297 0.85361
 C376 C 0.36787 0.82437 0.88660
 C377 C 0.40230 0.80904 0.90709
 C378 C 0.45668 0.83274 0.89346
 H379 H 0.51843 0.88876 0.85069
 H380 H 0.36011 0.87418 0.83868
 H381 H 0.32576 0.80691 0.89630
 H382 H 0.48421 0.82167 0.90842
 C383 C 0.52394 0.39534 0.86103
 C384 C 0.55825 0.44531 0.84074
 C385 C 0.61286 0.47563 0.85389
 C386 C 0.63265 0.45656 0.88671
 C387 C 0.59821 0.40686 0.90735
 C388 C 0.54364 0.37641 0.89402
 H389 H 0.48165 0.37101 0.85167
 H390 H 0.64039 0.51423 0.83886
 H391 H 0.67489 0.48107 0.89615
 H392 H 0.51604 0.33786 0.90909
 C393 C 0.86382 0.38751 0.85348
 C394 C 0.88806 0.44209 0.84024
 C395 C 0.87238 0.47638 0.86057
 C396 C 0.83378 0.45672 0.89366
 C397 C 0.80971 0.40219 0.90709
 C398 C 0.82499 0.36775 0.88641
 H399 H 0.87491 0.35999 0.83843
 H400 H 0.89028 0.51864 0.85117
 H401 H 0.82284 0.48433 0.90875
 H402 H 0.80730 0.32555 0.89590
 C403 C 0.52456 0.13654 0.85364
 C404 C 0.55483 0.11226 0.84035
 C405 C 0.60480 0.12794 0.86060
 C406 C 0.62379 0.16659 0.89371
 C407 C 0.59338 0.19068 0.90719
 C408 C 0.54368 0.17540 0.88658
 H409 H 0.48595 0.12545 0.83864
 H410 H 0.62910 0.11000 0.85115
 H411 H 0.66234 0.17755 0.90876
 H412 H 0.51921 0.19313 0.89612
   
