data_POSCAR
  _audit_creation_date              2014-09-24
  _audit_creation_method            'ToBaCCo'
  _symmetry_space_group_name_H-M    'P1'
  _symmetry_Int_Tables_number       1
  _symmetry_cell_setting            triclinic
  loop_
  _symmetry_equiv_pos_as_xyz
 x,y,z
_cell_length_a 30.0346
_cell_length_b 25.1533
_cell_length_c 14.9873
_cell_angle_alpha 88.040900
_cell_angle_beta 91.895500
_cell_angle_gamma 90.452500
loop_
  _atom_site_label
  _atom_site_type_symbol
  _atom_site_fract_x
  _atom_site_fract_y
  _atom_site_fract_z
C1 C 1.27961 0.19939 0.29608
 C2 C 1.24264 0.23214 0.27550
 C3 C 1.20138 0.20819 0.25331
 C4 C 1.19688 0.15258 0.25192
 C5 C 1.23395 0.12064 0.27644
 C6 C 1.27592 0.14344 0.29585
 C7 C 1.24767 0.29132 0.27595
 C8 C 1.28703 0.31581 0.24591
 C9 C 1.29274 0.37152 0.24601
 C10 C 1.25774 0.40268 0.27629
 C11 C 1.21810 0.37917 0.30641
 C12 C 1.21351 0.32340 0.30639
 H13 H 1.31065 0.21796 0.31694
 H14 H 1.17299 0.23282 0.23410
 H15 H 1.31208 0.29116 0.21831
 H16 H 1.18385 0.30477 0.33264
 H17 H 1.23042 0.07772 0.27860
 H18 H 1.26126 0.44562 0.27656
 C19 C 0.78046 -0.29919 0.29971
 C20 C 0.74276 -0.26793 0.27727
 C21 C 0.70199 -0.29306 0.25705
 C22 C 0.69845 -0.34853 0.25726
 C23 C 0.73610 -0.37952 0.28256
 C24 C 0.77770 -0.35548 0.30368
 C25 C 0.74583 -0.20881 0.27339
 C26 C 0.78107 -0.18287 0.23007
 C27 C 0.78321 -0.12688 0.22347
 C28 C 0.74985 -0.09697 0.26073
 C29 C 0.71435 -0.12212 0.30343
 C30 C 0.71255 -0.17803 0.30997
 H31 H 0.81103 -0.27882 0.31813
 H32 H 0.67315 -0.26923 0.23737
 H33 H 0.80579 -0.20642 0.19868
 H34 H 0.68552 -0.19760 0.34453
 H35 H 0.73303 -0.42251 0.28489
 H36 H 0.75118 -0.05388 0.25541
 C37 C 0.78522 0.19575 -0.21383
 C38 C 0.74918 0.22472 -0.25274
 C39 C 0.71244 0.19686 -0.28954
 C40 C 0.71195 0.14082 -0.28884
 C41 C 0.74795 0.11286 -0.24909
 C42 C 0.78451 0.13968 -0.21092
 C43 C 0.74978 0.28401 -0.25455
 C44 C 0.78686 0.31266 -0.28643
 C45 C 0.78736 0.36903 -0.28952
 C46 C 0.75035 0.39581 -0.25810
 C47 C 0.71365 0.36795 -0.22427
 C48 C 0.71332 0.31200 -0.22376
 H49 H 0.81297 0.21696 -0.18333
 H50 H 0.68507 0.21890 -0.32136
 H51 H 0.81403 0.29043 -0.31205
 H52 H 0.68554 0.28998 -0.19619
 H53 H 0.74753 0.06971 -0.24796
 H54 H 0.75026 0.43896 -0.25849
 C55 C 1.29239 -0.29358 -0.23350
 C56 C 1.25134 -0.27093 -0.26078
 C57 C 1.21546 -0.30424 -0.28423
 C58 C 1.22035 -0.35993 -0.28243
 C59 C 1.26192 -0.38197 -0.25432
 C60 C 1.29837 -0.34892 -0.22791
 C61 C 1.24700 -0.21209 -0.26727
 C62 C 1.28096 -0.18144 -0.30611
 C63 C 1.27963 -0.12568 -0.30761
 C64 C 1.24333 -0.10039 -0.27138
 C65 C 1.20864 -0.13017 -0.23322
 C66 C 1.21049 -0.18620 -0.23183
 H67 H 1.31971 -0.26752 -0.21402
 H68 H 1.18450 -0.28638 -0.30852
 H69 H 1.30833 -0.20128 -0.33612
 H70 H 1.18479 -0.20959 -0.19957
 H71 H 1.26553 -0.42467 -0.25541
 H72 H 1.24235 -0.05729 -0.27181
 C73 C 0.20016 0.29787 0.73703
 C74 C 0.22226 0.24898 0.74987
 C75 C 0.19836 0.20274 0.77452
 C76 C 0.15238 0.20578 0.78802
 C77 C 0.13133 0.25548 0.77680
 C78 C 0.15471 0.30136 0.75104
 C79 C 0.27065 0.24782 0.73880
 C80 C 0.29698 0.28834 0.77610
 C81 C 0.34203 0.29326 0.75639
 C82 C 0.36040 0.25664 0.70001
 C83 C 0.33540 0.21421 0.66722
 C84 C 0.29020 0.20954 0.68652
 H85 H 0.21866 0.33317 0.71703
 H86 H 0.21584 0.16542 0.78370
 H87 H 0.28153 0.31635 0.81837
 H88 H 0.27011 0.17802 0.65803
 H89 H 0.09584 0.25864 0.78691
 H90 H 0.39537 0.25972 0.68413
 C91 C 0.69330 0.79314 0.70725
 C92 C 0.71700 0.74678 0.73543
 C93 C 0.69296 0.69978 0.75755
 C94 C 0.64612 0.69851 0.74840
 C95 C 0.62399 0.74499 0.71924
 C96 C 0.64662 0.79288 0.70182
 C97 C 0.76673 0.74805 0.74199
 C98 C 0.78931 0.79576 0.76331
 C99 C 0.83577 0.79861 0.76247
 C100 C 0.86003 0.75309 0.74663
 C101 C 0.83893 0.70483 0.72896
 C102 C 0.79210 0.70247 0.72454
 H103 H 0.71123 0.82891 0.68832
 H104 H 0.71080 0.66483 0.78189
 H105 H 0.77108 0.83101 0.77876
 H106 H 0.77574 0.66556 0.70748
 H107 H 0.58784 0.74440 0.71323
 H108 H 0.89616 0.75542 0.74758
 C109 C 0.71976 0.28524 0.18788
 C110 C 0.73601 0.24014 0.23527
 C111 C 0.70715 0.19703 0.25332
 C112 C 0.66216 0.19885 0.22375
 C113 C 0.64726 0.24334 0.17288
 C114 C 0.67565 0.28657 0.15639
 C115 C 0.78355 0.23744 0.26269
 C116 C 0.80562 0.28182 0.29875
 C117 C 0.85155 0.27996 0.31855
 C118 C 0.87483 0.23325 0.30299
 C119 C 0.85359 0.18950 0.26479
 C120 C 0.80763 0.19139 0.24640
 H121 H 0.74150 0.31887 0.17375
 H122 H 0.72012 0.16289 0.29102
 H123 H 0.78694 0.31728 0.31098
 H124 H 0.79056 0.15790 0.21707
 H125 H 0.61266 0.24580 0.15000
 H126 H 0.91053 0.23189 0.31649
 C127 C 0.22214 0.78238 0.17768
 C128 C 0.23752 0.73674 0.22483
 C129 C 0.20726 0.69909 0.25908
 C130 C 0.16111 0.70837 0.25124
 C131 C 0.14669 0.75688 0.21127
 C132 C 0.17710 0.79456 0.17609
 C133 C 0.28501 0.73275 0.24980
 C134 C 0.30693 0.77695 0.28596
 C135 C 0.35203 0.77422 0.31107
 C136 C 0.37480 0.72649 0.30110
 C137 C 0.35355 0.68233 0.26378
 C138 C 0.30811 0.68533 0.23961
 H139 H 0.24577 0.81117 0.15110
 H140 H 0.22043 0.66442 0.29495
 H141 H 0.28842 0.81294 0.29500
 H142 H 0.29060 0.65164 0.21192
 H143 H 0.11129 0.76530 0.20641
 H144 H 0.41008 0.72443 0.31880
 O145 O 1.07159 0.07841 0.15943
 O146 O 1.11587 0.02776 0.07410
 C147 C 1.11030 0.06214 0.13499
 O148 O 0.93659 -0.10534 0.15152
 O149 O 0.88783 -0.04897 0.07548
 C150 C 0.89683 -0.08860 0.13088
 O151 O 1.05884 -0.10350 0.16481
 O152 O 1.11001 -0.06232 0.07462
 C153 C 1.09882 -0.09557 0.13872
 O154 O 0.94665 0.08979 0.15595
 O155 O 0.89259 0.04523 0.07560
 C156 C 0.90540 0.08008 0.13307
 Zr157 Zr 1.00606 0.05676 0.11246
 O158 O 1.00504 0.05285 0.25381
 O159 O 1.01174 0.14063 0.10928
 Zr160 Zr 0.99859 -0.07635 0.10896
 O161 O 0.99584 -0.08460 0.24959
 O162 O 0.99770 -0.15982 0.09638
 O163 O 1.04256 -0.01281 0.12748
 O164 O 0.96370 -0.00782 0.12812
 O165 O 0.93960 0.10050 -0.14942
 O166 O 0.88918 0.04887 -0.07306
 C167 C 0.89933 0.08823 -0.12735
 O168 O 1.05446 -0.10076 -0.16570
 O169 O 1.10760 -0.05595 -0.08371
 C170 C 1.09556 -0.08948 -0.14407
 O171 O 0.93113 -0.09806 -0.15323
 O172 O 0.88472 -0.04763 -0.07233
 C173 C 0.89192 -0.08473 -0.12822
 O174 O 1.06210 0.08698 -0.16150
 O175 O 1.11241 0.03656 -0.07760
 C176 C 1.10241 0.07472 -0.13544
 Zr177 Zr 1.00032 0.06243 -0.11306
 O178 O 0.99173 0.06259 -0.25395
 O179 O 1.00755 0.14615 -0.11737
 Zr180 Zr 0.99487 -0.07023 -0.11599
 O181 O 0.98718 -0.06153 -0.25674
 O182 O 0.99434 -0.15405 -0.12363
 Zr183 Zr 1.06687 -0.01085 -0.00313
 Zr184 Zr 0.93315 -0.00299 -0.00013
 O185 O 0.95779 -0.00137 -0.12992
 O186 O 1.03759 -0.00546 -0.13300
 O187 O 0.96419 0.07237 0.00113
 O188 O 1.03515 -0.08565 -0.00379
 O189 O 1.04213 0.06723 -0.00100
 O190 O 0.95671 -0.08152 -0.00293
 H191 H 0.94485 -0.00823 0.18118
 H192 H 1.05351 -0.11820 -0.00407
 H193 H 0.93597 0.00115 -0.18093
 H194 H 1.06280 0.09810 0.00016
 H195 H 0.99860 -0.17545 0.15801
 H196 H 0.97914 -0.16831 -0.07026
 H197 H 1.01552 -0.04725 -0.27981
 H198 H 1.01812 0.04547 -0.27807
 H199 H 0.99702 0.15874 -0.05997
 H200 H 1.01406 0.15117 0.17241
 H201 H 1.03180 0.03318 0.27605
 H202 H 1.01256 -0.05423 0.27447
 O203 O 1.06277 0.59892 0.66672
 O204 O 1.11216 0.55355 0.58430
 C205 C 1.10305 0.58718 0.64492
 O206 O 0.93997 0.40277 0.64856
 O207 O 0.88884 0.45588 0.57198
 C208 C 0.89941 0.41594 0.62570
 O209 O 1.06320 0.41293 0.66482
 O210 O 1.11253 0.46148 0.58066
 C211 C 1.10318 0.42487 0.64061
 O212 O 0.93745 0.60144 0.65126
 O213 O 0.88754 0.55163 0.56959
 C214 C 0.89712 0.58877 0.62514
 Zr215 Zr 0.99986 0.57207 0.61482
 O216 O 0.99664 0.56786 0.75579
 O217 O 1.00111 0.65617 0.61143
 Zr218 Zr 1.00105 0.43941 0.61423
 O219 O 0.99916 0.44467 0.75445
 O220 O 1.00611 0.35556 0.62457
 O221 O 1.04101 0.50615 0.63335
 O222 O 0.96091 0.50431 0.62916
 O223 O 0.93469 0.61048 0.35155
 O224 O 0.88625 0.55364 0.42285
 C225 C 0.89471 0.59478 0.37118
 O226 O 1.06250 0.41810 0.34471
 O227 O 1.11212 0.46693 0.42855
 C228 C 1.10274 0.43167 0.36924
 O229 O 0.93949 0.40652 0.35589
 O230 O 0.88819 0.45588 0.42650
 C231 C 0.89911 0.41643 0.37814
 O232 O 1.05912 0.60777 0.34420
 O233 O 1.11013 0.55811 0.42795
 C234 C 1.09970 0.59517 0.36868
 Zr235 Zr 0.99766 0.57713 0.38889
 O236 O 0.99128 0.57558 0.24785
 O237 O 1.00009 0.66119 0.38285
 Zr238 Zr 1.00005 0.44478 0.38737
 O239 O 0.99309 0.45734 0.24714
 O240 O 1.00453 0.36243 0.36602
 Zr241 Zr 1.06679 0.50958 0.50409
 Zr242 Zr 0.93249 0.50598 0.49891
 O243 O 0.95879 0.50986 0.37042
 O244 O 1.03933 0.51249 0.37239
 O245 O 0.95915 0.58378 0.50074
 O246 O 1.03889 0.43263 0.50241
 O247 O 1.03746 0.58536 0.50342
 O248 O 0.96183 0.43010 0.49939
 H249 H 0.94061 0.50262 0.68001
 H250 H 1.05822 0.40090 0.50307
 H251 H 0.93707 0.51000 0.31916
 H252 H 1.05669 0.61751 0.50497
 H253 H 0.98970 0.34143 0.57211
 H254 H 1.00498 0.34444 0.42569
 H255 H 1.02300 0.46574 0.22445
 H256 H 1.01940 0.56149 0.22581
 H257 H 0.98933 0.67307 0.44053
 H258 H 1.00107 0.66689 0.67446
 H259 H 1.02079 0.54398 0.77855
 H260 H 0.99937 0.40754 0.77873
 O261 O 0.55614 0.10578 0.64448
 O262 O 0.60656 0.05723 0.56966
 C263 C 0.59652 0.09329 0.62573
 O264 O 0.43505 -0.09019 0.64513
 O265 O 0.38492 -0.04127 0.55833
 C266 C 0.39479 -0.07787 0.61863
 O267 O 0.55866 -0.08335 0.65856
 O268 O 0.60830 -0.03656 0.57278
 C269 C 0.59862 -0.07332 0.63201
 O270 O 0.43109 0.10588 0.62051
 O271 O 0.38212 0.05071 0.54627
 C272 C 0.39112 0.09074 0.59588
 Zr273 Zr 0.49471 0.07590 0.59309
 O274 O 0.48978 0.07674 0.73363
 O275 O 0.49554 0.15994 0.58200
 Zr276 Zr 0.49669 -0.05690 0.60612
 O277 O 0.49519 -0.04649 0.74525
 O278 O 0.50021 -0.14056 0.62417
 O279 O 0.53617 0.01069 0.61998
 O280 O 0.45628 0.00850 0.61292
 O281 O 0.43249 0.10651 0.32799
 O282 O 0.38375 0.05117 0.40155
 C283 C 0.39250 0.09146 0.34847
 O284 O 0.55997 -0.08677 0.34087
 O285 O 0.60879 -0.03496 0.42157
 C286 C 0.59982 -0.07211 0.36541
 O287 O 0.43781 -0.09839 0.34732
 O288 O 0.38585 -0.04758 0.41282
 C289 C 0.39737 -0.08824 0.36786
 O290 O 0.55739 0.10135 0.32273
 O291 O 0.60736 0.05547 0.41506
 C292 C 0.59770 0.08983 0.35112
 Zr293 Zr 0.49499 0.07314 0.36781
 O294 O 0.48921 0.06658 0.22741
 O295 O 0.49793 0.15692 0.35231
 Zr296 Zr 0.49741 -0.05922 0.37914
 O297 O 0.49163 -0.05160 0.23802
 O298 O 0.50258 -0.14243 0.36763
 Zr299 Zr 0.56293 0.00962 0.49180
 Zr300 Zr 0.42913 0.00541 0.48191
 O301 O 0.45623 0.00528 0.35439
 O302 O 0.53678 0.00799 0.35928
 O303 O 0.45538 0.08346 0.47698
 O304 O 0.53513 -0.06744 0.49618
 O305 O 0.53348 0.08538 0.48248
 O306 O 0.45840 -0.07041 0.49112
 H307 H 0.43575 0.00886 0.66333
 H308 H 0.55416 -0.09946 0.49945
 H309 H 0.43479 0.00387 0.30278
 H310 H 0.55251 0.11773 0.48133
 H311 H 0.48288 -0.15606 0.57406
 H312 H 0.50067 -0.15816 0.42872
 H313 H 0.52153 -0.04277 0.21569
 H314 H 0.51780 0.05273 0.20722
 H315 H 0.48798 0.17118 0.40899
 H316 H 0.49337 0.17275 0.64351
 H317 H 0.51401 0.05416 0.75988
 H318 H 0.49520 -0.08275 0.77322
 O319 O 0.57312 0.57905 0.15897
 O320 O 0.61759 0.53257 0.06792
 C321 C 0.61199 0.56525 0.13124
 O322 O 0.44734 0.38764 0.16857
 O323 O 0.39488 0.44006 0.09476
 C324 C 0.40631 0.40216 0.15119
 O325 O 0.57287 0.39607 0.16217
 O326 O 0.61761 0.44465 0.06727
 C327 C 0.61124 0.40926 0.13047
 O328 O 0.44764 0.58353 0.16227
 O329 O 0.39491 0.53335 0.08854
 C330 C 0.40670 0.57036 0.14280
 Zr331 Zr 0.50770 0.55432 0.11534
 O332 O 0.50949 0.55217 0.25673
 O333 O 0.51222 0.63834 0.11385
 Zr334 Zr 0.50817 0.42071 0.12059
 O335 O 0.51307 0.42751 0.26068
 O336 O 0.50857 0.33660 0.13456
 O337 O 0.54853 0.48810 0.12984
 O338 O 0.46962 0.48656 0.13881
 O339 O 0.42932 0.58167 -0.14977
 O340 O 0.38653 0.52718 -0.06099
 C341 C 0.39090 0.56362 -0.12286
 O342 O 0.55901 0.39642 -0.15975
 O343 O 0.61086 0.44734 -0.08563
 C344 C 0.59967 0.41134 -0.14244
 O345 O 0.43713 0.38927 -0.13602
 O346 O 0.38945 0.43651 -0.05330
 C347 C 0.39776 0.40015 -0.10979
 O348 O 0.55527 0.58496 -0.16636
 O349 O 0.60945 0.53831 -0.08647
 C350 C 0.59673 0.57438 -0.14555
 Zr351 Zr 0.49570 0.55634 -0.11019
 O352 O 0.48558 0.55861 -0.25067
 O353 O 0.49778 0.64050 -0.10989
 Zr354 Zr 0.49922 0.42234 -0.10504
 O355 O 0.48821 0.42566 -0.24547
 O356 O 0.50382 0.33846 -0.10557
 Zr357 Zr 0.56888 0.49011 -0.00368
 Zr358 Zr 0.43642 0.48620 0.01296
 O359 O 0.45821 0.48760 -0.11925
 O360 O 0.53645 0.49094 -0.13050
 O361 O 0.46195 0.56460 0.00732
 O362 O 0.54219 0.41265 0.00362
 O363 O 0.54009 0.56621 -0.00258
 O364 O 0.46453 0.40973 0.01244
 H365 H 0.45166 0.48592 0.19315
 H366 H 0.56232 0.38181 0.00131
 H367 H 0.43615 0.48627 -0.16977
 H368 H 0.55970 0.59806 -0.00430
 H369 H 0.52733 0.32275 0.08777
 H370 H 0.48854 0.32433 -0.05218
 H371 H 0.51384 0.44456 -0.27205
 H372 H 0.50870 0.53612 -0.27546
 H373 H 0.47109 0.65245 -0.07940
 H374 H 0.48841 0.65208 0.07235
 H375 H 0.53317 0.52701 0.27707
 H376 H 0.51340 0.39061 0.28604
 C377 C 1.15360 0.12889 0.22163
 C378 C 1.15155 0.08383 0.17631
 H379 H 1.12343 0.15139 0.22944
 H380 H 1.18212 0.06376 0.16183
 C381 C 1.18359 0.60507 0.68291
 C382 C 1.14012 0.61675 0.68957
 H383 H 1.19272 0.56924 0.64999
 H384 H 1.13095 0.65050 0.72783
 C385 C 0.67553 0.11012 0.66737
 C386 C 0.63269 0.12400 0.66950
 H387 H 0.68422 0.07342 0.63651
 H388 H 0.62357 0.15863 0.70571
 C389 C 0.65525 0.62742 0.22762
 C390 C 0.65351 0.58653 0.17282
 H391 H 0.62472 0.64748 0.24259
 H392 H 0.68447 0.56938 0.15273
 C393 C 0.81899 -0.09852 0.17552
 C394 C 0.86038 -0.11736 0.17457
 H395 H 0.81166 -0.05975 0.14495
 H396 H 0.86869 -0.15409 0.21096
 C397 C 0.82277 0.40001 0.67599
 C398 C 0.86371 0.38168 0.66199
 H399 H 0.81715 0.44223 0.66365
 H400 H 0.87285 0.34147 0.68224
 C401 C 0.31575 -0.09339 0.65255
 C402 C 0.35845 -0.10843 0.65979
 H403 H 0.30716 -0.05563 0.61967
 H404 H 0.36744 -0.14403 0.69880
 C405 C 0.33103 0.39729 0.21229
 C406 C 0.37007 0.37340 0.19720
 H407 H 0.32898 0.43986 0.19856
 H408 H 0.37629 0.33271 0.21943
 C409 C 0.82052 0.10758 -0.16635
 C410 C 0.86346 0.12202 -0.16723
 H411 H 0.81157 0.06908 -0.13724
 H412 H 0.87304 0.15859 -0.20201
 C413 C 0.81439 0.61170 0.33083
 C414 C 0.85726 0.62819 0.33516
 H415 H 0.80762 0.57016 0.34730
 H416 H 0.86632 0.66750 0.31033
 C417 C 0.31237 0.10968 0.31744
 C418 C 0.35530 0.12509 0.31400
 H419 H 0.30533 0.06838 0.33534
 H420 H 0.36415 0.16389 0.28638
 C421 C 0.34057 0.63189 -0.19575
 C422 C 0.34842 0.58173 -0.16681
 H423 H 0.36758 0.66037 -0.18720
 H424 H 0.32138 0.55313 -0.16526
 C425 C 1.17289 -0.10153 -0.18936
 C426 C 1.13044 -0.11822 -0.18964
 H427 H 1.18167 -0.06421 -0.15895
 H428 H 1.12070 -0.15325 -0.22578
 C429 C 1.18264 0.41323 0.34136
 C430 C 1.13913 0.40194 0.32942
 H431 H 1.19265 0.44868 0.37613
 H432 H 1.12935 0.36844 0.28946
 C433 C 0.67921 -0.08935 0.34014
 C434 C 0.63627 -0.10234 0.32898
 H435 H 0.68868 -0.05278 0.37219
 H436 H 0.62716 -0.13700 0.29116
 C437 C 0.67769 0.39840 -0.18421
 C438 C 0.63491 0.38310 -0.18779
 H439 H 0.68681 0.43517 -0.15239
 H440 H 0.62519 0.34831 -0.22460
 C441 C 1.12534 0.16230 -0.18783
 C442 C 1.13756 0.11178 -0.16668
 H443 H 1.09036 0.17174 -0.18302
 H444 H 1.17202 0.09953 -0.16364
 C445 C 1.12856 0.67300 0.28490
 C446 C 1.13641 0.62652 0.32967
 H447 H 1.09413 0.68529 0.27567
 H448 H 1.16976 0.61206 0.34330
 C449 C 0.62855 0.15803 0.24917
 C450 C 0.63508 0.12012 0.31314
 H451 H 0.59533 0.16286 0.21958
 H452 H 0.66746 0.11404 0.34514
 C453 C 0.61889 0.65453 -0.22918
 C454 C 0.63130 0.60931 -0.18532
 H455 H 0.58348 0.65984 -0.24274
 H456 H 0.66584 0.60133 -0.16753
 C457 C 0.86126 -0.15190 -0.22535
 C458 C 0.85421 -0.11742 -0.16118
 H459 H 0.89212 -0.14917 -0.26093
 H460 H 0.82396 -0.11933 -0.12381
 C461 C 0.87802 0.32553 0.35125
 C462 C 0.86518 0.37657 0.35295
 H463 H 0.91215 0.31631 0.37188
 H464 H 0.83124 0.38865 0.33766
 C465 C 0.37785 -0.17979 0.34349
 C466 C 0.36415 -0.12897 0.34417
 H467 H 0.41197 -0.18845 0.36485
 H468 H 0.33015 -0.11743 0.32843
 C469 C 0.37048 0.33219 -0.20899
 C470 C 0.36115 0.36757 -0.14683
 H471 H 0.40409 0.33175 -0.23322
 H472 H 0.32845 0.37104 -0.11977
 C473 C 1.16282 -0.15539 0.14347
 C474 C 1.13088 -0.13051 0.18492
 H475 H 1.17807 -0.13668 0.08572
 H476 H 1.12043 -0.14657 0.24918
 C477 C 1.12939 0.35118 0.73737
 C478 C 1.13909 0.39004 0.67719
 H479 H 1.09739 0.35169 0.76878
 H480 H 1.17046 0.39062 0.64369
 C481 C 0.62020 -0.16233 0.68024
 C482 C 0.63339 -0.11187 0.66210
 H483 H 0.58464 -0.17014 0.67681
 H484 H 0.66813 -0.10059 0.65942
 C485 C 0.65724 0.33447 0.11243
 C486 C 0.64851 0.37638 0.16084
 H487 H 0.64098 0.33045 0.04721
 H488 H 0.65958 0.37729 0.23035
 C489 C 0.88171 0.14502 0.23897
 C490 C 0.87113 0.11260 0.17219
 H491 H 0.91501 0.14328 0.26911
 H492 H 0.83849 0.11342 0.13952
 C493 C 0.86835 0.65920 0.71508
 C494 C 0.86014 0.62120 0.65624
 H495 H 0.90139 0.66166 0.74618
 H496 H 0.82779 0.61821 0.62262
 C497 C 0.35917 0.17620 0.61442
 C498 C 0.35438 0.12358 0.62350
 H499 H 0.38771 0.19176 0.57895
 H500 H 0.32672 0.10549 0.65808
 C501 C 0.38147 0.63640 0.24449
 C502 C 0.37149 0.60186 0.18064
 H503 H 0.41460 0.63563 0.27555
 H504 H 0.33895 0.60104 0.14766
   
