data_POSCAR
  _audit_creation_date              2014-09-24
  _audit_creation_method            'ToBaCCo'
  _symmetry_space_group_name_H-M    'P1'
  _symmetry_Int_Tables_number       1
  _symmetry_cell_setting            triclinic
  loop_
  _symmetry_equiv_pos_as_xyz
 x,y,z
_cell_length_a 54.9581
_cell_length_b 54.9945
_cell_length_c 27.5287
_cell_angle_alpha 89.957500
_cell_angle_beta 89.974000
_cell_angle_gamma 88.390800
loop_
  _atom_site_label
  _atom_site_type_symbol
  _atom_site_fract_x
  _atom_site_fract_y
  _atom_site_fract_z
O1 O 0.02479 0.26667 -0.03335
 O2 O -0.02395 0.25459 0.05632
 O3 O 0.02409 0.25569 0.05822
 O4 O -0.02330 0.26859 -0.03348
 O5 O -0.02340 0.22966 -0.05285
 O6 O 0.02560 0.21715 0.03575
 O7 O -0.02116 0.21568 0.03741
 O8 O 0.02383 0.22819 -0.05594
 Cu9 Cu 0.00033 0.26530 0.01403
 Cu10 Cu 0.00130 0.21887 -0.01113
 C11 C 0.03254 0.24918 -0.05993
 C12 C -0.03080 0.23283 0.06219
 C13 C 0.03321 0.23431 0.06214
 C14 C -0.03188 0.25127 -0.05801
 O15 O 0.52274 0.75007 0.47345
 O16 O 0.47146 0.74908 0.56041
 O17 O 0.51949 0.74658 0.56753
 O18 O 0.47472 0.75162 0.46715
 O19 O 0.47496 0.71152 0.46216
 O20 O 0.51867 0.70658 0.56195
 O21 O 0.47161 0.70898 0.55564
 O22 O 0.52182 0.71004 0.46811
 Cu23 Cu 0.49723 0.75341 0.51775
 Cu24 Cu 0.49679 0.70531 0.51155
 C25 C 0.53098 0.73010 0.45596
 C26 C 0.46255 0.72881 0.57206
 C27 C 0.52684 0.72557 0.58147
 C28 C 0.46702 0.73223 0.44808
 O29 O 1.02426 0.74624 0.05517
 O30 O 0.97587 0.73336 -0.03462
 O31 O 1.02405 0.73224 -0.03437
 O32 O 0.97620 0.74465 0.05683
 O33 O 0.97455 0.78322 0.03450
 O34 O 1.02300 0.77093 -0.05538
 O35 O 0.97594 0.77193 -0.05694
 O36 O 1.02143 0.78501 0.03505
 Cu37 Cu 1.00020 0.73522 0.01291
 Cu38 Cu 0.99862 0.78157 -0.01285
 C39 C 1.03113 0.76803 0.06026
 C40 C 0.96770 0.75075 -0.06101
 C41 C 1.03210 0.74951 -0.05993
 C42 C 0.96698 0.76598 0.06079
 O43 O 0.52873 0.25016 0.55999
 O44 O 0.47726 0.24950 0.47358
 O45 O 0.52524 0.24789 0.46675
 O46 O 0.48071 0.25268 0.56758
 O47 O 0.48155 0.29270 0.56237
 O48 O 0.52505 0.28800 0.46210
 O49 O 0.47820 0.28954 0.46858
 O50 O 0.52859 0.29027 0.55560
 Cu51 Cu 0.50286 0.24598 0.51757
 Cu52 Cu 0.50334 0.29410 0.51179
 C53 C 0.53767 0.27039 0.57175
 C54 C 0.46899 0.26953 0.45639
 C55 C 0.53291 0.26733 0.44776
 C56 C 0.47338 0.27365 0.58174
 O57 O 0.76182 0.01811 -0.05961
 O58 O 0.76146 -0.02902 0.03625
 O59 O 0.76068 0.01928 0.03445
 O60 O 0.76325 -0.02987 -0.05747
 O61 O 0.80336 -0.03037 -0.05336
 O62 O 0.80086 0.01913 0.03541
 O63 O 0.80144 -0.02764 0.04065
 O64 O 0.80202 0.01671 -0.05862
 Cu65 Cu 0.75772 -0.00532 -0.01180
 Cu66 Cu 0.80590 -0.00556 -0.00882
 C67 C 0.78210 0.02540 -0.07533
 C68 C 0.78153 -0.03650 0.05471
 C69 C 0.78051 0.02776 0.05003
 C70 C 0.78386 -0.03883 -0.07026
 O71 O 0.26258 0.52748 0.44297
 O72 O 0.26038 0.48033 0.53892
 O73 O 0.25900 0.52828 0.53713
 O74 O 0.26244 0.47947 0.44488
 O75 O 0.30252 0.47902 0.44993
 O76 O 0.29911 0.52757 0.54131
 O77 O 0.30047 0.48060 0.54385
 O78 O 0.30268 0.52621 0.44741
 Cu79 Cu 0.25703 0.50397 0.49042
 Cu80 Cu 0.30516 0.50331 0.49598
 C81 C 0.28315 0.53502 0.42923
 C82 C 0.28025 0.47239 0.55751
 C83 C 0.27856 0.53636 0.55472
 C84 C 0.28311 0.47063 0.43232
 O85 O 0.23893 1.02986 0.03882
 O86 O 0.23972 0.98305 -0.05749
 O87 O 0.23674 1.03119 -0.05463
 O88 O 0.24059 0.98163 0.03667
 O89 O 0.20044 0.98115 0.03828
 O90 O 0.19672 1.03002 -0.05167
 O91 O 0.19953 0.98306 -0.05581
 O92 O 0.19897 1.02797 0.04247
 Cu93 Cu 0.24308 1.00646 -0.00945
 Cu94 Cu 0.19496 1.00546 -0.00650
 C95 C 0.21869 1.03710 0.05685
 C96 C 0.21967 0.97506 -0.07282
 C97 C 0.21591 1.03943 -0.06801
 C98 C 0.22096 0.97288 0.05267
 O99 O 0.73638 0.47291 0.43928
 O100 O 0.73867 0.51985 0.53546
 O101 O 0.74009 0.47194 0.53335
 O102 O 0.73649 0.52090 0.44137
 O103 O 0.69642 0.52132 0.44668
 O104 O 0.69999 0.47257 0.53780
 O105 O 0.69859 0.51953 0.54065
 O106 O 0.69628 0.47412 0.44396
 Cu107 Cu 0.74197 0.49634 0.48677
 Cu108 Cu 0.69385 0.49693 0.49265
 C109 C 0.71580 0.46536 0.42567
 C110 C 0.71883 0.52769 0.55429
 C111 C 0.72057 0.46379 0.55101
 C112 C 0.71580 0.52973 0.42894
 C113 C 0.20862 0.21056 0.20456
 C114 C 0.23254 0.20224 0.21300
 C115 C 0.24876 0.21770 0.23632
 C116 C 0.24076 0.24067 0.25449
 C117 C 0.21592 0.24759 0.24847
 C118 C 0.19997 0.23298 0.22238
 C119 C 0.25812 0.25750 0.27891
 C120 C 0.25286 0.28284 0.28125
 C121 C 0.26867 0.29868 0.30453
 C122 C 0.29062 0.28935 0.32342
 C123 C 0.29691 0.26459 0.31996
 C124 C 0.28029 0.24863 0.29938
 H125 H 0.19675 0.19957 0.18279
 H126 H 0.26750 0.21157 0.23994
 H127 H 0.20863 0.26424 0.26416
 H128 H 0.23671 0.29069 0.26444
 H129 H 0.30276 0.30137 0.34218
 H130 H 0.28504 0.22945 0.29926
 C131 C 0.79073 0.78971 0.20044
 C132 C 0.76678 0.79799 0.20876
 C133 C 0.75052 0.78249 0.23190
 C134 C 0.75848 0.75949 0.24998
 C135 C 0.78332 0.75255 0.24395
 C136 C 0.79933 0.76721 0.21806
 C137 C 0.74108 0.74267 0.27439
 C138 C 0.74628 0.71732 0.27656
 C139 C 0.73047 0.70148 0.29994
 C140 C 0.70859 0.71084 0.31911
 C141 C 0.70235 0.73562 0.31580
 C142 C 0.71897 0.75157 0.29509
 H143 H 0.80265 0.80078 0.17891
 H144 H 0.73177 0.78862 0.23548
 H145 H 0.79057 0.73584 0.25954
 H146 H 0.76238 0.70946 0.25958
 H147 H 0.69647 0.69882 0.33799
 H148 H 0.71428 0.77076 0.29509
 C149 C 0.79328 0.20648 0.18652
 C150 C 0.80099 0.22820 0.20741
 C151 C 0.78406 0.24265 0.23340
 C152 C 0.75923 0.23674 0.23551
 C153 C 0.75200 0.21488 0.21361
 C154 C 0.76910 0.19932 0.19069
 C155 C 0.74110 0.25357 0.25990
 C156 C 0.71922 0.24490 0.27954
 C157 C 0.70208 0.26094 0.30103
 C158 C 0.70747 0.28558 0.30572
 C159 C 0.72931 0.29455 0.28787
 C160 C 0.74558 0.27867 0.26366
 H161 H 0.80593 0.19526 0.16560
 H162 H 0.79050 0.25849 0.25211
 H163 H 0.73318 0.20970 0.21425
 H164 H 0.71526 0.22577 0.27825
 H165 H 0.69489 0.29764 0.32502
 H166 H 0.76164 0.28623 0.24754
 C167 C 0.20711 0.79405 0.18672
 C168 C 0.19910 0.77242 0.20761
 C169 C 0.21581 0.75786 0.23402
 C170 C 0.24069 0.76357 0.23651
 C171 C 0.24821 0.78531 0.21444
 C172 C 0.23133 0.80098 0.19120
 C173 C 0.25859 0.74669 0.26145
 C174 C 0.28050 0.75526 0.28111
 C175 C 0.29751 0.73917 0.30289
 C176 C 0.29196 0.71460 0.30788
 C177 C 0.27006 0.70572 0.29011
 C178 C 0.25391 0.72164 0.26565
 H179 H 0.19466 0.80540 0.16558
 H180 H 0.20915 0.74212 0.25280
 H181 H 0.26707 0.79033 0.21523
 H182 H 0.28461 0.77435 0.27957
 H183 H 0.30445 0.70250 0.32733
 H184 H 0.23781 0.71414 0.24964
 C185 C 0.72197 0.28602 0.67205
 C186 C 0.71546 0.26177 0.67703
 C187 C 0.73260 0.24477 0.69528
 C188 C 0.75567 0.25202 0.71181
 C189 C 0.76153 0.27683 0.70720
 C190 C 0.74490 0.29377 0.68662
 C191 C 0.77328 0.23372 0.73382
 C192 C 0.79867 0.23744 0.73381
 C193 C 0.81490 0.22000 0.75385
 C194 C 0.80589 0.19845 0.77280
 C195 C 0.78094 0.19417 0.77321
 C196 C 0.76474 0.21210 0.75505
 H197 H 0.70925 0.29887 0.65521
 H198 H 0.72761 0.22593 0.69660
 H199 H 0.77874 0.28331 0.72014
 H200 H 0.80613 0.25356 0.71777
 H201 H 0.81843 0.18526 0.78917
 H202 H 0.74549 0.20891 0.75766
 C203 C 0.27844 0.71377 0.67637
 C204 C 0.28521 0.73794 0.68140
 C205 C 0.26833 0.75502 0.70023
 C206 C 0.24526 0.74795 0.71714
 C207 C 0.23910 0.72324 0.71234
 C208 C 0.25549 0.70620 0.69132
 C209 C 0.22796 0.76637 0.73968
 C210 C 0.20248 0.76310 0.73954
 C211 C 0.18653 0.78076 0.75976
 C212 C 0.19598 0.80201 0.77915
 C213 C 0.22099 0.80588 0.77944
 C214 C 0.23689 0.78773 0.76120
 H215 H 0.29095 0.70085 0.65916
 H216 H 0.27351 0.77381 0.70168
 H217 H 0.22185 0.71693 0.72548
 H218 H 0.19477 0.74722 0.72308
 H219 H 0.18373 0.81541 0.79566
 H220 H 0.25621 0.79059 0.76379
 C221 C 0.29665 0.29642 0.70774
 C222 C 0.27231 0.30438 0.71172
 C223 C 0.25550 0.28928 0.73420
 C224 C 0.26305 0.26683 0.75504
 C225 C 0.28784 0.25956 0.75146
 C226 C 0.30454 0.27394 0.72682
 C227 C 0.24512 0.25093 0.77970
 C228 C 0.24905 0.22544 0.78155
 C229 C 0.23253 0.21040 0.80518
 C230 C 0.21109 0.22089 0.82452
 C231 C 0.20647 0.24600 0.82197
 C232 C 0.22380 0.26101 0.80119
 H233 H 0.30934 0.30742 0.68785
 H234 H 0.23659 0.29520 0.73514
 H235 H 0.29446 0.24279 0.76795
 H236 H 0.26475 0.21701 0.76409
 H237 H 0.19810 0.20966 0.84300
 H238 H 0.22031 0.28046 0.80158
 C239 C 0.70316 0.70248 0.70895
 C240 C 0.72750 0.69450 0.71277
 C241 C 0.74432 0.70950 0.73540
 C242 C 0.73679 0.73186 0.75658
 C243 C 0.71198 0.73912 0.75324
 C244 C 0.69528 0.72487 0.72839
 C245 C 0.75479 0.74774 0.78109
 C246 C 0.75071 0.77319 0.78357
 C247 C 0.76737 0.78821 0.80672
 C248 C 0.78908 0.77783 0.82492
 C249 C 0.79377 0.75274 0.82210
 C250 C 0.77634 0.73770 0.80178
 H251 H 0.69048 0.69158 0.68887
 H252 H 0.76324 0.70358 0.73611
 H253 H 0.70534 0.75580 0.76999
 H254 H 0.73478 0.78166 0.76703
 H255 H 0.80217 0.78915 0.84288
 H256 H 0.77993 0.71826 0.80192
 C257 C 0.23766 0.07118 0.09840
 C258 C 0.23513 0.09220 0.12729
 C259 C 0.21298 0.09702 0.15213
 C260 C 0.19383 0.08094 0.14782
 C261 C 0.19600 0.06090 0.11708
 C262 C 0.21774 0.05588 0.09141
 C263 C 0.20978 0.11845 0.17898
 C264 C 0.22781 0.13592 0.17896
 C265 C 0.24998 0.13137 0.15421
 C266 C 0.25379 0.10919 0.12954
 C267 C 0.26744 0.14955 0.15288
 C268 C 0.26236 0.17245 0.17349
 C269 C 0.23993 0.17732 0.19663
 C270 C 0.22329 0.15849 0.20103
 H271 H 0.25450 0.06778 0.07868
 H272 H 0.17677 0.08442 0.16665
 H273 H 0.18042 0.04941 0.11317
 H274 H 0.19267 0.12216 0.19762
 H275 H 0.27069 0.10572 0.11010
 H276 H 0.28458 0.14642 0.13412
 H277 H 0.27552 0.18660 0.16953
 H278 H 0.20618 0.16179 0.21988
 C279 C 0.73638 0.56513 0.59048
 C280 C 0.73376 0.58573 0.62049
 C281 C 0.71373 0.58774 0.65273
 C282 C 0.69707 0.56900 0.65536
 C283 C 0.69941 0.54900 0.62451
 C284 C 0.71876 0.54709 0.59125
 C285 C 0.71001 0.60889 0.68031
 C286 C 0.72558 0.62844 0.67502
 C287 C 0.74594 0.62637 0.64375
 C288 C 0.75011 0.60486 0.61712
 C289 C 0.76126 0.64620 0.63843
 C290 C 0.75583 0.66819 0.66218
 C291 C 0.73507 0.67063 0.69180
 C292 C 0.72045 0.65041 0.69909
 H293 H 0.75122 0.56388 0.56455
 H294 H 0.68169 0.57024 0.67998
 H295 H 0.68573 0.53521 0.62588
 H296 H 0.69441 0.61054 0.70436
 H297 H 0.76547 0.60340 0.59245
 H298 H 0.77700 0.64495 0.61475
 H299 H 0.76732 0.68356 0.65592
 H300 H 0.70462 0.65204 0.72251
 C301 C 0.76214 0.92946 0.09574
 C302 C 0.76447 0.90836 0.12456
 C303 C 0.78644 0.90350 0.15001
 C304 C 0.80558 0.91962 0.14642
 C305 C 0.80365 0.93970 0.11573
 C306 C 0.78212 0.94475 0.08939
 C307 C 0.78949 0.88198 0.17668
 C308 C 0.77153 0.86446 0.17590
 C309 C 0.74952 0.86906 0.15061
 C310 C 0.74584 0.89132 0.12611
 C311 C 0.73212 0.85083 0.14857
 C312 C 0.73714 0.82786 0.16900
 C313 C 0.75942 0.82296 0.19261
 C314 C 0.77598 0.84181 0.19771
 H315 H 0.74547 0.93287 0.07549
 H316 H 0.82251 0.91612 0.16573
 H317 H 0.81925 0.95121 0.11234
 H318 H 0.80647 0.87825 0.19575
 H319 H 0.72907 0.89482 0.10622
 H320 H 0.71511 0.85399 0.12941
 H321 H 0.72405 0.81368 0.16453
 H322 H 0.79297 0.83846 0.21690
 C323 C 0.26284 0.43465 0.59287
 C324 C 0.26559 0.41383 0.62227
 C325 C 0.28564 0.41166 0.65438
 C326 C 0.30220 0.43048 0.65753
 C327 C 0.29973 0.45072 0.62727
 C328 C 0.28037 0.45278 0.59410
 C329 C 0.28950 0.39030 0.68131
 C330 C 0.27403 0.37071 0.67550
 C331 C 0.25364 0.37293 0.64437
 C332 C 0.24935 0.39463 0.61839
 C333 C 0.23841 0.35307 0.63856
 C334 C 0.24394 0.33093 0.66173
 C335 C 0.26472 0.32836 0.69121
 C336 C 0.27928 0.34857 0.69894
 H337 H 0.24800 0.43602 0.56700
 H338 H 0.31759 0.42913 0.68207
 H339 H 0.31334 0.46457 0.62896
 H340 H 0.30513 0.38854 0.70526
 H341 H 0.23396 0.39622 0.59381
 H342 H 0.22264 0.35444 0.61499
 H343 H 0.23249 0.31557 0.65515
 H344 H 0.29513 0.34683 0.72226
 C345 C 0.93430 0.24582 0.11236
 C346 C 0.91305 0.23964 0.13757
 C347 C 0.90870 0.21494 0.14801
 C348 C 0.92562 0.19690 0.13364
 C349 C 0.94592 0.20301 0.10644
 C350 C 0.95032 0.22744 0.09454
 C351 C 0.88690 0.20844 0.17021
 C352 C 0.86865 0.22610 0.17937
 C353 C 0.87289 0.25083 0.16930
 C354 C 0.89535 0.25754 0.14972
 C355 C 0.85413 0.26823 0.17669
 C356 C 0.83099 0.26102 0.19099
 C357 C 0.82634 0.23631 0.19942
 C358 C 0.84569 0.21914 0.19559
 H359 H 0.93726 0.26471 0.10342
 H360 H 0.92258 0.17791 0.14147
 H361 H 0.95804 0.18840 0.09414
 H362 H 0.88354 0.18943 0.17756
 H363 H 0.89848 0.27648 0.14138
 H364 H 0.85700 0.28728 0.16916
 H365 H 0.81649 0.27470 0.19321
 H366 H 0.84264 0.20013 0.20314
 C367 C 0.42218 0.74605 0.59863
 C368 C 0.39957 0.74306 0.62142
 C369 C 0.39590 0.72223 0.65045
 C370 C 0.41491 0.70502 0.65684
 C371 C 0.43700 0.70772 0.63274
 C372 C 0.44070 0.72802 0.60298
 C373 C 0.37300 0.71837 0.67095
 C374 C 0.35346 0.73459 0.66145
 C375 C 0.35708 0.75558 0.63299
 C376 C 0.38024 0.75989 0.61372
 C377 C 0.33727 0.77148 0.62309
 C378 C 0.31394 0.76616 0.63974
 C379 C 0.31009 0.74494 0.66686
 C380 C 0.33012 0.72960 0.67857
 H381 H 0.42483 0.76157 0.57506
 H382 H 0.41238 0.68898 0.67898
 H383 H 0.45107 0.69366 0.63651
 H384 H 0.37015 0.70224 0.69269
 H385 H 0.38298 0.77581 0.59131
 H386 H 0.33968 0.78768 0.60138
 H387 H 0.29879 0.77822 0.63008
 H388 H 0.32743 0.71342 0.70024
 C389 C 0.06597 0.75526 0.11080
 C390 C 0.08723 0.76148 0.13588
 C391 C 0.09177 0.78622 0.14540
 C392 C 0.07505 0.80427 0.13015
 C393 C 0.05472 0.79809 0.10311
 C394 C 0.05010 0.77360 0.09224
 C395 C 0.11355 0.79271 0.16766
 C396 C 0.13159 0.77496 0.17784
 C397 C 0.12716 0.75020 0.16857
 C398 C 0.10472 0.74353 0.14889
 C399 C 0.14572 0.73269 0.17691
 C400 C 0.16885 0.73979 0.19144
 C401 C 0.17370 0.76450 0.19921
 C402 C 0.15453 0.78182 0.19435
 H403 H 0.06285 0.73632 0.10263
 H404 H 0.07824 0.82330 0.13724
 H405 H 0.04275 0.81269 0.09018
 H406 H 0.11705 0.81174 0.17437
 H407 H 0.10145 0.72456 0.14123
 H408 H 0.14271 0.71362 0.16998
 H409 H 0.18320 0.72598 0.19440
 H410 H 0.15769 0.80086 0.20140
 C411 C 0.57817 0.25314 0.59738
 C412 C 0.60085 0.25611 0.61982
 C413 C 0.60454 0.27678 0.64922
 C414 C 0.58547 0.29386 0.65634
 C415 C 0.56330 0.29119 0.63256
 C416 C 0.55959 0.27106 0.60242
 C417 C 0.62751 0.28066 0.66933
 C418 C 0.64710 0.26464 0.65903
 C419 C 0.64347 0.24379 0.63022
 C420 C 0.62024 0.23945 0.61137
 C421 C 0.66334 0.22809 0.61952
 C422 C 0.68672 0.23350 0.63569
 C423 C 0.69056 0.25460 0.66310
 C424 C 0.67049 0.26971 0.67565
 H425 H 0.57551 0.23777 0.57350
 H426 H 0.58801 0.30977 0.67877
 H427 H 0.54918 0.30516 0.63684
 H428 H 0.63037 0.29668 0.69134
 H429 H 0.61749 0.22364 0.58868
 H430 H 0.66091 0.21200 0.59755
 H431 H 0.70190 0.22162 0.62540
 H432 H 0.67319 0.28579 0.69756
 C433 C 0.76620 0.06470 0.89018
 C434 C 0.76954 0.08525 0.86082
 C435 C 0.78918 0.08540 0.82753
 C436 C 0.80487 0.06497 0.82364
 C437 C 0.80195 0.04503 0.85421
 C438 C 0.78286 0.04488 0.88807
 C439 C 0.79355 0.10634 0.80031
 C440 C 0.77924 0.12751 0.80740
 C441 C 0.75943 0.12742 0.84016
 C442 C 0.75442 0.10611 0.86604
 C443 C 0.74559 0.14892 0.84778
 C444 C 0.75202 0.17055 0.82490
 C445 C 0.77221 0.17095 0.79354
 C446 C 0.78519 0.14911 0.78381
 H447 H 0.75166 0.06478 0.91683
 H448 H 0.81998 0.06480 0.79833
 H449 H 0.81492 0.02987 0.85211
 H450 H 0.80881 0.10650 0.77530
 H451 H 0.73944 0.10610 0.89172
 H452 H 0.73033 0.14920 0.87272
 H453 H 0.74178 0.18714 0.83319
 H454 H 0.80050 0.14910 0.75894
 C455 C 0.26504 0.57160 0.38678
 C456 C 0.26815 0.59308 0.36002
 C457 C 0.29101 0.59762 0.33868
 C458 C 0.31003 0.58028 0.34280
 C459 C 0.30698 0.55930 0.37037
 C460 C 0.28472 0.55506 0.39366
 C461 C 0.29491 0.61991 0.31567
 C462 C 0.27651 0.63807 0.31511
 C463 C 0.25338 0.63329 0.33487
 C464 C 0.24922 0.61067 0.35658
 C465 C 0.23514 0.65165 0.33458
 C466 C 0.24023 0.67492 0.31760
 C467 C 0.26356 0.68019 0.30023
 C468 C 0.28134 0.66137 0.29743
 H469 H 0.24784 0.56856 0.40478
 H470 H 0.32760 0.58340 0.32640
 H471 H 0.32234 0.54672 0.37475
 H472 H 0.31263 0.62356 0.30036
 H473 H 0.23166 0.60722 0.37279
 H474 H 0.21726 0.64830 0.34934
 H475 H 0.22624 0.68913 0.32035
 H476 H 0.29928 0.66515 0.28337
 C477 C 0.23596 0.93570 0.89372
 C478 C 0.23286 0.91507 0.86449
 C479 C 0.21360 0.91494 0.83035
 C480 C 0.19808 0.93544 0.82546
 C481 C 0.20072 0.95543 0.85591
 C482 C 0.21940 0.95558 0.89062
 C483 C 0.20937 0.89392 0.80335
 C484 C 0.22341 0.87266 0.81150
 C485 C 0.24287 0.87274 0.84504
 C486 C 0.24778 0.89412 0.87071
 C487 C 0.25641 0.85113 0.85367
 C488 C 0.24994 0.82943 0.83111
 C489 C 0.23002 0.82908 0.79915
 C490 C 0.21743 0.85101 0.78829
 H491 H 0.25016 0.93563 0.92107
 H492 H 0.18326 0.93560 0.79949
 H493 H 0.18783 0.97063 0.85312
 H494 H 0.19438 0.89377 0.77772
 H495 H 0.26246 0.89413 0.89703
 H496 H 0.27143 0.85083 0.87917
 H497 H 0.25990 0.81277 0.84014
 H498 H 0.20234 0.85103 0.76292
 C499 C 0.73396 0.42886 0.38318
 C500 C 0.73088 0.40734 0.35664
 C501 C 0.70800 0.40267 0.33558
 C502 C 0.68892 0.41995 0.33974
 C503 C 0.69194 0.44097 0.36712
 C504 C 0.71423 0.44532 0.39015
 C505 C 0.70414 0.38032 0.31283
 C506 C 0.72260 0.36223 0.31229
 C507 C 0.74575 0.36713 0.33178
 C508 C 0.74987 0.38981 0.35319
 C509 C 0.76405 0.34885 0.33153
 C510 C 0.75903 0.32553 0.31487
 C511 C 0.73569 0.32013 0.29775
 C512 C 0.71783 0.33887 0.29491
 H513 H 0.75118 0.43198 0.40098
 H514 H 0.67133 0.41674 0.32355
 H515 H 0.67654 0.45350 0.37158
 H516 H 0.68640 0.37657 0.29774
 H517 H 0.76745 0.39336 0.36919
 H518 H 0.78194 0.35230 0.34609
 H519 H 0.77308 0.31138 0.31765
 H520 H 0.69989 0.33500 0.28104
 C521 C 0.07304 0.26582 0.91853
 C522 C 0.09466 0.26359 0.89128
 C523 C 0.09541 0.24844 0.84970
 C524 C 0.07441 0.23672 0.83479
 C525 C 0.05333 0.23842 0.86283
 C526 C 0.05268 0.25233 0.90556
 C527 C 0.11743 0.24405 0.82527
 C528 C 0.13892 0.25399 0.84261
 C529 C 0.13818 0.26998 0.88281
 C530 C 0.11595 0.27493 0.90660
 C531 C 0.15990 0.27988 0.89969
 C532 C 0.18222 0.27299 0.87849
 C533 C 0.18306 0.25608 0.84034
 C534 C 0.16131 0.24719 0.82171
 H535 H 0.07270 0.27633 0.95183
 H536 H 0.07465 0.22519 0.80287
 H537 H 0.03777 0.22798 0.85224
 H538 H 0.11805 0.23190 0.79422
 H539 H 0.11545 0.28664 0.93831
 H540 H 0.15971 0.29231 0.93021
 H541 H 0.19890 0.28003 0.89314
 H542 H 0.16198 0.23428 0.79192
 C543 C 0.57023 0.74681 0.42568
 C544 C 0.59154 0.74413 0.39757
 C545 C 0.59383 0.72461 0.36424
 C546 C 0.57480 0.70842 0.35893
 C547 C 0.55409 0.71079 0.38792
 C548 C 0.55174 0.72971 0.42195
 C549 C 0.61547 0.72090 0.33816
 C550 C 0.63526 0.73587 0.34614
 C551 C 0.63305 0.75566 0.37869
 C552 C 0.61102 0.75991 0.40372
 C553 C 0.65324 0.77024 0.38687
 C554 C 0.67569 0.76448 0.36490
 C555 C 0.67819 0.74419 0.33415
 C556 C 0.65761 0.73054 0.32365
 H557 H 0.56861 0.76132 0.45222
 H558 H 0.57628 0.69342 0.33349
 H559 H 0.53999 0.69754 0.38428
 H560 H 0.61727 0.70569 0.31320
 H561 H 0.60937 0.77486 0.42930
 H562 H 0.65190 0.78555 0.41155
 H563 H 0.69131 0.77525 0.37353
 H564 H 0.65928 0.71511 0.29925
 C565 C 0.92737 0.73366 0.91773
 C566 C 0.90574 0.73566 0.89050
 C567 C 0.90488 0.75070 0.84872
 C568 C 0.92580 0.76251 0.83356
 C569 C 0.94688 0.76104 0.86157
 C570 C 0.94762 0.74726 0.90452
 C571 C 0.88282 0.75491 0.82434
 C572 C 0.86140 0.74492 0.84194
 C573 C 0.86226 0.72901 0.88233
 C574 C 0.88453 0.72423 0.90606
 C575 C 0.84060 0.71906 0.89947
 C576 C 0.81823 0.72584 0.87840
 C577 C 0.81726 0.74268 0.84010
 C578 C 0.83894 0.75160 0.82116
 H579 H 0.92778 0.72326 0.95121
 H580 H 0.92547 0.77395 0.80148
 H581 H 0.96236 0.77157 0.85081
 H582 H 0.88211 0.76699 0.79315
 H583 H 0.88512 0.71261 0.93792
 H584 H 0.84089 0.70669 0.93014
 H585 H 0.80160 0.71878 0.89331
 H586 H 0.83817 0.76448 0.79128
 C587 C 0.42960 0.25296 0.42678
 C588 C 0.40814 0.25577 0.39922
 C589 C 0.40569 0.27540 0.36613
 C590 C 0.42472 0.29157 0.36048
 C591 C 0.44559 0.28907 0.38896
 C592 C 0.44809 0.27004 0.42277
 C593 C 0.38391 0.27924 0.34063
 C594 C 0.36414 0.26428 0.34898
 C595 C 0.36650 0.24439 0.38130
 C596 C 0.38867 0.24001 0.40573
 C597 C 0.34634 0.22980 0.38984
 C598 C 0.32378 0.23564 0.36842
 C599 C 0.32114 0.25603 0.33790
 C600 C 0.34166 0.26970 0.32708
 H601 H 0.43133 0.23837 0.45317
 H602 H 0.42313 0.30665 0.33522
 H603 H 0.45970 0.30231 0.38512
 H604 H 0.38199 0.29453 0.31585
 H605 H 0.39044 0.22498 0.43113
 H606 H 0.34780 0.21441 0.41434
 H607 H 0.30821 0.22485 0.37729
 H608 H 0.33988 0.28521 0.30283
 C609 C 0.76544 0.92477 0.89098
 C610 C 0.76825 0.90238 0.86675
 C611 C 0.79117 0.89541 0.84698
 C612 C 0.81060 0.91126 0.85023
 C613 C 0.80782 0.93320 0.87529
 C614 C 0.78544 0.93991 0.89690
 C615 C 0.79465 0.87229 0.82633
 C616 C 0.77574 0.85571 0.82659
 C617 C 0.75260 0.86288 0.84493
 C618 C 0.74889 0.88631 0.86425
 C619 C 0.73385 0.84611 0.84557
 C620 C 0.73836 0.82209 0.83083
 C621 C 0.76164 0.81446 0.81474
 C622 C 0.78000 0.83167 0.81108
 H623 H 0.74813 0.92970 0.90768
 H624 H 0.82824 0.90627 0.83503
 H625 H 0.82344 0.94463 0.87899
 H626 H 0.81239 0.86680 0.81215
 H627 H 0.73129 0.89162 0.87930
 H628 H 0.71597 0.85130 0.85930
 H629 H 0.72394 0.80918 0.83428
 H630 H 0.79790 0.82610 0.79793
 C631 C 0.26491 0.43442 0.39230
 C632 C 0.26780 0.41236 0.36687
 C633 C 0.29069 0.40588 0.34640
 C634 C 0.31002 0.42183 0.35030
 C635 C 0.30717 0.44339 0.37661
 C636 C 0.28481 0.44965 0.39875
 C637 C 0.29427 0.38309 0.32440
 C638 C 0.27555 0.36629 0.32421
 C639 C 0.25244 0.37294 0.34332
 C640 C 0.24858 0.39612 0.36382
 C641 C 0.23395 0.35585 0.34368
 C642 C 0.23879 0.33196 0.32829
 C643 C 0.26212 0.32484 0.31175
 C644 C 0.28008 0.34246 0.30780
 H645 H 0.24763 0.43900 0.40945
 H646 H 0.32763 0.41719 0.33461
 H647 H 0.32270 0.45491 0.38071
 H648 H 0.31200 0.37796 0.30969
 H649 H 0.23100 0.40104 0.37946
 H650 H 0.21607 0.36065 0.35794
 H651 H 0.22467 0.31873 0.33183
 H652 H 0.29801 0.33729 0.29423
 C653 C 0.23410 0.07383 0.88998
 C654 C 0.23102 0.09628 0.86588
 C655 C 0.20756 0.10406 0.85025
 C656 C 0.18772 0.08913 0.85784
 C657 C 0.19072 0.06737 0.88337
 C658 C 0.21379 0.05967 0.90089
 C659 C 0.20401 0.12715 0.82946
 C660 C 0.22339 0.14308 0.82619
 C661 C 0.24697 0.13524 0.84090
 C662 C 0.25075 0.11168 0.85969
 C663 C 0.26612 0.15153 0.83868
 C664 C 0.26165 0.17573 0.82487
 C665 C 0.23803 0.18397 0.81220
 C666 C 0.21921 0.16718 0.81104
 H667 H 0.25202 0.06830 0.90305
 H668 H 0.16965 0.09478 0.84583
 H669 H 0.17472 0.05682 0.89030
 H670 H 0.18590 0.13320 0.81829
 H671 H 0.26877 0.10583 0.87179
 H672 H 0.28434 0.14586 0.84969
 H673 H 0.27649 0.18825 0.82640
 H674 H 0.20102 0.17312 0.80031
 C675 C 0.73399 0.56585 0.38846
 C676 C 0.73112 0.58788 0.36288
 C677 C 0.70819 0.59443 0.34267
 C678 C 0.68880 0.57858 0.34702
 C679 C 0.69164 0.55704 0.37348
 C680 C 0.71404 0.55071 0.39534
 C681 C 0.70464 0.61720 0.32051
 C682 C 0.72343 0.63391 0.31992
 C683 C 0.74658 0.62719 0.33877
 C684 C 0.75041 0.60403 0.35940
 C685 C 0.76514 0.64421 0.33877
 C686 C 0.76033 0.66811 0.32333
 C687 C 0.73698 0.67530 0.30707
 C688 C 0.71895 0.65774 0.30341
 H689 H 0.75132 0.56121 0.40537
 H690 H 0.67116 0.58328 0.33154
 H691 H 0.67607 0.54560 0.37789
 H692 H 0.68689 0.62239 0.30601
 H693 H 0.76801 0.59905 0.37484
 H694 H 0.78304 0.63936 0.35283
 H695 H 0.77451 0.68129 0.32664
 H696 H 0.70100 0.66297 0.29004
 C697 C 0.05926 0.76348 0.87604
 C698 C 0.08076 0.76046 0.84888
 C699 C 0.09531 0.73904 0.85430
 C700 C 0.08709 0.72019 0.88383
 C701 C 0.06541 0.72311 0.91008
 C702 C 0.05177 0.74519 0.90820
 C703 C 0.11824 0.73725 0.83175
 C704 C 0.12680 0.75674 0.80416
 C705 C 0.11137 0.77737 0.79590
 C706 C 0.08842 0.77903 0.81805
 C707 C 0.11971 0.79671 0.76793
 C708 C 0.14381 0.79666 0.75210
 C709 C 0.15996 0.77726 0.76375
 C710 C 0.15102 0.75671 0.78750
 H711 H 0.04876 0.78041 0.87302
 H712 H 0.09780 0.70346 0.88781
 H713 H 0.06009 0.70848 0.93387
 H714 H 0.12984 0.72122 0.83753
 H715 H 0.07704 0.79529 0.81317
 H716 H 0.10801 0.81248 0.76060
 H717 H 0.15030 0.81253 0.73327
 H718 H 0.16340 0.74171 0.79671
 C719 C 0.57141 0.24924 0.41325
 C720 C 0.59213 0.25168 0.38384
 C721 C 0.59288 0.27095 0.34980
 C722 C 0.57276 0.28693 0.34463
 C723 C 0.55265 0.28486 0.37505
 C724 C 0.55202 0.26640 0.41023
 C725 C 0.61417 0.27480 0.32328
 C726 C 0.63505 0.26021 0.33153
 C727 C 0.63425 0.24049 0.36441
 C728 C 0.61264 0.23611 0.38988
 C729 C 0.65540 0.22616 0.37267
 C730 C 0.67739 0.23210 0.35047
 C731 C 0.67849 0.25238 0.31959
 C732 C 0.65705 0.26585 0.30909
 H733 H 0.57114 0.23516 0.44083
 H734 H 0.57303 0.30172 0.31861
 H735 H 0.53783 0.29819 0.37215
 H736 H 0.61484 0.28990 0.29796
 H737 H 0.61214 0.22133 0.41594
 H738 H 0.65514 0.21090 0.39756
 H739 H 0.69373 0.22150 0.35905
 H740 H 0.65773 0.28131 0.28471
 C741 C 0.94116 0.23895 0.87341
 C742 C 0.91944 0.24177 0.84688
 C743 C 0.90359 0.26195 0.85603
 C744 C 0.91045 0.27971 0.88946
 C745 C 0.93213 0.27681 0.91563
 C746 C 0.94728 0.25605 0.90899
 C747 C 0.88071 0.26347 0.83338
 C748 C 0.87329 0.24478 0.80251
 C749 C 0.88972 0.22530 0.79133
 C750 C 0.91279 0.22408 0.81311
 C751 C 0.88227 0.20653 0.76085
 C752 C 0.85818 0.20594 0.74503
 C753 C 0.84125 0.22428 0.75877
 C754 C 0.84919 0.24433 0.78545
 H755 H 0.95285 0.22300 0.86762
 H756 H 0.89865 0.29542 0.89663
 H757 H 0.93646 0.29029 0.94271
 H758 H 0.86824 0.27854 0.84170
 H759 H 0.92504 0.20872 0.80569
 H760 H 0.89467 0.19160 0.75151
 H761 H 0.85236 0.19041 0.72431
 H762 H 0.83613 0.25840 0.79651
 C763 C 0.42845 0.75042 0.41401
 C764 C 0.40764 0.74803 0.38484
 C765 C 0.40677 0.72876 0.35086
 C766 C 0.42686 0.71276 0.34548
 C767 C 0.44705 0.71479 0.37563
 C768 C 0.44781 0.73323 0.41078
 C769 C 0.38542 0.72497 0.32457
 C770 C 0.36459 0.73961 0.33298
 C771 C 0.36551 0.75933 0.36578
 C772 C 0.38719 0.76365 0.39104
 C773 C 0.34442 0.77374 0.37413
 C774 C 0.32238 0.76789 0.35210
 C775 C 0.32115 0.74761 0.32131
 C776 C 0.34253 0.73405 0.31075
 H777 H 0.42882 0.76449 0.44155
 H778 H 0.42649 0.69798 0.31949
 H779 H 0.46184 0.70143 0.37256
 H780 H 0.38465 0.70987 0.29931
 H781 H 0.38778 0.77843 0.41704
 H782 H 0.34478 0.78901 0.39896
 H783 H 0.30609 0.77857 0.36072
 H784 H 0.34175 0.71858 0.28643
 C785 C 0.23904 0.93343 0.08343
 C786 C 0.23660 0.91196 0.11069
 C787 C 0.21680 0.90999 0.14323
 C788 C 0.20020 0.92955 0.14895
 C789 C 0.20234 0.95043 0.12080
 C790 C 0.22143 0.95240 0.08725
 C791 C 0.21322 0.88816 0.16804
 C792 C 0.22873 0.86797 0.15982
 C793 C 0.24890 0.86991 0.12830
 C794 C 0.25288 0.89203 0.10429
 C795 C 0.26424 0.84943 0.12030
 C796 C 0.25907 0.82707 0.14185
 C797 C 0.23851 0.82487 0.17169
 C798 C 0.22380 0.84558 0.18141
 H799 H 0.25364 0.93475 0.05714
 H800 H 0.18500 0.92833 0.17385
 H801 H 0.18867 0.96490 0.12436
 H802 H 0.19778 0.88661 0.19233
 H803 H 0.26808 0.89344 0.07940
 H804 H 0.27984 0.85056 0.09643
 H805 H 0.27065 0.81131 0.13391
 H806 H 0.20812 0.84409 0.20505
 C807 C 0.74185 0.42735 0.58847
 C808 C 0.74110 0.40603 0.61668
 C809 C 0.71993 0.40116 0.64387
 C810 C 0.70025 0.41788 0.64360
 C811 C 0.70091 0.43866 0.61461
 C812 C 0.72144 0.44336 0.58604
 C813 C 0.71823 0.37912 0.66900
 C814 C 0.73698 0.36141 0.66572
 C815 C 0.75848 0.36642 0.63983
 C816 C 0.76060 0.38893 0.61617
 C817 C 0.77692 0.34832 0.63596
 C818 C 0.77328 0.32494 0.65433
 C819 C 0.75130 0.31943 0.67743
 C820 C 0.73380 0.33817 0.68519
 H821 H 0.75774 0.43075 0.56640
 H822 H 0.68395 0.41446 0.66441
 H823 H 0.68507 0.45082 0.61375
 H824 H 0.70174 0.37521 0.68889
 H825 H 0.77686 0.39260 0.59538
 H826 H 0.79360 0.35185 0.61653
 H827 H 0.78701 0.31080 0.64784
 H828 H 0.71696 0.33419 0.70372
 C829 C 0.76251 0.06709 0.08146
 C830 C 0.76496 0.08854 0.10868
 C831 C 0.78511 0.09073 0.14025
 C832 C 0.80209 0.07142 0.14493
 C833 C 0.79990 0.05055 0.11680
 C834 C 0.78040 0.04834 0.08432
 C835 C 0.78859 0.11252 0.16520
 C836 C 0.77262 0.13248 0.15802
 C837 C 0.75218 0.13033 0.12734
 C838 C 0.74830 0.10823 0.10325
 C839 C 0.73643 0.15058 0.12025
 C840 C 0.74142 0.17294 0.14190
 C841 C 0.76220 0.17537 0.17101
 C842 C 0.77735 0.15485 0.17982
 H843 H 0.74758 0.06559 0.05601
 H844 H 0.81757 0.07281 0.16906
 H845 H 0.81381 0.03626 0.11965
 H846 H 0.80426 0.11424 0.18879
 H847 H 0.73285 0.10665 0.07908
 H848 H 0.72061 0.14928 0.09701
 H849 H 0.72950 0.18853 0.13459
 H850 H 0.79320 0.15647 0.20292
 C851 C 0.25748 0.57286 0.59242
 C852 C 0.25838 0.59410 0.62078
 C853 C 0.27958 0.59875 0.64802
 C854 C 0.29913 0.58187 0.64766
 C855 C 0.29833 0.56118 0.61853
 C856 C 0.27778 0.55670 0.58990
 C857 C 0.28144 0.62071 0.67329
 C858 C 0.26282 0.63857 0.67013
 C859 C 0.24129 0.63379 0.64421
 C860 C 0.23901 0.61136 0.62039
 C861 C 0.22299 0.65204 0.64049
 C862 C 0.22681 0.67535 0.65901
 C863 C 0.24884 0.68062 0.68211
 C864 C 0.26619 0.66173 0.68973
 H865 H 0.24158 0.56963 0.57030
 H866 H 0.31544 0.58512 0.66851
 H867 H 0.31408 0.54890 0.61760
 H868 H 0.29795 0.62443 0.69321
 H869 H 0.22272 0.60786 0.59957
 H870 H 0.20628 0.64869 0.62105
 H871 H 0.21319 0.68961 0.65263
 H872 H 0.28308 0.66554 0.70823
 C873 C 0.93085 0.75219 0.10777
 C874 C 0.90985 0.75747 0.13541
 C875 C 0.90519 0.78150 0.15198
 C876 C 0.92168 0.79972 0.14119
 C877 C 0.94209 0.79447 0.11246
 C878 C 0.94671 0.77080 0.09504
 C879 C 0.88364 0.78719 0.17725
 C880 C 0.86613 0.76946 0.18422
 C881 C 0.87080 0.74538 0.16818
 C882 C 0.89287 0.73940 0.14474
 C883 C 0.85282 0.72798 0.17394
 C884 C 0.82991 0.73473 0.19254
 C885 C 0.82474 0.75891 0.20666
 C886 C 0.84344 0.77585 0.20447
 H887 H 0.93415 0.73392 0.09404
 H888 H 0.91838 0.81821 0.15363
 H889 H 0.95414 0.80904 0.10332
 H890 H 0.87996 0.80571 0.18933
 H891 H 0.89633 0.72100 0.13183
 H892 H 0.85608 0.70941 0.16195
 H893 H 0.81589 0.72130 0.19355
 H894 H 0.83995 0.79442 0.21635
 C895 C 0.43743 0.25790 0.62679
 C896 C 0.41648 0.26247 0.65507
 C897 C 0.41283 0.28549 0.67728
 C898 C 0.43057 0.30312 0.67265
 C899 C 0.45097 0.29866 0.64351
 C900 C 0.45424 0.27634 0.61923
 C901 C 0.39095 0.29105 0.70149
 C902 C 0.37227 0.27423 0.70225
 C903 C 0.37619 0.25087 0.68179
 C904 C 0.39845 0.24499 0.65901
 C905 C 0.35728 0.23426 0.68227
 C906 C 0.33425 0.24130 0.69975
 C907 C 0.32983 0.26498 0.71744
 C908 C 0.34924 0.28099 0.72048
 H909 H 0.43973 0.24067 0.60800
 H910 H 0.42814 0.32077 0.68972
 H911 H 0.46381 0.31305 0.63863
 H912 H 0.38795 0.30894 0.71735
 H913 H 0.40121 0.22730 0.64215
 H914 H 0.35997 0.21622 0.66704
 H915 H 0.31956 0.22866 0.69690
 H916 H 0.34607 0.29918 0.73477
 C917 C 0.06908 0.24800 0.10986
 C918 C 0.08992 0.24270 0.13792
 C919 C 0.09456 0.21862 0.15430
 C920 C 0.07822 0.20037 0.14285
 C921 C 0.05798 0.20565 0.11371
 C922 C 0.05337 0.22938 0.09652
 C923 C 0.11596 0.21293 0.18004
 C924 C 0.13335 0.23070 0.18763
 C925 C 0.12869 0.25482 0.17175
 C926 C 0.10674 0.26080 0.14789
 C927 C 0.14658 0.27227 0.17804
 C928 C 0.16942 0.26551 0.19695
 C929 C 0.17459 0.24130 0.21087
 C930 C 0.15594 0.22432 0.20826
 H931 H 0.06578 0.26632 0.09635
 H932 H 0.08152 0.18184 0.15512
 H933 H 0.04604 0.19107 0.10411
 H934 H 0.11963 0.19438 0.19198
 H935 H 0.10329 0.27924 0.13511
 H936 H 0.14332 0.29087 0.16619
 H937 H 0.18340 0.27897 0.19829
 H938 H 0.15941 0.20572 0.22001
 C939 C 0.56274 0.74118 0.62690
 C940 C 0.58359 0.73653 0.65540
 C941 C 0.58718 0.71345 0.67743
 C942 C 0.56947 0.69582 0.67237
 C943 C 0.54917 0.70035 0.64306
 C944 C 0.54595 0.72276 0.61898
 C945 C 0.60896 0.70783 0.70191
 C946 C 0.62762 0.72466 0.70314
 C947 C 0.62377 0.74809 0.68287
 C948 C 0.60159 0.75402 0.65979
 C949 C 0.64266 0.76471 0.68381
 C950 C 0.66563 0.75763 0.70153
 C951 C 0.67000 0.73388 0.71901
 C952 C 0.65058 0.71786 0.72164
 H953 H 0.56047 0.75847 0.60828
 H954 H 0.57186 0.67811 0.68930
 H955 H 0.53635 0.68598 0.63791
 H956 H 0.61191 0.68989 0.71763
 H957 H 0.59888 0.77176 0.64309
 H958 H 0.64001 0.78280 0.66874
 H959 H 0.68033 0.77028 0.69899
 H960 H 0.65371 0.69962 0.73575
   
