data_POSCAR
  _audit_creation_date              2014-09-24
  _audit_creation_method            'ToBaCCo'
  _symmetry_space_group_name_H-M    'P1'
  _symmetry_Int_Tables_number       1
  _symmetry_cell_setting            triclinic
  loop_
  _symmetry_equiv_pos_as_xyz
 x,y,z
_cell_length_a 43.1146
_cell_length_b 42.7206
_cell_length_c 42.5035
_cell_angle_alpha 89.912800
_cell_angle_beta 89.941500
_cell_angle_gamma 89.865800
loop_
  _atom_site_label
  _atom_site_type_symbol
  _atom_site_fract_x
  _atom_site_fract_y
  _atom_site_fract_z
N1 N 0.18963 1.25192 0.16565
 N2 N 0.16722 1.25162 0.18670
 C3 C 0.14723 1.27511 0.18042
 C4 C 0.15792 1.29080 0.15423
 C5 C 0.18473 1.27561 0.14528
 H6 H 0.12618 1.28003 0.19339
 H7 H 0.19912 1.28087 0.12510
 Cu8 Cu 0.16568 1.21946 0.21922
 Cu9 Cu 0.22256 1.22055 0.16517
 Cu10 Cu 0.21985 1.16313 0.22306
 N11 N 0.16415 1.18729 0.25146
 N12 N 0.18556 1.16532 0.25291
 C13 C 0.17866 1.14542 0.27649
 C14 C 0.15161 1.15563 0.29041
 C15 C 0.14283 1.18210 0.27409
 H16 H 0.19188 1.12472 0.28253
 H17 H 0.12219 1.19601 0.27797
 N18 N 0.25263 1.16497 0.19073
 N19 N 0.25366 1.18680 0.16868
 C20 C 0.27771 1.18077 0.14931
 C21 C 0.29234 1.15406 0.15980
 C22 C 0.27599 1.14451 0.18594
 H23 H 0.28358 1.19417 0.12855
 H24 H 0.28025 1.12366 0.19974
 H25 H 0.19730 1.18517 0.18626
 H26 H 0.22114 1.21032 0.21264
 N27 N 0.81397 0.74550 0.16742
 N28 N 0.83542 0.74639 0.18941
 C29 C 0.85646 0.72368 0.18386
 C30 C 0.84752 0.70787 0.15712
 C31 C 0.82061 0.72221 0.14717
 H32 H 0.87711 0.71942 0.19765
 H33 H 0.80733 0.71664 0.12634
 Cu34 Cu 0.83436 0.77831 0.22199
 Cu35 Cu 0.78007 0.77570 0.16558
 Cu36 Cu 0.77812 0.83270 0.22371
 N37 N 0.83316 0.81016 0.25462
 N38 N 0.81099 0.83140 0.25514
 C39 C 0.81608 0.85130 0.27912
 C40 C 0.84274 0.84186 0.29429
 C41 C 0.85316 0.81585 0.27828
 H42 H 0.80193 0.87152 0.28459
 H43 H 0.87408 0.80265 0.28302
 N44 N 0.74697 0.83003 0.18987
 N45 N 0.74769 0.80830 0.16778
 C46 C 0.72432 0.81355 0.14740
 C47 C 0.70828 0.83965 0.15727
 C48 C 0.72311 0.84966 0.18410
 H49 H 0.71982 0.80004 0.12641
 H50 H 0.71748 0.87023 0.19777
 H51 H 0.80312 0.81175 0.18791
 H52 H 0.77898 0.78557 0.21311
 N53 N 0.80979 1.25495 -0.16568
 N54 N 0.83059 1.25478 -0.18835
 C55 C 0.85104 1.27806 -0.18333
 C56 C 0.84238 1.29348 -0.15624
 C57 C 0.81624 1.27834 -0.14553
 H58 H 0.87110 1.28299 -0.19778
 H59 H 0.80336 1.28348 -0.12429
 Cu60 Cu 0.82996 1.22337 -0.22145
 Cu61 Cu 0.77696 1.22392 -0.16307
 Cu62 Cu 0.77613 1.16626 -0.22022
 N63 N 0.82968 1.18999 -0.25254
 N64 N 0.80856 1.16781 -0.25203
 C65 C 0.81437 1.14731 -0.27536
 C66 C 0.84044 1.15732 -0.29116
 C67 C 0.84974 1.18432 -0.27622
 H68 H 0.80111 1.12634 -0.27998
 H69 H 0.86994 1.19827 -0.28171
 N70 N 0.74523 1.16857 -0.18615
 N71 N 0.74556 1.19056 -0.16434
 C72 C 0.72246 1.18508 -0.14367
 C73 C 0.70702 1.15853 -0.15309
 C74 C 0.72191 1.14853 -0.17994
 H75 H 0.71771 1.19883 -0.12287
 H76 H 0.71664 1.12775 -0.19338
 H77 H 0.80153 1.18896 -0.18585
 H78 H 0.77521 1.21365 -0.21051
 N79 N 0.19091 0.74820 -0.16949
 N80 N 0.16906 0.74898 -0.19108
 C81 C 0.14888 0.72553 -0.18565
 C82 C 0.15881 0.70937 -0.15942
 C83 C 0.18541 0.72425 -0.14963
 H84 H 0.12816 0.72097 -0.19919
 H85 H 0.19926 0.71854 -0.12920
 Cu86 Cu 0.16853 0.78158 -0.22308
 Cu87 Cu 0.22393 0.77923 -0.16771
 Cu88 Cu 0.22320 0.83729 -0.22496
 N89 N 0.16819 0.81410 -0.25515
 N90 N 0.18980 0.83581 -0.25577
 C91 C 0.18362 0.85617 -0.27917
 C92 C 0.15683 0.84654 -0.29386
 C93 C 0.14747 0.81993 -0.27816
 H94 H 0.19706 0.87687 -0.28449
 H95 H 0.12672 0.80646 -0.28260
 N96 N 0.25503 0.83476 -0.19177
 N97 N 0.25529 0.81269 -0.16995
 C98 C 0.27884 0.81822 -0.14988
 C99 C 0.29395 0.84487 -0.15971
 C100 C 0.27839 0.85489 -0.18615
 H101 H 0.28405 0.80453 -0.12913
 H102 H 0.28318 0.87582 -0.19961
 H103 H 0.19945 0.81511 -0.18902
 H104 H 0.22384 0.78996 -0.21506
 C105 C 0.54805 1.04135 -0.00552
 H106 H 0.54866 1.03983 0.01988
 C107 C 0.56968 1.05979 -0.02141
 H108 H 0.58660 1.07283 -0.00799
 C109 C 0.52538 1.02573 -0.05377
 H110 H 0.50857 1.01183 -0.06632
 C111 C 0.54657 1.04395 -0.07062
 H112 H 0.54579 1.04385 -0.09608
 N113 N 0.52650 1.02480 -0.02180
 C114 C 0.45239 1.00567 0.04520
 H115 H 0.45173 0.98039 0.04385
 C116 C 0.43067 1.02164 0.06354
 H117 H 0.41362 1.00842 0.07669
 C118 C 0.47524 1.05352 0.02920
 H119 H 0.49215 1.06589 0.01516
 C120 C 0.45399 1.07045 0.04730
 H121 H 0.45481 1.09577 0.04700
 Zn122 Zn 0.50031 0.99816 0.00179
 N123 N 0.47406 1.02171 0.02849
 C124 C 0.52528 0.97076 0.05744
 N125 N 0.52647 0.97149 0.02546
 C126 C 0.54815 0.95484 0.00931
 C127 C 0.56988 0.93658 0.02533
 C128 C 0.54656 0.95274 0.07443
 C129 C 0.45269 0.99093 -0.04181
 C130 C 0.43112 0.97513 -0.06034
 C131 C 0.45423 0.92615 -0.04403
 C132 C 0.47537 0.94291 -0.02576
 N133 N 0.47422 0.97473 -0.02500
 H134 H 0.50835 0.98472 0.06988
 H135 H 0.54880 0.95618 -0.01611
 H136 H 0.58693 0.92348 0.01202
 H137 H 0.54573 0.95302 0.09988
 H138 H 0.45206 1.01621 -0.04043
 H139 H 0.41423 0.98848 -0.07361
 H140 H 0.45504 0.90082 -0.04380
 H141 H 0.49216 0.93043 -0.01166
 C142 C 0.43111 1.05450 0.06453
 C143 C 0.56928 1.06106 -0.05442
 C144 C 0.43153 0.94227 -0.06140
 C145 C 0.56946 0.93560 0.05836
 C146 C -0.00440 0.54805 1.04131
 H147 H 0.02069 0.54825 1.04084
 C148 C -0.02047 0.56989 1.05951
 H149 H -0.00752 0.58655 1.07344
 C150 C -0.05162 0.52613 1.02340
 H151 H -0.06368 0.50953 1.00872
 C152 C -0.06864 0.54757 1.04129
 H153 H -0.09372 0.54719 1.04016
 N154 N -0.02008 0.52671 1.02380
 C155 C 0.04598 0.45109 1.00704
 H156 H 0.04538 0.45020 0.98161
 C157 C 0.06375 0.42941 1.02380
 H158 H 0.07665 0.41173 1.01104
 C159 C 0.02855 0.47436 1.05447
 H160 H 0.01438 0.49154 1.06635
 C161 C 0.04599 0.45310 1.07217
 H162 H 0.04549 0.45460 1.09759
 Zn163 Zn 0.00375 0.49987 0.99787
 N164 N 0.02895 0.47305 1.02249
 C165 C 0.05987 0.52406 0.97212
 N166 N 0.02837 0.52588 0.97188
 C167 C 0.01334 0.54796 0.95456
 C168 C 0.03005 0.56933 0.93641
 C169 C 0.07751 0.54498 0.95429
 C170 C -0.03987 0.45262 0.98893
 C171 C -0.05830 0.43154 0.97230
 C172 C -0.04002 0.45462 0.92380
 C173 C -0.02193 0.47528 0.94138
 N174 N -0.02226 0.47398 0.97335
 H175 H 0.07142 0.50676 0.98650
 H176 H -0.01172 0.54926 0.95530
 H177 H 0.01763 0.58715 0.92335
 H178 H 0.10256 0.54311 0.95467
 H179 H -0.03922 0.45171 1.01436
 H180 H -0.07166 0.41432 0.98516
 H181 H -0.03957 0.45610 0.89837
 H182 H -0.00731 0.49200 0.92940
 C183 C 0.06381 0.43015 1.05684
 C184 C -0.05304 0.56999 1.05950
 C185 C -0.05842 0.43227 0.93926
 C186 C 0.06261 0.56815 0.93626
 C187 C 1.03991 -0.00667 0.54799
 H188 H 1.03949 0.01865 0.54807
 C189 C 1.05821 -0.02281 0.56970
 H190 H 1.07225 -0.00969 0.58613
 C191 C 1.02179 -0.05441 0.52652
 H192 H 1.00700 -0.06662 0.51015
 C193 C 1.03976 -0.07151 0.54785
 H194 H 1.03858 -0.09682 0.54762
 N195 N 1.02223 -0.02257 0.52694
 C196 C 1.00402 0.04401 0.45130
 H197 H 0.97893 0.04360 0.45114
 C198 C 1.02001 0.06182 0.42905
 H199 H 1.00700 0.07550 0.41211
 C200 C 1.05132 0.02634 0.47352
 H201 H 1.06344 0.01189 0.49039
 C202 C 1.06825 0.04384 0.45168
 H203 H 1.09334 0.04265 0.45204
 Zn204 Zn 0.99611 0.00138 0.50043
 N205 N 1.01978 0.02682 0.47299
 C206 C 0.97086 0.05798 0.52514
 N207 N 0.97081 0.02618 0.52697
 C208 C 0.95405 0.01097 0.54936
 C209 C 0.93622 0.02779 0.57095
 C210 C 0.95334 0.07573 0.54629
 C211 C 0.98668 -0.04264 0.45304
 C212 C 0.97002 -0.06114 0.43199
 C213 C 0.92251 -0.04286 0.45599
 C214 C 0.94010 -0.02468 0.47660
 N215 N 0.97160 -0.02494 0.47480
 H216 H 0.98481 0.06968 0.50762
 H217 H 0.95493 -0.01431 0.55066
 H218 H 0.92354 0.01522 0.58895
 H219 H 0.95352 0.10100 0.54437
 H220 H 1.01174 -0.04194 0.45176
 H221 H 0.98249 -0.07451 0.41441
 H222 H 0.89747 -0.04245 0.45785
 H223 H 0.92850 -0.01001 0.49363
 C224 C 1.05258 0.06173 0.42892
 C225 C 1.05813 -0.05569 0.56998
 C226 C 0.93746 -0.06128 0.43317
 C227 C 0.93580 0.06064 0.56968
 C228 C 0.11428 0.36011 1.10864
 C229 C 0.12737 0.37360 1.08171
 C230 C 0.11116 0.39666 1.06505
 C231 C 0.14353 0.31468 1.13888
 C232 C 0.06880 0.39300 1.10242
 C233 C 0.08505 0.36995 1.11902
 C234 C 0.13041 0.33557 1.12516
 C235 C 0.08160 0.40651 1.07513
 H236 H 0.15001 0.36616 1.07349
 H237 H 0.12180 0.40687 1.04437
 H238 H 0.04594 0.39974 1.11054
 H239 H 0.07464 0.35956 1.13975
 C240 C -0.10419 0.63961 1.11110
 C241 C -0.07695 0.64777 1.09520
 C242 C -0.06026 0.62511 1.07857
 C243 C -0.13575 0.68339 1.14133
 C244 C -0.09799 0.58590 1.09375
 C245 C -0.11465 0.60863 1.11040
 C246 C -0.12150 0.66321 1.12773
 C247 C -0.07060 0.59390 1.07762
 H248 H -0.06873 0.67171 1.09546
 H249 H -0.03956 0.63214 1.06599
 H250 H -0.10638 0.56203 1.09371
 H251 H -0.13570 0.60206 1.12266
 C252 C -0.11077 0.36347 0.88823
 C253 C -0.08138 0.37245 0.87759
 C254 C -0.06454 0.39517 0.89389
 C255 C -0.14136 0.31849 0.85905
 C256 C -0.10663 0.40026 0.93139
 C257 C -0.12343 0.37755 0.91505
 C258 C -0.12753 0.33917 0.87219
 C259 C -0.07688 0.40918 0.92113
 H260 H -0.07130 0.36159 0.85694
 H261 H -0.04155 0.40117 0.88563
 H262 H -0.11692 0.41087 0.95204
 H263 H -0.14617 0.37079 0.92348
 C264 C 0.11387 0.63813 0.88541
 C265 C 0.08730 0.62487 0.87211
 C266 C 0.07088 0.60176 0.88840
 C267 C 0.14326 0.68392 0.85602
 C268 C 0.10783 0.60482 0.93123
 C269 C 0.12420 0.62793 0.91490
 C270 C 0.12999 0.66287 0.86926
 C271 C 0.08084 0.59162 0.91826
 H272 H 0.07912 0.63257 0.84928
 H273 H 0.05042 0.59180 0.87763
 H274 H 0.11584 0.59788 0.95435
 H275 H 0.14466 0.63815 0.92547
 C276 C 1.10373 0.11193 0.35817
 C277 C 1.11417 0.11166 0.38934
 C278 C 1.09747 0.09550 0.41244
 C279 C 1.13555 0.14113 0.31377
 C280 C 1.05975 0.07999 0.37323
 C281 C 1.07648 0.09612 0.35019
 C282 C 1.12114 0.12799 0.33419
 C283 C 1.07008 0.07944 0.40462
 H284 H 1.13523 0.12385 0.39577
 H285 H 1.10585 0.09578 0.43644
 H286 H 1.03905 0.06745 0.36635
 H287 H 1.06828 0.09605 0.32610
 C288 C 1.11016 -0.10694 0.63939
 C289 C 1.09468 -0.07934 0.64767
 C290 C 1.07790 -0.06263 0.62508
 C291 C 1.14122 -0.13810 0.68302
 C292 C 1.09203 -0.10109 0.58569
 C293 C 1.10884 -0.11777 0.60836
 C294 C 1.12718 -0.12411 0.66289
 C295 C 1.07635 -0.07331 0.59382
 H296 H 1.09545 -0.07080 0.67165
 H297 H 1.06570 -0.04162 0.63221
 H298 H 1.09157 -0.10973 0.56177
 H299 H 1.12080 -0.13909 0.60168
 C300 C 0.88640 -0.11326 0.36393
 C301 C 0.87593 -0.08375 0.37354
 C302 C 0.89223 -0.06706 0.39643
 C303 C 0.85728 -0.14323 0.31832
 C304 C 0.92935 -0.10957 0.40049
 C305 C 0.91301 -0.12622 0.37759
 C306 C 0.87041 -0.12974 0.33932
 C307 C 0.91929 -0.07968 0.41000
 H308 H 0.85544 -0.07344 0.36299
 H309 H 0.88411 -0.04394 0.40288
 H310 H 0.94986 -0.12008 0.41076
 H311 H 0.92131 -0.14905 0.37034
 C312 C 0.88500 0.11238 0.63959
 C313 C 0.91405 0.12292 0.62946
 C314 C 0.93039 0.10637 0.60640
 C315 C 0.85533 0.14232 0.68502
 C316 C 0.88848 0.06879 0.60329
 C317 C 0.87218 0.08539 0.62633
 C318 C 0.86874 0.12879 0.66415
 C319 C 0.91788 0.07898 0.59319
 H320 H 0.92426 0.14371 0.63967
 H321 H 0.95314 0.11458 0.59949
 H322 H 0.87806 0.04802 0.59331
 H323 H 0.84968 0.07705 0.63398
 C324 C 0.36128 1.10584 0.11522
 C325 C 0.35329 1.07901 0.09826
 C326 C 0.37604 1.06220 0.08201
 C327 C 0.31719 1.13754 0.14455
 C328 C 0.41501 1.09899 0.09968
 C329 C 0.39219 1.11577 0.11598
 C330 C 0.33756 1.12329 0.13139
 C331 C 0.40716 1.07202 0.08248
 H332 H 0.32941 1.07121 0.09739
 H333 H 0.36916 1.04187 0.06857
 H334 H 0.43881 1.10696 0.10072
 H335 H 0.39863 1.13649 0.12907
 C336 C 0.63873 1.11263 -0.10526
 C337 C 0.60784 1.11325 -0.11538
 C338 C 0.58515 1.09663 -0.09880
 C339 C 0.68248 1.14279 -0.13661
 C340 C 0.62420 1.07888 -0.06182
 C341 C 0.64682 1.09546 -0.07844
 C342 C 0.66230 1.12924 -0.12248
 C343 C 0.59310 1.07923 -0.07183
 H344 H 0.60132 1.12651 -0.13610
 H345 H 0.56136 1.09760 -0.10690
 H346 H 0.63116 1.06531 -0.04147
 H347 H 0.67068 1.09470 -0.07048
 C348 C 0.36227 0.89173 -0.11322
 C349 C 0.39315 0.88156 -0.11363
 C350 C 0.41578 0.89804 -0.09692
 C351 C 0.31857 0.86086 -0.14371
 C352 C 0.37665 0.93499 -0.07948
 C353 C 0.35410 0.91848 -0.09615
 C354 C 0.33876 0.87471 -0.12999
 C355 C 0.40776 0.92495 -0.07964
 H356 H 0.39972 0.86089 -0.12682
 H357 H 0.43957 0.88991 -0.09774
 H358 H 0.36964 0.95530 -0.06601
 H359 H 0.33024 0.92647 -0.09557
 C360 C 0.63936 0.88490 0.10962
 C361 C 0.64732 0.90189 0.08265
 C362 C 0.62456 0.91819 0.06590
 C363 C 0.68346 0.85520 0.14100
 C364 C 0.58563 0.90051 0.10304
 C365 C 0.60847 0.88417 0.11976
 C366 C 0.66308 0.86855 0.12692
 C367 C 0.59345 0.91772 0.07592
 H368 H 0.67119 0.90272 0.07468
 H369 H 0.63142 0.93163 0.04544
 H370 H 0.56184 0.89946 0.11115
 H371 H 0.60205 0.87102 0.14058
   
