data_POSCAR
  _audit_creation_date              2014-09-24
  _audit_creation_method            'ToBaCCo'
  _symmetry_space_group_name_H-M    'P1'
  _symmetry_Int_Tables_number       1
  _symmetry_cell_setting            triclinic
  loop_
  _symmetry_equiv_pos_as_xyz
 x,y,z
_cell_length_a 24.5413
_cell_length_b 24.6189
_cell_length_c 24.9505
_cell_angle_alpha 90.304500
_cell_angle_beta 89.574800
_cell_angle_gamma 88.345800
loop_
  _atom_site_label
  _atom_site_type_symbol
  _atom_site_fract_x
  _atom_site_fract_y
  _atom_site_fract_z
C1 C 0.37586 1.00747 -0.55089
 C2 C 0.34690 0.99668 -0.50383
 C3 C 0.37282 0.97976 -0.45731
 C4 C 0.43017 0.97521 -0.45611
 C5 C 0.46113 0.98866 -0.50226
 C6 C 0.43402 1.00379 -0.55046
 C7 C 0.46586 1.01951 -0.59447
 C8 C 0.52280 1.01871 -0.59193
 C9 C 0.55071 1.00206 -0.54530
 C10 C 0.51919 0.98892 -0.49931
 C11 C 0.45722 0.95727 -0.41001
 C12 C 0.51348 0.95861 -0.40674
 C13 C 0.54519 0.97805 -0.44951
 C14 C 0.60198 0.98617 -0.44385
 C15 C 0.63238 0.99830 -0.49008
 C16 C 0.60870 1.00323 -0.54113
 H17 H 0.44703 1.03476 -0.63066
 H18 H 0.54436 1.03447 -0.62611
 H19 H 0.43505 0.94273 -0.37554
 H20 H 0.53149 0.94355 -0.37013
 H21 H 0.30263 1.00018 -0.50356
 H22 H 0.67568 1.00451 -0.48683
 C23 C -0.60689 1.44223 0.01601
 C24 C -0.63856 1.49222 0.03344
 C25 C -0.61645 1.54389 0.03400
 C26 C -0.55956 1.54983 0.02530
 C27 C -0.52636 1.50472 0.00841
 C28 C -0.54849 1.45268 0.00236
 C29 C -0.51575 1.40934 -0.01701
 C30 C -0.46137 1.41626 -0.02927
 C31 C -0.43728 1.46654 -0.02085
 C32 C -0.47006 1.51146 -0.00268
 C33 C -0.53405 1.59932 0.03616
 C34 C -0.47894 1.60604 0.02504
 C35 C -0.44644 1.56286 0.00459
 C36 C -0.39099 1.56935 -0.00912
 C37 C -0.35952 1.52449 -0.02696
 C38 C -0.38128 1.47321 -0.03080
 H39 H -0.53236 1.36958 -0.02318
 H40 H -0.43852 1.38170 -0.04567
 H41 H -0.55626 1.63332 0.05429
 H42 H -0.46206 1.64541 0.03285
 H43 H -0.68160 1.48772 0.04207
 H44 H -0.31637 1.52891 -0.03493
 C45 C 0.02015 0.44797 0.38862
 C46 C 0.02266 0.49756 0.36057
 C47 C 0.02087 0.54782 0.38758
 C48 C 0.01461 0.54915 0.44397
 C49 C 0.01549 0.50024 0.47341
 C50 C 0.02009 0.44971 0.44583
 C51 C 0.02733 0.40232 0.47654
 C52 C 0.02439 0.40382 0.53192
 C53 C 0.01395 0.45281 0.56013
 C54 C 0.01233 0.50189 0.53071
 C55 C 0.00615 0.59849 0.47159
 C56 C 0.00205 0.60014 0.52704
 C57 C 0.00784 0.55257 0.55813
 C58 C 0.00732 0.55427 0.61541
 C59 C 0.00658 0.50458 0.64355
 C60 C 0.00850 0.45385 0.61693
 H61 H 0.03768 0.36323 0.45877
 H62 H 0.03249 0.36567 0.55196
 H63 H 0.00123 0.63663 0.45058
 H64 H -0.00715 0.63960 0.54435
 H65 H 0.02526 0.49802 0.31739
 H66 H 0.00399 0.50511 0.68659
 O67 O -0.13860 0.99776 -0.08290
 O68 O 0.13994 1.01226 -0.06064
 O69 O -0.00304 1.08268 -0.13389
 O70 O 0.01522 0.93315 -0.13852
 O71 O 0.01832 0.86661 -0.07355
 O72 O -0.01734 1.14426 -0.06475
 O73 O 0.07958 1.01034 -0.13099
 O74 O -0.06639 1.00414 -0.14228
 Zr75 Zr 0.00261 1.00640 -0.09342
 O76 O 0.05214 0.95903 -0.04516
 O77 O -0.05529 1.05045 -0.04968
 C78 C -0.11771 1.00059 -0.13098
 C79 C 0.12831 1.01161 -0.11124
 C80 C -0.01214 1.13159 -0.11486
 C81 C 0.02150 0.88305 -0.12256
 H82 H 0.06486 1.08241 -0.06255
 O83 O 0.04247 1.05686 -0.04210
 H84 H -0.06366 0.92894 -0.07793
 O85 O -0.04527 0.95306 -0.05243
 O86 O 0.12801 1.01400 0.08235
 O87 O -0.15009 0.98959 0.06332
 O88 O 0.05276 1.14663 0.01319
 O89 O 0.08105 0.86924 0.00178
 O90 O -0.06575 0.85957 -0.00861
 O91 O -0.09159 1.13659 -0.00164
 O92 O -0.01991 1.07347 0.14228
 O93 O -0.01224 0.92372 0.13721
 O94 O -0.02477 1.13978 0.07720
 O95 O -0.00367 0.86149 0.06784
 O96 O 0.12611 1.08600 0.01365
 O97 O -0.15190 1.06711 -0.00910
 O98 O -0.13768 0.92190 -0.01187
 O99 O 0.14076 0.93959 0.00790
 O100 O 0.05912 1.00449 0.14496
 O101 O -0.09015 0.99304 0.13435
 Zr102 Zr 0.08940 1.00959 0.00810
 Zr103 Zr -0.10063 0.99713 -0.00616
 Zr104 Zr -0.01494 1.09715 0.00473
 Zr105 Zr 0.00350 0.90860 -0.00141
 Zr106 Zr -0.01257 0.99993 0.09700
 O107 O -0.05367 0.94993 0.04493
 O108 O 0.03499 1.05363 0.05556
 C109 C 0.10985 1.01119 0.13096
 C110 C -0.13873 0.98910 0.11417
 C111 C 0.10437 1.13466 0.01524
 C112 C 0.12962 0.88858 0.00472
 C113 C -0.11719 0.87298 -0.01236
 C114 C -0.14001 1.11796 -0.00734
 C115 C -0.02454 1.12371 0.12643
 C116 C -0.01040 0.87449 0.11776
 H117 H -0.09010 1.06778 0.06962
 O118 O -0.06287 1.04657 0.04817
 H119 H 0.06756 0.93328 0.07605
 O120 O 0.04432 0.95594 0.05228
 C121 C 0.34346 1.02309 0.40535
 C122 C 0.34459 0.99572 0.35619
 C123 C 0.29511 0.99457 0.32210
 C124 C 0.30050 0.98960 0.26635
 C125 C 0.25421 0.98907 0.23383
 C126 C 0.20135 0.99316 0.25648
 C127 C 0.19599 0.99532 0.31235
 C128 C 0.24223 0.99598 0.34483
 C129 C 0.15168 0.99419 0.22262
 C130 C 0.15260 1.01651 0.17152
 H131 H 0.37989 0.97084 0.34458
 H132 H 0.34058 0.98666 0.24790
 H133 H 0.26005 0.98477 0.19098
 H134 H 0.15594 0.99717 0.33093
 H135 H 0.23628 0.99673 0.38784
 H136 H 0.11429 0.97772 0.23811
 H137 H 0.30631 1.04618 0.41475
 H138 H 0.18953 1.03540 0.15801
 C139 C -0.35434 1.01095 0.41584
 C140 C -0.35866 0.98883 0.36414
 C141 C -0.31324 0.98988 0.32401
 C142 C -0.32499 0.98659 0.26910
 C143 C -0.28307 0.98648 0.23044
 C144 C -0.22800 0.98900 0.24593
 C145 C -0.21642 0.99147 0.30093
 C146 C -0.25821 0.99169 0.33942
 C147 C -0.18139 0.98986 0.20703
 C148 C -0.18587 0.98484 0.15128
 H149 H -0.39471 0.96716 0.35322
 H150 H -0.36688 0.98460 0.25602
 H151 H -0.29446 0.98470 0.18878
 H152 H -0.17461 0.99289 0.31437
 H153 H -0.24678 0.99197 0.38118
 H154 H -0.14113 0.99536 0.22337
 H155 H -0.31588 1.02876 0.42578
 H156 H -0.22518 0.97881 0.13336
 C157 C -0.37312 0.98607 -0.39252
 C158 C -0.31702 0.97961 -0.38341
 C159 C -0.29231 0.98137 -0.32922
 C160 C -0.24149 0.95514 -0.32170
 C161 C -0.21542 0.95738 -0.27224
 C162 C -0.23904 0.98693 -0.22912
 C163 C -0.29053 1.01207 -0.23594
 C164 C -0.31681 1.00979 -0.28565
 C165 C -0.20930 0.99317 -0.17791
 C166 C -0.15283 0.99776 -0.17839
 H167 H -0.29010 0.96788 -0.41622
 H168 H -0.22173 0.93285 -0.35433
 H169 H -0.17654 0.93601 -0.26792
 H170 H -0.30955 1.03505 -0.20335
 H171 H -0.35533 1.03169 -0.29009
 H172 H -0.23183 0.99708 -0.14053
 H173 H -0.39867 0.99051 -0.35735
 H174 H -0.13203 0.99882 -0.21682
 C175 C 0.33738 0.96875 -0.41090
 C176 C 0.33794 1.00144 -0.36515
 C177 C 0.29456 1.00121 -0.32364
 C178 C 0.30534 1.02211 -0.27251
 C179 C 0.26466 1.02431 -0.23291
 C180 C 0.21212 1.00595 -0.24404
 C181 C 0.20119 0.98595 -0.29543
 C182 C 0.24179 0.98360 -0.33485
 C183 C 0.16711 1.00845 -0.20426
 C184 C 0.17459 1.01249 -0.14900
 H185 H 0.37090 1.02939 -0.36032
 H186 H 0.34531 1.03702 -0.26327
 H187 H 0.27438 1.04149 -0.19431
 H188 H 0.16088 0.97227 -0.30527
 H189 H 0.23093 0.96936 -0.37429
 H190 H 0.12609 1.00430 -0.21924
 H191 H 0.30522 0.94027 -0.41683
 H192 H 0.21515 1.01399 -0.13252
 C193 C 0.36546 1.38085 0.01127
 C194 C 0.31217 1.37610 -0.00554
 C195 C 0.28517 1.32351 -0.00707
 C196 C 0.23110 1.32267 -0.02440
 C197 C 0.20232 1.27487 -0.02229
 C198 C 0.22697 1.22697 -0.00219
 C199 C 0.28206 1.22682 0.01216
 C200 C 0.31107 1.27487 0.01001
 C201 C 0.19529 1.17745 0.00438
 C202 C 0.14002 1.18108 0.01730
 H203 H 0.28906 1.41245 -0.01680
 H204 H 0.21069 1.35936 -0.03868
 H205 H 0.16060 1.27568 -0.03611
 H206 H 0.30206 1.19003 0.02676
 H207 H 0.35313 1.27412 0.02285
 H208 H 0.21562 1.13807 -0.00049
 H209 H 0.37935 1.41163 0.01365
 H210 H 0.12084 1.22051 0.02523
 C211 C 0.34571 0.58746 0.04047
 C212 C 0.34761 0.63515 0.01057
 C213 C 0.30196 0.67554 0.00905
 C214 C 0.31304 0.72946 -0.00376
 C215 C 0.27085 0.76861 -0.00674
 C216 C 0.21651 0.75430 0.00281
 C217 C 0.20532 0.69998 0.01396
 C218 C 0.24750 0.66092 0.01708
 C219 C 0.17040 0.79420 0.00042
 C220 C 0.17643 0.85012 0.00544
 H221 H 0.38219 0.64219 -0.01536
 H222 H 0.35454 0.74132 -0.01141
 H223 H 0.28114 0.80956 -0.01743
 H224 H 0.16373 0.68768 0.02031
 H225 H 0.23692 0.61929 0.02449
 H226 H 0.12971 0.77863 -0.00304
 H227 H 0.30851 0.57981 0.06235
 H228 H 0.21628 0.86668 0.01134
 C229 C -0.36270 0.62098 -0.00278
 C230 C -0.32789 0.63796 -0.04328
 C231 C -0.28216 0.67373 -0.03350
 C232 C -0.26449 0.70707 -0.07501
 C233 C -0.21957 0.73955 -0.06776
 C234 C -0.19081 0.73802 -0.01930
 C235 C -0.20685 0.70288 0.02142
 C236 C -0.25269 0.67124 0.01465
 C237 C -0.14693 0.77615 -0.00978
 C238 C -0.15670 0.83070 -0.02069
 H239 H -0.33163 0.62070 -0.08312
 H240 H -0.28590 0.70843 -0.11283
 H241 H -0.20742 0.76619 -0.09986
 H242 H -0.18493 0.70117 0.05893
 H243 H -0.26442 0.64416 0.04646
 H244 H -0.10988 0.76266 0.01017
 H245 H -0.36394 0.64156 0.03568
 H246 H -0.19669 0.84366 -0.03485
 C247 C -0.34274 1.42745 -0.04112
 C248 C -0.33918 1.38424 -0.00547
 C249 C -0.29767 1.34030 -0.01017
 C250 C -0.30904 1.28934 0.01122
 C251 C -0.27000 1.24712 0.00890
 C252 C -0.21878 1.25549 -0.01473
 C253 C -0.20714 1.30677 -0.03526
 C254 C -0.24624 1.34888 -0.03314
 C255 C -0.17543 1.21300 -0.01561
 C256 C -0.18525 1.15775 -0.01116
 H257 H -0.36886 1.38200 0.02684
 H258 H -0.34818 1.28226 0.02992
 H259 H -0.27967 1.20871 0.02695
 H260 H -0.16749 1.31442 -0.05257
 H261 H -0.23541 1.38830 -0.04813
 H262 H -0.13388 1.22596 -0.02063
 H263 H -0.31303 1.43138 -0.07312
 H264 H -0.22642 1.14319 -0.01095
 C265 C 0.01527 1.39762 0.36119
 C266 C 0.02546 1.38757 0.30670
 C267 C 0.02001 1.33265 0.28260
 C268 C 0.00718 1.32841 0.22817
 C269 C 0.00137 1.27755 0.20411
 C270 C 0.00859 1.22947 0.23395
 C271 C 0.02336 1.23350 0.28796
 C272 C 0.02882 1.28452 0.31221
 C273 C 0.00355 1.17524 0.20840
 C274 C -0.03180 1.16774 0.16578
 H275 H 0.03710 1.41983 0.28019
 H276 H 0.00128 1.36464 0.20420
 H277 H -0.00767 1.27612 0.16176
 H278 H 0.03035 1.19713 0.31148
 H279 H 0.04094 1.28594 0.35380
 H280 H 0.02996 1.14188 0.22128
 H281 H 0.00069 1.36349 0.38341
 H282 H -0.05902 1.20105 0.15432
 C283 C 0.00304 1.40465 -0.35441
 C284 C 0.01676 1.39604 -0.30069
 C285 C 0.01551 1.34134 -0.27563
 C286 C 0.01165 1.33784 -0.21971
 C287 C 0.01040 1.28729 -0.19455
 C288 C 0.01290 1.23873 -0.22480
 C289 C 0.01894 1.24204 -0.28056
 C290 C 0.02021 1.29271 -0.30581
 C291 C 0.01082 1.18471 -0.19857
 C292 C -0.01792 1.17842 -0.15082
 H293 H 0.03052 1.42921 -0.27614
 H294 H 0.00938 1.37441 -0.19536
 H295 H 0.00834 1.28653 -0.15123
 H296 H 0.02217 1.20536 -0.30469
 H297 H 0.02597 1.29327 -0.34880
 H298 H 0.03268 1.15020 -0.21638
 H299 H -0.01233 1.37015 -0.37566
 H300 H -0.04145 1.21283 -0.13502
 C301 C 0.00946 0.60477 -0.35676
 C302 C -0.00314 0.61428 -0.30256
 C303 C -0.00193 0.66959 -0.27848
 C304 C 0.01033 0.67509 -0.22401
 C305 C 0.01186 0.72652 -0.20010
 C306 C 0.00069 0.77383 -0.23016
 C307 C -0.01347 0.76828 -0.28419
 C308 C -0.01455 0.71676 -0.30827
 C309 C 0.00059 0.82861 -0.20487
 C310 C 0.03399 0.83963 -0.16152
 H311 H -0.01430 0.58160 -0.27635
 H312 H 0.01903 0.63946 -0.19989
 H313 H 0.02057 0.72889 -0.15772
 H314 H -0.02353 0.80389 -0.30786
 H315 H -0.02640 0.71403 -0.34986
 H316 H -0.02821 0.85959 -0.21862
 H317 H 0.02305 0.63977 -0.37821
 H318 H 0.06360 0.80887 -0.14906
 C319 C 0.02853 0.59898 0.35733
 C320 C 0.00210 0.61096 0.30936
 C321 C 0.00549 0.66449 0.28252
 C322 C -0.00356 0.66738 0.22725
 C323 C -0.00214 0.71710 0.20059
 C324 C 0.00699 0.76571 0.22890
 C325 C 0.01678 0.76276 0.28416
 C326 C 0.01570 0.71281 0.31085
 C327 C 0.00770 0.81930 0.20146
 C328 C -0.01900 0.82798 0.15305
 H329 H -0.02199 0.58006 0.29062
 H330 H -0.01116 0.63086 0.20441
 H331 H -0.00739 0.71677 0.15762
 H332 H 0.02438 0.79933 0.30690
 H333 H 0.02159 0.71256 0.35376
 H334 H 0.03039 0.85196 0.21903
 H335 H 0.05415 0.62905 0.37507
 H336 H -0.04312 0.79608 0.13630
   
