data_POSCAR
  _audit_creation_date              2014-09-24
  _audit_creation_method            'ToBaCCo'
  _symmetry_space_group_name_H-M    'P1'
  _symmetry_Int_Tables_number       1
  _symmetry_cell_setting            triclinic
  loop_
  _symmetry_equiv_pos_as_xyz
 x,y,z
_cell_length_a 38.2030
_cell_length_b 38.3042
_cell_length_c 37.8634
_cell_angle_alpha 89.947600
_cell_angle_beta 90.107500
_cell_angle_gamma 90.002800
loop_
  _atom_site_label
  _atom_site_type_symbol
  _atom_site_fract_x
  _atom_site_fract_y
  _atom_site_fract_z
O1 O 0.32645 0.37389 0.03342
 O2 O 0.37466 0.32412 -0.03143
 O3 O 0.32716 0.37203 -0.03375
 O4 O 0.37349 0.32558 0.03582
 O5 O 0.33326 0.28417 0.03669
 O6 O 0.28439 0.33329 -0.03273
 O7 O 0.33414 0.28319 -0.03224
 O8 O 0.28453 0.33435 0.03526
 Cu9 Cu 0.35444 0.35272 0.00094
 Cu10 Cu 0.30491 0.30445 0.00167
 C11 C 0.29685 0.36386 0.04455
 C12 C 0.36383 0.29475 -0.04216
 C13 C 0.29700 0.36213 -0.04363
 C14 C 0.36237 0.29653 0.04728
 O15 O 0.67481 0.62867 0.03381
 O16 O 0.62746 0.67597 -0.03425
 O17 O 0.67433 0.62820 -0.03361
 O18 O 0.62796 0.67750 0.03292
 O19 O 0.66838 0.71851 0.03277
 O20 O 0.71658 0.66722 -0.03630
 O21 O 0.66798 0.71710 -0.03580
 O22 O 0.71762 0.66739 0.03274
 Cu23 Cu 0.64723 0.64873 -0.00001
 Cu24 Cu 0.69702 0.69667 -0.00147
 C25 C 0.70490 0.63861 0.04368
 C26 C 0.63859 0.70496 -0.04583
 C27 C 0.70332 0.63830 -0.04628
 C28 C 0.63882 0.70703 0.04321
 O29 O 0.67376 0.36999 0.96541
 O30 O 0.62566 0.32298 1.03308
 O31 O 0.67223 0.37081 1.03289
 O32 O 0.62662 0.32115 0.96599
 O33 O 0.66679 0.27990 0.96735
 O34 O 0.71453 0.33188 1.03619
 O35 O 0.66631 0.28202 1.03576
 O36 O 0.71626 0.33096 0.96691
 Cu37 Cu 0.64567 0.35011 0.99891
 Cu38 Cu 0.69540 0.30212 1.00138
 C39 C 0.70377 0.35976 0.95568
 C40 C 0.63684 0.29426 1.04535
 C41 C 0.70109 0.36075 1.04599
 C42 C 0.63735 0.29135 0.95643
 O43 O 0.37295 0.67628 1.03239
 O44 O 0.32561 0.62826 0.96513
 O45 O 0.37215 0.67653 0.96520
 O46 O 0.32487 0.62853 1.03246
 O47 O 0.28277 0.66780 1.03353
 O48 O 0.33234 0.71835 0.96559
 O49 O 0.28346 0.66773 0.96470
 O50 O 0.33269 0.71749 1.03369
 Cu51 Cu 0.35280 0.64850 0.99893
 Cu52 Cu 0.30346 0.69694 0.99941
 C53 C 0.36234 0.70565 1.04341
 C54 C 0.29608 0.63874 0.95420
 C55 C 0.36158 0.70627 0.95511
 C56 C 0.29524 0.63859 1.04361
 O57 O -0.03376 0.37130 0.32221
 O58 O 0.03355 0.32621 0.37185
 O59 O 0.03276 0.37300 0.32275
 O60 O -0.03322 0.32370 0.37008
 O61 O -0.03166 0.28190 0.33002
 O62 O 0.03623 0.33274 0.28129
 O63 O 0.03652 0.28422 0.33220
 O64 O -0.03125 0.33199 0.27964
 Cu65 Cu -0.00033 0.35242 0.35070
 Cu66 Cu 0.00255 0.30335 0.30164
 C67 C -0.04267 0.36083 0.29178
 C68 C 0.04582 0.29719 0.36173
 C69 C 0.04486 0.36249 0.29347
 C70 C -0.04291 0.29392 0.35924
 O71 O 0.03460 0.67684 0.63220
 O72 O -0.03193 0.62824 0.67934
 O73 O -0.03205 0.67470 0.63088
 O74 O 0.03481 0.62855 0.68003
 O75 O 0.03319 0.66790 0.72257
 O76 O -0.03503 0.71648 0.67067
 O77 O -0.03512 0.66809 0.72116
 O78 O 0.03361 0.71860 0.67231
 Cu79 Cu 0.00168 0.64822 0.65172
 Cu80 Cu -0.00068 0.69706 0.70091
 C81 C 0.04455 0.70652 0.64299
 C82 C -0.04472 0.63893 0.70825
 C83 C -0.04477 0.70348 0.64124
 C84 C 0.04427 0.63894 0.71030
 O85 O 0.96397 0.67660 0.37175
 O86 O 1.02679 0.62544 0.32191
 O87 O 1.03029 0.66975 0.37245
 O88 O 0.96013 0.62843 0.32416
 O89 O 0.96348 0.66785 0.28169
 O90 O 1.03404 0.71260 0.33384
 O91 O 1.03140 0.66653 0.28137
 O92 O 0.96563 0.71846 0.33166
 Cu93 Cu 0.99489 0.64613 0.35140
 Cu94 Cu 0.99864 0.69578 0.30306
 C95 C 0.95492 0.70668 0.36116
 C96 C 1.03951 0.63646 0.29304
 C97 C 1.04373 0.69842 0.36278
 C98 C 0.95114 0.63937 0.29395
 O99 O 0.96081 0.32749 0.63109
 O100 O 1.03436 0.36947 0.67373
 O101 O 1.02775 0.31977 0.62774
 O102 O 0.96796 0.37251 0.68017
 O103 O 0.96479 0.33071 0.72020
 O104 O 1.03276 0.28084 0.67046
 O105 O 1.03368 0.33189 0.71778
 O106 O 0.96529 0.28251 0.66722
 Cu107 Cu 0.99786 0.35110 0.64920
 Cu108 Cu 0.99873 0.30240 0.69842
 C109 C 0.95258 0.29660 0.63945
 C110 C 1.04551 0.35973 0.70366
 C111 C 1.04055 0.29144 0.63961
 C112 C 0.95626 0.36098 0.70924
 O113 O 0.37135 0.03406 0.32754
 O114 O 0.32138 -0.03366 0.37175
 O115 O 0.37082 -0.03226 0.32494
 O116 O 0.32438 0.03335 0.37568
 O117 O 0.28183 0.03493 0.33624
 O118 O 0.33210 -0.02956 0.28180
 O119 O 0.28094 -0.03300 0.33001
 O120 O 0.33120 0.03800 0.28566
 Cu121 Cu 0.35074 -0.00005 0.35409
 Cu122 Cu 0.30225 0.00293 0.30422
 C123 C 0.36070 0.04679 0.29854
 C124 C 0.29252 -0.04451 0.35929
 C125 C 0.36099 -0.04093 0.29418
 C126 C 0.29472 0.04447 0.36581
 O127 O 0.67881 -0.03378 0.63090
 O128 O 0.63068 0.03484 0.67457
 O129 O 0.67914 0.03244 0.62781
 O130 O 0.63024 -0.03177 0.67784
 O131 O 0.66978 -0.03112 0.72044
 O132 O 0.71949 0.03629 0.66935
 O133 O 0.66902 0.03733 0.71806
 O134 O 0.72083 -0.03103 0.67097
 Cu135 Cu 0.65081 0.00021 0.64883
 Cu136 Cu 0.69883 0.00288 0.69925
 C137 C 0.70887 -0.04263 0.64183
 C138 C 0.64042 0.04728 0.70397
 C139 C 0.70792 0.04472 0.63894
 C140 C 0.64071 -0.04184 0.70792
 O141 O 0.32266 1.03296 0.62654
 O142 O 0.37164 0.96432 0.66956
 O143 O 0.32391 0.96569 0.62240
 O144 O 0.37095 1.03043 0.67452
 O145 O 0.33193 1.02697 0.71735
 O146 O 0.28187 0.96325 0.66223
 O147 O 0.33195 0.95953 0.71149
 O148 O 0.28215 1.03211 0.66803
 Cu149 Cu 0.35100 0.99883 0.64409
 Cu150 Cu 0.30258 0.99513 0.69387
 C151 C 0.29423 1.04437 0.63924
 C152 C 0.36121 0.95065 0.69811
 C153 C 0.29469 0.95380 0.63270
 C154 C 0.36078 1.03855 0.70532
 O155 O 0.62727 0.96668 0.32593
 O156 O 0.67616 1.03029 0.37642
 O157 O 0.62804 1.03308 0.32868
 O158 O 0.67546 0.96390 0.37398
 O159 O 0.71709 0.96476 0.33359
 O160 O 0.66759 1.03475 0.28623
 O161 O 0.71743 1.03273 0.33597
 O162 O 0.66679 0.96707 0.28361
 Cu163 Cu 0.64785 0.99830 0.35523
 Cu164 Cu 0.69645 0.99984 0.30559
 C165 C 0.63736 0.95698 0.29566
 C166 C 0.70550 1.04177 0.36602
 C167 C 0.63860 1.04484 0.29926
 C168 C 0.70493 0.95357 0.36279
 C169 C 0.88566 0.77902 0.47066
 C170 C 0.89653 0.76590 0.50349
 C171 C 0.88211 0.77566 0.53610
 C172 C 0.85782 0.80369 0.53591
 C173 C 0.84407 0.81597 0.50306
 C174 C 0.85641 0.80184 0.47052
 C175 C 0.83796 0.80969 0.43944
 C176 C 0.81120 0.83428 0.43924
 C177 C 0.80208 0.85253 0.46996
 C178 C 0.81743 0.84205 0.50273
 C179 C 0.84673 0.81984 0.56709
 C180 C 0.81998 0.84432 0.56691
 C181 C 0.80553 0.85679 0.53522
 C182 C 0.77818 0.88192 0.53475
 C183 C 0.76108 0.88757 0.50244
 C184 C 0.77544 0.87826 0.46980
 H185 H 0.84260 0.79566 0.41523
 H186 H 0.79652 0.83728 0.41506
 H187 H 0.85876 0.81442 0.59218
 H188 H 0.81007 0.85191 0.59231
 H189 H 0.91676 0.74634 0.50379
 H190 H 0.73666 0.90191 0.50232
 C191 C 0.23168 0.13149 0.53730
 C192 C 0.24714 0.12248 0.50507
 C193 C 0.22941 0.12533 0.47268
 C194 C 0.20010 0.14830 0.47152
 C195 C 0.18757 0.16361 0.50352
 C196 C 0.20387 0.15560 0.53641
 C197 C 0.19463 0.17495 0.56630
 C198 C 0.16633 0.19769 0.56557
 C199 C 0.14607 0.20181 0.53492
 C200 C 0.15889 0.18732 0.50272
 C201 C 0.18397 0.15790 0.43962
 C202 C 0.15550 0.18056 0.43898
 C203 C 0.14370 0.19710 0.46977
 C204 C 0.11692 0.22277 0.46923
 C205 C 0.10122 0.23134 0.50159
 C206 C 0.11448 0.22128 0.53465
 H207 H 0.21056 0.17445 0.58989
 H208 H 0.16193 0.21331 0.58879
 H209 H 0.19364 0.14911 0.41445
 H210 H 0.14239 0.18398 0.41401
 H211 H 0.27211 0.10920 0.50620
 H212 H 0.07860 0.24829 0.50093
 C213 C 0.11818 0.77361 0.53270
 C214 C 0.10752 0.75838 0.50072
 C215 C 0.12111 0.76697 0.46740
 C216 C 0.14531 0.79505 0.46593
 C217 C 0.15943 0.80894 0.49794
 C218 C 0.14714 0.79681 0.53139
 C219 C 0.16538 0.80693 0.56190
 C220 C 0.19216 0.83151 0.56044
 C221 C 0.20190 0.84710 0.52839
 C222 C 0.18634 0.83471 0.49646
 C223 C 0.15633 0.80939 0.43378
 C224 C 0.18355 0.83325 0.43231
 C225 C 0.19821 0.84738 0.46303
 C226 C 0.22602 0.87190 0.46181
 C227 C 0.24375 0.87876 0.49352
 C228 C 0.22912 0.87222 0.52674
 H229 H 0.16065 0.79463 0.58705
 H230 H 0.20636 0.83674 0.58456
 H231 H 0.14430 0.80264 0.40905
 H232 H 0.19405 0.83846 0.40656
 H233 H 0.08736 0.73880 0.50191
 H234 H 0.26821 0.89300 0.49215
 C235 C 0.87989 0.22887 0.52814
 C236 C 0.88424 0.24469 0.49504
 C237 C 0.87927 0.22656 0.46332
 C238 C 0.85658 0.19729 0.46419
 C239 C 0.84526 0.18392 0.49748
 C240 C 0.85788 0.19902 0.52954
 C241 C 0.84723 0.18443 0.56177
 C242 C 0.82558 0.15534 0.56285
 C243 C 0.81045 0.14169 0.53207
 C244 C 0.82129 0.15540 0.49872
 C245 C 0.84321 0.18228 0.43326
 C246 C 0.82141 0.15333 0.43448
 C247 C 0.80850 0.14051 0.46661
 C248 C 0.78475 0.11207 0.46801
 C249 C 0.77935 0.09639 0.50103
 C250 C 0.78670 0.11325 0.53307
 H251 H 0.85508 0.19537 0.58679
 H252 H 0.82226 0.14302 0.58816
 H253 H 0.84814 0.19328 0.40759
 H254 H 0.81589 0.14071 0.40971
 H255 H 0.89497 0.27075 0.49344
 H256 H 0.76520 0.07187 0.50200
 C257 C 0.53275 0.77298 0.87620
 C258 C 0.50041 0.75818 0.88492
 C259 C 0.46840 0.77508 0.87896
 C260 C 0.46815 0.80246 0.85360
 C261 C 0.50050 0.81454 0.83908
 C262 C 0.53289 0.79959 0.85025
 C263 C 0.56364 0.80914 0.83250
 C264 C 0.56369 0.83587 0.80764
 C265 C 0.53281 0.85361 0.79880
 C266 C 0.50043 0.84091 0.81251
 C267 C 0.43687 0.81681 0.84070
 C268 C 0.43695 0.84329 0.81569
 C269 C 0.46800 0.85412 0.79939
 C270 C 0.46806 0.87748 0.77028
 C271 C 0.50042 0.89178 0.76030
 C272 C 0.53271 0.88233 0.77516
 H273 H 0.58771 0.79483 0.83605
 H274 H 0.58793 0.84095 0.79400
 H275 H 0.41162 0.80698 0.84825
 H276 H 0.41213 0.85519 0.80989
 H277 H 0.50049 0.73374 0.89931
 H278 H 0.50047 0.91136 0.73985
 C279 C 0.53249 0.12489 0.23369
 C280 C 0.50026 0.11666 0.24923
 C281 C 0.46797 0.12534 0.23400
 C282 C 0.46777 0.15176 0.20781
 C283 C 0.50012 0.16400 0.19369
 C284 C 0.53258 0.15122 0.20728
 C285 C 0.56354 0.16803 0.19700
 C286 C 0.56343 0.19362 0.17093
 C287 C 0.53235 0.20361 0.15392
 C288 C 0.49999 0.19024 0.16697
 C289 C 0.43685 0.16914 0.19826
 C290 C 0.43672 0.19471 0.17222
 C291 C 0.46751 0.20413 0.15455
 C292 C 0.46754 0.23003 0.12778
 C293 C 0.49980 0.24498 0.11896
 C294 C 0.53203 0.22952 0.12717
 H295 H 0.58791 0.16358 0.21071
 H296 H 0.58771 0.20721 0.16629
 H297 H 0.41275 0.16506 0.21249
 H298 H 0.41257 0.20875 0.16815
 H299 H 0.50028 0.10079 0.27293
 H300 H 0.49976 0.26832 0.10277
 C301 C 0.53161 0.21020 0.89090
 C302 C 0.49936 0.21928 0.90586
 C303 C 0.46709 0.21328 0.88902
 C304 C 0.46658 0.18869 0.86088
 C305 C 0.49885 0.17491 0.84799
 C306 C 0.53130 0.18496 0.86372
 C307 C 0.56164 0.16669 0.85436
 C308 C 0.56167 0.14366 0.82609
 C309 C 0.53117 0.13762 0.80635
 C310 C 0.49876 0.15044 0.81967
 C311 C 0.43525 0.17567 0.84663
 C312 C 0.43519 0.15247 0.81839
 C313 C 0.46641 0.13837 0.80525
 C314 C 0.46681 0.11265 0.77818
 C315 C 0.49908 0.10603 0.76188
 C316 C 0.53147 0.11794 0.77471
 H317 H 0.58527 0.16855 0.86992
 H318 H 0.58553 0.12951 0.82114
 H319 H 0.41018 0.18168 0.85796
 H320 H 0.41017 0.14645 0.80680
 H321 H 0.49975 0.23474 0.92982
 H322 H 0.49898 0.08946 0.73891
 C323 C 0.53130 0.89356 0.21323
 C324 C 0.49893 0.90856 0.22181
 C325 C 0.46666 0.89362 0.21259
 C326 C 0.46684 0.86759 0.18594
 C327 C 0.49942 0.85388 0.17372
 C328 C 0.53168 0.86782 0.18643
 C329 C 0.56268 0.85853 0.16905
 C330 C 0.56304 0.83252 0.14351
 C331 C 0.53240 0.81465 0.13415
 C332 C 0.49979 0.82715 0.14756
 C333 C 0.43619 0.85778 0.16814
 C334 C 0.43652 0.83165 0.14268
 C335 C 0.46754 0.81416 0.13380
 C336 C 0.46798 0.78692 0.10853
 C337 C 0.50041 0.77795 0.09380
 C338 C 0.53265 0.78751 0.10871
 H339 H 0.58662 0.87294 0.17302
 H340 H 0.58722 0.82856 0.12942
 H341 H 0.41204 0.87194 0.17159
 H342 H 0.41256 0.82731 0.12824
 H343 H 0.49883 0.93137 0.23872
 H344 H 0.50058 0.76079 0.07106
 C345 C 0.77404 0.46781 0.88255
 C346 C 0.76016 0.50026 0.89252
 C347 C 0.77323 0.53261 0.88099
 C348 C 0.80353 0.53209 0.85947
 C349 C 0.81482 0.49988 0.84444
 C350 C 0.79906 0.46777 0.85492
 C351 C 0.80771 0.43732 0.83628
 C352 C 0.83435 0.43730 0.81120
 C353 C 0.85354 0.46769 0.80383
 C354 C 0.84209 0.49984 0.81893
 C355 C 0.82383 0.56202 0.85349
 C356 C 0.85040 0.56201 0.82845
 C357 C 0.85774 0.53204 0.80857
 C358 C 0.88128 0.53249 0.77977
 C359 C 0.89404 0.50021 0.76791
 C360 C 0.88279 0.46771 0.78074
 H361 H 0.79305 0.41348 0.83974
 H362 H 0.83861 0.41347 0.79667
 H363 H 0.82039 0.58540 0.86891
 H364 H 0.86595 0.58538 0.82594
 H365 H 0.73847 0.50034 0.91073
 H366 H 0.91377 0.50047 0.74754
 C367 C 0.11042 0.46849 0.21348
 C368 C 0.09479 0.50038 0.22215
 C369 C 0.10959 0.53283 0.21385
 C370 C 0.13601 0.53351 0.18763
 C371 C 0.15024 0.50142 0.17499
 C372 C 0.13658 0.46884 0.18709
 C373 C 0.14640 0.43832 0.16932
 C374 C 0.17250 0.43876 0.14388
 C375 C 0.19002 0.46972 0.13511
 C376 C 0.17709 0.50186 0.14895
 C377 C 0.14569 0.56456 0.17059
 C378 C 0.17191 0.56499 0.14516
 C379 C 0.18968 0.53441 0.13562
 C380 C 0.21676 0.53461 0.11005
 C381 C 0.22617 0.50249 0.09506
 C382 C 0.21723 0.47017 0.10982
 H383 H 0.13223 0.41421 0.17277
 H384 H 0.17681 0.41491 0.12941
 H385 H 0.13135 0.58847 0.17457
 H386 H 0.17595 0.58918 0.13120
 H387 H 0.07145 0.49987 0.23837
 H388 H 0.24313 0.50268 0.07215
 C389 C 0.77437 0.52982 0.11653
 C390 C 0.76017 0.49741 0.10708
 C391 C 0.77137 0.46516 0.12072
 C392 C 0.80079 0.46557 0.14375
 C393 C 0.81346 0.49814 0.15696
 C394 C 0.79874 0.53020 0.14476
 C395 C 0.80755 0.56115 0.16241
 C396 C 0.83325 0.56159 0.18840
 C397 C 0.85166 0.53121 0.19751
 C398 C 0.84069 0.49869 0.18276
 C399 C 0.81789 0.43492 0.15422
 C400 C 0.84350 0.43527 0.18027
 C401 C 0.85606 0.46668 0.19451
 C402 C 0.88202 0.46735 0.22148
 C403 C 0.88801 0.49945 0.23820
 C404 C 0.87828 0.53161 0.22356
 H405 H 0.79343 0.58512 0.15776
 H406 H 0.83706 0.58575 0.20250
 H407 H 0.81230 0.41008 0.14234
 H408 H 0.85194 0.41021 0.18979
 H409 H 0.73922 0.49725 0.08803
 H410 H 0.90240 0.49974 0.26284
 C411 C 0.12068 0.46511 0.77636
 C412 C 0.10549 0.49727 0.76711
 C413 C 0.11627 0.52977 0.78031
 C414 C 0.14618 0.53002 0.80257
 C415 C 0.15951 0.49787 0.81620
 C416 C 0.14589 0.46534 0.80395
 C417 C 0.15803 0.43453 0.81972
 C418 C 0.18560 0.43485 0.84366
 C419 C 0.19991 0.46625 0.85610
 C420 C 0.18696 0.49831 0.84179
 C421 C 0.16425 0.56095 0.81039
 C422 C 0.19170 0.56126 0.83451
 C423 C 0.20192 0.53081 0.85233
 C424 C 0.22913 0.53117 0.87774
 C425 C 0.24460 0.49913 0.88638
 C426 C 0.22801 0.46692 0.88082
 H427 H 0.14622 0.40961 0.81445
 H428 H 0.19619 0.40982 0.85086
 H429 H 0.15863 0.58504 0.79675
 H430 H 0.20594 0.58541 0.83755
 H431 H 0.08477 0.49685 0.74784
 H432 H 0.26930 0.49960 0.90042
 C433 C 0.27512 0.38977 0.06503
 C434 C 0.29585 0.42306 0.07396
 C435 C 0.27682 0.44786 0.09035
 C436 C 0.23791 0.43848 0.09585
 C437 C 0.22437 0.42751 0.05932
 C438 C 0.24358 0.40229 0.04340
 C439 C 0.25977 0.37831 0.10073
 C440 C 0.24074 0.40399 0.11726
 H441 H 0.32394 0.42593 0.07076
 H442 H 0.28923 0.47099 0.10116
 H443 H 0.20096 0.43832 0.04724
 H444 H 0.23644 0.39160 0.01783
 H445 H 0.26586 0.35356 0.11327
 H446 H 0.23227 0.40102 0.14441
 C447 C 0.72603 0.61279 0.06479
 C448 C 0.76367 0.62241 0.07600
 C449 C 0.78112 0.59573 0.09280
 C450 C 0.75902 0.56214 0.09749
 C451 C 0.72515 0.57434 0.11566
 C452 C 0.70809 0.60066 0.09876
 C453 C 0.73046 0.57967 0.04268
 C454 C 0.74843 0.55402 0.05893
 H455 H 0.77612 0.64708 0.06960
 H456 H 0.80867 0.59768 0.09949
 H457 H 0.71571 0.56344 0.14035
 H458 H 0.68420 0.61217 0.10898
 H459 H 0.72115 0.57688 0.01576
 H460 H 0.75651 0.53098 0.04437
 C461 C 0.72509 0.38526 0.93432
 C462 C 0.76200 0.37472 0.92175
 C463 C 0.77964 0.40113 0.90473
 C464 C 0.75842 0.43545 0.90126
 C465 C 0.72361 0.42453 0.88401
 C466 C 0.70638 0.39846 0.90108
 C467 C 0.73133 0.41788 0.95677
 C468 C 0.74937 0.44330 0.94024
 H469 H 0.77395 0.34965 0.92748
 H470 H 0.80691 0.39848 0.89730
 H471 H 0.71367 0.43605 0.85978
 H472 H 0.68183 0.38780 0.89142
 H473 H 0.72318 0.42045 0.98406
 H474 H 0.75825 0.46616 0.95465
 C475 C 0.27556 0.61340 0.93201
 C476 C 0.29468 0.60200 0.89840
 C477 C 0.27826 0.57605 0.88034
 C478 C 0.24389 0.56346 0.89711
 C479 C 0.25329 0.55444 0.93575
 C480 C 0.27029 0.57986 0.95335
 C481 C 0.23837 0.62327 0.91972
 C482 C 0.22154 0.59694 0.90183
 H483 H 0.31886 0.61378 0.88923
 H484 H 0.28850 0.56573 0.85574
 H485 H 0.24497 0.53091 0.94924
 H486 H 0.27775 0.57685 0.98086
 H487 H 0.22552 0.64758 0.92663
 H488 H 0.19402 0.59886 0.89506
 C489 C 0.06802 0.27687 0.38766
 C490 C 0.04847 0.24481 0.40156
 C491 C 0.06592 0.22686 0.42692
 C492 C 0.10184 0.24207 0.43674
 C493 C 0.12180 0.24510 0.40117
 C494 C 0.10371 0.26283 0.37530
 C495 C 0.07708 0.29858 0.42060
 C496 C 0.09503 0.28084 0.44551
 H497 H 0.02326 0.23626 0.39150
 H498 H 0.05542 0.20313 0.43851
 H499 H 0.14920 0.23864 0.39772
 H500 H 0.11523 0.26933 0.34996
 H501 H 0.07270 0.32648 0.42305
 H502 H 0.10584 0.29408 0.46843
 C503 C 0.06604 0.72767 0.61737
 C504 C 0.09799 0.70784 0.60357
 C505 C 0.11514 0.72439 0.57704
 C506 C 0.09938 0.75977 0.56617
 C507 C 0.06021 0.75249 0.55888
 C508 C 0.04355 0.73496 0.58472
 C509 C 0.08019 0.76394 0.62797
 C510 C 0.09738 0.78099 0.60099
 H511 H 0.10684 0.68305 0.61428
 H512 H 0.13863 0.71358 0.56522
 H513 H 0.04590 0.76224 0.53610
 H514 H 0.01613 0.72801 0.58250
 H515 H 0.07511 0.77609 0.65332
 H516 H 0.10539 0.80803 0.60346
 C517 C 0.93484 0.72877 0.38696
 C518 C 0.95808 0.73539 0.41920
 C519 C 0.94258 0.75404 0.44495
 C520 C 0.90376 0.76316 0.43786
 C521 C 0.90639 0.78373 0.40271
 C522 C 0.92236 0.76551 0.37588
 C523 C 0.90217 0.71065 0.40144
 C524 C 0.88615 0.72841 0.42786
 H525 H 0.98526 0.72747 0.42103
 H526 H 0.95780 0.76382 0.46708
 H527 H 0.89909 0.81095 0.39977
 H528 H 0.92741 0.77693 0.35015
 H529 H 0.89210 0.68610 0.39133
 H530 H 0.86238 0.71889 0.44025
 C531 C 0.93189 0.27633 0.61235
 C532 C 0.93277 0.23620 0.61473
 C533 C 0.91628 0.21989 0.58711
 C534 C 0.89938 0.24513 0.56004
 C535 C 0.87612 0.26960 0.58215
 C536 C 0.89305 0.28589 0.60932
 C537 C 0.94715 0.28421 0.57576
 C538 C 0.93103 0.26773 0.54899
 H539 H 0.94668 0.22188 0.63513
 H540 H 0.91702 0.19175 0.58389
 H541 H 0.84845 0.27353 0.57694
 H542 H 0.87986 0.30360 0.62726
 H543 H 0.97075 0.29941 0.57130
 H544 H 0.94312 0.26779 0.52318
 C545 C 0.38615 0.06938 0.27880
 C546 C 0.39754 0.10186 0.29940
 C547 C 0.42339 0.12044 0.28349
 C548 C 0.43594 0.10522 0.24815
 C549 C 0.44523 0.06675 0.25613
 C550 C 0.41980 0.04857 0.27255
 C551 C 0.37606 0.08286 0.24182
 C552 C 0.40234 0.10119 0.22547
 H553 H 0.38582 0.10991 0.32418
 H554 H 0.43370 0.14438 0.29477
 H555 H 0.46892 0.05391 0.24726
 H556 H 0.42276 0.02104 0.27871
 H557 H 0.35173 0.07630 0.22857
 H558 H 0.40037 0.10866 0.19791
 C559 C 0.61454 0.06991 0.72348
 C560 C 0.58400 0.08098 0.69939
 C561 C 0.55850 0.09876 0.71606
 C562 C 0.56421 0.10327 0.75612
 C563 C 0.57183 0.06661 0.77055
 C564 C 0.59799 0.04956 0.75391
 C565 C 0.62667 0.10449 0.74029
 C566 C 0.60011 0.12235 0.75705
 H567 H 0.58422 0.07894 0.67079
 H568 H 0.53816 0.11202 0.70111
 H569 H 0.55894 0.05574 0.79362
 H570 H 0.60785 0.02469 0.76342
 H571 H 0.65279 0.11515 0.73711
 H572 H 0.60380 0.14868 0.76689
 C573 C 0.38671 0.92750 0.71759
 C574 C 0.37434 0.89174 0.73134
 C575 C 0.40025 0.87310 0.74830
 C576 C 0.43577 0.89272 0.75099
 C577 C 0.44355 0.89998 0.71167
 C578 C 0.41869 0.91851 0.69468
 C579 C 0.40136 0.94618 0.75007
 C580 C 0.42673 0.92829 0.76723
 H581 H 0.34893 0.88062 0.72515
 H582 H 0.39678 0.84569 0.75457
 H583 H 0.46516 0.88834 0.69727
 H584 H 0.42013 0.92269 0.66635
 H585 H 0.39153 0.97098 0.75973
 H586 H 0.43867 0.93813 0.79130
 C587 C 0.61157 0.93709 0.27302
 C588 C 0.62310 0.90191 0.25732
 C589 C 0.59750 0.88581 0.23761
 C590 C 0.56302 0.90708 0.23450
 C591 C 0.55321 0.91221 0.27366
 C592 C 0.57790 0.92815 0.29336
 C593 C 0.59948 0.95877 0.24122
 C594 C 0.57432 0.94328 0.22135
 H595 H 0.64777 0.88934 0.26373
 H596 H 0.60046 0.85898 0.22902
 H597 H 0.52984 0.90147 0.28576
 H598 H 0.57464 0.93105 0.32168
 H599 H 0.61048 0.98401 0.23434
 H600 H 0.56386 0.95542 0.19766
 C601 C 0.38888 0.27264 0.93651
 C602 C 0.37728 0.26091 0.89945
 C603 C 0.40218 0.24173 0.88183
 C604 C 0.43598 0.23479 0.90360
 C605 C 0.44764 0.27238 0.91239
 C606 C 0.42377 0.29162 0.92987
 C607 C 0.39891 0.23891 0.95579
 C608 C 0.42320 0.21936 0.93877
 H609 H 0.35362 0.27026 0.88668
 H610 H 0.39979 0.23726 0.85367
 H611 H 0.47159 0.28416 0.90275
 H612 H 0.42849 0.31905 0.93528
 H613 H 0.38737 0.23075 0.98065
 H614 H 0.43229 0.19454 0.94920
 C615 C 0.61373 0.72560 0.93160
 C616 C 0.58035 0.73233 0.95278
 C617 C 0.55540 0.74970 0.93476
 C618 C 0.56471 0.75792 0.89594
 C619 C 0.59890 0.77930 0.90026
 C620 C 0.62478 0.76210 0.91855
 C621 C 0.60172 0.70614 0.89840
 C622 C 0.57625 0.72291 0.87992
 H623 H 0.57717 0.72560 0.98044
 H624 H 0.53208 0.75904 0.94799
 H625 H 0.60160 0.80658 0.89311
 H626 H 0.64949 0.77436 0.92535
 H627 H 0.61278 0.68147 0.88979
 H628 H 0.56560 0.71249 0.85550
 C629 C 0.38792 0.72786 0.06400
 C630 C 0.37596 0.74395 0.09919
 C631 C 0.40145 0.76344 0.11567
 C632 C 0.43628 0.76591 0.09472
 C633 C 0.44587 0.72702 0.09021
 C634 C 0.42127 0.70756 0.07389
 C635 C 0.40060 0.75891 0.04190
 C636 C 0.42562 0.77854 0.05775
 H637 H 0.35105 0.73798 0.11154
 H638 H 0.39814 0.77234 0.14262
 H639 H 0.46901 0.71501 0.10160
 H640 H 0.42427 0.67949 0.07136
 H641 H 0.39006 0.76549 0.01609
 H642 H 0.43643 0.80171 0.04534
 C643 C 0.61222 0.27429 0.06870
 C644 C 0.57831 0.26728 0.04833
 C645 C 0.55358 0.25070 0.06734
 C646 C 0.56369 0.24345 0.10621
 C647 C 0.59757 0.22161 0.10182
 C648 C 0.62321 0.23806 0.08257
 C649 C 0.60115 0.29476 0.10156
 C650 C 0.57597 0.27876 0.12099
 H651 H 0.57465 0.27317 0.02052
 H652 H 0.52977 0.24138 0.05489
 H653 H 0.60011 0.19445 0.10949
 H654 H 0.64758 0.22532 0.07554
 H655 H 0.61264 0.31953 0.10928
 H656 H 0.56602 0.28996 0.14531
 C657 C 0.27451 0.07003 0.61659
 C658 C 0.29837 0.09906 0.60246
 C659 C 0.28305 0.12007 0.57813
 C660 C 0.24493 0.11067 0.56949
 C661 C 0.24526 0.07155 0.55998
 C662 C 0.26077 0.05081 0.58410
 C663 C 0.24204 0.08925 0.63077
 C664 C 0.22611 0.11031 0.60593
 H665 H 0.32493 0.10344 0.61173
 H666 H 0.29658 0.14228 0.56669
 H667 H 0.23091 0.06056 0.53784
 H668 H 0.25892 0.02273 0.58243
 H669 H 0.23084 0.08448 0.65664
 H670 H 0.20059 0.12152 0.61097
 C671 C 0.72600 0.06222 0.39012
 C672 C 0.70717 0.06841 0.42555
 C673 C 0.72620 0.08649 0.44927
 C674 C 0.76342 0.09634 0.43705
 C675 C 0.77990 0.06203 0.42428
 C676 C 0.76060 0.04438 0.40002
 C677 C 0.73644 0.09917 0.37810
 C678 C 0.75539 0.11736 0.40290
 H679 H 0.67987 0.06241 0.43071
 H680 H 0.71426 0.09606 0.47327
 H681 H 0.80522 0.05267 0.43327
 H682 H 0.76958 0.02006 0.38842
 H683 H 0.72659 0.11130 0.35414
 H684 H 0.75941 0.14524 0.40013
 C685 C 0.73054 0.93625 0.61666
 C686 C 0.71449 0.90065 0.60806
 C687 C 0.73152 0.88299 0.58222
 C688 C 0.76333 0.90216 0.56672
 C689 C 0.74966 0.93859 0.55581
 C690 C 0.73226 0.95580 0.58136
 C691 C 0.76918 0.92877 0.62548
 C692 C 0.78662 0.91154 0.59899
 H693 H 0.69193 0.88992 0.62168
 H694 H 0.72339 0.85714 0.57380
 H695 H 0.75610 0.95150 0.53118
 H696 H 0.72312 0.98240 0.57755
 H697 H 0.78247 0.93906 0.64859
 H698 H 0.81490 0.90908 0.59938
 C699 C 0.27156 0.93148 0.38249
 C700 C 0.29235 0.89936 0.39422
 C701 C 0.27575 0.87940 0.41853
 C702 C 0.23952 0.89293 0.42968
 C703 C 0.24514 0.93135 0.44046
 C704 C 0.26211 0.95095 0.41638
 C705 C 0.23615 0.91709 0.36952
 C706 C 0.21890 0.89744 0.39450
 H707 H 0.31775 0.89235 0.38353
 H708 H 0.28709 0.85534 0.42853
 H709 H 0.23278 0.94328 0.46319
 H710 H 0.26416 0.97894 0.41923
 H711 H 0.22376 0.92526 0.34506
 H712 H 0.19127 0.89194 0.39127
 C713 C 0.06922 0.38465 0.72354
 C714 C 0.05119 0.39884 0.75657
 C715 C 0.06955 0.42379 0.77381
 C716 C 0.10505 0.43288 0.75721
 C717 C 0.12435 0.39729 0.75381
 C718 C 0.10519 0.37186 0.73669
 C719 C 0.07822 0.41693 0.70105
 C720 C 0.09728 0.44123 0.71810
 H721 H 0.02683 0.38849 0.76693
 H722 H 0.06036 0.43501 0.79844
 H723 H 0.15193 0.39350 0.75941
 H724 H 0.11607 0.34657 0.72993
 H725 H 0.07352 0.41911 0.67284
 H726 H 0.10876 0.46305 0.70389
 C727 C 0.06119 0.61144 0.27141
 C728 C 0.09680 0.62408 0.25731
 C729 C 0.11457 0.59914 0.23832
 C730 C 0.09445 0.56415 0.23439
 C731 C 0.08798 0.55420 0.27337
 C732 C 0.07029 0.57820 0.29224
 C733 C 0.04129 0.59889 0.23865
 C734 C 0.05844 0.57435 0.21957
 H735 H 0.10832 0.64905 0.26425
 H736 H 0.14169 0.60293 0.23086
 H737 H 0.09915 0.53137 0.28608
 H738 H 0.06635 0.57496 0.32044
 H739 H 0.01617 0.60937 0.23038
 H740 H 0.04776 0.56381 0.19522
 C741 C 0.93628 0.38604 0.26992
 C742 C 0.90036 0.39430 0.28567
 C743 C 0.88275 0.42000 0.26844
 C744 C 0.90228 0.43571 0.23672
 C745 C 0.93862 0.44641 0.25114
 C746 C 0.95573 0.42102 0.26877
 C747 C 0.92923 0.37776 0.23073
 C748 C 0.91205 0.40409 0.21312
 H749 H 0.88939 0.38060 0.30820
 H750 H 0.85672 0.42820 0.27637
 H751 H 0.95166 0.47080 0.24496
 H752 H 0.98221 0.42480 0.27855
 H753 H 0.93962 0.35501 0.21730
 H754 H 0.90958 0.40390 0.18458
 C755 C 0.93205 0.61388 0.72834
 C756 C 0.91998 0.58356 0.70464
 C757 C 0.90142 0.55883 0.72161
 C758 C 0.89707 0.56497 0.76161
 C759 C 0.93407 0.57156 0.77596
 C760 C 0.95199 0.59700 0.75898
 C761 C 0.89778 0.62712 0.74506
 C762 C 0.87910 0.60137 0.76220
 H763 H 0.92240 0.58323 0.67607
 H764 H 0.88814 0.53828 0.70706
 H765 H 0.94456 0.55859 0.79920
 H766 H 0.97723 0.60613 0.76836
 H767 H 0.88779 0.65340 0.74140
 H768 H 0.85271 0.60598 0.77158
 C769 C 0.72213 0.61425 0.93175
 C770 C 0.69839 0.58461 0.91811
 C771 C 0.71532 0.55983 0.89961
 C772 C 0.75520 0.56517 0.89674
 C773 C 0.75719 0.60187 0.87927
 C774 C 0.74018 0.62771 0.89797
 C775 C 0.75146 0.59635 0.95256
 C776 C 0.76827 0.57084 0.93464
 H777 H 0.66998 0.58492 0.91925
 H778 H 0.70091 0.54000 0.88513
 H779 H 0.76749 0.60668 0.85304
 H780 H 0.73751 0.65421 0.88815
 H781 H 0.76037 0.60498 0.97834
 H782 H 0.79072 0.55729 0.94573
 C783 C 0.27680 0.38626 0.93604
 C784 C 0.23802 0.37759 0.92868
 C785 C 0.22042 0.40367 0.91119
 C786 C 0.24351 0.43548 0.90133
 C787 C 0.25753 0.44645 0.93801
 C788 C 0.27516 0.42132 0.95553
 C789 C 0.29254 0.39460 0.89983
 C790 C 0.27525 0.42007 0.88187
 H791 H 0.22469 0.35486 0.93927
 H792 H 0.19212 0.40325 0.90889
 H793 H 0.25116 0.47083 0.95096
 H794 H 0.28465 0.42538 0.98229
 H795 H 0.31509 0.38118 0.88891
 H796 H 0.28317 0.42832 0.85563
 C797 C 0.27463 0.61443 0.06376
 C798 C 0.29543 0.58165 0.07461
 C799 C 0.27626 0.55738 0.09161
 C800 C 0.23715 0.56649 0.09585
 C801 C 0.23919 0.60180 0.11591
 C802 C 0.25841 0.62707 0.09873
 C803 C 0.24350 0.60086 0.04216
 C804 C 0.22426 0.57606 0.05868
 H805 H 0.32364 0.57889 0.07238
 H806 H 0.28864 0.53484 0.10375
 H807 H 0.23047 0.60563 0.14285
 H808 H 0.26417 0.65224 0.11052
 H809 H 0.23622 0.61100 0.01637
 H810 H 0.20090 0.56497 0.04676
 C811 C 0.71956 0.38459 0.06852
 C812 C 0.73479 0.37103 0.10372
 C813 C 0.75168 0.39644 0.12315
 C814 C 0.75272 0.43280 0.10488
 C815 C 0.76777 0.42568 0.06800
 C816 C 0.75084 0.40074 0.04937
 C817 C 0.69644 0.41556 0.07999
 C818 C 0.71333 0.43981 0.09929
 H819 H 0.72959 0.34513 0.11411
 H820 H 0.75871 0.39192 0.15053
 H821 H 0.79130 0.43816 0.05805
 H822 H 0.76048 0.39166 0.02404
 H823 H 0.66817 0.41656 0.07701
 H824 H 0.69896 0.46040 0.11263
 C825 C 0.93316 0.72239 0.61715
 C826 C 0.89775 0.73645 0.63049
 C827 C 0.87875 0.75384 0.60490
 C828 C 0.89760 0.75647 0.56863
 C829 C 0.93371 0.77191 0.57723
 C830 C 0.95193 0.75450 0.60236
 C831 C 0.92289 0.70024 0.58475
 C832 C 0.90401 0.71757 0.56033
 H833 H 0.88701 0.73023 0.65626
 H834 H 0.85143 0.76026 0.60908
 H835 H 0.94342 0.79598 0.56566
 H836 H 0.97667 0.76425 0.61249
 H837 H 0.92646 0.67219 0.58272
 H838 H 0.89166 0.70377 0.53857
 C839 C 0.93602 0.27377 0.38272
 C840 C 0.95529 0.26964 0.41805
 C841 C 0.93694 0.25224 0.44282
 C842 C 0.89977 0.24108 0.43134
 C843 C 0.88240 0.27439 0.41692
 C844 C 0.90114 0.29134 0.39176
 C845 C 0.92631 0.23601 0.37250
 C846 C 0.90787 0.21863 0.39824
 H847 H 0.98226 0.27752 0.42252
 H848 H 0.94916 0.24427 0.46740
 H849 H 0.85688 0.28352 0.42546
 H850 H 0.89159 0.31486 0.37891
 H851 H 0.93612 0.22292 0.34912
 H852 H 0.90434 0.19059 0.39686
 C853 C 0.06118 0.27096 0.61599
 C854 C 0.08897 0.29279 0.59690
 C855 C 0.10662 0.27521 0.57157
 C856 C 0.09555 0.23694 0.56699
 C857 C 0.09876 0.22068 0.60443
 C858 C 0.08121 0.23890 0.63023
 C859 C 0.03787 0.25567 0.58691
 C860 C 0.05546 0.23778 0.56183
 H861 H 0.09493 0.31977 0.60335
 H862 H 0.12750 0.28732 0.55648
 H863 H 0.11008 0.19525 0.60979
 H864 H 0.07933 0.22958 0.65724
 H865 H 0.00962 0.25466 0.58849
 H866 H 0.04164 0.22219 0.54233
 C867 C 0.06668 0.71593 0.38709
 C868 C 0.07406 0.69385 0.42040
 C869 C 0.09394 0.71002 0.44480
 C870 C 0.10414 0.74790 0.43556
 C871 C 0.12347 0.74245 0.39990
 C872 C 0.10353 0.72629 0.37430
 C873 C 0.05059 0.74998 0.40058
 C874 C 0.06980 0.76633 0.42567
 H875 H 0.06811 0.66624 0.42305
 H876 H 0.10499 0.69544 0.46678
 H877 H 0.15130 0.74669 0.39621
 H878 H 0.11415 0.71864 0.34890
 H879 H 0.02683 0.76145 0.38988
 H880 H 0.06195 0.79133 0.43659
 C881 C 0.61533 0.93636 0.72890
 C882 C 0.60303 0.90373 0.70910
 C883 C 0.57697 0.88602 0.72559
 C884 C 0.56511 0.90200 0.76085
 C885 C 0.59911 0.90548 0.78299
 C886 C 0.62558 0.92321 0.76604
 C887 C 0.58213 0.95781 0.73508
 C888 C 0.55670 0.94062 0.75251
 H889 H 0.61433 0.89492 0.68437
 H890 H 0.56610 0.86208 0.71484
 H891 H 0.60144 0.89747 0.81037
 H892 H 0.65042 0.92903 0.77867
 H893 H 0.57911 0.98488 0.72729
 H894 H 0.53345 0.95428 0.76149
 C895 C 0.38651 0.93865 0.27155
 C896 C 0.37413 0.90407 0.25502
 C897 C 0.39950 0.88742 0.23547
 C898 C 0.43471 0.90758 0.23335
 C899 C 0.42469 0.94435 0.22062
 C900 C 0.39977 0.96036 0.24030
 C901 C 0.41959 0.92830 0.29230
 C902 C 0.44403 0.91181 0.27279
 H903 H 0.34904 0.89214 0.26089
 H904 H 0.39583 0.86076 0.22668
 H905 H 0.43578 0.95648 0.19725
 H906 H 0.38961 0.98599 0.23354
 H907 H 0.42257 0.93073 0.32071
 H908 H 0.46689 0.90019 0.28513
 C909 C 0.61355 0.06782 0.27917
 C910 C 0.57968 0.04748 0.27255
 C911 C 0.55461 0.06601 0.25582
 C912 C 0.56439 0.10440 0.24796
 C913 C 0.57696 0.11940 0.28344
 C914 C 0.60245 0.10047 0.29962
 C915 C 0.62403 0.08121 0.24227
 C916 C 0.59809 0.09995 0.22565
 H917 H 0.57632 0.01998 0.27865
 H918 H 0.53083 0.05347 0.24666
 H919 H 0.56693 0.14349 0.29462
 H920 H 0.61413 0.10838 0.32452
 H921 H 0.64833 0.07428 0.22924
 H922 H 0.60032 0.10729 0.19808
 C923 C 0.38590 0.05933 0.72769
 C924 C 0.39642 0.09415 0.71092
 C925 C 0.42184 0.11149 0.72886
 C926 C 0.43500 0.09291 0.76238
 C927 C 0.40161 0.08556 0.78437
 C928 C 0.37569 0.06846 0.76599
 C929 C 0.42006 0.03882 0.73169
 C930 C 0.44504 0.05562 0.75032
 H931 H 0.38442 0.10461 0.68715
 H932 H 0.43144 0.13679 0.72029
 H933 H 0.39976 0.08949 0.81267
 H934 H 0.35170 0.05966 0.77846
 H935 H 0.42368 0.01226 0.72242
 H936 H 0.46894 0.04227 0.75807
 C937 C 0.61345 0.72946 0.06402
 C938 C 0.62551 0.74579 0.09914
 C939 C 0.59990 0.76507 0.11572
 C940 C 0.56481 0.76707 0.09495
 C941 C 0.57508 0.77971 0.05790
 C942 C 0.60028 0.76039 0.04201
 C943 C 0.58037 0.70888 0.07424
 C944 C 0.55572 0.72807 0.09064
 H945 H 0.65060 0.74017 0.11137
 H946 H 0.60334 0.77408 0.14263
 H947 H 0.56415 0.80291 0.04563
 H948 H 0.61093 0.76738 0.01640
 H949 H 0.57764 0.68075 0.07204
 H950 H 0.53291 0.71577 0.10232
 C951 C 0.38694 0.27611 0.07047
 C952 C 0.37538 0.24034 0.08502
 C953 C 0.40106 0.22345 0.10395
 C954 C 0.43563 0.24445 0.10735
 C955 C 0.44493 0.25099 0.06817
 C956 C 0.42011 0.26792 0.04945
 C957 C 0.39937 0.29664 0.10285
 C958 C 0.42461 0.28023 0.12192
 H959 H 0.35052 0.22814 0.07865
 H960 H 0.39802 0.19644 0.11194
 H961 H 0.46809 0.24072 0.05533
 H962 H 0.42297 0.27286 0.02136
 H963 H 0.38869 0.32177 0.11054
 H964 H 0.43542 0.29145 0.14590
 C965 C 0.61205 0.26862 0.93586
 C966 C 0.59863 0.23810 0.95828
 C967 C 0.57358 0.21849 0.94236
 C968 C 0.56370 0.23054 0.90496
 C969 C 0.55457 0.26957 0.90852
 C970 C 0.57909 0.28905 0.92488
 C971 C 0.62444 0.25171 0.90123
 C972 C 0.59901 0.23217 0.88466
 H973 H 0.60893 0.23165 0.98422
 H974 H 0.56245 0.19555 0.95490
 H975 H 0.53202 0.28167 0.89614
 H976 H 0.57640 0.31723 0.92647
 H977 H 0.64962 0.25718 0.88921
 H978 H 0.60276 0.22291 0.85790
 C979 C 0.38693 0.72754 0.93374
 C980 C 0.39548 0.71146 0.89780
 C981 C 0.42119 0.72841 0.87994
 C982 C 0.43661 0.76017 0.89930
 C983 C 0.40471 0.78343 0.90862
 C984 C 0.37837 0.76610 0.92601
 C985 C 0.42188 0.72918 0.95358
 C986 C 0.44728 0.74652 0.93622
 H987 H 0.38198 0.68892 0.88700
 H988 H 0.42959 0.72023 0.85385
 H989 H 0.40440 0.81163 0.90605
 H990 H 0.35551 0.77943 0.93631
 H991 H 0.42565 0.71989 0.98044
 H992 H 0.47166 0.75290 0.94938
 C993 C 0.72627 0.93153 0.38775
 C994 C 0.70689 0.89909 0.40111
 C995 C 0.72422 0.88131 0.42684
 C996 C 0.75973 0.89713 0.43732
 C997 C 0.78027 0.90045 0.40218
 C998 C 0.76249 0.91811 0.37606
 C999 C 0.73411 0.95317 0.42078
 C1000 C 0.75198 0.93579 0.44599
 H1001 H 0.68184 0.89045 0.39073
 H1002 H 0.71387 0.85749 0.43834
 H1003 H 0.80748 0.89309 0.39894
 H1004 H 0.77417 0.92413 0.35068
 H1005 H 0.72798 0.98072 0.42335
 H1006 H 0.76200 0.94931 0.46904
 C1007 C 0.27503 0.93063 0.60727
 C1008 C 0.29290 0.89554 0.59985
 C1009 C 0.27687 0.87623 0.57427
 C1010 C 0.24416 0.89341 0.55807
 C1011 C 0.22042 0.90215 0.58996
 C1012 C 0.23672 0.92126 0.61587
 C1013 C 0.27303 0.94868 0.57131
 C1014 C 0.25636 0.93011 0.54628
 H1015 H 0.31599 0.88644 0.61386
 H1016 H 0.28634 0.85064 0.56653
 H1017 H 0.19269 0.89619 0.59113
 H1018 H 0.22304 0.93042 0.63918
 H1019 H 0.28412 0.97408 0.56562
 H1020 H 0.25113 0.94168 0.52073
 C1021 C 0.27477 0.06679 0.39183
 C1022 C 0.23484 0.07010 0.38697
 C1023 C 0.21867 0.08869 0.41329
 C1024 C 0.24401 0.10337 0.44160
 C1025 C 0.26240 0.06968 0.45447
 C1026 C 0.27887 0.05149 0.42904
 C1027 C 0.28813 0.10437 0.39490
 C1028 C 0.27213 0.12336 0.42067
 H1029 H 0.22027 0.05681 0.36635
 H1030 H 0.19037 0.08982 0.41531
 H1031 H 0.26039 0.05892 0.48088
 H1032 H 0.29270 0.02749 0.43504
 H1033 H 0.30818 0.11531 0.37789
 H1034 H 0.27864 0.15051 0.42557
 C1035 C 0.72954 0.06607 0.61347
 C1036 C 0.74348 0.10171 0.62590
 C1037 C 0.76227 0.11928 0.60051
 C1038 C 0.76648 0.09884 0.56534
 C1039 C 0.78105 0.06301 0.57625
 C1040 C 0.76195 0.04607 0.60108
 C1041 C 0.70906 0.07483 0.57962
 C1042 C 0.72790 0.09226 0.55524
 H1043 H 0.73578 0.11378 0.65062
 H1044 H 0.76796 0.14681 0.60372
 H1045 H 0.80506 0.05211 0.56564
 H1046 H 0.76970 0.02082 0.61155
 H1047 H 0.68104 0.07126 0.57639
 H1048 H 0.71531 0.10380 0.53240
 C1049 C 0.92972 0.61439 0.27217
 C1050 C 0.95168 0.58144 0.26653
 C1051 C 0.93506 0.55589 0.24880
 C1052 C 0.89666 0.56412 0.23905
 C1053 C 0.87935 0.57576 0.27370
 C1054 C 0.89642 0.60187 0.29084
 C1055 C 0.91779 0.62460 0.23466
 C1056 C 0.90079 0.59809 0.21707
 H1057 H 0.97898 0.57902 0.27417
 H1058 H 0.94913 0.53285 0.24017
 H1059 H 0.85507 0.56474 0.28356
 H1060 H 0.88670 0.61310 0.31525
 H1061 H 0.92402 0.64937 0.22227
 H1062 H 0.89389 0.60036 0.18937
 C1063 C 0.93494 0.38604 0.73105
 C1064 C 0.90354 0.40103 0.71093
 C1065 C 0.88630 0.42666 0.72851
 C1066 C 0.90152 0.43546 0.76506
 C1067 C 0.90276 0.40010 0.78496
 C1068 C 0.91996 0.37408 0.76691
 C1069 C 0.95765 0.41763 0.74030
 C1070 C 0.94086 0.44262 0.75871
 H1071 H 0.89515 0.39180 0.68516
 H1072 H 0.86320 0.43923 0.71763
 H1073 H 0.89396 0.39644 0.81193
 H1074 H 0.92442 0.34838 0.77811
 H1075 H 0.98522 0.41975 0.73396
 H1076 H 0.95512 0.46465 0.76965
 C1077 C 0.06514 0.61326 0.73196
 C1078 C 0.04264 0.58069 0.73765
 C1079 C 0.05869 0.55492 0.75569
 C1080 C 0.09738 0.56231 0.76510
 C1081 C 0.11465 0.57368 0.73026
 C1082 C 0.09805 0.60012 0.71316
 C1083 C 0.07753 0.62318 0.76944
 C1084 C 0.09412 0.59635 0.78699
 H1085 H 0.01552 0.57855 0.72946
 H1086 H 0.04382 0.53260 0.76503
 H1087 H 0.13861 0.56217 0.72020
 H1088 H 0.10783 0.61111 0.68865
 H1089 H 0.07216 0.64819 0.78173
 H1090 H 0.10176 0.59854 0.81451
 C1091 C 0.06559 0.38814 0.27163
 C1092 C 0.07496 0.42119 0.29261
 C1093 C 0.09145 0.44585 0.27340
 C1094 C 0.09663 0.43658 0.23408
 C1095 C 0.11743 0.40184 0.23672
 C1096 C 0.10079 0.37629 0.25597
 C1097 C 0.04423 0.40097 0.23990
 C1098 C 0.06025 0.42603 0.22051
 H1099 H 0.07196 0.42394 0.32098
 H1100 H 0.10255 0.46880 0.28591
 H1101 H 0.14434 0.39863 0.22832
 H1102 H 0.11299 0.35144 0.26214
 H1103 H 0.01879 0.39049 0.23267
 H1104 H 0.04838 0.43693 0.19687
   
