data_POSCAR
  _audit_creation_date              2014-09-24
  _audit_creation_method            'ToBaCCo'
  _symmetry_space_group_name_H-M    'P1'
  _symmetry_Int_Tables_number       1
  _symmetry_cell_setting            triclinic
  loop_
  _symmetry_equiv_pos_as_xyz
 x,y,z
_cell_length_a 35.1087
_cell_length_b 33.6728
_cell_length_c 33.5829
_cell_angle_alpha 89.646700
_cell_angle_beta 88.988200
_cell_angle_gamma 90.057200
loop_
  _atom_site_label
  _atom_site_type_symbol
  _atom_site_fract_x
  _atom_site_fract_y
  _atom_site_fract_z
C1 C 0.24671 0.24746 0.24961
 C2 C 0.74676 0.74724 0.24965
 C3 C 0.75286 0.24981 0.74886
 C4 C 0.25198 0.74915 0.75102
 C5 C 0.05200 0.06018 0.01854
 H6 H 0.05503 0.06243 -0.01351
 C7 C 0.07311 0.08515 0.04277
 H8 H 0.09270 0.10633 0.02922
 C9 C 0.02306 0.02954 0.07515
 H10 H 0.00309 0.00837 0.08777
 C11 C 0.04398 0.05359 0.10049
 H12 H 0.04011 0.05049 0.13243
 N13 N 0.02788 0.03269 0.03495
 C14 C 0.02192 -0.06264 -0.05236
 H15 H -0.00842 -0.06754 -0.05356
 C16 C 0.04653 -0.08744 -0.07382
 H17 H 0.03459 -0.11007 -0.09266
 C18 C 0.07419 -0.02827 -0.02531
 H19 H 0.08512 -0.00601 -0.00560
 C20 C 0.09983 -0.05256 -0.04603
 H21 H 0.13009 -0.04836 -0.04202
 Zn22 Zn 0.00082 -0.00114 0.00008
 N23 N 0.03595 -0.03314 -0.02931
 C24 C -0.04778 0.01461 -0.06568
 N25 N -0.02921 0.03096 -0.03451
 C26 C -0.03270 0.07037 -0.02640
 C27 C -0.05495 0.09491 -0.05018
 C28 C -0.07056 0.03808 -0.09013
 C29 C -0.01427 -0.06204 0.05530
 C30 C -0.03650 -0.08748 0.07907
 C31 C -0.09281 -0.06027 0.04880
 C32 C -0.06956 -0.03464 0.02631
 N33 N -0.03106 -0.03583 0.03010
 H34 H -0.04566 -0.01678 -0.07129
 H35 H -0.01877 0.08293 -0.00101
 H36 H -0.05681 0.12623 -0.04330
 H37 H -0.08567 0.02424 -0.11422
 H38 H 0.01644 -0.06261 0.05738
 H39 H -0.02293 -0.10775 0.09956
 H40 H -0.12345 -0.05896 0.04580
 H41 H -0.08232 -0.01365 0.00608
 C42 C 0.08612 -0.08250 -0.07094
 C43 C 0.06952 0.08164 0.08429
 C44 C -0.07621 -0.08667 0.07583
 C45 C -0.07445 0.07885 -0.08248
 C46 C 0.05793 0.56751 0.51306
 H47 H 0.05888 0.56877 0.48086
 C48 C 0.08186 0.59202 0.53483
 H49 H 0.10158 0.61181 0.51945
 C50 C 0.03077 0.54076 0.57254
 H51 H 0.01065 0.52105 0.58720
 C52 C 0.05371 0.56529 0.59545
 H53 H 0.05148 0.56405 0.62765
 N54 N 0.03377 0.54167 0.53205
 C55 C 0.01842 0.44095 0.45258
 H56 H -0.01143 0.43494 0.45832
 C57 C 0.03963 0.41535 0.42828
 H58 H 0.02578 0.39015 0.41481
 C59 C 0.07304 0.48038 0.46383
 H60 H 0.08645 0.50501 0.47829
 C61 C 0.09515 0.45590 0.43933
 H62 H 0.12520 0.46226 0.43507
 Zn63 Zn 0.00358 0.50706 0.50075
 N64 N 0.03512 0.47320 0.46923
 C65 C -0.04729 0.52048 0.43726
 N66 N -0.02784 0.53814 0.46705
 C67 C -0.03104 0.57782 0.47374
 C68 C -0.05429 0.60132 0.44994
 C69 C -0.07101 0.54286 0.41283
 C70 C -0.00989 0.44839 0.55933
 C71 C -0.03158 0.42287 0.58364
 C72 C -0.08856 0.44955 0.55433
 C73 C -0.06587 0.47524 0.53131
 N74 N -0.02726 0.47412 0.53407
 H75 H -0.04491 0.48889 0.43268
 H76 H -0.01592 0.59135 0.49789
 H77 H -0.05606 0.63289 0.45559
 H78 H -0.08680 0.52804 0.38983
 H79 H 0.02088 0.44778 0.56058
 H80 H -0.01752 0.40261 0.60377
 H81 H -0.11926 0.45047 0.55170
 H82 H -0.07914 0.49579 0.51102
 C83 C 0.07837 0.42313 0.42098
 C84 C 0.07994 0.59071 0.57645
 C85 C -0.07135 0.42314 0.58091
 C86 C -0.07482 0.58387 0.41908
 C87 C 0.55282 0.06599 0.51778
 H88 H 0.55374 0.06975 0.48576
 C89 C 0.57510 0.09034 0.54153
 H90 H 0.59364 0.11224 0.52753
 C91 C 0.52740 0.03310 0.57485
 H92 H 0.50835 0.01131 0.58793
 C93 C 0.54948 0.05657 0.59971
 H94 H 0.54726 0.05240 0.63166
 N95 N 0.52991 0.03761 0.53458
 C96 C 0.51740 -0.06149 0.45322
 H97 H 0.48776 -0.06841 0.45926
 C98 C 0.53927 -0.08669 0.42916
 H99 H 0.52617 -0.11271 0.41641
 C100 C 0.57047 -0.01925 0.46244
 H101 H 0.58283 0.00670 0.47570
 C102 C 0.59325 -0.04339 0.43821
 H103 H 0.62291 -0.03570 0.43318
 Zn104 Zn 0.50072 0.00476 0.50040
 N105 N 0.53308 -0.02827 0.46903
 C106 C 0.45372 0.02034 0.43486
 N107 N 0.47135 0.03722 0.46629
 C108 C 0.46705 0.07651 0.47440
 C109 C 0.44443 0.10043 0.45038
 C110 C 0.43049 0.04309 0.41031
 C111 C 0.48261 -0.05610 0.55555
 C112 C 0.45890 -0.08135 0.57797
 C113 C 0.40446 -0.05117 0.54698
 C114 C 0.42917 -0.02577 0.52604
 N115 N 0.46747 -0.02862 0.53063
 H116 H 0.45702 -0.01103 0.42928
 H117 H 0.48058 0.08931 0.49994
 H118 H 0.44180 0.13170 0.45719
 H119 H 0.41589 0.02875 0.38618
 H120 H 0.51321 -0.05806 0.55835
 H121 H 0.47178 -0.10182 0.59869
 H122 H 0.37423 -0.04892 0.54174
 H123 H 0.41761 -0.00401 0.50584
 C124 C 0.57762 -0.07750 0.42110
 C125 C 0.57389 0.08547 0.58305
 C126 C 0.41910 -0.07933 0.57376
 C127 C 0.42546 0.08373 0.41801
 C128 C 0.54888 0.56271 0.01725
 H129 H 0.54904 0.56726 -0.01466
 C130 C 0.57066 0.58736 0.04124
 H131 H 0.58811 0.61034 0.02747
 C132 C 0.52586 0.52734 0.07392
 H133 H 0.50786 0.50451 0.08681
 C134 C 0.54733 0.55114 0.09896
 H135 H 0.54571 0.54614 0.13083
 N136 N 0.52756 0.53288 0.03374
 C137 C 0.51710 0.43577 -0.05041
 H138 H 0.48762 0.42797 -0.04464
 C139 C 0.53971 0.41153 -0.07474
 H140 H 0.52731 0.38544 -0.08806
 C141 C 0.56921 0.47892 -0.03970
 H142 H 0.58093 0.50474 -0.02558
 C143 C 0.59271 0.45576 -0.06419
 H144 H 0.62229 0.46411 -0.06862
 Zn145 Zn 0.49905 0.49952 -0.00041
 N146 N 0.53197 0.46891 -0.03364
 C147 C 0.45103 0.51619 -0.06532
 N148 N 0.46686 0.53154 -0.03208
 C149 C 0.45904 0.56927 -0.02025
 C150 C 0.43490 0.59334 -0.04246
 C151 C 0.42662 0.53921 -0.08837
 C152 C 0.48633 0.43655 0.05373
 C153 C 0.46476 0.41053 0.07756
 C154 C 0.40756 0.43932 0.05066
 C155 C 0.43017 0.46544 0.02811
 N156 N 0.46880 0.46380 0.03024
 H157 H 0.45724 0.48603 -0.07399
 H158 H 0.47110 0.58062 0.00679
 H159 H 0.42874 0.62315 -0.03231
 H160 H 0.41471 0.52666 -0.11502
 H161 H 0.51711 0.43556 0.05442
 H162 H 0.47889 0.38944 0.09677
 H163 H 0.37682 0.44099 0.04899
 H164 H 0.41680 0.48713 0.00908
 C165 C 0.57800 0.42159 -0.08205
 C166 C 0.57039 0.58138 0.08264
 C167 C 0.42494 0.41188 0.07602
 C168 C 0.41838 0.57840 -0.07707
 C169 C 0.18652 -0.18107 -0.16536
 C170 C 0.21931 -0.16442 -0.18304
 C171 C 0.24188 -0.18758 -0.20874
 C172 C 0.23045 -0.22653 -0.21964
 C173 C 0.19933 -0.24359 -0.19783
 C174 C 0.17680 -0.22082 -0.17183
 C175 C 0.16173 -0.15631 -0.13976
 C176 C 0.12876 -0.17297 -0.12229
 C177 C 0.10454 -0.14894 -0.09917
 C178 C 0.11288 -0.10835 -0.09379
 C179 C 0.14655 -0.09239 -0.11098
 C180 C 0.17111 -0.11627 -0.13388
 C181 C 0.14409 -0.23677 -0.15302
 C182 C 0.12044 -0.21322 -0.12870
 C183 C 0.22844 -0.12455 -0.17545
 C184 C 0.20461 -0.10081 -0.15150
 H185 H 0.13635 -0.26752 -0.15769
 H186 H 0.09518 -0.22652 -0.11522
 H187 H 0.25377 -0.11134 -0.18884
 H188 H 0.21231 -0.07001 -0.14701
 H189 H 0.26793 -0.17466 -0.22068
 H190 H 0.19156 -0.27434 -0.20260
 H191 H 0.07922 -0.16182 -0.08542
 H192 H 0.15316 -0.06119 -0.10743
 C193 C 0.17118 0.32359 0.32015
 C194 C 0.19475 0.34110 0.29081
 C195 C 0.21843 0.31694 0.26727
 C196 C 0.22027 0.27540 0.27406
 C197 C 0.19471 0.25850 0.30259
 C198 C 0.17058 0.28235 0.32589
 C199 C 0.14663 0.34897 0.34534
 C200 C 0.12280 0.33140 0.37453
 C201 C 0.09995 0.35575 0.39882
 C202 C 0.10133 0.39733 0.39438
 C203 C 0.12517 0.41442 0.36478
 C204 C 0.14773 0.39034 0.34000
 C205 C 0.14617 0.26578 0.35517
 C206 C 0.12264 0.28990 0.37906
 C207 C 0.19443 0.38256 0.28576
 C208 C 0.17148 0.40679 0.31010
 H209 H 0.14541 0.23392 0.35982
 H210 H 0.10438 0.27596 0.40143
 H211 H 0.21245 0.39646 0.26315
 H212 H 0.17243 0.43867 0.30555
 H213 H 0.23501 0.33094 0.24370
 H214 H 0.19443 0.22661 0.30720
 H215 H 0.08179 0.34252 0.42175
 H216 H 0.12593 0.44640 0.36095
 C217 C 0.67130 -0.17679 0.32058
 C218 C 0.67092 -0.21803 0.32640
 C219 C 0.69494 -0.24184 0.30290
 C220 C 0.72026 -0.22489 0.27418
 C221 C 0.71821 -0.18336 0.26735
 C222 C 0.69456 -0.15925 0.29100
 C223 C 0.64679 -0.15145 0.34589
 C224 C 0.64752 -0.11010 0.34032
 C225 C 0.62481 -0.08607 0.36504
 C226 C 0.60121 -0.10318 0.39486
 C227 C 0.60036 -0.14477 0.39962
 C228 C 0.62328 -0.16905 0.37532
 C229 C 0.69396 -0.11780 0.28581
 C230 C 0.67098 -0.09362 0.31019
 C231 C 0.64683 -0.23463 0.35596
 C232 C 0.62340 -0.21055 0.38000
 H233 H 0.71175 -0.10388 0.26301
 H234 H 0.67167 -0.06177 0.30546
 H235 H 0.64626 -0.26648 0.36071
 H236 H 0.60538 -0.22452 0.40257
 H237 H 0.69480 -0.27373 0.30755
 H238 H 0.73460 -0.16933 0.24364
 H239 H 0.62517 -0.05412 0.36088
 H240 H 0.58244 -0.15808 0.42270
 C241 C 0.67553 0.32435 -0.18073
 C242 C 0.69916 0.34239 -0.20968
 C243 C 0.72355 0.31875 -0.23300
 C244 C 0.72595 0.27718 -0.22649
 C245 C 0.70036 0.25973 -0.19832
 C246 C 0.67560 0.28307 -0.17516
 C247 C 0.65008 0.34918 -0.15590
 C248 C 0.62615 0.33105 -0.12717
 C249 C 0.60229 0.35484 -0.10336
 C250 C 0.60257 0.39647 -0.10790
 C251 C 0.62663 0.41411 -0.13700
 C252 C 0.65030 0.39057 -0.16124
 C253 C 0.65111 0.26596 -0.14628
 C254 C 0.62679 0.28954 -0.12269
 C255 C 0.69808 0.38386 -0.21464
 C256 C 0.67422 0.40756 -0.19069
 H257 H 0.65087 0.23407 -0.14172
 H258 H 0.60847 0.27517 -0.10065
 H259 H 0.71614 0.39818 -0.23695
 H260 H 0.67454 0.43944 -0.19525
 H261 H 0.74014 0.33318 -0.25631
 H262 H 0.70046 0.22781 -0.19395
 H263 H 0.58405 0.34112 -0.08081
 H264 H 0.62661 0.44608 -0.14098
 C265 C -0.17158 0.17766 -0.17816
 C266 C -0.17288 0.17173 -0.21939
 C267 C -0.19705 0.19545 -0.24227
 C268 C -0.22094 0.22440 -0.22432
 C269 C -0.21736 0.23108 -0.18291
 C270 C -0.19345 0.20737 -0.15975
 C271 C -0.14654 0.15249 -0.15381
 C272 C -0.14525 0.15851 -0.11254
 C273 C -0.12177 0.13427 -0.08944
 C274 C -0.09932 0.10434 -0.10732
 C275 C -0.10083 0.09893 -0.14889
 C276 C -0.12444 0.12290 -0.17226
 C277 C -0.19107 0.21278 -0.11841
 C278 C -0.16751 0.18865 -0.09518
 C279 C -0.15015 0.14201 -0.23687
 C280 C -0.12636 0.11799 -0.21370
 H281 H -0.20778 0.23567 -0.10382
 H282 H -0.16670 0.19365 -0.06337
 H283 H -0.15088 0.13715 -0.26871
 H284 H -0.10939 0.09533 -0.22835
 H285 H -0.19798 0.19099 -0.27419
 H286 H -0.23254 0.25495 -0.16830
 H287 H -0.12138 0.13837 -0.05748
 H288 H -0.08332 0.07642 -0.16309
 C289 C -0.17589 0.67767 0.32304
 C290 C -0.19776 0.70760 0.34105
 C291 C -0.22248 0.73024 0.31778
 C292 C -0.22680 0.72234 0.27667
 C293 C -0.20299 0.69310 0.25908
 C294 C -0.17805 0.67041 0.28209
 C295 C -0.14983 0.65381 0.34748
 C296 C -0.12769 0.62402 0.32942
 C297 C -0.10309 0.60129 0.35288
 C298 C -0.10060 0.60818 0.39414
 C299 C -0.12302 0.63832 0.41164
 C300 C -0.14755 0.66128 0.38845
 C301 C -0.15528 0.64051 0.26498
 C302 C -0.13056 0.61767 0.28826
 C303 C -0.19445 0.71445 0.38208
 C304 C -0.16988 0.69158 0.40541
 H305 H -0.15667 0.63462 0.23336
 H306 H -0.11358 0.59484 0.27391
 H307 H -0.21116 0.73755 0.39635
 H308 H -0.16833 0.69769 0.43698
 H309 H -0.23755 0.75438 0.33203
 H310 H -0.20442 0.68777 0.22733
 H311 H -0.08560 0.57859 0.33897
 H312 H -0.12180 0.64355 0.44340
 C313 C 0.32406 0.17772 0.32263
 C314 C 0.30188 0.20727 0.34089
 C315 C 0.27715 0.23000 0.31776
 C316 C 0.27303 0.22244 0.27657
 C317 C 0.29686 0.19334 0.25881
 C318 C 0.32201 0.17077 0.28162
 C319 C 0.35029 0.15391 0.34688
 C320 C 0.37290 0.12469 0.32853
 C321 C 0.39773 0.10206 0.35178
 C322 C 0.39978 0.10828 0.39319
 C323 C 0.37681 0.13782 0.41099
 C324 C 0.35224 0.16086 0.38796
 C325 C 0.34517 0.14136 0.26424
 C326 C 0.37022 0.11872 0.28729
 C327 C 0.30493 0.21366 0.38202
 C328 C 0.32952 0.19069 0.40521
 H329 H 0.34389 0.13575 0.23255
 H330 H 0.38754 0.09629 0.27274
 H331 H 0.28797 0.23644 0.39648
 H332 H 0.33084 0.19640 0.43687
 H333 H 0.26191 0.25394 0.33217
 H334 H 0.29543 0.18818 0.22703
 H335 H 0.41564 0.07990 0.33760
 H336 H 0.37757 0.14250 0.44286
 C337 C 0.32078 0.67636 -0.17273
 C338 C 0.28755 0.66015 -0.18852
 C339 C 0.26452 0.68385 -0.21275
 C340 C 0.27536 0.72331 -0.22332
 C341 C 0.30774 0.73943 -0.20427
 C342 C 0.33080 0.71603 -0.17999
 C343 C 0.34542 0.65139 -0.14777
 C344 C 0.37860 0.66776 -0.13185
 C345 C 0.40223 0.64378 -0.10864
 C346 C 0.39292 0.60365 -0.10130
 C347 C 0.35932 0.58781 -0.11726
 C348 C 0.33542 0.61160 -0.14046
 C349 C 0.36399 0.73153 -0.16318
 C350 C 0.38755 0.70777 -0.13959
 C351 C 0.27810 0.62038 -0.17997
 C352 C 0.30170 0.59647 -0.15648
 H353 H 0.37201 0.76220 -0.16857
 H354 H 0.41303 0.72079 -0.12740
 H355 H 0.25245 0.60748 -0.19189
 H356 H 0.29354 0.56587 -0.15092
 H357 H 0.23818 0.67124 -0.22320
 H358 H 0.31553 0.77024 -0.20922
 H359 H 0.42819 0.65614 -0.09684
 H360 H 0.35161 0.55714 -0.11127
 C361 C -0.17363 -0.18495 0.17415
 C362 C -0.17379 -0.18008 0.21557
 C363 C -0.19926 -0.20244 0.23921
 C364 C -0.22517 -0.22938 0.22196
 C365 C -0.22223 -0.23571 0.18030
 C366 C -0.19754 -0.21276 0.15630
 C367 C -0.14789 -0.16047 0.14896
 C368 C -0.14854 -0.16460 0.10737
 C369 C -0.12498 -0.14026 0.08348
 C370 C -0.10036 -0.11276 0.10107
 C371 C -0.09930 -0.10963 0.14278
 C372 C -0.12342 -0.13313 0.16692
 C373 C -0.19663 -0.21682 0.11466
 C374 C -0.17279 -0.19288 0.09058
 C375 C -0.14879 -0.15256 0.23250
 C376 C -0.12391 -0.12958 0.20859
 H377 H -0.21495 -0.23823 0.10050
 H378 H -0.17338 -0.19654 0.05856
 H379 H -0.14857 -0.14861 0.26449
 H380 H -0.10518 -0.10860 0.22282
 H381 H -0.19969 -0.19832 0.27120
 H382 H -0.23875 -0.25842 0.16600
 H383 H -0.12552 -0.14276 0.05132
 H384 H -0.08039 -0.08827 0.15622
 C385 C -0.16737 0.32017 0.67593
 C386 C -0.16795 0.32393 0.71747
 C387 C -0.19334 0.30063 0.74026
 C388 C -0.21882 0.27387 0.72204
 C389 C -0.21538 0.26860 0.68028
 C390 C -0.19075 0.29249 0.65712
 C391 C -0.14184 0.34577 0.65163
 C392 C -0.14215 0.34279 0.60994
 C393 C -0.11892 0.36826 0.58691
 C394 C -0.09495 0.39579 0.60541
 C395 C -0.09415 0.39773 0.64722
 C396 C -0.11798 0.37306 0.67053
 C397 C -0.18943 0.28958 0.61538
 C398 C -0.16580 0.31455 0.59217
 C399 C -0.14350 0.35139 0.73536
 C400 C -0.11883 0.37544 0.71230
 H401 H -0.20733 0.26828 0.60047
 H402 H -0.16611 0.31178 0.56005
 H403 H -0.14360 0.35449 0.76746
 H404 H -0.10058 0.39635 0.72726
 H405 H -0.19416 0.30395 0.77235
 H406 H -0.23155 0.24608 0.66525
 H407 H -0.11925 0.36664 0.55468
 H408 H -0.07575 0.41909 0.66138
 C409 C 0.32065 -0.18098 0.66925
 C410 C 0.28401 -0.16800 0.67997
 C411 C 0.26109 -0.19191 0.70496
 C412 C 0.27569 -0.22703 0.72280
 C413 C 0.31172 -0.24078 0.70846
 C414 C 0.33432 -0.21773 0.68246
 C415 C 0.34525 -0.15559 0.64371
 C416 C 0.38161 -0.16904 0.63227
 C417 C 0.40515 -0.14451 0.60859
 C418 C 0.39314 -0.10611 0.59729
 C419 C 0.35632 -0.09332 0.60904
 C420 C 0.33212 -0.11814 0.63171
 C421 C 0.37067 -0.23051 0.66991
 C422 C 0.39385 -0.20664 0.64509
 C423 C 0.27133 -0.13086 0.66626
 C424 C 0.29514 -0.10615 0.64294
 H425 H 0.38146 -0.25901 0.67969
 H426 H 0.42181 -0.21746 0.63637
 H427 H 0.24307 -0.12043 0.67437
 H428 H 0.28453 -0.07741 0.63365
 H429 H 0.23235 -0.18221 0.71202
 H430 H 0.32263 -0.26937 0.71774
 H431 H 0.43280 -0.15547 0.59903
 H432 H 0.34660 -0.06380 0.60134
 C433 C 0.32732 0.31412 0.17430
 C434 C 0.32679 0.31940 0.21566
 C435 C 0.30091 0.29750 0.23923
 C436 C 0.27494 0.27065 0.22196
 C437 C 0.27821 0.26390 0.18040
 C438 C 0.30333 0.28638 0.15645
 C439 C 0.35348 0.33812 0.14915
 C440 C 0.35315 0.33364 0.10759
 C441 C 0.37692 0.35773 0.08371
 C442 C 0.40139 0.38535 0.10129
 C443 C 0.40227 0.38875 0.14297
 C444 C 0.37795 0.36548 0.16711
 C445 C 0.30461 0.28189 0.11486
 C446 C 0.32885 0.30540 0.09081
 C447 C 0.35186 0.34685 0.23261
 C448 C 0.37711 0.36942 0.20874
 H449 H 0.28625 0.26051 0.10071
 H450 H 0.32851 0.30148 0.05882
 H451 H 0.35180 0.35110 0.26456
 H452 H 0.39582 0.39042 0.22295
 H453 H 0.30026 0.30185 0.27120
 H454 H 0.26168 0.24116 0.16615
 H455 H 0.37648 0.35513 0.05156
 H456 H 0.42105 0.41028 0.15635
 C457 C 0.16655 0.17625 0.18221
 C458 C 0.17001 0.21709 0.17471
 C459 C 0.19517 0.23954 0.19738
 C460 C 0.21868 0.22131 0.22606
 C461 C 0.21287 0.18043 0.23452
 C462 C 0.18737 0.15781 0.21238
 C463 C 0.14062 0.15231 0.15799
 C464 C 0.13690 0.11146 0.16579
 C465 C 0.11287 0.08865 0.14211
 C466 C 0.09311 0.10637 0.11051
 C467 C 0.09685 0.14745 0.10334
 C468 C 0.12044 0.17063 0.12718
 C469 C 0.18250 0.11696 0.21966
 C470 C 0.15769 0.09416 0.19675
 C471 C 0.14870 0.23458 0.14423
 C472 C 0.12449 0.21169 0.12070
 H473 H 0.19829 0.10239 0.24301
 H474 H 0.15501 0.06269 0.20310
 H475 H 0.15115 0.26613 0.13816
 H476 H 0.10893 0.22622 0.09716
 H477 H 0.19759 0.27121 0.19187
 H478 H 0.22758 0.16588 0.25853
 H479 H 0.11032 0.05698 0.14750
 H480 H 0.08135 0.16125 0.07930
 C481 C 0.17931 0.68427 0.67224
 C482 C 0.21724 0.67242 0.67682
 C483 C 0.24078 0.69406 0.70209
 C484 C 0.22659 0.72683 0.72437
 C485 C 0.18906 0.74005 0.71586
 C486 C 0.16511 0.71818 0.69127
 C487 C 0.15402 0.66084 0.64678
 C488 C 0.11580 0.67235 0.64281
 C489 C 0.09155 0.64921 0.61964
 C490 C 0.10562 0.61538 0.60006
 C491 C 0.14410 0.60467 0.60349
 C492 C 0.16845 0.62718 0.62717
 C493 C 0.12699 0.72939 0.68575
 C494 C 0.10266 0.70667 0.66220
 C495 C 0.23078 0.63881 0.65640
 C496 C 0.20681 0.61659 0.63196
 H497 H 0.11569 0.75560 0.70029
 H498 H 0.07333 0.71603 0.65919
 H499 H 0.26007 0.62940 0.65959
 H500 H 0.21831 0.59074 0.61695
 H501 H 0.27011 0.68474 0.70519
 H502 H 0.17800 0.76727 0.72853
 H503 H 0.06187 0.65741 0.61668
 H504 H 0.15475 0.57850 0.58830
 C505 C 0.67314 0.17902 0.68012
 C506 C 0.69405 0.16032 0.71004
 C507 C 0.71946 0.18279 0.73247
 C508 C 0.72521 0.22380 0.72452
 C509 C 0.70173 0.24222 0.69591
 C510 C 0.67654 0.21994 0.67304
 C511 C 0.64698 0.15530 0.65587
 C512 C 0.62641 0.17394 0.62555
 C513 C 0.60231 0.15104 0.60193
 C514 C 0.59849 0.10987 0.60876
 C515 C 0.61886 0.09184 0.63978
 C516 C 0.64328 0.11438 0.66331
 C517 C 0.65497 0.23771 0.64291
 C518 C 0.63047 0.21506 0.61943
 C519 C 0.68926 0.11938 0.71690
 C520 C 0.66433 0.09680 0.69391
 H521 H 0.65735 0.26931 0.63714
 H522 H 0.61465 0.22985 0.59625
 H523 H 0.70514 0.10460 0.74004
 H524 H 0.66168 0.06527 0.70000
 H525 H 0.73403 0.16800 0.75643
 H526 H 0.70401 0.27396 0.69080
 H527 H 0.58636 0.16519 0.57843
 H528 H 0.61634 0.06013 0.64497
 C529 C 0.66733 0.67584 0.18133
 C530 C 0.66999 0.71688 0.17470
 C531 C 0.69490 0.73935 0.19769
 C532 C 0.71876 0.72104 0.22601
 C533 C 0.71358 0.67993 0.23375
 C534 C 0.68855 0.65723 0.21108
 C535 C 0.64178 0.65187 0.15666
 C536 C 0.63900 0.61079 0.16346
 C537 C 0.61526 0.58801 0.13944
 C538 C 0.59453 0.60599 0.10864
 C539 C 0.59740 0.64733 0.10248
 C540 C 0.62092 0.67044 0.12651
 C541 C 0.68459 0.61612 0.21739
 C542 C 0.66029 0.59328 0.19393
 C543 C 0.64815 0.73457 0.14475
 C544 C 0.62413 0.71171 0.12095
 H545 H 0.70072 0.60139 0.24038
 H546 H 0.65832 0.56162 0.19955
 H547 H 0.64997 0.76628 0.13934
 H548 H 0.60807 0.72645 0.09791
 H549 H 0.69686 0.77113 0.19268
 H550 H 0.72849 0.66521 0.25751
 H551 H 0.61353 0.55617 0.14412
 H552 H 0.58115 0.66147 0.07920
   
