data_POSCAR
  _audit_creation_date              2014-09-24
  _audit_creation_method            'ToBaCCo'
  _symmetry_space_group_name_H-M    'P1'
  _symmetry_Int_Tables_number       1
  _symmetry_cell_setting            triclinic
  loop_
  _symmetry_equiv_pos_as_xyz
 x,y,z
_cell_length_a 29.8169
_cell_length_b 30.3572
_cell_length_c 30.3572
_cell_angle_alpha 89.634200
_cell_angle_beta 90.000000
_cell_angle_gamma 90.000100
loop_
  _atom_site_label
  _atom_site_type_symbol
  _atom_site_fract_x
  _atom_site_fract_y
  _atom_site_fract_z
Si1 Si 0.24808 0.50000 1.00000
 Si2 Si 0.74808 0.50000 -0.00000
 Si3 Si 0.00132 0.25135 0.49872
 Si4 Si 1.00132 0.74865 0.50128
 Si5 Si 0.50133 0.00130 0.24865
 Si6 Si 0.50132 -0.00130 0.75135
 C7 C 0.32395 0.02922 0.45019
 H8 H 0.32976 0.04944 0.47884
 C9 C 0.35388 0.03062 0.41502
 H10 H 0.38318 0.05151 0.41752
 C11 C 0.28048 -0.02499 0.41417
 H12 H 0.25233 -0.04739 0.41449
 C13 C 0.30941 -0.02425 0.37785
 H14 H 0.30334 -0.04685 0.35115
 N15 N 0.28818 0.00162 0.44929
 C16 C 0.17868 0.04983 0.52880
 H17 H 0.17279 0.02109 0.54926
 C18 C 0.14879 0.08503 0.52981
 H19 H 0.11944 0.08248 0.55067
 C20 C 0.22227 0.08599 0.47432
 H21 H 0.25044 0.08572 0.45196
 C22 C 0.19340 0.12235 0.47469
 H23 H 0.19954 0.14914 0.45186
 Zn24 Zn 0.25131 -0.00000 0.50000
 N25 N 0.21448 0.05077 0.50124
 C26 C 0.28048 0.02499 0.58582
 N27 N 0.28818 -0.00162 0.55070
 C28 C 0.32395 -0.02922 0.54981
 C29 C 0.35388 -0.03062 0.58498
 C30 C 0.30940 0.02425 0.62214
 C31 C 0.17868 -0.04983 0.47120
 C32 C 0.14879 -0.08503 0.47018
 C33 C 0.19340 -0.12235 0.52530
 C34 C 0.22227 -0.08599 0.52567
 N35 N 0.21448 -0.05077 0.49876
 H36 H 0.25233 0.04738 0.58550
 H37 H 0.32976 -0.04944 0.52115
 H38 H 0.38318 -0.05151 0.58247
 H39 H 0.30334 0.04685 0.64884
 H40 H 0.17279 -0.02110 0.45074
 H41 H 0.11944 -0.08248 0.44932
 H42 H 0.19954 -0.14913 0.54813
 H43 H 0.25044 -0.08572 0.54804
 C44 C 0.15611 0.12244 0.50304
 C45 C 0.34665 0.00418 0.37771
 C46 C 0.15611 -0.12244 0.49695
 C47 C 0.34664 -0.00418 0.62229
 C48 C 0.67868 0.02879 0.54983
 H49 H 0.67278 0.04925 0.52109
 C50 C 0.64878 0.02981 0.58503
 H51 H 0.61944 0.05066 0.58248
 C52 C 0.72228 -0.02568 0.58599
 H53 H 0.75045 -0.04804 0.58572
 C54 C 0.69341 -0.02531 0.62236
 H55 H 0.69954 -0.04814 0.64914
 N56 N 0.71448 0.00124 0.55077
 C57 C 0.82395 0.04981 0.47079
 H58 H 0.82977 0.02115 0.45057
 C59 C 0.85389 0.08498 0.46940
 H60 H 0.88319 0.08247 0.44851
 C61 C 0.78047 0.08583 0.52499
 H62 H 0.75232 0.08551 0.54738
 C63 C 0.80940 0.12215 0.52426
 H64 H 0.80333 0.14885 0.54686
 Zn65 Zn 0.75131 -0.00000 0.50000
 N66 N 0.78818 0.05071 0.49838
 C67 C 0.72228 0.02568 0.41401
 N68 N 0.71448 -0.00124 0.44923
 C69 C 0.67868 -0.02879 0.45017
 C70 C 0.64878 -0.02981 0.41497
 C71 C 0.69341 0.02531 0.37765
 C72 C 0.82395 -0.04981 0.52922
 C73 C 0.85389 -0.08498 0.53061
 C74 C 0.80940 -0.12215 0.47575
 C75 C 0.78047 -0.08583 0.47501
 N76 N 0.78818 -0.05071 0.50162
 H77 H 0.75045 0.04803 0.41428
 H78 H 0.67278 -0.04925 0.47891
 H79 H 0.61944 -0.05066 0.41752
 H80 H 0.69955 0.04814 0.35086
 H81 H 0.82976 -0.02115 0.54943
 H82 H 0.88319 -0.08247 0.55149
 H83 H 0.80333 -0.14885 0.45315
 H84 H 0.75232 -0.08551 0.45262
 C85 C 0.84664 0.12229 0.49583
 C86 C 0.65611 0.00304 0.62244
 C87 C 0.84664 -0.12229 0.50417
 C88 C 0.65611 -0.00304 0.37756
 C89 C 0.46540 0.17987 1.04950
 H90 H 0.44272 0.17617 1.02195
 C91 C 0.46370 0.15021 1.08466
 H92 H 0.44013 0.12318 1.08300
 C93 C 0.52645 0.21724 1.08227
 H94 H 0.55183 0.24257 1.08052
 C95 C 0.52559 0.18852 1.11848
 H96 H 0.55092 0.19191 1.14372
 N97 N 0.49649 0.21248 1.04879
 C98 C 0.44287 0.31198 0.95961
 H99 H 0.46811 0.31146 0.93401
 C100 C 0.40737 0.34169 0.95687
 H101 H 0.40521 0.36263 0.92803
 C102 C 0.41497 0.28358 1.02702
 H103 H 0.41822 0.26095 1.05445
 C104 C 0.37941 0.31363 1.02613
 H105 H 0.35533 0.31317 1.05279
 Zn106 Zn 0.49831 0.24833 0.99761
 N107 N 0.44640 0.28408 0.99454
 C108 C 0.46983 0.21234 0.91541
 N109 N 0.50139 0.21095 0.94779
 C110 C 0.53487 0.18066 0.94708
 C111 C 0.53790 0.15059 0.91267
 C112 C 0.47186 0.18314 0.88006
 C113 C 0.54756 0.31839 1.03070
 C114 C 0.58255 0.34863 1.03399
 C115 C 0.61997 0.31204 0.97398
 C116 C 0.58398 0.28256 0.97163
 N117 N 0.54886 0.28608 1.00000
 H118 H 0.44217 0.23514 0.91739
 H119 H 0.55862 0.17918 0.97400
 H120 H 0.56359 0.12552 0.91443
 H121 H 0.44540 0.18386 0.85568
 H122 H 0.51872 0.32113 1.05214
 H123 H 0.57942 0.37517 1.05740
 H124 H 0.64656 0.30959 0.94990
 H125 H 0.58382 0.25751 0.94653
 C126 C 0.37651 0.34498 0.99187
 C127 C 0.49353 0.15459 1.12039
 C128 C 0.62004 0.34538 1.00599
 C129 C 0.50668 0.15203 0.87781
 C130 C 0.46540 0.82013 -0.04950
 H131 H 0.44271 0.82383 -0.02195
 C132 C 0.46370 0.84979 -0.08466
 H133 H 0.44013 0.87682 -0.08300
 C134 C 0.52645 0.78276 -0.08227
 H135 H 0.55183 0.75744 -0.08052
 C136 C 0.52559 0.81148 -0.11848
 H137 H 0.55092 0.80809 -0.14373
 N138 N 0.49649 0.78752 -0.04879
 C139 C 0.44287 0.68802 0.04039
 H140 H 0.46811 0.68854 0.06599
 C141 C 0.40737 0.65831 0.04313
 H142 H 0.40522 0.63737 0.07197
 C143 C 0.41497 0.71642 -0.02702
 H144 H 0.41822 0.73905 -0.05445
 C145 C 0.37941 0.68637 -0.02613
 H146 H 0.35533 0.68683 -0.05278
 Zn147 Zn 0.49832 0.75167 0.00239
 N148 N 0.44641 0.71592 0.00546
 C149 C 0.46983 0.78766 0.08459
 N150 N 0.50139 0.78905 0.05221
 C151 C 0.53487 0.81934 0.05292
 C152 C 0.53790 0.84941 0.08733
 C153 C 0.47187 0.81686 0.11994
 C154 C 0.54756 0.68161 -0.03071
 C155 C 0.58255 0.65137 -0.03400
 C156 C 0.61997 0.68797 0.02602
 C157 C 0.58398 0.71744 0.02836
 N158 N 0.54886 0.71392 -0.00001
 H159 H 0.44217 0.76486 0.08261
 H160 H 0.55862 0.82082 0.02600
 H161 H 0.56360 0.87448 0.08557
 H162 H 0.44541 0.81613 0.14432
 H163 H 0.51872 0.67887 -0.05215
 H164 H 0.57942 0.62483 -0.05740
 H165 H 0.64657 0.69041 0.05010
 H166 H 0.58382 0.74249 0.05346
 C167 C 0.37652 0.65501 0.00814
 C168 C 0.49353 0.84541 -0.12039
 C169 C 0.62004 0.65463 -0.00600
 C170 C 0.50668 0.84797 0.12218
 C171 C 1.04756 0.46928 0.18162
 H172 H 1.01873 0.44783 0.17888
 C173 C 1.08255 0.46598 0.15138
 H174 H 1.07943 0.44258 0.12484
 C175 C 1.08398 0.52836 0.21744
 H176 H 1.08381 0.55346 0.24248
 C177 C 1.11997 0.52601 0.18796
 H178 H 1.14656 0.55010 0.19040
 N179 N 1.04886 0.49998 0.21392
 C180 C 0.96539 0.45049 0.32013
 H181 H 0.94271 0.47804 0.32383
 C182 C 0.96370 0.41533 0.34979
 H183 H 0.94012 0.41699 0.37682
 C184 C 1.02645 0.41773 0.28277
 H185 H 1.05183 0.41947 0.25745
 C186 C 1.02559 0.38151 0.31149
 H187 H 1.05092 0.35627 0.30811
 Zn188 Zn 0.99831 0.50238 0.25167
 N189 N 0.99649 0.45120 0.28752
 C190 C 0.91497 0.47296 0.21641
 N191 N 0.94640 0.50544 0.21592
 C192 C 0.94287 0.54038 0.18803
 C193 C 0.90737 0.54312 0.15831
 C194 C 0.87941 0.47385 0.18637
 C195 C 1.03487 0.55291 0.31934
 C196 C 1.03790 0.58733 0.34940
 C197 C 0.97186 0.61993 0.31686
 C198 C 0.96982 0.58458 0.28766
 N199 N 1.00139 0.55220 0.28905
 H200 H 0.91822 0.44553 0.23904
 H201 H 0.96810 0.56598 0.18855
 H202 H 0.90521 0.57196 0.13738
 H203 H 0.85533 0.44719 0.18682
 H204 H 1.05862 0.52600 0.32082
 H205 H 1.06360 0.58557 0.37447
 H206 H 0.94540 0.64431 0.31613
 H207 H 0.94216 0.58259 0.26486
 C208 C 0.99353 0.37961 0.34542
 C209 C 1.12004 0.49399 0.15463
 C210 C 1.00668 0.62218 0.34796
 C211 C 0.87651 0.50812 0.15501
 C212 C -0.05713 0.45962 0.81197
 H213 H -0.03189 0.43402 0.81145
 C214 C -0.09263 0.45688 0.84168
 H215 H -0.09479 0.42804 0.86262
 C216 C -0.08502 0.52704 0.78359
 H217 H -0.08177 0.55447 0.76096
 C218 C -0.12059 0.52615 0.81363
 H219 H -0.14466 0.55281 0.81318
 N220 N -0.05359 0.49456 0.78408
 C221 C 0.03487 0.44709 0.68066
 H222 H 0.05863 0.47400 0.67918
 C223 C 0.03791 0.41267 0.65060
 H224 H 0.06360 0.41443 0.62553
 C225 C -0.03017 0.41542 0.71234
 H226 H -0.05783 0.41741 0.73514
 C227 C -0.02814 0.38007 0.68314
 H228 H -0.05460 0.35569 0.68387
 Zn229 Zn -0.00168 0.49762 0.74833
 N230 N 0.00139 0.44780 0.71095
 C231 C 0.08398 0.47164 0.78256
 N232 N 0.04886 0.50002 0.78608
 C233 C 0.04757 0.53072 0.81838
 C234 C 0.08256 0.53402 0.84862
 C235 C 0.11997 0.47399 0.81204
 C236 C -0.03460 0.54950 0.67987
 C237 C -0.03630 0.58467 0.65021
 C238 C 0.02560 0.61849 0.68851
 C239 C 0.02645 0.58227 0.71723
 N240 N -0.00350 0.54880 0.71248
 H241 H 0.08382 0.44654 0.75752
 H242 H 0.01873 0.55217 0.82112
 H243 H 0.07943 0.55743 0.87516
 H244 H 0.14656 0.44990 0.80960
 H245 H -0.05728 0.52196 0.67617
 H246 H -0.05987 0.58301 0.62318
 H247 H 0.05093 0.64373 0.69189
 H248 H 0.05184 0.58053 0.74255
 C249 C 0.00668 0.37782 0.65204
 C250 C -0.12348 0.49188 0.84498
 C251 C -0.00647 0.62039 0.65458
 C252 C 0.12004 0.50601 0.84538
 C253 C 0.05306 0.21368 0.49842
 C254 C 0.04585 0.17141 0.47171
 C255 C 0.08038 0.14252 0.47352
 C256 C 0.12028 0.15810 0.50107
 C257 C 0.13242 0.20370 0.48126
 C258 C 0.09711 0.23264 0.47983
 C259 C 0.06578 0.19783 0.54500
 C260 C 0.10068 0.16929 0.54643
 H261 H 0.01730 0.16527 0.45072
 H262 H 0.08029 0.11209 0.45490
 H263 H 0.16583 0.21334 0.47096
 H264 H 0.10060 0.26610 0.46756
 H265 H 0.04992 0.20923 0.57491
 H266 H 0.11436 0.15735 0.57742
 C267 C 0.71022 0.55099 -0.00198
 C268 C 0.66773 0.54551 0.02620
 C269 C 0.63905 0.58002 0.02420
 C270 C 0.65495 0.61802 -0.00526
 C271 C 0.70211 0.62961 0.01233
 C272 C 0.73086 0.59450 0.01411
 C273 C 0.69313 0.56214 -0.04851
 C274 C 0.66458 0.59701 -0.05033
 H275 H 0.66108 0.51779 0.04772
 H276 H 0.60830 0.58087 0.04334
 H277 H 0.71282 0.66265 0.02071
 H278 H 0.76541 0.59793 0.02465
 H279 H 0.70413 0.54544 -0.07806
 H280 H 0.65230 0.60995 -0.08147
 C281 C 0.94970 -0.21351 0.50060
 C282 C 0.93691 -0.19784 0.54701
 C283 C 0.90200 -0.16929 0.54813
 C284 C 0.88250 -0.15792 0.50262
 C285 C 0.92247 -0.14223 0.47503
 C286 C 0.95700 -0.17112 0.47355
 C287 C 0.90567 -0.23235 0.48207
 C288 C 0.87038 -0.20342 0.48319
 H289 H 0.95278 -0.20932 0.57704
 H290 H 0.88830 -0.15743 0.57898
 H291 H 0.92263 -0.11170 0.45618
 H292 H 0.98563 -0.16487 0.45262
 H293 H 0.90216 -0.26574 0.47007
 H294 H 0.83699 -0.21302 0.47292
 C295 C 0.28626 0.44907 0.99709
 C296 C 0.32880 0.45823 0.96998
 C297 C 0.35854 0.42472 0.96915
 C298 C 0.34307 0.38311 0.99401
 C299 C 0.33338 0.39990 1.04085
 C300 C 0.30347 0.43364 1.04239
 C301 C 0.26680 0.40704 0.97646
 C302 C 0.29646 0.37264 0.97478
 H303 H 0.33595 0.48859 0.95273
 H304 H 0.39094 0.42890 0.95348
 H305 H 0.34928 0.38723 1.07047
 H306 H 0.29355 0.44833 1.07335
 H307 H 0.23269 0.40429 0.96443
 H308 H 0.28751 0.34082 0.96128
 C309 C 0.94970 0.21351 0.49940
 C310 C 0.90567 0.23235 0.51793
 C311 C 0.87038 0.20341 0.51682
 C312 C 0.88250 0.15792 0.49738
 C313 C 0.90200 0.16929 0.45188
 C314 C 0.93691 0.19784 0.45299
 C315 C 0.95701 0.17112 0.52645
 C316 C 0.92247 0.14223 0.52497
 H317 H 0.90216 0.26574 0.52994
 H318 H 0.83699 0.21301 0.52709
 H319 H 0.88829 0.15743 0.42102
 H320 H 0.95278 0.20932 0.42296
 H321 H 0.98563 0.16487 0.54738
 H322 H 0.92264 0.11170 0.54383
 C323 C 0.28626 0.55093 0.00292
 C324 C 0.30347 0.56636 -0.04239
 C325 C 0.33339 0.60010 -0.04085
 C326 C 0.34307 0.61689 0.00599
 C327 C 0.29646 0.62735 0.02522
 C328 C 0.26680 0.59296 0.02354
 C329 C 0.32880 0.54177 0.03003
 C330 C 0.35854 0.57528 0.03085
 H331 H 0.29356 0.55167 -0.07334
 H332 H 0.34928 0.61277 -0.07046
 H333 H 0.28751 0.65918 0.03872
 H334 H 0.23269 0.59571 0.03557
 H335 H 0.33595 0.51141 0.04728
 H336 H 0.39094 0.57110 0.04653
 C337 C 0.05306 -0.21368 0.50157
 C338 C 0.04585 -0.17141 0.52829
 C339 C 0.08038 -0.14252 0.52647
 C340 C 0.12028 -0.15810 0.49892
 C341 C 0.13242 -0.20370 0.51873
 C342 C 0.09711 -0.23264 0.52016
 C343 C 0.06578 -0.19783 0.45500
 C344 C 0.10068 -0.16929 0.45357
 H345 H 0.01731 -0.16527 0.54928
 H346 H 0.08029 -0.11209 0.54510
 H347 H 0.16583 -0.21334 0.52903
 H348 H 0.10060 -0.26610 0.53243
 H349 H 0.04992 -0.20923 0.42509
 H350 H 0.11436 -0.15735 0.42258
 C351 C 0.71022 0.44901 1.00197
 C352 C 0.66773 0.45449 0.97379
 C353 C 0.63905 0.41998 0.97580
 C354 C 0.65495 0.38198 1.00525
 C355 C 0.70211 0.37040 0.98766
 C356 C 0.73086 0.40550 0.98588
 C357 C 0.69313 0.43786 1.04850
 C358 C 0.66458 0.40299 1.05032
 H359 H 0.66108 0.48221 0.95228
 H360 H 0.60830 0.41913 0.95665
 H361 H 0.71282 0.33735 0.97928
 H362 H 0.76541 0.40207 0.97535
 H363 H 0.70413 0.45456 1.07805
 H364 H 0.65230 0.39005 1.08146
 C365 C 0.50022 0.05218 1.21084
 C366 C 0.45248 0.06352 1.19529
 C367 C 0.45007 0.09807 1.16690
 C368 C 0.49575 0.11862 1.15549
 C369 C 0.51552 0.13063 1.20099
 C370 C 0.51796 0.09575 1.22979
 C371 C 0.52756 0.04614 1.16837
 C372 C 0.52481 0.08030 1.13959
 H373 H 0.42246 0.04713 1.20698
 H374 H 0.41808 0.11104 1.15573
 H375 H 0.52522 0.16366 1.21048
 H376 H 0.53047 0.09922 1.26314
 H377 H 0.54945 0.01856 1.16194
 H378 H 0.54357 0.08090 1.10893
 C379 C 0.00021 0.71084 0.55217
 C380 C 0.01796 0.72980 0.59574
 C381 C 0.01552 0.70099 0.63061
 C382 C -0.00425 0.65550 0.61861
 C383 C -0.04994 0.66690 0.59806
 C384 C -0.04753 0.69529 0.56351
 C385 C 0.02755 0.66837 0.54613
 C386 C 0.02481 0.63959 0.58029
 H387 H 0.03047 0.76314 0.59920
 H388 H 0.02522 0.71048 0.66364
 H389 H -0.08192 0.65574 0.61103
 H390 H -0.07754 0.70698 0.54712
 H391 H 0.04945 0.66194 0.51855
 H392 H 0.04357 0.60893 0.58089
 C393 C 0.50021 0.94782 -0.21084
 C394 C 0.52755 0.95386 -0.16837
 C395 C 0.52480 0.91970 -0.13959
 C396 C 0.49574 0.88138 -0.15550
 C397 C 0.45006 0.90193 -0.16690
 C398 C 0.45247 0.93648 -0.19529
 C399 C 0.51796 0.90425 -0.22980
 C400 C 0.51552 0.86937 -0.20099
 H401 H 0.54945 0.98144 -0.16195
 H402 H 0.54357 0.91910 -0.10893
 H403 H 0.41808 0.88896 -0.15573
 H404 H 0.42246 0.95287 -0.20698
 H405 H 0.53046 0.90078 -0.26314
 H406 H 0.52522 0.83634 -0.21048
 C407 C 1.00021 0.28916 0.44783
 C408 C 0.95247 0.30471 0.43649
 C409 C 0.95006 0.33310 0.40194
 C410 C 0.99575 0.34450 0.38139
 C411 C 1.02481 0.36041 0.41971
 C412 C 1.02755 0.33163 0.45387
 C413 C 1.01796 0.27020 0.40426
 C414 C 1.01552 0.29901 0.36939
 H415 H 0.92246 0.29302 0.45289
 H416 H 0.91808 0.34426 0.38897
 H417 H 1.04357 0.39107 0.41911
 H418 H 1.04945 0.33806 0.48145
 H419 H 1.03046 0.23686 0.40080
 H420 H 1.02522 0.28952 0.33635
 C421 C 0.50207 0.95063 0.21119
 C422 C 0.47418 0.95680 0.16900
 C423 C 0.47647 0.92268 0.14056
 C424 C 0.50570 0.88430 0.15651
 C425 C 0.55159 0.90480 0.16703
 C426 C 0.54959 0.93929 0.19513
 C427 C 0.48455 0.90704 0.23084
 C428 C 0.48660 0.87225 0.20240
 H429 H 0.45236 0.98450 0.16248
 H430 H 0.45742 0.92223 0.11008
 H431 H 0.58346 0.89166 0.15596
 H432 H 0.57977 0.95552 0.20647
 H433 H 0.47236 0.90352 0.26433
 H434 H 0.47682 0.83921 0.21224
 C435 C 0.00207 0.28881 0.54938
 C436 C 0.04959 0.30487 0.56072
 C437 C 0.05159 0.33297 0.59521
 C438 C 0.00570 0.34349 0.61571
 C439 C -0.02353 0.35944 0.57733
 C440 C -0.02582 0.33100 0.54322
 C441 C -0.01545 0.26916 0.59297
 C442 C -0.01340 0.29760 0.62776
 H443 H 0.07976 0.29353 0.54449
 H444 H 0.08346 0.34404 0.60835
 H445 H -0.04258 0.38992 0.57778
 H446 H -0.04764 0.33752 0.51552
 H447 H -0.02764 0.23567 0.59650
 H448 H -0.02318 0.28776 0.66080
 C449 C 0.50206 0.04937 0.78881
 C450 C 0.47417 0.04320 0.83100
 C451 C 0.47647 0.07732 0.85943
 C452 C 0.50569 0.11570 0.84349
 C453 C 0.55158 0.09520 0.83297
 C454 C 0.54958 0.06071 0.80487
 C455 C 0.48454 0.09296 0.76916
 C456 C 0.48659 0.12775 0.79760
 H457 H 0.45236 0.01550 0.83752
 H458 H 0.45741 0.07777 0.88992
 H459 H 0.58345 0.10834 0.84404
 H460 H 0.57976 0.04448 0.79353
 H461 H 0.47236 0.09648 0.73567
 H462 H 0.47681 0.16079 0.78776
 C463 C 1.00206 0.71119 0.45062
 C464 C 0.97417 0.66900 0.45678
 C465 C 0.97647 0.64056 0.42267
 C466 C 1.00569 0.65651 0.38429
 C467 C 0.98659 0.70239 0.37224
 C468 C 0.98454 0.73084 0.40703
 C469 C 1.04958 0.69513 0.43928
 C470 C 1.05158 0.66703 0.40479
 H471 H 0.95236 0.66248 0.48449
 H472 H 0.95741 0.61008 0.42222
 H473 H 0.97681 0.71223 0.33920
 H474 H 0.97236 0.76433 0.40350
 H475 H 1.07976 0.70647 0.45550
 H476 H 1.08345 0.65596 0.39165
 C477 C 1.21022 0.49802 0.05099
 C478 C 1.16773 0.52620 0.04552
 C479 C 1.13905 0.52419 0.08002
 C480 C 1.15495 0.49473 0.11802
 C481 C 1.16458 0.44967 0.09701
 C482 C 1.19313 0.45149 0.06214
 C483 C 1.23086 0.51410 0.09451
 C484 C 1.20211 0.51232 0.12961
 H485 H 1.16108 0.54772 0.01780
 H486 H 1.10830 0.54334 0.08087
 H487 H 1.15230 0.41852 0.10994
 H488 H 1.20413 0.42194 0.04544
 H489 H 1.26541 0.52464 0.09794
 H490 H 1.21282 0.52070 0.16265
 C491 C 0.55306 -0.00159 0.71368
 C492 C 0.54585 -0.02830 0.67141
 C493 C 0.58038 -0.02649 0.64252
 C494 C 0.62028 0.00106 0.65810
 C495 C 0.60068 0.04642 0.66929
 C496 C 0.56578 0.04498 0.69783
 C497 C 0.59711 -0.02018 0.73264
 C498 C 0.63242 -0.01875 0.70370
 H499 H 0.51730 -0.04930 0.66527
 H500 H 0.58029 -0.04511 0.61209
 H501 H 0.61436 0.07741 0.65735
 H502 H 0.54992 0.07490 0.70923
 H503 H 0.60060 -0.03245 0.76610
 H504 H 0.66583 -0.02905 0.71334
 C505 C -0.21374 0.49709 0.94906
 C506 C -0.19653 0.54240 0.93364
 C507 C -0.16661 0.54086 0.89990
 C508 C -0.15693 0.49402 0.88310
 C509 C -0.14145 0.46916 0.92471
 C510 C -0.17120 0.46998 0.95822
 C511 C -0.23320 0.47647 0.90703
 C512 C -0.20354 0.47480 0.87264
 H513 H -0.20644 0.57335 0.94833
 H514 H -0.15072 0.57048 0.88723
 H515 H -0.10906 0.45348 0.92889
 H516 H -0.16405 0.45273 0.98858
 H517 H -0.26731 0.46444 0.90429
 H518 H -0.21249 0.46130 0.84081
 C519 C 0.44970 0.00061 0.28649
 C520 C 0.43692 0.04702 0.30216
 C521 C 0.40201 0.04814 0.33071
 C522 C 0.38251 0.00263 0.34208
 C523 C 0.37038 -0.01680 0.29658
 C524 C 0.40568 -0.01792 0.26765
 C525 C 0.45701 -0.02643 0.32888
 C526 C 0.42247 -0.02496 0.35777
 H527 H 0.45278 0.07705 0.29068
 H528 H 0.38830 0.07899 0.34257
 H529 H 0.33699 -0.02707 0.28698
 H530 H 0.40217 -0.02992 0.23425
 H531 H 0.48563 -0.04737 0.33513
 H532 H 0.42264 -0.04381 0.38829
 C533 C 0.21022 0.50198 0.94901
 C534 C 0.19313 0.54851 0.93787
 C535 C 0.16458 0.55033 0.90300
 C536 C 0.15495 0.50527 0.88198
 C537 C 0.20211 0.48768 0.87040
 C538 C 0.23086 0.48590 0.90550
 C539 C 0.16773 0.47380 0.95449
 C540 C 0.13905 0.47581 0.91998
 H541 H 0.20413 0.57806 0.95457
 H542 H 0.15230 0.58148 0.89006
 H543 H 0.21282 0.47930 0.83735
 H544 H 0.26541 0.47536 0.90207
 H545 H 0.16108 0.45228 0.98221
 H546 H 0.10830 0.45666 0.91913
 C547 C 0.55306 0.00159 0.28632
 C548 C 0.56578 -0.04498 0.30217
 C549 C 0.60068 -0.04642 0.33071
 C550 C 0.62028 -0.00106 0.34190
 C551 C 0.63243 0.01875 0.29630
 C552 C 0.59711 0.02018 0.26736
 C553 C 0.54585 0.02830 0.32859
 C554 C 0.58038 0.02649 0.35748
 H555 H 0.54993 -0.07490 0.29077
 H556 H 0.61436 -0.07741 0.34265
 H557 H 0.66584 0.02905 0.28666
 H558 H 0.60061 0.03245 0.23390
 H559 H 0.51731 0.04930 0.33473
 H560 H 0.58029 0.04511 0.38791
 C561 C 0.78626 0.50291 0.05093
 C562 C 0.80347 0.45760 0.06635
 C563 C 0.83338 0.45914 0.10009
 C564 C 0.84307 0.50598 0.11689
 C565 C 0.85854 0.53084 0.07528
 C566 C 0.82880 0.53002 0.04177
 C567 C 0.76680 0.52353 0.09296
 C568 C 0.79646 0.52521 0.12735
 H569 H 0.79356 0.42665 0.05166
 H570 H 0.84928 0.42952 0.11276
 H571 H 0.89094 0.54652 0.07110
 H572 H 0.83595 0.54727 0.01141
 H573 H 0.73269 0.53556 0.09571
 H574 H 0.78751 0.53870 0.15918
 C575 C 0.44970 -0.00061 0.71351
 C576 C 0.45700 0.02643 0.67111
 C577 C 0.42247 0.02496 0.64223
 C578 C 0.38250 -0.00263 0.65792
 C579 C 0.40200 -0.04814 0.66929
 C580 C 0.43691 -0.04702 0.69784
 C581 C 0.40567 0.01792 0.73235
 C582 C 0.37038 0.01680 0.70341
 H583 H 0.48563 0.04737 0.66487
 H584 H 0.42263 0.04381 0.61170
 H585 H 0.38829 -0.07899 0.65742
 H586 H 0.45277 -0.07705 0.70932
 H587 H 0.40216 0.02992 0.76574
 H588 H 0.33699 0.02707 0.71301
   
