data_POSCAR
  _audit_creation_date              2014-09-24
  _audit_creation_method            'ToBaCCo'
  _symmetry_space_group_name_H-M    'P1'
  _symmetry_Int_Tables_number       1
  _symmetry_cell_setting            triclinic
  loop_
  _symmetry_equiv_pos_as_xyz
 x,y,z
_cell_length_a 21.2507
_cell_length_b 30.1623
_cell_length_c 12.7689
_cell_angle_alpha 89.793200
_cell_angle_beta 88.192000
_cell_angle_gamma 87.905400
loop_
  _atom_site_label
  _atom_site_type_symbol
  _atom_site_fract_x
  _atom_site_fract_y
  _atom_site_fract_z
C1 C 0.70659 0.37453 0.52269
 C2 C 0.72199 0.34848 0.60806
 C3 C 0.74417 0.30460 0.59339
 C4 C 0.75300 0.28659 0.49128
 C5 C 0.73419 0.31343 0.40565
 C6 C 0.70946 0.35671 0.42267
 C7 C 0.77963 0.24001 0.47563
 C8 C 0.77094 0.21613 0.38222
 C9 C 0.79743 0.17317 0.36805
 C10 C 0.83029 0.15257 0.44906
 C11 C 0.83830 0.17523 0.54356
 C12 C 0.81485 0.21885 0.55470
 H13 H 0.68620 0.40769 0.53504
 H14 H 0.75204 0.28462 0.66249
 H15 H 0.73784 0.30142 0.32612
 H16 H 0.74363 0.23024 0.31958
 H17 H 0.84980 0.11916 0.43802
 H18 H 0.82533 0.23589 0.62596
 C19 C 0.18075 0.84963 0.54182
 C20 C 0.21172 0.83002 0.62634
 C21 C 0.23433 0.78624 0.61930
 C22 C 0.22346 0.76018 0.53105
 C23 C 0.19320 0.78024 0.44526
 C24 C 0.17210 0.82500 0.44967
 C25 C 0.24193 0.71197 0.53267
 C26 C 0.26623 0.68972 0.44211
 C27 C 0.28771 0.64512 0.44941
 C28 C 0.28555 0.62316 0.54533
 C29 C 0.26444 0.64515 0.63536
 C30 C 0.24020 0.68862 0.62887
 H31 H 0.16305 0.88368 0.54839
 H32 H 0.25958 0.77238 0.68487
 H33 H 0.18420 0.76094 0.37635
 H34 H 0.27096 0.70723 0.36829
 H35 H 0.30614 0.58982 0.55126
 H36 H 0.22283 0.70464 0.70037
 C37 C 0.27858 0.36339 -0.49251
 C38 C 0.27579 0.33949 -0.58603
 C39 C 0.25829 0.29514 -0.58126
 C40 C 0.24321 0.27488 -0.48359
 C41 C 0.24937 0.29966 -0.39066
 C42 C 0.26964 0.34309 -0.39475
 C43 C 0.22360 0.22770 -0.47782
 C44 C 0.23430 0.20175 -0.38741
 C45 C 0.21161 0.15896 -0.37806
 C46 C 0.18077 0.14041 -0.46155
 C47 C 0.17175 0.16497 -0.55441
 C48 C 0.19225 0.20851 -0.56117
 H49 H 0.29401 0.39714 -0.49541
 H50 H 0.25889 0.27632 -0.65326
 H51 H 0.24016 0.28541 -0.31421
 H52 H 0.25998 0.21447 -0.32290
 H53 H 0.16351 0.10717 -0.45363
 H54 H 0.18198 0.22748 -0.63104
 C55 C -0.17520 0.85848 -0.54742
 C56 C -0.20712 0.84071 -0.63077
 C57 C -0.23156 0.79849 -0.62164
 C58 C -0.22163 0.77208 -0.53187
 C59 C -0.18917 0.79045 -0.44835
 C60 C -0.16688 0.83366 -0.45468
 C61 C -0.24396 0.72546 -0.52705
 C62 C -0.25983 0.70526 -0.42971
 C63 C -0.28049 0.66166 -0.42578
 C64 C -0.28591 0.63846 -0.51978
 C65 C -0.27571 0.65867 -0.61725
 C66 C -0.25237 0.70134 -0.62059
 H67 H -0.15671 0.89137 -0.55526
 H68 H -0.25817 0.78660 -0.68596
 H69 H -0.17972 0.77115 -0.37865
 H70 H -0.25851 0.72361 -0.35724
 H71 H -0.30395 0.60542 -0.51732
 H72 H -0.24224 0.71550 -0.69683
 N73 N 0.09003 1.07558 -0.07761
 N74 N 0.13135 1.10726 -0.08438
 N75 N -0.01942 1.04697 -0.21512
 N76 N -0.04428 1.05442 -0.30687
 N77 N -0.03405 1.07943 -0.14941
 N78 N -0.06926 1.11042 -0.19580
 N79 N 0.10427 1.04430 -0.14689
 N80 N 0.15503 1.05422 -0.20338
 C81 C 0.17200 1.09287 -0.16152
 C82 C -0.07537 1.09368 -0.29348
 N83 N -0.03632 0.92135 -0.14669
 N84 N -0.07241 0.89244 -0.19187
 N85 N 0.10299 0.94840 -0.14490
 N86 N 0.15435 0.93614 -0.19963
 N87 N 0.08805 0.91784 -0.07554
 N88 N 0.12962 0.88417 -0.08055
 N89 N -0.02072 0.95257 -0.21368
 N90 N -0.04589 0.94630 -0.30512
 Mn91 Mn 0.04193 0.99803 -0.18013
 C92 C -0.07814 0.90910 -0.29030
 C93 C 0.17103 0.89673 -0.15669
 N94 N -0.08198 1.08154 0.06696
 N95 N -0.12163 1.11630 0.07289
 N96 N 0.02638 1.04608 0.20577
 N97 N 0.05186 1.05201 0.29700
 N98 N 0.04206 1.07732 0.13887
 N99 N 0.07855 1.10594 0.18395
 N100 N -0.09737 1.05157 0.13765
 N101 N -0.14718 1.06569 0.19460
 Mn102 Mn 0.00403 1.07891 -0.00529
 C103 C -0.16238 1.10547 0.15135
 C104 C 0.08439 1.08902 0.28209
 N105 N 0.04026 0.91934 0.14120
 N106 N 0.07639 0.88853 0.18665
 N107 N -0.09870 0.95489 0.13853
 N108 N -0.14988 0.94535 0.19423
 N109 N -0.08408 0.92327 0.07016
 N110 N -0.12565 0.89175 0.07679
 N111 N 0.02511 0.95151 0.20751
 N112 N 0.05068 0.94397 0.29880
 Mn113 Mn 0.00198 0.91995 -0.00270
 Mn114 Mn -0.03641 1.00100 0.17242
 Cl115 Cl 0.00279 0.99948 -0.00386
 C116 C 0.08264 0.90497 0.28457
 C117 C -0.16674 0.90660 0.15287
 N118 N 0.57245 0.53821 0.17153
 N119 N 0.61198 0.54207 0.24783
 N120 N 0.44922 0.58772 0.10702
 N121 N 0.41247 0.62298 0.12982
 N122 N 0.44130 0.55631 0.17688
 N123 N 0.39878 0.56884 0.24866
 N124 N 0.57967 0.57014 0.10224
 N125 N 0.62336 0.59733 0.13193
 C126 C 0.64425 0.57824 0.22131
 C127 C 0.38069 0.61009 0.21746
 N128 N 0.44198 0.55650 -0.18842
 N129 N 0.38607 0.56190 -0.23066
 N130 N 0.57987 0.57059 -0.12561
 N131 N 0.62202 0.59893 -0.16034
 N132 N 0.57443 0.53836 -0.19340
 N133 N 0.61376 0.54322 -0.27385
 N134 N 0.44866 0.58681 -0.11594
 N135 N 0.39755 0.61281 -0.10612
 Mn136 Mn 0.51472 0.57924 -0.00852
 C137 C 0.35992 0.59766 -0.17968
 C138 C 0.64394 0.58032 -0.25136
 N139 N 0.41895 0.46340 0.17894
 N140 N 0.38060 0.45830 0.26061
 N141 N 0.54271 0.41394 0.10507
 N142 N 0.58184 0.37972 0.12184
 N143 N 0.55023 0.44544 0.17348
 N144 N 0.59477 0.43399 0.23838
 N145 N 0.41244 0.43144 0.11073
 N146 N 0.37084 0.40294 0.14665
 Mn147 Mn 0.49573 0.50085 0.17582
 C148 C 0.35007 0.42127 0.23864
 C149 C 0.61445 0.39330 0.20430
 N150 N 0.55447 0.44403 -0.18997
 N151 N 0.60925 0.43560 -0.23987
 N152 N 0.41439 0.43149 -0.11737
 N153 N 0.36967 0.40494 -0.14585
 N154 N 0.42234 0.46296 -0.18742
 N155 N 0.38234 0.45953 -0.26313
 N156 N 0.54495 0.41387 -0.11702
 N157 N 0.59270 0.38486 -0.11412
 Mn158 Mn 0.49851 0.50047 -0.19116
 Mn159 Mn 0.47815 0.42232 -0.00504
 Cl160 Cl 0.49678 0.50073 -0.00724
 C161 C 0.63145 0.39812 -0.19221
 C162 C 0.34906 0.42402 -0.23540
 N163 N 0.30031 0.35852 0.31801
 N164 N 0.31606 0.39885 0.31933
 N165 N -0.21204 0.86234 0.28051
 N166 N -0.21671 0.88106 0.19500
 N167 N 0.70083 0.63866 0.29011
 N168 N 0.67946 0.59988 0.29776
 N169 N 0.14018 1.14683 0.35861
 N170 N 0.11714 1.10862 0.36486
 N171 N 0.70797 0.36369 -0.29835
 N172 N 0.69249 0.37797 -0.21100
 N173 N 0.21630 0.85097 -0.28474
 N174 N 0.22068 0.86847 -0.19835
 N175 N 0.27892 0.62827 -0.27405
 N176 N 0.29624 0.61329 -0.18972
 N177 N -0.12978 1.15477 -0.37047
 N178 N -0.10745 1.11524 -0.37687
 N179 N 0.69481 0.64280 -0.32980
 N180 N 0.67867 0.60257 -0.33136
 N181 N 0.21687 1.13749 -0.28915
 N182 N 0.22169 1.11873 -0.20368
 N183 N 0.29272 0.36359 -0.30271
 N184 N 0.31341 0.40250 -0.31112
 N185 N -0.13482 0.85136 -0.36734
 N186 N -0.11108 0.88943 -0.37314
 N187 N 0.32091 0.62198 0.36683
 N188 N 0.34174 0.63884 0.28206
 N189 N -0.20707 1.15302 0.27787
 N190 N -0.21107 1.13521 0.19164
 N191 N 0.67714 0.38159 0.34505
 N192 N 0.65503 0.36507 0.26335
 N193 N 0.14002 0.84437 0.36197
 N194 N 0.11592 0.88356 0.36745
   
