data_POSCAR
  _audit_creation_date              2014-09-24
  _audit_creation_method            'ToBaCCo'
  _symmetry_space_group_name_H-M    'P1'
  _symmetry_Int_Tables_number       1
  _symmetry_cell_setting            triclinic
  loop_
  _symmetry_equiv_pos_as_xyz
 x,y,z
_cell_length_a 35.3277
_cell_length_b 35.1538
_cell_length_c 27.7980
_cell_angle_alpha 90.207700
_cell_angle_beta 90.076800
_cell_angle_gamma 120.199800
loop_
  _atom_site_label
  _atom_site_type_symbol
  _atom_site_fract_x
  _atom_site_fract_y
  _atom_site_fract_z
C1 C 0.08253 0.53591 0.11853
 C2 C 0.08200 0.57459 0.11895
 C3 C 0.06101 0.57527 0.07704
 N4 N 0.04911 0.53844 0.05078
 C5 C 0.06223 0.51430 0.07616
 C6 C 0.05724 0.61152 0.06166
 C7 C 0.03205 0.61024 0.02156
 C8 C 0.03493 0.64690 -0.00058
 C9 C 0.00534 0.63166 -0.03807
 C10 C -0.01516 0.58609 -0.03732
 N11 N 0.00089 0.57335 -0.00044
 C12 C -0.04770 0.55731 -0.07013
 C13 C -0.06242 0.51172 -0.07195
 C14 C -0.10169 0.48041 -0.09260
 C15 C -0.10145 0.44167 -0.09273
 C16 C -0.06189 0.45059 -0.07244
 N17 N -0.03814 0.49343 -0.05935
 C18 C -0.04660 0.42031 -0.07077
 C19 C -0.01262 0.42615 -0.03915
 C20 C 0.00919 0.40256 -0.04080
 C21 C 0.03937 0.41823 -0.00385
 C22 C 0.03546 0.45125 0.01891
 N23 N 0.00340 0.45547 -0.00240
 C24 C 0.05957 0.47484 0.05994
 H25 H 0.09709 0.52536 0.14585
 H26 H 0.09620 0.59971 0.14662
 H27 H -0.00960 0.47437 0.01025
 H28 H 0.05659 0.68112 0.00879
 H29 H -0.00010 0.65184 -0.06325
 H30 H -0.12745 0.48529 -0.10687
 H31 H -0.12708 0.41061 -0.10704
 H32 H 0.06178 0.40678 0.00511
 H33 H -0.01098 0.54125 0.01122
 H34 H 0.00407 0.37691 -0.06608
 C35 C 0.43419 0.55380 0.07382
 C36 C 0.47321 0.59276 0.07219
 C37 C 0.50275 0.58386 0.04926
 N38 N 0.48315 0.54082 0.03705
 C39 C 0.44126 0.52234 0.05212
 C40 C 0.54808 0.61390 0.04522
 C41 C 0.57645 0.60551 0.01736
 C42 C 0.62181 0.62979 0.01932
 C43 C 0.63689 0.61184 -0.01443
 C44 C 0.60026 0.57724 -0.03599
 N45 N 0.56363 0.57400 -0.01688
 C46 C 0.60117 0.55106 -0.07398
 C47 C 0.56402 0.51161 -0.08937
 C48 C 0.56196 0.48931 -0.13136
 C49 C 0.52235 0.45103 -0.13108
 C50 C 0.50174 0.45082 -0.08850
 N51 N 0.52725 0.48806 -0.06313
 C52 C 0.46156 0.41505 -0.07212
 C53 C 0.43920 0.41863 -0.03161
 C54 C 0.40702 0.38341 -0.00597
 C55 C 0.39291 0.40085 0.02942
 C56 C 0.41674 0.44620 0.02429
 N57 N 0.44460 0.45672 -0.01322
 C58 C 0.41133 0.47654 0.05273
 H59 H 0.40442 0.54883 0.09062
 H60 H 0.47945 0.62379 0.08739
 H61 H 0.46323 0.48776 -0.02835
 H62 H 0.64193 0.65759 0.04251
 H63 H 0.67089 0.62309 -0.02235
 H64 H 0.58663 0.49943 -0.15909
 H65 H 0.51039 0.42583 -0.15873
 H66 H 0.36792 0.38224 0.05585
 H67 H 0.53190 0.55427 -0.02976
 H68 H 0.39504 0.34876 -0.01210
 C69 C 0.55232 1.13405 -0.06662
 C70 C 0.59157 1.13514 -0.06489
 C71 C 0.58438 1.09826 -0.03951
 N72 N 0.54208 1.07466 -0.02556
 C73 C 0.52232 1.09635 -0.04247
 C74 C 0.61452 1.08315 -0.03668
 C75 C 0.60896 1.04938 -0.00527
 C76 C 0.63110 1.02624 -0.00832
 C77 C 0.61558 0.99598 0.02843
 C78 C 0.58457 1.00173 0.05282
 N79 N 0.58140 1.03492 0.03263
 C80 C 0.56039 0.97694 0.09289
 C81 C 0.52348 0.97777 0.11087
 C82 C 0.50220 0.95781 0.15320
 C83 C 0.46379 0.95853 0.15337
 C84 C 0.46276 0.97871 0.11101
 N85 N 0.49943 0.99070 0.08522
 C86 C 0.42507 0.97794 0.09273
 C87 C 0.42557 1.00180 0.05172
 C88 C 0.38868 0.99454 0.02637
 C89 C 0.40316 1.02328 -0.01176
 C90 C 0.44851 1.04744 -0.00850
 N91 N 0.46181 1.03468 0.03086
 C92 C 0.47652 1.07957 -0.04199
 H93 H 0.54608 1.15741 -0.08510
 H94 H 0.62160 1.15934 -0.08201
 H95 H 0.49364 1.04922 0.04424
 H96 H 0.65537 1.03029 -0.03467
 H97 H 0.62565 0.97217 0.03601
 H98 H 0.51236 0.94248 0.18003
 H99 H 0.43836 0.94368 0.18028
 H100 H 0.38266 1.02532 -0.03940
 H101 H 0.56365 1.04898 0.04582
 H102 H 0.35491 0.97037 0.03390
 C103 C 0.90406 0.47141 0.59920
 C104 C 0.90464 0.43278 0.60078
 C105 C 0.93545 0.43636 0.56750
 N106 N 0.95403 0.47624 0.54602
 C107 C 0.93444 0.49756 0.56486
 C108 C 0.94714 0.40371 0.55964
 C109 C 0.97840 0.40720 0.52554
 C110 C 0.99641 0.38008 0.52412
 C111 C 1.02516 0.39389 0.48624
 C112 C 1.02338 0.42857 0.46487
 N113 N 0.99447 0.43616 0.48881
 C114 C 1.04741 0.45139 0.42352
 C115 C 1.05067 0.49113 0.40722
 C116 C 1.06842 0.51053 0.36330
 C117 C 1.06859 0.54947 0.36223
 C118 C 1.05075 0.55272 0.40541
 N119 N 1.03971 0.51694 0.43287
 C120 C 1.04716 0.58965 0.41917
 C121 C 1.02164 0.58952 0.45856
 C122 C 1.02142 0.62642 0.47609
 C123 C 0.99187 0.61254 0.51318
 C124 C 0.97554 0.56768 0.51827
 N125 N 0.99315 0.55379 0.48413
 C126 C 0.94474 0.54108 0.55356
 H127 H 0.88391 0.47943 0.62147
 H128 H 0.88499 0.40545 0.62441
 H129 H 0.98354 0.52135 0.47622
 H130 H 0.98992 0.35334 0.54816
 H131 H 1.04494 0.37978 0.47550
 H132 H 1.08022 0.49796 0.33499
 H133 H 1.08047 0.57281 0.33293
 H134 H 0.98390 0.63342 0.53435
 H135 H 0.98328 0.45699 0.47804
 H136 H 1.04038 0.65991 0.46331
 C137 C 0.55276 0.48041 0.62287
 C138 C 0.51355 0.44166 0.62408
 C139 C 0.49161 0.43952 0.58184
 N140 N 0.51623 0.47557 0.55482
 C141 C 0.55355 0.50072 0.57992
 C142 C 0.45111 0.40306 0.56748
 C143 C 0.42684 0.40314 0.52706
 C144 C 0.39061 0.36617 0.50821
 C145 C 0.37542 0.38031 0.47066
 C146 C 0.40294 0.42551 0.46748
 N147 N 0.43373 0.43918 0.50245
 C148 C 0.39794 0.45298 0.43415
 C149 C 0.42999 0.49750 0.42588
 C150 C 0.42392 0.52597 0.39672
 C151 C 0.46287 0.56493 0.39624
 C152 C 0.49180 0.55897 0.42452
 N153 N 0.47169 0.51764 0.44240
 C154 C 0.53661 0.59068 0.43080
 C155 C 0.56490 0.58512 0.46223
 C156 C 0.61016 0.61122 0.46251
 C157 C 0.62522 0.59695 0.50005
 C158 C 0.58870 0.56256 0.52159
 N159 N 0.55210 0.55587 0.49861
 C160 C 0.58975 0.54016 0.56317
 H161 H 0.57806 0.49200 0.65021
 H162 H 0.50269 0.41754 0.65257
 H163 H 0.52020 0.53615 0.51049
 H164 H 0.37639 0.33254 0.52045
 H165 H 0.34726 0.35964 0.44831
 H166 H 0.39464 0.51941 0.37737
 H167 H 0.46925 0.59413 0.37668
 H168 H 0.65914 0.61067 0.51061
 H169 H 0.45532 0.47163 0.51202
 H170 H 0.63021 0.63806 0.43848
 C171 C 0.53527 0.09416 0.61585
 C172 C 0.57317 0.09257 0.61653
 C173 C 0.56679 0.05851 0.58598
 N174 N 0.52573 0.03875 0.56744
 C175 C 0.50656 0.06087 0.58516
 C176 C 0.59847 0.04576 0.57736
 C177 C 0.59265 0.01186 0.54519
 C178 C 0.62049 -0.00517 0.54214
 C179 C 0.60351 -0.03759 0.50753
 C180 C 0.56612 -0.03905 0.48960
 N181 N 0.56012 -0.00840 0.51237
 C182 C 0.53893 -0.06818 0.45294
 C183 C 0.49826 -0.07258 0.43901
 C184 C 0.47578 -0.09368 0.39727
 C185 C 0.43749 -0.09303 0.39773
 C186 C 0.43757 -0.07150 0.43970
 N187 N 0.47484 -0.05895 0.46493
 C188 C 0.40236 -0.06574 0.45451
 C189 C 0.40611 -0.03579 0.49108
 C190 C 0.37133 -0.03278 0.50985
 C191 C 0.38851 0.00034 0.54374
 C192 C 0.43325 0.01623 0.54544
 N193 N 0.44374 -0.00548 0.51269
 C194 C 0.46298 0.05080 0.57589
 H195 H 0.52940 0.11695 0.63630
 H196 H 0.60199 0.11395 0.63762
 H197 H 0.47514 0.00268 0.50258
 H198 H 0.64978 0.00429 0.56308
 H199 H 0.61712 -0.05789 0.49695
 H200 H 0.48600 -0.10797 0.36921
 H201 H 0.41244 -0.10672 0.37009
 H202 H 0.36996 0.01108 0.56503
 H203 H 0.53728 0.00058 0.50330
 H204 H 0.33706 -0.05240 0.50018
 O205 O 0.16074 0.39515 0.19097
 O206 O 0.22932 0.38465 0.28425
 O207 O 0.15654 0.38672 0.28477
 O208 O 0.23725 0.39817 0.19206
 O209 O 0.27281 0.47017 0.20371
 O210 O 0.19169 0.45877 0.29236
 O211 O 0.26361 0.45670 0.29524
 O212 O 0.19707 0.46728 0.20042
 Cu213 Cu 0.19223 0.38392 0.23658
 Cu214 Cu 0.23485 0.47039 0.24864
 C215 C 0.16635 0.43282 0.18082
 C216 C 0.25842 0.41914 0.30532
 C217 C 0.16032 0.42126 0.30421
 C218 C 0.26972 0.43627 0.18375
 O219 O 0.61119 0.84121 0.30451
 O220 O 0.61994 0.77858 0.20214
 O221 O 0.61501 0.85061 0.21057
 O222 O 0.61509 0.76968 0.29533
 O223 O 0.54293 0.73021 0.28887
 O224 O 0.54287 0.81158 0.20725
 O225 O 0.54766 0.74076 0.19679
 O226 O 0.53915 0.80118 0.29960
 Cu227 Cu 0.62270 0.81421 0.25337
 Cu228 Cu 0.53598 0.76714 0.24750
 C229 C 0.57346 0.83090 0.32023
 C230 C 0.58501 0.74874 0.18252
 C231 C 0.57872 0.84466 0.19438
 C232 C 0.57870 0.73617 0.30632
 O233 O 0.16294 0.77307 0.29751
 O234 O 0.24468 0.85306 0.21203
 O235 O 0.16583 0.78308 0.20516
 O236 O 0.23843 0.84582 0.30673
 O237 O 0.26853 0.80405 0.30340
 O238 O 0.20044 0.74557 0.19870
 O239 O 0.27775 0.81408 0.21114
 O240 O 0.19424 0.73260 0.29020
 Cu241 Cu 0.20007 0.81819 0.25574
 Cu242 Cu 0.23857 0.77032 0.25036
 C243 C 0.16423 0.73839 0.30724
 C244 C 0.27513 0.84679 0.19676
 C245 C 0.17072 0.75339 0.18499
 C246 C 0.26490 0.83461 0.32332
 O247 O 0.84644 0.62116 0.69170
 O248 O 0.77417 0.61842 0.78943
 O249 O 0.84893 0.61976 0.78534
 O250 O 0.77004 0.61724 0.69583
 O251 O 0.73545 0.54459 0.69653
 O252 O 0.81484 0.54705 0.78295
 O253 O 0.74101 0.54582 0.78939
 O254 O 0.81077 0.54849 0.69061
 Cu255 Cu 0.81333 0.62653 0.74052
 Cu256 Cu 0.77197 0.53926 0.73972
 C257 C 0.84139 0.58509 0.67534
 C258 C 0.74549 0.58147 0.80624
 C259 C 0.84563 0.58360 0.79840
 C260 C 0.73867 0.58022 0.68189
 O261 O 0.39520 0.15978 0.80418
 O262 O 0.38704 0.22914 0.70922
 O263 O 0.39083 0.15597 0.71038
 O264 O 0.38901 0.23084 0.80311
 O265 O 0.46084 0.27041 0.79976
 O266 O 0.46282 0.19766 0.70619
 O267 O 0.45920 0.26927 0.70722
 O268 O 0.46735 0.19960 0.79930
 Cu269 Cu 0.38321 0.18984 0.75693
 Cu270 Cu 0.46972 0.23813 0.75302
 C271 C 0.43303 0.16774 0.81707
 C272 C 0.42194 0.26165 0.69289
 C273 C 0.42728 0.16428 0.69252
 C274 C 0.42471 0.26397 0.81677
 O275 O 0.77730 0.15628 0.71364
 O276 O 0.85038 0.24190 0.80077
 O277 O 0.77588 0.16703 0.80690
 O278 O 0.85068 0.23239 0.70829
 O279 O 0.81253 0.26595 0.69866
 O280 O 0.73883 0.20167 0.79628
 O281 O 0.81301 0.27620 0.79023
 O282 O 0.74063 0.19135 0.70421
 Cu283 Cu 0.81714 0.19569 0.75850
 Cu284 Cu 0.77239 0.23707 0.74658
 C285 C 0.74626 0.15926 0.69440
 C286 C 0.84489 0.27439 0.80883
 C287 C 0.74434 0.17306 0.81774
 C288 C 0.84470 0.26116 0.68758
 C289 C 0.06407 0.42302 0.12008
 C290 C 0.08463 0.45822 0.08711
 C291 C 0.13028 0.48116 0.08305
 C292 C 0.15585 0.47105 0.11248
 C293 C 0.13667 0.43741 0.14667
 C294 C 0.09017 0.41249 0.15032
 C295 C 0.01804 0.39914 0.12480
 C296 C -0.00200 0.36540 0.15825
 C297 C 0.02329 0.35528 0.18808
 C298 C 0.06885 0.37875 0.18471
 H299 H -0.00286 0.40632 0.10282
 H300 H -0.03733 0.34722 0.16133
 H301 H 0.00745 0.32920 0.21414
 H302 H 0.08669 0.37014 0.20959
 H303 H 0.14628 0.50826 0.05806
 H304 H 0.19117 0.49051 0.10935
 C305 C 0.56936 0.69342 0.06090
 C306 C 0.56691 0.65387 0.07610
 C307 C 0.57732 0.64983 0.12372
 C308 C 0.58705 0.68307 0.15715
 C309 C 0.58674 0.72121 0.14375
 C310 C 0.57962 0.72754 0.09508
 C311 C 0.56046 0.69923 0.01288
 C312 C 0.56219 0.73815 -0.00120
 C313 C 0.57280 0.77178 0.03215
 C314 C 0.58154 0.76668 0.07991
 H315 H 0.55228 0.67388 -0.01401
 H316 H 0.55537 0.74229 -0.03818
 H317 H 0.57428 0.80197 0.02096
 H318 H 0.59026 0.79365 0.10474
 H319 H 0.57535 0.61958 0.13569
 H320 H 0.59209 0.67777 0.19442
 C321 C 0.36602 0.89835 0.10188
 C322 C 0.38220 0.94344 0.11219
 C323 C 0.36008 0.95550 0.14497
 C324 C 0.32381 0.92350 0.16989
 C325 C 0.30901 0.87853 0.16330
 C326 C 0.32935 0.86551 0.12767
 C327 C 0.38621 0.88538 0.06666
 C328 C 0.37081 0.84108 0.05708
 C329 C 0.33495 0.80890 0.08195
 C330 C 0.31426 0.82076 0.11663
 H331 H 0.41382 0.90931 0.04594
 H332 H 0.38660 0.83168 0.03001
 H333 H 0.32283 0.77448 0.07407
 H334 H 0.28613 0.79419 0.13378
 H335 H 0.37221 0.98993 0.15289
 H336 H 0.30872 0.93412 0.19660
 C337 C 0.94241 0.58970 0.62056
 C338 C 0.92216 0.56013 0.58153
 C339 C 0.87827 0.54543 0.57045
 C340 C 0.85336 0.55666 0.59952
 C341 C 0.87191 0.58433 0.63953
 C342 C 0.91745 0.60308 0.64892
 C343 C 0.98659 0.60516 0.63289
 C344 C 1.00630 0.63444 0.67110
 C345 C 0.98239 0.64848 0.69800
 C346 C 0.93839 0.63290 0.68736
 H347 H 1.00625 0.59480 0.61315
 H348 H 1.04026 0.64617 0.68001
 H349 H 0.99784 0.67106 0.72779
 H350 H 0.92117 0.64408 0.71009
 H351 H 0.86251 0.52288 0.54066
 H352 H 0.81867 0.54202 0.59194
 C353 C 0.40509 0.35031 0.63366
 C354 C 0.43508 0.36167 0.59522
 C355 C 0.45525 0.33680 0.58672
 C356 C 0.44828 0.30274 0.61733
 C357 C 0.42046 0.29197 0.65713
 C358 C 0.39763 0.31513 0.66500
 C359 C 0.38379 0.37443 0.64273
 C360 C 0.35567 0.36419 0.68182
 C361 C 0.34858 0.33016 0.71267
 C362 C 0.36942 0.30594 0.70463
 H363 H 0.38876 0.40136 0.61980
 H364 H 0.33950 0.38293 0.68837
 H365 H 0.32694 0.32258 0.74314
 H366 H 0.36321 0.28026 0.72986
 H367 H 0.47852 0.34549 0.55762
 H368 H 0.46643 0.28593 0.61105
 C369 C 0.64960 0.05308 0.64626
 C370 C 0.64071 0.06999 0.60420
 C371 C 0.67063 0.11274 0.58923
 C372 C 0.70677 0.14019 0.61747
 C373 C 0.71508 0.12530 0.66069
 C374 C 0.68787 0.08058 0.67407
 C375 C 0.62055 0.00986 0.66205
 C376 C 0.62977 -0.00654 0.70326
 C377 C 0.66765 0.01983 0.72972
 C378 C 0.69636 0.06305 0.71563
 H379 H 0.59063 -0.01162 0.64267
 H380 H 0.60733 -0.03984 0.71480
 H381 H 0.67451 0.00696 0.76181
 H382 H 0.72477 0.08240 0.73798
 H383 H 0.66425 0.12592 0.55702
 H384 H 0.72732 0.17418 0.60668
 C385 C 0.46606 0.08958 0.87171
 C386 C 0.45843 0.09354 0.92128
 C387 C 0.43631 0.11595 0.93406
 C388 C 0.42616 0.13816 0.89943
 C389 C 0.43792 0.13861 0.85128
 C390 C 0.45671 0.11313 0.83675
 C391 C 0.48172 0.06167 0.85604
 C392 C 0.48922 0.05833 0.80739
 C393 C 0.48193 0.08292 0.77350
 C394 C 0.46585 0.11009 0.78789
 H395 H 0.48732 0.04150 0.88110
 H396 H 0.50033 0.03627 0.79577
 H397 H 0.48806 0.08039 0.73580
 H398 H 0.45987 0.12794 0.76030
 H399 H 0.42954 0.11883 0.97149
 H400 H 0.41125 0.15715 0.91071
 C401 C 0.66658 0.54124 0.91216
 C402 C 0.64361 0.56376 0.90245
 C403 C 0.65877 0.59598 0.86669
 C404 C 0.69427 0.60375 0.83807
 C405 C 0.71526 0.57924 0.84422
 C406 C 0.70296 0.54929 0.88307
 C407 C 0.65384 0.51059 0.95001
 C408 C 0.67689 0.48883 0.95941
 C409 C 0.71305 0.49735 0.93162
 C410 C 0.72618 0.52736 0.89388
 H411 H 0.62635 0.50357 0.97291
 H412 H 0.66690 0.46554 0.98868
 H413 H 0.73117 0.48078 0.93949
 H414 H 0.75510 0.53377 0.87402
 H415 H 0.64154 0.61356 0.85927
 H416 H 0.70358 0.62711 0.80895
 C417 C 0.93171 0.39047 0.84668
 C418 C 0.93445 0.38414 0.89679
 C419 C 0.91251 0.34109 0.91505
 C420 C 0.88472 0.30548 0.88566
 C421 C 0.87734 0.31209 0.83769
 C422 C 0.90152 0.35472 0.81750
 C423 C 0.95933 0.43161 0.82484
 C424 C 0.95587 0.43763 0.77585
 C425 C 0.92411 0.40361 0.74808
 C426 C 0.89712 0.36256 0.76855
 H427 H 0.98446 0.45900 0.84525
 H428 H 0.97811 0.46863 0.75916
 H429 H 0.92117 0.40866 0.71019
 H430 H 0.87390 0.33693 0.74514
 H431 H 0.91455 0.33528 0.95297
 H432 H 0.86701 0.27287 0.90114
 C433 C 0.52655 0.85832 0.42998
 C434 C 0.55226 0.90501 0.42888
 C435 C 0.58866 0.92505 0.39832
 C436 C 0.59672 0.90008 0.36528
 C437 C 0.56892 0.85437 0.36214
 C438 C 0.53512 0.83278 0.39665
 C439 C 0.49282 0.83658 0.46418
 C440 C 0.46810 0.79079 0.46543
 C441 C 0.47675 0.76578 0.43323
 C442 C 0.50993 0.78636 0.39928
 H443 H 0.48579 0.85479 0.49069
 H444 H 0.44246 0.77464 0.49190
 H445 H 0.45791 0.73021 0.43483
 H446 H 0.51617 0.76538 0.37616
 H447 H 0.60892 0.96060 0.39731
 H448 H 0.62316 0.91700 0.33980
 C449 C 0.35339 0.41203 0.36039
 C450 C 0.35738 0.43414 0.40445
 C451 C 0.32522 0.44424 0.41761
 C452 C 0.29148 0.43637 0.38599
 C453 C 0.28807 0.41680 0.34103
 C454 C 0.31787 0.40240 0.32874
 C455 C 0.38493 0.40080 0.34635
 C456 C 0.38110 0.37972 0.30254
 C457 C 0.34610 0.36968 0.27189
 C458 C 0.31478 0.38091 0.28462
 H459 H 0.41271 0.40815 0.36907
 H460 H 0.40550 0.37124 0.29225
 H461 H 0.34344 0.35353 0.23780
 H462 H 0.28875 0.37316 0.25916
 H463 H 0.32814 0.46133 0.45116
 H464 H 0.26898 0.44757 0.39576
 C465 C 0.05624 0.64874 0.36282
 C466 C 0.07358 0.62950 0.39439
 C467 C 0.11907 0.64844 0.39857
 C468 C 0.14731 0.68491 0.37171
 C469 C 0.13142 0.70391 0.33914
 C470 C 0.08540 0.68620 0.33474
 C471 C 0.01060 0.62997 0.35631
 C472 C -0.00606 0.64789 0.32370
 C473 C 0.02221 0.68422 0.29633
 C474 C 0.06742 0.70306 0.30137
 H475 H -0.01262 0.60104 0.37591
 H476 H -0.04112 0.63317 0.31921
 H477 H 0.00903 0.69761 0.27061
 H478 H 0.08764 0.73045 0.27831
 H479 H 0.13293 0.63423 0.42241
 H480 H 0.18220 0.69772 0.37549
 C481 C 0.93638 0.56534 0.84547
 C482 C 0.93504 0.57393 0.89521
 C483 C 0.90975 0.59232 0.91032
 C484 C 0.88244 0.59750 0.87785
 C485 C 0.87904 0.58346 0.82998
 C486 C 0.90660 0.56784 0.81319
 C487 C 0.96731 0.55476 0.82724
 C488 C 0.96749 0.54508 0.77865
 C489 C 0.93576 0.54363 0.74786
 C490 C 0.90553 0.55485 0.76483
 H491 H 0.99215 0.55495 0.85027
 H492 H 0.99241 0.53880 0.76485
 H493 H 0.93527 0.53490 0.71039
 H494 H 0.88216 0.55429 0.73944
 H495 H 0.90861 0.59963 0.94802
 H496 H 0.86175 0.60987 0.89085
 C497 C 0.40511 0.35108 0.87940
 C498 C 0.44574 0.37348 0.90527
 C499 C 0.47326 0.35555 0.90659
 C500 C 0.46387 0.31849 0.88019
 C501 C 0.42589 0.29664 0.85214
 C502 C 0.39435 0.31074 0.85447
 C503 C 0.37881 0.37135 0.87664
 C504 C 0.33946 0.35491 0.85198
 C505 C 0.35339 0.28605 0.83246
 H506 H 0.38960 0.40287 0.89357
 H507 H 0.32204 0.37291 0.85133
 H508 H 0.64813 0.53597 0.75219
 H509 H 0.34083 0.25533 0.81350
 H510 H 0.50367 0.37175 0.92687
 H511 H 0.48767 0.30764 0.88042
 C512 C 0.63804 0.08799 0.87691
 C513 C 0.64921 0.09914 0.92592
 C514 C 0.69226 0.13065 0.93844
 C515 C 0.72357 0.15291 0.90287
 C516 C 0.71205 0.14521 0.85409
 C517 C 0.66905 0.11251 0.84069
 C518 C 0.59624 0.05334 0.86321
 C519 C 0.58502 0.04392 0.81479
 C520 C 0.61434 0.06981 0.77933
 C521 C 0.65598 0.10381 0.79201
 H522 H 0.57225 0.03292 0.88976
 H523 H 0.55338 0.01652 0.80475
 H524 H 0.60504 0.06308 0.74179
 H525 H 0.67787 0.12286 0.76339
 H526 H 0.70112 0.13935 0.97585
 H527 H 0.75636 0.17794 0.91343
 C528 C 0.05493 0.39765 0.37121
 C529 C 0.07309 0.43671 0.39956
 C530 C 0.11856 0.46431 0.40110
 C531 C 0.14575 0.45599 0.37276
 C532 C 0.12894 0.41995 0.34100
 C533 C 0.08308 0.38871 0.34209
 C534 C 0.00921 0.36849 0.36920
 C535 C -0.00843 0.33030 0.34143
 C536 C 0.01884 0.32070 0.31453
 C537 C 0.06394 0.34966 0.31420
 H538 H -0.01336 0.37484 0.38904
 H539 H -0.04349 0.30802 0.34076
 H540 H 0.00489 0.29078 0.29326
 H541 H 0.08286 0.34017 0.29225
 H542 H 0.13314 0.49378 0.42328
 H543 H 0.18056 0.47959 0.37409
 C544 C 0.56419 0.67249 0.42155
 C545 C 0.55492 0.63151 0.40152
 C546 C 0.55908 0.62789 0.35183
 C547 C 0.56942 0.66322 0.32158
 C548 C 0.57702 0.70345 0.34028
 C549 C 0.57596 0.70896 0.39063
 C550 C 0.56050 0.67763 0.47142
 C551 C 0.56910 0.71802 0.49037
 C552 C 0.58132 0.75386 0.46019
 C553 C 0.58476 0.74952 0.41076
 H554 H 0.55086 0.65060 0.49611
 H555 H 0.56621 0.72153 0.52868
 H556 H 0.58793 0.78511 0.47511
 H557 H 0.59430 0.77809 0.38850
 H558 H 0.55194 0.59669 0.33617
 H559 H 0.56973 0.65859 0.28306
 C560 C 0.33939 0.86138 0.43295
 C561 C 0.36153 0.90812 0.43130
 C562 C 0.34580 0.92866 0.40055
 C563 C 0.31227 0.90399 0.36774
 C564 C 0.29309 0.85810 0.36524
 C565 C 0.30450 0.83620 0.40021
 C566 C 0.35099 0.83924 0.46709
 C567 C 0.32866 0.79342 0.46897
 C568 C 0.29398 0.76881 0.43761
 C569 C 0.28171 0.78981 0.40378
 H570 H 0.37692 0.85718 0.49306
 H571 H 0.33789 0.77696 0.49535
 H572 H 0.27619 0.73324 0.43982
 H573 H 0.25358 0.76934 0.38144
 H574 H 0.36203 0.96426 0.39903
 H575 H 0.30337 0.92120 0.34193
 C576 C 0.54248 0.89788 0.09867
 C577 C 0.56892 0.94262 0.11235
 C578 C 0.60103 0.95433 0.14785
 C579 C 0.60545 0.92212 0.17206
 C580 C 0.57767 0.87730 0.16167
 C581 C 0.54698 0.86490 0.12324
 C582 C 0.51131 0.88530 0.06119
 C583 C 0.48559 0.84129 0.04772
 C584 C 0.49049 0.80909 0.07101
 C585 C 0.52081 0.82058 0.10829
 H586 H 0.50684 0.90935 0.04167
 H587 H 0.46201 0.83217 0.01878
 H588 H 0.47082 0.77500 0.05998
 H589 H 0.52384 0.79435 0.12439
 H590 H 0.62143 0.98850 0.15836
 H591 H 0.62917 0.93219 0.20104
 C592 C 0.38343 0.46663 0.13845
 C593 C 0.37489 0.45990 0.08833
 C594 C 0.33170 0.44137 0.07156
 C595 C 0.29745 0.43171 0.10332
 C596 C 0.30575 0.44171 0.15237
 C597 C 0.34898 0.45905 0.17045
 C598 C 0.42580 0.48146 0.15730
 C599 C 0.43434 0.49014 0.20631
 C600 C 0.40104 0.48429 0.23739
 C601 C 0.35881 0.46897 0.21979
 H602 H 0.45257 0.48621 0.13441
 H603 H 0.46698 0.50157 0.22021
 H604 H 0.40782 0.49120 0.27542
 H605 H 0.33399 0.46450 0.24536
 H606 H 0.32473 0.43582 0.03340
 H607 H 0.26457 0.41844 0.08916
 C608 C 0.12817 0.68386 0.07186
 C609 C 0.08478 0.65420 0.08676
 C610 C 0.06881 0.66265 0.12913
 C611 C 0.09638 0.69782 0.15892
 C612 C 0.14038 0.72555 0.14676
 C613 C 0.15585 0.72036 0.10172
 C614 C 0.14491 0.67762 0.02833
 C615 C 0.18751 0.70767 0.01389
 C616 C 0.21401 0.74433 0.04235
 C617 C 0.19839 0.75072 0.08590
 H618 H 0.12516 0.64985 0.00495
 H619 H 0.19984 0.70275 -0.01978
 H620 H 0.24673 0.76798 0.03053
 H621 H 0.21920 0.78006 0.10661
 H622 H 0.03564 0.64013 0.14074
 H623 H 0.08410 0.70147 0.19327
 C624 C 0.46075 0.12151 0.58395
 C625 C 0.44775 0.07852 0.60027
 C626 C 0.42347 0.06314 0.64273
 C627 C 0.41387 0.09042 0.67030
 C628 C 0.42939 0.13418 0.65686
 C629 C 0.45171 0.14963 0.61259
 C630 C 0.48337 0.13742 0.54014
 C631 C 0.49656 0.18004 0.52482
 C632 C 0.48744 0.20744 0.55267
 C633 C 0.46519 0.19249 0.59613
 H634 H 0.49080 0.11703 0.51731
 H635 H 0.51379 0.19180 0.49110
 H636 H 0.49751 0.24039 0.54047
 H637 H 0.45811 0.21447 0.61636
 H638 H 0.41339 0.03034 0.65553
 H639 H 0.39667 0.07814 0.70400
 C640 C 0.64325 0.58847 0.62798
 C641 C 0.63169 0.55760 0.59000
 C642 C 0.65758 0.53877 0.58055
 C643 C 0.69349 0.54849 0.60944
 C644 C 0.70478 0.57749 0.64858
 C645 C 0.68003 0.59846 0.65779
 C646 C 0.61793 0.60831 0.63800
 C647 C 0.62838 0.63718 0.67677
 C648 C 0.66384 0.64651 0.70637
 C649 C 0.68940 0.62734 0.69724
 H650 H 0.58986 0.60156 0.61608
 H651 H 0.60866 0.65214 0.68411
 H652 H 0.67150 0.66860 0.73674
 H653 H 0.71613 0.63525 0.72167
 H654 H 0.64876 0.51490 0.55173
 H655 H 0.71186 0.53202 0.60214
 C656 C 0.94500 0.35872 0.63239
 C657 C 0.92546 0.36347 0.59000
 C658 C 0.88280 0.33106 0.57763
 C659 C 0.85819 0.29596 0.60823
 C660 C 0.87587 0.29139 0.65148
 C661 C 0.92038 0.32178 0.66290
 C662 C 0.98801 0.39074 0.64590
 C663 C 1.00679 0.38606 0.68794
 C664 C 0.98314 0.34969 0.71735
 C665 C 0.94034 0.31787 0.70522
 H666 H 1.00741 0.41962 0.62417
 H667 H 1.03982 0.41086 0.69785
 H668 H 0.99783 0.34638 0.75009
 H669 H 0.92318 0.29078 0.72974
 H670 H 0.86758 0.33442 0.54530
 H671 H 0.82422 0.27322 0.59919
   
