data_POSCAR
  _audit_creation_date              2014-09-24
  _audit_creation_method            'ToBaCCo'
  _symmetry_space_group_name_H-M    'P1'
  _symmetry_Int_Tables_number       1
  _symmetry_cell_setting            triclinic
  loop_
  _symmetry_equiv_pos_as_xyz
 x,y,z
_cell_length_a 49.9656
_cell_length_b 48.4340
_cell_length_c 47.5684
_cell_angle_alpha 92.540000
_cell_angle_beta 90.298200
_cell_angle_gamma 91.981200
loop_
  _atom_site_label
  _atom_site_type_symbol
  _atom_site_fract_x
  _atom_site_fract_y
  _atom_site_fract_z
Si1 Si 0.25463 0.48988 1.01225
 Si2 Si 0.75056 0.49611 0.00114
 Si3 Si 0.00144 0.25230 0.51496
 Si4 Si 0.99256 0.75874 0.50316
 Si5 Si 0.49574 0.00575 0.24709
 Si6 Si 0.49761 -0.02020 0.73934
 C7 C 0.28267 0.03215 0.45694
 H8 H 0.28242 0.04972 0.47179
 C9 C 0.29994 0.03260 0.43401
 H10 H 0.31221 0.05107 0.43104
 C11 C 0.26680 -0.01309 0.44317
 H12 H 0.25439 -0.03116 0.44727
 C13 C 0.28427 -0.01381 0.42033
 H14 H 0.28501 -0.03260 0.40723
 N15 N 0.26632 0.00968 0.46092
 C16 C 0.20814 0.04295 0.52040
 H17 H 0.20876 0.02724 0.53585
 C18 C 0.19095 0.06489 0.52416
 H19 H 0.17851 0.06609 0.54271
 C20 C 0.22339 0.06017 0.47724
 H21 H 0.23541 0.05784 0.45856
 C22 C 0.20661 0.08259 0.48026
 H23 H 0.20601 0.09740 0.46388
 Zn24 Zn 0.24539 0.00951 0.49392
 N25 N 0.22402 0.04103 0.49733
 C26 C 0.27256 0.03067 0.54350
 N27 N 0.26979 0.00897 0.52442
 C28 C 0.28607 -0.01291 0.52512
 C29 C 0.30597 -0.01369 0.54573
 C30 C 0.29237 0.03085 0.56435
 C31 C 0.20399 -0.02450 0.47117
 C32 C 0.18535 -0.04664 0.46930
 C33 C 0.20298 -0.06270 0.51283
 C34 C 0.22146 -0.04032 0.51375
 N35 N 0.22171 -0.02188 0.49299
 H36 H 0.25990 0.04821 0.54216
 H37 H 0.28383 -0.02959 0.50929
 H38 H 0.31903 -0.03108 0.54565
 H39 H 0.29442 0.04833 0.57930
 H40 H 0.20434 -0.00925 0.45522
 H41 H 0.17125 -0.04822 0.45190
 H42 H 0.20308 -0.07726 0.52945
 H43 H 0.23530 -0.03753 0.53125
 C44 C 0.18999 0.08503 0.50388
 C45 C 0.30131 0.00921 0.41551
 C46 C 0.18464 -0.06607 0.49035
 C47 C 0.30946 0.00851 0.56555
 C48 C 0.71351 0.02417 0.53443
 H49 H 0.71529 0.04180 0.52129
 C50 C 0.69581 0.02452 0.55703
 H51 H 0.68394 0.04253 0.56111
 C52 C 0.72583 -0.02132 0.54396
 H53 H 0.73705 -0.03939 0.53834
 C54 C 0.70824 -0.02191 0.56671
 H55 H 0.70656 -0.04029 0.57882
 N56 N 0.72807 0.00150 0.52835
 C57 C 0.78526 0.03787 0.47106
 H58 H 0.78037 0.02492 0.45251
 C59 C 0.80435 0.05935 0.46952
 H60 H 0.81337 0.06314 0.44937
 C61 C 0.77880 0.04848 0.51958
 H62 H 0.76912 0.04368 0.53914
 C63 C 0.79845 0.06976 0.51920
 H64 H 0.80374 0.08100 0.53870
 Zn65 Zn 0.74893 0.00188 0.49534
 N66 N 0.77270 0.03303 0.49570
 C67 C 0.72140 0.02702 0.45169
 N68 N 0.72475 0.00289 0.46465
 C69 C 0.70968 -0.02021 0.45721
 C70 C 0.69126 -0.01997 0.43505
 C71 C 0.70296 0.02830 0.42971
 C72 C 0.78758 -0.03282 0.51428
 C73 C 0.80610 -0.05371 0.51295
 C74 C 0.79021 -0.06669 0.46600
 C75 C 0.77185 -0.04558 0.46829
 N76 N 0.77080 -0.02924 0.49225
 H77 H 0.73257 0.04553 0.45880
 H78 H 0.71212 -0.03892 0.46842
 H79 H 0.68009 -0.03886 0.42898
 H80 H 0.70030 0.04789 0.42014
 H81 H 0.78686 -0.01901 0.53275
 H82 H 0.81963 -0.05583 0.53052
 H83 H 0.79087 -0.07945 0.44676
 H84 H 0.75912 -0.04178 0.45056
 C85 C 0.81169 0.07538 0.49390
 C86 C 0.69279 0.00115 0.57334
 C87 C 0.80774 -0.07086 0.48849
 C88 C 0.68767 0.00455 0.42094
 C89 C 0.47196 0.21038 1.03110
 H90 H 0.45532 0.21042 1.01657
 C91 C 0.47007 0.19423 1.05465
 H92 H 0.45216 0.18148 1.05764
 C93 C 0.51533 0.22700 1.04512
 H94 H 0.53280 0.24009 1.04176
 C95 C 0.51441 0.21092 1.06877
 H96 H 0.53129 0.21167 1.08320
 N97 N 0.49456 0.22595 1.02641
 C98 C 0.45984 0.27770 0.96511
 H99 H 0.47045 0.27065 0.94652
 C100 C 0.43930 0.29628 0.96278
 H101 H 0.43393 0.30311 0.94219
 C102 C 0.45428 0.27751 1.01456
 H103 H 0.46065 0.27052 1.03473
 C104 C 0.43364 0.29614 1.01320
 H105 H 0.42431 0.30345 1.03250
 Zn106 Zn 0.49663 0.24587 0.99278
 N107 N 0.46699 0.26887 0.99072
 C108 C 0.47185 0.20590 0.95579
 N109 N 0.49521 0.22056 0.96100
 C110 C 0.51663 0.21749 0.94371
 C111 C 0.51538 0.19828 0.92091
 C112 C 0.46969 0.18658 0.93316
 C113 C 0.52624 0.29631 0.99162
 C114 C 0.54893 0.31390 0.99214
 C115 C 0.57645 0.27410 0.99498
 C116 C 0.55317 0.25719 0.99418
 N117 N 0.52864 0.26848 0.99266
 H118 H 0.45473 0.20932 0.96905
 H119 H 0.53476 0.22984 0.94749
 H120 H 0.53268 0.19603 0.90747
 H121 H 0.45109 0.17472 0.92980
 H122 H 0.50668 0.30505 0.99066
 H123 H 0.54651 0.33601 0.99169
 H124 H 0.59580 0.26480 0.99620
 H125 H 0.55466 0.23501 0.99505
 C126 C 0.42610 0.30601 0.98707
 C127 C 0.49168 0.19403 1.07356
 C128 C 0.57444 0.30287 0.99391
 C129 C 0.49175 0.18234 0.91556
 C130 C 0.49029 0.78100 -0.03913
 H131 H 0.47637 0.78433 -0.02206
 C132 C 0.49052 0.79837 -0.06177
 H133 H 0.47686 0.81523 -0.06161
 C134 C 0.52609 0.75597 -0.05877
 H135 H 0.54028 0.73980 -0.05732
 C136 C 0.52669 0.77253 -0.08209
 H137 H 0.54099 0.76830 -0.09859
 N138 N 0.50799 0.76041 -0.03793
 C139 C 0.47269 0.70156 0.01907
 H140 H 0.48731 0.70322 0.03597
 C141 C 0.45027 0.68381 0.02103
 H142 H 0.44762 0.67237 0.03990
 C143 C 0.45843 0.71522 -0.02565
 H144 H 0.46193 0.72728 -0.04394
 C145 C 0.43596 0.69728 -0.02482
 H146 H 0.42251 0.69561 -0.04276
 Zn147 Zn 0.50759 0.73985 -0.00500
 N148 N 0.47619 0.71705 -0.00384
 C149 C 0.48732 0.76768 0.04365
 N150 N 0.50867 0.76575 0.02610
 C151 C 0.53028 0.78351 0.02918
 C152 C 0.53139 0.80360 0.05118
 C153 C 0.48745 0.78769 0.06568
 C154 C 0.53701 0.69547 -0.02477
 C155 C 0.55806 0.67732 -0.02645
 C156 C 0.57852 0.70158 0.01406
 C157 C 0.55699 0.71928 0.01499
 N158 N 0.53705 0.71626 -0.00461
 H159 H 0.46989 0.75413 0.04031
 H160 H 0.54662 0.78213 0.01440
 H161 H 0.54871 0.81763 0.05333
 H162 H 0.47034 0.78890 0.07951
 H163 H 0.52060 0.69315 -0.03971
 H164 H 0.55754 0.66088 -0.04265
 H165 H 0.59452 0.70470 0.02942
 H166 H 0.55636 0.73541 0.03135
 C167 C 0.43157 0.68123 -0.00121
 C168 C 0.50893 0.79433 -0.08372
 C169 C 0.57935 0.68040 -0.00705
 C170 C 0.50972 0.80588 0.06969
 C171 C 1.02958 0.46247 0.21348
 H172 H 1.01315 0.44734 0.21380
 C173 C 1.05012 0.45913 0.19403
 H174 H 1.04962 0.44086 0.18007
 C175 C 1.04974 0.50467 0.23136
 H176 H 1.04913 0.52271 0.24552
 C177 C 1.07045 0.50244 0.21180
 H178 H 1.08548 0.51903 0.21116
 N179 N 1.02980 0.48487 0.23174
 C180 C 0.97599 0.46168 0.29940
 H181 H 0.96343 0.47945 0.30033
 C182 C 0.97299 0.44149 0.31933
 H183 H 0.95820 0.44416 0.33567
 C184 C 1.01164 0.43783 0.27794
 H185 H 1.02713 0.43673 0.26227
 C186 C 1.00902 0.41692 0.29711
 H187 H 1.02211 0.39960 0.29521
 Zn188 Zn 0.99944 0.48932 0.25490
 N189 N 0.99513 0.45960 0.27930
 C190 C 0.94839 0.47267 0.23096
 N191 N 0.96983 0.49073 0.23018
 C192 C 0.97228 0.50924 0.20963
 C193 C 0.95295 0.50988 0.18849
 C194 C 0.92847 0.47260 0.21013
 C195 C 1.02171 0.52296 0.29873
 C196 C 1.02444 0.54592 0.31745
 C197 C 0.98944 0.56759 0.29207
 C198 C 0.98712 0.54402 0.27408
 N199 N 1.00320 0.52234 0.27766
 H200 H 0.94711 0.45775 0.24718
 H201 H 0.98972 0.52310 0.20931
 H202 H 0.95542 0.52468 0.17222
 H203 H 0.91195 0.45757 0.21050
 H204 H 1.03399 0.50527 0.30132
 H205 H 1.03872 0.54549 0.33459
 H206 H 0.97669 0.58472 0.28852
 H207 H 0.97228 0.54304 0.25745
 C208 C 0.98972 0.41868 0.31846
 C209 C 1.07074 0.47952 0.19257
 C210 C 1.00810 0.56868 0.31438
 C211 C 0.93092 0.49106 0.18825
 C212 C -0.02913 0.50554 0.80483
 H213 H -0.01501 0.48922 0.80628
 C214 C -0.05156 0.50592 0.82212
 H215 H -0.05451 0.48989 0.83707
 C216 C -0.04196 0.54666 0.78393
 H217 H -0.03798 0.56256 0.76913
 C218 C -0.06459 0.54798 0.80106
 H219 H -0.07811 0.56480 0.79909
 N220 N -0.02493 0.52551 0.78600
 C221 C 0.02532 0.48395 0.72399
 H222 H 0.04318 0.49725 0.72496
 C223 C 0.02368 0.46125 0.70481
 H224 H 0.04039 0.45712 0.69103
 C225 C -0.01879 0.47409 0.73970
 H226 H -0.03558 0.47955 0.75274
 C227 C -0.02138 0.45140 0.72065
 H228 H -0.03999 0.43925 0.71965
 Zn229 Zn 0.00622 0.52290 0.76387
 N230 N 0.00427 0.48989 0.74097
 C231 C 0.05084 0.50065 0.79116
 N232 N 0.03565 0.52325 0.78910
 C233 C 0.03967 0.54591 0.80671
 C234 C 0.06003 0.54672 0.82695
 C235 C 0.07114 0.50039 0.81143
 C236 C -0.00966 0.55175 0.71809
 C237 C -0.00896 0.57185 0.69801
 C238 C 0.02959 0.59352 0.72189
 C239 C 0.02844 0.57263 0.74125
 N240 N 0.00881 0.55246 0.73919
 H241 H 0.04671 0.48245 0.77769
 H242 H 0.02684 0.56332 0.80516
 H243 H 0.06312 0.56523 0.84032
 H244 H 0.08234 0.48181 0.81323
 H245 H -0.02478 0.53520 0.71667
 H246 H -0.02345 0.57020 0.68099
 H247 H 0.04500 0.60971 0.72435
 H248 H 0.04333 0.57257 0.75776
 C249 C -0.00007 0.44492 0.70272
 C250 C -0.06966 0.52731 0.82032
 C251 C 0.01076 0.59331 0.69977
 C252 C 0.07599 0.52364 0.82976
 C253 C 0.03896 0.17786 0.52225
 C254 C 0.06658 0.18436 0.51920
 C255 C 0.07432 0.21242 0.51550
 C256 C 0.05501 0.23290 0.51529
 C257 C 0.02772 0.22578 0.51724
 C258 C 0.02004 0.19822 0.52133
 C259 C 0.10122 0.21982 0.51164
 C260 C 0.12059 0.19987 0.51032
 C261 C 0.11387 0.17161 0.51347
 C262 C 0.08659 0.16393 0.51923
 C263 C 0.08022 0.13611 0.52493
 C264 C 0.09949 0.11621 0.52390
 C265 C 0.12581 0.12301 0.51676
 C266 C 0.13349 0.15072 0.51128
 C267 C 0.16038 0.15611 0.50322
 C268 C 0.17864 0.13490 0.50092
 C269 C 0.17087 0.10771 0.50677
 C270 C 0.14442 0.10200 0.51479
 H271 H 0.03110 0.15715 0.52475
 H272 H 0.06124 0.25438 0.51335
 H273 H -0.00075 0.19203 0.52395
 H274 H 0.10734 0.24124 0.50906
 H275 H 0.14085 0.20738 0.50719
 H276 H 0.06047 0.12896 0.53075
 H277 H 0.09359 0.09511 0.52840
 H278 H 0.16783 0.17636 0.49797
 H279 H 0.19900 0.13981 0.49467
 H280 H 0.13808 0.08090 0.51879
 C281 C 0.70601 0.56074 0.03382
 C282 C 0.69466 0.57203 0.00966
 C283 C 0.70296 0.56138 -0.01702
 C284 C 0.72073 0.53960 -0.01913
 C285 C 0.73066 0.52790 0.00496
 C286 C 0.72363 0.53899 0.03138
 C287 C 0.69305 0.57201 -0.04155
 C288 C 0.67441 0.59257 -0.04041
 C289 C 0.66462 0.60326 -0.01449
 C290 C 0.67508 0.59300 0.01100
 C291 C 0.66509 0.60351 0.03690
 C292 C 0.64517 0.62281 0.03797
 C293 C 0.63448 0.63265 0.01339
 C294 C 0.64427 0.62342 -0.01321
 C295 C 0.63292 0.63450 -0.03744
 C296 C 0.61227 0.65312 -0.03524
 C297 C 0.60216 0.66152 -0.00896
 C298 C 0.61368 0.65146 0.01532
 H299 H 0.70150 0.56793 0.05494
 H300 H 0.72632 0.53130 -0.03972
 H301 H 0.73125 0.53060 0.05035
 H302 H 0.69953 0.56408 -0.06199
 H303 H 0.66772 0.59924 -0.06047
 H304 H 0.67190 0.59689 0.05694
 H305 H 0.63788 0.62992 0.05837
 H306 H 0.63937 0.62926 -0.05849
 H307 H 0.60423 0.66109 -0.05434
 H308 H 0.60595 0.65768 0.03581
 C309 C 0.92575 -0.19906 0.52965
 C310 C 0.91926 -0.18298 0.50653
 C311 C 0.93560 -0.18531 0.48229
 C312 C 0.95740 -0.20288 0.48156
 C313 C 0.96311 -0.21879 0.50446
 C314 C 0.94737 -0.21655 0.52855
 C315 C 0.93024 -0.17004 0.45891
 C316 C 0.90903 -0.15228 0.45891
 C317 C 0.89222 -0.14893 0.48251
 C318 C 0.89742 -0.16454 0.50674
 C319 C 0.88075 -0.16102 0.53043
 C320 C 0.86009 -0.14262 0.53077
 C321 C 0.85492 -0.12710 0.50752
 C322 C 0.87058 -0.13022 0.48287
 C323 C 0.86397 -0.11423 0.45972
 C324 C 0.84331 -0.09554 0.46144
 C325 C 0.82846 -0.09208 0.48614
 C326 C 0.83420 -0.10822 0.50898
 H327 H 0.91471 -0.19858 0.54902
 H328 H 0.96994 -0.20427 0.46304
 H329 H 0.95195 -0.22796 0.54691
 H330 H 0.94266 -0.17177 0.44033
 H331 H 0.90656 -0.14124 0.43998
 H332 H 0.88322 -0.17203 0.54937
 H333 H 0.84806 -0.14043 0.54959
 H334 H 0.87442 -0.11542 0.44000
 H335 H 0.83941 -0.08319 0.44352
 H336 H 0.82251 -0.10603 0.52804
 C337 C 0.28639 0.41324 1.02393
 C338 C 0.30782 0.41197 1.00453
 C339 C 0.31155 0.43436 0.98654
 C340 C 0.29469 0.45693 0.98828
 C341 C 0.27407 0.45796 1.00795
 C342 C 0.26993 0.43598 1.02561
 C343 C 0.33240 0.43447 0.96724
 C344 C 0.35036 0.41326 0.96588
 C345 C 0.34815 0.39085 0.98383
 C346 C 0.32605 0.38974 1.00287
 C347 C 0.32306 0.36658 1.01976
 C348 C 0.34148 0.34577 1.01893
 C349 C 0.36373 0.34714 1.00145
 C350 C 0.36739 0.36957 0.98351
 C351 C 0.39055 0.37002 0.96645
 C352 C 0.40916 0.34926 0.96743
 C353 C 0.40549 0.32727 0.98532
 C354 C 0.38254 0.32626 1.00211
 H355 H 0.28213 0.39741 1.03861
 H356 H 0.29809 0.47418 0.97481
 H357 H 0.25425 0.43650 1.04121
 H358 H 0.33513 0.45139 0.95324
 H359 H 0.36582 0.41513 0.95034
 H360 H 0.30657 0.36380 1.03394
 H361 H 0.33843 0.32852 1.03248
 H362 H 0.39531 0.38637 0.95252
 H363 H 0.42693 0.35088 0.95459
 H364 H 0.37933 0.30918 1.01583
 C365 C 0.92663 0.21829 0.53432
 C366 C 0.92128 0.19896 0.51156
 C367 C 0.94021 0.19759 0.48945
 C368 C 0.96305 0.21520 0.49007
 C369 C 0.96846 0.23327 0.51323
 C370 C 0.95008 0.23495 0.53520
 C371 C 0.93677 0.17803 0.46725
 C372 C 0.91574 0.15860 0.46723
 C373 C 0.89682 0.15851 0.48914
 C374 C 0.89852 0.18018 0.51054
 C375 C 0.87739 0.18235 0.53002
 C376 C 0.85591 0.16326 0.52932
 C377 C 0.85522 0.14065 0.51005
 C378 C 0.87599 0.13765 0.49010
 C379 C 0.87566 0.11333 0.47258
 C380 C 0.85509 0.09333 0.47420
 C381 C 0.83372 0.09693 0.49290
 C382 C 0.83402 0.12081 0.51083
 H383 H 0.91378 0.22004 0.55239
 H384 H 0.97748 0.21377 0.47315
 H385 H 0.95412 0.24850 0.55352
 H386 H 0.95094 0.17721 0.45007
 H387 H 0.91444 0.14419 0.44930
 H388 H 0.87656 0.19909 0.54565
 H389 H 0.84001 0.16585 0.54453
 H390 H 0.89161 0.10857 0.45819
 H391 H 0.85636 0.07465 0.46101
 H392 H 0.81780 0.12405 0.52549
 C393 C 0.32266 0.53596 0.03575
 C394 C 0.32246 0.55917 0.01865
 C395 C 0.29945 0.56249 0.00171
 C396 C 0.27863 0.54220 0.00046
 C397 C 0.27992 0.51881 0.01652
 C398 C 0.30168 0.51616 0.03460
 C399 C 0.29751 0.58577 -0.01428
 C400 C 0.31797 0.60594 -0.01398
 C401 C 0.34170 0.60321 0.00175
 C402 C 0.34429 0.57902 0.01767
 C403 C 0.36897 0.57492 0.03118
 C404 C 0.39033 0.59382 0.02942
 C405 C 0.38782 0.61794 0.01486
 C406 C 0.36332 0.62339 0.00137
 C407 C 0.36156 0.64890 -0.01185
 C408 C 0.38347 0.66759 -0.01239
 C409 C 0.40800 0.66157 -0.00000
 C410 C 0.40987 0.63659 0.01364
 H411 H 0.33862 0.53253 0.05036
 H412 H 0.26167 0.54451 -0.01339
 H413 H 0.30280 0.49831 0.04744
 H414 H 0.27995 0.58845 -0.02723
 H415 H 0.31494 0.62304 -0.02724
 H416 H 0.37282 0.55670 0.04253
 H417 H 0.40904 0.58952 0.03974
 H418 H 0.34338 0.65535 -0.02146
 H419 H 0.38100 0.68704 -0.02231
 H420 H 0.42870 0.63133 0.02310
 C421 C 0.04822 -0.18181 0.53228
 C422 C 0.06569 -0.17773 0.50935
 C423 C 0.06042 -0.19371 0.48406
 C424 C 0.03895 -0.21326 0.48231
 C425 C 0.02222 -0.21705 0.50535
 C426 C 0.02680 -0.20104 0.53012
 C427 C 0.07636 -0.18984 0.46051
 C428 C 0.09711 -0.16999 0.46114
 C429 C 0.10308 -0.15333 0.48565
 C430 C 0.08770 -0.15794 0.51043
 C431 C 0.09491 -0.14272 0.53550
 C432 C 0.11567 -0.12292 0.53618
 C433 C 0.12999 -0.11722 0.51194
 C434 C 0.12396 -0.13224 0.48627
 C435 C 0.13881 -0.12506 0.46219
 C436 C 0.15855 -0.10391 0.46369
 C437 C 0.16437 -0.08925 0.48914
 C438 C 0.15013 -0.09623 0.51324
 H439 H 0.05007 -0.17006 0.55198
 H440 H 0.03493 -0.22501 0.46275
 H441 H 0.01361 -0.20332 0.54794
 H442 H 0.07254 -0.20210 0.44119
 H443 H 0.10835 -0.16847 0.44199
 H444 H 0.08508 -0.14583 0.55525
 H445 H 0.12037 -0.11171 0.55592
 H446 H 0.13537 -0.13495 0.44172
 H447 H 0.16938 -0.09901 0.44478
 H448 H 0.15420 -0.08470 0.53295
 C449 C 0.68771 0.44703 0.96884
 C450 C 0.68555 0.42441 0.98666
 C451 C 0.70497 0.42302 1.00839
 C452 C 0.72490 0.44409 1.01256
 C453 C 0.72581 0.46678 0.99539
 C454 C 0.70748 0.46775 0.97326
 C455 C 0.70425 0.40079 1.02603
 C456 C 0.68442 0.38002 1.02300
 C457 C 0.66415 0.38077 1.00224
 C458 C 0.66474 0.40336 0.98377
 C459 C 0.64416 0.40453 0.96343
 C460 C 0.62350 0.38472 0.96141
 C461 C 0.62247 0.36277 0.97934
 C462 C 0.64295 0.36006 0.99970
 C463 C 0.64101 0.33685 1.01683
 C464 C 0.61920 0.31798 1.01445
 C465 C 0.59862 0.32153 0.99500
 C466 C 0.60068 0.34373 0.97719
 H467 H 0.67453 0.44949 0.95124
 H468 H 0.73952 0.44281 1.02928
 H469 H 0.70831 0.48471 0.95922
 H470 H 0.71912 0.39951 1.04256
 H471 H 0.68530 0.36384 1.03773
 H472 H 0.64300 0.42088 0.94893
 H473 H 0.60794 0.38679 0.94574
 H474 H 0.65584 0.33271 1.03245
 H475 H 0.61807 0.30095 1.02845
 H476 H 0.58510 0.34629 0.96166
 C477 C 0.52605 0.05725 1.18721
 C478 C 0.50713 0.07828 1.18567
 C479 C 0.48486 0.07715 1.20401
 C480 C 0.48217 0.05615 1.22332
 C481 C 0.50103 0.03558 1.22432
 C482 C 0.52281 0.03616 1.20610
 C483 C 0.46503 0.09659 1.20259
 C484 C 0.46615 0.11660 1.18260
 C485 C 0.48757 0.11831 1.16343
 C486 C 0.50904 0.09973 1.16594
 C487 C 0.53171 0.10325 1.14870
 C488 C 0.53285 0.12327 1.12871
 C489 C 0.51133 0.14025 1.12469
 C490 C 0.48830 0.13803 1.14187
 C491 C 0.46664 0.15511 1.13611
 C492 C 0.46793 0.17342 1.11425
 C493 C 0.49083 0.17559 1.09759
 C494 C 0.51258 0.15915 1.10315
 H495 H 0.54305 0.05587 1.17345
 H496 H 0.46484 0.05537 1.23687
 H497 H 0.53721 0.01994 1.20614
 H498 H 0.44812 0.09600 1.21677
 H499 H 0.45000 0.13076 1.18299
 H500 H 0.54923 0.09108 1.15042
 H501 H 0.55063 0.12511 1.11587
 H502 H 0.44810 0.15431 1.14753
 H503 H 0.45087 0.18594 1.11032
 H504 H 0.53020 0.16037 1.08998
 C505 C -0.03243 0.70101 0.55946
 C506 C -0.01001 0.69794 0.57723
 C507 C 0.01400 0.71295 0.57116
 C508 C 0.01470 0.73163 0.54937
 C509 C -0.00802 0.73500 0.53277
 C510 C -0.03122 0.71903 0.53742
 C511 C 0.03720 0.70904 0.58669
 C512 C 0.03735 0.69004 0.60774
 C513 C 0.01390 0.67482 0.61478
 C514 C -0.01044 0.67995 0.60025
 C515 C -0.03452 0.66744 0.60961
 C516 C -0.03471 0.64958 0.63161
 C517 C -0.01091 0.64280 0.64463
 C518 C 0.01381 0.65497 0.63621
 C519 C 0.03744 0.64624 0.64919
 C520 C 0.03639 0.62648 0.66973
 C521 C 0.01182 0.61495 0.67841
 C522 C -0.01177 0.62361 0.66588
 H523 H -0.05091 0.68915 0.56147
 H524 H 0.03311 0.74306 0.54500
 H525 H -0.04865 0.72064 0.52401
 H526 H 0.05560 0.72051 0.58224
 H527 H 0.05607 0.68834 0.61876
 H528 H -0.05379 0.67173 0.60085
 H529 H -0.05371 0.64057 0.63817
 H530 H 0.05714 0.65352 0.64323
 H531 H 0.05506 0.61977 0.67832
 H532 H -0.03101 0.61531 0.67255
 C533 C 0.46960 0.92496 -0.20290
 C534 C 0.49100 0.90711 -0.19887
 C535 C 0.51492 0.91193 -0.21412
 C536 C 0.51657 0.93291 -0.23361
 C537 C 0.49501 0.95001 -0.23745
 C538 C 0.47183 0.94625 -0.22162
 C539 C 0.53722 0.89619 -0.20940
 C540 C 0.53670 0.87642 -0.18910
 C541 C 0.51343 0.87094 -0.17328
 C542 C 0.48978 0.88539 -0.17947
 C543 C 0.46562 0.87744 -0.16635
 C544 C 0.46484 0.85710 -0.14669
 C545 C 0.48816 0.84444 -0.13871
 C546 C 0.51286 0.85130 -0.15165
 C547 C 0.53609 0.83881 -0.14175
 C548 C 0.53470 0.82033 -0.12004
 C549 C 0.51014 0.81325 -0.10762
 C550 C 0.48689 0.82521 -0.11748
 H551 H 0.45129 0.92375 -0.19108
 H552 H 0.53498 0.93650 -0.24502
 H553 H 0.45534 0.95999 -0.22362
 H554 H 0.55550 0.89961 -0.22112
 H555 H 0.55477 0.86520 -0.18674
 H556 H 0.44671 0.88612 -0.17139
 H557 H 0.44582 0.85168 -0.13715
 H558 H 0.55581 0.84371 -0.14956
 H559 H 0.55317 0.81217 -0.11248
 H560 H 0.46766 0.81975 -0.10847
 C561 C 1.02751 0.29089 0.44299
 C562 C 1.00568 0.30720 0.43586
 C563 C 0.98183 0.30412 0.45156
 C564 C 0.98087 0.28716 0.47471
 C565 C 1.00318 0.27251 0.48247
 C566 C 1.02612 0.27373 0.46584
 C567 C 0.95911 0.31819 0.44431
 C568 C 0.95947 0.33547 0.42180
 C569 C 0.98295 0.34002 0.40603
 C570 C 1.00666 0.32629 0.41372
 C571 C 1.03077 0.33289 0.39980
 C572 C 1.03173 0.35214 0.37903
 C573 C 1.00865 0.36501 0.37066
 C574 C 0.98378 0.35863 0.38345
 C575 C 0.96078 0.37118 0.37303
 C576 C 0.96272 0.39012 0.35177
 C577 C 0.98757 0.39742 0.34016
 C578 C 1.01044 0.38448 0.34968
 H579 H 1.04580 0.29059 0.43110
 H580 H 0.96257 0.28535 0.48672
 H581 H 1.04319 0.26163 0.47035
 H582 H 0.94079 0.31584 0.45622
 H583 H 0.94116 0.34582 0.41796
 H584 H 1.04959 0.32426 0.40524
 H585 H 1.05083 0.35695 0.36933
 H586 H 0.94089 0.36646 0.38046
 H587 H 0.94453 0.39892 0.34426
 H588 H 1.02989 0.38993 0.34118
 C589 C 0.46910 0.95082 0.18319
 C590 C 0.48871 0.93034 0.18180
 C591 C 0.51024 0.93303 0.20139
 C592 C 0.51150 0.95488 0.22177
 C593 C 0.49196 0.97483 0.22270
 C594 C 0.47096 0.97282 0.20318
 C595 C 0.53077 0.91426 0.20022
 C596 C 0.53099 0.89329 0.17940
 C597 C 0.51027 0.88987 0.15913
 C598 C 0.48816 0.90788 0.16118
 C599 C 0.46617 0.90267 0.14272
 C600 C 0.46615 0.88130 0.12228
 C601 C 0.48820 0.86463 0.11896
 C602 C 0.51076 0.86883 0.13706
 C603 C 0.53310 0.85214 0.13186
 C604 C 0.53271 0.83191 0.11001
 C605 C 0.51008 0.82745 0.09276
 C606 C 0.48787 0.84387 0.09739
 H607 H 0.45263 0.95106 0.16852
 H608 H 0.52833 0.95680 0.23624
 H609 H 0.45613 0.98862 0.20308
 H610 H 0.54714 0.91608 0.21531
 H611 H 0.54755 0.87968 0.18013
 H612 H 0.44829 0.91445 0.14390
 H613 H 0.44876 0.87803 0.10866
 H614 H 0.55144 0.85455 0.14385
 H615 H 0.55014 0.81949 0.10673
 H616 H 0.47048 0.84088 0.08371
 C617 C 0.02663 0.29638 0.58775
 C618 C 0.00816 0.31786 0.59080
 C619 C -0.01336 0.31775 0.57123
 C620 C -0.01527 0.29784 0.54891
 C621 C 0.00363 0.27738 0.54579
 C622 C 0.02428 0.27650 0.56560
 C623 C -0.03282 0.33758 0.57385
 C624 C -0.03157 0.35765 0.59556
 C625 C -0.01037 0.35907 0.61538
 C626 C 0.01021 0.33929 0.61252
 C627 C 0.03246 0.34203 0.63099
 C628 C 0.03452 0.36318 0.65165
 C629 C 0.01431 0.38212 0.65522
 C630 C -0.00871 0.38005 0.63756
 C631 C -0.02916 0.39909 0.64295
 C632 C -0.02634 0.41972 0.66425
 C633 C -0.00316 0.42221 0.68092
 C634 C 0.01706 0.40324 0.67638
 H635 H 0.04294 0.29411 0.60226
 H636 H -0.03168 0.29826 0.53401
 H637 H 0.03885 0.26052 0.56405
 H638 H -0.04929 0.33758 0.55891
 H639 H -0.04729 0.37230 0.59571
 H640 H 0.04913 0.32855 0.62957
 H641 H 0.05217 0.36467 0.66507
 H642 H -0.04774 0.39851 0.63134
 H643 H -0.04225 0.43416 0.66738
 H644 H 0.03487 0.40478 0.68956
 C645 C 0.52533 0.03513 0.80201
 C646 C 0.50549 0.05528 0.80463
 C647 C 0.48269 0.05195 0.78671
 C648 C 0.48039 0.02968 0.76675
 C649 C 0.50045 0.01036 0.76435
 C650 C 0.52266 0.01305 0.78228
 C651 C 0.46216 0.07064 0.78900
 C652 C 0.46338 0.09240 0.80903
 C653 C 0.48550 0.09659 0.82754
 C654 C 0.50724 0.07817 0.82476
 C655 C 0.53006 0.08330 0.84210
 C656 C 0.53129 0.10498 0.86216
 C657 C 0.50989 0.12240 0.86594
 C658 C 0.48665 0.11859 0.84875
 C659 C 0.46541 0.13675 0.85391
 C660 C 0.46725 0.15749 0.87527
 C661 C 0.49025 0.16102 0.89215
 C662 C 0.51158 0.14348 0.88717
 H663 H 0.54291 0.03540 0.81519
 H664 H 0.46268 0.02718 0.75354
 H665 H 0.53810 -0.00213 0.78109
 H666 H 0.44475 0.06828 0.77528
 H667 H 0.44661 0.10577 0.80925
 H668 H 0.54761 0.07107 0.84058
 H669 H 0.54920 0.10797 0.87506
 H670 H 0.44689 0.13532 0.84219
 H671 H 0.45055 0.17092 0.87853
 H672 H 0.52932 0.14576 0.90041
 C673 C 0.96789 0.71116 0.43265
 C674 C 0.99024 0.69487 0.42607
 C675 C 1.01404 0.70035 0.44203
 C676 C 1.01467 0.72010 0.46456
 C677 C 0.99217 0.73540 0.47108
 C678 C 0.96891 0.73100 0.45489
 C679 C 1.03699 0.68579 0.43578
 C680 C 1.03695 0.66570 0.41404
 C681 C 1.01362 0.65881 0.39800
 C682 C 0.98970 0.67321 0.40453
 C683 C 0.96586 0.66483 0.39002
 C684 C 0.96527 0.64310 0.36997
 C685 C 0.98848 0.62927 0.36295
 C686 C 1.01314 0.63734 0.37626
 C687 C 1.03627 0.62344 0.36725
 C688 C 1.03463 0.60172 0.34692
 C689 C 1.00996 0.59293 0.33483
 C690 C 0.98700 0.60713 0.34283
 H691 H 0.94929 0.70915 0.42109
 H692 H 1.03265 0.72334 0.47733
 H693 H 0.95113 0.74232 0.45984
 H694 H 1.05524 0.68993 0.44790
 H695 H 1.05545 0.65523 0.41100
 H696 H 0.94694 0.67407 0.39429
 H697 H 0.94636 0.63706 0.35982
 H698 H 1.05604 0.62905 0.37516
 H699 H 1.05289 0.59188 0.34056
 H700 H 0.96770 0.60058 0.33389
 C701 C 1.21986 0.50326 0.09051
 C702 C 1.19565 0.48711 0.08863
 C703 C 1.19019 0.47164 0.06310
 C704 C 1.20864 0.47179 0.04100
 C705 C 1.23222 0.48808 0.04322
 C706 C 1.23770 0.50385 0.06799
 C707 C 1.16614 0.45643 0.05951
 C708 C 1.14678 0.45701 0.08030
 C709 C 1.15100 0.47238 0.10595
 C710 C 1.17638 0.48641 0.11079
 C711 C 1.18174 0.49894 0.13770
 C712 C 1.16261 0.49867 0.15881
 C713 C 1.13713 0.48674 0.15375
 C714 C 1.13080 0.47383 0.12711
 C715 C 1.10422 0.46356 0.12249
 C716 C 1.08507 0.46551 0.14363
 C717 C 1.09160 0.47740 0.17031
 C718 C 1.11784 0.48793 0.17516
 H719 H 1.22516 0.51641 0.10869
 H720 H 1.20427 0.45980 0.02161
 H721 H 1.25567 0.51691 0.06996
 H722 H 1.16201 0.44432 0.04016
 H723 H 1.12885 0.44455 0.07587
 H724 H 1.20088 0.50859 0.14335
 H725 H 1.16769 0.50840 0.17919
 H726 H 1.09728 0.45480 0.10244
 H727 H 1.06481 0.45816 0.13868
 H728 H 1.12337 0.49713 0.19564
 C729 C 0.55201 -0.04628 0.67955
 C730 C 0.57108 -0.02400 0.67824
 C731 C 0.56746 -0.00047 0.69649
 C732 C 0.54578 0.00042 0.71514
 C733 C 0.52732 -0.02184 0.71607
 C734 C 0.53048 -0.04504 0.69811
 C735 C 0.58525 0.02227 0.69585
 C736 C 0.60641 0.02259 0.67709
 C737 C 0.61079 -0.00004 0.65812
 C738 C 0.59320 -0.02398 0.65914
 C739 C 0.59825 -0.04705 0.64098
 C740 C 0.61912 -0.04653 0.62186
 C741 C 0.63581 -0.02306 0.61988
 C742 C 0.63206 0.00052 0.63802
 C743 C 0.64954 0.02384 0.63482
 C744 C 0.66939 0.02376 0.61426
 C745 C 0.67273 0.00051 0.59626
 C746 C 0.65603 -0.02296 0.59946
 H747 H 0.55280 -0.06481 0.66627
 H748 H 0.54305 0.01878 0.72849
 H749 H 0.51608 -0.06228 0.69831
 H750 H 0.58266 0.04022 0.70989
 H751 H 0.61906 0.04105 0.67813
 H752 H 0.58644 -0.06606 0.64100
 H753 H 0.62204 -0.06469 0.60821
 H754 H 0.64824 0.04271 0.64749
 H755 H 0.68221 0.04208 0.61243
 H756 H 0.65819 -0.04096 0.58537
 C757 C -0.20642 0.47559 0.92963
 C758 C -0.19164 0.50022 0.92395
 C759 C -0.19669 0.52424 0.94100
 C760 C -0.21493 0.52311 0.96330
 C761 C -0.22855 0.49834 0.96902
 C762 C -0.22443 0.47475 0.95192
 C763 C -0.18306 0.54914 0.93620
 C764 C -0.16389 0.55077 0.91528
 C765 C -0.15733 0.52732 0.89832
 C766 C -0.17163 0.50168 0.90254
 C767 C -0.16496 0.47818 0.88572
 C768 C -0.14450 0.47933 0.86619
 C769 C -0.12999 0.50391 0.86230
 C770 C -0.13648 0.52846 0.87777
 C771 C -0.12140 0.55296 0.87228
 C772 C -0.10025 0.55267 0.85317
 C773 C -0.09337 0.52808 0.83890
 C774 C -0.10866 0.50389 0.84322
 H775 H -0.20430 0.45643 0.91765
 H776 H -0.21797 0.54136 0.97678
 H777 H -0.23461 0.45530 0.95620
 H778 H -0.18701 0.56759 0.94904
 H779 H -0.15418 0.57077 0.91336
 H780 H -0.17485 0.45824 0.88740
 H781 H -0.13978 0.46059 0.85418
 H782 H -0.12515 0.57269 0.88253
 H783 H -0.08873 0.57165 0.85016
 H784 H -0.10378 0.48487 0.83178
 C785 C 0.44861 0.03533 0.31147
 C786 C 0.42554 0.01752 0.31089
 C787 C 0.42280 -0.00259 0.28835
 C788 C 0.44350 -0.00603 0.26871
 C789 C 0.46659 0.01110 0.27051
 C790 C 0.46872 0.03207 0.29157
 C791 C 0.39959 -0.01935 0.28576
 C792 C 0.37892 -0.01663 0.30503
 C793 C 0.38110 0.00237 0.32839
 C794 C 0.40523 0.01897 0.33190
 C795 C 0.40879 0.03562 0.35684
 C796 C 0.38937 0.03630 0.37754
 C797 C 0.36527 0.02119 0.37391
 C798 C 0.36039 0.00461 0.34899
 C799 C 0.33493 -0.00894 0.34579
 C800 C 0.31572 -0.00695 0.36698
 C801 C 0.32121 0.00833 0.39223
 C802 C 0.34612 0.02244 0.39533
 H803 H 0.45161 0.05221 0.32682
 H804 H 0.44170 -0.02226 0.25237
 H805 H 0.48635 0.04576 0.29297
 H806 H 0.39731 -0.03472 0.26856
 H807 H 0.36183 -0.03059 0.30165
 H808 H 0.42694 0.04760 0.36159
 H809 H 0.39324 0.04896 0.39660
 H810 H 0.32900 -0.02075 0.32691
 H811 H 0.29640 -0.01734 0.36338
 H812 H 0.35101 0.03411 0.41474
 C813 C 0.21753 0.48075 0.93395
 C814 C 0.19694 0.50015 0.93544
 C815 C 0.19454 0.51639 0.96080
 C816 C 0.21264 0.51381 0.98310
 C817 C 0.23273 0.49448 0.98118
 C818 C 0.23495 0.47788 0.95661
 C819 C 0.17385 0.53480 0.96399
 C820 C 0.15476 0.53683 0.94295
 C821 C 0.15602 0.52092 0.91742
 C822 C 0.17824 0.50339 0.91303
 C823 C 0.18117 0.48998 0.88632
 C824 C 0.16247 0.49265 0.86499
 C825 C 0.13975 0.50810 0.86960
 C826 C 0.13598 0.52220 0.89596
 C827 C 0.11192 0.53640 0.89996
 C828 C 0.09275 0.53684 0.87856
 C829 C 0.09685 0.52346 0.85227
 C830 C 0.12060 0.50926 0.84797
 H831 H 0.22015 0.46680 0.91598
 H832 H 0.21066 0.52640 1.00237
 H833 H 0.24997 0.46238 0.95485
 H834 H 0.17208 0.54746 0.98323
 H835 H 0.13951 0.55163 0.94711
 H836 H 0.19813 0.47771 0.88097
 H837 H 0.16562 0.48203 0.84479
 H838 H 0.10682 0.54659 0.91970
 H839 H 0.07430 0.54723 0.88298
 H840 H 0.12426 0.49896 0.82774
 C841 C 0.54111 -0.02211 0.31178
 C842 C 0.56411 -0.00418 0.31338
 C843 C 0.56694 0.01601 0.29277
 C844 C 0.54671 0.01897 0.27258
 C845 C 0.52389 0.00147 0.27198
 C846 C 0.52140 -0.01919 0.29142
 C847 C 0.58981 0.03330 0.29254
 C848 C 0.61013 0.03099 0.31223
 C849 C 0.60808 0.01165 0.33356
 C850 C 0.58430 -0.00561 0.33466
 C851 C 0.58110 -0.02311 0.35747
 C852 C 0.60051 -0.02400 0.37831
 C853 C 0.62418 -0.00807 0.37702
 C854 C 0.62864 0.00955 0.35436
 C855 C 0.65361 0.02422 0.35348
 C856 C 0.67270 0.02222 0.37476
 C857 C 0.66769 0.00567 0.39773
 C858 C 0.64336 -0.00957 0.39852
 H859 H 0.53783 -0.03882 0.32570
 H860 H 0.54871 0.03509 0.25761
 H861 H 0.50389 -0.03306 0.29104
 H862 H 0.59208 0.04879 0.27687
 H863 H 0.62692 0.04538 0.31068
 H864 H 0.56333 -0.03584 0.36038
 H865 H 0.59695 -0.03744 0.39564
 H866 H 0.65925 0.03705 0.33642
 H867 H 0.69163 0.03357 0.37303
 H868 H 0.63902 -0.02233 0.41619
 C869 C 0.78117 0.48587 0.08155
 C870 C 0.80934 0.48814 0.07806
 C871 C 0.81900 0.49169 0.05044
 C872 C 0.80124 0.49353 0.02777
 C873 C 0.77355 0.49206 0.03174
 C874 C 0.76367 0.48778 0.05869
 C875 C 0.84639 0.49365 0.04541
 C876 C 0.86471 0.49259 0.06723
 C877 C 0.85637 0.48959 0.09528
 C878 C 0.82822 0.48718 0.10082
 C879 C 0.81997 0.48424 0.12892
 C880 C 0.83841 0.48398 0.15088
 C881 C 0.86584 0.48659 0.14588
 C882 C 0.87527 0.48924 0.11800
 C883 C 0.90332 0.49167 0.11411
 C884 C 0.92099 0.49203 0.13687
 C885 C 0.91159 0.48992 0.16437
 C886 C 0.88393 0.48684 0.16870
 H887 H 0.77194 0.48266 0.10160
 H888 H 0.80928 0.49639 0.00700
 H889 H 0.74230 0.48587 0.06214
 H890 H 0.85383 0.49624 0.02427
 H891 H 0.88539 0.49443 0.06122
 H892 H 0.79923 0.48230 0.13478
 H893 H 0.83107 0.48188 0.17211
 H894 H 0.91247 0.49340 0.09382
 H895 H 0.94229 0.49377 0.13283
 H896 H 0.87644 0.48523 0.18994
 C897 C 0.42851 -0.04224 0.69393
 C898 C 0.42373 -0.01891 0.67788
 C899 C 0.44187 0.00420 0.68135
 C900 C 0.46395 0.00351 0.69968
 C901 C 0.46800 -0.01959 0.71554
 C902 C 0.45033 -0.04249 0.71233
 C903 C 0.43795 0.02790 0.66651
 C904 C 0.41626 0.02944 0.64836
 C905 C 0.39764 0.00702 0.64397
 C906 C 0.40173 -0.01776 0.65856
 C907 C 0.38392 -0.04066 0.65306
 C908 C 0.36286 -0.03952 0.63408
 C909 C 0.35833 -0.01545 0.62007
 C910 C 0.37531 0.00836 0.62508
 C911 C 0.36912 0.03250 0.61091
 C912 C 0.34758 0.03256 0.59208
 C913 C 0.33146 0.00870 0.58664
 C914 C 0.33685 -0.01518 0.60092
 H915 H 0.41577 -0.06063 0.69297
 H916 H 0.47795 0.02112 0.70182
 H917 H 0.45348 -0.06092 0.72375
 H918 H 0.45179 0.04559 0.66903
 H919 H 0.41497 0.04847 0.63767
 H920 H 0.38590 -0.06016 0.66274
 H921 H 0.34992 -0.05776 0.63035
 H922 H 0.38039 0.05176 0.61392
 H923 H 0.34387 0.05128 0.58126
 H924 H 0.32416 -0.03361 0.59721
   
