data_POSCAR
  _audit_creation_date              2014-09-24
  _audit_creation_method            'ToBaCCo'
  _symmetry_space_group_name_H-M    'P1'
  _symmetry_Int_Tables_number       1
  _symmetry_cell_setting            triclinic
  loop_
  _symmetry_equiv_pos_as_xyz
 x,y,z
_cell_length_a 22.0707
_cell_length_b 22.5346
_cell_length_c 28.4329
_cell_angle_alpha 90.184600
_cell_angle_beta 89.893900
_cell_angle_gamma 90.216600
loop_
  _atom_site_label
  _atom_site_type_symbol
  _atom_site_fract_x
  _atom_site_fract_y
  _atom_site_fract_z
B1 B 0.27741 0.23614 0.29901
 B2 B 0.20570 0.21730 0.28875
 B3 B 0.22236 0.28819 0.29959
 B4 B 0.29067 0.30367 0.27496
 B5 B 0.31449 0.23995 0.24743
 B6 B 0.26116 0.18618 0.25663
 B7 B 0.20835 0.27420 0.20616
 B8 B 0.28049 0.29410 0.21658
 B9 B 0.26319 0.22249 0.20537
 B10 B 0.19538 0.20706 0.23042
 B11 B 0.17188 0.27017 0.25767
 B12 B 0.22457 0.32460 0.24856
 B13 B 0.71677 0.77231 0.29758
 B14 B 0.78810 0.78610 0.28159
 B15 B 0.76734 0.71618 0.29346
 B16 B 0.69564 0.70585 0.27476
 B17 B 0.67272 0.77090 0.24974
 B18 B 0.73061 0.82114 0.25422
 B19 B 0.76971 0.73024 0.19932
 B20 B 0.69826 0.71495 0.21601
 B21 B 0.71886 0.78518 0.20379
 B22 B 0.79090 0.79607 0.22279
 B23 B 0.81383 0.73076 0.24744
 B24 B 0.75600 0.68047 0.24250
 B25 B 0.73488 0.21599 -0.20208
 B26 B 0.72384 0.28914 -0.21049
 B27 B 0.79277 0.26469 -0.19579
 B28 B 0.80505 0.19878 -0.22243
 B29 B 0.74165 0.18311 -0.25425
 B30 B 0.69064 0.23926 -0.24659
 B31 B 0.79085 0.28561 -0.28928
 B32 B 0.80287 0.21340 -0.28073
 B33 B 0.73349 0.23624 -0.29512
 B34 B 0.72122 0.30293 -0.26876
 B35 B 0.78517 0.31880 -0.23669
 B36 B 0.83589 0.26279 -0.24464
 B37 B 0.29504 0.77763 -0.29303
 B38 B 0.22070 0.78841 -0.28679
 B39 B 0.24604 0.72103 -0.30184
 B40 B 0.31217 0.70888 -0.27355
 B41 B 0.32610 0.77034 -0.23979
 B42 B 0.26877 0.81988 -0.24853
 B43 B 0.21950 0.72057 -0.20955
 B44 B 0.29437 0.70950 -0.21571
 B45 B 0.26879 0.77727 -0.20068
 B46 B 0.20264 0.78926 -0.22921
 B47 B 0.18907 0.72797 -0.26304
 B48 B 0.24604 0.67820 -0.25377
 B49 B 1.21143 1.27962 0.79169
 B50 B 1.28321 1.29854 0.77970
 B51 B 1.26733 1.22847 0.79606
 B52 B 1.19910 1.20934 0.77308
 B53 B 1.17486 1.26862 0.74061
 B54 B 1.22724 1.32422 0.74545
 B55 B 1.28061 1.23022 0.70178
 B56 B 1.20891 1.21138 0.71439
 B57 B 1.22575 1.28047 0.69746
 B58 B 1.29342 1.30056 0.72068
 B59 B 1.31769 1.24130 0.75218
 B60 B 1.26508 1.18556 0.74809
 B61 B 0.76847 0.72351 0.79502
 B62 B 0.69736 0.70723 0.77880
 B63 B 0.71526 0.77695 0.79439
 B64 B 0.78655 0.79194 0.77517
 B65 B 0.81128 0.72964 0.74642
 B66 B 0.75577 0.67678 0.74921
 B67 B 0.71129 0.77106 0.69996
 B68 B 0.78276 0.78705 0.71600
 B69 B 0.76429 0.71758 0.70023
 B70 B 0.69344 0.70229 0.71959
 B71 B 0.66884 0.76433 0.74830
 B72 B 0.72471 0.81715 0.74608
 B73 B 1.22691 0.71320 0.21290
 B74 B 1.30005 0.70157 0.22504
 B75 B 1.27825 0.76914 0.20733
 B76 B 1.20860 0.78287 0.22982
 B77 B 1.18922 0.72269 0.26326
 B78 B 1.24632 0.67182 0.25991
 B79 B 1.29113 0.77182 0.30145
 B80 B 1.21812 0.78373 0.28841
 B81 B 1.24054 0.71662 0.30675
 B82 B 1.31002 0.70223 0.28414
 B83 B 1.32945 0.76251 0.25116
 B84 B 1.27217 0.81333 0.25419
 B85 B 0.79053 1.27241 0.29127
 B86 B 0.80189 1.20155 0.27627
 B87 B 0.73256 1.22435 0.29248
 B88 B 0.72176 1.29393 0.27179
 B89 B 0.78631 1.31288 0.24143
 B90 B 0.83611 1.25536 0.24508
 B91 B 0.73510 1.21588 0.19818
 B92 B 0.72478 1.28753 0.21266
 B93 B 0.79372 1.26379 0.19624
 B94 B 0.80470 1.19481 0.21725
 B95 B 0.74073 1.17618 0.24717
 B96 B 0.69069 1.23397 0.24443
 O97 O 0.42757 1.11518 0.03614
 O98 O 0.55863 0.89431 0.03863
 O99 O 0.37267 0.93295 0.03186
 O100 O 0.61322 1.07457 0.02145
 O101 O 0.45598 0.90344 0.05929
 O102 O 0.53340 1.10536 0.05354
 O103 O 0.59938 0.97722 0.05818
 O104 O 0.38938 1.03363 0.06117
 C105 C 0.39496 1.08815 0.06538
 C106 C 0.59103 0.92380 0.06629
 C107 C 0.40015 0.90442 0.06228
 C108 C 0.58934 1.10202 0.05417
 O109 O 0.55784 1.11011 -0.04281
 O110 O 0.42452 0.89123 -0.03346
 O111 O 0.37151 1.07308 -0.02645
 O112 O 0.61082 0.92905 -0.02723
 O113 O 0.52813 0.89983 -0.05587
 O114 O 0.45295 1.10161 -0.05826
 O115 O 0.59646 1.02630 -0.06247
 O116 O 0.38346 0.97205 -0.05640
 Co117 Co 0.49306 1.09820 -0.00245
 Co118 Co 0.49197 0.90709 0.00177
 Co119 Co 0.39184 1.00289 0.00225
 Co120 Co 0.59269 1.00182 -0.00219
 O121 O 0.49227 1.00252 -0.00025
 C122 C 0.59036 1.08000 -0.07024
 C123 C 0.39022 0.91777 -0.06125
 C124 C 0.39695 1.10028 -0.05883
 C125 C 0.58403 0.90146 -0.05867
 O126 O 0.95454 0.61282 0.55415
 O127 O 1.06233 0.37299 0.51833
 O128 O 0.88600 0.45082 0.53659
 O129 O 1.09022 0.54569 0.57040
 O130 O 0.96850 0.40996 0.55705
 O131 O 1.06692 0.62599 0.53761
 O132 O 1.08044 0.44595 0.56128
 O133 O 0.87938 0.55887 0.52597
 C134 C 0.89993 0.59708 0.55516
 C135 C 1.09089 0.39347 0.55240
 C136 C 0.91403 0.41860 0.56470
 C137 C 1.09653 0.59952 0.56784
 O138 O 1.04778 0.61533 0.45011
 O139 O 0.95028 0.35609 0.47722
 O140 O 0.91381 0.53957 0.43268
 O141 O 1.11505 0.45233 0.46834
 O142 O 1.03139 0.41763 0.43909
 O143 O 0.93314 0.62160 0.46566
 O144 O 1.12277 0.56049 0.47743
 O145 O 0.92068 0.43793 0.44459
 Co146 Co 1.00054 0.60774 0.50201
 Co147 Co 0.99734 0.41819 0.49772
 Co148 Co 0.90842 0.49781 0.48668
 Co149 Co 1.09475 0.50145 0.51798
 O150 O 1.00288 0.50937 0.50265
 C151 C 1.10253 0.59950 0.44930
 C152 C 0.91340 0.38250 0.44838
 C153 C 0.90849 0.59371 0.43314
 C154 C 1.08770 0.42449 0.43624
 O155 O 1.02585 0.44111 0.09484
 O156 O 1.02044 0.55620 -0.09897
 O157 O 1.08843 0.43846 -0.04273
 O158 O 1.06704 0.60867 0.04294
 O159 O 1.02435 0.44820 -0.09733
 O160 O 1.02967 0.55155 0.09825
 O161 O 1.07577 0.59091 -0.04263
 O162 O 1.08955 0.43078 0.03997
 C163 C 1.07602 0.42263 0.08125
 C164 C 1.06755 0.58341 -0.08512
 C165 C 1.07581 0.43193 -0.08449
 C166 C 1.06615 0.59153 0.08444
 O167 O 0.91277 0.55415 0.07709
 O168 O 0.91257 0.44417 -0.05610
 O169 O 0.97734 0.37713 0.03916
 O170 O 0.96066 0.62355 -0.05226
 O171 O 0.90415 0.54892 -0.06236
 O172 O 0.91321 0.44321 0.06305
 O173 O 0.95074 0.62711 0.03550
 O174 O 0.98029 0.37907 -0.04592
 Co175 Co 0.97278 0.49799 0.07493
 Co176 Co 0.96824 0.49987 -0.07219
 Co177 Co 1.03054 0.41479 -0.00230
 Co178 Co 1.01179 0.60148 -0.00410
 O179 O 0.99608 0.50442 -0.00022
 C180 C 0.91276 0.60721 0.06476
 C181 C 0.92768 0.39147 -0.05813
 C182 C 0.92699 0.39013 0.05761
 C183 C 0.91158 0.60278 -0.06640
 O184 O 0.56195 0.95103 0.58220
 O185 O 0.55552 1.07332 0.41309
 O186 O 0.53246 0.89387 0.44114
 O187 O 0.54094 1.13191 0.55520
 O188 O 0.57526 0.97129 0.41737
 O189 O 0.58471 1.05355 0.57457
 O190 O 0.58543 1.11488 0.47698
 O191 O 0.58269 0.90392 0.51823
 C192 C 0.59339 0.91363 0.56050
 C193 C 0.59323 1.10502 0.43443
 C194 C 0.57500 0.91647 0.41986
 C195 C 0.58414 1.10840 0.57499
 O196 O 0.46122 1.07609 0.58540
 O197 O 0.45068 0.95079 0.41510
 O198 O 0.47590 0.89499 0.55666
 O199 O 0.47592 1.13083 0.44234
 O200 O 0.43172 1.05224 0.42309
 O201 O 0.43982 0.97484 0.58271
 O202 O 0.43093 1.11610 0.52112
 O203 O 0.42592 0.90757 0.47967
 Co204 Co 0.51180 1.01392 0.57390
 Co205 Co 0.50357 1.01213 0.42440
 Co206 Co 0.50452 0.91243 0.49892
 Co207 Co 0.50812 1.11070 0.49888
 O208 O 0.50697 1.01208 0.49905
 C209 C 0.42333 1.10702 0.56389
 C210 C 0.41618 0.91640 0.43717
 C211 C 0.43749 0.92012 0.58073
 C212 C 0.43249 1.10697 0.42283
 O213 O 1.10380 1.06638 0.46968
 O214 O 0.89722 1.06568 0.53404
 O215 O 0.98075 1.07462 0.42093
 O216 O 1.02290 1.06848 0.58308
 O217 O 0.89380 1.05225 0.45185
 O218 O 1.10839 1.04686 0.55000
 O219 O 0.92448 1.01713 0.59179
 O220 O 1.07774 1.02101 0.40998
 C221 C 1.10141 1.06500 0.42648
 C222 C 0.90095 1.06209 0.57718
 C223 C 0.92567 1.08470 0.42509
 C224 C 1.07763 1.07906 0.57729
 O225 O 1.10208 0.92382 0.53166
 O226 O 0.89651 0.92741 0.46388
 O227 O 1.02386 0.92053 0.41779
 O228 O 0.97488 0.91568 0.57903
 O229 O 0.89007 0.93992 0.54595
 O230 O 1.10867 0.94085 0.45251
 O231 O 1.07259 0.96597 0.59248
 O232 O 0.92807 0.97451 0.40626
 Co233 Co 1.09695 0.99472 0.50081
 Co234 Co 0.90336 0.99624 0.49909
 Co235 Co 1.00244 0.99745 0.42282
 Co236 Co 0.99903 0.99222 0.57747
 O237 O 1.00049 0.99499 0.50011
 C238 C 1.09795 0.92360 0.57471
 C239 C 0.90155 0.93100 0.42078
 C240 C 1.07807 0.90890 0.42468
 C241 C 0.91986 0.90644 0.57320
 O242 O 0.58906 0.57303 -0.04398
 O243 O 0.41855 0.57118 0.04509
 O244 O 0.43563 0.51332 -0.09429
 O245 O 0.54709 0.51616 0.10008
 O246 O 0.41270 0.57344 -0.03895
 O247 O 0.57723 0.57651 0.04528
 O248 O 0.43881 0.50860 0.09854
 O249 O 0.54505 0.51765 -0.09766
 C250 C 0.57564 0.56253 -0.08593
 C251 C 0.42155 0.55888 0.08738
 C252 C 0.41642 0.56267 -0.08149
 C253 C 0.56863 0.56565 0.08763
 O254 O 0.62273 0.46830 0.05072
 O255 O 0.36851 0.46183 -0.04218
 O256 O 0.55373 0.40693 -0.07158
 O257 O 0.44581 0.40214 0.05440
 O258 O 0.37142 0.46011 0.04592
 O259 O 0.62432 0.46288 -0.03962
 O260 O 0.55296 0.40489 0.06217
 O261 O 0.44193 0.40344 -0.05598
 Co262 Co 0.59297 0.51742 0.00338
 Co263 Co 0.40138 0.51373 0.00260
 Co264 Co 0.49342 0.46273 -0.07198
 Co265 Co 0.49600 0.46062 0.07250
 O266 O 0.49659 0.49048 0.00152
 C267 C 0.60579 0.41982 0.06796
 C268 C 0.38809 0.41510 -0.06110
 C269 C 0.60794 0.41999 -0.06574
 C270 C 0.39194 0.41233 0.06135
 N271 N 0.31317 1.21121 0.12358
 C272 C 0.28876 1.18453 0.16196
 N273 N 0.29788 1.12518 0.16737
 N274 N 0.33079 1.09425 0.13651
 C275 C 0.35734 1.12169 0.09937
 N276 N 0.34673 1.18051 0.09295
 N277 N 0.77103 0.63959 0.63273
 C278 C 0.79516 0.68740 0.65558
 N279 N 0.85232 0.70433 0.64450
 N280 N 0.88424 0.67562 0.61218
 C281 C 0.86080 0.62798 0.58943
 N282 N 0.80312 0.61064 0.59985
 N283 N 0.63151 0.80652 0.14877
 C284 C 0.68792 0.82226 0.16306
 N285 N 0.71110 0.87491 0.14788
 N286 N 0.67979 0.90891 0.11814
 C287 C 0.62379 0.89188 0.10324
 N288 N 0.60061 0.83988 0.11889
 N289 N 1.20286 0.36723 0.64437
 C290 C 1.20051 0.30767 0.65010
 N291 N 1.16525 0.27516 0.62023
 N292 N 1.13234 0.30126 0.58684
 C293 C 1.13325 0.36115 0.58257
 N294 N 1.16998 0.39330 0.61131
 N295 N 0.72253 1.13301 -0.13905
 C296 C 0.69786 1.17853 -0.16368
 N297 N 0.63703 1.18731 -0.16004
 N298 N 0.60281 1.15513 -0.13118
 C299 C 0.62739 1.11052 -0.10603
 N300 N 0.68793 1.09986 -0.11055
 N301 N 1.23014 0.63501 0.36957
 C302 C 1.21317 0.68928 0.35348
 N303 N 1.16146 0.71338 0.37063
 N304 N 1.12747 0.68495 0.40177
 C305 C 1.14351 0.63058 0.41711
 N306 N 1.19627 0.60646 0.40141
 N307 N 0.27533 0.87018 -0.14858
 C308 C 0.28944 0.81175 -0.15443
 N309 N 0.33635 0.78976 -0.12932
 N310 N 0.36741 0.82370 -0.09958
 C311 C 0.35429 0.88205 -0.09456
 N312 N 0.30672 0.90459 -0.11886
 N313 N 0.82341 0.36086 0.34121
 C314 C 0.81873 0.30109 0.33769
 N315 N 0.84264 0.26739 0.37276
 N316 N 0.87172 0.29227 0.40907
 C317 C 0.87730 0.35216 0.41180
 N318 N 0.85187 0.38572 0.37750
 N319 N 1.19136 0.31666 0.12297
 C320 C 1.16814 0.30145 0.16558
 N321 N 1.11390 0.32468 0.17856
 N322 N 1.08523 0.36326 0.15156
 C323 C 1.10987 0.38097 0.11041
 N324 N 1.16233 0.35534 0.09558
 N325 N 0.67020 0.78407 0.61359
 C326 C 0.68041 0.80603 0.65760
 N327 N 0.66763 0.86390 0.66601
 N328 N 0.64482 0.89839 0.63311
 C329 C 0.63340 0.87709 0.58964
 N330 N 0.64600 0.81889 0.58032
 N331 N 1.18606 0.68607 -0.12700
 C332 C 1.17742 0.68509 -0.17411
 N333 N 1.13343 0.64883 -0.19193
 N334 N 1.09912 0.61516 -0.16413
 C335 C 1.10813 0.61577 -0.11713
 N336 N 1.15187 0.65216 -0.09912
 N337 N 0.68768 1.22115 0.37823
 C338 C 0.69901 1.19430 0.33613
 N339 N 0.68074 1.13726 0.33015
 N340 N 0.65159 1.10825 0.36363
 C341 C 0.63909 1.13459 0.40519
 N342 N 0.65749 1.19188 0.41208
 N343 N 0.84832 0.73138 0.13236
 C344 C 0.79912 0.70491 0.15238
 N345 N 0.78419 0.64917 0.13836
 N346 N 0.81781 0.62030 0.10698
 C347 C 0.86795 0.64581 0.08802
 N348 N 0.88204 0.70245 0.10066
 N349 N 0.32772 1.22352 0.61763
 C350 C 0.31616 1.19837 0.66024
 N351 N 0.33467 1.14193 0.66774
 N352 N 0.36484 1.11215 0.63508
 C353 C 0.37757 1.13698 0.59295
 N354 N 0.35855 1.19347 0.58464
 N355 N 0.79881 0.32971 -0.12246
 C356 C 0.82446 0.28544 -0.14804
 N357 N 0.88325 0.27162 -0.13920
 N358 N 0.91509 0.30228 -0.10736
 C359 C 0.88960 0.34836 -0.08353
 N360 N 0.83047 0.36064 -0.09103
 N361 N 0.33502 0.86706 0.33335
 C362 C 0.32330 0.80902 0.34210
 N363 N 0.33610 0.78741 0.38564
 N364 N 0.36188 0.82248 0.41819
 C365 C 0.37410 0.88061 0.40867
 N366 N 0.36009 0.90181 0.36561
 N367 N 1.13894 1.13250 0.31420
 C368 C 1.17132 1.18069 0.32698
 N369 N 1.17893 1.19287 0.37365
 N370 N 1.15584 1.15741 0.40658
 C371 C 1.12440 1.10856 0.39344
 N372 N 1.11579 1.09733 0.34692
 N373 N 0.62737 0.61993 -0.20014
 C374 C 0.65753 0.66963 -0.18643
 N375 N 0.65755 0.68473 -0.14024
 N376 N 0.62932 0.65157 -0.10863
 C377 C 0.59976 0.60174 -0.12201
 N378 N 0.59881 0.58649 -0.16834
 N379 N 0.84083 1.19539 0.63570
 C380 C 0.83868 1.17688 0.68134
 N381 N 0.85751 1.12157 0.69171
 N382 N 0.87751 1.08616 0.65776
 C383 C 0.87835 1.10397 0.61212
 N384 N 0.86059 1.15971 0.60151
 N385 N 0.32863 0.67311 0.14211
 C386 C 0.33686 0.66309 0.18873
 N387 N 0.37527 0.61949 0.20211
 N388 N 0.40403 0.58720 0.16965
 C389 C 0.39597 0.59806 0.12301
 N390 N 0.35771 0.64152 0.10984
 N391 N 1.21369 0.83794 0.63345
 C392 C 1.18640 0.82567 0.67526
 N393 N 1.12771 0.84086 0.68142
 N394 N 1.09834 0.86904 0.64743
 C395 C 1.12581 0.88111 0.60568
 N396 N 1.18420 0.86551 0.59928
 N397 N 0.64295 0.30392 0.15207
 C398 C 0.68791 0.32857 0.17793
 N399 N 0.70743 0.38415 0.16659
 N400 N 0.68345 0.41312 0.13017
 C401 C 0.63996 0.38691 0.10335
 N402 N 0.61913 0.33259 0.11593
 N403 N 0.82515 0.80551 0.36445
 C404 C 0.82810 0.82069 0.31823
 N405 N 0.85642 0.87168 0.30633
 N406 N 0.88067 0.90568 0.33968
 C407 C 0.87658 0.89064 0.38595
 N408 N 0.84906 0.83946 0.39793
 N409 N 0.29015 0.38713 -0.16363
 C410 C 0.31715 0.33846 -0.18280
 N411 N 0.36604 0.31556 -0.16088
 N412 N 0.38605 0.33869 -0.12083
 C413 C 0.35762 0.38543 -0.10044
 N414 N 0.31056 0.41080 -0.12350
 N415 N 1.19127 0.32467 -0.12557
 C416 C 1.17140 0.31274 -0.16983
 N417 N 1.12064 0.34067 -0.18514
 N418 N 1.09142 0.37939 -0.15823
 C419 C 1.11217 0.39285 -0.11480
 N420 N 1.16175 0.36362 -0.09837
 N421 N 0.70400 0.86224 0.35031
 C422 C 0.68799 0.80461 0.34187
 N423 N 0.63626 0.78375 0.36157
 N424 N 0.60204 0.81930 0.38802
 C425 C 0.61712 0.87739 0.39472
 N426 N 0.66951 0.89800 0.37625
 N427 N 0.78621 0.63978 -0.14620
 C428 C 0.80014 0.69601 -0.15969
 N429 N 0.84883 0.72307 -0.13953
 N430 N 0.88250 0.69475 -0.10774
 C431 C 0.86898 0.63810 -0.09497
 N432 N 0.81971 0.61153 -0.11446
 N433 N 0.36330 1.23241 0.35995
 C434 C 0.31283 1.20695 0.34153
 N435 N 0.30101 1.14906 0.35190
 N436 N 0.33780 1.11759 0.37901
 C437 C 0.38850 1.14276 0.39678
 N438 N 0.40005 1.20099 0.38749
 N439 N 1.16048 0.62622 0.18789
 C440 C 1.18874 0.67753 0.17472
 N441 N 1.17703 0.69965 0.13147
 N442 N 1.13875 0.67126 0.10280
 C443 C 1.10991 0.62043 0.11640
 N444 N 1.12185 0.59817 0.15947
 N445 N 0.71561 1.15334 0.64583
 C446 C 0.70127 1.20976 0.65918
 N447 N 0.64932 1.23355 0.64229
 N448 N 0.61360 1.20196 0.61367
 C449 C 0.62747 1.14494 0.60181
 N450 N 0.67978 1.12158 0.61775
 N451 N 0.88659 0.27477 0.14247
 C452 C 0.82663 0.28552 0.14933
 N453 N 0.79885 0.32445 0.12028
 N454 N 0.82997 0.35425 0.08782
 C455 C 0.89028 0.34535 0.08227
 N456 N 0.91777 0.30398 0.10950
 N457 N 0.33230 0.87537 0.67382
 C458 C 0.33202 0.81509 0.66970
 N459 N 0.36466 0.78978 0.63468
 N460 N 0.39683 0.82385 0.60548
 C461 C 0.39714 0.88412 0.60999
 N462 N 0.36411 0.90932 0.64464
 N463 N 0.36129 1.19207 -0.16143
 C464 C 0.29989 1.19768 -0.15976
 N465 N 0.26968 1.16984 -0.12435
 N466 N 0.30027 1.13895 -0.09193
 C467 C 0.36193 1.13415 -0.09400
 N468 N 0.39167 1.16168 -0.12930
 N469 N 0.83494 0.63225 0.32155
 C470 C 0.79783 0.67774 0.33409
 N471 N 0.79515 0.69343 0.38021
 N472 N 0.83055 0.66696 0.41184
 C473 C 0.86922 0.62309 0.39865
 N474 N 0.86932 0.60498 0.35319
 N475 N 0.63646 1.17769 0.16285
 C476 C 0.69726 1.18534 0.15667
 N477 N 0.72266 1.16506 0.11622
 N478 N 0.68816 1.13870 0.08353
 C479 C 0.62718 1.13199 0.08986
 N480 N 0.60206 1.15204 0.13021
 N481 N 1.18927 0.71805 0.62035
 C482 C 1.22398 0.68812 0.65165
 N483 N 1.21894 0.62794 0.65266
 N484 N 1.17936 0.59957 0.62524
 C485 C 1.14243 0.63033 0.59615
 N486 N 1.14979 0.68987 0.59279
 N487 N 0.71126 0.83975 -0.12868
 C488 C 0.68149 0.80860 -0.16250
 N489 N 0.61975 0.80848 -0.16175
 N490 N 0.58882 0.83753 -0.12876
 C491 C 0.61836 0.86866 -0.09506
 N492 N 0.68018 0.86903 -0.09553
 N493 N 1.21619 0.36916 0.36459
 C494 C 1.19019 0.32241 0.34194
 N495 N 1.13004 0.31208 0.34904
 N496 N 1.09731 0.34578 0.37778
 C497 C 1.12306 0.39220 0.40046
 N498 N 1.18343 0.40269 0.39403
 N499 N 0.36815 0.79494 0.15498
 C500 C 0.30727 0.79998 0.16179
 N501 N 0.27673 0.84026 0.13548
 N502 N 0.30598 0.87305 0.10340
 C503 C 0.36705 0.86800 0.09722
 N504 N 0.39734 0.82779 0.12334
 N505 N 0.88463 0.32001 0.66548
 C506 C 0.82324 0.32165 0.66952
 N507 N 0.79188 0.35768 0.64015
 N508 N 0.82082 0.38980 0.60758
 C509 C 0.88227 0.38774 0.60349
 N510 N 0.91349 0.35191 0.63297
 N511 N 1.11042 1.17244 0.67966
 C512 C 1.17193 1.17086 0.68013
 N513 N 1.20124 1.14232 0.64493
 N514 N 1.17066 1.11567 0.61077
 C515 C 1.10942 1.11735 0.61009
 N516 N 1.07958 1.14526 0.64556
 N517 N 0.65617 0.68888 0.13583
 C518 C 0.65574 0.67772 0.18259
 N519 N 0.62313 0.63067 0.19872
 N520 N 0.59260 0.59590 0.16887
 C521 C 0.59345 0.60740 0.12200
 N522 N 0.62548 0.65467 0.10617
 N523 N 1.20443 0.84348 0.36247
 C524 C 1.17849 0.82223 0.32272
 N525 N 1.11725 0.82485 0.31848
 N526 N 1.08390 0.84972 0.35235
 C527 C 1.11058 0.87076 0.39216
 N528 N 1.17143 0.86777 0.39626
 N529 N 0.69409 0.38690 -0.17088
 C530 C 0.68894 0.32682 -0.17232
 N531 N 0.66546 0.29875 -0.13437
 N532 N 0.64488 0.32880 -0.09756
 C533 C 0.64953 0.38855 -0.09610
 N534 N 0.67362 0.41725 -0.13378
 N535 N 0.80870 1.12833 0.34272
 C536 C 0.83926 1.16220 0.31136
 N537 N 0.89922 1.17269 0.31872
 N538 N 0.92704 1.15006 0.35619
 C539 C 0.89523 1.11834 0.38853
 N540 N 0.83604 1.10659 0.38034
 N541 N 0.37482 0.63285 -0.19342
 C542 C 0.32954 0.66959 -0.17949
 N543 N 0.31434 0.67139 -0.13329
 N544 N 0.34364 0.63885 -0.10189
 C545 C 0.38897 0.60248 -0.11565
 N546 N 0.40368 0.59941 -0.16204
 N547 N 0.79502 0.85247 0.64455
 C548 C 0.82296 0.82467 0.68061
 N549 N 0.88439 0.82055 0.67964
 N550 N 0.91590 0.84406 0.64406
 C551 C 0.88696 0.87060 0.60751
 N552 N 0.82605 0.87530 0.60900
 N553 N 0.28853 0.37951 0.15877
 C554 C 0.31533 0.33162 0.17866
 N555 N 0.36735 0.31070 0.15957
 N556 N 0.39023 0.33509 0.12086
 C557 C 0.36155 0.38081 0.09947
 N558 N 0.31145 0.40398 0.12004
   
