data_POSCAR
  _audit_creation_date              2014-09-24
  _audit_creation_method            'ToBaCCo'
  _symmetry_space_group_name_H-M    'P1'
  _symmetry_Int_Tables_number       1
  _symmetry_cell_setting            triclinic
  loop_
  _symmetry_equiv_pos_as_xyz
 x,y,z
_cell_length_a 30.9682
_cell_length_b 31.8029
_cell_length_c 56.2658
_cell_angle_alpha 89.107400
_cell_angle_beta 86.240600
_cell_angle_gamma 118.961200
loop_
  _atom_site_label
  _atom_site_type_symbol
  _atom_site_fract_x
  _atom_site_fract_y
  _atom_site_fract_z
C1 C -0.03979 0.01216 0.54304
 H2 H -0.03234 -0.01461 0.55089
 C3 C -0.04067 0.04740 0.55720
 H4 H -0.03539 0.04635 0.57599
 C5 C -0.05272 0.04782 0.50887
 H6 H -0.05546 0.04869 0.48981
 C7 C -0.05366 0.08392 0.52237
 H8 H -0.05736 0.11235 0.51352
 N9 N -0.04486 0.01349 0.51925
 C10 C 0.02575 -0.06956 0.51513
 H11 H 0.05645 -0.04360 0.50330
 C12 C 0.02994 -0.10576 0.52757
 H13 H 0.06411 -0.10730 0.52523
 C14 C -0.05720 -0.10105 0.53150
 H15 H -0.09130 -0.09931 0.53261
 C16 C -0.05459 -0.13746 0.54425
 H17 H -0.08667 -0.16306 0.55556
 Zn18 Zn -0.02998 -0.02547 0.49903
 N19 N -0.01753 -0.06814 0.51727
 C20 C 0.06671 0.04953 0.48861
 N21 N 0.02548 0.01746 0.47848
 C22 C 0.02122 0.02091 0.45471
 C23 C 0.05874 0.05872 0.44029
 C24 C 0.10512 0.08799 0.47484
 C25 C -0.12832 -0.06779 0.48359
 C26 C -0.16754 -0.10233 0.47175
 C27 C -0.11235 -0.12963 0.45488
 C28 C -0.07467 -0.09492 0.46710
 N29 N -0.08317 -0.06512 0.48120
 H30 H 0.06858 0.04663 0.50766
 H31 H -0.01232 -0.00411 0.44707
 H32 H 0.05418 0.06143 0.42151
 H33 H 0.13654 0.11443 0.48346
 H34 H -0.13451 -0.04437 0.49540
 H35 H -0.20314 -0.10436 0.47550
 H36 H -0.10201 -0.15035 0.44313
 H37 H -0.03825 -0.09191 0.46554
 C38 C -0.01092 -0.14074 0.54210
 C39 C -0.04615 0.08476 0.54675
 C40 C -0.16081 -0.13537 0.45733
 C41 C 0.10080 0.09363 0.45044
 C42 C 1.08771 0.05733 0.14429
 H43 H 1.08611 0.09056 0.14462
 C44 C 1.12708 0.05600 0.13150
 H45 H 1.15533 0.08824 0.12168
 C46 C 1.05302 -0.02478 0.15715
 H47 H 1.02478 -0.05575 0.16770
 C48 C 1.09176 -0.02778 0.14446
 H49 H 1.09287 -0.06127 0.14530
 N50 N 1.05184 0.01744 0.15685
 C51 C 0.93047 0.04963 0.16726
 H52 H 0.92694 0.04962 0.18652
 C53 C 0.89665 0.05480 0.15397
 H54 H 0.86716 0.05886 0.16315
 C55 C 0.97119 0.04080 0.13209
 H56 H 0.99937 0.03391 0.12369
 C57 C 0.93802 0.04560 0.11812
 H58 H 0.94177 0.04346 0.09897
 Zn59 Zn 1.00450 0.02647 0.17570
 N60 N 0.96653 0.04240 0.15622
 C61 C 1.04138 0.11931 0.19504
 N62 N 1.04088 0.07630 0.19589
 C63 C 1.06996 0.06809 0.21024
 C64 C 1.10093 0.10372 0.22467
 C65 C 1.07220 0.15622 0.20910
 C66 C 0.92989 -0.06970 0.18216
 C67 C 0.89169 -0.11055 0.19458
 C68 C 0.91406 -0.06911 0.23114
 C69 C 0.95192 -0.02915 0.21804
 N70 N 0.95900 -0.03007 0.19398
 H71 H 1.01877 0.12542 0.18311
 H72 H 1.06954 0.03388 0.21016
 H73 H 1.12448 0.09670 0.23561
 H74 H 1.07245 0.19037 0.20819
 H75 H 0.93565 -0.06910 0.16296
 H76 H 0.86893 -0.14171 0.18482
 H77 H 0.90802 -0.06694 0.25015
 H78 H 0.97427 0.00320 0.22703
 C79 C 0.89961 0.05187 0.12909
 C80 C 1.12978 0.01321 0.13169
 C81 C 0.88291 -0.11037 0.21940
 C82 C 1.10260 0.14861 0.22411
 C83 C 0.07170 0.96430 0.85862
 H84 H 0.03764 0.93071 0.85791
 C85 C 0.10760 0.96704 0.87316
 H86 H 0.10051 0.93550 0.88393
 C87 C 0.12198 1.04607 0.84523
 H88 H 0.12774 1.07640 0.83390
 C89 C 0.15905 1.05043 0.85957
 H90 H 0.19320 1.08430 0.85915
 N91 N 0.07942 1.00338 0.84502
 C92 C -0.07158 0.96339 0.83053
 H93 H -0.06952 0.96045 0.81141
 C94 C -0.11566 0.95607 0.84266
 H95 H -0.14725 0.94517 0.83235
 C96 C -0.03199 0.98000 0.86639
 H97 H 0.00129 0.99113 0.87544
 C98 C -0.07501 0.97375 0.87922
 H99 H -0.07260 0.98108 0.89790
 Zn100 Zn 0.02973 0.99293 0.82449
 N101 N -0.03089 0.97519 0.84246
 C102 C -0.01589 0.89958 0.80571
 N103 N 0.02521 0.94371 0.80466
 C104 C 0.06677 0.95318 0.79070
 C105 C 0.06789 0.91784 0.77672
 C106 C -0.01621 0.86295 0.79218
 C107 C 0.04752 1.08707 0.81845
 C108 C 0.05265 1.12801 0.80627
 C109 C 0.05355 1.09142 0.76907
 C110 C 0.04815 1.05104 0.78198
 N111 N 0.04507 1.04954 0.80623
 H112 H -0.04802 0.89231 0.81746
 H113 H 0.09936 0.98820 0.79069
 H114 H 0.10155 0.92589 0.76596
 H115 H -0.04910 0.82794 0.79325
 H116 H 0.04384 1.08446 0.83775
 H117 H 0.05275 1.15669 0.81642
 H118 H 0.05579 1.09185 0.74978
 H119 H 0.04487 1.02042 0.77257
 C120 C -0.11811 0.96232 0.86747
 C121 C 0.15226 1.01036 0.87358
 C122 C 0.05510 1.13035 0.78123
 C123 C 0.02614 0.87192 0.77749
 C124 C 0.47441 -0.00694 -0.01306
 C125 C 0.47174 -0.00304 0.01195
 C126 C 0.51041 0.00003 0.02480
 C127 C 0.55082 -0.00241 0.01346
 C128 C 0.55278 -0.00772 -0.01149
 C129 C 0.51453 -0.00986 -0.02437
 H130 H 0.51671 -0.01252 -0.04356
 H131 H 0.50825 0.00274 0.04398
 C132 C 0.01363 0.45193 0.64595
 C133 C 0.01778 0.45090 0.67083
 C134 C 0.02146 0.48945 0.68396
 C135 C 0.02171 0.52934 0.67284
 C136 C 0.01987 0.53141 0.64782
 C137 C 0.01557 0.49259 0.63472
 H138 H 0.01311 0.49380 0.61561
 H139 H 0.02363 0.48815 0.70310
 C140 C 0.49989 0.56339 0.32646
 C141 C 0.49889 0.55873 0.35156
 C142 C 0.46179 0.51662 0.36385
 C143 C 0.42481 0.47978 0.35181
 C144 C 0.42392 0.48609 0.32690
 C145 C 0.46152 0.52785 0.31456
 H146 H 0.46219 0.53159 0.29533
 H147 H 0.46129 0.51265 0.38305
 C148 C -0.00292 0.14554 0.57681
 C149 C 0.00514 0.18619 0.58907
 C150 C -0.02309 0.20903 0.58545
 C151 C -0.06087 0.18927 0.56973
 C152 C -0.06896 0.14850 0.55744
 C153 C -0.03984 0.12637 0.56072
 C154 C -0.01206 0.25270 0.59865
 C155 C -0.02541 0.28532 0.59227
 C156 C -0.01345 0.32885 0.60568
 C157 C -0.04511 0.34878 0.60528
 C158 C -0.03576 0.38917 0.61812
 C159 C 0.00574 0.41069 0.63140
 C160 C 0.03866 0.39210 0.63103
 C161 C 0.02911 0.35144 0.61835
 H162 H 0.02072 0.12988 0.57948
 H163 H 0.03427 0.20040 0.60114
 H164 H -0.08471 0.20461 0.56700
 H165 H -0.09821 0.13409 0.54546
 H166 H 0.00884 0.25837 0.61410
 H167 H -0.04680 0.27995 0.57707
 H168 H -0.07774 0.33245 0.59541
 H169 H -0.06149 0.40310 0.61807
 H170 H 0.07159 0.40893 0.64065
 H171 H 0.05544 0.33828 0.61828
 C172 C 0.84433 0.83397 0.25600
 C173 C 0.80350 0.79641 0.26904
 C174 C 0.75752 0.77215 0.25934
 C175 C 0.75369 0.78544 0.23590
 C176 C 0.79450 0.82314 0.22289
 C177 C 0.84022 0.84810 0.23284
 C178 C 0.71526 0.73282 0.27409
 C179 C 0.66757 0.71533 0.26975
 C180 C 0.62538 0.67628 0.28471
 C181 C 0.57741 0.66924 0.28241
 C182 C 0.53650 0.63263 0.29593
 C183 C 0.54289 0.60252 0.31212
 C184 C 0.59053 0.60886 0.31420
 C185 C 0.63136 0.64514 0.30060
 H186 H 0.87921 0.85184 0.26404
 H187 H 0.80779 0.78655 0.28689
 H188 H 0.71957 0.76684 0.22735
 H189 H 0.78993 0.83330 0.20517
 H190 H 0.72428 0.71962 0.28978
 H191 H 0.65832 0.73132 0.25521
 H192 H 0.57157 0.69227 0.27016
 H193 H 0.49994 0.62805 0.29395
 H194 H 0.59602 0.58520 0.32620
 H195 H 0.66708 0.64774 0.30238
 C196 C 0.21965 0.05373 -0.09905
 C197 C 0.25626 0.05549 -0.08513
 C198 C 0.26627 0.01692 -0.08401
 C199 C 0.23821 -0.02393 -0.09682
 C200 C 0.20166 -0.02569 -0.11069
 C201 C 0.19184 0.01302 -0.11193
 C202 C 0.30466 0.01977 -0.06863
 C203 C 0.32868 -0.00554 -0.07206
 C204 C 0.36607 -0.00456 -0.05652
 C205 C 0.37812 -0.04180 -0.05784
 C206 C 0.41317 -0.04263 -0.04371
 C207 C 0.43697 -0.00615 -0.02794
 C208 C 0.42574 0.03160 -0.02683
 C209 C 0.39067 0.03249 -0.04096
 H210 H 0.21251 0.08385 -0.09940
 H211 H 0.27691 0.08713 -0.07523
 H212 H 0.24345 -0.05512 -0.09587
 H213 H 0.18114 -0.05743 -0.12054
 H214 H 0.31310 0.04381 -0.05418
 H215 H 0.32037 -0.02893 -0.08681
 H216 H 0.36010 -0.07059 -0.06977
 H217 H 0.42144 -0.07198 -0.04492
 H218 H 0.44455 0.06070 -0.01517
 H219 H 0.38393 0.06273 -0.03987
 C220 C -0.05067 0.77233 0.55593
 C221 C -0.05028 0.73425 0.56835
 C222 C -0.00818 0.74116 0.57935
 C223 C 0.03379 0.78730 0.57774
 C224 C 0.03332 0.82560 0.56535
 C225 C -0.00910 0.81859 0.55447
 C226 C -0.01055 0.69985 0.59307
 C227 C 0.02935 0.69578 0.59739
 C228 C 0.02573 0.65328 0.61051
 C229 C 0.06257 0.64029 0.60554
 C230 C 0.06021 0.60028 0.61748
 C231 C 0.02141 0.57308 0.63492
 C232 C -0.01531 0.58611 0.64010
 C233 C -0.01309 0.62601 0.62811
 H234 H -0.08363 0.76546 0.54738
 H235 H -0.08307 0.69912 0.56932
 H236 H 0.06648 0.79434 0.58654
 H237 H 0.06565 0.86095 0.56482
 H238 H -0.04707 0.67041 0.59864
 H239 H 0.06564 0.72278 0.58984
 H240 H 0.09300 0.66090 0.59222
 H241 H 0.08899 0.59083 0.61334
 H242 H -0.04553 0.56551 0.65351
 H243 H -0.04134 0.63577 0.63295
 C244 C 0.14435 0.17751 0.26181
 C245 C 0.17982 0.21343 0.27468
 C246 C 0.20921 0.26033 0.26451
 C247 C 0.20198 0.27062 0.24112
 C248 C 0.16630 0.23468 0.22829
 C249 C 0.13751 0.18763 0.23840
 C250 C 0.24838 0.29633 0.27845
 C251 C 0.27069 0.34402 0.27357
 C252 C 0.31036 0.37945 0.28744
 C253 C 0.31873 0.42696 0.28717
 C254 C 0.35582 0.46155 0.29990
 C255 C 0.38540 0.44931 0.31308
 C256 C 0.37820 0.40224 0.31286
 C257 C 0.34102 0.36756 0.30018
 H258 H 0.12242 0.14165 0.27013
 H259 H 0.18463 0.20440 0.29260
 H260 H 0.22470 0.30577 0.23226
 H261 H 0.16250 0.24328 0.21011
 H262 H 0.25793 0.28266 0.29382
 H263 H 0.25824 0.35829 0.25962
 H264 H 0.29613 0.43724 0.27728
 H265 H 0.36110 0.49781 0.29971
 H266 H 0.40146 0.39241 0.32248
 H267 H 0.33712 0.33189 0.30008
 C268 C 0.80284 -0.03551 -0.13231
 C269 C 0.76186 -0.03614 -0.11998
 C270 C 0.75558 -0.04102 -0.09508
 C271 C 0.78984 -0.04758 -0.08264
 C272 C 0.83049 -0.04775 -0.09490
 C273 C 0.83866 -0.04075 -0.12007
 C274 C 0.71267 -0.03984 -0.08260
 C275 C 0.71501 -0.02059 -0.06138
 C276 C 0.67293 -0.01734 -0.04926
 C277 C 0.68263 0.02097 -0.03456
 C278 C 0.64373 0.02480 -0.02265
 C279 C 0.59440 -0.01045 -0.02470
 C280 C 0.58465 -0.04880 -0.03940
 C281 C 0.62350 -0.05229 -0.05157
 H282 H 0.80691 -0.02850 -0.15138
 H283 H 0.73571 -0.03122 -0.12995
 H284 H 0.78485 -0.05338 -0.06342
 H285 H 0.85442 -0.05478 -0.08434
 H286 H 0.67956 -0.05193 -0.09198
 H287 H 0.74986 -0.00388 -0.05323
 H288 H 0.72041 0.04827 -0.03248
 H289 H 0.65215 0.05515 -0.01174
 H290 H 0.54689 -0.07654 -0.04113
 H291 H 0.61478 -0.08293 -0.06229
 C292 C 0.22104 0.05059 0.12089
 C293 C 0.26194 0.05020 0.10913
 C294 C 0.25586 0.01172 0.09528
 C295 C 0.20785 -0.02726 0.09397
 C296 C 0.16687 -0.02700 0.10589
 C297 C 0.17302 0.01215 0.11930
 C298 C 0.30059 0.01334 0.08306
 C299 C 0.29988 -0.01003 0.06332
 C300 C 0.34487 -0.00731 0.05068
 C301 C 0.33912 -0.04374 0.03533
 C302 C 0.38027 -0.04251 0.02286
 C303 C 0.42805 -0.00440 0.02523
 C304 C 0.43404 0.03220 0.04045
 C305 C 0.39290 0.03102 0.05295
 H306 H 0.22705 0.08083 0.13148
 H307 H 0.29851 0.08036 0.11069
 H308 H 0.20173 -0.05831 0.08409
 H309 H 0.13029 -0.05715 0.10440
 H310 H 0.33538 0.03582 0.09049
 H311 H 0.26497 -0.03246 0.05594
 H312 H 0.30265 -0.07350 0.03312
 H313 H 0.37486 -0.07142 0.01139
 H314 H 0.47057 0.06212 0.04236
 H315 H 0.39906 0.06073 0.06390
 C316 C 0.80398 0.78779 0.43845
 C317 C 0.76531 0.75086 0.42760
 C318 C 0.72177 0.75240 0.42430
 C319 C 0.71732 0.79171 0.43253
 C320 C 0.75607 0.82899 0.44342
 C321 C 0.80087 0.82836 0.44659
 C322 C 0.68204 0.71161 0.41273
 C323 C 0.64408 0.71305 0.40328
 C324 C 0.60634 0.67245 0.39076
 C325 C 0.57970 0.68218 0.37433
 C326 C 0.54459 0.64526 0.36176
 C327 C 0.53546 0.59775 0.36533
 C328 C 0.56094 0.58760 0.38224
 C329 C 0.59588 0.62448 0.39492
 H330 H 0.83496 0.78218 0.44136
 H331 H 0.76945 0.72052 0.42189
 H332 H 0.68395 0.79400 0.43083
 H333 H 0.75066 0.85889 0.44830
 H334 H 0.68620 0.67993 0.41084
 H335 H 0.64189 0.74595 0.40326
 H336 H 0.58643 0.71860 0.37101
 H337 H 0.52454 0.65379 0.34921
 H338 H 0.55413 0.55115 0.38547
 H339 H 0.61407 0.61499 0.40807
 C340 C 0.08413 0.21892 0.77580
 C341 C 0.08368 0.25775 0.76407
 C342 C 0.05584 0.25078 0.74435
 C343 C 0.02957 0.20406 0.73613
 C344 C 0.02985 0.16520 0.74793
 C345 C 0.05681 0.17208 0.76802
 C346 C 0.05617 0.29324 0.73275
 C347 C 0.02206 0.29031 0.71828
 C348 C 0.02183 0.33266 0.70682
 C349 C -0.02067 0.32537 0.69590
 C350 C -0.02247 0.36376 0.68445
 C351 C 0.01835 0.41021 0.68363
 C352 C 0.06071 0.41787 0.69460
 C353 C 0.06274 0.37952 0.70590
 H354 H 0.10602 0.22565 0.79094
 H355 H 0.10486 0.29338 0.77059
 H356 H 0.00896 0.19707 0.72055
 H357 H 0.00811 0.12956 0.74155
 H358 H 0.08462 0.32808 0.73740
 H359 H -0.00847 0.25540 0.71517
 H360 H -0.05262 0.28977 0.69617
 H361 H -0.05554 0.35724 0.67609
 H362 H 0.09272 0.45350 0.69391
 H363 H 0.09683 0.38703 0.71337
 C364 C 0.84260 0.08416 0.11967
 C365 C 0.80462 0.08281 0.10699
 C366 C 0.78374 0.04910 0.08959
 C367 C 0.80294 0.01790 0.08445
 C368 C 0.84110 0.01946 0.09701
 C369 C 0.86103 0.05228 0.11491
 C370 C 0.74297 0.04826 0.07681
 C371 C 0.70803 0.00831 0.06777
 C372 C 0.66701 0.00627 0.05465
 C373 C 0.64064 -0.03380 0.04112
 C374 C 0.60232 -0.03718 0.02808
 C375 C 0.58968 -0.00036 0.02822
 C376 C 0.61474 0.03898 0.04230
 C377 C 0.65299 0.04235 0.05543
 H378 H 0.85767 0.11024 0.13315
 H379 H 0.79095 0.10768 0.11104
 H380 H 0.78901 -0.00747 0.07061
 H381 H 0.85434 -0.00574 0.09303
 H382 H 0.74174 0.08157 0.07542
 H383 H 0.70953 -0.02486 0.06978
 H384 H 0.65011 -0.06242 0.04041
 H385 H 0.58283 -0.06830 0.01766
 H386 H 0.60516 0.06752 0.04284
 H387 H 0.67091 0.07308 0.06618
 C388 C 0.12243 0.16065 0.41996
 C389 C 0.15677 0.20346 0.40745
 C390 C 0.20733 0.22451 0.41093
 C391 C 0.22309 0.20076 0.42668
 C392 C 0.18867 0.15788 0.43921
 C393 C 0.13791 0.13755 0.43614
 C394 C 0.24197 0.27069 0.39761
 C395 C 0.28711 0.30133 0.40417
 C396 C 0.32109 0.34749 0.39079
 C397 C 0.37226 0.36655 0.39194
 C398 C 0.40569 0.40970 0.37943
 C399 C 0.38860 0.43496 0.36569
 C400 C 0.33738 0.41696 0.36519
 C401 C 0.30386 0.37350 0.37754
 H402 H 0.08354 0.14635 0.41741
 H403 H 0.14361 0.22073 0.39534
 H404 H 0.26184 0.21464 0.42926
 H405 H 0.20180 0.14045 0.45124
 H406 H 0.22902 0.27997 0.38200
 H407 H 0.30066 0.29234 0.41961
 H408 H 0.38644 0.34754 0.40224
 H409 H 0.44505 0.42304 0.38016
 H410 H 0.32338 0.43649 0.35518
 H411 H 0.26466 0.36090 0.37697
 C412 C 0.04870 0.84276 0.74002
 C413 C 0.05154 0.80669 0.72728
 C414 C 0.03354 0.76031 0.73787
 C415 C 0.01272 0.75095 0.76169
 C416 C 0.00949 0.78696 0.77433
 C417 C 0.02761 0.83325 0.76367
 C418 C 0.03850 0.72367 0.72359
 C419 C 0.01492 0.67634 0.72971
 C420 C 0.01902 0.63975 0.71509
 C421 C -0.01771 0.59140 0.71920
 C422 C -0.01614 0.55560 0.70573
 C423 C 0.02224 0.56740 0.68786
 C424 C 0.05993 0.61538 0.68412
 C425 C 0.05848 0.65129 0.69764
 H426 H 0.06278 0.87811 0.73133
 H427 H 0.06796 0.81511 0.70905
 H428 H -0.00027 0.71644 0.77096
 H429 H -0.00601 0.77895 0.79271
 H430 H 0.06113 0.73649 0.70685
 H431 H -0.01073 0.66282 0.74546
 H432 H -0.04819 0.58134 0.73266
 H433 H -0.04551 0.51873 0.70891
 H434 H 0.09033 0.62500 0.67068
 H435 H 0.08857 0.68770 0.69446
   
