data_POSCAR
  _audit_creation_date              2014-09-24
  _audit_creation_method            'ToBaCCo'
  _symmetry_space_group_name_H-M    'P1'
  _symmetry_Int_Tables_number       1
  _symmetry_cell_setting            triclinic
  loop_
  _symmetry_equiv_pos_as_xyz
 x,y,z
_cell_length_a 27.2974
_cell_length_b 27.1827
_cell_length_c 27.3193
_cell_angle_alpha 90.000400
_cell_angle_beta 90.066100
_cell_angle_gamma 90.275700
loop_
  _atom_site_label
  _atom_site_type_symbol
  _atom_site_fract_x
  _atom_site_fract_y
  _atom_site_fract_z
C1 C 0.39623 1.00353 -0.55056
 C2 C 0.37130 1.00677 -0.50585
 C3 C 0.39564 1.01307 -0.46119
 C4 C 0.44757 1.01464 -0.46038
 C5 C 0.47402 1.01033 -0.50492
 C6 C 0.44826 1.00661 -0.55018
 C7 C 0.47494 1.01172 -0.59382
 C8 C 0.52551 1.01437 -0.59357
 C9 C 0.55229 1.01216 -0.54970
 C10 C 0.52630 1.01304 -0.50463
 C11 C 0.47365 1.02358 -0.41691
 C12 C 0.52463 1.02651 -0.41665
 C13 C 0.55213 1.01972 -0.45972
 C14 C 0.60425 1.02431 -0.46022
 C15 C 0.62868 1.02190 -0.50545
 C16 C 0.60419 1.01468 -0.54994
 H17 H 0.45721 1.01603 -0.62888
 H18 H 0.54313 1.02043 -0.62847
 H19 H 0.45486 1.03004 -0.38271
 H20 H 0.54192 1.03615 -0.38237
 H21 H 0.33166 1.00356 -0.50548
 H22 H 0.66844 1.02203 -0.50563
 C23 C -0.54228 1.39022 0.04021
 C24 C -0.49687 1.36704 0.04283
 C25 C -0.45289 1.39354 0.03956
 C26 C -0.45427 1.44537 0.03338
 C27 C -0.50017 1.46966 0.03185
 C28 C -0.54430 1.44188 0.03493
 C29 C -0.58935 1.46622 0.03079
 C30 C -0.59132 1.51685 0.02560
 C31 C -0.54832 1.54534 0.02376
 C32 C -0.50211 1.52170 0.02600
 C33 C -0.41131 1.47350 0.02813
 C34 C -0.41327 1.52411 0.02016
 C35 C -0.45810 1.54964 0.02069
 C36 C -0.46099 1.60153 0.01253
 C37 C -0.50750 1.62358 0.01132
 C38 C -0.55059 1.59672 0.01770
 H39 H -0.62380 1.44645 0.03091
 H40 H -0.62715 1.53327 0.02188
 H41 H -0.37556 1.45658 0.02909
 H42 H -0.37897 1.54245 0.01261
 H43 H -0.49578 1.32730 0.04653
 H44 H -0.51043 1.66319 0.00733
 C45 C 0.01862 0.39297 0.44687
 C46 C 0.02773 0.36759 0.49044
 C47 C 0.02468 0.39024 0.53664
 C48 C 0.01513 0.44189 0.53884
 C49 C 0.01023 0.46913 0.49463
 C50 C 0.01204 0.44458 0.44872
 C51 C 0.01034 0.47263 0.40554
 C52 C 0.00431 0.52305 0.40696
 C53 C 0.00197 0.54828 0.45164
 C54 C 0.00438 0.52130 0.49610
 C55 C 0.01319 0.46781 0.58343
 C56 C 0.00329 0.51804 0.58488
 C57 C 0.00052 0.54624 0.54177
 C58 C -0.00835 0.59806 0.54231
 C59 C -0.00992 0.62343 0.49745
 C60 C -0.00323 0.59986 0.45272
 H61 H 0.01475 0.45614 0.36982
 H62 H 0.00132 0.54190 0.37225
 H63 H 0.01953 0.44991 0.61810
 H64 H -0.00180 0.53415 0.62057
 H65 H 0.03191 0.32794 0.48859
 H66 H -0.01382 0.66315 0.49734
 O67 O -0.12827 0.99679 -0.06901
 O68 O 0.12440 0.98981 -0.07179
 O69 O -0.00210 1.05825 -0.13353
 O70 O -0.00254 0.92498 -0.12787
 O71 O -0.00132 0.86728 -0.06582
 O72 O -0.00135 1.12041 -0.07601
 O73 O 0.06414 0.99009 -0.13118
 O74 O -0.06934 0.99534 -0.12956
 Zr75 Zr -0.00211 0.99322 -0.09086
 O76 O 0.04185 0.94942 -0.04777
 O77 O -0.04521 1.04009 -0.05036
 C78 C -0.11447 0.99654 -0.11445
 C79 C 0.10963 0.98888 -0.11696
 C80 C -0.00251 1.10427 -0.12066
 C81 C -0.00123 0.88011 -0.11159
 H82 H 0.06467 1.05809 -0.07293
 O83 O 0.04372 1.03817 -0.05101
 H84 H -0.06819 0.92938 -0.06623
 O85 O -0.04662 0.95100 -0.04651
 O86 O 0.12608 0.99852 0.06117
 O87 O -0.12615 1.00056 0.06377
 O88 O 0.06879 1.12167 -0.00856
 O89 O 0.06251 0.86811 -0.00169
 O90 O -0.06935 0.87094 0.00396
 O91 O -0.06468 1.12410 -0.01074
 O92 O 0.00701 1.06772 0.11719
 O93 O -0.00554 0.93588 0.12317
 O94 O 0.00542 1.12606 0.05580
 O95 O -0.00461 0.87265 0.06686
 O96 O 0.12667 1.05990 -0.00797
 O97 O -0.12569 1.06506 -0.00578
 O98 O -0.12815 0.93167 0.00164
 O99 O 0.12322 0.92727 -0.00713
 O100 O 0.06561 1.00170 0.11987
 O101 O -0.06446 1.00438 0.12142
 Zr102 Zr 0.08536 0.99456 -0.00541
 Zr103 Zr -0.08733 0.99782 -0.00351
 Zr104 Zr 0.00103 1.08314 -0.00847
 Zr105 Zr -0.00256 0.90979 -0.00114
 Zr106 Zr 0.00014 0.99994 0.08035
 O107 O -0.04584 0.95426 0.04180
 O108 O 0.04505 1.04196 0.03688
 C109 C 0.11095 1.00236 0.10620
 C110 C -0.11007 1.00430 0.10844
 C111 C 0.11360 1.10566 -0.00851
 C112 C 0.10778 0.88211 -0.00590
 C113 C -0.11432 0.88611 0.00495
 C114 C -0.11025 1.11022 -0.00867
 C115 C 0.00902 1.11255 0.10116
 C116 C -0.00730 0.88982 0.11110
 H117 H -0.06287 1.06628 0.05829
 O118 O -0.04347 1.04364 0.03778
 H119 H 0.06380 0.93203 0.06267
 O120 O 0.04326 0.95256 0.04099
 C121 C 0.35262 0.96312 0.32548
 C122 C 0.31190 0.99425 0.31777
 C123 C 0.29873 1.02648 0.35634
 C124 C 0.32642 1.02871 0.39947
 C125 C 0.36803 0.99929 0.40593
 C126 C 0.37984 0.96547 0.36888
 C127 C 0.25822 1.05700 0.35170
 C128 C 0.22919 1.05525 0.31021
 C129 C 0.23983 1.02302 0.27117
 C130 C 0.28323 0.99394 0.27375
 C131 C 0.29671 0.96635 0.23205
 C132 C 0.26778 0.96581 0.18996
 C133 C 0.22344 0.99115 0.18833
 C134 C 0.20857 1.01938 0.22941
 C135 C 0.16185 1.04128 0.22803
 C136 C 0.13157 1.03575 0.18766
 C137 C 0.14661 1.00921 0.14642
 C138 C 0.19305 0.98740 0.14655
 H139 H 0.36373 0.93587 0.29914
 H140 H 0.31646 1.05512 0.42750
 H141 H 0.41006 0.94021 0.37370
 H142 H 0.24856 1.08239 0.38071
 H143 H 0.19921 1.08085 0.30935
 H144 H 0.33016 0.94553 0.23048
 H145 H 0.27967 0.94427 0.15880
 H146 H 0.14640 1.06100 0.25847
 H147 H 0.09541 1.05184 0.18926
 H148 H 0.20448 0.96569 0.11533
 C149 C -0.34932 0.96834 0.32980
 C150 C -0.30999 1.00102 0.32007
 C151 C -0.29898 1.03714 0.35594
 C152 C -0.32726 1.04118 0.39852
 C153 C -0.36738 1.00981 0.40689
 C154 C -0.37717 0.97261 0.37246
 C155 C -0.25991 1.06949 0.34919
 C156 C -0.23041 1.06617 0.30816
 C157 C -0.23911 1.03039 0.27165
 C158 C -0.28073 0.99861 0.27664
 C159 C -0.29192 0.96603 0.23784
 C160 C -0.26246 0.96322 0.19643
 C161 C -0.22014 0.99185 0.19238
 C162 C -0.20765 1.02558 0.23016
 C163 C -0.16326 1.05217 0.22555
 C164 C -0.13277 1.04533 0.18550
 C165 C -0.14532 1.01226 0.14829
 C166 C -0.18952 0.98618 0.15128
 H167 H -0.35892 0.93840 0.30576
 H168 H -0.31889 1.07017 0.42455
 H169 H -0.40609 0.94596 0.37896
 H170 H -0.25174 1.09761 0.37620
 H171 H -0.20149 1.09311 0.30581
 H172 H -0.32384 0.94260 0.23798
 H173 H -0.27248 0.93763 0.16763
 H174 H -0.14995 1.07741 0.25292
 H175 H -0.09874 1.06598 0.18376
 H176 H -0.19900 0.96010 0.12272
 C177 C -0.29178 1.06512 -0.38160
 C178 C -0.29483 1.03288 -0.34119
 C179 C -0.33650 1.00167 -0.33804
 C180 C -0.37117 1.00000 -0.37636
 C181 C -0.36598 1.03025 -0.41787
 C182 C -0.32636 1.06351 -0.41904
 C183 C -0.34261 0.97137 -0.29726
 C184 C -0.30831 0.97127 -0.25951
 C185 C -0.26531 1.00035 -0.26185
 C186 C -0.25777 1.03041 -0.30417
 C187 C -0.21257 1.05544 -0.30917
 C188 C -0.17626 1.05196 -0.27380
 C189 C -0.18379 1.02457 -0.23137
 C190 C -0.22882 0.99928 -0.22406
 C191 C -0.23541 0.97437 -0.17897
 C192 C -0.19845 0.97386 -0.14351
 C193 C -0.15348 0.99734 -0.15198
 C194 C -0.14639 1.02256 -0.19606
 H195 H -0.26323 1.09235 -0.38536
 H196 H -0.40048 0.97298 -0.37500
 H197 H -0.32190 1.08862 -0.44955
 H198 H -0.37434 0.94741 -0.29442
 H199 H -0.31566 0.94640 -0.22968
 H200 H -0.20324 1.07677 -0.34107
 H201 H -0.14190 1.07126 -0.27965
 H202 H -0.26907 0.95585 -0.16949
 H203 H -0.20490 0.95450 -0.10944
 H204 H -0.11201 1.04172 -0.20238
 C205 C 0.29132 1.05575 -0.38144
 C206 C 0.29180 1.02157 -0.34245
 C207 C 0.33180 0.98853 -0.33961
 C208 C 0.36683 0.98668 -0.37738
 C209 C 0.36411 1.01913 -0.41715
 C210 C 0.32692 1.05446 -0.41793
 C211 C 0.33594 0.95689 -0.29964
 C212 C 0.30143 0.95746 -0.26221
 C213 C 0.25996 0.98830 -0.26443
 C214 C 0.25395 1.01910 -0.30638
 C215 C 0.20939 1.04473 -0.31201
 C216 C 0.17230 1.04110 -0.27741
 C217 C 0.17882 1.01362 -0.23485
 C218 C 0.22338 0.98813 -0.22693
 C219 C 0.22985 0.96443 -0.18128
 C220 C 0.19305 0.96507 -0.14581
 C221 C 0.14805 0.98781 -0.15506
 C222 C 0.14118 1.01202 -0.19978
 H223 H 0.26412 1.08421 -0.38453
 H224 H 0.39543 0.95914 -0.37655
 H225 H 0.32458 1.08040 -0.44797
 H226 H 0.36638 0.93153 -0.29711
 H227 H 0.30700 0.93151 -0.23292
 H228 H 0.20121 1.06633 -0.34405
 H229 H 0.13836 1.06066 -0.28376
 H230 H 0.26363 0.94671 -0.17118
 H231 H 0.19997 0.94772 -0.11087
 H232 H 0.10709 1.03118 -0.20659
 C233 C 0.33571 1.33314 0.07526
 C234 C 0.32649 1.30090 0.03545
 C235 C 0.36311 1.29703 -0.00116
 C236 C 0.40565 1.32603 0.00106
 C237 C 0.41323 1.35877 0.03975
 C238 C 0.37860 1.36138 0.07733
 C239 C 0.35711 1.26448 -0.04007
 C240 C 0.31600 1.23454 -0.04312
 C241 C 0.27853 1.23660 -0.00760
 C242 C 0.28276 1.27189 0.03106
 C243 C 0.24283 1.27756 0.06339
 C244 C 0.20092 1.24857 0.05923
 C245 C 0.19762 1.21186 0.02371
 C246 C 0.23669 1.20485 -0.00980
 C247 C 0.23296 1.16518 -0.04320
 C248 C 0.19233 1.13406 -0.04309
 C249 C 0.15369 1.14177 -0.01055
 C250 C 0.15598 1.18116 0.02231
 H251 H 0.31096 1.33679 0.10571
 H252 H 0.43293 1.32356 -0.02768
 H253 H 0.38458 1.38586 0.10808
 H254 H 0.38476 1.26181 -0.06840
 H255 H 0.31413 1.21094 -0.07473
 H256 H 0.24239 1.30499 0.09184
 H257 H 0.17116 1.25431 0.08482
 H258 H 0.26159 1.15585 -0.06859
 H259 H 0.19128 1.10331 -0.06835
 H260 H 0.12646 1.18636 0.04833
 C261 C 0.33005 0.65211 0.06096
 C262 C 0.31547 0.68070 0.02012
 C263 C 0.34623 0.68044 -0.02175
 C264 C 0.38901 0.65211 -0.02258
 C265 C 0.40262 0.62418 0.01808
 C266 C 0.37311 0.62460 0.05988
 C267 C 0.33461 0.70892 -0.06244
 C268 C 0.29413 0.73947 -0.06203
 C269 C 0.26306 0.74231 -0.02084
 C270 C 0.27243 0.71061 0.01989
 C271 C 0.23847 0.70988 0.05887
 C272 C 0.19814 0.74087 0.05933
 C273 C 0.19054 0.77453 0.02162
 C274 C 0.22296 0.77588 -0.01900
 C275 C 0.21484 0.81209 -0.05534
 C276 C 0.17671 0.84559 -0.05098
 C277 C 0.14518 0.84399 -0.01089
 C278 C 0.15137 0.80781 0.02487
 H279 H 0.30986 0.65129 0.09480
 H280 H 0.41228 0.65218 -0.05475
 H281 H 0.38379 0.60389 0.09202
 H282 H 0.35759 0.70825 -0.09478
 H283 H 0.28783 0.76000 -0.09512
 H284 H 0.24168 0.68519 0.08952
 H285 H 0.17323 0.73924 0.09019
 H286 H 0.23814 0.81677 -0.08677
 H287 H 0.17179 0.87312 -0.07913
 H288 H 0.12698 0.80697 0.05619
 C289 C -0.38503 0.70435 -0.03645
 C290 C -0.34465 0.70556 -0.00412
 C291 C -0.34134 0.66786 0.03159
 C292 C -0.37920 0.63283 0.03681
 C293 C -0.42001 0.63306 0.00534
 C294 C -0.42179 0.66908 -0.03157
 C295 C -0.30063 0.66583 0.06242
 C296 C -0.26272 0.69994 0.05815
 C297 C -0.26491 0.73883 0.02390
 C298 C -0.30757 0.74285 -0.00622
 C299 C -0.31261 0.78486 -0.03622
 C300 C -0.27668 0.82107 -0.03783
 C301 C -0.23365 0.81634 -0.01083
 C302 C -0.22652 0.77467 0.01964
 C303 C -0.18087 0.77036 0.04392
 C304 C -0.14459 0.80640 0.03876
 C305 C -0.15279 0.84820 0.01003
 C306 C -0.19749 0.85308 -0.01448
 H307 H -0.38899 0.72968 -0.06651
 H308 H -0.37778 0.60688 0.06691
 H309 H -0.45198 0.66981 -0.05738
 H310 H -0.29779 0.63724 0.08994
 H311 H -0.23283 0.69588 0.08359
 H312 H -0.34490 0.79179 -0.05779
 H313 H -0.28245 0.85294 -0.06096
 H314 H -0.17155 0.73901 0.06613
 H315 H -0.11006 0.80179 0.05779
 H316 H -0.20361 0.88496 -0.03754
 C317 C -0.36037 1.30054 0.08280
 C318 C -0.32904 1.29573 0.04186
 C319 C -0.33553 1.32894 0.00234
 C320 C -0.37486 1.36221 0.00226
 C321 C -0.40698 1.36455 0.04214
 C322 C -0.39866 1.33429 0.08269
 C323 C -0.30346 1.32795 -0.03734
 C324 C -0.26502 1.29462 -0.03886
 C325 C -0.25826 1.25943 -0.00144
 C326 C -0.29192 1.25889 0.03868
 C327 C -0.28884 1.22027 0.07310
 C328 C -0.25389 1.18363 0.06882
 C329 C -0.21951 1.18483 0.03119
 C330 C -0.22009 1.22354 -0.00365
 C331 C -0.18210 1.22478 -0.03896
 C332 C -0.14625 1.18825 -0.04025
 C333 C -0.14766 1.14898 -0.00731
 C334 C -0.18432 1.14746 0.02837
 H335 H -0.35619 1.27891 0.11558
 H336 H -0.38139 1.38532 -0.02942
 H337 H -0.42291 1.33589 0.11402
 H338 H -0.30810 1.35329 -0.06762
 H339 H -0.24237 1.29592 -0.07111
 H340 H -0.31438 1.21610 0.10286
 H341 H -0.25358 1.15415 0.09557
 H342 H -0.17836 1.25408 -0.06527
 H343 H -0.11770 1.19033 -0.06756
 H344 H -0.18464 1.11764 0.05479
 C345 C -0.03305 1.34320 0.33041
 C346 C 0.00169 1.30705 0.31730
 C347 C 0.04311 1.30127 0.34814
 C348 C 0.04815 1.32924 0.39104
 C349 C 0.01368 1.36532 0.40325
 C350 C -0.02710 1.37158 0.37256
 C351 C 0.07947 1.26762 0.33612
 C352 C 0.07612 1.23971 0.29377
 C353 C 0.03543 1.24356 0.26205
 C354 C -0.00318 1.27657 0.27481
 C355 C -0.04584 1.27700 0.24546
 C356 C -0.05084 1.24608 0.20527
 C357 C -0.01311 1.21458 0.19175
 C358 C 0.03125 1.21400 0.21896
 C359 C 0.06956 1.18356 0.20190
 C360 C 0.06248 1.15236 0.16208
 C361 C 0.01746 1.15063 0.13798
 C362 C -0.01982 1.18274 0.15173
 H363 H -0.06504 1.35097 0.30870
 H364 H 0.08005 1.32412 0.41419
 H365 H -0.05528 1.39793 0.38180
 H366 H 0.11111 1.26290 0.35966
 H367 H 0.10549 1.21410 0.28781
 H368 H -0.07702 1.29970 0.25352
 H369 H -0.08475 1.24680 0.18459
 H370 H 0.10549 1.18311 0.21824
 H371 H 0.09225 1.12909 0.15016
 H372 H -0.05450 1.18169 0.13232
 C373 C 0.06556 1.28606 -0.38498
 C374 C 0.03001 1.28525 -0.34751
 C375 C -0.00444 1.32409 -0.34622
 C376 C -0.00565 1.35957 -0.38374
 C377 C 0.02886 1.35895 -0.42193
 C378 C 0.06483 1.32204 -0.42127
 C379 C -0.03820 1.32672 -0.30804
 C380 C -0.03800 1.29212 -0.27057
 C381 C -0.00520 1.25208 -0.27094
 C382 C 0.02761 1.24727 -0.31135
 C383 C 0.05554 1.20382 -0.31529
 C384 C 0.05248 1.16687 -0.28028
 C385 C 0.02310 1.17252 -0.23898
 C386 C -0.00510 1.21584 -0.23299
 C387 C -0.03111 1.22161 -0.18863
 C388 C -0.02987 1.18538 -0.15251
 C389 C -0.00391 1.14173 -0.15970
 C390 C 0.02233 1.13534 -0.20319
 H391 H 0.09494 1.25977 -0.38688
 H392 H -0.03524 1.38603 -0.38439
 H393 H 0.09282 1.32088 -0.44936
 H394 H -0.06484 1.35615 -0.30684
 H395 H -0.06555 1.29656 -0.24272
 H396 H 0.07884 1.19639 -0.34622
 H397 H 0.07403 1.13385 -0.28521
 H398 H -0.05128 1.25447 -0.17997
 H399 H -0.04940 1.19154 -0.11867
 H400 H 0.04362 1.10216 -0.20837
 C401 C -0.05859 0.69479 -0.37614
 C402 C -0.02444 0.69624 -0.33732
 C403 C 0.01242 0.65968 -0.33627
 C404 C 0.01722 0.62601 -0.37522
 C405 C -0.01571 0.62661 -0.41488
 C406 C -0.05400 0.66099 -0.41405
 C407 C 0.04500 0.65773 -0.29692
 C408 C 0.04178 0.69120 -0.25851
 C409 C 0.00692 0.72946 -0.25890
 C410 C -0.02551 0.73301 -0.29990
 C411 C -0.05646 0.77436 -0.30334
 C412 C -0.05630 0.81071 -0.26775
 C413 C -0.02654 0.80674 -0.22653
 C414 C 0.00451 0.76542 -0.22064
 C415 C 0.03157 0.76188 -0.17648
 C416 C 0.02894 0.79867 -0.14080
 C417 C 0.00005 0.84039 -0.14828
 C418 C -0.02768 0.84413 -0.19115
 H419 H -0.08964 0.71902 -0.37818
 H420 H 0.04829 0.60133 -0.37581
 H421 H -0.08080 0.66185 -0.44336
 H422 H 0.07328 0.62989 -0.29570
 H423 H 0.06864 0.68739 -0.22985
 H424 H -0.07999 0.78088 -0.33431
 H425 H -0.08002 0.84225 -0.27248
 H426 H 0.05434 0.73074 -0.16801
 H427 H 0.05032 0.79493 -0.10757
 H428 H -0.05091 0.87596 -0.19656
 C429 C 0.04454 0.65782 0.33586
 C430 C 0.00623 0.69014 0.32266
 C431 C -0.03443 0.69374 0.35475
 C432 C -0.03769 0.66368 0.39641
 C433 C -0.00013 0.63082 0.40796
 C434 C 0.04152 0.62921 0.37816
 C435 C -0.07150 0.72750 0.34530
 C436 C -0.06847 0.75906 0.30546
 C437 C -0.02880 0.75689 0.27242
 C438 C 0.00757 0.71992 0.27955
 C439 C 0.04338 0.71329 0.24290
 C440 C 0.04488 0.74315 0.20164
 C441 C 0.01204 0.78189 0.19615
 C442 C -0.02470 0.78997 0.23198
 C443 C -0.05482 0.83186 0.22668
 C444 C -0.04890 0.86382 0.18725
 C445 C -0.01367 0.85463 0.15135
 C446 C 0.01633 0.81331 0.15549
 H447 H 0.07797 0.65499 0.31511
 H448 H -0.06943 0.66595 0.42015
 H449 H 0.07182 0.60541 0.38763
 H450 H -0.10288 0.73016 0.36944
 H451 H -0.09877 0.78385 0.30061
 H452 H 0.06999 0.68416 0.24439
 H453 H 0.07281 0.73651 0.17426
 H454 H -0.08201 0.84204 0.25335
 H455 H -0.07208 0.89599 0.18470
 H456 H 0.04431 0.80683 0.12809
   
