data_POSCAR
  _audit_creation_date              2014-09-24
  _audit_creation_method            'ToBaCCo'
  _symmetry_space_group_name_H-M    'P1'
  _symmetry_Int_Tables_number       1
  _symmetry_cell_setting            triclinic
  loop_
  _symmetry_equiv_pos_as_xyz
 x,y,z
_cell_length_a 34.4796
_cell_length_b 34.0802
_cell_length_c 34.9845
_cell_angle_alpha 92.237500
_cell_angle_beta 89.381800
_cell_angle_gamma 88.609900
loop_
  _atom_site_label
  _atom_site_type_symbol
  _atom_site_fract_x
  _atom_site_fract_y
  _atom_site_fract_z
C1 C 0.69954 0.67407 0.97751
 H2 H 0.72506 0.67496 0.95933
 C3 C 0.66590 0.69523 0.96822
 H4 H 0.66579 0.71271 0.94302
 C5 C 0.66800 0.64875 1.03141
 H6 H 0.66817 0.62962 1.05521
 C7 C 0.63411 0.67010 1.02367
 H8 H 0.60887 0.66716 1.04191
 N9 N 0.69994 0.65109 1.00847
 C10 C 0.82160 0.63017 1.03995
 H11 H 0.82485 0.59877 1.03462
 C12 C 0.85253 0.65146 1.05497
 H13 H 0.87954 0.63628 1.06122
 C14 C 0.78190 0.68789 1.03973
 H15 H 0.75421 0.70193 1.03415
 C16 C 0.81179 0.71013 1.05526
 H17 H 0.80679 0.74128 1.06106
 Zn18 Zn 0.74473 0.61839 1.01546
 N19 N 0.78713 0.64859 1.03271
 C20 C 0.79075 0.59533 0.94941
 N21 N 0.75567 0.59321 0.96731
 C22 C 0.72524 0.57579 0.94972
 C23 C 0.72901 0.56058 0.91227
 C24 C 0.79595 0.58000 0.91200
 C25 C 0.72632 0.59414 1.08888
 C26 C 0.71337 0.56862 1.11624
 C27 C 0.71973 0.51514 1.06901
 C28 C 0.73200 0.54193 1.04241
 N29 N 0.73383 0.58078 1.05240
 H30 H 0.81437 0.60996 0.96353
 H31 H 0.69757 0.57487 0.96451
 H32 H 0.70418 0.54747 0.89864
 H33 H 0.82371 0.58280 0.89772
 H34 H 0.72878 0.62510 1.09627
 H35 H 0.70625 0.58063 1.14466
 H36 H 0.71775 0.48471 1.05950
 H37 H 0.73908 0.53168 1.01351
 C38 C 0.84751 0.69182 1.06353
 C39 C 0.63265 0.69331 0.99144
 C40 C 0.70886 0.52848 1.10641
 C41 C 0.76454 0.56328 0.89271
 C42 C 0.68754 0.30580 0.55993
 H43 H 0.71255 0.30861 0.57815
 C44 C 0.65253 0.29266 0.57487
 H45 H 0.65073 0.28509 0.60461
 C46 C 0.65838 0.31515 0.49980
 H47 H 0.66014 0.32499 0.47093
 C48 C 0.62307 0.30243 0.51351
 H49 H 0.59846 0.30184 0.49456
 N50 N 0.68952 0.31747 0.52320
 C51 C 0.80784 0.32769 0.48302
 H52 H 0.80365 0.35592 0.47038
 C53 C 0.84364 0.30833 0.47984
 H54 H 0.86682 0.32185 0.46435
 C55 C 0.78240 0.27647 0.51904
 H56 H 0.75831 0.26442 0.53431
 C57 C 0.81814 0.25600 0.51673
 H58 H 0.82115 0.22800 0.53005
 Zn59 Zn 0.73328 0.34402 0.50563
 N60 N 0.77827 0.31183 0.50261
 C61 C 0.77678 0.38843 0.55826
 N62 N 0.74197 0.38671 0.54045
 C63 C 0.71291 0.41334 0.54934
 C64 C 0.71851 0.44344 0.57695
 C65 C 0.78356 0.41782 0.58592
 C66 C 0.72399 0.33259 0.42726
 C67 C 0.71548 0.34202 0.38979
 C68 C 0.70838 0.41016 0.41104
 C69 C 0.71727 0.39943 0.44813
 N70 N 0.72401 0.36104 0.45562
 H71 H 0.79926 0.36656 0.55173
 H72 H 0.68517 0.41078 0.53541
 H73 H 0.69487 0.46402 0.58387
 H74 H 0.81147 0.41833 0.59983
 H75 H 0.72973 0.30231 0.43404
 H76 H 0.71458 0.31861 0.36807
 H77 H 0.70222 0.44076 0.40570
 H78 H 0.71806 0.42168 0.47093
 C79 C 0.84933 0.27223 0.49705
 C80 C 0.61950 0.29231 0.55182
 C81 C 0.70697 0.38122 0.38140
 C82 C 0.75427 0.44573 0.59575
 C83 C 0.21249 -0.20787 -0.00606
 H84 H 0.23845 -0.21854 -0.02111
 C85 C 0.18649 -0.23453 0.00882
 H86 H 0.19313 -0.26568 0.00569
 C87 C 0.17169 -0.15431 0.01533
 H88 H 0.16573 -0.12298 0.01693
 C89 C 0.14538 -0.17975 0.03109
 H90 H 0.11933 -0.16768 0.04511
 N91 N 0.20450 -0.16858 -0.00273
 C92 C 0.28043 -0.15238 -0.09151
 H93 H 0.25544 -0.14259 -0.10710
 C94 C 0.31441 -0.16239 -0.11173
 H95 H 0.31414 -0.16101 -0.14254
 C96 C 0.31083 -0.16530 -0.03281
 H97 H 0.30940 -0.16531 -0.00191
 C98 C 0.34579 -0.17546 -0.05209
 H99 H 0.37106 -0.18373 -0.03584
 Zn100 Zn 0.23479 -0.13063 -0.02689
 N101 N 0.27925 -0.15327 -0.05271
 C102 C 0.24863 -0.10125 0.04790
 N103 N 0.25291 -0.09332 0.01028
 C104 C 0.27411 -0.06237 -0.00064
 C105 C 0.29142 -0.03766 0.02680
 C106 C 0.26624 -0.07799 0.07609
 C107 C 0.18118 -0.13542 -0.08411
 C108 C 0.16211 -0.12577 -0.11743
 C109 C 0.18453 -0.05947 -0.10879
 C110 C 0.20332 -0.07057 -0.07540
 N111 N 0.20228 -0.10839 -0.06444
 H112 H 0.23315 -0.12679 0.05615
 H113 H 0.27901 -0.05779 -0.03068
 H114 H 0.30894 -0.01376 0.01761
 H115 H 0.26348 -0.08550 0.10579
 H116 H 0.18102 -0.16542 -0.07515
 H117 H 0.14679 -0.14886 -0.13237
 H118 H 0.18697 -0.02948 -0.11755
 H119 H 0.21991 -0.04929 -0.05937
 C120 C 0.34810 -0.17296 -0.09204
 C121 C 0.15225 -0.22043 0.02748
 C122 C 0.16467 -0.08760 -0.13130
 C123 C 0.28806 -0.04590 0.06567
 C124 C 0.21886 0.15561 0.44491
 H125 H 0.22500 0.13752 0.41955
 C126 C 0.19052 0.18553 0.44350
 H127 H 0.17490 0.18957 0.41719
 C128 C 0.23043 0.17204 0.51002
 H129 H 0.24584 0.16687 0.53605
 C130 C 0.20281 0.20257 0.50975
 H131 H 0.19704 0.21961 0.53599
 N132 N 0.23681 0.14807 0.47843
 C133 C 0.32985 0.08302 0.52968
 H134 H 0.31919 0.05353 0.52602
 C135 C 0.35760 0.09120 0.55732
 H136 H 0.36886 0.06766 0.57423
 C137 C 0.32629 0.14994 0.51350
 H138 H 0.31299 0.17286 0.49721
 C139 C 0.35459 0.15931 0.54041
 H140 H 0.36318 0.18953 0.54448
 Zn141 Zn 0.26699 0.10086 0.48446
 N142 N 0.31361 0.11254 0.50972
 C143 C 0.31554 0.06958 0.42492
 N144 N 0.27785 0.07468 0.43641
 C145 C 0.24833 0.06422 0.41289
 C146 C 0.25612 0.05136 0.37510
 C147 C 0.32465 0.05548 0.38780
 C148 C 0.23806 0.08327 0.55507
 C149 C 0.21927 0.06319 0.58329
 C150 C 0.20380 0.01275 0.53590
 C151 C 0.22303 0.03413 0.50823
 N152 N 0.23929 0.06902 0.51824
 H153 H 0.33862 0.07778 0.44406
 H154 H 0.21860 0.06790 0.42283
 H155 H 0.23232 0.04500 0.35608
 H156 H 0.35474 0.05282 0.37863
 H157 H 0.25265 0.10993 0.56298
 H158 H 0.21886 0.07545 0.61233
 H159 H 0.19057 -0.01466 0.52746
 H160 H 0.22490 0.02284 0.47895
 C161 C 0.36915 0.13002 0.56384
 C162 C 0.18125 0.20854 0.47660
 C163 C 0.20165 0.02758 0.57401
 C164 C 0.29470 0.04767 0.36210
 C165 C 0.18954 0.44204 0.25781
 H166 H 0.19287 0.43391 0.28720
 C167 C 0.20870 0.42018 0.22851
 H168 H 0.22725 0.39560 0.23577
 C169 C 0.16000 0.48332 0.21292
 H170 H 0.13983 0.50687 0.20676
 C171 C 0.17880 0.46244 0.18276
 H172 H 0.17330 0.47067 0.15369
 N173 N 0.16550 0.47268 0.24956
 C174 C 0.15258 0.52865 0.36292
 H175 H 0.12188 0.52511 0.36799
 C176 C 0.17527 0.54653 0.39110
 H177 H 0.16188 0.55666 0.41797
 C178 C 0.20703 0.52117 0.32107
 H179 H 0.21907 0.51188 0.29344
 C180 C 0.23058 0.53973 0.34812
 H181 H 0.26084 0.54401 0.34129
 Zn182 Zn 0.13600 0.49556 0.29058
 N183 N 0.16876 0.51618 0.32884
 C184 C 0.11138 0.43860 0.34335
 N185 N 0.10566 0.45450 0.30870
 C186 C 0.07969 0.43925 0.28359
 C187 C 0.05682 0.40801 0.29358
 C188 C 0.08946 0.40681 0.35431
 C189 C 0.12172 0.56711 0.25569
 C190 C 0.09957 0.59753 0.24055
 C191 C 0.04188 0.56805 0.26514
 C192 C 0.06507 0.53787 0.27927
 N193 N 0.10417 0.53747 0.27364
 H194 H 0.13328 0.45008 0.36228
 H195 H 0.07672 0.45156 0.25570
 H196 H 0.03613 0.39659 0.27321
 H197 H 0.09397 0.39466 0.38210
 H198 H 0.15295 0.56650 0.25226
 H199 H 0.11394 0.62038 0.22553
 H200 H 0.01077 0.56722 0.26923
 H201 H 0.05172 0.51473 0.29460
 C202 C 0.21458 0.55286 0.38353
 C203 C 0.20279 0.42990 0.19034
 C204 C 0.05910 0.59812 0.24503
 C205 C 0.06138 0.39160 0.32947
 C206 C -0.12403 0.03705 0.16109
 H207 H -0.13092 0.00637 0.16252
 C208 C -0.14011 0.05943 0.13221
 H209 H -0.15846 0.04525 0.11115
 C210 C -0.09405 0.09314 0.18823
 H211 H -0.07662 0.10654 0.21037
 C212 C -0.11033 0.11673 0.16068
 H213 H -0.10396 0.14764 0.16202
 N214 N -0.10143 0.05415 0.18840
 C215 C -0.11989 -0.00650 0.29439
 H216 H -0.09050 -0.01352 0.30235
 C217 C -0.15030 -0.01698 0.31811
 H218 H -0.14372 -0.03255 0.34374
 C219 C -0.16394 0.02312 0.25211
 H220 H -0.16916 0.03924 0.22663
 C221 C -0.19539 0.01305 0.27507
 H222 H -0.22443 0.02138 0.26664
 Zn223 Zn -0.08358 0.02646 0.23139
 N224 N -0.12701 0.01301 0.26193
 C225 C -0.06568 0.07669 0.29427
 N226 N -0.05138 0.05961 0.26115
 C227 C -0.01481 0.06666 0.24858
 C228 C 0.00887 0.09218 0.26954
 C229 C -0.04308 0.10222 0.31606
 C230 C -0.05651 -0.03964 0.18311
 C231 C -0.04002 -0.07745 0.17765
 C232 C -0.01764 -0.07367 0.24279
 C233 C -0.03408 -0.03599 0.24683
 N234 N -0.05467 -0.02043 0.21789
 H235 H -0.09499 0.07119 0.30349
 H236 H -0.00423 0.05274 0.22204
 H237 H 0.03766 0.09767 0.25878
 H238 H -0.05534 0.11585 0.34209
 H239 H -0.07196 -0.02656 0.15999
 H240 H -0.04336 -0.09325 0.15047
 H241 H -0.00272 -0.08599 0.26679
 H242 H -0.03141 -0.01959 0.27368
 C243 C -0.18867 -0.00742 0.30856
 C244 C -0.13426 0.10015 0.13230
 C245 C -0.02179 -0.09542 0.20832
 C246 C -0.00542 0.11058 0.30367
 C247 C 0.34624 0.54575 0.72321
 H248 H 0.37237 0.56140 0.72970
 C249 C 0.32285 0.55776 0.69333
 H250 H 0.33120 0.58288 0.67738
 C251 C 0.30423 0.49358 0.73536
 H252 H 0.29735 0.46843 0.75189
 C253 C 0.27988 0.50469 0.70575
 H254 H 0.25444 0.48768 0.69970
 N255 N 0.33634 0.51448 0.74390
 C256 C 0.35616 0.48630 0.86239
 H257 H 0.38639 0.47709 0.86042
 C258 C 0.33526 0.48147 0.89612
 H259 H 0.34948 0.46842 0.92016
 C260 C 0.30035 0.51266 0.83269
 H261 H 0.28682 0.52446 0.80777
 C262 C 0.27855 0.50926 0.86626
 H263 H 0.24809 0.51777 0.86663
 Zn264 Zn 0.36755 0.49856 0.78508
 N265 N 0.33806 0.49991 0.83103
 C266 C 0.39694 0.57119 0.80358
 N267 N 0.40855 0.53384 0.79336
 C268 C 0.44685 0.52316 0.79156
 C269 C 0.47521 0.55091 0.79987
 C270 C 0.42413 0.59972 0.81195
 C271 C 0.37098 0.41669 0.79439
 C272 C 0.38266 0.37775 0.78654
 C273 C 0.42343 0.39945 0.73539
 C274 C 0.41092 0.43816 0.74429
 N275 N 0.38563 0.44613 0.77384
 H276 H 0.36630 0.57873 0.80538
 H277 H 0.45549 0.49309 0.78428
 H278 H 0.50546 0.54178 0.79843
 H279 H 0.41401 0.62924 0.82008
 H280 H 0.34946 0.42309 0.81651
 H281 H 0.37025 0.35522 0.80342
 H282 H 0.44374 0.39370 0.71189
 H283 H 0.42133 0.46188 0.72757
 C284 C 0.29582 0.49226 0.89799
 C285 C 0.28900 0.53738 0.68441
 C286 C 0.40940 0.36863 0.75678
 C287 C 0.46387 0.58983 0.81035
 C288 C 0.74532 0.98710 0.68963
 H289 H 0.76057 0.99973 0.71381
 C290 C 0.76293 0.98522 0.65330
 H291 H 0.79202 0.99592 0.64991
 C292 C 0.68820 0.95948 0.66423
 H293 H 0.65862 0.95059 0.66858
 C294 C 0.70496 0.95622 0.62773
 H295 H 0.68815 0.94452 0.60412
 N296 N 0.70844 0.97465 0.69426
 C297 C 0.70435 1.03659 0.79934
 H298 H 0.68238 1.05599 0.78823
 C299 C 0.72249 1.04728 0.83351
 H300 H 0.71455 1.07527 0.84754
 C301 C 0.73943 0.97596 0.79565
 H302 H 0.74499 0.94771 0.78118
 C303 C 0.75799 0.98524 0.83009
 H304 H 0.77834 0.96397 0.84105
 Zn305 Zn 0.68080 0.98257 0.74111
 N306 N 0.71258 1.00119 0.78145
 C307 C 0.63875 0.93593 0.79044
 N308 N 0.66031 0.93459 0.75759
 C309 C 0.66974 0.89968 0.73914
 C310 C 0.65658 0.86446 0.75322
 C311 C 0.62423 0.90157 0.80496
 C312 C 0.65212 1.05492 0.71711
 C313 C 0.62534 1.08596 0.71331
 C314 C 0.57600 1.04576 0.74015
 C315 C 0.60350 1.01529 0.74277
 N316 N 0.64108 1.02081 0.73260
 H317 H 0.63298 0.96381 0.80553
 H318 H 0.68813 0.89892 0.71393
 H319 H 0.66423 0.83700 0.73809
 H320 H 0.60678 0.90327 0.83094
 H321 H 0.68211 1.05841 0.70879
 H322 H 0.63477 1.11330 0.70195
 H323 H 0.54641 1.04106 0.74919
 H324 H 0.59479 0.98764 0.75368
 C325 C 0.74888 1.02104 0.85013
 C326 C 0.74244 0.96995 0.62176
 C327 C 0.58706 1.08191 0.72604
 C328 C 0.63334 0.86526 0.78645
 C329 C 0.06290 0.25707 -0.18759
 H330 H 0.07417 0.28580 -0.18066
 C331 C 0.08782 0.22694 -0.20176
 H332 H 0.11806 0.23316 -0.20655
 C333 C 0.01001 0.21390 -0.18769
 H334 H -0.01991 0.20847 -0.18074
 C335 C 0.03383 0.18302 -0.20218
 H336 H 0.02169 0.15424 -0.20685
 N337 N 0.02499 0.24990 -0.18019
 C338 C -0.03541 0.36308 -0.16278
 H339 H -0.04633 0.36001 -0.13397
 C340 C -0.04652 0.39566 -0.18336
 H341 H -0.06591 0.41781 -0.17011
 C342 C 0.00185 0.33690 -0.21555
 H343 H 0.01983 0.31338 -0.22828
 C344 C -0.00824 0.36920 -0.23706
 H345 H 0.00226 0.37001 -0.26625
 Zn346 Zn -0.00332 0.28891 -0.15128
 N347 N -0.01202 0.33437 -0.17923
 C348 C 0.04310 0.33531 -0.10125
 N349 N 0.02743 0.29953 -0.10810
 C350 C 0.03792 0.26805 -0.08750
 C351 C 0.06551 0.27166 -0.05887
 C352 C 0.07129 0.34011 -0.07314
 C353 C -0.07825 0.26269 -0.16520
 C354 C -0.11373 0.24587 -0.15685
 C355 C -0.09536 0.24546 -0.09037
 C356 C -0.06054 0.26269 -0.10002
 N357 N -0.05214 0.26975 -0.13709
 H358 H 0.03515 0.35964 -0.11872
 H359 H 0.02592 0.23965 -0.09447
 H360 H 0.07425 0.24582 -0.04383
 H361 H 0.08445 0.36844 -0.06875
 H362 H -0.07100 0.26927 -0.19440
 H363 H -0.13322 0.23990 -0.18023
 H364 H -0.10060 0.23926 -0.06064
 H365 H -0.04001 0.26969 -0.07787
 C366 C -0.03323 0.39882 -0.22113
 C367 C 0.07350 0.18907 -0.20828
 C368 C -0.12240 0.23586 -0.11899
 C369 C 0.08313 0.30788 -0.05194
 C370 C 0.45430 0.18027 0.13836
 H371 H 0.43180 0.19146 0.12034
 C372 C 0.44830 0.14530 0.15694
 H373 H 0.42161 0.12980 0.15221
 C374 C 0.51566 0.18682 0.16711
 H375 H 0.54148 0.20350 0.17179
 C376 C 0.51084 0.15207 0.18630
 H377 H 0.53356 0.14251 0.20509
 N378 N 0.48838 0.19940 0.14230
 C379 C 0.54436 0.30782 0.14034
 H380 H 0.56500 0.29897 0.11799
 C381 C 0.55084 0.34151 0.16331
 H382 H 0.57670 0.35816 0.15859
 C383 C 0.48512 0.29765 0.17300
 H384 H 0.45942 0.28047 0.17635
 C385 C 0.49021 0.33136 0.19627
 H386 H 0.46844 0.33944 0.21782
 Zn387 Zn 0.50016 0.24337 0.11212
 N388 N 0.51168 0.28692 0.14528
 C389 C 0.44039 0.29367 0.08544
 N390 N 0.45641 0.25679 0.08202
 C391 C 0.44112 0.22901 0.05798
 C392 C 0.40684 0.23691 0.03853
 C393 C 0.40640 0.30299 0.06612
 C394 C 0.57781 0.21812 0.09404
 C395 C 0.60863 0.20505 0.07018
 C396 C 0.56895 0.21793 0.01551
 C397 C 0.53892 0.23079 0.04041
 N398 N 0.54337 0.22982 0.07898
 H399 H 0.45347 0.31578 0.10372
 H400 H 0.45494 0.20020 0.05489
 H401 H 0.39454 0.21400 0.02050
 H402 H 0.39336 0.33210 0.07024
 H403 H 0.58155 0.21878 0.12460
 H404 H 0.63552 0.19528 0.08287
 H405 H 0.56421 0.21865 -0.01494
 H406 H 0.51196 0.24124 0.02866
 C407 C 0.52322 0.35408 0.19124
 C408 C 0.47731 0.13007 0.18031
 C409 C 0.60423 0.20417 0.03033
 C410 C 0.38859 0.27405 0.04329
 C411 C 0.93077 0.75726 0.66893
 H412 H 0.93170 0.78749 0.67892
 C413 C 0.90929 0.73116 0.68976
 H414 H 0.89402 0.74173 0.71549
 C415 C 0.94922 0.70655 0.62365
 H416 H 0.96451 0.69728 0.59757
 C417 C 0.92876 0.67922 0.64412
 H418 H 0.92825 0.64893 0.63360
 N419 N 0.94922 0.74496 0.63586
 C420 C 1.01886 0.84083 0.63596
 H421 H 1.04246 0.82260 0.62419
 C422 C 1.02690 0.87641 0.65483
 H423 H 1.05682 0.88503 0.65744
 C424 C 0.95143 0.85215 0.64633
 H425 H 0.92195 0.84281 0.64227
 C426 C 0.95816 0.88812 0.66527
 H427 H 0.93369 0.90573 0.67620
 Zn428 Zn 0.97212 0.78182 0.60378
 N429 N 0.98160 0.82938 0.63193
 C430 C 0.92565 0.82986 0.55744
 N431 N 0.93712 0.79219 0.56366
 C432 C 0.92239 0.76157 0.54279
 C433 C 0.89374 0.76821 0.51565
 C434 C 0.89651 0.83771 0.53136
 C435 C 1.04401 0.74002 0.60520
 C436 C 1.08028 0.72683 0.59094
 C437 C 1.06564 0.75696 0.53126
 C438 C 1.02959 0.76935 0.54655
 N439 N 1.01959 0.76094 0.58296
 H440 H 0.93874 0.85405 0.57284
 H441 H 0.93233 0.73192 0.54769
 H442 H 0.88170 0.74351 0.49985
 H443 H 0.88716 0.86784 0.52741
 H444 H 1.03551 0.73412 0.63423
 H445 H 1.09948 0.71051 0.60916
 H446 H 1.07280 0.76412 0.50223
 H447 H 1.00984 0.78635 0.52956
 C448 C 0.99636 0.90071 0.66948
 C449 C 0.90754 0.69180 0.67693
 C450 C 1.09171 0.73567 0.55367
 C451 C 0.87997 0.80667 0.51043
 C452 C 0.55065 0.71512 0.35133
 H453 H 0.55778 0.74557 0.34818
 C454 C 0.57529 0.68565 0.33581
 H455 H 0.60125 0.69375 0.32065
 C456 C 0.50805 0.66800 0.37506
 H457 H 0.48217 0.66131 0.39095
 C458 C 0.53176 0.63731 0.35919
 H459 H 0.52399 0.60710 0.36296
 N460 N 0.51793 0.70607 0.37077
 C461 C 0.44994 0.81424 0.35834
 H462 H 0.44663 0.82524 0.38765
 C463 C 0.43683 0.83695 0.32842
 H464 H 0.42328 0.86543 0.33519
 C465 C 0.47254 0.76410 0.31429
 H466 H 0.48632 0.73561 0.30883
 C467 C 0.45999 0.78573 0.28358
 H468 H 0.46453 0.77296 0.25510
 Zn469 Zn 0.49059 0.75136 0.39118
 N470 N 0.46842 0.77907 0.35071
 C471 C 0.53988 0.81711 0.40214
 N472 N 0.52881 0.78219 0.41581
 C473 C 0.54712 0.76615 0.44591
 C474 C 0.57723 0.78573 0.46415
 C475 C 0.57046 0.83733 0.41909
 C476 C 0.42244 0.71433 0.41776
 C477 C 0.39420 0.70548 0.44503
 C478 C 0.42404 0.75079 0.48987
 C479 C 0.45149 0.75873 0.46192
 N480 N 0.45103 0.73974 0.42701
 H481 H 0.52588 0.82877 0.37741
 H482 H 0.53848 0.73782 0.45549
 H483 H 0.59166 0.77211 0.48772
 H484 H 0.57944 0.86475 0.40754
 H485 H 0.42181 0.70058 0.38939
 H486 H 0.37224 0.68440 0.43761
 H487 H 0.42546 0.76625 0.51739
 H488 H 0.47308 0.78035 0.46827
 C489 C 0.44275 0.82331 0.29025
 C490 C 0.56619 0.64617 0.33991
 C491 C 0.39536 0.72322 0.48192
 C492 C 0.58940 0.82169 0.45056
 C493 C 0.40001 -0.06156 0.22371
 C494 C 0.37608 -0.05857 0.18724
 C495 C 0.36470 -0.02138 0.17928
 C496 C 0.37748 0.00977 0.20923
 C497 C 0.43334 -0.03337 0.21885
 C498 C 0.42180 0.00412 0.21172
 C499 C 0.37427 -0.04199 0.25530
 C500 C 0.36203 -0.00490 0.24750
 H501 H 0.36895 -0.08384 0.16915
 H502 H 0.36789 0.04025 0.20336
 H503 H 0.46342 -0.04248 0.22180
 H504 H 0.36486 -0.05685 0.28047
 C505 C 0.11554 1.05631 0.74796
 C506 C 0.13928 1.04892 0.71110
 C507 C 0.13826 1.01142 0.69658
 C508 C 0.11401 0.98438 0.72088
 C509 C 0.07454 1.04251 0.73795
 C510 C 0.07395 1.00476 0.72372
 C511 C 0.13116 1.02615 0.77568
 C512 C 0.12976 0.98836 0.76183
 H513 H 0.15329 1.07222 0.69637
 H514 H 0.11361 0.95377 0.70914
 H515 H 0.04867 1.06094 0.74165
 H516 H 0.13887 1.03381 0.80492
 C517 C 0.61991 0.52343 0.27824
 C518 C 0.64093 0.52571 0.23960
 C519 C 0.64671 0.49047 0.22065
 C520 C 0.63069 0.45578 0.24215
 C521 C 0.58205 0.50239 0.26901
 C522 C 0.58777 0.46679 0.25008
 C523 C 0.64387 0.49380 0.30044
 C524 C 0.64962 0.45843 0.28172
 H525 H 0.64993 0.55315 0.22808
 H526 H 0.63500 0.42690 0.22694
 H527 H 0.55368 0.51445 0.27704
 H528 H 0.65432 0.50005 0.32908
 C529 C 0.88018 0.50340 0.73489
 C530 C 0.85246 0.48973 0.70340
 C531 C 0.82057 0.51352 0.69979
 C532 C 0.81925 0.54896 0.72822
 C533 C 0.88975 0.54556 0.72536
 C534 C 0.85791 0.56944 0.72217
 C535 C 0.85489 0.50759 0.77141
 C536 C 0.82285 0.53113 0.76760
 H537 H 0.85770 0.46329 0.68569
 H538 H 0.79351 0.56871 0.72554
 H539 H 0.91910 0.55585 0.72269
 H540 H 0.86126 0.49271 0.79749
 C541 C 0.24485 0.41043 -0.00317
 C542 C 0.20802 0.38882 -0.01468
 C543 C 0.20159 0.35619 0.00535
 C544 C 0.23307 0.34769 0.03478
 C545 C 0.24055 0.41851 0.04008
 C546 C 0.23489 0.38552 0.05995
 C547 C 0.27781 0.37925 -0.00750
 C548 C 0.27122 0.34640 0.01206
 H549 H 0.18850 0.39895 -0.03648
 H550 H 0.22850 0.32094 0.05109
 H551 H 0.24311 0.44739 0.05374
 H552 H 0.30425 0.38308 -0.02378
 C553 C 0.79363 0.13744 1.02011
 C554 C 0.75104 0.15084 1.02401
 C555 C 0.73172 0.15082 0.99033
 C556 C 0.75693 0.13695 0.95557
 C557 C 0.79292 0.09676 0.99970
 C558 C 0.77405 0.09661 0.96558
 C559 C 0.81106 0.16402 0.99036
 C560 C 0.79195 0.16387 0.95659
 H561 H 0.73772 0.16042 1.05108
 H562 H 0.74143 0.13640 0.92806
 H563 H 0.80814 0.07128 1.01017
 H564 H 0.83740 0.18012 0.99515
 C565 C 0.24877 0.61037 0.57306
 C566 C 0.21459 0.63985 0.57199
 C567 C 0.21668 0.66491 0.54263
 C568 C 0.25349 0.65847 0.51734
 C569 C 0.24975 0.58989 0.53316
 C570 C 0.25253 0.61512 0.50417
 C571 C 0.28488 0.63581 0.57427
 C572 C 0.28746 0.66072 0.54506
 H573 H 0.19013 0.63961 0.59166
 H574 H 0.25602 0.67876 0.49347
 H575 H 0.24840 0.55835 0.52838
 H576 H 0.30745 0.63300 0.59535
 C577 C 0.74835 0.93287 0.41665
 C578 C 0.70852 0.91607 0.42602
 C579 C 0.70775 0.89638 0.45920
 C580 C 0.74683 0.89549 0.48005
 C581 C 0.75892 0.95812 0.45218
 C582 C 0.75774 0.93861 0.48536
 C583 C 0.77627 0.89723 0.41684
 C584 C 0.77577 0.87801 0.45004
 H585 H 0.68391 0.91732 0.40714
 H586 H 0.74697 0.87940 0.50700
 H587 H 0.76506 0.98909 0.45120
 H588 H 0.79618 0.88919 0.39350
 C589 C -0.01909 0.24527 0.44944
 C590 C -0.01118 0.20939 0.42269
 C591 C 0.02089 0.21211 0.40002
 C592 C 0.04280 0.25057 0.40681
 C593 C 0.01808 0.25051 0.47227
 C594 C 0.05048 0.25299 0.45000
 C595 C -0.02046 0.27996 0.42283
 C596 C 0.01187 0.28285 0.40069
 H597 H -0.03104 0.18530 0.41997
 H598 H 0.06922 0.25322 0.38877
 H599 H 0.01891 0.24998 0.50320
 H600 H -0.04494 0.30036 0.42135
 C601 C 1.04329 0.73417 0.10441
 C602 C 1.04875 0.70303 0.13466
 C603 C 1.01974 0.70314 0.16136
 C604 C 0.98825 0.73496 0.15576
 C605 C 1.00286 0.72678 0.08773
 C606 C 0.97403 0.72782 0.11472
 C607 C 1.03857 0.77339 0.12759
 C608 C 1.01010 0.77339 0.15465
 H609 H 1.07308 0.68230 0.13442
 H610 H 0.96452 0.73594 0.17744
 H611 H 0.99725 0.72457 0.05734
 H612 H 1.05714 0.79822 0.12419
 C613 C 0.51489 0.24474 0.63387
 C614 C 0.53800 0.21601 0.65845
 C615 C 0.51555 0.19829 0.68489
 C616 C 0.47245 0.21094 0.68409
 C617 C 0.48256 0.22003 0.61645
 C618 C 0.46066 0.20203 0.64258
 C619 C 0.49429 0.27346 0.66252
 C620 C 0.47199 0.25599 0.68876
 H621 H 0.56853 0.20888 0.65402
 H622 H 0.45369 0.19656 0.70490
 H623 H 0.47931 0.21484 0.58590
 H624 H 0.49706 0.30503 0.66180
 C625 C 0.48079 0.77891 0.87439
 C626 C 0.47794 0.73823 0.85478
 C627 C 0.51165 0.71672 0.85372
 C628 C 0.54581 0.73836 0.87211
 C629 C 0.49705 0.77112 0.91405
 C630 C 0.53130 0.74997 0.91291
 C631 C 0.51383 0.79874 0.85342
 C632 C 0.54765 0.77746 0.85169
 H633 H 0.45082 0.72681 0.84426
 H634 H 0.57353 0.72118 0.87142
 H635 H 0.48289 0.78178 0.94031
 H636 H 0.51056 0.82708 0.84070
 C637 C 0.43286 -0.15245 0.25996
 C638 C 0.44060 -0.16100 0.22153
 C639 C 0.42886 -0.12855 0.20300
 C640 C 0.41409 -0.10271 0.23106
 O641 O 0.41678 -0.11691 0.26561
 H642 H 0.45435 -0.18695 0.20817
 H643 H 0.43143 -0.12394 0.17266
 C644 C 0.95220 0.43155 0.75597
 C645 C 0.96739 0.44217 0.72124
 C646 C 0.94321 0.47130 0.70925
 C647 C 0.91521 0.47652 0.73756
 O648 O 0.92061 0.45250 0.76587
 H649 H 0.99261 0.42988 0.70603
 H650 H 0.94512 0.48636 0.68266
 C651 C 0.09944 1.15530 0.78046
 C652 C 0.13945 1.15450 0.78298
 C653 C 0.15088 1.11724 0.77167
 C654 C 0.11712 1.09812 0.76302
 O655 O 0.08597 1.12105 0.76844
 H656 H 0.15816 1.17782 0.79258
 H657 H 0.18025 1.10533 0.76978
 C658 C 0.59360 0.61497 0.32522
 C659 C 0.63334 0.61896 0.32488
 C660 C 0.64798 0.58518 0.30806
 C661 C 0.61623 0.56293 0.29908
 O662 O 0.58301 0.58078 0.30972
 H663 H 0.64972 0.64364 0.33564
 H664 H 0.67824 0.57767 0.30242
 C665 C 0.52896 0.39093 0.21429
 C666 C 0.50025 0.41214 0.23448
 C667 C 0.51812 0.44400 0.25042
 C668 C 0.55645 0.43994 0.23893
 O669 O 0.56301 0.40788 0.21699
 H670 H 0.46981 0.40563 0.23699
 H671 H 0.50473 0.46710 0.26849
 C672 C 0.00540 0.93880 0.68855
 C673 C -0.02085 0.96829 0.70030
 C674 C 0.00111 0.99784 0.71536
 C675 C 0.03896 0.98406 0.71166
 O676 O 0.04148 0.94852 0.69550
 H677 H -0.05210 0.96864 0.69794
 H678 H -0.00933 1.02586 0.72748
 C679 C 0.88279 0.66415 0.69670
 C680 C 0.84855 0.67439 0.71581
 C681 C 0.83412 0.63994 0.72757
 C682 C 0.86082 0.61142 0.71505
 O683 O 0.89029 0.62594 0.69625
 H684 H 0.83524 0.70335 0.71996
 H685 H 0.80764 0.63619 0.74375
 C686 C 0.47293 0.09089 0.19681
 C687 C 0.50205 0.07033 0.21482
 C688 C 0.48677 0.03515 0.22283
 C689 C 0.44937 0.03652 0.20923
 O690 O 0.44084 0.07034 0.19353
 H691 H 0.53132 0.07919 0.22083
 H692 H 0.50136 0.01143 0.23702
 C693 C 0.27240 0.48140 -0.06877
 C694 C 0.23872 0.50034 -0.05565
 C695 C 0.22484 0.47753 -0.02759
 C696 C 0.25092 0.44628 -0.02600
 O697 O 0.27982 0.44876 -0.05077
 H698 H 0.22535 0.52688 -0.06599
 H699 H 0.19804 0.48203 -0.01145
 C700 C 0.77942 0.98049 0.33391
 C701 C 0.74010 0.98429 0.32719
 C702 C 0.72229 0.96747 0.35735
 C703 C 0.75206 0.95465 0.38020
 O704 O 0.78647 0.96278 0.36610
 H705 H 0.72589 0.99714 0.30311
 H706 H 0.69139 0.96487 0.36180
 C707 C 0.84719 0.12354 1.10526
 C708 C 0.84499 0.16424 1.10694
 C709 C 0.82381 0.17443 1.07619
 C710 C 0.81506 0.13955 1.05740
 O711 O 0.82882 0.10859 1.07510
 H712 H 0.85644 0.18451 1.12825
 H713 H 0.81607 0.20387 1.06797
 C714 C 0.26443 0.55055 0.65258
 C715 C 0.22892 0.53574 0.64206
 C716 C 0.21770 0.55642 0.61119
 C717 C 0.24707 0.58229 0.60520
 O718 O 0.27524 0.57875 0.63022
 H719 H 0.21299 0.51267 0.65502
 H720 H 0.19154 0.55289 0.59473
 C721 C 0.23776 0.57497 0.41187
 C722 C 0.26782 0.59921 0.40291
 C723 C 0.27778 0.61730 0.43670
 C724 C 0.25354 0.60226 0.46371
 O725 O 0.22913 0.57677 0.44884
 H726 H 0.27981 0.60448 0.37492
 H727 H 0.29969 0.63918 0.44113
 C728 C 0.76414 0.03061 0.88643
 C729 C 0.78806 0.00683 0.90774
 C730 C 0.79446 0.02781 0.94103
 C731 C 0.77416 0.06288 0.93773
 O732 O 0.75589 0.06454 0.90481
 H733 H 0.79952 -0.02235 0.90045
 H734 H 0.81228 0.01869 0.96449
 C735 C 0.75858 0.96982 0.58236
 C736 C 0.78514 0.99606 0.56932
 C737 C 0.78857 0.98804 0.53086
 C738 C 0.76421 0.95725 0.52339
 O739 O 0.74600 0.94621 0.55447
 H740 H 0.79920 1.01923 0.58554
 H741 H 0.80651 1.00291 0.51070
 C742 C 0.21921 0.40531 0.15813
 C743 C 0.23344 0.36722 0.16060
 C744 C 0.24161 0.35466 0.12390
 C745 C 0.23197 0.38599 0.10185
 O746 O 0.21848 0.41670 0.12244
 H747 H 0.23632 0.35002 0.18578
 H748 H 0.25307 0.32604 0.11444
 C749 C -0.11210 0.25261 0.49324
 C750 C -0.09916 0.21990 0.51196
 C751 C -0.06199 0.21290 0.49893
 C752 C -0.05520 0.24184 0.47335
 O753 O -0.08542 0.26576 0.47001
 H754 H -0.11470 0.20311 0.53251
 H755 H -0.04238 0.18930 0.50660
 C756 C 0.38545 0.82004 0.88694
 C757 C 0.39223 0.83110 0.84989
 C758 C 0.42897 0.81852 0.84113
 C759 C 0.44259 0.80129 0.87352
 O760 O 0.41613 0.80187 0.90138
 H761 H 0.37285 0.84631 0.83106
 H762 H 0.44384 0.82077 0.81393
 C763 C 1.12321 0.75285 0.04306
 C764 C 1.11935 0.71365 0.03251
 C765 C 1.08842 0.70140 0.05329
 C766 C 1.07582 0.73388 0.07515
 O767 O 1.09676 0.76505 0.06882
 H768 H 1.13658 0.69615 0.01187
 H769 H 1.07668 0.67223 0.05296
 C770 C 0.58084 0.28497 0.56815
 C771 C 0.54699 0.30193 0.55502
 C772 C 0.51848 0.28944 0.57817
 C773 C 0.53679 0.26555 0.60368
 O774 O 0.57481 0.26299 0.59799
 H775 H 0.54352 0.32182 0.53187
 H776 H 0.48781 0.29670 0.57673
 C777 C 0.39426 0.14070 0.59627
 C778 C 0.39635 0.12099 0.62999
 C779 C 0.42085 0.14206 0.65264
 C780 C 0.43196 0.17288 0.63098
 O781 O 0.41585 0.17218 0.59687
 H782 H 0.38132 0.09482 0.63748
 H783 H 0.43011 0.13521 0.68112
 C784 C 0.87835 0.71400 0.08332
 C785 C 0.87125 0.74600 0.10808
 C786 C 0.90634 0.75532 0.12275
 C787 C 0.93244 0.72874 0.10563
 O788 O 0.91567 0.70343 0.08175
 H789 H 0.84359 0.75999 0.11573
 H790 H 0.91227 0.77857 0.14369
 C791 C 0.59625 0.71389 0.98092
 C792 C 0.56693 0.72593 1.00623
 C793 C 0.53865 0.74198 0.98436
 C794 C 0.55266 0.73837 0.94723
 O795 O 0.58763 0.72149 0.94515
 H796 H 0.56615 0.72331 1.03695
 H797 H 0.51092 0.75410 0.99436
 C798 C 0.14640 0.23481 0.47747
 C799 C 0.13624 0.26155 0.50687
 C800 C 0.09915 0.27345 0.49956
 C801 C 0.08958 0.25355 0.46611
 O802 O 0.11812 0.23033 0.45252
 H803 H 0.15296 0.27015 0.53165
 H804 H 0.08076 0.29314 0.51719
 C805 C 0.55906 0.11542 0.72559
 C806 C 0.52878 0.12119 0.75143
 C807 C 0.50962 0.15414 0.74061
 C808 C 0.52942 0.16618 0.70881
 O809 O 0.55979 0.14293 0.69982
 H810 H 0.52150 0.10348 0.77537
 H811 H 0.48393 0.16739 0.75421
 C812 C 1.03534 0.62963 0.22811
 C813 C 0.99796 0.64040 0.23936
 C814 C 0.98711 0.66978 0.21615
 C815 C 1.01859 0.67484 0.19228
 O816 O 1.04790 0.65056 0.19957
 H817 H 0.98060 0.62854 0.26190
 H818 H 0.95928 0.68509 0.21652
 C819 C 0.98975 0.86250 0.20550
 C820 C 0.98912 0.83798 0.23604
 C821 C 0.99702 0.80131 0.22082
 C822 C 1.00241 0.80617 0.18229
 O823 O 0.99785 0.84315 0.17270
 H824 H 0.98199 0.84560 0.26564
 H825 H 0.99829 0.77415 0.23584
 C826 C 0.42210 0.32742 0.74725
 C827 C 0.41188 0.29489 0.76721
 C828 C 0.42934 0.26350 0.74813
 C829 C 0.44900 0.27901 0.71795
 O830 O 0.44475 0.31768 0.71744
 H831 H 0.39396 0.29373 0.79266
 H832 H 0.42787 0.23311 0.75567
 C833 C 0.49218 0.62047 0.82072
 C834 C 0.53200 0.61547 0.82309
 C835 C 0.54536 0.65124 0.83536
 C836 C 0.51278 0.67538 0.83943
 O837 O 0.48076 0.65678 0.83055
 H838 H 0.54934 0.58901 0.81726
 H839 H 0.57519 0.65850 0.84094
 C840 C 0.01715 0.13970 0.32612
 C841 C 0.05347 0.15325 0.31701
 C842 C 0.06082 0.18190 0.34429
 C843 C 0.02857 0.18353 0.36799
 O844 O 0.00234 0.15801 0.35705
 H845 H 0.07206 0.14428 0.29300
 H846 H 0.08626 0.19980 0.34607
 C847 C 0.03633 0.35958 0.34141
 C848 C -0.00084 0.35388 0.32829
 C849 C -0.01467 0.32385 0.34851
 C850 C 0.01514 0.31311 0.37214
 O851 O 0.04614 0.33472 0.36806
 H852 H -0.01659 0.37055 0.30754
 H853 H -0.04326 0.31151 0.34669
 C854 C 0.61833 0.82882 0.80208
 C855 C 0.63611 0.79210 0.79833
 C856 C 0.61252 0.76767 0.81745
 C857 C 0.58198 0.79124 0.83113
 O858 O 0.58553 0.82828 0.82194
 H859 H 0.66313 0.78412 0.78370
 H860 H 0.61671 0.73635 0.82023
 C861 C 0.69338 0.50451 0.13225
 C862 C 0.68730 0.46455 0.12702
 C863 C 0.66953 0.45346 0.15981
 C864 C 0.66587 0.48720 0.18269
 O865 O 0.68041 0.51792 0.16619
 H866 H 0.69433 0.44537 0.10247
 H867 H 0.65987 0.42434 0.16571
 C868 C 0.18089 1.00776 0.60476
 C869 C 0.16640 0.97032 0.60293
 C870 C 0.14911 0.96563 0.63781
 C871 C 0.15435 1.00058 0.65822
 O872 O 0.17356 1.02589 0.63821
 H873 H 0.16792 0.94904 0.57917
 H874 H 0.13384 0.94011 0.64667
 C875 C 0.14983 0.92176 0.83436
 C876 C 0.13172 0.89608 0.80885
 C877 C 0.12277 0.91739 0.77800
 C878 C 0.13576 0.95459 0.78647
 O879 O 0.15202 0.95741 0.82057
 H880 H 0.12555 0.86538 0.81158
 H881 H 0.10763 0.90693 0.75284
 C882 C 0.69472 0.39225 0.34275
 C883 C 0.69601 0.36809 0.31004
 C884 C 0.67976 0.38978 0.28213
 C885 C 0.66980 0.42552 0.29982
 O886 O 0.67899 0.42707 0.33640
 H887 H 0.70711 0.33820 0.30668
 H888 H 0.67558 0.38035 0.25262
 C889 C 0.76172 0.47571 0.62636
 C890 C 0.73757 0.50711 0.63757
 C891 C 0.75633 0.52612 0.66680
 C892 C 0.79047 0.50489 0.67126
 O893 O 0.79369 0.47450 0.64681
 H894 H 0.70972 0.51539 0.62601
 H895 H 0.74601 0.55213 0.68284
 C896 C 0.30977 -0.02388 0.09530
 C897 C 0.31917 0.01524 0.09468
 C898 C 0.34008 0.02230 0.12715
 C899 C 0.34223 -0.01319 0.14476
 O900 O 0.32379 -0.04105 0.12558
 H901 H 0.31183 0.03602 0.07313
 H902 H 0.35323 0.04961 0.13611
 C903 C 0.30395 0.03824 0.32149
 C904 C 0.28421 0.05380 0.29126
 C905 C 0.30415 0.04054 0.25924
 C906 C 0.33414 0.01747 0.27237
 O907 O 0.33425 0.01611 0.31010
 H908 H 0.25895 0.07331 0.29252
 H909 H 0.29729 0.04637 0.22985
 C910 C 0.76834 0.55135 0.85174
 C911 C 0.73791 0.55075 0.82634
 C912 C 0.75444 0.54255 0.79136
 C913 C 0.79358 0.53836 0.79799
 O914 O 0.80222 0.54375 0.83451
 H915 H 0.70751 0.55718 0.83224
 H916 H 0.73979 0.54034 0.76418
 C917 C 0.13067 0.72281 0.53882
 C918 C 0.14834 0.73609 0.50628
 C919 C 0.18335 0.71669 0.50350
 C920 C 0.18468 0.69294 0.53451
 O921 O 0.15282 0.69669 0.55597
 H922 H 0.13738 0.75750 0.48683
 H923 H 0.20492 0.71951 0.48119
 C924 C 0.63638 0.18862 1.00505
 C925 C 0.63475 0.18308 0.96574
 C926 C 0.67022 0.16783 0.95470
 C927 C 0.69102 0.16508 0.98798
 O928 O 0.67055 0.17762 1.01846
 H929 H 0.61074 0.18909 0.94705
 H930 H 0.67947 0.15990 0.92575
 C931 C 0.84527 0.21647 0.89034
 C932 C 0.81598 0.20478 0.86580
 C933 C 0.79103 0.18423 0.88752
 C934 C 0.80673 0.18480 0.92360
 O935 O 0.83921 0.20443 0.92535
 H936 H 0.81296 0.20971 0.83563
 H937 H 0.76510 0.16993 0.87772
 C938 C 0.36775 0.71202 0.51218
 C939 C 0.37330 0.71849 0.55100
 C940 C 0.34335 0.70084 0.56850
 C941 C 0.32150 0.68510 0.53924
 O942 O 0.33614 0.69176 0.50504
 H943 H 0.39706 0.73295 0.56518
 H944 H 0.33839 0.69905 0.59897
 C945 C 0.62312 0.84166 0.46744
 C946 C 0.63644 0.83693 0.50409
 C947 C 0.66944 0.85803 0.50654
 C948 C 0.67390 0.87404 0.47119
 O949 O 0.64567 0.86442 0.44756
 H950 H 0.62389 0.81985 0.52631
 H951 H 0.68809 0.86083 0.53109
 C952 C 0.11580 0.31160 -0.02515
 C953 C 0.12493 0.28576 0.00304
 C954 C 0.15833 0.29909 0.01882
 C955 C 0.16718 0.33204 -0.00094
 O956 O 0.14135 0.33972 -0.02743
 H957 H 0.10935 0.26015 0.01116
 H958 H 0.17418 0.28595 0.04174
 C959 C 0.35002 0.28234 0.02699
 C960 C 0.32295 0.25424 0.01807
 C961 C 0.28982 0.27475 0.00999
 C962 C 0.29933 0.31366 0.01392
 O963 O 0.33562 0.31846 0.02441
 H964 H 0.32613 0.22268 0.01954
 H965 H 0.26175 0.26290 0.00324
 C966 C 0.84846 0.81523 0.48366
 C967 C 0.84158 0.79433 0.44991
 C968 C 0.81253 0.81480 0.43272
 C969 C 0.80352 0.84609 0.45766
 O970 O 0.82528 0.84654 0.48842
 H971 H 0.85698 0.76836 0.43845
 H972 H 0.79987 0.80820 0.40511
   
