data_POSCAR
  _audit_creation_date              2014-09-24
  _audit_creation_method            'ToBaCCo'
  _symmetry_space_group_name_H-M    'P1'
  _symmetry_Int_Tables_number       1
  _symmetry_cell_setting            triclinic
  loop_
  _symmetry_equiv_pos_as_xyz
 x,y,z
_cell_length_a 35.2420
_cell_length_b 35.2312
_cell_length_c 35.3090
_cell_angle_alpha 88.632800
_cell_angle_beta 91.292400
_cell_angle_gamma 86.969300
loop_
  _atom_site_label
  _atom_site_type_symbol
  _atom_site_fract_x
  _atom_site_fract_y
  _atom_site_fract_z
N1 N 0.17908 0.24567 0.23266
 N2 N 0.18660 0.21307 0.25090
 C3 C 0.15588 0.20441 0.27092
 C4 C 0.12766 0.23281 0.26372
 C5 C 0.14343 0.25838 0.23941
 H6 H 0.15419 0.17947 0.28916
 H7 H 0.13051 0.28508 0.22853
 Cu8 Cu 0.23591 0.18538 0.24522
 Cu9 Cu 0.21664 0.27065 0.20363
 Cu10 Cu 0.27503 0.21037 0.15905
 N11 N 0.27651 0.15416 0.22115
 N12 N 0.29011 0.16328 0.18776
 C13 C 0.31648 0.13651 0.17819
 C14 C 0.31973 0.10920 0.20681
 C15 C 0.29402 0.12115 0.23372
 H16 H 0.33241 0.13707 0.15240
 H17 H 0.28802 0.10662 0.26007
 N18 N 0.26809 0.26353 0.14342
 N19 N 0.24627 0.28766 0.16200
 C20 C 0.24408 0.32149 0.14349
 C21 C 0.26526 0.31808 0.11126
 C22 C 0.28023 0.28100 0.11205
 H23 H 0.22582 0.34559 0.15116
 H24 H 0.29694 0.26719 0.09051
 H25 H 0.22750 0.20319 0.19163
 H26 H 0.26937 0.22371 0.21516
 N27 N 0.64288 0.74324 0.71308
 N28 N 0.65248 0.71567 0.73773
 C29 C 0.62390 0.71165 0.76200
 C30 C 0.59483 0.73804 0.75171
 C31 C 0.60779 0.75750 0.72052
 H32 H 0.62459 0.69173 0.78582
 H33 H 0.59363 0.78160 0.70561
 Cu34 Cu 0.70196 0.68876 0.73647
 Cu35 Cu 0.67886 0.76222 0.67715
 Cu36 Cu 0.75920 0.70427 0.66275
 N37 N 0.74302 0.65273 0.72386
 N38 N 0.76517 0.65850 0.69503
 C39 C 0.78969 0.62810 0.69203
 C40 C 0.78233 0.60199 0.72047
 C41 C 0.75261 0.61856 0.74013
 H42 H 0.81075 0.62488 0.67037
 H43 H 0.73833 0.60633 0.76392
 N44 N 0.74711 0.75200 0.63331
 N45 N 0.71545 0.77309 0.63755
 C46 C 0.71468 0.80283 0.61277
 C47 C 0.74773 0.80066 0.59251
 C48 C 0.76769 0.76821 0.60623
 H49 H 0.69231 0.82503 0.61030
 H50 H 0.79503 0.75714 0.59694
 H51 H 0.70120 0.70776 0.66989
 H52 H 0.73054 0.73898 0.69940
 N53 N 0.33011 0.78670 0.75525
 N54 N 0.31042 0.80280 0.78226
 C55 C 0.33103 0.79979 0.81490
 C56 C 0.36546 0.78091 0.80761
 C57 C 0.36394 0.77320 0.76949
 H58 H 0.32229 0.81175 0.84145
 H59 H 0.38606 0.75959 0.75301
 Cu60 Cu 0.26106 0.82836 0.77073
 Cu61 Cu 0.31096 0.78567 0.70340
 Cu62 Cu 0.21297 0.79700 0.69552
 N63 N 0.21334 0.85367 0.75318
 N64 N 0.19344 0.83985 0.72522
 C65 C 0.16105 0.86143 0.71984
 C66 C 0.16112 0.89095 0.74514
 C67 C 0.19483 0.88517 0.76587
 H68 H 0.13997 0.85686 0.69791
 H69 H 0.20509 0.90243 0.78846
 N70 N 0.24421 0.76941 0.65807
 N71 N 0.28170 0.76775 0.66014
 C72 C 0.29549 0.74743 0.63135
 C73 C 0.26534 0.73532 0.61010
 C74 C 0.23309 0.74984 0.62770
 H75 H 0.32531 0.74002 0.62762
 H76 H 0.20385 0.74563 0.61966
 H77 H 0.26225 0.82245 0.70183
 H78 H 0.26078 0.77553 0.72717
 N79 N 0.84248 0.26903 0.28800
 N80 N 0.83528 0.30413 0.29871
 C81 C 0.86515 0.31558 0.31895
 C82 C 0.89260 0.28598 0.32122
 C83 C 0.87707 0.25662 0.30168
 H84 H 0.86696 0.34370 0.33025
 H85 H 0.89065 0.22916 0.29596
 Cu86 Cu 0.78848 0.33261 0.28346
 Cu87 Cu 0.80787 0.24483 0.25296
 Cu88 Cu 0.76106 0.31395 0.19501
 N89 N 0.74954 0.36437 0.25672
 N90 N 0.74075 0.35824 0.22108
 C91 C 0.71610 0.38610 0.20788
 C92 C 0.70829 0.41028 0.23717
 C93 C 0.72984 0.39575 0.26788
 H94 H 0.70417 0.38812 0.17935
 H95 H 0.73199 0.40776 0.29571
 N96 N 0.76846 0.26039 0.18083
 N97 N 0.78408 0.23359 0.20388
 C98 C 0.78163 0.19968 0.18754
 C99 C 0.76372 0.20559 0.15250
 C100 C 0.75588 0.24432 0.14906
 H101 H 0.79254 0.17287 0.20006
 H102 H 0.74117 0.25953 0.12564
 H103 H 0.80811 0.29650 0.22832
 H104 H 0.76041 0.28425 0.24528
 N105 N 0.87012 0.70669 0.26218
 N106 N 0.85467 0.67628 0.24913
 C107 C 0.87553 0.66260 0.22058
 C108 C 0.90561 0.68570 0.21529
 C109 C 0.90133 0.71348 0.24219
 H110 H 0.86846 0.63847 0.20395
 H111 H 0.91909 0.73720 0.24644
 Cu112 Cu 0.80740 0.65824 0.26867
 Cu113 Cu 0.84809 0.73449 0.30427
 Cu114 Cu 0.75240 0.72131 0.31550
 N115 N 0.75402 0.65021 0.27758
 N116 N 0.73251 0.67559 0.29498
 C117 C 0.69677 0.66406 0.29610
 C118 C 0.69583 0.62946 0.27865
 C119 C 0.73268 0.62137 0.26728
 H120 H 0.67336 0.67945 0.30917
 H121 H 0.74306 0.59660 0.25236
 N122 N 0.77961 0.76020 0.34240
 N123 N 0.81583 0.76621 0.33734
 C124 C 0.82563 0.79540 0.35888
 C125 C 0.79421 0.80748 0.37900
 C126 C 0.76566 0.78455 0.36802
 H127 H 0.85357 0.80665 0.36025
 H128 H 0.73668 0.78597 0.37757
 H129 H 0.80700 0.69836 0.32405
 H130 H 0.79781 0.72605 0.27854
 N131 N 0.38506 0.17470 -0.20910
 N132 N 0.37038 0.16015 -0.23970
 C133 C 0.39394 0.16553 -0.26881
 C134 C 0.42419 0.18559 -0.25547
 C135 C 0.41795 0.18997 -0.21740
 H136 H 0.38767 0.15867 -0.29791
 H137 H 0.43401 0.20627 -0.19773
 Cu138 Cu 0.31957 0.14013 -0.23878
 Cu139 Cu 0.35612 0.18363 -0.16422
 Cu140 Cu 0.26179 0.18136 -0.17081
 N141 N 0.26506 0.13036 -0.23513
 N142 N 0.24328 0.14527 -0.20868
 C143 C 0.20944 0.12921 -0.21014
 C144 C 0.20985 0.10339 -0.23908
 C145 C 0.24541 0.10502 -0.25450
 H146 H 0.18665 0.13479 -0.19071
 H147 H 0.25688 0.08735 -0.27657
 N148 N 0.28703 0.21500 -0.13541
 N149 N 0.32417 0.21235 -0.13057
 C150 C 0.33491 0.23793 -0.10547
 C151 C 0.30300 0.25854 -0.09427
 C152 C 0.27282 0.24317 -0.11359
 H153 H 0.36415 0.24318 -0.09838
 H154 H 0.24310 0.25238 -0.11257
 H155 H 0.30619 0.14172 -0.18106
 H156 H 0.30393 0.18728 -0.20963
 N157 N 0.66477 0.24587 -0.25029
 N158 N 0.68620 0.25902 -0.27709
 C159 C 0.66861 0.25594 -0.31104
 C160 C 0.63379 0.24070 -0.30516
 C161 C 0.63239 0.23447 -0.26623
 H162 H 0.67917 0.26657 -0.33757
 H163 H 0.60898 0.22404 -0.25044
 Cu164 Cu 0.73209 0.28427 -0.26455
 Cu165 Cu 0.67912 0.24833 -0.19645
 Cu166 Cu 0.77368 0.26674 -0.17961
 N167 N 0.77072 0.31639 -0.24523
 N168 N 0.78875 0.30803 -0.21286
 C169 C 0.81550 0.33328 -0.20715
 C170 C 0.81339 0.35924 -0.23717
 C171 C 0.78471 0.34776 -0.26088
 H172 H 0.83438 0.33325 -0.18256
 H173 H 0.77528 0.36073 -0.28778
 N174 N 0.74253 0.24226 -0.14169
 N175 N 0.70575 0.23809 -0.14682
 C176 C 0.69174 0.22426 -0.11435
 C177 C 0.72130 0.21913 -0.08793
 C178 C 0.75309 0.23054 -0.10628
 H179 H 0.66250 0.21740 -0.11052
 H180 H 0.78160 0.23129 -0.09441
 H181 H 0.72125 0.28703 -0.19665
 H182 H 0.73332 0.23766 -0.21181
 N183 N 0.13772 0.75975 0.24185
 N184 N 0.15903 0.77432 0.21575
 C185 C 0.14405 0.76794 0.18129
 C186 C 0.11122 0.74872 0.18600
 C187 C 0.10783 0.74417 0.22484
 H188 H 0.15561 0.77750 0.15483
 H189 H 0.08551 0.73045 0.23959
 Cu190 Cu 0.20282 0.80249 0.22948
 Cu191 Cu 0.15125 0.76300 0.29565
 Cu192 Cu 0.24409 0.78866 0.31502
 N193 N 0.23898 0.83718 0.24906
 N194 N 0.25794 0.83045 0.28122
 C195 C 0.28348 0.85745 0.28569
 C196 C 0.27896 0.88302 0.25518
 C197 C 0.25042 0.86917 0.23272
 H198 H 0.30256 0.85921 0.30996
 H199 H 0.23935 0.88079 0.20583
 N200 N 0.21379 0.76069 0.35167
 N201 N 0.17799 0.75296 0.34495
 C202 C 0.16531 0.73338 0.37485
 C203 C 0.19451 0.72832 0.40151
 C204 C 0.22486 0.74601 0.38598
 H205 H 0.13765 0.72158 0.37605
 H206 H 0.25316 0.74715 0.39824
 H207 H 0.19108 0.80476 0.29715
 H208 H 0.20721 0.75628 0.28217
 N209 N 0.48694 0.41237 0.53128
 N210 N 0.45358 0.42286 0.54469
 C211 C 0.44414 0.39745 0.57138
 C212 C 0.47302 0.36939 0.57488
 C213 C 0.49985 0.37971 0.54902
 H214 H 0.41794 0.39909 0.58676
 H215 H 0.52668 0.36473 0.54357
 Cu216 Cu 0.42490 0.46845 0.52594
 Cu217 Cu 0.51025 0.44295 0.49202
 Cu218 Cu 0.44129 0.49143 0.43535
 N219 N 0.39175 0.50533 0.49766
 N220 N 0.39752 0.51306 0.46171
 C221 C 0.36962 0.53757 0.44822
 C222 C 0.34537 0.54607 0.47744
 C223 C 0.36026 0.52518 0.50851
 H224 H 0.36765 0.54894 0.41948
 H225 H 0.34881 0.52415 0.53665
 N226 N 0.49406 0.48097 0.41926
 N227 N 0.52094 0.46447 0.44161
 C228 C 0.55447 0.46524 0.42406
 C229 C 0.54823 0.48288 0.38889
 C230 C 0.50967 0.49232 0.38672
 H231 H 0.58133 0.45382 0.43599
 H232 H 0.49438 0.50769 0.36375
 H233 H 0.47329 0.49203 0.48440
 H234 H 0.45738 0.44459 0.47019
 N235 N -0.02066 -0.10252 1.01199
 N236 N -0.05156 -0.09009 1.02903
 C237 C -0.06120 -0.11599 1.05508
 C238 C -0.03498 -0.14640 1.05458
 C239 C -0.00951 -0.13706 1.02687
 H240 H -0.08555 -0.11282 1.07306
 H241 H 0.01489 -0.15419 1.01793
 Cu242 Cu -0.07712 -0.04137 1.01613
 Cu243 Cu 0.00130 -0.07196 0.97147
 Cu244 Cu -0.01755 0.02352 0.98890
 N245 N -0.09293 0.01210 1.01313
 N246 N -0.06893 0.03794 1.00408
 C247 C -0.08664 0.07267 1.00553
 C248 C -0.12391 0.06804 1.01527
 C249 C -0.12695 0.02927 1.01998
 H250 H -0.07372 0.09906 0.99865
 H251 H -0.15196 0.01466 1.02777
 N252 N 0.02326 0.00471 0.95568
 N253 N 0.02859 -0.03118 0.94618
 C254 C 0.05047 -0.03283 0.91525
 C255 C 0.05919 0.00393 0.90505
 C256 C 0.04198 0.02666 0.93170
 H257 H 0.05676 -0.05830 0.89956
 H258 H 0.03936 0.05736 0.93113
 H259 H -0.00922 -0.03203 1.00910
 H260 H -0.03740 -0.02401 0.96394
 N261 N 1.00471 0.58867 0.95376
 N262 N 1.03859 0.58407 0.97055
 C263 C 1.04080 0.60943 0.99849
 C264 C 1.00680 0.63102 0.99875
 C265 C 0.98476 0.61711 0.97003
 H266 H 1.06512 0.61184 1.01735
 H267 H 0.95607 0.62671 0.96170
 Cu268 Cu 1.07690 0.54408 0.95585
 Cu269 Cu 0.98750 0.55790 0.91172
 Cu270 Cu 1.04609 0.48504 0.89031
 N271 N 1.10370 0.49519 0.94626
 N272 N 1.08972 0.47130 0.92225
 C273 C 1.11210 0.43931 0.92210
 C274 C 1.14233 0.44365 0.94657
 C275 C 1.13649 0.47947 0.96145
 H276 H 1.10749 0.41520 0.90450
 H277 H 1.15423 0.49270 0.98218
 N278 N 1.01086 0.50835 0.85301
 N279 N 0.98586 0.53546 0.86187
 C280 C 0.96115 0.54213 0.83248
 C281 C 0.97214 0.51836 0.80359
 C282 C 1.00379 0.49748 0.81753
 H283 H 0.93662 0.56192 0.83253
 H284 H 1.01891 0.47423 0.80394
 H285 H 1.02574 0.52163 0.94476
 H286 H 1.04425 0.55200 0.90608
 N287 N 0.47712 0.08322 0.51093
 N288 N 0.50764 0.07242 0.53137
 C289 C 0.51382 0.09900 0.55744
 C290 C 0.48557 0.12778 0.55287
 C291 C 0.46284 0.11669 0.52319
 H292 H 0.53758 0.09808 0.57742
 H293 H 0.43840 0.13239 0.51051
 Cu294 Cu 0.53770 0.02632 0.51889
 Cu295 Cu 0.46037 0.05573 0.46694
 Cu296 Cu 0.49591 -0.03717 0.46454
 N297 N 0.56518 -0.02048 0.50395
 N298 N 0.54830 -0.04525 0.48295
 C299 C 0.57387 -0.07280 0.47339
 C300 C 0.60883 -0.06483 0.48877
 C301 C 0.60234 -0.03154 0.50832
 H302 H 0.56790 -0.09556 0.45448
 H303 H 0.62353 -0.01518 0.52213
 N304 N 0.45207 -0.01768 0.43273
 N305 N 0.43962 0.01828 0.43266
 C306 C 0.41748 0.02566 0.40157
 C307 C 0.41583 -0.00702 0.38078
 C308 C 0.43799 -0.03399 0.40162
 H309 H 0.40806 0.05396 0.39166
 H310 H 0.44845 -0.06125 0.39149
 H311 H 0.47471 0.00814 0.49728
 H312 H 0.50689 0.01846 0.45745
 N313 N -0.02303 0.12352 0.50577
 N314 N -0.04979 0.11240 0.48266
 C315 C -0.04310 0.12450 0.44720
 C316 C -0.01095 0.14510 0.44824
 C317 C 0.00105 0.14432 0.48586
 H318 H -0.06125 0.12013 0.42274
 H319 H 0.02542 0.15763 0.49778
 Cu320 Cu -0.09334 0.08708 0.50123
 Cu321 Cu -0.02224 0.10924 0.55963
 Cu322 Cu -0.07863 0.03321 0.57966
 N323 N -0.12903 0.05000 0.51607
 N324 N -0.12269 0.02771 0.54615
 C325 C -0.14920 0.00150 0.54704
 C326 C -0.17352 0.00818 0.51595
 C327 C -0.15995 0.03925 0.49705
 H328 H -0.14991 -0.02143 0.56789
 H329 H -0.17026 0.05153 0.47016
 N330 N -0.03954 0.05066 0.61519
 N331 N -0.01736 0.07879 0.60736
 C332 C 0.00707 0.08260 0.63684
 C333 C -0.00096 0.05625 0.66474
 C334 C -0.03065 0.03668 0.65021
 H335 H 0.02863 0.10329 0.63814
 H336 H -0.04437 0.01354 0.66400
 H337 H -0.04238 0.05995 0.54262
 H338 H -0.07717 0.09049 0.56881
 N339 N 0.49720 0.61612 0.00123
 N340 N 0.46843 0.61066 -0.02204
 C341 C 0.47054 0.63355 -0.05287
 C342 C 0.50247 0.65427 -0.04890
 C343 C 0.51887 0.64250 -0.01432
 H344 H 0.45024 0.63520 -0.07636
 H345 H 0.54392 0.65322 -0.00097
 Cu346 Cu 0.43044 0.57462 -0.01032
 Cu347 Cu 0.50272 0.59036 0.05092
 Cu348 Cu 0.44081 0.51925 0.06820
 N349 N 0.40163 0.52957 -0.00374
 N350 N 0.40506 0.50871 0.02761
 C351 C 0.38173 0.47985 0.02533
 C352 C 0.36288 0.48260 -0.00942
 C353 C 0.37617 0.51445 -0.02728
 H354 H 0.37911 0.45807 0.04707
 H355 H 0.36788 0.52583 -0.05514
 N356 N 0.47902 0.53394 0.10569
 N357 N 0.50299 0.56082 0.09941
 C358 C 0.52664 0.56245 0.12994
 C359 C 0.51704 0.53505 0.15630
 C360 C 0.48678 0.51770 0.14000
 H361 H 0.54995 0.58108 0.13227
 H362 H 0.47216 0.49417 0.15190
 H363 H 0.47875 0.54259 0.03093
 H364 H 0.44722 0.57692 0.05699
 N365 N 0.53356 -0.10364 -0.00123
 N366 N 0.54605 -0.07783 -0.02461
 C367 C 0.54564 -0.09076 -0.06000
 C368 C 0.53230 -0.12680 -0.05885
 C369 C 0.52472 -0.13426 -0.02114
 H370 H 0.55552 -0.07545 -0.08445
 H371 H 0.51425 -0.16007 -0.00904
 Cu372 Cu 0.56603 -0.03171 -0.00682
 Cu373 Cu 0.53160 -0.09513 0.05309
 Cu374 Cu 0.55816 -0.00683 0.08347
 N375 N 0.60015 0.00250 0.01582
 N376 N 0.59784 0.01292 0.05122
 C377 C 0.62570 0.03688 0.05841
 C378 C 0.64642 0.04090 0.02564
 C379 C 0.62931 0.01873 -0.00058
 H380 H 0.63072 0.04997 0.08535
 H381 H 0.63737 0.01449 -0.02960
 N382 N 0.52736 -0.04078 0.11433
 N383 N 0.51852 -0.07478 0.10307
 C384 C 0.49362 -0.08909 0.12718
 C385 C 0.48603 -0.06282 0.15476
 C386 C 0.50810 -0.03256 0.14593
 H387 H 0.47937 -0.11512 0.12285
 H388 H 0.50783 -0.00545 0.15969
 H389 H 0.52358 -0.03672 0.04594
 H390 H 0.57307 -0.05535 0.05841
 N391 N 1.03612 0.39155 0.49082
 N392 N 1.06890 0.40415 0.48065
 C393 C 1.08686 0.37801 0.45927
 C394 C 1.06402 0.34745 0.45595
 C395 C 1.03211 0.35697 0.47640
 H396 H 1.11363 0.38178 0.44565
 H397 H 1.00701 0.34082 0.47894
 Cu398 Cu 1.08384 0.45466 0.49349
 Cu399 Cu 0.99993 0.42188 0.51951
 Cu400 Cu 1.03252 0.50354 0.55777
 N401 N 1.10352 0.49769 0.51946
 N402 N 1.08451 0.51510 0.54621
 C403 C 1.10546 0.54264 0.56020
 C404 C 1.13896 0.54281 0.54068
 C405 C 1.13681 0.51413 0.51490
 H406 H 1.09634 0.56221 0.58174
 H407 H 1.15791 0.50582 0.49448
 N408 N 0.98056 0.48698 0.56525
 N409 N 0.96787 0.45634 0.54959
 C410 C 0.93286 0.45057 0.56218
 C411 C 0.92310 0.47866 0.58731
 C412 C 0.95391 0.50145 0.58842
 H413 H 0.91713 0.42579 0.55627
 H414 H 0.95784 0.52492 0.60703
 H415 H 1.01937 0.47595 0.50881
 H416 H 1.04419 0.44670 0.54804
 C417 C 0.37936 -0.02091 0.24091
 C418 C 0.09701 0.01898 0.76734
 C419 C 0.61243 0.51773 0.26613
 C420 C 0.86802 0.48185 0.71534
 C421 C 0.27006 0.37814 -0.01972
 C422 C 0.74819 0.13778 0.02983
 C423 C 0.23610 0.63867 0.51037
 C424 C 0.74957 0.89582 0.48213
 C425 C 0.02796 0.25114 0.36164
 C426 C -0.00685 0.72071 0.10924
 C427 C 0.50188 0.23938 0.63979
 C428 C 0.50167 0.76434 0.85615
 N429 N 0.03681 0.26890 0.29220
 N430 N 0.06304 0.26351 0.26655
 C431 C 0.09012 0.23831 0.28054
 C432 C 0.08027 0.22629 0.31640
 C433 C 0.04659 0.24721 0.32330
 H434 H 0.09747 0.20879 0.33651
 H435 H 0.01408 0.28905 0.28899
 H436 H 0.06338 0.27873 0.24082
 N437 N 0.50793 0.77933 0.78586
 N438 N 0.53239 0.77269 0.75880
 C439 C 0.55959 0.74726 0.77191
 C440 C 0.55174 0.73673 0.80890
 C441 C 0.51853 0.75795 0.81704
 H442 H 0.56965 0.71895 0.82810
 H443 H 0.48611 0.80057 0.78378
 H444 H 0.53145 0.78714 0.73260
 N445 N 0.43587 0.78078 0.88207
 N446 N 0.40026 0.78510 0.86953
 C447 C 0.39878 0.77478 0.83317
 C448 C 0.43473 0.76259 0.82237
 C449 C 0.45812 0.76829 0.85371
 H450 H 0.44265 0.75267 0.79478
 H451 H 0.44450 0.78717 0.90950
 H452 H 0.37776 0.79604 0.88542
 N453 N -0.01849 0.30948 0.36160
 N454 N -0.05616 0.31859 0.35071
 C455 C -0.07089 0.28697 0.33730
 C456 C -0.04352 0.25710 0.33994
 C457 C -0.01110 0.27202 0.35589
 H458 H -0.04648 0.22844 0.33044
 H459 H 0.00062 0.32954 0.36981
 H460 H -0.06917 0.34589 0.35121
 N461 N -0.04174 0.66309 0.13268
 N462 N -0.06442 0.65420 0.16039
 C463 C -0.06666 0.68301 0.18468
 C464 C -0.04348 0.71119 0.17237
 C465 C -0.02897 0.69811 0.13832
 H466 H -0.04054 0.73886 0.18442
 H467 H -0.03651 0.64564 0.10970
 H468 H -0.07927 0.62934 0.16158
 N469 N 0.49203 0.24755 0.70958
 N470 N 0.47184 0.23172 0.73873
 C471 C 0.45135 0.20419 0.72399
 C472 C 0.45894 0.20097 0.68564
 C473 C 0.48517 0.22835 0.67778
 H474 H 0.44612 0.18212 0.66589
 H475 H 0.50837 0.27128 0.71220
 H476 H 0.47115 0.24214 0.76614
 N477 N 0.56923 0.24530 0.61541
 N478 N 0.60599 0.24620 0.63094
 C479 C 0.60422 0.23755 0.66819
 C480 C 0.56731 0.22999 0.67678
 C481 C 0.54549 0.23718 0.64362
 H482 H 0.55774 0.22224 0.70458
 H483 H 0.56221 0.25010 0.58680
 H484 H 0.62971 0.25415 0.61608
 N485 N 0.06328 0.72914 0.09871
 N486 N 0.09372 0.73737 0.11872
 C487 C 0.08522 0.73708 0.15566
 C488 C 0.04768 0.72800 0.15936
 C489 C 0.03450 0.72298 0.12238
 H490 H 0.03167 0.72787 0.18511
 H491 H 0.06195 0.72982 0.06913
 H492 H 0.11943 0.74436 0.10693
 N493 N 0.37833 0.02697 0.18492
 N494 N 0.36239 0.06096 0.17646
 C495 C 0.34421 0.07411 0.20701
 C496 C 0.34928 0.04768 0.23644
 C497 C 0.37124 0.01797 0.22142
 H498 H 0.33682 0.04864 0.26415
 H499 H 0.39163 0.00972 0.16502
 H500 H 0.36245 0.07389 0.14954
 N501 N 0.81374 0.50883 0.75490
 N502 N 0.79194 0.54038 0.75633
 C503 C 0.80074 0.56392 0.72765
 C504 C 0.82946 0.54660 0.70700
 C505 C 0.83673 0.51130 0.72492
 H506 H 0.84350 0.55821 0.68272
 H507 H 0.81335 0.48664 0.77499
 H508 H 0.77182 0.54570 0.77707
 N509 N 0.88712 0.42494 0.75992
 N510 N 0.87234 0.39358 0.77264
 C511 C 0.83755 0.39136 0.75684
 C512 C 0.82943 0.42294 0.73349
 C513 C 0.86190 0.44369 0.73563
 H514 H 0.80342 0.43002 0.71738
 H515 H 0.91416 0.43280 0.76811
 H516 H 0.88631 0.37380 0.79134
 N517 N 0.31256 -0.03132 0.21707
 N518 N 0.28581 -0.05864 0.22004
 C519 C 0.29789 -0.08389 0.24736
 C520 C 0.33236 -0.07298 0.26287
 C521 C 0.34106 -0.03985 0.24271
 H522 H 0.35061 -0.08932 0.28299
 H523 H 0.31152 -0.01046 0.19553
 H524 H 0.26145 -0.05918 0.20271
 N525 N 0.08226 -0.04218 0.73384
 N526 N 0.10083 -0.07714 0.72721
 C527 C 0.13369 -0.07909 0.74744
 C528 C 0.13659 -0.04590 0.76783
 C529 C 0.10413 -0.02301 0.75801
 H530 H 0.16044 -0.03806 0.78526
 H531 H 0.05699 -0.03265 0.71994
 H532 H 0.09085 -0.09715 0.70861
 N533 N 0.65271 0.49511 0.21204
 N534 N 0.67711 0.46689 0.20410
 C535 C 0.68309 0.44468 0.23535
 C536 C 0.66134 0.45895 0.26438
 C537 C 0.64218 0.49120 0.24842
 H538 H 0.65904 0.44654 0.29247
 H539 H 0.64311 0.51650 0.19261
 H540 H 0.68949 0.46316 0.17776
 N541 N 0.60509 0.58801 0.27914
 N542 N 0.62695 0.61708 0.28305
 C543 C 0.66279 0.60591 0.27440
 C544 C 0.66376 0.56823 0.26429
 C545 C 0.62648 0.55769 0.26778
 H546 H 0.68860 0.55039 0.25784
 H547 H 0.57629 0.58857 0.28557
 H548 H 0.61748 0.64371 0.29252
 N549 N 0.14745 0.03699 0.72035
 N550 N 0.17702 0.05858 0.71866
 C551 C 0.18022 0.07689 0.75150
 C552 C 0.15190 0.06614 0.77520
 C553 C 0.13113 0.04084 0.75442
 H554 H 0.14824 0.07495 0.80403
 H555 H 0.13900 0.01944 0.69864
 H556 H 0.19459 0.06062 0.69536
 N557 N 0.25323 0.39747 0.04660
 N558 N 0.25209 0.38199 0.08094
 C559 C 0.26578 0.34569 0.07967
 C560 C 0.27610 0.33763 0.04313
 C561 C 0.26765 0.37129 0.02277
 H562 H 0.28622 0.31043 0.03260
 H563 H 0.24343 0.42528 0.03949
 H564 H 0.24125 0.39593 0.10445
 N565 N 0.79613 0.85631 0.52457
 N566 N 0.79569 0.83079 0.55255
 C567 C 0.75956 0.82755 0.56310
 C568 C 0.73590 0.85207 0.54089
 C569 C 0.76021 0.86982 0.51636
 H570 H 0.70521 0.85494 0.54142
 H571 H 0.82063 0.86337 0.51048
 H572 H 0.81979 0.81563 0.56379
 N573 N 0.79827 0.89433 0.42906
 N574 N 0.81077 0.87045 0.40327
 C575 C 0.79081 0.83904 0.40531
 C576 C 0.76498 0.84267 0.43404
 C577 C 0.76989 0.87860 0.44819
 H578 H 0.74516 0.82213 0.44333
 H579 H 0.80959 0.92070 0.43341
 H580 H 0.83211 0.87604 0.38417
 N581 N 0.32523 0.33123 -0.02942
 N582 N 0.33367 0.30004 -0.04807
 C583 C 0.30328 0.29161 -0.06943
 C584 C 0.27424 0.31903 -0.06451
 C585 C 0.28918 0.34364 -0.03825
 H586 H 0.24658 0.32063 -0.07846
 H587 H 0.34381 0.34349 -0.01037
 H588 H 0.35982 0.28470 -0.04570
 N589 N 0.69658 0.18474 0.00416
 N590 N 0.68875 0.20468 -0.02753
 C591 C 0.71984 0.20359 -0.04896
 C592 C 0.74870 0.18217 -0.03014
 C593 C 0.73281 0.17022 0.00356
 H594 H 0.77599 0.17334 -0.04139
 H595 H 0.67663 0.17910 0.02470
 H596 H 0.66214 0.21761 -0.03479
 N597 N 0.17382 0.66515 0.47829
 N598 N 0.16334 0.68901 0.45010
 C599 C 0.19445 0.70442 0.43623
 C600 C 0.22610 0.69026 0.45687
 C601 C 0.21207 0.66433 0.48263
 H602 H 0.25555 0.69585 0.45218
 H603 H 0.15472 0.64966 0.49370
 H604 H 0.13534 0.69388 0.44014
 N605 N 0.29409 0.66917 0.53937
 N606 N 0.30118 0.69495 0.56473
 C607 C 0.26809 0.70862 0.57867
 C608 C 0.23852 0.69114 0.56096
 C609 C 0.25618 0.66524 0.53689
 H610 H 0.20840 0.69565 0.56568
 H611 H 0.31525 0.65515 0.52397
 H612 H 0.32844 0.70269 0.57239
 N613 N 0.75383 0.12145 0.09956
 N614 N 0.75913 0.13911 0.13162
 C615 C 0.75535 0.17680 0.12457
 C616 C 0.74682 0.18349 0.08641
 C617 C 0.74617 0.14748 0.07134
 H618 H 0.74501 0.21060 0.07122
 H619 H 0.75779 0.09208 0.09670
 H620 H 0.76684 0.12543 0.15742
 N621 N 0.45673 0.29811 0.64573
 N622 N 0.44916 0.33141 0.62862
 C623 C 0.47408 0.33596 0.60086
 C624 C 0.49871 0.30397 0.60020
 C625 C 0.48710 0.28032 0.62959
 H626 H 0.52065 0.29856 0.57994
 H627 H 0.44012 0.28758 0.66729
 H628 H 0.42675 0.35032 0.63567
 N629 N -0.05902 0.77397 0.11241
 N630 N -0.06604 0.80847 0.09765
 C631 C -0.03581 0.81846 0.07785
 C632 C -0.00806 0.78927 0.08054
 C633 C -0.02359 0.76138 0.10317
 H634 H 0.01873 0.78767 0.06618
 H635 H -0.07948 0.75883 0.12624
 H636 H -0.09201 0.82392 0.09959
 N637 N -0.04068 0.70694 0.04746
 N638 N -0.03736 0.68339 0.01914
 C639 C -0.00481 0.66195 0.02402
 C640 C 0.01358 0.67240 0.05701
 C641 C -0.01003 0.70158 0.07102
 H642 H 0.03939 0.65945 0.06991
 H643 H -0.06431 0.72556 0.05100
 H644 H -0.05767 0.68169 -0.00266
 N645 N 0.45658 0.21909 0.58818
 N646 N 0.45215 0.18982 0.56619
 C647 C 0.48122 0.16399 0.57286
 C648 C 0.50533 0.17748 0.60048
 C649 C 0.48888 0.21294 0.60919
 H650 H 0.53094 0.16346 0.61272
 H651 H 0.43724 0.24254 0.58903
 H652 H 0.42925 0.18766 0.54723
 N653 N 0.01217 0.18210 0.35731
 N654 N 0.00138 0.15457 0.37995
 C655 C 0.00453 0.16566 0.41599
 C656 C 0.01788 0.20186 0.41643
 C657 C 0.02223 0.21166 0.37837
 H658 H 0.02045 0.21951 0.44085
 H659 H 0.01038 0.18136 0.32778
 H660 H -0.00955 0.12934 0.37064
 N661 N 0.54865 0.72789 0.90116
 N662 N 0.54869 0.69965 0.92650
 C663 C 0.51450 0.68442 0.92519
 C664 C 0.49175 0.70363 0.89779
 C665 C 0.51423 0.73157 0.88342
 H666 H 0.46227 0.69920 0.89086
 H667 H 0.57144 0.74521 0.89712
 H668 H 0.57156 0.69161 0.94479
 N669 N 0.53106 0.82931 0.85098
 N670 N 0.53856 0.85752 0.87337
 C671 C 0.52863 0.84825 0.90880
 C672 C 0.51439 0.81251 0.90916
 C673 C 0.51588 0.80131 0.87166
 H674 H 0.50443 0.79682 0.93336
 H675 H 0.53645 0.83003 0.82209
 H676 H 0.55023 0.88267 0.86420
 N677 N 0.08696 0.28766 0.37901
 N678 N 0.09632 0.31271 0.40434
 C679 C 0.06883 0.31560 0.43003
 C680 C 0.04148 0.29018 0.42152
 C681 C 0.05318 0.27362 0.38807
 H682 H 0.01412 0.28814 0.43451
 H683 H 0.10254 0.28288 0.35469
 H684 H 0.11965 0.32963 0.40209
 N685 N 0.26704 0.61102 0.45109
 N686 N 0.29544 0.58684 0.44300
 C687 C 0.31158 0.57255 0.47552
 C688 C 0.29242 0.58810 0.50577
 C689 C 0.26483 0.61340 0.48918
 H690 H 0.29843 0.58288 0.53569
 H691 H 0.24947 0.62497 0.43043
 H692 H 0.30338 0.58025 0.41551
 N693 N 0.81718 0.15341 0.02259
 N694 N 0.85066 0.13526 0.01910
 C695 C 0.84555 0.09771 0.01821
 C696 C 0.80732 0.09166 0.02100
 C697 C 0.78998 0.12782 0.02311
 H698 H 0.79412 0.06463 0.02215
 H699 H 0.81315 0.18282 0.02510
 H700 H 0.87646 0.14847 0.01813
 N701 N 0.72526 0.08722 -0.01294
 N702 N 0.69868 0.06233 -0.01421
 C703 C 0.67966 0.06334 0.01845
 C704 C 0.69497 0.08996 0.04171
 C705 C 0.72422 0.10443 0.02073
 H706 H 0.68501 0.09878 0.06906
 H707 H 0.74321 0.09298 -0.03527
 H708 H 0.69339 0.04562 -0.03757
 N709 N 0.20345 0.61243 0.56930
 N710 N 0.17759 0.58760 0.57661
 C711 C 0.16893 0.56994 0.54446
 C712 C 0.19012 0.58397 0.51538
 C713 C 0.21106 0.61183 0.53192
 H714 H 0.18869 0.57684 0.48575
 H715 H 0.21503 0.62935 0.58994
 H716 H 0.16593 0.58313 0.60318
 N717 N 0.20257 0.36052 -0.03408
 N718 N 0.16916 0.37781 -0.04231
 C719 C 0.17361 0.41538 -0.04564
 C720 C 0.21144 0.42241 -0.04007
 C721 C 0.22934 0.38657 -0.03368
 H722 H 0.22384 0.44984 -0.03944
 H723 H 0.20648 0.33159 -0.02710
 H724 H 0.14359 0.36417 -0.04397
 N725 N 0.68720 0.88598 0.44529
 N726 N 0.65074 0.89585 0.44796
 C727 C 0.64557 0.91631 0.47926
 C728 C 0.68035 0.91921 0.49775
 C729 C 0.70635 0.89925 0.47541
 H730 H 0.68625 0.93464 0.52317
 H731 H 0.69817 0.87163 0.42218
 H732 H 0.63008 0.88997 0.42757
 N733 N 0.75268 0.96524 0.46392
 N734 N 0.77267 0.99456 0.47258
 C735 C 0.79605 0.98461 0.50223
 C736 C 0.79035 0.94738 0.51330
 C737 C 0.76274 0.93579 0.48786
 H738 H 0.80620 0.93048 0.53483
 H739 H 0.73370 0.96491 0.44078
 H740 H 0.77123 1.02039 0.45734
 N741 N 0.29738 0.42861 -0.06234
 N742 N 0.32145 0.45606 -0.05973
 C743 C 0.33479 0.45672 -0.02373
 C744 C 0.31849 0.42873 -0.00257
 C745 C 0.29443 0.41167 -0.02791
 H746 H 0.32381 0.42157 0.02711
 H747 H 0.28328 0.42159 -0.08734
 H748 H 0.32887 0.47355 -0.08237
 N749 N 0.63082 0.50023 0.33476
 N750 N 0.61427 0.49079 0.36663
 C751 C 0.57649 0.49104 0.36011
 C752 C 0.56868 0.50100 0.32252
 C753 C 0.60408 0.50570 0.30687
 H754 H 0.54094 0.50465 0.30880
 H755 H 0.66001 0.50313 0.33231
 H756 H 0.62869 0.48504 0.39247
 N757 N 0.08256 0.05921 0.82369
 N758 N 0.07346 0.05543 0.85947
 C759 C 0.07445 0.01819 0.86912
 C760 C 0.08563 -0.00276 0.83797
 C761 C 0.09074 0.02460 0.80951
 H762 H 0.08681 -0.03335 0.83552
 H763 H 0.08124 0.08519 0.80868
 H764 H 0.06468 0.07822 0.87610
 N765 N 0.02566 0.02534 0.75887
 N766 N 0.00012 0.03433 0.73185
 C767 C 0.01770 0.04926 0.70205
 C768 C 0.05625 0.05018 0.71053
 C769 C 0.06040 0.03419 0.74703
 H770 H 0.07826 0.05766 0.69132
 H771 H 0.01958 0.01089 0.78399
 H772 H -0.02857 0.02849 0.73324
 N773 N 0.55638 0.48517 0.23865
 N774 N 0.53177 0.48957 0.21001
 C775 C 0.53677 0.52307 0.19220
 C776 C 0.56556 0.54116 0.21081
 C777 C 0.57710 0.51622 0.24065
 H778 H 0.57803 0.56737 0.20235
 H779 H 0.56011 0.46036 0.25540
 H780 H 0.51331 0.46888 0.20180
 N781 N 0.40204 -0.08076 0.20594
 N782 N 0.43039 -0.09168 0.18419
 C783 C 0.45485 -0.06370 0.18188
 C784 C 0.44190 -0.03398 0.20385
 C785 C 0.40765 -0.04537 0.21826
 H786 H 0.45387 -0.00648 0.20577
 H787 H 0.37876 -0.09716 0.21069
 H788 H 0.43178 -0.11725 0.16981
 N789 N 0.85552 0.44802 0.65284
 N790 N 0.86985 0.44801 0.61862
 C791 C 0.89263 0.47727 0.61508
 C792 C 0.89110 0.49793 0.64780
 C793 C 0.86872 0.47750 0.67216
 H794 H 0.90864 0.52110 0.65510
 H795 H 0.83922 0.42633 0.66286
 H796 H 0.86659 0.42622 0.59947
 N797 N 0.93988 0.48100 0.71687
 N798 N 0.96725 0.49073 0.74015
 C799 C 0.95174 0.51112 0.76812
 C800 C 0.91280 0.51526 0.76204
 C801 C 0.90618 0.49551 0.72907
 H802 H 0.89194 0.52656 0.78140
 H803 H 0.94413 0.46200 0.69491
 H804 H 0.99565 0.48105 0.73827
 N805 N 0.42789 0.00929 0.28209
 N806 N 0.43688 0.01347 0.31806
 C807 C 0.41317 -0.00609 0.33927
 C808 C 0.38759 -0.02362 0.31577
 C809 C 0.39804 -0.01314 0.27917
 H810 H 0.36433 -0.04029 0.32448
 H811 H 0.44126 0.02307 0.26004
 H812 H 0.45877 0.02983 0.32785
   
