data_POSCAR
  _audit_creation_date              2014-09-24
  _audit_creation_method            'ToBaCCo'
  _symmetry_space_group_name_H-M    'P1'
  _symmetry_Int_Tables_number       1
  _symmetry_cell_setting            triclinic
  loop_
  _symmetry_equiv_pos_as_xyz
 x,y,z
_cell_length_a 50.6290
_cell_length_b 50.6528
_cell_length_c 38.1397
_cell_angle_alpha 89.901100
_cell_angle_beta 89.973000
_cell_angle_gamma 90.197200
loop_
  _atom_site_label
  _atom_site_type_symbol
  _atom_site_fract_x
  _atom_site_fract_y
  _atom_site_fract_z
O1 O 0.02552 0.29219 -0.03902
 O2 O -0.02655 0.29288 0.02881
 O3 O 0.02521 0.29319 0.02926
 O4 O -0.02607 0.29228 -0.03926
 O5 O -0.02593 0.24873 -0.03831
 O6 O 0.02507 0.24966 0.03021
 O7 O -0.02623 0.24940 0.03003
 O8 O 0.02541 0.24865 -0.03765
 Cu9 Cu -0.00046 0.29701 -0.00512
 Cu10 Cu -0.00048 0.24477 -0.00383
 C11 C 0.03447 0.27022 -0.04979
 C12 C -0.03542 0.27120 0.04098
 C13 C 0.03405 0.27155 0.04128
 C14 C -0.03481 0.27032 -0.05045
 O15 O 0.52568 0.79254 0.47056
 O16 O 0.47399 0.79260 0.53874
 O17 O 0.52563 0.79219 0.53893
 O18 O 0.47398 0.79258 0.47061
 O19 O 0.47419 0.74904 0.47012
 O20 O 0.52497 0.74865 0.53900
 O21 O 0.47373 0.74904 0.53853
 O22 O 0.52580 0.74897 0.47146
 Cu23 Cu 0.49984 0.79686 0.50467
 Cu24 Cu 0.49954 0.74458 0.50467
 C25 C 0.53490 0.77069 0.45985
 C26 C 0.46498 0.77079 0.55023
 C27 C 0.53422 0.77029 0.55053
 C28 C 0.46519 0.77082 0.45878
 O29 O 0.97393 0.70803 -0.03189
 O30 O 1.02551 0.70938 0.03647
 O31 O 0.97389 0.70962 0.03619
 O32 O 1.02563 0.70773 -0.03191
 O33 O 1.02625 0.75122 -0.03322
 O34 O 0.97401 0.75311 0.03355
 O35 O 1.02555 0.75289 0.03466
 O36 O 0.97501 0.75148 -0.03452
 Cu37 Cu 0.99973 0.70432 0.00241
 Cu38 Cu 1.00023 0.75650 -0.00002
 C39 C 0.96556 0.72957 -0.04493
 C40 C 1.03442 0.73143 0.04718
 C41 C 0.96488 0.73174 0.04622
 C42 C 1.03499 0.72921 -0.04408
 O43 O 0.47434 0.20723 0.46205
 O44 O 0.52604 0.20600 0.53010
 O45 O 0.47443 0.20586 0.53014
 O46 O 0.52601 0.20751 0.46172
 O47 O 0.52584 0.25103 0.46335
 O48 O 0.47482 0.24939 0.53191
 O49 O 0.52609 0.24953 0.53124
 O50 O 0.47437 0.25075 0.46378
 Cu51 Cu 0.50023 0.20227 0.49582
 Cu52 Cu 0.50026 0.25452 0.49767
 C53 C 0.46534 0.22924 0.45151
 C54 C 0.53499 0.22761 0.54220
 C55 C 0.46578 0.22740 0.54267
 C56 C 0.53486 0.22961 0.45098
 O57 O 0.70689 0.02428 -0.03471
 O58 O 0.70596 -0.02570 0.03600
 O59 O 0.70582 0.02592 0.03357
 O60 O 0.70666 -0.02732 -0.03240
 O61 O 0.75022 -0.02756 -0.03042
 O62 O 0.74942 0.02637 0.03365
 O63 O 0.74946 -0.02500 0.03728
 O64 O 0.75047 0.02407 -0.03361
 Cu65 Cu 0.70194 -0.00076 0.00050
 Cu66 Cu 0.75423 -0.00059 0.00178
 C67 C 0.72894 0.03300 -0.04580
 C68 C 0.72763 -0.03404 0.04867
 C69 C 0.72756 0.03557 0.04432
 C70 C 0.72865 -0.03679 -0.04223
 O71 O 0.20514 0.52632 0.46801
 O72 O 0.20681 0.47347 0.53475
 O73 O 0.20680 0.52504 0.53632
 O74 O 0.20549 0.47461 0.46647
 O75 O 0.24901 0.47581 0.46400
 O76 O 0.25038 0.52493 0.53465
 O77 O 0.25035 0.47328 0.53179
 O78 O 0.24873 0.52712 0.46740
 Cu79 Cu 0.20166 0.49980 0.50156
 Cu80 Cu 0.25396 0.50024 0.49935
 C81 C 0.22673 0.53609 0.45689
 C82 C 0.22893 0.46406 0.54418
 C83 C 0.22891 0.53384 0.54704
 C84 C 0.22710 0.46655 0.45336
 O85 O 0.29215 1.02745 0.03445
 O86 O 0.29182 0.97438 -0.03183
 O87 O 0.29191 1.02598 -0.03373
 O88 O 0.29237 0.97578 0.03641
 O89 O 0.24881 0.97547 0.03644
 O90 O 0.24840 1.02598 -0.03273
 O91 O 0.24827 0.97450 -0.03138
 O92 O 0.24864 1.02676 0.03527
 Cu93 Cu 0.29644 1.00092 0.00128
 Cu94 Cu 0.24420 1.00068 0.00191
 C95 C 0.27038 1.03630 0.04617
 C96 C 0.26991 0.96524 -0.04276
 C97 C 0.27003 1.03483 -0.04503
 C98 C 0.27061 0.96684 0.04817
 O99 O 0.79349 0.47490 0.46430
 O100 O 0.79294 0.52567 0.53356
 O101 O 0.79270 0.47402 0.53253
 O102 O 0.79364 0.52655 0.46535
 O103 O 0.75008 0.52607 0.46410
 O104 O 0.74914 0.47430 0.53175
 O105 O 0.74939 0.52582 0.53221
 O106 O 0.74992 0.47482 0.46395
 Cu107 Cu 0.79758 0.50030 0.49904
 Cu108 Cu 0.74529 0.50029 0.49799
 C109 C 0.77173 0.46601 0.45251
 C110 C 0.77101 0.53462 0.54447
 C111 C 0.77070 0.46501 0.54340
 C112 C 0.77197 0.53530 0.45325
 C113 C 0.20071 0.22171 0.16557
 C114 C 0.21921 0.20209 0.16697
 C115 C 0.23664 0.20872 0.19361
 N116 N 0.22928 0.23176 0.20846
 C117 C 0.20729 0.23975 0.19148
 C118 C 0.25924 0.19378 0.20273
 C119 C 0.27825 0.20141 0.22811
 C120 C 0.30202 0.18847 0.23353
 C121 C 0.31528 0.20210 0.25919
 C122 C 0.29927 0.22298 0.26908
 N123 N 0.27654 0.22212 0.25041
 C124 C 0.30629 0.24204 0.29467
 C125 C 0.29171 0.26519 0.30214
 C126 C 0.29870 0.28364 0.32735
 C127 C 0.28012 0.30320 0.32603
 C128 C 0.26222 0.29610 0.30018
 N129 N 0.26938 0.27287 0.28569
 C130 C 0.23925 0.31065 0.29168
 C131 C 0.22009 0.30279 0.26666
 C132 C 0.19586 0.31506 0.26226
 C133 C 0.18268 0.30152 0.23645
 C134 C 0.19919 0.28133 0.22553
 N135 N 0.22215 0.28255 0.24366
 C136 C 0.19245 0.26263 0.19940
 H137 H 0.18428 0.22255 0.14746
 H138 H 0.21987 0.18503 0.14994
 H139 H 0.23891 0.27152 0.23876
 H140 H 0.30932 0.17118 0.22007
 H141 H 0.33471 0.19730 0.26911
 H142 H 0.31541 0.28310 0.34502
 H143 H 0.27969 0.32050 0.34264
 H144 H 0.16299 0.30590 0.22710
 H145 H 0.26017 0.23389 0.25431
 H146 H 0.18822 0.33186 0.27649
 C147 C 0.69463 0.71396 0.31839
 C148 C 0.71366 0.69481 0.31701
 C149 C 0.73492 0.70565 0.29910
 N150 N 0.72963 0.73088 0.28992
 C151 C 0.70498 0.73602 0.30168
 C152 C 0.75947 0.69301 0.29413
 C153 C 0.77981 0.70327 0.27261
 C154 C 0.80552 0.69389 0.27174
 C155 C 0.81861 0.70806 0.24626
 C156 C 0.80052 0.72563 0.23216
 N157 N 0.77689 0.72240 0.24815
 C158 C 0.80583 0.74305 0.20402
 C159 C 0.78893 0.76393 0.19416
 C160 C 0.79207 0.77928 0.16431
 C161 C 0.77280 0.79820 0.16539
 C162 C 0.75851 0.79379 0.19587
 N163 N 0.76849 0.77292 0.21351
 C164 C 0.73786 0.81007 0.20803
 C165 C 0.72201 0.80390 0.23741
 C166 C 0.70581 0.82168 0.25460
 C167 C 0.69314 0.80785 0.28077
 C168 C 0.70176 0.78192 0.27863
 N169 N 0.71926 0.77968 0.25199
 C170 C 0.69249 0.76094 0.29995
 H171 H 0.67548 0.71192 0.33072
 H172 H 0.71207 0.67526 0.32830
 H173 H 0.72671 0.76218 0.24194
 H174 H 0.81395 0.67830 0.28756
 H175 H 0.83907 0.70556 0.23879
 H176 H 0.80682 0.77718 0.14396
 H177 H 0.76982 0.81361 0.14611
 H178 H 0.67910 0.81599 0.29918
 H179 H 0.75914 0.73068 0.24022
 H180 H 0.70341 0.84248 0.24892
 C181 C 0.78589 0.19667 0.17863
 C182 C 0.80563 0.21523 0.17927
 C183 C 0.79583 0.23674 0.19748
 N184 N 0.77061 0.23204 0.20750
 C185 C 0.76448 0.20754 0.19602
 C186 C 0.80938 0.26095 0.20205
 C187 C 0.80010 0.28155 0.22377
 C188 C 0.81042 0.30695 0.22450
 C189 C 0.79698 0.32041 0.25018
 C190 C 0.77890 0.30285 0.26456
 N191 N 0.78112 0.27916 0.24856
 C192 C 0.76196 0.30863 0.29296
 C193 C 0.74074 0.29227 0.30352
 C194 C 0.72593 0.29592 0.33371
 C195 C 0.70642 0.27710 0.33334
 C196 C 0.70989 0.26261 0.30290
 N197 N 0.73082 0.27198 0.28464
 C198 C 0.69280 0.24230 0.29139
 C199 C 0.69811 0.22620 0.26203
 C200 C 0.67960 0.21035 0.24544
 C201 C 0.69267 0.19730 0.21905
 C202 C 0.71887 0.20538 0.22044
 N203 N 0.72202 0.22290 0.24685
 C204 C 0.73924 0.19559 0.19868
 H205 H 0.78711 0.17748 0.16632
 H206 H 0.82488 0.21314 0.16727
 H207 H 0.73991 0.22999 0.25636
 H208 H 0.82619 0.31496 0.20850
 H209 H 0.80033 0.34076 0.25763
 H210 H 0.72879 0.31071 0.35381
 H211 H 0.69125 0.27456 0.35308
 H212 H 0.68386 0.18337 0.20099
 H213 H 0.77227 0.26168 0.25668
 H214 H 0.65882 0.20843 0.25163
 C215 C 0.28453 0.69586 0.32026
 C216 C 0.30441 0.71428 0.31967
 C217 C 0.29470 0.73599 0.30171
 N218 N 0.26944 0.73154 0.29173
 C219 C 0.26317 0.70700 0.30302
 C220 C 0.30836 0.76017 0.29744
 C221 C 0.29914 0.78101 0.27603
 C222 C 0.30944 0.80643 0.27579
 C223 C 0.29603 0.82021 0.25033
 C224 C 0.27799 0.80281 0.23561
 N225 N 0.28020 0.77892 0.25117
 C226 C 0.26108 0.80893 0.20730
 C227 C 0.23988 0.79268 0.19644
 C228 C 0.22520 0.79660 0.16621
 C229 C 0.20566 0.77781 0.16628
 C230 C 0.20898 0.76306 0.19660
 N231 N 0.22985 0.77225 0.21507
 C232 C 0.19179 0.74271 0.20783
 C233 C 0.19697 0.72638 0.23707
 C234 C 0.17835 0.71052 0.25355
 C235 C 0.19130 0.69729 0.27992
 C236 C 0.21754 0.70525 0.27863
 N237 N 0.22083 0.72288 0.25229
 C238 C 0.23782 0.69528 0.30044
 H239 H 0.28561 0.67658 0.33243
 H240 H 0.32368 0.71201 0.33153
 H241 H 0.23877 0.72996 0.24287
 H242 H 0.32515 0.81423 0.29202
 H243 H 0.29936 0.84065 0.24326
 H244 H 0.22816 0.81156 0.14627
 H245 H 0.19057 0.77545 0.14642
 H246 H 0.18238 0.68332 0.29791
 H247 H 0.27136 0.76154 0.24275
 H248 H 0.15757 0.70875 0.24730
 C249 C 0.70524 0.27083 0.65838
 C250 C 0.72435 0.29006 0.65746
 C251 C 0.73970 0.28662 0.68718
 N252 N 0.73054 0.26604 0.70631
 C253 C 0.70953 0.25629 0.68866
 C254 C 0.76071 0.30340 0.69721
 C255 C 0.77813 0.29772 0.72515
 C256 C 0.79583 0.31561 0.73954
 C257 C 0.80981 0.30224 0.76483
 C258 C 0.80019 0.27656 0.76529
 N259 N 0.78111 0.27391 0.74074
 C260 C 0.81015 0.25601 0.78661
 C261 C 0.79731 0.23143 0.79117
 C262 C 0.80791 0.21004 0.80893
 C263 C 0.78857 0.19107 0.81016
 C264 C 0.76664 0.20157 0.79353
 N265 N 0.77204 0.22625 0.78193
 C266 C 0.74155 0.18922 0.79183
 C267 C 0.72070 0.19875 0.77064
 C268 C 0.69463 0.19036 0.77287
 C269 C 0.68095 0.20337 0.74694
 C270 C 0.69897 0.21952 0.72982
 N271 N 0.72318 0.21642 0.74418
 C272 C 0.69298 0.23568 0.70071
 H273 H 0.68978 0.26807 0.63913
 H274 H 0.72656 0.30499 0.63732
 H275 H 0.74078 0.22382 0.73409
 H276 H 0.79853 0.33614 0.73242
 H277 H 0.82543 0.31049 0.78081
 H278 H 0.82740 0.20834 0.82029
 H279 H 0.79038 0.17187 0.82239
 H280 H 0.66008 0.20124 0.74141
 H281 H 0.77266 0.25627 0.73257
 H282 H 0.68628 0.17630 0.79120
 C283 C 0.20496 0.77136 0.84203
 C284 C 0.22404 0.79061 0.84296
 C285 C 0.23947 0.78724 0.81328
 N286 N 0.23038 0.76667 0.79418
 C287 C 0.20935 0.75686 0.81179
 C288 C 0.26046 0.80409 0.80326
 C289 C 0.27784 0.79860 0.77522
 C290 C 0.29548 0.81661 0.76084
 C291 C 0.30943 0.80342 0.73540
 C292 C 0.29987 0.77772 0.73485
 N293 N 0.28085 0.77489 0.75948
 C294 C 0.30985 0.75732 0.71340
 C295 C 0.29709 0.73270 0.70883
 C296 C 0.30776 0.71141 0.69102
 C297 C 0.28851 0.69234 0.68991
 C298 C 0.26656 0.70270 0.70665
 N299 N 0.27187 0.72737 0.71820
 C300 C 0.24155 0.69021 0.70850
 C301 C 0.22067 0.69959 0.72975
 C302 C 0.19464 0.69108 0.72763
 C303 C 0.18093 0.70396 0.75359
 C304 C 0.19889 0.72017 0.77064
 N305 N 0.22310 0.71721 0.75619
 C306 C 0.19285 0.73624 0.79975
 H307 H 0.18944 0.76857 0.86122
 H308 H 0.22617 0.80553 0.86306
 H309 H 0.24068 0.72467 0.76620
 H310 H 0.29814 0.83711 0.76805
 H311 H 0.32500 0.81179 0.71938
 H312 H 0.32725 0.70983 0.67959
 H313 H 0.29040 0.67318 0.67769
 H314 H 0.16008 0.70172 0.75920
 H315 H 0.27245 0.75718 0.76760
 H316 H 0.18634 0.67701 0.70934
 C317 C 0.20558 0.22324 0.83463
 C318 C 0.22467 0.20412 0.83537
 C319 C 0.23982 0.20757 0.80542
 N320 N 0.23054 0.22803 0.78632
 C321 C 0.20967 0.23772 0.80422
 C322 C 0.26078 0.19090 0.79523
 C323 C 0.27800 0.19646 0.76699
 C324 C 0.29563 0.17858 0.75265
 C325 C 0.30955 0.19190 0.72713
 C326 C 0.29998 0.21752 0.72652
 N327 N 0.28097 0.22018 0.75116
 C328 C 0.30998 0.23804 0.70507
 C329 C 0.29720 0.26258 0.70058
 C330 C 0.30784 0.28402 0.68284
 C331 C 0.28862 0.30299 0.68196
 C332 C 0.26671 0.29242 0.69877
 N333 N 0.27201 0.26770 0.71012
 C334 C 0.24174 0.30478 0.70092
 C335 C 0.22088 0.29520 0.72219
 C336 C 0.19487 0.30363 0.72023
 C337 C 0.18120 0.29063 0.74625
 C338 C 0.19916 0.27445 0.76321
 N339 N 0.22333 0.27751 0.74860
 C340 C 0.19316 0.25830 0.79238
 H341 H 0.19029 0.22600 0.85411
 H342 H 0.22700 0.18927 0.85556
 H343 H 0.24094 0.27011 0.75849
 H344 H 0.29835 0.15812 0.75999
 H345 H 0.32513 0.18366 0.71112
 H346 H 0.32731 0.28578 0.67135
 H347 H 0.29050 0.32225 0.66987
 H348 H 0.16038 0.29279 0.75198
 H349 H 0.27259 0.23781 0.75932
 H350 H 0.18658 0.31774 0.70201
 C351 C 0.70571 0.72422 0.66545
 C352 C 0.72496 0.70528 0.66446
 C353 C 0.74015 0.70864 0.69437
 N354 N 0.73074 0.72890 0.71367
 C355 C 0.70974 0.73852 0.69595
 C356 C 0.76127 0.69207 0.70431
 C357 C 0.77862 0.69764 0.73240
 C358 C 0.79657 0.67988 0.74634
 C359 C 0.81049 0.69315 0.77181
 C360 C 0.80058 0.71864 0.77287
 N361 N 0.78137 0.72126 0.74847
 C362 C 0.81040 0.73909 0.79450
 C363 C 0.79724 0.76337 0.79955
 C364 C 0.80755 0.78472 0.81772
 C365 C 0.78806 0.80339 0.81902
 C366 C 0.76630 0.79274 0.80204
 N367 N 0.77196 0.76827 0.79018
 C368 C 0.74117 0.80483 0.80013
 C369 C 0.72042 0.79527 0.77872
 C370 C 0.69434 0.80346 0.78079
 C371 C 0.68079 0.79063 0.75457
 C372 C 0.69891 0.77478 0.73741
 N373 N 0.72304 0.77788 0.75207
 C374 C 0.69306 0.75887 0.70803
 H375 H 0.69034 0.72698 0.64608
 H376 H 0.72738 0.69060 0.64414
 H377 H 0.74071 0.77074 0.74208
 H378 H 0.79951 0.65952 0.73876
 H379 H 0.82629 0.68497 0.78748
 H380 H 0.82697 0.78664 0.82928
 H381 H 0.78967 0.82250 0.83149
 H382 H 0.65996 0.79269 0.74885
 H383 H 0.77270 0.73884 0.74064
 H384 H 0.68590 0.81732 0.79919
 C385 C 0.26933 0.09987 0.11826
 C386 C 0.29342 0.09032 0.10522
 C387 C 0.29389 0.06900 0.08193
 C388 C 0.27020 0.05693 0.07082
 C389 C 0.24614 0.06644 0.08434
 C390 C 0.24575 0.08755 0.10780
 C391 C 0.26853 0.12318 0.14174
 C392 C 0.25139 0.12359 0.17076
 C393 C 0.24908 0.14629 0.19128
 C394 C 0.26377 0.16896 0.18304
 C395 C 0.28134 0.16850 0.15463
 C396 C 0.28382 0.14573 0.13422
 H397 H 0.31283 0.06228 0.07228
 H398 H 0.22745 0.05777 0.07657
 H399 H 0.23536 0.14643 0.21308
 H400 H 0.29264 0.18597 0.14783
 H401 H 0.22687 0.09471 0.11708
 H402 H 0.23958 0.10642 0.17735
 H403 H 0.31191 0.09933 0.11310
 H404 H 0.29694 0.14607 0.11180
 C405 C 0.76941 0.59814 0.61937
 C406 C 0.79353 0.58659 0.60959
 C407 C 0.79408 0.56567 0.58570
 C408 C 0.77053 0.55584 0.57112
 C409 C 0.74641 0.56710 0.58138
 C410 C 0.74587 0.58802 0.60514
 C411 C 0.76869 0.62126 0.64329
 C412 C 0.74830 0.62383 0.66812
 C413 C 0.74633 0.64657 0.68859
 C414 C 0.76478 0.66706 0.68476
 C415 C 0.78566 0.66429 0.66095
 C416 C 0.78760 0.64158 0.64032
 H417 H 0.81298 0.55736 0.57842
 H418 H 0.72791 0.56009 0.57054
 H419 H 0.73015 0.64844 0.70700
 H420 H 0.79998 0.68004 0.65765
 H421 H 0.72699 0.59673 0.61163
 H422 H 0.73370 0.60836 0.67148
 H423 H 0.81198 0.59373 0.62041
 H424 H 0.80335 0.64037 0.62119
 C425 C 0.72818 0.90465 0.12452
 C426 C 0.70414 0.91500 0.11231
 C427 C 0.70385 0.93558 0.08776
 C428 C 0.72765 0.94633 0.07481
 C429 C 0.75166 0.93633 0.08781
 C430 C 0.75190 0.91575 0.11218
 C431 C 0.72877 0.88156 0.14866
 C432 C 0.71093 0.86045 0.14430
 C433 C 0.71321 0.83759 0.16467
 C434 C 0.73340 0.83544 0.18960
 C435 C 0.75065 0.85672 0.19499
 C436 C 0.74829 0.87965 0.17483
 H437 H 0.68494 0.94278 0.07865
 H438 H 0.77045 0.94396 0.07861
 H439 H 0.69987 0.82118 0.16012
 H440 H 0.76632 0.85529 0.21422
 H441 H 0.77079 0.90799 0.12052
 H442 H 0.69590 0.86111 0.12414
 H443 H 0.68551 0.90712 0.12165
 H444 H 0.76203 0.89570 0.17931
 C445 C 0.23115 0.39722 0.61347
 C446 C 0.20917 0.41403 0.61355
 C447 C 0.20839 0.43594 0.59114
 C448 C 0.22986 0.44165 0.56896
 C449 C 0.25209 0.42514 0.56967
 C450 C 0.25262 0.40301 0.59147
 C451 C 0.23178 0.37338 0.63576
 C452 C 0.23753 0.34877 0.62079
 C453 C 0.23979 0.32637 0.64188
 C454 C 0.23693 0.32829 0.67840
 C455 C 0.23055 0.35278 0.69334
 C456 C 0.22776 0.37515 0.67211
 H457 H 0.19104 0.44838 0.59114
 H458 H 0.26886 0.42898 0.55274
 H459 H 0.24444 0.30759 0.62984
 H460 H 0.22827 0.35462 0.72147
 H461 H 0.26984 0.39038 0.59123
 H462 H 0.24044 0.34696 0.59276
 H463 H 0.19240 0.40984 0.63032
 H464 H 0.22338 0.39399 0.68413
 C465 C 0.90218 0.27072 0.11502
 C466 C 0.91478 0.24716 0.10558
 C467 C 0.93546 0.24734 0.08134
 C468 C 0.94434 0.27121 0.06628
 C469 C 0.93207 0.29491 0.07656
 C470 C 0.91105 0.29461 0.10040
 C471 C 0.87912 0.27007 0.13892
 C472 C 0.85562 0.28300 0.12965
 C473 C 0.83310 0.28048 0.15062
 C474 C 0.83387 0.26537 0.18144
 C475 C 0.85754 0.25320 0.19143
 C476 C 0.87996 0.25535 0.17018
 H477 H 0.94436 0.22866 0.07431
 H478 H 0.93828 0.31370 0.06569
 H479 H 0.81491 0.28987 0.14250
 H480 H 0.85839 0.24143 0.21514
 H481 H 0.90169 0.31305 0.10744
 H482 H 0.85443 0.29425 0.10553
 H483 H 0.90812 0.22846 0.11626
 H484 H 0.89790 0.24533 0.17795
 C485 C 0.40208 0.76948 0.62602
 C486 C 0.41683 0.74662 0.61924
 C487 C 0.43744 0.74715 0.59488
 C488 C 0.44390 0.77061 0.57708
 C489 C 0.42956 0.79364 0.58452
 C490 C 0.40872 0.79303 0.60860
 C491 C 0.37905 0.76829 0.64995
 C492 C 0.35480 0.77932 0.63977
 C493 C 0.33245 0.77628 0.66089
 C494 C 0.33409 0.76248 0.69269
 C495 C 0.35842 0.75219 0.70355
 C496 C 0.38073 0.75495 0.68223
 H497 H 0.44817 0.72910 0.58979
 H498 H 0.43408 0.81201 0.57121
 H499 H 0.31371 0.78417 0.65214
 H500 H 0.35991 0.74143 0.72802
 H501 H 0.39773 0.81095 0.61354
 H502 H 0.35291 0.78944 0.61486
 H503 H 0.41193 0.72814 0.63203
 H504 H 0.39925 0.74644 0.69076
 C505 C 0.09774 0.73389 0.12268
 C506 C 0.08815 0.75721 0.10729
 C507 C 0.06733 0.75640 0.08332
 C508 C 0.05562 0.73223 0.07394
 C509 C 0.06493 0.70890 0.08961
 C510 C 0.08574 0.70973 0.11375
 C511 C 0.12078 0.73484 0.14687
 C512 C 0.14057 0.71541 0.14529
 C513 C 0.16325 0.71750 0.16604
 C514 C 0.16658 0.73906 0.18859
 C515 C 0.14659 0.75804 0.19113
 C516 C 0.12386 0.75591 0.17056
 H517 H 0.06073 0.77472 0.07162
 H518 H 0.05627 0.68997 0.08306
 H519 H 0.17860 0.70277 0.16371
 H520 H 0.14888 0.77475 0.20855
 H521 H 0.09241 0.69145 0.12545
 H522 H 0.13900 0.69912 0.12708
 H523 H 0.09721 0.77610 0.11305
 H524 H 0.10881 0.77094 0.17292
 C525 C 0.59819 0.22753 0.61771
 C526 C 0.58823 0.25136 0.60429
 C527 C 0.56747 0.25132 0.58026
 C528 C 0.55621 0.22744 0.56888
 C529 C 0.56589 0.20358 0.58259
 C530 C 0.58666 0.20363 0.60678
 C531 C 0.62125 0.22780 0.64178
 C532 C 0.64160 0.20915 0.63809
 C533 C 0.66452 0.21106 0.65837
 C534 C 0.66746 0.23166 0.68252
 C535 C 0.64687 0.24969 0.68730
 C536 C 0.62390 0.24773 0.66722
 H537 H 0.56057 0.27005 0.57012
 H538 H 0.55755 0.18486 0.57444
 H539 H 0.68039 0.19710 0.65431
 H540 H 0.64891 0.26567 0.70596
 H541 H 0.59369 0.18496 0.61693
 H542 H 0.64032 0.19376 0.61849
 H543 H 0.59697 0.27009 0.61162
 H544 H 0.60840 0.26209 0.67116
 C545 C 0.73086 0.09785 0.88150
 C546 C 0.75281 0.09213 0.90257
 C547 C 0.75238 0.07054 0.92530
 C548 C 0.72977 0.05448 0.92793
 C549 C 0.70784 0.06004 0.90657
 C550 C 0.70851 0.08141 0.88319
 C551 C 0.73134 0.12141 0.85864
 C552 C 0.72691 0.11922 0.82242
 C553 C 0.72977 0.14133 0.80063
 C554 C 0.73662 0.16598 0.81491
 C555 C 0.73983 0.16831 0.85134
 C556 C 0.73752 0.14618 0.87295
 H557 H 0.76951 0.06685 0.94156
 H558 H 0.69019 0.04796 0.90807
 H559 H 0.72719 0.13915 0.77260
 H560 H 0.74483 0.18720 0.86289
 H561 H 0.69136 0.08555 0.86715
 H562 H 0.72219 0.10025 0.81091
 H563 H 0.77030 0.10449 0.90147
 H564 H 0.74077 0.14831 0.90087
 C565 C 0.22615 0.60332 0.38825
 C566 C 0.24825 0.59782 0.40912
 C567 C 0.24854 0.57560 0.43073
 C568 C 0.22653 0.55870 0.43241
 C569 C 0.20436 0.56417 0.41145
 C570 C 0.20431 0.58618 0.38916
 C571 C 0.22617 0.62716 0.36595
 C572 C 0.22240 0.62521 0.32958
 C573 C 0.22552 0.64749 0.30821
 C574 C 0.23202 0.67203 0.32306
 C575 C 0.23439 0.67416 0.35962
 C576 C 0.23179 0.65185 0.38084
 H577 H 0.26583 0.57198 0.44674
 H578 H 0.18716 0.55141 0.41224
 H579 H 0.22361 0.64550 0.28006
 H580 H 0.23914 0.69297 0.37156
 H581 H 0.18708 0.59016 0.37321
 H582 H 0.21816 0.60628 0.31765
 H583 H 0.26536 0.61072 0.40857
 H584 H 0.23457 0.65376 0.40888
 C585 C 0.26824 0.89963 0.88547
 C586 C 0.29239 0.91151 0.89478
 C587 C 0.29298 0.93308 0.91766
 C588 C 0.26944 0.94326 0.93166
 C589 C 0.24530 0.93163 0.92190
 C590 C 0.24472 0.91006 0.89918
 C591 C 0.26746 0.87594 0.86248
 C592 C 0.24702 0.87267 0.83785
 C593 C 0.24512 0.84955 0.81810
 C594 C 0.26368 0.82935 0.82243
 C595 C 0.28456 0.83277 0.84611
 C596 C 0.28643 0.85585 0.86603
 H597 H 0.31189 0.94165 0.92459
 H598 H 0.22681 0.93888 0.93234
 H599 H 0.22895 0.84720 0.79976
 H600 H 0.29898 0.81726 0.84978
 H601 H 0.22582 0.90113 0.89308
 H602 H 0.23238 0.88793 0.83401
 H603 H 0.31083 0.90416 0.88434
 H604 H 0.30222 0.85758 0.88503
 C605 C 0.77087 0.40271 0.37731
 C606 C 0.79495 0.41390 0.38820
 C607 C 0.79532 0.43476 0.41221
 C608 C 0.77159 0.44485 0.42578
 C609 C 0.74754 0.43392 0.41442
 C610 C 0.74718 0.41309 0.39056
 C611 C 0.77024 0.37964 0.35332
 C612 C 0.75037 0.37739 0.32770
 C613 C 0.74819 0.35459 0.30739
 C614 C 0.76594 0.33374 0.31213
 C615 C 0.78641 0.33620 0.33663
 C616 C 0.78854 0.35897 0.35712
 H617 H 0.81417 0.44281 0.42037
 H618 H 0.72890 0.44114 0.42446
 H619 H 0.73234 0.35294 0.28845
 H620 H 0.80017 0.32015 0.34062
 H621 H 0.72831 0.40463 0.38324
 H622 H 0.73627 0.39313 0.32369
 H623 H 0.81352 0.40653 0.37817
 H624 H 0.80387 0.35995 0.37686
 C625 C 0.09833 0.26803 0.87552
 C626 C 0.08674 0.29222 0.88485
 C627 C 0.06576 0.29299 0.90875
 C628 C 0.05591 0.26958 0.92377
 C629 C 0.06724 0.24540 0.91401
 C630 C 0.08822 0.24464 0.89028
 C631 C 0.12153 0.26706 0.85162
 C632 C 0.14179 0.28608 0.85405
 C633 C 0.16469 0.28377 0.83378
 C634 C 0.16774 0.26238 0.81089
 C635 C 0.14727 0.24389 0.80743
 C636 C 0.12433 0.24624 0.82751
 H637 H 0.05739 0.31194 0.91563
 H638 H 0.06023 0.22700 0.92519
 H639 H 0.18043 0.29812 0.83680
 H640 H 0.14937 0.22732 0.78974
 H641 H 0.09697 0.22572 0.88422
 H642 H 0.14042 0.30216 0.87260
 H643 H 0.09386 0.31057 0.87365
 H644 H 0.10892 0.23155 0.82452
 C645 C 0.60088 0.77013 0.38911
 C646 C 0.58404 0.79206 0.39018
 C647 C 0.56239 0.79231 0.41305
 C648 C 0.55697 0.77036 0.43452
 C649 C 0.57350 0.74819 0.43263
 C650 C 0.59537 0.74818 0.41040
 C651 C 0.62451 0.77002 0.36642
 C652 C 0.64933 0.76433 0.38088
 C653 C 0.67153 0.76240 0.35938
 C654 C 0.66920 0.76552 0.32293
 C655 C 0.64449 0.77188 0.30850
 C656 C 0.62232 0.77435 0.33017
 H657 H 0.54993 0.80963 0.41397
 H658 H 0.56989 0.73106 0.44900
 H659 H 0.69046 0.75775 0.37103
 H660 H 0.64232 0.77436 0.28044
 H661 H 0.60805 0.73100 0.40976
 H662 H 0.65145 0.76116 0.40884
 H663 H 0.58802 0.80919 0.37396
 H664 H 0.60330 0.77869 0.31854
 C665 C 0.90355 0.72928 0.88054
 C666 C 0.91206 0.70556 0.89583
 C667 C 0.93299 0.70550 0.91979
 C668 C 0.94554 0.72928 0.92950
 C669 C 0.93708 0.75295 0.91367
 C670 C 0.91647 0.75289 0.88934
 C671 C 0.88044 0.72973 0.85673
 C672 C 0.88130 0.74420 0.82526
 C673 C 0.85879 0.74635 0.80423
 C674 C 0.83501 0.73441 0.81465
 C675 C 0.83424 0.71948 0.84563
 C676 C 0.85684 0.71697 0.86638
 H677 H 0.93889 0.68684 0.93124
 H678 H 0.94620 0.77168 0.92024
 H679 H 0.85964 0.75800 0.78042
 H680 H 0.81596 0.71028 0.85408
 H681 H 0.91010 0.77147 0.87815
 H682 H 0.89931 0.75408 0.81718
 H683 H 0.90246 0.68708 0.88929
 H684 H 0.85561 0.70593 0.89067
 C685 C 0.40084 0.23169 0.37813
 C686 C 0.41028 0.20738 0.39064
 C687 C 0.43161 0.20650 0.41390
 C688 C 0.44382 0.22994 0.42527
 C689 C 0.43464 0.25420 0.41226
 C690 C 0.41342 0.25506 0.38893
 C691 C 0.37732 0.23288 0.35500
 C692 C 0.37646 0.25075 0.32676
 C693 C 0.35359 0.25323 0.30657
 C694 C 0.33120 0.23795 0.31435
 C695 C 0.33215 0.21960 0.34185
 C696 C 0.35505 0.21705 0.36201
 H697 H 0.43824 0.18749 0.42340
 H698 H 0.44359 0.27262 0.42051
 H699 H 0.35312 0.26741 0.28529
 H700 H 0.31495 0.20773 0.34816
 H701 H 0.40637 0.27411 0.38011
 H702 H 0.39342 0.26295 0.32048
 H703 H 0.40114 0.18904 0.38247
 H704 H 0.35502 0.20333 0.38381
 C705 C 0.73021 0.89643 0.88861
 C706 C 0.75180 0.90208 0.91042
 C707 C 0.75145 0.92415 0.93223
 C708 C 0.72929 0.94075 0.93315
 C709 C 0.70767 0.93513 0.91123
 C710 C 0.70827 0.91329 0.88880
 C711 C 0.73076 0.87275 0.86610
 C712 C 0.72672 0.87483 0.82978
 C713 C 0.72961 0.85266 0.80829
 C714 C 0.73612 0.82807 0.82295
 C715 C 0.73896 0.82583 0.85945
 C716 C 0.73660 0.84803 0.88079
 H717 H 0.76833 0.92791 0.94896
 H718 H 0.69037 0.94765 0.91140
 H719 H 0.72735 0.85475 0.78019
 H720 H 0.74372 0.80697 0.87126
 H721 H 0.69141 0.90921 0.87217
 H722 H 0.72228 0.89376 0.81798
 H723 H 0.76899 0.88942 0.91045
 H724 H 0.73954 0.84599 0.90879
 C725 C 0.22782 0.40370 0.37751
 C726 C 0.25101 0.41782 0.38529
 C727 C 0.25060 0.43855 0.40936
 C728 C 0.22697 0.44575 0.42612
 C729 C 0.20362 0.43208 0.41768
 C730 C 0.20406 0.41119 0.39372
 C731 C 0.22884 0.38052 0.35379
 C732 C 0.24428 0.38123 0.32312
 C733 C 0.24698 0.35871 0.30234
 C734 C 0.23433 0.33513 0.31190
 C735 C 0.21840 0.33444 0.34195
 C736 C 0.21558 0.35699 0.36268
 H737 H 0.26895 0.44867 0.41526
 H738 H 0.18510 0.43715 0.43014
 H739 H 0.25940 0.35945 0.27923
 H740 H 0.20868 0.31626 0.34974
 H741 H 0.18585 0.40081 0.38797
 H742 H 0.25450 0.39915 0.31544
 H743 H 0.26967 0.41230 0.37358
 H744 H 0.20383 0.35575 0.38636
 C745 C 0.26875 0.09689 0.88035
 C746 C 0.29285 0.08584 0.89113
 C747 C 0.29333 0.06507 0.91532
 C748 C 0.26967 0.05478 0.92931
 C749 C 0.24554 0.06550 0.91779
 C750 C 0.24512 0.08631 0.89376
 C751 C 0.26813 0.12002 0.85635
 C752 C 0.24813 0.12238 0.83093
 C753 C 0.24618 0.14516 0.81042
 C754 C 0.26430 0.16586 0.81477
 C755 C 0.28482 0.16331 0.83914
 C756 C 0.28671 0.14059 0.85984
 H757 H 0.31232 0.05730 0.92328
 H758 H 0.22687 0.05824 0.92785
 H759 H 0.23028 0.14688 0.79158
 H760 H 0.29886 0.17924 0.84285
 H761 H 0.22623 0.09462 0.88647
 H762 H 0.23380 0.10673 0.82715
 H763 H 0.31139 0.09330 0.88089
 H764 H 0.30213 0.13956 0.87944
 C765 C 0.77126 0.59936 0.37900
 C766 C 0.79466 0.59268 0.39666
 C767 C 0.79511 0.57145 0.42015
 C768 C 0.77207 0.55670 0.42678
 C769 C 0.74878 0.56317 0.40869
 C770 C 0.74842 0.58419 0.38494
 C771 C 0.77020 0.62281 0.35571
 C772 C 0.75697 0.62162 0.32334
 C773 C 0.75428 0.64427 0.30267
 C774 C 0.76456 0.66847 0.31422
 C775 C 0.77826 0.66964 0.34611
 C776 C 0.78121 0.64695 0.36662
 H777 H 0.81335 0.56695 0.43370
 H778 H 0.73072 0.55216 0.41316
 H779 H 0.74359 0.64314 0.27812
 H780 H 0.78615 0.68826 0.35542
 H781 H 0.73005 0.58908 0.37198
 H782 H 0.74849 0.60322 0.31422
 H783 H 0.81259 0.60397 0.39236
 H784 H 0.79124 0.64849 0.39161
 C785 C 0.09763 0.72841 0.88216
 C786 C 0.08711 0.75236 0.89421
 C787 C 0.06621 0.75258 0.91805
 C788 C 0.05528 0.72879 0.93074
 C789 C 0.06557 0.70477 0.91822
 C790 C 0.08649 0.70461 0.89422
 C791 C 0.12086 0.72850 0.85832
 C792 C 0.14155 0.71035 0.86315
 C793 C 0.16457 0.71218 0.84303
 C794 C 0.16729 0.73219 0.81788
 C795 C 0.14640 0.74971 0.81200
 C796 C 0.12333 0.74782 0.83193
 H797 H 0.05897 0.77152 0.92696
 H798 H 0.05766 0.68603 0.92714
 H799 H 0.18067 0.69864 0.84794
 H800 H 0.14828 0.76524 0.79260
 H801 H 0.09396 0.68583 0.88510
 H802 H 0.14042 0.69546 0.88349
 H803 H 0.09551 0.77105 0.88597
 H804 H 0.10759 0.76177 0.82711
 C805 C 0.59846 0.23258 0.37587
 C806 C 0.58864 0.25581 0.39113
 C807 C 0.56773 0.25482 0.41497
 C808 C 0.55617 0.23056 0.42435
 C809 C 0.56571 0.20732 0.40882
 C810 C 0.58660 0.20832 0.38480
 C811 C 0.62159 0.23374 0.35182
 C812 C 0.64153 0.21448 0.35362
 C813 C 0.66430 0.21680 0.33305
 C814 C 0.66755 0.23842 0.31048
 C815 C 0.64742 0.25722 0.30772
 C816 C 0.62460 0.25486 0.32811
 H817 H 0.56096 0.27309 0.42656
 H818 H 0.55715 0.18832 0.41538
 H819 H 0.67977 0.20220 0.33552
 H820 H 0.64965 0.27398 0.29028
 H821 H 0.59347 0.19010 0.37320
 H822 H 0.64002 0.19815 0.37187
 H823 H 0.59759 0.27477 0.38537
 H824 H 0.60942 0.26975 0.32559
 C825 C 0.90242 0.26822 0.87371
 C826 C 0.91720 0.24545 0.88092
 C827 C 0.93780 0.24620 0.90527
 C828 C 0.94421 0.26983 0.92259
 C829 C 0.92986 0.29279 0.91466
 C830 C 0.90906 0.29194 0.89062
 C831 C 0.87936 0.26685 0.84991
 C832 C 0.85513 0.27794 0.86004
 C833 C 0.83278 0.27490 0.83899
 C834 C 0.83439 0.26103 0.80730
 C835 C 0.85869 0.25062 0.79653
 C836 C 0.88101 0.25336 0.81780
 H837 H 0.94854 0.22821 0.91075
 H838 H 0.93434 0.31128 0.92760
 H839 H 0.81407 0.28288 0.84768
 H840 H 0.86015 0.23980 0.77214
 H841 H 0.89805 0.30981 0.88532
 H842 H 0.85328 0.28816 0.88484
 H843 H 0.91231 0.22685 0.86850
 H844 H 0.89951 0.24480 0.80933
 C845 C 0.40144 0.76989 0.38409
 C846 C 0.41610 0.74693 0.39075
 C847 C 0.43703 0.74733 0.41463
 C848 C 0.44393 0.77077 0.43211
 C849 C 0.42969 0.79390 0.42475
 C850 C 0.40856 0.79343 0.40115
 C851 C 0.37812 0.76894 0.36058
 C852 C 0.35421 0.78066 0.37086
 C853 C 0.33168 0.77823 0.34994
 C854 C 0.33277 0.76434 0.31822
 C855 C 0.35673 0.75321 0.30737
 C856 C 0.37921 0.75537 0.32848
 H857 H 0.44764 0.72918 0.41968
 H858 H 0.43451 0.81227 0.43780
 H859 H 0.31325 0.78677 0.35873
 H860 H 0.35781 0.74237 0.28296
 H861 H 0.39771 0.81145 0.39627
 H862 H 0.35273 0.79096 0.39564
 H863 H 0.41088 0.72846 0.37824
 H864 H 0.39744 0.74633 0.31983
 C865 C 0.26985 0.90364 0.12380
 C866 C 0.24615 0.91391 0.11044
 C867 C 0.24645 0.93476 0.08650
 C868 C 0.27048 0.94580 0.07516
 C869 C 0.29422 0.93587 0.08891
 C870 C 0.29390 0.91500 0.11299
 C871 C 0.26930 0.88045 0.14770
 C872 C 0.28773 0.85991 0.14384
 C873 C 0.28564 0.83699 0.16414
 C874 C 0.26509 0.83424 0.18850
 C875 C 0.24722 0.85498 0.19332
 C876 C 0.24936 0.87793 0.17320
 H877 H 0.22781 0.94186 0.07633
 H878 H 0.31306 0.94401 0.08077
 H879 H 0.29948 0.82103 0.16008
 H880 H 0.23130 0.85310 0.21215
 H881 H 0.31249 0.90772 0.12311
 H882 H 0.30312 0.86110 0.12418
 H883 H 0.22730 0.90533 0.11771
 H884 H 0.23516 0.89357 0.17724
 C885 C 0.76865 0.39935 0.61540
 C886 C 0.74519 0.40983 0.60152
 C887 C 0.74588 0.43145 0.57878
 C888 C 0.77006 0.44310 0.56918
 C889 C 0.79353 0.43291 0.58341
 C890 C 0.79283 0.41130 0.60631
 C891 C 0.76779 0.37555 0.63827
 C892 C 0.78683 0.35553 0.63480
 C893 C 0.78493 0.33235 0.65463
 C894 C 0.76394 0.32875 0.67813
 C895 C 0.74529 0.34888 0.68237
 C896 C 0.74723 0.37210 0.66272
 H897 H 0.72744 0.43870 0.56816
 H898 H 0.81248 0.44149 0.57663
 H899 H 0.79942 0.31690 0.65102
 H900 H 0.72903 0.34640 0.70057
 H901 H 0.81123 0.40394 0.61690
 H902 H 0.80271 0.35739 0.61594
 H903 H 0.72626 0.40086 0.60746
 H904 H 0.73251 0.38729 0.66649
 C905 C 0.72770 0.10313 0.11208
 C906 C 0.74965 0.09744 0.09101
 C907 C 0.74973 0.07510 0.06971
 C908 C 0.72765 0.05827 0.06854
 C909 C 0.70564 0.06392 0.08970
 C910 C 0.70581 0.08605 0.11168
 C911 C 0.72790 0.12707 0.13407
 C912 C 0.72416 0.12530 0.17047
 C913 C 0.72725 0.14770 0.19152
 C914 C 0.73366 0.17218 0.17633
 C915 C 0.73604 0.17412 0.13975
 C916 C 0.73350 0.15170 0.11883
 H917 H 0.76689 0.07133 0.05353
 H918 H 0.68839 0.05123 0.08930
 H919 H 0.72531 0.14585 0.21971
 H920 H 0.74072 0.19289 0.12754
 H921 H 0.68869 0.09017 0.12778
 H922 H 0.71993 0.10643 0.18267
 H923 H 0.76680 0.11029 0.09117
 H924 H 0.73625 0.15346 0.09076
 C925 C 0.23103 0.59877 0.61930
 C926 C 0.25285 0.59316 0.59795
 C927 C 0.25237 0.57154 0.57535
 C928 C 0.22983 0.55537 0.57314
 C929 C 0.20803 0.56083 0.59478
 C930 C 0.20876 0.58221 0.61802
 C931 C 0.23154 0.62234 0.64206
 C932 C 0.22722 0.62013 0.67831
 C933 C 0.23002 0.64226 0.69997
 C934 C 0.23671 0.66693 0.68555
 C935 C 0.23983 0.66928 0.64909
 C936 C 0.23758 0.64713 0.62760
 H937 H 0.26940 0.56793 0.55886
 H938 H 0.19043 0.54865 0.59362
 H939 H 0.22751 0.64007 0.72803
 H940 H 0.24471 0.68819 0.63742
 H941 H 0.19171 0.58627 0.63428
 H942 H 0.22260 0.60114 0.68993
 H943 H 0.27029 0.60561 0.59873
 H944 H 0.24075 0.64927 0.59964
 C945 C 0.90027 0.73464 0.11960
 C946 C 0.91212 0.71041 0.11111
 C947 C 0.93336 0.70945 0.08769
 C948 C 0.94325 0.73272 0.07231
 C949 C 0.93168 0.75696 0.08127
 C950 C 0.91043 0.75791 0.10456
 C951 C 0.87688 0.73571 0.14311
 C952 C 0.87389 0.75657 0.16708
 C953 C 0.85104 0.75862 0.18741
 C954 C 0.83084 0.73978 0.18427
 C955 C 0.83398 0.71852 0.16121
 C956 C 0.85680 0.71650 0.14074
 H957 H 0.94191 0.69046 0.08143
 H958 H 0.93873 0.77524 0.06978
 H959 H 0.84889 0.77508 0.20525
 H960 H 0.81847 0.70389 0.15846
 H961 H 0.90150 0.77685 0.11006
 H962 H 0.88916 0.77143 0.16996
 H963 H 0.90498 0.69217 0.12260
 H964 H 0.85833 0.70038 0.12226
 C965 C 0.40267 0.22726 0.61829
 C966 C 0.40924 0.20403 0.60025
 C967 C 0.43017 0.20386 0.57628
 C968 C 0.44471 0.22702 0.56958
 C969 C 0.43835 0.25014 0.58804
 C970 C 0.41764 0.25022 0.61225
 C971 C 0.37951 0.22803 0.64207
 C972 C 0.38104 0.24105 0.67455
 C973 C 0.35861 0.24348 0.69570
 C974 C 0.33432 0.23318 0.68451
 C975 C 0.33282 0.21968 0.65252
 C976 C 0.35528 0.21698 0.63154
 H977 H 0.43459 0.18575 0.56246
 H978 H 0.44921 0.26828 0.58352
 H979 H 0.36000 0.25401 0.72032
 H980 H 0.31412 0.21177 0.64350
 H981 H 0.41282 0.26847 0.62551
 H982 H 0.39952 0.24956 0.68338
 H983 H 0.39811 0.18602 0.60461
 H984 H 0.35349 0.20712 0.60648
 C985 C 0.09796 0.27136 0.11566
 C986 C 0.08833 0.29531 0.10218
 C987 C 0.06719 0.29547 0.07857
 C988 C 0.05534 0.27168 0.06786
 C989 C 0.06470 0.24779 0.08185
 C990 C 0.08574 0.24764 0.10547
 C991 C 0.12135 0.27084 0.13909
 C992 C 0.12234 0.25323 0.16761
 C993 C 0.14522 0.25113 0.18786
 C994 C 0.16745 0.26658 0.17990
 C995 C 0.16633 0.28477 0.15224
 C996 C 0.14344 0.28691 0.13197
 H997 H 0.06041 0.31421 0.06832
 H998 H 0.05604 0.22911 0.07412
 H999 H 0.14584 0.23707 0.20926
 H1000 H 0.18342 0.29676 0.14580
 H1001 H 0.09295 0.22884 0.11499
 H1002 H 0.10552 0.24088 0.17402
 H1003 H 0.09719 0.31391 0.10985
 H1004 H 0.14337 0.30044 0.10996
 C1005 C 0.59801 0.76841 0.62531
 C1006 C 0.58659 0.79259 0.61544
 C1007 C 0.56560 0.79327 0.59156
 C1008 C 0.55555 0.76978 0.57711
 C1009 C 0.56668 0.74562 0.58747
 C1010 C 0.58767 0.74495 0.61116
 C1011 C 0.62129 0.76751 0.64909
 C1012 C 0.62407 0.74687 0.67356
 C1013 C 0.64708 0.74454 0.69351
 C1014 C 0.66762 0.76292 0.68959
 C1015 C 0.66459 0.78413 0.66633
 C1016 C 0.64164 0.78640 0.64617
 H1017 H 0.55739 0.81220 0.58421
 H1018 H 0.55952 0.72715 0.57674
 H1019 H 0.64915 0.72810 0.71148
 H1020 H 0.68039 0.79839 0.66295
 H1021 H 0.59627 0.72602 0.61763
 H1022 H 0.60859 0.73228 0.67694
 H1023 H 0.59388 0.81100 0.62616
 H1024 H 0.64030 0.80235 0.62733
   
