data_POSCAR
  _audit_creation_date              2014-09-24
  _audit_creation_method            'ToBaCCo'
  _symmetry_space_group_name_H-M    'P1'
  _symmetry_Int_Tables_number       1
  _symmetry_cell_setting            triclinic
  loop_
  _symmetry_equiv_pos_as_xyz
 x,y,z
_cell_length_a 21.8136
_cell_length_b 22.0537
_cell_length_c 21.6253
_cell_angle_alpha 90.147500
_cell_angle_beta 90.133100
_cell_angle_gamma 90.143300
loop_
  _atom_site_label
  _atom_site_type_symbol
  _atom_site_fract_x
  _atom_site_fract_y
  _atom_site_fract_z
C1 C 0.37135 1.00125 -0.55734
 C2 C 0.33994 1.00037 -0.50114
 C3 C 0.37166 0.99941 -0.44506
 C4 C 0.43624 0.99982 -0.44440
 C5 C 0.46858 1.00021 -0.50116
 C6 C 0.43605 1.00069 -0.55800
 C7 C 0.46906 1.00060 -0.61381
 C8 C 0.53273 0.99992 -0.61373
 C9 C 0.56589 0.99972 -0.55784
 C10 C 0.53352 1.00011 -0.50106
 C11 C 0.46922 0.99981 -0.38851
 C12 C 0.53289 1.00030 -0.38837
 C13 C 0.56597 1.00040 -0.44417
 C14 C 0.63067 1.00080 -0.44469
 C15 C 0.66220 0.99991 -0.50083
 C16 C 0.63059 0.99912 -0.55708
 H17 H 0.44586 1.00085 -0.65814
 H18 H 0.55580 0.99975 -0.65801
 H19 H 0.44606 0.99962 -0.34428
 H20 H 0.55602 1.00040 -0.34401
 H21 H 0.29013 1.00040 -0.50092
 H22 H 0.71204 0.99984 -0.50074
 C23 C -0.55523 1.37269 0.00091
 C24 C -0.49934 1.34164 0.00040
 C25 C -0.44338 1.37285 -0.00023
 C26 C -0.44285 1.43696 -0.00007
 C27 C -0.49920 1.46904 0.00016
 C28 C -0.55562 1.43679 0.00050
 C29 C -0.61089 1.46946 0.00043
 C30 C -0.61085 1.53258 -0.00005
 C31 C -0.55555 1.56550 -0.00022
 C32 C -0.49915 1.53350 0.00003
 C33 C -0.38754 1.46980 -0.00013
 C34 C -0.38745 1.53294 0.00011
 C35 C -0.44272 1.56578 0.00015
 C36 C -0.44321 1.63000 0.00032
 C37 C -0.49925 1.66093 -0.00023
 C38 C -0.55515 1.62959 -0.00064
 H39 H -0.65478 1.44643 0.00062
 H40 H -0.65473 1.55542 -0.00017
 H41 H -0.34369 1.44690 -0.00024
 H42 H -0.34350 1.55588 0.00013
 H43 H -0.49939 1.29242 0.00049
 H44 H -0.49950 1.71018 -0.00033
 C45 C 0.00057 0.37013 0.44462
 C46 C -0.00001 0.33909 0.50096
 C47 C -0.00074 0.37031 0.55736
 C48 C -0.00053 0.43446 0.55795
 C49 C -0.00030 0.46649 0.50108
 C50 C 0.00008 0.43426 0.44414
 C51 C -0.00006 0.46703 0.38837
 C52 C -0.00062 0.53011 0.38845
 C53 C -0.00076 0.56291 0.44426
 C54 C -0.00043 0.53091 0.50112
 C55 C -0.00054 0.46743 0.61377
 C56 C -0.00025 0.53052 0.61379
 C57 C -0.00023 0.56322 0.55801
 C58 C -0.00001 0.62738 0.55740
 C59 C -0.00068 0.65828 0.50099
 C60 C -0.00123 0.62693 0.44475
 H61 H 0.00014 0.44408 0.34405
 H62 H -0.00079 0.55300 0.34422
 H63 H -0.00064 0.44462 0.65805
 H64 H -0.00017 0.55355 0.65808
 H65 H 0.00010 0.28980 0.50091
 H66 H -0.00078 0.70753 0.50072
 O67 O -0.15786 1.00239 -0.08442
 O68 O 0.15721 0.99761 -0.08381
 O69 O -0.00230 1.08082 -0.15799
 O70 O 0.00156 0.91883 -0.15829
 O71 O 0.00129 0.84308 -0.08507
 O72 O -0.00203 1.15672 -0.08453
 O73 O 0.08116 0.99684 -0.15773
 O74 O -0.08183 1.00293 -0.15801
 Zr75 Zr -0.00033 0.99989 -0.10702
 O76 O 0.05510 0.94441 -0.05552
 O77 O -0.05571 1.05547 -0.05548
 C78 C -0.13867 1.00440 -0.14122
 C79 C 0.13802 0.99552 -0.14069
 C80 C -0.00334 1.13735 -0.14144
 C81 C 0.00255 0.86233 -0.14189
 H82 H 0.08150 1.08078 -0.08186
 O83 O 0.05522 1.05536 -0.05516
 H84 H -0.08220 0.91910 -0.08245
 O85 O -0.05587 0.94454 -0.05556
 O86 O 0.15735 1.00247 0.08428
 O87 O -0.15776 0.99755 0.08383
 O88 O 0.08446 1.15692 0.00247
 O89 O 0.08387 0.84313 -0.00233
 O90 O -0.08512 0.84309 0.00163
 O91 O -0.08430 1.15688 -0.00180
 O92 O 0.00222 1.08093 0.15832
 O93 O -0.00244 0.91901 0.15792
 O94 O 0.00217 1.15679 0.08522
 O95 O -0.00255 0.84317 0.08441
 O96 O 0.15756 1.08144 0.00275
 O97 O -0.15775 1.08138 -0.00237
 O98 O -0.15817 0.91863 0.00191
 O99 O 0.15722 0.91874 -0.00239
 O100 O 0.08143 1.00300 0.15796
 O101 O -0.08165 0.99692 0.15770
 Zr102 Zr 0.10741 1.00004 0.00016
 Zr103 Zr -0.10799 0.99998 -0.00020
 Zr104 Zr -0.00003 1.10829 0.00023
 Zr105 Zr -0.00052 0.89166 -0.00024
 Zr106 Zr -0.00017 0.99998 0.10698
 O107 O -0.05590 0.94445 0.05525
 O108 O 0.05543 1.05557 0.05570
 C109 C 0.13826 1.00442 0.14111
 C110 C -0.13852 0.99551 0.14070
 C111 C 0.14100 1.13787 0.00391
 C112 C 0.14048 0.86229 -0.00369
 C113 C -0.14166 0.86219 0.00298
 C114 C -0.14092 1.13782 -0.00328
 C115 C 0.00348 1.13744 0.14203
 C116 C -0.00371 0.86250 0.14131
 H117 H -0.08167 1.08079 0.08220
 O118 O -0.05552 1.05536 0.05537
 H119 H 0.08130 0.91918 0.08204
 O120 O 0.05509 0.94461 0.05529
 C121 C 0.26636 1.00781 0.29127
 C122 C 0.28694 0.99320 0.23176
 C123 C 0.24579 0.99338 0.18193
 C124 C 0.33764 1.00312 0.38957
 C125 C 0.16426 1.02373 0.25152
 C126 C 0.20525 1.02369 0.30082
 C127 C 0.30654 1.00512 0.34366
 C128 C 0.18377 1.00778 0.19164
 H129 H 0.33437 0.98088 0.22409
 H130 H 0.26207 0.98092 0.13637
 H131 H 0.11702 1.03575 0.26059
 H132 H 0.18902 1.03527 0.34669
 C133 C -0.26556 0.99220 0.29113
 C134 C -0.20479 0.97472 0.30006
 C135 C -0.16422 0.97456 0.25059
 C136 C -0.33594 0.99720 0.38980
 C137 C -0.24556 1.00788 0.18200
 C138 C -0.28629 1.00820 0.23201
 C139 C -0.30521 0.99511 0.34377
 C140 C -0.18381 0.99199 0.19117
 H141 H -0.18845 0.96204 0.34559
 H142 H -0.11719 0.96133 0.25919
 H143 H -0.26187 1.02150 0.13680
 H144 H -0.33347 1.02174 0.22481
 C145 C -0.26556 1.00770 -0.29234
 C146 C -0.28635 0.99133 -0.23341
 C147 C -0.24569 0.99168 -0.18315
 C148 C -0.33581 1.00267 -0.39145
 C149 C -0.16431 1.02579 -0.25111
 C150 C -0.20480 1.02560 -0.30082
 C151 C -0.30512 1.00475 -0.34524
 C152 C -0.18395 1.00797 -0.19188
 H153 H -0.33352 0.97747 -0.22656
 H154 H -0.26203 0.97776 -0.13810
 H155 H -0.11728 1.03933 -0.25936
 H156 H -0.18842 1.03857 -0.34620
 C157 C 0.26553 0.99233 -0.29067
 C158 C 0.20461 0.97521 -0.30004
 C159 C 0.16384 0.97504 -0.25074
 C160 C 0.33633 0.99738 -0.38897
 C161 C 0.24527 1.00765 -0.18151
 C162 C 0.28619 1.00797 -0.23133
 C163 C 0.30543 0.99525 -0.34309
 C164 C 0.18339 0.99209 -0.19107
 H165 H 0.18833 0.96282 -0.34576
 H166 H 0.11671 0.96208 -0.25965
 H167 H 0.26155 1.02097 -0.13611
 H168 H 0.33348 1.02124 -0.22381
 C169 C 0.29118 1.26531 0.00549
 C170 C 0.30113 1.20390 0.01736
 C171 C 0.25211 1.16320 0.01772
 C172 C 0.38878 1.33712 0.00219
 C173 C 0.18179 1.24516 -0.00474
 C174 C 0.23132 1.28605 -0.00520
 C175 C 0.34325 1.30580 0.00355
 C176 C 0.19176 1.18302 0.00614
 H177 H 0.34708 1.18725 0.02587
 H178 H 0.26180 1.11591 0.02681
 H179 H 0.13606 1.26194 -0.01389
 H180 H 0.22301 1.33358 -0.01441
 C181 C 0.29085 0.73579 -0.00535
 C182 C 0.30040 0.79704 -0.01847
 C183 C 0.25128 0.83737 -0.01888
 C184 C 0.38878 0.66483 -0.00190
 C185 C 0.18156 0.75533 0.00596
 C186 C 0.23121 0.71480 0.00647
 C187 C 0.34312 0.69576 -0.00329
 C188 C 0.19119 0.81735 -0.00608
 H189 H 0.34615 0.81389 -0.02789
 H190 H 0.26069 0.88456 -0.02894
 H191 H 0.13604 0.73841 0.01606
 H192 H 0.22320 0.66737 0.01664
 C193 C -0.29228 0.73517 0.00443
 C194 C -0.30195 0.79668 0.01627
 C195 C -0.25279 0.83721 0.01664
 C196 C -0.39021 0.66368 0.00137
 C197 C -0.18283 0.75493 -0.00578
 C198 C -0.23252 0.71419 -0.00625
 C199 C -0.34454 0.69485 0.00259
 C200 C -0.19254 0.81716 0.00509
 H201 H -0.34780 0.81353 0.02478
 H202 H -0.26231 0.88457 0.02574
 H203 H -0.13720 0.73795 -0.01490
 H204 H -0.22442 0.66657 -0.01543
 C205 C -0.29033 1.26544 -0.00454
 C206 C -0.23026 1.28623 0.00549
 C207 C -0.18100 1.24525 0.00501
 C208 C -0.38749 1.33739 -0.00141
 C209 C -0.25203 1.16310 -0.01613
 C210 C -0.30078 1.20388 -0.01573
 C211 C -0.34213 1.30605 -0.00268
 C212 C -0.19146 1.18298 -0.00527
 H213 H -0.22156 1.33388 0.01418
 H214 H -0.13509 1.26210 0.01359
 H215 H -0.26212 1.11571 -0.02471
 H216 H -0.34690 1.18719 -0.02372
 C217 C 0.00525 1.26462 0.29324
 C218 C -0.00432 1.28553 0.23280
 C219 C -0.00399 1.24462 0.18296
 C220 C 0.00192 1.33649 0.39133
 C221 C 0.01605 1.16231 0.25422
 C222 C 0.01583 1.20306 0.30357
 C223 C 0.00334 1.30515 0.34553
 C224 C 0.00564 1.18235 0.19326
 H225 H -0.01254 1.33321 0.22430
 H226 H -0.01220 1.26153 0.13672
 H227 H 0.02406 1.11488 0.26412
 H228 H 0.02342 1.18635 0.35005
 C229 C -0.00490 1.26474 -0.29184
 C230 C 0.00352 1.28573 -0.23114
 C231 C 0.00323 1.24472 -0.18160
 C232 C -0.00193 1.33679 -0.38944
 C233 C -0.01443 1.16213 -0.25369
 C234 C -0.01424 1.20297 -0.30275
 C235 C -0.00319 1.30542 -0.34381
 C236 C -0.00525 1.18226 -0.19245
 H237 H 0.01078 1.33357 -0.22218
 H238 H 0.01047 1.26173 -0.13513
 H239 H -0.02147 1.11456 -0.26406
 H240 H -0.02093 1.18620 -0.34944
 C241 C 0.00405 0.73406 -0.29211
 C242 C 0.01321 0.79578 -0.30312
 C243 C 0.01339 0.83696 -0.25413
 C244 C 0.00116 0.66122 -0.38946
 C245 C -0.00398 0.75479 -0.18198
 C246 C -0.00425 0.71345 -0.23142
 C247 C 0.00239 0.69297 -0.34395
 C248 C 0.00437 0.81719 -0.19290
 H249 H 0.01979 0.81224 -0.34982
 H250 H 0.02034 0.88449 -0.26452
 H251 H -0.01109 0.73805 -0.13551
 H252 H -0.01138 0.66566 -0.22240
 C253 C -0.00551 0.73471 0.29127
 C254 C 0.00284 0.71393 0.23055
 C255 C 0.00262 0.75509 0.18116
 C256 C -0.00253 0.66231 0.38854
 C257 C -0.01483 0.83742 0.25345
 C258 C -0.01471 0.79642 0.30236
 C259 C -0.00382 0.69385 0.34307
 C260 C -0.00572 0.81749 0.19219
 H261 H 0.01000 0.66615 0.22146
 H262 H 0.00981 0.73824 0.13467
 H263 H -0.02177 0.88495 0.26391
 H264 H -0.02134 0.81302 0.34908
   
