data_POSCAR
  _audit_creation_date              2014-09-24
  _audit_creation_method            'ToBaCCo'
  _symmetry_space_group_name_H-M    'P1'
  _symmetry_Int_Tables_number       1
  _symmetry_cell_setting            triclinic
  loop_
  _symmetry_equiv_pos_as_xyz
 x,y,z
_cell_length_a 39.1806
_cell_length_b 38.6994
_cell_length_c 38.5042
_cell_angle_alpha 91.802200
_cell_angle_beta 91.720900
_cell_angle_gamma 91.741100
loop_
  _atom_site_label
  _atom_site_type_symbol
  _atom_site_fract_x
  _atom_site_fract_y
  _atom_site_fract_z
N1 N 0.17139 1.24120 0.14649
 N2 N 0.14787 1.24056 0.17013
 C3 C 0.12692 1.26706 0.16535
 C4 C 0.13803 1.28526 0.13726
 C5 C 0.16626 1.26812 0.12586
 H6 H 0.10531 1.27287 0.18113
 H7 H 0.18193 1.27482 0.10426
 Cu8 Cu 0.14744 1.20559 0.20529
 Cu9 Cu 0.20727 1.20753 0.14459
 Cu10 Cu 0.20690 1.14487 0.20708
 N11 N 0.14748 1.17039 0.24020
 N12 N 0.17086 1.14671 0.24076
 C13 C 0.16548 1.12600 0.26760
 C14 C 0.13723 1.13734 0.28479
 C15 C 0.12636 1.16550 0.26671
 H16 H 0.18100 1.10436 0.27421
 H17 H 0.10481 1.18126 0.27257
 N18 N 0.24123 1.14739 0.17084
 N19 N 0.24140 1.17125 0.14707
 C20 C 0.26816 1.16643 0.12649
 C21 C 0.28559 1.13827 0.13793
 C22 C 0.26786 1.12676 0.16599
 H23 H 0.27464 1.18223 0.10484
 H24 H 0.27407 1.10502 0.18172
 H25 H 0.18020 1.16818 0.16758
 H26 H 0.20807 1.19699 0.19689
 N27 N 0.83556 0.76712 0.13250
 N28 N 0.85717 0.76615 0.15922
 C29 C 0.87750 0.73907 0.15482
 C30 C 0.86830 0.72232 0.12359
 C31 C 0.84166 0.74080 0.10999
 H32 H 0.89745 0.73194 0.17301
 H33 H 0.82735 0.73507 0.08593
 Cu34 Cu 0.85732 0.80018 0.19735
 Cu35 Cu 0.79989 0.80108 0.13024
 Cu36 Cu 0.79280 0.85504 0.20308
 N37 N 0.85079 0.82822 0.23920
 N38 N 0.82554 0.84970 0.24142
 C39 C 0.82808 0.86703 0.27233
 C40 C 0.85654 0.85581 0.29034
 C41 C 0.87026 0.83106 0.26861
 H42 H 0.81118 0.88706 0.28064
 H43 H 0.89325 0.81696 0.27346
 N44 N 0.76216 0.85682 0.16176
 N45 N 0.76536 0.83701 0.13357
 C46 C 0.74076 0.84456 0.10999
 C47 C 0.72113 0.87013 0.12424
 C48 C 0.73539 0.87731 0.15696
 H49 H 0.73690 0.83194 0.08466
 H50 H 0.72666 0.89599 0.17592
 H51 H 0.82295 0.83875 0.16270
 H52 H 0.79665 0.80454 0.18358
 N53 N 0.82492 1.24073 -0.15021
 N54 N 0.84850 1.24004 -0.17379
 C55 C 0.86761 1.26957 -0.17086
 C56 C 0.85531 1.28974 -0.14405
 C57 C 0.82823 1.27068 -0.13148
 H58 H 0.88934 1.27571 -0.18647
 H59 H 0.81274 1.27769 -0.10971
 Cu60 Cu 0.85217 1.20008 -0.20520
 Cu61 Cu 0.79281 1.20205 -0.14459
 Cu62 Cu 0.80068 1.12960 -0.19922
 N63 N 0.85583 1.16014 -0.23658
 N64 N 0.83625 1.13219 -0.23362
 C65 C 0.84395 1.10868 -0.25851
 C66 C 0.86944 1.12287 -0.27828
 C67 C 0.87634 1.15549 -0.26362
 H68 H 0.83142 1.08349 -0.26245
 H69 H 0.89476 1.17450 -0.27229
 N70 N 0.76616 1.13247 -0.16289
 N71 N 0.76281 1.16038 -0.14276
 C72 C 0.73600 1.15537 -0.12228
 C73 C 0.72183 1.12283 -0.12977
 C74 C 0.74158 1.10888 -0.15550
 H75 H 0.72704 1.17413 -0.10354
 H76 H 0.73768 1.08383 -0.16847
 H77 H 0.82397 1.16380 -0.16321
 H78 H 0.79328 1.18196 -0.19514
 N79 N 0.16183 0.76297 -0.14410
 N80 N 0.13388 0.76793 -0.16281
 C81 C 0.11024 0.74323 -0.15580
 C82 C 0.12439 0.72171 -0.13159
 C83 C 0.15706 0.73501 -0.12478
 H84 H 0.08487 0.74077 -0.16767
 H85 H 0.17594 0.72501 -0.10701
 Cu86 Cu 0.13138 0.80551 -0.19534
 Cu87 Cu 0.20226 0.79309 -0.14545
 Cu88 Cu 0.20243 0.85497 -0.20775
 N89 N 0.13395 0.83808 -0.23292
 N90 N 0.16204 0.85643 -0.23803
 C91 C 0.15741 0.87567 -0.26614
 C92 C 0.12460 0.86921 -0.27937
 C93 C 0.11027 0.84530 -0.25761
 H94 H 0.17646 0.89317 -0.27620
 H95 H 0.08478 0.83374 -0.25989
 N96 N 0.24089 0.84969 -0.17460
 N97 N 0.24079 0.82603 -0.15067
 C98 C 0.27004 0.82941 -0.13140
 C99 C 0.28941 0.85645 -0.14389
 C100 C 0.27021 0.86877 -0.17122
 H101 H 0.27652 0.81388 -0.10943
 H102 H 0.27684 0.89050 -0.18694
 H103 H 0.17890 0.83644 -0.16427
 H104 H 0.19322 0.80360 -0.19718
 C105 C 0.47582 1.02520 0.02503
 C106 C 0.49997 1.00251 0.04574
 C107 C 0.51989 0.98228 0.02549
 C108 C 0.51333 0.98629 -0.01382
 C109 C 0.49940 1.04563 0.00147
 C110 C 0.51937 1.02536 -0.01868
 C111 C 0.45537 1.00017 0.00060
 C112 C 0.47466 0.97992 -0.01966
 H113 H 0.50285 1.00442 0.07380
 H114 H 0.52892 0.96951 -0.03058
 H115 H 0.50203 1.07358 0.00287
 H116 H 0.42767 0.99871 -0.00065
 C117 C 0.02501 0.47548 1.02609
 C118 C 0.04535 0.49977 1.00311
 C119 C 0.02547 0.52003 0.98294
 C120 C -0.01316 0.51364 0.98728
 C121 C 0.00214 0.49951 1.04682
 C122 C -0.01775 0.51972 1.02658
 C123 C 0.00075 0.45488 1.00107
 C124 C -0.01913 0.47455 0.98086
 H125 H 0.07296 0.50241 1.00468
 H126 H -0.02961 0.52951 0.97053
 H127 H 0.00338 0.50191 1.07493
 H128 H -0.00061 0.42684 0.99951
 C129 C 1.02409 0.02475 0.47500
 C130 C 1.00114 0.04527 0.49917
 C131 C 0.98158 0.02509 0.51976
 C132 C 0.98645 -0.01399 0.51379
 C133 C 1.04476 0.00224 0.49946
 C134 C 1.02516 -0.01791 0.52002
 C135 C 0.99997 -0.00048 0.45455
 C136 C 0.98035 -0.02066 0.47453
 H137 H 1.00227 0.07325 0.50153
 H138 H 0.97026 -0.03072 0.52994
 H139 H 1.07237 0.00402 0.50193
 H140 H 0.99871 -0.00240 0.42638
 C141 C 0.09553 0.37119 1.09605
 N142 N 0.12379 0.35757 1.08218
 N143 N 0.13770 0.32980 1.09567
 C144 C 0.12381 0.31458 1.12347
 N145 N 0.09564 0.32835 1.13744
 N146 N 0.08171 0.35609 1.12394
 C147 C 0.07909 0.40058 1.08002
 N148 N 0.04941 0.41253 1.09232
 N149 N 0.03315 0.43748 1.07622
 C150 C 0.04617 0.45176 1.04749
 N151 N 0.07589 0.43979 1.03526
 N152 N 0.09215 0.41481 1.05132
 C153 C -0.08765 0.63364 1.08204
 N154 N -0.11036 0.65131 1.06264
 N155 N -0.12465 0.67947 1.07586
 C156 C -0.11652 0.69108 1.10883
 N157 N -0.09380 0.67342 1.12812
 N158 N -0.07970 0.64521 1.11501
 C159 C -0.07113 0.60300 1.06766
 N160 N -0.05117 0.58388 1.08853
 N161 N -0.03492 0.55689 1.07558
 C162 C -0.03788 0.54802 1.04121
 N163 N -0.05803 0.56704 1.02032
 N164 N -0.07446 0.59398 1.03332
 C165 C -0.10081 0.38195 0.89871
 N166 N -0.12950 0.36780 0.91211
 N167 N -0.14396 0.33885 0.89799
 C168 C -0.13017 0.32291 0.87004
 N169 N -0.10176 0.33730 0.85637
 N170 N -0.08730 0.36623 0.87049
 C171 C -0.08247 0.41126 0.91683
 N172 N -0.05160 0.42250 0.90582
 N173 N -0.03245 0.44530 0.92503
 C174 C -0.04366 0.45808 0.95570
 N175 N -0.07480 0.44736 0.96642
 N176 N -0.09396 0.42452 0.94723
 C177 C 0.08124 0.63406 0.91302
 N178 N 0.06179 0.65397 0.89231
 N179 N 0.07543 0.68186 0.87785
 C180 C 0.10893 0.69089 0.88375
 N181 N 0.12826 0.67099 0.90447
 N182 N 0.11470 0.64310 0.91878
 C183 C 0.06657 0.60359 0.92965
 N184 N 0.08704 0.58319 0.94862
 N185 N 0.07400 0.55623 0.96489
 C186 C 0.03994 0.54859 0.96292
 N187 N 0.01943 0.56890 0.94377
 N188 N 0.03251 0.59586 0.92735
 C189 C 1.09423 0.09538 0.37046
 N190 N 1.12253 0.08172 0.35672
 N191 N 1.13659 0.09546 0.32906
 C192 C 1.12283 0.12334 0.31405
 N193 N 1.09462 0.13711 0.32793
 N194 N 1.08054 0.12334 0.35559
 C195 C 1.07773 0.07906 0.39978
 N196 N 1.04800 0.09107 0.41189
 N197 N 1.03181 0.07480 0.43687
 C198 C 1.04496 0.04616 0.45100
 N199 N 1.07471 0.03419 0.43882
 N200 N 1.09088 0.05044 0.41383
 C201 C 1.08186 -0.08705 0.63439
 N202 N 1.06296 -0.10898 0.65353
 N203 N 1.07674 -0.12338 0.68148
 C204 C 1.10984 -0.11617 0.69139
 N205 N 1.12861 -0.09419 0.67222
 N206 N 1.11492 -0.07997 0.64426
 C207 C 1.06702 -0.07058 0.60382
 N208 N 1.08716 -0.05082 0.58378
 N209 N 1.07390 -0.03471 0.55675
 C210 C 1.03995 -0.03764 0.54869
 N211 N 1.01978 -0.05758 0.56863
 N212 N 1.03309 -0.07385 0.59566
 C213 C 0.89948 -0.10366 0.38196
 N214 N 0.86964 -0.09156 0.36909
 N215 N 0.85520 -0.10527 0.33983
 C216 C 0.87018 -0.13145 0.32223
 N217 N 0.89969 -0.14391 0.33546
 N218 N 0.91411 -0.13021 0.36470
 C219 C 0.91785 -0.08571 0.41144
 N220 N 0.94985 -0.09507 0.42081
 N221 N 0.96889 -0.07567 0.44357
 C222 C 0.95647 -0.04649 0.45820
 N223 N 0.92422 -0.03749 0.44942
 N224 N 0.90516 -0.05685 0.42658
 C225 C 0.91368 0.08067 0.63545
 N226 N 0.89058 0.06181 0.65316
 N227 N 0.87615 0.07541 0.68119
 C228 C 0.88451 0.10825 0.69265
 N229 N 0.90776 0.12693 0.67500
 N230 N 0.92199 0.11344 0.64691
 C231 C 0.92988 0.06612 0.60456
 N232 N 0.94927 0.08686 0.58474
 N233 N 0.96495 0.07390 0.55729
 C234 C 0.96197 0.03965 0.54860
 N235 N 0.94243 0.01888 0.56835
 N236 N 0.92654 0.03189 0.59576
 C237 C 0.37253 1.09574 0.09557
 N238 N 0.35803 1.08169 0.12366
 N239 N 0.33048 1.09541 0.13732
 C240 C 0.31637 1.12359 0.12331
 N241 N 0.33095 1.13775 0.09532
 N242 N 0.35851 1.12404 0.08167
 C243 C 0.40169 1.07947 0.07935
 N244 N 0.41503 1.09243 0.05017
 N245 N 0.43980 1.07620 0.03395
 C246 C 0.45246 1.04663 0.04653
 N247 N 0.43907 1.03372 0.07575
 N248 N 0.41432 1.04994 0.09197
 C249 C 0.63389 1.08049 -0.08655
 N250 N 0.64405 1.11384 -0.07934
 N251 N 0.67213 1.12712 -0.09305
 C252 C 0.69109 1.10762 -0.11459
 N253 N 0.68092 1.07425 -0.12193
 N254 N 0.65286 1.06087 -0.10804
 C255 C 0.60319 1.06608 -0.07063
 N256 N 0.59501 1.03172 -0.07337
 N257 N 0.56789 1.01881 -0.05748
 C258 C 0.54784 1.03979 -0.03850
 N259 N 0.55590 1.07416 -0.03615
 N260 N 0.58304 1.08704 -0.05186
 C261 C 0.38128 0.89890 -0.10103
 N262 N 0.36648 0.91253 -0.12964
 N263 N 0.33758 0.89857 -0.14373
 C264 C 0.32232 0.87058 -0.12963
 N265 N 0.33732 0.85670 -0.10128
 N266 N 0.36621 0.87065 -0.08719
 C267 C 0.41074 0.91672 -0.08307
 N268 N 0.42289 0.90538 -0.05220
 N269 N 0.44596 0.92429 -0.03319
 C270 C 0.45811 0.95498 -0.04457
 N271 N 0.44649 0.96600 -0.07575
 N272 N 0.42340 0.94711 -0.09477
 C273 C 0.63412 0.91454 0.08132
 N274 N 0.65290 0.89290 0.06168
 N275 N 0.68064 0.87864 0.07526
 C276 C 0.69069 0.88571 0.10887
 N277 N 0.67194 0.90739 0.12841
 N278 N 0.64417 0.92149 0.11492
 C279 C 0.60368 0.93072 0.06671
 N280 N 0.58376 0.94982 0.08763
 N281 N 0.55669 0.96550 0.07459
 C282 C 0.54848 0.96278 0.04009
 N283 N 0.56833 0.94352 0.01914
 N284 N 0.59537 0.92767 0.03222
   
