data_POSCAR
  _audit_creation_date              2014-09-24
  _audit_creation_method            'ToBaCCo'
  _symmetry_space_group_name_H-M    'P1'
  _symmetry_Int_Tables_number       1
  _symmetry_cell_setting            triclinic
  loop_
  _symmetry_equiv_pos_as_xyz
 x,y,z
_cell_length_a 19.6668
_cell_length_b 19.8511
_cell_length_c 23.6457
_cell_angle_alpha 89.665700
_cell_angle_beta 90.059400
_cell_angle_gamma 90.110800
loop_
  _atom_site_label
  _atom_site_type_symbol
  _atom_site_fract_x
  _atom_site_fract_y
  _atom_site_fract_z
Zr1 Zr 0.24218 0.23673 0.34799
 O2 O 0.28100 0.27538 0.42453
 O3 O 0.17988 0.16732 0.39017
 O4 O 0.17956 0.30506 0.39436
 O5 O 0.36598 0.11508 0.32028
 O6 O 0.11822 0.36131 0.32714
 O7 O 0.31926 0.17905 0.39022
 O8 O 0.10037 0.14849 0.32255
 O9 O 0.15230 0.24011 0.29986
 O10 O 0.24104 0.15001 0.29754
 O11 O 0.24709 0.32777 0.30144
 O12 O 0.33333 0.23852 0.30079
 Zr13 Zr 0.24894 0.25284 0.14846
 Zr14 Zr 0.15955 0.32673 0.25037
 Zr15 Zr 0.32611 0.15583 0.24539
 Zr16 Zr 0.15569 0.15717 0.24623
 O17 O 0.43276 0.14536 0.24229
 O18 O 0.05367 0.15903 0.21905
 O19 O 0.24105 0.16028 0.19303
 O20 O 0.15775 0.24429 0.19556
 O21 O 0.24816 0.33759 0.20184
 O22 O 0.33678 0.24482 0.19792
 C23 C 0.12414 0.14112 0.37296
 C24 C 0.35980 0.13228 0.37220
 C25 C 0.13376 0.34841 0.37884
 O26 O 0.05601 0.29857 0.25022
 O27 O 0.12938 0.37279 0.17420
 O28 O 0.18009 0.31529 0.10274
 C29 C 0.13696 0.35846 0.12164
 O30 O 0.37237 0.36105 0.33104
 Zr31 Zr 0.33495 0.32613 0.25231
 O32 O 0.31195 0.32360 0.10551
 O33 O 0.14304 0.43137 0.25724
 O34 O 0.36133 0.42790 0.26541
 O35 O 0.43630 0.29218 0.24739
 O36 O 0.35947 0.38029 0.17892
 C37 C 0.34971 0.37076 0.12597
 O38 O 0.20217 0.20591 0.07816
 O39 O 0.29810 0.05382 0.23544
 O40 O 0.31485 0.18799 0.10271
 O41 O 0.35963 0.11613 0.16877
 O42 O 0.16009 0.05375 0.26732
 O43 O 0.13679 0.08855 0.17980
 C44 C 0.35188 0.13717 0.11790
 H45 H 0.24145 0.10870 0.32109
 H46 H 0.11804 0.24389 0.16990
 H47 H 0.37797 0.24460 0.17394
 H48 H 0.24811 0.36821 0.32572
 H49 H 0.03284 0.11659 0.23306
 H50 H 0.03722 0.30956 0.21245
 H51 H 0.09354 0.43974 0.25253
 H52 H 0.41100 0.43249 0.25816
 H53 H 0.11381 0.04056 0.27954
 H54 H 0.29807 0.03239 0.27330
 H55 H 0.44313 0.09643 0.24220
 H56 H 0.45632 0.31433 0.21364
 H57 H 0.13476 0.11573 0.14456
 H58 H 0.22237 0.22599 0.04346
 H59 H 0.30876 0.31514 0.41412
 H60 H 0.40734 0.32857 0.34397
 Zr61 Zr 0.75647 0.76204 0.34733
 O62 O 0.71592 0.72248 0.42324
 O63 O 0.81892 0.83065 0.38959
 O64 O 0.81976 0.69440 0.39469
 O65 O 0.63291 0.88447 0.31788
 O66 O 0.88154 0.63846 0.32816
 O67 O 0.67965 0.82075 0.38869
 O68 O 0.89878 0.84999 0.32225
 O69 O 0.84667 0.75919 0.29975
 O70 O 0.75800 0.84904 0.29646
 O71 O 0.75251 0.67125 0.30114
 O72 O 0.66574 0.76019 0.29941
 Zr73 Zr 0.75149 0.74688 0.14775
 Zr74 Zr 0.84056 0.67290 0.25072
 Zr75 Zr 0.67339 0.84330 0.24371
 Zr76 Zr 0.84369 0.84241 0.24572
 O77 O 0.56683 0.85334 0.23928
 O78 O 0.94599 0.84117 0.21948
 O79 O 0.75882 0.83920 0.19193
 O80 O 0.84227 0.75569 0.19547
 O81 O 0.75233 0.66176 0.20155
 O82 O 0.66328 0.75455 0.19654
 C83 C 0.87499 0.85653 0.37262
 C84 C 0.63907 0.86759 0.37008
 C85 C 0.86606 0.65149 0.37974
 O86 O 0.94402 0.70141 0.25261
 O87 O 0.87358 0.62886 0.17487
 O88 O 0.82111 0.68517 0.10292
 C89 C 0.86543 0.64310 0.12216
 O90 O 0.62715 0.63754 0.33000
 Zr91 Zr 0.66500 0.67279 0.25127
 O92 O 0.68850 0.67641 0.10463
 O93 O 0.85671 0.56824 0.25798
 O94 O 0.63787 0.57124 0.26541
 O95 O 0.56364 0.70648 0.24479
 O96 O 0.64158 0.61841 0.17802
 C97 C 0.65097 0.62870 0.12501
 O98 O 0.79865 0.79416 0.07742
 O99 O 0.70090 0.94542 0.23282
 O100 O 0.68621 0.81225 0.10121
 O101 O 0.64094 0.88359 0.16666
 O102 O 0.83865 0.94569 0.26610
 O103 O 0.86312 0.91156 0.17916
 C104 C 0.64928 0.86307 0.11595
 H105 H 0.75752 0.89010 0.31989
 H106 H 0.88222 0.75665 0.17015
 H107 H 0.62237 0.75489 0.17215
 H108 H 0.75159 0.63071 0.32571
 H109 H 0.96653 0.88354 0.23357
 H110 H 0.96323 0.69363 0.21456
 H111 H 0.90628 0.55991 0.25400
 H112 H 0.58838 0.56677 0.25730
 H113 H 0.88446 0.95864 0.27960
 H114 H 0.70309 0.96618 0.27067
 H115 H 0.55624 0.90223 0.23907
 H116 H 0.54373 0.68318 0.21173
 H117 H 0.86526 0.88468 0.14403
 H118 H 0.77870 0.77422 0.04272
 H119 H 0.69141 0.68080 0.41287
 H120 H 0.59151 0.66952 0.34216
 Zr121 Zr 0.76020 0.23717 -0.34705
 O122 O 0.71799 0.27403 -0.42326
 O123 O 0.82620 0.17234 -0.38948
 O124 O 0.81979 0.30807 -0.39383
 O125 O 0.64570 0.10682 -0.31773
 O126 O 0.88469 0.35989 -0.32689
 O127 O 0.68603 0.17530 -0.38803
 O128 O 0.89846 0.13889 -0.31938
 O129 O 0.84892 0.24855 -0.29856
 O130 O 0.76698 0.15222 -0.29435
 O131 O 0.74792 0.32835 -0.30336
 O132 O 0.66945 0.23525 -0.29999
 Zr133 Zr 0.74941 0.25636 -0.14810
 Zr134 Zr 0.83398 0.33559 -0.25088
 Zr135 Zr 0.68038 0.15359 -0.24359
 Zr136 Zr 0.85139 0.16739 -0.24318
 O137 O 0.57352 0.14263 -0.24512
 O138 O 0.95353 0.20015 -0.24304
 O139 O 0.76488 0.16397 -0.19065
 O140 O 0.84092 0.25405 -0.19489
 O141 O 0.74525 0.34096 -0.20201
 O142 O 0.66313 0.24274 -0.19842
 C143 C 0.87839 0.14043 -0.37115
 C144 C 0.64889 0.12571 -0.36967
 C145 C 0.86750 0.34924 -0.37851
 O146 O 0.93895 0.34019 -0.23299
 O147 O 0.85827 0.38644 -0.17532
 O148 O 0.81718 0.32056 -0.10381
 C149 C 0.85622 0.36755 -0.12304
 O150 O 0.60628 0.35271 -0.32766
 Zr151 Zr 0.66053 0.32423 -0.25361
 O152 O 0.68450 0.32551 -0.10666
 O153 O 0.82499 0.43697 -0.27432
 O154 O 0.65766 0.42844 -0.27179
 O155 O 0.55716 0.29550 -0.24878
 O156 O 0.62984 0.37580 -0.18045
 C157 C 0.64307 0.36936 -0.12747
 O158 O 0.79507 0.21301 -0.07536
 O159 O 0.70865 0.05245 -0.22837
 O160 O 0.68536 0.18976 -0.10194
 O161 O 0.64632 0.11401 -0.16672
 O162 O 0.85345 0.06120 -0.24267
 O163 O 0.89714 0.11961 -0.17233
 C164 C 0.65137 0.13681 -0.11638
 H165 H 0.77033 0.10968 -0.31569
 H166 H 0.88071 0.25718 -0.16957
 H167 H 0.62082 0.24066 -0.17591
 H168 H 0.74449 0.36693 -0.32991
 H169 H 0.96921 0.20642 -0.20365
 H170 H 0.95450 0.38644 -0.24214
 H171 H 0.86889 0.45869 -0.26467
 H172 H 0.61029 0.44332 -0.26476
 H173 H 0.89995 0.04787 -0.25425
 H174 H 0.72096 0.03196 -0.26496
 H175 H 0.56326 0.09386 -0.24121
 H176 H 0.53861 0.31037 -0.21204
 H177 H 0.87719 0.14072 -0.13841
 H178 H 0.77362 0.23389 -0.04175
 H179 H 0.68837 0.31207 -0.41243
 H180 H 0.59341 0.31118 -0.34811
 Zr181 Zr 0.24466 0.76610 -0.34854
 O182 O 0.28184 0.73103 -0.42666
 O183 O 0.18098 0.83574 -0.38943
 O184 O 0.18329 0.69510 -0.39454
 O185 O 0.35257 0.90045 -0.32011
 O186 O 0.12702 0.63316 -0.32748
 O187 O 0.32833 0.82059 -0.38570
 O188 O 0.09608 0.84162 -0.32521
 O189 O 0.15554 0.75435 -0.30059
 O190 O 0.23681 0.85239 -0.29789
 O191 O 0.25672 0.67549 -0.30322
 O192 O 0.33406 0.76918 -0.29946
 Zr193 Zr 0.24848 0.74986 -0.14845
 Zr194 Zr 0.17021 0.66755 -0.25168
 Zr195 Zr 0.32148 0.85169 -0.24492
 Zr196 Zr 0.15133 0.83809 -0.24809
 O197 O 0.42804 0.86426 -0.24618
 O198 O 0.05023 0.82832 -0.22038
 O199 O 0.23578 0.84166 -0.19375
 O200 O 0.15919 0.75086 -0.19848
 O201 O 0.25626 0.66465 -0.20028
 O202 O 0.33657 0.76332 -0.19708
 C203 C 0.12149 0.85514 -0.37426
 C204 C 0.35859 0.87576 -0.36994
 C205 C 0.13973 0.64906 -0.37910
 O206 O 0.06444 0.65309 -0.24989
 O207 O 0.12997 0.62674 -0.17667
 O208 O 0.18104 0.68290 -0.10428
 C209 C 0.13684 0.64035 -0.12367
 O210 O 0.39991 0.65036 -0.32167
 Zr211 Zr 0.34208 0.68159 -0.25085
 O212 O 0.31215 0.68152 -0.10384
 O213 O 0.20017 0.56589 -0.25565
 O214 O 0.35243 0.57764 -0.26774
 O215 O 0.44278 0.71740 -0.24389
 O216 O 0.37017 0.63222 -0.17576
 C217 C 0.35445 0.63793 -0.12336
 O218 O 0.19761 0.79483 -0.07948
 O219 O 0.29200 0.95198 -0.22966
 O220 O 0.31146 0.81747 -0.10219
 O221 O 0.35490 0.89101 -0.16787
 O222 O 0.14426 0.94081 -0.27148
 O223 O 0.13243 0.90445 -0.18004
 C224 C 0.34756 0.86929 -0.11706
 H225 H 0.23468 0.89464 -0.32016
 H226 H 0.11807 0.74819 -0.17464
 H227 H 0.37776 0.76569 -0.17315
 H228 H 0.26159 0.63663 -0.32894
 H229 H 0.02791 0.87176 -0.22934
 H230 H 0.04514 0.69881 -0.25450
 H231 H 0.15746 0.54024 -0.25114
 H232 H 0.39745 0.56263 -0.25335
 H233 H 0.09538 0.95227 -0.27232
 H234 H 0.28255 0.97334 -0.26669
 H235 H 0.43717 0.91333 -0.24392
 H236 H 0.46242 0.69858 -0.20864
 H237 H 0.12578 0.87594 -0.14595
 H238 H 0.21776 0.77570 -0.04441
 H239 H 0.31346 0.69386 -0.41704
 H240 H 0.40772 0.69037 -0.34601
 Zr241 Zr 1.25517 1.26189 0.84756
 O242 O 1.21564 1.22114 0.92335
 O243 O 1.31463 1.33374 0.88928
 O244 O 1.32123 1.19776 0.89572
 O245 O 1.13238 1.38185 0.81714
 O246 O 1.38651 1.14448 0.82984
 O247 O 1.17775 1.31913 0.88873
 O248 O 1.38873 1.36299 0.81971
 O249 O 1.34490 1.26400 0.79941
 O250 O 1.24948 1.34699 0.79449
 O251 O 1.25722 1.16945 0.80391
 O252 O 1.16413 1.24927 0.80082
 Zr253 Zr 1.24961 1.24207 0.64850
 Zr254 Zr 1.34405 1.17567 0.75237
 Zr255 Zr 1.16310 1.33068 0.74432
 Zr256 Zr 1.33510 1.34522 0.74372
 O257 O 1.06360 1.29139 0.74577
 O258 O 1.43906 1.34953 0.72174
 O259 O 1.24921 1.33505 0.69217
 O260 O 1.33969 1.25729 0.69559
 O261 O 1.25774 1.15791 0.70236
 O262 O 1.16108 1.24150 0.69770
 C263 C 1.36776 1.36436 0.87120
 C264 C 1.13837 1.36635 0.86952
 C265 C 1.36904 1.15630 0.88111
 O266 O 1.44752 1.20405 0.75455
 O267 O 1.38005 1.13260 0.67763
 O268 O 1.32165 1.18157 0.60494
 C269 C 1.36880 1.14292 0.62481
 O270 O 1.11831 1.13822 0.82955
 Zr271 Zr 1.17125 1.16026 0.75313
 O272 O 1.19012 1.16905 0.60578
 O273 O 1.35926 1.07076 0.76020
 O274 O 1.20013 1.05966 0.76901
 O275 O 1.06743 1.14047 0.73691
 O276 O 1.14549 1.10879 0.67917
 C277 C 1.15390 1.12050 0.62618
 O278 O 1.29437 1.28995 0.57742
 O279 O 1.11618 1.42628 0.73806
 O280 O 1.18030 1.30308 0.60204
 O281 O 1.14689 1.38018 0.66693
 O282 O 1.31261 1.44881 0.75189
 O283 O 1.36069 1.40924 0.67512
 C284 C 1.14901 1.35746 0.61647
 H285 H 1.24820 1.38935 0.81624
 H286 H 1.37955 1.26020 0.67024
 H287 H 1.12029 1.23677 0.67346
 H288 H 1.25871 1.13080 0.83045
 H289 H 1.45758 1.39200 0.73753
 H290 H 1.46477 1.20501 0.71527
 H291 H 1.40888 1.06216 0.75741
 H292 H 1.16405 1.03887 0.79242
 H293 H 1.33596 1.46472 0.78643
 H294 H 1.06618 1.41964 0.73627
 H295 H 1.04223 1.30705 0.71007
 H296 H 1.05775 1.09345 0.74912
 H297 H 1.35509 1.38192 0.64053
 H298 H 1.27504 1.26836 0.54320
 H299 H 1.18924 1.18088 0.91215
 H300 H 1.08173 1.17192 0.83476
 Zr301 Zr 0.74181 0.73877 0.84743
 O302 O 0.78077 0.77681 0.92411
 O303 O 0.67861 0.67031 0.88997
 O304 O 0.68054 0.80814 0.89382
 O305 O 0.86256 0.61391 0.81862
 O306 O 0.61842 0.86327 0.82647
 O307 O 0.82025 0.68113 0.88832
 O308 O 0.59791 0.65388 0.82292
 O309 O 0.65173 0.74286 0.79960
 O310 O 0.73895 0.65178 0.79765
 O311 O 0.74748 0.82946 0.80039
 O312 O 0.83250 0.73877 0.79962
 Zr313 Zr 0.74746 0.75205 0.64762
 Zr314 Zr 0.65992 0.82882 0.74960
 Zr315 Zr 0.82327 0.65583 0.74455
 Zr316 Zr 0.65334 0.65925 0.74665
 O317 O 0.92893 0.63723 0.74274
 O318 O 0.55189 0.66238 0.71815
 O319 O 0.73822 0.66014 0.69262
 O320 O 0.65640 0.74572 0.69544
 O321 O 0.74811 0.83748 0.70039
 O322 O 0.83538 0.74399 0.69661
 C323 C 0.62219 0.64522 0.87297
 C324 C 0.85906 0.63294 0.87009
 C325 C 0.63431 0.85096 0.87823
 O326 O 0.55536 0.80462 0.74811
 O327 O 0.63287 0.87608 0.67341
 O328 O 0.67795 0.81336 0.60244
 C329 C 0.63706 0.85837 0.62142
 O330 O 0.87023 0.86492 0.82851
 Zr331 Zr 0.83479 0.82559 0.75068
 O332 O 0.81054 0.82202 0.60389
 O333 O 0.64589 0.93379 0.75649
 O334 O 0.86929 0.92585 0.75830
 O335 O 0.93348 0.78489 0.74830
 O336 O 0.86014 0.87772 0.67684
 C337 C 0.84949 0.86837 0.62409
 O338 O 0.70045 0.70484 0.57756
 O339 O 0.78400 0.55815 0.73500
 O340 O 0.81287 0.68621 0.60185
 O341 O 0.85775 0.61519 0.66836
 O342 O 0.65253 0.55683 0.77155
 O343 O 0.63594 0.58836 0.68162
 C344 C 0.85018 0.63560 0.61727
 H345 H 0.73871 0.61096 0.82179
 H346 H 0.61637 0.74567 0.67014
 H347 H 0.87626 0.74294 0.67228
 H348 H 0.74872 0.87020 0.82432
 H349 H 0.52995 0.62072 0.73260
 H350 H 0.53729 0.81764 0.71056
 H351 H 0.59654 0.94314 0.75208
 H352 H 0.91952 0.92600 0.75307
 H353 H 0.60466 0.54496 0.77985
 H354 H 0.78837 0.53544 0.77217
 H355 H 0.93592 0.58767 0.74173
 H356 H 0.95521 0.80496 0.71435
 H357 H 0.63218 0.61455 0.64594
 H358 H 0.72055 0.72476 0.54276
 H359 H 0.81130 0.81447 0.91356
 H360 H 0.90552 0.83347 0.84260
 Zr361 Zr 1.25886 0.73701 0.15249
 O362 O 1.21844 0.77520 0.07604
 O363 O 1.32303 0.66985 0.11130
 O364 O 1.32045 0.80564 0.10495
 O365 O 1.13900 0.61074 0.18075
 O366 O 1.37953 0.86399 0.17177
 O367 O 1.18382 0.67713 0.11074
 O368 O 1.40266 0.65173 0.17923
 O369 O 1.34845 0.74261 0.20069
 O370 O 1.26176 0.65033 0.20372
 O371 O 1.25150 0.82792 0.19770
 O372 O 1.16764 0.73638 0.19929
 Zr373 Zr 1.25064 0.75278 0.35107
 Zr374 Zr 1.33883 0.82901 0.24903
 Zr375 Zr 1.17616 0.65370 0.25533
 Zr376 Zr 1.34666 0.65961 0.25521
 O377 O 1.06951 0.64181 0.25669
 O378 O 1.44799 0.66438 0.28385
 O379 O 1.26082 0.66038 0.30781
 O380 O 1.34242 0.74677 0.30478
 O381 O 1.24973 0.83766 0.29713
 O382 O 1.16321 0.74261 0.30155
 C383 C 1.37902 0.64454 0.12880
 C384 C 1.14475 0.62889 0.12884
 C385 C 1.36515 0.85006 0.12016
 O386 O 1.44213 0.80096 0.25262
 O387 O 1.36448 0.87844 0.32435
 O388 O 1.31785 0.81683 0.39595
 C389 C 1.35880 0.86215 0.37676
 O390 O 1.12110 0.85600 0.16826
 Zr391 Zr 1.16343 0.82429 0.24657
 O392 O 1.18602 0.82148 0.39324
 O393 O 1.35890 0.93289 0.23928
 O394 O 1.14337 0.92706 0.23055
 O395 O 1.06166 0.79113 0.25258
 O396 O 1.13693 0.87730 0.31956
 C397 C 1.14729 0.86776 0.37252
 O398 O 1.29810 0.70728 0.42209
 O399 O 1.20533 0.55227 0.26772
 O400 O 1.18662 0.68658 0.39767
 O401 O 1.14304 0.61363 0.33251
 O402 O 1.34647 0.55635 0.23447
 O403 O 1.36339 0.59096 0.32267
 C404 C 1.15077 0.63485 0.38318
 H405 H 1.26275 0.60898 0.18066
 H406 H 1.38169 0.74748 0.33092
 H407 H 1.12183 0.74124 0.32528
 H408 H 1.24954 0.86807 0.17273
 H409 H 1.46910 0.62100 0.27314
 H410 H 1.46053 0.81810 0.28875
 H411 H 1.40833 0.94030 0.24567
 H412 H 1.09433 0.93484 0.23844
 H413 H 1.39414 0.54445 0.22570
 H414 H 1.21020 0.53123 0.23015
 H415 H 1.05978 0.59276 0.25848
 H416 H 1.04227 0.81145 0.28712
 H417 H 1.36740 0.61837 0.35741
 H418 H 1.27767 0.72725 0.45651
 H419 H 1.19114 0.81506 0.08637
 H420 H 1.09086 0.81955 0.15466
 Zr421 Zr 0.74340 1.26418 0.15283
 O422 O 0.78460 1.22645 0.07696
 O423 O 0.67909 1.33126 0.11053
 O424 O 0.68237 1.19492 0.10573
 O425 O 0.86302 1.39076 0.18124
 O426 O 0.62327 1.13623 0.17283
 O427 O 0.81851 1.32492 0.11128
 O428 O 0.59948 1.34917 0.17820
 O429 O 0.65357 1.25829 0.20068
 O430 O 0.74023 1.35054 0.20352
 O431 O 0.75057 1.17314 0.19892
 O432 O 0.83435 1.26456 0.20025
 Zr433 Zr 0.75077 1.24721 0.35205
 Zr434 Zr 0.66296 1.17179 0.24985
 Zr435 Zr 0.82549 1.34691 0.25576
 Zr436 Zr 0.65514 1.34100 0.25464
 O437 O 0.93209 1.35905 0.25770
 O438 O 0.55345 1.33633 0.28216
 O439 O 0.74061 1.33978 0.30791
 O440 O 0.65924 1.25375 0.30503
 O441 O 0.75181 1.16276 0.29847
 O442 O 0.83833 1.25777 0.30274
 C443 C 0.62290 1.35631 0.12762
 C444 C 0.85747 1.37314 0.12935
 C445 C 0.63789 1.15014 0.12119
 O446 O 0.55952 1.19978 0.25108
 O447 O 0.63523 1.12304 0.32541
 O448 O 0.68262 1.18328 0.39697
 C449 C 0.64107 1.13861 0.37781
 O450 O 0.88155 1.14575 0.17034
 Zr451 Zr 0.83835 1.17645 0.24822
 O452 O 0.81487 1.17732 0.39481
 O453 O 0.64360 1.06773 0.24187
 O454 O 0.85846 1.07387 0.23236
 O455 O 0.94015 1.20922 0.25544
 O456 O 0.86376 1.12215 0.32136
 C457 C 0.85327 1.13086 0.37429
 O458 O 0.70374 1.29226 0.42294
 O459 O 0.79531 1.44789 0.26763
 O460 O 0.81505 1.31348 0.39816
 O461 O 0.85851 1.38687 0.33262
 O462 O 0.65640 1.44441 0.23360
 O463 O 0.63679 1.40905 0.32152
 C464 C 0.85100 1.36532 0.38339
 H465 H 0.73929 1.39190 0.18005
 H466 H 0.61964 1.25306 0.33076
 H467 H 0.87959 1.25896 0.32669
 H468 H 0.75281 1.13301 0.17434
 H469 H 0.53233 1.37942 0.27018
 H470 H 0.54060 1.18432 0.28768
 H471 H 0.59401 1.06013 0.24717
 H472 H 0.90737 1.06582 0.24078
 H473 H 0.60919 1.45641 0.22323
 H474 H 0.79086 1.46924 0.22994
 H475 H 0.94178 1.40812 0.25898
 H476 H 0.95934 1.18746 0.28968
 H477 H 0.63367 1.38146 0.35649
 H478 H 0.72424 1.27186 0.45739
 H479 H 0.81196 1.18665 0.08778
 H480 H 0.91236 1.18213 0.15721
 O481 O 0.42325 1.13218 0.03838
 O482 O 0.57967 0.86995 0.03533
 O483 O 0.36995 0.92485 0.04104
 O484 O 0.63269 1.07709 0.04142
 O485 O 0.46422 0.88361 0.06974
 O486 O 0.53858 1.11498 0.07231
 O487 O 0.61649 0.96197 0.06902
 O488 O 0.38544 1.03937 0.07044
 C489 C 0.38970 1.10107 0.07462
 C490 C 0.61242 0.90012 0.07239
 C491 C 0.40181 0.88906 0.07591
 C492 C 0.60117 1.11105 0.07734
 O493 O 0.58277 1.13119 -0.03532
 O494 O 0.41919 0.87304 -0.03756
 O495 O 0.37190 1.08178 -0.03971
 O496 O 0.63027 0.92340 -0.04171
 O497 O 0.53526 0.88662 -0.07227
 O498 O 0.46722 1.11970 -0.06914
 O499 O 0.61631 1.03856 -0.06949
 O500 O 0.38296 0.96671 -0.06921
 Co501 Co 0.50281 1.11183 0.00147
 Co502 Co 0.49979 0.89098 -0.00112
 Co503 Co 0.38996 1.00305 0.00060
 Co504 Co 0.61146 1.00044 -0.00017
 O505 O 0.50095 1.00155 0.00019
 C506 C 0.61388 1.10042 -0.07282
 C507 C 0.38593 0.90490 -0.07356
 C508 C 0.40463 1.11673 -0.07463
 C509 C 0.59795 0.89009 -0.07769
 O510 O 0.92248 0.63031 0.53786
 O511 O 1.08051 0.36721 0.53545
 O512 O 0.87149 0.42258 0.54189
 O513 O 1.13309 0.57467 0.54207
 O514 O 0.96626 0.38363 0.57122
 O515 O 1.03932 0.61604 0.57151
 O516 O 1.11692 0.45846 0.57028
 O517 O 0.88536 0.53730 0.57033
 C518 C 0.88878 0.59921 0.57414
 C519 C 1.11294 0.39640 0.57309
 C520 C 0.90387 0.38822 0.57734
 C521 C 1.10197 0.61059 0.57695
 O522 O 1.08242 0.62907 0.46423
 O523 O 0.91991 0.37017 0.46430
 O524 O 0.87141 0.57815 0.45995
 O525 O 1.13057 0.42097 0.45874
 O526 O 1.03508 0.38475 0.42861
 O527 O 0.96578 0.61764 0.42998
 O528 O 1.11866 0.53638 0.43151
 O529 O 0.88561 0.46330 0.43094
 Co530 Co 1.00235 0.61052 0.50085
 Co531 Co 1.00050 0.38935 0.49996
 Co532 Co 0.89087 0.50012 0.50071
 Co533 Co 1.11235 0.49775 0.50079
 O534 O 1.00154 0.49955 0.50065
 C535 C 1.11435 0.59817 0.42727
 C536 C 0.88828 0.40145 0.42714
 C537 C 0.90315 0.61297 0.42434
 C538 C 1.09779 0.38778 0.42295
 O539 O 1.03863 0.42049 0.10656
 O540 O 1.04216 0.58028 -0.11089
 O541 O 1.05071 0.37262 -0.06322
 O542 O 1.05858 0.62802 0.05964
 O543 O 1.08619 0.46595 -0.09799
 O544 O 1.08771 0.53273 0.09565
 O545 O 1.08745 0.61843 -0.03737
 O546 O 1.08255 0.38392 0.03233
 C547 C 1.08678 0.39134 0.08404
 C548 C 1.09059 0.61068 -0.08920
 C549 C 1.09346 0.40400 -0.09224
 C550 C 1.09849 0.59419 0.08979
 O551 O 0.96434 0.58192 0.10653
 O552 O 0.95922 0.42287 -0.10930
 O553 O 0.94446 0.37496 0.06099
 O554 O 0.94957 0.63062 -0.06411
 O555 O 0.91615 0.53646 -0.09833
 O556 O 0.91448 0.46979 0.09529
 O557 O 0.92003 0.62085 0.03280
 O558 O 0.91354 0.38864 -0.03469
 Co559 Co 1.00125 0.50115 0.09070
 Co560 Co 1.00110 0.50138 -0.09366
 Co561 Co 0.99819 0.39196 -0.00120
 Co562 Co 1.00366 0.61252 -0.00218
 O563 O 1.00128 0.50175 -0.00159
 C564 C 0.91598 0.61160 0.08440
 C565 C 0.90917 0.39709 -0.08638
 C566 C 0.90390 0.40834 0.09024
 C567 C 0.90700 0.59794 -0.09226
 O568 O 0.53722 0.91725 0.60759
 O569 O 0.54026 1.07980 0.39278
 O570 O 0.55036 0.87110 0.43812
 O571 O 0.56047 1.12485 0.56230
 O572 O 0.58455 0.96551 0.40370
 O573 O 0.59034 1.02954 0.59716
 O574 O 0.58783 1.11240 0.46669
 O575 O 0.57911 0.87808 0.53385
 C576 C 0.58519 0.88855 0.58483
 C577 C 0.59033 1.10631 0.41497
 C578 C 0.59262 0.90350 0.40887
 C579 C 0.60127 1.09099 0.59170
 O580 O 0.46697 1.08058 0.60966
 O581 O 0.45862 0.92195 0.39215
 O582 O 0.43882 0.87404 0.56136
 O583 O 0.44906 1.12882 0.43960
 O584 O 0.41421 1.03499 0.40632
 O585 O 0.41689 0.96818 0.60243
 O586 O 0.42106 1.11729 0.53571
 O587 O 0.41164 0.88662 0.46569
 Co588 Co 0.50296 0.99920 0.59408
 Co589 Co 0.49944 1.00063 0.40920
 Co590 Co 0.49552 0.88921 0.49995
 Co591 Co 0.50414 1.10913 0.50099
 O592 O 0.50033 0.99952 0.50115
 C593 C 0.41834 1.10997 0.58747
 C594 C 0.40895 0.89431 0.41409
 C595 C 0.40317 0.90729 0.59543
 C596 C 0.40615 1.09670 0.41125
 O597 O 1.12400 1.05453 0.44036
 O598 O 0.87771 1.05777 0.55900
 O599 O 0.91666 1.03278 0.38934
 O600 O 1.08440 1.02737 0.61050
 O601 O 0.88698 1.08135 0.46309
 O602 O 1.12024 1.07410 0.53697
 O603 O 0.97382 1.08311 0.59742
 O604 O 1.02799 1.08370 0.40349
 C605 C 1.08943 1.09434 0.41025
 C606 C 0.91274 1.09543 0.59028
 C607 C 0.88769 1.08124 0.41113
 C608 C 1.11738 1.07363 0.58888
 O609 O 1.12189 0.93367 0.55767
 O610 O 0.87583 0.94155 0.44016
 O611 O 1.08237 0.96433 0.38840
 O612 O 0.91574 0.96439 0.60951
 O613 O 0.88199 0.91820 0.53553
 O614 O 1.11384 0.91412 0.46141
 O615 O 1.02720 0.91055 0.60012
 O616 O 0.97150 0.91247 0.40375
 Co617 Co 1.10942 0.99431 0.49911
 Co618 Co 0.89111 0.99958 0.49942
 Co619 Co 0.99958 0.99808 0.40751
 Co620 Co 0.99999 0.99664 0.59345
 O621 O 1.00010 0.99695 0.50005
 C622 C 1.08828 0.89767 0.59190
 C623 C 0.91010 0.90200 0.41026
 C624 C 1.11232 0.91579 0.40956
 C625 C 0.88482 0.91718 0.58738
 O626 O 0.62214 0.55757 -0.06090
 O627 O 0.37736 0.56015 0.06133
 O628 O 0.41404 0.53817 -0.10860
 O629 O 0.58445 0.53235 0.10983
 O630 O 0.38320 0.58545 -0.03448
 O631 O 0.61758 0.58000 0.03585
 O632 O 0.47411 0.58601 0.09811
 O633 O 0.52620 0.58727 -0.09725
 C634 C 0.58758 0.59778 -0.09043
 C635 C 0.41305 0.59819 0.09160
 C636 C 0.38631 0.58697 -0.08641
 C637 C 0.61558 0.57991 0.08790
 O638 O 0.62207 0.44024 0.05820
 O639 O 0.37154 0.44659 -0.05869
 O640 O 0.57849 0.46662 -0.11187
 O641 O 0.41647 0.46678 0.11102
 O642 O 0.38118 0.42129 0.03712
 O643 O 0.61278 0.41845 -0.03841
 O644 O 0.52652 0.41350 0.09692
 O645 O 0.46613 0.41694 -0.09689
 Co646 Co 0.60796 0.49921 -0.00121
 Co647 Co 0.38901 0.50314 0.00122
 Co648 Co 0.49645 0.50204 -0.09271
 Co649 Co 0.50012 0.49980 0.09296
 O650 O 0.49844 0.50100 0.00004
 C651 C 0.58761 0.40189 0.08966
 C652 C 0.40442 0.40764 -0.09014
 C653 C 0.60885 0.41844 -0.09038
 C654 C 0.38473 0.41993 0.08905
   
