data_POSCAR
  _audit_creation_date              2014-09-24
  _audit_creation_method            'ToBaCCo'
  _symmetry_space_group_name_H-M    'P1'
  _symmetry_Int_Tables_number       1
  _symmetry_cell_setting            triclinic
  loop_
  _symmetry_equiv_pos_as_xyz
 x,y,z
_cell_length_a 38.2610
_cell_length_b 39.2427
_cell_length_c 39.7490
_cell_angle_alpha 89.724500
_cell_angle_beta 90.647200
_cell_angle_gamma 90.724500
loop_
  _atom_site_label
  _atom_site_type_symbol
  _atom_site_fract_x
  _atom_site_fract_y
  _atom_site_fract_z
C1 C 0.17199 0.20329 0.20918
 C2 C 0.16734 0.22626 0.18224
 C3 C 0.19071 0.22656 0.15584
 C4 C 0.21877 0.20397 0.15582
 C5 C 0.22350 0.18196 0.18249
 C6 C 0.19991 0.18144 0.20908
 C7 C 0.15261 0.19532 0.23731
 N8 N 0.16789 0.16871 0.25401
 C9 C 0.19716 0.16062 0.23666
 C10 C 0.25183 0.16229 0.17554
 N11 N 0.26455 0.17138 0.14484
 C12 C 0.24419 0.19704 0.13266
 C13 C 0.17989 0.25082 0.13318
 N14 N 0.15054 0.26547 0.14501
 C15 C 0.14249 0.25042 0.17491
 H16 H 0.12816 0.20704 0.24369
 H17 H 0.21553 0.14086 0.24300
 H18 H 0.26101 0.14156 0.19119
 H19 H 0.24747 0.21009 0.10886
 H20 H 0.19237 0.25715 0.10961
 H21 H 0.12057 0.25699 0.19049
 C22 C -0.21682 0.76571 0.27773
 C23 C -0.21759 0.73909 0.25427
 C24 C -0.24458 0.73678 0.23084
 C25 C -0.27138 0.76095 0.23078
 C26 C -0.27047 0.78702 0.25391
 C27 C -0.24297 0.78957 0.27728
 C28 C -0.19112 0.77752 0.29944
 N29 N -0.20069 0.80842 0.31168
 C30 C -0.23269 0.81559 0.29822
 C31 C -0.29618 0.80949 0.24511
 N32 N -0.31304 0.79818 0.21682
 C33 C -0.29795 0.76810 0.20821
 C34 C -0.23555 0.71217 0.20804
 N35 N -0.20376 0.69956 0.21691
 C36 C -0.19281 0.71584 0.24534
 H37 H -0.16599 0.76572 0.30334
 H38 H -0.24741 0.83851 0.30232
 H39 H -0.30093 0.83301 0.25820
 H40 H -0.30354 0.75359 0.18569
 H41 H -0.24985 0.70596 0.18519
 H42 H -0.16781 0.71241 0.25780
 C43 C -0.17490 0.22790 -0.22873
 C44 C -0.18268 0.25859 -0.21256
 C45 C -0.20641 0.25877 -0.18645
 C46 C -0.22262 0.22819 -0.17609
 C47 C -0.21460 0.19821 -0.19195
 C48 C -0.19074 0.19806 -0.21829
 C49 C -0.15168 0.21944 -0.25354
 N50 N -0.15294 0.18497 -0.25830
 C51 C -0.17704 0.17202 -0.23654
 C52 C -0.23215 0.17234 -0.17595
 N53 N -0.25118 0.18547 -0.15040
 C54 C -0.24538 0.21993 -0.15052
 C55 C -0.20624 0.29125 -0.17353
 N56 N -0.18285 0.31070 -0.19088
 C57 C -0.16856 0.29089 -0.21497
 H58 H -0.13436 0.23727 -0.26606
 H59 H -0.18488 0.14559 -0.23402
 H60 H -0.23125 0.14590 -0.18332
 H61 H -0.25581 0.23786 -0.13279
 H62 H -0.22025 0.29940 -0.15152
 H63 H -0.14820 0.29889 -0.23207
 C64 C 0.22229 0.77371 -0.25920
 C65 C 0.21921 0.75214 -0.23104
 C66 C 0.24629 0.75023 -0.20777
 C67 C 0.27681 0.76990 -0.21232
 C68 C 0.27938 0.79166 -0.23959
 C69 C 0.25196 0.79361 -0.26312
 C70 C 0.19900 0.78317 -0.28409
 N71 N 0.21352 0.80885 -0.30279
 C72 C 0.24608 0.81520 -0.28986
 C73 C 0.30941 0.81078 -0.23537
 N74 N 0.32559 0.80125 -0.20615
 C75 C 0.30571 0.77587 -0.19216
 C76 C 0.23455 0.73062 -0.18126
 N77 N 0.20094 0.72070 -0.18770
 C78 C 0.19151 0.73366 -0.21825
 H79 H 0.17245 0.77361 -0.28653
 H80 H 0.26440 0.83431 -0.29878
 H81 H 0.31815 0.83065 -0.25236
 H82 H 0.31007 0.76434 -0.16772
 H83 H 0.24877 0.72576 -0.15807
 H84 H 0.16596 0.73090 -0.22995
 C85 C 0.19895 1.19134 0.78427
 C86 C 0.22432 1.19008 0.81011
 C87 C 0.22211 1.21179 0.83738
 C88 C 0.19486 1.23531 0.83899
 C89 C 0.16985 1.23617 0.81379
 C90 C 0.17183 1.21403 0.78635
 C91 C 0.19307 1.17216 0.75575
 N92 N 0.16269 1.18232 0.74055
 C93 C 0.14981 1.20816 0.75941
 C94 C 0.14572 1.26005 0.82258
 N95 N 0.15543 1.27430 0.85257
 C96 C 0.18571 1.25904 0.86264
 C97 C 0.24835 1.20323 0.85970
 N98 N 0.26653 1.17697 0.84666
 C99 C 0.25215 1.16889 0.81625
 H100 H 0.20904 1.15113 0.74799
 H101 H 0.12616 1.22213 0.75427
 H102 H 0.12321 1.26680 0.80740
 H103 H 0.19974 1.26372 0.88596
 H104 H 0.25337 1.21474 0.88400
 H105 H 0.26032 1.14809 0.80050
 C106 C 0.74362 0.77965 0.71708
 C107 C 0.71810 0.77982 0.74215
 C108 C 0.71746 0.75443 0.76644
 C109 C 0.74232 0.72838 0.76579
 C110 C 0.76725 0.72829 0.74098
 C111 C 0.76788 0.75404 0.71646
 C112 C 0.75407 0.80396 0.69412
 N113 N 0.78446 0.79404 0.67953
 C114 C 0.79261 0.76311 0.69315
 C115 C 0.79108 0.70372 0.74931
 N116 N 0.78171 0.68862 0.77890
 C117 C 0.75145 0.70357 0.78880
 C118 C 0.69358 0.76393 0.79025
 N119 N 0.67979 0.79445 0.78108
 C120 C 0.69466 0.80417 0.75158
 H121 H 0.74088 0.82782 0.69001
 H122 H 0.81626 0.74907 0.68894
 H123 H 0.81425 0.69855 0.73502
 H124 H 0.73836 0.69919 0.81242
 H125 H 0.68856 0.75075 0.81372
 H126 H 0.69000 0.82796 0.73851
 C127 C 0.22883 0.80860 1.26094
 C128 C 0.25745 0.80940 1.23900
 C129 C 0.25702 0.78887 1.21078
 C130 C 0.22802 0.76793 1.20366
 C131 C 0.19984 0.76739 1.22505
 C132 C 0.20044 0.78761 1.25407
 C133 C 0.22096 0.82677 1.28939
 N134 N 0.18842 0.81735 1.30026
 C135 C 0.17596 0.79325 1.27838
 C136 C 0.17435 0.74712 1.21038
 N137 N 0.18640 0.73544 1.18056
 C138 C 0.21933 0.74798 1.17638
 C139 C 0.28660 0.79628 1.19285
 N140 N 0.30510 0.82103 1.20917
 C141 C 0.28742 0.82934 1.23744
 H142 H 0.23817 0.84550 1.30089
 H143 H 0.15037 0.78131 1.27876
 H144 H 0.14864 0.74189 1.22040
 H145 H 0.23520 0.74426 1.15437
 H146 H 0.29317 0.78576 1.16863
 H147 H 0.29523 0.84908 1.25501
 C148 C 0.81466 1.19612 1.23134
 C149 C 0.79156 1.19432 1.20369
 C150 C 0.78654 1.22264 1.18349
 C151 C 0.80448 1.25319 1.19072
 C152 C 0.82756 1.25477 1.21772
 C153 C 0.83277 1.22598 1.23806
 C154 C 0.82525 1.17248 1.25484
 N155 N 0.84968 1.18706 1.27578
 C156 C 0.85435 1.21994 1.26528
 C157 C 0.84274 1.28673 1.21756
 N158 N 0.82934 1.30466 1.19120
 C159 C 0.80584 1.28433 1.17471
 C160 C 0.76389 1.21317 1.15794
 N161 N 0.75495 1.17974 1.16208
 C162 C 0.77179 1.16813 1.19015
 H163 H 0.81639 1.14622 1.25551
 H164 H 0.87149 1.23875 1.27680
 H165 H 0.86261 1.29601 1.23495
 H166 H 0.79196 1.29115 1.15181
 H167 H 0.75532 1.22933 1.13740
 H168 H 0.76986 1.14250 1.20017
 O169 O 0.54772 0.97750 0.92963
 O170 O 0.48544 0.97543 1.06964
 O171 O 0.55941 0.94040 1.02867
 O172 O 0.46780 0.94064 0.96848
 O173 O 0.54994 0.97641 1.06755
 O174 O 0.48464 0.97433 0.92824
 O175 O 0.45788 0.94506 1.03149
 O176 O 0.55430 0.94110 0.96866
 C177 C 0.55430 0.94761 0.93822
 C178 C 0.46565 0.95076 1.06159
 C179 C 0.55746 0.94672 1.05904
 C180 C 0.47330 0.94555 0.93801
 O181 O 0.48316 1.03968 0.95330
 O182 O 0.54875 1.04000 1.04263
 O183 O 0.58576 1.00429 0.96761
 O184 O 0.44164 1.00970 1.02349
 O185 O 0.48234 1.03898 1.05070
 O186 O 0.54552 1.04027 0.95795
 O187 O 0.44322 1.00298 0.96170
 O188 O 0.58802 1.00396 1.02827
 Co189 Co 0.51516 1.00642 0.94692
 Co190 Co 0.51683 1.00632 1.05183
 Co191 Co 0.56715 0.97401 0.99811
 Co192 Co 0.45869 0.97602 0.99626
 O193 O 0.51422 0.99077 0.99867
 C194 C 0.45166 1.03261 0.95367
 C195 C 0.58011 1.03310 1.03881
 C196 C 0.57709 1.03425 0.96096
 C197 C 0.45109 1.03470 1.04160
 O198 O 0.03015 0.48977 0.04758
 O199 O 0.03763 0.55308 -0.04502
 O200 O -0.01077 0.45760 -0.03911
 O201 O 0.00820 0.59722 0.02329
 O202 O 0.03121 0.49226 -0.04820
 O203 O 0.03976 0.55458 0.03964
 O204 O 0.00539 0.59604 -0.03790
 O205 O -0.00699 0.45491 0.02254
 C206 C 0.02040 0.46016 0.03996
 C207 C 0.03443 0.58436 -0.04577
 C208 C 0.02065 0.46240 -0.04595
 C209 C 0.03651 0.58586 0.03519
 O210 O -0.02381 0.56366 0.06395
 O211 O -0.03443 0.49946 -0.07503
 O212 O -0.06994 0.47994 0.02772
 O213 O -0.06181 0.57288 -0.03455
 O214 O -0.02709 0.56045 -0.07406
 O215 O -0.03421 0.50095 0.06603
 O216 O -0.06010 0.57811 0.02550
 O217 O -0.07182 0.48976 -0.03580
 Co218 Co 0.00143 0.52762 0.04849
 Co219 Co 0.00038 0.52657 -0.05606
 Co220 Co -0.03778 0.47613 -0.00642
 Co221 Co -0.02595 0.58123 -0.00597
 O222 O -0.01551 0.52771 -0.00473
 C223 C -0.05321 0.57474 0.05583
 C224 C -0.06505 0.49136 -0.06631
 C225 C -0.06225 0.48544 0.05791
 C226 C -0.05667 0.56990 -0.06503
 O227 O 1.05475 0.03762 0.46606
 O228 O 0.94582 0.04108 0.54100
 O229 O 0.99372 0.04381 0.45594
 O230 O 1.03923 0.01760 0.57220
 O231 O 0.94230 0.03652 0.47653
 O232 O 1.05465 0.04760 0.52832
 O233 O 0.97667 0.01313 0.57912
 O234 O 1.03277 0.00857 0.42301
 C235 C 1.05640 0.03030 0.43466
 C236 C 0.95722 0.03794 0.57067
 C237 C 0.96270 0.05276 0.45781
 C238 C 1.05077 0.04511 0.55951
 O239 O 1.07846 -0.01422 0.53905
 O240 O 0.93539 -0.03014 0.48301
 O241 O 1.02190 -0.04499 0.45768
 O242 O 0.97810 -0.05308 0.55783
 O243 O 0.93366 -0.02314 0.54523
 O244 O 1.07040 -0.02809 0.47896
 O245 O 1.03784 -0.04910 0.54743
 O246 O 0.96742 -0.01527 0.44035
 Co247 Co 1.05872 0.00943 0.50361
 Co248 Co 0.94532 0.00557 0.51098
 Co249 Co 1.00831 -0.00073 0.46020
 Co250 Co 1.00811 -0.01664 0.56009
 O251 O 1.00231 -0.00156 0.51044
 C252 C 1.06925 -0.04296 0.54890
 C253 C 0.94291 -0.03281 0.45258
 C254 C 1.05330 -0.05030 0.46309
 C255 C 0.94594 -0.05031 0.55607
 C256 C 1.12669 0.11397 0.33624
 C257 C 1.15481 0.10125 0.31819
 C258 C 1.16904 0.11977 0.29157
 C259 C 1.15524 0.15163 0.28172
 C260 C 1.12745 0.16466 0.30075
 C261 C 1.11354 0.14612 0.32778
 C262 C 1.10993 0.09255 0.36235
 C263 C 1.10285 0.10558 0.39438
 C264 C 1.08661 0.08495 0.41861
 C265 C 1.07658 0.05132 0.41081
 C266 C 1.08386 0.03835 0.37888
 C267 C 1.10060 0.05867 0.35497
 H268 H 1.18994 0.10791 0.27813
 H269 H 1.11627 0.18919 0.29509
 H270 H 1.08097 0.09558 0.44303
 H271 H 1.07633 0.01250 0.37230
 H272 H 1.09176 0.15643 0.34143
 H273 H 1.10998 0.13160 0.40063
 H274 H 1.16553 0.07655 0.32443
 H275 H 1.10556 0.04815 0.33036
 C276 C 0.86193 -0.12592 0.37067
 C277 C 0.86877 -0.16089 0.36999
 C278 C 0.84809 -0.18279 0.35027
 C279 C 0.81944 -0.17029 0.33141
 C280 C 0.81253 -0.13503 0.33292
 C281 C 0.83379 -0.11315 0.35196
 C282 C 0.88366 -0.10267 0.39133
 C283 C 0.90047 -0.07442 0.37656
 C284 C 0.92029 -0.05187 0.39636
 C285 C 0.92279 -0.05681 0.43130
 C286 C 0.90586 -0.08508 0.44600
 C287 C 0.88677 -0.10804 0.42610
 H288 H 0.85414 -0.20962 0.35067
 H289 H 0.79157 -0.12370 0.31850
 H290 H 0.93310 -0.03025 0.38449
 H291 H 0.90761 -0.08957 0.47288
 H292 H 0.82808 -0.08619 0.35232
 H293 H 0.89832 -0.06996 0.34971
 H294 H 0.89036 -0.17117 0.38450
 H295 H 0.87381 -0.12961 0.43791
 C296 C 0.90344 0.12756 0.67189
 C297 C 0.88594 0.11152 0.69849
 C298 C 0.86767 0.13056 0.72181
 C299 C 0.86632 0.16647 0.71941
 C300 C 0.88494 0.18249 0.69307
 C301 C 0.90300 0.16324 0.66952
 C302 C 0.92047 0.10667 0.64595
 C303 C 0.91526 0.11390 0.61164
 C304 C 0.92791 0.09198 0.58714
 C305 C 0.94616 0.06246 0.59647
 C306 C 0.95254 0.05597 0.63077
 C307 C 0.93981 0.07784 0.65524
 H308 H 0.85505 0.11663 0.74186
 H309 H 0.88475 0.20981 0.68963
 H310 H 0.92274 0.09778 0.56090
 H311 H 0.96662 0.03353 0.63877
 H312 H 0.91648 0.17626 0.64928
 H313 H 0.90018 0.13577 0.60377
 H314 H 0.88561 0.08401 0.70083
 H315 H 0.94457 0.07190 0.68152
 C316 C 1.15962 -0.13399 0.62367
 C317 C 1.19012 -0.12088 0.63910
 C318 C 1.20890 -0.14035 0.66247
 C319 C 1.19722 -0.17330 0.67186
 C320 C 1.16748 -0.18684 0.65521
 C321 C 1.14932 -0.16768 0.63121
 C322 C 1.13714 -0.11192 0.60199
 C323 C 1.10060 -0.11603 0.60266
 C324 C 1.07899 -0.09428 0.58442
 C325 C 1.09314 -0.06726 0.56549
 C326 C 1.12959 -0.06318 0.56416
 C327 C 1.15142 -0.08549 0.58205
 H328 H 1.23127 -0.12840 0.67458
 H329 H 1.15824 -0.21248 0.66029
 H330 H 1.05096 -0.09797 0.58615
 H331 H 1.14114 -0.04267 0.54955
 H332 H 1.12679 -0.17926 0.61890
 H333 H 1.08839 -0.13534 0.61827
 H334 H 1.19872 -0.09494 0.63437
 H335 H 1.17943 -0.08182 0.58042
 C336 C 0.34626 1.12196 1.09598
 C337 C 0.32276 1.14193 1.07744
 C338 C 0.29615 1.15933 1.09372
 C339 C 0.29186 1.15626 1.12889
 C340 C 0.31605 1.13635 1.14717
 C341 C 0.34294 1.11969 1.13095
 C342 C 0.37372 1.10246 1.07920
 C343 C 0.40827 1.10424 1.09125
 C344 C 0.43363 1.08303 1.07813
 C345 C 0.42480 1.05923 1.05301
 C346 C 0.39039 1.05818 1.04024
 C347 C 0.36510 1.07986 1.05305
 H348 H 0.27818 1.17384 1.07835
 H349 H 0.31486 1.13394 1.17423
 H350 H 0.45990 1.08452 1.08848
 H351 H 0.38281 1.04008 1.02097
 H352 H 0.36083 1.10435 1.14573
 H353 H 0.41545 1.12163 1.11133
 H354 H 0.32497 1.14400 1.05036
 H355 H 0.33849 1.07794 1.04359
 C356 C 0.40757 0.85223 0.84479
 C357 C 0.39103 0.86741 0.81688
 C358 C 0.36516 0.84979 0.79869
 C359 C 0.35434 0.81668 0.80843
 C360 C 0.37279 0.80074 0.83495
 C361 C 0.39924 0.81812 0.85256
 C362 C 0.42982 0.87310 0.86803
 C363 C 0.42778 0.86759 0.90292
 C364 C 0.44380 0.89011 0.92541
 C365 C 0.46188 0.91912 0.91373
 C366 C 0.46589 0.92372 0.87892
 C367 C 0.45013 0.90082 0.85626
 H368 H 0.35206 0.86348 0.77868
 H369 H 0.36684 0.77480 0.84240
 H370 H 0.44033 0.88566 0.95208
 H371 H 0.48011 0.94562 0.86921
 H372 H 0.41239 0.80508 0.87305
 H373 H 0.41203 0.84701 0.91315
 H374 H 0.39641 0.89372 0.81024
 H375 H 0.45295 0.90544 0.82956
 C376 C 0.61641 0.85382 1.15646
 C377 C 0.62126 0.81888 1.15090
 C378 C 0.64384 0.80007 1.17151
 C379 C 0.66217 0.81561 1.19852
 C380 C 0.65526 0.85024 1.20515
 C381 C 0.63304 0.86900 1.18431
 C382 C 0.59688 0.87516 1.13177
 C383 C 0.57781 0.90361 1.14225
 C384 C 0.56391 0.92641 1.11863
 C385 C 0.56851 0.92101 1.08410
 C386 C 0.58575 0.89158 1.07359
 C387 C 0.59994 0.86905 1.09713
 H388 H 0.64678 0.77335 1.16591
 H389 H 0.66828 0.86397 1.22521
 H390 H 0.55026 0.94863 1.12739
 H391 H 0.58966 0.88668 1.04711
 H392 H 0.63036 0.89596 1.18917
 H393 H 0.57430 0.90869 1.16873
 H394 H 0.60806 0.80612 1.13018
 H395 H 0.61482 0.84776 1.08806
 C396 C 0.68119 1.12810 0.91145
 C397 C 0.70679 1.11212 0.89240
 C398 C 0.72964 1.13117 0.87256
 C399 C 0.72771 1.16708 0.87096
 C400 C 0.70281 1.18313 0.89135
 C401 C 0.67969 1.16383 0.91108
 C402 C 0.65481 1.10699 0.92937
 C403 C 0.61915 1.11492 0.92703
 C404 C 0.59381 1.09196 0.93879
 C405 C 0.60367 1.06060 0.95297
 C406 C 0.63935 1.05369 0.95732
 C407 C 0.66466 1.07669 0.94573
 H408 H 0.74885 1.11723 0.85872
 H409 H 0.69990 1.21047 0.89119
 H410 H 0.56648 1.09807 0.93531
 H411 H 0.64773 1.02996 0.96866
 H412 H 0.66030 1.17685 0.92573
 H413 H 0.61074 1.13796 0.91439
 H414 H 0.70849 1.08460 0.89188
 H415 H 0.69198 1.07023 0.94851
 C416 C 0.09587 0.34651 0.09685
 C417 C 0.13227 0.34393 0.09394
 C418 C 0.15008 0.31730 0.10964
 C419 C 0.13193 0.29279 0.12881
 C420 C 0.09551 0.29537 0.13177
 C421 C 0.07761 0.32188 0.11577
 C422 C 0.07720 0.37534 0.08089
 C423 C 0.04553 0.36992 0.06339
 C424 C 0.02753 0.39737 0.04923
 C425 C 0.04068 0.43082 0.05262
 C426 C 0.07266 0.43611 0.06966
 C427 C 0.09077 0.40866 0.08353
 H428 H 0.17818 0.31618 0.10722
 H429 H 0.08086 0.27668 0.14614
 H430 H 0.00299 0.39244 0.03619
 H431 H 0.08351 0.46154 0.07270
 H432 H 0.04957 0.32347 0.11867
 H433 H 0.03472 0.34444 0.06065
 H434 H 0.14694 0.36244 0.07935
 H435 H 0.11500 0.41358 0.09710
 C436 C -0.14538 0.40652 -0.15454
 C437 C -0.12331 0.38492 -0.17248
 C438 C -0.13603 0.35432 -0.18585
 C439 C -0.17112 0.34443 -0.18152
 C440 C -0.19371 0.36690 -0.16534
 C441 C -0.18101 0.39767 -0.15207
 C442 C -0.13008 0.43529 -0.13482
 C443 C -0.14104 0.44082 -0.10167
 C444 C -0.12154 0.46186 -0.08013
 C445 C -0.09050 0.47757 -0.09117
 C446 C -0.08150 0.47490 -0.12521
 C447 C -0.10116 0.45399 -0.14686
 H448 H -0.11780 0.33748 -0.19778
 H449 H -0.22101 0.36022 -0.16216
 H450 H -0.12935 0.46361 -0.05409
 H451 H -0.05799 0.48713 -0.13458
 H452 H -0.19883 0.41400 -0.13889
 H453 H -0.16304 0.42679 -0.09143
 H454 H -0.09562 0.39051 -0.17436
 H455 H -0.09256 0.45095 -0.17252
 C456 C 0.13418 0.66627 -0.11987
 C457 C 0.12023 0.68924 -0.14356
 C458 C 0.14204 0.70697 -0.16575
 C459 C 0.17842 0.70222 -0.16486
 C460 C 0.19242 0.67946 -0.14098
 C461 C 0.17057 0.66166 -0.11879
 C462 C 0.11060 0.64624 -0.09746
 C463 C 0.11669 0.61151 -0.09126
 C464 C 0.09275 0.59179 -0.07302
 C465 C 0.06211 0.60631 -0.06057
 C466 C 0.05681 0.64138 -0.06532
 C467 C 0.08078 0.66111 -0.08359
 H468 H 0.13035 0.72465 -0.18339
 H469 H 0.22026 0.67503 -0.13973
 H470 H 0.09761 0.56483 -0.06980
 H471 H 0.03356 0.65335 -0.05587
 H472 H 0.18219 0.64435 -0.10069
 H473 H 0.13921 0.59916 -0.10177
 H474 H 0.09230 0.69305 -0.14541
 H475 H 0.07566 0.68794 -0.08735
 C476 C -0.14282 0.63592 0.15409
 C477 C -0.12655 0.65802 0.17731
 C478 C -0.14647 0.67820 0.19843
 C479 C -0.18322 0.67673 0.19698
 C480 C -0.19948 0.65380 0.17446
 C481 C -0.17951 0.63369 0.15319
 C482 C -0.12147 0.61706 0.12957
 C483 C -0.13163 0.61574 0.09551
 C484 C -0.10988 0.60112 0.07171
 C485 C -0.07752 0.58743 0.08145
 C486 C -0.06799 0.58746 0.11569
 C487 C -0.08971 0.60222 0.13949
 H488 H -0.13294 0.69590 0.21493
 H489 H -0.22768 0.65160 0.17306
 H490 H -0.11802 0.60135 0.04553
 H491 H -0.04336 0.57684 0.12400
 H492 H -0.19276 0.61655 0.13585
 H493 H -0.15577 0.62725 0.08703
 H494 H -0.09835 0.66075 0.17821
 H495 H -0.08143 0.60245 0.16564
 C496 C 1.11344 0.13567 0.65699
 C497 C 1.14909 0.13064 0.66355
 C498 C 1.16562 0.14636 0.69108
 C499 C 1.14701 0.16808 0.71255
 C500 C 1.11142 0.17399 0.70475
 C501 C 1.09488 0.15770 0.67763
 C502 C 1.09509 0.11586 0.63037
 C503 C 1.06500 0.09678 0.63833
 C504 C 1.04976 0.07486 0.61466
 C505 C 1.06377 0.07214 0.58231
 C506 C 1.09274 0.09261 0.57368
 C507 C 1.10856 0.11400 0.59769
 H508 H 1.19309 0.14153 0.69511
 H509 H 1.09548 0.18988 0.72032
 H510 H 1.02762 0.05920 0.62199
 H511 H 1.10425 0.09073 0.54900
 H512 H 1.06730 0.16193 0.67304
 H513 H 1.05428 0.09759 0.66342
 H514 H 1.16394 0.11360 0.64800
 H515 H 1.13168 0.12860 0.59100
 C516 C 0.85049 -0.14616 0.61804
 C517 C 0.81989 -0.13251 0.63130
 C518 C 0.79740 -0.15253 0.65076
 C519 C 0.80495 -0.18698 0.65799
 C520 C 0.83515 -0.20082 0.64333
 C521 C 0.85757 -0.18067 0.62382
 C522 C 0.87544 -0.12395 0.59942
 C523 C 0.91171 -0.12666 0.60486
 C524 C 0.93494 -0.10350 0.58983
 C525 C 0.92227 -0.07711 0.56925
 C526 C 0.88617 -0.07531 0.56271
 C527 C 0.86304 -0.09851 0.57754
 H528 H 0.77490 -0.14010 0.66093
 H529 H 0.84194 -0.22723 0.64665
 H530 H 0.96264 -0.10549 0.59529
 H531 H 0.87569 -0.05553 0.54655
 H532 H 0.88056 -0.19214 0.61326
 H533 H 0.92207 -0.14581 0.62181
 H534 H 0.81383 -0.10586 0.62763
 H535 H 0.83535 -0.09620 0.57226
 C536 C 1.13225 -0.13983 0.38032
 C537 C 1.11977 -0.16923 0.36399
 C538 C 1.13867 -0.18386 0.33796
 C539 C 1.17080 -0.16946 0.32721
 C540 C 1.18371 -0.14059 0.34472
 C541 C 1.16468 -0.12601 0.37067
 C542 C 1.11062 -0.12211 0.40560
 C543 C 1.12637 -0.10588 0.43347
 C544 C 1.10695 -0.08457 0.45401
 C545 C 1.07133 -0.07909 0.44719
 C546 C 1.05493 -0.09744 0.42105
 C547 C 1.07438 -0.11866 0.40041
 H548 H 1.12770 -0.20657 0.32662
 H549 H 1.20788 -0.12805 0.33790
 H550 H 1.12026 -0.07096 0.47416
 H551 H 1.02756 -0.09361 0.41506
 H552 H 1.17486 -0.10301 0.38234
 H553 H 1.15403 -0.10864 0.43864
 H554 H 1.09518 -0.18091 0.37125
 H555 H 1.06142 -0.13061 0.37909
 C556 C 0.90049 0.13936 0.35762
 C557 C 0.87040 0.12472 0.34298
 C558 C 0.85372 0.14036 0.31572
 C559 C 0.86638 0.17151 0.30242
 C560 C 0.89670 0.18612 0.31748
 C561 C 0.91367 0.17005 0.34449
 C562 C 0.91802 0.12197 0.38621
 C563 C 0.95411 0.11577 0.38583
 C564 C 0.96943 0.09491 0.41046
 C565 C 0.94887 0.08018 0.43593
 C566 C 0.91330 0.08851 0.43752
 C567 C 0.89804 0.10905 0.41286
 H568 H 0.83032 0.12815 0.30592
 H569 H 0.90818 0.20953 0.30808
 H570 H 0.99689 0.08890 0.40853
 H571 H 0.89677 0.07778 0.45692
 H572 H 0.93695 0.18176 0.35533
 H573 H 0.97004 0.12546 0.36548
 H574 H 0.85989 0.10083 0.35247
 H575 H 0.87028 0.11395 0.41399
 C576 C 0.10156 0.35142 -0.09692
 C577 C 0.08513 0.33264 -0.12261
 C578 C 0.10295 0.30712 -0.13935
 C579 C 0.13783 0.29923 -0.13063
 C580 C 0.15400 0.31799 -0.10431
 C581 C 0.13617 0.34397 -0.08795
 C582 C 0.08246 0.37913 -0.08025
 C583 C 0.09761 0.41175 -0.07683
 C584 C 0.07792 0.43880 -0.06468
 C585 C 0.04288 0.43355 -0.05550
 C586 C 0.02844 0.40050 -0.05729
 C587 C 0.04795 0.37363 -0.06972
 H588 H 0.08871 0.29324 -0.15859
 H589 H 0.18080 0.31360 -0.09681
 H590 H 0.08979 0.46396 -0.06337
 H591 H 0.00163 0.39555 -0.05009
 H592 H 0.14939 0.35817 -0.06816
 H593 H 0.12416 0.41662 -0.08489
 H594 H 0.05846 0.33805 -0.13015
 H595 H 0.03586 0.34860 -0.07170
 C596 C -0.13475 0.39929 0.15088
 C597 C -0.17050 0.39048 0.14957
 C598 C -0.18254 0.35999 0.16389
 C599 C -0.15919 0.33791 0.18021
 C600 C -0.12392 0.34776 0.18352
 C601 C -0.11179 0.37803 0.16890
 C602 C -0.12060 0.42764 0.12990
 C603 C -0.09107 0.44672 0.14037
 C604 C -0.07343 0.46799 0.11765
 C605 C -0.08505 0.47053 0.08409
 C606 C -0.11638 0.45398 0.07460
 C607 C -0.13388 0.43271 0.09717
 H608 H -0.20997 0.35325 0.16156
 H609 H -0.10529 0.33109 0.19570
 H610 H -0.04950 0.48066 0.12579
 H611 H -0.12622 0.45560 0.04899
 H612 H -0.08403 0.38363 0.16997
 H613 H -0.08061 0.44394 0.16564
 H614 H -0.18900 0.40660 0.13648
 H615 H -0.15634 0.41832 0.08805
 C616 C -0.15644 0.62384 -0.16087
 C617 C -0.19200 0.62821 -0.15385
 C618 C -0.21289 0.64881 -0.17440
 C619 C -0.19890 0.66558 -0.20284
 C620 C -0.16371 0.65909 -0.21090
 C621 C -0.14284 0.63883 -0.19011
 C622 C -0.13288 0.60639 -0.13642
 C623 C -0.10418 0.58741 -0.14736
 C624 C -0.07973 0.57474 -0.12417
 C625 C -0.08368 0.58057 -0.08961
 C626 C -0.11318 0.59809 -0.07860
 C627 C -0.13736 0.61100 -0.10170
 H628 H -0.23999 0.65145 -0.16765
 H629 H -0.15112 0.67103 -0.23214
 H630 H -0.05748 0.56088 -0.13330
 H631 H -0.11697 0.60295 -0.05209
 H632 H -0.11547 0.63638 -0.19615
 H633 H -0.10029 0.58282 -0.17388
 H634 H -0.20363 0.61617 -0.13204
 H635 H -0.15874 0.62591 -0.09232
 C636 C 0.12878 0.67569 0.10912
 C637 C 0.11161 0.69853 0.13026
 C638 C 0.13047 0.71800 0.15371
 C639 C 0.16696 0.71520 0.15647
 C640 C 0.18420 0.69265 0.13506
 C641 C 0.16529 0.67299 0.11172
 C642 C 0.10824 0.65357 0.08581
 C643 C 0.11561 0.61870 0.08339
 C644 C 0.09343 0.59691 0.06512
 C645 C 0.06344 0.60957 0.04883
 C646 C 0.05740 0.64481 0.04937
 C647 C 0.07951 0.66657 0.06776
 H648 H 0.11649 0.73547 0.16948
 H649 H 0.21226 0.68980 0.13675
 H650 H 0.09888 0.56990 0.06512
 H651 H 0.03466 0.65540 0.03688
 H652 H 0.17922 0.65569 0.09568
 H653 H 0.13746 0.60791 0.09713
 H654 H 0.08345 0.70081 0.12919
 H655 H 0.07359 0.69346 0.06867
 C656 C 0.34751 1.12141 0.89580
 C657 C 0.34921 1.12840 0.86116
 C658 C 0.32269 1.14673 0.84503
 C659 C 0.29436 1.15898 0.86337
 C660 C 0.29310 1.15265 0.89817
 C661 C 0.31925 1.13376 0.91418
 C662 C 0.37437 1.10007 0.91240
 C663 C 0.36432 1.07180 0.93196
 C664 C 0.38950 1.05019 0.94576
 C665 C 0.42527 1.05685 0.94093
 C666 C 0.43536 1.08579 0.92227
 C667 C 0.41011 1.10701 0.90784
 H668 H 0.32429 1.15145 0.81823
 H669 H 0.27137 1.16154 0.91280
 H670 H 0.38096 1.02796 0.95983
 H671 H 0.46273 1.09148 0.91802
 H672 H 0.31743 1.12873 0.94092
 H673 H 0.33691 1.06579 0.93562
 H674 H 0.37062 1.11890 0.84643
 H675 H 0.41846 1.12878 0.89298
 C676 C 0.38899 0.87201 1.15992
 C677 C 0.38580 0.83632 1.15884
 C678 C 0.35940 0.81946 1.17655
 C679 C 0.33571 0.83783 1.19592
 C680 C 0.34044 0.87324 1.19907
 C681 C 0.36682 0.89021 1.18117
 C682 C 0.41240 0.89028 1.13608
 C683 C 0.43125 0.91974 1.14569
 C684 C 0.45011 0.93866 1.12184
 C685 C 0.45009 0.92867 1.08791
 C686 C 0.43237 0.89850 1.07869
 C687 C 0.41383 0.87956 1.10245
 H688 H 0.35673 0.79208 1.17422
 H689 H 0.32242 0.88805 1.21366
 H690 H 0.46356 0.96178 1.12971
 H691 H 0.43190 0.89002 1.05280
 H692 H 0.36843 0.91774 1.18234
 H693 H 0.43086 0.92846 1.17148
 H694 H 0.40295 0.82152 1.14327
 H695 H 0.39923 0.85729 1.09407
 C696 C 0.68514 1.12104 1.09981
 C697 C 0.71155 1.10512 1.11881
 C698 C 0.73465 1.12434 1.13881
 C699 C 0.73191 1.16001 1.14043
 C700 C 0.70595 1.17599 1.12085
 C701 C 0.68290 1.15677 1.10077
 C702 C 0.65884 1.10029 1.08073
 C703 C 0.62340 1.10929 1.08074
 C704 C 0.59807 1.08818 1.06579
 C705 C 0.60750 1.05741 1.05058
 C706 C 0.64306 1.04908 1.04921
 C707 C 0.66847 1.07030 1.06410
 H708 H 0.75464 1.11116 1.15304
 H709 H 0.70284 1.20333 1.12159
 H710 H 0.57091 1.09539 1.06726
 H711 H 0.65119 1.02568 1.03745
 H712 H 0.66313 1.16990 1.08616
 H713 H 0.61496 1.13195 1.09360
 H714 H 0.71380 1.07765 1.11900
 H715 H 0.69561 1.06295 1.06307
 C716 C 0.61508 0.85533 0.84322
 C717 C 0.63740 0.87058 0.81952
 C718 C 0.65803 0.85065 0.79881
 C719 C 0.65692 0.81488 0.80119
 C720 C 0.63408 0.79956 0.82444
 C721 C 0.61341 0.81956 0.84525
 C722 C 0.59538 0.87694 0.86690
 C723 C 0.59345 0.86819 0.90118
 C724 C 0.57871 0.89052 0.92421
 C725 C 0.56566 0.92212 0.91345
 C726 C 0.56592 0.93010 0.87897
 C727 C 0.58059 0.90775 0.85595
 H728 H 0.67575 0.86343 0.78175
 H729 H 0.63223 0.77211 0.82661
 H730 H 0.57879 0.88362 0.95062
 H731 H 0.55567 0.95409 0.86989
 H732 H 0.59619 0.80704 0.86300
 H733 H 0.60482 0.84479 0.91050
 H734 H 0.63989 0.89804 0.81777
 H735 H 0.58104 0.91491 0.82962
   
