data_POSCAR
  _audit_creation_date              2014-09-24
  _audit_creation_method            'ToBaCCo'
  _symmetry_space_group_name_H-M    'P1'
  _symmetry_Int_Tables_number       1
  _symmetry_cell_setting            triclinic
  loop_
  _symmetry_equiv_pos_as_xyz
 x,y,z
_cell_length_a 64.7543
_cell_length_b 64.9250
_cell_length_c 65.0377
_cell_angle_alpha 90.006000
_cell_angle_beta 89.997300
_cell_angle_gamma 90.020800
loop_
  _atom_site_label
  _atom_site_type_symbol
  _atom_site_fract_x
  _atom_site_fract_y
  _atom_site_fract_z
N1 N 0.27257 0.23143 0.21529
 N2 N 0.26414 0.24805 0.20733
 C3 C 0.27510 0.25382 0.19067
 C4 C 0.29109 0.24003 0.18821
 C5 C 0.28912 0.22603 0.20398
 H6 H 0.27180 0.26703 0.18110
 H7 H 0.29906 0.21301 0.20707
 Cu8 Cu 0.23973 0.26031 0.21975
 Cu9 Cu 0.26169 0.21811 0.23982
 Cu10 Cu 0.21795 0.23993 0.26185
 N11 N 0.21529 0.27254 0.23205
 N12 N 0.20672 0.26439 0.24850
 C13 C 0.18996 0.27552 0.25369
 C14 C 0.18807 0.29140 0.23975
 C15 C 0.20430 0.28916 0.22625
 H16 H 0.17992 0.27234 0.26661
 H17 H 0.20775 0.29890 0.21321
 N18 N 0.23165 0.21519 0.27302
 N19 N 0.24831 0.20692 0.26467
 C20 C 0.25381 0.19020 0.27566
 C21 C 0.23993 0.18793 0.29153
 C22 C 0.22611 0.20392 0.28952
 H23 H 0.26686 0.18035 0.27236
 H24 H 0.21300 0.20701 0.29933
 H25 H 0.23150 0.22737 0.23593
 H26 H 0.24817 0.24390 0.25243
 N27 N 0.72677 -0.23191 0.21502
 N28 N 0.73543 -0.24834 0.20689
 C29 C 0.72465 -0.25404 0.19010
 C30 C 0.70853 -0.24038 0.18773
 C31 C 0.71020 -0.22655 0.20370
 H32 H 0.72826 -0.26701 0.18030
 H33 H 0.70025 -0.21353 0.20678
 Cu34 Cu 0.76012 -0.26030 0.21905
 Cu35 Cu 0.73781 -0.21842 0.23943
 Cu36 Cu 0.78174 -0.24004 0.26128
 N37 N 0.78474 -0.27237 0.23123
 N38 N 0.79309 -0.26438 0.24787
 C39 C 0.80969 -0.27566 0.25330
 C40 C 0.81167 -0.29147 0.23929
 C41 C 0.79573 -0.28902 0.22548
 H42 H 0.81949 -0.27261 0.26643
 H43 H 0.79233 -0.29873 0.21240
 N44 N 0.76799 -0.21540 0.27250
 N45 N 0.75133 -0.20709 0.26417
 C46 C 0.74591 -0.19035 0.27520
 C47 C 0.75985 -0.18814 0.29103
 C48 C 0.77359 -0.20416 0.28899
 H49 H 0.73284 -0.18049 0.27198
 H50 H 0.78672 -0.20728 0.29876
 H51 H 0.76806 -0.22749 0.23555
 H52 H 0.75149 -0.24426 0.25192
 N53 N 0.72758 0.23194 0.78459
 N54 N 0.73610 0.24852 0.79254
 C55 C 0.72529 0.25427 0.80931
 C56 C 0.70921 0.24057 0.81179
 C57 C 0.71106 0.22657 0.79597
 H58 H 0.72865 0.26749 0.81888
 H59 H 0.70122 0.21343 0.79302
 Cu60 Cu 0.76046 0.26076 0.78000
 Cu61 Cu 0.73860 0.21846 0.76016
 Cu62 Cu 0.78240 0.24024 0.73815
 N63 N 0.78509 0.27292 0.76789
 N64 N 0.79357 0.26478 0.75140
 C65 C 0.81035 0.27586 0.74614
 C66 C 0.81234 0.29172 0.76008
 C67 C 0.79620 0.28950 0.77373
 H68 H 0.82038 0.27253 0.73325
 H69 H 0.79276 0.29930 0.78675
 N70 N 0.76878 0.21539 0.72706
 N71 N 0.75211 0.20713 0.73543
 C72 C 0.74652 0.19047 0.72439
 C73 C 0.76030 0.18824 0.70843
 C74 C 0.77421 0.20416 0.71047
 H75 H 0.73339 0.18071 0.72763
 H76 H 0.78724 0.20733 0.70057
 H77 H 0.76885 0.22776 0.76414
 H78 H 0.75220 0.24417 0.74748
 N79 N 0.27300 -0.23208 0.78475
 N80 N 0.26432 -0.24846 0.79293
 C81 C 0.27523 -0.25418 0.80965
 C82 C 0.29144 -0.24059 0.81193
 C83 C 0.28968 -0.22680 0.79594
 H84 H 0.27161 -0.26710 0.81951
 H85 H 0.29969 -0.21386 0.79276
 Cu86 Cu 0.23944 -0.26045 0.78108
 Cu87 Cu 0.26181 -0.21853 0.76049
 Cu88 Cu 0.21790 -0.24014 0.73869
 N89 N 0.21495 -0.27254 0.76857
 N90 N 0.20664 -0.26459 0.75191
 C91 C 0.19017 -0.27598 0.74633
 C92 C 0.18819 -0.29184 0.76029
 C93 C 0.20404 -0.28931 0.77419
 H94 H 0.18047 -0.27301 0.73312
 H95 H 0.20736 -0.29898 0.78732
 N96 N 0.23151 -0.21537 0.72758
 N97 N 0.24819 -0.20707 0.73589
 C98 C 0.25369 -0.19040 0.72480
 C99 C 0.23981 -0.18825 0.70889
 C100 C 0.22599 -0.20421 0.71101
 H101 H 0.26681 -0.18059 0.72797
 H102 H 0.21294 -0.20742 0.70115
 H103 H 0.23154 -0.22762 0.76452
 H104 H 0.24810 -0.24446 0.74818
 N105 N 0.72744 -0.23187 0.78461
 N106 N 0.73610 -0.24829 0.79273
 C107 C 0.72529 -0.25398 0.80950
 C108 C 0.70912 -0.24039 0.81184
 C109 C 0.71085 -0.22656 0.79589
 H110 H 0.72888 -0.26695 0.81929
 H111 H 0.70088 -0.21354 0.79284
 Cu112 Cu 0.76077 -0.26027 0.78058
 Cu113 Cu 0.73856 -0.21830 0.76032
 Cu114 Cu 0.78250 -0.23992 0.73844
 N115 N 0.78538 -0.27233 0.76842
 N116 N 0.79373 -0.26438 0.75176
 C117 C 0.81023 -0.27577 0.74628
 C118 C 0.81216 -0.29159 0.76028
 C119 C 0.79630 -0.28903 0.77414
 H120 H 0.82000 -0.27280 0.73311
 H121 H 0.79289 -0.29870 0.78724
 N122 N 0.76882 -0.21515 0.72733
 N123 N 0.75217 -0.20687 0.73570
 C124 C 0.74657 -0.19026 0.72461
 C125 C 0.76031 -0.18812 0.70861
 C126 C 0.77420 -0.20402 0.71069
 H127 H 0.73343 -0.18049 0.72782
 H128 H 0.78717 -0.20725 0.70073
 H129 H 0.75229 -0.24411 0.74777
 H130 H 0.76882 -0.22740 0.76424
 N131 N 0.27289 0.23162 0.78464
 N132 N 0.26417 0.24800 0.79279
 C133 C 0.27507 0.25385 0.80945
 C134 C 0.29134 0.24038 0.81175
 C135 C 0.28960 0.22647 0.79584
 H136 H 0.27151 0.26687 0.81920
 H137 H 0.29969 0.21358 0.79268
 Cu138 Cu 0.23944 0.26003 0.78081
 Cu139 Cu 0.26189 0.21814 0.76021
 Cu140 Cu 0.21805 0.23984 0.73837
 N141 N 0.21498 0.27214 0.76834
 N142 N 0.20674 0.26416 0.75165
 C143 C 0.19028 0.27549 0.74604
 C144 C 0.18819 0.29134 0.75995
 C145 C 0.20401 0.28888 0.77391
 H146 H 0.18062 0.27250 0.73281
 H147 H 0.20728 0.29862 0.78700
 N148 N 0.23167 0.21517 0.72716
 N149 N 0.24832 0.20684 0.73546
 C150 C 0.25370 0.19010 0.72442
 C151 C 0.23975 0.18795 0.70857
 C152 C 0.22604 0.20398 0.71064
 H153 H 0.26672 0.18019 0.72764
 H154 H 0.21293 0.20718 0.70086
 H155 H 0.24831 0.24413 0.74796
 H156 H 0.23171 0.22722 0.76423
 N157 N 0.27306 -0.23144 0.21560
 N158 N 0.26412 -0.24751 0.20706
 C159 C 0.27463 -0.25273 0.18995
 C160 C 0.29091 -0.23919 0.18785
 C161 C 0.28955 -0.22591 0.20430
 H162 H 0.27097 -0.26552 0.17994
 H163 H 0.29999 -0.21343 0.20800
 Cu164 Cu 0.23994 -0.25999 0.21974
 Cu165 Cu 0.26347 -0.21975 0.24142
 Cu166 Cu 0.21761 -0.23921 0.26132
 N167 N 0.21556 -0.27237 0.23199
 N168 N 0.20673 -0.26398 0.24819
 C169 C 0.19014 -0.27528 0.25355
 C170 C 0.18858 -0.29148 0.23993
 C171 C 0.20484 -0.28927 0.22646
 H172 H 0.18004 -0.27203 0.26639
 H173 H 0.20846 -0.29918 0.21360
 N174 N 0.23143 -0.21445 0.27237
 N175 N 0.24892 -0.20712 0.26484
 C176 C 0.25457 -0.19043 0.27577
 C177 C 0.24002 -0.18728 0.29086
 C178 C 0.22559 -0.20267 0.28841
 H179 H 0.26827 -0.18131 0.27308
 H180 H 0.21204 -0.20521 0.29780
 H181 H 0.24744 -0.24475 0.25326
 H182 H 0.23297 -0.22699 0.23601
 N183 N 0.72707 0.23125 0.21512
 N184 N 0.73592 0.24752 0.20685
 C185 C 0.72526 0.25315 0.18998
 C186 C 0.70899 0.23970 0.18769
 C187 C 0.71049 0.22598 0.20378
 H188 H 0.72886 0.26614 0.18022
 H189 H 0.70029 0.21318 0.20700
 Cu190 Cu 0.75998 0.26006 0.21954
 Cu191 Cu 0.73769 0.21808 0.23989
 Cu192 Cu 0.78305 0.23830 0.26003
 N193 N 0.78405 0.27263 0.23225
 N194 N 0.79281 0.26416 0.24843
 C195 C 0.80927 0.27550 0.25403
 C196 C 0.81081 0.29185 0.24063
 C197 C 0.79466 0.28969 0.22700
 H198 H 0.81960 0.27187 0.26658
 H199 H 0.79113 0.29964 0.21415
 N200 N 0.76853 0.21462 0.27236
 N201 N 0.75121 0.20701 0.26474
 C202 C 0.74526 0.19084 0.27630
 C203 C 0.75948 0.18830 0.29182
 C204 C 0.77400 0.20355 0.28901
 H205 H 0.73173 0.18147 0.27357
 H206 H 0.78757 0.20625 0.29831
 H207 H 0.75263 0.24343 0.25226
 H208 H 0.76753 0.22637 0.23465
 C209 C 0.24014 -0.00017 0.44472
 C210 C 0.24000 0.01840 0.45535
 C211 C 0.24001 0.01851 0.47691
 C212 C 0.24002 -0.00019 0.48836
 C213 C 0.24017 -0.01886 0.47691
 C214 C 0.24028 -0.01874 0.45536
 C215 C 0.23985 -0.00023 0.51177
 C216 C 0.24001 -0.01893 0.52320
 C217 C 0.23983 -0.01885 0.54475
 C218 C 0.23961 -0.00029 0.55540
 C219 C 0.23948 0.01831 0.54480
 C220 C 0.23955 0.01845 0.52325
 H221 H 0.24012 -0.00019 0.42803
 H222 H 0.24001 0.03339 0.48419
 H223 H 0.24014 -0.03375 0.48416
 H224 H 0.24031 -0.03381 0.51592
 H225 H 0.23961 -0.00031 0.57209
 H226 H 0.23940 0.03334 0.51599
 C227 C 0.75956 -0.00019 0.55515
 C228 C 0.75943 0.01839 0.54453
 C229 C 0.75947 0.01849 0.52297
 C230 C 0.75979 -0.00022 0.51152
 C231 C 0.75998 -0.01890 0.52297
 C232 C 0.75978 -0.01877 0.54452
 C233 C 0.75992 -0.00026 0.48809
 C234 C 0.75985 -0.01896 0.47666
 C235 C 0.75993 -0.01887 0.45511
 C236 C 0.75996 -0.00032 0.44445
 C237 C 0.76004 0.01827 0.45506
 C238 C 0.76008 0.01841 0.47662
 H239 H 0.75955 -0.00020 0.57184
 H240 H 0.75927 0.03337 0.51569
 H241 H 0.76032 -0.03378 0.51572
 H242 H 0.75969 -0.03384 0.48394
 H243 H 0.75993 -0.00034 0.42776
 H244 H 0.76027 0.03330 0.48388
 C245 C 0.44459 0.24051 0.00008
 C246 C 0.45533 0.24047 0.01859
 C247 C 0.47697 0.24044 0.01864
 C248 C 0.48841 0.24044 -0.00006
 C249 C 0.47685 0.24044 -0.01867
 C250 C 0.45521 0.24049 -0.01848
 C251 C 0.51192 0.24046 -0.00015
 C252 C 0.52337 0.24054 -0.01884
 C253 C 0.54502 0.24058 -0.01878
 C254 C 0.55575 0.24059 -0.00027
 C255 C 0.54510 0.24052 0.01828
 C256 C 0.52346 0.24042 0.01845
 H257 H 0.42782 0.24052 0.00014
 H258 H 0.48430 0.24043 0.03348
 H259 H 0.48410 0.24037 -0.03355
 H260 H 0.51602 0.24054 -0.03368
 H261 H 0.57251 0.24059 -0.00031
 H262 H 0.51621 0.24030 0.03334
 C263 C 0.55617 0.76023 0.00028
 C264 C 0.54549 0.76010 0.01882
 C265 C 0.52384 0.75995 0.01893
 C266 C 0.51233 0.75997 0.00028
 C267 C 0.52383 0.76005 -0.01836
 C268 C 0.54548 0.76016 -0.01825
 C269 C 0.48881 0.75990 0.00028
 C270 C 0.47728 0.75989 -0.01837
 C271 C 0.45562 0.75993 -0.01824
 C272 C 0.44499 0.75994 0.00032
 C273 C 0.45569 0.75989 0.01885
 C274 C 0.47733 0.75987 0.01895
 H275 H 0.57294 0.76028 0.00027
 H276 H 0.51655 0.75979 0.03380
 H277 H 0.51652 0.76000 -0.03322
 H278 H 0.48458 0.75983 -0.03323
 H279 H 0.42822 0.75995 0.00035
 H280 H 0.48464 0.75984 0.03381
 C281 C -0.00023 0.44479 0.23917
 C282 C 0.01834 0.45553 0.23921
 C283 C 0.01836 0.47711 0.23931
 C284 C -0.00043 0.48849 0.23935
 C285 C -0.01911 0.47694 0.23930
 C286 C -0.01889 0.45535 0.23921
 C287 C -0.00055 0.51193 0.23944
 C288 C -0.01933 0.52335 0.23951
 C289 C -0.01926 0.54494 0.23949
 C290 C -0.00066 0.55562 0.23944
 C291 C 0.01798 0.54502 0.23945
 C292 C 0.01816 0.52345 0.23943
 H293 H -0.00016 0.42806 0.23916
 H294 H 0.03326 0.48445 0.23938
 H295 H -0.03406 0.48415 0.23934
 H296 H -0.03423 0.51602 0.23958
 H297 H -0.00068 0.57235 0.23941
 H298 H 0.03311 0.51623 0.23942
 C299 C 0.00004 0.55560 0.76048
 C300 C 0.01862 0.54490 0.76043
 C301 C 0.01866 0.52331 0.76039
 C302 C -0.00013 0.51190 0.76044
 C303 C -0.01883 0.52343 0.76055
 C304 C -0.01862 0.54502 0.76054
 C305 C -0.00022 0.48844 0.76033
 C306 C -0.01899 0.47701 0.76029
 C307 C -0.01894 0.45542 0.76018
 C308 C -0.00035 0.44473 0.76011
 C309 C 0.01829 0.45534 0.76016
 C310 C 0.01848 0.47692 0.76028
 H311 H 0.00010 0.57232 0.76048
 H312 H 0.03357 0.51599 0.76030
 H313 H -0.03378 0.51619 0.76065
 H314 H -0.03390 0.48433 0.76035
 H315 H -0.00038 0.42800 0.76007
 H316 H 0.03343 0.48416 0.76037
 C317 C 0.30691 0.24037 0.17276
 C318 C 0.32031 0.24051 0.15990
 C319 C 0.33637 0.24054 0.14461
 C320 C 0.35707 0.24034 0.15053
 C321 C 0.37271 0.24029 0.13570
 C322 C 0.36807 0.24045 0.11439
 C323 C 0.34685 0.24061 0.10889
 C324 C 0.33132 0.24064 0.12380
 C325 C 0.38497 0.24044 0.09821
 C326 C 0.38019 0.24045 0.07695
 C327 C 0.39567 0.24043 0.06205
 C328 C 0.41642 0.24040 0.06772
 C329 C 0.42170 0.24040 0.08851
 C330 C 0.40623 0.24043 0.10358
 C331 C 0.43192 0.24041 0.05186
 C332 C 0.44350 0.24043 0.03734
 H333 H 0.36116 0.24023 0.16668
 H334 H 0.38828 0.24010 0.14147
 H335 H 0.34163 0.24071 0.09320
 H336 H 0.31528 0.24075 0.11902
 H337 H 0.36462 0.24046 0.07121
 H338 H 0.39138 0.24046 0.04593
 H339 H 0.43778 0.24039 0.09311
 H340 H 0.41146 0.24047 0.11928
 C341 C 0.69395 0.75956 0.17270
 C342 C 0.68086 0.75960 0.15953
 C343 C 0.66494 0.75970 0.14408
 C344 C 0.66122 0.74217 0.13229
 C345 C 0.64525 0.74198 0.11782
 C346 C 0.63238 0.75941 0.11478
 C347 C 0.63678 0.77711 0.12679
 C348 C 0.65281 0.77719 0.14119
 C349 C 0.61486 0.75918 0.09927
 C350 C 0.60226 0.77673 0.09587
 C351 C 0.58665 0.77667 0.08099
 C352 C 0.58305 0.75914 0.06914
 C353 C 0.59485 0.74150 0.07248
 C354 C 0.61043 0.74143 0.08733
 C355 C 0.56847 0.75964 0.05243
 C356 C 0.55729 0.75991 0.03760
 H357 H 0.67061 0.72851 0.13434
 H358 H 0.64344 0.72790 0.10930
 H359 H 0.62813 0.79119 0.12549
 H360 H 0.65563 0.79095 0.15021
 H361 H 0.60419 0.79088 0.10425
 H362 H 0.57764 0.79051 0.07848
 H363 H 0.59226 0.72781 0.06330
 H364 H 0.61887 0.72725 0.08889
 C365 C 0.69376 0.24077 -0.17238
 C366 C 0.68064 0.24087 -0.15923
 C367 C 0.66470 0.24094 -0.14381
 C368 C 0.65272 0.25851 -0.14068
 C369 C 0.63668 0.25835 -0.12629
 C370 C 0.63210 0.24049 -0.11456
 C371 C 0.64480 0.22300 -0.11787
 C372 C 0.66079 0.22327 -0.13230
 C373 C 0.61452 0.24015 -0.09910
 C374 C 0.61000 0.22230 -0.08736
 C375 C 0.59435 0.22227 -0.07258
 C376 C 0.58260 0.23991 -0.06908
 C377 C 0.58632 0.25756 -0.08071
 C378 C 0.60198 0.25772 -0.09554
 C379 C 0.56796 0.24029 -0.05241
 C380 C 0.55677 0.24048 -0.03759
 H381 H 0.65568 0.27239 -0.14947
 H382 H 0.62816 0.27247 -0.12475
 H383 H 0.64284 0.20880 -0.10960
 H384 H 0.67009 0.20958 -0.13456
 H385 H 0.61842 0.20812 -0.08900
 H386 H 0.59168 0.20849 -0.06355
 H387 H 0.57736 0.27141 -0.07807
 H388 H 0.60400 0.27195 -0.10376
 C389 C 0.30688 0.75944 -0.17219
 C390 C 0.32000 0.75959 -0.15902
 C391 C 0.33590 0.75979 -0.14354
 C392 C 0.33875 0.74275 -0.13082
 C393 C 0.35470 0.74255 -0.11632
 C394 C 0.36841 0.75948 -0.11414
 C395 C 0.36487 0.77672 -0.12706
 C396 C 0.34886 0.77682 -0.14149
 C397 C 0.38592 0.75919 -0.09858
 C398 C 0.39937 0.77626 -0.09600
 C399 C 0.41497 0.77618 -0.08108
 C400 C 0.41773 0.75909 -0.06839
 C401 C 0.40504 0.74192 -0.07090
 C402 C 0.38946 0.74187 -0.08577
 C403 C 0.43245 0.75959 -0.05176
 C404 C 0.44374 0.75982 -0.03700
 H405 H 0.32870 0.72947 -0.13217
 H406 H 0.35584 0.72885 -0.10711
 H407 H 0.37425 0.79039 -0.12649
 H408 H 0.34669 0.79021 -0.15120
 H409 H 0.39812 0.79005 -0.10509
 H410 H 0.42466 0.78966 -0.07925
 H411 H 0.40694 0.72858 -0.06106
 H412 H 0.38035 0.72805 -0.08666
 C413 C 0.17253 0.30716 0.23933
 C414 C 0.15960 0.32050 0.23895
 C415 C 0.14423 0.33651 0.23867
 C416 C 0.14747 0.35445 0.22733
 C417 C 0.13282 0.37029 0.22760
 C418 C 0.11442 0.36861 0.23931
 C419 C 0.11144 0.35000 0.25037
 C420 C 0.12615 0.33427 0.25005
 C421 C 0.09859 0.38583 0.23993
 C422 C 0.08030 0.38406 0.25178
 C423 C 0.06542 0.39959 0.25189
 C424 C 0.06825 0.41745 0.24036
 C425 C 0.08626 0.41990 0.22885
 C426 C 0.10127 0.40437 0.22865
 C427 C 0.05196 0.43250 0.23969
 C428 C 0.03722 0.44383 0.23937
 H429 H 0.16142 0.35628 0.21831
 H430 H 0.13643 0.38366 0.21851
 H431 H 0.09792 0.34702 0.25950
 H432 H 0.12340 0.32034 0.25881
 H433 H 0.07684 0.37080 0.26106
 H434 H 0.05145 0.39748 0.26084
 H435 H 0.08861 0.43371 0.21980
 H436 H 0.11470 0.40729 0.21936
 C437 C 0.17376 0.69293 0.76026
 C438 C 0.16100 0.67939 0.76035
 C439 C 0.14566 0.66332 0.76053
 C440 C 0.12476 0.66838 0.76049
 C441 C 0.10975 0.65292 0.76057
 C442 C 0.11521 0.63175 0.76072
 C443 C 0.13661 0.62707 0.76087
 C444 C 0.15155 0.64266 0.76078
 C445 C 0.09888 0.61494 0.76069
 C446 C 0.10416 0.59371 0.76069
 C447 C 0.08895 0.57834 0.76060
 C448 C 0.06809 0.58368 0.76051
 C449 C 0.06249 0.60441 0.76052
 C450 C 0.07754 0.61979 0.76062
 C451 C 0.05208 0.56827 0.76044
 C452 C 0.03747 0.55672 0.76042
 H453 H 0.11999 0.68438 0.76038
 H454 H 0.09401 0.65817 0.76048
 H455 H 0.14234 0.61152 0.76105
 H456 H 0.16777 0.63854 0.76088
 H457 H 0.11992 0.58844 0.76074
 H458 H 0.09350 0.56228 0.76061
 H459 H 0.04633 0.60876 0.76045
 H460 H 0.07184 0.63533 0.76065
 C461 C -0.17396 0.69327 0.23934
 C462 C -0.16127 0.67968 0.23929
 C463 C -0.14600 0.66357 0.23917
 C464 C -0.15196 0.64292 0.23912
 C465 C -0.13706 0.62729 0.23903
 C466 C -0.11565 0.63192 0.23902
 C467 C -0.11013 0.65308 0.23898
 C468 C -0.12509 0.66858 0.23906
 C469 C -0.09936 0.61509 0.23909
 C470 C -0.07801 0.61990 0.23904
 C471 C -0.06300 0.60451 0.23918
 C472 C -0.06864 0.58379 0.23936
 C473 C -0.08952 0.57848 0.23942
 C474 C -0.10470 0.59387 0.23929
 C475 C -0.05267 0.56835 0.23945
 C476 C -0.03809 0.55678 0.23948
 H477 H -0.16819 0.63884 0.23914
 H478 H -0.14284 0.61175 0.23895
 H479 H -0.09438 0.65830 0.23889
 H480 H -0.12026 0.68457 0.23903
 H481 H -0.07227 0.63544 0.23890
 H482 H -0.04683 0.60884 0.23915
 H483 H -0.09410 0.56243 0.23957
 H484 H -0.12046 0.58863 0.23938
 C485 C -0.17272 0.30644 0.76038
 C486 C -0.15956 0.31959 0.76054
 C487 C -0.14413 0.33556 0.76055
 C488 C -0.13626 0.34303 0.77905
 C489 C -0.12181 0.35904 0.77911
 C490 C -0.11482 0.36817 0.76054
 C491 C -0.12286 0.35997 0.74197
 C492 C -0.13731 0.34397 0.74204
 C493 C -0.09939 0.38580 0.76054
 C494 C -0.09239 0.39490 0.74197
 C495 C -0.07757 0.41057 0.74198
 C496 C -0.06939 0.41780 0.76045
 C497 C -0.07633 0.40951 0.77898
 C498 C -0.09113 0.39382 0.77909
 C499 C -0.05266 0.43243 0.76033
 C500 C -0.03781 0.44365 0.76025
 H501 H -0.14135 0.33650 0.79353
 H502 H -0.11647 0.36392 0.79399
 H503 H -0.11835 0.36557 0.72707
 H504 H -0.14322 0.33820 0.72755
 H505 H -0.09784 0.39011 0.72710
 H506 H -0.07221 0.41679 0.72747
 H507 H -0.07000 0.41491 0.79344
 H508 H -0.09556 0.38815 0.79399
 C509 C 0.23980 0.17212 0.30697
 C510 C 0.23967 0.15899 0.32007
 C511 C 0.23957 0.14356 0.33596
 C512 C 0.22207 0.14070 0.34813
 C513 C 0.22220 0.12633 0.36414
 C514 C 0.23996 0.11430 0.36849
 C515 C 0.25737 0.11728 0.35557
 C516 C 0.25714 0.13171 0.33962
 C517 C 0.24027 0.09884 0.38602
 C518 C 0.25809 0.08694 0.39041
 C519 C 0.25808 0.07209 0.40596
 C520 C 0.24045 0.06873 0.41779
 C521 C 0.22284 0.08058 0.41424
 C522 C 0.22272 0.09546 0.39867
 C523 C 0.24007 0.05204 0.43239
 C524 C 0.23996 0.03722 0.44358
 H525 H 0.20828 0.14973 0.34532
 H526 H 0.20814 0.12509 0.37285
 H527 H 0.27149 0.10874 0.35734
 H528 H 0.27078 0.13370 0.33018
 H529 H 0.27229 0.08853 0.38198
 H530 H 0.27183 0.06292 0.40850
 H531 H 0.20901 0.07807 0.42328
 H532 H 0.20854 0.10387 0.39679
 C533 C 0.75995 0.17274 0.69265
 C534 C 0.75966 0.15977 0.67937
 C535 C 0.75946 0.14435 0.66344
 C536 C 0.77233 0.12722 0.66485
 C537 C 0.77262 0.11249 0.64918
 C538 C 0.76001 0.11449 0.63144
 C539 C 0.74685 0.13193 0.63060
 C540 C 0.74662 0.14659 0.64637
 C541 C 0.76051 0.09863 0.61425
 C542 C 0.74768 0.10035 0.59662
 C543 C 0.74776 0.08531 0.58117
 C544 C 0.76069 0.06821 0.58274
 C545 C 0.77375 0.06634 0.59968
 C546 C 0.77377 0.08128 0.61514
 C547 C 0.75995 0.05185 0.56776
 C548 C 0.75958 0.03717 0.55637
 H549 H 0.78228 0.12524 0.67811
 H550 H 0.78295 0.09973 0.65148
 H551 H 0.73653 0.13475 0.61794
 H552 H 0.73643 0.15977 0.64518
 H553 H 0.73725 0.11305 0.59436
 H554 H 0.73751 0.08693 0.56810
 H555 H 0.78383 0.05309 0.60112
 H556 H 0.78429 0.07864 0.62765
 C557 C 0.23985 -0.17285 0.69305
 C558 C 0.23977 -0.16005 0.67962
 C559 C 0.23968 -0.14481 0.66355
 C560 C 0.24485 -0.12446 0.66798
 C561 C 0.24503 -0.10964 0.65241
 C562 C 0.24004 -0.11474 0.63178
 C563 C 0.23467 -0.13554 0.62778
 C564 C 0.23452 -0.15030 0.64346
 C565 C 0.24037 -0.09865 0.61483
 C566 C 0.23534 -0.10357 0.59414
 C567 C 0.23544 -0.08851 0.57869
 C568 C 0.24061 -0.06819 0.58340
 C569 C 0.24577 -0.06300 0.60354
 C570 C 0.24571 -0.07789 0.61900
 C571 C 0.24022 -0.05222 0.56803
 C572 C 0.24001 -0.03764 0.55654
 H573 H 0.24879 -0.11999 0.68355
 H574 H 0.24918 -0.09432 0.65715
 H575 H 0.23051 -0.14094 0.61270
 H576 H 0.23039 -0.16607 0.63987
 H577 H 0.23120 -0.11889 0.58938
 H578 H 0.23136 -0.09274 0.56310
 H579 H 0.24978 -0.04725 0.60740
 H580 H 0.24986 -0.07252 0.63408
 C581 C 0.76006 -0.17249 0.30663
 C582 C 0.76031 -0.15951 0.31987
 C583 C 0.76051 -0.14416 0.33584
 C584 C 0.77415 -0.14590 0.35233
 C585 C 0.77388 -0.13137 0.36822
 C586 C 0.75986 -0.11459 0.36805
 C587 C 0.74644 -0.11308 0.35086
 C588 C 0.74679 -0.12767 0.33507
 C589 C 0.75929 -0.09890 0.38537
 C590 C 0.74514 -0.08225 0.38515
 C591 C 0.74502 -0.06744 0.40071
 C592 C 0.75884 -0.06876 0.41708
 C593 C 0.77270 -0.08517 0.41799
 C594 C 0.77293 -0.10008 0.40242
 C595 C 0.75948 -0.05239 0.43202
 C596 C 0.75977 -0.03768 0.44334
 H597 H 0.78498 -0.15861 0.35301
 H598 H 0.78480 -0.13381 0.38045
 H599 H 0.73539 -0.10085 0.34909
 H600 H 0.73619 -0.12611 0.32227
 H601 H 0.73401 -0.08003 0.37308
 H602 H 0.73426 -0.05470 0.39977
 H603 H 0.78358 -0.08632 0.43060
 H604 H 0.78411 -0.11222 0.40412
 C605 C 0.69376 0.75957 -0.17226
 C606 C 0.68070 0.75963 -0.15906
 C607 C 0.66483 0.75974 -0.14359
 C608 C 0.65278 0.77727 -0.14060
 C609 C 0.63683 0.77722 -0.12612
 C610 C 0.63242 0.75950 -0.11414
 C611 C 0.64518 0.74202 -0.11731
 C612 C 0.66107 0.74218 -0.13185
 C613 C 0.61493 0.75929 -0.09859
 C614 C 0.61045 0.74151 -0.08673
 C615 C 0.59484 0.74158 -0.07190
 C616 C 0.58310 0.75924 -0.06850
 C617 C 0.58681 0.77682 -0.08023
 C618 C 0.60243 0.77689 -0.09509
 C619 C 0.56848 0.75972 -0.05183
 C620 C 0.55727 0.75999 -0.03703
 H621 H 0.65565 0.79104 -0.14957
 H622 H 0.62824 0.79133 -0.12475
 H623 H 0.64333 0.72791 -0.10884
 H624 H 0.67040 0.72849 -0.13399
 H625 H 0.61884 0.72731 -0.08833
 H626 H 0.59220 0.72786 -0.06277
 H627 H 0.57786 0.79068 -0.07766
 H628 H 0.60445 0.79108 -0.10338
 C629 C 0.30686 0.24075 -0.17249
 C630 C 0.31997 0.24095 -0.15933
 C631 C 0.33580 0.24102 -0.14380
 C632 C 0.33867 0.22383 -0.13130
 C633 C 0.35455 0.22350 -0.11675
 C634 C 0.36818 0.24045 -0.11432
 C635 C 0.36460 0.25786 -0.12701
 C636 C 0.34867 0.25807 -0.14151
 C637 C 0.38565 0.24003 -0.09876
 C638 C 0.39913 0.25707 -0.09610
 C639 C 0.41471 0.25689 -0.08120
 C640 C 0.41744 0.23972 -0.06862
 C641 C 0.40475 0.22257 -0.07121
 C642 C 0.38917 0.22263 -0.08606
 C643 C 0.43210 0.24016 -0.05199
 C644 C 0.44335 0.24038 -0.03722
 H645 H 0.32867 0.21052 -0.13285
 H646 H 0.35572 0.20969 -0.10771
 H647 H 0.37386 0.27159 -0.12618
 H648 H 0.34648 0.27157 -0.15106
 H649 H 0.39795 0.27090 -0.10512
 H650 H 0.42441 0.27036 -0.07928
 H651 H 0.40666 0.20917 -0.06146
 H652 H 0.38003 0.20883 -0.08703
 C653 C 0.30678 0.76044 0.17246
 C654 C 0.32026 0.76019 0.15970
 C655 C 0.33639 0.75996 0.14450
 C656 C 0.35706 0.76011 0.15050
 C657 C 0.37276 0.75997 0.13573
 C658 C 0.36819 0.75965 0.11441
 C659 C 0.34700 0.75949 0.10883
 C660 C 0.33141 0.75966 0.12367
 C661 C 0.38515 0.75955 0.09829
 C662 C 0.38044 0.75945 0.07702
 C663 C 0.39598 0.75949 0.06216
 C664 C 0.41670 0.75963 0.06791
 C665 C 0.42192 0.75966 0.08871
 C666 C 0.40640 0.75960 0.10373
 C667 C 0.43224 0.75973 0.05209
 C668 C 0.44384 0.75981 0.03759
 H669 H 0.36109 0.76036 0.16667
 H670 H 0.38831 0.76012 0.14155
 H671 H 0.34184 0.75921 0.09312
 H672 H 0.31539 0.75956 0.11883
 H673 H 0.36490 0.75938 0.07121
 H674 H 0.39174 0.75944 0.04604
 H675 H 0.43798 0.75975 0.09337
 H676 H 0.41157 0.75960 0.11945
 C677 C 0.69343 0.24015 0.17201
 C678 C 0.68025 0.24049 0.15895
 C679 C 0.66432 0.24070 0.14356
 C680 C 0.66047 0.22310 0.13193
 C681 C 0.64452 0.22290 0.11749
 C682 C 0.63180 0.24040 0.11427
 C683 C 0.63635 0.25820 0.12607
 C684 C 0.65237 0.25829 0.14050
 C685 C 0.61426 0.24009 0.09880
 C686 C 0.60167 0.25763 0.09531
 C687 C 0.58610 0.25750 0.08040
 C688 C 0.58251 0.23989 0.06866
 C689 C 0.59426 0.22226 0.07213
 C690 C 0.60983 0.22227 0.08698
 C691 C 0.56801 0.24029 0.05191
 C692 C 0.55688 0.24045 0.03705
 H693 H 0.66978 0.20940 0.13409
 H694 H 0.64258 0.20872 0.10916
 H695 H 0.62781 0.27234 0.12461
 H696 H 0.65534 0.27211 0.14936
 H697 H 0.60360 0.27182 0.10364
 H698 H 0.57711 0.27133 0.07778
 H699 H 0.59168 0.20852 0.06302
 H700 H 0.61825 0.20809 0.08860
 C701 C -0.17347 0.69316 0.76030
 C702 C -0.16076 0.67959 0.76042
 C703 C -0.14545 0.66351 0.76056
 C704 C -0.15135 0.64285 0.76104
 C705 C -0.13642 0.62727 0.76108
 C706 C -0.11502 0.63196 0.76062
 C707 C -0.10956 0.65313 0.76022
 C708 C -0.12456 0.66858 0.76019
 C709 C -0.09869 0.61518 0.76056
 C710 C -0.07736 0.62004 0.76020
 C711 C -0.06231 0.60467 0.76016
 C712 C -0.06792 0.58395 0.76048
 C713 C -0.08878 0.57859 0.76081
 C714 C -0.10398 0.59395 0.76084
 C715 C -0.05194 0.56853 0.76052
 C716 C -0.03739 0.55694 0.76054
 H717 H -0.16757 0.63873 0.76139
 H718 H -0.14215 0.61172 0.76148
 H719 H -0.09382 0.65839 0.75991
 H720 H -0.11979 0.68458 0.75989
 H721 H -0.07165 0.63559 0.75997
 H722 H -0.04615 0.60903 0.75988
 H723 H -0.09333 0.56254 0.76104
 H724 H -0.11973 0.58867 0.76109
 C725 C -0.17338 0.30732 0.24028
 C726 C -0.16012 0.32033 0.24001
 C727 C -0.14447 0.33604 0.23981
 C728 C -0.13612 0.34316 0.25823
 C729 C -0.12149 0.35898 0.25820
 C730 C -0.11482 0.36829 0.23962
 C731 C -0.12327 0.36039 0.22109
 C732 C -0.13787 0.34453 0.22126
 C733 C -0.09932 0.38583 0.23957
 C734 C -0.09240 0.39496 0.22098
 C735 C -0.07758 0.41062 0.22098
 C736 C -0.06929 0.41775 0.23944
 C737 C -0.07615 0.40943 0.25798
 C738 C -0.09099 0.39379 0.25811
 C739 C -0.05254 0.43231 0.23931
 C740 C -0.03769 0.44351 0.23925
 H741 H -0.14100 0.33653 0.27274
 H742 H -0.11576 0.36355 0.27304
 H743 H -0.11899 0.36612 0.20617
 H744 H -0.14413 0.33897 0.20683
 H745 H -0.09795 0.39023 0.20613
 H746 H -0.07227 0.41689 0.20647
 H747 H -0.06974 0.41475 0.27242
 H748 H -0.09542 0.38817 0.27302
 C749 C 0.17287 0.30731 0.75975
 C750 C 0.16000 0.32071 0.75964
 C751 C 0.14463 0.33670 0.75967
 C752 C 0.14780 0.35475 0.74850
 C753 C 0.13306 0.37048 0.74886
 C754 C 0.11462 0.36859 0.76047
 C755 C 0.11175 0.34992 0.77146
 C756 C 0.12657 0.33429 0.77106
 C757 C 0.09862 0.38567 0.76103
 C758 C 0.08028 0.38373 0.77276
 C759 C 0.06528 0.39916 0.77282
 C760 C 0.06808 0.41708 0.76135
 C761 C 0.08611 0.41964 0.74991
 C762 C 0.10121 0.40422 0.74976
 C763 C 0.05177 0.43211 0.76068
 C764 C 0.03709 0.44350 0.76034
 H765 H 0.16175 0.35671 0.73951
 H766 H 0.13662 0.38392 0.73987
 H767 H 0.09824 0.34682 0.78056
 H768 H 0.12389 0.32028 0.77972
 H769 H 0.07689 0.37042 0.78201
 H770 H 0.05128 0.39696 0.78168
 H771 H 0.08842 0.43347 0.74088
 H772 H 0.11466 0.40727 0.74053
 C773 C 0.17327 0.69254 0.23980
 C774 C 0.16046 0.67908 0.23962
 C775 C 0.14509 0.66309 0.23939
 C776 C 0.12422 0.66823 0.23953
 C777 C 0.10917 0.65282 0.23950
 C778 C 0.11459 0.63164 0.23932
 C779 C 0.13597 0.62689 0.23900
 C780 C 0.15094 0.64242 0.23904
 C781 C 0.09824 0.61488 0.23946
 C782 C 0.10349 0.59364 0.23937
 C783 C 0.08825 0.57831 0.23941
 C784 C 0.06742 0.58372 0.23956
 C785 C 0.06184 0.60444 0.23974
 C786 C 0.07691 0.61978 0.23969
 C787 C 0.05139 0.56837 0.23952
 C788 C 0.03678 0.55686 0.23948
 H789 H 0.11950 0.68425 0.23970
 H790 H 0.09345 0.65811 0.23966
 H791 H 0.14166 0.61133 0.23874
 H792 H 0.16715 0.63827 0.23884
 H793 H 0.11923 0.58833 0.23928
 H794 H 0.09276 0.56224 0.23932
 H795 H 0.04569 0.60882 0.23990
 H796 H 0.07123 0.63534 0.23983
 C797 C 0.75999 -0.17278 0.69272
 C798 C 0.75980 -0.15999 0.67929
 C799 C 0.75972 -0.14474 0.66324
 C800 C 0.76463 -0.12435 0.66775
 C801 C 0.76481 -0.10950 0.65221
 C802 C 0.76007 -0.11464 0.63152
 C803 C 0.75509 -0.13552 0.62743
 C804 C 0.75492 -0.15029 0.64309
 C805 C 0.76031 -0.09852 0.61461
 C806 C 0.75531 -0.10344 0.59391
 C807 C 0.75539 -0.08838 0.57848
 C808 C 0.76046 -0.06805 0.58322
 C809 C 0.76551 -0.06283 0.60339
 C810 C 0.76549 -0.07774 0.61883
 C811 C 0.76011 -0.05209 0.56785
 C812 C 0.75994 -0.03754 0.55634
 H813 H 0.76840 -0.11986 0.68336
 H814 H 0.76873 -0.09415 0.65700
 H815 H 0.75127 -0.14098 0.61228
 H816 H 0.75107 -0.16611 0.63943
 H817 H 0.75119 -0.11877 0.58914
 H818 H 0.75138 -0.09261 0.56287
 H819 H 0.76939 -0.04706 0.60727
 H820 H 0.76957 -0.07236 0.63392
 C821 C 0.24028 -0.17167 0.30647
 C822 C 0.24049 -0.15872 0.31972
 C823 C 0.24061 -0.14348 0.33577
 C824 C 0.25419 -0.14537 0.35229
 C825 C 0.25384 -0.13103 0.36831
 C826 C 0.23981 -0.11426 0.36826
 C827 C 0.22641 -0.11260 0.35107
 C828 C 0.22683 -0.12702 0.33513
 C829 C 0.23929 -0.09870 0.38568
 C830 C 0.22519 -0.08200 0.38557
 C831 C 0.22523 -0.06722 0.40115
 C832 C 0.23915 -0.06862 0.41742
 C833 C 0.25291 -0.08512 0.41827
 C834 C 0.25297 -0.10000 0.40269
 C835 C 0.23992 -0.05227 0.43234
 C836 C 0.24022 -0.03754 0.44362
 H837 H 0.26503 -0.15807 0.35286
 H838 H 0.26474 -0.13358 0.38053
 H839 H 0.21535 -0.10036 0.34940
 H840 H 0.21626 -0.12536 0.32231
 H841 H 0.21400 -0.07972 0.37357
 H842 H 0.21453 -0.05442 0.40029
 H843 H 0.26383 -0.08635 0.43083
 H844 H 0.26408 -0.11221 0.40433
 C845 C 0.75941 0.17265 0.30741
 C846 C 0.75936 0.15951 0.32050
 C847 C 0.75936 0.14395 0.33625
 C848 C 0.74178 0.14069 0.34818
 C849 C 0.74196 0.12610 0.36400
 C850 C 0.75986 0.11431 0.36841
 C851 C 0.77734 0.11766 0.35567
 C852 C 0.77704 0.13228 0.33989
 C853 C 0.76026 0.09875 0.38583
 C854 C 0.77814 0.08691 0.39016
 C855 C 0.77823 0.07203 0.40569
 C856 C 0.76061 0.06857 0.41751
 C857 C 0.74294 0.08032 0.41399
 C858 C 0.74274 0.09524 0.39848
 C859 C 0.76029 0.05187 0.43209
 C860 C 0.76013 0.03706 0.44328
 H861 H 0.72789 0.14954 0.34535
 H862 H 0.72780 0.12448 0.37249
 H863 H 0.79155 0.10928 0.35746
 H864 H 0.79073 0.13455 0.33057
 H865 H 0.79232 0.08857 0.38170
 H866 H 0.79202 0.06294 0.40822
 H867 H 0.72912 0.07772 0.42303
 H868 H 0.72853 0.10362 0.39667
 C869 C 0.23951 0.17232 0.69295
 C870 C 0.23926 0.15936 0.67969
 C871 C 0.23911 0.14402 0.66372
 C872 C 0.25207 0.12696 0.66507
 C873 C 0.25249 0.11235 0.64931
 C874 C 0.23992 0.11440 0.63155
 C875 C 0.22667 0.13178 0.63076
 C876 C 0.22632 0.14633 0.64662
 C877 C 0.24050 0.09861 0.61432
 C878 C 0.22767 0.10034 0.59670
 C879 C 0.22777 0.08530 0.58125
 C880 C 0.24072 0.06821 0.58285
 C881 C 0.25381 0.06637 0.59976
 C882 C 0.25381 0.08131 0.61520
 C883 C 0.23996 0.05181 0.56794
 C884 C 0.23961 0.03709 0.55661
 H885 H 0.26200 0.12496 0.67834
 H886 H 0.26289 0.09964 0.65158
 H887 H 0.21640 0.13464 0.61808
 H888 H 0.21609 0.15948 0.64548
 H889 H 0.21722 0.11302 0.59445
 H890 H 0.21751 0.08689 0.56819
 H891 H 0.26391 0.05314 0.60120
 H892 H 0.26434 0.07867 0.62771
   
