data_POSCAR
  _audit_creation_date              2014-09-24
  _audit_creation_method            'ToBaCCo'
  _symmetry_space_group_name_H-M    'P1'
  _symmetry_Int_Tables_number       1
  _symmetry_cell_setting            triclinic
  loop_
  _symmetry_equiv_pos_as_xyz
 x,y,z
_cell_length_a 26.0851
_cell_length_b 25.0687
_cell_length_c 25.8531
_cell_angle_alpha 88.072500
_cell_angle_beta 89.719400
_cell_angle_gamma 92.185900
loop_
  _atom_site_label
  _atom_site_type_symbol
  _atom_site_fract_x
  _atom_site_fract_y
  _atom_site_fract_z
C1 C 0.15696 0.14330 0.19285
 N2 N 0.16151 0.19738 0.19589
 C3 C 0.19969 0.22502 0.16934
 N4 N 0.23393 0.19846 0.14113
 C5 C 0.22892 0.14483 0.13714
 N6 N 0.18995 0.11767 0.16239
 C7 C -0.19234 0.83349 0.25627
 N8 N -0.22783 0.84538 0.21999
 C9 C -0.22502 0.82633 0.17183
 N10 N -0.18712 0.79281 0.16005
 C11 C -0.15147 0.78006 0.19618
 N12 N -0.15357 0.80143 0.24401
 C13 C -0.15615 0.19163 -0.22422
 N14 N -0.19267 0.15186 -0.22043
 C15 C -0.22508 0.14732 -0.17918
 N16 N -0.22026 0.18338 -0.14078
 C17 C -0.18230 0.22267 -0.14383
 N18 N -0.15080 0.22663 -0.18576
 C19 C 0.13947 0.87883 -0.20269
 N20 N 0.12927 0.82583 -0.20773
 C21 C 0.14981 0.78956 -0.17426
 N22 N 0.18234 0.80646 -0.13667
 C23 C 0.19182 0.85965 -0.13083
 N24 N 0.16965 0.89540 -0.16340
 C25 C 0.16370 1.18546 0.75298
 N26 N 0.20097 1.14920 0.75827
 C27 C 0.22972 1.14707 0.80213
 N28 N 0.22020 1.18040 0.84096
 C29 C 0.18239 1.21604 0.83640
 N30 N 0.15479 1.21880 0.79219
 C31 C 0.80918 0.83922 0.79482
 N32 N 0.76635 0.83573 0.82509
 C33 C 0.76003 0.79620 0.86189
 N34 N 0.79710 0.76034 0.86913
 C35 C 0.84011 0.76338 0.83937
 N36 N 0.84590 0.80266 0.80180
 C37 C 0.13944 0.84479 1.24027
 N38 N 0.13212 0.80991 1.20131
 C39 C 0.16603 0.80977 1.16130
 N40 N 0.20768 0.84319 1.16102
 C41 C 0.21616 0.87717 1.19965
 N42 N 0.18188 0.87846 1.23946
 C43 C 0.82972 1.15280 1.19581
 N44 N 0.79794 1.13471 1.15829
 C45 C 0.80614 1.14995 1.10815
 N46 N 0.84638 1.18363 1.09538
 C47 C 0.87708 1.20389 1.13282
 N48 N 0.86840 1.18882 1.18319
 N49 N 0.44287 1.01281 0.89368
 N50 N 0.40424 1.01049 0.86124
 N51 N 0.55245 1.05391 0.90913
 N52 N 0.59476 1.08080 0.89484
 N53 N 0.55050 1.00632 0.88925
 N54 N 0.59169 1.00009 0.86009
 N55 N 0.44475 1.05847 0.91714
 N56 N 0.40703 1.08876 0.90067
 C57 C 0.38199 1.05771 0.86591
 C58 C 0.61877 1.04728 0.86422
 N59 N 0.57064 1.06067 1.05579
 N60 N 0.61738 1.06777 1.07429
 N61 N 0.45790 1.09262 1.02369
 N62 N 0.41145 1.11170 1.01947
 N63 N 0.46459 1.07143 1.07040
 N64 N 0.42309 1.07685 1.09867
 N65 N 0.56572 1.08715 1.01153
 N66 N 0.60951 1.11214 0.99828
 Mn67 Mn 0.50451 1.07385 0.96539
 C68 C 0.64102 1.10006 1.03789
 C69 C 0.39082 1.10299 1.06719
 N70 N 0.53815 0.89518 0.92777
 N71 N 0.57693 0.87747 0.90108
 N72 N 0.42687 0.88514 0.97968
 N73 N 0.37877 0.87010 0.99059
 N74 N 0.43099 0.90535 0.93213
 N75 N 0.38573 0.90395 0.90974
 N76 N 0.53257 0.86863 0.97220
 N77 N 0.56734 0.83199 0.97685
 Mn78 Mn 0.49135 0.95453 0.91006
 C79 C 0.59441 0.83776 0.93224
 C80 C 0.35389 0.88060 0.94585
 N81 N 0.45521 0.96374 1.10894
 N82 N 0.42183 0.97438 1.14526
 N83 N 0.54678 0.90289 1.07481
 N84 N 0.58452 0.86972 1.07773
 N85 N 0.56085 0.94935 1.09348
 N86 N 0.60899 0.94833 1.10990
 N87 N 0.44129 0.91988 1.08558
 N88 N 0.39772 0.89952 1.10553
 Mn89 Mn 0.51371 1.01160 1.08264
 Mn90 Mn 0.48602 0.89365 1.02838
 Cl91 Cl 0.49882 0.98339 0.99655
 C92 C 0.38630 0.93417 1.14279
 C93 C 0.62266 0.89779 1.10021
 N94 N 0.09425 0.45677 0.10576
 N95 N 0.10824 0.42258 0.14270
 N96 N 0.12198 0.56718 0.04712
 N97 N 0.14706 0.61328 0.03807
 N98 N 0.09419 0.56847 0.08952
 N99 N 0.09937 0.61560 0.11035
 N100 N 0.12625 0.45703 0.06653
 N101 N 0.16296 0.42339 0.07545
 C102 C 0.15117 0.40216 0.12287
 C103 C 0.13264 0.64275 0.07816
 N104 N 0.06792 0.53602 -0.09275
 N105 N 0.06688 0.57037 -0.13237
 N106 N 0.10944 0.43764 -0.03917
 N107 N 0.14177 0.39878 -0.03990
 N108 N 0.06864 0.42632 -0.06697
 N109 N 0.07323 0.37964 -0.08895
 N110 N 0.10603 0.54828 -0.06187
 N111 N 0.13178 0.59171 -0.07958
 Mn112 Mn 0.11643 0.50321 0.00286
 C113 C 0.10694 0.60458 -0.12394
 C114 C 0.11914 0.36305 -0.07105
 N115 N -0.01257 0.56762 0.10683
 N116 N -0.01244 0.60829 0.13751
 N117 N -0.05885 0.45593 0.09457
 N118 N -0.08207 0.40836 0.09761
 N119 N -0.01594 0.45520 0.12133
 N120 N -0.00892 0.40659 0.14098
 N121 N -0.05234 0.56799 0.07599
 N122 N -0.08130 0.60900 0.08623
 Mn123 Mn 0.03985 0.51142 0.10649
 C124 C -0.05502 0.63413 0.12451
 C125 C -0.05138 0.37812 0.12720
 N126 N -0.04395 0.42737 -0.05072
 N127 N -0.06141 0.38474 -0.07500
 N128 N -0.06777 0.54968 -0.03595
 N129 N -0.09128 0.59482 -0.04613
 N130 N -0.03970 0.53718 -0.07597
 N131 N -0.04280 0.57347 -0.11357
 N132 N -0.07555 0.43868 -0.01315
 N133 N -0.11455 0.40348 -0.01037
 Mn134 Mn 0.01303 0.48070 -0.07199
 Mn135 Mn -0.06433 0.50406 0.03041
 Cl136 Cl 0.02612 0.49979 0.01684
 C137 C -0.10511 0.36984 -0.04878
 C138 C -0.07521 0.60876 -0.09503
 N139 N 1.01928 -0.08145 0.46451
 N140 N 1.01655 -0.11902 0.42982
 N141 N 1.06813 -0.02348 0.55913
 N142 N 1.09841 -0.01632 0.59912
 N143 N 1.03125 -0.05922 0.57061
 N144 N 1.03596 -0.07759 0.61888
 N145 N 1.05798 -0.04771 0.45395
 N146 N 1.08263 -0.06154 0.41201
 C147 C 1.05664 -0.10621 0.39759
 C148 C 1.07836 -0.05072 0.63576
 N149 N 1.04500 0.12798 0.52215
 N150 N 1.05178 0.16557 0.55608
 N151 N 1.06542 0.06346 0.42578
 N152 N 1.08905 0.05343 0.38231
 N153 N 1.03246 0.10123 0.41811
 N154 N 1.03364 0.11867 0.36918
 N155 N 1.07649 0.08915 0.53128
 N156 N 1.10532 0.09954 0.57211
 Mn157 Mn 1.06770 0.02039 0.49276
 C158 C 1.08974 0.14784 0.58663
 C159 C 1.06942 0.08839 0.34764
 N160 N 0.92147 -0.05295 0.58181
 N161 N 0.91076 -0.08176 0.62471
 N162 N 0.87604 -0.03573 0.47409
 N163 N 0.83988 -0.04499 0.44009
 N164 N 0.90887 -0.07418 0.47528
 N165 N 0.89603 -0.11048 0.44091
 N166 N 0.89107 -0.01245 0.57774
 N167 N 0.85890 -0.01276 0.61715
 Mn168 Mn 0.97027 -0.06792 0.52299
 C169 C 0.87196 -0.05561 0.64653
 C170 C 0.85235 -0.09160 0.41982
 N171 N 0.92215 0.10801 0.43013
 N172 N 0.91219 0.12911 0.38382
 N173 N 0.90006 0.09972 0.54942
 N174 N 0.88013 0.11282 0.59392
 N175 N 0.93652 0.13448 0.53439
 N176 N 0.94239 0.17218 0.56858
 N177 N 0.88440 0.07521 0.44583
 N178 N 0.84788 0.07297 0.41100
 Mn179 Mn 0.98408 0.11854 0.47558
 Mn180 Mn 0.88763 0.03184 0.51209
 Cl181 Cl 0.97744 0.02561 0.50087
 C182 C 0.86548 0.10682 0.37276
 C183 C 0.90656 0.15831 0.60502
 C184 C 1.12338 0.11310 0.22524
 C185 C 1.11695 0.05821 0.22322
 C186 C 1.09131 0.04268 0.26731
 C187 C 1.08344 0.08905 0.29280
 O188 O 1.10247 0.13208 0.26732
 H189 H 1.13252 0.03220 0.19497
 H190 H 1.08278 0.00207 0.28123
 C191 C 0.80388 -0.14439 0.30492
 C192 C 0.76174 -0.11683 0.31989
 C193 C 0.77380 -0.09747 0.36664
 C194 C 0.82248 -0.11419 0.37717
 O195 O 0.84106 -0.14327 0.33992
 H196 H 0.72687 -0.11016 0.29846
 H197 H 0.75087 -0.07161 0.38927
 C198 C 0.87504 0.19787 0.72870
 C199 C 0.91207 0.23767 0.71838
 C200 C 0.92910 0.22887 0.66945
 C201 C 0.90096 0.18457 0.65410
 O202 O 0.86831 0.16576 0.68983
 H203 H 0.92473 0.26935 0.74329
 H204 H 0.95832 0.25183 0.64766
 C205 C 1.12370 -0.08441 0.75960
 C206 C 1.13794 -0.03068 0.75867
 C207 C 1.12155 -0.01091 0.71226
 C208 C 1.09783 -0.05368 0.68876
 O209 O 1.09881 -0.09839 0.71731
 H210 H 1.15995 -0.00908 0.78716
 H211 H 1.12724 0.02957 0.69678
 C212 C 0.26558 1.11742 1.11062
 C213 C 0.26266 1.06310 1.10312
 C214 C 0.30842 1.05182 1.08147
 C215 C 0.33568 1.09997 1.07726
 O216 O 0.30998 1.13996 1.09496
 H217 H 0.23191 1.03475 1.11429
 H218 H 0.32171 1.01272 1.07275
 C219 C 0.22802 0.87811 0.90431
 C220 C 0.23160 0.93023 0.91999
 C221 C 0.27717 0.93484 0.94494
 C222 C 0.29846 0.88557 0.94211
 O223 O 0.26866 0.85086 0.91763
 H224 H 0.20570 0.96201 0.91125
 H225 H 0.29537 0.97131 0.95841
 C226 C 0.73909 0.84211 1.13534
 C227 C 0.73793 0.82654 1.08471
 C228 C 0.69559 0.84905 1.06417
 C229 C 0.67444 0.87713 1.10344
 O230 O 0.70067 0.87300 1.14682
 H231 H 0.76383 0.80073 1.06555
 H232 H 0.68062 0.84409 1.02565
 C233 C 0.73656 1.10645 0.82199
 C234 C 0.73387 1.06540 0.78742
 C235 C 0.69024 1.03595 0.79999
 C236 C 0.66904 1.06153 0.84068
 O237 O 0.69712 1.10404 0.85446
 H238 H 0.76036 1.05809 0.75634
 H239 H 0.67480 1.00127 0.78068
 C240 C 0.20284 0.28350 0.16775
 C241 C 0.24825 0.31256 0.15946
 C242 C 0.23431 0.36289 0.14634
 C243 C 0.18149 0.36092 0.14787
 O244 O 0.16212 0.31275 0.16074
 H245 H 0.28667 0.29772 0.15886
 H246 H 0.25938 0.39603 0.13313
 C247 C -0.17408 0.26166 -0.10291
 C248 C -0.20613 0.26809 -0.06125
 C249 C -0.18399 0.30912 -0.03465
 C250 C -0.14019 0.32481 -0.06221
 O251 O -0.13414 0.29611 -0.10363
 H252 H -0.24171 0.24623 -0.05194
 H253 H -0.19840 0.32610 0.00025
 C254 C 0.13519 0.73262 -0.17807
 C255 C 0.10782 0.71219 -0.21890
 C256 C 0.09608 0.66045 -0.20476
 C257 C 0.11719 0.65301 -0.15641
 O258 O 0.14113 0.69672 -0.13996
 H259 H 0.09598 0.73319 -0.25383
 H260 H 0.07293 0.63209 -0.22611
 C261 C -0.11040 0.74364 0.18398
 C262 C -0.06518 0.74265 0.21111
 C263 C -0.03868 0.70287 0.19064
 C264 C -0.06965 0.68179 0.15261
 O265 O -0.11350 0.70670 0.14812
 H266 H -0.05324 0.76768 0.24252
 H267 H -0.00143 0.68980 0.20290
 C268 C 1.13499 0.18944 0.70763
 C269 C 1.10007 0.22863 0.69836
 C270 C 1.08050 0.21892 0.65093
 C271 C 1.10431 0.17424 0.63468
 O272 O 1.13770 0.15609 0.66892
 H273 H 1.09001 0.26056 0.72324
 H274 H 1.05139 0.24111 0.63092
 C275 C 0.81476 -0.12018 0.75667
 C276 C 0.78073 -0.07966 0.75003
 C277 C 0.79896 -0.04957 0.70882
 C278 C 0.84256 -0.07394 0.69293
 O279 O 0.85256 -0.11683 0.72198
 H280 H 0.74650 -0.07300 0.77239
 H281 H 0.78184 -0.01465 0.69153
 C282 C 1.10425 -0.15498 0.28130
 C283 C 1.06144 -0.18905 0.28647
 C284 C 1.03816 -0.17578 0.33136
 C285 C 1.06827 -0.13455 0.35022
 O286 O 1.10838 -0.12174 0.32000
 H287 H 1.04871 -0.21992 0.26065
 H288 H 1.00316 -0.19359 0.34807
 C289 C 0.82310 0.13341 0.24648
 C290 C 0.78313 0.09901 0.26263
 C291 C 0.79306 0.08640 0.31296
 C292 C 0.83840 0.11375 0.32372
 O293 O 0.85676 0.14263 0.28361
 H294 H 0.75123 0.08388 0.24006
 H295 H 0.77089 0.05902 0.33835
 C296 C 0.17264 0.25021 -0.12364
 C297 C 0.19909 0.25026 -0.07754
 C298 C 0.18035 0.29128 -0.05117
 C299 C 0.14354 0.31300 -0.08275
 O300 O 0.13851 0.28813 -0.12686
 H301 H 0.22942 0.22448 -0.06524
 H302 H 0.19308 0.30492 -0.01390
 C303 C -0.08720 0.24454 0.11970
 C304 C -0.06669 0.25273 0.07069
 C305 C -0.04289 0.30179 0.07099
 C306 C -0.05162 0.32062 0.11966
 O307 O -0.07826 0.28575 0.14956
 H308 H -0.07148 0.22750 0.03774
 H309 H -0.02662 0.32397 0.03778
 C310 C -0.12278 0.72557 -0.15300
 C311 C -0.07898 0.72285 -0.18276
 C312 C -0.05530 0.67888 -0.16407
 C313 C -0.08603 0.65841 -0.12397
 O314 O -0.12705 0.68665 -0.11697
 H315 H -0.06640 0.74902 -0.21488
 H316 H -0.01999 0.66319 -0.17825
 C317 C 0.16141 0.77088 0.12050
 C318 C 0.18826 0.77560 0.07425
 C319 C 0.17992 0.72814 0.05110
 C320 C 0.14895 0.69822 0.08519
 O321 O 0.13735 0.72396 0.12718
 H322 H 0.21253 0.80898 0.06007
 H323 H 0.19564 0.71620 0.01462
 C324 C 0.27136 1.10938 0.80762
 C325 C 0.27685 1.06642 0.77652
 C326 C 0.31903 1.04182 0.79467
 C327 C 0.33662 1.07182 0.83522
 O328 O 0.30760 1.11291 0.84346
 H329 H 0.25259 1.05419 0.74484
 H330 H 0.33518 1.00610 0.78007
 C331 C 0.26483 0.90807 1.19821
 C332 C 0.27896 0.94971 1.22920
 C333 C 0.32736 0.96539 1.21276
 C334 C 0.33882 0.93162 1.17352
 O335 O 0.30097 0.89716 1.16458
 H336 H 0.25662 0.96679 1.25944
 H337 H 0.35129 0.99767 1.22735
 C338 C 0.76738 1.13625 1.06958
 C339 C 0.77078 1.15027 1.01760
 C340 C 0.72346 1.13788 0.99809
 C341 C 0.69519 1.11701 1.03973
 O342 O 0.72171 1.11568 1.08299
 H343 H 0.80327 1.16894 0.99698
 H344 H 0.71081 1.14411 0.95862
 C345 C 0.71296 0.79200 0.89311
 C346 C 0.70339 0.75446 0.93256
 C347 C 0.65644 0.76574 0.95173
 C348 C 0.64103 0.80909 0.92233
 O349 O 0.67515 0.82514 0.88671
 H350 H 0.72805 0.72328 0.94620
 H351 H 0.63636 0.74567 0.98400
   
