data_POSCAR
  _audit_creation_date              2014-09-24
  _audit_creation_method            'ToBaCCo'
  _symmetry_space_group_name_H-M    'P1'
  _symmetry_Int_Tables_number       1
  _symmetry_cell_setting            triclinic
  loop_
  _symmetry_equiv_pos_as_xyz
 x,y,z
_cell_length_a 27.7589
_cell_length_b 27.7182
_cell_length_c 27.7011
_cell_angle_alpha 81.434000
_cell_angle_beta 98.176600
_cell_angle_gamma 78.642600
loop_
  _atom_site_label
  _atom_site_type_symbol
  _atom_site_fract_x
  _atom_site_fract_y
  _atom_site_fract_z
O1 O 0.57166 0.49189 0.04769
 O2 O 0.43558 0.50442 0.03490
 O3 O 0.51185 0.42924 0.04897
 O4 O 0.49474 0.56624 0.03351
 O5 O 0.48902 0.57152 -0.04745
 O6 O 0.50690 0.43447 -0.03191
 O7 O 0.42964 0.50824 -0.04581
 O8 O 0.56564 0.49673 -0.03324
 Cu9 Cu 0.50413 0.49735 0.04937
 Cu10 Cu 0.49712 0.50338 -0.04772
 C11 C 0.59188 0.49258 0.00929
 C12 C 0.40923 0.50794 -0.00749
 C13 C 0.51197 0.40845 0.01106
 C14 C 0.48929 0.59228 -0.00951
 O15 O -0.04617 0.57324 0.49320
 O16 O -0.03401 0.43736 0.50363
 O17 O -0.03198 0.49834 0.56591
 O18 O -0.04791 0.51151 0.43001
 O19 O 0.03362 0.50138 0.43487
 O20 O 0.04946 0.48901 0.57061
 O21 O 0.04749 0.42679 0.50805
 O22 O 0.03510 0.56284 0.49660
 Cu23 Cu -0.04822 0.50624 0.49762
 Cu24 Cu 0.04962 0.49387 0.50308
 C25 C -0.00754 0.59143 0.49335
 C26 C 0.00872 0.40884 0.50748
 C27 C 0.01135 0.49177 0.59146
 C28 C -0.00971 0.50841 0.40924
 O29 O 0.49889 0.03422 0.56377
 O30 O 0.48779 0.04657 0.42821
 O31 O 0.42547 0.04639 0.49049
 O32 O 0.56111 0.03435 0.50220
 O33 O 0.57234 -0.04778 0.51129
 O34 O 0.43632 -0.03526 0.49475
 O35 O 0.50197 -0.03567 0.43594
 O36 O 0.50685 -0.04734 0.57090
 Cu37 Cu 0.49220 0.04861 0.49538
 Cu38 Cu 0.50541 -0.04975 0.50402
 C39 C 0.50396 -0.00849 0.59061
 C40 C 0.49403 0.00740 0.40905
 C41 C 0.40769 0.00754 0.49059
 C42 C 0.58992 -0.00868 0.50875
 C43 C 0.50082 -0.00913 -0.04930
 C44 C 0.48903 -0.04462 -0.01304
 C45 C 0.48444 -0.03279 0.03396
 C46 C 0.49220 0.01273 0.04606
 C47 C 0.50402 0.04815 0.01013
 C48 C 0.50775 0.03680 -0.03710
 H49 H 0.51516 0.06471 -0.06520
 H50 H 0.47678 -0.06028 0.06235
 C51 C -0.01063 0.50614 1.04738
 C52 C -0.04565 0.49474 1.01094
 C53 C -0.03254 0.48873 0.96474
 C54 C 0.01428 0.49376 0.95366
 C55 C 0.04936 0.50517 0.99009
 C56 C 0.03624 0.51105 1.03637
 H57 H 0.06359 0.51813 1.06495
 H58 H -0.05991 0.48152 0.93625
 C59 C 0.04610 0.00904 0.49415
 C60 C 0.00876 0.04664 0.50476
 C61 C -0.03785 0.03624 0.51017
 C62 C -0.04842 -0.01046 0.50522
 C63 C -0.01103 -0.04811 0.49465
 C64 C 0.03560 -0.03767 0.48931
 H65 H 0.06482 -0.06695 0.48275
 H66 H -0.06696 0.06555 0.51687
 C67 C -0.25072 0.48667 1.02030
 C68 C -0.27817 0.47629 0.97794
 C69 C -0.32916 0.47789 0.97458
 C70 C -0.35373 0.48927 1.01381
 C71 C -0.32611 0.49884 1.05659
 C72 C -0.27515 0.49796 1.05963
 C73 C -0.19704 0.48673 1.02254
 C74 C -0.17794 0.52680 1.03689
 C75 C -0.12835 0.52897 1.03446
 C76 C -0.09680 0.49066 1.01846
 C77 C -0.11553 0.44980 1.00584
 C78 C -0.16514 0.44794 1.00767
 H79 H -0.34939 0.47031 0.94116
 H80 H -0.34408 0.50791 1.08734
 H81 H -0.11513 0.56132 1.04352
 H82 H -0.09188 0.41968 0.99363
 H83 H -0.25474 0.50588 1.09277
 H84 H -0.20193 0.55743 1.04801
 H85 H -0.26035 0.46799 0.94687
 H86 H -0.17880 0.41638 0.99694
 C87 C 0.25437 0.51335 0.98132
 C88 C 0.28304 0.51646 1.02623
 C89 C 0.33407 0.51471 1.02989
 C90 C 0.35757 0.51081 0.98832
 C91 C 0.32833 0.50871 0.94297
 C92 C 0.27739 0.50931 0.93973
 C93 C 0.20071 0.51357 0.97861
 C94 C 0.18123 0.47453 0.96237
 C95 C 0.13169 0.47218 0.96487
 C96 C 0.10050 0.50952 0.98253
 C97 C 0.11970 0.54954 0.99688
 C98 C 0.16937 0.55133 0.99533
 H99 H 0.35499 0.51653 1.06545
 H100 H 0.34488 0.50559 0.91012
 H101 H 0.11827 0.44037 0.95456
 H102 H 0.09644 0.57896 1.01036
 H103 H 0.25583 0.50700 0.90468
 H104 H 0.20496 0.44476 0.94980
 H105 H 0.26605 0.51927 1.05887
 H106 H 0.18359 0.58192 1.00776
 C107 C -0.01885 -0.25332 0.48747
 C108 C 0.02646 -0.28468 0.48449
 C109 C 0.03018 -0.33589 0.48646
 C110 C -0.01172 -0.35683 0.49047
 C111 C -0.05744 -0.32491 0.49249
 C112 C -0.06075 -0.27375 0.49163
 C113 C -0.02163 -0.19953 0.48708
 C114 C -0.03806 -0.17717 0.52583
 C115 C -0.03571 -0.12756 0.52797
 C116 C -0.01804 -0.09925 0.49071
 C117 C -0.00337 -0.12129 0.45106
 C118 C -0.00479 -0.17106 0.44946
 H119 H 0.06602 -0.35897 0.48468
 H120 H -0.09054 -0.33947 0.49568
 H121 H -0.04626 -0.11183 0.55945
 H122 H 0.01016 -0.10019 0.42177
 H123 H -0.09608 -0.25003 0.49386
 H124 H -0.05070 -0.19874 0.55547
 H125 H 0.05933 -0.26962 0.48160
 H126 H 0.00781 -0.18760 0.41913
 C127 C 0.01889 0.25128 0.51330
 C128 C -0.02372 0.28185 0.52359
 C129 C -0.02677 0.33292 0.52203
 C130 C 0.01299 0.35442 0.51073
 C131 C 0.05604 0.32369 0.50128
 C132 C 0.05879 0.27260 0.50216
 C133 C 0.02072 0.19760 0.51302
 C134 C 0.03505 0.17583 0.47310
 C135 C 0.03226 0.12638 0.47075
 C136 C 0.01593 0.09766 0.50871
 C137 C 0.00314 0.11902 0.54933
 C138 C 0.00535 0.16853 0.55140
 H139 H -0.06039 0.35562 0.52955
 H140 H 0.08719 0.33929 0.49231
 H141 H 0.04147 0.11103 0.43863
 H142 H -0.00934 0.09750 0.57914
 H143 H 0.09212 0.24969 0.49432
 H144 H 0.04650 0.19769 0.44280
 H145 H -0.05520 0.26640 0.53175
 H146 H -0.00542 0.18434 0.58278
 C147 C 0.50769 -0.01931 -0.25479
 C148 C 0.50885 0.02602 -0.28427
 C149 C 0.50740 0.02961 -0.33527
 C150 C 0.50586 -0.01248 -0.35791
 C151 C 0.50549 -0.05820 -0.32789
 C152 C 0.50572 -0.06135 -0.27693
 C153 C 0.50825 -0.02204 -0.20106
 C154 C 0.54634 -0.00725 -0.17191
 C155 C 0.54488 -0.00536 -0.12208
 C156 C 0.50481 -0.01734 -0.10059
 C157 C 0.46716 -0.03319 -0.12961
 C158 C 0.46921 -0.03610 -0.17934
 H159 H 0.50782 0.06546 -0.35681
 H160 H 0.50416 -0.09143 -0.34380
 H161 H 0.57456 0.00661 -0.10049
 H162 H 0.43537 -0.04170 -0.11433
 H163 H 0.50490 -0.09669 -0.25466
 H164 H 0.57689 0.00351 -0.18798
 H165 H 0.51010 0.05896 -0.26783
 H166 H 0.43924 -0.04719 -0.20144
 C167 C 0.49259 0.01975 0.25250
 C168 C 0.46445 0.05849 0.27089
 C169 C 0.46520 0.05483 0.32195
 C170 C 0.49300 0.01174 0.35514
 C171 C 0.52061 -0.02721 0.33649
 C172 C 0.52086 -0.02297 0.28567
 C173 C 0.49182 0.02294 0.19874
 C174 C 0.53655 0.01835 0.17991
 C175 C 0.53631 0.01741 0.12957
 C176 C 0.49150 0.02002 0.09770
 C177 C 0.44668 0.02527 0.11631
 C178 C 0.44674 0.02742 0.16642
 H179 H 0.44354 0.08531 0.33545
 H180 H 0.54262 -0.06066 0.36133
 H181 H 0.57123 0.01288 0.11577
 H182 H 0.41187 0.02695 0.09214
 H183 H 0.54254 -0.05339 0.27208
 H184 H 0.57166 0.01481 0.20437
 H185 H 0.44236 0.09170 0.24575
 H186 H 0.41195 0.03061 0.18040
 C187 C 0.47966 -0.24929 -0.02302
 C188 C 0.49105 -0.27378 -0.06223
 C189 C 0.49287 -0.32507 -0.05848
 C190 C 0.48418 -0.35292 -0.01510
 C191 C 0.47241 -0.32823 0.02388
 C192 C 0.46987 -0.27694 0.01983
 C193 C 0.47963 -0.19548 -0.02563
 C194 C 0.44121 -0.16363 -0.01017
 C195 C 0.44340 -0.11406 -0.00814
 C196 C 0.48419 -0.09537 -0.02119
 C197 C 0.52203 -0.12682 -0.03788
 C198 C 0.51955 -0.17633 -0.04049
 H199 H 0.50221 -0.34313 -0.08905
 H200 H 0.46548 -0.34865 0.05774
 H201 H 0.41368 -0.09049 0.00467
 H202 H 0.55434 -0.11363 -0.04726
 H203 H 0.46154 -0.25908 0.05081
 H204 H 0.40980 -0.17735 0.00101
 H205 H 0.49853 -0.25322 -0.09573
 H206 H 0.54991 -0.20029 -0.05203
 C207 C 0.52042 0.25025 0.02402
 C208 C 0.50966 0.27461 0.06349
 C209 C 0.50834 0.32578 0.05996
 C210 C 0.51698 0.35366 0.01658
 C211 C 0.52836 0.32906 -0.02257
 C212 C 0.53034 0.27789 -0.01877
 C213 C 0.51910 0.19677 0.02607
 C214 C 0.55627 0.16447 0.00945
 C215 C 0.55236 0.11549 0.00644
 C216 C 0.51108 0.09788 0.01969
 C217 C 0.47464 0.12968 0.03774
 C218 C 0.47882 0.17856 0.04127
 H219 H 0.49933 0.34376 0.09068
 H220 H 0.53526 0.34950 -0.05644
 H221 H 0.58103 0.09163 -0.00742
 H222 H 0.44186 0.11748 0.04709
 H223 H 0.53817 0.26018 -0.04997
 H224 H 0.58794 0.17743 -0.00203
 H225 H 0.50209 0.25407 0.09695
 H226 H 0.44933 0.20290 0.05361
 C227 C -0.25280 -0.01926 0.51497
 C228 C -0.27388 -0.05963 0.50522
 C229 C -0.32486 -0.05673 0.50441
 C230 C -0.35574 -0.01306 0.51249
 C231 C -0.33449 0.02717 0.52249
 C232 C -0.28347 0.02395 0.52405
 C233 C -0.19927 -0.02128 0.51438
 C234 C -0.17027 -0.00576 0.55234
 C235 C -0.12077 -0.00397 0.55003
 C236 C -0.09942 -0.01726 0.50952
 C237 C -0.12813 -0.03366 0.47194
 C238 C -0.17754 -0.03610 0.47459
 H239 H -0.34030 -0.08822 0.49640
 H240 H -0.35737 0.06125 0.52891
 H241 H -0.09927 0.00859 0.57953
 H242 H -0.11278 -0.04323 0.43991
 H243 H -0.26813 0.05575 0.53119
 H244 H -0.18612 0.00542 0.58359
 H245 H -0.25086 -0.09340 0.49833
 H246 H -0.19939 -0.04768 0.44462
 C247 C 0.25036 0.01812 0.48412
 C248 C 0.27159 0.05812 0.49482
 C249 C 0.32258 0.05522 0.49576
 C250 C 0.35333 0.01192 0.48677
 C251 C 0.33192 -0.02791 0.47574
 C252 C 0.28089 -0.02470 0.47413
 C253 C 0.19683 0.02008 0.48476
 C254 C 0.16772 0.00480 0.44669
 C255 C 0.11825 0.00294 0.44908
 C256 C 0.09703 0.01598 0.48974
 C257 C 0.12582 0.03217 0.52740
 C258 C 0.17521 0.03462 0.52472
 H259 H 0.33810 0.08643 0.50453
 H260 H 0.35467 -0.06170 0.46861
 H261 H 0.09667 -0.00947 0.41952
 H262 H 0.11056 0.04152 0.55956
 H263 H 0.26546 -0.05625 0.46627
 H264 H 0.18345 -0.00614 0.41530
 H265 H 0.24870 0.09161 0.50239
 H266 H 0.19713 0.04599 0.55479
 C267 C -0.02347 0.51613 1.25164
 C268 C 0.01921 0.52521 1.27932
 C269 C 0.02338 0.52304 1.33042
 C270 C -0.01533 0.51242 1.35485
 C271 C -0.05851 0.50425 1.32704
 C272 C -0.06234 0.50562 1.27589
 C273 C -0.02616 0.51620 1.19789
 C274 C -0.03866 0.47600 1.17723
 C275 C -0.03528 0.47332 1.12774
 C276 C -0.02016 0.51123 1.09797
 C277 C -0.00986 0.55244 1.11813
 C278 C -0.01264 0.55481 1.16763
 H279 H 0.05705 0.52958 1.35085
 H280 H -0.08884 0.49578 1.34498
 H281 H -0.04263 0.44078 1.11328
 H282 H 0.00160 0.58224 1.09580
 H283 H -0.09564 0.49863 1.25523
 H284 H -0.04873 0.44555 1.20000
 H285 H 0.04992 0.53284 1.26155
 H286 H -0.00332 0.58642 1.18261
 C287 C 0.02570 0.48441 0.74905
 C288 C 0.06431 0.49514 0.72453
 C289 C 0.06026 0.49644 0.67339
 C290 C 0.01710 0.48795 0.64583
 C291 C -0.02139 0.47714 0.67052
 C292 C -0.01698 0.47505 0.72162
 C293 C 0.02874 0.48425 0.80284
 C294 C 0.01574 0.44539 0.83325
 C295 C 0.01337 0.44758 0.88285
 C296 C 0.02357 0.48886 0.90297
 C297 C 0.03819 0.52701 0.87305
 C298 C 0.04116 0.52451 0.82344
 H299 H 0.09041 0.50507 0.65525
 H300 H -0.05503 0.47036 0.65028
 H301 H 0.00228 0.41760 0.90530
 H302 H 0.04547 0.55957 0.88751
 H303 H -0.04750 0.46723 0.73962
 H304 H 0.00651 0.41373 0.81831
 H305 H 0.09762 0.50235 0.74499
 H306 H 0.05086 0.55513 0.80056
   
