data_POSCAR
  _audit_creation_date              2014-09-24
  _audit_creation_method            'ToBaCCo'
  _symmetry_space_group_name_H-M    'P1'
  _symmetry_Int_Tables_number       1
  _symmetry_cell_setting            triclinic
  loop_
  _symmetry_equiv_pos_as_xyz
 x,y,z
_cell_length_a 35.1463
_cell_length_b 33.9575
_cell_length_c 34.0372
_cell_angle_alpha 89.917900
_cell_angle_beta 89.976300
_cell_angle_gamma 89.874700
loop_
  _atom_site_label
  _atom_site_type_symbol
  _atom_site_fract_x
  _atom_site_fract_y
  _atom_site_fract_z
N1 N 0.17860 1.25806 0.15002
 N2 N 0.15228 1.25769 0.17757
 C3 C 0.12657 1.28618 0.16989
 C4 C 0.13762 1.30524 0.13596
 C5 C 0.17052 1.28670 0.12391
 H6 H 0.10052 1.29102 0.18614
 H7 H 0.18586 1.29181 0.09681
 Cu8 Cu 0.15157 1.21673 0.21775
 Cu9 Cu 0.21739 1.21714 0.14640
 Cu10 Cu 0.21654 1.14435 0.21729
 N11 N 0.15217 1.17622 0.25843
 N12 N 0.17814 1.14821 0.25841
 C13 C 0.17004 1.12202 0.28694
 C14 C 0.13747 1.13449 0.30579
 C15 C 0.12665 1.16876 0.28706
 H16 H 0.18511 1.09463 0.29177
 H17 H 0.10087 1.18545 0.29222
 N18 N 0.25691 1.14838 0.17718
 N19 N 0.25729 1.17633 0.15011
 C20 C 0.28620 1.16939 0.12502
 C21 C 0.30475 1.13569 0.13706
 C22 C 0.28558 1.12298 0.17001
 H23 H 0.29200 1.18615 0.09866
 H24 H 0.29082 1.09601 0.18607
 H25 H 0.18685 1.17336 0.17374
 H26 H 0.21838 1.20388 0.20559
 N27 N 0.82162 0.74276 0.15059
 N28 N 0.84800 0.74330 0.17803
 C29 C 0.87409 0.71526 0.17011
 C30 C 0.86329 0.69637 0.13608
 C31 C 0.83006 0.71446 0.12431
 H32 H 0.90001 0.71031 0.18653
 H33 H 0.81446 0.70902 0.09748
 Cu34 Cu 0.84764 0.78354 0.21868
 Cu35 Cu 0.78081 0.78173 0.14811
 Cu36 Cu 0.78305 0.85566 0.21806
 N37 N 0.84727 0.82385 0.25939
 N38 N 0.82128 0.85184 0.25935
 C39 C 0.82950 0.87813 0.28768
 C40 C 0.86219 0.86574 0.30640
 C41 C 0.87295 0.83143 0.28777
 H42 H 0.81446 0.90554 0.29240
 H43 H 0.89883 0.81485 0.29278
 N44 N 0.74286 0.85213 0.17782
 N45 N 0.74231 0.82411 0.15090
 C46 C 0.71389 0.83158 0.12539
 C47 C 0.69569 0.86555 0.13711
 C48 C 0.71463 0.87797 0.17025
 H49 H 0.70810 0.81484 0.09906
 H50 H 0.70942 0.90489 0.18632
 H51 H 0.81178 0.82551 0.17377
 H52 H 0.78054 0.79602 0.20691
 N53 N 0.82145 1.25703 -0.15010
 N54 N 0.84800 1.25627 -0.17736
 C55 C 0.87432 1.28385 -0.16906
 C56 C 0.86338 1.30280 -0.13508
 C57 C 0.82989 1.28514 -0.12366
 H58 H 0.90048 1.28839 -0.18515
 H59 H 0.81413 1.29074 -0.09694
 Cu60 Cu 0.84755 1.21629 -0.21826
 Cu61 Cu 0.78049 1.21840 -0.14791
 Cu62 Cu 0.78344 1.14398 -0.21737
 N63 N 0.84708 1.17627 -0.25923
 N64 N 0.82137 1.14816 -0.25897
 C65 C 0.82943 1.12207 -0.28755
 C66 C 0.86179 1.13467 -0.30665
 C67 C 0.87249 1.16895 -0.28802
 H68 H 0.81455 1.09462 -0.29219
 H69 H 0.89816 1.18567 -0.29329
 N70 N 0.74303 1.14788 -0.17738
 N71 N 0.74191 1.17631 -0.15092
 C72 C 0.71310 1.16923 -0.12576
 C73 C 0.69537 1.13495 -0.13713
 C74 C 0.71492 1.12204 -0.16975
 H75 H 0.70677 1.18641 -0.09983
 H76 H 0.71028 1.09475 -0.18532
 H77 H 0.81178 1.17464 -0.17317
 H78 H 0.78049 1.20378 -0.20666
 N79 N 0.17874 0.74283 -0.15006
 N80 N 0.15242 0.74336 -0.17752
 C81 C 0.12640 0.71531 -0.16952
 C82 C 0.13733 0.69637 -0.13548
 C83 C 0.17046 0.71449 -0.12374
 H84 H 0.10057 0.71027 -0.18600
 H85 H 0.18610 0.70900 -0.09692
 Cu86 Cu 0.15280 0.78350 -0.21840
 Cu87 Cu 0.21939 0.78185 -0.14764
 Cu88 Cu 0.21718 0.85546 -0.21815
 N89 N 0.15293 0.82379 -0.25924
 N90 N 0.17893 0.85163 -0.25945
 C91 C 0.17073 0.87784 -0.28794
 C92 C 0.13797 0.86560 -0.30651
 C93 C 0.12716 0.83146 -0.28761
 H94 H 0.18582 0.90511 -0.29291
 H95 H 0.10127 0.81501 -0.29249
 N96 N 0.25723 0.85207 -0.17773
 N97 N 0.25776 0.82419 -0.15059
 C98 C 0.28605 0.83175 -0.12500
 C99 C 0.30414 0.86569 -0.13685
 C100 C 0.28529 0.87797 -0.17018
 H101 H 0.29177 0.81512 -0.09852
 H102 H 0.29046 0.90482 -0.18641
 H103 H 0.18839 0.82563 -0.17373
 H104 H 0.21979 0.79588 -0.20647
 C105 C 0.45881 0.97537 -0.02585
 C106 C 0.47883 1.00024 -0.00026
 C107 C 0.45884 1.02520 0.02536
 C108 C 0.41899 1.02531 0.02530
 C109 C 0.39916 1.00048 -0.00023
 C110 C 0.41895 0.97552 -0.02578
 C111 C 0.52066 1.00013 -0.00023
 C112 C 0.54069 1.02503 -0.02587
 C113 C 0.58055 1.02504 -0.02566
 C114 C 0.60032 1.00015 0.00003
 C115 C 0.58049 0.97528 0.02560
 C116 C 0.54063 0.97525 0.02554
 H117 H 0.47420 0.95604 -0.04562
 H118 H 0.47425 1.04440 0.04515
 H119 H 0.52531 1.04429 -0.04576
 H120 H 0.52522 0.95600 0.04535
 H121 H 0.36829 1.00057 -0.00021
 H122 H 0.63119 1.00018 0.00011
 C123 C -0.02494 0.45697 0.97647
 C124 C 0.00051 0.47768 1.00051
 C125 C 0.02603 0.45702 1.02466
 C126 C 0.02602 0.41579 1.02486
 C127 C 0.00070 0.39521 1.00071
 C128 C -0.02473 0.41572 0.97649
 C129 C 0.00047 0.52093 1.00039
 C130 C -0.02504 0.54168 1.02443
 C131 C -0.02488 0.58291 1.02451
 C132 C 0.00050 0.60339 1.00028
 C133 C 0.02589 0.58277 0.97612
 C134 C 0.02602 0.54154 0.97632
 H135 H -0.04464 0.47293 0.95778
 H136 H 0.04565 0.47301 1.04329
 H137 H -0.04472 0.52576 1.04313
 H138 H 0.04574 0.52553 0.95772
 H139 H 0.00078 0.36326 1.00076
 H140 H 0.00051 0.63535 1.00023
 C141 C 0.97415 -0.02365 0.45758
 C142 C 0.99985 0.00020 0.47817
 C143 C 1.02561 0.02399 0.45749
 C144 C 1.02553 0.02406 0.41635
 C145 C 0.99997 0.00008 0.39589
 C146 C 0.97434 -0.02385 0.41643
 C147 C 0.99986 0.00020 0.52134
 C148 C 1.02578 -0.02352 0.54199
 C149 C 1.02562 -0.02370 0.58314
 C150 C 0.99985 0.00016 0.60363
 C151 C 0.97409 0.02406 0.58311
 C152 C 0.97395 0.02392 0.54197
 H153 H 0.95428 -0.04208 0.47356
 H154 H 1.04544 0.04248 0.47339
 H155 H 1.04577 -0.04189 0.52607
 H156 H 0.95397 0.04231 0.52602
 H157 H 1.00002 0.00002 0.36401
 H158 H 0.99983 0.00015 0.63550
 C159 C 0.11612 0.33052 1.11430
 C160 C 0.09642 0.35178 1.09449
 C161 C 0.07261 0.37530 1.07067
 C162 C 0.05167 0.39430 1.04995
 C163 C -0.11424 0.66921 1.11352
 C164 C -0.09475 0.64762 1.09390
 C165 C -0.07118 0.62374 1.07025
 C166 C -0.05041 0.60453 1.04958
 C167 C -0.11412 0.32968 0.88767
 C168 C -0.09461 0.35109 0.90736
 C169 C -0.07103 0.37487 0.93099
 C170 C -0.05026 0.39409 0.95155
 C171 C 0.11505 0.66906 0.88706
 C172 C 0.09569 0.64740 0.90671
 C173 C 0.07220 0.62348 0.93037
 C174 C 0.05145 0.60427 0.95103
 C175 C 1.11594 0.11294 0.33107
 C176 C 1.09621 0.09322 0.35233
 C177 C 1.07233 0.06953 0.37584
 C178 C 1.05132 0.04894 0.39484
 C179 C 1.11636 -0.11273 0.66831
 C180 C 1.09656 -0.09291 0.64713
 C181 C 1.07261 -0.06917 0.62364
 C182 C 1.05153 -0.04857 0.60463
 C183 C 0.88382 -0.11265 0.33147
 C184 C 0.90362 -0.09293 0.35259
 C185 C 0.92754 -0.06928 0.37601
 C186 C 0.94856 -0.04872 0.39497
 C187 C 0.88339 0.11310 0.66812
 C188 C 0.90317 0.09332 0.64692
 C189 C 0.92711 0.06957 0.62349
 C190 C 0.94819 0.04894 0.60455
 C191 C 0.33253 1.11383 0.11505
 C192 C 0.35453 1.09467 0.09573
 C193 C 0.37871 1.07136 0.07215
 C194 C 0.39792 1.05074 0.05122
 C195 C 0.66761 1.11316 -0.11508
 C196 C 0.64551 1.09409 -0.09581
 C197 C 0.62114 1.07092 -0.07234
 C198 C 0.60175 1.05041 -0.05151
 C199 C 0.33190 0.88756 -0.11500
 C200 C 0.35404 0.90659 -0.09584
 C201 C 0.37844 0.92971 -0.07245
 C202 C 0.39780 0.95020 -0.05163
 C203 C 0.66778 0.88737 0.11520
 C204 C 0.64552 0.90637 0.09601
 C205 C 0.62101 0.92947 0.07254
 C206 C 0.60161 0.94995 0.05162
   
