data_POSCAR
  _audit_creation_date              2014-09-24
  _audit_creation_method            'ToBaCCo'
  _symmetry_space_group_name_H-M    'P1'
  _symmetry_Int_Tables_number       1
  _symmetry_cell_setting            triclinic
  loop_
  _symmetry_equiv_pos_as_xyz
 x,y,z
_cell_length_a 27.8685
_cell_length_b 30.2928
_cell_length_c 29.6746
_cell_angle_alpha 88.503300
_cell_angle_beta 91.443800
_cell_angle_gamma 88.591200
loop_
  _atom_site_label
  _atom_site_type_symbol
  _atom_site_fract_x
  _atom_site_fract_y
  _atom_site_fract_z
N1 N 0.63858 0.62584 0.62969
 N2 N 0.86764 0.38794 0.12180
 N3 N 0.37320 0.10947 -0.12397
 N4 N 0.11007 0.88365 0.37510
 N5 N 0.09146 0.22066 0.12570
 N6 N 0.06560 0.20037 0.15591
 C7 C 0.02510 0.22423 0.16221
 C8 C 0.02535 0.26144 0.13414
 C9 C 0.06877 0.25871 0.11243
 H10 H -0.00317 0.21454 0.18447
 H11 H 0.08213 0.28177 0.08758
 Cu12 Cu 0.08709 0.14422 0.18319
 Cu13 Cu 0.14882 0.19239 0.10160
 Cu14 Cu 0.14395 0.07805 0.11250
 N15 N 0.10285 0.08333 0.19987
 N16 N 0.12442 0.05681 0.17197
 C17 C 0.12846 0.01602 0.19123
 C18 C 0.10798 0.01724 0.23330
 C19 C 0.09298 0.06072 0.23789
 H20 H 0.14465 -0.01240 0.17568
 H21 H 0.07591 0.07481 0.26672
 N22 N 0.17958 0.10881 0.06468
 N23 N 0.18447 0.15205 0.06302
 C24 C 0.21300 0.16285 0.02878
 C25 C 0.22550 0.12472 0.00660
 C26 C 0.20429 0.09102 0.03091
 H27 H 0.22371 0.19613 0.02067
 H28 H 0.20698 0.05605 0.02465
 H29 H 0.10748 0.13850 0.10423
 H30 H 0.16167 0.13465 0.14238
 N31 N 0.45848 0.82771 0.58792
 N32 N 0.47473 0.84162 0.62685
 C33 C 0.51113 0.81478 0.64196
 C34 C 0.51865 0.78268 0.61038
 C35 C 0.48426 0.79165 0.57668
 H36 H 0.52981 0.81766 0.67412
 H37 H 0.47778 0.77280 0.54676
 Cu38 Cu 0.44608 0.89283 0.65472
 Cu39 Cu 0.40350 0.85675 0.55666
 Cu40 Cu 0.32839 0.90911 0.63126
 N41 N 0.40709 0.93234 0.68958
 N42 N 0.36062 0.93731 0.68178
 C43 C 0.34211 0.96385 0.71302
 C44 C 0.37904 0.97602 0.74202
 C45 C 0.41992 0.95611 0.72532
 H46 H 0.30461 0.97368 0.71445
 H47 H 0.45640 0.95883 0.73805
 N48 N 0.30701 0.89146 0.57032
 N49 N 0.33629 0.87295 0.54160
 C50 C 0.31197 0.86564 0.50293
 C51 C 0.26482 0.87958 0.50764
 C52 C 0.26308 0.89650 0.55048
 H53 H 0.32735 0.85085 0.47363
 H54 H 0.23204 0.91114 0.56601
 H55 H 0.38843 0.91390 0.59404
 H56 H 0.37732 0.85814 0.61928
 N57 N 0.93888 0.67994 0.39360
 N58 N 0.93399 0.68460 0.34957
 C59 C 0.95708 0.72096 0.33600
 C60 C 0.97778 0.74009 0.37364
 C61 C 0.96691 0.71184 0.40928
 H62 H 0.95838 0.73274 0.30136
 H63 H 0.97783 0.71430 0.44432
 Cu64 Cu 0.90018 0.64103 0.31444
 Cu65 Cu 0.90310 0.63698 0.42815
 Cu66 Cu 0.81804 0.58162 0.36720
 N67 N 0.87385 0.58840 0.28745
 N68 N 0.84270 0.56472 0.30936
 C69 C 0.83113 0.52969 0.28505
 C70 C 0.85514 0.53181 0.24481
 C71 C 0.88272 0.56928 0.24783
 H72 H 0.80760 0.50405 0.29644
 H73 H 0.90758 0.58146 0.22330
 N74 N 0.81380 0.58945 0.43203
 N75 N 0.84709 0.60923 0.45595
 C76 C 0.83124 0.61429 0.49810
 C77 C 0.78595 0.59667 0.50057
 C78 C 0.77610 0.58132 0.45800
 H79 H 0.84914 0.63321 0.52366
 H80 H 0.74251 0.56820 0.44598
 H81 H 0.88802 0.59128 0.37917
 H82 H 0.84990 0.64302 0.37996
 N83 N 0.57356 0.28980 -0.13398
 N84 N 0.54201 0.31221 -0.15982
 C85 C 0.50226 0.28825 -0.16497
 C86 C 0.50924 0.24896 -0.14060
 C87 C 0.55517 0.25067 -0.12210
 H88 H 0.47005 0.29922 -0.18350
 H89 H 0.57301 0.22614 -0.09995
 Cu90 Cu 0.55505 0.37167 -0.18181
 Cu91 Cu 0.63352 0.31558 -0.11322
 Cu92 Cu 0.62647 0.42938 -0.11434
 N93 N 0.57805 0.42918 -0.20089
 N94 N 0.60597 0.45187 -0.17419
 C95 C 0.61954 0.48856 -0.19642
 C96 C 0.59978 0.48856 -0.23965
 C97 C 0.57265 0.45082 -0.24096
 H98 H 0.64373 0.51251 -0.18278
 H99 H 0.55143 0.43943 -0.26917
 N100 N 0.66710 0.39469 -0.07094
 N101 N 0.67449 0.35180 -0.07452
 C102 C 0.70814 0.33801 -0.04369
 C103 C 0.72085 0.37362 -0.01772
 C104 C 0.69446 0.40916 -0.03672
 H105 H 0.72189 0.30437 -0.04044
 H106 H 0.69529 0.44321 -0.02672
 H107 H 0.59077 0.36937 -0.10587
 H108 H 0.63677 0.37465 -0.15013
 C109 C -0.06401 0.34927 0.08367
 C110 C -0.08868 0.36075 0.12318
 C111 C -0.07292 0.34189 0.16474
 C112 C -0.03583 0.31027 0.16734
 C113 C -0.01351 0.29573 0.12842
 C114 C -0.02853 0.31447 0.08579
 C115 C -0.07324 0.37194 0.04214
 C116 C -0.05269 0.35742 0.00268
 C117 C -0.02240 0.32024 0.00391
 C118 C -0.01033 0.29887 0.04495
 H119 H -0.09519 0.40171 0.03988
 H120 H -0.06066 0.37485 -0.02903
 H121 H -0.00764 0.30825 -0.02701
 H122 H 0.01254 0.26969 0.04390
 H123 H -0.09092 0.35055 0.19532
 H124 H -0.02491 0.29653 0.20019
 C125 C 0.62951 0.70769 0.63589
 C126 C 0.60983 0.66615 0.62655
 C127 C 0.56193 0.66404 0.61173
 C128 C 0.53347 0.70224 0.60582
 C129 C 0.55199 0.74385 0.61456
 C130 C 0.60081 0.74698 0.62879
 C131 C 0.67709 0.71094 0.65254
 C132 C 0.69688 0.75203 0.65981
 C133 C 0.66976 0.79053 0.65061
 C134 C 0.62224 0.78822 0.63516
 H135 H 0.69926 0.68192 0.66040
 H136 H 0.73357 0.75402 0.67233
 H137 H 0.68559 0.82237 0.65557
 H138 H 0.60298 0.81901 0.62764
 H139 H 0.54672 0.63242 0.60426
 H140 H 0.49633 0.69916 0.59494
 C141 C 1.04747 0.84009 0.41529
 C142 C 1.07413 0.84981 0.37620
 C143 C 1.06407 0.82717 0.33663
 C144 C 1.03252 0.79233 0.33639
 C145 C 1.00702 0.78072 0.37489
 C146 C 1.01163 0.80722 0.41366
 C147 C 1.05319 0.86438 0.45497
 C148 C 1.02346 0.85781 0.49142
 C149 C 0.98640 0.82812 0.48860
 C150 C 0.97989 0.80366 0.44992
 H151 H 1.07893 0.89011 0.45773
 H152 H 1.02802 0.87713 0.52133
 H153 H 0.96196 0.82464 0.51618
 H154 H 0.94841 0.78371 0.44816
 H155 H 1.08316 0.83495 0.30620
 H156 H 1.02906 0.77371 0.30590
 C157 C 0.43035 0.16131 -0.08629
 C158 C 0.40927 0.14327 -0.12574
 C159 C 0.42251 0.16002 -0.16813
 C160 C 0.45412 0.19464 -0.17207
 C161 C 0.47414 0.21369 -0.13383
 C162 C 0.46160 0.19778 -0.09042
 C163 C 0.42226 0.14345 -0.04282
 C164 C 0.44095 0.16299 -0.00440
 C165 C 0.46844 0.20046 -0.00838
 C166 C 0.47887 0.21775 -0.05087
 H167 H 0.40273 0.11369 -0.03775
 H168 H 0.43401 0.14897 0.02865
 H169 H 0.48225 0.21592 0.02159
 H170 H 0.50013 0.24708 -0.05221
 H171 H 0.40720 0.14692 -0.19871
 H172 H 0.46335 0.20648 -0.20545
 C173 C 0.06589 -0.05498 0.33177
 C174 C 0.10749 -0.08238 0.33979
 C175 C 0.14662 -0.07779 0.31141
 C176 C 0.14550 -0.04648 0.27612
 C177 C 0.10484 -0.01918 0.26745
 C178 C 0.06367 -0.02484 0.29403
 C179 C 0.02665 -0.05615 0.36083
 C180 C -0.01534 -0.03153 0.35086
 C181 C -0.01904 -0.00511 0.31188
 C182 C 0.01996 -0.00169 0.28364
 H183 H 0.02811 -0.07529 0.39181
 H184 H -0.04528 -0.03324 0.37333
 H185 H -0.05212 0.01316 0.30369
 H186 H 0.01509 0.01864 0.25333
 H187 H 0.17845 -0.09866 0.31685
 H188 H 0.17717 -0.04287 0.25604
 C189 C 0.62089 0.54589 -0.35452
 C190 C 0.62336 0.59034 -0.34072
 C191 C 0.61459 0.59996 -0.29573
 C192 C 0.60643 0.56653 -0.26408
 C193 C 0.60738 0.52207 -0.27601
 C194 C 0.61576 0.51128 -0.32155
 C195 C 0.62296 0.53500 -0.40036
 C196 C 0.62528 0.49108 -0.41309
 C197 C 0.62534 0.45726 -0.38051
 C198 C 0.62065 0.46708 -0.33517
 H199 H 0.62173 0.56010 -0.42682
 H200 H 0.62749 0.48327 -0.44838
 H201 H 0.62849 0.42321 -0.39046
 H202 H 0.62187 0.43965 -0.31124
 H203 H 0.61588 0.63371 -0.28469
 H204 H 0.60002 0.57555 -0.22962
 C205 C 0.40588 1.03705 0.85140
 C206 C 0.37452 1.07409 0.84456
 C207 C 0.34319 1.07627 0.80699
 C208 C 0.34441 1.04362 0.77489
 C209 C 0.37608 1.00699 0.77998
 C210 C 0.40549 1.00236 0.81984
 C211 C 0.43674 1.03333 0.88974
 C212 C 0.46536 0.99547 0.89792
 C213 C 0.46317 0.96051 0.86852
 C214 C 0.43330 0.96360 0.83007
 H215 H 0.43853 1.05929 0.91394
 H216 H 0.48865 0.99289 0.92767
 H217 H 0.48445 0.93066 0.87571
 H218 H 0.43129 0.93483 0.80947
 H219 H 0.31867 1.10433 0.80186
 H220 H 0.32125 1.04774 0.74515
 C221 C 0.81881 0.43334 0.17488
 C222 C 0.86261 0.42386 0.15301
 C223 C 0.90137 0.45188 0.15968
 C224 C 0.89792 0.48774 0.18805
 C225 C 0.85482 0.49815 0.20916
 C226 C 0.81382 0.47271 0.19972
 C227 C 0.78001 0.40431 0.17368
 C228 C 0.73556 0.41650 0.19060
 C229 C 0.72902 0.45763 0.20950
 C230 C 0.76772 0.48554 0.21419
 H231 H 0.78371 0.37162 0.16089
 H232 H 0.70596 0.39409 0.18865
 H233 H 0.69409 0.46761 0.22136
 H234 H 0.76094 0.51743 0.22858
 H235 H 0.93494 0.44555 0.14313
 H236 H 0.92962 0.50685 0.19430
 C237 C 0.29898 0.14936 -0.09883
 C238 C 0.33192 0.11297 -0.09562
 C239 C 0.32419 0.07878 -0.06419
 C240 C 0.28879 0.08275 -0.03229
 C241 C 0.25822 0.12019 -0.03199
 C242 C 0.26114 0.15257 -0.06740
 C243 C 0.30147 0.18155 -0.13384
 C244 C 0.26763 0.21613 -0.13798
 C245 C 0.23000 0.21866 -0.10820
 C246 C 0.22627 0.18698 -0.07364
 H247 H 0.32843 0.17966 -0.15918
 H248 H 0.26992 0.24047 -0.16516
 H249 H 0.20303 0.24487 -0.11241
 H250 H 0.19486 0.18896 -0.05318
 H251 H 0.34802 0.04999 -0.06244
 H252 H 0.28668 0.05697 -0.00650
 C253 C 0.72375 0.60148 0.61441
 C254 C 0.67858 0.62043 0.59977
 C255 C 0.67142 0.63255 0.55413
 C256 C 0.70650 0.62422 0.52289
 C257 C 0.75048 0.60396 0.53604
 C258 C 0.75957 0.59239 0.58210
 C259 C 0.73467 0.59227 0.66044
 C260 C 0.77839 0.57221 0.67406
 C261 C 0.81226 0.56131 0.64229
 C262 C 0.80318 0.57135 0.59672
 H263 H 0.71030 0.60130 0.68648
 H264 H 0.78605 0.56515 0.70949
 H265 H 0.84597 0.54540 0.65306
 H266 H 0.83052 0.56230 0.57321
 H267 H 0.63745 0.64720 0.54224
 H268 H 0.69914 0.63380 0.48791
 C269 C 0.80645 0.34130 0.08274
 C270 C 0.83054 0.38184 0.08747
 C271 C 0.81600 0.41823 0.06003
 C272 C 0.78101 0.41453 0.02633
 C273 C 0.75666 0.37502 0.02043
 C274 C 0.76750 0.33865 0.05071
 C275 C 0.81751 0.30448 0.11167
 C276 C 0.79056 0.26644 0.10994
 C277 C 0.75100 0.26483 0.08071
 C278 C 0.73894 0.30074 0.05202
 H279 H 0.84554 0.30505 0.13723
 H280 H 0.79934 0.23870 0.13264
 H281 H 0.72887 0.23595 0.08096
 H282 H 0.70579 0.29895 0.03277
 H283 H 0.83347 0.44952 0.06376
 H284 H 0.77336 0.44306 0.00437
 C285 C 0.18033 0.84233 0.41266
 C286 C 0.15154 0.88137 0.40565
 C287 C 0.16200 0.91861 0.43081
 C288 C 0.19806 0.91703 0.46421
 C289 C 0.22523 0.87820 0.47343
 C290 C 0.21578 0.84003 0.44822
 C291 C 0.17574 0.80588 0.38442
 C292 C 0.20166 0.76662 0.39361
 C293 C 0.23300 0.76303 0.43079
 C294 C 0.24022 0.79931 0.45786
 H295 H 0.15342 0.80766 0.35429
 H296 H 0.19732 0.73881 0.37182
 H297 H 0.25235 0.73219 0.43832
 H298 H 0.26466 0.79481 0.48653
 H299 H 0.14083 0.94883 0.42538
 H300 H 0.20500 0.94656 0.48287
   
