data_POSCAR
  _audit_creation_date              2014-09-24
  _audit_creation_method            'ToBaCCo'
  _symmetry_space_group_name_H-M    'P1'
  _symmetry_Int_Tables_number       1
  _symmetry_cell_setting            triclinic
  loop_
  _symmetry_equiv_pos_as_xyz
 x,y,z
_cell_length_a 30.7498
_cell_length_b 25.7931
_cell_length_c 30.6281
_cell_angle_alpha 89.698200
_cell_angle_beta 88.748200
_cell_angle_gamma 85.330000
loop_
  _atom_site_label
  _atom_site_type_symbol
  _atom_site_fract_x
  _atom_site_fract_y
  _atom_site_fract_z
C1 C 0.20463 0.15454 0.25074
 N2 N 0.23996 0.13194 0.22939
 C3 C 0.25283 0.14996 0.18999
 N4 N 0.22953 0.19132 0.17117
 C5 C 0.19348 0.21409 0.19241
 N6 N 0.18147 0.19558 0.23207
 C7 C -0.18035 0.86780 0.23877
 N8 N -0.21897 0.87947 0.21932
 C9 C -0.23315 0.84820 0.18816
 N10 N -0.20828 0.80414 0.17640
 C11 C -0.16925 0.79184 0.19576
 N12 N -0.15544 0.82389 0.22678
 C13 C -0.17936 0.13203 -0.20944
 N14 N -0.21296 0.11107 -0.18822
 C15 C -0.22206 0.12191 -0.14555
 N16 N -0.19697 0.15325 -0.12387
 C17 C -0.16350 0.17492 -0.14435
 N18 N -0.15472 0.16481 -0.18751
 C19 C 0.14700 0.88999 -0.20292
 N20 N 0.12992 0.84905 -0.18200
 C21 C 0.15172 0.82549 -0.14790
 N22 N 0.19049 0.84196 -0.13620
 C23 C 0.20765 0.88214 -0.15723
 N24 N 0.18547 0.90635 -0.19011
 C25 C 0.19154 1.21865 0.74685
 N26 N 0.19325 1.26348 0.76927
 C27 C 0.21901 1.26577 0.80452
 N28 N 0.24474 1.22309 0.81604
 C29 C 0.24493 1.17816 0.79293
 N30 N 0.21756 1.17565 0.75873
 C31 C 0.84296 0.82855 0.76003
 N32 N 0.79914 0.84207 0.76395
 C33 C 0.77652 0.82764 0.80023
 N34 N 0.79787 0.79965 0.83201
 C35 C 0.84136 0.78675 0.82839
 N36 N 0.86363 0.80154 0.79255
 C37 C 0.16374 0.83599 1.23200
 N38 N 0.15037 0.80234 1.20233
 C39 C 0.17388 0.79116 1.16516
 N40 N 0.21146 0.81428 1.15755
 C41 C 0.22558 0.84850 1.18685
 N42 N 0.20156 0.85923 1.22421
 C43 C 0.81617 1.13986 1.22691
 N44 N 0.83436 1.17412 1.19955
 C45 C 0.81806 1.18380 1.15904
 N46 N 0.78309 1.15893 1.14609
 C47 C 0.76468 1.12434 1.17311
 N48 N 0.78148 1.11505 1.21336
 N49 N 0.53930 0.89342 0.90763
 N50 N 0.57297 0.88418 0.88050
 N51 N 0.45088 0.87254 0.94999
 N52 N 0.41488 0.84824 0.95382
 N53 N 0.44789 0.90640 0.91783
 N54 N 0.40979 0.90617 0.89897
 N55 N 0.54248 0.86170 0.94132
 N56 N 0.57824 0.82986 0.93778
 C57 C 0.59666 0.84405 0.89945
 C58 C 0.38982 0.86936 0.92164
 N59 N 0.45685 0.92186 1.06910
 N60 N 0.42212 0.92302 1.09590
 N61 N 0.54844 0.87126 1.03535
 N62 N 0.58244 0.83710 1.04014
 N63 N 0.54937 0.90952 1.06337
 N64 N 0.58424 0.90269 1.08765
 N65 N 0.45699 0.88208 1.04241
 N66 N 0.42288 0.85553 1.05011
 Mn67 Mn 0.50003 0.87127 0.99228
 C68 C 0.40145 0.88086 1.08351
 C69 C 0.60440 0.85726 1.07298
 N70 N 0.45069 1.01779 0.90774
 N71 N 0.41491 1.02806 0.88479
 N72 N 0.54770 1.03986 0.92583
 N73 N 0.58420 1.06146 0.91655
 N74 N 0.54179 1.00296 0.89776
 N75 N 0.57392 0.99849 0.86851
 N76 N 0.45642 1.05639 0.93420
 N77 N 0.42475 1.09348 0.93054
 Mn78 Mn 0.49453 0.95501 0.90723
 C79 C 0.39921 1.07561 0.89971
 C80 C 0.59992 1.03527 0.88058
 N81 N 0.55365 1.02029 1.05394
 N82 N 0.58720 1.02745 1.07913
 N83 N 0.46301 1.06686 1.02611
 N84 N 0.43084 1.10377 1.02886
 N85 N 0.46134 1.03425 1.05906
 N86 N 0.42785 1.04834 1.08530
 N87 N 0.55428 1.05083 1.01949
 N88 N 0.58781 1.07959 1.02039
 Mn89 Mn 0.50503 0.97156 1.06214
 Mn90 Mn 0.50571 1.05390 0.97631
 Cl91 Cl 0.50135 0.96296 0.98463
 C92 C 0.60827 1.06460 1.05756
 C93 C 0.40934 1.09196 1.06593
 N94 N 0.05887 0.44563 0.06879
 N95 N 0.07659 0.40609 0.09159
 N96 N 0.05788 0.56312 0.04749
 N97 N 0.07817 0.60466 0.05713
 N98 N 0.03119 0.55164 0.07954
 N99 N 0.03259 0.58516 0.11180
 N100 N 0.08494 0.45705 0.03610
 N101 N 0.12107 0.42546 0.03591
 C102 C 0.11540 0.39389 0.07076
 C103 C 0.06175 0.61815 0.09722
 N104 N 0.01588 0.57174 -0.07207
 N105 N 0.01144 0.61180 -0.09898
 N106 N 0.07635 0.47040 -0.05794
 N107 N 0.11335 0.44974 -0.07575
 N108 N 0.04412 0.46728 -0.08500
 N109 N 0.05807 0.44481 -0.12166
 N110 N 0.04856 0.57608 -0.04579
 N111 N 0.06729 0.61953 -0.05431
 Mn112 Mn 0.06749 0.51662 -0.00498
 C113 C 0.04331 0.64161 -0.08731
 C114 C 0.10095 0.43347 -0.11529
 N115 N -0.05886 0.52617 0.08658
 N116 N -0.07056 0.56577 0.11286
 N117 N -0.06149 0.41332 0.04864
 N118 N -0.08265 0.37215 0.05864
 N119 N -0.03080 0.41927 0.07698
 N120 N -0.03025 0.38196 0.10677
 N121 N -0.09042 0.51857 0.05964
 N122 N -0.12431 0.55226 0.06713
 Mn123 Mn 0.00013 0.48573 0.07852
 C124 C -0.11179 0.58115 0.10052
 C125 C -0.06230 0.35243 0.09453
 N126 N -0.04358 0.43943 -0.07734
 N127 N -0.04238 0.40616 -0.10993
 N128 N -0.09881 0.53052 -0.03276
 N129 N -0.13239 0.56569 -0.02829
 N130 N -0.07215 0.54413 -0.06398
 N131 N -0.08639 0.58881 -0.08130
 N132 N -0.06903 0.42502 -0.04531
 N133 N -0.08586 0.38115 -0.05534
 Mn134 Mn -0.01412 0.50570 -0.07475
 Mn135 Mn -0.08031 0.47139 0.00754
 Cl136 Cl -0.00653 0.49467 0.00169
 C137 C -0.06856 0.36984 -0.09573
 C138 C -0.12401 0.60166 -0.05895
 N139 N 0.94569 -0.05831 0.54150
 N140 N 0.93367 -0.09185 0.57151
 N141 N 0.92865 -0.01582 0.44794
 N142 N 0.90662 -0.02071 0.41165
 N143 N 0.96005 -0.05337 0.45052
 N144 N 0.96060 -0.08431 0.41657
 N145 N 0.91579 -0.01914 0.53868
 N146 N 0.88266 -0.02507 0.56554
 C147 C 0.89417 -0.07015 0.58600
 C148 C 0.92736 -0.06370 0.39258
 N149 N 0.95589 0.12960 0.45622
 N150 N 0.95572 0.15946 0.42074
 N151 N 0.91522 0.09234 0.54526
 N152 N 0.89000 0.09424 0.58107
 N153 N 0.94446 0.12659 0.54792
 N154 N 0.93964 0.15285 0.58460
 N155 N 0.92637 0.09587 0.45312
 N156 N 0.90547 0.10174 0.41622
 Mn157 Mn 0.92096 0.03853 0.49626
 C158 C 0.92365 0.14163 0.39627
 C159 C 0.90546 0.13299 0.60481
 N160 N 1.05332 -0.06111 0.46057
 N161 N 1.06467 -0.08873 0.42501
 N162 N 1.06783 -0.03314 0.55839
 N163 N 1.08574 -0.04085 0.59701
 N164 N 1.03893 -0.06696 0.55214
 N165 N 1.03664 -0.09877 0.58579
 N166 N 1.08216 -0.02744 0.46747
 N167 N 1.11372 -0.03124 0.43780
 Mn168 Mn 0.99953 -0.06066 0.50110
 C169 C 1.10276 -0.06945 0.41155
 C170 C 1.06607 -0.08225 0.61344
 N171 N 1.03774 0.11796 0.55986
 N172 N 1.04050 0.14734 0.59502
 N173 N 1.07968 0.08381 0.47064
 N174 N 1.10908 0.08898 0.43904
 N175 N 1.04891 0.12212 0.46888
 N176 N 1.05646 0.15445 0.43684
 N177 N 1.06667 0.07769 0.56162
 N178 N 1.08917 0.07776 0.59750
 Mn179 Mn 0.99665 0.12479 0.50814
 Mn180 Mn 1.07450 0.02519 0.51461
 Cl181 Cl 0.99788 0.03191 0.50502
 C182 C 1.07285 0.12114 0.61796
 C183 C 1.09402 0.13359 0.41865
 C184 C 1.19268 0.13467 0.29122
 C185 C 1.15915 0.15601 0.31498
 C186 C 1.14608 0.13291 0.35664
 C187 C 1.11270 0.15597 0.37932
 H188 H 1.14044 0.19066 0.30339
 H189 H 1.16243 0.09660 0.36787
 H190 H 1.21149 0.10055 0.30365
 H191 H 1.09651 0.19206 0.36738
 C192 C 0.83216 -0.09939 0.27154
 C193 C 0.86949 -0.10800 0.29271
 C194 C 0.87979 -0.07553 0.32994
 C195 C 0.91593 -0.08837 0.35190
 H196 H 0.89223 -0.14079 0.28376
 H197 H 0.85717 -0.04343 0.34064
 H198 H 0.80994 -0.06619 0.28067
 H199 H 0.93767 -0.12121 0.34098
 C200 C 0.82823 0.11946 0.74653
 C201 C 0.85819 0.14016 0.72120
 C202 C 0.86489 0.12434 0.67504
 C203 C 0.89239 0.14875 0.64958
 H204 H 0.87803 0.16901 0.73438
 H205 H 0.84849 0.09214 0.66236
 H206 H 0.80809 0.09166 0.73221
 H207 H 0.90858 0.18070 0.66304
 C208 C 1.12672 -0.08377 0.75909
 C209 C 1.10371 -0.10767 0.73008
 C210 C 1.09403 -0.08215 0.68778
 C211 C 1.07386 -0.10607 0.65658
 H212 H 1.09539 -0.14720 0.73590
 H213 H 1.10477 -0.04371 0.68155
 H214 H 1.13639 -0.04515 0.75155
 H215 H 1.06201 -0.14388 0.66295
 C216 C 0.28993 1.12470 1.17061
 C217 C 0.30812 1.13853 1.13291
 C218 C 0.34798 1.10838 1.11712
 C219 C 0.36960 1.12222 1.08147
 H220 H 0.29441 1.17168 1.11442
 H221 H 0.36011 1.07421 1.13533
 H222 H 0.30527 1.09167 1.18822
 H223 H 0.35785 1.15632 1.06303
 C224 C 0.24878 0.89690 0.85267
 C225 C 0.27410 0.87125 0.88186
 C226 C 0.31888 0.88462 0.88806
 C227 C 0.34499 0.85674 0.91502
 H228 H 0.26256 0.83877 0.90017
 H229 H 0.33074 0.91715 0.87006
 H230 H 0.26126 0.92887 0.83442
 H231 H 0.33301 0.82461 0.93340
 C232 C 0.72689 0.86285 1.16936
 C233 C 0.70864 0.83626 1.13824
 C234 C 0.66637 0.85714 1.12112
 C235 C 0.64606 0.83378 1.08960
 H236 H 0.72451 0.80026 1.12545
 H237 H 0.65158 0.89335 1.13463
 H238 H 0.70973 0.89873 1.18107
 H239 H 0.66029 0.79767 1.07555
 C240 C 0.74139 1.10489 0.87569
 C241 C 0.71233 1.07827 0.85562
 C242 C 0.67129 1.06883 0.87811
 C243 C 0.64150 1.04304 0.85865
 H244 H 0.71752 1.06594 0.82197
 H245 H 0.66497 1.08409 0.91079
 H246 H 0.73520 1.11665 0.90939
 H247 H 0.64807 1.02628 0.82656
 C248 C 0.16577 0.25779 0.17374
 C249 C 0.17314 0.28133 0.13554
 C250 C 0.14159 0.32393 0.12076
 C251 C 0.14771 0.35154 0.08434
 H252 H 0.20170 0.26938 0.11560
 H253 H 0.11237 0.33312 0.14062
 H254 H 0.13704 0.27115 0.19300
 H255 H 0.17695 0.34334 0.06438
 C256 C -0.13990 0.21111 -0.11874
 C257 C -0.11570 0.24690 -0.13590
 C258 C -0.10134 0.28772 -0.10728
 C259 C -0.07893 0.32594 -0.12299
 H260 H -0.10940 0.24838 -0.17083
 H261 H -0.11093 0.28778 -0.07298
 H262 H -0.14655 0.21153 -0.08379
 H263 H -0.06858 0.32576 -0.15705
 C264 C 0.13579 0.78150 -0.12309
 C265 C 0.09868 0.75987 -0.13030
 C266 C 0.08773 0.71463 -0.10359
 C267 C 0.05252 0.68943 -0.11114
 H268 H 0.07724 0.77455 -0.15596
 H269 H 0.10975 0.70064 -0.07814
 H270 H 0.15657 0.76569 -0.09724
 H271 H 0.03070 0.70279 -0.13691
 C272 C -0.14143 0.74428 0.18379
 C273 C -0.15427 0.70829 0.15667
 C274 C -0.12542 0.66154 0.14468
 C275 C -0.13923 0.62662 0.11719
 H276 H -0.18644 0.71345 0.14272
 H277 H -0.09269 0.65644 0.15731
 H278 H -0.10943 0.73864 0.19806
 H279 H -0.17186 0.63272 0.10442
 C280 C 1.16138 0.21777 0.71347
 C281 C 1.14693 0.17399 0.69861
 C282 C 1.11410 0.17501 0.66414
 C283 C 1.08975 0.13500 0.66018
 H284 H 1.15830 0.13682 0.71278
 H285 H 1.11326 0.20546 0.63956
 H286 H 1.14638 0.25464 0.70177
 H287 H 1.09270 0.10408 0.68432
 C288 C 0.86774 -0.15963 0.72317
 C289 C 0.85145 -0.13500 0.68809
 C290 C 0.88059 -0.12292 0.65121
 C291 C 0.86589 -0.09063 0.61997
 H292 H 0.81699 -0.12227 0.68696
 H293 H 0.91469 -0.13752 0.65109
 H294 H 0.90241 -0.17160 0.72330
 H295 H 0.83228 -0.07422 0.62163
 C296 C 1.13791 -0.15480 0.26981
 C297 C 1.14798 -0.12393 0.30227
 C298 C 1.11879 -0.11557 0.34112
 C299 C 1.12990 -0.08436 0.37276
 H300 H 1.17785 -0.10430 0.30027
 H301 H 1.08818 -0.13361 0.34335
 H302 H 1.10803 -0.17433 0.27280
 H303 H 1.16042 -0.06623 0.36941
 C304 C 0.83214 0.12960 0.26883
 C305 C 0.86522 0.15287 0.28647
 C306 C 0.87926 0.13825 0.33109
 C307 C 0.91104 0.16019 0.35207
 H308 H 0.88174 0.18207 0.26846
 H309 H 0.86277 0.10768 0.34731
 H310 H 0.81624 0.10099 0.28822
 H311 H 0.92795 0.19092 0.33670
 C312 C 0.21485 0.30889 -0.16790
 C313 C 0.18757 0.35030 -0.17694
 C314 C 0.16830 0.38453 -0.14228
 C315 C 0.12935 0.40915 -0.14944
 H316 H 0.17326 0.35408 -0.20900
 H317 H 0.18214 0.38380 -0.11001
 H318 H 0.23015 0.30585 -0.13632
 H319 H 0.11500 0.40666 -0.18134
 C320 C -0.16373 0.21949 0.13077
 C321 C -0.12867 0.24461 0.14068
 C322 C -0.11203 0.28412 0.11096
 C323 C -0.07700 0.30895 0.12101
 H324 H -0.11241 0.23698 0.17140
 H325 H -0.12951 0.29425 0.08135
 H326 H -0.17903 0.22721 0.09957
 H327 H -0.05966 0.29881 0.15068
 C328 C -0.13671 0.75561 -0.14084
 C329 C -0.15685 0.73146 -0.10841
 C330 C -0.13182 0.68957 -0.08546
 C331 C -0.15076 0.65024 -0.06665
 H332 H -0.19190 0.73720 -0.10314
 H333 H -0.09655 0.68687 -0.08966
 H334 H -0.10186 0.74694 -0.14624
 H335 H -0.18575 0.65188 -0.06106
 C336 C 0.15920 0.75321 0.13383
 C337 C 0.12315 0.72846 0.14163
 C338 C 0.10927 0.68829 0.11213
 C339 C 0.07555 0.66109 0.12358
 H340 H 0.10381 0.73685 0.17114
 H341 H 0.12736 0.67985 0.08188
 H342 H 0.17881 0.74459 0.10453
 H343 H 0.05831 0.66913 0.15437
 C344 C 0.27560 1.13320 0.80463
 C345 C 0.29887 1.13446 0.84100
 C346 C 0.33513 1.09588 0.85203
 C347 C 0.35938 1.10606 0.88617
 H348 H 0.29259 1.16722 0.86293
 H349 H 0.34325 1.06202 0.83177
 H350 H 0.28066 1.10056 0.78248
 H351 H 0.35081 1.14108 0.90498
 C352 C 0.26693 0.87358 1.17839
 C353 C 0.29274 0.86085 1.14354
 C354 C 0.33469 0.88376 1.13344
 C355 C 0.35928 0.86393 1.09992
 H356 H 0.28290 0.83155 1.12137
 H357 H 0.34512 0.91548 1.15263
 H358 H 0.27646 0.90222 1.20130
 H359 H 0.34773 0.83163 1.08218
 C360 C 0.72641 1.09689 1.15987
 C361 C 0.70681 1.10471 1.12141
 C362 C 0.66786 1.07755 1.10972
 C363 C 0.64802 1.08802 1.07178
 H364 H 0.71926 1.13209 1.09826
 H365 H 0.65513 1.04973 1.13229
 H366 H 0.71366 1.06965 1.18296
 H367 H 0.66104 1.11631 1.04984
 C368 C 0.72933 0.84280 0.80589
 C369 C 0.70621 0.82345 0.83894
 C370 C 0.66054 0.84191 0.84910
 C371 C 0.63997 0.82270 0.88385
 H372 H 0.72184 0.79446 0.86050
 H373 H 0.64463 0.87291 0.82972
 H374 H 0.71383 0.87109 0.78370
 H375 H 0.65643 0.79207 0.90320
   
