data_POSCAR
  _audit_creation_date              2014-09-24
  _audit_creation_method            'ToBaCCo'
  _symmetry_space_group_name_H-M    'P1'
  _symmetry_Int_Tables_number       1
  _symmetry_cell_setting            triclinic
  loop_
  _symmetry_equiv_pos_as_xyz
 x,y,z
_cell_length_a 28.2114
_cell_length_b 20.9214
_cell_length_c 20.6036
_cell_angle_alpha 90.064600
_cell_angle_beta 90.009600
_cell_angle_gamma 90.005500
loop_
  _atom_site_label
  _atom_site_type_symbol
  _atom_site_fract_x
  _atom_site_fract_y
  _atom_site_fract_z
Si1 Si 1.24999 0.25005 0.24972
 Si2 Si 0.75001 -0.24994 0.24980
 Si3 Si 0.75016 0.25012 -0.25026
 Si4 Si 1.25024 -0.25002 -0.25005
 Si5 Si 0.24977 0.25006 0.74989
 Si6 Si 0.74968 0.74985 0.74975
 Si7 Si 0.75005 0.25000 0.24979
 Si8 Si 0.24988 0.74985 0.24958
 O9 O 1.06634 0.11355 0.11531
 O10 O 1.11953 0.05384 0.05654
 C11 C 1.10904 0.09685 0.09954
 O12 O 0.93488 -0.11501 0.11585
 O13 O 0.88167 -0.05667 0.05576
 C14 C 0.89217 -0.09954 0.09880
 O15 O 1.06709 -0.11100 0.11997
 O16 O 1.12004 -0.05452 0.05782
 C17 C 1.10988 -0.09586 0.10270
 O18 O 0.93437 0.11853 0.10968
 O19 O 0.88124 0.05538 0.05464
 C20 C 0.89163 0.10105 0.09480
 Zr21 Zr 1.00045 0.08141 0.07994
 O22 O 0.99532 0.08320 0.18246
 O23 O 1.00552 0.18238 0.07792
 Zr24 Zr 1.00081 -0.07913 0.08437
 O25 O 0.99617 -0.07329 0.18683
 O26 O 1.00537 -0.17999 0.08945
 O27 O 1.04329 0.00151 0.09501
 O28 O 0.95911 0.00134 0.09406
 O29 O 0.93474 0.11280 -0.11557
 O30 O 0.88154 0.05494 -0.05512
 C31 C 0.89198 0.09769 -0.09844
 O32 O 1.06643 -0.11476 -0.11500
 O33 O 1.11966 -0.05623 -0.05499
 C34 C 1.10915 -0.09853 -0.09868
 O35 O 0.93424 -0.12034 -0.10902
 O36 O 0.88117 -0.05724 -0.05383
 C37 C 0.89151 -0.10280 -0.09412
 O38 O 1.06659 0.10707 -0.12019
 O39 O 1.11990 0.05275 -0.05644
 C40 C 1.10935 0.09275 -0.10240
 Zr41 Zr 1.00055 0.07701 -0.08339
 O42 O 0.99544 0.07295 -0.18588
 O43 O 1.00566 0.17793 -0.08685
 Zr44 Zr 1.00040 -0.08351 -0.07908
 O45 O 0.99511 -0.08620 -0.18157
 O46 O 1.00558 -0.18447 -0.07640
 Zr47 Zr 1.07184 -0.00107 0.00043
 Zr48 Zr 0.92920 -0.00100 0.00040
 O49 O 0.95901 -0.00348 -0.09322
 O50 O 1.04310 -0.00358 -0.09413
 O51 O 0.95803 0.09201 -0.00206
 O52 O 1.04185 -0.09322 0.00275
 O53 O 1.04181 0.09108 -0.00197
 O54 O 0.95813 -0.09403 0.00301
 H55 H 0.93782 0.00221 0.13231
 H56 H 1.06283 -0.13119 0.00337
 H57 H 0.93776 -0.00426 -0.13152
 H58 H 1.06282 0.12904 -0.00279
 H59 H 0.98118 -0.19763 0.05968
 H60 H 0.97871 -0.20066 -0.05035
 H61 H 1.02149 -0.06046 -0.19932
 H62 H 1.02306 0.04863 -0.20216
 H63 H 0.97980 0.19554 -0.05983
 H64 H 0.97942 0.19851 0.05039
 H65 H 1.02216 0.05814 0.19995
 H66 H 1.02520 -0.05188 0.20277
 O67 O 1.06655 0.61437 0.61490
 O68 O 1.11979 0.55604 0.55476
 C69 C 1.10927 0.59821 0.59857
 O70 O 0.93482 0.38653 0.61426
 O71 O 0.88159 0.44501 0.55438
 C72 C 0.89205 0.40198 0.59743
 O73 O 1.06662 0.39286 0.61953
 O74 O 1.11998 0.44715 0.55586
 C75 C 1.10939 0.40716 0.60181
 O76 O 0.93435 0.61988 0.60899
 O77 O 0.88126 0.55702 0.55356
 C78 C 0.89162 0.60241 0.59401
 Zr79 Zr 1.00052 0.58319 0.57890
 O80 O 0.99525 0.58545 0.68141
 O81 O 1.00569 0.68416 0.57681
 Zr82 Zr 1.00058 0.42235 0.58210
 O83 O 0.99603 0.42192 0.68468
 O84 O 1.00274 0.32143 0.57793
 O85 O 1.04305 0.50305 0.59359
 O86 O 0.95918 0.50295 0.59261
 O87 O 0.93494 0.61510 0.38360
 O88 O 0.88172 0.55709 0.44402
 C89 C 0.89223 0.59983 0.40085
 O90 O 1.06637 0.38697 0.38362
 O91 O 1.11958 0.44644 0.44274
 C92 C 1.10908 0.40357 0.39954
 O93 O 0.93461 0.38111 0.39008
 O94 O 0.88144 0.44483 0.44440
 C95 C 0.89186 0.39886 0.40457
 O96 O 1.06710 0.61057 0.37907
 O97 O 1.12011 0.55425 0.44141
 C98 C 1.10991 0.59552 0.39643
 Zr99 Zr 1.00088 0.57953 0.41546
 O100 O 0.99698 0.57503 0.31292
 O101 O 1.00557 0.68047 0.41198
 Zr102 Zr 1.00058 0.41920 0.41907
 O103 O 0.99845 0.42400 0.31665
 O104 O 1.00400 0.31818 0.41793
 Zr105 Zr 1.07191 0.50114 0.49916
 Zr106 Zr 0.92926 0.50113 0.49905
 O107 O 0.95904 0.49912 0.40537
 O108 O 1.04340 0.49898 0.40468
 O109 O 0.95822 0.59414 0.49686
 O110 O 1.04208 0.40896 0.50088
 O111 O 1.04199 0.59329 0.49711
 O112 O 0.95806 0.40825 0.50089
 H113 H 0.93807 0.50349 0.63105
 H114 H 1.06308 0.37100 0.50150
 H115 H 0.93773 0.49829 0.36713
 H116 H 1.06309 0.63115 0.49647
 H117 H 1.00299 0.30639 0.62353
 H118 H 0.98571 0.30292 0.45585
 H119 H 0.99815 0.37918 0.30104
 H120 H 1.02165 0.54469 0.29811
 H121 H 0.98024 0.69782 0.44011
 H122 H 0.97896 0.70042 0.55052
 H123 H 1.02181 0.55998 0.69906
 H124 H 1.02072 0.45124 0.70128
 O125 O 0.56540 0.11148 0.61642
 O126 O 0.61858 0.05405 0.55533
 C127 C 0.60817 0.09572 0.59982
 O128 O 0.43366 -0.11553 0.61320
 O129 O 0.38035 -0.05687 0.55362
 C130 C 0.39094 -0.09992 0.59650
 O131 O 0.56544 -0.11121 0.61745
 O132 O 0.61854 -0.05459 0.55563
 C133 C 0.60816 -0.09580 0.60043
 O134 O 0.43341 0.11700 0.61064
 O135 O 0.38020 0.05537 0.55394
 C136 C 0.39068 0.10021 0.59507
 Zr137 Zr 0.49937 0.08085 0.57951
 O138 O 0.49416 0.08281 0.68201
 O139 O 0.50466 0.18183 0.57724
 Zr140 Zr 0.49943 -0.07976 0.58152
 O141 O 0.49459 -0.07682 0.68408
 O142 O 0.50424 -0.18073 0.58372
 O143 O 0.54199 0.00068 0.59348
 O144 O 0.45792 0.00063 0.59242
 O145 O 0.43356 0.11604 0.38666
 O146 O 0.38025 0.05528 0.44397
 C147 C 0.39082 0.09971 0.40265
 O148 O 0.56524 -0.11228 0.38139
 O149 O 0.61842 -0.05495 0.44269
 C150 C 0.60797 -0.09641 0.39814
 O151 O 0.43283 -0.11881 0.38763
 O152 O 0.37977 -0.05640 0.44358
 C153 C 0.39000 -0.10172 0.40279
 O154 O 0.56550 0.11035 0.38070
 O155 O 0.61857 0.05359 0.44243
 C156 C 0.60822 0.09493 0.39776
 Zr157 Zr 0.49940 0.07848 0.41610
 O158 O 0.49413 0.07356 0.31364
 O159 O 0.50435 0.17928 0.41109
 Zr160 Zr 0.49912 -0.08215 0.41823
 O161 O 0.49377 -0.08404 0.31575
 O162 O 0.50453 -0.18310 0.42017
 Zr163 Zr 0.57063 -0.00054 0.49892
 Zr164 Zr 0.42795 -0.00062 0.49878
 O165 O 0.45776 -0.00184 0.40512
 O166 O 0.54189 -0.00197 0.40432
 O167 O 0.45692 0.09241 0.49770
 O168 O 0.54065 -0.09276 0.49989
 O169 O 0.54066 0.09161 0.49778
 O170 O 0.45675 -0.09369 0.50008
 H171 H 0.43679 0.00097 0.63084
 H172 H 0.56173 -0.13064 0.50006
 H173 H 0.43638 -0.00207 0.36696
 H174 H 0.56169 0.12956 0.49770
 H175 H 0.47853 -0.19786 0.55609
 H176 H 0.47743 -0.19960 0.44560
 H177 H 0.51911 -0.05625 0.29834
 H178 H 0.52344 0.05336 0.29706
 H179 H 0.48217 0.19692 0.44364
 H180 H 0.47681 0.19841 0.55344
 H181 H 0.51975 0.05546 0.69945
 H182 H 0.52269 -0.05365 0.70059
 O183 O 0.56524 0.61180 0.11879
 O184 O 0.61838 0.55480 0.05711
 C185 C 0.60796 0.59609 0.10185
 O186 O 0.43372 0.38329 0.11243
 O187 O 0.38052 0.44453 0.05547
 C188 C 0.39101 0.39987 0.09660
 O189 O 0.56590 0.38953 0.11821
 O190 O 0.61898 0.44706 0.05710
 C191 C 0.60864 0.40535 0.10144
 O192 O 0.43259 0.61812 0.11208
 O193 O 0.37966 0.55604 0.05542
 C194 C 0.38979 0.60115 0.09652
 Zr195 Zr 0.49910 0.58180 0.08188
 O196 O 0.49367 0.58315 0.18435
 O197 O 0.50452 0.68275 0.08059
 Zr198 Zr 0.49953 0.42099 0.08316
 O199 O 0.49423 0.42524 0.18564
 O200 O 0.50453 0.32019 0.08776
 O201 O 0.54186 0.50151 0.09542
 O202 O 0.45787 0.50132 0.09452
 O203 O 0.43385 0.61597 -0.11325
 O204 O 0.38064 0.55684 -0.05406
 C205 C 0.39116 0.60012 -0.09671
 O206 O 0.56542 0.38890 -0.11724
 O207 O 0.61855 0.44594 -0.05562
 C208 C 0.60819 0.40451 -0.10038
 O209 O 0.43298 0.38380 -0.11098
 O210 O 0.37981 0.44487 -0.05343
 C211 C 0.39024 0.40038 -0.09500
 O212 O 0.56552 0.61154 -0.11754
 O213 O 0.61848 0.55392 -0.05651
 C214 C 0.60819 0.59559 -0.10090
 Zr215 Zr 0.49959 0.58014 -0.08158
 O216 O 0.49474 0.57788 -0.18415
 O217 O 0.50448 0.68113 -0.08294
 Zr218 Zr 0.49935 0.41933 -0.08033
 O219 O 0.49409 0.41762 -0.18282
 O220 O 0.50457 0.31834 -0.07867
 Zr221 Zr 0.57056 0.50045 0.00081
 Zr222 Zr 0.42825 0.50054 0.00075
 O223 O 0.45807 0.49971 -0.09294
 O224 O 0.54200 0.49960 -0.09381
 O225 O 0.45688 0.59368 -0.00008
 O226 O 0.54069 0.40822 0.00142
 O227 O 0.54071 0.59273 0.00023
 O228 O 0.45705 0.40743 0.00147
 H229 H 0.43640 0.50143 0.13258
 H230 H 0.56179 0.37036 0.00145
 H231 H 0.43684 0.49945 -0.13126
 H232 H 0.56191 0.63051 0.00011
 H233 H 0.48258 0.30270 0.05483
 H234 H 0.47664 0.30166 -0.05512
 H235 H 0.51966 0.44505 -0.20016
 H236 H 0.52254 0.55413 -0.20075
 H237 H 0.47855 0.69808 -0.05561
 H238 H 0.47754 0.69937 0.05500
 H239 H 0.51897 0.55522 0.20161
 H240 H 0.52352 0.44538 0.20237
 C241 C 1.19193 0.16312 0.10328
 C242 C 1.18119 0.22426 0.14293
 C243 C 1.21112 0.19817 0.19935
 C244 C 1.22252 0.13736 0.16018
 C245 C 1.16726 0.16575 0.22891
 C246 C 1.13712 0.19206 0.17268
 C247 C 1.14809 0.13120 0.13347
 C248 C 1.17807 0.10467 0.18947
 H249 H 1.20213 0.16118 0.05136
 H250 H 1.18291 0.27359 0.12331
 H251 H 1.25818 0.11540 0.15564
 H252 H 1.15675 0.16592 0.28074
 H253 H 1.10194 0.21523 0.17823
 H254 H 1.17644 0.05531 0.20870
 C255 C 1.19374 0.60483 0.66230
 C256 C 1.22206 0.66259 0.63540
 C257 C 1.21124 0.69980 0.69815
 C258 C 1.18353 0.64257 0.72535
 C259 C 1.16580 0.72716 0.66769
 C260 C 1.17602 0.68953 0.60470
 C261 C 1.14830 0.63257 0.63246
 C262 C 1.13787 0.67001 0.69514
 H263 H 1.20572 0.55471 0.65884
 H264 H 1.25721 0.66015 0.61134
 H265 H 1.18696 0.62306 0.77521
 H266 H 1.15405 0.77771 0.66905
 H267 H 1.17257 0.70859 0.55467
 H268 H 1.10316 0.67335 0.72033
 C269 C 0.67752 0.18393 0.60446
 C270 C 0.66688 0.22580 0.66453
 C271 C 0.71081 0.19826 0.69880
 C272 C 0.72199 0.15661 0.63898
 C273 C 0.68073 0.14405 0.72798
 C274 C 0.63662 0.17181 0.69392
 C275 C 0.64740 0.13012 0.63410
 C276 C 0.69129 0.10194 0.66787
 H277 H 0.67583 0.20046 0.55338
 H278 H 0.65648 0.27683 0.66222
 H279 H 0.75757 0.15095 0.61671
 H280 H 0.68240 0.12715 0.77897
 H281 H 0.60149 0.17845 0.71726
 H282 H 0.70132 0.05069 0.66870
 C283 C 0.63675 0.67187 0.19554
 C284 C 0.68104 0.64405 0.22904
 C285 C 0.71091 0.69818 0.19939
 C286 C 0.66681 0.72576 0.16564
 C287 C 0.72177 0.65651 0.13954
 C288 C 0.69125 0.60192 0.16887
 C289 C 0.64719 0.63020 0.13571
 C290 C 0.67711 0.68386 0.10555
 H291 H 0.60175 0.67852 0.21925
 H292 H 0.68311 0.62714 0.28000
 H293 H 0.65639 0.77677 0.16319
 H294 H 0.75723 0.65087 0.11693
 H295 H 0.70118 0.55063 0.16957
 H296 H 0.67503 0.70024 0.05444
 C297 C 0.86326 -0.17326 0.19377
 C298 C 0.81867 -0.14464 0.22580
 C299 C 0.78919 -0.20000 0.19769
 C300 C 0.83361 -0.22842 0.16543
 C301 C 0.77851 -0.16060 0.13631
 C302 C 0.80862 -0.10478 0.16414
 C303 C 0.85299 -0.13386 0.13241
 C304 C 0.82351 -0.18879 0.10377
 H305 H 0.89816 -0.17882 0.21804
 H306 H 0.81626 -0.12596 0.27613
 H307 H 0.84427 -0.27940 0.16486
 H308 H 0.74315 -0.15604 0.11315
 H309 H 0.79859 -0.05351 0.16309
 H310 H 0.82618 -0.20729 0.05347
 C311 C 0.82337 0.31217 0.60321
 C312 C 0.83388 0.27248 0.66474
 C313 C 0.78954 0.30057 0.69756
 C314 C 0.77847 0.34005 0.63630
 C315 C 0.81906 0.35607 0.72538
 C316 C 0.86357 0.32780 0.69276
 C317 C 0.85288 0.36732 0.63149
 C318 C 0.80859 0.39602 0.66387
 H319 H 0.82571 0.29363 0.55289
 H320 H 0.84465 0.22152 0.66425
 H321 H 0.74299 0.34454 0.61347
 H322 H 0.81699 0.37453 0.77582
 H323 H 0.89861 0.32235 0.71669
 H324 H 0.79830 0.44720 0.66304
 C325 C 0.32158 -0.18836 0.60275
 C326 C 0.33258 -0.22874 0.66363
 C327 C 0.28910 -0.19993 0.69787
 C328 C 0.27751 -0.15985 0.63728
 C329 C 0.31955 -0.14538 0.72542
 C330 C 0.36323 -0.17432 0.69140
 C331 C 0.35203 -0.13413 0.63079
 C332 C 0.30860 -0.10480 0.66457
 H333 H 0.32299 -0.20631 0.55213
 H334 H 0.34280 -0.27988 0.66233
 H335 H 0.24172 -0.15450 0.61557
 H336 H 0.31822 -0.12711 0.77598
 H337 H 0.39853 -0.18073 0.71433
 H338 H 0.29884 -0.05357 0.66468
 C339 C 0.30868 0.33152 0.10036
 C340 C 0.31952 0.27216 0.14262
 C341 C 0.28883 0.30004 0.19745
 C342 C 0.27731 0.35902 0.15567
 C343 C 0.33214 0.33432 0.22646
 C344 C 0.36305 0.30622 0.17188
 C345 C 0.35196 0.36524 0.13010
 C346 C 0.32117 0.39354 0.18445
 H347 H 0.29906 0.33116 0.04817
 H348 H 0.31835 0.22208 0.12487
 H349 H 0.24152 0.38024 0.14965
 H350 H 0.34218 0.33653 0.27842
 H351 H 0.39836 0.28384 0.17895
 H352 H 0.32214 0.44377 0.20156
 C353 C 0.82343 0.18764 -0.10391
 C354 C 0.83392 0.22744 -0.16538
 C355 C 0.78949 0.19952 -0.19816
 C356 C 0.77844 0.15993 -0.13697
 C357 C 0.81889 0.14401 -0.22616
 C358 C 0.86349 0.17210 -0.19358
 C359 C 0.85282 0.13248 -0.13237
 C360 C 0.80845 0.10395 -0.16471
 H361 H 0.82587 0.20603 -0.05354
 H362 H 0.84475 0.27838 -0.16483
 H363 H 0.74299 0.15548 -0.11405
 H364 H 0.81672 0.12563 -0.27663
 H365 H 0.89849 0.17752 -0.21757
 H366 H 0.79809 0.05279 -0.16398
 C367 C 0.86331 0.67361 0.30592
 C368 C 0.81876 0.64491 0.27382
 C369 C 0.78921 0.70018 0.30193
 C370 C 0.83358 0.72868 0.33428
 C371 C 0.77855 0.66070 0.36326
 C372 C 0.80873 0.60498 0.33542
 C373 C 0.85305 0.63414 0.36723
 C374 C 0.82350 0.68897 0.39588
 H375 H 0.89821 0.67928 0.28170
 H376 H 0.81638 0.62627 0.22347
 H377 H 0.84417 0.77969 0.33491
 H378 H 0.74318 0.65605 0.38638
 H379 H 0.79876 0.55368 0.33640
 H380 H 0.82612 0.70744 0.44621
 C381 C 0.32079 0.10626 0.31499
 C382 C 0.27713 0.14111 0.34391
 C383 C 0.28875 0.19994 0.30198
 C384 C 0.33186 0.16534 0.27284
 C385 C 0.31968 0.22773 0.35662
 C386 C 0.30874 0.16851 0.39903
 C387 C 0.35181 0.13446 0.36917
 C388 C 0.36301 0.19335 0.32724
 H389 H 0.32152 0.05599 0.29797
 H390 H 0.24127 0.12014 0.35012
 H391 H 0.34175 0.16303 0.22083
 H392 H 0.31873 0.27783 0.37431
 H393 H 0.29927 0.16903 0.45127
 H394 H 0.39838 0.21549 0.31996
 C395 C 0.36333 0.67446 -0.19161
 C396 C 0.31965 0.64545 -0.22557
 C397 C 0.28918 0.69997 -0.19801
 C398 C 0.33267 0.72886 -0.16382
 C399 C 0.27766 0.65990 -0.13739
 C400 C 0.30877 0.60489 -0.16469
 C401 C 0.35221 0.63429 -0.13097
 C402 C 0.32175 0.68849 -0.10291
 H403 H 0.39861 0.68091 -0.21456
 H404 H 0.31829 0.62716 -0.27613
 H405 H 0.34286 0.78000 -0.16255
 H406 H 0.24190 0.65451 -0.11564
 H407 H 0.29906 0.55363 -0.16477
 H408 H 0.32319 0.70647 -0.05231
 C409 C 1.13779 -0.17037 -0.19518
 C410 C 1.18338 -0.14280 -0.22544
 C411 C 1.21121 -0.19993 -0.19824
 C412 C 1.16583 -0.22741 -0.16772
 C413 C 1.22201 -0.16265 -0.13552
 C414 C 1.19358 -0.10499 -0.16243
 C415 C 1.14821 -0.13286 -0.13253
 C416 C 1.17603 -0.18972 -0.10476
 H417 H 1.10306 -0.17381 -0.22033
 H418 H 1.18675 -0.12330 -0.27531
 H419 H 1.15416 -0.27800 -0.16905
 H420 H 1.25718 -0.16009 -0.11151
 H421 H 1.20546 -0.05481 -0.15902
 H422 H 1.17265 -0.20879 -0.05473
 C423 C 1.19183 0.33704 0.39603
 C424 C 1.18104 0.27599 0.35626
 C425 C 1.21115 0.30202 0.30001
 C426 C 1.22261 0.36273 0.33929
 C427 C 1.16743 0.33465 0.27029
 C428 C 1.13710 0.30839 0.32636
 C429 C 1.14813 0.36917 0.36568
 C430 C 1.17830 0.39564 0.30984
 H431 H 1.20192 0.33887 0.44800
 H432 H 1.18259 0.22663 0.37584
 H433 H 1.25832 0.38452 0.34401
 H434 H 1.15703 0.33457 0.21840
 H435 H 1.10187 0.28540 0.32062
 H436 H 1.17685 0.44500 0.29064
 C437 C 0.63670 -0.17211 0.30436
 C438 C 0.68089 -0.14413 0.27074
 C439 C 0.71090 -0.19817 0.30028
 C440 C 0.66691 -0.22591 0.33414
 C441 C 0.72180 -0.15650 0.36012
 C442 C 0.69113 -0.10199 0.33090
 C443 C 0.64718 -0.13044 0.36418
 C444 C 0.67725 -0.18401 0.39422
 H445 H 0.60166 -0.17887 0.28076
 H446 H 0.68284 -0.12720 0.21978
 H447 H 0.65656 -0.27695 0.33661
 H448 H 0.75729 -0.15075 0.38263
 H449 H 0.70096 -0.05067 0.33019
 H450 H 0.67527 -0.20045 0.44532
 C451 C 0.63667 0.32852 -0.19450
 C452 C 0.68082 0.35626 -0.22846
 C453 C 0.71085 0.30200 -0.19928
 C454 C 0.66689 0.27448 -0.16510
 C455 C 0.72202 0.34360 -0.13941
 C456 C 0.69137 0.39832 -0.16830
 C457 C 0.64744 0.37014 -0.13463
 C458 C 0.67751 0.31629 -0.10498
 H459 H 0.60156 0.32191 -0.21791
 H460 H 0.68253 0.37319 -0.27944
 H461 H 0.65643 0.22346 -0.16283
 H462 H 0.75759 0.34921 -0.11708
 H463 H 0.70145 0.44955 -0.16905
 H464 H 0.67578 0.29973 -0.05391
 C465 C 1.17865 0.18073 -0.10588
 C466 C 1.22262 0.15434 -0.14230
 C467 C 1.21068 0.19765 -0.20040
 C468 C 1.16727 0.22434 -0.16428
 C469 C 1.18019 0.14452 -0.23067
 C470 C 1.19151 0.10070 -0.17230
 C471 C 1.14815 0.12782 -0.13653
 C472 C 1.13658 0.17130 -0.19469
 H473 H 1.17755 0.19587 -0.05432
 H474 H 1.25848 0.14798 -0.12111
 H475 H 1.15698 0.27531 -0.16009
 H476 H 1.18125 0.12904 -0.28219
 H477 H 1.20169 0.04989 -0.17614
 H478 H 1.10118 0.17872 -0.21701
 C479 C 1.13820 0.69177 0.32415
 C480 C 1.18202 0.72451 0.35432
 C481 C 1.21236 0.69956 0.29756
 C482 C 1.16871 0.66654 0.26764
 C483 C 1.22412 0.63847 0.33617
 C484 C 1.19306 0.66308 0.39334
 C485 C 1.14942 0.63060 0.36273
 C486 C 1.17989 0.60525 0.30647
 H487 H 1.10289 0.71456 0.31861
 H488 H 1.18318 0.77343 0.37514
 H489 H 1.15775 0.66625 0.21601
 H490 H 1.25984 0.61672 0.34080
 H491 H 1.20305 0.66122 0.44541
 H492 H 1.17897 0.55622 0.28622
 C493 C 0.69121 0.16116 0.39493
 C494 C 0.72203 0.13601 0.33789
 C495 C 0.71082 0.19730 0.29943
 C496 C 0.68063 0.22272 0.35599
 C497 C 0.66702 0.16513 0.26917
 C498 C 0.67766 0.10357 0.30788
 C499 C 0.64745 0.12949 0.36407
 C500 C 0.63665 0.19079 0.32556
 H501 H 0.70113 0.15881 0.44697
 H502 H 0.75766 0.11398 0.34244
 H503 H 0.68226 0.27184 0.37629
 H504 H 0.65668 0.16593 0.21727
 H505 H 0.67604 0.05434 0.28796
 H506 H 0.60148 0.21399 0.32008
 C507 C 0.69119 0.66177 -0.10455
 C508 C 0.72195 0.63622 -0.16145
 C509 C 0.71061 0.69715 -0.20042
 C510 C 0.68048 0.72297 -0.14399
 C511 C 0.66681 0.66465 -0.23029
 C512 C 0.67756 0.60343 -0.19106
 C513 C 0.64742 0.62976 -0.13500
 C514 C 0.63650 0.69072 -0.17403
 H515 H 0.70118 0.65991 -0.05251
 H516 H 0.75761 0.61429 -0.15684
 H517 H 0.68206 0.77226 -0.12412
 H518 H 0.65640 0.66501 -0.28217
 H519 H 0.67596 0.55404 -0.21057
 H520 H 0.60132 0.71384 -0.17964
 C521 C 0.82262 -0.10787 -0.18373
 C522 C 0.83310 -0.16767 -0.22530
 C523 C 0.78884 -0.20054 -0.19726
 C524 C 0.77781 -0.14095 -0.15594
 C525 C 0.81841 -0.22895 -0.14159
 C526 C 0.86288 -0.19633 -0.16985
 C527 C 0.85226 -0.13675 -0.12848
 C528 C 0.80802 -0.16903 -0.09977
 H529 H 0.82468 -0.05772 -0.20098
 H530 H 0.84379 -0.16615 -0.27704
 H531 H 0.74232 -0.11861 -0.15085
 H532 H 0.81628 -0.27894 -0.12385
 H533 H 0.89789 -0.21979 -0.17598
 H534 H 0.79752 -0.16879 -0.04793
 C535 C 0.82285 0.39275 0.31516
 C536 C 0.83340 0.33267 0.27406
 C537 C 0.78928 0.29981 0.30251
 C538 C 0.77818 0.35969 0.34336
 C539 C 0.81902 0.27197 0.35830
 C540 C 0.86336 0.30459 0.32963
 C541 C 0.85267 0.36445 0.37055
 C542 C 0.80856 0.33219 0.39966
 H543 H 0.82475 0.44278 0.29749
 H544 H 0.84401 0.33378 0.22227
 H545 H 0.74265 0.38192 0.34843
 H546 H 0.81706 0.22210 0.37641
 H547 H 0.89843 0.28125 0.32355
 H548 H 0.79815 0.33285 0.45152
 C549 C 0.32077 -0.10881 0.31259
 C550 C 0.33172 -0.16906 0.27191
 C551 C 0.28747 -0.20214 0.29996
 C552 C 0.27597 -0.14204 0.34039
 C553 C 0.31702 -0.22935 0.35639
 C554 C 0.36147 -0.19654 0.32807
 C555 C 0.35049 -0.13641 0.36854
 C556 C 0.30622 -0.16888 0.39727
 H557 H 0.32242 -0.05904 0.29434
 H558 H 0.34309 -0.16746 0.22046
 H559 H 0.24043 -0.11975 0.34511
 H560 H 0.31526 -0.27893 0.37535
 H561 H 0.39660 -0.21982 0.32244
 H562 H 0.29545 -0.16813 0.44900
 C563 C 0.30553 0.39352 -0.15816
 C564 C 0.31598 0.35749 -0.22216
 C565 C 0.28869 0.29913 -0.19653
 C566 C 0.27765 0.33464 -0.13278
 C567 C 0.33439 0.27170 -0.16687
 C568 C 0.36185 0.32999 -0.19270
 C569 C 0.35119 0.36566 -0.12894
 C570 C 0.32395 0.30752 -0.10283
 H571 H 0.29344 0.44368 -0.15384
 H572 H 0.31251 0.37819 -0.27152
 H573 H 0.24251 0.33594 -0.10860
 H574 H 0.34652 0.22137 -0.16982
 H575 H 0.39655 0.32779 -0.21803
 H576 H 0.32771 0.28678 -0.05358
 C577 C 1.13819 -0.19206 0.17505
 C578 C 1.18198 -0.22486 0.14490
 C579 C 1.21236 -0.19984 0.20160
 C580 C 1.16875 -0.16677 0.23151
 C581 C 1.22412 -0.13881 0.16289
 C582 C 1.19302 -0.16349 0.10577
 C583 C 1.14941 -0.13095 0.13637
 C584 C 1.17993 -0.10553 0.19258
 H585 H 1.10287 -0.21483 0.18066
 H586 H 1.18311 -0.27380 0.12412
 H587 H 1.15784 -0.16644 0.28316
 H588 H 1.25985 -0.11710 0.15821
 H589 H 1.20299 -0.16170 0.05370
 H590 H 1.17904 -0.05644 0.21271
 C591 C 1.13654 0.32860 0.69415
 C592 C 1.16731 0.27561 0.66381
 C593 C 1.21066 0.30236 0.70006
 C594 C 1.18009 0.35544 0.73026
 C595 C 1.22264 0.34570 0.64201
 C596 C 1.17873 0.31926 0.60546
 C597 C 1.14816 0.37212 0.63604
 C598 C 1.19146 0.39929 0.67193
 H599 H 1.10112 0.32112 0.71636
 H600 H 1.15706 0.22463 0.65961
 H601 H 1.18107 0.37091 0.78179
 H602 H 1.25851 0.35213 0.62091
 H603 H 1.17770 0.30415 0.55388
 H604 H 1.20159 0.45011 0.67581
 C605 C 0.63643 -0.19104 0.67354
 C606 C 0.68039 -0.22332 0.64348
 C607 C 0.71056 -0.19750 0.69990
 C608 C 0.66678 -0.16498 0.72978
 C609 C 0.72190 -0.13657 0.66092
 C610 C 0.69110 -0.16212 0.60403
 C611 C 0.64736 -0.13010 0.63451
 C612 C 0.67754 -0.10377 0.69055
 H613 H 0.60123 -0.21412 0.67916
 H614 H 0.68195 -0.27260 0.62361
 H615 H 0.65640 -0.16534 0.78167
 H616 H 0.75757 -0.11467 0.65628
 H617 H 0.70108 -0.16024 0.55200
 H618 H 0.67597 -0.05436 0.71003
 C619 C 0.67798 0.39668 0.19153
 C620 C 0.66722 0.33513 0.23018
 C621 C 0.71103 0.30288 0.20007
 C622 C 0.72238 0.36416 0.16167
 C623 C 0.68091 0.27754 0.14339
 C624 C 0.63692 0.30953 0.17366
 C625 C 0.64785 0.37083 0.13521
 C626 C 0.69163 0.33910 0.10451
 H627 H 0.67639 0.44590 0.21149
 H628 H 0.65678 0.33434 0.28203
 H629 H 0.75805 0.38613 0.15729
 H630 H 0.68251 0.22843 0.12309
 H631 H 0.60173 0.28637 0.17903
 H632 H 0.70165 0.34144 0.05250
 C633 C 0.82263 0.10711 0.18425
 C634 C 0.83327 0.16716 0.22538
 C635 C 0.78914 0.20007 0.19700
 C636 C 0.77796 0.14024 0.15611
 C637 C 0.81885 0.22792 0.14119
 C638 C 0.86319 0.19524 0.16979
 C639 C 0.85243 0.13541 0.12884
 C640 C 0.80832 0.16775 0.09980
 H641 H 0.82451 0.05707 0.20186
 H642 H 0.84391 0.16600 0.27716
 H643 H 0.74241 0.11805 0.15107
 H644 H 0.81690 0.27780 0.12310
 H645 H 0.89827 0.21856 0.17582
 H646 H 0.79787 0.16716 0.04794
 C647 C 0.82262 0.60750 0.68348
 C648 C 0.83307 0.66730 0.72508
 C649 C 0.78889 0.70021 0.69688
 C650 C 0.77788 0.64062 0.65554
 C651 C 0.81858 0.72859 0.64132
 C652 C 0.86297 0.69591 0.66974
 C653 C 0.85238 0.63635 0.62833
 C654 C 0.80821 0.66868 0.59947
 H655 H 0.82462 0.55737 0.70081
 H656 H 0.84370 0.66583 0.77685
 H657 H 0.74239 0.61830 0.65028
 H658 H 0.81655 0.77860 0.62363
 H659 H 0.89798 0.71936 0.67605
 H660 H 0.79778 0.66846 0.54760
 C661 C 0.30608 0.10681 0.65832
 C662 C 0.31643 0.14305 0.72224
 C663 C 0.28893 0.20117 0.69648
 C664 C 0.27800 0.16545 0.63281
 C665 C 0.33452 0.22884 0.66676
 C666 C 0.36221 0.17078 0.69271
 C667 C 0.35165 0.13491 0.62904
 C668 C 0.32419 0.19280 0.60279
 H669 H 0.29420 0.05655 0.65413
 H670 H 0.31303 0.12241 0.77163
 H671 H 0.24286 0.16386 0.60863
 H672 H 0.34645 0.27927 0.66963
 H673 H 0.39692 0.17325 0.71799
 H674 H 0.32786 0.21345 0.55348
 C675 C 0.32050 0.60833 0.18658
 C676 C 0.33155 0.66857 0.22723
 C677 C 0.28734 0.70174 0.19918
 C678 C 0.27573 0.64164 0.15877
 C679 C 0.31689 0.72886 0.14273
 C680 C 0.36130 0.69597 0.17105
 C681 C 0.35023 0.63584 0.13062
 C682 C 0.30600 0.66839 0.10187
 H683 H 0.32207 0.55856 0.20484
 H684 H 0.34294 0.66696 0.27867
 H685 H 0.24016 0.61944 0.15408
 H686 H 0.31519 0.77844 0.12376
 H687 H 0.39645 0.71920 0.17668
 H688 H 0.29519 0.66762 0.05015
   
