data_POSCAR
  _audit_creation_date              2014-09-24
  _audit_creation_method            'ToBaCCo'
  _symmetry_space_group_name_H-M    'P1'
  _symmetry_Int_Tables_number       1
  _symmetry_cell_setting            triclinic
  loop_
  _symmetry_equiv_pos_as_xyz
 x,y,z
_cell_length_a 67.9185
_cell_length_b 39.9288
_cell_length_c 23.0810
_cell_angle_alpha 89.986400
_cell_angle_beta 89.892800
_cell_angle_gamma 90.133200
loop_
  _atom_site_label
  _atom_site_type_symbol
  _atom_site_fract_x
  _atom_site_fract_y
  _atom_site_fract_z
C1 C 0.74930 0.24684 0.47485
 C2 C 0.74823 0.24352 0.53361
 C3 C 0.73218 0.25984 0.56678
 C4 C 0.76316 0.22464 0.56765
 C5 C 0.76635 0.23437 0.44078
 C6 C 0.73307 0.26253 0.44148
 C7 C 0.73086 0.29481 0.56895
 C8 C 0.71563 0.31020 0.59970
 C9 C 0.70109 0.29089 0.62830
 C10 C 0.70268 0.25560 0.62585
 C11 C 0.71820 0.24036 0.59608
 C12 C 0.77120 0.23892 0.61798
 C13 C 0.78588 0.22226 0.64893
 C14 C 0.79300 0.19122 0.62967
 C15 C 0.78457 0.17641 0.58041
 C16 C 0.76949 0.19263 0.55042
 C17 C 0.76316 0.21219 0.39464
 C18 C 0.77904 0.19879 0.36406
 C19 C 0.79849 0.20746 0.37875
 C20 C 0.80162 0.23059 0.42383
 C21 C 0.78569 0.24406 0.45434
 C22 C 0.71382 0.24986 0.44512
 C23 C 0.69862 0.26463 0.41356
 C24 C 0.70241 0.29214 0.37709
 C25 C 0.72180 0.30440 0.37279
 C26 C 0.73699 0.28965 0.40458
 H27 H 0.74168 0.31017 0.54682
 H28 H 0.71521 0.33732 0.60010
 H29 H 0.69205 0.23952 0.64719
 H30 H 0.71910 0.21329 0.59489
 H31 H 0.76646 0.26337 0.63262
 H32 H 0.79212 0.23419 0.68684
 H33 H 0.76301 0.18042 0.51317
 H34 H 0.74835 0.20458 0.38323
 H35 H 0.77605 0.18123 0.32942
 H36 H 0.81638 0.23803 0.43601
 H37 H 0.78844 0.26164 0.48914
 H38 H 0.71059 0.22839 0.47223
 H39 H 0.68392 0.25434 0.41760
 H40 H 0.72527 0.32547 0.34503
 H41 H 0.75179 0.29957 0.40082
 H42 H 0.78959 0.15220 0.56529
 C43 C 0.24964 0.74658 0.47239
 C44 C 0.24876 0.74329 0.53121
 C45 C 0.23279 0.75954 0.56484
 C46 C 0.26382 0.72444 0.56488
 C47 C 0.26665 0.73424 0.43804
 C48 C 0.23330 0.76219 0.43928
 C49 C 0.23080 0.79450 0.56473
 C50 C 0.21559 0.80970 0.59586
 C51 C 0.20199 0.79016 0.62715
 C52 C 0.20414 0.75514 0.62746
 C53 C 0.21955 0.74000 0.59707
 C54 C 0.27193 0.73868 0.61514
 C55 C 0.28660 0.72197 0.64600
 C56 C 0.29367 0.69089 0.62672
 C57 C 0.28522 0.67615 0.57744
 C58 C 0.27013 0.69243 0.54754
 C59 C 0.26343 0.71198 0.39204
 C60 C 0.27929 0.69868 0.36125
 C61 C 0.29874 0.70755 0.37559
 C62 C 0.30189 0.73078 0.42048
 C63 C 0.28598 0.74415 0.45120
 C64 C 0.21401 0.74981 0.44395
 C65 C 0.19873 0.76457 0.41268
 C66 C 0.20248 0.79179 0.37551
 C67 C 0.22190 0.80374 0.37018
 C68 C 0.23716 0.78900 0.40164
 H69 H 0.24102 0.80995 0.54045
 H70 H 0.21431 0.83672 0.59470
 H71 H 0.19398 0.73945 0.65150
 H72 H 0.22097 0.71298 0.59776
 H73 H 0.26720 0.76313 0.62987
 H74 H 0.29287 0.73385 0.68393
 H75 H 0.26360 0.68024 0.51034
 H76 H 0.24862 0.70421 0.38094
 H77 H 0.27629 0.68103 0.32675
 H78 H 0.31665 0.73838 0.43238
 H79 H 0.28875 0.76181 0.48588
 H80 H 0.21080 0.72860 0.47169
 H81 H 0.18400 0.75453 0.41754
 H82 H 0.22533 0.82458 0.34186
 H83 H 0.25199 0.79872 0.39709
 H84 H 0.29019 0.65193 0.56229
 C85 C 0.24807 0.25732 -0.47017
 C86 C 0.24910 0.25403 -0.52895
 C87 C 0.26618 0.26653 -0.56305
 C88 C 0.23283 0.23830 -0.56227
 C89 C 0.23201 0.24096 -0.43688
 C90 C 0.26306 0.27621 -0.43618
 C91 C 0.26304 0.28871 -0.60915
 C92 C 0.27894 0.30217 -0.63976
 C93 C 0.29845 0.29360 -0.62515
 C94 C 0.30146 0.27033 -0.58002
 C95 C 0.28548 0.25684 -0.54955
 C96 C 0.21358 0.25072 -0.55823
 C97 C 0.19833 0.23587 -0.58959
 C98 C 0.20202 0.20841 -0.62647
 C99 C 0.22149 0.19649 -0.63111
 C100 C 0.23670 0.21136 -0.59945
 C101 C 0.23050 0.20597 -0.43512
 C102 C 0.21531 0.19059 -0.40398
 C103 C 0.20109 0.20995 -0.37462
 C104 C 0.20280 0.24516 -0.37661
 C105 C 0.21826 0.26043 -0.40680
 C106 C 0.27106 0.26194 -0.38583
 C107 C 0.28573 0.27865 -0.35477
 C108 C 0.29289 0.30974 -0.37395
 C109 C 0.28453 0.32453 -0.42328
 C110 C 0.26945 0.30824 -0.45338
 H111 H 0.24824 0.29629 -0.62053
 H112 H 0.27585 0.31970 -0.67435
 H113 H 0.31615 0.26273 -0.56759
 H114 H 0.28818 0.23922 -0.51479
 H115 H 0.21037 0.27207 -0.53089
 H116 H 0.18366 0.24610 -0.58490
 H117 H 0.25152 0.20163 -0.60354
 H118 H 0.24114 0.19061 -0.45782
 H119 H 0.21463 0.16349 -0.40373
 H120 H 0.19231 0.26107 -0.35450
 H121 H 0.21931 0.28750 -0.40764
 H122 H 0.26627 0.23746 -0.37121
 H123 H 0.29192 0.26674 -0.31681
 H124 H 0.28958 0.34876 -0.43834
 H125 H 0.26301 0.32045 -0.49066
 H126 H 0.22507 0.17557 -0.65902
 C127 C -0.25149 0.75610 -0.47041
 C128 C -0.25056 0.75266 -0.52917
 C129 C -0.23351 0.76502 -0.56352
 C130 C -0.26689 0.73687 -0.56222
 C131 C -0.26749 0.73981 -0.43685
 C132 C -0.23644 0.77506 -0.43669
 C133 C -0.23668 0.78716 -0.60966
 C134 C -0.22080 0.80058 -0.64038
 C135 C -0.20129 0.79199 -0.62586
 C136 C -0.19826 0.76873 -0.58075
 C137 C -0.21421 0.75528 -0.55016
 C138 C -0.28613 0.74932 -0.55805
 C139 C -0.30142 0.73448 -0.58931
 C140 C -0.29778 0.70703 -0.62622
 C141 C -0.27831 0.69506 -0.63094
 C142 C -0.26306 0.70990 -0.59939
 C143 C -0.26898 0.70483 -0.43485
 C144 C -0.28416 0.68950 -0.40363
 C145 C -0.29840 0.70891 -0.37444
 C146 C -0.29669 0.74412 -0.37659
 C147 C -0.28124 0.75934 -0.40686
 C148 C -0.22844 0.76095 -0.38620
 C149 C -0.21377 0.77775 -0.35528
 C150 C -0.20661 0.80880 -0.37470
 C151 C -0.21495 0.82341 -0.42422
 C152 C -0.23002 0.80703 -0.45420
 H153 H -0.25149 0.79478 -0.62093
 H154 H -0.22391 0.81811 -0.67496
 H155 H -0.18356 0.76111 -0.56841
 H156 H -0.21149 0.73768 -0.51538
 H157 H -0.28930 0.77069 -0.53073
 H158 H -0.31607 0.74476 -0.58454
 H159 H -0.24826 0.70015 -0.60358
 H160 H -0.25834 0.68944 -0.45749
 H161 H -0.28484 0.66240 -0.40324
 H162 H -0.30720 0.76006 -0.35459
 H163 H -0.28020 0.78641 -0.40789
 H164 H -0.23323 0.73652 -0.37134
 H165 H -0.20760 0.76597 -0.31717
 H166 H -0.20990 0.84760 -0.43949
 H167 H -0.23647 0.81913 -0.49158
 H168 H -0.27477 0.67412 -0.65887
 O169 O -0.02626 0.94152 0.10937
 O170 O -0.04829 0.97176 0.05530
 C171 C -0.04403 0.95007 0.09514
 O172 O 0.02897 1.06145 0.10020
 O173 O 0.05040 1.02903 0.04738
 C174 C 0.04659 1.05248 0.08463
 O175 O -0.02609 1.05822 0.11038
 O176 O -0.04821 1.02816 0.05601
 C177 C -0.04389 1.04967 0.09614
 O178 O 0.02864 0.93849 0.10061
 O179 O 0.05007 0.97075 0.04739
 C180 C 0.04625 0.94736 0.08478
 Zr181 Zr 0.00107 0.95764 0.07450
 O182 O 0.00304 0.95781 0.16602
 O183 O 0.00206 0.90455 0.07329
 Zr184 Zr 0.00113 1.04207 0.07546
 O185 O 0.00273 1.03838 0.16667
 O186 O -0.00035 1.09496 0.07841
 O187 O -0.01644 0.99983 0.08727
 O188 O 0.01838 0.99989 0.08453
 O189 O 0.02737 0.93843 -0.10009
 O190 O 0.04940 0.97123 -0.05037
 C191 C 0.04515 0.94760 -0.08678
 O192 O -0.02758 1.05778 -0.10353
 O193 O -0.04891 1.02857 -0.04501
 C194 C -0.04516 1.04946 -0.08654
 O195 O 0.02770 1.06233 -0.09869
 O196 O 0.04969 1.02925 -0.04952
 C197 C 0.04548 1.05305 -0.08562
 O198 O -0.02772 0.94317 -0.10463
 O199 O -0.04898 0.97218 -0.04586
 C200 C -0.04529 0.95150 -0.08771
 Zr201 Zr 0.00008 0.95818 -0.07169
 O202 O 0.00207 0.95832 -0.16325
 O203 O -0.00215 0.90530 -0.07099
 Zr204 Zr 0.00021 1.04284 -0.07053
 O205 O 0.00195 1.04519 -0.16201
 O206 O -0.00101 1.09558 -0.06375
 Zr207 Zr -0.02884 1.00016 0.00370
 Zr208 Zr 0.03000 1.00025 0.00004
 O209 O 0.01720 1.00056 -0.08290
 O210 O -0.01746 1.00055 -0.08143
 O211 O 0.01813 0.95147 0.00025
 O212 O -0.01655 1.04856 0.00350
 O213 O -0.01668 0.95177 0.00235
 O214 O 0.01825 1.04900 0.00142
 H215 H 0.02751 0.99984 0.11799
 H216 H -0.02542 1.06823 0.00415
 H217 H 0.02586 1.00071 -0.11749
 H218 H -0.02582 0.93243 0.00211
 H219 H 0.00738 1.10345 0.04511
 H220 H -0.00118 1.10419 -0.10400
 H221 H -0.00770 1.02893 -0.17747
 H222 H -0.00875 0.97242 -0.17810
 H223 H 0.00706 0.89705 -0.04105
 H224 H -0.01044 0.89586 0.05732
 H225 H -0.00599 0.97535 0.18048
 H226 H 0.00308 1.06169 0.18137
 O227 O 0.47375 0.44147 0.10853
 O228 O 0.45178 0.47151 0.05371
 C229 C 0.45598 0.45000 0.09393
 O230 O 0.52902 0.56124 0.09919
 O231 O 0.55035 0.52864 0.04667
 C232 C 0.54660 0.55220 0.08372
 O233 O 0.47422 0.55797 0.10875
 O234 O 0.45219 0.52774 0.05450
 C235 C 0.45645 0.54937 0.09446
 O236 O 0.52899 0.43821 0.09956
 O237 O 0.55049 0.47025 0.04600
 C238 C 0.54662 0.44700 0.08363
 Zr239 Zr 0.50121 0.45706 0.07375
 O240 O 0.50362 0.45706 0.16515
 O241 O 0.49890 0.40417 0.07330
 Zr242 Zr 0.50138 0.54156 0.07402
 O243 O 0.50292 0.53785 0.16525
 O244 O 0.49994 0.59447 0.07630
 O245 O 0.48379 0.49937 0.08622
 O246 O 0.51857 0.49931 0.08340
 O247 O 0.52781 0.43791 -0.10096
 O248 O 0.54986 0.47056 -0.05092
 C249 C 0.54561 0.44703 -0.08752
 O250 O 0.47256 0.55660 -0.10493
 O251 O 0.45126 0.52741 -0.04618
 C252 C 0.45498 0.54823 -0.08787
 O253 O 0.52784 0.56154 -0.10056
 O254 O 0.54975 0.52844 -0.05123
 C255 C 0.54558 0.55222 -0.08740
 O256 O 0.47238 0.44250 -0.10510
 O257 O 0.45117 0.47166 -0.04628
 C258 C 0.45483 0.45088 -0.08802
 Zr259 Zr 0.50033 0.45722 -0.07256
 O260 O 0.50232 0.45681 -0.16411
 O261 O 0.49766 0.40438 -0.07200
 Zr262 Zr 0.50046 0.54194 -0.07217
 O263 O 0.50218 0.54388 -0.16368
 O264 O 0.49921 0.59470 -0.06594
 Zr265 Zr 0.47154 0.49946 0.00252
 Zr266 Zr 0.53023 0.49932 -0.00111
 O267 O 0.51744 0.49957 -0.08408
 O268 O 0.48283 0.49960 -0.08269
 O269 O 0.51833 0.45048 -0.00045
 O270 O 0.48374 0.54789 0.00189
 O271 O 0.48363 0.45099 0.00155
 O272 O 0.51853 0.54812 -0.00016
 H273 H 0.52770 0.49933 0.11684
 H274 H 0.47484 0.56752 0.00232
 H275 H 0.52609 0.49964 -0.11869
 H276 H 0.47463 0.43143 0.00188
 H277 H 0.50758 0.60280 0.04270
 H278 H 0.49883 0.60315 -0.10629
 H279 H 0.49241 0.52776 -0.17892
 H280 H 0.49163 0.47115 -0.17913
 H281 H 0.50883 0.39540 -0.04944
 H282 H 0.50989 0.39542 0.04959
 H283 H 0.49457 0.47450 0.17990
 H284 H 0.50315 0.56115 0.18001
 C285 C 0.34536 0.33829 0.29072
 N286 N 0.34849 0.31543 0.33323
 N287 N 0.33336 0.30080 0.36011
 C288 C 0.31448 0.30840 0.34561
 N289 N 0.31147 0.33122 0.30278
 N290 N 0.32657 0.34585 0.27591
 C291 C 0.36196 0.35490 0.26158
 N292 N 0.35868 0.37805 0.21964
 N293 N 0.37369 0.39337 0.19340
 C294 C 0.39254 0.38613 0.20817
 N295 N 0.39583 0.36296 0.25010
 N296 N 0.38082 0.34763 0.27636
 C297 C 0.40905 0.40300 0.17904
 N298 N 0.42794 0.39561 0.19326
 N299 N 0.44290 0.41073 0.16640
 C300 C 0.43952 0.43382 0.12439
 N301 N 0.42063 0.44126 0.11027
 N302 N 0.40567 0.42614 0.13712
 C303 C -0.15443 0.83693 0.29028
 N304 N -0.15128 0.81400 0.33264
 N305 N -0.16639 0.79926 0.35941
 C306 C -0.18527 0.80684 0.34493
 N307 N -0.18831 0.82973 0.30223
 N308 N -0.17321 0.84446 0.27547
 C309 C -0.13785 0.85371 0.26137
 N310 N -0.14116 0.87703 0.21972
 N311 N -0.12618 0.89254 0.19374
 C312 C -0.10732 0.88534 0.20847
 N313 N -0.10399 0.86200 0.25010
 N314 N -0.11898 0.84648 0.27611
 C315 C -0.09084 0.90244 0.17963
 N316 N -0.07194 0.89505 0.19369
 N317 N -0.05701 0.91038 0.16705
 C318 C -0.06045 0.93368 0.12544
 N319 N -0.07935 0.94112 0.11149
 N320 N -0.09427 0.92579 0.13811
 C321 C 0.65685 0.66280 0.28249
 N322 N 0.65333 0.68897 0.31848
 N323 N 0.66798 0.70326 0.34777
 C324 C 0.68678 0.69198 0.34244
 N325 N 0.69022 0.66574 0.30624
 N326 N 0.67557 0.65144 0.27685
 C327 C 0.64060 0.64688 0.25080
 N328 N 0.64403 0.62112 0.21372
 N329 N 0.62919 0.60650 0.18564
 C330 C 0.61039 0.61708 0.19368
 N331 N 0.60699 0.64286 0.23066
 N332 N 0.62182 0.65751 0.25865
 C333 C 0.59392 0.60062 0.16385
 N334 N 0.57512 0.61024 0.17469
 N335 N 0.56008 0.59495 0.14876
 C336 C 0.56328 0.56952 0.11091
 N337 N 0.58210 0.55997 0.09982
 N338 N 0.59715 0.57524 0.12586
 C339 C 0.15671 1.16390 0.28246
 N340 N 0.15315 1.19009 0.31836
 N341 N 0.16779 1.20449 0.34755
 C342 C 0.18660 1.19330 0.34221
 N343 N 0.19008 1.16703 0.30608
 N344 N 0.17545 1.15264 0.27678
 C345 C 0.14047 1.14785 0.25093
 N346 N 0.14393 1.12209 0.21391
 N347 N 0.12910 1.10732 0.18600
 C348 C 0.11029 1.11777 0.19418
 N349 N 0.10686 1.14356 0.23112
 N350 N 0.12167 1.15834 0.25893
 C351 C 0.09384 1.10117 0.16454
 N352 N 0.07502 1.11063 0.17556
 N353 N 0.06000 1.09524 0.14974
 C354 C 0.06324 1.06985 0.11183
 N355 N 0.08207 1.06045 0.10057
 N356 N 0.09710 1.07582 0.12651
 C357 C 0.65569 0.33576 -0.28588
 N358 N 0.67037 0.35437 -0.30961
 N359 N 0.68515 0.33970 -0.33777
 C360 C 0.68604 0.30577 -0.34297
 N361 N 0.67131 0.28728 -0.31869
 N362 N 0.65641 0.30194 -0.29101
 C363 C 0.63930 0.35201 -0.25540
 N364 N 0.62245 0.33488 -0.24375
 N365 N 0.60750 0.34980 -0.21670
 C366 C 0.60894 0.38229 -0.19982
 N367 N 0.62582 0.39934 -0.21117
 N368 N 0.64069 0.38452 -0.23872
 C369 C 0.59248 0.39884 -0.17011
 N370 N 0.59532 0.42829 -0.14194
 N371 N 0.58040 0.44346 -0.11523
 C372 C 0.56206 0.42991 -0.11618
 N373 N 0.55919 0.40051 -0.14451
 N374 N 0.57416 0.38516 -0.17076
 C375 C 0.15535 0.83597 -0.28387
 N376 N 0.17172 0.85371 -0.29817
 N377 N 0.18653 0.83915 -0.32642
 C378 C 0.18560 0.80624 -0.34107
 N379 N 0.16924 0.78849 -0.32643
 N380 N 0.15436 0.80310 -0.29856
 C381 C 0.13894 0.85219 -0.25344
 N382 N 0.12125 0.83653 -0.24823
 N383 N 0.10630 0.85148 -0.22127
 C384 C 0.10853 0.88252 -0.19817
 N385 N 0.12624 0.89810 -0.20313
 N386 N 0.14115 0.88326 -0.23046
 C387 C 0.09206 0.89914 -0.16871
 N388 N 0.09511 0.92755 -0.13768
 N389 N 0.08017 0.94282 -0.11126
 C390 C 0.06160 0.93039 -0.11525
 N391 N 0.05853 0.90201 -0.14639
 N392 N 0.07350 0.88660 -0.17247
 C393 C 0.34110 0.64589 -0.28771
 N394 N 0.33860 0.64170 -0.34559
 N395 N 0.32332 0.65554 -0.37261
 C396 C 0.31010 0.67439 -0.34288
 N397 N 0.31265 0.67862 -0.28498
 N398 N 0.32779 0.66445 -0.25784
 C399 C 0.35806 0.63106 -0.25803
 N400 N 0.35793 0.62704 -0.19963
 N401 N 0.37338 0.61377 -0.17261
 C402 C 0.38962 0.60447 -0.20293
 N403 N 0.38979 0.60865 -0.26130
 N404 N 0.37425 0.62154 -0.28840
 C405 C 0.40667 0.59006 -0.17302
 N406 N 0.42467 0.58965 -0.19874
 N407 N 0.44014 0.57665 -0.17139
 C408 C 0.43810 0.56326 -0.11764
 N409 N 0.42009 0.56352 -0.09208
 N410 N 0.40468 0.57689 -0.11911
 C411 C -0.15932 1.14678 -0.28521
 N412 N -0.16187 1.14253 -0.34306
 N413 N -0.17724 1.15617 -0.36992
 C414 C -0.19050 1.17488 -0.34006
 N415 N -0.18790 1.17917 -0.28220
 N416 N -0.17267 1.16518 -0.25521
 C417 C -0.14227 1.13215 -0.25570
 N418 N -0.14232 1.12816 -0.19730
 N419 N -0.12680 1.11503 -0.17044
 C420 C -0.11058 1.10585 -0.20091
 N421 N -0.11048 1.11002 -0.25929
 N422 N -0.12609 1.12277 -0.28624
 C423 C -0.09349 1.09150 -0.17117
 N424 N -0.07551 1.09111 -0.19703
 N425 N -0.06002 1.07807 -0.16985
 C426 C -0.06202 1.06463 -0.11612
 N427 N -0.08001 1.06489 -0.09042
 N428 N -0.09544 1.07829 -0.11729
 C429 C 0.65579 0.66359 -0.28629
 N430 N 0.67057 0.64500 -0.30919
 N431 N 0.68532 0.65963 -0.33774
 C432 C 0.68602 0.69348 -0.34411
 N433 N 0.67121 0.71200 -0.32072
 N434 N 0.65635 0.69735 -0.29264
 C435 C 0.63941 0.64737 -0.25549
 N436 N 0.62254 0.66438 -0.24428
 N437 N 0.60759 0.64946 -0.21703
 C438 C 0.60905 0.61710 -0.19953
 N439 N 0.62596 0.60016 -0.21043
 N440 N 0.64084 0.61498 -0.23816
 C441 C 0.59258 0.60054 -0.16975
 N442 N 0.59536 0.57110 -0.14155
 N443 N 0.58040 0.55589 -0.11487
 C444 C 0.56208 0.56940 -0.11591
 N445 N 0.55928 0.59880 -0.14426
 N446 N 0.57428 0.61418 -0.17047
 C447 C 0.15537 1.16453 -0.28611
 N448 N 0.17012 1.14596 -0.30925
 N449 N 0.18483 1.16062 -0.33794
 C450 C 0.18553 1.19448 -0.34423
 N451 N 0.17075 1.21297 -0.32062
 N452 N 0.15592 1.19830 -0.29240
 C453 C 0.13904 1.14829 -0.25508
 N454 N 0.12219 1.16529 -0.24359
 N455 N 0.10729 1.15037 -0.21609
 C456 C 0.10878 1.11801 -0.19858
 N457 N 0.12568 1.10108 -0.20977
 N458 N 0.14050 1.11590 -0.23775
 C459 C 0.09236 1.10144 -0.16852
 N460 N 0.09519 1.07202 -0.14031
 N461 N 0.08028 1.05680 -0.11343
 C462 C 0.06195 1.07028 -0.11424
 N463 N 0.05910 1.09967 -0.14259
 N464 N 0.07406 1.11506 -0.16901
 C465 C 0.34048 0.35440 -0.28819
 N466 N 0.33801 0.35867 -0.34606
 N467 N 0.32268 0.34497 -0.37314
 C468 C 0.30936 0.32617 -0.34346
 N469 N 0.31187 0.32187 -0.28557
 N470 N 0.32707 0.33591 -0.25837
 C471 C 0.35752 0.36903 -0.25846
 N472 N 0.35742 0.37293 -0.20004
 N473 N 0.37295 0.38600 -0.17297
 C474 C 0.38923 0.39521 -0.20326
 N475 N 0.38938 0.39116 -0.26165
 N476 N 0.37376 0.37846 -0.28881
 C477 C 0.40635 0.40942 -0.17330
 N478 N 0.42435 0.40979 -0.19904
 N479 N 0.43988 0.42265 -0.17164
 C480 C 0.43791 0.43594 -0.11781
 N481 N 0.41990 0.43571 -0.09223
 N482 N 0.40442 0.42248 -0.11931
 C483 C -0.15921 0.85400 -0.28877
 N484 N -0.17260 0.83547 -0.25897
 N485 N -0.18774 0.82124 -0.28623
 C486 C -0.19019 0.82539 -0.34418
 N487 N -0.17689 0.84422 -0.37385
 N488 N -0.16162 0.85812 -0.34670
 C489 C -0.14225 0.86886 -0.25894
 N490 N -0.12600 0.87839 -0.28916
 N491 N -0.11045 0.89128 -0.26191
 C492 C -0.11068 0.89544 -0.20353
 N493 N -0.12698 0.88613 -0.17338
 N494 N -0.14243 0.87287 -0.20054
 C495 C -0.09362 0.90982 -0.17345
 N496 N -0.09563 0.92290 -0.11950
 N497 N -0.08021 0.93622 -0.09228
 C498 C -0.06217 0.93653 -0.11769
 N499 N -0.06012 0.92323 -0.17149
 N500 N -0.07560 0.91027 -0.19901
 C501 C 0.34628 0.66197 0.29005
 N502 N 0.34950 0.68488 0.33244
 N503 N 0.33443 0.69959 0.35926
 C504 C 0.31556 0.69200 0.34471
 N505 N 0.31242 0.66913 0.30210
 N506 N 0.32746 0.65442 0.27530
 C507 C 0.36281 0.64524 0.26106
 N508 N 0.35944 0.62197 0.21934
 N509 N 0.37438 0.60652 0.19327
 C510 C 0.39326 0.61375 0.20799
 N511 N 0.39665 0.63704 0.24968
 N512 N 0.38169 0.65249 0.27578
 C513 C 0.40970 0.59674 0.17906
 N514 N 0.42861 0.60415 0.19317
 N515 N 0.44352 0.58890 0.16648
 C516 C 0.44005 0.56567 0.12476
 N517 N 0.42114 0.55821 0.11076
 N518 N 0.40624 0.57346 0.13743
 C519 C -0.15396 1.16180 0.29331
 N520 N -0.15073 1.18460 0.33588
 N521 N -0.16580 1.19932 0.36270
 C522 C -0.18468 1.19185 0.34798
 N523 N -0.18782 1.16909 0.30520
 N524 N -0.17278 1.15437 0.27840
 C525 C -0.13743 1.14509 0.26421
 N526 N -0.14082 1.12195 0.22229
 N527 N -0.12589 1.10656 0.19605
 C528 C -0.10700 1.11372 0.21078
 N529 N -0.10359 1.13687 0.25269
 N530 N -0.11854 1.15227 0.27896
 C531 C -0.09057 1.09678 0.18160
 N532 N -0.07164 1.10413 0.19565
 N533 N -0.05676 1.08897 0.16869
 C534 C -0.06027 1.06588 0.12676
 N535 N -0.07919 1.05847 0.11283
 N536 N -0.09407 1.07363 0.13976
 C537 C 0.65644 0.33688 0.28364
 N538 N 0.67527 0.34765 0.27681
 N539 N 0.68988 0.33343 0.30637
 C540 C 0.68623 0.30789 0.34386
 N541 N 0.66736 0.29716 0.35047
 N542 N 0.65276 0.31138 0.32100
 C543 C 0.64026 0.35271 0.25177
 N544 N 0.62140 0.34256 0.26056
 N545 N 0.60663 0.35714 0.23240
 C546 C 0.61016 0.38237 0.19434
 N547 N 0.62902 0.39248 0.18537
 N548 N 0.64381 0.37791 0.21361
 C549 C 0.59375 0.39876 0.16434
 N550 N 0.59708 0.42372 0.12553
 N551 N 0.58209 0.43893 0.09932
 C552 C 0.56323 0.42976 0.11107
 N553 N 0.55993 0.40475 0.14974
 N554 N 0.57490 0.38952 0.17585
 C555 C 0.15631 0.83671 0.28307
 N556 N 0.17515 0.84727 0.27560
 N557 N 0.18981 0.83299 0.30482
 C558 C 0.18621 0.80758 0.34262
 N559 N 0.16733 0.79705 0.34988
 N560 N 0.15267 0.81133 0.32074
 C561 C 0.14006 0.85263 0.25154
 N562 N 0.12120 0.84263 0.26076
 N563 N 0.10639 0.85729 0.23287
 C564 C 0.10989 0.88247 0.19467
 N565 N 0.12876 0.89243 0.18528
 N566 N 0.14358 0.87778 0.21323
 C567 C 0.09345 0.89895 0.16492
 N568 N 0.09675 0.92393 0.12612
 N569 N 0.08174 0.93920 0.10011
 C570 C 0.06288 0.93006 0.11204
 N571 N 0.05961 0.90503 0.15070
 N572 N 0.07461 0.88975 0.17661
   
