data_POSCAR
  _audit_creation_date              2014-09-24
  _audit_creation_method            'ToBaCCo'
  _symmetry_space_group_name_H-M    'P1'
  _symmetry_Int_Tables_number       1
  _symmetry_cell_setting            triclinic
  loop_
  _symmetry_equiv_pos_as_xyz
 x,y,z
_cell_length_a 42.3051
_cell_length_b 43.0822
_cell_length_c 14.9891
_cell_angle_alpha 90.638700
_cell_angle_beta 90.189800
_cell_angle_gamma 120.586000
loop_
  _atom_site_label
  _atom_site_type_symbol
  _atom_site_fract_x
  _atom_site_fract_y
  _atom_site_fract_z
C1 C 0.17711 0.51358 0.53357
 C2 C 0.19564 0.52185 0.45131
 C3 C 0.23044 0.52520 0.44832
 C4 C 0.24429 0.51558 0.52195
 C5 C 0.22311 0.50340 0.59994
 C6 C 0.19052 0.50412 0.60829
 C7 C 0.28033 0.51724 0.51746
 C8 C 0.30273 0.52627 0.59453
 C9 C 0.33546 0.52545 0.59307
 C10 C 0.34653 0.51710 0.51302
 C11 C 0.32472 0.50788 0.43570
 C12 C 0.29188 0.50840 0.43778
 H13 H 0.15149 0.51324 0.53884
 H14 H 0.24602 0.53379 0.38720
 H15 H 0.23256 0.49433 0.65569
 H16 H 0.29465 0.53399 0.65529
 H17 H 0.37210 0.51701 0.51133
 H18 H 0.27474 0.50044 0.37835
 C19 C 0.48196 -0.34351 0.48883
 C20 C 0.47318 -0.33143 0.41063
 C21 C 0.47185 -0.29945 0.41560
 C22 C 0.48552 -0.27653 0.49189
 C23 C 0.50024 -0.28687 0.56280
 C24 C 0.49589 -0.32128 0.56511
 C25 C 0.48481 -0.24200 0.49893
 C26 C 0.48667 -0.22642 0.58381
 C27 C 0.48808 -0.19350 0.59258
 C28 C 0.48576 -0.17629 0.51676
 C29 C 0.48426 -0.19060 0.43128
 C30 C 0.48347 -0.22355 0.42252
 H31 H 0.47958 -0.36971 0.48897
 H32 H 0.46171 -0.29193 0.35843
 H33 H 0.51390 -0.26889 0.61889
 H34 H 0.48694 -0.23952 0.64458
 H35 H 0.48705 -0.15061 0.52428
 H36 H 0.48371 -0.23346 0.35611
 C37 C 1.33249 0.83966 0.50553
 C38 C 1.31689 0.81929 0.42656
 C39 C 1.28797 0.78338 0.43387
 C40 C 1.27476 0.76775 0.51816
 C41 C 1.29245 0.78857 0.59551
 C42 C 1.32006 0.82471 0.58966
 C43 C 1.24199 0.73049 0.52652
 C44 C 1.21980 0.72133 0.60320
 C45 C 1.19072 0.68609 0.61626
 C46 C 1.18108 0.66057 0.54667
 C47 C 1.19970 0.67031 0.46512
 C48 C 1.23149 0.70430 0.45758
 H49 H 1.35608 0.86663 0.50305
 H50 H 1.27499 0.76835 0.37321
 H51 H 1.28466 0.77708 0.66120
 H52 H 1.22530 0.74143 0.65434
 H53 H 1.15707 0.63393 0.55238
 H54 H 1.24678 0.71043 0.39628
 C55 C 0.82500 0.49632 0.51822
 C56 C 0.81604 0.50439 0.43589
 C57 C 0.78178 0.50146 0.42332
 C58 C 0.75601 0.49092 0.49394
 C59 C 0.76562 0.48125 0.57590
 C60 C 0.80019 0.48484 0.58855
 C61 C 0.72129 0.49302 0.48446
 C62 C 0.69696 0.48572 0.55729
 C63 C 0.66687 0.49130 0.55083
 C64 C 0.66148 0.50474 0.47141
 C65 C 0.68418 0.51145 0.39880
 C66 C 0.71322 0.50490 0.40404
 H67 H 0.85172 0.49900 0.52770
 H68 H 0.77699 0.50914 0.35896
 H69 H 0.74768 0.47234 0.63246
 H70 H 0.70133 0.47639 0.61945
 H71 H 0.63913 0.51014 0.46523
 H72 H 0.72948 0.51048 0.34494
 C73 C 0.49393 0.33145 0.46911
 C74 C 0.49986 0.31618 0.39310
 C75 C 0.50767 0.28855 0.40203
 C76 C 0.50528 0.27267 0.48601
 C77 C 0.49916 0.28877 0.56210
 C78 C 0.49495 0.31911 0.55444
 C79 C 0.50707 0.23857 0.49288
 C80 C 0.51036 0.22512 0.57640
 C81 C 0.50967 0.19217 0.58266
 C82 C 0.50638 0.17277 0.50377
 C83 C 0.50306 0.18531 0.42120
 C84 C 0.50304 0.21760 0.41564
 H85 H 0.48921 0.35379 0.46121
 H86 H 0.51427 0.27912 0.34194
 H87 H 0.49600 0.27707 0.62674
 H88 H 0.51394 0.24000 0.63763
 H89 H 0.50360 0.14638 0.50580
 H90 H 0.49759 0.22450 0.35076
 C91 C 0.66687 0.17554 0.51983
 C92 C 0.67907 0.18953 0.43496
 C93 C 0.71335 0.22098 0.42563
 C94 C 0.73619 0.23831 0.50075
 C95 C 0.72342 0.22340 0.58571
 C96 C 0.68904 0.19216 0.59536
 C97 C 0.77353 0.27104 0.49022
 C98 C 0.79053 0.29656 0.56081
 C99 C 0.82674 0.32603 0.55287
 C100 C 0.84499 0.33032 0.47200
 C101 C 0.82822 0.30622 0.40082
 C102 C 0.79296 0.27647 0.41001
 H103 H 0.64010 0.15152 0.52709
 H104 H 0.72148 0.23210 0.35969
 H105 H 0.74047 0.23505 0.64463
 H106 H 0.77543 0.29338 0.62110
 H107 H 0.87272 0.35285 0.46357
 H108 H 0.78154 0.25726 0.35517
 O109 O 1.03489 0.56803 0.20976
 O110 O 1.08137 0.56429 0.14149
 C111 C 1.06889 0.57654 0.20326
 O112 O 0.93335 0.40960 0.13287
 O113 O 0.89929 0.42439 0.04219
 C114 C 0.90241 0.40348 0.09870
 O115 O 1.03263 0.46185 0.19515
 O116 O 1.08022 0.51289 0.13433
 C117 C 1.06689 0.48692 0.19157
 O118 O 0.93512 0.52335 0.15465
 O119 O 0.90028 0.47828 0.05313
 C120 C 0.90389 0.50012 0.11787
 Zr121 Zr 0.98854 0.53283 0.13133
 O122 O 0.97467 0.52673 0.26812
 O123 O 0.99216 0.58355 0.12779
 Zr124 Zr 0.98724 0.45351 0.11754
 O125 O 0.97289 0.43990 0.25240
 O126 O 0.99022 0.40651 0.09632
 O127 O 1.01834 0.50752 0.15717
 O128 O 0.95546 0.47726 0.12674
 O129 O 0.95822 0.54032 -0.14883
 O130 O 0.91139 0.48686 -0.09558
 C131 C 0.92390 0.51546 -0.14414
 O132 O 1.05789 0.47896 -0.13384
 O133 O 1.09229 0.52178 -0.02693
 C134 C 1.08902 0.50282 -0.09790
 O135 O 0.95604 0.42577 -0.16930
 O136 O 0.91050 0.43230 -0.10512
 C137 C 0.92202 0.41726 -0.16157
 O138 O 1.05982 0.58349 -0.11977
 O139 O 1.09320 0.57135 -0.01970
 C140 C 1.09063 0.58887 -0.08646
 Zr141 Zr 1.00515 0.54465 -0.08671
 O142 O 1.01093 0.55372 -0.22555
 O143 O 1.01053 0.59591 -0.06717
 Zr144 Zr 1.00372 0.46519 -0.10045
 O145 O 1.00966 0.46817 -0.24079
 O146 O 1.00671 0.41759 -0.10004
 Zr147 Zr 1.05052 0.52514 0.04115
 Zr148 Zr 0.94199 0.47308 -0.00975
 O149 O 0.97445 0.49087 -0.12499
 O150 O 1.03733 0.52096 -0.09617
 O151 O 0.96425 0.52904 0.00818
 O152 O 1.02770 0.46925 0.02288
 O153 O 1.02924 0.55986 0.03825
 O154 O 0.96270 0.43773 -0.00759
 H155 H 0.93571 0.46671 0.17160
 H156 H 1.04450 0.45964 0.02793
 H157 H 0.96224 0.48597 -0.18424
 H158 H 1.04672 0.58595 0.04834
 H159 H 0.98545 0.39461 0.15493
 H160 H 0.98315 0.39799 -0.07681
 H161 H 1.02921 0.49299 -0.25484
 H162 H 1.02413 0.54192 -0.24854
 H163 H 0.98694 0.59193 -0.04360
 H164 H 0.98756 0.58864 0.18949
 H165 H 0.98937 0.51778 0.29770
 H166 H 0.98215 0.46283 0.28592
 O167 O 0.41837 0.46312 0.16872
 O168 O 0.42454 0.51120 0.09001
 C169 C 0.41054 0.48811 0.15372
 O170 O 0.58009 0.51905 0.11836
 O171 O 0.56460 0.46876 0.03268
 C172 C 0.58564 0.49363 0.08958
 O173 O 0.52924 0.56794 0.15538
 O174 O 0.47798 0.56206 0.08582
 C175 C 0.50436 0.57667 0.14483
 O176 O 0.46273 0.40806 0.13529
 O177 O 0.50923 0.41620 0.04212
 C178 C 0.48612 0.39947 0.10564
 Zr179 Zr 0.45484 0.45100 0.10146
 O180 O 0.45985 0.44710 0.24089
 O181 O 0.40277 0.40337 0.09704
 Zr182 Zr 0.53688 0.52899 0.08920
 O183 O 0.54864 0.53100 0.22704
 O184 O 0.58515 0.57985 0.07333
 O185 O 0.48157 0.50662 0.12154
 O186 O 0.51127 0.47384 0.10438
 O187 O 0.45022 0.40760 -0.17624
 O188 O 0.50283 0.41576 -0.10913
 C189 C 0.47503 0.39885 -0.16342
 O190 O 0.51439 0.56762 -0.17646
 O191 O 0.47007 0.56084 -0.07756
 C192 C 0.49022 0.57521 -0.14707
 O193 O 0.56762 0.52005 -0.18871
 O194 O 0.55930 0.46976 -0.11638
 C195 C 0.57583 0.49538 -0.17371
 O196 O 0.40624 0.46379 -0.16168
 O197 O 0.41829 0.51133 -0.06842
 C198 C 0.40009 0.48871 -0.13282
 Zr199 Zr 0.44521 0.45012 -0.11958
 O200 O 0.43438 0.44346 -0.25839
 O201 O 0.39317 0.40358 -0.09877
 Zr202 Zr 0.52683 0.52841 -0.13230
 O203 O 0.52387 0.52680 -0.27344
 O204 O 0.57541 0.57965 -0.13506
 Zr205 Zr 0.46527 0.51789 -0.00124
 Zr206 Zr 0.51666 0.46157 -0.02904
 O207 O 0.50025 0.47309 -0.15090
 O208 O 0.47014 0.50562 -0.13551
 O209 O 0.45941 0.42768 -0.01629
 O210 O 0.52245 0.55095 -0.01405
 O211 O 0.42903 0.46176 -0.00031
 O212 O 0.55355 0.51778 -0.03076
 H213 H 0.52101 0.46578 0.15350
 H214 H 0.53277 0.57740 -0.01264
 H215 H 0.50602 0.46485 -0.20722
 H216 H 0.40243 0.45271 0.00605
 H217 H 0.60391 0.57574 0.04549
 H218 H 0.59529 0.57724 -0.10731
 H219 H 0.49898 0.52153 -0.29055
 H220 H 0.45683 0.46202 -0.28792
 H221 H 0.39734 0.38444 -0.07609
 H222 H 0.39680 0.39540 0.15961
 H223 H 0.46814 0.47119 0.26745
 H224 H 0.52484 0.51952 0.25802
 O225 O 0.52391 -0.05059 0.18515
 O226 O 0.46977 -0.08661 0.10960
 C227 C 0.49420 -0.08135 0.17000
 O228 O 0.49726 0.07402 0.14879
 O229 O 0.54929 0.10279 0.06420
 C230 C 0.52639 0.10284 0.12156
 O231 O 0.43143 -0.02337 0.18314
 O232 O 0.42519 -0.07329 0.10987
 C233 C 0.41563 -0.05787 0.17046
 O234 O 0.59482 0.04621 0.16008
 O235 O 0.59461 0.08917 0.07109
 C236 C 0.60869 0.07914 0.13350
 Zr237 Zr 0.54449 -0.00030 0.12318
 O238 O 0.55157 0.00772 0.26311
 O239 O 0.58580 -0.01394 0.11375
 Zr240 Zr 0.47614 0.01908 0.11769
 O241 O 0.47927 0.02970 0.25651
 O242 O 0.43041 0.02642 0.10737
 O243 O 0.48873 -0.02084 0.14573
 O244 O 0.53204 0.04024 0.13092
 O245 O 0.58761 0.03292 -0.15469
 O246 O 0.59157 0.08268 -0.08557
 C247 C 0.60275 0.06748 -0.14263
 O248 O 0.42587 -0.03841 -0.15310
 O249 O 0.42191 -0.08039 -0.05386
 C250 C 0.41066 -0.07116 -0.12388
 O251 O 0.49142 0.06109 -0.16287
 O252 O 0.54621 0.09563 -0.08867
 C253 C 0.52210 0.09112 -0.14845
 O254 O 0.51486 -0.06449 -0.14107
 O255 O 0.46464 -0.09279 -0.05020
 C256 C 0.48492 -0.09281 -0.11466
 Zr257 Zr 0.53963 -0.00985 -0.09834
 O258 O 0.54109 -0.01333 -0.23906
 O259 O 0.57971 -0.02519 -0.08628
 Zr260 Zr 0.47124 0.00984 -0.10333
 O261 O 0.46487 0.00816 -0.24346
 O262 O 0.42604 0.01792 -0.09146
 Zr263 Zr 0.47036 -0.04803 0.02183
 Zr264 Zr 0.54538 0.05729 -0.00176
 O265 O 0.52644 0.02925 -0.12453
 O266 O 0.48326 -0.03140 -0.11179
 O267 O 0.56995 0.02536 0.00579
 O268 O 0.44655 -0.01556 0.01365
 O269 O 0.52466 -0.03759 0.01955
 O270 O 0.49125 0.04783 -0.00031
 H271 H 0.54375 0.05767 0.18111
 H272 H 0.41939 -0.02791 0.01581
 H273 H 0.53592 0.04185 -0.18169
 H274 H 0.52875 -0.05824 0.02314
 H275 H 0.43832 0.04906 0.07493
 H276 H 0.43590 0.04410 -0.08323
 H277 H 0.48133 0.00030 -0.26817
 H278 H 0.51536 -0.02614 -0.26091
 H279 H 0.60183 -0.00471 -0.05821
 H280 H 0.59415 -0.01374 0.17570
 H281 H 0.52690 -0.00537 0.28997
 H282 H 0.48601 0.01332 0.28530
 C283 C 1.17969 0.52535 0.37188
 C284 C 1.14322 0.50969 0.36042
 C285 C 1.12571 0.51095 0.27640
 C286 C 1.09052 0.48580 0.26193
 H287 H 1.12486 0.49297 0.41217
 H288 H 1.14057 0.53266 0.22996
 H289 H 1.19708 0.53791 0.31476
 H290 H 1.07699 0.46412 0.30933
 C291 C 0.46759 0.65019 0.32794
 C292 C 0.48329 0.63038 0.31111
 C293 C 0.48050 0.61156 0.22595
 C294 C 0.50673 0.60367 0.20945
 H295 H 0.50149 0.62946 0.36060
 H296 H 0.45652 0.60174 0.18311
 H297 H 0.45392 0.65529 0.27362
 H298 H 0.53038 0.61476 0.25411
 C299 C 0.33062 -0.16642 0.34154
 C300 C 0.35019 -0.13087 0.32665
 C301 C 0.37065 -0.11513 0.24385
 C302 C 0.38633 -0.07953 0.23379
 H303 H 0.35214 -0.11206 0.37790
 H304 H 0.37593 -0.13141 0.19750
 H305 H 0.32478 -0.18485 0.28571
 H306 H 0.38022 -0.06431 0.28186
 C307 C 0.84480 0.51880 0.36744
 C308 C 0.83931 0.50646 0.28329
 C309 C 0.87161 0.51627 0.22749
 C310 C 0.87010 0.49653 0.15632
 H311 H 0.81207 0.48635 0.26003
 H312 H 0.89810 0.53770 0.25173
 H313 H 0.87273 0.53671 0.39087
 H314 H 0.84379 0.47473 0.13246
 C315 C 0.49657 0.32881 0.30427
 C316 C 0.46612 0.32959 0.28387
 C317 C 0.46199 0.34973 0.21032
 C318 C 0.48827 0.37069 0.15271
 H319 H 0.44342 0.31773 0.33010
 H320 H 0.43679 0.35051 0.21167
 H321 H 0.51950 0.33874 0.25921
 H322 H 0.51330 0.36983 0.14743
 C323 C 0.65522 0.17115 0.35691
 C324 C 0.66588 0.15785 0.29007
 C325 C 0.63929 0.13480 0.22057
 C326 C 0.64061 0.10709 0.18356
 H327 H 0.69308 0.16119 0.29139
 H328 H 0.61569 0.13774 0.20762
 H329 H 0.62688 0.16465 0.35976
 H330 H 0.66193 0.10166 0.20374
 C331 C 0.50874 0.17752 -0.33298
 C332 C 0.51826 0.15257 -0.32038
 C333 C 0.50973 0.13137 -0.23857
 C334 C 0.53261 0.12071 -0.21076
 H335 H 0.53242 0.14677 -0.37211
 H336 H 0.48347 0.12177 -0.20664
 H337 H 0.50005 0.18684 -0.27576
 H338 H 0.55970 0.13241 -0.23978
 C339 C 0.64218 0.48566 -0.37979
 C340 C 0.64241 0.47423 -0.29677
 C341 C 0.61579 0.47256 -0.22984
 C342 C 0.60552 0.49734 -0.22832
 H343 H 0.66079 0.46498 -0.27726
 H344 H 0.60466 0.45085 -0.18236
 H345 H 0.62060 0.49138 -0.39534
 H346 H 0.61877 0.52019 -0.27238
 C347 C 0.84652 0.35116 -0.37812
 C348 C 0.83485 0.35122 -0.29478
 C349 C 0.85964 0.37763 -0.22631
 C350 C 0.89571 0.38926 -0.22371
 H351 H 0.80689 0.33281 -0.27540
 H352 H 0.84771 0.38679 -0.17623
 H353 H 0.87416 0.37234 -0.39386
 H354 H 0.90696 0.37808 -0.27026
 C355 C 0.49750 -0.17435 -0.32075
 C356 C 0.47784 -0.16088 -0.28691
 C357 C 0.49307 -0.13323 -0.21578
 C358 C 0.47111 -0.12656 -0.16598
 H359 H 0.45165 -0.16793 -0.31715
 H360 H 0.52264 -0.11613 -0.20963
 H361 H 0.52275 -0.16886 -0.28799
 H362 H 0.44165 -0.14485 -0.16906
 C363 C 0.35797 0.53034 -0.32645
 C364 C 0.34602 0.52621 -0.24228
 C365 C 0.36664 0.52004 -0.17234
 C366 C 0.37212 0.49221 -0.18210
 H367 H 0.32006 0.52380 -0.22543
 H368 H 0.37925 0.53943 -0.11808
 H369 H 0.38450 0.53276 -0.33743
 H370 H 0.35837 0.47316 -0.23671
 C371 C 1.17025 0.67788 -0.30471
 C372 C 1.15196 0.64462 -0.27151
 C373 C 1.12627 0.63525 -0.19718
 C374 C 1.12456 0.61254 -0.13492
 H375 H 1.15540 0.62326 -0.29970
 H376 H 1.10541 0.64272 -0.20130
 H377 H 1.17065 0.69964 -0.26660
 H378 H 1.14663 0.60676 -0.12963
 C379 C 0.81198 0.47859 -0.32373
 C380 C 0.84493 0.50314 -0.29092
 C381 C 0.86384 0.49602 -0.21834
 C382 C 0.89882 0.52095 -0.20066
 H383 H 0.86019 0.52867 -0.32502
 H384 H 0.85089 0.46999 -0.18649
 H385 H 0.79501 0.45339 -0.28991
 H386 H 0.91105 0.54636 -0.23554
 C387 C 0.49111 0.33768 -0.37234
 C388 C 0.49734 0.33395 -0.28616
 C389 C 0.49621 0.35789 -0.21624
 C390 C 0.47199 0.36918 -0.21939
 H391 H 0.50763 0.31661 -0.26677
 H392 H 0.51663 0.36726 -0.16327
 H393 H 0.48497 0.35862 -0.38770
 H394 H 0.45031 0.35795 -0.26949
 C395 C 0.67598 0.17704 -0.31538
 C396 C 0.66303 0.14215 -0.30027
 C397 C 0.64370 0.12482 -0.21756
 C398 C 0.63222 0.09002 -0.20483
 H399 H 0.66456 0.12543 -0.35281
 H400 H 0.63527 0.13921 -0.17296
 H401 H 0.67654 0.19463 -0.26239
 H402 H 0.64072 0.07617 -0.25110
 C403 C 1.17096 0.49348 -0.31113
 C404 C 1.14884 0.50548 -0.28446
 C405 C 1.12415 0.49033 -0.20819
 C406 C 1.12273 0.51232 -0.14699
 H407 H 1.14833 0.52710 -0.31941
 H408 H 1.10312 0.46204 -0.21118
 H409 H 1.17521 0.47620 -0.26669
 H410 H 1.14483 0.54021 -0.14291
 C411 C 0.50697 0.66787 -0.35829
 C412 C 0.49184 0.63325 -0.33524
 C413 C 0.50558 0.62177 -0.25998
 C414 C 0.48197 0.59845 -0.20143
 H415 H 0.46788 0.61239 -0.37052
 H416 H 0.53416 0.62906 -0.25905
 H417 H 0.52680 0.68835 -0.31281
 H418 H 0.45395 0.59298 -0.20083
 C419 C 0.33686 -0.15340 -0.32817
 C420 C 0.34628 -0.11859 -0.32401
 C421 C 0.36871 -0.09246 -0.25293
 C422 C 0.38067 -0.10011 -0.17795
 H423 H 0.33949 -0.10728 -0.38001
 H424 H 0.37809 -0.06457 -0.26795
 H425 H 0.34158 -0.16617 -0.27216
 H426 H 0.37120 -0.12771 -0.16012
 C427 C 0.48655 -0.16928 0.35196
 C428 C 0.51065 -0.13371 0.35212
 C429 C 0.51480 -0.10824 0.28217
 C430 C 0.48827 -0.11199 0.22582
 H431 H 0.52984 -0.12183 0.40757
 H432 H 0.54076 -0.08300 0.28454
 H433 H 0.46955 -0.18273 0.29387
 H434 H 0.46182 -0.13667 0.22368
 C435 C 0.33644 0.49739 0.35346
 C436 C 0.35147 0.47651 0.35774
 C437 C 0.36993 0.46950 0.28362
 C438 C 0.38506 0.49151 0.21438
 H439 H 0.35134 0.46429 0.42064
 H440 H 0.37508 0.44756 0.29311
 H441 H 0.33290 0.50711 0.29010
 H442 H 0.38139 0.51441 0.20598
 C443 C 1.18335 0.64682 0.38487
 C444 C 1.14743 0.63230 0.36759
 C445 C 1.12842 0.61029 0.28745
 C446 C 1.09348 0.60128 0.27340
 H447 H 1.13116 0.63776 0.41403
 H448 H 1.14205 0.60091 0.24301
 H449 H 1.20094 0.64432 0.33653
 H450 H 1.08099 0.61134 0.31976
 C451 C 0.49389 0.16130 0.34325
 C452 C 0.51725 0.16796 0.27651
 C453 C 0.50875 0.13870 0.21221
 C454 C 0.53437 0.13735 0.16289
 H455 H 0.54352 0.19290 0.27529
 H456 H 0.48115 0.11543 0.21303
 H457 H 0.46907 0.13508 0.34728
 H458 H 0.56199 0.16040 0.16018
 C459 C 0.67710 0.52671 0.31935
 C460 C 0.66194 0.50661 0.24613
 C461 C 0.63996 0.51536 0.18646
 C462 C 0.61616 0.49092 0.12818
 H463 H 0.66050 0.48083 0.23881
 H464 H 0.63956 0.54001 0.19887
 H465 H 0.67584 0.55103 0.32930
 H466 H 0.61656 0.46627 0.11584
 C467 C 0.84894 0.31296 0.31798
 C468 C 0.84089 0.32614 0.24685
 C469 C 0.87020 0.34789 0.18350
 C470 C 0.86856 0.37218 0.13189
 H471 H 0.81543 0.32647 0.24454
 H472 H 0.89594 0.34825 0.19003
 H473 H 0.87578 0.31558 0.32328
 H474 H 0.84294 0.37192 0.12430
   
