data_POSCAR
  _audit_creation_date              2014-09-24
  _audit_creation_method            'ToBaCCo'
  _symmetry_space_group_name_H-M    'P1'
  _symmetry_Int_Tables_number       1
  _symmetry_cell_setting            triclinic
  loop_
  _symmetry_equiv_pos_as_xyz
 x,y,z
_cell_length_a 40.8982
_cell_length_b 41.0215
_cell_length_c 57.5452
_cell_angle_alpha 89.988600
_cell_angle_beta 90.018500
_cell_angle_gamma 120.129300
loop_
  _atom_site_label
  _atom_site_type_symbol
  _atom_site_fract_x
  _atom_site_fract_y
  _atom_site_fract_z
C1 C -0.01891 0.48940 1.25051
 C2 C 0.01961 0.50867 1.25056
 C3 C 0.04169 0.52109 1.27252
 C4 C 0.04175 0.51834 1.22864
 C5 C -0.04094 0.48007 1.22855
 C6 C -0.04110 0.47664 1.27239
 C7 C 0.03604 0.54326 1.28868
 C8 C 0.05697 0.55472 1.30928
 C9 C 0.08484 0.54475 1.31435
 C10 C 0.09025 0.52258 1.29750
 C11 C 0.06915 0.51119 1.27701
 C12 C 0.06910 0.55593 1.22409
 C13 C 0.09007 0.56554 1.20355
 C14 C 0.08429 0.53765 1.18721
 C15 C 0.05723 0.49989 1.19198
 C16 C 0.03625 0.49031 1.21255
 C17 C -0.06833 0.44257 1.22380
 C18 C -0.08929 0.43329 1.20326
 C19 C -0.08348 0.46143 1.18710
 C20 C -0.05636 0.49910 1.19205
 C21 C -0.03539 0.50835 1.21263
 C22 C -0.03548 0.45413 1.28845
 C23 C -0.05660 0.44241 1.30897
 C24 C -0.08404 0.45260 1.31365
 C25 C -0.08986 0.47476 1.29738
 C26 C -0.06869 0.48654 1.27693
 H27 H 0.01564 0.55214 1.28521
 H28 H 0.05215 0.57313 1.32036
 H29 H 0.10927 0.51189 1.30023
 H30 H 0.07378 0.49384 1.26477
 H31 H 0.07400 0.57791 1.23640
 H32 H 0.11116 0.59476 1.20058
 H33 H 0.01571 0.46104 1.21593
 H34 H -0.07328 0.42040 1.23597
 H35 H -0.11043 0.40413 1.20015
 H36 H -0.05110 0.52137 1.17989
 H37 H -0.01482 0.53757 1.21615
 H38 H -0.01487 0.44552 1.28504
 H39 H -0.05191 0.42485 1.32099
 H40 H -0.11047 0.48343 1.30061
 H41 H -0.07351 0.50381 1.26473
 H42 H 0.05200 0.47782 1.17968
 C43 C 0.50992 0.49099 1.25181
 C44 C 0.49160 0.51104 1.25186
 C45 C 0.47980 0.52138 1.27376
 C46 C 0.48206 0.52350 1.22992
 C47 C 0.51927 0.47847 1.22982
 C48 C 0.52182 0.48060 1.27366
 C49 C 0.45677 0.49382 1.29003
 C50 C 0.44525 0.50405 1.31029
 C51 C 0.45620 0.54196 1.31451
 C52 C 0.47913 0.56940 1.29812
 C53 C 0.49067 0.55917 1.27793
 C54 C 0.44445 0.51349 1.22547
 C55 C 0.43485 0.52465 1.20488
 C56 C 0.46276 0.54630 1.18837
 C57 C 0.50053 0.55669 1.19298
 C58 C 0.51013 0.54558 1.21365
 C59 C 0.55682 0.48837 1.22528
 C60 C 0.56621 0.47699 1.20470
 C61 C 0.53815 0.45524 1.18829
 C62 C 0.50044 0.44501 1.19298
 C63 C 0.49105 0.45632 1.21363
 C64 C 0.54490 0.50811 1.28994
 C65 C 0.55643 0.49781 1.31017
 C66 C 0.54546 0.45988 1.31434
 C67 C 0.52251 0.43250 1.29792
 C68 C 0.51094 0.44279 1.27777
 H69 H 0.44739 0.46438 1.28690
 H70 H 0.42712 0.48222 1.32242
 H71 H 0.48844 0.59887 1.30100
 H72 H 0.50835 0.58083 1.26556
 H73 H 0.42241 0.49653 1.23784
 H74 H 0.40546 0.51585 1.20171
 H75 H 0.53945 0.55425 1.21699
 H76 H 0.57897 0.50536 1.23758
 H77 H 0.59555 0.48569 1.20148
 H78 H 0.47813 0.42776 1.18084
 H79 H 0.46177 0.44773 1.21704
 H80 H 0.55428 0.53756 1.28685
 H81 H 0.57456 0.51959 1.32233
 H82 H 0.51318 0.40301 1.30077
 H83 H 0.49322 0.42117 1.26539
 H84 H 0.52272 0.57386 1.18077
 C85 C 0.50932 1.01956 1.24786
 C86 C 0.48996 0.98116 1.24782
 C87 C 0.47779 0.95903 1.26973
 C88 C 0.48006 0.95909 1.22590
 C89 C 0.51972 1.04179 1.22598
 C90 C 0.52126 1.04152 1.26983
 C91 C 0.48849 0.93213 1.27411
 C92 C 0.47742 0.91101 1.29456
 C93 C 0.45497 0.91596 1.31132
 C94 C 0.44411 0.94306 1.30653
 C95 C 0.45517 0.96405 1.28596
 C96 C 0.50799 0.96424 1.20974
 C97 C 0.49813 0.94276 1.18937
 C98 C 0.46024 0.91543 1.18496
 C99 C 0.43245 0.91023 1.20128
 C100 C 0.44231 0.93175 1.22157
 C101 C 0.49229 1.03674 1.20953
 C102 C 0.50259 1.05821 1.18915
 C103 C 0.54071 1.08582 1.18476
 C104 C 0.56791 1.09063 1.20167
 C105 C 0.55749 1.06905 1.22193
 C106 C 0.51047 1.06834 1.27422
 C107 C 0.52136 1.08931 1.29474
 C108 C 0.54373 1.08426 1.31153
 C109 C 0.55468 1.05725 1.30671
 C110 C 0.54379 1.03641 1.28610
 H111 H 0.50610 0.92795 1.26181
 H112 H 0.48809 0.89199 1.29742
 H113 H 0.42569 0.94727 1.31805
 H114 H 0.44579 0.98405 1.28261
 H115 H 0.53741 0.98466 1.21300
 H116 H 0.52022 0.94699 1.17730
 H117 H 0.42038 0.92730 1.23386
 H118 H 0.46276 1.01646 1.21262
 H119 H 0.48008 1.05401 1.17749
 H120 H 0.59773 1.10999 1.19909
 H121 H 0.57913 1.07325 1.23439
 H122 H 0.49294 1.07259 1.26188
 H123 H 0.51065 1.10829 1.29761
 H124 H 0.57306 1.05300 1.31826
 H125 H 0.55324 1.01648 1.28273
 H126 H 0.40298 0.88975 1.19825
 C127 C 1.01971 0.50999 0.75096
 C128 C 0.98118 0.49106 0.75101
 C129 C 0.95887 0.47831 0.72916
 C130 C 0.95927 0.48183 0.77301
 C131 C 1.04176 0.51960 0.77292
 C132 C 1.04188 0.52219 0.72904
 C133 C 0.93122 0.48817 0.72472
 C134 C 0.90964 0.47606 0.70443
 C135 C 0.91509 0.45359 0.68822
 C136 C 0.94267 0.44352 0.69277
 C137 C 0.96420 0.45559 0.71313
 C138 C 0.96496 0.51016 0.78892
 C139 C 0.94444 0.50093 0.80967
 C140 C 0.91768 0.46322 0.81480
 C141 C 0.91164 0.43505 0.79862
 C142 C 0.93213 0.44430 0.77790
 C143 C 1.03628 0.49161 0.78896
 C144 C 1.05692 0.50109 0.80966
 C145 C 1.08394 0.53900 0.81488
 C146 C 1.08953 0.56676 0.79825
 C147 C 1.06886 0.55711 0.77760
 C148 C 1.06947 0.51228 0.72482
 C149 C 1.09094 0.52380 0.70448
 C150 C 1.08567 0.54595 0.68768
 C151 C 1.05779 0.55589 0.69227
 C152 C 1.03644 0.54437 0.71271
 H153 H 0.92661 0.50559 0.73691
 H154 H 0.88895 0.48466 0.70129
 H155 H 0.94709 0.42574 0.68080
 H156 H 0.98483 0.44698 0.71648
 H157 H 0.98536 0.53938 0.78528
 H158 H 0.94986 0.52322 0.82183
 H159 H 0.92710 0.42209 0.76574
 H160 H 1.01572 0.46235 0.78552
 H161 H 1.05028 0.47853 0.82183
 H162 H 1.11089 0.59601 0.80052
 H163 H 1.07391 0.57908 0.76523
 H164 H 1.07401 0.49502 0.73718
 H165 H 1.11057 0.51380 0.70177
 H166 H 1.05325 0.57402 0.68071
 H167 H 1.01593 0.55319 0.71593
 H168 H 0.89074 0.40585 0.80187
 C169 C 0.48956 0.50899 0.74741
 C170 C 0.50912 0.49016 0.74747
 C171 C 0.51941 0.47823 0.72561
 C172 C 0.52127 0.48037 0.76945
 C173 C 0.47729 0.51879 0.76932
 C174 C 0.47950 0.52102 0.72549
 C175 C 0.49177 0.45556 0.70926
 C176 C 0.50200 0.44421 0.68894
 C177 C 0.53998 0.45497 0.68475
 C178 C 0.56749 0.47746 0.70125
 C179 C 0.55726 0.48884 0.72150
 C180 C 0.51076 0.44274 0.77388
 C181 C 0.52186 0.43294 0.79443
 C182 C 0.54397 0.46065 0.81091
 C183 C 0.55479 0.49843 0.80633
 C184 C 0.54373 0.50823 0.78571
 C185 C 0.48785 0.55643 0.77374
 C186 C 0.47675 0.56625 0.79427
 C187 C 0.45460 0.53855 0.81074
 C188 C 0.44369 0.50075 0.80616
 C189 C 0.45475 0.49092 0.78557
 C190 C 0.50732 0.54379 0.70927
 C191 C 0.49732 0.55534 0.68892
 C192 C 0.45939 0.54467 0.68457
 C193 C 0.43170 0.52204 0.70095
 C194 C 0.44170 0.51047 0.72122
 H195 H 0.46228 0.44641 0.71235
 H196 H 0.48011 0.42642 0.67671
 H197 H 0.59702 0.48660 0.69839
 H198 H 0.57898 0.50626 0.73393
 H199 H 0.49351 0.42086 0.76152
 H200 H 0.51271 0.40356 0.79756
 H201 H 0.55280 0.53755 0.78239
 H202 H 0.50517 0.57830 0.76140
 H203 H 0.48596 0.59564 0.79741
 H204 H 0.42613 0.47872 0.81834
 H205 H 0.44566 0.46160 0.78225
 H206 H 0.53677 0.55291 0.71247
 H207 H 0.51934 0.57323 0.67681
 H208 H 0.40220 0.51296 0.69797
 H209 H 0.41985 0.49298 0.73355
 H210 H 0.57232 0.52047 0.81851
 C211 C 0.49066 -0.01955 0.75152
 C212 C 0.50901 0.01884 0.75152
 C213 C 0.51835 0.04078 0.72957
 C214 C 0.52091 0.04109 0.77339
 C215 C 0.47927 -0.04173 0.77342
 C216 C 0.48066 -0.04156 0.72957
 C217 C 0.55595 0.06829 0.72499
 C218 C 0.56538 0.08910 0.70443
 C219 C 0.53731 0.08300 0.68808
 C220 C 0.49955 0.05567 0.69281
 C221 C 0.49012 0.03491 0.71345
 C222 C 0.54415 0.03681 0.78961
 C223 C 0.55561 0.05858 0.80987
 C224 C 0.54439 0.08532 0.81413
 C225 C 0.52128 0.08960 0.79777
 C226 C 0.50979 0.06780 0.77758
 C227 C 0.45641 -0.03747 0.78984
 C228 C 0.44541 -0.05911 0.81015
 C229 C 0.45657 -0.08611 0.81448
 C230 C 0.47951 -0.09007 0.79762
 C231 C 0.49050 -0.06832 0.77742
 C232 C 0.44304 -0.06906 0.72536
 C233 C 0.43291 -0.08996 0.70482
 C234 C 0.46029 -0.08415 0.68780
 C235 C 0.49829 -0.05648 0.69243
 C236 C 0.50830 -0.03573 0.71309
 H237 H 0.57811 0.07327 0.73724
 H238 H 0.59476 0.10963 0.70116
 H239 H 0.47725 0.05078 0.68071
 H240 H 0.46081 0.01433 0.71690
 H241 H 0.55370 0.01691 0.78645
 H242 H 0.57387 0.05505 0.82198
 H243 H 0.49193 0.07158 0.76526
 H244 H 0.44662 -0.01772 0.78678
 H245 H 0.42668 -0.05558 0.82179
 H246 H 0.49048 -0.10891 0.80016
 H247 H 0.50830 -0.07191 0.76496
 H248 H 0.42125 -0.07387 0.73786
 H249 H 0.40316 -0.10947 0.70211
 H250 H 0.52092 -0.05161 0.68069
 H251 H 0.53772 -0.01525 0.71630
 H252 H 0.51176 0.10958 0.80068
 O253 O 0.39140 0.65515 0.97921
 O254 O 0.38827 0.71625 0.97236
 C255 C 0.36946 0.73241 0.96824
 O256 O 0.34113 0.72718 0.98018
 O257 O 0.27934 0.66279 0.97418
 C258 C 0.26306 0.62788 0.96981
 O259 O 0.26881 0.60470 0.98120
 O260 O 0.33273 0.60729 0.97350
 C261 C 0.36740 0.62596 0.96828
 O262 O 0.39166 0.66618 1.02556
 O263 O 0.39180 0.72893 1.01866
 C264 C 0.36824 0.73348 1.03056
 O265 O 0.33306 0.71619 1.02662
 O266 O 0.26944 0.65349 1.02064
 C267 C 0.26530 0.62523 1.03212
 O268 O 0.28237 0.60752 1.02740
 O269 O 0.34483 0.60709 1.01971
 C270 C 0.37390 0.63149 1.03061
 Cr271 Cr 0.38868 0.69054 0.99898
 Cr272 Cr 0.30681 0.68889 1.00039
 Cr273 Cr 0.30822 0.60875 1.00044
 O274 O 0.33457 0.66271 0.99994
 O275 O 0.60845 0.34471 0.97932
 O276 O 0.61187 0.28375 0.97252
 C277 C 0.63084 0.26777 0.96837
 O278 O 0.65927 0.27318 0.98029
 O279 O 0.72088 0.33774 0.97429
 C280 C 0.73701 0.37264 0.96991
 O281 O 0.73109 0.39572 0.98130
 O282 O 0.66700 0.39280 0.97363
 C283 C 0.63233 0.37397 0.96840
 O284 O 0.60830 0.33380 1.02569
 O285 O 0.60849 0.27120 1.01884
 C286 C 0.63216 0.26676 1.03072
 O287 O 0.66733 0.28415 1.02674
 O288 O 0.73077 0.34703 1.02076
 C289 C 0.73483 0.37525 1.03223
 O290 O 0.71764 0.39285 1.02751
 O291 O 0.65499 0.39295 1.01986
 C292 C 0.62596 0.36849 1.03074
 Cr293 Cr 0.61138 0.30946 0.99912
 Cr294 Cr 0.69348 0.31153 1.00050
 Cr295 Cr 0.69165 0.39147 1.00056
 O296 O 0.66550 0.33750 1.00006
 O297 O 0.66862 0.38360 0.52673
 O298 O 0.73190 0.38385 0.52082
 C299 C 0.73566 0.35953 0.53232
 O300 O 0.71832 0.32475 0.52756
 O301 O 0.65552 0.26217 0.51978
 C302 C 0.62653 0.25775 0.53063
 O303 O 0.60909 0.27499 0.52557
 O304 O 0.60972 0.33798 0.51867
 C305 C 0.63342 0.36597 0.53062
 O306 O 0.66075 0.38671 0.48028
 O307 O 0.72214 0.38341 0.47433
 C308 C 0.73807 0.36447 0.46996
 O309 O 0.73205 0.33546 0.48138
 O310 O 0.66782 0.27447 0.47358
 C311 C 0.63317 0.25875 0.46832
 O312 O 0.60936 0.26423 0.47922
 O313 O 0.61324 0.32882 0.47238
 C314 C 0.63234 0.36380 0.46830
 Cr315 Cr 0.69477 0.38231 0.50052
 Cr316 Cr 0.69242 0.30030 0.50056
 Cr317 Cr 0.61245 0.30250 0.49900
 O318 O 0.66654 0.32835 0.50003
 O319 O 0.34095 0.61490 0.51965
 O320 O 0.27955 0.61749 0.52721
 C321 C 0.26345 0.63613 0.53197
 O322 O 0.26849 0.66471 0.52049
 O323 O 0.33310 0.72621 0.52656
 C324 C 0.36821 0.74245 0.53065
 O325 O 0.39129 0.73716 0.51875
 O326 O 0.38902 0.67333 0.52558
 C327 C 0.37042 0.63862 0.53052
 O328 O 0.32936 0.61560 0.47341
 O329 O 0.26642 0.61521 0.48097
 C330 C 0.26160 0.63900 0.46957
 O331 O 0.27869 0.67391 0.47402
 O332 O 0.34159 0.73721 0.48010
 C333 C 0.36955 0.74146 0.46815
 O334 O 0.38758 0.72453 0.47240
 O335 O 0.38857 0.66231 0.47925
 C336 C 0.36413 0.63336 0.46833
 Cr337 Cr 0.30514 0.61790 0.50030
 Cr338 Cr 0.30650 0.69945 0.50028
 Cr339 Cr 0.38701 0.69832 0.49902
 O340 O 0.33288 0.67187 0.49986
 C341 C 0.42048 0.59089 0.35446
 C342 C 0.42007 0.57476 0.37595
 C343 C 0.43113 0.54758 0.37739
 C344 C 0.44270 0.53669 0.35741
 C345 C 0.44343 0.55295 0.33574
 C346 C 0.43206 0.58009 0.33449
 C347 C 0.40840 0.58634 0.39644
 C348 C 0.39853 0.59657 0.41333
 C349 C 0.38681 0.60905 0.43279
 C350 C 0.37660 0.62002 0.44915
 H351 H 0.41184 0.61184 0.35312
 H352 H 0.43098 0.53495 0.39396
 H353 H 0.45167 0.51603 0.35896
 H354 H 0.43175 0.59270 0.31802
 C355 C 0.43057 0.83770 0.35391
 C356 C 0.42198 0.85152 0.37374
 C357 C 0.42398 0.88651 0.37299
 C358 C 0.43464 0.90771 0.35249
 C359 C 0.44372 0.89437 0.33219
 C360 C 0.44130 0.85875 0.33340
 C361 C 0.41099 0.82951 0.39476
 C362 C 0.40176 0.81039 0.41207
 C363 C 0.39083 0.78720 0.43200
 C364 C 0.38128 0.76671 0.44869
 H365 H 0.42871 0.81040 0.35422
 H366 H 0.41758 0.89759 0.38833
 H367 H 0.43716 0.93522 0.35312
 H368 H 0.44615 0.84597 0.31836
 C369 C 0.11496 0.57962 0.37470
 C370 C 0.14899 0.57961 0.37617
 C371 C 0.16164 0.56799 0.35713
 C372 C 0.14048 0.55641 0.33665
 C373 C 0.10568 0.55608 0.33453
 C374 C 0.09358 0.56811 0.35426
 C375 C 0.17136 0.59190 0.39706
 C376 C 0.19084 0.60232 0.41424
 C377 C 0.21454 0.61474 0.43398
 C378 C 0.23557 0.62563 0.45046
 H379 H 0.10471 0.58829 0.38947
 H380 H 0.18829 0.56834 0.35798
 H381 H 0.15313 0.54977 0.32231
 H382 H 0.06672 0.56713 0.35478
 C383 C 0.58079 0.41058 0.35426
 C384 C 0.58091 0.42645 0.37579
 C385 C 0.56994 0.45368 0.37726
 C386 C 0.55867 0.46485 0.35726
 C387 C 0.55815 0.44879 0.33556
 C388 C 0.56951 0.42165 0.33428
 C389 C 0.59196 0.41433 0.39632
 C390 C 0.60117 0.40352 0.41323
 C391 C 0.61195 0.39020 0.43271
 C392 C 0.62121 0.37836 0.44910
 H393 H 0.58935 0.38957 0.35291
 H394 H 0.56985 0.46609 0.39387
 H395 H 0.54971 0.48551 0.35883
 H396 H 0.56997 0.40920 0.31778
 C397 C 0.57467 0.11343 0.37323
 C398 C 0.57680 0.14847 0.37402
 C399 C 0.56813 0.16235 0.35424
 C400 C 0.55730 0.14135 0.33371
 C401 C 0.55486 0.10572 0.33244
 C402 C 0.56390 0.09227 0.35272
 C403 C 0.58822 0.17055 0.39500
 C404 C 0.59798 0.18972 0.41229
 C405 C 0.60974 0.21295 0.43219
 C406 C 0.62017 0.23348 0.44888
 H407 H 0.58112 0.10230 0.38854
 H408 H 0.57010 0.18970 0.35459
 H409 H 0.55244 0.15418 0.31870
 H410 H 0.56133 0.06474 0.35331
 C411 C 0.83312 0.41671 0.35529
 C412 C 0.85028 0.41748 0.37647
 C413 C 0.88887 0.42928 0.37715
 C414 C 0.91026 0.44047 0.35670
 C415 C 0.89328 0.44005 0.33534
 C416 C 0.85442 0.42790 0.33486
 C417 C 0.82812 0.40639 0.39744
 C418 C 0.80876 0.39704 0.41467
 C419 C 0.78514 0.38595 0.43442
 C420 C 0.76413 0.37628 0.45089
 H421 H 0.80324 0.40750 0.35456
 H422 H 0.90245 0.43006 0.39347
 H423 H 0.94019 0.45008 0.35765
 H424 H 0.84043 0.42674 0.31865
 C425 C 0.54214 0.43344 1.12454
 C426 C 0.56882 0.42159 1.12500
 C427 C 0.58508 0.42031 1.14613
 C428 C 0.57493 0.43103 1.16670
 C429 C 0.54832 0.44320 1.16644
 C430 C 0.53190 0.44415 1.14513
 C431 C 0.57980 0.41083 1.10389
 C432 C 0.58962 0.40163 1.08654
 C433 C 0.60176 0.39056 1.06663
 C434 C 0.61258 0.38074 1.05001
 H435 H 0.52943 0.43459 1.10827
 H436 H 0.60565 0.41105 1.14670
 H437 H 0.58765 0.42946 1.18286
 H438 H 0.51166 0.45379 1.14434
 C439 C 0.85768 0.46391 1.13680
 C440 C 0.84971 0.43113 1.12471
 C441 C 0.86417 0.40867 1.13273
 C442 C 0.88621 0.41872 1.15288
 C443 C 0.89407 0.45141 1.16531
 C444 C 0.87975 0.47404 1.15696
 C445 C 0.82596 0.41999 1.10439
 C446 C 0.80567 0.41024 1.08756
 C447 C 0.78147 0.39840 1.06806
 C448 C 0.76040 0.38798 1.05159
 H449 H 0.84649 0.48142 1.13080
 H450 H 0.85822 0.38327 1.12348
 H451 H 0.89726 0.40102 1.15868
 H452 H 0.88494 0.49911 1.16629
 C453 C 0.59513 0.16588 1.14332
 C454 C 0.57306 0.15260 1.12328
 C455 C 0.54015 0.11732 1.12349
 C456 C 0.52933 0.09531 1.14367
 C457 C 0.55138 0.10813 1.16418
 C458 C 0.58454 0.14405 1.16351
 C459 C 0.58435 0.17547 1.10262
 C460 C 0.59449 0.19535 1.08563
 C461 C 0.60707 0.21944 1.06611
 C462 C 0.61830 0.24068 1.04976
 H463 H 0.62051 0.19339 1.14343
 H464 H 0.52293 0.10664 1.10798
 H465 H 0.50441 0.06766 1.14264
 H466 H 0.60188 0.15644 1.17874
 C467 C 0.45814 0.56722 1.12453
 C468 C 0.43139 0.57898 1.12496
 C469 C 0.41529 0.58049 1.14609
 C470 C 0.42567 0.57010 1.16671
 C471 C 0.45235 0.55802 1.16648
 C472 C 0.46861 0.55683 1.14517
 C473 C 0.42023 0.58947 1.10382
 C474 C 0.41029 0.59848 1.08644
 C475 C 0.39807 0.60941 1.06651
 C476 C 0.38722 0.61919 1.04987
 H477 H 0.47074 0.56590 1.10826
 H478 H 0.39468 0.58970 1.14663
 H479 H 0.41307 0.57183 1.18287
 H480 H 0.48890 0.54725 1.14442
 C481 C 0.14302 0.53598 1.13663
 C482 C 0.15085 0.56888 1.12473
 C483 C 0.13636 0.59117 1.13298
 C484 C 0.11442 0.58084 1.15317
 C485 C 0.10669 0.54802 1.16540
 C486 C 0.12104 0.52556 1.15683
 C487 C 0.17447 0.58027 1.10437
 C488 C 0.19466 0.59018 1.08750
 C489 C 0.21878 0.60213 1.06797
 C490 C 0.23978 0.61257 1.05149
 H491 H 0.15423 0.51860 1.13045
 H492 H 0.14220 0.61667 1.12388
 H493 H 0.10333 0.59841 1.15915
 H494 H 0.11596 0.50039 1.16600
 C495 C 0.41208 0.83140 1.14444
 C496 C 0.42823 0.84769 1.12304
 C497 C 0.45526 0.88609 1.12186
 C498 C 0.46595 0.90817 1.14201
 C499 C 0.44961 0.89206 1.16358
 C500 C 0.42267 0.85338 1.16457
 C501 C 0.41671 0.82483 1.10239
 C502 C 0.40638 0.80494 1.08541
 C503 C 0.39362 0.78084 1.06591
 C504 C 0.38225 0.75958 1.04958
 H505 H 0.39124 0.80168 1.14557
 H506 H 0.46789 0.89900 1.10536
 H507 H 0.48646 0.93794 1.14066
 H508 H 0.41002 0.84004 1.18096
 C509 C 0.54598 0.43134 0.62163
 C510 C 0.57306 0.42007 0.62293
 C511 C 0.58895 0.41980 0.64441
 C512 C 0.57802 0.43093 0.66451
 C513 C 0.55100 0.44254 0.66340
 C514 C 0.53496 0.44247 0.64174
 C515 C 0.58485 0.40891 0.60233
 C516 C 0.59533 0.39944 0.58538
 C517 C 0.60818 0.38814 0.56592
 C518 C 0.61955 0.37821 0.54962
 H519 H 0.53354 0.43171 0.60508
 H520 H 0.60982 0.41099 0.64564
 H521 H 0.59046 0.43013 0.68096
 H522 H 0.51439 0.45163 0.64031
 C523 C 0.54144 0.10887 0.62434
 C524 C 0.56833 0.14735 0.62480
 C525 C 0.58464 0.16485 0.64592
 C526 C 0.57435 0.14398 0.66650
 C527 C 0.54755 0.10523 0.66624
 C528 C 0.53105 0.08791 0.64494
 C529 C 0.57951 0.16909 0.60369
 C530 C 0.58952 0.18811 0.58634
 C531 C 0.60190 0.21136 0.56645
 C532 C 0.61293 0.23206 0.54986
 H533 H 0.52868 0.09503 0.60807
 H534 H 0.60538 0.19465 0.64649
 H535 H 0.58714 0.15823 0.68266
 H536 H 0.51065 0.05805 0.64416
 C537 C 0.83107 0.41645 0.64738
 C538 C 0.84763 0.41654 0.62609
 C539 C 0.88622 0.42841 0.62509
 C540 C 0.90820 0.44028 0.64530
 C541 C 0.89181 0.44050 0.66677
 C542 C 0.85296 0.42833 0.66757
 C543 C 0.82489 0.40458 0.60535
 C544 C 0.80528 0.39449 0.58822
 C545 C 0.78166 0.38254 0.56845
 C546 C 0.76095 0.37216 0.55181
 H547 H 0.80120 0.40720 0.64837
 H548 H 0.89934 0.42865 0.60869
 H549 H 0.93810 0.44988 0.64408
 H550 H 0.83941 0.42764 0.68388
 C551 C 0.45437 0.56941 0.62154
 C552 C 0.42733 0.58075 0.62280
 C553 C 0.41108 0.58060 0.64421
 C554 C 0.42163 0.56903 0.66428
 C555 C 0.44864 0.55740 0.66323
 C556 C 0.46501 0.55784 0.64163
 C557 C 0.41608 0.59256 0.60221
 C558 C 0.40614 0.60263 0.58529
 C559 C 0.39401 0.61473 0.56583
 C560 C 0.38336 0.62541 0.54953
 H561 H 0.46709 0.56938 0.60504
 H562 H 0.39025 0.58947 0.64540
 H563 H 0.40895 0.56956 0.68069
 H564 H 0.48557 0.54867 0.64023
 C565 C 0.40641 0.83787 0.64497
 C566 C 0.42844 0.85239 0.62501
 C567 C 0.46122 0.88774 0.62575
 C568 C 0.47192 0.90862 0.64638
 C569 C 0.44986 0.89458 0.66681
 C570 C 0.41688 0.85858 0.66560
 C571 C 0.41718 0.83071 0.60387
 C572 C 0.40697 0.81175 0.58649
 C573 C 0.39418 0.78860 0.56656
 C574 C 0.38263 0.76800 0.54993
 H575 H 0.38114 0.81029 0.64466
 H576 H 0.47840 0.89936 0.61031
 H577 H 0.49670 0.93641 0.64577
 H578 H 0.39956 0.84529 0.68072
 C579 C 0.11628 0.57833 0.62632
 C580 C 0.15181 0.58128 0.62587
 C581 C 0.16557 0.57278 0.64579
 C582 C 0.14395 0.56124 0.66609
 C583 C 0.10779 0.55789 0.66700
 C584 C 0.09450 0.56685 0.64661
 C585 C 0.17438 0.59306 0.60505
 C586 C 0.19389 0.60288 0.58788
 C587 C 0.21744 0.61438 0.56807
 C588 C 0.23812 0.62426 0.55143
 H589 H 0.10522 0.58461 0.61091
 H590 H 0.19327 0.57534 0.64570
 H591 H 0.15669 0.55650 0.68121
 H592 H 0.06663 0.56365 0.64575
 C593 C 0.42074 0.58667 0.85267
 C594 C 0.42164 0.57036 0.87384
 C595 C 0.43294 0.54333 0.87441
 C596 C 0.44346 0.53275 0.85388
 C597 C 0.44285 0.54917 0.83252
 C598 C 0.43127 0.57618 0.83215
 C599 C 0.41087 0.58149 0.89488
 C600 C 0.40159 0.59127 0.91221
 C601 C 0.39031 0.60312 0.93214
 C602 C 0.38018 0.61347 0.94884
 H603 H 0.41188 0.60750 0.85202
 H604 H 0.43377 0.53055 0.89072
 H605 H 0.45266 0.51220 0.85475
 H606 H 0.42998 0.58892 0.81595
 C607 C 0.14171 0.59558 0.86593
 C608 C 0.14810 0.56936 0.87748
 C609 C 0.13277 0.53287 0.86863
 C610 C 0.11137 0.52266 0.84820
 C611 C 0.10495 0.54892 0.83600
 C612 C 0.12043 0.58559 0.84548
 C613 C 0.17126 0.58036 0.89804
 C614 C 0.19127 0.59026 0.91500
 C615 C 0.21545 0.60262 0.93450
 C616 C 0.23678 0.61382 0.95083
 H617 H 0.15322 0.62388 0.87274
 H618 H 0.13785 0.51241 0.87735
 H619 H 0.10158 0.49458 0.84160
 H620 H 0.11529 0.60661 0.83773
 C621 C 0.43165 0.83365 0.85553
 C622 C 0.42231 0.84629 0.87560
 C623 C 0.42407 0.88118 0.87554
 C624 C 0.43520 0.90345 0.85547
 C625 C 0.44499 0.89130 0.83494
 C626 C 0.44284 0.85576 0.83546
 C627 C 0.41091 0.82321 0.89617
 C628 C 0.40142 0.80325 0.91311
 C629 C 0.39035 0.77919 0.93263
 C630 C 0.38086 0.75811 0.94903
 H631 H 0.43000 0.80645 0.85532
 H632 H 0.41712 0.89136 0.89108
 H633 H 0.43746 0.93082 0.85662
 H634 H 0.44824 0.84386 0.82019
 C635 C 0.56593 0.45601 0.87457
 C636 C 0.57732 0.42904 0.87398
 C637 C 0.57813 0.41270 0.85281
 C638 C 0.56746 0.42311 0.83231
 C639 C 0.55581 0.45007 0.83269
 C640 C 0.55526 0.46651 0.85405
 C641 C 0.58827 0.41802 0.89501
 C642 C 0.59770 0.40834 0.91233
 C643 C 0.60916 0.39661 0.93226
 C644 C 0.61942 0.38636 0.94895
 H645 H 0.56516 0.46881 0.89087
 H646 H 0.58706 0.39191 0.85215
 H647 H 0.56871 0.41035 0.81611
 H648 H 0.54602 0.48702 0.85493
 C649 C 0.86002 0.46531 0.86591
 C650 C 0.85274 0.43268 0.87794
 C651 C 0.86735 0.41052 0.86964
 C652 C 0.88881 0.42067 0.84925
 C653 C 0.89593 0.45317 0.83686
 C654 C 0.88153 0.47555 0.84551
 C655 C 0.82928 0.42120 0.89838
 C656 C 0.80908 0.41095 0.91525
 C657 C 0.78474 0.39825 0.93468
 C658 C 0.76332 0.38685 0.95096
 H659 H 0.84869 0.48257 0.87212
 H660 H 0.86190 0.38521 0.87882
 H661 H 0.89995 0.40317 0.84322
 H662 H 0.88616 0.50048 0.83623
 C663 C 0.56879 0.11581 0.87710
 C664 C 0.57943 0.15395 0.87571
 C665 C 0.57913 0.16972 0.85421
 C666 C 0.56800 0.14746 0.83419
 C667 C 0.55696 0.10902 0.83539
 C668 C 0.55766 0.09346 0.85706
 C669 C 0.59037 0.17703 0.89628
 C670 C 0.59952 0.19699 0.91322
 C671 C 0.61027 0.22103 0.93274
 C672 C 0.61957 0.24210 0.94915
 H673 H 0.56885 0.10330 0.89367
 H674 H 0.58745 0.19924 0.85292
 H675 H 0.56832 0.16040 0.81773
 H676 H 0.54895 0.06388 0.85856
   
