data_POSCAR
  _audit_creation_date              2014-09-24
  _audit_creation_method            'ToBaCCo'
  _symmetry_space_group_name_H-M    'P1'
  _symmetry_Int_Tables_number       1
  _symmetry_cell_setting            triclinic
  loop_
  _symmetry_equiv_pos_as_xyz
 x,y,z
_cell_length_a 23.0911
_cell_length_b 23.0290
_cell_length_c 23.0342
_cell_angle_alpha 87.462900
_cell_angle_beta 91.380700
_cell_angle_gamma 89.311800
loop_
  _atom_site_label
  _atom_site_type_symbol
  _atom_site_fract_x
  _atom_site_fract_y
  _atom_site_fract_z
O1 O 0.57710 0.50130 0.04868
 O2 O 0.41676 0.49965 0.04345
 O3 O 0.49863 0.42103 0.05323
 O4 O 0.49498 0.58001 0.04974
 O5 O 0.49606 0.58300 -0.04618
 O6 O 0.49976 0.42271 -0.04265
 O7 O 0.41809 0.50217 -0.05235
 O8 O 0.57709 0.50384 -0.04725
 Cu9 Cu 0.49677 0.50033 0.05829
 Cu10 Cu 0.49771 0.50315 -0.05665
 C11 C 0.60437 0.50281 0.00124
 C12 C 0.39001 0.50061 -0.00563
 C13 C 0.49983 0.39460 0.00618
 C14 C 0.49515 0.60875 0.00154
 O15 O -0.05313 0.57828 0.49077
 O16 O -0.05063 0.41838 0.49383
 O17 O -0.04878 0.49626 0.57279
 O18 O -0.05363 0.50034 0.41285
 O19 O 0.04199 0.50201 0.41262
 O20 O 0.04681 0.49597 0.57231
 O21 O 0.04491 0.41862 0.49200
 O22 O 0.04245 0.57870 0.49159
 Cu23 Cu -0.06114 0.49824 0.49281
 Cu24 Cu 0.05365 0.49874 0.49230
 C25 C -0.00582 0.60593 0.49041
 C26 C -0.00252 0.39119 0.49283
 C27 C -0.00016 0.49570 0.59985
 C28 C -0.00653 0.50202 0.38552
 O29 O 0.50284 0.04582 0.59031
 O30 O 0.50096 0.04954 0.43037
 O31 O 0.42299 0.04667 0.51028
 O32 O 0.58132 0.05011 0.51149
 O33 O 0.58514 -0.04582 0.51527
 O34 O 0.42576 -0.04925 0.51081
 O35 O 0.50579 -0.04633 0.43256
 O36 O 0.50500 -0.05011 0.59244
 Cu37 Cu 0.50180 0.05768 0.51024
 Cu38 Cu 0.50582 -0.05758 0.51280
 C39 C 0.50361 -0.00278 0.61874
 C40 C 0.50324 0.00221 0.40412
 C41 C 0.39729 -0.00171 0.51095
 C42 C 0.61036 0.00292 0.51394
 C43 C 0.50543 0.15294 -0.10294
 C44 C 0.50263 0.11193 -0.14399
 C45 C 0.50061 0.05840 -0.11424
 N46 N 0.50166 0.06560 -0.05623
 C47 C 0.50444 0.12345 -0.04914
 C48 C 0.49343 0.00423 -0.14005
 C49 C 0.47458 -0.04360 -0.10561
 C50 C 0.43332 -0.08292 -0.12277
 C51 C 0.43153 -0.12549 -0.07928
 C52 C 0.47189 -0.11085 -0.03708
 N53 N 0.49634 -0.05955 -0.05218
 C54 C 0.48863 -0.14652 0.01186
 C55 C 0.49573 -0.12134 0.06659
 C56 C 0.49709 -0.15135 0.12011
 C57 C 0.50087 -0.11059 0.16150
 C58 C 0.50092 -0.05663 0.13225
 N59 N 0.49796 -0.06345 0.07421
 C60 C 0.50744 -0.00238 0.15845
 C61 C 0.52425 0.04670 0.12407
 C62 C 0.56379 0.08761 0.14157
 C63 C 0.56435 0.13051 0.09829
 C64 C 0.52522 0.11456 0.05555
 N65 N 0.50251 0.06220 0.07038
 C66 C 0.50950 0.14929 0.00541
 H67 H 0.50916 0.19907 -0.11252
 H68 H 0.50044 0.12143 -0.19035
 H69 H 0.46912 0.04167 0.04818
 H70 H 0.40752 -0.08125 -0.16268
 H71 H 0.40428 -0.16341 -0.07905
 H72 H 0.49409 -0.19763 0.12925
 H73 H 0.50483 -0.12051 0.20771
 H74 H 0.59065 0.16910 0.09822
 H75 H 0.53101 -0.04039 -0.03063
 H76 H 0.58965 0.08660 0.18142
 C77 C -0.11182 0.49553 0.84309
 C78 C -0.15325 0.49918 0.88430
 C79 C -0.12427 0.50122 0.93752
 N80 N -0.06626 0.49948 0.92983
 C81 C -0.05844 0.49616 0.87202
 C82 C -0.15072 0.50890 0.99168
 C83 C -0.11643 0.52701 1.03886
 C84 C -0.13321 0.56797 1.07762
 C85 C -0.09021 0.56907 1.11971
 C86 C -0.04854 0.52878 1.10529
 N87 N -0.06354 0.50490 1.05463
 C88 C 0.00016 0.51209 1.14040
 C89 C 0.05484 0.50570 1.11461
 C90 C 0.10790 0.50492 1.14410
 C91 C 0.14951 0.50154 1.10319
 C92 C 0.12093 0.50105 1.04956
 N93 N 0.06295 0.50346 1.05675
 C94 C 0.14785 0.49445 0.99549
 C95 C 0.11412 0.47753 0.94714
 C96 C 0.13158 0.43748 0.90777
 C97 C 0.08848 0.43589 0.86580
 C98 C 0.04591 0.47510 0.88060
 N99 N 0.06066 0.49871 0.93160
 C100 C -0.00374 0.49032 0.84578
 H101 H -0.12092 0.49147 0.79724
 H102 H -0.19932 0.50187 0.87506
 H103 H 0.03849 0.53220 0.95107
 H104 H -0.17250 0.59415 1.07585
 H105 H -0.08981 0.59606 1.15700
 H106 H 0.11666 0.50797 1.19014
 H107 H 0.19544 0.49814 1.11293
 H108 H 0.08841 0.40884 0.82855
 H109 H -0.04222 0.47043 1.03586
 H110 H 0.17109 0.41164 0.90941
 C111 C 0.15111 -0.11275 0.49097
 C112 C 0.10900 -0.15376 0.49088
 C113 C 0.05631 -0.12472 0.49425
 N114 N 0.06567 -0.06692 0.49811
 C115 C 0.12383 -0.05949 0.49684
 C116 C 0.00122 -0.15175 0.49799
 C117 C -0.04750 -0.11964 0.51615
 C118 C -0.09166 -0.14230 0.54934
 C119 C -0.13404 -0.10034 0.55050
 C120 C -0.11355 -0.05111 0.52097
 N121 N -0.06018 -0.06346 0.50056
 C122 C -0.14480 0.00192 0.50802
 C123 C -0.11445 0.05006 0.48466
 C124 C -0.13565 0.09211 0.44439
 C125 C -0.09466 0.13455 0.44069
 C126 C -0.04897 0.11553 0.47675
 N127 N -0.06050 0.06356 0.50284
 C128 C 0.00258 0.14600 0.48511
 C129 C 0.05603 0.11616 0.48134
 C130 C 0.10487 0.14009 0.45684
 C131 C 0.14597 0.09672 0.45763
 C132 C 0.12213 0.04782 0.48475
 N133 N 0.06642 0.05954 0.49737
 C134 C 0.15256 -0.00516 0.49867
 H135 H 0.19657 -0.12209 0.48572
 H136 H 0.11777 -0.19986 0.49043
 H137 H 0.03911 0.03229 0.52100
 H138 H -0.09400 -0.18526 0.57006
 H139 H -0.17521 -0.10793 0.57007
 H140 H -0.17613 0.09216 0.41975
 H141 H -0.09721 0.17386 0.41315
 H142 H 0.18844 0.10084 0.43919
 H143 H -0.03671 -0.03731 0.47170
 H144 H 0.10983 0.18349 0.43788
 C145 C -0.33038 0.50367 1.00135
 C146 C -0.30680 0.55910 0.97157
 C147 C -0.24806 0.56038 0.96931
 C148 C -0.21719 0.50609 0.99686
 C149 C -0.24094 0.49970 1.05918
 C150 C -0.29988 0.49937 1.06145
 C151 C -0.30392 0.45338 0.96880
 C152 C -0.24501 0.45410 0.96720
 H153 H -0.33412 0.59479 0.95425
 H154 H -0.22533 0.59713 0.94999
 H155 H -0.21424 0.49095 1.09804
 H156 H -0.32223 0.49230 1.10202
 H157 H -0.32914 0.41852 0.95110
 H158 H -0.22034 0.41932 0.94872
 C159 C 0.32804 0.49966 0.99231
 C160 C 0.30346 0.44410 1.02093
 C161 C 0.24461 0.44270 1.02069
 C162 C 0.21454 0.49706 0.99219
 C163 C 0.24119 0.54911 1.02292
 C164 C 0.30015 0.54989 1.02380
 C165 C 0.29948 0.50403 0.93098
 C166 C 0.24045 0.50354 0.93097
 H167 H 0.33014 0.40831 1.03915
 H168 H 0.22125 0.40575 1.03874
 H169 H 0.21569 0.58384 1.04046
 H170 H 0.32449 0.58480 1.04259
 H171 H 0.32303 0.51130 0.89114
 H172 H 0.21516 0.51233 0.89121
 C173 C -0.00622 -0.33205 0.49025
 C174 C 0.03038 -0.30333 0.44228
 C175 C 0.03098 -0.24414 0.44290
 C176 C -0.00323 -0.21844 0.49282
 C177 C -0.06434 -0.24320 0.48140
 C178 C -0.06609 -0.30231 0.48137
 C179 C 0.01813 -0.30956 0.54736
 C180 C 0.01958 -0.25079 0.54869
 H181 H 0.05072 -0.32707 0.40836
 H182 H 0.05102 -0.21790 0.40880
 H183 H -0.10199 -0.21691 0.46790
 H184 H -0.10550 -0.32492 0.47008
 H185 H 0.03256 -0.33761 0.58418
 H186 H 0.03534 -0.22888 0.58663
 C187 C -0.00165 0.32585 0.49144
 C188 C 0.04779 0.29647 0.52806
 C189 C 0.04879 0.23748 0.52624
 C190 C 0.00063 0.21256 0.48724
 C191 C -0.05532 0.23764 0.51251
 C192 C -0.05668 0.29661 0.51414
 C193 C 0.00531 0.30373 0.43003
 C194 C 0.00630 0.24472 0.42779
 H195 H 0.07818 0.31982 0.55480
 H196 H 0.07992 0.21088 0.55190
 H197 H -0.08992 0.21134 0.53025
 H198 H -0.09252 0.31987 0.53258
 H199 H 0.00865 0.33217 0.39143
 H200 H 0.01047 0.22280 0.38732
 C201 C 0.50193 -0.00340 -0.31942
 C202 C 0.55181 0.03016 -0.29177
 C203 C 0.54994 0.03106 -0.23280
 C204 C 0.49738 -0.00025 -0.20627
 C205 C 0.44393 0.02620 -0.23900
 C206 C 0.44629 0.02466 -0.29775
 C207 C 0.50535 -0.06387 -0.28801
 C208 C 0.50384 -0.06218 -0.22905
 H209 H 0.58724 0.04896 -0.31609
 H210 H 0.58424 0.05015 -0.20715
 H211 H 0.40691 0.04418 -0.21747
 H212 H 0.41119 0.04130 -0.32628
 H213 H 0.51266 -0.10423 -0.30952
 H214 H 0.51169 -0.10108 -0.20158
 C215 C 0.50343 0.00303 0.33867
 C216 C 0.55929 -0.02271 0.31517
 C217 C 0.56014 -0.02360 0.25624
 C218 C 0.50499 0.00114 0.22513
 C219 C 0.45443 -0.03245 0.25299
 C220 C 0.45421 -0.03219 0.31211
 C221 C 0.49694 0.06351 0.30795
 C222 C 0.49680 0.06250 0.24886
 H223 H 0.59550 -0.03845 0.34268
 H224 H 0.59709 -0.04013 0.23351
 H225 H 0.42016 -0.05257 0.22817
 H226 H 0.42035 -0.05264 0.33739
 H227 H 0.48868 0.10320 0.33025
 H228 H 0.48650 0.10132 0.22204
 C229 C 0.49416 -0.32607 0.00196
 C230 C 0.49924 -0.29422 -0.05766
 C231 C 0.49887 -0.23527 -0.05513
 C232 C 0.49158 -0.21290 0.00681
 C233 C 0.43716 -0.24299 0.02977
 C234 C 0.43854 -0.30182 0.02734
 C235 C 0.54384 -0.30181 0.03879
 C236 C 0.54301 -0.24282 0.04067
 H237 H 0.50713 -0.31577 -0.09774
 H238 H 0.50851 -0.20787 -0.09309
 H239 H 0.40033 -0.21969 0.04627
 H240 H 0.40288 -0.32872 0.04172
 H241 H 0.57841 -0.32849 0.05914
 H242 H 0.57738 -0.21945 0.06211
 C243 C 0.50169 0.32934 0.00796
 C244 C 0.55797 0.30475 -0.01561
 C245 C 0.56029 0.24576 -0.01520
 C246 C 0.50593 0.21587 0.00832
 C247 C 0.49765 0.24063 0.06895
 C248 C 0.49634 0.29975 0.06882
 C249 C 0.45282 0.30293 -0.02815
 C250 C 0.45443 0.24382 -0.02727
 H251 H 0.59343 0.33154 -0.03069
 H252 H 0.59780 0.22221 -0.02992
 H253 H 0.48817 0.21464 0.10790
 H254 H 0.48771 0.32284 0.10783
 H255 H 0.41823 0.32835 -0.05009
 H256 H 0.42068 0.21907 -0.04806
 C257 C -0.32469 0.00452 0.51416
 C258 C -0.29930 0.06574 0.50718
 C259 C -0.24044 0.06615 0.50791
 C260 C -0.21143 0.00504 0.51288
 C261 C -0.23657 -0.01943 0.57034
 C262 C -0.29564 -0.02113 0.57042
 C263 C -0.29898 -0.02946 0.46517
 C264 C -0.24033 -0.02929 0.46460
 H265 H -0.32464 0.10561 0.50890
 H266 H -0.21779 0.10648 0.51394
 H267 H -0.21076 -0.02823 0.60982
 H268 H -0.31935 -0.03369 0.60903
 H269 H -0.32483 -0.05169 0.43323
 H270 H -0.21625 -0.05148 0.43206
 C271 C 0.33238 -0.00252 0.51023
 C272 C 0.30632 -0.04993 0.55036
 C273 C 0.24722 -0.05001 0.54876
 C274 C 0.21923 -0.00398 0.50548
 C275 C 0.24500 0.05277 0.52801
 C276 C 0.30384 0.05401 0.52917
 C277 C 0.30686 -0.01243 0.44964
 C278 C 0.24817 -0.01309 0.44714
 H279 H 0.33182 -0.07808 0.58044
 H280 H 0.22282 -0.07757 0.57849
 H281 H 0.21966 0.08677 0.54697
 H282 H 0.32751 0.08962 0.54743
 H283 H 0.33290 -0.01829 0.41165
 H284 H 0.22410 -0.01958 0.40693
 C285 C -0.00733 0.50410 1.32034
 C286 C 0.02780 0.45435 1.29558
 C287 C 0.02851 0.45603 1.23652
 C288 C -0.00455 0.50844 1.20694
 C289 C -0.06602 0.50143 1.23161
 C290 C -0.06746 0.50008 1.29073
 C291 C 0.01866 0.56005 1.29425
 C292 C 0.01994 0.56239 1.23529
 H293 H 0.04797 0.41919 1.32209
 H294 H 0.04878 0.42177 1.21292
 H295 H -0.10454 0.49279 1.20571
 H296 H -0.10719 0.49233 1.31392
 H297 H 0.03409 0.59532 1.32004
 H298 H 0.03650 0.59968 1.21074
 C299 C 0.00115 0.49485 0.66524
 C300 C 0.06153 0.50050 0.69399
 C301 C 0.06089 0.50038 0.75312
 C302 C -0.00002 0.49276 0.77891
 C303 C -0.03435 0.54404 0.74868
 C304 C -0.03443 0.54457 0.68956
 C305 C -0.02356 0.43899 0.69289
 C306 C -0.02396 0.43780 0.75192
 H307 H 0.10077 0.50867 0.67011
 H308 H 0.09953 0.51053 0.77818
 H309 H -0.05483 0.57848 0.77184
 H310 H -0.05539 0.57897 0.66265
 H311 H -0.03881 0.40296 0.66806
 H312 H -0.03959 0.40070 0.77744
   
