data_POSCAR
  _audit_creation_date              2014-09-24
  _audit_creation_method            'ToBaCCo'
  _symmetry_space_group_name_H-M    'P1'
  _symmetry_Int_Tables_number       1
  _symmetry_cell_setting            triclinic
  loop_
  _symmetry_equiv_pos_as_xyz
 x,y,z
_cell_length_a 29.9957
_cell_length_b 29.8855
_cell_length_c 7.1340
_cell_angle_alpha 91.638000
_cell_angle_beta 90.657600
_cell_angle_gamma 90.133100
loop_
  _atom_site_label
  _atom_site_type_symbol
  _atom_site_fract_x
  _atom_site_fract_y
  _atom_site_fract_z
C1 C 0.12520 0.25165 0.33723
 C2 C 0.14475 0.21108 0.38958
 C3 C 0.18765 0.21266 0.47164
 C4 C 0.21378 0.25191 0.46827
 C5 C 0.19347 0.29160 0.40615
 C6 C 0.14842 0.29227 0.35082
 C7 C 0.26264 0.25082 0.51852
 C8 C 0.28597 0.29072 0.56389
 C9 C 0.33260 0.29110 0.58259
 C10 C 0.35498 0.25010 0.58862
 C11 C 0.33275 0.20891 0.55712
 C12 C 0.28689 0.21033 0.51036
 H13 H 0.09159 0.25133 0.27950
 H14 H 0.20127 0.18347 0.53568
 H15 H 0.21293 0.32151 0.39383
 H16 H 0.26799 0.32146 0.58165
 H17 H 0.39098 0.25024 0.60658
 H18 H 0.27039 0.18023 0.46096
 C19 C 0.85266 0.24874 -0.09283
 C20 C 0.83087 0.28921 -0.05040
 C21 C 0.78594 0.28742 0.00264
 C22 C 0.76143 0.24689 -0.00613
 C23 C 0.78439 0.20721 -0.05541
 C24 C 0.83075 0.20736 -0.08266
 C25 C 0.71302 0.24586 0.04874
 C26 C 0.69222 0.20591 0.10476
 C27 C 0.64704 0.20527 0.15737
 C28 C 0.62500 0.24648 0.17927
 C29 C 0.64512 0.28688 0.13284
 C30 C 0.68777 0.28568 0.05495
 H31 H 0.88794 0.24930 -0.12450
 H32 H 0.77057 0.31722 0.05810
 H33 H 0.76633 0.17628 -0.07183
 H34 H 0.71130 0.17561 0.11314
 H35 H 0.59131 0.24732 0.23213
 H36 H 0.70153 0.31578 0.00117
 C37 C 0.64886 0.74917 0.35696
 C38 C 0.67133 0.70821 0.37240
 C39 C 0.71730 0.70896 0.41254
 C40 C 0.73989 0.74924 0.46219
 C41 C 0.71500 0.78950 0.45841
 C42 C 0.67023 0.79015 0.39817
 C43 C 0.78766 0.74910 0.53490
 C44 C 0.81255 0.78935 0.55392
 C45 C 0.85417 0.79088 0.64870
 C46 C 0.87311 0.75024 0.70152
 C47 C 0.85177 0.70921 0.66903
 C48 C 0.80793 0.70918 0.59643
 H49 H 0.61325 0.74897 0.33063
 H50 H 0.73493 0.67780 0.41394
 H51 H 0.72932 0.81982 0.51672
 H52 H 0.79915 0.81955 0.49932
 H53 H 0.90499 0.75078 0.77533
 H54 H 0.78954 0.67838 0.59831
 C55 C 0.36859 0.75051 0.76847
 C56 C 0.34770 0.79141 0.80659
 C57 C 0.30568 0.79121 0.89034
 C58 C 0.28627 0.75116 0.95561
 C59 C 0.31138 0.71119 0.93356
 C60 C 0.35130 0.71019 0.83224
 C61 C 0.23941 0.75069 1.03277
 C62 C 0.21449 0.71037 1.03825
 C63 C 0.16967 0.70972 1.09698
 C64 C 0.14872 0.75114 1.13245
 C65 C 0.17132 0.79194 1.11796
 C66 C 0.21733 0.79105 1.08175
 H67 H 0.39929 0.75012 0.69024
 H68 H 0.28738 0.82198 0.89494
 H69 H 0.29911 0.68063 0.99002
 H70 H 0.22881 0.67983 0.98414
 H71 H 0.11311 0.75179 1.15792
 H72 H 0.23514 0.82206 1.08208
 O73 O 0.97607 -0.03976 -0.21025
 O74 O 1.04985 0.04884 -0.01938
 O75 O 1.05685 -0.03778 -0.07930
 O76 O 0.97134 0.04734 -0.16563
 O77 O 0.94582 0.03841 0.12036
 O78 O 1.03097 -0.04772 0.20504
 O79 O 1.02454 0.03937 0.26581
 O80 O 0.95035 -0.04879 0.07476
 Cu81 Cu 1.01640 0.00551 -0.14691
 Cu82 Cu 0.98513 -0.00575 0.19588
 C83 C 0.95103 -0.06010 -0.09787
 C84 C 1.04892 0.06021 0.15339
 C85 C 1.05790 -0.05810 0.07441
 C86 C 0.94477 0.05826 -0.03502
 O87 O 0.44574 0.46138 0.37717
 O88 O 0.53073 0.54766 0.30240
 O89 O 0.52523 0.46037 0.24825
 O90 O 0.45026 0.54817 0.42282
 O91 O 0.47607 0.54060 0.71094
 O92 O 0.55022 0.45162 0.53698
 O93 O 0.55699 0.53867 0.58914
 O94 O 0.47097 0.45335 0.66647
 Cu95 Cu 0.48539 0.50535 0.30900
 Cu96 Cu 0.51640 0.49531 0.65518
 C97 C 0.44456 0.44185 0.53281
 C98 C 0.55770 0.55870 0.43471
 C99 C 0.54941 0.43987 0.36462
 C100 C 0.45080 0.56005 0.59469
 O101 O 0.05396 0.53856 -0.09551
 O102 O -0.03285 0.45140 -0.15764
 O103 O -0.02793 0.53791 -0.21309
 O104 O 0.04896 0.45193 -0.04669
 O105 O 0.02773 0.46452 0.24487
 O106 O -0.04996 0.54978 0.07779
 O107 O -0.05413 0.46353 0.13479
 O108 O 0.03172 0.55154 0.19499
 Cu109 Cu 0.01294 0.49363 -0.15759
 Cu110 Cu -0.01350 0.50880 0.19251
 C111 C 0.05683 0.56083 0.05872
 C112 C -0.05743 0.44174 -0.02035
 C113 C -0.05148 0.55927 -0.09403
 C114 C 0.05058 0.44254 0.12525
 O115 O 0.52560 1.03585 0.25360
 O116 O 0.44871 0.95050 0.41976
 O117 O 0.44465 1.03699 0.37255
 O118 O 0.52952 0.94911 0.29988
 O119 O 0.55303 0.96126 0.59112
 O120 O 0.46841 1.04925 0.66342
 O121 O 0.47185 0.96210 0.71108
 O122 O 0.54906 1.04769 0.54449
 Cu123 Cu 0.48453 0.99193 0.30856
 Cu124 Cu 0.51312 1.00622 0.65651
 C125 C 0.54986 1.05723 0.37253
 C126 C 0.44778 0.94086 0.59121
 C127 C 0.44279 1.05904 0.52721
 C128 C 0.55521 0.93963 0.43587
 C129 C 1.12171 0.16995 0.33831
 C130 C 1.07437 0.16750 0.42021
 C131 C 1.05033 0.13127 0.35887
 C132 C 1.07555 0.10001 0.22284
 C133 C 1.09040 0.13027 0.06464
 C134 C 1.11461 0.16627 0.12416
 C135 C 1.14313 0.12446 0.38661
 C136 C 1.11869 0.08812 0.32718
 H137 H 1.06091 0.19239 0.51777
 H138 H 1.01637 0.12532 0.40354
 H139 H 1.08258 0.12413 -0.08250
 H140 H 1.12781 0.19004 0.02637
 H141 H 1.17563 0.11986 0.45015
 H142 H 1.13002 0.05404 0.34511
 C143 C 0.64313 0.66568 0.38167
 C144 C 0.61429 0.66734 0.55969
 C145 C 0.58622 0.63204 0.57571
 C146 C 0.58923 0.59744 0.41335
 C147 C 0.58157 0.62431 0.23447
 C148 C 0.60972 0.65965 0.21776
 C149 C 0.66694 0.61979 0.38893
 C150 C 0.63870 0.58439 0.40871
 H151 H 0.61702 0.69345 0.66859
 H152 H 0.56540 0.62811 0.69785
 H153 H 0.55623 0.61621 0.12914
 H154 H 0.60862 0.68117 0.09777
 H155 H 0.70223 0.61435 0.36775
 H156 H 0.65040 0.55014 0.41701
 C157 C -0.14172 0.33244 -0.04583
 C158 C -0.11832 0.34100 -0.23289
 C159 C -0.09066 0.37728 -0.22758
 C160 C -0.08880 0.40225 -0.03550
 C161 C -0.13757 0.41357 0.00817
 C162 C -0.16537 0.37735 0.00185
 C163 C -0.10373 0.33028 0.10018
 C164 C -0.07620 0.36636 0.10481
 H165 H -0.12330 0.32031 -0.35908
 H166 H -0.07206 0.38719 -0.34922
 H167 H -0.14927 0.44718 0.04157
 H168 H -0.20069 0.38157 0.02584
 H169 H -0.09980 0.30322 0.19753
 H170 H -0.04876 0.36973 0.20463
 C171 C 0.37226 0.83379 0.75195
 C172 C 0.42059 0.83464 0.82870
 C173 C 0.44519 0.86992 0.77405
 C174 C 0.41960 0.90213 0.64953
 C175 C 0.40165 0.87243 0.48492
 C176 C 0.37698 0.83697 0.53866
 C177 C 0.35326 0.87980 0.81563
 C178 C 0.37821 0.91536 0.76231
 H179 H 0.43428 0.80947 0.91965
 H180 H 0.47963 0.87490 0.81865
 H181 H 0.40804 0.87841 0.33828
 H182 H 0.36219 0.81315 0.43818
 H183 H 0.32329 0.88481 0.89619
 H184 H 0.36937 0.94977 0.79770
 C185 C -0.12430 0.66696 -0.26978
 C186 C -0.12314 0.66273 -0.05530
 C187 C -0.09961 0.62686 0.00530
 C188 C -0.07912 0.59822 -0.15486
 C189 C -0.11850 0.58549 -0.28492
 C190 C -0.14222 0.62137 -0.34530
 C191 C -0.07492 0.66659 -0.32786
 C192 C -0.05141 0.63118 -0.26582
 H193 H -0.13984 0.68576 0.04090
 H194 H -0.09630 0.61976 0.15363
 H195 H -0.12623 0.55137 -0.33060
 H196 H -0.16963 0.61715 -0.44429
 H197 H -0.05989 0.69139 -0.41585
 H198 H -0.01661 0.62622 -0.29962
 C199 C 0.35876 1.16821 0.55346
 C200 C 0.38871 1.16349 0.72962
 C201 C 0.41642 1.12756 0.72318
 C202 C 0.41182 1.09853 0.54226
 C203 C 0.36209 1.08636 0.52945
 C204 C 0.33425 1.12236 0.53713
 C205 C 0.39122 1.16700 0.38745
 C206 C 0.41884 1.13119 0.38282
 H207 H 0.38781 1.18652 0.85005
 H208 H 0.43936 1.12037 0.83696
 H209 H 0.34983 1.05217 0.51536
 H210 H 0.29847 1.11760 0.53604
 H211 H 0.39134 1.19165 0.27801
 H212 H 0.44273 1.12573 0.27160
 C213 C 1.14364 -0.16518 0.11270
 C214 C 1.11068 -0.16745 -0.05462
 C215 C 1.08254 -0.13214 -0.06345
 C216 C 1.08962 -0.09675 0.09407
 C217 C 1.08600 -0.12261 0.27681
 C218 C 1.11418 -0.15817 0.28624
 C219 C 1.16746 -0.11952 0.09257
 C220 C 1.13912 -0.08397 0.08234
 H221 H 1.11056 -0.19405 -0.16180
 H222 H 1.05843 -0.12895 -0.17688
 H223 H 1.06373 -0.11355 0.39046
 H224 H 1.11572 -0.17934 0.40705
 H225 H 1.20317 -0.11433 0.09074
 H226 H 1.15088 -0.04980 0.07043
 C227 C 0.62104 0.33019 0.18449
 C228 C 0.61529 0.33397 0.39797
 C229 C 0.59171 0.37011 0.45839
 C230 C 0.57587 0.40001 0.29915
 C231 C 0.61829 0.41188 0.19349
 C232 C 0.64216 0.37552 0.13357
 C233 C 0.57338 0.33217 0.10314
 C234 C 0.54973 0.36844 0.16378
 H235 H 0.62907 0.30993 0.49340
 H236 H 0.58528 0.37661 0.60630
 H237 H 0.62848 0.44594 0.16631
 H238 H 0.67236 0.37977 0.05473
 H239 H 0.55951 0.30726 0.00514
 H240 H 0.51575 0.37440 0.11729
 C241 C 0.87709 -0.16830 -0.29288
 C242 C 0.88070 -0.16395 -0.07710
 C243 C 0.90499 -0.12832 -0.01227
 C244 C 0.92361 -0.09928 -0.16794
 C245 C 0.95002 -0.13190 -0.29332
 C246 C 0.92585 -0.16744 -0.36024
 C247 C 0.85821 -0.12243 -0.35110
 C248 C 0.88276 -0.08663 -0.28627
 H249 H 0.86549 -0.18727 0.01748
 H250 H 0.91067 -0.12182 0.13657
 H251 H 0.98452 -0.12668 -0.33181
 H252 H 0.93981 -0.19223 -0.45708
 H253 H 0.82841 -0.11730 -0.43419
 H254 H 0.87380 -0.05237 -0.31617
 C255 C 0.36019 0.33397 0.57464
 C256 C 0.38903 0.34282 0.75139
 C257 C 0.41679 0.37875 0.73990
 C258 C 0.41338 0.40291 0.55244
 C259 C 0.42142 0.36637 0.40185
 C260 C 0.39358 0.33075 0.41192
 C261 C 0.33591 0.37892 0.54366
 C262 C 0.36386 0.41473 0.53063
 H263 H 0.38721 0.32304 0.87658
 H264 H 0.43872 0.38915 0.85503
 H265 H 0.44645 0.36864 0.29409
 H266 H 0.39468 0.30302 0.31028
 H267 H 0.30022 0.38336 0.53162
 H268 H 0.35183 0.44821 0.50387
 C269 C 0.14261 0.66932 0.09237
 C270 C 0.11204 0.66537 0.26344
 C271 C 0.08382 0.62960 0.25381
 C272 C 0.08860 0.60015 0.07462
 C273 C 0.08261 0.63251 -0.08696
 C274 C 0.11060 0.66833 -0.07780
 C275 C 0.16648 0.62335 0.08225
 C276 C 0.13816 0.58747 0.07045
 H277 H 0.11269 0.68871 0.38250
 H278 H 0.06054 0.62285 0.36475
 H279 H 0.05841 0.62769 -0.19958
 H280 H 0.10970 0.69414 -0.18160
 H281 H 0.20217 0.61848 0.09403
 H282 H 0.14997 0.55318 0.06282
 C283 C 0.62374 1.16490 0.20581
 C284 C 0.61941 1.16175 0.41911
 C285 C 0.59545 1.12604 0.47474
 C286 C 0.57759 1.09598 0.31152
 C287 C 0.55136 1.12755 0.18567
 C288 C 0.57537 1.16302 0.12846
 C289 C 0.64325 1.11904 0.14188
 C290 C 0.61895 1.08312 0.19743
 H291 H 0.63529 1.18505 0.51851
 H292 H 0.59088 1.11935 0.62224
 H293 H 0.51704 1.12188 0.14128
 H294 H 0.56126 1.18729 0.03452
 H295 H 0.67241 1.11448 0.05560
 H296 H 0.62782 1.04883 0.16025
 C297 C 0.12437 0.33466 0.29251
 C298 C 0.07822 0.33906 0.38439
 C299 C 0.05402 0.37453 0.32730
 C300 C 0.07799 0.40339 0.18564
 C301 C 0.12248 0.41626 0.28079
 C302 C 0.14689 0.38045 0.33640
 C303 C 0.11467 0.33472 0.08051
 C304 C 0.09045 0.37045 0.02473
 H305 H 0.06585 0.31638 0.48801
 H306 H 0.02107 0.38184 0.38143
 H307 H 0.13371 0.45056 0.30320
 H308 H 0.17884 0.38525 0.40604
 H309 H 0.12614 0.30896 -0.01791
 H310 H 0.08093 0.37459 -0.12091
 C311 C 0.64160 0.83254 0.40557
 C312 C 0.60678 0.83044 0.56174
 C313 C 0.57840 0.86581 0.56880
 C314 C 0.58720 0.90078 0.42003
 C315 C 0.63636 0.91380 0.44956
 C316 C 0.66502 0.87835 0.44028
 C317 C 0.61435 0.83895 0.22428
 C318 C 0.58592 0.87444 0.23138
 H319 H 0.60491 0.80352 0.66032
 H320 H 0.55249 0.86889 0.67307
 H321 H 0.64778 0.94795 0.47575
 H322 H 0.70064 0.88356 0.45242
 H323 H 0.61810 0.81807 0.09860
 H324 H 0.56587 0.88357 0.11054
 C325 C 0.85909 0.16500 -0.07888
 C326 C 0.89404 0.16905 0.08091
 C327 C 0.92228 0.13387 0.09105
 C328 C 0.91327 0.09690 -0.05748
 C329 C 0.86408 0.08444 -0.03312
 C330 C 0.83566 0.11978 -0.04443
 C331 C 0.88649 0.15623 -0.25751
 C332 C 0.91495 0.12081 -0.24584
 H333 H 0.89601 0.19718 0.18050
 H334 H 0.94826 0.13226 0.19775
 H335 H 0.85279 0.05113 0.00113
 H336 H 0.80040 0.11518 -0.02101
 H337 H 0.88399 0.17631 -0.38186
 H338 H 0.93730 0.11142 -0.35825
 C339 C 0.37635 0.66757 0.77716
 C340 C 0.42654 0.67089 0.82397
 C341 C 0.45081 0.63541 0.76091
 C342 C 0.42294 0.59890 0.65969
 C343 C 0.38649 0.58689 0.79862
 C344 C 0.36188 0.62265 0.86011
 C345 C 0.37389 0.65876 0.56390
 C346 C 0.39816 0.62309 0.50241
 H347 H 0.44177 0.69880 0.90192
 H348 H 0.48657 0.63329 0.78335
 H349 H 0.38082 0.55319 0.84619
 H350 H 0.33558 0.61858 0.96037
 H351 H 0.35328 0.67808 0.47013
 H352 H 0.39814 0.61224 0.35625
   
