data_POSCAR
  _audit_creation_date              2014-09-24
  _audit_creation_method            'ToBaCCo'
  _symmetry_space_group_name_H-M    'P1'
  _symmetry_Int_Tables_number       1
  _symmetry_cell_setting            triclinic
  loop_
  _symmetry_equiv_pos_as_xyz
 x,y,z
_cell_length_a 33.4795
_cell_length_b 34.7268
_cell_length_c 33.1102
_cell_angle_alpha 90.810500
_cell_angle_beta 89.659800
_cell_angle_gamma 91.502600
loop_
  _atom_site_label
  _atom_site_type_symbol
  _atom_site_fract_x
  _atom_site_fract_y
  _atom_site_fract_z
N1 N 0.19836 0.21025 0.20774
 N2 N -0.19692 0.80384 0.16698
 N3 N -0.18963 0.18503 -0.19532
 N4 N 0.17645 0.80039 -0.19967
 N5 N 0.21101 1.21231 0.79258
 N6 N 0.82144 0.81392 0.84090
 N7 N 0.18619 0.79612 1.19559
 N8 N 0.80068 1.17933 1.17182
 O9 O 0.52964 0.96304 0.93872
 O10 O 0.45138 0.95856 1.04730
 O11 O 0.56777 1.00318 1.04596
 O12 O 0.40634 0.99902 0.96368
 O13 O 0.52249 0.96015 1.05285
 O14 O 0.45218 0.96008 0.94327
 O15 O 0.40567 0.99856 1.03681
 O16 O 0.57335 0.99918 0.97229
 C17 C 0.56466 0.96975 0.95075
 C18 C 0.41534 0.96508 1.04516
 C19 C 0.55846 0.96888 1.05241
 C20 C 0.41614 0.96704 0.94855
 O21 O 0.45203 1.03233 0.91729
 O22 O 0.52015 1.03264 1.08748
 O23 O 0.55225 1.07155 0.96641
 O24 O 0.44118 1.07025 1.03786
 O25 O 0.44792 1.02912 1.08411
 O26 O 0.52679 1.03531 0.91801
 O27 O 0.43652 1.07164 0.96519
 O28 O 0.53663 1.07319 1.04121
 Co29 Co 0.48962 0.99917 0.93639
 Co30 Co 0.48574 0.99695 1.06251
 Co31 Co 0.55088 1.03498 1.00640
 Co32 Co 0.42796 1.03320 1.00122
 O33 O 0.48866 1.01588 1.00116
 C34 C 0.43989 1.06471 0.92853
 C35 C 0.53310 1.06570 1.07765
 C36 C 0.54728 1.06444 0.92968
 C37 C 0.43894 1.06241 1.07411
 O38 O 0.03443 0.45688 0.08971
 O39 O 0.03981 0.52671 -0.07707
 O40 O 0.07821 0.44347 -0.03031
 O41 O 0.07789 0.54179 0.04586
 O42 O 0.03639 0.45478 -0.07699
 O43 O 0.03550 0.52646 0.09256
 O44 O 0.07664 0.55422 -0.02974
 O45 O 0.07721 0.44966 0.04250
 C46 C 0.06918 0.44869 0.07900
 C47 C 0.06963 0.54748 -0.06627
 C48 C 0.07025 0.44396 -0.06674
 C49 C 0.06963 0.53942 0.08240
 O50 O -0.03948 0.52586 0.05952
 O51 O -0.03808 0.45570 -0.04886
 O52 O 0.00405 0.41391 0.04383
 O53 O 0.00154 0.57356 -0.02337
 O54 O -0.03548 0.53010 -0.05552
 O55 O -0.03920 0.45668 0.05449
 O56 O 0.00438 0.57012 0.05035
 O57 O 0.00315 0.41260 -0.02910
 Co58 Co -0.00032 0.49154 0.06858
 Co59 Co 0.00220 0.49157 -0.05756
 Co60 Co 0.03882 0.43514 0.00695
 Co61 Co 0.03839 0.55351 0.01089
 O62 O 0.01946 0.49307 0.00680
 C63 C -0.03112 0.56069 0.05735
 C64 C -0.03044 0.42123 -0.04306
 C65 C -0.03111 0.42213 0.05238
 C66 C -0.02844 0.56442 -0.04486
 O67 O 1.04049 0.04486 0.46699
 O68 O 0.91402 0.02828 0.53089
 O69 O 0.95195 -0.00382 0.40915
 O70 O 1.01874 0.01214 0.59498
 O71 O 0.91183 0.02356 0.45389
 O72 O 1.04371 0.03894 0.54065
 O73 O 0.97381 0.04572 0.54849
 O74 O 1.02375 0.00779 0.41589
 C75 C 1.03636 0.04006 0.42973
 C76 C 0.93750 0.05257 0.54729
 C77 C 0.92505 0.02016 0.41822
 C78 C 1.04634 0.03458 0.57870
 O79 O 1.06250 -0.03621 0.53025
 O80 O 0.90591 -0.04985 0.45721
 O81 O 1.02787 -0.06623 0.44912
 O82 O 0.94628 -0.01794 0.57828
 O83 O 0.91331 -0.04943 0.53268
 O84 O 1.07135 -0.02306 0.45691
 O85 O 1.00765 -0.05237 0.55969
 O86 O 0.95977 -0.07614 0.43679
 Co87 Co 1.04765 0.00389 0.49841
 Co88 Co 0.91807 -0.01180 0.49416
 Co89 Co 0.99100 -0.03286 0.43277
 Co90 Co 0.99138 -0.00391 0.55100
 O91 O 0.98363 -0.01286 0.49181
 C92 C 1.04326 -0.05903 0.55261
 C93 C 0.92285 -0.07616 0.43819
 C94 C 1.06305 -0.05646 0.44590
 C95 C 0.92180 -0.04428 0.56908
 C96 C 1.06640 0.08960 0.33296
 C97 C 1.09037 0.12024 0.34766
 C98 C 1.09336 0.12690 0.38932
 C99 C 1.07383 0.10199 0.41624
 C100 C 1.17737 0.19386 0.23964
 C101 C 1.04695 0.06462 0.35977
 C102 C 1.11415 0.14278 0.31994
 C103 C 1.13448 0.16015 0.29581
 C104 C 1.15807 0.17893 0.26626
 C105 C 1.05133 0.06995 0.40171
 H106 H 1.06387 0.08421 0.30075
 H107 H 1.11188 0.15052 0.40101
 H108 H 1.07783 0.10683 0.44837
 H109 H 1.02975 0.04030 0.34766
 C110 C 0.83885 -0.11951 0.37536
 C111 C 0.85945 -0.14643 0.35190
 C112 C 0.89915 -0.15430 0.36104
 C113 C 0.91901 -0.13352 0.39166
 C114 C 0.81033 -0.18931 0.20771
 C115 C 0.85864 -0.09875 0.40615
 C116 C 0.84231 -0.16148 0.31492
 C117 C 0.83008 -0.17204 0.28230
 C118 C 0.81826 -0.18225 0.24259
 C119 C 0.89943 -0.10443 0.41347
 H120 H 0.80822 -0.11294 0.36837
 H121 H 0.91549 -0.17487 0.34292
 H122 H 0.95040 -0.13860 0.39653
 H123 H 0.84278 -0.07645 0.42226
 C124 C 0.86336 0.11635 0.59964
 C125 C 0.88777 0.13512 0.62831
 C126 C 0.92928 0.13146 0.62610
 C127 C 0.94609 0.10699 0.59710
 C128 C 0.82499 0.17990 0.76575
 C129 C 0.88007 0.09184 0.57068
 C130 C 0.86997 0.15241 0.66360
 C131 C 0.85521 0.16379 0.69469
 C132 C 0.83848 0.17383 0.73249
 C133 C 0.92143 0.08562 0.57026
 H134 H 0.83118 0.11872 0.60125
 H135 H 0.94844 0.14557 0.64836
 H136 H 0.97802 0.10274 0.59765
 H137 H 0.86032 0.07584 0.55038
 C138 C 1.06220 -0.13570 0.62906
 C139 C 1.10401 -0.13559 0.62925
 C140 C 1.12557 -0.11478 0.60010
 C141 C 1.10545 -0.09221 0.57251
 C142 C 1.16617 -0.18800 0.76194
 C143 C 1.04205 -0.11308 0.60164
 C144 C 1.12430 -0.15243 0.66263
 C145 C 1.13963 -0.16476 0.69249
 C146 C 1.15524 -0.17768 0.72927
 C147 C 1.06356 -0.08992 0.57413
 H148 H 1.04520 -0.15156 0.65161
 H149 H 1.15794 -0.11432 0.60010
 H150 H 1.12283 -0.07462 0.55173
 H151 H 1.00979 -0.11189 0.60369
 C152 C 0.38466 1.14907 1.11369
 C153 C 0.36854 1.13491 1.14980
 C154 C 0.38007 1.09900 1.16378
 C155 C 0.40572 1.07635 1.14052
 C156 C 0.23682 1.19755 1.20114
 C157 C 0.41012 1.12646 1.09034
 C158 C 0.33566 1.15432 1.16860
 C159 C 0.30607 1.16935 1.18155
 C160 C 0.26945 1.18536 1.19353
 C161 C 0.41966 1.08926 1.10277
 H162 H 0.37573 1.17667 1.10239
 H163 H 0.36749 1.08758 1.19150
 H164 H 0.41250 1.04781 1.15082
 H165 H 0.42052 1.13723 1.06148
 C166 C 0.31487 0.92449 0.91925
 C167 C 0.32572 0.89339 0.89453
 C168 C 0.36609 0.88471 0.88989
 C169 C 0.39556 0.90774 0.90885
 C170 C 0.20986 0.81837 0.81757
 C171 C 0.34426 0.94760 0.93816
 C172 C 0.29542 0.87149 0.87276
 C173 C 0.26941 0.85403 0.85457
 C174 C 0.23791 0.83445 0.83394
 C175 C 0.38499 0.93993 0.93255
 H176 H 0.28371 0.93143 0.92318
 H177 H 0.37485 0.86066 0.87091
 H178 H 0.42663 0.90106 0.90390
 H179 H 0.33513 0.97204 0.95633
 C180 C 0.60742 0.87936 1.09120
 C181 C 0.64770 0.89134 1.09123
 C182 C 0.65874 0.92772 1.07667
 C183 C 0.62969 0.95250 1.06316
 C184 C 0.76765 0.81767 1.15210
 C185 C 0.57821 0.90413 1.07746
 C186 C 0.67793 0.86756 1.10786
 C187 C 0.70476 0.84972 1.12204
 C188 C 0.73789 0.83129 1.13852
 C189 C 0.58906 0.94120 1.06391
 H190 H 0.59854 0.85126 1.10245
 H191 H 0.68981 0.93729 1.07654
 H192 H 0.63900 0.98080 1.05280
 H193 H 0.54714 0.89467 1.07836
 C194 C 0.61080 1.09323 0.84014
 C195 C 0.62713 1.12849 0.85413
 C196 C 0.61217 1.14536 0.88951
 C197 C 0.58331 1.12577 0.91249
 C198 C 0.76998 1.17652 0.80995
 C199 C 0.58158 1.07366 0.86300
 C200 C 0.66358 1.14397 0.83685
 C201 C 0.69594 1.15571 0.82567
 C202 C 0.73536 1.16780 0.81593
 C203 C 0.56901 1.08899 0.90036
 H204 H 0.62247 1.07970 0.81301
 H205 H 0.62476 1.17246 0.90081
 H206 H 0.57404 1.13833 0.94106
 H207 H 0.57129 1.04525 0.85311
 C208 C 0.10716 0.39579 0.16903
 C209 C 0.14327 0.38217 0.15366
 C210 C 0.15795 0.39562 0.11667
 C211 C 0.13519 0.42022 0.09366
 C212 C 0.19202 0.24897 0.20146
 C213 C 0.08435 0.42050 0.14610
 C214 C 0.16087 0.34913 0.17138
 C215 C 0.17320 0.31914 0.18343
 C216 C 0.18471 0.28199 0.19444
 C217 C 0.09729 0.43140 0.10733
 H218 H 0.09530 0.38524 0.19744
 H219 H 0.18566 0.38498 0.10429
 H220 H 0.14603 0.42830 0.06400
 H221 H 0.05533 0.42870 0.15743
 C222 C -0.07316 0.32233 -0.07006
 C223 C -0.10626 0.33165 -0.09325
 C224 C -0.11652 0.37022 -0.09717
 C225 C -0.09288 0.39946 -0.07920
 C226 C -0.17521 0.21760 -0.17487
 C227 C -0.04943 0.35147 -0.05219
 C228 C -0.12776 0.30173 -0.11522
 C229 C -0.14418 0.27605 -0.13415
 C230 C -0.16168 0.24507 -0.15638
 C231 C -0.05852 0.39041 -0.05733
 H232 H -0.06493 0.29256 -0.06684
 H233 H -0.14205 0.37776 -0.11509
 H234 H -0.10068 0.42915 -0.08371
 H235 H -0.02325 0.34355 -0.03549
 C236 C 0.15167 0.61067 -0.10931
 C237 C 0.13405 0.62231 -0.14516
 C238 C 0.09857 0.60414 -0.15848
 C239 C 0.07918 0.57649 -0.13443
 C240 C 0.17204 0.76120 -0.19297
 C241 C 0.13225 0.58334 -0.08515
 C242 C 0.14797 0.65759 -0.16331
 C243 C 0.15767 0.68908 -0.17526
 C244 C 0.16659 0.72751 -0.18597
 C245 C 0.09489 0.56736 -0.09657
 H246 H 0.17891 0.62475 -0.09853
 H247 H 0.08443 0.61327 -0.18597
 H248 H 0.05035 0.56481 -0.14384
 H249 H 0.14514 0.57668 -0.05622
 C250 C -0.07587 0.65806 0.07570
 C251 C -0.11305 0.64804 0.09251
 C252 C -0.12461 0.60914 0.09581
 C253 C -0.09853 0.58036 0.08318
 C254 C -0.18507 0.76846 0.15189
 C255 C -0.04979 0.62950 0.06338
 C256 C -0.13752 0.67815 0.10854
 C257 C -0.15527 0.70515 0.12227
 C258 C -0.17281 0.73857 0.13838
 C259 C -0.06054 0.59035 0.06752
 H260 H -0.06658 0.68806 0.07306
 H261 H -0.15329 0.60107 0.10892
 H262 H -0.10757 0.55042 0.08672
 H263 H -0.02081 0.63813 0.05138
 C264 C 1.11852 0.11479 0.61128
 C265 C 1.11770 0.11067 0.65327
 C266 C 1.09433 0.08123 0.67061
 C267 C 1.07151 0.05619 0.64623
 C268 C 1.19434 0.19561 0.76092
 C269 C 1.09565 0.08967 0.58674
 C270 C 1.14036 0.13648 0.67916
 C271 C 1.15838 0.15683 0.70291
 C272 C 1.17831 0.17878 0.73310
 C273 C 1.07173 0.06030 0.60409
 H274 H 1.13657 0.13747 0.59757
 H275 H 1.09358 0.07776 0.70309
 H276 H 1.05352 0.03375 0.66041
 H277 H 1.09636 0.09345 0.55433
 C278 C 0.89666 -0.08085 0.67325
 C279 C 0.87252 -0.11333 0.66478
 C280 C 0.86351 -0.12320 0.62457
 C281 C 0.87900 -0.10060 0.59297
 C282 C 0.82920 -0.17681 0.80093
 C283 C 0.91205 -0.05843 0.64202
 C284 C 0.85763 -0.13564 0.69826
 C285 C 0.84710 -0.15149 0.72885
 C286 C 0.83673 -0.16669 0.76695
 C287 C 0.90362 -0.06804 0.60149
 H288 H 0.90376 -0.07284 0.70420
 H289 H 0.84476 -0.14830 0.61767
 H290 H 0.87209 -0.10873 0.56205
 H291 H 0.93073 -0.03354 0.64979
 C292 C 1.10258 -0.14058 0.38632
 C293 C 1.13608 -0.12371 0.36753
 C294 C 1.14866 -0.08623 0.37853
 C295 C 1.12647 -0.06496 0.40660
 C296 C 1.18121 -0.18960 0.23215
 C297 C 1.08030 -0.11937 0.41412
 C298 C 1.15342 -0.14281 0.33304
 C299 C 1.16490 -0.15833 0.30248
 C300 C 1.17505 -0.17570 0.26515
 C301 C 1.09124 -0.08091 0.42346
 H302 H 1.09237 -0.16943 0.37784
 H303 H 1.17433 -0.07275 0.36387
 H304 H 1.13544 -0.03534 0.41312
 H305 H 1.05332 -0.13239 0.42671
 C306 C 0.91108 0.06728 0.31683
 C307 C 0.87988 0.09223 0.32537
 C308 C 0.86362 0.09387 0.36437
 C309 C 0.87834 0.07052 0.39468
 C310 C 0.81741 0.16557 0.20418
 C311 C 0.92581 0.04387 0.34702
 C312 C 0.86351 0.11478 0.29359
 C313 C 0.84944 0.13245 0.26625
 C314 C 0.83245 0.15135 0.23327
 C315 C 0.90947 0.04507 0.38627
 H316 H 0.92380 0.06566 0.28670
 H317 H 0.83933 0.11294 0.37128
 H318 H 0.86516 0.07221 0.42458
 H319 H 0.94991 0.02477 0.33957
 C320 C 0.15877 0.39093 -0.10822
 C321 C 0.14378 0.37714 -0.14518
 C322 C 0.10691 0.38972 -0.15891
 C323 C 0.08401 0.41414 -0.13462
 C324 C 0.20183 0.24830 -0.20024
 C325 C 0.13591 0.41514 -0.08386
 C326 C 0.16285 0.34534 -0.16509
 C327 C 0.17718 0.31649 -0.17893
 C328 C 0.19170 0.28055 -0.19187
 C329 C 0.09762 0.42576 -0.09611
 H330 H 0.18708 0.38113 -0.09710
 H331 H 0.09480 0.37890 -0.18726
 H332 H 0.05462 0.42179 -0.14482
 H333 H 0.14728 0.42376 -0.05444
 C334 C -0.12101 0.37125 0.10006
 C335 C -0.11022 0.33266 0.09599
 C336 C -0.07521 0.32350 0.07512
 C337 C -0.05034 0.35267 0.05964
 C338 C -0.18451 0.21253 0.15931
 C339 C -0.09616 0.40060 0.08435
 C340 C -0.13361 0.30219 0.11453
 C341 C -0.15128 0.27527 0.12968
 C342 C -0.17000 0.24215 0.14643
 C343 C -0.06014 0.39158 0.06470
 H344 H -0.14807 0.37870 0.11612
 H345 H -0.06658 0.29377 0.07167
 H346 H -0.02289 0.34478 0.04456
 H347 H -0.10442 0.43032 0.08878
 C348 C -0.07027 0.66323 -0.06116
 C349 C -0.10099 0.65497 -0.08864
 C350 C -0.10931 0.61675 -0.10051
 C351 C -0.08642 0.58699 -0.08550
 C352 C -0.16658 0.77803 -0.14672
 C353 C -0.04731 0.63365 -0.04630
 C354 C -0.12230 0.68626 -0.10581
 C355 C -0.13823 0.71385 -0.11963
 C356 C -0.15461 0.74775 -0.13486
 C357 C -0.05480 0.59520 -0.05860
 H358 H -0.06349 0.69270 -0.05181
 H359 H -0.13297 0.61004 -0.12186
 H360 H -0.09292 0.55771 -0.09562
 H361 H -0.02318 0.64105 -0.02576
 C362 C 0.10168 0.60204 0.17052
 C363 C 0.13852 0.61646 0.15622
 C364 C 0.15592 0.59973 0.12194
 C365 C 0.13501 0.57122 0.09994
 C366 C 0.18129 0.75857 0.19225
 C367 C 0.08075 0.57333 0.14863
 C368 C 0.15415 0.65292 0.17114
 C369 C 0.16505 0.68520 0.18040
 C370 C 0.17510 0.72435 0.18799
 C371 C 0.09628 0.55928 0.11189
 H372 H 0.08773 0.61503 0.19680
 H373 H 0.18424 0.61081 0.11039
 H374 H 0.14779 0.56077 0.07186
 H375 H 0.05095 0.56481 0.15849
 C376 C 0.38820 1.10365 0.83722
 C377 C 0.37768 1.14013 0.85175
 C378 C 0.39254 1.15368 0.88883
 C379 C 0.41546 1.12993 0.91260
 C380 C 0.24788 1.20263 0.79985
 C381 C 0.41142 1.07986 0.86092
 C382 C 0.34616 1.16055 0.83281
 C383 C 0.31720 1.17605 0.81988
 C384 C 0.28079 1.19177 0.80786
 C385 C 0.42374 1.09222 0.89960
 H386 H 0.37645 1.09268 0.80877
 H387 H 0.38430 1.18168 0.90056
 H388 H 0.42479 1.14031 0.94216
 H389 H 0.41727 1.05092 0.85022
 C390 C 0.31568 0.91908 1.07347
 C391 C 0.32766 0.88567 1.09269
 C392 C 0.36811 0.87651 1.09307
 C393 C 0.39665 0.90145 1.07572
 C394 C 0.21661 0.81101 1.17542
 C395 C 0.34414 0.94409 1.05621
 C396 C 0.29869 0.86260 1.11454
 C397 C 0.27379 0.84481 1.13363
 C398 C 0.24361 0.82575 1.15631
 C399 C 0.38501 0.93601 1.05805
 H400 H 0.28444 0.92645 1.07299
 H401 H 0.37773 0.85076 1.10790
 H402 H 0.42791 0.89445 1.07759
 H403 H 0.33428 0.97038 1.04265
 C404 C 0.59214 1.15132 1.11642
 C405 C 0.61215 1.13483 1.14857
 C406 C 0.59937 1.09873 1.16281
 C407 C 0.56935 1.07758 1.14244
 C408 C 0.76154 1.17570 1.17144
 C409 C 0.56234 1.13020 1.09592
 C410 C 0.65069 1.15047 1.16017
 C411 C 0.68470 1.16110 1.16632
 C412 C 0.72579 1.17045 1.17017
 C413 C 0.55245 1.09222 1.10725
 H414 H 0.60195 1.17908 1.10490
 H415 H 0.61492 1.08550 1.18742
 H416 H 0.56248 1.04835 1.15171
 H417 H 0.54965 1.14223 1.06901
 C418 C 0.66671 0.92590 0.94057
 C419 C 0.65893 0.89537 0.91350
 C420 C 0.61997 0.88820 0.89969
 C421 C 0.58902 0.91191 0.91239
 C422 C 0.78525 0.82640 0.85607
 C423 C 0.63591 0.94970 0.95317
 C424 C 0.69156 0.87320 0.89812
 C425 C 0.71999 0.85640 0.88497
 C426 C 0.75458 0.83903 0.86939
 C427 C 0.59677 0.94326 0.93889
 H428 H 0.69678 0.93181 0.95134
 H429 H 0.61366 0.86475 0.87856
 H430 H 0.55923 0.90615 0.90086
 H431 H 0.64293 0.97351 0.97359
   
