data_POSCAR
  _audit_creation_date              2014-09-24
  _audit_creation_method            'ToBaCCo'
  _symmetry_space_group_name_H-M    'P1'
  _symmetry_Int_Tables_number       1
  _symmetry_cell_setting            triclinic
  loop_
  _symmetry_equiv_pos_as_xyz
 x,y,z
_cell_length_a 47.2679
_cell_length_b 34.3856
_cell_length_c 38.3619
_cell_angle_alpha 89.986300
_cell_angle_beta 90.080800
_cell_angle_gamma 89.607800
loop_
  _atom_site_label
  _atom_site_type_symbol
  _atom_site_fract_x
  _atom_site_fract_y
  _atom_site_fract_z
C1 C 0.25244 0.27481 0.25301
 C2 C 0.25201 0.23554 0.24803
 C3 C 0.22963 0.21659 0.22683
 C4 C 0.27423 0.20993 0.26324
 C5 C 0.27175 0.29274 0.27893
 C6 C 0.23337 0.30132 0.23317
 C7 C 0.20093 0.22435 0.23309
 C8 C 0.18011 0.20837 0.21171
 C9 C 0.18735 0.18336 0.18395
 C10 C 0.21632 0.17459 0.17862
 C11 C 0.23710 0.19102 0.19989
 C12 C 0.26671 0.17891 0.28500
 C13 C 0.28761 0.15555 0.30032
 C14 C 0.31641 0.16270 0.29383
 C15 C 0.32379 0.19285 0.27101
 C16 C 0.30290 0.21637 0.25593
 C17 C 0.29044 0.32208 0.26872
 C18 C 0.30942 0.33796 0.29273
 C19 C 0.30968 0.32514 0.32762
 C20 C 0.29059 0.29617 0.33779
 C21 C 0.27168 0.28031 0.31378
 C22 C 0.23214 0.29965 0.19662
 C23 C 0.21251 0.32231 0.17829
 C24 C 0.19386 0.34729 0.19622
 C25 C 0.19623 0.35049 0.23259
 C26 C 0.21580 0.32767 0.25093
 H27 H 0.19463 0.24330 0.25429
 H28 H 0.15820 0.21576 0.21701
 H29 H 0.22358 0.15614 0.15767
 H30 H 0.25915 0.18456 0.19469
 H31 H 0.24466 0.17321 0.29054
 H32 H 0.28115 0.13175 0.31689
 H33 H 0.30908 0.23974 0.23866
 H34 H 0.29083 0.33196 0.24191
 H35 H 0.32421 0.35945 0.28350
 H36 H 0.29035 0.28569 0.36442
 H37 H 0.25712 0.25808 0.32230
 H38 H 0.24610 0.28030 0.18235
 H39 H 0.21211 0.32026 0.15016
 H40 H 0.18240 0.36994 0.24695
 H41 H 0.21662 0.32969 0.27909
 H42 H 0.34580 0.19861 0.26527
 C43 C 0.74926 0.22244 0.25032
 C44 C 0.75130 0.26195 0.25146
 C45 C 0.77376 0.28311 0.23232
 C46 C 0.73110 0.28616 0.27189
 C47 C 0.72505 0.20184 0.26642
 C48 C 0.77097 0.19783 0.23282
 C49 C 0.79141 0.30884 0.25035
 C50 C 0.81247 0.32919 0.23272
 C51 C 0.81603 0.32475 0.19661
 C52 C 0.79829 0.29890 0.17851
 C53 C 0.77723 0.27848 0.19622
 C54 C 0.72666 0.27920 0.30753
 C55 C 0.70759 0.30217 0.32642
 C56 C 0.69272 0.33270 0.30998
 C57 C 0.69785 0.34026 0.27461
 C58 C 0.71682 0.31719 0.25572
 C59 C 0.69712 0.21025 0.25629
 C60 C 0.67452 0.19086 0.27187
 C61 C 0.67943 0.16297 0.29795
 C62 C 0.70748 0.15394 0.30744
 C63 C 0.73007 0.17314 0.29170
 C64 C 0.76266 0.17053 0.20771
 C65 C 0.78286 0.14775 0.19053
 C66 C 0.81175 0.15190 0.19803
 C67 C 0.81999 0.17829 0.22412
 C68 C 0.79975 0.20094 0.24142
 H69 H 0.78902 0.31289 0.27820
 H70 H 0.82591 0.34873 0.24732
 H71 H 0.80077 0.29379 0.15089
 H72 H 0.76363 0.25903 0.18177
 H73 H 0.73813 0.25615 0.32076
 H74 H 0.70501 0.29635 0.35393
 H75 H 0.72018 0.32332 0.22835
 H76 H 0.69287 0.23179 0.23633
 H77 H 0.65312 0.19792 0.26378
 H78 H 0.71210 0.13167 0.32659
 H79 H 0.75150 0.16591 0.29948
 H80 H 0.74054 0.16732 0.20097
 H81 H 0.77593 0.12732 0.17085
 H82 H 0.84196 0.18124 0.23155
 H83 H 0.80653 0.22094 0.26153
 H84 H 0.68694 0.36387 0.26145
 C85 C 0.74630 0.77933 0.76273
 C86 C 0.74498 0.73968 0.76214
 C87 C 0.72237 0.71915 0.74252
 C88 C 0.76610 0.71480 0.78057
 C89 C 0.76642 0.80042 0.78566
 C90 C 0.72733 0.80366 0.74060
 C91 C 0.69369 0.72805 0.74809
 C92 C 0.67275 0.70995 0.72828
 C93 C 0.68001 0.68189 0.70323
 C94 C 0.70870 0.67224 0.69832
 C95 C 0.72966 0.69064 0.71790
 C96 C 0.75687 0.68433 0.80199
 C97 C 0.77642 0.66023 0.81894
 C98 C 0.80556 0.66626 0.81502
 C99 C 0.81485 0.69632 0.79303
 C100 C 0.79528 0.72019 0.77579
 C101 C 0.78388 0.82918 0.77154
 C102 C 0.80288 0.84936 0.79266
 C103 C 0.80469 0.84141 0.82873
 C104 C 0.78690 0.81267 0.84271
 C105 C 0.76782 0.79268 0.82152
 C106 C 0.72599 0.79805 0.70438
 C107 C 0.70703 0.81971 0.68407
 C108 C 0.68916 0.84762 0.69966
 C109 C 0.69151 0.85434 0.73565
 C110 C 0.71038 0.83256 0.75594
 H111 H 0.68756 0.74940 0.76745
 H112 H 0.65080 0.71790 0.73249
 H113 H 0.71514 0.65144 0.67867
 H114 H 0.75166 0.68336 0.71322
 H115 H 0.73448 0.67933 0.80574
 H116 H 0.76875 0.63700 0.83542
 H117 H 0.80289 0.74266 0.75846
 H118 H 0.78307 0.83563 0.74391
 H119 H 0.81623 0.87044 0.78008
 H120 H 0.78758 0.80570 0.87026
 H121 H 0.75413 0.77113 0.83313
 H122 H 0.73950 0.77664 0.69190
 H123 H 0.70673 0.81470 0.65625
 H124 H 0.67827 0.87599 0.74823
 H125 H 0.71131 0.83763 0.78378
 H126 H 0.83716 0.70093 0.78845
 C127 C 0.24637 0.72606 0.74893
 C128 C 0.24716 0.76563 0.75054
 C129 C 0.26748 0.78882 0.72976
 C130 C 0.22742 0.78752 0.77346
 C131 C 0.22382 0.70408 0.76698
 C132 C 0.26767 0.70284 0.72932
 C133 C 0.28442 0.81657 0.74637
 C134 C 0.30393 0.83819 0.72730
 C135 C 0.30694 0.83252 0.69126
 C136 C 0.28934 0.80549 0.67441
 C137 C 0.26974 0.78393 0.69352
 C138 C 0.22733 0.78117 0.80954
 C139 C 0.20785 0.80056 0.83077
 C140 C 0.18798 0.82682 0.81649
 C141 C 0.18866 0.83365 0.78014
 C142 C 0.20831 0.81433 0.75902
 C143 C 0.19536 0.70943 0.75778
 C144 C 0.17416 0.68945 0.77552
 C145 C 0.18091 0.66403 0.80312
 C146 C 0.20971 0.65812 0.81164
 C147 C 0.23088 0.67784 0.79356
 C148 C 0.25865 0.67428 0.70574
 C149 C 0.27835 0.65202 0.68726
 C150 C 0.30745 0.65796 0.69182
 C151 C 0.31654 0.68600 0.71602
 C152 C 0.29679 0.70809 0.73472
 H153 H 0.28282 0.82109 0.77424
 H154 H 0.31697 0.85914 0.74084
 H155 H 0.29025 0.80130 0.64651
 H156 H 0.25628 0.76347 0.68003
 H157 H 0.24222 0.76090 0.82120
 H158 H 0.20819 0.79462 0.85852
 H159 H 0.20821 0.81964 0.73118
 H160 H 0.18960 0.72923 0.73694
 H161 H 0.15234 0.69444 0.76792
 H162 H 0.21634 0.63799 0.83169
 H163 H 0.25282 0.67307 0.80064
 H164 H 0.23630 0.66945 0.70143
 H165 H 0.27083 0.63029 0.66908
 H166 H 0.33879 0.69041 0.72114
 H167 H 0.30423 0.72909 0.75360
 H168 H 0.17423 0.85347 0.76737
 O169 O 1.02652 -0.02252 -0.02955
 O170 O 0.97679 0.02382 0.03226
 O171 O 0.97173 -0.01544 -0.02568
 O172 O 1.03155 0.01445 0.02916
 O173 O 1.03408 0.06997 0.00038
 O174 O 0.97464 0.03933 -0.05547
 O175 O 0.97952 0.07861 0.00242
 O176 O 1.02950 0.03288 -0.05844
 Cu177 Cu 1.00130 -0.00545 0.00451
 Cu178 Cu 1.00467 0.06071 -0.03074
 C179 C 1.03657 -0.00249 -0.05444
 C180 C 0.96980 0.05926 0.02780
 C181 C 0.96312 0.00661 -0.05008
 C182 C 1.04297 0.04725 0.02421
 O183 O 0.52521 0.44060 0.50340
 O184 O 0.47367 0.50336 0.54852
 O185 O 0.47163 0.45641 0.49520
 O186 O 0.52728 0.48801 0.55619
 O187 O 0.53746 0.53676 0.52097
 O188 O 0.48223 0.50491 0.45991
 O189 O 0.48402 0.55188 0.51313
 O190 O 0.53586 0.48909 0.46811
 Cu191 Cu 0.49836 0.46720 0.52934
 Cu192 Cu 0.51097 0.52548 0.48693
 C193 C 0.53935 0.45415 0.47813
 C194 C 0.47013 0.53832 0.53864
 C195 C 0.46750 0.47529 0.46715
 C196 C 0.54169 0.51799 0.54903
 O197 O -0.02974 0.44565 -0.00397
 O198 O 0.02703 0.50140 -0.04575
 O199 O 0.02544 0.44346 -0.00225
 O200 O -0.02790 0.50454 -0.04679
 O201 O -0.02731 0.54565 -0.00257
 O202 O 0.02539 0.48426 0.04220
 O203 O 0.02767 0.54195 -0.00111
 O204 O -0.02979 0.48665 0.04032
 Cu205 Cu -0.00138 0.46961 -0.02911
 Cu206 Cu -0.00110 0.51869 0.02421
 C207 C -0.03945 0.45662 0.02525
 C208 C 0.03710 0.53105 -0.03052
 C209 C 0.03466 0.45367 0.02747
 C210 C -0.03646 0.53572 -0.03235
 O211 O 0.52433 0.99679 0.44871
 O212 O 0.47074 0.93599 0.49161
 O213 O 0.46928 0.99407 0.44801
 O214 O 0.52585 0.93884 0.49249
 O215 O 0.52411 0.98015 0.53651
 O216 O 0.46761 1.03528 0.49213
 O217 O 0.46906 0.97735 0.53560
 O218 O 0.52277 1.03795 0.49286
 Cu219 Cu 0.49772 0.96227 0.46577
 Cu220 Cu 0.49572 1.01183 0.51869
 C221 C 0.53272 1.02767 0.46354
 C222 C 0.46070 0.94639 0.52085
 C223 C 0.45878 1.02404 0.46258
 C224 C 0.53464 0.95014 0.52206
 C225 C 1.16634 0.16967 0.16339
 C226 C 1.16971 0.14273 0.13625
 C227 C 1.14587 0.13115 0.11362
 C228 C 1.14522 0.09327 0.10013
 C229 C 1.12297 0.08152 0.07863
 C230 C 1.10113 0.10774 0.06983
 C231 C 1.10229 0.14600 0.08238
 C232 C 1.12434 0.15760 0.10427
 C233 C 1.07738 0.09624 0.04705
 C234 C 1.06686 0.05847 0.04647
 H235 H 1.18948 0.12739 0.13246
 H236 H 1.16185 0.07262 0.10649
 H237 H 1.12318 0.05217 0.06847
 H238 H 1.08593 0.16686 0.07548
 H239 H 1.12475 0.18740 0.11332
 H240 H 1.06675 0.11865 0.03197
 H241 H 1.14494 0.17973 0.16849
 H242 H 1.07561 0.03668 0.06386
 C243 C 0.65742 0.66487 0.68144
 C244 C 0.65987 0.62857 0.66537
 C245 C 0.63796 0.61312 0.64166
 C246 C 0.63512 0.57274 0.63798
 C247 C 0.61497 0.55731 0.61520
 C248 C 0.59751 0.58215 0.59535
 C249 C 0.60083 0.62250 0.59846
 C250 C 0.62075 0.63790 0.62147
 C251 C 0.57641 0.56713 0.57033
 C252 C 0.56340 0.53104 0.57382
 H253 H 0.67780 0.61002 0.67150
 H254 H 0.64850 0.55308 0.65282
 H255 H 0.61359 0.52605 0.61266
 H256 H 0.58793 0.64220 0.58305
 H257 H 0.62302 0.66916 0.62278
 H258 H 0.56963 0.58629 0.54945
 H259 H 0.63776 0.68100 0.67905
 H260 H 0.56809 0.51270 0.59604
 C261 C -0.16123 0.34695 0.17920
 C262 C -0.16089 0.35517 0.14350
 C263 C -0.13833 0.37796 0.12628
 C264 C -0.13497 0.37459 0.09007
 C265 C -0.11406 0.39557 0.07266
 C266 C -0.09599 0.42053 0.09122
 C267 C -0.09985 0.42469 0.12729
 C268 C -0.12074 0.40369 0.14470
 C269 C -0.07349 0.44334 0.07393
 C270 C -0.06214 0.43383 0.04144
 H271 H -0.17762 0.34417 0.12705
 H272 H -0.14855 0.35554 0.07514
 H273 H -0.11254 0.39252 0.04469
 H274 H -0.08657 0.44423 0.14211
 H275 H -0.12325 0.40838 0.17237
 H276 H -0.06467 0.46770 0.08807
 H277 H -0.14446 0.35785 0.19563
 H278 H -0.06935 0.40837 0.02758
 C279 C 0.32808 0.85596 0.67222
 C280 C 0.33962 0.84505 0.64011
 C281 C 0.36147 0.86809 0.62184
 C282 C 0.37897 0.84949 0.59738
 C283 C 0.39997 0.87013 0.57979
 C284 C 0.40365 0.91011 0.58603
 C285 C 0.38601 0.92874 0.61032
 C286 C 0.36501 0.90812 0.62786
 C287 C 0.42588 0.93318 0.56853
 C288 C 0.43909 0.92208 0.53752
 H289 H 0.33399 0.81727 0.62893
 H290 H 0.37667 0.81869 0.59222
 H291 H 0.41351 0.85441 0.56192
 H292 H 0.38833 0.95952 0.61554
 H293 H 0.35142 0.92386 0.64567
 H294 H 0.43129 0.96099 0.57993
 H295 H 0.33623 0.88139 0.68533
 H296 H 0.43298 0.89566 0.52431
 C297 C -0.17442 0.64000 -0.16672
 C298 C -0.14722 0.65124 -0.15690
 C299 C -0.12758 0.62520 -0.13777
 C300 C -0.10694 0.64159 -0.11608
 C301 C -0.08809 0.61786 -0.09753
 C302 C -0.08938 0.57715 -0.10061
 C303 C -0.10947 0.56080 -0.12311
 C304 C -0.12850 0.58452 -0.14140
 C305 C -0.06949 0.55116 -0.08178
 C306 C -0.05695 0.56126 -0.05014
 H307 H -0.14078 0.68104 -0.16105
 H308 H -0.10550 0.67287 -0.11332
 H309 H -0.07224 0.63155 -0.08139
 H310 H -0.11055 0.52955 -0.12639
 H311 H -0.14353 0.57095 -0.15879
 H312 H -0.06548 0.52251 -0.09252
 H313 H -0.18216 0.61187 -0.15854
 H314 H -0.06246 0.58848 -0.03764
 C315 C 0.33915 1.13905 0.31001
 C316 C 0.33620 1.12124 0.34250
 C317 C 0.35946 1.09957 0.35976
 C318 C 0.35976 1.09705 0.39626
 C319 C 0.38153 1.07717 0.41351
 C320 C 0.40336 1.05908 0.39448
 C321 C 0.40257 1.06054 0.35795
 C322 C 0.38092 1.08072 0.34069
 C323 C 0.42663 1.03754 0.41186
 C324 C 0.43591 1.04612 0.44551
 H325 H 0.31694 1.12597 0.35720
 H326 H 0.34320 1.11079 0.41149
 H327 H 0.38088 1.07549 0.44166
 H328 H 0.41888 1.04624 0.34271
 H329 H 0.38085 1.08095 0.31249
 H330 H 0.43768 1.01532 0.39704
 H331 H 0.35958 1.13855 0.29729
 H332 H 0.42664 1.07023 0.45970
 C333 C 1.16831 -0.15536 -0.16085
 C334 C 1.14692 -0.12928 -0.17104
 C335 C 1.12626 -0.11174 -0.14644
 C336 C 1.11174 -0.07787 -0.15661
 C337 C 1.09198 -0.06032 -0.13449
 C338 C 1.08631 -0.07629 -0.10147
 C339 C 1.10025 -0.11077 -0.09166
 C340 C 1.11998 -0.12840 -0.11384
 C341 C 1.06570 -0.05847 -0.07700
 C342 C 1.05672 -0.01979 -0.07924
 H343 H 1.14534 -0.11977 -0.19777
 H344 H 1.11572 -0.06483 -0.18184
 H345 H 1.08099 -0.03467 -0.14377
 H346 H 1.09590 -0.12411 -0.06666
 H347 H 1.12977 -0.15532 -0.10546
 H348 H 1.05814 -0.07608 -0.05556
 H349 H 1.17011 -0.16229 -0.13342
 H350 H 1.06506 -0.00088 -0.09918
 C351 C 0.67242 0.35786 0.32900
 C352 C 0.65818 0.34595 0.35901
 C353 C 0.63734 0.37078 0.37751
 C354 C 0.61680 0.35298 0.39836
 C355 C 0.59676 0.37534 0.41629
 C356 C 0.59715 0.41621 0.41416
 C357 C 0.61777 0.43399 0.39337
 C358 C 0.63777 0.41161 0.37538
 C359 C 0.57627 0.44120 0.43254
 C360 C 0.55990 0.42857 0.46056
 H361 H 0.66087 0.31636 0.36810
 H362 H 0.61601 0.32158 0.40043
 H363 H 0.58085 0.36029 0.43120
 H364 H 0.61858 0.46539 0.39129
 H365 H 0.65374 0.42649 0.36037
 H366 H 0.57435 0.47125 0.42431
 H367 H 0.66712 0.38569 0.31744
 H368 H 0.56236 0.39938 0.47064
 C369 C 0.82378 -0.13971 -0.14877
 C370 C 0.84116 -0.10855 -0.15820
 C371 C 0.86228 -0.09134 -0.13426
 C372 C 0.87110 -0.05297 -0.13989
 C373 C 0.89165 -0.03610 -0.11855
 C374 C 0.90414 -0.05759 -0.09124
 C375 C 0.89528 -0.09600 -0.08569
 C376 C 0.87471 -0.11280 -0.10698
 C377 C 0.92655 -0.04175 -0.06821
 C378 C 0.93975 -0.00584 -0.07280
 H379 H 0.83870 -0.09464 -0.18326
 H380 H 0.86197 -0.03589 -0.16086
 H381 H 0.89748 -0.00638 -0.12377
 H382 H 0.90461 -0.11336 -0.06504
 H383 H 0.86919 -0.14285 -0.10245
 H384 H 0.93369 -0.06007 -0.04690
 H385 H 0.82462 -0.14952 -0.12196
 H386 H 0.93369 0.01338 -0.09381
 C387 C 0.33010 0.33988 0.35376
 C388 C 0.34520 0.37444 0.34997
 C389 C 0.36637 0.38813 0.37566
 C390 C 0.37385 0.42755 0.37566
 C391 C 0.39415 0.44155 0.39894
 C392 C 0.40770 0.41618 0.42252
 C393 C 0.40012 0.37682 0.42267
 C394 C 0.37987 0.36279 0.39934
 C395 C 0.42946 0.42968 0.44749
 C396 C 0.44550 0.46312 0.44238
 H397 H 0.34054 0.39337 0.32816
 H398 H 0.36380 0.44770 0.35771
 H399 H 0.39879 0.47230 0.39862
 H400 H 0.41025 0.35667 0.44054
 H401 H 0.37538 0.33201 0.39958
 H402 H 0.43400 0.41149 0.46992
 H403 H 0.33239 0.32335 0.37760
 H404 H 0.44270 0.48043 0.41908
 C405 C 0.15867 0.64532 -0.17934
 C406 C 0.16169 0.62406 -0.14840
 C407 C 0.13757 0.60457 -0.13141
 C408 C 0.13758 0.60028 -0.09504
 C409 C 0.11522 0.58168 -0.07823
 C410 C 0.09255 0.56656 -0.09762
 C411 C 0.09291 0.56997 -0.13406
 C412 C 0.11511 0.58897 -0.15084
 C413 C 0.06895 0.54569 -0.08085
 C414 C 0.06016 0.55302 -0.04676
 H415 H 0.18155 0.62391 -0.13442
 H416 H 0.15490 0.61152 -0.07959
 H417 H 0.11609 0.57844 -0.05019
 H418 H 0.07591 0.55798 -0.14958
 H419 H 0.11491 0.59067 -0.17901
 H420 H 0.05732 0.52492 -0.09643
 H421 H 0.13747 0.64908 -0.18965
 H422 H 0.06990 0.57598 -0.03174
 C423 C 0.65506 1.14303 0.31402
 C424 C 0.65588 1.12806 0.34786
 C425 C 0.63186 1.10754 0.36417
 C426 C 0.63010 1.10630 0.40065
 C427 C 0.60818 1.08632 0.41706
 C428 C 0.58763 1.06686 0.39721
 C429 C 0.58968 1.06750 0.36073
 C430 C 0.61149 1.08775 0.34430
 C431 C 0.56472 1.04420 0.41367
 C432 C 0.55450 1.05186 0.44711
 H433 H 0.67433 1.13336 0.36389
 H434 H 0.64580 1.12078 0.41653
 H435 H 0.60788 1.08541 0.44524
 H436 H 0.57438 1.05220 0.34488
 H437 H 0.61268 1.08699 0.31615
 H438 H 0.55500 1.02132 0.39848
 H439 H 0.63541 1.14236 0.29952
 H440 H 0.56231 1.07651 0.46167
 C441 C 0.17186 0.37039 0.17790
 C442 C 0.16001 0.35891 0.14614
 C443 C 0.13687 0.38052 0.12844
 C444 C 0.12012 0.36092 0.10393
 C445 C 0.09805 0.38018 0.08663
 C446 C 0.09250 0.41975 0.09323
 C447 C 0.10931 0.43934 0.11767
 C448 C 0.13138 0.42011 0.13494
 C449 C 0.06930 0.44147 0.07575
 C450 C 0.05656 0.42979 0.04462
 H451 H 0.16650 0.33144 0.13483
 H452 H 0.12390 0.33042 0.09844
 H453 H 0.08523 0.36370 0.06864
 H454 H 0.10554 0.46984 0.12318
 H455 H 0.14425 0.43660 0.15287
 H456 H 0.06291 0.46902 0.08710
 H457 H 0.16312 0.39528 0.19146
 H458 H 0.06352 0.40364 0.03145
 C459 C 0.66807 0.87045 0.67950
 C460 C 0.65661 0.85803 0.64780
 C461 C 0.63418 0.87960 0.62868
 C462 C 0.63030 0.87202 0.59305
 C463 C 0.60906 0.89113 0.57413
 C464 C 0.59092 0.91799 0.59067
 C465 C 0.59482 0.92556 0.62629
 C466 C 0.61605 0.90647 0.64519
 C467 C 0.56813 0.93918 0.57186
 C468 C 0.55735 0.92800 0.53948
 H469 H 0.66420 0.83128 0.63618
 H470 H 0.64393 0.85142 0.57971
 H471 H 0.60732 0.88506 0.54658
 H472 H 0.58113 0.94603 0.63970
 H473 H 0.61765 0.91236 0.67279
 H474 H 0.55877 0.96420 0.58471
 H475 H 0.66061 0.89730 0.69102
 H476 H 0.56521 0.90219 0.52654
 C477 C 0.83252 0.12820 0.17829
 C478 C 0.86042 0.13986 0.17286
 C479 C 0.88037 0.11843 0.15002
 C480 C 0.90261 0.13889 0.13448
 C481 C 0.92136 0.12014 0.11185
 C482 C 0.91833 0.08032 0.10441
 C483 C 0.89684 0.05946 0.12109
 C484 C 0.87793 0.07830 0.14359
 C485 C 0.93748 0.05990 0.07987
 C486 C 0.95048 0.07895 0.05214
 H487 H 0.86720 0.16770 0.18289
 H488 H 0.90526 0.16966 0.13950
 H489 H 0.93835 0.13686 0.10055
 H490 H 0.89442 0.02861 0.11629
 H491 H 0.86166 0.06128 0.15608
 H492 H 0.94024 0.02874 0.08262
 H493 H 0.82475 0.10273 0.16488
 H494 H 0.94606 0.10944 0.04750
 C495 C 0.32758 0.63354 0.67185
 C496 C 0.35515 0.64501 0.66407
 C497 C 0.37497 0.62050 0.64368
 C498 C 0.39699 0.63834 0.62528
 C499 C 0.41611 0.61607 0.60579
 C500 C 0.41364 0.57533 0.60451
 C501 C 0.39206 0.55746 0.62365
 C502 C 0.37287 0.57973 0.64299
 C503 C 0.43368 0.55048 0.58476
 C504 C 0.44997 0.56384 0.55696
 H505 H 0.36193 0.67398 0.67110
 H506 H 0.39934 0.66965 0.62589
 H507 H 0.43303 0.63088 0.59241
 H508 H 0.39000 0.52609 0.62361
 H509 H 0.35681 0.56481 0.65783
 H510 H 0.43496 0.51998 0.59174
 H511 H 0.31967 0.60668 0.66095
 H512 H 0.44786 0.59353 0.54796
   
