data_POSCAR
  _audit_creation_date              2014-09-24
  _audit_creation_method            'ToBaCCo'
  _symmetry_space_group_name_H-M    'P1'
  _symmetry_Int_Tables_number       1
  _symmetry_cell_setting            triclinic
  loop_
  _symmetry_equiv_pos_as_xyz
 x,y,z
_cell_length_a 41.9465
_cell_length_b 46.1787
_cell_length_c 32.6556
_cell_angle_alpha 89.976300
_cell_angle_beta 89.772500
_cell_angle_gamma 90.174200
loop_
  _atom_site_label
  _atom_site_type_symbol
  _atom_site_fract_x
  _atom_site_fract_y
  _atom_site_fract_z
C1 C 1.27910 0.21874 0.26199
 C2 C 1.25380 0.23453 0.24545
 C3 C 1.22871 0.22007 0.22603
 C4 C 1.22879 0.18991 0.22290
 C5 C 1.25445 0.17416 0.23869
 C6 C 1.27983 0.18830 0.25877
 C7 C 1.25290 0.26624 0.24900
 C8 C 1.27667 0.28344 0.23079
 C9 C 1.27360 0.31387 0.22958
 C10 C 1.24678 0.32646 0.24874
 C11 C 1.22396 0.30933 0.26876
 C12 C 1.22693 0.27927 0.26847
 H13 H 1.29845 0.23040 0.27653
 H14 H 1.20891 0.23230 0.21373
 H15 H 1.29614 0.27279 0.21502
 H16 H 1.20884 0.26596 0.28311
 H17 H 1.25369 0.15074 0.23678
 H18 H 1.24430 0.34978 0.25030
 C19 C 0.77723 -0.28597 0.26981
 C20 C 0.75109 -0.27096 0.25403
 C21 C 0.72754 -0.28586 0.23225
 C22 C 0.73102 -0.31538 0.22414
 C23 C 0.75786 -0.33016 0.23859
 C24 C 0.78084 -0.31586 0.26272
 C25 C 0.74934 -0.23935 0.25799
 C26 C 0.77383 -0.22196 0.24188
 C27 C 0.77082 -0.19176 0.24166
 C28 C 0.74351 -0.17903 0.25863
 C29 C 0.71958 -0.19630 0.27623
 C30 C 0.72243 -0.22646 0.27558
 H31 H 0.79527 -0.27395 0.28639
 H32 H 0.70726 -0.27425 0.22004
 H33 H 0.79447 -0.23196 0.22773
 H34 H 0.70365 -0.23987 0.28847
 H35 H 0.75950 -0.35322 0.23299
 H36 H 0.74118 -0.15565 0.25891
 C37 C 0.78059 0.21652 -0.22467
 C38 C 0.75332 0.22983 -0.24060
 C39 C 0.72991 0.21297 -0.25985
 C40 C 0.73428 0.18316 -0.26485
 C41 C 0.76188 0.17007 -0.24955
 C42 C 0.78481 0.18658 -0.22882
 C43 C 0.74995 0.26153 -0.23963
 C44 C 0.77366 0.27917 -0.25705
 C45 C 0.76894 0.30923 -0.26153
 C46 C 0.74028 0.32120 -0.24650
 C47 C 0.71721 0.30381 -0.22726
 C48 C 0.72199 0.27395 -0.22435
 H49 H 0.79853 0.22944 -0.20929
 H50 H 0.70903 0.22327 -0.27274
 H51 H 0.79460 0.26891 -0.26994
 H52 H 0.70386 0.26034 -0.21039
 H53 H 0.76514 0.14691 -0.25297
 H54 H 0.73648 0.34439 -0.24740
 C55 C 1.27260 -0.28215 -0.23971
 C56 C 1.24852 -0.26532 -0.25722
 C57 C 1.22249 -0.27872 -0.27602
 C58 C 1.22071 -0.30893 -0.27783
 C59 C 1.24522 -0.32575 -0.26109
 C60 C 1.27141 -0.31260 -0.24147
 C61 C 1.25092 -0.23362 -0.25567
 C62 C 1.27729 -0.21962 -0.27326
 C63 C 1.28102 -0.18959 -0.26942
 C64 C 1.25849 -0.17373 -0.24697
 C65 C 1.23179 -0.18758 -0.22983
 C66 C 1.22781 -0.21748 -0.23478
 H67 H 1.29278 -0.27123 -0.22592
 H68 H 1.20373 -0.26567 -0.28928
 H69 H 1.29497 -0.23214 -0.28980
 H70 H 1.20756 -0.22836 -0.22081
 H71 H 1.24307 -0.34912 -0.26224
 H72 H 1.26125 -0.15049 -0.24371
 C73 C 0.21194 0.27109 0.73753
 C74 C 0.22907 0.24848 0.75558
 C75 C 0.21267 0.22555 0.77444
 C76 C 0.17899 0.22475 0.77563
 C77 C 0.16229 0.24761 0.75644
 C78 C 0.17847 0.27078 0.73746
 C79 C 0.26433 0.24866 0.75441
 C80 C 0.28136 0.27118 0.77312
 C81 C 0.31506 0.27203 0.77211
 C82 C 0.33107 0.24961 0.75077
 C83 C 0.31423 0.22700 0.73153
 C84 C 0.28080 0.22658 0.73405
 H85 H 0.22479 0.28890 0.72341
 H86 H 0.22658 0.20800 0.78704
 H87 H 0.26783 0.28843 0.78725
 H88 H 0.26745 0.20918 0.71984
 H89 H 0.13653 0.24810 0.75709
 H90 H 0.35681 0.24910 0.74956
 C91 C 0.71456 0.77620 0.73003
 C92 C 0.73100 0.75293 0.74755
 C93 C 0.71394 0.73020 0.76579
 C94 C 0.68032 0.73023 0.76711
 C95 C 0.66426 0.75394 0.74912
 C96 C 0.68089 0.77714 0.73022
 C97 C 0.76629 0.75216 0.74672
 C98 C 0.78406 0.77397 0.76603
 C99 C 0.81758 0.77287 0.76670
 C100 C 0.83315 0.74987 0.74659
 C101 C 0.81569 0.72808 0.72642
 C102 C 0.78218 0.72927 0.72722
 H103 H 0.72843 0.79384 0.71726
 H104 H 0.72732 0.71209 0.77774
 H105 H 0.77164 0.79170 0.78075
 H106 H 0.76831 0.71238 0.71262
 H107 H 0.63856 0.75429 0.74969
 H108 H 0.85894 0.74894 0.74657
 C109 C 0.71207 0.27565 0.22506
 C110 C 0.72891 0.25249 0.24236
 C111 C 0.71211 0.22959 0.26068
 C112 C 0.67863 0.22973 0.26241
 C113 C 0.66204 0.25292 0.24449
 C114 C 0.67851 0.27592 0.22547
 C115 C 0.76415 0.25212 0.24160
 C116 C 0.78151 0.27426 0.26074
 C117 C 0.81501 0.27350 0.26180
 C118 C 0.83101 0.25054 0.24216
 C119 C 0.81394 0.22841 0.22216
 C120 C 0.78042 0.22925 0.22262
 H121 H 0.72517 0.29339 0.21115
 H122 H 0.72525 0.21165 0.27370
 H123 H 0.76877 0.29195 0.27511
 H124 H 0.76684 0.21207 0.20822
 H125 H 0.63623 0.25303 0.24526
 H126 H 0.85680 0.24989 0.24243
 C127 C 0.21422 0.77166 0.24197
 C128 C 0.23091 0.74859 0.25956
 C129 C 0.21414 0.72580 0.27807
 C130 C 0.18051 0.72560 0.27950
 C131 C 0.16419 0.74911 0.26132
 C132 C 0.18056 0.77236 0.24220
 C133 C 0.26619 0.74824 0.25839
 C134 C 0.28365 0.77042 0.27728
 C135 C 0.31718 0.77038 0.27638
 C136 C 0.33304 0.74799 0.25528
 C137 C 0.31585 0.72586 0.23545
 C138 C 0.28234 0.72598 0.23785
 H139 H 0.22793 0.78938 0.22912
 H140 H 0.22771 0.70785 0.29017
 H141 H 0.27098 0.78779 0.29249
 H142 H 0.26868 0.70891 0.22332
 H143 H 0.13850 0.74925 0.26198
 H144 H 0.35883 0.74796 0.25387
 N145 N 1.05496 0.02937 0.05186
 N146 N 1.07530 0.05072 0.05754
 N147 N 1.03338 -0.03155 0.08352
 N148 N 1.03798 -0.05195 0.11125
 N149 N 1.05661 -0.03147 0.05645
 N150 N 1.07759 -0.05182 0.06500
 N151 N 1.03283 0.02931 0.08039
 N152 N 1.03791 0.05050 0.10684
 C153 C 1.06428 0.06385 0.09167
 C154 C 1.06566 -0.06453 0.09921
 N155 N 0.94356 -0.03313 0.04977
 N156 N 0.92048 -0.05163 0.05776
 N157 N 0.96400 0.02847 0.07649
 N158 N 0.95754 0.05005 0.10172
 N159 N 0.94322 0.02758 0.04654
 N160 N 0.92207 0.04853 0.05065
 N161 N 0.96429 -0.03247 0.07981
 N162 N 0.95569 -0.05072 0.10913
 Mn163 Mn 0.99861 -0.00161 0.08060
 C164 C 0.92845 -0.06274 0.09455
 C165 C 0.93136 0.06249 0.08513
 N166 N 1.05976 -0.03403 -0.03119
 N167 N 1.08304 -0.05267 -0.03641
 N168 N 1.03751 0.02500 -0.06558
 N169 N 1.04257 0.04544 -0.09308
 N170 N 1.05851 0.02667 -0.03601
 N171 N 1.07866 0.04823 -0.04281
 N172 N 1.03909 -0.03583 -0.06118
 N173 N 1.04801 -0.05584 -0.08780
 Mn174 Mn 1.05774 -0.00230 0.01033
 C175 C 1.07532 -0.06640 -0.07149
 C176 C 1.06830 0.05984 -0.07851
 N177 N 0.94671 0.02478 -0.04145
 N178 N 0.92657 0.04585 -0.04940
 N179 N 0.97018 -0.03707 -0.06508
 N180 N 0.96542 -0.05796 -0.09194
 N181 N 0.94682 -0.03621 -0.03822
 N182 N 0.92558 -0.05667 -0.04610
 N183 N 0.96920 0.02363 -0.06943
 N184 N 0.96478 0.04377 -0.09755
 Mn185 Mn 0.94478 -0.00422 0.00413
 Mn186 Mn 1.00401 -0.00617 -0.06576
 Cl187 Cl 1.00126 -0.00364 0.00736
 C188 C 0.93821 0.05758 -0.08436
 C189 C 0.93765 -0.07024 -0.07957
 N190 N 1.05316 0.52664 0.54712
 N191 N 1.07368 0.54792 0.55241
 N192 N 1.02933 0.46627 0.57722
 N193 N 1.03376 0.44581 0.60492
 N194 N 1.05216 0.46574 0.54961
 N195 N 1.07262 0.44486 0.55767
 N196 N 1.03094 0.52713 0.57555
 N197 N 1.03608 0.54859 0.60146
 C198 C 1.06269 0.56148 0.58626
 C199 C 1.06081 0.43248 0.59217
 N200 N 0.93908 0.46801 0.54484
 N201 N 0.91541 0.45010 0.55302
 N202 N 0.96205 0.52855 0.57282
 N203 N 0.95629 0.54976 0.59898
 N204 N 0.94099 0.52868 0.54317
 N205 N 0.92040 0.54994 0.54836
 N206 N 0.96034 0.46754 0.57428
 N207 N 0.95173 0.44898 0.60314
 Mn208 Mn 0.99566 0.49734 0.57550
 C209 C 0.92380 0.43807 0.58911
 C210 C 0.93029 0.56306 0.58320
 N211 N 1.05438 0.46433 0.46180
 N212 N 1.07560 0.44371 0.45620
 N213 N 1.03449 0.52515 0.43006
 N214 N 1.04004 0.54609 0.40347
 N215 N 1.05596 0.52532 0.45916
 N216 N 1.07685 0.54640 0.45301
 N217 N 1.03345 0.46439 0.43205
 N218 N 1.04011 0.44404 0.40502
 Mn219 Mn 1.05425 0.49552 0.50448
 C220 C 1.06621 0.43108 0.42086
 C221 C 1.06653 0.55925 0.41813
 N222 N 0.94376 0.52729 0.45510
 N223 N 0.92328 0.54797 0.44635
 N224 N 0.96488 0.46532 0.42929
 N225 N 0.95985 0.44454 0.40238
 N226 N 0.94174 0.46619 0.45645
 N227 N 0.92031 0.44585 0.44867
 N228 N 0.96617 0.52588 0.42703
 N229 N 0.96132 0.54524 0.39805
 Mn230 Mn 0.94106 0.49755 0.49986
 Mn231 Mn 0.99976 0.49514 0.42924
 Cl232 Cl 0.99766 0.49635 0.50233
 C233 C 0.93476 0.55910 0.41090
 C234 C 0.93208 0.43239 0.41490
 N235 N 0.55853 0.03287 0.53707
 N236 N 0.58222 0.05099 0.54322
 N237 N 0.53480 -0.02608 0.57144
 N238 N 0.53976 -0.04594 0.59985
 N239 N 0.55665 -0.02770 0.54263
 N240 N 0.57711 -0.04858 0.55077
 N241 N 0.53723 0.03481 0.56653
 N242 N 0.54622 0.05442 0.59377
 C243 C 0.57420 0.06461 0.57830
 C244 C 0.56622 -0.05992 0.58646
 N245 N 0.44438 -0.02521 0.54293
 N246 N 0.42377 -0.04623 0.54974
 N247 N 0.46786 0.03652 0.56717
 N248 N 0.46201 0.05758 0.59353
 N249 N 0.44571 0.03562 0.53884
 N250 N 0.42437 0.05612 0.54511
 N251 N 0.46590 -0.02421 0.57201
 N252 N 0.46019 -0.04439 0.59981
 Mn253 Mn 0.50143 0.00534 0.56983
 C254 C 0.43394 -0.05804 0.58521
 C255 C 0.43492 0.06984 0.57914
 N256 N 0.55588 -0.03122 0.45482
 N257 N 0.57575 -0.05302 0.45033
 N258 N 0.53581 0.02922 0.42133
 N259 N 0.54059 0.04977 0.39392
 N260 N 0.55812 0.02974 0.44936
 N261 N 0.57873 0.05080 0.44177
 N262 N 0.53428 -0.03143 0.42590
 N263 N 0.53909 -0.05321 0.40050
 Mn264 Mn 0.55758 0.00089 0.49594
 C265 C 0.56484 -0.06663 0.41649
 C266 C 0.56745 0.06314 0.40703
 N267 N 0.44568 0.03231 0.45080
 N268 N 0.42477 0.05266 0.44212
 N269 N 0.46596 -0.03012 0.42643
 N270 N 0.46051 -0.05173 0.40107
 N271 N 0.44377 -0.02882 0.45480
 N272 N 0.42252 -0.04973 0.44939
 N273 N 0.46726 0.03037 0.42173
 N274 N 0.46132 0.04896 0.39207
 Mn275 Mn 0.44452 0.00347 0.49688
 Mn276 Mn 0.50084 -0.00048 0.42347
 Cl277 Cl 0.50107 0.00235 0.49662
 C278 C 0.43506 0.06300 0.40561
 C279 C 0.43343 -0.06394 0.41574
 N280 N 0.55613 0.53102 0.03213
 N281 N 0.57929 0.54985 0.03725
 N282 N 0.53084 0.47225 0.06502
 N283 N 0.53556 0.45222 0.09326
 N284 N 0.55254 0.47043 0.03607
 N285 N 0.57257 0.44914 0.04382
 N286 N 0.53486 0.53313 0.06158
 N287 N 0.54330 0.55358 0.08784
 C288 C 0.57099 0.56401 0.07180
 C289 C 0.56162 0.43781 0.07949
 N290 N 0.43995 0.47616 0.03718
 N291 N 0.41649 0.45825 0.04621
 N292 N 0.46567 0.53645 0.06269
 N293 N 0.46031 0.55705 0.08996
 N294 N 0.44358 0.53670 0.03427
 N295 N 0.42275 0.55748 0.04143
 N296 N 0.46201 0.47552 0.06562
 N297 N 0.45422 0.45674 0.09461
 Mn298 Mn 0.49835 0.50438 0.06428
 C299 C 0.42584 0.44601 0.08174
 C300 C 0.43359 0.57023 0.07607
 N301 N 0.55167 0.46814 -0.05169
 N302 N 0.57100 0.44600 -0.05668
 N303 N 0.53334 0.52958 -0.08359
 N304 N 0.53862 0.55061 -0.11017
 N305 N 0.55572 0.52905 -0.05565
 N306 N 0.57692 0.54973 -0.06253
 N307 N 0.53017 0.46881 -0.08070
 N308 N 0.53457 0.44730 -0.10675
 Mn309 Mn 0.55430 0.49962 -0.00980
 C310 C 0.55993 0.43310 -0.09096
 C311 C 0.56593 0.56304 -0.09669
 N312 N 0.44340 0.53445 -0.05381
 N313 N 0.42237 0.55466 -0.06251
 N314 N 0.46181 0.47182 -0.07968
 N315 N 0.45628 0.45007 -0.10475
 N316 N 0.43963 0.47338 -0.05130
 N317 N 0.41823 0.45257 -0.05652
 N318 N 0.46473 0.53230 -0.08318
 N319 N 0.45836 0.55060 -0.11310
 Mn320 Mn 0.44133 0.50518 -0.00843
 Mn321 Mn 0.49752 0.50065 -0.08219
 Cl322 Cl 0.49783 0.50248 -0.00895
 C323 C 0.43225 0.56476 -0.09928
 C324 C 0.42908 0.43814 -0.09003
 C325 C 1.15095 0.14459 0.16659
 C326 C 1.15889 0.13913 0.20796
 C327 C 1.18443 0.15396 0.22612
 C328 C 1.20163 0.17479 0.20393
 C329 C 1.19268 0.18137 0.16379
 C330 C 1.16771 0.16640 0.14517
 C331 C 1.12558 0.12639 0.14717
 C332 C 1.11905 0.12741 0.10492
 C333 C 1.09772 0.10789 0.08743
 C334 C 1.08173 0.08747 0.11168
 C335 C 1.08656 0.08720 0.15405
 C336 C 1.10909 0.10592 0.17179
 C337 C 1.14141 0.11887 0.23084
 C338 C 1.11667 0.10297 0.21332
 H339 H 1.14712 0.11507 0.26273
 H340 H 1.10412 0.08730 0.23218
 H341 H 1.19091 0.14943 0.25759
 H342 H 1.20550 0.19775 0.14653
 H343 H 1.09439 0.10816 0.05454
 H344 H 1.07473 0.07091 0.17265
 H345 H 1.16201 0.17222 0.11408
 H346 H 1.13123 0.14213 0.08450
 C347 C 1.14471 0.64561 0.66275
 C348 C 1.14971 0.64212 0.70530
 C349 C 1.17429 0.65744 0.72472
 C350 C 1.19338 0.67683 0.70249
 C351 C 1.18701 0.68184 0.66109
 C352 C 1.16299 0.66638 0.64129
 C353 C 1.12089 0.62637 0.64224
 C354 C 1.11776 0.62500 0.59935
 C355 C 1.09774 0.60456 0.58140
 C356 C 1.07977 0.58556 0.60569
 C357 C 1.08135 0.58760 0.64840
 C358 C 1.10253 0.60722 0.66681
 C359 C 1.13048 0.62313 0.72803
 C360 C 1.10693 0.60647 0.70929
 H361 H 1.13390 0.62090 0.76076
 H362 H 1.09293 0.59182 0.72811
 H363 H 1.17886 0.65412 0.75705
 H364 H 1.20136 0.69711 0.64376
 H365 H 1.09684 0.60312 0.54830
 H366 H 1.06792 0.57246 0.66716
 H367 H 1.15936 0.67081 0.60923
 H368 H 1.13159 0.63856 0.57905
 C369 C 0.66663 0.13425 0.66511
 C370 C 0.65652 0.14927 0.70058
 C371 C 0.67861 0.16561 0.72319
 C372 C 0.71091 0.16600 0.71188
 C373 C 0.72107 0.15006 0.67789
 C374 C 0.69925 0.13445 0.65462
 C375 C 0.64235 0.11788 0.64100
 C376 C 0.64953 0.10516 0.60301
 C377 C 0.62681 0.08880 0.58253
 C378 C 0.59630 0.08455 0.59927
 C379 C 0.58823 0.09836 0.63613
 C380 C 0.61096 0.11541 0.65677
 C381 C 0.62471 0.14724 0.71367
 C382 C 0.60259 0.13011 0.69276
 H383 H 0.61698 0.15850 0.74106
 H384 H 0.57849 0.12863 0.70468
 H385 H 0.67090 0.17753 0.75005
 H386 H 0.74598 0.15003 0.66898
 H387 H 0.63354 0.07890 0.55372
 H388 H 0.56447 0.09570 0.64881
 H389 H 0.70854 0.12240 0.62897
 H390 H 0.67251 0.10757 0.58848
 C391 C 0.66195 0.63815 0.15325
 C392 C 0.65294 0.65096 0.19090
 C393 C 0.67536 0.66701 0.21338
 C394 C 0.70700 0.66920 0.19970
 C395 C 0.71609 0.65582 0.16313
 C396 C 0.69386 0.64063 0.13995
 C397 C 0.63754 0.62121 0.13015
 C398 C 0.64354 0.60991 0.09094
 C399 C 0.62119 0.59232 0.07185
 C400 C 0.59219 0.58551 0.09116
 C401 C 0.58498 0.59815 0.12912
 C402 C 0.60738 0.61624 0.14855
 C403 C 0.62208 0.64674 0.20647
 C404 C 0.59999 0.62922 0.18617
 H405 H 0.61521 0.65638 0.23542
 H406 H 0.57678 0.62586 0.20008
 H407 H 0.66858 0.67695 0.24220
 H408 H 0.74055 0.65718 0.15248
 H409 H 0.62709 0.58345 0.04207
 H410 H 0.56232 0.59349 0.14385
 H411 H 0.70239 0.63043 0.11233
 H412 H 0.66539 0.61421 0.07451
 C413 C 0.84160 -0.13859 0.18254
 C414 C 0.80915 -0.13719 0.17080
 C415 C 0.78629 -0.15423 0.19088
 C416 C 0.79527 -0.17355 0.22170
 C417 C 0.82744 -0.17578 0.23252
 C418 C 0.85041 -0.15835 0.21342
 C419 C 0.86510 -0.11936 0.16089
 C420 C 0.89746 -0.11706 0.17227
 C421 C 0.91825 -0.09860 0.15095
 C422 C 0.90729 -0.08246 0.11757
 C423 C 0.87518 -0.08452 0.10623
 C424 C 0.85402 -0.10228 0.12792
 C425 C 0.79971 -0.11924 0.13859
 C426 C 0.82176 -0.10252 0.11715
 H427 H 0.77492 -0.11839 0.12942
 H428 H 0.81332 -0.08923 0.09209
 H429 H 0.76145 -0.15300 0.18190
 H430 H 0.83474 -0.19084 0.25612
 H431 H 0.94293 -0.09710 0.16036
 H432 H 0.86636 -0.07166 0.08091
 H433 H 0.87485 -0.16088 0.22288
 H434 H 0.90704 -0.12901 0.19777
 C435 C 0.83790 0.36220 0.67817
 C436 C 0.80498 0.36809 0.67447
 C437 C 0.78253 0.35104 0.69538
 C438 C 0.79197 0.32685 0.71861
 C439 C 0.82475 0.32038 0.72060
 C440 C 0.84737 0.33793 0.70112
 C441 C 0.86110 0.38157 0.65628
 C442 C 0.89443 0.37982 0.66159
 C443 C 0.91495 0.39839 0.64013
 C444 C 0.90269 0.41858 0.61242
 C445 C 0.86965 0.42074 0.60734
 C446 C 0.84884 0.40299 0.62971
 C447 C 0.79447 0.39042 0.64889
 C448 C 0.81591 0.40706 0.62625
 H449 H 0.76922 0.39473 0.64565
 H450 H 0.80657 0.42372 0.60626
 H451 H 0.75745 0.35576 0.69135
 H452 H 0.83331 0.30233 0.73858
 H453 H 0.94044 0.39671 0.64475
 H454 H 0.86005 0.43689 0.58669
 H455 H 0.87210 0.33194 0.70399
 H456 H 0.90501 0.36459 0.68255
 C457 C 0.35422 -0.14216 0.66718
 C458 C 0.35013 -0.13861 0.70993
 C459 C 0.32662 -0.15458 0.73077
 C460 C 0.30758 -0.17459 0.70970
 C461 C 0.31306 -0.17942 0.66795
 C462 C 0.33607 -0.16343 0.64685
 C463 C 0.37704 -0.12253 0.64528
 C464 C 0.37940 -0.12161 0.60226
 C465 C 0.39880 -0.10117 0.58304
 C466 C 0.41683 -0.08160 0.60613
 C467 C 0.41583 -0.08302 0.64896
 C468 C 0.39537 -0.10278 0.66867
 C469 C 0.36924 -0.11892 0.73143
 C470 C 0.39180 -0.10175 0.71132
 H471 H 0.36652 -0.11656 0.76428
 H472 H 0.40577 -0.08663 0.72925
 H473 H 0.32286 -0.15130 0.76332
 H474 H 0.29874 -0.19497 0.65127
 H475 H 0.39927 -0.10030 0.54988
 H476 H 0.42935 -0.06750 0.66683
 H477 H 0.33898 -0.16788 0.61465
 H478 H 0.36558 -0.13566 0.58280
 C479 C 0.34166 0.36768 0.16911
 C480 C 0.30888 0.37469 0.16877
 C481 C 0.28681 0.35713 0.18942
 C482 C 0.29634 0.33144 0.20909
 C483 C 0.32880 0.32372 0.20726
 C484 C 0.35118 0.34174 0.18807
 C485 C 0.36455 0.38778 0.14798
 C486 C 0.39799 0.38498 0.15063
 C487 C 0.41817 0.40427 0.12983
 C488 C 0.40535 0.42622 0.10539
 C489 C 0.37224 0.42950 0.10322
 C490 C 0.35188 0.41103 0.12505
 C491 C 0.29805 0.39876 0.14684
 C492 C 0.31902 0.41613 0.12461
 H493 H 0.27287 0.40392 0.14614
 H494 H 0.30940 0.43417 0.10743
 H495 H 0.26180 0.36284 0.18808
 H496 H 0.33738 0.30435 0.22223
 H497 H 0.44375 0.40169 0.13213
 H498 H 0.36229 0.44697 0.08515
 H499 H 0.37574 0.33486 0.18802
 H500 H 0.40893 0.36830 0.16892
 C501 C 0.86062 0.13929 -0.17228
 C502 C 0.84049 0.15737 -0.14860
 C503 C 0.81716 0.17422 -0.16779
 C504 C 0.81238 0.17215 -0.21007
 C505 C 0.83216 0.15428 -0.23358
 C506 C 0.85627 0.13824 -0.21505
 C507 C 0.88397 0.12040 -0.15040
 C508 C 0.90619 0.10271 -0.17103
 C509 C 0.92509 0.08323 -0.14929
 C510 C 0.92205 0.08089 -0.10672
 C511 C 0.90164 0.09971 -0.08567
 C512 C 0.88294 0.11966 -0.10709
 C513 C 0.84247 0.15728 -0.10582
 C514 C 0.86280 0.13839 -0.08546
 H515 H 0.82706 0.17111 -0.08773
 H516 H 0.86250 0.13820 -0.05227
 H517 H 0.80136 0.18763 -0.14956
 H518 H 0.82855 0.15239 -0.26630
 H519 H 0.94110 0.06911 -0.16598
 H520 H 0.89984 0.09841 -0.05257
 H521 H 0.87036 0.12436 -0.23449
 H522 H 0.90896 0.10326 -0.20387
 C523 C 0.85450 0.63552 0.31849
 C524 C 0.84012 0.65883 0.33953
 C525 C 0.81727 0.67592 0.31987
 C526 C 0.80630 0.66873 0.28042
 C527 C 0.82007 0.64491 0.26024
 C528 C 0.84414 0.62883 0.27868
 C529 C 0.87836 0.61752 0.34071
 C530 C 0.89673 0.59606 0.32118
 C531 C 0.91644 0.57800 0.34400
 C532 C 0.91780 0.58075 0.38663
 C533 C 0.90124 0.60314 0.40610
 C534 C 0.88221 0.62203 0.38326
 C535 C 0.84710 0.66382 0.38087
 C536 C 0.86693 0.64523 0.40263
 H537 H 0.83588 0.68154 0.39716
 H538 H 0.87044 0.64912 0.43503
 H539 H 0.80609 0.69332 0.33692
 H540 H 0.81287 0.63896 0.22956
 H541 H 0.92953 0.56101 0.32851
 H542 H 0.90306 0.60570 0.43902
 H543 H 0.85353 0.61065 0.26181
 H544 H 0.89600 0.59278 0.28848
 C545 C 0.35259 0.13808 0.31380
 C546 C 0.34098 0.16320 0.33348
 C547 C 0.31836 0.18067 0.31393
 C548 C 0.30482 0.17218 0.27637
 C549 C 0.31566 0.14650 0.25786
 C550 C 0.33952 0.12996 0.27591
 C551 C 0.37662 0.11999 0.33559
 C552 C 0.39275 0.09688 0.31659
 C553 C 0.41304 0.07919 0.33917
 C554 C 0.41715 0.08392 0.38113
 C555 C 0.40268 0.10776 0.39990
 C556 C 0.38320 0.12635 0.37709
 C557 C 0.35053 0.16974 0.37351
 C558 C 0.37037 0.15117 0.39535
 H559 H 0.34138 0.18882 0.38885
 H560 H 0.37596 0.15644 0.42686
 H561 H 0.30943 0.19961 0.32982
 H562 H 0.30634 0.13943 0.22863
 H563 H 0.42449 0.06104 0.32418
 H564 H 0.40664 0.11182 0.43220
 H565 H 0.34666 0.11039 0.26036
 H566 H 0.38992 0.09211 0.28445
 C567 C 0.34472 0.63685 -0.18791
 C568 C 0.33419 0.66254 -0.16872
 C569 C 0.31087 0.67967 -0.18742
 C570 C 0.29580 0.67058 -0.22373
 C571 C 0.30523 0.64411 -0.24133
 C572 C 0.32964 0.62773 -0.22410
 C573 C 0.37006 0.61948 -0.16739
 C574 C 0.38531 0.59589 -0.18646
 C575 C 0.40709 0.57904 -0.16483
 C576 C 0.41358 0.58513 -0.12373
 C577 C 0.39996 0.60944 -0.10513
 C578 C 0.37900 0.62715 -0.12708
 C579 C 0.34584 0.67023 -0.13005
 C580 C 0.36698 0.65239 -0.10907
 H581 H 0.33750 0.68974 -0.11505
 H582 H 0.37431 0.65861 -0.07852
 H583 H 0.30296 0.69915 -0.17195
 H584 H 0.29465 0.63643 -0.26952
 H585 H 0.41773 0.56042 -0.17965
 H586 H 0.40564 0.61445 -0.07353
 H587 H 0.33586 0.60767 -0.23901
 H588 H 0.38059 0.59008 -0.21788
 C589 C 1.16548 -0.13888 -0.15739
 C590 C 1.15481 -0.15398 -0.19249
 C591 C 1.17643 -0.17048 -0.21561
 C592 C 1.20882 -0.17094 -0.20525
 C593 C 1.21953 -0.15517 -0.17144
 C594 C 1.19817 -0.13944 -0.14759
 C595 C 1.14177 -0.12191 -0.13313
 C596 C 1.14952 -0.10863 -0.09572
 C597 C 1.12735 -0.09151 -0.07540
 C598 C 1.09691 -0.08708 -0.09177
 C599 C 1.08825 -0.10145 -0.12790
 C600 C 1.11037 -0.11919 -0.14837
 C601 C 1.12296 -0.15175 -0.20488
 C602 C 1.10137 -0.13419 -0.18380
 H603 H 1.11480 -0.16311 -0.23193
 H604 H 1.07723 -0.13251 -0.19524
 H605 H 1.16833 -0.18229 -0.24234
 H606 H 1.24455 -0.15523 -0.16331
 H607 H 1.13446 -0.08112 -0.04713
 H608 H 1.06450 -0.09863 -0.14024
 H609 H 1.20788 -0.12746 -0.12217
 H610 H 1.17254 -0.11112 -0.08161
 C611 C 1.15029 0.35262 0.33594
 C612 C 1.15299 0.35652 0.29305
 C613 C 1.17691 0.34205 0.27111
 C614 C 1.19754 0.32303 0.29117
 C615 C 1.19356 0.31770 0.33305
 C616 C 1.17026 0.33236 0.35533
 C617 C 1.12674 0.37071 0.35890
 C618 C 1.12549 0.37157 0.40202
 C619 C 1.10502 0.39063 0.42208
 C620 C 1.08486 0.40874 0.39971
 C621 C 1.08493 0.40733 0.35688
 C622 C 1.10635 0.38912 0.33632
 C623 C 1.13201 0.37494 0.27246
 C624 C 1.10873 0.39046 0.29357
 H625 H 1.13370 0.37751 0.23953
 H626 H 1.09318 0.40460 0.27631
 H627 H 1.17965 0.34563 0.23845
 H628 H 1.20917 0.30275 0.34878
 H629 H 1.10534 0.39158 0.45523
 H630 H 1.06976 0.42178 0.33951
 H631 H 1.16844 0.32765 0.38760
 H632 H 1.14095 0.35858 0.42082
 C633 C 0.64433 -0.15156 0.33781
 C634 C 0.64840 -0.14836 0.29499
 C635 C 0.67260 -0.16360 0.27472
 C636 C 0.69216 -0.18264 0.29643
 C637 C 0.68653 -0.18756 0.33809
 C638 C 0.66289 -0.17217 0.35871
 C639 C 0.62124 -0.13211 0.35918
 C640 C 0.61941 -0.13018 0.40219
 C641 C 0.60008 -0.10949 0.42076
 C642 C 0.58157 -0.09083 0.39699
 C643 C 0.58191 -0.09343 0.35429
 C644 C 0.60238 -0.11325 0.33519
 C645 C 0.62869 -0.12965 0.27288
 C646 C 0.60565 -0.11292 0.29249
 H647 H 0.63135 -0.12767 0.23996
 H648 H 0.59124 -0.09847 0.27414
 H649 H 0.67662 -0.16038 0.24220
 H650 H 0.70127 -0.20258 0.35503
 H651 H 0.60012 -0.10762 0.45384
 H652 H 0.56804 -0.07856 0.33587
 H653 H 0.65985 -0.17645 0.39095
 H654 H 0.63375 -0.14346 0.42201
 C655 C 0.63985 0.34801 -0.16858
 C656 C 0.64538 0.35183 -0.21103
 C657 C 0.67010 0.33666 -0.23047
 C658 C 0.68894 0.31722 -0.20829
 C659 C 0.68188 0.31183 -0.16705
 C660 C 0.65763 0.32701 -0.14732
 C661 C 0.61625 0.36735 -0.14784
 C662 C 0.61281 0.36841 -0.10493
 C663 C 0.59333 0.38911 -0.08668
 C664 C 0.57621 0.40870 -0.11069
 C665 C 0.57795 0.40690 -0.15344
 C666 C 0.59862 0.38699 -0.17215
 C667 C 0.62669 0.37117 -0.23354
 C668 C 0.60336 0.38799 -0.21461
 H669 H 0.63047 0.37365 -0.26621
 H670 H 0.58987 0.40299 -0.23323
 H671 H 0.67513 0.34032 -0.26266
 H672 H 0.69603 0.29664 -0.14961
 H673 H 0.59226 0.39032 -0.05356
 H674 H 0.56516 0.42246 -0.17200
 H675 H 0.65357 0.32231 -0.11538
 H676 H 0.62605 0.35443 -0.08481
 C677 C 1.12904 0.15572 -0.16440
 C678 C 1.15966 0.16424 -0.15100
 C679 C 1.17611 0.18674 -0.17111
 C680 C 1.16243 0.20172 -0.20442
 C681 C 1.13164 0.19322 -0.21696
 C682 C 1.11534 0.17065 -0.19750
 C683 C 1.11252 0.13125 -0.14253
 C684 C 1.08263 0.12027 -0.15468
 C685 C 1.06842 0.09726 -0.13365
 C686 C 1.08343 0.08465 -0.09979
 C687 C 1.11310 0.09548 -0.08719
 C688 C 1.12784 0.11841 -0.10850
 C689 C 1.17359 0.15051 -0.11725
 C690 C 1.15795 0.12827 -0.09630
 H691 H 1.19698 0.15714 -0.10673
 H692 H 1.16976 0.11844 -0.07033
 H693 H 1.19907 0.19332 -0.15921
 H694 H 1.12027 0.20308 -0.24313
 H695 H 1.04552 0.08930 -0.14402
 H696 H 1.12500 0.08573 -0.06122
 H697 H 1.09202 0.16525 -0.20902
 H698 H 1.06990 0.12891 -0.18055
 C699 C 1.12936 0.65589 0.33633
 C700 C 1.16002 0.66380 0.35029
 C701 C 1.17687 0.68654 0.33124
 C702 C 1.16355 0.70234 0.29845
 C703 C 1.13277 0.69435 0.28524
 C704 C 1.11607 0.67159 0.30367
 C705 C 1.11236 0.63120 0.35711
 C706 C 1.08229 0.62095 0.34444
 C707 C 1.06760 0.59775 0.36448
 C708 C 1.08229 0.58418 0.39784
 C709 C 1.11215 0.59427 0.41094
 C710 C 1.12736 0.61744 0.39065
 C711 C 1.17361 0.64918 0.38354
 C712 C 1.15757 0.62666 0.40342
 H713 H 1.19704 0.65530 0.39449
 H714 H 1.16914 0.61613 0.42901
 H715 H 1.19987 0.69262 0.34355
 H716 H 1.12170 0.70474 0.25926
 H717 H 1.04456 0.59039 0.35374
 H718 H 1.12380 0.58382 0.43655
 H719 H 1.09279 0.66663 0.29165
 H720 H 1.06976 0.63033 0.31894
 C721 C 0.62807 0.15935 0.32162
 C722 C 0.65609 0.17100 0.33924
 C723 C 0.67228 0.19397 0.31992
 C724 C 0.66112 0.20565 0.28293
 C725 C 0.63332 0.19409 0.26559
 C726 C 0.61699 0.17129 0.28457
 C727 C 0.61162 0.13470 0.34316
 C728 C 0.58358 0.12159 0.32826
 C729 C 0.56935 0.09854 0.34921
 C730 C 0.58261 0.08787 0.38554
 C731 C 0.61039 0.10085 0.40087
 C732 C 0.62492 0.12410 0.38004
 C733 C 0.66787 0.15966 0.37596
 C734 C 0.65267 0.13671 0.39587
 H735 H 0.68931 0.16859 0.38949
 H736 H 0.66285 0.12867 0.42412
 H737 H 0.69348 0.20297 0.33396
 H738 H 0.62439 0.20240 0.23683
 H739 H 0.54788 0.08896 0.33675
 H740 H 0.62079 0.09282 0.42900
 H741 H 0.59589 0.16329 0.26955
 H742 H 0.57223 0.12873 0.30049
 C743 C 0.62885 0.66018 -0.17731
 C744 C 0.65956 0.66786 -0.16325
 C745 C 0.67643 0.69078 -0.18179
 C746 C 0.66316 0.70695 -0.21426
 C747 C 0.63231 0.69923 -0.22753
 C748 C 0.61554 0.67630 -0.20955
 C749 C 0.61184 0.63527 -0.15704
 C750 C 0.58167 0.62524 -0.16972
 C751 C 0.56694 0.60188 -0.15001
 C752 C 0.58174 0.58793 -0.11705
 C753 C 0.61173 0.59775 -0.10407
 C754 C 0.62693 0.62108 -0.12393
 C755 C 0.67321 0.65281 -0.13045
 C756 C 0.65720 0.63007 -0.11109
 H757 H 0.69668 0.65876 -0.11945
 H758 H 0.66882 0.61922 -0.08581
 H759 H 0.69944 0.69667 -0.16935
 H760 H 0.62124 0.70993 -0.25324
 H761 H 0.54380 0.59473 -0.16066
 H762 H 0.62346 0.58703 -0.07873
 H763 H 0.59222 0.67152 -0.22159
 H764 H 0.56907 0.63496 -0.19491
 C765 C 0.87203 -0.16114 -0.16994
 C766 C 0.84313 -0.17177 -0.15308
 C767 C 0.82566 -0.19328 -0.17374
 C768 C 0.83626 -0.20437 -0.21148
 C769 C 0.86480 -0.19361 -0.22822
 C770 C 0.88246 -0.17236 -0.20783
 C771 C 0.88998 -0.13818 -0.14681
 C772 C 0.91927 -0.12657 -0.16049
 C773 C 0.93474 -0.10488 -0.13827
 C774 C 0.92153 -0.09409 -0.10184
 C775 C 0.89264 -0.10579 -0.08754
 C776 C 0.87689 -0.12773 -0.10961
 C777 C 0.83173 -0.16079 -0.11582
 C778 C 0.84814 -0.13917 -0.09469
 H779 H 0.80961 -0.16890 -0.10289
 H780 H 0.83813 -0.13129 -0.06616
 H781 H 0.80387 -0.20161 -0.16013
 H782 H 0.87335 -0.20134 -0.25756
 H783 H 0.95707 -0.09633 -0.14994
 H784 H 0.88228 -0.09773 -0.05931
 H785 H 0.90406 -0.16490 -0.22248
 H786 H 0.93064 -0.13386 -0.18828
 C787 C 0.86794 0.34051 0.32494
 C788 C 0.83915 0.32957 0.34167
 C789 C 0.82218 0.30770 0.32110
 C790 C 0.83320 0.29656 0.28358
 C791 C 0.86164 0.30761 0.26698
 C792 C 0.87880 0.32922 0.28727
 C793 C 0.88537 0.36383 0.34794
 C794 C 0.91450 0.37573 0.33433
 C795 C 0.92956 0.39768 0.35645
 C796 C 0.91608 0.40846 0.39272
 C797 C 0.88728 0.39654 0.40694
 C798 C 0.87194 0.37431 0.38495
 C799 C 0.82737 0.34060 0.37871
 C800 C 0.84330 0.36256 0.39975
 H801 H 0.80531 0.33225 0.39154
 H802 H 0.83303 0.37045 0.42812
 H803 H 0.80046 0.29914 0.33459
 H804 H 0.87048 0.29983 0.23781
 H805 H 0.95183 0.40639 0.34482
 H806 H 0.87674 0.40460 0.43506
 H807 H 0.90034 0.33688 0.27273
 H808 H 0.92611 0.36848 0.30669
 C809 C 0.36993 -0.16010 0.33425
 C810 C 0.34233 -0.17171 0.35324
 C811 C 0.32552 -0.19453 0.33454
 C812 C 0.33549 -0.20593 0.29667
 C813 C 0.36279 -0.19422 0.27791
 C814 C 0.37980 -0.17171 0.29635
 C815 C 0.38715 -0.13567 0.35514
 C816 C 0.41516 -0.12307 0.33916
 C817 C 0.43003 -0.10009 0.35925
 C818 C 0.41748 -0.08890 0.39583
 C819 C 0.38982 -0.10151 0.41246
 C820 C 0.37469 -0.12483 0.39250
 C821 C 0.33152 -0.16032 0.39056
 C822 C 0.34722 -0.13731 0.40963
 H823 H 0.31038 -0.16918 0.40513
 H824 H 0.33770 -0.12918 0.43828
 H825 H 0.30468 -0.20353 0.34966
 H826 H 0.37075 -0.20210 0.24839
 H827 H 0.45142 -0.09090 0.34579
 H828 H 0.38004 -0.09317 0.44087
 H829 H 0.40038 -0.16358 0.28011
 H830 H 0.42606 -0.13056 0.31117
 C831 C 0.36653 0.34100 -0.17021
 C832 C 0.33611 0.33272 -0.15555
 C833 C 0.31932 0.31000 -0.17454
 C834 C 0.33223 0.29489 -0.20842
 C835 C 0.36275 0.30334 -0.22237
 C836 C 0.37951 0.32590 -0.20375
 C837 C 0.38348 0.36563 -0.14945
 C838 C 0.41361 0.37576 -0.16224
 C839 C 0.42818 0.39904 -0.14251
 C840 C 0.41330 0.41291 -0.10939
 C841 C 0.38345 0.40282 -0.09594
 C842 C 0.36842 0.37941 -0.11581
 C843 C 0.32260 0.34710 -0.12191
 C844 C 0.33839 0.36989 -0.10248
 H845 H 0.29932 0.34071 -0.11048
 H846 H 0.32680 0.38033 -0.07672
 H847 H 0.29662 0.30355 -0.16150
 H848 H 0.37355 0.29356 -0.24908
 H849 H 0.45127 0.40628 -0.15348
 H850 H 0.37173 0.41340 -0.07038
 H851 H 0.40251 0.33129 -0.21652
 H852 H 0.42635 0.36620 -0.18754
 C853 C 1.12922 -0.15846 0.18525
 C854 C 1.15982 -0.16641 0.17093
 C855 C 1.17673 -0.18888 0.19011
 C856 C 1.16364 -0.20436 0.22354
 C857 C 1.13304 -0.19616 0.23740
 C858 C 1.11623 -0.17367 0.21876
 C859 C 1.11198 -0.13431 0.16383
 C860 C 1.08166 -0.12431 0.17611
 C861 C 1.06670 -0.10174 0.15510
 C862 C 1.08144 -0.08860 0.12123
 C863 C 1.11158 -0.09840 0.10870
 C864 C 1.12694 -0.12093 0.12975
 C865 C 1.17331 -0.15213 0.13715
 C866 C 1.15721 -0.13000 0.11694
 H867 H 1.19672 -0.15824 0.12600
 H868 H 1.16871 -0.11975 0.09091
 H869 H 1.19955 -0.19507 0.17729
 H870 H 1.12218 -0.20622 0.26393
 H871 H 1.04345 -0.09458 0.16542
 H872 H 1.12327 -0.08834 0.08264
 H873 H 1.09310 -0.16851 0.23124
 H874 H 1.06910 -0.13351 0.20191
 C875 C 1.12530 0.33945 0.67886
 C876 C 1.15309 0.32803 0.66020
 C877 C 1.17026 0.30579 0.67948
 C878 C 1.16034 0.29459 0.71745
 C879 C 1.13293 0.30610 0.73602
 C880 C 1.11563 0.32817 0.71709
 C881 C 1.10761 0.36315 0.65709
 C882 C 1.07948 0.37580 0.67266
 C883 C 1.06418 0.39805 0.65138
 C884 C 1.07647 0.40831 0.61409
 C885 C 1.10422 0.39565 0.59809
 C886 C 1.11977 0.37324 0.61915
 C887 C 1.16364 0.33885 0.62242
 C888 C 1.14741 0.36100 0.60242
 H889 H 1.18489 0.33012 0.60811
 H890 H 1.15668 0.36866 0.57333
 H891 H 1.19118 0.29689 0.66456
 H892 H 1.12499 0.29823 0.76560
 H893 H 1.04275 0.40740 0.66435
 H894 H 1.11387 0.40330 0.56919
 H895 H 1.09487 0.33615 0.73301
 H896 H 1.06892 0.36890 0.70120
 C897 C 0.62987 -0.15349 0.67326
 C898 C 0.66030 -0.16175 0.65866
 C899 C 0.67721 -0.18417 0.67799
 C900 C 0.66416 -0.19944 0.71165
 C901 C 0.63371 -0.19097 0.72573
 C902 C 0.61698 -0.16843 0.70706
 C903 C 0.61265 -0.12938 0.65171
 C904 C 0.58268 -0.11885 0.66454
 C905 C 0.56769 -0.09637 0.64335
 C906 C 0.58202 -0.08389 0.60870
 C907 C 0.61183 -0.09420 0.59565
 C908 C 0.62727 -0.11657 0.61697
 C909 C 0.67355 -0.14792 0.62435
 C910 C 0.65733 -0.12598 0.60384
 H911 H 0.69680 -0.15428 0.61296
 H912 H 0.66861 -0.11613 0.57733
 H913 H 0.69994 -0.19058 0.66508
 H914 H 0.62291 -0.20088 0.75241
 H915 H 0.54473 -0.08878 0.65411
 H916 H 0.62325 -0.08460 0.56906
 H917 H 0.59394 -0.16310 0.71967
 H918 H 0.57045 -0.12753 0.69095
 C919 C 0.62588 0.34492 0.16684
 C920 C 0.65347 0.33319 0.14808
 C921 C 0.67055 0.31095 0.16746
 C922 C 0.66066 0.29993 0.20556
 C923 C 0.63338 0.31166 0.22416
 C924 C 0.61622 0.33383 0.20520
 C925 C 0.60829 0.36864 0.14495
 C926 C 0.58053 0.38177 0.16079
 C927 C 0.56529 0.40399 0.13935
 C928 C 0.57725 0.41371 0.10161
 C929 C 0.60466 0.40059 0.08537
 C930 C 0.62020 0.37828 0.10664
 C931 C 0.66384 0.34365 0.11001
 C932 C 0.64761 0.36569 0.08979
 H933 H 0.68493 0.33467 0.09561
 H934 H 0.65671 0.37303 0.06044
 H935 H 0.69132 0.30182 0.15247
 H936 H 0.62541 0.30386 0.25377
 H937 H 0.54414 0.41370 0.15254
 H938 H 0.61410 0.40787 0.05616
 H939 H 0.59554 0.34195 0.22112
 H940 H 0.57023 0.37531 0.18969
 C941 C 0.86279 0.15879 0.15918
 C942 C 0.87407 0.16902 0.19737
 C943 C 0.85817 0.19169 0.21767
 C944 C 0.83096 0.20452 0.20058
 C945 C 0.81998 0.19441 0.16261
 C946 C 0.83559 0.17192 0.14217
 C947 C 0.88027 0.13430 0.13874
 C948 C 0.87086 0.12234 0.10091
 C949 C 0.88763 0.09925 0.08354
 C950 C 0.91425 0.08748 0.10325
 C951 C 0.92405 0.09941 0.14070
 C952 C 0.90729 0.12257 0.15856
 C953 C 0.90105 0.15651 0.21519
 C954 C 0.91729 0.13384 0.19622
 H955 H 0.90974 0.16434 0.24439
 H956 H 0.93798 0.12489 0.21140
 H957 H 0.86672 0.19902 0.24719
 H958 H 0.79938 0.20417 0.14834
 H959 H 0.87960 0.09051 0.05457
 H960 H 0.94461 0.09049 0.15623
 H961 H 0.82594 0.16523 0.11312
 H962 H 0.85056 0.13034 0.08430
 C963 C 0.86340 0.65885 0.66110
 C964 C 0.87503 0.66845 0.69944
 C965 C 0.85950 0.69098 0.72054
 C966 C 0.83229 0.70427 0.70411
 C967 C 0.82096 0.69476 0.66602
 C968 C 0.83620 0.67244 0.64479
 C969 C 0.88050 0.63454 0.63976
 C970 C 0.87075 0.62328 0.60166
 C971 C 0.88714 0.60033 0.58340
 C972 C 0.91374 0.58796 0.60244
 C973 C 0.92392 0.59919 0.64015
 C974 C 0.90752 0.62224 0.65891
 C975 C 0.90200 0.65543 0.71659
 C976 C 0.91787 0.63287 0.69679
 H977 H 0.91096 0.66275 0.74591
 H978 H 0.93855 0.62352 0.71149
 H979 H 0.86833 0.69785 0.75015
 H980 H 0.80037 0.70489 0.65223
 H981 H 0.87880 0.59215 0.55425
 H982 H 0.94445 0.58982 0.65516
 H983 H 0.82628 0.66623 0.61568
 H984 H 0.85044 0.63173 0.58550
 C985 C 0.36425 0.16099 0.66251
 C986 C 0.37621 0.17061 0.70066
 C987 C 0.35984 0.19198 0.72307
 C988 C 0.33148 0.20412 0.70811
 C989 C 0.31975 0.19452 0.67026
 C990 C 0.33580 0.17331 0.64777
 C991 C 0.38237 0.13799 0.63967
 C992 C 0.37242 0.12682 0.60161
 C993 C 0.38976 0.10504 0.58198
 C994 C 0.41755 0.09379 0.59957
 C995 C 0.42797 0.10502 0.63718
 C996 C 0.41061 0.12688 0.65732
 C997 C 0.40440 0.15881 0.71629
 C998 C 0.42120 0.13746 0.69512
 H999 H 0.41361 0.16616 0.74547
 H1000 H 0.44280 0.12901 0.70868
 H1001 H 0.36899 0.19889 0.75249
 H1002 H 0.29823 0.20377 0.65763
 H1003 H 0.38121 0.09684 0.55295
 H1004 H 0.44941 0.09649 0.65109
 H1005 H 0.32553 0.16698 0.61891
 H1006 H 0.35122 0.13443 0.58653
 C1007 C 0.36470 0.66059 0.16358
 C1008 C 0.37711 0.66953 0.20182
 C1009 C 0.36115 0.69068 0.22516
 C1010 C 0.33271 0.70321 0.21110
 C1011 C 0.32054 0.69427 0.17315
 C1012 C 0.33620 0.67333 0.14972
 C1013 C 0.38239 0.63784 0.13970
 C1014 C 0.37202 0.62746 0.10138
 C1015 C 0.38895 0.60587 0.08076
 C1016 C 0.41672 0.59401 0.09759
 C1017 C 0.42757 0.60448 0.13545
 C1018 C 0.41064 0.62617 0.15657
 C1019 C 0.40532 0.65724 0.21662
 C1020 C 0.42168 0.63605 0.19454
 H1021 H 0.41489 0.66405 0.24587
 H1022 H 0.44331 0.62719 0.20750
 H1023 H 0.37067 0.69712 0.25460
 H1024 H 0.29899 0.70386 0.16112
 H1025 H 0.38007 0.59828 0.05157
 H1026 H 0.44901 0.59550 0.14877
 H1027 H 0.32558 0.66752 0.12086
 H1028 H 0.35082 0.63555 0.08683
   
