data_POSCAR
  _audit_creation_date              2014-09-24
  _audit_creation_method            'ToBaCCo'
  _symmetry_space_group_name_H-M    'P1'
  _symmetry_Int_Tables_number       1
  _symmetry_cell_setting            triclinic
  loop_
  _symmetry_equiv_pos_as_xyz
 x,y,z
_cell_length_a 25.5642
_cell_length_b 24.7466
_cell_length_c 70.1607
_cell_angle_alpha 82.662100
_cell_angle_beta 92.459300
_cell_angle_gamma 118.079800
loop_
  _atom_site_label
  _atom_site_type_symbol
  _atom_site_fract_x
  _atom_site_fract_y
  _atom_site_fract_z
C1 C -0.02935 0.14517 0.50623
 H2 H 0.01290 0.16201 0.49901
 C3 C -0.03579 0.18038 0.51903
 H4 H 0.00112 0.22492 0.52098
 C5 C -0.12701 0.06505 0.51352
 H6 H -0.16150 0.01903 0.51179
 C7 C -0.13521 0.09866 0.52664
 H8 H -0.17624 0.07807 0.53493
 N9 N -0.07427 0.08824 0.50393
 C10 C -0.04072 -0.06799 0.50384
 H11 H -0.04475 -0.07566 0.48889
 C12 C -0.03646 -0.11124 0.51789
 H13 H -0.03753 -0.15226 0.51361
 C14 C -0.03785 -0.00696 0.52767
 H15 H -0.03855 0.03357 0.53153
 C16 C -0.03323 -0.04864 0.54210
 H17 H -0.02994 -0.03924 0.55688
 Zn18 Zn -0.05832 0.03578 0.49047
 N19 N -0.04289 -0.01787 0.50900
 C20 C 0.05511 0.07163 0.47375
 N21 N 0.00888 0.08447 0.47391
 C22 C 0.00988 0.13384 0.46257
 C23 C 0.05836 0.17240 0.45045
 C24 C 0.10457 0.10896 0.46170
 C25 C -0.16215 -0.07153 0.48291
 C26 C -0.20620 -0.11086 0.47145
 C27 C -0.17615 -0.02615 0.44605
 C28 C -0.13264 0.01126 0.45802
 N29 N -0.12502 -0.01224 0.47585
 H30 H 0.05390 0.03266 0.48301
 H31 H -0.02658 0.14420 0.46326
 H32 H 0.05785 0.21112 0.44146
 H33 H 0.14118 0.09843 0.46184
 H34 H -0.15702 -0.08892 0.49742
 H35 H -0.23484 -0.15707 0.47810
 H36 H -0.17641 -0.00514 0.43162
 H37 H -0.10331 0.05853 0.45259
 C38 C -0.03410 -0.10248 0.53737
 C39 C -0.08846 0.15636 0.52994
 C40 C -0.21302 -0.08968 0.45222
 C41 C 0.10665 0.16033 0.44992
 C42 C 1.17286 0.06593 0.14148
 H43 H 1.17907 0.11240 0.14119
 C44 C 1.20928 0.05462 0.13019
 H45 H 1.24314 0.09273 0.12108
 C46 C 1.11949 -0.04026 0.15330
 H47 H 1.08439 -0.07694 0.16235
 C48 C 1.15484 -0.05377 0.14208
 H49 H 1.14686 -0.10098 0.14265
 N50 N 1.12866 0.01877 0.15257
 C51 C 0.98854 0.06993 0.15640
 H52 H 0.98568 0.07050 0.17171
 C53 C 0.94728 0.07777 0.14420
 H54 H 0.91335 0.08543 0.15019
 C55 C 1.03515 0.05722 0.13011
 H56 H 1.06824 0.04741 0.12467
 C57 C 0.99499 0.06486 0.11743
 H58 H 0.99784 0.06058 0.10239
 Zn59 Zn 1.08112 0.04072 0.16641
 N60 N 1.03121 0.05963 0.14921
 C61 C 1.12517 0.16062 0.17844
 N62 N 1.13275 0.10960 0.17894
 C63 C 1.17727 0.10484 0.18904
 C64 C 1.21485 0.15132 0.19986
 C65 C 1.16166 0.20821 0.18917
 C66 C 0.98468 -0.07524 0.17904
 C67 C 0.94213 -0.11939 0.19237
 C68 C 0.99805 -0.05973 0.21765
 C69 C 1.03919 -0.01680 0.20390
 N70 N 1.03147 -0.02462 0.18496
 H71 H 1.09010 0.16395 0.17009
 H72 H 1.18238 0.06382 0.18913
 H73 H 1.24846 0.14534 0.20841
 H74 H 1.15442 0.24802 0.18893
 H75 H 0.97897 -0.07983 0.16386
 H76 H 0.90375 -0.15791 0.18733
 H77 H 1.00464 -0.05196 0.23261
 H78 H 1.07601 0.02392 0.20838
 C79 C 0.94986 0.07463 0.12443
 C80 C 1.20031 -0.00591 0.13028
 C81 C 0.94782 -0.11094 0.21193
 C82 C 1.20670 0.20344 0.20028
 C83 C 0.07258 0.89524 0.85628
 H84 H 0.04140 0.85069 0.85215
 C85 C 0.11941 0.90039 0.86817
 H86 H 0.12471 0.85977 0.87268
 C87 C 0.10167 1.00150 0.85608
 H88 H 0.09317 1.04016 0.85178
 C89 C 0.14897 1.00865 0.86812
 H90 H 0.17663 1.05311 0.87302
 N91 N 0.06418 0.94520 0.85069
 C92 C -0.12081 0.90541 0.85298
 H93 H -0.13310 0.90804 0.83807
 C94 C -0.15892 0.90203 0.86738
 H95 H -0.19966 0.90266 0.86296
 C96 C -0.04992 0.90788 0.87607
 H97 H -0.00731 0.91052 0.87956
 C98 C -0.08650 0.90407 0.89086
 H99 H -0.07141 0.90127 0.90541
 Zn100 Zn -0.00705 0.93245 0.83818
 N101 N -0.06624 0.91118 0.85746
 C102 C -0.08508 0.82360 0.82097
 N103 N -0.02830 0.86878 0.82232
 C104 C 0.01660 0.87107 0.81197
 C105 C 0.00537 0.82752 0.79950
 C106 C -0.09846 0.77922 0.80845
 C107 C -0.02646 1.03559 0.82605
 C108 C -0.02520 1.08355 0.81291
 C109 C 0.04470 1.07412 0.79329
 C110 C 0.04155 1.02578 0.80672
 N111 N 0.00468 1.00596 0.82238
 H112 H -0.12014 0.82214 0.82941
 H113 H 0.06151 0.90675 0.81346
 H114 H 0.04178 0.83101 0.79117
 H115 H -0.14384 0.74373 0.80740
 H116 H -0.05364 1.02124 0.83891
 H117 H -0.05209 1.10500 0.81568
 H118 H 0.07199 1.08725 0.78043
 H119 H 0.06697 1.00271 0.80421
 C120 C -0.14078 0.90463 0.88672
 C121 C 0.15742 0.95726 0.87470
 C122 C 0.00943 1.10213 0.79603
 C123 C -0.05278 0.78099 0.79752
 C124 C 0.38797 -0.04083 0.00500
 C125 C 0.41595 -0.03185 -0.01276
 C126 C 0.47414 -0.02377 -0.01311
 C127 C 0.50333 -0.02798 0.00411
 C128 C 0.47270 -0.04053 0.02170
 C129 C 0.41619 -0.04447 0.02234
 C130 C 0.56605 -0.01742 0.00392
 C131 C 0.60322 0.00653 0.01949
 C132 C 0.66168 0.01579 0.01983
 C133 C 0.68431 0.00393 0.00398
 C134 C 0.64928 -0.01776 -0.01203
 C135 C 0.58974 -0.03001 -0.01177
 H136 H 0.34479 -0.04277 0.00524
 H137 H 0.49635 -0.01411 -0.02684
 H138 H 0.49270 -0.04715 0.03509
 H139 H 0.58746 0.01916 0.03138
 H140 H 0.72917 0.01004 0.00428
 H141 H 0.56248 -0.04880 -0.02388
 C142 C -0.07634 0.60306 0.66751
 C143 C -0.08565 0.56262 0.68445
 C144 C -0.08679 0.50581 0.68339
 C145 C -0.07460 0.49075 0.66597
 C146 C -0.06428 0.53284 0.64923
 C147 C -0.06673 0.58814 0.64980
 C148 C -0.07182 0.43180 0.66547
 C149 C -0.08522 0.40230 0.64864
 C150 C -0.08101 0.34788 0.64814
 C151 C -0.06728 0.32047 0.66500
 C152 C -0.05443 0.34846 0.68190
 C153 C -0.05494 0.40480 0.68190
 H154 H -0.07449 0.64743 0.66815
 H155 H -0.09749 0.47333 0.69630
 H156 H -0.05439 0.52298 0.63565
 H157 H -0.09799 0.42183 0.63576
 H158 H -0.06566 0.27750 0.66491
 H159 H -0.04251 0.42697 0.69488
 C160 C 0.64548 0.68250 0.33108
 C161 C 0.63533 0.65145 0.31485
 C162 C 0.58423 0.59443 0.31438
 C163 C 0.54164 0.56986 0.32951
 C164 C 0.55223 0.60314 0.34540
 C165 C 0.60448 0.65872 0.34646
 C166 C 0.48588 0.51038 0.32864
 C167 C 0.45698 0.47240 0.34564
 C168 C 0.40290 0.41828 0.34507
 C169 C 0.37919 0.40019 0.32718
 C170 C 0.40791 0.43609 0.31000
 C171 C 0.46045 0.49161 0.31086
 H172 H 0.68634 0.72489 0.33190
 H173 H 0.57767 0.56985 0.30207
 H174 H 0.51944 0.58680 0.35687
 H175 H 0.47657 0.48440 0.35945
 H176 H 0.33793 0.35810 0.32659
 H177 H 0.48044 0.52065 0.29758
 C178 C -0.09616 0.24352 0.57798
 C179 C -0.14646 0.21735 0.56653
 C180 C -0.14407 0.18968 0.55060
 C181 C -0.09177 0.18833 0.54603
 C182 C -0.04260 0.21543 0.55779
 N183 N -0.04618 0.24146 0.57322
 C184 C -0.09549 0.27052 0.59572
 N185 N -0.05194 0.27709 0.60849
 C186 C -0.04695 0.30129 0.62516
 C187 C -0.08731 0.32117 0.62989
 C188 C -0.13226 0.31588 0.61685
 C189 C -0.13664 0.29044 0.59976
 H190 H -0.18306 0.16918 0.54193
 H191 H -0.00177 0.21428 0.55513
 H192 H -0.01084 0.30573 0.63458
 H193 H -0.16421 0.33083 0.61997
 H194 H -0.18763 0.21655 0.57000
 H195 H -0.17120 0.28745 0.58985
 C196 C 0.80929 0.77393 0.25335
 C197 C 0.82376 0.74653 0.23947
 C198 C 0.86899 0.78377 0.22588
 C199 C 0.89984 0.84796 0.22614
 C200 C 0.88340 0.87329 0.24009
 N201 N 0.83935 0.83631 0.25305
 C202 C 0.76210 0.73855 0.26827
 N203 N 0.74289 0.77063 0.27783
 C204 C 0.70196 0.74353 0.29234
 C205 C 0.67789 0.68005 0.29831
 C206 C 0.69616 0.64549 0.28855
 C207 C 0.73837 0.67452 0.27356
 H208 H 0.88018 0.76241 0.21531
 H209 H 0.90486 0.92264 0.24056
 H210 H 0.68840 0.77178 0.29922
 H211 H 0.67909 0.59647 0.29285
 H212 H 0.80030 0.69734 0.23883
 H213 H 0.75310 0.64721 0.26671
 C214 C 0.28148 -0.03102 -0.08082
 C215 C 0.29748 0.01804 -0.09573
 C216 C 0.25765 0.01402 -0.11048
 C217 C 0.20206 -0.03858 -0.11047
 C218 C 0.18819 -0.08662 -0.09540
 N219 N 0.22740 -0.08148 -0.08121
 C220 C 0.31930 -0.02935 -0.06403
 N221 N 0.29363 -0.07156 -0.04837
 C222 C 0.32373 -0.07341 -0.03211
 C223 C 0.38381 -0.03080 -0.03083
 C224 C 0.41184 0.01254 -0.04690
 C225 C 0.37985 0.01344 -0.06353
 H226 H 0.27024 0.05212 -0.12184
 H227 H 0.14546 -0.12752 -0.09452
 H228 H 0.30063 -0.10841 -0.02022
 H229 H 0.45813 0.04635 -0.04650
 H230 H 0.33929 0.05974 -0.09590
 H231 H 0.40271 0.04704 -0.07571
 C232 C -0.04119 0.76012 0.58266
 C233 C -0.00739 0.77155 0.56590
 C234 C -0.00487 0.81632 0.55106
 C235 C -0.03581 0.84967 0.55283
 C236 C -0.06961 0.83613 0.56968
 N237 N -0.07136 0.79255 0.58386
 C238 C -0.04646 0.71382 0.59918
 N239 N -0.08867 0.69899 0.61291
 C240 C -0.09612 0.65881 0.62891
 C241 C -0.05946 0.63072 0.63200
 C242 C -0.01581 0.64469 0.61802
 C243 C -0.00897 0.68632 0.60164
 H244 H 0.02173 0.82528 0.53830
 H245 H -0.09537 0.85952 0.57152
 H246 H -0.13088 0.64873 0.63918
 H247 H 0.01392 0.62461 0.61998
 H248 H 0.01643 0.74627 0.56402
 H249 H 0.02609 0.69741 0.59141
 C250 C 0.30587 0.32738 0.24104
 C251 C 0.33481 0.30640 0.22962
 C252 C 0.30309 0.26796 0.21578
 C253 C 0.24265 0.25021 0.21322
 C254 C 0.21595 0.27394 0.22442
 N255 N 0.24753 0.31063 0.23799
 C256 C 0.33477 0.36173 0.25756
 N257 N 0.29962 0.36026 0.27186
 C258 C 0.32195 0.38588 0.28828
 C259 C 0.38334 0.41457 0.29122
 C260 C 0.42067 0.41908 0.27633
 C261 C 0.39669 0.39303 0.25948
 H262 H 0.32551 0.25102 0.20735
 H263 H 0.16931 0.26096 0.22308
 H264 H 0.29159 0.38278 0.29917
 H265 H 0.46831 0.44090 0.27797
 H266 H 0.38056 0.31690 0.23179
 H267 H 0.42653 0.39700 0.24830
 C268 C 0.76547 -0.06377 -0.07145
 C269 C 0.82550 -0.04715 -0.06901
 C270 C 0.85572 -0.05908 -0.08250
 C271 C 0.82675 -0.08787 -0.09875
 C272 C 0.76557 -0.10546 -0.10025
 N273 N 0.73697 -0.09340 -0.08674
 C274 C 0.73359 -0.04892 -0.05760
 N275 N 0.67658 -0.08990 -0.05211
 C276 C 0.64744 -0.08000 -0.03822
 C277 C 0.67634 -0.02675 -0.02885
 C278 C 0.73390 0.01723 -0.03507
 C279 C 0.76252 0.00641 -0.04937
 H280 H 0.90275 -0.04210 -0.08048
 H281 H 0.73986 -0.12979 -0.11188
 H282 H 0.60285 -0.11483 -0.03393
 H283 H 0.75718 0.05973 -0.02863
 H284 H 0.84928 -0.02462 -0.05680
 H285 H 0.80716 0.04082 -0.05382
 C286 C 0.30353 -0.03528 0.09030
 C287 C 0.33115 0.01428 0.10130
 C288 C 0.29793 0.02232 0.11486
 C289 C 0.23719 -0.01847 0.11754
 C290 C 0.21162 -0.06859 0.10677
 N291 N 0.24475 -0.07515 0.09347
 C292 C 0.33479 -0.04213 0.07416
 N293 N 0.30191 -0.07630 0.06018
 C294 C 0.32679 -0.08034 0.04403
 C295 C 0.38854 -0.04770 0.04099
 C296 C 0.42343 -0.01437 0.05561
 C297 C 0.39693 -0.01194 0.07222
 H298 H 0.31955 0.06132 0.12298
 H299 H 0.16480 -0.10089 0.10827
 H300 H 0.29815 -0.10800 0.03342
 H301 H 0.47118 0.01181 0.05395
 H302 H 0.37714 0.04831 0.09905
 H303 H 0.42521 0.01418 0.08314
 C304 C 0.68245 0.79242 0.41221
 C305 C 0.69471 0.76742 0.42983
 C306 C 0.72720 0.80617 0.44351
 C307 C 0.74902 0.87096 0.43987
 C308 C 0.73221 0.89295 0.42226
 N309 N 0.70088 0.85408 0.40919
 C310 C 0.65543 0.75549 0.39604
 N311 N 0.66354 0.78597 0.37795
 C312 C 0.64524 0.75619 0.36207
 C313 C 0.61758 0.69149 0.36379
 C314 C 0.60622 0.65889 0.38233
 C315 C 0.62478 0.69059 0.39847
 H316 H 0.73864 0.78450 0.45616
 H317 H 0.74272 0.94070 0.41866
 H318 H 0.65350 0.78319 0.34809
 H319 H 0.58492 0.60895 0.38434
 H320 H 0.68252 0.71897 0.43279
 H321 H 0.61574 0.66418 0.41254
 C322 C -0.00830 0.22190 0.74967
 C323 C 0.04875 0.23240 0.75537
 C324 C 0.05498 0.19411 0.77077
 C325 C 0.00462 0.14630 0.78062
 C326 C -0.05141 0.13839 0.77473
 N327 N -0.05640 0.17527 0.75948
 C328 C -0.01814 0.25694 0.73250
 N329 N -0.06766 0.22757 0.72211
 C330 C -0.07983 0.25596 0.70599
 C331 C -0.04134 0.31795 0.69959
 C332 C 0.00941 0.34972 0.71026
 C333 C 0.02144 0.31924 0.72667
 H334 H 0.09894 0.20142 0.77487
 H335 H -0.09134 0.10144 0.78177
 H336 H -0.11980 0.23026 0.69826
 H337 H 0.04002 0.39769 0.70573
 H338 H 0.08793 0.26813 0.74762
 H339 H 0.06066 0.34431 0.73480
 C340 C 0.81659 0.06900 0.08443
 C341 C 0.80012 0.04310 0.10366
 C342 C 0.84377 0.04709 0.11693
 C343 C 0.90380 0.07719 0.11124
 C344 C 0.91857 0.10558 0.09223
 N345 N 0.87533 0.10027 0.07952
 C346 C 0.77307 0.06000 0.06882
 N347 N 0.79441 0.08766 0.05078
 C348 C 0.75934 0.07697 0.03514
 C349 C 0.69868 0.03505 0.03704
 C350 C 0.67500 0.00780 0.05555
 C351 C 0.71184 0.02002 0.07145
 H352 H 0.83024 0.02429 0.13143
 H353 H 0.96437 0.13061 0.08731
 H354 H 0.77924 0.09993 0.02116
 H355 H 0.62848 -0.02524 0.05763
 H356 H 0.75442 0.01858 0.10854
 H357 H 0.69224 -0.00383 0.08533
 C358 C 0.25053 0.27744 0.41060
 C359 C 0.22570 0.30356 0.42164
 C360 C 0.17998 0.26547 0.43481
 C361 C 0.15849 0.20134 0.43707
 C362 C 0.18538 0.17711 0.42615
 N363 N 0.22955 0.21512 0.41323
 C364 C 0.29506 0.31489 0.39505
 N365 N 0.30069 0.28617 0.38055
 C366 C 0.33675 0.31767 0.36495
 C367 C 0.36935 0.38236 0.36310
 C368 C 0.36620 0.41266 0.37827
 C369 C 0.32960 0.37923 0.39428
 H370 H 0.16087 0.28616 0.44308
 H371 H 0.16984 0.12786 0.42733
 H372 H 0.33898 0.29218 0.35385
 H373 H 0.39040 0.46246 0.37749
 H374 H 0.23941 0.35244 0.41973
 H375 H 0.32817 0.40398 0.40570
 C376 C -0.08105 0.66224 0.75462
 C377 C -0.03415 0.67453 0.76747
 C378 C -0.02642 0.71126 0.78191
 C379 C -0.06505 0.73604 0.78368
 C380 C -0.11258 0.72099 0.77103
 N381 N -0.11878 0.68573 0.75686
 C382 C -0.08706 0.62981 0.73764
 N383 N -0.11601 0.64050 0.72205
 C384 C -0.11867 0.61727 0.70528
 C385 C -0.09014 0.58161 0.70335
 C386 C -0.06229 0.56778 0.71952
 C387 C -0.06105 0.59127 0.73666
 H388 H 0.01061 0.72144 0.79147
 H389 H -0.14311 0.73957 0.77181
 H390 H -0.14201 0.62780 0.69336
 H391 H -0.03950 0.54067 0.71874
 H392 H -0.00191 0.65863 0.76599
 H393 H -0.03913 0.57985 0.74883
   
