data_POSCAR
  _audit_creation_date              2014-09-24
  _audit_creation_method            'ToBaCCo'
  _symmetry_space_group_name_H-M    'P1'
  _symmetry_Int_Tables_number       1
  _symmetry_cell_setting            triclinic
  loop_
  _symmetry_equiv_pos_as_xyz
 x,y,z
_cell_length_a 35.3634
_cell_length_b 35.3609
_cell_length_c 21.7082
_cell_angle_alpha 89.985300
_cell_angle_beta 89.984800
_cell_angle_gamma 89.571200
loop_
  _atom_site_label
  _atom_site_type_symbol
  _atom_site_fract_x
  _atom_site_fract_y
  _atom_site_fract_z
C1 C -0.07785 0.27394 -0.05695
 C2 C -0.09689 0.27420 -0.00005
 C3 C -0.07787 0.27328 0.05685
 C4 C -0.03760 0.27500 0.05667
 C5 C -0.01755 0.27458 -0.00015
 C6 C -0.03763 0.27590 -0.05677
 C7 C -0.01679 0.28201 -0.11104
 C8 C 0.02246 0.28093 -0.11118
 C9 C 0.04309 0.27383 -0.05700
 C10 C 0.02289 0.27363 -0.00033
 C11 C -0.01662 0.27979 0.11121
 C12 C 0.02261 0.27853 0.11105
 C13 C 0.04295 0.27323 0.05622
 C14 C 0.08285 0.26955 0.05625
 C15 C 0.10213 0.26850 -0.00004
 C16 C 0.08330 0.26985 -0.05706
 H17 H -0.03026 0.28950 -0.15395
 H18 H 0.03611 0.28757 -0.15422
 H19 H -0.02988 0.28618 0.15472
 H20 H 0.03670 0.28314 0.15451
 H21 H -0.12719 0.27119 -0.00009
 H22 H 0.13233 0.26370 0.00107
 C23 C 0.41672 0.77027 0.44321
 C24 C 0.39767 0.76882 0.49978
 C25 C 0.41682 0.77063 0.55621
 C26 C 0.45672 0.77455 0.55619
 C27 C 0.47672 0.77466 0.49951
 C28 C 0.45662 0.77422 0.44295
 C29 C 0.47705 0.77883 0.38794
 C30 C 0.51636 0.77906 0.38783
 C31 C 0.53701 0.77465 0.44271
 C32 C 0.51702 0.77486 0.49939
 C33 C 0.47725 0.77945 0.61100
 C34 C 0.51656 0.77964 0.61089
 C35 C 0.53712 0.77493 0.55596
 C36 C 0.57711 0.77135 0.55576
 C37 C 0.59621 0.76980 0.49920
 C38 C 0.57700 0.77111 0.44274
 H39 H 0.46303 0.78303 0.34428
 H40 H 0.53016 0.78345 0.34408
 H41 H 0.46332 0.78392 0.65468
 H42 H 0.53046 0.78426 0.65449
 H43 H 0.36750 0.76393 0.49990
 H44 H 0.62650 0.76522 0.49915
 C45 C 1.07730 0.72807 0.05483
 C46 C 1.09667 0.72830 -0.00144
 C47 C 1.07786 0.72728 -0.05854
 C48 C 1.03764 0.72414 -0.05857
 C49 C 1.01743 0.72512 -0.00200
 C50 C 1.03736 0.72540 0.05471
 C51 C 1.01677 0.72150 0.10967
 C52 C 0.97753 0.72182 0.10962
 C53 C 0.95703 0.72601 0.05460
 C54 C 0.97704 0.72543 -0.00206
 C55 C 1.01693 0.71742 -0.11276
 C56 C 0.97764 0.71777 -0.11283
 C57 C 0.95689 0.72478 -0.05869
 C58 C 0.91667 0.72848 -0.05875
 C59 C 0.89780 0.72975 -0.00170
 C60 C 0.91710 0.72922 0.05460
 H61 H 1.03060 0.71715 0.15346
 H62 H 0.96362 0.71774 0.15337
 H63 H 1.03053 0.71014 -0.15565
 H64 H 0.96407 0.71079 -0.15578
 H65 H 1.12691 0.73234 -0.00028
 H66 H 0.86756 0.73424 -0.00059
 C67 C 0.58352 0.22989 0.44415
 C68 C 0.60264 0.23140 0.50064
 C69 C 0.58353 0.22979 0.55716
 C70 C 0.54360 0.22598 0.55729
 C71 C 0.52355 0.22579 0.50068
 C72 C 0.54361 0.22605 0.44404
 C73 C 0.52311 0.22138 0.38914
 C74 C 0.48380 0.22126 0.38915
 C75 C 0.46320 0.22580 0.44406
 C76 C 0.48325 0.22567 0.50069
 C77 C 0.52310 0.22125 0.61220
 C78 C 0.48378 0.22113 0.61221
 C79 C 0.46319 0.22573 0.55732
 C80 C 0.42318 0.22929 0.55721
 C81 C 0.40405 0.23077 0.50070
 C82 C 0.42321 0.22937 0.44419
 H83 H 0.53707 0.21703 0.34545
 H84 H 0.46994 0.21683 0.34547
 H85 H 0.53705 0.21684 0.65586
 H86 H 0.46992 0.21664 0.65589
 H87 H 0.63283 0.23619 0.50062
 H88 H 0.37376 0.23534 0.50070
 C89 C 0.73168 0.08108 0.05542
 C90 C 0.73323 0.10033 -0.00084
 C91 C 0.73176 0.08155 -0.05787
 C92 C 0.72717 0.04147 -0.05787
 C93 C 0.72682 0.02127 -0.00120
 C94 C 0.72736 0.04132 0.05536
 C95 C 0.72151 0.02117 0.11015
 C96 C 0.71954 -0.01801 0.11028
 C97 C 0.72421 -0.03915 0.05579
 C98 C 0.72517 -0.01913 -0.00102
 C99 C 0.71993 0.02107 -0.11212
 C100 C 0.71814 -0.01813 -0.11197
 C101 C 0.72371 -0.03917 -0.05765
 C102 C 0.72502 -0.07946 -0.05781
 C103 C 0.72429 -0.09848 -0.00089
 C104 C 0.72533 -0.07947 0.05601
 H105 H 0.71703 0.03543 0.15356
 H106 H 0.71271 -0.03104 0.15373
 H107 H 0.71373 0.03494 -0.15522
 H108 H 0.71053 -0.03135 -0.15493
 H109 H 0.73851 0.13038 0.00033
 H110 H 0.72680 -0.12886 -0.00089
 C111 C 0.22878 0.57885 0.55704
 C112 C 0.22991 0.59792 0.50046
 C113 C 0.22843 0.57873 0.44403
 C114 C 0.22519 0.53876 0.44407
 C115 C 0.22543 0.51877 0.50076
 C116 C 0.22552 0.53888 0.55732
 C117 C 0.22127 0.51838 0.61232
 C118 C 0.22170 0.47906 0.61244
 C119 C 0.22643 0.45847 0.55756
 C120 C 0.22590 0.47847 0.50088
 C121 C 0.22064 0.51815 0.38926
 C122 C 0.22111 0.47883 0.38938
 C123 C 0.22616 0.45836 0.44431
 C124 C 0.23039 0.41843 0.44451
 C125 C 0.23224 0.39935 0.50106
 C126 C 0.23060 0.41853 0.55752
 H127 H 0.21684 0.53232 0.65599
 H128 H 0.21755 0.46518 0.65619
 H129 H 0.21594 0.53200 0.34557
 H130 H 0.21673 0.46485 0.34578
 H131 H 0.23426 0.62818 0.50032
 H132 H 0.23730 0.36913 0.50111
 C133 C 0.27605 1.07941 -0.05623
 C134 C 0.27735 1.09840 0.00071
 C135 C 0.27618 1.07938 0.05764
 C136 C 0.27695 1.03906 0.05743
 C137 C 0.27549 1.01912 0.00065
 C138 C 0.27682 1.03911 -0.05610
 C139 C 0.28125 1.01793 -0.11065
 C140 C 0.27841 0.97880 -0.11069
 C141 C 0.27200 0.95877 -0.05597
 C142 C 0.27309 0.97882 0.00059
 C143 C 0.28148 1.01779 0.11189
 C144 C 0.27867 0.97864 0.11182
 C145 C 0.27215 0.95868 0.05708
 C146 C 0.26654 0.91900 0.05691
 C147 C 0.26379 0.90007 0.00046
 C148 C 0.26637 0.91911 -0.05593
 H149 H 0.28840 1.03092 -0.15401
 H150 H 0.28249 0.96448 -0.15415
 H151 H 0.28871 1.03071 0.15525
 H152 H 0.28288 0.96427 0.15520
 H153 H 0.27529 1.12881 0.00071
 H154 H 0.25775 0.87010 0.00040
 C155 C 0.77142 0.42090 0.44318
 C156 C 0.77015 0.40175 0.49969
 C157 C 0.77134 0.42088 0.55620
 C158 C 0.77446 0.46087 0.55631
 C159 C 0.77437 0.48093 0.49968
 C160 C 0.77455 0.46088 0.44306
 C161 C 0.77895 0.48147 0.38815
 C162 C 0.77837 0.52079 0.38814
 C163 C 0.77340 0.54130 0.44303
 C164 C 0.77379 0.52125 0.49966
 C165 C 0.77874 0.48146 0.61122
 C166 C 0.77816 0.52078 0.61120
 C167 C 0.77330 0.54130 0.55628
 C168 C 0.76905 0.58123 0.55613
 C169 C 0.76733 0.60035 0.49961
 C170 C 0.76914 0.58124 0.44312
 H171 H 0.78361 0.46760 0.34449
 H172 H 0.78262 0.53473 0.34446
 H173 H 0.78332 0.46759 0.65491
 H174 H 0.78231 0.53472 0.65489
 H175 H 0.76591 0.37147 0.49969
 H176 H 0.76224 0.63057 0.49959
 O177 O 0.21757 0.26577 0.17454
 O178 O 0.31282 0.25723 0.24187
 O179 O 0.27038 0.21405 0.17336
 O180 O 0.26048 0.30875 0.24212
 O181 O 0.23552 0.28351 0.32571
 O182 O 0.24615 0.18863 0.25736
 O183 O 0.28835 0.23188 0.32576
 O184 O 0.19316 0.23985 0.25799
 Cu185 Cu 0.26774 0.26394 0.19949
 Cu186 Cu 0.23833 0.23343 0.30013
 C187 C 0.18917 0.25398 0.20460
 C188 C 0.31676 0.24349 0.29557
 C189 C 0.25980 0.18521 0.20352
 C190 C 0.24661 0.31226 0.29578
 O191 O 0.75433 0.81109 0.25593
 O192 O 0.76440 0.71613 0.32422
 O193 O 0.80691 0.75957 0.25631
 O194 O 0.71179 0.76801 0.32416
 O195 O 0.68720 0.74285 0.24027
 O196 O 0.78238 0.73372 0.17292
 O197 O 0.73927 0.69103 0.24070
 O198 O 0.73002 0.78584 0.17190
 Cu199 Cu 0.76182 0.76622 0.29860
 Cu200 Cu 0.73226 0.73589 0.19797
 C201 C 0.74080 0.81460 0.20203
 C202 C 0.75316 0.68744 0.29432
 C203 C 0.81082 0.74542 0.20293
 C204 C 0.68332 0.75657 0.29397
 O205 O 0.81318 0.24313 0.25647
 O206 O 0.71835 0.23371 0.32507
 O207 O 0.76197 0.19081 0.25709
 O208 O 0.76979 0.28596 0.32481
 O209 O 0.74432 0.31071 0.24097
 O210 O 0.73592 0.21560 0.17375
 O211 O 0.69298 0.25900 0.24158
 O212 O 0.78761 0.26767 0.17257
 Cu213 Cu 0.76839 0.23591 0.29927
 Cu214 Cu 0.73772 0.26570 0.19873
 C215 C 0.81651 0.25676 0.20263
 C216 C 0.68955 0.24516 0.29523
 C217 C 0.74774 0.18703 0.20377
 C218 C 0.75806 0.31451 0.29463
 O219 O 0.18675 0.75701 0.25760
 O220 O 0.28170 0.76567 0.32561
 O221 O 0.23803 0.80889 0.25860
 O222 O 0.22995 0.71362 0.32566
 O223 O 0.25548 0.68893 0.24181
 O224 O 0.26329 0.78415 0.17459
 O225 O 0.30680 0.74073 0.24162
 O226 O 0.21188 0.73180 0.17385
 Cu227 Cu 0.23158 0.76371 0.30038
 Cu228 Cu 0.26184 0.73395 0.19947
 C229 C 0.18318 0.74325 0.20391
 C230 C 0.31041 0.75443 0.29532
 C231 C 0.25177 0.81271 0.20496
 C232 C 0.24170 0.68510 0.29544
 O233 O 0.69323 0.25882 0.75926
 O234 O 0.78797 0.26832 0.82721
 O235 O 0.74432 0.31079 0.75872
 O236 O 0.73686 0.21588 0.82703
 O237 O 0.76201 0.19080 0.74321
 O238 O 0.76995 0.28593 0.67508
 O239 O 0.81341 0.24325 0.74361
 O240 O 0.71847 0.23376 0.67547
 Cu241 Cu 0.73811 0.26590 0.80153
 Cu242 Cu 0.76855 0.23591 0.70096
 C243 C 0.68971 0.24503 0.70560
 C244 C 0.81682 0.25726 0.79717
 C245 C 0.75807 0.31451 0.70504
 C246 C 0.74821 0.18718 0.79688
 O247 O 0.21236 0.73238 0.82636
 O248 O 0.30718 0.74148 0.75836
 O249 O 0.26367 0.78465 0.82571
 O250 O 0.25609 0.68944 0.75862
 O251 O 0.23080 0.71400 0.67449
 O252 O 0.23775 0.80923 0.74210
 O253 O 0.28195 0.76658 0.67461
 O254 O 0.18692 0.75659 0.74208
 Cu255 Cu 0.26232 0.73455 0.80076
 Cu256 Cu 0.23184 0.76408 0.69985
 C257 C 0.18350 0.74305 0.79596
 C258 C 0.31071 0.75533 0.70474
 C259 C 0.25171 0.81312 0.79559
 C260 C 0.24251 0.68552 0.70488
 O261 O 0.26051 0.30880 0.75999
 O262 O 0.27057 0.21396 0.82812
 O263 O 0.31283 0.25723 0.75961
 O264 O 0.21778 0.26545 0.82770
 O265 O 0.19298 0.24057 0.74376
 O266 O 0.28821 0.23181 0.67595
 O267 O 0.24566 0.18882 0.74446
 O268 O 0.23572 0.28375 0.67616
 Cu269 Cu 0.26786 0.26385 0.80232
 Cu270 Cu 0.23817 0.23368 0.70167
 C271 C 0.24676 0.31242 0.70628
 C272 C 0.25960 0.18525 0.79808
 C273 C 0.31669 0.24343 0.70596
 C274 C 0.18920 0.25429 0.79748
 O275 O 0.73935 0.69121 0.75829
 O276 O 0.72991 0.78612 0.82639
 O277 O 0.68732 0.74306 0.75809
 O278 O 0.78226 0.73415 0.82612
 O279 O 0.80725 0.75897 0.74224
 O280 O 0.71210 0.76832 0.67437
 O281 O 0.75490 0.81116 0.74268
 O282 O 0.76434 0.71613 0.67448
 Cu283 Cu 0.73225 0.73618 0.80069
 Cu284 Cu 0.76215 0.76620 0.70004
 C285 C 0.75313 0.68752 0.70460
 C286 C 0.74098 0.81479 0.79631
 C287 C 0.68355 0.75686 0.70442
 C288 C 0.81092 0.74511 0.79589
 N289 N 0.25101 0.11702 0.20289
 N290 N 0.25529 0.08801 0.16490
 C291 C 0.27040 0.10122 0.11194
 C292 C 0.27480 0.14001 0.11919
 N293 N 0.26258 0.14846 0.17622
 H294 H 0.28562 0.16040 0.08660
 N295 N 0.73933 0.62025 0.70110
 N296 N 0.74309 0.59125 0.66292
 C297 C 0.76235 0.60367 0.61322
 C298 C 0.76972 0.64166 0.62204
 N299 N 0.75510 0.65074 0.67729
 H300 H 0.78344 0.66107 0.59076
 N301 N 0.75017 0.88273 0.20132
 N302 N 0.74618 0.91176 0.16329
 C303 C 0.73106 0.89866 0.11029
 C304 C 0.72637 0.85990 0.11756
 N305 N 0.73840 0.85137 0.17465
 H306 H 0.71539 0.83961 0.08496
 N307 N 0.26045 0.37969 0.70255
 N308 N 0.25665 0.40865 0.66427
 C309 C 0.23737 0.39616 0.61467
 C310 C 0.23001 0.35818 0.62365
 N311 N 0.24468 0.34917 0.67890
 H312 H 0.21629 0.33872 0.59248
 N313 N 0.88483 0.24760 0.20189
 N314 N 0.91381 0.25193 0.16394
 C315 C 0.90039 0.26714 0.11105
 C316 C 0.86153 0.27152 0.11828
 N317 N 0.85323 0.25923 0.17524
 H318 H 0.84104 0.28254 0.08577
 N319 N 0.37816 0.74151 0.70143
 N320 N 0.40713 0.74510 0.66325
 C321 C 0.39448 0.76426 0.61342
 C322 C 0.35640 0.77175 0.62218
 N323 N 0.34748 0.75728 0.67751
 H324 H 0.33681 0.78540 0.59078
 N325 N 0.11609 0.75863 0.19923
 N326 N 0.08724 0.75516 0.16082
 C327 C 0.09961 0.73484 0.11202
 C328 C 0.13745 0.72652 0.12164
 N329 N 0.14647 0.74167 0.17644
 H330 H 0.15684 0.71185 0.09115
 N331 N 0.62230 0.25905 0.70220
 N332 N 0.59333 0.25549 0.66404
 C333 C 0.60592 0.23625 0.61427
 C334 C 0.64400 0.22868 0.62303
 N335 N 0.65295 0.24318 0.67832
 H336 H 0.66355 0.21494 0.59169
 N337 N 0.75565 0.11855 0.79615
 N338 N 0.75117 0.08949 0.83396
 C339 C 0.73779 0.10320 0.88793
 C340 C 0.73464 0.14217 0.88156
 N341 N 0.74581 0.15038 0.82399
 H342 H 0.72498 0.16277 0.91501
 N343 N 0.25676 0.61789 0.29872
 N344 N 0.25374 0.58887 0.33695
 C345 C 0.23438 0.60117 0.38679
 C346 C 0.22615 0.63910 0.37799
 N347 N 0.24041 0.64827 0.32263
 H348 H 0.21216 0.65844 0.40940
 N349 N 0.23754 0.88063 0.79862
 N350 N 0.24100 0.90961 0.83684
 C351 C 0.25988 0.89688 0.88688
 C352 C 0.26739 0.85883 0.87823
 N353 N 0.25318 0.84993 0.82276
 H354 H 0.28097 0.83928 0.90976
 N355 N 0.74289 0.38169 0.29805
 N356 N 0.74592 0.41070 0.33626
 C357 C 0.76536 0.39841 0.38603
 C358 C 0.77362 0.36048 0.37720
 N359 N 0.75931 0.35131 0.32188
 H360 H 0.78769 0.34116 0.40854
 N361 N 0.12074 0.24669 0.79675
 N362 N 0.09163 0.25087 0.83463
 C363 C 0.10507 0.26421 0.88867
 C364 C 0.14397 0.26765 0.88224
 N365 N 0.15237 0.25669 0.82457
 H366 H 0.16440 0.27728 0.91574
 N367 N 0.61626 0.74188 0.29766
 N368 N 0.58727 0.74522 0.33597
 C369 C 0.59947 0.76470 0.38557
 C370 C 0.63731 0.77265 0.37655
 N371 N 0.64653 0.75814 0.32129
 H372 H 0.65656 0.78666 0.40773
 N373 N 0.87945 0.75209 0.79513
 N374 N 0.90852 0.74758 0.83298
 C375 C 0.89496 0.73421 0.88695
 C376 C 0.85604 0.73109 0.88050
 N377 N 0.84773 0.74230 0.82292
 H378 H 0.83550 0.72159 0.91396
 N379 N 0.38380 0.25835 0.29909
 N380 N 0.41282 0.25511 0.33733
 C381 C 0.40069 0.23568 0.38705
 C382 C 0.36285 0.22766 0.37817
 N383 N 0.35357 0.24209 0.32286
 H384 H 0.34365 0.21365 0.40944
 N385 N 0.74980 0.88303 0.79671
 N386 N 0.74559 0.91205 0.83473
 C387 C 0.73071 0.89878 0.88784
 C388 C 0.72636 0.86000 0.88065
 N389 N 0.73839 0.85157 0.82353
 H390 H 0.71565 0.83961 0.91334
 N391 N 0.26001 0.37957 0.29940
 N392 N 0.25618 0.40853 0.33763
 C393 C 0.23709 0.39599 0.38741
 C394 C 0.22989 0.35796 0.37858
 N395 N 0.24445 0.34899 0.32323
 H396 H 0.21634 0.33845 0.40991
 N397 N 0.25039 0.11712 0.79883
 N398 N 0.25468 0.08810 0.83681
 C399 C 0.27011 0.10124 0.88954
 C400 C 0.27469 0.13999 0.88219
 N401 N 0.26227 0.14849 0.82532
 H402 H 0.28579 0.16032 0.91462
 N403 N 0.73954 0.62016 0.29802
 N404 N 0.74331 0.59118 0.33626
 C405 C 0.76247 0.60367 0.38598
 C406 C 0.76977 0.64168 0.37710
 N407 N 0.75520 0.65070 0.32179
 H408 H 0.78341 0.66114 0.40837
 N409 N 0.11495 0.75035 0.79525
 N410 N 0.08593 0.74614 0.83315
 C411 C 0.09957 0.73276 0.88717
 C412 C 0.13853 0.72932 0.88070
 N413 N 0.14674 0.74035 0.82304
 H414 H 0.15914 0.71977 0.91420
 N415 N 0.62220 0.25938 0.29911
 N416 N 0.59327 0.25581 0.33738
 C417 C 0.60590 0.23646 0.38702
 C418 C 0.64395 0.22884 0.37807
 N419 N 0.65285 0.24341 0.32279
 H420 H 0.66351 0.21498 0.40927
 N421 N 0.88529 0.24902 0.79747
 N422 N 0.91420 0.25348 0.83549
 C423 C 0.90056 0.26812 0.88866
 C424 C 0.86168 0.27208 0.88150
 N425 N 0.85355 0.26005 0.82435
 H426 H 0.84104 0.28256 0.91423
 N427 N 0.37783 0.74039 0.29860
 N428 N 0.40685 0.74413 0.33662
 C429 C 0.39429 0.76354 0.38624
 C430 C 0.35621 0.77103 0.37755
 N431 N 0.34720 0.75630 0.32246
 H432 H 0.33669 0.78490 0.40881
 N433 N 0.23810 0.88029 0.20245
 N434 N 0.24160 0.90936 0.16438
 C435 C 0.26020 0.89665 0.11404
 C436 C 0.26751 0.85852 0.12237
 N437 N 0.25345 0.84956 0.17794
 H438 H 0.28082 0.83895 0.09057
 N439 N 0.74269 0.38163 0.70131
 N440 N 0.74570 0.41063 0.66304
 C441 C 0.76522 0.39837 0.61334
 C442 C 0.77353 0.36045 0.62224
 N443 N 0.75919 0.35127 0.67757
 H444 H 0.78769 0.34114 0.59099
 N445 N 0.76191 0.11955 0.20017
 N446 N 0.75805 0.09060 0.16200
 C447 C 0.73842 0.10327 0.11267
 C448 C 0.73086 0.14130 0.12174
 N449 N 0.74583 0.15022 0.17668
 H450 H 0.71683 0.16087 0.09076
 N451 N 0.25778 0.61834 0.70173
 N452 N 0.25462 0.58924 0.66372
 C453 C 0.23504 0.60143 0.61403
 C454 C 0.22683 0.63938 0.62268
 N455 N 0.24132 0.64867 0.67782
 H456 H 0.21265 0.65863 0.59137
 N457 N 0.87780 0.76042 0.19858
 N458 N 0.90679 0.75662 0.16037
 C459 C 0.89470 0.73623 0.11169
 C460 C 0.85691 0.72819 0.12115
 N461 N 0.84763 0.74359 0.17573
 H462 H 0.83773 0.71355 0.09066
 N463 N 0.38375 0.25812 0.70239
 N464 N 0.41278 0.25486 0.66415
 C465 C 0.40063 0.23554 0.61437
 C466 C 0.36275 0.22760 0.62321
 N467 N 0.35348 0.24197 0.67857
 H468 H 0.34353 0.21369 0.59189
 N469 N 0.12204 0.23939 0.20089
 N470 N 0.09302 0.24308 0.16272
 C471 C 0.10523 0.26289 0.11345
 C472 C 0.14309 0.27073 0.12257
 N473 N 0.15234 0.25575 0.17748
 H474 H 0.16235 0.28495 0.09165
 N475 N 0.61645 0.74247 0.70094
 N476 N 0.58743 0.74581 0.66272
 C477 C 0.59965 0.76506 0.61288
 C478 C 0.63757 0.77286 0.62167
 N479 N 0.64678 0.75849 0.67705
 H480 H 0.65685 0.78667 0.59029
   
