data_POSCAR
  _audit_creation_date              2014-09-24
  _audit_creation_method            'ToBaCCo'
  _symmetry_space_group_name_H-M    'P1'
  _symmetry_Int_Tables_number       1
  _symmetry_cell_setting            triclinic
  loop_
  _symmetry_equiv_pos_as_xyz
 x,y,z
_cell_length_a 49.0557
_cell_length_b 46.7751
_cell_length_c 48.9832
_cell_angle_alpha 90.840000
_cell_angle_beta 90.609400
_cell_angle_gamma 92.594400
loop_
  _atom_site_label
  _atom_site_type_symbol
  _atom_site_fract_x
  _atom_site_fract_y
  _atom_site_fract_z
N1 N 0.62238 0.62986 0.63101
 N2 N 0.87505 0.36907 0.13000
 N3 N 0.37595 0.11821 -0.12046
 N4 N 0.12334 0.88190 0.37510
 N5 N 0.09430 0.17244 0.10994
 N6 N 0.08351 0.16033 0.13157
 C7 C 0.06259 0.17574 0.14011
 C8 C 0.06014 0.19878 0.12292
 C9 C 0.08068 0.19593 0.10401
 H10 H 0.05023 0.17069 0.15767
 H11 H 0.08522 0.20969 0.08696
 Cu12 Cu 0.09786 0.12565 0.14649
 Cu13 Cu 0.12498 0.15675 0.09084
 Cu14 Cu 0.15173 0.09566 0.11750
 N15 N 0.11372 0.09186 0.16166
 N16 N 0.13469 0.08023 0.15016
 C17 C 0.14149 0.05726 0.16453
 C18 C 0.12386 0.05425 0.18633
 C19 C 0.10651 0.07669 0.18382
 H20 H 0.15822 0.04394 0.15955
 H21 H 0.08974 0.08147 0.19699
 N22 N 0.16616 0.11444 0.08459
 N23 N 0.15597 0.13768 0.07442
 C24 C 0.17009 0.14522 0.05202
 C25 C 0.19021 0.12582 0.04783
 C26 C 0.18704 0.10661 0.06895
 H27 H 0.16615 0.16365 0.03979
 H28 H 0.19890 0.08811 0.07255
 H29 H 0.11768 0.11478 0.10226
 H30 H 0.14126 0.13744 0.12463
 N31 N 0.40920 0.83202 0.60264
 N32 N 0.42056 0.84383 0.62472
 C33 C 0.44277 0.82946 0.63149
 C34 C 0.44564 0.80771 0.61244
 C35 C 0.42402 0.81002 0.59437
 H36 H 0.45614 0.83465 0.64871
 H37 H 0.41918 0.79639 0.57680
 Cu38 Cu 0.40563 0.87727 0.64207
 Cu39 Cu 0.37558 0.84547 0.58682
 Cu40 Cu 0.34770 0.90408 0.61840
 N41 N 0.38974 0.91007 0.65961
 N42 N 0.36676 0.92006 0.65060
 C43 C 0.36000 0.94221 0.66662
 C44 C 0.37996 0.94652 0.68662
 C45 C 0.39854 0.92575 0.68152
 H46 H 0.34214 0.95458 0.66367
 H47 H 0.41689 0.92215 0.69315
 N48 N 0.33143 0.88494 0.58561
 N49 N 0.34169 0.86224 0.57395
 C50 C 0.32555 0.85365 0.55267
 C51 C 0.30432 0.87199 0.55068
 C52 C 0.30874 0.89160 0.57183
 H53 H 0.32913 0.83561 0.53935
 H54 H 0.29603 0.90912 0.57704
 H55 H 0.38134 0.88752 0.59987
 H56 H 0.36109 0.86303 0.62251
 N57 N 0.89662 0.67230 0.39304
 N58 N 0.90792 0.66013 0.37192
 C59 C 0.93031 0.67595 0.36489
 C60 C 0.93321 0.69938 0.38252
 C61 C 0.91137 0.69626 0.40013
 H62 H 0.94335 0.67091 0.34802
 H63 H 0.90657 0.71024 0.41699
 Cu64 Cu 0.89226 0.62486 0.35557
 Cu65 Cu 0.86360 0.65626 0.40974
 Cu66 Cu 0.83599 0.59264 0.38202
 N67 N 0.87682 0.58879 0.34070
 N68 N 0.85495 0.57624 0.35122
 C69 C 0.84872 0.55178 0.33727
 C70 C 0.86769 0.54876 0.31679
 C71 C 0.88523 0.57272 0.31964
 H72 H 0.83144 0.53746 0.34155
 H73 H 0.90294 0.57794 0.30745
 N74 N 0.81976 0.61254 0.41319
 N75 N 0.83029 0.63674 0.42376
 C76 C 0.81462 0.64494 0.44462
 C77 C 0.79311 0.62498 0.44735
 C78 C 0.79711 0.60474 0.42702
 H79 H 0.81845 0.66420 0.45675
 H80 H 0.78456 0.58561 0.42270
 H81 H 0.87003 0.61427 0.39877
 H82 H 0.84818 0.63482 0.37534
 N83 N 0.59879 0.33127 -0.11216
 N84 N 0.58772 0.34399 -0.13299
 C85 C 0.56344 0.33070 -0.13908
 C86 C 0.55903 0.30838 -0.12110
 C87 C 0.58198 0.30947 -0.10430
 H88 H 0.55022 0.33648 -0.15569
 H89 H 0.58620 0.29550 -0.08754
 Cu90 Cu 0.60656 0.37608 -0.15064
 Cu91 Cu 0.63431 0.34368 -0.09698
 Cu92 Cu 0.66873 0.40018 -0.12879
 N93 N 0.62582 0.40812 -0.16795
 N94 N 0.65050 0.41682 -0.15989
 C95 C 0.65945 0.43848 -0.17575
 C96 C 0.63920 0.44381 -0.19464
 C97 C 0.61813 0.42416 -0.18905
 H98 H 0.67904 0.44984 -0.17341
 H99 H 0.59885 0.42149 -0.19988
 N100 N 0.68364 0.38062 -0.09692
 N101 N 0.67043 0.35931 -0.08468
 C102 C 0.68538 0.35124 -0.06314
 C103 C 0.70920 0.36829 -0.06167
 C104 C 0.70736 0.38664 -0.08349
 H105 H 0.67930 0.33425 -0.04948
 H106 H 0.72190 0.40363 -0.08881
 H107 H 0.63367 0.38579 -0.10929
 H108 H 0.64980 0.35998 -0.13290
 C109 C -0.11257 0.31852 0.12629
 C110 C -0.09308 0.29766 0.12687
 C111 C -0.06542 0.30533 0.13165
 C112 C -0.05772 0.33433 0.13654
 C113 C -0.07725 0.35518 0.13601
 C114 C -0.10482 0.34749 0.13075
 C115 C -0.04545 0.28248 0.13205
 C116 C -0.01889 0.28712 0.12660
 C117 C 0.00093 0.26412 0.12613
 C118 C 0.02454 0.26784 0.11045
 C119 C 0.04372 0.24668 0.10938
 C120 C 0.03987 0.22136 0.12425
 C121 C 0.01646 0.21787 0.14039
 C122 C -0.00278 0.23900 0.14138
 H123 H -0.13376 0.31208 0.12252
 H124 H -0.09960 0.27546 0.12335
 H125 H -0.03677 0.34102 0.14117
 H126 H -0.07084 0.37738 0.13959
 H127 H -0.05338 0.26085 0.13538
 H128 H -0.01148 0.30824 0.12062
 H129 H 0.02806 0.28713 0.09877
 H130 H 0.06166 0.25036 0.09703
 H131 H 0.01279 0.19872 0.15216
 H132 H -0.02027 0.23571 0.15441
 C133 C 0.57355 0.63991 0.63695
 C134 C 0.55228 0.65877 0.63631
 C135 C 0.55679 0.68678 0.62703
 C136 C 0.58308 0.69576 0.61866
 C137 C 0.60450 0.67709 0.61984
 C138 C 0.60003 0.64896 0.62911
 C139 C 0.53420 0.70661 0.62773
 C140 C 0.53107 0.72678 0.60897
 C141 C 0.50875 0.74693 0.61024
 C142 C 0.49650 0.75572 0.58595
 C143 C 0.47561 0.77510 0.58666
 C144 C 0.46720 0.78665 0.61166
 C145 C 0.47979 0.77820 0.63594
 C146 C 0.50023 0.75836 0.63527
 H147 H 0.56938 0.61827 0.64379
 H148 H 0.53219 0.65145 0.64294
 H149 H 0.58731 0.71747 0.61202
 H150 H 0.62472 0.68478 0.61399
 H151 H 0.51909 0.70371 0.64355
 H152 H 0.54445 0.72778 0.59151
 H153 H 0.50295 0.74737 0.56643
 H154 H 0.46645 0.78149 0.56763
 H155 H 0.47366 0.78672 0.65549
 H156 H 0.50976 0.75244 0.65428
 C157 C 1.11041 0.83026 0.37741
 C158 C 1.09053 0.80789 0.37733
 C159 C 1.06272 0.81351 0.37508
 C160 C 1.05523 0.84203 0.37222
 C161 C 1.07513 0.86437 0.37230
 C162 C 1.10287 0.85872 0.37507
 C163 C 1.04230 0.78912 0.37491
 C164 C 1.01619 0.79170 0.38207
 C165 C 0.99565 0.76743 0.38209
 C166 C 0.97234 0.76972 0.39818
 C167 C 0.95220 0.74764 0.39846
 C168 C 0.95476 0.72275 0.38242
 C169 C 0.97800 0.72056 0.36609
 C170 C 0.99817 0.74265 0.36583
 H171 H 1.13173 0.82541 0.37914
 H172 H 1.09688 0.78611 0.37920
 H173 H 1.03414 0.84723 0.36946
 H174 H 1.06890 0.88616 0.37026
 H175 H 1.04956 0.76818 0.37000
 H176 H 1.00964 0.81216 0.38951
 H177 H 0.96972 0.78869 0.41067
 H178 H 0.93452 0.75034 0.41108
 H179 H 0.98075 0.70181 0.35342
 H180 H 1.01537 0.74038 0.35247
 C181 C 0.42552 0.12985 -0.12313
 C182 C 0.44767 0.14972 -0.12181
 C183 C 0.44363 0.17879 -0.11648
 C184 C 0.41697 0.18748 -0.11169
 C185 C 0.39485 0.16759 -0.11298
 C186 C 0.39889 0.13865 -0.11892
 C187 C 0.46769 0.19916 -0.11541
 C188 C 0.46620 0.22722 -0.12018
 C189 C 0.49032 0.24752 -0.11995
 C190 C 0.48898 0.27290 -0.13471
 C191 C 0.51123 0.29263 -0.13509
 C192 C 0.53529 0.28756 -0.12045
 C193 C 0.53645 0.26237 -0.10524
 C194 C 0.51421 0.24260 -0.10492
 H195 H 0.42912 0.10756 -0.12733
 H196 H 0.46801 0.14240 -0.12523
 H197 H 0.41308 0.20949 -0.10658
 H198 H 0.37449 0.17477 -0.10947
 H199 H 0.48743 0.19026 -0.11214
 H200 H 0.44683 0.23560 -0.12609
 H201 H 0.47071 0.27739 -0.14619
 H202 H 0.50938 0.31194 -0.14672
 H203 H 0.55457 0.25772 -0.09366
 H204 H 0.51576 0.22375 -0.09257
 C205 C 0.12486 -0.06706 0.36242
 C206 C 0.12348 -0.04583 0.34273
 C207 C 0.11898 -0.05319 0.31510
 C208 C 0.11505 -0.08229 0.30767
 C209 C 0.11642 -0.10349 0.32737
 C210 C 0.12158 -0.09609 0.35487
 C211 C 0.11794 -0.03002 0.29482
 C212 C 0.12367 -0.03388 0.26832
 C213 C 0.12344 -0.01074 0.24795
 C214 C 0.13857 -0.01377 0.22403
 C215 C 0.13878 0.00731 0.20412
 C216 C 0.12363 0.03189 0.20754
 C217 C 0.10816 0.03475 0.23136
 C218 C 0.10799 0.01367 0.25132
 H219 H 0.12845 -0.06090 0.38360
 H220 H 0.12621 -0.02358 0.34906
 H221 H 0.11057 -0.08883 0.28677
 H222 H 0.11363 -0.12575 0.32117
 H223 H 0.11388 -0.00882 0.30243
 H224 H 0.13032 -0.05446 0.26132
 H225 H 0.15040 -0.03250 0.22077
 H226 H 0.15066 0.00409 0.18595
 H227 H 0.09619 0.05332 0.23474
 H228 H 0.09538 0.01643 0.26905
 C229 C 0.61605 0.61741 -0.32037
 C230 C 0.61647 0.59756 -0.29934
 C231 C 0.62521 0.56984 -0.30426
 C232 C 0.63321 0.56214 -0.33076
 C233 C 0.63237 0.58185 -0.35188
 C234 C 0.62368 0.60966 -0.34696
 C235 C 0.62448 0.54903 -0.28180
 C236 C 0.64223 0.52822 -0.27969
 C237 C 0.64107 0.50716 -0.25745
 C238 C 0.66537 0.49618 -0.24764
 C239 C 0.66482 0.47589 -0.22694
 C240 C 0.63987 0.46570 -0.21615
 C241 C 0.61550 0.47638 -0.22628
 C242 C 0.61608 0.49701 -0.24664
 H243 H 0.60962 0.63880 -0.31593
 H244 H 0.61012 0.60391 -0.27911
 H245 H 0.63937 0.54069 -0.33538
 H246 H 0.63807 0.57525 -0.37223
 H247 H 0.60956 0.55178 -0.26593
 H248 H 0.65894 0.52728 -0.29392
 H249 H 0.68483 0.50347 -0.25588
 H250 H 0.68391 0.46781 -0.21976
 H251 H 0.59597 0.46898 -0.21833
 H252 H 0.59694 0.50453 -0.25427
 C253 C 0.36198 1.06982 0.86158
 C254 C 0.35972 1.04979 0.84014
 C255 C 0.36962 1.05665 0.81419
 C256 C 0.38113 1.08424 0.80981
 C257 C 0.38297 1.10444 0.83113
 C258 C 0.37362 1.09742 0.85734
 C259 C 0.36706 1.03493 0.79196
 C260 C 0.38580 1.03278 0.77243
 C261 C 0.38376 1.01052 0.75067
 C262 C 0.40773 0.99934 0.74047
 C263 C 0.40649 0.97831 0.71987
 C264 C 0.38123 0.96858 0.70860
 C265 C 0.35725 0.98019 0.71843
 C266 C 0.35846 1.00085 0.73937
 H267 H 0.35479 1.06367 0.88157
 H268 H 0.35063 1.02870 0.84393
 H269 H 0.38825 1.09042 0.78980
 H270 H 0.39155 1.12567 0.82709
 H271 H 0.35021 1.01918 0.79277
 H272 H 0.40414 1.04660 0.77332
 H273 H 0.42745 1.00668 0.74869
 H274 H 0.42533 0.97002 0.71247
 H275 H 0.33750 0.97308 0.71015
 H276 H 0.33965 1.00958 0.74637
 C277 C 0.87154 0.42008 0.14279
 C278 C 0.87202 0.44201 0.16248
 C279 C 0.87639 0.43607 0.19015
 C280 C 0.88099 0.40774 0.19767
 C281 C 0.88058 0.38582 0.17794
 C282 C 0.87573 0.39176 0.15034
 C283 C 0.87673 0.46001 0.21034
 C284 C 0.87089 0.45648 0.23681
 C285 C 0.87048 0.48052 0.25685
 C286 C 0.85450 0.47726 0.28027
 C287 C 0.85354 0.49938 0.29968
 C288 C 0.86883 0.52521 0.29625
 C289 C 0.88522 0.52828 0.27301
 C290 C 0.88611 0.50619 0.25355
 H291 H 0.86808 0.42519 0.12158
 H292 H 0.86873 0.46368 0.15610
 H293 H 0.88530 0.40242 0.21864
 H294 H 0.88393 0.36414 0.18420
 H295 H 0.88038 0.48140 0.20264
 H296 H 0.86460 0.43544 0.24395
 H297 H 0.84253 0.45759 0.28346
 H298 H 0.84098 0.49604 0.31746
 H299 H 0.89730 0.54780 0.26966
 H300 H 0.89936 0.50920 0.23623
 C301 C 0.36333 0.12084 -0.07185
 C302 C 0.34365 0.12094 -0.05147
 C303 C 0.31574 0.11912 -0.05825
 C304 C 0.30790 0.11678 -0.08597
 C305 C 0.32764 0.11665 -0.10635
 C306 C 0.35552 0.11862 -0.09947
 C307 C 0.29564 0.11865 -0.03584
 C308 C 0.26965 0.12592 -0.03897
 C309 C 0.24978 0.12556 -0.01635
 C310 C 0.22731 0.14299 -0.01801
 C311 C 0.20804 0.14317 0.00280
 C312 C 0.21065 0.12565 0.02568
 C313 C 0.23295 0.10786 0.02713
 C314 C 0.25224 0.10772 0.00634
 H315 H 0.38473 0.12216 -0.06609
 H316 H 0.35025 0.12250 -0.03030
 H317 H 0.28666 0.11447 -0.09206
 H318 H 0.32120 0.11495 -0.12755
 H319 H 0.30309 0.11339 -0.01573
 H320 H 0.26284 0.13385 -0.05841
 H321 H 0.22474 0.15668 -0.03542
 H322 H 0.19100 0.15688 0.00072
 H323 H 0.23570 0.09403 0.04434
 H324 H 0.26874 0.09325 0.00799
 C325 C 0.67123 0.63120 0.61911
 C326 C 0.69190 0.63214 0.59970
 C327 C 0.68552 0.63261 0.57171
 C328 C 0.65791 0.63278 0.56352
 C329 C 0.63725 0.63187 0.58297
 C330 C 0.64372 0.63098 0.61092
 C331 C 0.70818 0.63375 0.55189
 C332 C 0.70540 0.62485 0.52580
 C333 C 0.72825 0.62536 0.50619
 C334 C 0.72660 0.60671 0.48349
 C335 C 0.74761 0.60651 0.46446
 C336 C 0.77074 0.62522 0.46754
 C337 C 0.77219 0.64423 0.49007
 C338 C 0.75118 0.64439 0.50913
 H339 H 0.67666 0.63081 0.64058
 H340 H 0.71297 0.63230 0.60658
 H341 H 0.65213 0.63406 0.54223
 H342 H 0.61614 0.63178 0.57625
 H343 H 0.72815 0.64072 0.55967
 H344 H 0.68605 0.61530 0.51871
 H345 H 0.70903 0.59206 0.48055
 H346 H 0.74551 0.59182 0.44724
 H347 H 0.78958 0.65901 0.49317
 H348 H 0.75286 0.65977 0.52583
 C349 C 0.82704 0.37335 0.11536
 C350 C 0.80682 0.37220 0.09502
 C351 C 0.81330 0.36584 0.06782
 C352 C 0.84045 0.36004 0.06145
 C353 C 0.86065 0.36116 0.08183
 C354 C 0.85416 0.36791 0.10895
 C355 C 0.79111 0.36461 0.04699
 C356 C 0.79536 0.36834 0.02023
 C357 C 0.77299 0.36776 -0.00040
 C358 C 0.77713 0.38238 -0.02492
 C359 C 0.75650 0.38251 -0.04482
 C360 C 0.73130 0.36775 -0.04076
 C361 C 0.72738 0.35259 -0.01643
 C362 C 0.74798 0.35252 0.00349
 H363 H 0.82150 0.37826 0.13619
 H364 H 0.78604 0.37644 0.10054
 H365 H 0.84615 0.35417 0.04093
 H366 H 0.88143 0.35683 0.07644
 H367 H 0.77042 0.36209 0.05434
 H368 H 0.81576 0.37366 0.01316
 H369 H 0.79632 0.39399 -0.02858
 H370 H 0.76047 0.39409 -0.06342
 H371 H 0.70833 0.34090 -0.01254
 H372 H 0.74430 0.34018 0.02170
 C373 C 0.17134 0.89488 0.38835
 C374 C 0.19253 0.89627 0.40767
 C375 C 0.18855 0.88512 0.43381
 C376 C 0.16275 0.87317 0.44058
 C377 C 0.14139 0.87229 0.42143
 C378 C 0.14544 0.88298 0.39501
 C379 C 0.21130 0.88714 0.45387
 C380 C 0.21537 0.86678 0.47224
 C381 C 0.23839 0.86863 0.49200
 C382 C 0.25082 0.84352 0.49968
 C383 C 0.27253 0.84463 0.51846
 C384 C 0.28170 0.87084 0.53045
 C385 C 0.26891 0.89593 0.52313
 C386 C 0.24757 0.89488 0.50395
 H387 H 0.17522 0.90304 0.36813
 H388 H 0.21222 0.90571 0.40208
 H389 H 0.15889 0.86510 0.46084
 H390 H 0.12158 0.86349 0.42737
 H391 H 0.22597 0.90506 0.45238
 H392 H 0.20242 0.84739 0.47180
 H393 H 0.24389 0.82303 0.49092
 H394 H 0.28179 0.82492 0.52396
 H395 H 0.27558 0.91643 0.53201
 H396 H 0.23795 0.91453 0.49888
   
