data_POSCAR
  _audit_creation_date              2014-09-24
  _audit_creation_method            'ToBaCCo'
  _symmetry_space_group_name_H-M    'P1'
  _symmetry_Int_Tables_number       1
  _symmetry_cell_setting            triclinic
  loop_
  _symmetry_equiv_pos_as_xyz
 x,y,z
_cell_length_a 32.2243
_cell_length_b 34.9873
_cell_length_c 15.8378
_cell_angle_alpha 90.245300
_cell_angle_beta 89.712600
_cell_angle_gamma 90.010900
loop_
  _atom_site_label
  _atom_site_type_symbol
  _atom_site_fract_x
  _atom_site_fract_y
  _atom_site_fract_z
C1 C 1.28696 0.21200 0.26813
 C2 C 1.25232 0.23050 0.23354
 C3 C 1.21959 0.20885 0.20107
 C4 C 1.21831 0.16947 0.21077
 C5 C 1.25233 0.15091 0.24844
 C6 C 1.28784 0.17177 0.27620
 C7 C 1.24740 0.27247 0.23751
 C8 C 1.28018 0.29729 0.21741
 C9 C 1.27361 0.33721 0.21388
 C10 C 1.23347 0.35122 0.23118
 C11 C 1.20085 0.32661 0.25164
 C12 C 1.20822 0.28762 0.25739
 H13 H 1.31151 0.22936 0.29454
 H14 H 1.19335 0.22314 0.17257
 H15 H 1.30981 0.28508 0.19950
 H16 H 1.18287 0.26891 0.27515
 H17 H 1.25125 0.12009 0.25257
 H18 H 1.22746 0.38163 0.23328
 C19 C 0.78826 -0.28787 0.27890
 C20 C 0.75218 -0.27293 0.24195
 C21 C 0.71936 -0.29748 0.22132
 C22 C 0.72260 -0.33667 0.23748
 C23 C 0.75794 -0.35092 0.27686
 C24 C 0.79130 -0.32682 0.29775
 C25 C 0.74898 -0.23141 0.22788
 C26 C 0.78391 -0.21137 0.19957
 C27 C 0.78482 -0.17155 0.20101
 C28 C 0.74890 -0.15144 0.22684
 C29 C 0.71247 -0.17122 0.25202
 C30 C 0.71309 -0.21135 0.25211
 H31 H 0.81301 -0.26870 0.29749
 H32 H 0.69191 -0.28633 0.19078
 H33 H 0.81161 -0.22696 0.18119
 H34 H 0.68664 -0.22697 0.27654
 H35 H 0.75995 -0.38144 0.28756
 H36 H 0.74952 -0.12051 0.22755
 C37 C 0.78332 0.21186 -0.18876
 C38 C 0.74927 0.23311 -0.21672
 C39 C 0.71358 0.21418 -0.24540
 C40 C 0.71250 0.17416 -0.25042
 C41 C 0.74793 0.15323 -0.22542
 C42 C 0.78374 0.17202 -0.19488
 C43 C 0.75366 0.27482 -0.22686
 C44 C 0.79059 0.28936 -0.26170
 C45 C 0.79418 0.32811 -0.28164
 C46 C 0.76098 0.35270 -0.26207
 C47 C 0.72482 0.33903 -0.22368
 C48 C 0.72084 0.29981 -0.20758
 H49 H 0.81017 0.22671 -0.16401
 H50 H 0.68770 0.23063 -0.26924
 H51 H 0.81530 0.26990 -0.27963
 H52 H 0.69266 0.28887 -0.17896
 H53 H 0.74785 0.12239 -0.23137
 H54 H 0.76354 0.38304 -0.27454
 C55 C 1.27880 -0.29842 -0.23682
 C56 C 1.24672 -0.27408 -0.26311
 C57 C 1.20817 -0.28978 -0.28485
 C58 C 1.20060 -0.32862 -0.27462
 C59 C 1.23263 -0.35268 -0.24853
 C60 C 1.27221 -0.33823 -0.22945
 C61 C 1.25130 -0.23199 -0.25904
 C62 C 1.28855 -0.21360 -0.28102
 C63 C 1.29244 -0.17371 -0.27300
 C64 C 1.25770 -0.15221 -0.24454
 C65 C 1.21982 -0.17051 -0.22449
 C66 C 1.21771 -0.21019 -0.22981
 H67 H 1.30775 -0.28583 -0.21637
 H68 H 1.18329 -0.27152 -0.30652
 H69 H 1.31472 -0.23037 -0.30306
 H70 H 1.18963 -0.22430 -0.20854
 H71 H 1.22674 -0.38312 -0.24739
 H72 H 1.25989 -0.12139 -0.23963
 C73 C 0.20512 0.27994 0.70698
 C74 C 0.22783 0.24855 0.73714
 C75 C 0.20648 0.21563 0.76372
 C76 C 0.16276 0.21434 0.76325
 C77 C 0.14106 0.24626 0.73295
 C78 C 0.16177 0.27896 0.70545
 C79 C 0.27342 0.25160 0.74834
 C80 C 0.29038 0.28598 0.77773
 C81 C 0.33299 0.28994 0.79343
 C82 C 0.35890 0.25745 0.77946
 C83 C 0.34242 0.22245 0.74879
 C84 C 0.29955 0.22019 0.73350
 H85 H 0.22112 0.30529 0.68501
 H86 H 0.22397 0.19239 0.79104
 H87 H 0.26945 0.30910 0.79394
 H88 H 0.28648 0.19408 0.70806
 H89 H 0.10755 0.24585 0.72943
 H90 H 0.39199 0.25948 0.78986
 C91 C 0.70297 0.78075 0.74844
 C92 C 0.72760 0.74971 0.77336
 C93 C 0.70853 0.71631 0.80213
 C94 C 0.66567 0.71078 0.79502
 C95 C 0.64111 0.74189 0.76544
 C96 C 0.65912 0.77820 0.74600
 C97 C 0.77339 0.75007 0.76160
 C98 C 0.79724 0.78265 0.78071
 C99 C 0.84061 0.78188 0.77047
 C100 C 0.85977 0.74870 0.73981
 C101 C 0.83656 0.71618 0.72033
 C102 C 0.79350 0.71703 0.73066
 H103 H 0.71860 0.80588 0.72465
 H104 H 0.72807 0.69298 0.82258
 H105 H 0.78235 0.80801 0.80604
 H106 H 0.77564 0.69205 0.71286
 H107 H 0.60782 0.73830 0.76354
 H108 H 0.89318 0.74807 0.73160
 C109 C 0.70488 0.28931 0.20648
 C110 C 0.72340 0.25522 0.23236
 C111 C 0.69808 0.22444 0.25695
 C112 C 0.65444 0.22763 0.25796
 C113 C 0.63655 0.26347 0.23653
 C114 C 0.66200 0.29431 0.20976
 C115 C 0.76937 0.25256 0.23387
 C116 C 0.79330 0.28470 0.25705
 C117 C 0.83672 0.28363 0.25253
 C118 C 0.85619 0.25000 0.22588
 C119 C 0.83307 0.21756 0.20469
 C120 C 0.78967 0.21876 0.20894
 H121 H 0.72413 0.31282 0.18516
 H122 H 0.71247 0.19822 0.27800
 H123 H 0.77822 0.31046 0.27972
 H124 H 0.77193 0.19395 0.18959
 H125 H 0.60320 0.26713 0.23859
 H126 H 0.88974 0.24896 0.22143
 C127 C 0.20626 0.78623 0.23935
 C128 C 0.22870 0.75316 0.25984
 C129 C 0.20727 0.72067 0.28912
 C130 C 0.16383 0.72045 0.29668
 C131 C 0.14227 0.75375 0.27477
 C132 C 0.16259 0.78648 0.24443
 C133 C 0.27434 0.75122 0.24663
 C134 C 0.30054 0.78200 0.26741
 C135 C 0.34409 0.77862 0.26086
 C136 C 0.36098 0.74293 0.23504
 C137 C 0.33465 0.71232 0.21157
 C138 C 0.29180 0.71730 0.21560
 H139 H 0.22271 0.81049 0.21331
 H140 H 0.22487 0.69595 0.30875
 H141 H 0.28702 0.80814 0.29196
 H142 H 0.27186 0.69374 0.19731
 H143 H 0.10889 0.75411 0.27970
 H144 H 0.39429 0.73909 0.23175
 O145 O 0.93295 -0.05678 -0.15440
 O146 O 0.97033 -0.09798 -0.07215
 C147 C 0.94278 -0.09085 -0.12930
 O148 O 1.08165 0.05248 -0.13667
 O149 O 1.03820 0.09449 -0.06897
 C150 C 1.06972 0.08675 -0.11700
 O151 O 1.08190 -0.05233 -0.14175
 O152 O 1.04521 -0.09605 -0.06287
 C153 C 1.07521 -0.08656 -0.11472
 O154 O 0.92384 0.04860 -0.14280
 O155 O 0.96053 0.09325 -0.06684
 C156 C 0.92979 0.08304 -0.11549
 Zr157 Zr 0.95279 -0.00272 -0.10931
 O158 O 0.95802 0.00131 -0.24231
 O159 O 0.88723 -0.00652 -0.11297
 Zr160 Zr 1.05563 -0.00063 -0.10216
 O161 O 1.04953 -0.00035 -0.23485
 O162 O 1.12113 -0.00153 -0.11116
 O163 O 1.00534 -0.03686 -0.12133
 O164 O 1.00377 0.03263 -0.12153
 O165 O 0.92153 0.05346 0.13496
 O166 O 0.96479 0.09536 0.06627
 C167 C 0.93257 0.08772 0.11240
 O168 O 1.07420 -0.05348 0.15648
 O169 O 1.03666 -0.09634 0.07796
 C170 C 1.06462 -0.08797 0.13348
 O171 O 1.07833 0.05102 0.14808
 O172 O 1.04219 0.09427 0.06843
 C173 C 1.07139 0.08527 0.12196
 O174 O 0.92590 -0.05251 0.15044
 O175 O 0.96236 -0.09626 0.07069
 C176 C 0.93335 -0.08704 0.12528
 Zr177 Zr 0.94825 -0.00043 0.10442
 O178 O 0.94584 0.00499 0.23755
 O179 O 0.88289 -0.00248 0.09315
 Zr180 Zr 1.05096 -0.00051 0.11331
 O181 O 1.03978 0.00414 0.24490
 O182 O 1.11543 -0.00260 0.13672
 Zr183 Zr 1.00297 -0.05868 0.00261
 Zr184 Zr 1.00175 0.05634 0.00054
 O185 O 0.99934 0.03396 0.12339
 O186 O 0.99947 -0.03549 0.12576
 O187 O 0.94232 0.03164 -0.00359
 O188 O 1.06189 -0.03273 0.00676
 O189 O 0.94326 -0.03463 -0.00224
 O190 O 1.06170 0.03271 0.00580
 H191 H 1.00363 0.05048 -0.17000
 H192 H 1.08789 -0.04769 0.01024
 H193 H 0.99852 0.05245 0.17101
 H194 H 0.91822 -0.05101 -0.00473
 H195 H 1.13177 0.01023 -0.05868
 H196 H 1.12938 0.00034 0.08142
 H197 H 1.03631 -0.02201 0.26743
 H198 H 0.96157 -0.01668 0.26140
 H199 H 0.87150 -0.00122 0.15137
 H200 H 0.87926 -0.00724 -0.17339
 H201 H 0.97281 -0.02181 -0.26242
 H202 H 1.07813 0.00141 -0.25769
 O203 O 1.07122 0.44154 0.63877
 O204 O 1.03353 0.40156 0.55349
 C205 C 1.06145 0.40785 0.61044
 O206 O 0.91969 0.55022 0.63251
 O207 O 0.96270 0.59277 0.56589
 C208 C 0.93094 0.58477 0.61272
 O209 O 0.92358 0.44342 0.63277
 O210 O 0.96146 0.40200 0.54989
 C211 C 0.93199 0.40975 0.60322
 O212 O 1.07325 0.54788 0.64632
 O213 O 1.03591 0.59191 0.57116
 C214 C 1.06403 0.58261 0.62556
 Zr215 Zr 1.05027 0.49592 0.59922
 O216 O 1.04919 0.49563 0.73286
 O217 O 1.11583 0.49526 0.59327
 Zr218 Zr 0.94643 0.49692 0.59600
 O219 O 0.95180 0.49650 0.72886
 O220 O 0.88099 0.49443 0.60498
 O221 O 0.99783 0.46149 0.61046
 O222 O 0.99820 0.52984 0.61631
 O223 O 1.07915 0.55504 0.35774
 O224 O 1.03670 0.59511 0.43388
 C225 C 1.06795 0.58876 0.38401
 O226 O 0.92666 0.44701 0.33362
 O227 O 0.96547 0.40426 0.40862
 C228 C 0.93696 0.41239 0.35448
 O229 O 0.92083 0.55322 0.35935
 O230 O 0.96193 0.59512 0.43310
 C231 C 0.93009 0.58707 0.38685
 O232 O 1.07238 0.44863 0.33261
 O233 O 1.03575 0.40444 0.41010
 C234 C 1.06303 0.41380 0.35324
 Zr235 Zr 1.05291 0.50091 0.38573
 O236 O 1.05065 0.50633 0.25285
 O237 O 1.11844 0.49852 0.39330
 Zr238 Zr 0.94939 0.50017 0.38035
 O239 O 0.95906 0.50711 0.24896
 O240 O 0.88507 0.49789 0.35568
 Zr241 Zr 0.99930 0.44159 0.48479
 Zr242 Zr 0.99951 0.55514 0.49625
 O243 O 1.00104 0.53492 0.37135
 O244 O 1.00141 0.46624 0.36367
 O245 O 1.05967 0.53209 0.49680
 O246 O 0.93973 0.46623 0.48473
 O247 O 1.05911 0.46532 0.48890
 O248 O 0.93949 0.53140 0.49115
 H249 H 0.99724 0.54668 0.66677
 H250 H 0.91432 0.45042 0.48167
 H251 H 1.00126 0.55427 0.32580
 H252 H 1.08384 0.44851 0.48744
 H253 H 0.87009 0.50658 0.55337
 H254 H 0.87103 0.49703 0.41128
 H255 H 0.96743 0.48191 0.22582
 H256 H 1.07973 0.50734 0.23254
 H257 H 1.12929 0.49879 0.33469
 H258 H 1.12559 0.49359 0.65239
 H259 H 1.02916 0.47573 0.75050
 H260 H 0.92304 0.49784 0.75106
 O261 O 0.57740 -0.05460 0.65202
 O262 O 0.53882 -0.09637 0.57275
 C263 C 0.56695 -0.08922 0.62882
 O264 O 0.42764 0.05498 0.65570
 O265 O 0.46725 0.09738 0.58044
 C266 C 0.43815 0.08976 0.63445
 O267 O 0.43028 -0.05181 0.66022
 O268 O 0.46469 -0.09492 0.57503
 C269 C 0.43720 -0.08623 0.63327
 O270 O 0.58306 0.05239 0.64365
 O271 O 0.54331 0.09626 0.57236
 C272 C 0.57471 0.08689 0.62012
 Zr273 Zr 0.55570 0.00032 0.60937
 O274 O 0.55531 0.00374 0.74287
 O275 O 0.62129 -0.00152 0.60275
 Zr276 Zr 0.45239 0.00070 0.61549
 O277 O 0.46077 0.00168 0.74767
 O278 O 0.38703 -0.00190 0.62775
 O279 O 0.50426 -0.03452 0.62765
 O280 O 0.50411 0.03469 0.62828
 O281 O 0.57588 0.05834 0.35686
 O282 O 0.53542 0.09886 0.43589
 C283 C 0.56446 0.09261 0.38065
 O284 O 0.42901 -0.05493 0.35586
 O285 O 0.46957 -0.09626 0.43079
 C286 C 0.44050 -0.08937 0.37673
 O287 O 0.41954 0.05045 0.37263
 O288 O 0.45791 0.09539 0.44420
 C289 C 0.42634 0.08512 0.39755
 O290 O 0.57763 -0.04853 0.34887
 O291 O 0.54369 -0.09335 0.43015
 C292 C 0.57188 -0.08321 0.37471
 Zr293 Zr 0.55359 0.00319 0.39575
 O294 O 0.55181 0.00651 0.26239
 O295 O 0.61914 0.00447 0.40056
 Zr296 Zr 0.45044 -0.00048 0.40020
 O297 O 0.45789 0.00266 0.26784
 O298 O 0.38539 -0.00493 0.38654
 Zr299 Zr 0.50360 -0.05689 0.50369
 Zr300 Zr 0.50158 0.05866 0.50677
 O301 O 0.50049 0.03573 0.38382
 O302 O 0.50289 -0.03363 0.38085
 O303 O 0.56193 0.03565 0.50344
 O304 O 0.44386 -0.03269 0.50763
 O305 O 0.56269 -0.03120 0.50111
 O306 O 0.44230 0.03330 0.50893
 H307 H 0.50515 0.05237 0.67730
 H308 H 0.41878 -0.04904 0.50699
 H309 H 0.49883 0.05392 0.33616
 H310 H 0.58825 -0.04690 0.50169
 H311 H 0.37533 0.01437 0.58283
 H312 H 0.37344 -0.00340 0.44406
 H313 H 0.42947 0.00222 0.24432
 H314 H 0.53497 -0.01529 0.24205
 H315 H 0.62900 0.00566 0.34122
 H316 H 0.63131 -0.00324 0.66171
 H317 H 0.53934 -0.01845 0.76397
 H318 H 0.43255 0.00303 0.77258
 O319 O 0.55635 0.56980 0.15093
 O320 O 0.60307 0.53559 0.07105
 C321 C 0.59381 0.56149 0.12706
 O322 O 0.44160 0.43073 0.14221
 O323 O 0.39436 0.46808 0.07284
 C324 C 0.40397 0.43971 0.12146
 O325 O 0.55457 0.43493 0.15316
 O326 O 0.60207 0.46498 0.06722
 C327 C 0.59176 0.43970 0.12482
 O328 O 0.44340 0.57378 0.14774
 O329 O 0.39537 0.54093 0.06880
 C330 C 0.40604 0.56802 0.12212
 Zr331 Zr 0.49877 0.54985 0.10627
 O332 O 0.49564 0.54916 0.23988
 O333 O 0.49980 0.61028 0.09944
 Zr334 Zr 0.49877 0.45574 0.10735
 O335 O 0.49655 0.46326 0.23972
 O336 O 0.50187 0.39557 0.11844
 O337 O 0.53716 0.50288 0.12205
 O338 O 0.46126 0.50266 0.12289
 O339 O 0.43905 0.57172 -0.14245
 O340 O 0.39296 0.53453 -0.06854
 C341 C 0.40176 0.56240 -0.11964
 O342 O 0.55720 0.43429 -0.14971
 O343 O 0.60359 0.47076 -0.07535
 C344 C 0.59463 0.44355 -0.12810
 O345 O 0.44462 0.42556 -0.13318
 O346 O 0.39561 0.46052 -0.06049
 C347 C 0.40725 0.43099 -0.10615
 O348 O 0.55193 0.57026 -0.15655
 O349 O 0.60083 0.54160 -0.07297
 C350 C 0.58944 0.56677 -0.12990
 Zr351 Zr 0.49675 0.54929 -0.10671
 O352 O 0.49152 0.54867 -0.23996
 O353 O 0.49728 0.60971 -0.09910
 Zr354 Zr 0.49917 0.45525 -0.10773
 O355 O 0.49307 0.46295 -0.23968
 O356 O 0.50344 0.39574 -0.12981
 Zr357 Zr 0.56162 0.50285 -0.00179
 Zr358 Zr 0.43537 0.50160 0.00142
 O359 O 0.46020 0.50134 -0.12150
 O360 O 0.53634 0.50283 -0.12466
 O361 O 0.46101 0.55681 0.00092
 O362 O 0.53436 0.44816 -0.00084
 O363 O 0.53362 0.55715 -0.00118
 O364 O 0.46332 0.44723 0.00091
 H365 H 0.44203 0.50294 0.17196
 H366 H 0.55125 0.42452 -0.00166
 H367 H 0.44012 0.50028 -0.16868
 H368 H 0.55053 0.58079 -0.00016
 H369 H 0.48958 0.38479 0.06641
 H370 H 0.50525 0.38347 -0.07382
 H371 H 0.52136 0.46430 -0.26412
 H372 H 0.51496 0.53347 -0.26276
 H373 H 0.49620 0.61932 -0.15787
 H374 H 0.50195 0.61994 0.15823
 H375 H 0.51900 0.53338 0.26026
 H376 H 0.49442 0.43726 0.26392
 C377 C 1.15824 0.15716 0.11236
 C378 C 1.17926 0.14916 0.18828
 C379 C 1.16055 0.12452 0.24659
 C380 C 1.12264 0.10710 0.22824
 C381 C 1.10259 0.11346 0.15064
 C382 C 1.12028 0.13942 0.09366
 H383 H 1.17178 0.17639 0.06643
 H384 H 1.17529 0.11871 0.30650
 H385 H 1.10995 0.08692 0.27320
 H386 H 1.10624 0.14411 0.03266
 C387 C 1.13769 0.66446 0.63502
 C388 C 1.15923 0.65529 0.70904
 C389 C 1.14292 0.62777 0.76415
 C390 C 1.10851 0.60642 0.74073
 C391 C 1.08972 0.61268 0.66239
 C392 C 1.10279 0.64334 0.61211
 H393 H 1.14959 0.68578 0.59183
 H394 H 1.15838 0.62114 0.82288
 H395 H 1.09846 0.58317 0.78095
 H396 H 1.08860 0.64857 0.55156
 C397 C 0.63472 0.16518 0.73288
 C398 C 0.67581 0.15465 0.71148
 C399 C 0.68187 0.12537 0.65203
 C400 C 0.64810 0.10586 0.61797
 C401 C 0.60723 0.11489 0.64231
 C402 C 0.60059 0.14524 0.69889
 H403 H 0.62909 0.18780 0.77837
 H404 H 0.71289 0.11719 0.63244
 H405 H 0.65397 0.08234 0.57476
 H406 H 0.56946 0.15218 0.71992
 C407 C 0.69992 0.60360 0.16510
 C408 C 0.68979 0.63663 0.21151
 C409 C 0.64849 0.64354 0.23437
 C410 C 0.61757 0.61799 0.21024
 C411 C 0.62738 0.58533 0.16177
 C412 C 0.66895 0.57820 0.14011
 H413 H 0.73177 0.59788 0.14675
 H414 H 0.64023 0.66862 0.27110
 H415 H 0.58581 0.62447 0.22776
 H416 H 0.67746 0.55350 0.10239
 C417 C 0.84985 -0.16234 0.11379
 C418 C 0.82493 -0.15195 0.18369
 C419 C 0.84011 -0.12478 0.24090
 C420 C 0.87826 -0.10697 0.22654
 C421 C 0.90202 -0.11532 0.15373
 C422 C 0.88796 -0.14405 0.09871
 H423 H 0.83911 -0.18367 0.06924
 H424 H 0.82229 -0.11713 0.29663
 H425 H 0.88810 -0.08486 0.27014
 H426 H 0.90494 -0.15057 0.04130
 C427 C 0.87017 0.33021 0.70138
 C428 C 0.82992 0.34248 0.67865
 C429 C 0.82588 0.37159 0.61855
 C430 C 0.86050 0.39051 0.58855
 C431 C 0.89993 0.38143 0.61887
 C432 C 0.90519 0.35026 0.67273
 H433 H 0.87449 0.30773 0.74728
 H434 H 0.79574 0.38037 0.59562
 H435 H 0.85615 0.41418 0.54554
 H436 H 0.93565 0.34314 0.69661
 C437 C 0.35598 -0.16458 0.63398
 C438 C 0.33296 -0.15489 0.70709
 C439 C 0.34903 -0.12697 0.76161
 C440 C 0.38574 -0.10766 0.74146
 C441 C 0.40729 -0.11525 0.66549
 C442 C 0.39269 -0.14484 0.61317
 H443 H 0.34449 -0.18612 0.59072
 H444 H 0.33270 -0.11950 0.81929
 H445 H 0.39602 -0.08505 0.78335
 H446 H 0.40792 -0.15091 0.55349
 C447 C 0.34773 0.35406 0.21051
 C448 C 0.30598 0.36280 0.19268
 C449 C 0.29726 0.39809 0.15343
 C450 C 0.32889 0.42351 0.13293
 C451 C 0.37025 0.41458 0.15089
 C452 C 0.37935 0.37971 0.19030
 H453 H 0.35623 0.32801 0.24263
 H454 H 0.26618 0.40571 0.13424
 H455 H 0.32090 0.44982 0.10110
 H456 H 0.41105 0.37184 0.20447
 C457 C 0.86222 0.16547 -0.18904
 C458 C 0.82214 0.15069 -0.17155
 C459 C 0.81903 0.11540 -0.13073
 C460 C 0.85462 0.09488 -0.11047
 C461 C 0.89443 0.10895 -0.13010
 C462 C 0.89816 0.14484 -0.16790
 H463 H 0.86585 0.19250 -0.22120
 H464 H 0.78902 0.10358 -0.11425
 H465 H 0.85100 0.06739 -0.07999
 H466 H 0.92847 0.15612 -0.18394
 C467 C 0.86737 0.67058 0.31045
 C468 C 0.82730 0.65770 0.33380
 C469 C 0.82385 0.62626 0.38830
 C470 C 0.85858 0.60545 0.40997
 C471 C 0.89753 0.61540 0.37773
 C472 C 0.90249 0.64908 0.33167
 H473 H 0.87145 0.69484 0.26905
 H474 H 0.79403 0.61695 0.41253
 H475 H 0.85474 0.58012 0.44848
 H476 H 0.93272 0.65719 0.30753
 C477 C 0.36346 0.16851 0.31045
 C478 C 0.32263 0.15300 0.31343
 C479 C 0.31750 0.11766 0.35437
 C480 C 0.35140 0.09775 0.38590
 C481 C 0.39204 0.11184 0.37749
 C482 C 0.39781 0.14801 0.34176
 H483 H 0.36964 0.19532 0.27905
 H484 H 0.28715 0.10521 0.36408
 H485 H 0.34581 0.07033 0.41549
 H486 H 0.42881 0.15946 0.33402
 C487 C 0.34604 0.64552 -0.21897
 C488 C 0.30409 0.63683 -0.20288
 C489 C 0.29484 0.60229 -0.16052
 C490 C 0.32633 0.57758 -0.13524
 C491 C 0.36789 0.58657 -0.15163
 C492 C 0.37736 0.62068 -0.19417
 H493 H 0.35502 0.67085 -0.25352
 H494 H 0.26341 0.59480 -0.14293
 H495 H 0.31811 0.55183 -0.10129
 H496 H 0.40918 0.62862 -0.20769
 C497 C 1.14235 -0.15959 -0.22663
 C498 C 1.18201 -0.14957 -0.19550
 C499 C 1.18468 -0.12167 -0.13220
 C500 C 1.14879 -0.10382 -0.10173
 C501 C 1.10939 -0.11318 -0.13398
 C502 C 1.10634 -0.14133 -0.19656
 H503 H 1.13936 -0.18107 -0.27567
 H504 H 1.21448 -0.11383 -0.10596
 H505 H 1.15190 -0.08144 -0.05468
 H506 H 1.07657 -0.14804 -0.22435
 C507 C 1.14326 0.37028 0.21376
 C508 C 1.15915 0.34224 0.26766
 C509 C 1.13684 0.33208 0.34054
 C510 C 1.10155 0.35274 0.36392
 C511 C 1.08866 0.38382 0.31486
 C512 C 1.10825 0.39098 0.23724
 H513 H 1.15948 0.37780 0.15608
 H514 H 1.14850 0.31034 0.38273
 H515 H 1.08699 0.34688 0.42422
 H516 H 1.09851 0.41462 0.19807
 C517 C 0.63425 -0.16339 0.27055
 C518 C 0.67522 -0.15038 0.28548
 C519 C 0.68058 -0.11762 0.33545
 C520 C 0.64640 -0.09762 0.36676
 C521 C 0.60564 -0.10967 0.34979
 C522 C 0.59965 -0.14316 0.30252
 H523 H 0.62892 -0.18863 0.23237
 H524 H 0.71133 -0.10734 0.35082
 H525 H 0.65187 -0.07193 0.40351
 H526 H 0.56857 -0.15277 0.28777
 C527 C 0.65034 0.35854 -0.22290
 C528 C 0.69155 0.36624 -0.20113
 C529 C 0.70120 0.40076 -0.15993
 C530 C 0.66999 0.42688 -0.13948
 C531 C 0.62854 0.41896 -0.16000
 C532 C 0.61915 0.38472 -0.20295
 H533 H 0.64230 0.33236 -0.25572
 H534 H 0.73286 0.40720 -0.14213
 H535 H 0.67820 0.45273 -0.10563
 H536 H 0.58748 0.37751 -0.21916
 C537 C 1.10096 0.18738 -0.16891
 C538 C 1.14062 0.18249 -0.20568
 C539 C 1.15693 0.14516 -0.21147
 C540 C 1.13362 0.11383 -0.18428
 C541 C 1.09389 0.11918 -0.14946
 C542 C 1.07799 0.15624 -0.14163
 H543 H 1.08783 0.21543 -0.15787
 H544 H 1.18687 0.13969 -0.24029
 H545 H 1.14682 0.08547 -0.19018
 H546 H 1.04779 0.16140 -0.11347
 C547 C 1.10255 0.69088 0.36185
 C548 C 1.14161 0.68743 0.32188
 C549 C 1.15647 0.65028 0.30375
 C550 C 1.13225 0.61809 0.32180
 C551 C 1.09289 0.62223 0.35908
 C552 C 1.07844 0.65897 0.37882
 H553 H 1.09055 0.71822 0.38267
 H554 H 1.18583 0.64579 0.27181
 H555 H 1.14441 0.59000 0.30680
 H556 H 1.04859 0.66323 0.40917
 C557 C 0.64080 0.15611 0.25854
 C558 C 0.62888 0.19337 0.28352
 C559 C 0.59419 0.19700 0.33714
 C560 C 0.57309 0.16446 0.36709
 C561 C 0.58577 0.12714 0.34404
 C562 C 0.61964 0.12358 0.28822
 H563 H 0.66694 0.15201 0.21625
 H564 H 0.58417 0.22498 0.35844
 H565 H 0.54712 0.16866 0.40976
 H566 H 0.63033 0.09559 0.26844
 C567 C 0.66576 0.64951 -0.12504
 C568 C 0.64908 0.67371 -0.18837
 C569 C 0.61741 0.65872 -0.23911
 C570 C 0.60275 0.62154 -0.22685
 C571 C 0.61695 0.59851 -0.15960
 C572 C 0.64939 0.61277 -0.10989
 H573 H 0.68976 0.65980 -0.08308
 H574 H 0.60466 0.67521 -0.29055
 H575 H 0.57795 0.61171 -0.26745
 H576 H 0.66037 0.59664 -0.05623
 C577 C 0.85633 -0.14795 -0.23015
 C578 C 0.86684 -0.18520 -0.20591
 C579 C 0.90364 -0.19133 -0.16082
 C580 C 0.92934 -0.16086 -0.13964
 C581 C 0.91868 -0.12342 -0.16251
 C582 C 0.88211 -0.11728 -0.20881
 H583 H 0.82836 -0.14261 -0.26587
 H584 H 0.91224 -0.21976 -0.14058
 H585 H 0.95703 -0.16659 -0.10334
 H586 H 0.87280 -0.08871 -0.22669
 C587 C 0.85147 0.35431 0.25145
 C588 C 0.86232 0.31711 0.27631
 C589 C 0.89874 0.31162 0.32284
 C590 C 0.92377 0.34246 0.34431
 C591 C 0.91286 0.37982 0.32080
 C592 C 0.87656 0.38546 0.27354
 H593 H 0.82374 0.35926 0.21474
 H594 H 0.90759 0.28341 0.34411
 H595 H 0.95124 0.33694 0.38147
 H596 H 0.86707 0.41393 0.25526
 C597 C 0.40757 -0.19262 0.33122
 C598 C 0.37105 -0.18782 0.28416
 C599 C 0.35916 -0.15022 0.26322
 C600 C 0.38226 -0.11844 0.29063
 C601 C 0.41801 -0.12316 0.34013
 C602 C 0.43059 -0.16083 0.35898
 H603 H 0.41761 -0.22094 0.34930
 H604 H 0.33158 -0.14529 0.22608
 H605 H 0.37147 -0.09009 0.27466
 H606 H 0.45787 -0.16584 0.39702
 C607 C 0.38257 0.32689 -0.12112
 C608 C 0.34841 0.32561 -0.17579
 C609 C 0.32956 0.36104 -0.19764
 C610 C 0.34598 0.39623 -0.16996
 C611 C 0.38080 0.39682 -0.11776
 C612 C 0.39783 0.36177 -0.09150
 H613 H 0.39730 0.30095 -0.09945
 H614 H 0.30383 0.36201 -0.24122
 H615 H 0.33307 0.42271 -0.19328
 H616 H 0.42490 0.36147 -0.05115
 C617 C 1.09915 -0.18777 0.18204
 C618 C 1.13885 -0.18198 0.21736
 C619 C 1.15348 -0.14420 0.22567
 C620 C 1.12860 -0.11338 0.20191
 C621 C 1.08903 -0.11971 0.16768
 C622 C 1.07467 -0.15716 0.15801
 H623 H 1.08725 -0.21609 0.16897
 H624 H 1.18345 -0.13815 0.25328
 H625 H 1.14072 -0.08465 0.20866
 H626 H 1.04467 -0.16296 0.13014
 C627 C 1.10231 0.30730 0.62758
 C628 C 1.13721 0.31241 0.67905
 C629 C 1.14639 0.34901 0.71035
 C630 C 1.12093 0.37998 0.69064
 C631 C 1.08586 0.37479 0.63932
 C632 C 1.07677 0.33806 0.60840
 H633 H 1.09477 0.27940 0.60208
 H634 H 1.17281 0.35352 0.75125
 H635 H 1.12902 0.40801 0.71471
 H636 H 1.05027 0.33307 0.56802
 C637 C 0.65023 -0.15120 0.73231
 C638 C 0.63485 -0.18900 0.72184
 C639 C 0.59506 -0.19257 0.68527
 C640 C 0.57301 -0.16033 0.65692
 C641 C 0.58919 -0.12305 0.66561
 C642 C 0.62782 -0.11902 0.70517
 H643 H 0.67944 -0.14588 0.76355
 H644 H 0.58144 -0.22033 0.67377
 H645 H 0.54329 -0.16476 0.62680
 H646 H 0.64130 -0.09092 0.71366
 C647 C 0.65603 0.35047 0.11107
 C648 C 0.64582 0.33302 0.18867
 C649 C 0.62521 0.35483 0.25013
 C650 C 0.61312 0.39246 0.23298
 C651 C 0.62044 0.40913 0.15314
 C652 C 0.64318 0.38800 0.09321
 H653 H 0.67296 0.33456 0.06327
 H654 H 0.61834 0.34269 0.31144
 H655 H 0.59511 0.40769 0.28026
 H656 H 0.64822 0.39929 0.03047
 C657 C 0.88681 0.18656 0.11582
 C658 C 0.85527 0.18307 0.17645
 C659 C 0.84797 0.14755 0.21459
 C660 C 0.87315 0.11621 0.19441
 C661 C 0.90588 0.12023 0.13608
 C662 C 0.91189 0.15557 0.09599
 H663 H 0.89247 0.21359 0.08469
 H664 H 0.82380 0.14445 0.26184
 H665 H 0.86744 0.08914 0.22528
 H666 H 0.93601 0.15943 0.04894
 C667 C 0.84992 0.64551 0.72501
 C668 C 0.85802 0.68153 0.68952
 C669 C 0.88891 0.68500 0.62756
 C670 C 0.91236 0.65349 0.60350
 C671 C 0.90545 0.61756 0.64057
 C672 C 0.87349 0.61364 0.70059
 H673 H 0.82626 0.64229 0.77325
 H674 H 0.89518 0.71231 0.59812
 H675 H 0.93596 0.65747 0.55542
 H676 H 0.86718 0.58624 0.72946
 C677 C 0.35555 0.15087 0.74535
 C678 C 0.36934 0.18843 0.72859
 C679 C 0.40739 0.19287 0.68604
 C680 C 0.43001 0.16089 0.65796
 C681 C 0.41552 0.12332 0.67197
 C682 C 0.37833 0.11882 0.71765
 H683 H 0.32664 0.14623 0.77887
 H684 H 0.41889 0.22115 0.67118
 H685 H 0.45859 0.16575 0.62339
 H686 H 0.36614 0.09053 0.72993
 C687 C 0.37170 0.65222 0.24953
 C688 C 0.35035 0.67360 0.18929
 C689 C 0.33971 0.65597 0.11211
 C690 C 0.35327 0.61868 0.09301
 C691 C 0.37693 0.59812 0.15155
 C692 C 0.38433 0.61484 0.23134
 H693 H 0.37888 0.66458 0.31058
 H694 H 0.32212 0.67161 0.06551
 H695 H 0.34801 0.60718 0.03047
 H696 H 0.40292 0.59994 0.27757
   
