data_POSCAR
  _audit_creation_date              2014-09-24
  _audit_creation_method            'ToBaCCo'
  _symmetry_space_group_name_H-M    'P1'
  _symmetry_Int_Tables_number       1
  _symmetry_cell_setting            triclinic
  loop_
  _symmetry_equiv_pos_as_xyz
 x,y,z
_cell_length_a 52.7765
_cell_length_b 52.3364
_cell_length_c 20.6775
_cell_angle_alpha 89.668600
_cell_angle_beta 89.893300
_cell_angle_gamma 119.039200
loop_
  _atom_site_label
  _atom_site_type_symbol
  _atom_site_fract_x
  _atom_site_fract_y
  _atom_site_fract_z
C1 C 0.15178 0.43662 0.53520
 C2 C 0.14889 0.42975 0.47077
 C3 C 0.17656 0.44356 0.44422
 N4 N 0.19630 0.45745 0.49100
 C5 C 0.18122 0.45332 0.54658
 C6 C 0.18351 0.44542 0.37744
 C7 C 0.21167 0.45183 0.35661
 C8 C 0.22255 0.46049 0.29432
 C9 C 0.25025 0.46459 0.29407
 C10 C 0.25584 0.45862 0.35620
 N11 N 0.23218 0.45065 0.39405
 C12 C 0.28229 0.46031 0.37541
 C13 C 0.29061 0.46097 0.44073
 C14 C 0.31504 0.45978 0.46040
 C15 C 0.31804 0.46564 0.52519
 C16 C 0.29465 0.46918 0.54441
 N17 N 0.27819 0.46665 0.49193
 C18 C 0.29091 0.47911 0.60607
 C19 C 0.26759 0.48497 0.61736
 C20 C 0.26621 0.50244 0.66631
 C21 C 0.23872 0.49901 0.66583
 C22 C 0.22387 0.47963 0.61676
 N23 N 0.24156 0.47125 0.58736
 C24 C 0.19392 0.46763 0.60482
 H25 H 0.13407 0.43014 0.56910
 H26 H 0.12861 0.41649 0.44615
 H27 H 0.23490 0.45409 0.55482
 H28 H 0.21213 0.46430 0.25326
 H29 H 0.26482 0.47177 0.25287
 H30 H 0.33008 0.45649 0.43064
 H31 H 0.33677 0.46892 0.55244
 H32 H 0.23047 0.50908 0.69925
 H33 H 0.22950 0.44277 0.44132
 H34 H 0.28281 0.51607 0.70011
 C35 C 0.55679 -0.28293 0.45561
 C36 C 0.55165 -0.28489 0.52066
 C37 C 0.55325 -0.25877 0.53957
 N38 N 0.55785 -0.24155 0.48668
 C39 C 0.55917 -0.25661 0.43463
 C40 C 0.55034 -0.25116 0.60434
 C41 C 0.54504 -0.22759 0.61865
 C42 C 0.54687 -0.21595 0.67995
 C43 C 0.53771 -0.19556 0.67480
 C44 C 0.53123 -0.19459 0.61033
 N45 N 0.53561 -0.21423 0.57646
 C46 C 0.51966 -0.17739 0.58472
 C47 C 0.52038 -0.17136 0.51829
 C48 C 0.50649 -0.15771 0.48901
 C49 C 0.51577 -0.15270 0.42591
 C50 C 0.53534 -0.16308 0.41926
 N51 N 0.53799 -0.17456 0.47570
 C52 C 0.55210 -0.16011 0.36365
 C53 C 0.56450 -0.17837 0.35301
 C54 C 0.58365 -0.17487 0.30345
 C55 C 0.58750 -0.19908 0.30506
 C56 C 0.57085 -0.21657 0.35618
 N57 N 0.55710 -0.20364 0.38523
 C58 C 0.56494 -0.24550 0.36977
 H59 H 0.55953 -0.29902 0.42861
 H60 H 0.54692 -0.30393 0.54964
 H61 H 0.54034 -0.21375 0.41881
 H62 H 0.55387 -0.22161 0.72432
 H63 H 0.53598 -0.18304 0.71431
 H64 H 0.49160 -0.15159 0.51097
 H65 H 0.50897 -0.14245 0.38937
 H66 H 0.60087 -0.20326 0.27178
 H67 H 0.52925 -0.22044 0.52897
 H68 H 0.59320 -0.15718 0.26852
 C69 C 1.15242 0.68432 0.47038
 C70 C 1.14961 0.68448 0.53647
 C71 C 1.17654 0.69176 0.56214
 N72 N 1.19579 0.69687 0.51402
 C73 C 1.18103 0.69196 0.45810
 C74 C 1.18352 0.69272 0.62844
 C75 C 1.21262 0.71012 0.64876
 C76 C 1.22382 0.70699 0.70699
 C77 C 1.25177 0.72948 0.71030
 C78 C 1.25724 0.74590 0.65370
 N79 N 1.23325 0.73361 0.61614
 C80 C 1.28210 0.77348 0.64162
 C81 C 1.29080 0.78479 0.57763
 C82 C 1.31660 0.80954 0.56099
 C83 C 1.31854 0.81045 0.49486
 C84 C 1.29398 0.78620 0.47215
 N85 N 1.27752 0.77032 0.52308
 C86 C 1.28929 0.77646 0.40684
 C87 C 1.26675 0.74817 0.39090
 C88 C 1.26587 0.73230 0.33634
 C89 C 1.23852 0.70862 0.33361
 C90 C 1.22336 0.71060 0.38628
 N91 N 1.24079 0.73440 0.42152
 C92 C 1.19334 0.69293 0.39698
 H93 H 1.13551 0.67967 0.43544
 H94 H 1.13010 0.68021 0.56239
 H95 H 1.23390 0.74299 0.45866
 H96 H 1.21305 0.69031 0.74373
 H97 H 1.26606 0.73310 0.75068
 H98 H 1.33369 0.82432 0.59247
 H99 H 1.33736 0.82591 0.46776
 H100 H 1.23057 0.69223 0.29615
 H101 H 1.22974 0.74281 0.57461
 H102 H 1.28284 0.73714 0.30125
 C103 C 0.85116 0.53894 0.54463
 C104 C 0.84829 0.53406 0.47937
 C105 C 0.82089 0.52925 0.46373
 N106 N 0.80664 0.53055 0.51702
 C107 C 0.82493 0.53579 0.56696
 C108 C 0.80841 0.52143 0.40211
 C109 C 0.78501 0.52557 0.38390
 C110 C 0.76717 0.51311 0.33102
 C111 C 0.74865 0.52466 0.32869
 C112 C 0.75578 0.54364 0.38042
 N113 N 0.77799 0.54416 0.41347
 C114 C 0.74288 0.56088 0.39529
 C115 C 0.74642 0.57398 0.45620
 C116 C 0.74033 0.59624 0.47027
 C117 C 0.74208 0.59923 0.53612
 C118 C 0.74908 0.57855 0.55999
 N119 N 0.75207 0.56338 0.51085
 C120 C 0.74696 0.56997 0.62559
 C121 C 0.76301 0.55639 0.64895
 C122 C 0.75811 0.54040 0.70596
 C123 C 0.77838 0.53095 0.70836
 C124 C 0.79462 0.54055 0.65194
 N125 N 0.78532 0.55620 0.61645
 C126 C 0.81659 0.53388 0.63281
 H127 H 0.87011 0.54340 0.57281
 H128 H 0.86447 0.53408 0.44707
 H129 H 0.79460 0.56719 0.57324
 H130 H 0.76747 0.49743 0.29758
 H131 H 0.73186 0.51958 0.29317
 H132 H 0.73429 0.60831 0.43676
 H133 H 0.73751 0.61405 0.56371
 H134 H 0.77981 0.51712 0.74565
 H135 H 0.78964 0.55859 0.45033
 H136 H 0.74089 0.53444 0.74089
 C137 C 0.44557 0.16712 0.46012
 C138 C 0.44195 0.16590 0.52602
 C139 C 0.45737 0.19438 0.54824
 N140 N 0.46905 0.21299 0.49761
 C141 C 0.46191 0.19640 0.44377
 C142 C 0.46216 0.20316 0.61392
 C143 C 0.47046 0.23237 0.63173
 C144 C 0.48252 0.24476 0.69086
 C145 C 0.48633 0.27254 0.69045
 C146 C 0.47678 0.27679 0.63095
 N147 N 0.46726 0.25223 0.59511
 C148 C 0.47706 0.30303 0.61213
 C149 C 0.47606 0.31038 0.54638
 C150 C 0.47095 0.33258 0.52455
 C151 C 0.47383 0.33362 0.45855
 C152 C 0.47975 0.31145 0.44177
 N153 N 0.48121 0.29736 0.49558
 C154 C 0.48631 0.30610 0.37864
 C155 C 0.48947 0.28152 0.36351
 C156 C 0.50187 0.27827 0.30709
 C157 C 0.49812 0.25038 0.30807
 C158 C 0.48340 0.23727 0.36490
 N159 N 0.47818 0.25639 0.39832
 C160 C 0.47248 0.20752 0.38132
 H161 H 0.43690 0.14849 0.42830
 H162 H 0.42929 0.14619 0.55408
 H163 H 0.46456 0.25137 0.43833
 H164 H 0.48864 0.23517 0.73018
 H165 H 0.49580 0.28812 0.72925
 H166 H 0.46571 0.34670 0.55295
 H167 H 0.47196 0.34917 0.42706
 H168 H 0.50466 0.24063 0.27009
 H169 H 0.45680 0.24840 0.55071
 H170 H 0.51195 0.29403 0.26834
 C171 C 0.68169 0.12621 0.45753
 C172 C 0.67915 0.12627 0.52342
 C173 C 0.69897 0.15413 0.54381
 N174 N 0.71298 0.17116 0.49220
 C175 C 0.70222 0.15426 0.43939
 C176 C 0.70117 0.16501 0.60705
 C177 C 0.72402 0.19258 0.62587
 C178 C 0.72397 0.20710 0.68173
 C179 C 0.75028 0.23208 0.68435
 C180 C 0.76608 0.23217 0.63042
 N181 N 0.74986 0.20794 0.59497
 C182 C 0.79506 0.25383 0.61633
 C183 C 0.80681 0.25703 0.55299
 C184 C 0.83598 0.27157 0.53653
 C185 C 0.83754 0.27265 0.47030
 C186 C 0.80934 0.25722 0.44809
 N187 N 0.79061 0.24770 0.49874
 C188 C 0.80066 0.25440 0.38269
 C189 C 0.77300 0.23271 0.36214
 C190 C 0.76128 0.23176 0.30155
 C191 C 0.73527 0.20627 0.29921
 C192 C 0.73180 0.19227 0.35828
 N193 N 0.75501 0.20838 0.39614
 C194 C 0.70801 0.16490 0.37509
 H195 H 0.66897 0.10784 0.42642
 H196 H 0.66370 0.10790 0.55175
 H197 H 0.75965 0.20190 0.44019
 H198 H 0.70687 0.20049 0.71739
 H199 H 0.75674 0.24841 0.72177
 H200 H 0.85443 0.28049 0.56856
 H201 H 0.85740 0.28341 0.44268
 H202 H 0.72063 0.19891 0.25849
 H203 H 0.75707 0.20098 0.55539
 H204 H 0.77059 0.24751 0.26250
 O205 O 0.96047 0.47367 -0.11976
 O206 O 1.01316 0.52817 0.10044
 O207 O 0.92447 0.45921 0.06782
 O208 O 1.03279 0.52985 -0.04456
 O209 O 0.95978 0.50018 0.10000
 O210 O 1.01294 0.50044 -0.12228
 O211 O 1.05094 0.52702 0.06269
 O212 O 0.94112 0.48176 -0.03788
 C213 C 0.94559 0.48415 -0.09650
 C214 C 1.04012 0.53911 0.09678
 C215 C 0.93318 0.48322 0.09553
 C216 C 1.02718 0.52605 -0.10283
 O217 O 1.01743 0.45647 -0.06704
 O218 O 0.96118 0.45121 0.13891
 O219 O 0.91838 0.42541 -0.04512
 O220 O 1.03769 0.47404 0.05339
 O221 O 1.01634 0.48080 0.13843
 O222 O 0.96071 0.42721 -0.06492
 O223 O 1.05821 0.49844 -0.05044
 O224 O 0.94321 0.42342 0.05329
 Co225 Co 0.98793 0.46544 -0.08459
 Co226 Co 0.98755 0.48925 0.11116
 Co227 Co 0.94522 0.45377 0.00402
 Co228 Co 1.03160 0.49958 0.00112
 O229 O 0.98813 0.47964 0.01315
 C230 C 1.04470 0.47305 -0.07886
 C231 C 0.94698 0.42600 0.11367
 C232 C 0.93341 0.41561 -0.07685
 C233 C 1.03336 0.47266 0.11393
 O234 O 0.50986 0.48012 -0.08661
 O235 O 0.49259 0.53320 0.12792
 O236 O 0.52733 0.47974 0.05874
 O237 O 0.46839 0.52922 -0.07224
 O238 O 0.49352 0.48773 0.09440
 O239 O 0.48081 0.50030 -0.12017
 O240 O 0.46565 0.52333 0.04563
 O241 O 0.55080 0.49177 -0.05026
 C242 C 0.52917 0.47385 -0.07962
 C243 C 0.46821 0.52522 0.10531
 C244 C 0.50293 0.47036 0.08526
 C245 C 0.46319 0.50924 -0.11142
 O246 O 0.52614 0.55308 -0.13895
 O247 O 0.53355 0.52282 0.16807
 O248 O 0.57999 0.54696 -0.01914
 O249 O 0.51447 0.57712 0.05385
 O250 O 0.54527 0.56555 0.09461
 O251 O 0.55962 0.53388 -0.11355
 O252 O 0.51609 0.57830 -0.06752
 O253 O 0.56641 0.53512 0.09322
 Co254 Co 0.51950 0.51759 -0.10555
 Co255 Co 0.51972 0.52628 0.09051
 Co256 Co 0.55217 0.51441 0.01851
 Co257 Co 0.49379 0.54980 -0.00862
 O258 O 0.51933 0.52739 -0.00653
 C259 C 0.52558 0.57604 -0.12203
 C260 C 0.55939 0.52773 0.15181
 C261 C 0.58198 0.54842 -0.07927
 C262 C 0.53700 0.58392 0.08630
 O263 O 0.49478 0.01414 -0.13293
 O264 O 0.47376 -0.02589 0.14310
 O265 O 0.52644 0.04135 0.06145
 O266 O 0.49550 -0.03883 -0.04460
 O267 O 0.49371 0.02631 0.13692
 O268 O 0.46809 -0.03959 -0.11923
 O269 O 0.49803 -0.03212 0.06845
 O270 O 0.52660 0.04416 -0.06283
 C271 C 0.52024 0.03346 -0.11838
 C272 C 0.49434 -0.02999 0.12668
 C273 C 0.51993 0.03797 0.11994
 C274 C 0.48889 -0.04279 -0.10195
 O275 O 0.42219 -0.03718 -0.07366
 O276 O 0.44348 0.01972 0.08699
 O277 O 0.48294 0.05397 -0.05868
 O278 O 0.43937 -0.06303 0.07871
 O279 O 0.42381 -0.03263 0.08594
 O280 O 0.44703 0.01630 -0.10491
 O281 O 0.43536 -0.06782 -0.03712
 O282 O 0.48466 0.05601 0.06142
 Co283 Co 0.45917 -0.01106 -0.09643
 Co284 Co 0.45968 -0.00343 0.10416
 Co285 Co 0.50203 0.04364 0.00154
 Co286 Co 0.46736 -0.04668 0.01532
 O287 O 0.47200 -0.00396 0.00553
 C288 C 0.41605 -0.06272 -0.06006
 C289 C 0.45926 0.04649 0.08174
 C290 C 0.46142 0.04317 -0.09600
 C291 C 0.41929 -0.05792 0.09320
 C292 C 1.16302 0.44245 0.32956
 C293 C 1.14155 0.45045 0.33893
 C294 C 1.12251 0.45041 0.28702
 N295 N 1.10063 0.45588 0.30214
 N296 N 1.08392 0.45754 0.25609
 C297 C 1.08848 0.45395 0.19293
 N298 N 1.11037 0.44839 0.17763
 N299 N 1.12705 0.44656 0.22389
 C300 C 1.07105 0.45781 0.14196
 C301 C 1.04780 0.46208 0.15868
 H302 H 1.13972 0.45935 0.38466
 H303 H 1.07762 0.45920 0.09183
 H304 H 1.16569 0.43665 0.28087
 H305 H 1.04134 0.46018 0.20901
 C306 C 0.56489 0.73729 0.31678
 C307 C 0.54659 0.70714 0.31275
 C308 C 0.54823 0.68939 0.25999
 N309 N 0.54370 0.66210 0.27332
 N310 N 0.54366 0.64491 0.22614
 C311 C 0.54773 0.65420 0.16367
 N312 N 0.55199 0.68144 0.15011
 N313 N 0.55256 0.69889 0.19757
 C314 C 0.54450 0.63386 0.11161
 C315 C 0.55102 0.61140 0.12234
 H316 H 0.53016 0.69561 0.34918
 H317 H 0.53417 0.63473 0.06705
 H318 H 0.57685 0.74786 0.27320
 H319 H 0.56388 0.61240 0.16401
 C320 C 0.30759 -0.20581 0.35606
 C321 C 0.31800 -0.17567 0.35125
 C322 C 0.33566 -0.15833 0.29567
 N323 N 0.34003 -0.13085 0.28530
 N324 N 0.35649 -0.11473 0.23607
 C325 C 0.36924 -0.12548 0.19542
 N326 N 0.36490 -0.15294 0.20588
 N327 N 0.34831 -0.16912 0.25486
 C328 C 0.38946 -0.10712 0.14426
 C329 C 0.39334 -0.07951 0.12830
 H330 H 0.31145 -0.16475 0.38649
 H331 H 0.40327 -0.11462 0.12213
 H332 H 0.31025 -0.21598 0.31322
 H333 H 0.37882 -0.07239 0.14817
 C334 C 0.81968 0.50744 0.35714
 C335 C 0.82727 0.51714 0.29368
 C336 C 0.84044 0.50450 0.25121
 N337 N 0.85781 0.52059 0.20167
 N338 N 0.87150 0.51010 0.16548
 C339 C 0.86796 0.48298 0.17698
 N340 N 0.84993 0.46653 0.22534
 N341 N 0.83650 0.47717 0.26203
 C342 C 0.88524 0.47255 0.14168
 C343 C 0.91303 0.49240 0.12082
 H344 H 0.82557 0.53587 0.27664
 H345 H 0.87781 0.44930 0.13963
 H346 H 0.82463 0.49107 0.37637
 H347 H 0.92142 0.51551 0.12954
 C348 C 0.49265 0.32817 0.32691
 C349 C 0.47161 0.33444 0.30270
 C350 C 0.47830 0.35629 0.25098
 N351 N 0.45977 0.36674 0.23815
 N352 N 0.46635 0.38755 0.19345
 C353 C 0.49159 0.39840 0.15950
 N354 N 0.50983 0.38757 0.17161
 N355 N 0.50334 0.36695 0.21650
 C356 C 0.50077 0.42315 0.11423
 C357 C 0.48718 0.44029 0.11086
 H358 H 0.45006 0.32379 0.32376
 H359 H 0.52126 0.43046 0.08938
 H360 H 0.51404 0.33841 0.30513
 H361 H 0.46687 0.43344 0.13611
 C362 C 0.68713 0.14773 0.32357
 C363 C 0.65744 0.13710 0.33200
 C364 C 0.63563 0.11837 0.28493
 N365 N 0.60716 0.10564 0.30120
 N366 N 0.58689 0.08844 0.25965
 C367 C 0.59433 0.08333 0.20017
 N368 N 0.62284 0.09611 0.18378
 N369 N 0.64316 0.11322 0.22553
 C370 C 0.57202 0.06561 0.15281
 C371 C 0.54266 0.05064 0.16915
 H372 H 0.64970 0.14185 0.37648
 H373 H 0.57873 0.06554 0.10329
 H374 H 0.69535 0.14475 0.27784
 H375 H 0.53600 0.04985 0.21904
 C376 C 0.45969 0.18350 -0.33571
 C377 C 0.46428 0.15950 -0.34267
 C378 C 0.46413 0.14192 -0.28679
 N379 N 0.45811 0.11390 -0.29558
 N380 N 0.45887 0.09796 -0.24598
 C381 C 0.46607 0.10955 -0.18582
 N382 N 0.47245 0.13772 -0.17708
 N383 N 0.47128 0.15356 -0.22660
 C384 C 0.46866 0.09234 -0.13224
 C385 C 0.45340 0.06196 -0.13388
 H386 H 0.46973 0.15400 -0.38903
 H387 H 0.48387 0.10350 -0.09371
 H388 H 0.45632 0.18845 -0.28673
 H389 H 0.43679 0.05140 -0.17020
 C390 C 0.72490 0.57171 -0.33868
 C391 C 0.72150 0.57200 -0.27172
 C392 C 0.69446 0.56997 -0.24527
 N393 N 0.69191 0.57468 -0.18166
 N394 N 0.66713 0.57209 -0.15840
 C395 C 0.64403 0.56472 -0.19793
 N396 N 0.64662 0.55999 -0.26128
 N397 N 0.67130 0.56263 -0.28442
 C398 C 0.61567 0.55926 -0.17295
 C399 C 0.61112 0.56336 -0.10846
 H400 H 0.73869 0.57501 -0.23905
 H401 H 0.59727 0.54902 -0.20512
 H402 H 0.70865 0.57372 -0.36686
 H403 H 0.62953 0.57404 -0.07645
 C404 C 0.81142 0.27233 -0.33222
 C405 C 0.83414 0.30099 -0.33909
 C406 C 0.84888 0.31914 -0.28275
 N407 N 0.87607 0.34202 -0.28925
 N408 N 0.88939 0.35915 -0.23910
 C409 C 0.87586 0.35425 -0.18079
 N410 N 0.84855 0.33155 -0.17443
 N411 N 0.83538 0.31417 -0.22436
 C412 C 0.88966 0.37424 -0.12655
 C413 C 0.91963 0.39139 -0.12263
 H414 H 0.84068 0.31132 -0.38607
 H415 H 0.87593 0.37588 -0.08965
 H416 H 0.80475 0.26473 -0.28309
 H417 H 0.93342 0.38790 -0.15623
 C418 C 0.50814 -0.16324 -0.37140
 C419 C 0.52675 -0.13920 -0.33467
 C420 C 0.51667 -0.12142 -0.29974
 N421 N 0.53457 -0.10074 -0.25772
 N422 N 0.52578 -0.08431 -0.22611
 C423 C 0.49886 -0.08776 -0.23593
 N424 N 0.48107 -0.10823 -0.27845
 N425 N 0.48979 -0.12478 -0.30974
 C426 C 0.48840 -0.07057 -0.19982
 C427 C 0.50251 -0.05487 -0.14491
 H428 H 0.54957 -0.13287 -0.33270
 H429 H 0.46770 -0.07252 -0.21326
 H430 H 0.48548 -0.16922 -0.37525
 H431 H 0.52232 -0.05431 -0.12902
 C432 C 0.31148 0.48570 -0.34382
 C433 C 0.32483 0.46899 -0.32854
 C434 C 0.34797 0.47839 -0.27973
 N435 N 0.36221 0.46292 -0.27100
 N436 N 0.38407 0.47191 -0.22929
 C437 C 0.39245 0.49667 -0.19453
 N438 N 0.37802 0.51196 -0.20277
 N439 N 0.35625 0.50304 -0.24466
 C440 C 0.41743 0.50771 -0.15045
 C441 C 0.43594 0.49571 -0.14813
 H442 H 0.31807 0.44829 -0.35219
 H443 H 0.42246 0.52697 -0.12229
 H444 H 0.31537 0.50297 -0.31043
 H445 H 0.43143 0.47701 -0.17787
 C446 C 1.16228 0.67625 -0.32399
 C447 C 1.13649 0.65040 -0.33587
 C448 C 1.11654 0.63265 -0.28356
 N449 N 1.09223 0.60746 -0.29822
 N450 N 1.07471 0.59026 -0.25157
 C451 C 1.08080 0.59756 -0.18835
 N452 N 1.10497 0.62290 -0.17366
 N453 N 1.12248 0.64017 -0.22037
 C454 C 1.06303 0.57732 -0.13631
 C455 C 1.03935 0.55018 -0.15011
 H456 H 1.13166 0.64119 -0.38384
 H457 H 1.07051 0.58255 -0.08691
 H458 H 1.16723 0.68252 -0.27386
 H459 H 1.03212 0.54495 -0.19966
 C460 C 0.82943 0.52389 -0.32028
 C461 C 0.83911 0.50400 -0.33576
 C462 C 0.85968 0.49901 -0.29720
 N463 N 0.87075 0.51304 -0.24064
 N464 N 0.89082 0.50930 -0.20933
 C465 C 0.90075 0.49170 -0.23384
 N466 N 0.88966 0.47779 -0.29031
 N467 N 0.86958 0.48144 -0.32140
 C468 C 0.92230 0.48654 -0.19951
 C469 C 0.93080 0.49604 -0.13664
 H470 H 0.83285 0.49268 -0.38154
 H471 H 0.92946 0.47245 -0.22193
 H472 H 0.83042 0.53040 -0.27030
 H473 H 0.92241 0.50880 -0.11287
 C474 C 0.47887 0.32216 -0.33796
 C475 C 0.49652 0.35244 -0.34119
 C476 C 0.49851 0.37114 -0.28658
 N477 N 0.52300 0.39695 -0.27739
 N478 N 0.52474 0.41430 -0.22870
 C479 C 0.50194 0.40655 -0.18783
 N480 N 0.47737 0.38085 -0.19737
 N481 N 0.47577 0.36333 -0.24551
 C482 C 0.50259 0.42673 -0.13803
 C483 C 0.52843 0.44896 -0.11357
 H484 H 0.51095 0.36236 -0.38210
 H485 H 0.48216 0.42502 -0.12274
 H486 H 0.46950 0.31290 -0.29116
 H487 H 0.54872 0.44928 -0.12381
 C488 C 0.67619 0.14999 -0.34796
 C489 C 0.66545 0.12135 -0.32594
 C490 C 0.64004 0.10797 -0.28283
 N491 N 0.62235 0.07856 -0.28166
 N492 N 0.59894 0.06660 -0.24349
 C493 C 0.59261 0.08369 -0.20487
 N494 N 0.61050 0.11298 -0.20553
 N495 N 0.63363 0.12493 -0.24412
 C496 C 0.56791 0.07131 -0.16001
 C497 C 0.54346 0.04399 -0.16738
 H498 H 0.67515 0.10838 -0.34196
 H499 H 0.56863 0.08508 -0.12031
 H500 H 0.66612 0.16247 -0.33081
 H501 H 0.54097 0.03099 -0.20988
 C502 C 1.17636 0.47399 -0.34862
 C503 C 1.15345 0.45232 -0.31312
 C504 C 1.13685 0.45969 -0.26662
 N505 N 1.11157 0.43844 -0.24113
 N506 N 1.09623 0.44515 -0.19993
 C507 C 1.10577 0.47335 -0.18251
 N508 N 1.13115 0.49449 -0.20753
 N509 N 1.14636 0.48782 -0.24889
 C510 C 1.08926 0.48161 -0.13804
 C511 C 1.06093 0.46252 -0.11832
 H512 H 1.14732 0.42957 -0.32035
 H513 H 1.09944 0.50422 -0.12296
 H514 H 1.18288 0.49673 -0.33998
 H515 H 1.04998 0.44016 -0.13514
 C516 C 0.55046 0.73173 -0.34230
 C517 C 0.56605 0.71649 -0.33878
 C518 C 0.55992 0.69435 -0.28809
 N519 N 0.56896 0.67429 -0.29560
 N520 N 0.56152 0.65270 -0.25264
 C521 C 0.54486 0.65048 -0.20046
 N522 N 0.53628 0.67084 -0.19236
 N523 N 0.54354 0.69228 -0.23552
 C524 C 0.53527 0.62615 -0.15403
 C525 C 0.53744 0.60115 -0.16682
 H526 H 0.58197 0.71959 -0.37545
 H527 H 0.52461 0.62725 -0.11014
 H528 H 0.53809 0.73085 -0.29969
 H529 H 0.54710 0.59949 -0.21176
 C530 C 0.29896 -0.21084 -0.30467
 C531 C 0.30921 -0.18094 -0.29674
 C532 C 0.32684 -0.16476 -0.24096
 N533 N 0.33115 -0.13752 -0.22877
 N534 N 0.34833 -0.12187 -0.18072
 C535 C 0.36196 -0.13278 -0.14307
 N536 N 0.35759 -0.16009 -0.15512
 N537 N 0.34023 -0.17586 -0.20298
 C538 C 0.38355 -0.11422 -0.09495
 C539 C 0.38798 -0.08629 -0.08172
 H540 H 0.30320 -0.16915 -0.33117
 H541 H 0.39857 -0.12104 -0.07656
 H542 H 0.30070 -0.22245 -0.26307
 H543 H 0.37250 -0.07995 -0.09942
 C544 C 0.55581 -0.13809 0.31347
 C545 C 0.56057 -0.11025 0.32980
 C546 C 0.55539 -0.09186 0.28378
 N547 N 0.54838 -0.07174 0.30618
 N548 N 0.54061 -0.05697 0.26550
 C549 C 0.53985 -0.06163 0.20086
 N550 N 0.54754 -0.08123 0.17838
 N551 N 0.55501 -0.09621 0.21909
 C552 C 0.52898 -0.04761 0.15545
 C553 C 0.51120 -0.03614 0.17477
 H554 H 0.56402 -0.10362 0.37997
 H555 H 0.53197 -0.04988 0.10436
 H556 H 0.55348 -0.14444 0.26314
 H557 H 0.50708 -0.03483 0.22564
 C558 C 0.30316 0.46368 0.32333
 C559 C 0.33106 0.48747 0.32224
 C560 C 0.35230 0.49219 0.27122
 N561 N 0.38033 0.51270 0.27984
 N562 N 0.40021 0.51709 0.23514
 C563 C 0.39284 0.50129 0.17982
 N564 N 0.36468 0.48102 0.17062
 N565 N 0.34475 0.47646 0.21568
 C566 C 0.41520 0.50571 0.13158
 C567 C 0.44423 0.51938 0.14942
 H568 H 0.33791 0.50296 0.36159
 H569 H 0.40886 0.49732 0.08310
 H570 H 0.29556 0.44883 0.28278
 H571 H 0.44993 0.52576 0.19932
 C572 C 1.17509 0.67583 0.34164
 C573 C 1.15079 0.64835 0.34870
 C574 C 1.13457 0.63105 0.29272
 N575 N 1.10639 0.61051 0.29995
 N576 N 1.09152 0.59413 0.25014
 C577 C 1.10436 0.59744 0.19139
 N578 N 1.13269 0.61776 0.18428
 N579 N 1.14748 0.63445 0.23396
 C580 C 1.08822 0.57815 0.13763
 C581 C 1.05812 0.56469 0.13649
 H582 H 1.14329 0.63907 0.39637
 H583 H 1.09991 0.57343 0.10071
 H584 H 1.18210 0.68436 0.29317
 H585 H 1.04701 0.57136 0.17099
 C586 C 0.47553 0.18841 0.33297
 C587 C 0.45194 0.16534 0.30303
 C588 C 0.45610 0.14773 0.25305
 N589 N 0.43352 0.12200 0.23369
 N590 N 0.43748 0.10551 0.19020
 C591 C 0.46414 0.11434 0.16405
 N592 N 0.48656 0.14026 0.18271
 N593 N 0.48264 0.15662 0.22638
 C594 C 0.46974 0.09575 0.11969
 C595 C 0.44985 0.06642 0.10930
 H596 H 0.43011 0.15984 0.31733
 H597 H 0.49155 0.10460 0.10054
 H598 H 0.49731 0.19423 0.31750
 H599 H 0.42815 0.05717 0.12920
 C600 C 0.72309 0.56292 0.34758
 C601 C 0.69520 0.55662 0.36559
 C602 C 0.67336 0.55364 0.31822
 N603 N 0.64586 0.54502 0.33808
 N604 N 0.62548 0.54123 0.29543
 C605 C 0.63192 0.54592 0.23139
 N606 N 0.65946 0.55469 0.21157
 N607 N 0.67983 0.55846 0.25421
 C608 C 0.60972 0.54148 0.18365
 C609 C 0.58094 0.53169 0.20083
 H610 H 0.68859 0.55197 0.41585
 H611 H 0.61630 0.54604 0.13336
 H612 H 0.72912 0.56553 0.29690
 H613 H 0.57408 0.52709 0.25091
 C614 C 0.81902 0.27731 0.33504
 C615 C 0.84666 0.28308 0.31620
 C616 C 0.86323 0.30613 0.26826
 N617 N 0.89250 0.32230 0.27258
 N618 N 0.90740 0.34414 0.23092
 C619 C 0.89355 0.35023 0.18290
 N620 N 0.86439 0.33365 0.17782
 N621 N 0.84947 0.31215 0.21999
 C622 C 0.90936 0.37470 0.13764
 C623 C 0.93433 0.39996 0.15565
 H624 H 0.85661 0.27132 0.33809
 H625 H 0.89928 0.37423 0.09171
 H626 H 0.80958 0.28928 0.31170
 H627 H 0.94278 0.40174 0.20410
   
