data_POSCAR
  _audit_creation_date              2014-09-24
  _audit_creation_method            'ToBaCCo'
  _symmetry_space_group_name_H-M    'P1'
  _symmetry_Int_Tables_number       1
  _symmetry_cell_setting            triclinic
  loop_
  _symmetry_equiv_pos_as_xyz
 x,y,z
_cell_length_a 33.5284
_cell_length_b 37.8465
_cell_length_c 41.3701
_cell_angle_alpha 90.000000
_cell_angle_beta 90.000000
_cell_angle_gamma 90.000000
loop_
  _atom_site_label
  _atom_site_type_symbol
  _atom_site_fract_x
  _atom_site_fract_y
  _atom_site_fract_z
B1 B 0.27274 0.23831 0.28212
 B2 B 0.22661 0.22436 0.27311
 B3 B 0.23416 0.26685 0.28267
 B4 B 0.27839 0.27967 0.26725
 B5 B 0.29772 0.24405 0.24740
 B6 B 0.26549 0.20941 0.25151
 B7 B 0.22729 0.26169 0.21788
 B8 B 0.27342 0.27564 0.22689
 B9 B 0.26587 0.23315 0.21733
 B10 B 0.22164 0.22034 0.23274
 B11 B 0.20231 0.25595 0.25259
 B12 B 0.23454 0.29060 0.24849
 B13 B 0.73417 0.76685 0.21733
 B14 B 0.72661 0.72436 0.22689
 B15 B 0.77274 0.73831 0.21788
 B16 B 0.77839 0.77967 0.23274
 B17 B 0.73454 0.79060 0.25151
 B18 B 0.70231 0.75595 0.24740
 B19 B 0.76587 0.73315 0.28267
 B20 B 0.77342 0.77564 0.27311
 B21 B 0.72729 0.76169 0.28212
 B22 B 0.72164 0.72034 0.26725
 B23 B 0.76549 0.70941 0.24849
 B24 B 0.79772 0.74405 0.25259
 B25 B 0.72729 0.23831 -0.28212
 B26 B 0.77342 0.22436 -0.27311
 B27 B 0.76587 0.26685 -0.28267
 B28 B 0.72164 0.27967 -0.26726
 B29 B 0.70231 0.24405 -0.24741
 B30 B 0.73454 0.20941 -0.25151
 B31 B 0.77274 0.26169 -0.21788
 B32 B 0.72661 0.27564 -0.22689
 B33 B 0.73416 0.23315 -0.21733
 B34 B 0.77839 0.22034 -0.23275
 B35 B 0.79772 0.25595 -0.25260
 B36 B 0.76549 0.29060 -0.24849
 B37 B 0.26587 0.76685 -0.21733
 B38 B 0.27342 0.72436 -0.22689
 B39 B 0.22729 0.73831 -0.21788
 B40 B 0.22164 0.77967 -0.23275
 B41 B 0.26549 0.79060 -0.25151
 B42 B 0.29772 0.75595 -0.24741
 B43 B 0.23416 0.73315 -0.28267
 B44 B 0.22661 0.77564 -0.27311
 B45 B 0.27274 0.76169 -0.28212
 B46 B 0.27839 0.72034 -0.26726
 B47 B 0.23454 0.70941 -0.24849
 B48 B 0.20231 0.74405 -0.25260
 B49 B 1.22729 1.26169 0.78212
 B50 B 1.27342 1.27564 0.77311
 B51 B 1.26587 1.23315 0.78267
 B52 B 1.22164 1.22034 0.76725
 B53 B 1.20231 1.25595 0.74740
 B54 B 1.23454 1.29060 0.75151
 B55 B 1.27274 1.23831 0.71788
 B56 B 1.22661 1.22436 0.72689
 B57 B 1.23416 1.26685 0.71733
 B58 B 1.27839 1.27967 0.73274
 B59 B 1.29772 1.24405 0.75259
 B60 B 1.26549 1.20941 0.74849
 B61 B 0.77274 0.73831 0.78212
 B62 B 0.72661 0.72436 0.77311
 B63 B 0.73417 0.76685 0.78267
 B64 B 0.77839 0.77967 0.76725
 B65 B 0.79772 0.74405 0.74740
 B66 B 0.76549 0.70941 0.75151
 B67 B 0.72729 0.76169 0.71788
 B68 B 0.77342 0.77564 0.72689
 B69 B 0.76587 0.73315 0.71733
 B70 B 0.72164 0.72034 0.73274
 B71 B 0.70231 0.75595 0.75259
 B72 B 0.73454 0.79060 0.74849
 B73 B 1.22729 0.73831 0.21788
 B74 B 1.27342 0.72436 0.22689
 B75 B 1.26587 0.76685 0.21733
 B76 B 1.22164 0.77967 0.23274
 B77 B 1.20231 0.74405 0.25259
 B78 B 1.23454 0.70941 0.24849
 B79 B 1.27274 0.76169 0.28212
 B80 B 1.22661 0.77564 0.27311
 B81 B 1.23416 0.73315 0.28267
 B82 B 1.27839 0.72034 0.26725
 B83 B 1.29772 0.75595 0.24740
 B84 B 1.26549 0.79060 0.25151
 B85 B 0.76587 1.26685 0.28267
 B86 B 0.77342 1.22436 0.27311
 B87 B 0.72729 1.23831 0.28212
 B88 B 0.72164 1.27967 0.26725
 B89 B 0.76549 1.29060 0.24849
 B90 B 0.79772 1.25595 0.25259
 B91 B 0.73416 1.23315 0.21733
 B92 B 0.72661 1.27564 0.22689
 B93 B 0.77274 1.26169 0.21788
 B94 B 0.77839 1.22034 0.23274
 B95 B 0.73454 1.20941 0.25151
 B96 B 0.70231 1.24405 0.24740
 N97 N 0.57125 1.03699 0.03489
 N98 N 0.59935 1.06033 0.04157
 N99 N 0.54332 0.96264 0.05718
 N100 N 0.55154 0.93863 0.07942
 N101 N 0.57125 0.96301 0.03489
 N102 N 0.59935 0.93967 0.04157
 N103 N 0.54332 1.03736 0.05718
 N104 N 0.55154 1.06137 0.07942
 C105 C 0.58640 1.07566 0.06916
 C106 C 0.58640 0.92434 0.06916
 N107 N 0.42878 0.96301 0.03489
 N108 N 0.40068 0.93967 0.04157
 N109 N 0.45671 1.03736 0.05718
 N110 N 0.44849 1.06137 0.07942
 N111 N 0.42878 1.03699 0.03489
 N112 N 0.40068 1.06033 0.04157
 N113 N 0.45671 0.96264 0.05718
 N114 N 0.44849 0.93863 0.07942
 Mn115 Mn 0.50002 1.00000 0.05753
 C116 C 0.41363 0.92434 0.06916
 C117 C 0.41363 1.07566 0.06916
 N118 N 0.57125 0.96301 -0.03490
 N119 N 0.59935 0.93967 -0.04157
 N120 N 0.54332 1.03736 -0.05719
 N121 N 0.55154 1.06137 -0.07943
 N122 N 0.57125 1.03699 -0.03490
 N123 N 0.59935 1.06033 -0.04157
 N124 N 0.54332 0.96264 -0.05719
 N125 N 0.55154 0.93863 -0.07943
 Mn126 Mn 0.57145 1.00000 -0.00000
 C127 C 0.58640 0.92434 -0.06917
 C128 C 0.58640 1.07566 -0.06917
 N129 N 0.42878 1.03699 -0.03490
 N130 N 0.40068 1.06033 -0.04157
 N131 N 0.45671 0.96264 -0.05719
 N132 N 0.44849 0.93863 -0.07943
 N133 N 0.42878 0.96301 -0.03490
 N134 N 0.40068 0.93967 -0.04157
 N135 N 0.45671 1.03736 -0.05719
 N136 N 0.44849 1.06137 -0.07943
 Mn137 Mn 0.42858 1.00000 -0.00000
 Mn138 Mn 0.50002 1.00000 -0.05754
 Cl139 Cl 0.50002 1.00000 -0.00000
 C140 C 0.41363 1.07566 -0.06917
 C141 C 0.41363 0.92434 -0.06917
 N142 N 1.07125 0.53699 0.53489
 N143 N 1.09935 0.56033 0.54157
 N144 N 1.04332 0.46264 0.55718
 N145 N 1.05154 0.43863 0.57942
 N146 N 1.07125 0.46301 0.53489
 N147 N 1.09935 0.43967 0.54157
 N148 N 1.04332 0.53736 0.55718
 N149 N 1.05154 0.56137 0.57942
 C150 C 1.08640 0.57566 0.56916
 C151 C 1.08640 0.42434 0.56916
 N152 N 0.92878 0.46301 0.53489
 N153 N 0.90068 0.43967 0.54157
 N154 N 0.95671 0.53736 0.55718
 N155 N 0.94849 0.56137 0.57942
 N156 N 0.92878 0.53699 0.53489
 N157 N 0.90068 0.56033 0.54157
 N158 N 0.95671 0.46264 0.55718
 N159 N 0.94849 0.43863 0.57942
 Mn160 Mn 1.00002 0.50000 0.55753
 C161 C 0.91363 0.42434 0.56916
 C162 C 0.91363 0.57566 0.56916
 N163 N 1.07125 0.46301 0.46510
 N164 N 1.09935 0.43967 0.45843
 N165 N 1.04332 0.53736 0.44281
 N166 N 1.05154 0.56137 0.42057
 N167 N 1.07125 0.53699 0.46510
 N168 N 1.09935 0.56033 0.45843
 N169 N 1.04332 0.46264 0.44281
 N170 N 1.05154 0.43863 0.42057
 Mn171 Mn 1.07145 0.50000 0.50000
 C172 C 1.08640 0.42434 0.43083
 C173 C 1.08640 0.57566 0.43083
 N174 N 0.92878 0.53699 0.46510
 N175 N 0.90068 0.56033 0.45843
 N176 N 0.95671 0.46264 0.44281
 N177 N 0.94849 0.43863 0.42057
 N178 N 0.92878 0.46301 0.46510
 N179 N 0.90068 0.43967 0.45843
 N180 N 0.95671 0.53736 0.44281
 N181 N 0.94849 0.56137 0.42057
 Mn182 Mn 0.92858 0.50000 0.50000
 Mn183 Mn 1.00002 0.50000 0.44246
 Cl184 Cl 1.00002 0.50000 0.50000
 C185 C 0.91363 0.57566 0.43083
 C186 C 0.91363 0.42434 0.43083
 N187 N 1.07143 0.53743 0.03522
 N188 N 1.09785 0.56258 0.04149
 N189 N 1.04314 0.46264 0.05723
 N190 N 1.04947 0.43757 0.07883
 N191 N 1.07143 0.46257 0.03522
 N192 N 1.09785 0.43742 0.04149
 N193 N 1.04314 0.53736 0.05723
 N194 N 1.04947 0.56243 0.07883
 C195 C 1.08352 0.57815 0.06870
 C196 C 1.08352 0.42185 0.06870
 N197 N 0.92861 0.46257 0.03522
 N198 N 0.90218 0.43742 0.04149
 N199 N 0.95689 0.53736 0.05723
 N200 N 0.95056 0.56243 0.07883
 N201 N 0.92861 0.53743 0.03522
 N202 N 0.90218 0.56258 0.04149
 N203 N 0.95689 0.46264 0.05723
 N204 N 0.95056 0.43757 0.07883
 Mn205 Mn 1.00002 0.50000 0.05744
 C206 C 0.91651 0.42185 0.06870
 C207 C 0.91651 0.57815 0.06870
 N208 N 1.07143 0.46257 -0.03522
 N209 N 1.09785 0.43742 -0.04149
 N210 N 1.04314 0.53736 -0.05723
 N211 N 1.04947 0.56243 -0.07884
 N212 N 1.07143 0.53743 -0.03522
 N213 N 1.09785 0.56258 -0.04149
 N214 N 1.04314 0.46264 -0.05723
 N215 N 1.04947 0.43757 -0.07884
 Mn216 Mn 1.07190 0.50000 -0.00000
 C217 C 1.08352 0.42185 -0.06870
 C218 C 1.08352 0.57815 -0.06870
 N219 N 0.92861 0.53743 -0.03522
 N220 N 0.90218 0.56258 -0.04149
 N221 N 0.95689 0.46264 -0.05723
 N222 N 0.95056 0.43757 -0.07884
 N223 N 0.92861 0.46257 -0.03522
 N224 N 0.90218 0.43742 -0.04149
 N225 N 0.95689 0.53736 -0.05723
 N226 N 0.95056 0.56243 -0.07884
 Mn227 Mn 0.92814 0.50000 -0.00000
 Mn228 Mn 1.00002 0.50000 -0.05744
 Cl229 Cl 1.00002 0.50000 -0.00000
 C230 C 0.91651 0.57815 -0.06870
 C231 C 0.91651 0.42185 -0.06870
 N232 N 0.57143 1.03743 0.53522
 N233 N 0.59785 1.06258 0.54149
 N234 N 0.54314 0.96264 0.55723
 N235 N 0.54947 0.93757 0.57883
 N236 N 0.57143 0.96257 0.53522
 N237 N 0.59785 0.93742 0.54149
 N238 N 0.54314 1.03736 0.55723
 N239 N 0.54947 1.06243 0.57883
 C240 C 0.58352 1.07815 0.56870
 C241 C 0.58352 0.92185 0.56870
 N242 N 0.42861 0.96257 0.53522
 N243 N 0.40218 0.93742 0.54149
 N244 N 0.45689 1.03736 0.55723
 N245 N 0.45056 1.06243 0.57883
 N246 N 0.42861 1.03743 0.53522
 N247 N 0.40218 1.06258 0.54149
 N248 N 0.45689 0.96264 0.55723
 N249 N 0.45056 0.93757 0.57883
 Mn250 Mn 0.50002 1.00000 0.55744
 C251 C 0.41651 0.92185 0.56870
 C252 C 0.41651 1.07815 0.56870
 N253 N 0.57143 0.96257 0.46478
 N254 N 0.59785 0.93742 0.45851
 N255 N 0.54314 1.03736 0.44277
 N256 N 0.54947 1.06243 0.42116
 N257 N 0.57143 1.03743 0.46478
 N258 N 0.59785 1.06258 0.45851
 N259 N 0.54314 0.96264 0.44277
 N260 N 0.54947 0.93757 0.42116
 Mn261 Mn 0.57190 1.00000 0.50000
 C262 C 0.58352 0.92185 0.43130
 C263 C 0.58352 1.07815 0.43130
 N264 N 0.42861 1.03743 0.46478
 N265 N 0.40218 1.06258 0.45851
 N266 N 0.45689 0.96264 0.44277
 N267 N 0.45056 0.93757 0.42116
 N268 N 0.42861 0.96257 0.46478
 N269 N 0.40218 0.93742 0.45851
 N270 N 0.45689 1.03736 0.44277
 N271 N 0.45056 1.06243 0.42116
 Mn272 Mn 0.42814 1.00000 0.50000
 Mn273 Mn 0.50002 1.00000 0.44256
 Cl274 Cl 0.50002 1.00000 0.50000
 C275 C 0.41651 1.07815 0.43130
 C276 C 0.41651 0.92185 0.43130
 N277 N 1.07084 1.03700 0.53479
 N278 N 1.09967 1.05868 0.54376
 N279 N 1.04226 0.96336 0.55646
 N280 N 1.05072 0.94235 0.58069
 N281 N 1.07084 0.96300 0.53479
 N282 N 1.09967 0.94132 0.54376
 N283 N 1.04226 1.03664 0.55646
 N284 N 1.05072 1.05766 0.58069
 C285 C 1.08604 1.07162 0.57220
 C286 C 1.08604 0.92838 0.57220
 N287 N 0.92919 0.96300 0.53479
 N288 N 0.90036 0.94132 0.54376
 N289 N 0.95777 1.03664 0.55646
 N290 N 0.94931 1.05766 0.58069
 N291 N 0.92919 1.03700 0.53479
 N292 N 0.90036 1.05868 0.54376
 N293 N 0.95777 0.96336 0.55646
 N294 N 0.94931 0.94235 0.58069
 Mn295 Mn 1.00002 1.00000 0.55650
 C296 C 0.91399 0.92838 0.57220
 C297 C 0.91399 1.07162 0.57220
 N298 N 1.07084 0.96300 0.46520
 N299 N 1.09967 0.94132 0.45623
 N300 N 1.04226 1.03664 0.44354
 N301 N 1.05072 1.05766 0.41930
 N302 N 1.07084 1.03700 0.46520
 N303 N 1.09967 1.05868 0.45623
 N304 N 1.04226 0.96336 0.44354
 N305 N 1.05072 0.94235 0.41930
 Mn306 Mn 1.07145 1.00000 0.50000
 C307 C 1.08604 0.92838 0.42779
 C308 C 1.08604 1.07162 0.42779
 N309 N 0.92919 1.03700 0.46520
 N310 N 0.90036 1.05868 0.45623
 N311 N 0.95777 0.96336 0.44354
 N312 N 0.94931 0.94235 0.41930
 N313 N 0.92919 0.96300 0.46520
 N314 N 0.90036 0.94132 0.45623
 N315 N 0.95777 1.03664 0.44354
 N316 N 0.94931 1.05766 0.41930
 Mn317 Mn 0.92858 1.00000 0.50000
 Mn318 Mn 1.00002 1.00000 0.44349
 Cl319 Cl 1.00002 1.00000 0.50000
 C320 C 0.91399 1.07162 0.42779
 C321 C 0.91399 0.92838 0.42779
 N322 N 0.57084 0.53700 0.03479
 N323 N 0.59967 0.55868 0.04376
 N324 N 0.54226 0.46336 0.05646
 N325 N 0.55072 0.44235 0.08069
 N326 N 0.57084 0.46300 0.03479
 N327 N 0.59967 0.44132 0.04376
 N328 N 0.54226 0.53664 0.05646
 N329 N 0.55072 0.55766 0.08069
 C330 C 0.58604 0.57162 0.07220
 C331 C 0.58604 0.42838 0.07220
 N332 N 0.42919 0.46300 0.03479
 N333 N 0.40036 0.44132 0.04376
 N334 N 0.45777 0.53664 0.05646
 N335 N 0.44931 0.55766 0.08069
 N336 N 0.42919 0.53700 0.03479
 N337 N 0.40036 0.55868 0.04376
 N338 N 0.45777 0.46336 0.05646
 N339 N 0.44931 0.44235 0.08069
 Mn340 Mn 0.50002 0.50000 0.05650
 C341 C 0.41399 0.42838 0.07220
 C342 C 0.41399 0.57162 0.07220
 N343 N 0.57084 0.46300 -0.03480
 N344 N 0.59967 0.44132 -0.04377
 N345 N 0.54226 0.53664 -0.05646
 N346 N 0.55072 0.55766 -0.08070
 N347 N 0.57084 0.53700 -0.03480
 N348 N 0.59967 0.55868 -0.04377
 N349 N 0.54226 0.46336 -0.05646
 N350 N 0.55072 0.44235 -0.08070
 Mn351 Mn 0.57145 0.50000 -0.00000
 C352 C 0.58604 0.42838 -0.07221
 C353 C 0.58604 0.57162 -0.07221
 N354 N 0.42919 0.53700 -0.03480
 N355 N 0.40036 0.55868 -0.04377
 N356 N 0.45777 0.46336 -0.05646
 N357 N 0.44931 0.44235 -0.08070
 N358 N 0.42919 0.46300 -0.03480
 N359 N 0.40036 0.44132 -0.04377
 N360 N 0.45777 0.53664 -0.05646
 N361 N 0.44931 0.55766 -0.08070
 Mn362 Mn 0.42858 0.50000 -0.00000
 Mn363 Mn 0.50002 0.50000 -0.05651
 Cl364 Cl 0.50002 0.50000 -0.00000
 C365 C 0.41399 0.57162 -0.07221
 C366 C 0.41399 0.42838 -0.07221
 C367 C 0.32573 1.17440 0.14314
 N368 N 0.28523 1.17297 0.14534
 N369 N 0.26574 1.19271 0.16701
 C370 C 0.28607 1.21492 0.18692
 N371 N 0.32637 1.21669 0.18407
 N372 N 0.34577 1.19694 0.16268
 C373 C 0.34844 1.14989 0.12246
 N374 N 0.38795 1.14480 0.12810
 N375 N 0.40875 1.12139 0.11095
 C376 C 0.39091 1.10239 0.08724
 N377 N 0.35147 1.10769 0.08128
 N378 N 0.33051 1.13087 0.09871
 C379 C 0.82573 0.67440 0.64314
 N380 N 0.84577 0.69694 0.66268
 N381 N 0.82637 0.71669 0.68407
 C382 C 0.78607 0.71492 0.68692
 N383 N 0.76574 0.69271 0.66701
 N384 N 0.78523 0.67297 0.64534
 C385 C 0.84843 0.64989 0.62246
 N386 N 0.83051 0.63087 0.59871
 N387 N 0.85147 0.60769 0.58128
 C388 C 0.89091 0.60240 0.58724
 N389 N 0.90875 0.62139 0.61095
 N390 N 0.88795 0.64480 0.62809
 C391 C 0.67430 0.82560 0.14314
 N392 N 0.71480 0.82703 0.14534
 N393 N 0.73429 0.80729 0.16701
 C394 C 0.71396 0.78509 0.18692
 N395 N 0.67366 0.78331 0.18407
 N396 N 0.65426 0.80306 0.16268
 C397 C 0.65160 0.85011 0.12246
 N398 N 0.61208 0.85520 0.12809
 N399 N 0.59128 0.87861 0.11095
 C400 C 0.60912 0.89761 0.08724
 N401 N 0.64856 0.89231 0.08128
 N402 N 0.66952 0.86913 0.09871
 C403 C 1.17430 0.32560 0.64314
 N404 N 1.21480 0.32703 0.64534
 N405 N 1.23429 0.30729 0.66701
 C406 C 1.21396 0.28509 0.68692
 N407 N 1.17366 0.28331 0.68407
 N408 N 1.15426 0.30306 0.66268
 C409 C 1.15160 0.35011 0.62246
 N410 N 1.11208 0.35520 0.62810
 N411 N 1.09128 0.37861 0.61095
 C412 C 1.10912 0.39761 0.58724
 N413 N 1.14856 0.39231 0.58128
 N414 N 1.16952 0.36913 0.59871
 C415 C 0.67430 1.17440 -0.14315
 N416 N 0.71480 1.17297 -0.14534
 N417 N 0.73429 1.19271 -0.16702
 C418 C 0.71396 1.21492 -0.18693
 N419 N 0.67366 1.21669 -0.18407
 N420 N 0.65426 1.19694 -0.16268
 C421 C 0.65160 1.14989 -0.12246
 N422 N 0.61208 1.14480 -0.12810
 N423 N 0.59128 1.12139 -0.11096
 C424 C 0.60912 1.10239 -0.08724
 N425 N 0.64856 1.10769 -0.08129
 N426 N 0.66952 1.13087 -0.09872
 C427 C 1.17430 0.67440 0.35685
 N428 N 1.21480 0.67297 0.35466
 N429 N 1.23429 0.69271 0.33298
 C430 C 1.21396 0.71492 0.31307
 N431 N 1.17366 0.71669 0.31593
 N432 N 1.15426 0.69694 0.33732
 C433 C 1.15160 0.64989 0.37754
 N434 N 1.11208 0.64480 0.37190
 N435 N 1.09128 0.62139 0.38904
 C436 C 1.10912 0.60240 0.41276
 N437 N 1.14856 0.60769 0.41871
 N438 N 1.16952 0.63087 0.40128
 C439 C 0.32573 0.82560 -0.14315
 N440 N 0.34577 0.80306 -0.16268
 N441 N 0.32637 0.78331 -0.18407
 C442 C 0.28607 0.78509 -0.18693
 N443 N 0.26574 0.80729 -0.16702
 N444 N 0.28523 0.82703 -0.14534
 C445 C 0.34844 0.85011 -0.12246
 N446 N 0.33051 0.86913 -0.09872
 N447 N 0.35147 0.89231 -0.08129
 C448 C 0.39091 0.89761 -0.08724
 N449 N 0.40875 0.87861 -0.11096
 N450 N 0.38795 0.85520 -0.12810
 C451 C 0.82573 0.32560 0.35685
 N452 N 0.78523 0.32703 0.35466
 N453 N 0.76574 0.30729 0.33298
 C454 C 0.78607 0.28509 0.31307
 N455 N 0.82637 0.28331 0.31593
 N456 N 0.84577 0.30306 0.33732
 C457 C 0.84844 0.35011 0.37754
 N458 N 0.88795 0.35520 0.37190
 N459 N 0.90875 0.37861 0.38904
 C460 C 0.89091 0.39761 0.41276
 N461 N 0.85147 0.39231 0.41871
 N462 N 0.83051 0.36913 0.40128
 C463 C 1.16099 0.31666 0.14409
 N464 N 1.19897 0.30587 0.13807
 N465 N 1.21888 0.28641 0.15970
 C466 C 1.20175 0.27691 0.18820
 N467 N 1.16333 0.28680 0.19355
 N468 N 1.14338 0.30610 0.17200
 C469 C 1.14011 0.34201 0.12258
 N470 N 1.10344 0.35428 0.13089
 N471 N 1.08542 0.37914 0.11335
 C472 C 1.10326 0.39288 0.08670
 N473 N 1.13981 0.38044 0.07809
 N474 N 1.15793 0.35554 0.09573
 C475 C 0.66099 0.81666 0.64409
 N476 N 0.69897 0.80587 0.63807
 N477 N 0.71888 0.78641 0.65970
 C478 C 0.70175 0.77691 0.68820
 N479 N 0.66333 0.78680 0.69355
 N480 N 0.64338 0.80610 0.67200
 C481 C 0.64011 0.84201 0.62258
 N482 N 0.60344 0.85428 0.63089
 N483 N 0.58542 0.87914 0.61335
 C484 C 0.60326 0.89288 0.58670
 N485 N 0.63981 0.88044 0.57809
 N486 N 0.65793 0.85554 0.59573
 C487 C 1.16099 0.68334 -0.14410
 N488 N 1.19897 0.69414 -0.13808
 N489 N 1.21888 0.71360 -0.15970
 C490 C 1.20175 0.72310 -0.18820
 N491 N 1.16333 0.71320 -0.19355
 N492 N 1.14338 0.69391 -0.17201
 C493 C 1.14011 0.65799 -0.12258
 N494 N 1.10344 0.64573 -0.13089
 N495 N 1.08542 0.62087 -0.11335
 C496 C 1.10326 0.60712 -0.08671
 N497 N 1.13981 0.61956 -0.07809
 N498 N 1.15793 0.64446 -0.09573
 C499 C 0.66099 1.18334 0.35590
 N500 N 0.69897 1.19414 0.36192
 N501 N 0.71888 1.21360 0.34030
 C502 C 0.70175 1.22310 0.31180
 N503 N 0.66333 1.21320 0.30645
 N504 N 0.64338 1.19391 0.32799
 C505 C 0.64011 1.15799 0.37742
 N506 N 0.60344 1.14573 0.36911
 N507 N 0.58542 1.12087 0.38665
 C508 C 0.60326 1.10712 0.41329
 N509 N 0.63981 1.11956 0.42191
 N510 N 0.65793 1.14446 0.40427
 C511 C 0.83904 0.68334 0.14409
 N512 N 0.85665 0.69391 0.17200
 N513 N 0.83670 0.71320 0.19355
 C514 C 0.79828 0.72310 0.18820
 N515 N 0.78115 0.71360 0.15970
 N516 N 0.80107 0.69414 0.13807
 C517 C 0.85992 0.65799 0.12258
 N518 N 0.84210 0.64446 0.09573
 N519 N 0.86022 0.61956 0.07809
 C520 C 0.89678 0.60712 0.08670
 N521 N 0.91461 0.62087 0.11335
 N522 N 0.89659 0.64573 0.13089
 C523 C 0.33904 1.18334 0.64409
 N524 N 0.35665 1.19391 0.67200
 N525 N 0.33670 1.21320 0.69355
 C526 C 0.29828 1.22310 0.68820
 N527 N 0.28115 1.21360 0.65970
 N528 N 0.30107 1.19414 0.63807
 C529 C 0.35992 1.15799 0.62258
 N530 N 0.34210 1.14446 0.59573
 N531 N 0.36022 1.11956 0.57809
 C532 C 0.39678 1.10712 0.58670
 N533 N 0.41461 1.12087 0.61335
 N534 N 0.39659 1.14573 0.63089
 C535 C 0.83904 0.31666 -0.14410
 N536 N 0.80107 0.30587 -0.13808
 N537 N 0.78115 0.28641 -0.15970
 C538 C 0.79828 0.27691 -0.18820
 N539 N 0.83670 0.28680 -0.19355
 N540 N 0.85665 0.30610 -0.17201
 C541 C 0.85992 0.34201 -0.12258
 N542 N 0.89659 0.35428 -0.13089
 N543 N 0.91461 0.37914 -0.11335
 C544 C 0.89678 0.39288 -0.08671
 N545 N 0.86022 0.38044 -0.07809
 N546 N 0.84210 0.35554 -0.09573
 C547 C 0.33904 0.81666 0.35590
 N548 N 0.35665 0.80610 0.32799
 N549 N 0.33670 0.78680 0.30645
 C550 C 0.29828 0.77691 0.31180
 N551 N 0.28115 0.78641 0.34030
 N552 N 0.30107 0.80587 0.36192
 C553 C 0.35992 0.84201 0.37742
 N554 N 0.34210 0.85554 0.40427
 N555 N 0.36022 0.88044 0.42191
 C556 C 0.39678 0.89288 0.41329
 N557 N 0.41461 0.87914 0.38665
 N558 N 0.39659 0.85428 0.36911
 C559 C 1.16832 1.15585 0.33946
 N560 N 1.18348 1.18705 0.34946
 N561 N 1.20072 1.20858 0.32841
 C562 C 1.20385 1.19957 0.29682
 N563 N 1.18829 1.16842 0.28670
 N564 N 1.17047 1.14698 0.30771
 C565 C 1.14869 1.13293 0.36245
 N566 N 1.12035 1.11012 0.35222
 N567 N 1.10060 1.09054 0.37345
 C568 C 1.10889 1.09283 0.40545
 N569 N 1.13768 1.11523 0.41576
 N570 N 1.15709 1.13526 0.39450
 C571 C 0.66832 0.65585 -0.16054
 N572 N 0.68348 0.68704 -0.15054
 N573 N 0.70072 0.70858 -0.17159
 C574 C 0.70385 0.69957 -0.20318
 N575 N 0.68829 0.66842 -0.21330
 N576 N 0.67047 0.64698 -0.19229
 C577 C 0.64869 0.63293 -0.13755
 N578 N 0.62035 0.61012 -0.14778
 N579 N 0.60060 0.59054 -0.12655
 C580 C 0.60889 0.59283 -0.09455
 N581 N 0.63768 0.61523 -0.08424
 N582 N 0.65709 0.63526 -0.10550
 C583 C 0.83171 1.15585 0.66054
 N584 N 0.82956 1.14698 0.69229
 N585 N 0.81175 1.16842 0.71330
 C586 C 0.79618 1.19957 0.70318
 N587 N 0.79931 1.20858 0.67159
 N588 N 0.81655 1.18705 0.65054
 C589 C 0.85134 1.13293 0.63754
 N590 N 0.84294 1.13526 0.60549
 N591 N 0.86235 1.11523 0.58424
 C592 C 0.89114 1.09283 0.59455
 N593 N 0.89943 1.09054 0.62654
 N594 N 0.87968 1.11012 0.64777
 C595 C 0.33171 0.65584 0.16054
 N596 N 0.32956 0.64698 0.19229
 N597 N 0.31174 0.66842 0.21330
 C598 C 0.29618 0.69957 0.20318
 N599 N 0.29931 0.70858 0.17159
 N600 N 0.31655 0.68704 0.15054
 C601 C 0.35134 0.63293 0.13754
 N602 N 0.34294 0.63526 0.10549
 N603 N 0.36235 0.61523 0.08424
 C604 C 0.39114 0.59283 0.09455
 N605 N 0.39943 0.59054 0.12654
 N606 N 0.37968 0.61012 0.14777
 C607 C 1.16832 0.84416 0.66054
 N608 N 1.18348 0.81296 0.65054
 N609 N 1.20072 0.79142 0.67159
 C610 C 1.20385 0.80043 0.70318
 N611 N 1.18829 0.83158 0.71330
 N612 N 1.17047 0.85302 0.69229
 C613 C 1.14869 0.86708 0.63754
 N614 N 1.12035 0.88988 0.64777
 N615 N 1.10060 0.90946 0.62654
 C616 C 1.10889 0.90717 0.59455
 N617 N 1.13768 0.88477 0.58424
 N618 N 1.15709 0.86475 0.60549
 C619 C 0.66832 0.34416 0.16054
 N620 N 0.68348 0.31296 0.15054
 N621 N 0.70072 0.29142 0.17159
 C622 C 0.70385 0.30043 0.20318
 N623 N 0.68829 0.33158 0.21330
 N624 N 0.67047 0.35302 0.19229
 C625 C 0.64869 0.36708 0.13754
 N626 N 0.62035 0.38988 0.14777
 N627 N 0.60060 0.40946 0.12654
 C628 C 0.60890 0.40717 0.09455
 N629 N 0.63768 0.38477 0.08424
 N630 N 0.65709 0.36475 0.10549
 C631 C 0.83171 0.84416 0.33946
 N632 N 0.81655 0.81296 0.34946
 N633 N 0.79931 0.79142 0.32841
 C634 C 0.79618 0.80043 0.29682
 N635 N 0.81175 0.83158 0.28670
 N636 N 0.82956 0.85302 0.30771
 C637 C 0.85134 0.86708 0.36245
 N638 N 0.87968 0.88988 0.35222
 N639 N 0.89943 0.90946 0.37345
 C640 C 0.89114 0.90717 0.40545
 N641 N 0.86235 0.88477 0.41576
 N642 N 0.84294 0.86475 0.39450
 C643 C 0.33171 0.34416 -0.16054
 N644 N 0.31655 0.31296 -0.15054
 N645 N 0.29931 0.29142 -0.17159
 C646 C 0.29618 0.30043 -0.20318
 N647 N 0.31175 0.33158 -0.21330
 N648 N 0.32956 0.35302 -0.19229
 C649 C 0.35134 0.36708 -0.13755
 N650 N 0.37968 0.38988 -0.14778
 N651 N 0.39943 0.40946 -0.12655
 C652 C 0.39114 0.40717 -0.09455
 N653 N 0.36235 0.38477 -0.08424
 N654 N 0.34294 0.36474 -0.10550
 C655 C 1.16099 0.31666 -0.14410
 N656 N 1.19897 0.30587 -0.13808
 N657 N 1.21888 0.28641 -0.15970
 C658 C 1.20175 0.27691 -0.18820
 N659 N 1.16333 0.28680 -0.19355
 N660 N 1.14338 0.30610 -0.17201
 C661 C 1.14011 0.34201 -0.12258
 N662 N 1.10344 0.35428 -0.13089
 N663 N 1.08542 0.37914 -0.11335
 C664 C 1.10326 0.39288 -0.08671
 N665 N 1.13981 0.38044 -0.07809
 N666 N 1.15793 0.35554 -0.09573
 C667 C 0.66099 0.81666 0.35590
 N668 N 0.64338 0.80610 0.32799
 N669 N 0.66333 0.78680 0.30644
 C670 C 0.70175 0.77691 0.31180
 N671 N 0.71888 0.78641 0.34030
 N672 N 0.69897 0.80587 0.36192
 C673 C 0.64011 0.84201 0.37742
 N674 N 0.65793 0.85554 0.40427
 N675 N 0.63981 0.88044 0.42191
 C676 C 0.60326 0.89288 0.41329
 N677 N 0.58542 0.87914 0.38665
 N678 N 0.60344 0.85428 0.36911
 C679 C 0.83904 0.68334 -0.14410
 N680 N 0.80107 0.69414 -0.13808
 N681 N 0.78115 0.71360 -0.15970
 C682 C 0.79828 0.72310 -0.18820
 N683 N 0.83670 0.71320 -0.19356
 N684 N 0.85665 0.69391 -0.17201
 C685 C 0.85992 0.65799 -0.12258
 N686 N 0.89659 0.64573 -0.13089
 N687 N 0.91461 0.62087 -0.11335
 C688 C 0.89678 0.60712 -0.08671
 N689 N 0.86022 0.61956 -0.07809
 N690 N 0.84210 0.64446 -0.09573
 C691 C 0.33904 1.18334 0.35590
 N692 N 0.35665 1.19391 0.32799
 N693 N 0.33670 1.21320 0.30645
 C694 C 0.29828 1.22310 0.31180
 N695 N 0.28115 1.21360 0.34030
 N696 N 0.30107 1.19414 0.36192
 C697 C 0.35992 1.15799 0.37742
 N698 N 0.34210 1.14446 0.40427
 N699 N 0.36022 1.11956 0.42191
 C700 C 0.39678 1.10712 0.41329
 N701 N 0.41461 1.12087 0.38665
 N702 N 0.39659 1.14573 0.36911
 C703 C 1.16099 0.68334 0.14409
 N704 N 1.19897 0.69414 0.13807
 N705 N 1.21888 0.71360 0.15970
 C706 C 1.20175 0.72310 0.18820
 N707 N 1.16333 0.71320 0.19355
 N708 N 1.14338 0.69391 0.17200
 C709 C 1.14011 0.65799 0.12258
 N710 N 1.10344 0.64573 0.13089
 N711 N 1.08542 0.62087 0.11335
 C712 C 1.10326 0.60712 0.08670
 N713 N 1.13981 0.61956 0.07809
 N714 N 1.15793 0.64446 0.09573
 C715 C 0.66099 1.18334 0.64409
 N716 N 0.69897 1.19414 0.63807
 N717 N 0.71888 1.21360 0.65970
 C718 C 0.70175 1.22310 0.68820
 N719 N 0.66333 1.21320 0.69355
 N720 N 0.64338 1.19391 0.67200
 C721 C 0.64011 1.15799 0.62258
 N722 N 0.60344 1.14573 0.63089
 N723 N 0.58542 1.12087 0.61335
 C724 C 0.60326 1.10712 0.58670
 N725 N 0.63981 1.11956 0.57809
 N726 N 0.65793 1.14446 0.59573
 C727 C 0.83904 0.31666 0.14409
 N728 N 0.80107 0.30587 0.13807
 N729 N 0.78115 0.28641 0.15970
 C730 C 0.79828 0.27691 0.18820
 N731 N 0.83670 0.28680 0.19355
 N732 N 0.85665 0.30610 0.17200
 C733 C 0.85992 0.34201 0.12258
 N734 N 0.89659 0.35428 0.13089
 N735 N 0.91461 0.37914 0.11335
 C736 C 0.89678 0.39288 0.08670
 N737 N 0.86022 0.38044 0.07809
 N738 N 0.84210 0.35554 0.09573
 C739 C 0.33904 0.81666 0.64409
 N740 N 0.30107 0.80587 0.63807
 N741 N 0.28115 0.78640 0.65970
 C742 C 0.29828 0.77691 0.68820
 N743 N 0.33670 0.78680 0.69355
 N744 N 0.35665 0.80610 0.67200
 C745 C 0.35992 0.84201 0.62258
 N746 N 0.39659 0.85428 0.63089
 N747 N 0.41461 0.87914 0.61335
 C748 C 0.39678 0.89288 0.58670
 N749 N 0.36022 0.88044 0.57809
 N750 N 0.34210 0.85554 0.59573
 C751 C 0.32573 1.17440 -0.14315
 N752 N 0.28523 1.17297 -0.14534
 N753 N 0.26574 1.19271 -0.16702
 C754 C 0.28607 1.21492 -0.18693
 N755 N 0.32637 1.21669 -0.18407
 N756 N 0.34577 1.19694 -0.16268
 C757 C 0.34844 1.14989 -0.12246
 N758 N 0.38795 1.14480 -0.12810
 N759 N 0.40875 1.12139 -0.11096
 C760 C 0.39091 1.10239 -0.08724
 N761 N 0.35147 1.10769 -0.08129
 N762 N 0.33051 1.13087 -0.09872
 C763 C 0.82573 0.67440 0.35685
 N764 N 0.78523 0.67297 0.35466
 N765 N 0.76574 0.69271 0.33298
 C766 C 0.78607 0.71492 0.31307
 N767 N 0.82637 0.71669 0.31593
 N768 N 0.84577 0.69694 0.33732
 C769 C 0.84843 0.64989 0.37754
 N770 N 0.88795 0.64480 0.37190
 N771 N 0.90875 0.62139 0.38904
 C772 C 0.89091 0.60240 0.41276
 N773 N 0.85147 0.60769 0.41871
 N774 N 0.83051 0.63087 0.40128
 C775 C 0.67430 1.17440 0.14314
 N776 N 0.65426 1.19694 0.16268
 N777 N 0.67366 1.21669 0.18407
 C778 C 0.71396 1.21492 0.18692
 N779 N 0.73429 1.19271 0.16701
 N780 N 0.71480 1.17297 0.14534
 C781 C 0.65160 1.14989 0.12246
 N782 N 0.66952 1.13087 0.09871
 N783 N 0.64856 1.10769 0.08128
 C784 C 0.60912 1.10239 0.08724
 N785 N 0.59128 1.12139 0.11095
 N786 N 0.61208 1.14480 0.12810
 C787 C 1.17430 0.67440 0.64314
 N788 N 1.21480 0.67297 0.64534
 N789 N 1.23429 0.69271 0.66701
 C790 C 1.21396 0.71492 0.68692
 N791 N 1.17366 0.71669 0.68407
 N792 N 1.15426 0.69694 0.66268
 C793 C 1.15160 0.64989 0.62246
 N794 N 1.11208 0.64480 0.62809
 N795 N 1.09128 0.62139 0.61095
 C796 C 1.10912 0.60240 0.58724
 N797 N 1.14856 0.60769 0.58128
 N798 N 1.16952 0.63087 0.59871
 C799 C 0.67430 0.82560 -0.14315
 N800 N 0.71480 0.82703 -0.14534
 N801 N 0.73429 0.80729 -0.16702
 C802 C 0.71396 0.78509 -0.18693
 N803 N 0.67366 0.78331 -0.18407
 N804 N 0.65426 0.80306 -0.16268
 C805 C 0.65160 0.85011 -0.12246
 N806 N 0.61208 0.85520 -0.12810
 N807 N 0.59128 0.87861 -0.11096
 C808 C 0.60912 0.89761 -0.08724
 N809 N 0.64856 0.89231 -0.08129
 N810 N 0.66952 0.86913 -0.09872
 C811 C 1.17430 0.32560 0.35685
 N812 N 1.15426 0.30306 0.33732
 N813 N 1.17366 0.28331 0.31593
 C814 C 1.21396 0.28509 0.31307
 N815 N 1.23429 0.30729 0.33298
 N816 N 1.21480 0.32703 0.35466
 C817 C 1.15160 0.35011 0.37754
 N818 N 1.16952 0.36913 0.40128
 N819 N 1.14856 0.39231 0.41871
 C820 C 1.10912 0.39761 0.41276
 N821 N 1.09128 0.37861 0.38904
 N822 N 1.11208 0.35520 0.37190
 C823 C 0.32573 0.82560 0.14314
 N824 N 0.28523 0.82703 0.14534
 N825 N 0.26574 0.80729 0.16701
 C826 C 0.28607 0.78509 0.18692
 N827 N 0.32637 0.78331 0.18407
 N828 N 0.34577 0.80306 0.16268
 C829 C 0.34844 0.85011 0.12246
 N830 N 0.38795 0.85520 0.12809
 N831 N 0.40875 0.87861 0.11095
 C832 C 0.39091 0.89761 0.08724
 N833 N 0.35147 0.89231 0.08128
 N834 N 0.33051 0.86913 0.09871
 C835 C 0.82573 0.32560 0.64314
 N836 N 0.78523 0.32703 0.64534
 N837 N 0.76574 0.30729 0.66701
 C838 C 0.78607 0.28509 0.68692
 N839 N 0.82637 0.28331 0.68407
 N840 N 0.84577 0.30306 0.66268
 C841 C 0.84844 0.35011 0.62246
 N842 N 0.88795 0.35520 0.62810
 N843 N 0.90875 0.37861 0.61095
 C844 C 0.89091 0.39761 0.58724
 N845 N 0.85147 0.39231 0.58128
 N846 N 0.83051 0.36913 0.59871
 C847 C 1.16832 1.15585 0.66054
 N848 N 1.17047 1.14698 0.69229
 N849 N 1.18829 1.16842 0.71330
 C850 C 1.20385 1.19957 0.70318
 N851 N 1.20072 1.20858 0.67159
 N852 N 1.18348 1.18705 0.65054
 C853 C 1.14869 1.13293 0.63754
 N854 N 1.15709 1.13526 0.60549
 N855 N 1.13768 1.11523 0.58424
 C856 C 1.10889 1.09283 0.59455
 N857 N 1.10060 1.09054 0.62654
 N858 N 1.12035 1.11012 0.64777
 C859 C 0.66832 0.65585 0.16054
 N860 N 0.67047 0.64698 0.19229
 N861 N 0.68829 0.66842 0.21330
 C862 C 0.70385 0.69957 0.20318
 N863 N 0.70072 0.70858 0.17159
 N864 N 0.68348 0.68704 0.15054
 C865 C 0.64869 0.63293 0.13754
 N866 N 0.65709 0.63526 0.10549
 N867 N 0.63768 0.61523 0.08424
 C868 C 0.60889 0.59283 0.09455
 N869 N 0.60060 0.59054 0.12654
 N870 N 0.62035 0.61012 0.14777
 C871 C 1.16832 0.84416 0.33946
 N872 N 1.17047 0.85302 0.30771
 N873 N 1.18829 0.83158 0.28670
 C874 C 1.20385 0.80043 0.29682
 N875 N 1.20072 0.79142 0.32841
 N876 N 1.18348 0.81296 0.34946
 C877 C 1.14869 0.86708 0.36245
 N878 N 1.15709 0.86475 0.39450
 N879 N 1.13768 0.88477 0.41576
 C880 C 1.10889 0.90717 0.40545
 N881 N 1.10060 0.90946 0.37345
 N882 N 1.12035 0.88988 0.35222
 C883 C 0.66832 0.34416 -0.16054
 N884 N 0.67047 0.35302 -0.19229
 N885 N 0.68829 0.33158 -0.21330
 C886 C 0.70385 0.30043 -0.20318
 N887 N 0.70072 0.29142 -0.17159
 N888 N 0.68348 0.31296 -0.15054
 C889 C 0.64869 0.36708 -0.13755
 N890 N 0.65709 0.36475 -0.10550
 N891 N 0.63768 0.38477 -0.08424
 C892 C 0.60890 0.40717 -0.09455
 N893 N 0.60060 0.40946 -0.12655
 N894 N 0.62035 0.38988 -0.14778
 C895 C 0.83171 1.15585 0.33946
 N896 N 0.82956 1.14698 0.30771
 N897 N 0.81175 1.16842 0.28670
 C898 C 0.79618 1.19957 0.29682
 N899 N 0.79931 1.20858 0.32841
 N900 N 0.81655 1.18705 0.34946
 C901 C 0.85134 1.13293 0.36245
 N902 N 0.84294 1.13526 0.39450
 N903 N 0.86235 1.11523 0.41576
 C904 C 0.89114 1.09283 0.40545
 N905 N 0.89943 1.09054 0.37345
 N906 N 0.87968 1.11012 0.35222
 C907 C 0.33171 0.65584 -0.16054
 N908 N 0.31655 0.68704 -0.15054
 N909 N 0.29931 0.70858 -0.17159
 C910 C 0.29618 0.69957 -0.20318
 N911 N 0.31175 0.66842 -0.21330
 N912 N 0.32956 0.64698 -0.19229
 C913 C 0.35134 0.63293 -0.13755
 N914 N 0.37968 0.61012 -0.14778
 N915 N 0.39943 0.59054 -0.12655
 C916 C 0.39114 0.59283 -0.09455
 N917 N 0.36235 0.61523 -0.08424
 N918 N 0.34294 0.63526 -0.10550
 C919 C 0.83171 0.84416 0.66054
 N920 N 0.81655 0.81296 0.65054
 N921 N 0.79931 0.79142 0.67159
 C922 C 0.79618 0.80043 0.70318
 N923 N 0.81175 0.83158 0.71330
 N924 N 0.82956 0.85302 0.69229
 C925 C 0.85134 0.86708 0.63754
 N926 N 0.87968 0.88988 0.64777
 N927 N 0.89943 0.90946 0.62654
 C928 C 0.89114 0.90717 0.59455
 N929 N 0.86235 0.88477 0.58424
 N930 N 0.84294 0.86475 0.60549
 C931 C 0.33171 0.34416 0.16054
 N932 N 0.31655 0.31296 0.15054
 N933 N 0.29931 0.29142 0.17159
 C934 C 0.29618 0.30043 0.20318
 N935 N 0.31175 0.33158 0.21330
 N936 N 0.32956 0.35302 0.19229
 C937 C 0.35134 0.36708 0.13754
 N938 N 0.37968 0.38988 0.14777
 N939 N 0.39943 0.40946 0.12654
 C940 C 0.39114 0.40717 0.09455
 N941 N 0.36235 0.38477 0.08424
 N942 N 0.34294 0.36474 0.10549
   
