data_POSCAR
  _audit_creation_date              2014-09-24
  _audit_creation_method            'ToBaCCo'
  _symmetry_space_group_name_H-M    'P1'
  _symmetry_Int_Tables_number       1
  _symmetry_cell_setting            triclinic
  loop_
  _symmetry_equiv_pos_as_xyz
 x,y,z
_cell_length_a 34.4759
_cell_length_b 33.5447
_cell_length_c 29.7096
_cell_angle_alpha 90.160300
_cell_angle_beta 89.623900
_cell_angle_gamma 119.813400
loop_
  _atom_site_label
  _atom_site_type_symbol
  _atom_site_fract_x
  _atom_site_fract_y
  _atom_site_fract_z
O1 O -0.00403 0.54944 -0.06406
 O2 O 0.05775 0.50692 0.00285
 O3 O 0.00002 0.47340 -0.06265
 O4 O 0.05382 0.58143 0.00189
 O5 O 0.00035 0.54943 0.05326
 O6 O -0.05741 0.44541 -0.01578
 O7 O 0.00036 0.47320 0.04968
 O8 O -0.05789 0.52180 -0.01295
 Cu9 Cu 0.03224 0.53077 -0.03580
 Cu10 Cu -0.03435 0.49454 0.02336
 C11 C -0.04166 0.54269 -0.04984
 C12 C 0.03980 0.48347 0.03817
 C13 C -0.03848 0.44136 -0.05089
 C14 C 0.03743 0.58265 0.03992
 O15 O 0.54765 0.48766 -0.00789
 O16 O 0.44409 0.45301 0.05686
 O17 O 0.46726 0.41611 -0.00725
 O18 O 0.52433 0.52457 0.05749
 O19 O 0.50011 0.55711 0.00924
 O20 O 0.45314 0.45314 -0.06006
 O21 O 0.42277 0.48504 0.00504
 O22 O 0.52983 0.52706 -0.05451
 Cu23 Cu 0.49801 0.46695 0.02987
 Cu24 Cu 0.47399 0.50856 -0.03027
 C25 C 0.55663 0.51373 -0.04196
 C26 C 0.41586 0.46346 0.04196
 C27 C 0.45203 0.41687 -0.04586
 C28 C 0.52074 0.55885 0.04502
 O29 O 0.56088 1.00424 0.05584
 O30 O 0.50546 1.05700 -0.00692
 O31 O 0.48268 0.99674 0.05928
 O32 O 0.58325 1.06352 -0.00996
 O33 O 0.56216 1.00406 -0.05512
 O34 O 0.45504 0.94341 0.00642
 O35 O 0.48774 1.00432 -0.05976
 O36 O 0.53092 0.94497 0.00951
 Cu37 Cu 0.53533 1.03608 0.02963
 Cu38 Cu 0.50598 0.96839 -0.02971
 C39 C 0.55410 0.96481 0.04403
 C40 C 0.48963 1.04091 -0.04547
 C41 C 0.45183 0.95857 0.04466
 C42 C 0.59032 1.04505 -0.04409
 O43 O 1.04719 0.58301 0.48210
 O44 O 0.99435 0.47668 0.55005
 O45 O 1.05161 0.50806 0.48385
 O46 O 0.98979 0.55238 0.54866
 O47 O 0.93508 0.52167 0.49927
 O48 O 0.99453 0.47255 0.43772
 O49 O 0.93760 0.44557 0.50296
 O50 O 0.99324 0.54873 0.43219
 Cu51 Cu 1.02618 0.53332 0.52120
 Cu52 Cu 0.95943 0.49426 0.46323
 C53 C 1.02975 0.58314 0.44464
 C54 C 0.95703 0.44299 0.53804
 C55 C 1.03352 0.48230 0.44996
 C56 C 0.95184 0.54461 0.53501
 O57 O 0.41570 0.48650 0.49909
 O58 O 0.52026 0.52911 0.56257
 O59 O 0.49283 0.55961 0.49707
 O60 O 0.44293 0.45556 0.56691
 O61 O 0.46346 0.42076 0.51673
 O62 O 0.51813 0.52701 0.44951
 O63 O 0.54231 0.49338 0.51526
 O64 O 0.43912 0.45364 0.44980
 Cu65 Cu 0.46522 0.51073 0.53636
 Cu66 Cu 0.49288 0.47016 0.47788
 C67 C 0.41017 0.46405 0.46291
 C68 C 0.54903 0.51819 0.54995
 C69 C 0.51429 0.56125 0.46161
 C70 C 0.44547 0.42079 0.55414
 O71 O 0.47373 -0.00802 0.43638
 O72 O 0.57333 0.05991 0.50543
 O73 O 0.55266 0.00016 0.44239
 O74 O 0.49667 0.05341 0.50252
 O75 O 0.47117 -0.00168 0.55374
 O76 O 0.52209 -0.05830 0.48960
 O77 O 0.54886 0.00276 0.55420
 O78 O 0.44521 -0.06197 0.48870
 Cu79 Cu 0.52604 0.03175 0.46629
 Cu80 Cu 0.49414 -0.03543 0.52664
 C81 C 0.44282 -0.04660 0.45047
 C82 C 0.57828 0.04278 0.54146
 C83 C 0.54638 -0.03868 0.45529
 C84 C 0.47622 0.03616 0.53927
 C85 C 0.11009 0.47365 0.27469
 C86 C 0.11146 0.47578 0.22857
 C87 C 0.13483 0.45422 0.21434
 N88 N 0.14780 0.43909 0.25015
 C89 C 0.13273 0.45095 0.28704
 C90 C 0.14217 0.44672 0.16902
 C91 C 0.17422 0.43409 0.15674
 C92 C 0.17700 0.41679 0.11517
 C93 C 0.21566 0.41419 0.11537
 C94 C 0.23535 0.43007 0.15705
 N95 N 0.20968 0.44175 0.18211
 C96 C 0.27841 0.43871 0.16922
 C97 C 0.29340 0.44737 0.21413
 C98 C 0.33759 0.46846 0.22768
 C99 C 0.33700 0.46789 0.27401
 C100 C 0.29246 0.44635 0.28694
 N101 N 0.26592 0.43403 0.25034
 C102 C 0.27624 0.43629 0.33155
 C103 C 0.23228 0.42559 0.34297
 C104 C 0.21101 0.40667 0.38354
 C105 C 0.17151 0.40758 0.38354
 C106 C 0.16997 0.42726 0.34308
 N107 N 0.20693 0.43773 0.31845
 C108 C 0.13758 0.43952 0.33153
 H109 H 0.09469 0.48775 0.29656
 H110 H 0.09731 0.49189 0.20804
 H111 H 0.21729 0.45797 0.28957
 H112 H 0.15415 0.40803 0.08726
 H113 H 0.22851 0.40324 0.08752
 H114 H 0.36708 0.48296 0.20639
 H115 H 0.36594 0.48190 0.29568
 H116 H 0.14732 0.39622 0.41075
 H117 H 0.21905 0.45999 0.21220
 H118 H 0.22326 0.39464 0.41076
 C119 C 0.53443 0.64778 0.22925
 C120 C 0.53385 0.64796 0.27555
 C121 C 0.56202 0.69300 0.28859
 N122 N 0.57958 0.72026 0.25220
 C123 C 0.56293 0.69271 0.21596
 C124 C 0.57310 0.70877 0.33311
 C125 C 0.59072 0.75550 0.34422
 C126 C 0.61020 0.77536 0.38495
 C127 C 0.61605 0.81908 0.38481
 C128 C 0.59962 0.82442 0.34412
 N129 N 0.58495 0.78579 0.31936
 C130 C 0.59266 0.86130 0.33290
 C131 C 0.58588 0.86973 0.28783
 C132 C 0.56831 0.89695 0.27407
 C133 C 0.56909 0.89701 0.22784
 C134 C 0.58692 0.86968 0.21494
 N135 N 0.59717 0.85310 0.25162
 C136 C 0.59472 0.86106 0.17016
 C137 C 0.60131 0.82378 0.15918
 C138 C 0.61792 0.81802 0.11850
 C139 C 0.61211 0.77429 0.11878
 C140 C 0.59233 0.75475 0.15969
 N141 N 0.58636 0.78530 0.18424
 C142 C 0.57503 0.70812 0.17138
 H143 H 0.51589 0.61816 0.20781
 H144 H 0.51480 0.61851 0.29714
 H145 H 0.56697 0.77782 0.21332
 H146 H 0.61784 0.75940 0.41250
 H147 H 0.62928 0.84346 0.41224
 H148 H 0.55536 0.91419 0.29495
 H149 H 0.55695 0.91436 0.20631
 H150 H 0.62005 0.75816 0.09140
 H151 H 0.56562 0.77795 0.29044
 H152 H 0.63134 0.84217 0.09086
 C153 C 0.33877 0.91738 0.22471
 C154 C 0.33716 0.91636 0.27094
 C155 C 0.30418 0.87250 0.28306
 N156 N 0.28530 0.84692 0.24596
 C157 C 0.30678 0.87407 0.21028
 C158 C 0.29632 0.85413 0.32703
 C159 C 0.25630 0.81339 0.33818
 C160 C 0.24993 0.78571 0.37528
 C161 C 0.20618 0.75056 0.37406
 C162 C 0.18701 0.75784 0.33634
 N163 N 0.21781 0.79616 0.31470
 C164 C 0.14203 0.73036 0.32269
 C165 C 0.12949 0.73148 0.27775
 C166 C 0.08599 0.71301 0.26242
 C167 C 0.08819 0.71267 0.21626
 C168 C 0.13295 0.73135 0.20510
 N169 N 0.15815 0.74328 0.24262
 C170 C 0.14966 0.73012 0.16204
 C171 C 0.19533 0.75899 0.15120
 C172 C 0.21799 0.75284 0.11549
 C173 C 0.26106 0.78916 0.11640
 C174 C 0.26361 0.81628 0.15281
 N175 N 0.22344 0.79772 0.17378
 C176 C 0.30192 0.85754 0.16575
 H177 H 0.36185 0.94613 0.20411
 H178 H 0.35877 0.94416 0.29314
 H179 H 0.21483 0.81261 0.20003
 H180 H 0.27434 0.78977 0.40023
 H181 H 0.19072 0.72245 0.39780
 H182 H 0.05570 0.69944 0.28242
 H183 H 0.06005 0.69868 0.19352
 H184 H 0.28765 0.79423 0.09348
 H185 H 0.21190 0.81178 0.28733
 H186 H 0.20538 0.72478 0.09168
 C187 C 0.88203 0.54894 0.76511
 C188 C 0.88089 0.54944 0.71891
 C189 C 0.85237 0.56576 0.70743
 N190 N 0.83597 0.57504 0.74499
 C191 C 0.85410 0.56487 0.78027
 C192 C 0.84341 0.57426 0.66318
 C193 C 0.80641 0.58010 0.65349
 C194 C 0.80087 0.59883 0.61414
 C195 C 0.75855 0.59323 0.61576
 C196 C 0.73947 0.57138 0.65611
 N197 N 0.76897 0.56379 0.67904
 C198 C 0.69476 0.55587 0.66941
 C199 C 0.68032 0.54419 0.71442
 C200 C 0.63619 0.52087 0.72892
 C201 C 0.63723 0.51972 0.77513
 C202 C 0.68193 0.54267 0.78709
 N203 N 0.70814 0.55744 0.74999
 C204 C 0.69830 0.55289 0.83140
 C205 C 0.74351 0.56862 0.84174
 C206 C 0.76369 0.58830 0.88228
 C207 C 0.80612 0.59419 0.88052
 C208 C 0.81046 0.57750 0.83911
 N209 N 0.77228 0.56241 0.81554
 C210 C 0.84686 0.57178 0.82580
 H211 H 0.90082 0.53757 0.78512
 H212 H 0.89864 0.53850 0.69646
 H213 H 0.76418 0.54320 0.78603
 H214 H 0.82458 0.61428 0.58676
 H215 H 0.74338 0.60356 0.58989
 H216 H 0.60642 0.50633 0.70841
 H217 H 0.60848 0.50436 0.79742
 H218 H 0.83058 0.60814 0.90717
 H219 H 0.76193 0.54341 0.70763
 H220 H 0.74905 0.59669 0.91051
 C221 C 0.41808 0.07851 0.72432
 C222 C 0.42015 0.07934 0.77047
 C223 C 0.42920 0.12274 0.78381
 N224 N 0.43155 0.14800 0.74746
 C225 C 0.42475 0.12105 0.71102
 C226 C 0.44043 0.14051 0.82799
 C227 C 0.44297 0.18244 0.84042
 C228 C 0.46643 0.20931 0.87687
 C229 C 0.45895 0.24602 0.87799
 C230 C 0.43036 0.24005 0.84270
 N231 N 0.42120 0.20139 0.81976
 C232 C 0.41182 0.26845 0.83268
 C233 C 0.39449 0.26716 0.78938
 C234 C 0.36729 0.28505 0.77763
 C235 C 0.36660 0.28576 0.73142
 C236 C 0.39246 0.26726 0.71673
 N237 N 0.40916 0.25562 0.75206
 C238 C 0.40661 0.26805 0.67209
 C239 C 0.42164 0.23772 0.65768
 C240 C 0.44411 0.24113 0.61771
 C241 C 0.44975 0.20346 0.61551
 C242 C 0.43208 0.17875 0.65497
 N243 N 0.41449 0.19958 0.68017
 C244 C 0.43034 0.13691 0.66616
 H245 H 0.41332 0.05015 0.70320
 H246 H 0.41687 0.05161 0.79165
 H247 H 0.39520 0.18626 0.70922
 H248 H 0.48734 0.20347 0.89984
 H249 H 0.47352 0.27404 0.90183
 H250 H 0.35119 0.29804 0.79992
 H251 H 0.35018 0.29953 0.71090
 H252 H 0.46553 0.19595 0.58782
 H253 H 0.39799 0.18635 0.79394
 H254 H 0.45563 0.26778 0.59245
 C255 C 0.66426 0.12780 0.77236
 C256 C 0.66265 0.12762 0.72608
 C257 C 0.70645 0.14719 0.71105
 N258 N 0.73465 0.15936 0.74618
 C259 C 0.70897 0.14722 0.78362
 C260 C 0.72045 0.15175 0.66586
 C261 C 0.76456 0.18399 0.65272
 C262 C 0.78378 0.18521 0.61124
 C263 C 0.82445 0.22532 0.61004
 C264 C 0.82867 0.24752 0.65071
 N265 N 0.79229 0.22180 0.67663
 C266 C 0.86240 0.29273 0.66134
 C267 C 0.86910 0.30917 0.70598
 C268 C 0.89030 0.35498 0.71865
 C269 C 0.89078 0.35556 0.76485
 C270 C 0.87035 0.31013 0.77868
 N271 N 0.85689 0.28184 0.74267
 C272 C 0.86549 0.29483 0.82362
 C273 C 0.83384 0.24931 0.83562
 C274 C 0.83269 0.22812 0.87601
 C275 C 0.79281 0.18714 0.87704
 C276 C 0.77082 0.18472 0.83731
 N277 N 0.79636 0.22239 0.81209
 C278 C 0.72607 0.15187 0.82739
 H279 H 0.63592 0.11514 0.79512
 H280 H 0.63282 0.11476 0.70580
 H281 H 0.78580 0.23253 0.78380
 H282 H 0.76940 0.16048 0.58421
 H283 H 0.84756 0.23742 0.58188
 H284 H 0.90317 0.38481 0.69698
 H285 H 0.90415 0.38594 0.78579
 H286 H 0.78062 0.16285 0.90463
 H287 H 0.78390 0.23261 0.70616
 H288 H 0.85725 0.24158 0.90259
 C289 C 0.04531 0.44229 0.10524
 C290 C 0.06597 0.47102 0.06826
 C291 C 0.11309 0.49393 0.06581
 C292 C 0.13799 0.48561 0.09810
 C293 C 0.11629 0.45395 0.13330
 C294 C 0.06982 0.43371 0.13666
 C295 C 0.03527 0.38428 0.14073
 C296 C 0.00833 0.39348 0.10620
 H297 H 0.13076 0.51866 0.03934
 H298 H 0.17413 0.50391 0.09565
 H299 H 0.01945 0.37586 0.17468
 H300 H 0.04730 0.36100 0.12829
 H301 H -0.02313 0.39014 0.12022
 H302 H 0.00463 0.37551 0.07364
 C303 C 0.57579 0.61384 0.10129
 C304 C 0.53965 0.60104 0.07237
 C305 C 0.52121 0.63035 0.07056
 C306 C 0.53419 0.66649 0.10172
 C307 C 0.56615 0.67433 0.13504
 C308 C 0.58896 0.64961 0.13148
 C309 C 0.60521 0.62765 0.16444
 C310 C 0.58995 0.58788 0.13120
 H311 H 0.49448 0.62339 0.04734
 H312 H 0.51729 0.68642 0.10157
 H313 H 0.58615 0.61717 0.19652
 H314 H 0.64212 0.64755 0.16833
 H315 H 0.56122 0.55530 0.14381
 H316 H 0.61806 0.58477 0.11653
 C317 C 0.36951 0.91146 0.05899
 C318 C 0.41350 0.93014 0.07389
 C319 C 0.42051 0.91874 0.11748
 C320 C 0.38419 0.89350 0.14677
 C321 C 0.34021 0.88055 0.13358
 C322 C 0.33378 0.88784 0.08844
 C323 C 0.30804 0.90835 0.06875
 C324 C 0.34716 0.93436 0.03648
 H325 H 0.45413 0.93019 0.12920
 H326 H 0.39069 0.88577 0.18031
 H327 H 0.30332 0.93103 0.09285
 H328 H 0.27714 0.88216 0.05175
 H329 H 0.36514 0.97219 0.04177
 H330 H 0.33869 0.92324 0.00090
 C331 C 0.88079 0.54419 0.55446
 C332 C 0.92651 0.56145 0.56153
 C333 C 0.94651 0.59291 0.59726
 C334 C 0.91994 0.60053 0.62859
 C335 C 0.87287 0.57595 0.62535
 C336 C 0.85469 0.55096 0.58579
 C337 C 0.81565 0.50412 0.57897
 C338 C 0.84419 0.49653 0.54454
 H339 H 0.98216 0.60908 0.60289
 H340 H 0.93587 0.62256 0.65727
 H341 H 0.78683 0.50526 0.56379
 H342 H 0.80762 0.48204 0.60935
 H343 H 0.83168 0.49305 0.50955
 H344 H 0.85269 0.47009 0.55497
 C345 C 0.41177 0.33670 0.56807
 C346 C 0.43100 0.38155 0.58463
 C347 C 0.44414 0.38920 0.63002
 C348 C 0.43573 0.35229 0.65839
 C349 C 0.41287 0.30663 0.64240
 C350 C 0.40204 0.30009 0.59661
 C351 C 0.35835 0.26959 0.57472
 C352 C 0.36873 0.30952 0.54346
 H353 H 0.46189 0.42384 0.64329
 H354 H 0.44729 0.35950 0.69284
 H355 H 0.32943 0.26048 0.59755
 H356 H 0.35808 0.24010 0.55727
 H357 H 0.34573 0.32354 0.54797
 H358 H 0.37420 0.30290 0.50794
 C359 C 0.63550 0.05028 0.59796
 C360 C 0.61847 0.07036 0.56876
 C361 C 0.64145 0.11884 0.56645
 C362 C 0.67568 0.14535 0.59726
 C363 C 0.68783 0.12393 0.63070
 C364 C 0.66938 0.07620 0.62782
 C365 C 0.65207 0.03810 0.66157
 C366 C 0.61437 0.00982 0.62866
 H367 H 0.63104 0.13630 0.54298
 H368 H 0.69088 0.18242 0.59657
 H369 H 0.63980 0.04551 0.69330
 H370 H 0.67527 0.02442 0.66609
 H371 H 0.58098 0.00252 0.64113
 H372 H 0.61579 -0.02021 0.61472
 C373 C 0.49498 0.07884 0.88171
 C374 C 0.47612 0.06623 0.92437
 C375 C 0.44432 0.07947 0.93621
 C376 C 0.43234 0.10361 0.90493
 C377 C 0.45261 0.11579 0.86160
 C378 C 0.48448 0.10282 0.85230
 C379 C 0.51873 0.10704 0.81872
 C380 C 0.53057 0.07986 0.85232
 H381 H 0.42841 0.07070 0.96903
 H382 H 0.40731 0.11261 0.91452
 H383 H 0.54583 0.14321 0.81421
 H384 H 0.50385 0.08796 0.78707
 H385 H 0.56442 0.10046 0.86715
 H386 H 0.52208 0.04507 0.84024
 C387 C 0.61780 0.56832 0.90638
 C388 C 0.59816 0.52810 0.93225
 C389 C 0.61866 0.50067 0.93085
 C390 C 0.65284 0.50991 0.89916
 C391 C 0.66718 0.54685 0.86872
 C392 C 0.65170 0.57778 0.87588
 C393 C 0.63690 0.60263 0.84498
 C394 C 0.59912 0.59159 0.87840
 H395 H 0.60601 0.47014 0.95154
 H396 H 0.66592 0.48657 0.89645
 H397 H 0.62472 0.58558 0.81197
 H398 H 0.66168 0.63993 0.84308
 H399 H 0.56552 0.56726 0.86475
 H400 H 0.60199 0.62259 0.89521
 C401 C 0.95964 0.39299 0.88650
 C402 C 0.93902 0.40207 0.92246
 C403 C 0.89275 0.37043 0.92848
 C404 C 0.86907 0.33450 0.89717
 C405 C 0.89109 0.32826 0.85966
 C406 C 0.93718 0.35774 0.85717
 C407 C 0.97758 0.37125 0.82857
 C408 C 1.00283 0.41125 0.86172
 H409 H 0.87415 0.37479 0.95572
 H410 H 0.83328 0.31284 0.90131
 H411 H 0.97508 0.38302 0.79439
 H412 H 0.98859 0.34525 0.82952
 H413 H 1.01375 0.44554 0.84664
 H414 H 1.02855 0.40848 0.88167
 C415 C 0.55213 0.89322 0.43837
 C416 C 0.56560 0.93958 0.43102
 C417 C 0.59748 0.96254 0.39646
 C418 C 0.60988 0.93791 0.36673
 C419 C 0.58948 0.88968 0.36992
 C420 C 0.56334 0.86892 0.40823
 C421 C 0.51898 0.82638 0.41264
 C422 C 0.50639 0.85286 0.44561
 H423 H 0.61095 0.99895 0.39067
 H424 H 0.63244 0.95599 0.33908
 H425 H 0.52162 0.79792 0.42865
 H426 H 0.49948 0.81722 0.38090
 H427 H 0.50151 0.83946 0.48058
 H428 H 0.47946 0.85897 0.43302
 C429 C 0.35305 0.41432 0.40540
 C430 C 0.37049 0.45163 0.43509
 C431 C 0.35011 0.47919 0.43535
 C432 C 0.31854 0.47331 0.40224
 C433 C 0.30648 0.43957 0.36847
 C434 C 0.32157 0.40804 0.37343
 C435 C 0.33828 0.38538 0.34147
 C436 C 0.37338 0.39297 0.37665
 H437 H 0.36101 0.50751 0.45877
 H438 H 0.30550 0.49676 0.40147
 H439 H 0.35318 0.40502 0.31008
 H440 H 0.31339 0.34850 0.33636
 H441 H 0.40802 0.41800 0.36571
 H442 H 0.36883 0.36045 0.39129
 C443 C 0.05190 0.61530 0.36773
 C444 C 0.05274 0.62264 0.41406
 C445 C 0.07779 0.66822 0.42977
 C446 C 0.10469 0.70433 0.39976
 C447 C 0.10830 0.69509 0.35393
 C448 C 0.07943 0.65036 0.33872
 C449 C 0.08867 0.61932 0.31020
 C450 C 0.05847 0.58068 0.34207
 H451 H 0.07802 0.67562 0.46530
 H452 H 0.12471 0.73879 0.41288
 H453 H 0.12427 0.62803 0.31145
 H454 H 0.07462 0.61516 0.27582
 H455 H 0.07650 0.56684 0.36178
 H456 H 0.02708 0.55426 0.32600
 C457 C 0.88607 0.53791 0.93016
 C458 C 0.93214 0.55763 0.92308
 C459 C 0.95142 0.58963 0.88759
 C460 C 0.92410 0.59680 0.85723
 C461 C 0.87705 0.57130 0.86126
 C462 C 0.85932 0.54433 0.89990
 C463 C 0.82193 0.49616 0.90482
 C464 C 0.85125 0.48889 0.93800
 H465 H 0.98718 0.60714 0.88183
 H466 H 0.93953 0.61992 0.82906
 H467 H 0.81549 0.47589 0.87331
 H468 H 0.79192 0.49456 0.92075
 H469 H 0.86180 0.46432 0.92580
 H470 H 0.83799 0.48289 0.97303
 C471 C 0.43262 0.38309 0.87968
 C472 C 0.43500 0.37821 0.92617
 C473 C 0.42155 0.33363 0.94259
 C474 C 0.41020 0.29668 0.91256
 C475 C 0.41514 0.30414 0.86553
 C476 C 0.42433 0.34757 0.85047
 C477 C 0.45727 0.37894 0.81640
 C478 C 0.46654 0.41811 0.84831
 H479 H 0.42073 0.32746 0.97844
 H480 H 0.40027 0.26306 0.92627
 H481 H 0.44102 0.38019 0.78467
 H482 H 0.48616 0.37314 0.81207
 H483 H 0.45559 0.44181 0.83490
 H484 H 0.50096 0.43531 0.86231
 C485 C 0.64164 0.05028 0.89582
 C486 C 0.62880 0.07047 0.92974
 C487 C 0.65571 0.11868 0.93473
 C488 C 0.68853 0.14508 0.90214
 C489 C 0.69602 0.12384 0.86455
 C490 C 0.67442 0.07581 0.86483
 C491 C 0.65539 0.03798 0.83077
 C492 C 0.61852 0.01006 0.86514
 H493 H 0.64907 0.13659 0.96141
 H494 H 0.70608 0.18218 0.90487
 H495 H 0.67780 0.02358 0.82434
 H496 H 0.64225 0.04569 0.80010
 H497 H 0.61948 -0.02056 0.87784
 H498 H 0.58507 0.00390 0.85463
 C499 C 0.10189 0.47961 0.43464
 C500 C 0.05678 0.46473 0.42587
 C501 C 0.03625 0.43221 0.39098
 C502 C 0.06186 0.42057 0.36241
 C503 C 0.10860 0.44188 0.36752
 C504 C 0.12714 0.46867 0.40598
 C505 C 0.16772 0.51480 0.41075
 C506 C 0.14020 0.52706 0.44209
 H507 H 0.00097 0.41770 0.38399
 H508 H 0.04578 0.39790 0.33417
 H509 H 0.17737 0.53468 0.37877
 H510 H 0.19524 0.51293 0.42811
 H511 H 0.13393 0.55413 0.42829
 H512 H 0.15204 0.53251 0.47747
 C513 C 0.57132 0.61566 0.40624
 C514 C 0.53415 0.60325 0.43405
 C515 C 0.51561 0.63247 0.43418
 C516 C 0.52966 0.66812 0.40230
 C517 C 0.56272 0.67539 0.37003
 C518 C 0.58555 0.65095 0.37540
 C519 C 0.60266 0.62845 0.34372
 C520 C 0.58627 0.58917 0.37765
 H521 H 0.48807 0.62576 0.45652
 H522 H 0.51281 0.68806 0.40103
 H523 H 0.63968 0.64819 0.34049
 H524 H 0.58456 0.61760 0.31134
 H525 H 0.61386 0.58617 0.39340
 H526 H 0.55788 0.55647 0.36505
 C527 C 0.36083 0.90678 0.43502
 C528 C 0.40518 0.92480 0.42090
 C529 C 0.41310 0.91242 0.37797
 C530 C 0.37744 0.88716 0.34835
 C531 C 0.33327 0.87514 0.36050
 C532 C 0.32576 0.88312 0.40521
 C533 C 0.30002 0.90443 0.42362
 C534 C 0.33839 0.93045 0.45628
 H535 H 0.44694 0.92331 0.36693
 H536 H 0.38470 0.87908 0.31513
 H537 H 0.26853 0.87875 0.44044
 H538 H 0.29630 0.92703 0.39880
 H539 H 0.32891 0.91984 0.49190
 H540 H 0.35691 0.96821 0.45049
 C541 C 0.55538 0.89368 0.06545
 C542 C 0.57211 0.94088 0.07097
 C543 C 0.60471 0.96351 0.10447
 C544 C 0.61517 0.93808 0.13500
 C545 C 0.59256 0.88960 0.13299
 C546 C 0.56518 0.86875 0.09579
 C547 C 0.51926 0.82814 0.09351
 C548 C 0.50830 0.85545 0.06026
 H549 H 0.62004 1.00033 0.10885
 H550 H 0.63826 0.95592 0.16211
 H551 H 0.50073 0.82134 0.12594
 H552 H 0.51916 0.79785 0.07811
 H553 H 0.48336 0.86449 0.07339
 H554 H 0.50169 0.84075 0.02574
 C555 C 0.35574 0.41435 0.09770
 C556 C 0.37540 0.45204 0.06849
 C557 C 0.35638 0.48083 0.06742
 C558 C 0.32380 0.47561 0.09950
 C559 C 0.30932 0.44125 0.13292
 C560 C 0.32329 0.40871 0.12860
 C561 C 0.33754 0.38464 0.16119
 C562 C 0.37374 0.39152 0.12717
 H563 H 0.36911 0.50956 0.04428
 H564 H 0.31188 0.50000 0.09983
 H565 H 0.31163 0.34797 0.16561
 H566 H 0.35153 0.40367 0.19296
 H567 H 0.36877 0.35880 0.11252
 H568 H 0.40813 0.41557 0.13917
 C569 C 0.09304 0.66513 0.05481
 C570 C 0.06381 0.62086 0.07077
 C571 C 0.06624 0.61167 0.11657
 C572 C 0.09458 0.64696 0.14592
 C573 C 0.12022 0.69266 0.13052
 C574 C 0.11990 0.70032 0.08422
 C575 C 0.11255 0.73478 0.06003
 C576 C 0.08300 0.69639 0.02782
 H577 H 0.04664 0.57705 0.12960
 H578 H 0.09594 0.63858 0.18084
 H579 H 0.14375 0.76197 0.04401
 H580 H 0.09391 0.74745 0.08071
 H581 H 0.09709 0.70164 -0.00682
 H582 H 0.04716 0.68680 0.02969
 C583 C 0.49188 0.10775 0.57794
 C584 C 0.46128 0.06236 0.56672
 C585 C 0.41754 0.04290 0.58434
 C586 C 0.40645 0.06780 0.61531
 C587 C 0.43945 0.11161 0.63031
 C588 C 0.48144 0.13130 0.60955
 C589 C 0.52698 0.15387 0.62955
 C590 C 0.53869 0.12804 0.59484
 H591 H 0.39257 0.00819 0.57535
 H592 H 0.37298 0.05197 0.62931
 H593 H 0.52692 0.14262 0.66475
 H594 H 0.54515 0.19166 0.62418
 H595 H 0.54567 0.10194 0.60988
 H596 H 0.56370 0.15101 0.56956
 C597 C 0.61962 0.51724 0.56737
 C598 C 0.59050 0.53420 0.57606
 C599 C 0.60163 0.56602 0.61163
 C600 C 0.63727 0.57530 0.64075
 C601 C 0.66225 0.55275 0.63500
 C602 C 0.65459 0.52631 0.59613
 C603 C 0.64839 0.47931 0.59072
 C604 C 0.60991 0.46918 0.55927
 H605 H 0.58132 0.58168 0.61859
 H606 H 0.64353 0.59781 0.66930
 H607 H 0.63756 0.45905 0.62246
 H608 H 0.67731 0.47989 0.57334
 H609 H 0.57672 0.44301 0.57276
 H610 H 0.61663 0.46371 0.52381
 C611 C 0.89153 0.36617 0.55684
 C612 C 0.93584 0.40019 0.56473
 C613 C 0.95900 0.39191 0.59912
 C614 C 0.93607 0.35419 0.62850
 C615 C 0.88947 0.32465 0.62446
 C616 C 0.86893 0.32955 0.58611
 C617 C 0.82604 0.32978 0.58133
 C618 C 0.85077 0.37013 0.54935
 H619 H 0.99401 0.41592 0.60506
 H620 H 0.95393 0.35035 0.65647
 H621 H 0.81524 0.33899 0.61317
 H622 H 0.80000 0.29823 0.56445
 H623 H 0.85440 0.40266 0.56288
 H624 H 0.83873 0.36200 0.51410
   
