data_POSCAR
  _audit_creation_date              2014-09-24
  _audit_creation_method            'ToBaCCo'
  _symmetry_space_group_name_H-M    'P1'
  _symmetry_Int_Tables_number       1
  _symmetry_cell_setting            triclinic
  loop_
  _symmetry_equiv_pos_as_xyz
 x,y,z
_cell_length_a 26.9633
_cell_length_b 27.0809
_cell_length_c 48.6052
_cell_angle_alpha 90.016500
_cell_angle_beta 93.445500
_cell_angle_gamma 89.979900
loop_
  _atom_site_label
  _atom_site_type_symbol
  _atom_site_fract_x
  _atom_site_fract_y
  _atom_site_fract_z
C1 C -0.00072 0.63046 0.99998
 C2 C 0.00420 0.60475 1.02490
 C3 C 0.00541 0.55302 1.02491
 C4 C -0.00077 0.52617 0.99997
 C5 C -0.00692 0.55302 0.97504
 C6 C -0.00566 0.60475 0.97506
 C7 C -0.00079 0.47070 0.99997
 C8 C 0.01198 0.44381 0.97644
 C9 C 0.01077 0.39212 0.97630
 C10 C -0.00080 0.36647 0.99996
 C11 C -0.01236 0.39215 1.02362
 C12 C -0.01356 0.44384 1.02349
 H13 H -0.00069 0.67057 0.99999
 H14 H 0.01149 0.53422 1.04446
 H15 H -0.01301 0.53422 0.95549
 H16 H 0.02320 0.46244 0.95815
 H17 H -0.00080 0.32640 0.99996
 H18 H -0.02477 0.46249 1.04178
 C19 C 0.36940 0.00972 0.50133
 C20 C 0.39864 0.00064 0.52547
 C21 C 0.45049 -0.00017 0.52491
 C22 C 0.47390 0.01023 0.50029
 C23 C 0.44354 0.02039 0.47622
 C24 C 0.39168 0.01904 0.47668
 C25 C 0.52946 0.01021 0.49971
 C26 C 0.55285 -0.00007 0.47507
 C27 C 0.60473 0.00072 0.47449
 C28 C 0.63399 0.00964 0.49867
 C29 C 0.61169 0.01882 0.52337
 C30 C 0.55980 0.02022 0.52381
 H31 H 0.32921 0.00939 0.50172
 H32 H 0.47204 -0.00935 0.54370
 H33 H 0.45967 0.02958 0.45703
 H34 H 0.53115 -0.00914 0.45630
 H35 H 0.67424 0.00929 0.49828
 H36 H 0.54352 0.02933 0.54298
 C37 C 0.07340 0.01232 0.26315
 H38 H 0.07669 0.01168 0.24108
 C39 C 0.11570 0.01917 0.28086
 H40 H 0.15176 0.02349 0.27247
 C41 C 0.02252 0.00764 0.30121
 H42 H -0.01379 0.00388 0.30915
 C43 C 0.06371 0.01447 0.31956
 H44 H 0.05895 0.01520 0.34154
 N45 N 0.02809 0.00574 0.27357
 C46 C -0.06173 -0.07735 0.21178
 H47 H -0.09534 -0.05544 0.21114
 C48 C -0.05858 -0.11828 0.19452
 H49 H -0.08981 -0.12793 0.18048
 C50 C 0.02062 -0.09074 0.23024
 H51 H 0.05139 -0.07997 0.24418
 C52 C 0.02534 -0.13198 0.21328
 H53 H 0.05990 -0.15248 0.21401
 Zn54 Zn -0.02829 -0.00439 0.24895
 N55 N -0.02200 -0.06361 0.22863
 C56 C -0.03203 0.04266 0.19687
 N57 N -0.03309 0.05025 0.22451
 C58 C -0.03522 0.09671 0.23512
 C59 C -0.03742 0.13776 0.21761
 C60 C -0.03420 0.08255 0.17870
 C61 C -0.08903 -0.05015 0.28581
 C62 C -0.12825 -0.05473 0.30312
 C63 C -0.16217 0.02185 0.28469
 C64 C -0.12227 0.02502 0.26769
 N65 N -0.08600 -0.01004 0.26913
 H66 H -0.02885 0.00577 0.18878
 H67 H -0.03498 0.10181 0.25721
 H68 H -0.03905 0.17462 0.22617
 H69 H -0.03318 0.07608 0.15674
 H70 H -0.05992 -0.07770 0.28633
 H71 H -0.12934 -0.08582 0.31709
 H72 H -0.18998 0.05078 0.28417
 H73 H -0.11977 0.05608 0.25393
 C74 C -0.01438 -0.14535 0.19497
 C75 C 0.11073 0.01987 0.30934
 C76 C -0.16468 -0.01797 0.30287
 C77 C -0.03697 0.13048 0.18913
 C78 C 0.03461 0.09640 0.76486
 H79 H 0.03458 0.10146 0.74278
 C80 C 0.03665 0.13748 0.78236
 H81 H 0.03837 0.17432 0.77380
 C82 C 0.03106 0.04242 0.80311
 H83 H 0.02781 0.00555 0.81120
 C84 C 0.03306 0.08234 0.82126
 H85 H 0.03185 0.07591 0.84322
 N86 N 0.03239 0.04996 0.77548
 C87 C 0.08903 -0.05054 0.71439
 H88 H 0.05994 -0.07808 0.71378
 C89 C 0.12845 -0.05514 0.69722
 H90 H 0.12972 -0.08625 0.68326
 C91 C 0.12205 0.02465 0.73260
 H92 H 0.11939 0.05573 0.74635
 C93 C 0.16215 0.02146 0.71575
 H94 H 0.18994 0.05038 0.71635
 Zn95 Zn 0.02787 -0.00473 0.75105
 N96 N 0.08581 -0.01041 0.73106
 C97 C -0.02244 0.00720 0.69865
 N98 N -0.02830 0.00534 0.72626
 C99 C -0.07373 0.01191 0.73653
 C100 C -0.11587 0.01871 0.71870
 C101 C -0.06346 0.01399 0.68017
 C102 C 0.06105 -0.07759 0.78832
 C103 C 0.05779 -0.11849 0.80559
 C104 C -0.02596 -0.13227 0.78660
 C105 C -0.02114 -0.09106 0.76965
 N106 N 0.02144 -0.06391 0.77136
 H107 H 0.01398 0.00346 0.69083
 H108 H -0.07725 0.01129 0.75858
 H109 H -0.15204 0.02302 0.72697
 H110 H -0.05847 0.01471 0.65822
 H111 H 0.09463 -0.05566 0.78905
 H112 H 0.08892 -0.12810 0.81971
 H113 H -0.06049 -0.15279 0.78579
 H114 H -0.05180 -0.08033 0.75562
 C115 C 0.16488 -0.01839 0.69758
 C116 C 0.03594 0.13026 0.81083
 C117 C 0.01362 -0.14558 0.80503
 C118 C -0.11061 0.01938 0.69024
 C119 C 0.00244 -0.30795 0.13836
 C120 C -0.03713 -0.31301 0.11401
 C121 C 0.00463 -0.31270 0.09384
 C122 C 0.04428 -0.30823 0.11776
 C123 C -0.00088 -0.25151 0.13560
 C124 C 0.04087 -0.25121 0.11542
 C125 C -0.04044 -0.25609 0.11164
 C126 C 0.00131 -0.25624 0.09118
 C127 C 0.00632 -0.34490 0.06970
 C128 C 0.00614 -0.36947 0.04902
 C129 C -0.00489 -0.21566 0.15793
 C130 C -0.00893 -0.18446 0.17534
 H131 H 0.00284 -0.32878 0.15804
 H132 H -0.06917 -0.33880 0.11317
 H133 H 0.07914 -0.33006 0.12000
 H134 H 0.07290 -0.22541 0.11625
 H135 H -0.07532 -0.23430 0.10934
 H136 H 0.00088 -0.23528 0.07154
 C137 C 0.00846 0.24755 0.11405
 C138 C -0.02777 0.24968 0.08821
 C139 C -0.03116 0.30597 0.09158
 C140 C 0.00516 0.30431 0.11716
 C141 C -0.03613 0.24202 0.13205
 C142 C -0.03955 0.29829 0.13554
 C143 C -0.07244 0.24370 0.10646
 C144 C -0.07585 0.30058 0.10952
 C145 C -0.02672 0.33944 0.06818
 C146 C -0.02122 0.36470 0.04819
 C147 C -0.03764 0.20443 0.15365
 C148 C -0.03780 0.17163 0.17039
 H149 H 0.04313 0.22538 0.11612
 H150 H -0.02290 0.22998 0.06851
 H151 H 0.03710 0.32964 0.12131
 H152 H -0.04441 0.31783 0.15527
 H153 H -0.10436 0.21836 0.10229
 H154 H -0.11047 0.32280 0.10738
 C155 C 0.27189 0.02712 0.61950
 C156 C 0.32880 0.01877 0.62124
 C157 C 0.32291 -0.01466 0.59570
 C158 C 0.26645 -0.00624 0.59369
 C159 C 0.26587 -0.01861 0.63770
 C160 C 0.26001 -0.05201 0.61215
 C161 C 0.32232 -0.02706 0.63983
 C162 C 0.31697 -0.06047 0.61385
 C163 C 0.35254 -0.01106 0.57150
 C164 C 0.37474 -0.00657 0.55085
 C165 C 0.23211 -0.01967 0.66020
 C166 C 0.20242 -0.01956 0.67777
 H167 H 0.25303 0.06314 0.62204
 H168 H 0.35746 0.04790 0.62470
 H169 H 0.24374 0.00235 0.57447
 H170 H 0.23135 -0.08113 0.60866
 H171 H 0.34489 -0.03563 0.65909
 H172 H 0.33587 -0.09644 0.61125
 C173 C -0.28199 0.04164 0.63503
 C174 C -0.28089 0.07443 0.60886
 C175 C -0.29520 0.02918 0.59105
 C176 C -0.29697 -0.00359 0.61677
 C177 C -0.22705 0.02874 0.63212
 C178 C -0.24147 -0.01642 0.61425
 C179 C -0.22532 0.06149 0.60639
 C180 C -0.24022 0.01632 0.58826
 C181 C -0.33129 0.02763 0.56731
 C182 C -0.35902 0.02443 0.54699
 C183 C -0.18739 0.02699 0.65406
 C184 C -0.15316 0.02418 0.67110
 H185 H -0.29868 0.05203 0.65454
 H186 H -0.29754 0.11178 0.60637
 H187 H -0.32686 -0.03036 0.62078
 H188 H -0.22488 -0.05380 0.61667
 H189 H -0.19542 0.08824 0.60235
 H190 H -0.22338 0.00589 0.56879
 C191 C 0.00531 -0.23634 0.89484
 C192 C -0.04048 -0.26830 0.90056
 C193 C -0.00591 -0.31274 0.90613
 C194 C 0.03984 -0.28118 0.90071
 C195 C -0.00020 -0.25165 0.86437
 C196 C 0.03440 -0.29608 0.86993
 C197 C -0.04602 -0.28316 0.86972
 C198 C -0.01144 -0.32824 0.87569
 C199 C -0.00768 -0.34493 0.93027
 C200 C -0.00755 -0.36948 0.95095
 C201 C 0.00392 -0.21583 0.84205
 C202 C 0.00805 -0.18467 0.82464
 H203 H 0.01228 -0.19820 0.90251
 H204 H -0.07130 -0.25723 0.91340
 H205 H 0.07513 -0.28067 0.91371
 H206 H 0.06524 -0.30710 0.85708
 H207 H -0.08127 -0.28356 0.85670
 H208 H -0.01839 -0.36643 0.86811
 C209 C 0.07279 0.24554 0.89267
 C210 C 0.07311 0.30249 0.88936
 C211 C 0.02970 0.30587 0.90836
 C212 C 0.02940 0.24951 0.91198
 C213 C 0.03482 0.24187 0.86789
 C214 C -0.00850 0.24540 0.88694
 C215 C 0.03513 0.29821 0.86415
 C216 C -0.00829 0.30222 0.88358
 C217 C 0.02520 0.33936 0.93174
 C218 C 0.01966 0.36465 0.95173
 C219 C 0.03641 0.20425 0.84630
 C220 C 0.03666 0.17143 0.82956
 H221 H 0.10616 0.22181 0.89618
 H222 H 0.10661 0.32638 0.89063
 H223 H 0.02702 0.22979 0.93188
 H224 H -0.04205 0.22157 0.88574
 H225 H 0.03750 0.31778 0.84421
 H226 H -0.04167 0.32592 0.88009
 C227 C -0.25971 -0.05245 0.38829
 C228 C -0.26481 -0.00713 0.40729
 C229 C -0.32147 -0.01410 0.40535
 C230 C -0.31687 -0.05944 0.38667
 C231 C -0.26495 -0.01809 0.36313
 C232 C -0.32160 -0.02508 0.36108
 C233 C -0.26964 0.02717 0.38186
 C234 C -0.32674 0.02029 0.38020
 C235 C -0.35080 -0.01047 0.42967
 C236 C -0.37273 -0.00597 0.45042
 C237 C -0.23146 -0.01919 0.34050
 C238 C -0.20199 -0.01910 0.32282
 H239 H -0.23177 -0.08237 0.39137
 H240 H -0.24172 0.00027 0.42653
 H241 H -0.33665 -0.09502 0.38894
 H242 H -0.34455 -0.03247 0.34179
 H243 H -0.24990 0.06279 0.37966
 H244 H -0.35466 0.05022 0.37715
 C245 C 0.28380 0.03350 0.36342
 C246 C 0.28781 0.07208 0.38710
 C247 C 0.29635 0.02982 0.40794
 C248 C 0.29300 -0.00871 0.38469
 C249 C 0.22775 0.02934 0.36709
 C250 C 0.23643 -0.01281 0.38797
 C251 C 0.23109 0.06786 0.39034
 C252 C 0.24026 0.02567 0.41149
 C253 C 0.33270 0.02830 0.43156
 C254 C 0.36067 0.02514 0.45177
 C255 C 0.18786 0.02755 0.34528
 C256 C 0.15346 0.02471 0.32834
 H257 H 0.30122 0.03670 0.34338
 H258 H 0.30939 0.10697 0.38702
 H259 H 0.31888 -0.04020 0.38261
 H260 H 0.21492 -0.04775 0.38813
 H261 H 0.20519 0.09933 0.39243
 H262 H 0.22269 0.02244 0.43150
   
