data_POSCAR
  _audit_creation_date              2014-09-24
  _audit_creation_method            'ToBaCCo'
  _symmetry_space_group_name_H-M    'P1'
  _symmetry_Int_Tables_number       1
  _symmetry_cell_setting            triclinic
  loop_
  _symmetry_equiv_pos_as_xyz
 x,y,z
_cell_length_a 41.9333
_cell_length_b 39.1324
_cell_length_c 42.2070
_cell_angle_alpha 87.326300
_cell_angle_beta 89.586800
_cell_angle_gamma 91.612000
loop_
  _atom_site_label
  _atom_site_type_symbol
  _atom_site_fract_x
  _atom_site_fract_y
  _atom_site_fract_z
N1 N 0.13882 0.22146 0.23214
 N2 N 0.14414 0.19374 0.24987
 C3 C 0.12338 0.19168 0.27439
 C4 C 0.10371 0.21930 0.27164
 C5 C 0.11418 0.23782 0.24458
 H6 H 0.12211 0.17118 0.29250
 H7 H 0.10463 0.26131 0.23464
 Cu8 Cu 0.17625 0.16182 0.23838
 Cu9 Cu 0.16410 0.23383 0.19418
 Cu10 Cu 0.22808 0.18252 0.17895
 N11 N 0.21477 0.13659 0.23271
 N12 N 0.23516 0.14461 0.20957
 C13 C 0.25909 0.12230 0.21088
 C14 C 0.25317 0.09917 0.23625
 C15 C 0.22492 0.10901 0.24949
 H16 H 0.27883 0.12249 0.19425
 H17 H 0.21249 0.09665 0.26964
 N18 N 0.21668 0.22211 0.15100
 N19 N 0.19258 0.24188 0.15704
 C20 C 0.19095 0.26655 0.13380
 C21 C 0.21491 0.26191 0.11198
 C22 C 0.23085 0.23354 0.12362
 H23 H 0.17338 0.28626 0.13251
 H24 H 0.25130 0.22214 0.11304
 H25 H 0.17920 0.18563 0.18392
 H26 H 0.20434 0.21029 0.21180
 N27 N 0.64529 0.73020 0.72868
 N28 N 0.65552 0.70782 0.75016
 C29 C 0.63446 0.70484 0.77442
 C30 C 0.60968 0.72644 0.76766
 C31 C 0.61733 0.74223 0.73845
 H32 H 0.63685 0.68808 0.79533
 H33 H 0.60381 0.76117 0.72532
 Cu34 Cu 0.69508 0.68457 0.74406
 Cu35 Cu 0.66911 0.74216 0.68989
 Cu36 Cu 0.73445 0.69305 0.67406
 N37 N 0.72718 0.65274 0.73254
 N38 N 0.74326 0.65631 0.70567
 C39 C 0.76398 0.63063 0.70429
 C40 C 0.76023 0.60989 0.73170
 C41 C 0.73664 0.62459 0.74890
 H42 H 0.77985 0.62682 0.68453
 H43 H 0.72695 0.61532 0.77162
 N44 N 0.72092 0.73159 0.64555
 N45 N 0.69620 0.75034 0.65200
 C46 C 0.69325 0.77488 0.62891
 C47 C 0.71695 0.77136 0.60669
 C48 C 0.73420 0.74366 0.61788
 H49 H 0.67519 0.79408 0.62821
 H50 H 0.75506 0.73341 0.60700
 H51 H 0.68727 0.69339 0.68741
 H52 H 0.71437 0.72692 0.70368
 N53 N 0.36243 0.77380 0.70760
 N54 N 0.35634 0.79540 0.72964
 C55 C 0.37974 0.79442 0.75127
 C56 C 0.40170 0.77090 0.74231
 C57 C 0.39001 0.75834 0.71448
 H58 H 0.38113 0.81034 0.77147
 H59 H 0.40109 0.73979 0.70005
 Cu60 Cu 0.31954 0.82433 0.72745
 Cu61 Cu 0.33471 0.76849 0.67122
 Cu62 Cu 0.26937 0.82079 0.66567
 N63 N 0.28373 0.85444 0.72293
 N64 N 0.26361 0.85243 0.69932
 C65 C 0.24155 0.87654 0.70190
 C66 C 0.24865 0.89489 0.72839
 C67 C 0.27550 0.88020 0.74108
 H68 H 0.22271 0.88119 0.68502
 H69 H 0.28838 0.88820 0.76170
 N70 N 0.27923 0.78720 0.63395
 N71 N 0.30386 0.76697 0.63622
 C72 C 0.30406 0.74698 0.61107
 C73 C 0.27838 0.75523 0.59205
 C74 C 0.26329 0.78083 0.60717
 H75 H 0.32178 0.72820 0.60670
 H76 H 0.24214 0.79373 0.59918
 H77 H 0.31845 0.81801 0.67026
 H78 H 0.29353 0.78440 0.69241
 N79 N 0.85793 0.25647 0.21982
 N80 N 0.85227 0.28187 0.23815
 C81 C 0.87658 0.28541 0.25849
 C82 C 0.89873 0.26084 0.25234
 C83 C 0.88611 0.24299 0.22766
 H84 H 0.87810 0.30480 0.27589
 H85 H 0.89655 0.22167 0.21634
 Cu86 Cu 0.81414 0.30844 0.23310
 Cu87 Cu 0.82766 0.24218 0.18812
 Cu88 Cu 0.77352 0.30376 0.16479
 N89 N 0.78459 0.34324 0.21957
 N90 N 0.76867 0.34144 0.19295
 C91 C 0.75007 0.36886 0.18954
 C92 C 0.75489 0.38891 0.21536
 C93 C 0.77700 0.37198 0.23383
 H94 H 0.73452 0.37392 0.16965
 H95 H 0.78679 0.37999 0.25602
 N96 N 0.78196 0.26326 0.14012
 N97 N 0.80195 0.23949 0.14962
 C98 C 0.80255 0.21515 0.12818
 C99 C 0.78210 0.22402 0.10395
 C100 C 0.76932 0.25464 0.11222
 H101 H 0.81732 0.19293 0.12969
 H102 H 0.75218 0.26954 0.09898
 H103 H 0.81970 0.29300 0.17834
 H104 H 0.78631 0.26829 0.19887
 N105 N 0.85311 0.72029 0.29153
 N106 N 0.84480 0.69924 0.26946
 C107 C 0.86922 0.69697 0.24884
 C108 C 0.89418 0.71781 0.25858
 C109 C 0.88314 0.73212 0.28574
 H110 H 0.86885 0.68110 0.22856
 H111 H 0.89601 0.74997 0.30010
 Cu112 Cu 0.80320 0.67615 0.27005
 Cu113 Cu 0.82420 0.73112 0.32579
 Cu114 Cu 0.75054 0.68828 0.32829
 N115 N 0.76727 0.64451 0.27854
 N116 N 0.74655 0.64952 0.30124
 C117 C 0.72347 0.62492 0.30115
 C118 C 0.73023 0.60316 0.27730
 C119 C 0.75826 0.61635 0.26336
 H120 H 0.70313 0.62312 0.31711
 H121 H 0.77087 0.60670 0.24337
 N122 N 0.76363 0.72169 0.35950
 N123 N 0.79141 0.73848 0.35834
 C124 C 0.79305 0.75931 0.38287
 C125 C 0.76510 0.75502 0.40038
 C126 C 0.74713 0.73090 0.38506
 H127 H 0.81337 0.77562 0.38815
 H128 H 0.72382 0.72064 0.39221
 H129 H 0.79920 0.68451 0.32661
 H130 H 0.78254 0.72106 0.30282
 N131 N 0.36724 0.22436 -0.22246
 N132 N 0.35737 0.19891 -0.23950
 C133 C 0.37593 0.19784 -0.26557
 C134 C 0.39905 0.22362 -0.26462
 C135 C 0.39279 0.24010 -0.23688
 H136 H 0.37340 0.17908 -0.28348
 H137 H 0.40578 0.26166 -0.22764
 Cu138 Cu 0.32290 0.16770 -0.22501
 Cu139 Cu 0.34673 0.23399 -0.18227
 Cu140 Cu 0.27405 0.19157 -0.16720
 N141 N 0.28203 0.14443 -0.21642
 N142 N 0.26270 0.15441 -0.19426
 C143 C 0.23643 0.13383 -0.19297
 C144 C 0.23952 0.10957 -0.21539
 C145 C 0.26876 0.11708 -0.23000
 H146 H 0.21682 0.13578 -0.17643
 H147 H 0.27968 0.10367 -0.24889
 N148 N 0.28985 0.22957 -0.14224
 N149 N 0.31742 0.24596 -0.14781
 C150 C 0.32147 0.26992 -0.12608
 C151 C 0.29549 0.26792 -0.10564
 C152 C 0.27590 0.24222 -0.11670
 H153 H 0.34209 0.28699 -0.12470
 H154 H 0.25318 0.23328 -0.10675
 H155 H 0.32263 0.18792 -0.17075
 H156 H 0.30395 0.21813 -0.20011
 N157 N 0.64667 0.26774 -0.23459
 N158 N 0.65141 0.29518 -0.25336
 C159 C 0.62612 0.29873 -0.27271
 C160 C 0.60439 0.27206 -0.26524
 C161 C 0.61825 0.25303 -0.24098
 H162 H 0.62357 0.31946 -0.29029
 H163 H 0.60846 0.23003 -0.22892
 Cu164 Cu 0.68997 0.32384 -0.24991
 Cu165 Cu 0.67802 0.25219 -0.20410
 Cu166 Cu 0.73325 0.31420 -0.18293
 N167 N 0.72210 0.35782 -0.23824
 N168 N 0.73868 0.35400 -0.21204
 C169 C 0.75919 0.38085 -0.20994
 C170 C 0.75519 0.40277 -0.23620
 C171 C 0.73137 0.38745 -0.25358
 H172 H 0.77572 0.38411 -0.19071
 H173 H 0.72167 0.39711 -0.27581
 N174 N 0.72439 0.27168 -0.15710
 N175 N 0.70419 0.24757 -0.16597
 C176 C 0.70345 0.22160 -0.14393
 C177 C 0.72402 0.22978 -0.11994
 C178 C 0.73704 0.26168 -0.12902
 H179 H 0.68838 0.19878 -0.14481
 H180 H 0.75434 0.27651 -0.11620
 H181 H 0.68647 0.30269 -0.19493
 H182 H 0.71905 0.28193 -0.21670
 N183 N 0.13546 0.77228 0.27324
 N184 N 0.14504 0.79573 0.25166
 C185 C 0.12569 0.79444 0.22639
 C186 C 0.10255 0.76912 0.23259
 C187 C 0.10948 0.75550 0.26259
 H188 H 0.12755 0.81137 0.20543
 H189 H 0.09646 0.73536 0.27599
 Cu190 Cu 0.18001 0.82763 0.26022
 Cu191 Cu 0.15628 0.76701 0.31433
 Cu192 Cu 0.23129 0.80697 0.31790
 N193 N 0.21678 0.85710 0.26871
 N194 N 0.23696 0.84880 0.29130
 C195 C 0.26043 0.87299 0.29190
 C196 C 0.25438 0.89797 0.26848
 C197 C 0.22653 0.88703 0.25430
 H198 H 0.28006 0.87239 0.30836
 H199 H 0.21432 0.90000 0.23493
 N200 N 0.21557 0.77178 0.34960
 N201 N 0.18712 0.75658 0.34827
 C202 C 0.18373 0.73367 0.37299
 C203 C 0.21107 0.73500 0.39098
 C204 C 0.23079 0.75941 0.37548
 H205 H 0.16293 0.71717 0.37759
 H206 H 0.25461 0.76727 0.38226
 H207 H 0.18333 0.81279 0.31692
 H208 H 0.19822 0.77841 0.29196
 N209 N 0.47364 0.39992 0.45177
 N210 N 0.45060 0.40661 0.47164
 C211 C 0.44936 0.38211 0.49521
 C212 C 0.47284 0.35890 0.48956
 C213 C 0.48765 0.37093 0.46181
 H214 H 0.43228 0.38085 0.51457
 H215 H 0.50711 0.35926 0.44977
 Cu216 Cu 0.42380 0.44599 0.46402
 Cu217 Cu 0.48361 0.42875 0.41406
 Cu218 Cu 0.43572 0.49812 0.39893
 N219 N 0.39634 0.48436 0.45427
 N220 N 0.40168 0.50506 0.42924
 C221 C 0.37967 0.52944 0.42826
 C222 C 0.35921 0.52351 0.45376
 C223 C 0.37044 0.49471 0.46988
 H224 H 0.37824 0.54968 0.41003
 H225 H 0.36061 0.48236 0.49137
 N226 N 0.47134 0.48691 0.37102
 N227 N 0.48997 0.46082 0.37710
 C228 C 0.51162 0.45948 0.35350
 C229 C 0.50614 0.48587 0.33146
 C230 C 0.48043 0.50263 0.34321
 H231 H 0.52926 0.44001 0.35185
 H232 H 0.46892 0.52434 0.33196
 H233 H 0.46570 0.47335 0.43046
 H234 H 0.43770 0.44579 0.40785
 N235 N -0.02248 -0.11425 0.97077
 N236 N -0.04643 -0.11131 0.99063
 C237 C -0.04559 -0.13686 1.01314
 C238 C -0.01975 -0.15682 1.00687
 C239 C -0.00573 -0.14181 0.97981
 H240 H -0.06301 -0.14127 1.03200
 H241 H 0.01488 -0.15068 0.96738
 Cu242 Cu -0.07751 -0.07563 0.98413
 Cu243 Cu -0.01514 -0.08276 0.93425
 Cu244 Cu -0.07040 -0.01969 0.92113
 N245 N -0.10918 -0.04107 0.97523
 N246 N -0.10601 -0.01901 0.95088
 C247 C -0.13086 0.00204 0.95042
 C248 C -0.15076 -0.00746 0.97582
 C249 C -0.13636 -0.03495 0.99095
 H250 H -0.13433 0.02241 0.93270
 H251 H -0.14507 -0.04925 1.01195
 N252 N -0.03282 -0.02451 0.89360
 N253 N -0.01170 -0.04851 0.89861
 C254 C 0.01072 -0.04555 0.87553
 C255 C 0.00325 -0.01837 0.85502
 C256 C -0.02443 -0.00570 0.86715
 H257 H 0.03061 -0.06229 0.87350
 H258 H -0.03764 0.01546 0.85710
 H259 H -0.03824 -0.04180 0.95217
 H260 H -0.06269 -0.07148 0.92807
 N261 N 1.02334 0.58745 0.99242
 N262 N 1.04870 0.57859 1.00863
 C263 C 1.05235 0.59948 1.03295
 C264 C 1.02824 0.62284 1.03163
 C265 C 1.01017 0.61436 1.00566
 H266 H 1.07156 0.59850 1.04990
 H267 H 0.98917 0.62694 0.99685
 Cu268 Cu 1.07531 0.54191 0.99506
 Cu269 Cu 1.00987 0.56442 0.95462
 Cu270 Cu 1.05667 0.49859 0.93041
 N271 N 1.10159 0.50514 0.98110
 N272 N 1.09379 0.48776 0.95624
 C273 C 1.11595 0.46417 0.95168
 C274 C 1.13907 0.46724 0.97460
 C275 C 1.12918 0.49345 0.99296
 H276 H 1.11580 0.44668 0.93258
 H277 H 1.14122 0.50330 1.01332
 N278 N 1.01820 0.51343 0.90746
 N279 N 1.00013 0.53814 0.91697
 C280 C 0.97643 0.54301 0.89598
 C281 C 0.97995 0.52066 0.87194
 C282 C 1.00661 0.50217 0.88000
 H283 H 0.95854 0.56226 0.89732
 H284 H 1.01713 0.48242 0.86661
 H285 H 1.03019 0.51809 0.96641
 H286 H 1.05479 0.54944 0.94131
 N287 N 0.51677 0.10361 0.49123
 N288 N 0.54215 0.09604 0.50799
 C289 C 0.54533 0.11842 0.53121
 C290 C 0.52083 0.14131 0.52867
 C291 C 0.50308 0.13102 0.50307
 H292 H 0.56448 0.11873 0.54823
 H293 H 0.48203 0.14279 0.49342
 Cu294 Cu 0.56929 0.05870 0.49655
 Cu295 Cu 0.50402 0.07863 0.45425
 Cu296 Cu 0.55150 0.01192 0.43389
 N297 N 0.59591 0.02117 0.48450
 N298 N 0.58815 0.00248 0.46047
 C299 C 0.61028 -0.02129 0.45687
 C300 C 0.63340 -0.01713 0.47951
 C301 C 0.62357 0.01003 0.49679
 H302 H 0.61018 -0.03961 0.43846
 H303 H 0.63574 0.02101 0.51656
 N304 N 0.51352 0.02524 0.40974
 N305 N 0.49512 0.05037 0.41763
 C306 C 0.47190 0.05390 0.39587
 C307 C 0.47620 0.03020 0.37309
 C308 C 0.50270 0.01235 0.38269
 H309 H 0.45381 0.07305 0.39588
 H310 H 0.51359 -0.00815 0.37062
 H311 H 0.52443 0.03330 0.46863
 H312 H 0.54919 0.06352 0.44248
 N313 N -0.02506 0.11430 0.54574
 N314 N -0.04802 0.10793 0.52561
 C315 C -0.04678 0.13213 0.50177
 C316 C -0.02172 0.15477 0.50749
 C317 C -0.00858 0.14272 0.53555
 H318 H -0.06302 0.13335 0.48200
 H319 H 0.01154 0.15391 0.54764
 Cu320 Cu -0.07728 0.06874 0.53289
 Cu321 Cu -0.01794 0.08549 0.58369
 Cu322 Cu -0.06898 0.01513 0.59675
 N323 N -0.10606 0.02928 0.54095
 N324 N -0.10189 0.00794 0.56547
 C325 C -0.12426 -0.01734 0.56535
 C326 C -0.14376 -0.01137 0.53969
 C327 C -0.13162 0.01843 0.52458
 H328 H -0.12664 -0.03821 0.58300
 H329 H -0.14059 0.03107 0.50327
 N330 N -0.03431 0.02666 0.62578
 N331 N -0.01463 0.05329 0.62070
 C332 C 0.00659 0.05404 0.64449
 C333 C -0.00025 0.02659 0.66551
 C334 C -0.02631 0.00991 0.65303
 H335 H 0.02544 0.07321 0.64645
 H336 H -0.03832 -0.01295 0.66304
 H337 H -0.03715 0.04122 0.56605
 H338 H -0.06458 0.06769 0.58918
 N339 N 0.48144 0.60176 0.00676
 N340 N 0.45530 0.59381 -0.00858
 C341 C 0.45094 0.61759 -0.03216
 C342 C 0.47541 0.64184 -0.03122
 C343 C 0.49444 0.63096 -0.00629
 H344 H 0.43109 0.61784 -0.04838
 H345 H 0.51603 0.64335 0.00186
 Cu346 Cu 0.42892 0.55417 0.00508
 Cu347 Cu 0.49631 0.57434 0.04309
 Cu348 Cu 0.44953 0.50313 0.06730
 N349 N 0.40274 0.51437 0.01870
 N350 N 0.41121 0.49413 0.04274
 C351 C 0.38908 0.46873 0.04722
 C352 C 0.36535 0.47356 0.02508
 C353 C 0.37479 0.50272 0.00727
 H354 H 0.38982 0.44856 0.06559
 H355 H 0.36230 0.51448 -0.01252
 N356 N 0.48918 0.51672 0.08892
 N357 N 0.50725 0.54345 0.07930
 C358 C 0.53215 0.54637 0.09907
 C359 C 0.52942 0.52061 0.12241
 C360 C 0.50197 0.50216 0.11527
 H361 H 0.55045 0.56640 0.09732
 H362 H 0.49189 0.48005 0.12844
 H363 H 0.47484 0.52863 0.03094
 H364 H 0.45181 0.55542 0.05793
 N365 N 0.51708 -0.09129 0.03045
 N366 N 0.54221 -0.08359 0.01249
 C367 C 0.54597 -0.10752 -0.00904
 C368 C 0.52053 -0.13457 -0.00480
 C369 C 0.50308 -0.12078 0.02195
 H370 H 0.56518 -0.10717 -0.02629
 H371 H 0.48199 -0.13239 0.03332
 Cu372 Cu 0.56866 -0.04309 0.01953
 Cu373 Cu 0.50326 -0.06166 0.06332
 Cu374 Cu 0.56146 -0.00485 0.08907
 N375 N 0.60168 -0.01222 0.03446
 N376 N 0.59872 0.00294 0.06144
 C377 C 0.62448 0.02360 0.06538
 C378 C 0.64478 0.02082 0.03976
 C379 C 0.62956 -0.00212 0.02053
 H380 H 0.62812 0.03968 0.08527
 H381 H 0.63773 -0.01025 -0.00220
 N382 N 0.52166 -0.01628 0.11312
 N383 N 0.49928 -0.03726 0.10274
 C384 C 0.47507 -0.03979 0.12388
 C385 C 0.48252 -0.01959 0.14883
 C386 C 0.51223 -0.00493 0.14128
 H387 H 0.45376 -0.05568 0.12164
 H388 H 0.52594 0.01267 0.15516
 H389 H 0.53018 -0.01635 0.05426
 H390 H 0.55039 -0.05336 0.07395
 N391 N 1.01571 0.40641 0.53150
 N392 N 1.04253 0.41045 0.51529
 C393 C 1.04599 0.38438 0.49594
 C394 C 1.01834 0.35997 0.49974
 C395 C 1.00014 0.37747 0.52386
 H396 H 1.06612 0.38179 0.48017
 H397 H 0.97739 0.36879 0.53397
 Cu398 Cu 1.07078 0.45007 0.52061
 Cu399 Cu 1.00201 0.44001 0.56088
 Cu400 Cu 1.06422 0.48956 0.58939
 N401 N 1.10069 0.48623 0.53190
 N402 N 1.09771 0.50207 0.55852
 C403 C 1.12186 0.52521 0.56069
 C404 C 1.14113 0.52352 0.53418
 C405 C 1.12699 0.49855 0.51633
 H406 H 1.12557 0.54146 0.58045
 H407 H 1.13527 0.48990 0.49383
 N408 N 1.02275 0.48304 0.61141
 N409 N 0.99871 0.46526 0.59978
 C410 C 0.97374 0.46548 0.61993
 C411 C 0.98249 0.48416 0.64554
 C412 C 1.01372 0.49511 0.63936
 H413 H 0.95119 0.45204 0.61674
 H414 H 1.02884 0.51043 0.65411
 H415 H 1.03426 0.48196 0.55294
 H416 H 1.04825 0.44215 0.57391
 C417 C 0.34947 -0.02755 0.26747
 C418 C 0.36642 0.00261 0.25783
 C419 C 0.34993 0.03130 0.24651
 C420 C 0.31652 0.03041 0.24570
 C421 C 0.29978 -0.00024 0.25465
 C422 C 0.31612 -0.02953 0.26510
 C423 C 0.40150 0.00393 0.25897
 C424 C 0.41931 0.00263 0.23086
 C425 C 0.45285 0.00276 0.23168
 C426 C 0.46823 0.00550 0.26090
 C427 C 0.45065 0.00754 0.28914
 C428 C 0.41713 0.00623 0.28806
 H429 H 0.36236 -0.04977 0.27590
 H430 H 0.36314 0.05457 0.23912
 H431 H 0.40685 0.00155 0.20854
 H432 H 0.40311 0.00671 0.30968
 H433 H 0.27403 -0.00126 0.25345
 H434 H 0.49408 0.00595 0.26168
 C435 C 0.16060 -0.02963 0.74237
 C436 C 0.14757 0.00060 0.75251
 C437 C 0.16759 0.02876 0.75863
 C438 C 0.20087 0.02671 0.75501
 C439 C 0.21361 -0.00379 0.74503
 C440 C 0.19366 -0.03213 0.73891
 C441 C 0.11281 0.00323 0.75530
 C442 C 0.09686 -0.00799 0.78333
 C443 C 0.06358 -0.00585 0.78585
 C444 C 0.04633 0.00643 0.75937
 C445 C 0.06221 0.01722 0.73102
 C446 C 0.09552 0.01624 0.72946
 H447 H 0.14497 -0.05119 0.73724
 H448 H 0.15696 0.05228 0.76532
 H449 H 0.11044 -0.01807 0.80325
 H450 H 0.10801 0.02460 0.70775
 H451 H 0.23916 -0.00527 0.74154
 H452 H 0.02061 0.00735 0.76063
 C453 C 0.66499 0.46479 0.21726
 C454 C 0.64922 0.49305 0.22826
 C455 C 0.66690 0.52126 0.23868
 C456 C 0.70047 0.52145 0.23796
 C457 C 0.71597 0.49282 0.22714
 C458 C 0.69836 0.46409 0.21742
 C459 C 0.61416 0.49243 0.23010
 C460 C 0.59887 0.48802 0.25968
 C461 C 0.56551 0.48642 0.26184
 C462 C 0.54746 0.48902 0.23393
 C463 C 0.56247 0.49388 0.20419
 C464 C 0.59600 0.49524 0.20239
 H465 H 0.65120 0.44280 0.20973
 H466 H 0.65432 0.54316 0.24650
 H467 H 0.61303 0.48554 0.28103
 H468 H 0.60808 0.49793 0.17961
 H469 H 0.74181 0.49294 0.22637
 H470 H 0.52166 0.48693 0.23521
 C471 C 0.85001 0.47890 0.76496
 C472 C 0.86806 0.50819 0.75497
 C473 C 0.85268 0.53691 0.74198
 C474 C 0.81931 0.53693 0.73995
 C475 C 0.80152 0.50702 0.74914
 C476 C 0.81679 0.47769 0.76120
 C477 C 0.90316 0.50795 0.75649
 C478 C 0.92097 0.50780 0.72830
 C479 C 0.95431 0.50510 0.72913
 C480 C 0.96971 0.50421 0.75852
 C481 C 0.95229 0.50519 0.78696
 C482 C 0.91879 0.50646 0.78581
 H483 H 0.86203 0.45655 0.77447
 H484 H 0.86667 0.55955 0.73429
 H485 H 0.90861 0.50940 0.70587
 H486 H 0.90478 0.50597 0.80749
 H487 H 0.77581 0.50666 0.74697
 H488 H 0.99547 0.50252 0.75928
 C489 C 0.26282 0.33200 -0.02661
 C490 C 0.25400 0.34904 0.00046
 C491 C 0.24640 0.33029 0.02874
 C492 C 0.24740 0.29436 0.03014
 C493 C 0.25596 0.27759 0.00282
 C494 C 0.26366 0.29609 -0.02562
 C495 C 0.25334 0.38662 -0.00052
 C496 C 0.22426 0.40332 -0.00323
 C497 C 0.22363 0.43926 -0.00360
 C498 C 0.25234 0.45810 -0.00064
 C499 C 0.28150 0.44160 0.00240
 C500 C 0.28185 0.40573 0.00208
 H501 H 0.26812 0.34672 -0.04848
 H502 H 0.24060 0.34392 0.04967
 H503 H 0.20229 0.38825 -0.00455
 H504 H 0.30418 0.39251 0.00370
 H505 H 0.25655 0.24987 0.00366
 H506 H 0.25198 0.48580 -0.00060
 C507 C 0.75025 0.16343 -0.03557
 C508 C 0.75294 0.14465 -0.00671
 C509 C 0.75553 0.16170 0.02162
 C510 C 0.75621 0.19768 0.02121
 C511 C 0.75281 0.21622 -0.00777
 C512 C 0.74946 0.19937 -0.03623
 C513 C 0.75306 0.10704 -0.00615
 C514 C 0.78002 0.09041 -0.01665
 C515 C 0.78045 0.05458 -0.01615
 C516 C 0.75289 0.03547 -0.00632
 C517 C 0.72563 0.05192 0.00408
 C518 C 0.72605 0.08785 0.00441
 H519 H 0.74884 0.14986 -0.05732
 H520 H 0.75700 0.14677 0.04379
 H521 H 0.80089 0.10545 -0.02471
 H522 H 0.70504 0.10112 0.01157
 H523 H 0.75279 0.24395 -0.00818
 H524 H 0.75237 0.00784 -0.00714
 C525 C 0.24609 0.66429 0.46838
 C526 C 0.25569 0.64433 0.49483
 C527 C 0.26723 0.66014 0.52169
 C528 C 0.26877 0.69590 0.52257
 C529 C 0.25989 0.71582 0.49560
 C530 C 0.24837 0.70021 0.46848
 C531 C 0.25389 0.60679 0.49440
 C532 C 0.28134 0.58857 0.48818
 C533 C 0.27978 0.55266 0.48763
 C534 C 0.25057 0.53527 0.49403
 C535 C 0.22304 0.55328 0.50066
 C536 C 0.22480 0.58920 0.50050
 H537 H 0.23794 0.65171 0.44747
 H538 H 0.27445 0.64452 0.54215
 H539 H 0.30383 0.60245 0.48413
 H540 H 0.20364 0.60360 0.50485
 H541 H 0.26213 0.74347 0.49553
 H542 H 0.24926 0.50756 0.49385
 C543 C 0.75919 0.85073 0.47058
 C544 C 0.75028 0.86560 0.49877
 C545 C 0.74407 0.84481 0.52618
 C546 C 0.74665 0.80905 0.52561
 C547 C 0.75524 0.79446 0.49715
 C548 C 0.76109 0.81508 0.46942
 C549 C 0.74888 0.90306 0.50011
 C550 C 0.71951 0.91934 0.49848
 C551 C 0.71826 0.95513 0.50048
 C552 C 0.74665 0.97413 0.50475
 C553 C 0.77602 0.95798 0.50696
 C554 C 0.77701 0.92240 0.50417
 H555 H 0.76423 0.86689 0.44948
 H556 H 0.73838 0.85680 0.54804
 H557 H 0.69783 0.90399 0.49619
 H558 H 0.79958 0.90959 0.50530
 H559 H 0.75768 0.76699 0.49671
 H560 H 0.74586 1.00162 0.50677
 C561 C -0.02956 0.26238 0.34094
 C562 C -0.00056 0.25582 0.35593
 C563 C 0.02686 0.25083 0.33775
 C564 C 0.02529 0.25211 0.30442
 C565 C -0.00388 0.25884 0.28966
 C566 C -0.03148 0.26361 0.30781
 C567 C 0.00098 0.25498 0.39072
 C568 C -0.01065 0.22617 0.40863
 C569 C -0.01045 0.22576 0.44188
 C570 C -0.00002 0.25534 0.45698
 C571 C 0.01137 0.28448 0.43913
 C572 C 0.01250 0.28377 0.40600
 H573 H -0.05068 0.26640 0.35512
 H574 H 0.04930 0.24651 0.34962
 H575 H -0.01952 0.20396 0.39664
 H576 H 0.02105 0.30614 0.39199
 H577 H -0.00502 0.26048 0.26399
 H578 H -0.00111 0.25596 0.48257
 C579 C -0.03327 0.72206 0.16675
 C580 C -0.00432 0.72989 0.15097
 C581 C 0.02344 0.73579 0.16845
 C582 C 0.02234 0.73392 0.20186
 C583 C -0.00683 0.72565 0.21735
 C584 C -0.03490 0.72030 0.19996
 C585 C -0.00360 0.73316 0.11609
 C586 C -0.01135 0.76432 0.10070
 C587 C -0.01239 0.76749 0.06752
 C588 C -0.00651 0.73872 0.04985
 C589 C 0.00125 0.70736 0.06492
 C590 C 0.00284 0.70476 0.09824
 H591 H -0.05470 0.71792 0.15305
 H592 H 0.04569 0.74146 0.15587
 H593 H -0.01666 0.78607 0.11464
 H594 H 0.00775 0.68055 0.11044
 H595 H -0.00751 0.72347 0.24302
 H596 H -0.00861 0.74040 0.02426
 C597 C 0.47025 0.25478 0.66100
 C598 C 0.49607 0.26097 0.63999
 C599 C 0.52612 0.27028 0.65170
 C600 C 0.53069 0.27277 0.68437
 C601 C 0.50461 0.26696 0.70523
 C602 C 0.47437 0.25780 0.69383
 C603 C 0.49137 0.25930 0.60556
 C604 C 0.48210 0.28859 0.58804
 C605 C 0.47831 0.28793 0.55513
 C606 C 0.48276 0.25714 0.54002
 C607 C 0.49214 0.22758 0.55720
 C608 C 0.49654 0.22885 0.59018
 H609 H 0.44694 0.24858 0.65158
 H610 H 0.54599 0.27521 0.63540
 H611 H 0.47843 0.31211 0.60000
 H612 H 0.50326 0.20625 0.60405
 H613 H 0.50783 0.26966 0.73046
 H614 H 0.47883 0.25605 0.51473
 C615 C 0.47376 0.76729 0.83402
 C616 C 0.50287 0.76150 0.84911
 C617 C 0.53005 0.75520 0.83113
 C618 C 0.52835 0.75476 0.79790
 C619 C 0.49915 0.76095 0.78297
 C620 C 0.47156 0.76672 0.80090
 C621 C 0.50491 0.76173 0.88383
 C622 C 0.49991 0.73121 0.90207
 C623 C 0.50232 0.73096 0.93526
 C624 C 0.50975 0.76159 0.94989
 C625 C 0.51456 0.79243 0.93178
 C626 C 0.51245 0.79220 0.89865
 H627 H 0.45280 0.77211 0.84814
 H628 H 0.55249 0.75151 0.84317
 H629 H 0.49497 0.70770 0.89022
 H630 H 0.51636 0.81572 0.88438
 H631 H 0.49821 0.76172 0.75732
 H632 H 0.51191 0.76131 0.97547
 C633 C 0.07681 0.22594 0.29286
 C634 C 0.05368 0.24727 0.28433
 H635 H 0.07509 0.21118 0.31519
 H636 H 0.05427 0.25972 0.26086
 C637 C 0.58165 0.73130 0.78798
 C638 C 0.55678 0.74948 0.77797
 H639 H 0.58136 0.71876 0.81139
 H640 H 0.55648 0.75989 0.75375
 C641 C 0.43218 0.76232 0.75746
 C642 C 0.44056 0.77383 0.78574
 H643 H 0.44777 0.74585 0.74499
 H644 H 0.42380 0.78835 0.79891
 C645 C -0.07210 0.25475 0.26695
 C646 C -0.06234 0.27076 0.29269
 H647 H -0.05726 0.23547 0.25728
 H648 H -0.07793 0.28800 0.30427
 C649 C -0.07404 0.72417 0.24394
 C650 C -0.06621 0.71263 0.21560
 H651 H -0.05723 0.73998 0.25647
 H652 H -0.08396 0.69878 0.20235
 C653 C 0.42363 0.22981 0.71306
 C654 C 0.44754 0.25272 0.71676
 H655 H 0.42372 0.21414 0.69256
 H656 H 0.44889 0.26677 0.73823
 C657 C 0.57442 0.26495 0.72205
 C658 C 0.56270 0.28166 0.69648
 H659 H 0.56036 0.24402 0.73330
 H660 H 0.57725 0.30061 0.68306
 C661 C 0.07551 0.76088 0.21181
 C662 C 0.05098 0.74017 0.22144
 H663 H 0.07519 0.77388 0.18862
 H664 H 0.05070 0.72912 0.24544
 C665 C 0.27098 0.06889 0.24677
 C666 C 0.29957 0.06152 0.23497
 H667 H 0.26010 0.05243 0.26540
 H668 H 0.31149 0.07929 0.21804
 C669 C 0.77603 0.57795 0.74120
 C670 C 0.80346 0.56841 0.72837
 H671 H 0.76533 0.56267 0.76076
 H672 H 0.81569 0.58514 0.71078
 C673 C 0.77224 0.43546 0.75540
 C674 C 0.79874 0.44561 0.77034
 H675 H 0.76335 0.45075 0.73551
 H676 H 0.80883 0.42892 0.78859
 C677 C 0.27146 -0.07170 0.26027
 C678 C 0.29887 -0.06220 0.27408
 H679 H 0.26186 -0.05553 0.24134
 H680 H 0.30981 -0.07921 0.29153
 C681 C 0.23405 -0.07641 0.73961
 C682 C 0.20703 -0.06393 0.72765
 H683 H 0.24536 -0.06389 0.75915
 H684 H 0.19379 -0.07756 0.71002
 C685 C 0.74029 0.42143 0.22261
 C686 C 0.71420 0.43283 0.20794
 H687 H 0.75041 0.43533 0.24192
 H688 H 0.70256 0.41743 0.19050
 C689 C 0.71042 0.57341 0.26848
 C690 C 0.72010 0.55136 0.24732
 H691 H 0.68761 0.56937 0.28043
 H692 H 0.74386 0.55444 0.23718
 C693 C 0.21647 0.08141 0.77908
 C694 C 0.22304 0.05604 0.76007
 H695 H 0.19417 0.08110 0.79214
 H696 H 0.24628 0.05574 0.74876
 C697 C 0.22134 0.28327 0.08281
 C698 C 0.24087 0.27358 0.05985
 H699 H 0.20865 0.30689 0.07985
 H700 H 0.25154 0.24871 0.06213
 C701 C 0.72208 0.79384 0.57804
 C702 C 0.74188 0.78642 0.55450
 H703 H 0.70807 0.81663 0.57599
 H704 H 0.75398 0.76231 0.55569
 C705 C 0.75643 0.77061 0.43019
 C706 C 0.77004 0.79985 0.43934
 H707 H 0.73749 0.75816 0.44445
 H708 H 0.78688 0.81391 0.42372
 C709 C 0.29019 0.28829 -0.07762
 C710 C 0.27036 0.27691 -0.05416
 H711 H 0.30359 0.31216 -0.07584
 H712 H 0.25935 0.25160 -0.05510
 C713 C 0.72938 0.20855 -0.09086
 C714 C 0.74565 0.22006 -0.06616
 H715 H 0.71817 0.18326 -0.08941
 H716 H 0.75482 0.24623 -0.06700
 C717 C 0.21773 0.71355 0.41967
 C718 C 0.24069 0.72192 0.44005
 H719 H 0.20275 0.69088 0.42445
 H720 H 0.25369 0.74613 0.43647
 C721 C 0.26856 0.74074 0.56191
 C722 C 0.28013 0.71160 0.55180
 H723 H 0.25011 0.75367 0.54857
 H724 H 0.29669 0.69738 0.56650
 C725 C 0.77659 0.20448 0.07545
 C726 C 0.76012 0.21664 0.05053
 H727 H 0.78782 0.17996 0.07462
 H728 H 0.75089 0.24220 0.05070
 C729 C 0.48051 0.32717 0.50766
 C730 C 0.46953 0.31958 0.53709
 H731 H 0.49679 0.31020 0.49665
 H732 H 0.45537 0.33789 0.54903
 C733 C -0.01001 0.81114 0.02324
 C734 C -0.02134 0.80046 0.05187
 H735 H 0.00747 0.79627 0.01138
 H736 H -0.03684 0.81673 0.06474
 C737 C 0.02399 0.65128 0.05291
 C738 C 0.00542 0.67758 0.04504
 H739 H 0.03763 0.65123 0.07458
 H740 H -0.00608 0.67842 0.02213
 C741 C 0.51618 0.17118 0.54826
 C742 C 0.49601 0.19590 0.53977
 H743 H 0.53093 0.17360 0.56902
 H744 H 0.48310 0.19415 0.51776
 C745 C -0.01079 0.18578 0.48899
 C746 C -0.02203 0.19459 0.46022
 H747 H 0.00789 0.20123 0.49930
 H748 H -0.03904 0.17776 0.44905
 C749 C 0.47930 0.67287 0.94787
 C750 C 0.49860 0.69907 0.95528
 H751 H 0.46481 0.67466 0.92677
 H752 H 0.51096 0.69805 0.97773
 C753 C 0.51299 0.82938 0.97687
 C754 C 0.52204 0.82488 0.94707
 H755 H 0.51791 0.84826 0.98541
 H756 H 0.53389 0.84571 0.93332
 C757 C 0.00917 0.32362 0.48253
 C758 C 0.02125 0.31616 0.45451
 H759 H 0.01482 0.34245 0.49074
 H760 H 0.03693 0.33462 0.44170
 C761 C 0.33151 0.54409 0.46118
 C762 C 0.30830 0.53260 0.48118
 H763 H 0.32955 0.56865 0.44853
 H764 H 0.30912 0.50686 0.49169
 C765 C 0.81908 0.00777 -0.01463
 C766 C 0.80974 0.03807 -0.02678
 H767 H 0.80508 -0.00569 0.00391
 H768 H 0.82511 0.05252 -0.04356
 C769 C 0.67489 0.04040 0.03364
 C770 C 0.69636 0.03124 0.01220
 H771 H 0.67950 0.06262 0.04744
 H772 H 0.69274 0.00743 0.00045
 C773 C 0.17071 0.54375 0.52741
 C774 C 0.19268 0.53396 0.50680
 H775 H 0.17513 0.56622 0.54094
 H776 H 0.18932 0.50986 0.49547
 C777 C 0.16827 0.44722 -0.02238
 C778 C 0.19344 0.45792 -0.00576
 H779 H 0.16960 0.42419 -0.03554
 H780 H 0.19279 0.48243 0.00509
 C781 C 0.66265 0.96297 0.48258
 C782 C 0.68781 0.97346 0.49926
 H783 H 0.66405 0.94024 0.46903
 H784 H 0.68699 0.99763 0.51069
 C785 C 0.82836 0.96729 0.53154
 C786 C 0.80519 0.97880 0.51262
 H787 H 0.82594 0.94211 0.54326
 H788 H 0.80629 1.00505 0.50323
 C789 C 0.33632 0.45196 0.02191
 C790 C 0.31117 0.46256 0.00512
 H791 H 0.33525 0.42741 0.03487
 H792 H 0.31148 0.48826 -0.00560
 C793 C 0.52199 0.49331 0.30059
 C794 C 0.55013 0.48027 0.29328
 H795 H 0.51031 0.51041 0.28374
 H796 H 0.56292 0.46551 0.31116
 C797 C 0.01960 -0.00581 0.82552
 C798 C 0.04748 -0.01788 0.81589
 H799 H 0.00830 0.01440 0.81173
 H800 H 0.05959 -0.03648 0.83092
 C801 C 0.01619 0.01621 0.69494
 C802 C 0.04473 0.02940 0.70259
 H803 H 0.00507 -0.00416 0.70976
 H804 H 0.05684 0.04781 0.68639
 C805 C 0.55082 0.51587 0.14970
 C806 C 0.54238 0.49656 0.17556
 H807 H 0.57316 0.53046 0.14914
 H808 H 0.51890 0.48429 0.17687
 C809 C 0.46241 -0.01584 0.17717
 C810 C 0.47254 0.00048 0.20258
 H811 H 0.43904 -0.02830 0.17737
 H812 H 0.49674 0.01084 0.20294
 C813 C 0.96247 0.48897 0.67369
 C814 C 0.97375 0.50291 0.69989
 H815 H 0.93820 0.47890 0.67317
 H816 H 0.99867 0.51078 0.70088
 C817 C 0.96031 0.51937 0.84311
 C818 C 0.96996 0.50388 0.81724
 H819 H 0.93849 0.53354 0.84259
 H820 H 0.99300 0.49205 0.81728
 C821 C 0.45729 0.02659 0.34404
 C822 C 0.46813 0.00989 0.31933
 H823 H 0.43487 0.03960 0.34244
 H824 H 0.49174 -0.00062 0.32029
   
