data_POSCAR
  _audit_creation_date              2014-09-24
  _audit_creation_method            'ToBaCCo'
  _symmetry_space_group_name_H-M    'P1'
  _symmetry_Int_Tables_number       1
  _symmetry_cell_setting            triclinic
  loop_
  _symmetry_equiv_pos_as_xyz
 x,y,z
_cell_length_a 26.9102
_cell_length_b 29.1723
_cell_length_c 31.0043
_cell_angle_alpha 92.640300
_cell_angle_beta 94.044000
_cell_angle_gamma 94.198100
loop_
  _atom_site_label
  _atom_site_type_symbol
  _atom_site_fract_x
  _atom_site_fract_y
  _atom_site_fract_z
N1 N 0.58447 0.57343 0.60383
 N2 N 0.92973 0.42432 0.11487
 N3 N 0.38966 0.08681 -0.09430
 N4 N 0.10513 0.90119 0.37958
 N5 N 0.12309 0.23343 0.13576
 N6 N 0.09919 0.22238 0.16968
 C7 C 0.06721 0.25455 0.17776
 C8 C 0.07063 0.28754 0.14681
 C9 C 0.10590 0.27190 0.12010
 H10 H 0.04217 0.25310 0.20350
 H11 H 0.11688 0.28568 0.09016
 Cu12 Cu 0.10764 0.16374 0.19590
 Cu13 Cu 0.17652 0.19807 0.11613
 Cu14 Cu 0.15744 0.08287 0.13505
 N15 N 0.11914 0.10351 0.21750
 N16 N 0.13828 0.07192 0.19346
 C17 C 0.14123 0.03351 0.21558
 C18 C 0.12372 0.04157 0.25594
 C19 C 0.10908 0.08613 0.25568
 H20 H 0.15533 0.00206 0.20327
 H21 H 0.09151 0.10418 0.28104
 N22 N 0.19933 0.10615 0.08984
 N23 N 0.21082 0.15042 0.08631
 C24 C 0.24601 0.15591 0.05800
 C25 C 0.25734 0.11289 0.04232
 C26 C 0.22571 0.08216 0.06252
 H27 H 0.26209 0.18900 0.04941
 H28 H 0.22183 0.04510 0.05789
 H29 H 0.12620 0.14466 0.12127
 H30 H 0.18234 0.14610 0.16053
 N31 N 0.40899 0.77437 0.61587
 N32 N 0.42962 0.78693 0.65476
 C33 C 0.46292 0.75652 0.66645
 C34 C 0.46220 0.72308 0.63333
 C35 C 0.42783 0.73545 0.60176
 H36 H 0.48561 0.75822 0.69677
 H37 H 0.41784 0.71766 0.57064
 Cu38 Cu 0.40982 0.84101 0.68670
 Cu39 Cu 0.36052 0.80977 0.58548
 Cu40 Cu 0.32174 0.90414 0.64143
 N41 N 0.38472 0.89276 0.71845
 N42 N 0.35103 0.91745 0.70005
 C43 C 0.34077 0.95119 0.72820
 C44 C 0.36841 0.94698 0.76691
 C45 C 0.39664 0.90993 0.75935
 H46 H 0.31549 0.97740 0.72089
 H47 H 0.42376 0.89663 0.78198
 N48 N 0.29626 0.88538 0.58180
 N49 N 0.31181 0.84984 0.56010
 C50 C 0.28777 0.84588 0.52034
 C51 C 0.25565 0.88054 0.51707
 C52 C 0.26147 0.90462 0.55664
 H53 H 0.29223 0.81920 0.49585
 H54 H 0.24151 0.93381 0.56629
 H55 H 0.38137 0.87221 0.61827
 H56 H 0.33165 0.83447 0.64126
 N57 N 0.86840 0.72498 0.37931
 N58 N 0.87574 0.71879 0.33804
 C59 C 0.91299 0.74868 0.32792
 C60 C 0.93042 0.77463 0.36497
 C61 C 0.90093 0.75924 0.39694
 H62 H 0.92932 0.74862 0.29702
 H63 H 0.90538 0.76974 0.43099
 Cu64 Cu 0.84537 0.66555 0.30403
 Cu65 Cu 0.82095 0.68445 0.40748
 Cu66 Cu 0.77407 0.58460 0.34836
 N67 N 0.83707 0.60298 0.27969
 N68 N 0.81124 0.57027 0.29808
 C69 C 0.81780 0.52938 0.27787
 C70 C 0.85036 0.53727 0.24585
 C71 C 0.86088 0.58436 0.24739
 H72 H 0.80229 0.49637 0.28724
 H73 H 0.88654 0.60338 0.22820
 N74 N 0.75336 0.60150 0.40643
 N75 N 0.77177 0.63911 0.42921
 C76 C 0.74905 0.64189 0.46648
 C77 C 0.71434 0.60469 0.46682
 C78 C 0.71839 0.57946 0.42856
 H79 H 0.75569 0.66978 0.49087
 H80 H 0.69665 0.54799 0.41733
 H81 H 0.83483 0.62675 0.37042
 H82 H 0.77837 0.65671 0.35319
 N83 N 0.60425 0.28368 -0.11393
 N84 N 0.57260 0.30008 -0.14236
 C85 C 0.52901 0.27389 -0.14426
 C86 C 0.53363 0.23937 -0.11524
 C87 C 0.58247 0.24609 -0.09753
 H88 H 0.49634 0.27938 -0.16519
 H89 H 0.60106 0.22516 -0.07446
 Cu90 Cu 0.59273 0.35244 -0.17565
 Cu91 Cu 0.67020 0.31355 -0.09814
 Cu92 Cu 0.70287 0.41391 -0.14765
 N93 N 0.61909 0.40054 -0.21109
 N94 N 0.66147 0.42491 -0.19975
 C95 C 0.66936 0.45687 -0.22901
 C96 C 0.63033 0.45167 -0.26072
 C97 C 0.59887 0.41594 -0.24812
 H98 H 0.70095 0.48221 -0.22732
 H99 H 0.56334 0.40299 -0.26427
 N100 N 0.73929 0.39522 -0.09478
 N101 N 0.72599 0.35726 -0.07569
 C102 C 0.75472 0.35554 -0.03861
 C103 C 0.78800 0.39423 -0.03397
 C104 C 0.77789 0.41808 -0.07088
 H105 H 0.75086 0.32861 -0.01597
 H106 H 0.79712 0.44971 -0.07973
 H107 H 0.64926 0.37904 -0.11436
 H108 H 0.68098 0.34669 -0.15721
 C109 C -0.00793 0.32464 0.15949
 C110 C -0.04214 0.35739 0.15184
 C111 C -0.03300 0.39192 0.12302
 C112 C 0.01250 0.39446 0.10276
 C113 C 0.04984 0.36434 0.11432
 C114 C 0.03818 0.32670 0.14059
 C115 C 0.09791 0.37463 0.10045
 N116 N 0.10587 0.40861 0.07274
 N117 N 0.06941 0.43397 0.05886
 C118 C 0.02300 0.42816 0.07304
 H119 H -0.01855 0.29702 0.17986
 H120 H -0.07711 0.35477 0.16716
 H121 H 0.12984 0.35776 0.11283
 H122 H -0.00466 0.45101 0.06223
 C123 C 0.54388 0.69185 0.62524
 C124 C 0.57337 0.65562 0.61692
 C125 C 0.55288 0.60984 0.61414
 C126 C 0.50170 0.60055 0.62118
 C127 C 0.47161 0.63751 0.62924
 C128 C 0.49292 0.68341 0.63054
 C129 C 0.42090 0.62721 0.63577
 N130 N 0.40172 0.58280 0.63371
 N131 N 0.42977 0.54814 0.62546
 C132 C 0.47898 0.55549 0.61903
 H133 H 0.56060 0.72685 0.62609
 H134 H 0.61255 0.66330 0.61226
 H135 H 0.39644 0.65398 0.64273
 H136 H 0.49952 0.52606 0.61176
 C137 C 0.97364 0.85145 0.38353
 C138 C 1.01583 0.88248 0.38602
 C139 C 1.06235 0.86803 0.37598
 C140 C 1.06648 0.82132 0.36323
 C141 C 1.02384 0.78957 0.36141
 C142 C 0.97686 0.80519 0.37069
 C143 C 1.02997 0.74295 0.35080
 N144 N 1.07522 0.72983 0.34074
 N145 N 1.11474 0.76005 0.34071
 C146 C 1.11187 0.80529 0.35148
 H147 H 0.93801 0.86380 0.39084
 H148 H 1.01241 0.91813 0.39592
 H149 H 0.99953 0.71669 0.35086
 H150 H 1.14495 0.82817 0.35036
 C151 C 0.46386 0.18271 -0.14245
 C152 C 0.43013 0.14498 -0.13788
 C153 C 0.42813 0.12359 -0.09839
 C154 C 0.46118 0.14112 -0.06274
 C155 C 0.49248 0.18189 -0.06636
 C156 C 0.49572 0.20152 -0.10728
 C157 C 0.51855 0.20202 -0.02836
 N158 N 0.51788 0.17989 0.00911
 N159 N 0.49252 0.13927 0.01128
 C160 C 0.46444 0.11907 -0.02339
 H161 H 0.46528 0.19706 -0.17398
 H162 H 0.40506 0.13243 -0.16542
 H163 H 0.53850 0.23552 -0.02762
 H164 H 0.44577 0.08572 -0.01996
 C165 C 0.10050 -0.03733 0.27668
 C166 C 0.09449 -0.07104 0.30652
 C167 C 0.10565 -0.06093 0.35094
 C168 C 0.12066 -0.01481 0.36551
 C169 C 0.12915 0.01921 0.33490
 C170 C 0.11816 0.00783 0.29000
 C171 C 0.14963 0.06312 0.35054
 N172 N 0.15664 0.07321 0.39376
 N173 N 0.14490 0.04233 0.42239
 C174 C 0.12694 -0.00119 0.40975
 H175 H 0.09154 -0.04683 0.24268
 H176 H 0.08274 -0.10593 0.29469
 H177 H 0.16089 0.08941 0.32910
 H178 H 0.11678 -0.02420 0.43443
 C179 C 0.62374 0.52899 -0.28873
 C180 C 0.61158 0.55855 -0.32117
 C181 C 0.59679 0.54146 -0.36349
 C182 C 0.59508 0.49338 -0.37327
 C183 C 0.60780 0.46324 -0.34026
 C184 C 0.62118 0.48131 -0.29744
 C185 C 0.60744 0.41593 -0.35156
 N186 N 0.59330 0.39998 -0.39268
 N187 N 0.57966 0.42808 -0.42325
 C188 C 0.57995 0.47414 -0.41494
 H189 H 0.63409 0.54343 -0.25624
 H190 H 0.61379 0.59520 -0.31322
 H191 H 0.61880 0.39151 -0.32836
 H192 H 0.56788 0.49503 -0.44089
 C193 C 0.41740 0.99266 0.82693
 C194 C 0.42250 1.02761 0.85945
 C195 C 0.38125 1.05055 0.87172
 C196 C 0.33335 1.03710 0.85060
 C197 C 0.32775 0.99921 0.81973
 C198 C 0.37057 0.97870 0.80600
 C199 C 0.27908 0.98306 0.80360
 N200 N 0.23951 1.00633 0.81404
 N201 N 0.24535 1.04455 0.83955
 C202 C 0.29083 1.06092 0.85776
 H203 H 0.45064 0.97745 0.81715
 H204 H 0.45927 1.03738 0.87507
 H205 H 0.27197 0.95190 0.78322
 H206 H 0.29302 1.09299 0.87638
 C207 C 0.84223 0.47120 0.19201
 C208 C 0.86149 0.44456 0.15955
 C209 C 0.91233 0.44985 0.15152
 C210 C 0.94483 0.48096 0.17903
 C211 C 0.92550 0.50641 0.21330
 C212 C 0.87338 0.50340 0.21803
 C213 C 0.95921 0.53436 0.24186
 N214 N 1.00833 0.53894 0.23464
 N215 N 1.02596 0.51742 0.20087
 C216 C 0.99591 0.48895 0.17280
 H217 H 0.80238 0.46811 0.19554
 H218 H 0.83615 0.42054 0.13951
 H219 H 0.94717 0.55219 0.27016
 H220 H 1.01242 0.47361 0.14583
 C221 C 0.30200 0.13770 -0.02072
 C222 C 0.33424 0.13193 -0.05319
 C223 C 0.35673 0.09061 -0.05943
 C224 C 0.34918 0.05552 -0.02981
 C225 C 0.31946 0.06296 0.00577
 C226 C 0.29339 0.10366 0.00902
 C227 C 0.31949 0.03043 0.03795
 N228 N 0.34392 -0.00827 0.03297
 N229 N 0.36953 -0.01622 -0.00141
 C230 C 0.37334 0.01446 -0.03272
 H231 H 0.28334 0.16929 -0.01934
 H232 H 0.34016 0.15935 -0.07509
 H233 H 0.30255 0.03600 0.06797
 H234 H 0.39671 0.00699 -0.05856
 C235 C 0.69891 0.59241 0.54309
 C236 C 0.66773 0.58394 0.57629
 C237 C 0.61569 0.57863 0.56796
 C238 C 0.59488 0.58130 0.52490
 C239 C 0.62659 0.59028 0.49110
 C240 C 0.67911 0.59542 0.50041
 C241 C 0.60431 0.59500 0.44923
 N242 N 0.55396 0.58906 0.44167
 N243 N 0.52439 0.57895 0.47310
 C244 C 0.54311 0.57481 0.51436
 H245 H 0.73894 0.59662 0.55077
 H246 H 0.68427 0.58258 0.60903
 H247 H 0.62616 0.60379 0.42249
 H248 H 0.51737 0.56590 0.53827
 C249 C 0.84999 0.36839 0.02033
 C250 C 0.88481 0.37511 0.05575
 C251 C 0.89893 0.41934 0.07427
 C252 C 0.87852 0.45764 0.05494
 C253 C 0.84035 0.45063 0.02062
 C254 C 0.82661 0.40535 0.00256
 C255 C 0.81630 0.48931 0.00700
 N256 N 0.83284 0.53202 0.02344
 N257 N 0.87134 0.53873 0.05299
 C258 C 0.89478 0.50303 0.06921
 H259 H 0.84061 0.33355 0.00716
 H260 H 0.89966 0.34509 0.06952
 H261 H 0.78386 0.48631 -0.01564
 H262 H 0.92615 0.51053 0.09280
 C263 C 0.16854 0.88448 0.48830
 C264 C 0.13214 0.88829 0.45483
 C265 C 0.14506 0.89615 0.41257
 C266 C 0.19647 0.89918 0.40400
 C267 C 0.23357 0.89535 0.43834
 C268 C 0.21918 0.88748 0.48059
 C269 C 0.28413 0.90000 0.42929
 N270 N 0.29654 0.90622 0.38825
 N271 N 0.26184 0.90800 0.35573
 C272 C 0.21241 0.90448 0.36212
 H273 H 0.15700 0.87839 0.52047
 H274 H 0.09330 0.88596 0.46210
 H275 H 0.31394 0.89897 0.45440
 H276 H 0.18647 0.90476 0.33412
   
