data_POSCAR
  _audit_creation_date              2014-09-24
  _audit_creation_method            'ToBaCCo'
  _symmetry_space_group_name_H-M    'P1'
  _symmetry_Int_Tables_number       1
  _symmetry_cell_setting            triclinic
  loop_
  _symmetry_equiv_pos_as_xyz
 x,y,z
_cell_length_a 55.7918
_cell_length_b 55.7549
_cell_length_c 16.4669
_cell_angle_alpha 89.899300
_cell_angle_beta 89.945100
_cell_angle_gamma 119.916100
loop_
  _atom_site_label
  _atom_site_type_symbol
  _atom_site_fract_x
  _atom_site_fract_y
  _atom_site_fract_z
C1 C 0.22038 0.48439 0.46288
 C2 C 0.22154 0.48404 0.54969
 C3 C 0.24382 0.48311 0.58703
 C4 C 0.26558 0.48346 0.54241
 C5 C 0.26475 0.48495 0.45626
 C6 C 0.24249 0.48543 0.41861
 H7 H 0.24202 0.48535 0.35281
 H8 H 0.24424 0.48223 0.65266
 C9 C 0.51747 -0.26074 0.45380
 C10 C 0.51552 -0.26280 0.54020
 C11 C 0.51413 -0.24210 0.58514
 C12 C 0.51621 -0.21846 0.54756
 C13 C 0.51824 -0.21641 0.46161
 C14 C 0.51934 -0.23711 0.41654
 H15 H 0.51957 -0.23564 0.35084
 H16 H 0.51369 -0.24338 0.65090
 C17 C 1.26342 0.77859 0.45464
 C18 C 1.26019 0.77863 0.54048
 C19 C 1.23767 0.75613 0.57848
 C20 C 1.21836 0.73338 0.53368
 C21 C 1.22146 0.73313 0.44872
 C22 C 1.24418 0.75526 0.41035
 H23 H 1.24561 0.75510 0.34469
 H24 H 1.23567 0.75588 0.64404
 C25 C 0.78287 0.51940 0.45335
 C26 C 0.78370 0.51999 0.53986
 C27 C 0.76230 0.52130 0.58175
 C28 C 0.74042 0.52212 0.54141
 C29 C 0.73986 0.52103 0.45494
 C30 C 0.76133 0.52039 0.41271
 H31 H 0.76029 0.51878 0.34700
 H32 H 0.76389 0.52392 0.64701
 C33 C 0.48926 0.26903 0.46213
 C34 C 0.48748 0.26658 0.54845
 C35 C 0.48535 0.24262 0.58459
 C36 C 0.48705 0.22226 0.53858
 C37 C 0.48928 0.22528 0.45279
 C38 C 0.49048 0.24850 0.41616
 H39 H 0.49072 0.24974 0.35039
 H40 H 0.48500 0.24105 0.65025
 C41 C 0.73609 0.21636 0.45935
 C42 C 0.73434 0.21794 0.54470
 C43 C 0.75613 0.23956 0.58717
 C44 C 0.77968 0.26054 0.54695
 C45 C 0.78036 0.25975 0.46027
 C46 C 0.75891 0.23746 0.41844
 H47 H 0.75982 0.23675 0.35277
 H48 H 0.75482 0.23931 0.65282
 N49 N 0.97097 0.52482 0.08629
 N50 N 0.94958 0.52856 0.09699
 N51 N 1.02989 0.53786 0.13929
 N52 N 1.05111 0.55188 0.18827
 N53 N 1.02918 0.55412 0.08274
 N54 N 1.04973 0.57969 0.09208
 N55 N 0.97165 0.50869 0.14328
 N56 N 0.95080 0.50098 0.19411
 C57 C 0.93720 0.51354 0.16467
 C58 C 1.06330 0.57797 0.15800
 N59 N 1.02960 0.46936 0.08652
 N60 N 1.04974 0.46385 0.09909
 N61 N 0.97160 0.45721 0.14565
 N62 N 0.95080 0.44410 0.19683
 N63 N 0.97132 0.44017 0.09027
 N64 N 0.95035 0.41496 0.10240
 N65 N 1.02964 0.48601 0.14282
 N66 N 1.04947 0.49192 0.19604
 Mn67 Mn 1.00074 0.49749 0.14367
 C68 C 1.06197 0.47814 0.16753
 C69 C 0.93771 0.41773 0.16912
 N70 N 1.02815 0.55299 -0.09265
 N71 N 1.04845 0.57842 -0.10747
 N72 N 0.96982 0.50693 -0.14498
 N73 N 0.94967 0.50075 -0.19742
 N74 N 0.96988 0.52358 -0.08852
 N75 N 0.94956 0.52884 -0.10028
 N76 N 1.02778 0.53582 -0.14775
 N77 N 1.04772 0.54898 -0.20129
 Mn78 Mn 0.99954 0.53919 -0.00302
 C79 C 1.06052 0.57552 -0.17547
 C80 C 0.93711 0.51442 -0.16830
 N81 N 0.97018 0.43904 -0.08448
 N82 N 0.94971 0.41345 -0.09440
 N83 N 1.02818 0.48444 -0.14515
 N84 N 1.04965 0.49254 -0.19406
 N85 N 1.02850 0.46825 -0.08772
 N86 N 1.05024 0.46501 -0.09568
 N87 N 0.97009 0.45518 -0.14251
 N88 N 0.94983 0.44094 -0.19420
 Mn89 Mn 0.99988 0.45391 0.00109
 Mn90 Mn 0.99894 0.49557 -0.14602
 Cl91 Cl 0.99977 0.49654 -0.00109
 C92 C 0.93721 0.41498 -0.16308
 C93 C 1.06320 0.48018 -0.16246
 N94 N 0.47422 0.44672 0.09028
 N95 N 0.46931 0.42133 0.10411
 N96 N 0.46130 0.49301 0.13978
 N97 N 0.44735 0.50066 0.18771
 N98 N 0.44515 0.47604 0.08344
 N99 N 0.41976 0.47175 0.09131
 N100 N 0.48987 0.46356 0.14762
 N101 N 0.49572 0.45005 0.20272
 C102 C 0.48288 0.42377 0.17450
 C103 C 0.42146 0.48727 0.15661
 N104 N 0.53004 0.56057 0.08401
 N105 N 0.53476 0.58610 0.09266
 N106 N 0.54165 0.51486 0.14738
 N107 N 0.55440 0.50703 0.19937
 N108 N 0.55887 0.53102 0.09115
 N109 N 0.58385 0.53461 0.10343
 N110 N 0.51295 0.54435 0.14030
 N111 N 0.50565 0.55839 0.18898
 Mn112 Mn 0.50144 0.50397 0.14467
 C113 C 0.51937 0.58443 0.15842
 C114 C 0.58073 0.51953 0.17136
 N115 N 0.44653 0.47502 -0.09090
 N116 N 0.42112 0.46990 -0.10492
 N117 N 0.49255 0.46189 -0.14077
 N118 N 0.50001 0.44788 -0.18903
 N119 N 0.47555 0.44570 -0.08422
 N120 N 0.47106 0.42023 -0.09228
 N121 N 0.46344 0.49090 -0.14811
 N122 N 0.44990 0.49665 -0.20340
 Mn123 Mn 0.46008 0.46057 -0.00035
 C124 C 0.42355 0.48354 -0.17526
 C125 C 0.48647 0.42190 -0.15792
 N126 N 0.56030 0.53008 -0.08387
 N127 N 0.58610 0.53601 -0.09590
 N128 N 0.51530 0.54264 -0.14759
 N129 N 0.50920 0.55618 -0.20192
 N130 N 0.53124 0.55947 -0.09054
 N131 N 0.53601 0.58485 -0.10378
 N132 N 0.54413 0.51358 -0.14109
 N133 N 0.55850 0.50818 -0.19417
 Mn134 Mn 0.54544 0.54558 0.00020
 Mn135 Mn 0.50385 0.50225 -0.14528
 Cl136 Cl 0.50271 0.50310 -0.00024
 C137 C 0.58458 0.52206 -0.16475
 C138 C 0.52214 0.58244 -0.17351
 N139 N 0.43915 -0.02727 0.08967
 N140 N 0.41373 -0.04762 0.10304
 N141 N 0.48548 0.03150 0.13716
 N142 N 0.49299 0.05308 0.18486
 N143 N 0.46849 0.03065 0.08064
 N144 N 0.46360 0.05136 0.08912
 N145 N 0.45607 -0.02699 0.14550
 N146 N 0.44266 -0.04740 0.19790
 C147 C 0.41624 -0.06004 0.17062
 C148 C 0.47916 0.06527 0.15413
 N149 N 0.55325 0.03079 0.08357
 N150 N 0.57900 0.05058 0.09622
 N151 N 0.50782 -0.02681 0.14775
 N152 N 0.50073 -0.04686 0.20130
 N153 N 0.52454 -0.02746 0.09275
 N154 N 0.52920 -0.04808 0.10729
 N155 N 0.53681 0.03111 0.14016
 N156 N 0.55095 0.05087 0.19330
 Mn157 Mn 0.49649 0.00217 0.14359
 C158 C 0.57717 0.06303 0.16464
 C159 C 0.51420 -0.05998 0.17529
 N160 N 0.46780 0.02761 -0.09464
 N161 N 0.46385 0.04867 -0.10986
 N162 N 0.45457 -0.03208 -0.13940
 N163 N 0.44045 -0.05342 -0.18777
 N164 N 0.43828 -0.03058 -0.08456
 N165 N 0.41262 -0.05095 -0.09394
 N166 N 0.48367 0.02587 -0.15048
 N167 N 0.49091 0.04560 -0.20515
 Mn168 Mn 0.45317 0.00017 -0.00227
 C169 C 0.47842 0.05968 -0.17919
 C170 C 0.41431 -0.06507 -0.15845
 N171 N 0.52383 -0.03052 -0.08168
 N172 N 0.52978 -0.05050 -0.09069
 N173 N 0.53514 0.02594 -0.14853
 N174 N 0.54794 0.04610 -0.20188
 N175 N 0.55226 0.02757 -0.09138
 N176 N 0.57722 0.04886 -0.10440
 N177 N 0.50615 -0.03231 -0.13721
 N178 N 0.49936 -0.05374 -0.18506
 Mn179 Mn 0.53880 0.00016 0.00081
 Mn180 Mn 0.49484 -0.00324 -0.14482
 Cl181 Cl 0.49584 -0.00018 -0.00065
 C182 C 0.51422 -0.06493 -0.15506
 C183 C 0.57420 0.06022 -0.17374
 C184 C 1.15207 0.47753 0.33196
 C185 C 1.14742 0.46246 0.40388
 C186 C 1.16981 0.46391 0.44582
 C187 C 1.19713 0.48149 0.41873
 C188 C 1.20056 0.49560 0.34450
 N189 N 1.17834 0.49335 0.30390
 C190 C 1.12895 0.47718 0.28806
 N191 N 1.10898 0.47902 0.33048
 C192 C 1.08762 0.47966 0.29301
 C193 C 1.08524 0.47778 0.20823
 C194 C 1.10535 0.47547 0.16334
 C195 C 1.12755 0.47565 0.20308
 H196 H 1.16559 0.45102 0.49911
 H197 H 1.22094 0.50950 0.32035
 H198 H 1.07232 0.48126 0.32950
 H199 H 1.10413 0.47403 0.09772
 H200 H 1.12663 0.44935 0.42666
 H201 H 1.14324 0.47423 0.16809
 C202 C 0.51691 0.67630 0.30930
 C203 C 0.53410 0.70422 0.28788
 C204 C 0.53372 0.72492 0.33441
 C205 C 0.51676 0.71820 0.40378
 C206 C 0.49921 0.68993 0.42121
 N207 N 0.49991 0.67017 0.37481
 C208 C 0.51733 0.65317 0.26582
 N209 N 0.50439 0.62762 0.30101
 C210 C 0.50438 0.60539 0.26732
 C211 C 0.51825 0.60817 0.19383
 C212 C 0.53132 0.63408 0.15544
 C213 C 0.53080 0.65656 0.19079
 H214 H 0.54792 0.74628 0.31839
 H215 H 0.48466 0.68344 0.47112
 H216 H 0.49388 0.58570 0.29868
 H217 H 0.54197 0.63698 0.09810
 H218 H 0.54842 0.71042 0.23761
 H219 H 0.54079 0.67611 0.15891
 C220 C 0.32642 -0.15300 0.32930
 C221 C 0.31132 -0.14861 0.38943
 C222 C 0.29051 -0.17120 0.43113
 C223 C 0.28433 -0.19832 0.41221
 C224 C 0.29940 -0.20170 0.34892
 N225 N 0.32016 -0.17925 0.31078
 C226 C 0.34906 -0.12942 0.28651
 N227 N 0.37523 -0.12526 0.29104
 C228 C 0.39704 -0.10315 0.25498
 C229 C 0.39290 -0.08411 0.21011
 C230 C 0.36600 -0.08837 0.20352
 C231 C 0.34407 -0.11081 0.24268
 H232 H 0.27875 -0.16744 0.47660
 H233 H 0.29553 -0.22210 0.33221
 H234 H 0.41751 -0.10061 0.26068
 H235 H 0.36204 -0.07408 0.16944
 H236 H 0.31585 -0.12787 0.40461
 H237 H 0.32339 -0.11378 0.23840
 C238 C 0.84234 0.50872 0.31884
 C239 C 0.82471 0.48802 0.37381
 C240 C 0.80468 0.49105 0.41593
 C241 C 0.80210 0.51450 0.40325
 C242 C 0.81879 0.53378 0.34421
 N243 N 0.83843 0.53061 0.30468
 C244 C 0.86568 0.50805 0.27790
 N245 N 0.87701 0.52383 0.21017
 C246 C 0.89945 0.52554 0.17200
 C247 C 0.91211 0.51112 0.20273
 C248 C 0.90077 0.49468 0.27218
 C249 C 0.87769 0.49313 0.31001
 H250 H 0.79162 0.47545 0.45978
 H251 H 0.81699 0.55191 0.33211
 H252 H 0.90759 0.53846 0.11853
 H253 H 0.91000 0.48332 0.29813
 H254 H 0.82631 0.46976 0.38484
 H255 H 0.87010 0.48109 0.36515
 C256 C 0.48320 0.33299 0.33634
 C257 C 0.46438 0.31839 0.39864
 C258 C 0.46569 0.29690 0.43777
 C259 C 0.48645 0.29071 0.41718
 C260 C 0.50442 0.30541 0.35285
 N261 N 0.50236 0.32591 0.31436
 C262 C 0.48290 0.35633 0.29584
 N263 N 0.48147 0.35688 0.21341
 C264 C 0.48109 0.37805 0.17336
 C265 C 0.48299 0.40056 0.21677
 C266 C 0.48500 0.40060 0.30158
 C267 C 0.48456 0.37830 0.34145
 H268 H 0.45085 0.28544 0.48518
 H269 H 0.52046 0.30101 0.33445
 H270 H 0.47974 0.37751 0.10774
 H271 H 0.48647 0.41764 0.33697
 H272 H 0.44875 0.32349 0.41636
 H273 H 0.48596 0.37837 0.40707
 C274 C 0.67092 0.14957 0.32837
 C275 C 0.68259 0.14376 0.39550
 C276 C 0.70465 0.16541 0.43605
 C277 C 0.71441 0.19290 0.41174
 C278 C 0.70273 0.19771 0.34242
 N279 N 0.68153 0.17619 0.30287
 C280 C 0.64671 0.12728 0.28709
 N281 N 0.64678 0.12481 0.20486
 C282 C 0.62487 0.10435 0.16435
 C283 C 0.60104 0.08547 0.20697
 C284 C 0.60039 0.08807 0.29145
 C285 C 0.62333 0.10874 0.33185
 H286 H 0.71376 0.16074 0.48737
 H287 H 0.70989 0.21859 0.32119
 H288 H 0.62595 0.10303 0.09899
 H289 H 0.58236 0.07384 0.32633
 H290 H 0.67471 0.12268 0.41616
 H291 H 0.62273 0.11051 0.39723
 C292 C 0.48723 0.15500 -0.34341
 C293 C 0.50594 0.16881 -0.40696
 C294 C 0.50600 0.19110 -0.44525
 C295 C 0.48760 0.20008 -0.42094
 C296 C 0.47037 0.18672 -0.35374
 N297 N 0.47038 0.16468 -0.31807
 C298 C 0.48544 0.13039 -0.30264
 N299 N 0.47259 0.12232 -0.22906
 C300 C 0.46996 0.09984 -0.18845
 C301 C 0.48068 0.08401 -0.22193
 C302 C 0.49372 0.09174 -0.29785
 C303 C 0.49596 0.11467 -0.33860
 H304 H 0.52130 0.20198 -0.49198
 H305 H 0.45595 0.19289 -0.33184
 H306 H 0.45966 0.09447 -0.13005
 H307 H 0.50199 0.07989 -0.32628
 H308 H 0.52087 0.16305 -0.42648
 H309 H 0.50539 0.11946 -0.39812
 C310 C 0.67785 0.52625 -0.32473
 C311 C 0.69052 0.51224 -0.29181
 C312 C 0.71144 0.51116 -0.33541
 C313 C 0.72013 0.52434 -0.41175
 C314 C 0.70794 0.53979 -0.43909
 N315 N 0.68711 0.53985 -0.39656
 C316 C 0.65400 0.52561 -0.28421
 N317 N 0.65343 0.52757 -0.20185
 C318 C 0.63166 0.52689 -0.16234
 C319 C 0.60857 0.52331 -0.20616
 C320 C 0.60865 0.52095 -0.29084
 C321 C 0.63152 0.52253 -0.33018
 H322 H 0.71967 0.49872 -0.31088
 H323 H 0.71513 0.55223 -0.49358
 H324 H 0.63218 0.52864 -0.09682
 H325 H 0.59120 0.51827 -0.32661
 H326 H 0.68349 0.50122 -0.23468
 H327 H 0.63142 0.52076 -0.39570
 C328 C 0.84535 0.32301 -0.31685
 C329 C 0.81821 0.31181 -0.28847
 C330 C 0.79654 0.29108 -0.33306
 C331 C 0.80174 0.28115 -0.40600
 C332 C 0.82965 0.29222 -0.42930
 N333 N 0.85029 0.31286 -0.38585
 C334 C 0.86858 0.34630 -0.27510
 N335 N 0.88758 0.36807 -0.31983
 C336 C 0.90938 0.39035 -0.28509
 C337 C 0.91332 0.39115 -0.20086
 C338 C 0.89426 0.36874 -0.15368
 C339 C 0.87160 0.34640 -0.19053
 H340 H 0.77566 0.28393 -0.31204
 H341 H 0.83530 0.28419 -0.48104
 H342 H 0.92385 0.40718 -0.32340
 H343 H 0.89671 0.36869 -0.08844
 H344 H 0.81371 0.31974 -0.23406
 H345 H 0.85689 0.32920 -0.15372
 C346 C 0.51759 -0.15475 -0.31189
 C347 C 0.53683 -0.14799 -0.37457
 C348 C 0.53657 -0.16904 -0.42066
 C349 C 0.51739 -0.19698 -0.40380
 C350 C 0.49934 -0.20277 -0.33738
 N351 N 0.49944 -0.18178 -0.29492
 C352 C 0.51638 -0.13274 -0.26646
 N353 N 0.49369 -0.12977 -0.27303
 C354 C 0.49240 -0.10847 -0.23718
 C355 C 0.51473 -0.08886 -0.19113
 C356 C 0.53801 -0.09200 -0.18203
 C357 C 0.53905 -0.11374 -0.22059
 H358 H 0.55175 -0.16345 -0.46860
 H359 H 0.48416 -0.22389 -0.32198
 H360 H 0.47402 -0.10680 -0.24493
 H361 H 0.55567 -0.07723 -0.14714
 H362 H 0.55154 -0.12659 -0.38870
 H363 H 0.55737 -0.11566 -0.21516
 C364 C 0.33119 0.48176 -0.33381
 C365 C 0.31873 0.49574 -0.29945
 C366 C 0.29701 0.49618 -0.34009
 C367 C 0.28723 0.48234 -0.41489
 C368 C 0.29956 0.46725 -0.44428
 N369 N 0.32113 0.46775 -0.40450
 C370 C 0.35510 0.48216 -0.29437
 N371 N 0.35586 0.48045 -0.21200
 C372 C 0.37742 0.48065 -0.17288
 C373 C 0.40015 0.48339 -0.21709
 C374 C 0.39998 0.48559 -0.30185
 C375 C 0.37726 0.48454 -0.34084
 H376 H 0.28887 0.50851 -0.31436
 H377 H 0.29172 0.45442 -0.49766
 H378 H 0.37695 0.47905 -0.10730
 H379 H 0.41715 0.48762 -0.33788
 H380 H 0.32635 0.50705 -0.24314
 H381 H 0.37718 0.48606 -0.40642
 C382 C 1.15271 0.66464 -0.34196
 C383 C 1.17180 0.66086 -0.38797
 C384 C 1.19324 0.68334 -0.42814
 C385 C 1.19576 0.70955 -0.42283
 C386 C 1.17690 0.71277 -0.37431
 N387 N 1.15606 0.69051 -0.33572
 C388 C 1.12920 0.64126 -0.29971
 N389 N 1.11790 0.64635 -0.23314
 C390 C 1.09614 0.62581 -0.19197
 C391 C 1.08437 0.59827 -0.21796
 C392 C 1.09551 0.59263 -0.28680
 C393 C 1.11778 0.61397 -0.32788
 H394 H 1.20805 0.68036 -0.46275
 H395 H 1.17854 0.73286 -0.36803
 H396 H 1.08802 0.63102 -0.13939
 H397 H 1.08689 0.57170 -0.30938
 H398 H 1.17060 0.64093 -0.39202
 H399 H 1.12545 0.60907 -0.38200
 C400 C 0.84738 0.51790 -0.32637
 C401 C 0.82047 0.50491 -0.29511
 C402 C 0.79954 0.50575 -0.33905
 C403 C 0.80522 0.51970 -0.41439
 C404 C 0.83297 0.53343 -0.44121
 N405 N 0.85286 0.53181 -0.39799
 C406 C 0.86983 0.51649 -0.28368
 N407 N 0.88791 0.51186 -0.32710
 C408 C 0.90913 0.51046 -0.29127
 C409 C 0.91346 0.51461 -0.20738
 C410 C 0.89528 0.51972 -0.16164
 C411 C 0.87322 0.52034 -0.19944
 H412 H 0.77867 0.49437 -0.31532
 H413 H 0.83920 0.54617 -0.49517
 H414 H 0.92292 0.50673 -0.32854
 H415 H 0.89806 0.52307 -0.09673
 H416 H 0.81549 0.49346 -0.23852
 H417 H 0.85934 0.52440 -0.16363
 C418 C 0.48904 0.32976 -0.30603
 C419 C 0.47163 0.30187 -0.28461
 C420 C 0.47173 0.28104 -0.33126
 C421 C 0.48862 0.28765 -0.40070
 C422 C 0.50652 0.31587 -0.41780
 N423 N 0.50606 0.33575 -0.37140
 C424 C 0.48873 0.35300 -0.26309
 N425 N 0.50152 0.37842 -0.29908
 C426 C 0.50151 0.40073 -0.26607
 C427 C 0.48775 0.39815 -0.19254
 C428 C 0.47486 0.37238 -0.15329
 C429 C 0.47541 0.34982 -0.18793
 H430 H 0.45732 0.25972 -0.31544
 H431 H 0.52106 0.32224 -0.46773
 H432 H 0.51187 0.42031 -0.29806
 H433 H 0.46430 0.36964 -0.09586
 H434 H 0.45729 0.29581 -0.23440
 H435 H 0.46555 0.33038 -0.15549
 C436 C 0.66346 0.15510 -0.33078
 C437 C 0.66013 0.17165 -0.38919
 C438 C 0.68333 0.19270 -0.42816
 C439 C 0.70979 0.19740 -0.40903
 C440 C 0.71242 0.18142 -0.34769
 N441 N 0.68951 0.16083 -0.31106
 C442 C 0.63962 0.13131 -0.29072
 N443 N 0.64395 0.12116 -0.22032
 C444 C 0.62342 0.09876 -0.18149
 C445 C 0.59664 0.08496 -0.21395
 C446 C 0.59166 0.09497 -0.28640
 C447 C 0.61303 0.11800 -0.32510
 H448 H 0.68065 0.20505 -0.47425
 H449 H 0.73258 0.18466 -0.33103
 H450 H 0.62812 0.09166 -0.12572
 H451 H 0.57131 0.08480 -0.31378
 H452 H 0.63999 0.16857 -0.40492
 H453 H 0.60872 0.12464 -0.38223
 C454 C 1.16044 0.48692 -0.30584
 C455 C 1.17067 0.46935 -0.28375
 C456 C 1.19156 0.46920 -0.32980
 C457 C 1.20209 0.48602 -0.39930
 C458 C 1.19217 0.50424 -0.41688
 N459 N 1.17172 0.50394 -0.37117
 C460 C 1.13649 0.48619 -0.26411
 N461 N 1.12242 0.49694 -0.30311
 C462 C 1.09938 0.49581 -0.27127
 C463 C 1.08898 0.48292 -0.19610
 C464 C 1.10346 0.47233 -0.15374
 C465 C 1.12728 0.47409 -0.18706
 H466 H 1.19813 0.45450 -0.31384
 H467 H 1.20040 0.51849 -0.46758
 H468 H 1.08895 0.50450 -0.30550
 H469 H 1.09636 0.46264 -0.09485
 H470 H 1.16200 0.45488 -0.23389
 H471 H 1.13816 0.46607 -0.15225
 C472 C 0.52161 0.67354 -0.33250
 C473 C 0.54080 0.68844 -0.39369
 C474 C 0.53951 0.70991 -0.43303
 C475 C 0.51843 0.71577 -0.41378
 C476 C 0.50016 0.70086 -0.35025
 N477 N 0.50217 0.68036 -0.31157
 C478 C 0.52176 0.65005 -0.29258
 N479 N 0.52359 0.64947 -0.21027
 C480 C 0.52403 0.62821 -0.17093
 C481 C 0.52183 0.60568 -0.21497
 C482 C 0.51941 0.60568 -0.29964
 C483 C 0.51976 0.62805 -0.33879
 H484 H 0.55456 0.72154 -0.47979
 H485 H 0.48389 0.70505 -0.33285
 H486 H 0.52570 0.62872 -0.10538
 H487 H 0.51771 0.58864 -0.33550
 H488 H 0.55662 0.68352 -0.41059
 H489 H 0.51810 0.62805 -0.40433
 C490 C 0.32247 -0.15756 -0.31290
 C491 C 0.29476 -0.16408 -0.30456
 C492 C 0.27434 -0.18528 -0.35127
 C493 C 0.28147 -0.19971 -0.40677
 C494 C 0.30921 -0.19298 -0.41225
 N495 N 0.32873 -0.17223 -0.36639
 C496 C 0.34544 -0.13432 -0.26896
 N497 N 0.37156 -0.12384 -0.29869
 C498 C 0.39382 -0.10211 -0.26378
 C499 C 0.39045 -0.08946 -0.19463
 C500 C 0.36386 -0.10020 -0.16168
 C501 C 0.34131 -0.12267 -0.19837
 H502 H 0.25310 -0.18992 -0.34587
 H503 H 0.31537 -0.20396 -0.45377
 H504 H 0.41403 -0.09458 -0.29073
 H505 H 0.36046 -0.09118 -0.10778
 H506 H 0.28882 -0.15257 -0.26463
 H507 H 0.32111 -0.13077 -0.17101
 C508 C 0.51139 -0.15283 0.33689
 C509 C 0.49030 -0.17061 0.39043
 C510 C 0.49238 -0.19160 0.43002
 C511 C 0.51529 -0.19500 0.41639
 C512 C 0.53530 -0.17768 0.35993
 N513 N 0.53297 -0.15719 0.32245
 C514 C 0.51094 -0.12941 0.29582
 N515 N 0.52631 -0.11859 0.22719
 C516 C 0.52750 -0.09665 0.18728
 C517 C 0.51280 -0.08412 0.21673
 C518 C 0.49695 -0.09480 0.28746
 C519 C 0.49604 -0.11730 0.32732
 H520 H 0.47620 -0.20510 0.47177
 H521 H 0.55309 -0.18000 0.34731
 H522 H 0.54004 -0.08895 0.13299
 H523 H 0.48548 -0.08558 0.31255
 H524 H 0.47225 -0.16866 0.40148
 H525 H 0.48432 -0.12452 0.38311
 C526 C 0.32927 0.48870 0.30713
 C527 C 0.30184 0.46742 0.29558
 C528 C 0.28080 0.46674 0.34292
 C529 C 0.28696 0.48695 0.40227
 C530 C 0.31442 0.50830 0.41062
 N531 N 0.33466 0.50845 0.36415
 C532 C 0.35271 0.48919 0.26339
 N533 N 0.37834 0.50301 0.29727
 C534 C 0.40066 0.50323 0.26335
 C535 C 0.39781 0.48866 0.19132
 C536 C 0.37181 0.47494 0.15396
 C537 C 0.34927 0.47527 0.18943
 H538 H 0.25981 0.44988 0.33529
 H539 H 0.31982 0.52437 0.45545
 H540 H 0.42046 0.51433 0.29362
 H541 H 0.36886 0.46381 0.09762
 H542 H 0.29660 0.45081 0.25299
 H543 H 0.32953 0.46477 0.15884
 C544 C 1.15599 0.66983 0.31069
 C545 C 1.15394 0.69261 0.33774
 C546 C 1.17557 0.71340 0.38202
 C547 C 1.19929 0.71171 0.39828
 C548 C 1.20089 0.68898 0.36904
 N549 N 1.17926 0.66859 0.32743
 C550 C 1.13281 0.64669 0.26776
 N551 N 1.12648 0.62025 0.28457
 C552 C 1.10456 0.59801 0.24982
 C553 C 1.08775 0.60184 0.19405
 C554 C 1.09438 0.62892 0.17419
 C555 C 1.11677 0.65138 0.21129
 H556 H 1.17373 0.73067 0.40448
 H557 H 1.21896 0.68711 0.38111
 H558 H 1.10027 0.57741 0.26595
 H559 H 1.08199 0.63273 0.13114
 H560 H 1.13548 0.69391 0.32698
 H561 H 1.12155 0.67219 0.19571
 C562 C 0.48213 0.15896 0.30683
 C563 C 0.45924 0.15542 0.35189
 C564 C 0.46145 0.17727 0.39858
 C565 C 0.48621 0.20266 0.39907
 C566 C 0.50826 0.20576 0.35063
 N567 N 0.50593 0.18390 0.30755
 C568 C 0.48135 0.13556 0.26321
 N569 N 0.50295 0.13086 0.27080
 C570 C 0.50280 0.10870 0.23586
 C571 C 0.48009 0.08999 0.18932
 C572 C 0.45797 0.09489 0.17875
 C573 C 0.45838 0.11750 0.21641
 H574 H 0.44406 0.17430 0.43536
 H575 H 0.52764 0.22515 0.34993
 H576 H 0.52036 0.10571 0.24458
 H577 H 0.44011 0.08088 0.14316
 H578 H 0.44023 0.13567 0.35339
 H579 H 0.44101 0.12090 0.20901
 C580 C 0.66974 0.51294 0.32615
 C581 C 0.66622 0.49257 0.38304
 C582 C 0.68921 0.49474 0.42326
 C583 C 0.71565 0.51703 0.40690
 C584 C 0.71856 0.53598 0.34627
 N585 N 0.69583 0.53366 0.30855
 C586 C 0.64600 0.51306 0.28610
 N587 N 0.65052 0.52818 0.21688
 C588 C 0.63005 0.53030 0.17862
 C589 C 0.60314 0.51694 0.21056
 C590 C 0.59797 0.50128 0.28176
 C591 C 0.61926 0.49935 0.31982
 H592 H 0.68635 0.47938 0.46844
 H593 H 0.73876 0.55322 0.33139
 H594 H 0.63490 0.54262 0.12382
 H595 H 0.57753 0.49080 0.30875
 H596 H 0.64608 0.47516 0.39687
 H597 H 0.61477 0.48790 0.37612
 C598 C 0.84376 0.32685 0.32392
 C599 C 0.83771 0.29965 0.30798
 C600 C 0.81667 0.27772 0.35134
 C601 C 0.80164 0.28280 0.41041
 C602 C 0.80752 0.31012 0.42220
 N603 N 0.82834 0.33118 0.37996
 C604 C 0.86716 0.35073 0.28272
 N605 N 0.88037 0.34639 0.21969
 C606 C 0.90255 0.36744 0.18170
 C607 C 0.91294 0.39480 0.20761
 C608 C 0.89954 0.39984 0.27185
 C609 C 0.87660 0.37791 0.30929
 H610 H 0.81261 0.25687 0.34046
 H611 H 0.79600 0.31473 0.46629
 H612 H 0.91227 0.36269 0.13220
 H613 H 0.90686 0.42070 0.29344
 H614 H 0.84950 0.29538 0.26393
 H615 H 0.86671 0.38218 0.35936
   
