data_POSCAR
  _audit_creation_date              2014-09-24
  _audit_creation_method            'ToBaCCo'
  _symmetry_space_group_name_H-M    'P1'
  _symmetry_Int_Tables_number       1
  _symmetry_cell_setting            triclinic
  loop_
  _symmetry_equiv_pos_as_xyz
 x,y,z
_cell_length_a 39.5967
_cell_length_b 39.5671
_cell_length_c 39.5720
_cell_angle_alpha 76.081500
_cell_angle_beta 103.443200
_cell_angle_gamma 76.064600
loop_
  _atom_site_label
  _atom_site_type_symbol
  _atom_site_fract_x
  _atom_site_fract_y
  _atom_site_fract_z
O1 O 0.57022 0.47159 0.04193
 O2 O 0.47445 0.48291 0.03898
 O3 O 0.52891 0.42914 0.04189
 O4 O 0.51557 0.52565 0.03813
 O5 O 0.49869 0.54226 -0.02217
 O6 O 0.51240 0.44602 -0.01840
 O7 O 0.45769 0.49945 -0.02125
 O8 O 0.55356 0.48849 -0.01837
 Cu9 Cu 0.52393 0.47567 0.04626
 Cu10 Cu 0.50390 0.49574 -0.02607
 C11 C 0.57828 0.47839 0.01229
 C12 C 0.44961 0.49275 0.00843
 C13 C 0.52269 0.42112 0.01229
 C14 C 0.50514 0.55044 0.00730
 O15 O -0.03144 0.56114 0.49040
 O16 O -0.02925 0.46548 0.50180
 O17 O -0.02847 0.50686 0.54416
 O18 O -0.03172 0.51980 0.44798
 O19 O 0.02856 0.50237 0.46474
 O20 O 0.03182 0.48916 0.56077
 O21 O 0.03103 0.44785 0.51834
 O22 O 0.02879 0.54363 0.50719
 Cu23 Cu -0.03626 0.51505 0.49439
 Cu24 Cu 0.03608 0.49396 0.51439
 C25 C -0.00170 0.56883 0.49724
 C26 C 0.00121 0.44029 0.51181
 C27 C 0.00225 0.49615 0.56889
 C28 C -0.00207 0.51313 0.43992
 O29 O 0.48379 0.03878 0.52535
 O30 O 0.47277 0.04075 0.42963
 O31 O 0.43025 0.04203 0.47107
 O32 O 0.52620 0.03839 0.48362
 O33 O 0.54311 -0.02205 0.50113
 O34 O 0.44706 -0.01842 0.48886
 O35 O 0.48947 -0.01969 0.44744
 O36 O 0.50077 -0.02161 0.54287
 Cu37 Cu 0.47661 0.04604 0.47567
 Cu38 Cu 0.49681 -0.02648 0.49686
 C39 C 0.49384 0.00822 0.55056
 C40 C 0.47941 0.01077 0.42220
 C41 C 0.42223 0.01244 0.47807
 C42 C 0.55105 0.00761 0.49417
 C43 C 0.49591 -0.01838 0.00563
 C44 C 0.50069 0.00806 -0.02036
 C45 C 0.50111 0.00450 -0.05683
 C46 C 0.50534 0.04233 -0.01381
 C47 C 0.49179 -0.01301 0.04057
 C48 C 0.49517 -0.05438 0.00097
 C49 C 0.53004 0.00984 -0.06998
 C50 C 0.53007 0.00830 -0.10486
 C51 C 0.50099 0.00166 -0.12749
 C52 C 0.47200 -0.00370 -0.11426
 C53 C 0.47200 -0.00217 -0.07931
 C54 C 0.53338 0.04122 0.01606
 C55 C 0.53738 0.07374 0.02182
 C56 C 0.51352 0.10792 -0.00231
 C57 C 0.48583 0.10887 -0.03245
 C58 C 0.48189 0.07640 -0.03820
 C59 C 0.46444 0.01701 0.04076
 C60 C 0.46060 0.02128 0.07389
 C61 C 0.48374 -0.00464 0.10740
 C62 C 0.51092 -0.03477 0.10702
 C63 C 0.51481 -0.03895 0.07396
 C64 C 0.46614 -0.06735 0.00611
 C65 C 0.46602 -0.10202 0.00395
 C66 C 0.49509 -0.12458 -0.00312
 C67 C 0.52409 -0.11147 -0.00844
 C68 C 0.52419 -0.07673 -0.00629
 H69 H 0.55258 0.01538 -0.05322
 H70 H 0.55250 0.01313 -0.11444
 H71 H 0.44933 -0.00912 -0.13093
 H72 H 0.44907 -0.00571 -0.06998
 H73 H 0.55212 0.01517 0.03487
 H74 H 0.55885 0.07215 0.04535
 H75 H 0.46032 0.07781 -0.06158
 H76 H 0.44588 0.03693 0.01527
 H77 H 0.43908 0.04448 0.07328
 H78 H 0.52948 -0.05494 0.13236
 H79 H 0.53603 -0.06234 0.07440
 H80 H 0.44368 -0.05066 0.01209
 H81 H 0.44359 -0.11154 0.00876
 H82 H 0.54674 -0.12811 -0.01419
 H83 H 0.54717 -0.06751 -0.00970
 H84 H 0.46747 0.13478 -0.05188
 C85 C -0.00177 0.49495 0.99647
 C86 C 0.02486 0.49856 1.02287
 C87 C 0.06117 0.49849 1.01853
 C88 C 0.01915 0.50256 1.05766
 C89 C -0.03701 0.49216 1.00192
 C90 C 0.00263 0.49390 0.96046
 C91 C 0.08304 0.46930 1.01107
 C92 C 0.11745 0.46935 1.00780
 C93 C 0.13074 0.49846 1.01219
 C94 C 0.10884 0.52748 1.01991
 C95 C 0.07449 0.52741 1.02318
 C96 C 0.04370 0.47809 1.09109
 C97 C 0.03876 0.48136 1.12408
 C98 C 0.00931 0.50939 1.12430
 C99 C -0.01495 0.53427 1.09075
 C100 C -0.01001 0.53095 1.05770
 C101 C -0.07001 0.51664 0.97654
 C102 C -0.10343 0.51382 0.98049
 C103 C -0.10457 0.48625 1.00980
 C104 C -0.07144 0.46158 1.03513
 C105 C -0.03795 0.46446 1.03117
 C106 C 0.01022 0.52253 0.93794
 C107 C 0.01281 0.52178 0.90348
 C108 C 0.00762 0.49251 0.89086
 C109 C 0.00002 0.46392 0.91353
 C110 C -0.00258 0.46471 0.94791
 H111 H 0.07356 0.44640 1.00802
 H112 H 0.13357 0.44671 1.00162
 H113 H 0.11853 0.54997 1.02407
 H114 H 0.05818 0.55001 1.02928
 H115 H 0.06655 0.45623 1.09160
 H116 H 0.05828 0.46219 1.14948
 H117 H -0.02890 0.55048 1.03216
 H118 H -0.06985 0.53797 0.95359
 H119 H -0.12843 0.53282 0.96017
 H120 H -0.07145 0.44019 1.05809
 H121 H -0.01277 0.44492 1.05072
 H122 H 0.01372 0.54562 0.94689
 H123 H 0.01893 0.54407 0.88672
 H124 H -0.00473 0.44133 0.90434
 H125 H -0.00880 0.44254 0.96477
 H126 H -0.03797 0.55604 1.09006
 C127 C 0.00344 -0.00466 0.49482
 C128 C -0.02340 0.02166 0.49864
 C129 C -0.05944 0.01701 0.49895
 C130 C -0.01833 0.05678 0.50223
 C131 C 0.03836 0.00117 0.49160
 C132 C -0.00040 -0.04086 0.49375
 C133 C -0.08111 0.00953 0.46992
 C134 C -0.11532 0.00600 0.47029
 C135 C -0.12858 0.01016 0.49958
 C136 C -0.10687 0.01788 0.52846
 C137 C -0.07271 0.02140 0.52806
 C138 C -0.04339 0.09010 0.47786
 C139 C -0.03908 0.12339 0.48073
 C140 C -0.00973 0.12406 0.50824
 C141 C 0.01505 0.09062 0.53304
 C142 C 0.01073 0.05727 0.53012
 C143 C 0.07158 -0.02382 0.51605
 C144 C 0.10474 -0.01942 0.51292
 C145 C 0.10536 0.00994 0.48507
 C146 C 0.07203 0.03485 0.46040
 C147 C 0.03879 0.03045 0.46359
 C148 C -0.00784 -0.06366 0.52233
 C149 C -0.00968 -0.09836 0.52161
 C150 C -0.00374 -0.11099 0.49249
 C151 C 0.00354 -0.08797 0.46389
 C152 C 0.00532 -0.05334 0.46461
 H153 H -0.07163 0.00667 0.44689
 H154 H -0.13132 -0.00017 0.44777
 H155 H -0.11659 0.02187 0.55107
 H156 H -0.05653 0.02753 0.55053
 H157 H -0.06617 0.09029 0.45638
 H158 H -0.05900 0.14867 0.46164
 H159 H 0.03002 0.03184 0.54959
 H160 H 0.07178 -0.04678 0.53761
 H161 H 0.12996 -0.03941 0.53192
 H162 H 0.07167 0.05782 0.43878
 H163 H 0.01342 0.04968 0.44409
 H164 H -0.01158 -0.05485 0.54545
 H165 H -0.01480 -0.11567 0.54430
 H166 H 0.00774 -0.09670 0.44085
 H167 H 0.01117 -0.03618 0.44234
 H168 H 0.03801 0.09025 0.55441
 C169 C -0.31125 0.47288 1.01562
 C170 C -0.33826 0.48239 0.98201
 C171 C -0.37409 0.48356 0.98090
 C172 C -0.38339 0.47526 1.01348
 C173 C -0.35589 0.46516 1.04717
 C174 C -0.32008 0.46402 1.04820
 C175 C -0.27485 0.47351 1.01655
 C176 C -0.24466 0.47484 1.01689
 C177 C -0.20906 0.47737 1.01663
 C178 C -0.17974 0.44569 1.02448
 C179 C -0.14553 0.44846 1.02291
 C180 C -0.14028 0.48302 1.01333
 C181 C -0.16981 0.51464 1.00602
 C182 C -0.20392 0.51180 1.00766
 H183 H -0.33174 0.48938 0.95662
 H184 H -0.39458 0.49145 0.95453
 H185 H -0.36212 0.45863 1.07274
 H186 H -0.29940 0.45670 1.07437
 H187 H -0.18344 0.41889 1.03136
 H188 H -0.12346 0.42366 1.02826
 H189 H -0.16649 0.54159 0.99908
 H190 H -0.22639 0.53650 1.00163
 C191 C 0.34102 0.49854 1.00613
 C192 C 0.34960 0.50705 0.97339
 C193 C 0.38540 0.50566 0.97403
 C194 C 0.41328 0.49561 1.00756
 C195 C 0.40408 0.48759 1.04032
 C196 C 0.36828 0.48903 1.03953
 C197 C 0.30444 0.49894 1.00561
 C198 C 0.27399 0.49892 1.00566
 C199 C 0.23784 0.49862 1.00628
 C200 C 0.20827 0.53104 0.99039
 C201 C 0.17336 0.53093 0.99193
 C202 C 0.16757 0.49834 1.00943
 C203 C 0.19742 0.46581 1.02498
 C204 C 0.23230 0.46599 1.02343
 H205 H 0.32869 0.51448 0.94736
 H206 H 0.39121 0.51208 0.94821
 H207 H 0.42457 0.47980 1.06669
 H208 H 0.36193 0.48241 1.06505
 H209 H 0.21222 0.55644 0.97697
 H210 H 0.15086 0.55631 0.97928
 H211 H 0.19396 0.44040 1.03906
 H212 H 0.25503 0.44076 1.03595
 C213 C -0.00416 -0.32257 0.49174
 C214 C 0.02930 -0.35006 0.50135
 C215 C 0.03018 -0.38590 0.50267
 C216 C -0.00254 -0.39484 0.49442
 C217 C -0.03611 -0.36670 0.48425
 C218 C -0.03684 -0.33090 0.48298
 C219 C -0.00489 -0.28595 0.49142
 C220 C -0.00520 -0.25541 0.49141
 C221 C -0.00511 -0.21910 0.49154
 C222 C 0.02129 -0.20523 0.48054
 C223 C 0.02171 -0.17010 0.48086
 C224 C -0.00432 -0.14831 0.49221
 C225 C -0.03073 -0.16252 0.50330
 C226 C -0.03111 -0.19769 0.50293
 H227 H 0.05477 -0.34387 0.50815
 H228 H 0.05656 -0.40661 0.51057
 H229 H -0.06191 -0.37230 0.47765
 H230 H -0.06291 -0.30979 0.47546
 H231 H 0.04165 -0.22163 0.47185
 H232 H 0.04273 -0.16018 0.47270
 H233 H -0.05134 -0.14626 0.51182
 H234 H -0.05169 -0.20817 0.51149
 C235 C 0.00268 0.32989 0.51870
 C236 C 0.03557 0.33804 0.52657
 C237 C 0.03520 0.37386 0.52491
 C238 C 0.00186 0.40201 0.51526
 C239 C -0.03101 0.39338 0.50790
 C240 C -0.03056 0.35758 0.50960
 C241 C 0.00278 0.29348 0.51869
 C242 C 0.00219 0.26337 0.51783
 C243 C 0.00062 0.22792 0.51578
 C244 C -0.00873 0.22246 0.48162
 C245 C -0.01165 0.18857 0.47922
 C246 C -0.00529 0.15960 0.51102
 C247 C 0.00460 0.16517 0.54531
 C248 C 0.00747 0.19916 0.54764
 H249 H 0.06146 0.31682 0.53357
 H250 H 0.06097 0.37958 0.53072
 H251 H -0.05713 0.41437 0.50040
 H252 H -0.05618 0.35159 0.50337
 H253 H -0.01402 0.24451 0.45679
 H254 H -0.01878 0.18497 0.45248
 H255 H 0.00929 0.14354 0.57023
 H256 H 0.01460 0.20313 0.57422
 C257 C 0.49968 0.00545 -0.34069
 C258 C 0.48976 0.03908 -0.36811
 C259 C 0.48831 0.04008 -0.40402
 C260 C 0.49672 0.00734 -0.41310
 C261 C 0.50717 -0.02638 -0.38503
 C262 C 0.50858 -0.02723 -0.34919
 C263 C 0.50013 0.00445 -0.30395
 C264 C 0.50029 0.00352 -0.27322
 C265 C 0.50034 0.00245 -0.23657
 C266 C 0.53278 -0.01466 -0.20737
 C267 C 0.53294 -0.01527 -0.17184
 C268 C 0.50060 0.00123 -0.16503
 C269 C 0.46805 0.01807 -0.19454
 C270 C 0.46796 0.01868 -0.23005
 H271 H 0.48283 0.06457 -0.36181
 H272 H 0.48020 0.06658 -0.42467
 H273 H 0.51391 -0.05221 -0.39071
 H274 H 0.51633 -0.05343 -0.32817
 H275 H 0.55797 -0.02744 -0.21206
 H276 H 0.55833 -0.02885 -0.14966
 H277 H 0.44282 0.03144 -0.19030
 H278 H 0.44270 0.03206 -0.25246
 C279 C 0.47234 0.01121 0.31206
 C280 C 0.48128 -0.02189 0.33993
 C281 C 0.48309 -0.02197 0.37563
 C282 C 0.47599 0.01114 0.38401
 C283 C 0.46657 0.04436 0.35572
 C284 C 0.46480 0.04436 0.31997
 C285 C 0.47195 0.01078 0.27570
 C286 C 0.47240 0.00936 0.24570
 C287 C 0.47384 0.00639 0.21047
 C288 C 0.48008 -0.02792 0.20497
 C289 C 0.48290 -0.03141 0.17135
 C290 C 0.47956 -0.00058 0.14269
 C291 C 0.47282 0.03393 0.14828
 C292 C 0.47005 0.03735 0.18201
 H293 H 0.48722 -0.04772 0.33413
 H294 H 0.49041 -0.04802 0.39672
 H295 H 0.46098 0.07031 0.36127
 H296 H 0.45792 0.07015 0.29861
 H297 H 0.48300 -0.05206 0.22678
 H298 H 0.48754 -0.05824 0.16773
 H299 H 0.47049 0.05810 0.12687
 H300 H 0.46536 0.06403 0.18602
 C301 C 0.49724 -0.33818 0.00230
 C302 C 0.48836 -0.34727 -0.02996
 C303 C 0.49032 -0.38340 -0.02836
 C304 C 0.50125 -0.41097 0.00563
 C305 C 0.50963 -0.40144 0.03792
 C306 C 0.50765 -0.36527 0.03623
 C307 C 0.49645 -0.30124 0.00059
 C308 C 0.49613 -0.27038 -0.00081
 C309 C 0.49601 -0.23366 -0.00228
 C310 C 0.52833 -0.22730 0.01376
 C311 C 0.52817 -0.19176 0.01303
 C312 C 0.49560 -0.16208 -0.00374
 C313 C 0.46332 -0.16872 -0.02012
 C314 C 0.46356 -0.20429 -0.01939
 H315 H 0.48028 -0.32652 -0.05637
 H316 H 0.48371 -0.38980 -0.05372
 H317 H 0.51816 -0.42199 0.06450
 H318 H 0.51460 -0.35851 0.06139
 H319 H 0.55359 -0.24986 0.02714
 H320 H 0.55333 -0.18762 0.02632
 H321 H 0.43793 -0.14639 -0.03362
 H322 H 0.43842 -0.20889 -0.03200
 C323 C 0.52995 0.31048 0.01474
 C324 C 0.53719 0.31901 0.04749
 C325 C 0.53561 0.35488 0.04685
 C326 C 0.52664 0.38267 0.01339
 C327 C 0.52007 0.37361 -0.01929
 C328 C 0.52170 0.33778 -0.01858
 C329 C 0.52933 0.27424 0.01492
 C330 C 0.52773 0.24441 0.01405
 C331 C 0.52457 0.20948 0.01181
 C332 C 0.55578 0.18018 0.01821
 C333 C 0.55231 0.14687 0.01420
 C334 C 0.51752 0.14259 0.00360
 C335 C 0.48638 0.17205 -0.00220
 C336 C 0.48992 0.20525 0.00187
 H337 H 0.54349 0.29809 0.07343
 H338 H 0.54077 0.36096 0.07248
 H339 H 0.51312 0.39431 -0.04550
 H340 H 0.51596 0.33149 -0.04409
 H341 H 0.58273 0.18323 0.02575
 H342 H 0.57674 0.12481 0.01849
 H343 H 0.45928 0.16941 -0.00986
 H344 H 0.46558 0.22775 -0.00312
 C345 C -0.33837 0.00440 0.50087
 C346 C -0.34693 -0.02830 0.50948
 C347 C -0.38281 -0.02735 0.50791
 C348 C -0.41060 0.00638 0.49763
 C349 C -0.40157 0.03908 0.48949
 C350 C -0.36570 0.03805 0.49110
 C351 C -0.30177 0.00363 0.50125
 C352 C -0.27135 0.00353 0.50110
 C353 C -0.23529 0.00407 0.50054
 C354 C -0.20566 -0.01213 0.53269
 C355 C -0.17085 -0.01056 0.53232
 C356 C -0.16524 0.00728 0.49973
 C357 C -0.19514 0.02312 0.46746
 C358 C -0.22993 0.02153 0.46791
 H359 H -0.32596 -0.05450 0.51706
 H360 H -0.38886 -0.05300 0.51429
 H361 H -0.42229 0.06549 0.48147
 H362 H -0.35936 0.06353 0.48436
 H363 H -0.20950 -0.02578 0.55808
 H364 H -0.14828 -0.02341 0.55748
 H365 H -0.19181 0.03745 0.44207
 H366 H -0.25272 0.03429 0.44289
 C367 C 0.31143 0.01660 0.47111
 C368 C 0.32022 0.04912 0.46212
 C369 C 0.35616 0.04783 0.46369
 C370 C 0.38380 0.01391 0.47438
 C371 C 0.37453 -0.01861 0.48276
 C372 C 0.33857 -0.01724 0.48115
 C373 C 0.27495 0.01777 0.47153
 C374 C 0.24476 0.01820 0.47283
 C375 C 0.20922 0.01790 0.47548
 C376 C 0.18023 0.02498 0.44402
 C377 C 0.14617 0.02310 0.44700
 C378 C 0.14079 0.01396 0.48155
 C379 C 0.16996 0.00749 0.51293
 C380 C 0.20392 0.00944 0.50988
 H381 H 0.29942 0.07545 0.45440
 H382 H 0.36240 0.07336 0.45708
 H383 H 0.39514 -0.04515 0.49109
 H384 H 0.33205 -0.04258 0.48826
 H385 H 0.18410 0.03145 0.41726
 H386 H 0.12435 0.02783 0.42240
 H387 H 0.16649 0.00090 0.53985
 H388 H 0.22616 0.00399 0.53440
 C389 C -0.00453 0.52140 1.32914
 C390 C 0.02885 0.51198 1.35641
 C391 C 0.02961 0.50990 1.39233
 C392 C -0.00310 0.51721 1.40148
 C393 C -0.03660 0.52728 1.37374
 C394 C -0.03727 0.52930 1.33780
 C395 C -0.00487 0.52146 1.29270
 C396 C -0.00431 0.52049 1.26263
 C397 C -0.00259 0.51814 1.22733
 C398 C 0.00647 0.48379 1.22204
 C399 C 0.00984 0.48101 1.18838
 C400 C 0.00422 0.51261 1.15951
 C401 C -0.00545 0.54711 1.16487
 C402 C -0.00876 0.54982 1.19864
 H403 H 0.05436 0.50572 1.35001
 H404 H 0.05584 0.50210 1.41300
 H405 H -0.06224 0.53305 1.37990
 H406 H -0.06326 0.53653 1.31689
 H407 H 0.01126 0.45910 1.24406
 H408 H 0.01679 0.45413 1.18490
 H409 H -0.00957 0.57188 1.14328
 H410 H -0.01564 0.57654 1.20251
 C411 C 0.00626 0.48974 0.67963
 C412 C 0.03870 0.48029 0.67073
 C413 C 0.03743 0.48169 0.63481
 C414 C 0.00362 0.49263 0.60731
 C415 C -0.02884 0.50153 0.61667
 C416 C -0.02749 0.50010 0.65262
 C417 C 0.00756 0.48970 0.71625
 C418 C 0.00848 0.49008 0.74680
 C419 C 0.00925 0.49085 0.78311
 C420 C -0.00713 0.52375 0.78862
 C421 C -0.00721 0.52442 0.82375
 C422 C 0.00908 0.49214 0.85383
 C423 C 0.02584 0.45928 0.84804
 C424 C 0.02591 0.45868 0.81289
 H425 H 0.06497 0.47225 0.69145
 H426 H 0.06291 0.47470 0.62851
 H427 H -0.05530 0.51008 0.59615
 H428 H -0.05277 0.50749 0.65925
 H429 H -0.02018 0.54879 0.76572
 H430 H -0.02074 0.55001 0.82726
 H431 H 0.03899 0.43409 0.87072
 H432 H 0.03877 0.43310 0.80892
   
