data_POSCAR
  _audit_creation_date              2014-09-24
  _audit_creation_method            'ToBaCCo'
  _symmetry_space_group_name_H-M    'P1'
  _symmetry_Int_Tables_number       1
  _symmetry_cell_setting            triclinic
  loop_
  _symmetry_equiv_pos_as_xyz
 x,y,z
_cell_length_a 31.5582
_cell_length_b 31.3909
_cell_length_c 31.5186
_cell_angle_alpha 86.881500
_cell_angle_beta 91.205600
_cell_angle_gamma 96.596400
loop_
  _atom_site_label
  _atom_site_type_symbol
  _atom_site_fract_x
  _atom_site_fract_y
  _atom_site_fract_z
N1 N 0.19797 1.27307 0.15118
 N2 N 0.17681 1.27782 0.18579
 C3 C 0.14958 1.30744 0.17750
 C4 C 0.15340 1.32118 0.13509
 C5 C 0.18462 1.29899 0.11951
 H6 H 0.12636 1.31558 0.19958
 H7 H 0.19549 1.30023 0.08710
 Cu8 Cu 0.18031 1.23853 0.23525
 Cu9 Cu 0.23942 1.23188 0.14873
 Cu10 Cu 0.24532 1.16117 0.23602
 N11 N 0.16961 1.18625 0.27144
 N12 N 0.19375 1.15492 0.26977
 C13 C 0.17611 1.12049 0.29312
 C14 C 0.13893 1.13090 0.31041
 C15 C 0.13605 1.17309 0.29648
 H16 H 0.18886 1.08989 0.29635
 H17 H 0.11013 1.19184 0.30182
 N18 N 0.28361 1.16275 0.18742
 N19 N 0.27988 1.18833 0.15321
 C20 C 0.30631 1.17817 0.12334
 C21 C 0.32787 1.14493 0.13967
 C22 C 0.31292 1.13601 0.18045
 H23 H 0.30857 1.19265 0.09143
 H24 H 0.32044 1.10998 0.20218
 H25 H 0.20784 1.18752 0.19091
 H26 H 0.25168 1.22553 0.21269
 N27 N 0.82223 0.72604 0.13625
 N28 N 0.84291 0.71610 0.17139
 C29 C 0.86818 0.68567 0.16371
 C30 C 0.86341 0.67667 0.12125
 C31 C 0.83414 0.70291 0.10480
 H32 H 0.89044 0.67323 0.18643
 H33 H 0.82348 0.70611 0.07205
 Cu34 Cu 0.83926 0.74884 0.22145
 Cu35 Cu 0.78465 0.77120 0.13294
 Cu36 Cu 0.75811 0.80785 0.22969
 N37 N 0.84123 0.79347 0.26214
 N38 N 0.80822 0.81458 0.26749
 C39 C 0.81831 0.84380 0.29692
 C40 C 0.86040 0.84181 0.30947
 C41 C 0.87388 0.80931 0.28696
 H42 H 0.79775 0.86705 0.30582
 H43 H 0.90542 0.79891 0.28748
 N44 N 0.72440 0.81642 0.17712
 N45 N 0.73603 0.80425 0.14005
 C46 C 0.71092 0.81969 0.10932
 C47 C 0.68223 0.84284 0.12777
 C48 C 0.69138 0.83992 0.17089
 H49 H 0.71449 0.81610 0.07569
 H50 H 0.67743 0.85645 0.19540
 H51 H 0.80298 0.80548 0.18586
 H52 H 0.76686 0.75450 0.19356
 N53 N 0.83145 1.26062 -0.15790
 N54 N 0.86603 1.25499 -0.17853
 C55 C 0.89951 1.27979 -0.16245
 C56 C 0.88494 1.30268 -0.13061
 C57 C 0.84154 1.29015 -0.12879
 H58 H 0.93220 1.28039 -0.17234
 H59 H 0.81951 1.29963 -0.10620
 Cu60 Cu 0.86401 1.21441 -0.22318
 Cu61 Cu 0.77740 1.22497 -0.16676
 Cu62 Cu 0.78459 1.13519 -0.22458
 N63 N 0.85761 1.17573 -0.26969
 N64 N 0.82527 1.14536 -0.27075
 C65 C 0.83005 1.12042 -0.30331
 C66 C 0.86791 1.13551 -0.32322
 C67 C 0.88441 1.17092 -0.30133
 H68 H 0.80947 1.09139 -0.30968
 H69 H 0.91486 1.18994 -0.30639
 N70 N 0.73820 1.13918 -0.18489
 N71 N 0.73421 1.17401 -0.16430
 C72 C 0.70247 1.16497 -0.13609
 C73 C 0.68640 1.12231 -0.13874
 C74 C 0.70957 1.10707 -0.17012
 H75 H 0.69486 1.18636 -0.11229
 H76 H 0.70785 1.07416 -0.17916
 H77 H 0.81126 1.17475 -0.17699
 H78 H 0.78641 1.19902 -0.22548
 N79 N 0.17682 0.74234 -0.16768
 N80 N 0.14398 0.74557 -0.19355
 C81 C 0.11162 0.71614 -0.18111
 C82 C 0.12518 0.69288 -0.14593
 C83 C 0.16688 0.70991 -0.13856
 H84 H 0.07988 0.71354 -0.19509
 H85 H 0.18690 0.70224 -0.11157
 Cu86 Cu 0.14472 0.79095 -0.23812
 Cu87 Cu 0.22576 0.78644 -0.16835
 Cu88 Cu 0.20106 0.88383 -0.21412
 N89 N 0.13556 0.84432 -0.26874
 N90 N 0.15545 0.88094 -0.25684
 C91 C 0.14025 0.91342 -0.27974
 C92 C 0.10953 0.89611 -0.30780
 C93 C 0.10750 0.85207 -0.30022
 H94 H 0.15091 0.94709 -0.27640
 H95 H 0.08599 0.82769 -0.31503
 N96 N 0.24709 0.87887 -0.17152
 N97 N 0.25868 0.84175 -0.15658
 C98 C 0.29106 0.84917 -0.12840
 C99 C 0.29971 0.89305 -0.12521
 C100 C 0.27141 0.91086 -0.15294
 H101 H 0.30520 0.82451 -0.10953
 H102 H 0.26819 0.94466 -0.15832
 H103 H 0.18073 0.82767 -0.17972
 H104 H 0.21776 0.82465 -0.22449
 C105 C 0.45095 0.97598 -0.00114
 C106 C 0.47744 1.00040 0.02702
 C107 C 0.46033 1.03000 0.05172
 C108 C 0.41715 1.03637 0.04683
 C109 C 0.39144 1.01306 0.01732
 C110 C 0.40793 0.98246 -0.00643
 C111 C 0.52379 0.99924 0.02502
 C112 C 0.54687 1.02658 -0.00517
 C113 C 0.58900 1.02078 -0.01414
 C114 C 0.60826 0.98804 0.00804
 C115 C 0.58619 0.96163 0.03965
 C116 C 0.54369 0.96729 0.04806
 H117 H 0.46450 0.95374 -0.02066
 H118 H 0.48086 1.04927 0.07307
 H119 H 0.53117 1.05070 -0.02340
 H120 H 0.52566 0.94586 0.07097
 H121 H 0.35818 1.01828 0.01340
 H122 H 0.64095 0.98365 0.00119
 C123 C -0.02130 0.44870 0.98849
 C124 C 0.00467 0.47409 1.01623
 C125 C 0.03524 0.45564 1.04199
 C126 C 0.04109 0.41234 1.03848
 C127 C 0.01637 0.38776 1.00916
 C128 C -0.01540 0.40553 0.98458
 C129 C 0.00366 0.52085 1.01304
 C130 C -0.02552 0.54037 1.03634
 C131 C -0.03066 0.58390 1.02774
 C132 C -0.00659 0.60744 0.99557
 C133 C 0.02379 0.58852 0.97341
 C134 C 0.02899 0.54528 0.98249
 H135 H -0.04454 0.46322 0.96831
 H136 H 0.05554 0.47529 1.06322
 H137 H -0.04509 0.52143 1.05993
 H138 H 0.05142 0.53006 0.96448
 H139 H 0.02122 0.35441 1.00625
 H140 H -0.01040 0.64103 0.98878
 C141 C 0.95416 -0.03185 0.44625
 C142 C 0.97909 0.00106 0.46672
 C143 C 1.00959 0.02853 0.44378
 C144 C 1.01699 0.02184 0.40115
 C145 C 0.99337 -0.01230 0.38129
 C146 C 0.96113 -0.03851 0.40339
 C147 C 0.97727 0.00414 0.51299
 C148 C 1.00306 -0.02003 0.53928
 C149 C 1.00702 -0.01312 0.58278
 C150 C 0.98441 0.01751 0.59999
 C151 C 0.95703 0.04029 0.57436
 C152 C 0.95359 0.03383 0.53068
 H153 H 0.93037 -0.05292 0.46392
 H154 H 1.02879 0.05403 0.45962
 H155 H 1.02147 -0.04280 0.52554
 H156 H 0.93338 0.05231 0.51052
 H157 H 0.99892 -0.01740 0.34821
 H158 H 0.98708 0.02271 0.63373
 N159 N 0.09797 0.36751 1.13059
 C160 C 0.12766 0.34724 1.11149
 N161 N 0.13013 0.35063 1.06846
 N162 N 0.10325 0.37240 1.04532
 C163 C 0.07341 0.39234 1.06437
 N164 N 0.07144 0.38987 1.10743
 N165 N -0.10788 0.65740 1.05431
 C166 C -0.11129 0.65022 1.09700
 N167 N -0.08938 0.61984 1.11678
 N168 N -0.06475 0.59762 1.09460
 C169 C -0.06078 0.60539 1.05195
 N170 N -0.08288 0.63563 1.03227
 N171 N -0.04705 0.32623 0.90445
 C172 C -0.08911 0.33037 0.89839
 N173 N -0.10690 0.35951 0.92053
 N174 N -0.08335 0.38384 0.94759
 C175 C -0.04135 0.37938 0.95400
 N176 N -0.02366 0.35010 0.93194
 N177 N 0.11621 0.63523 0.91008
 C178 C 0.09848 0.66350 0.88296
 N179 N 0.05601 0.66639 0.88508
 N180 N 0.03218 0.64226 0.91365
 C181 C 0.04986 0.61398 0.94080
 N182 N 0.09224 0.61061 0.93824
 N183 N 1.11235 0.06099 0.33892
 C184 C 1.10903 0.10377 0.33396
 N185 N 1.07535 0.11939 0.35138
 N186 N 1.04626 0.09331 0.37312
 C187 C 1.04936 0.05053 0.37756
 N188 N 1.08288 0.03480 0.36007
 N189 N 1.05811 -0.10217 0.63537
 C190 C 1.08480 -0.08135 0.66383
 N191 N 1.08637 -0.03801 0.66479
 N192 N 1.06174 -0.01635 0.63881
 C193 C 1.03513 -0.03712 0.61036
 N194 N 1.03393 -0.08040 0.60888
 N195 N 0.86724 -0.10072 0.35689
 C196 C 0.88525 -0.13017 0.33531
 N197 N 0.92828 -0.13031 0.33760
 N198 N 0.95243 -0.10152 0.35980
 C199 C 0.93438 -0.07206 0.38123
 N200 N 0.89133 -0.07239 0.37969
 N201 N 0.86894 0.07885 0.62929
 C202 C 0.88836 0.11505 0.64628
 N203 N 0.92946 0.12860 0.63598
 N204 N 0.95079 0.10595 0.61093
 C205 C 0.93151 0.06945 0.59454
 N206 N 0.89014 0.05644 0.60390
 N207 N 0.35229 1.12101 0.07282
 C208 C 0.35467 1.11960 0.11587
 N209 N 0.37978 1.09234 0.13622
 N210 N 0.40139 1.06706 0.11421
 C211 C 0.39823 1.06790 0.07114
 N212 N 0.37338 1.09540 0.05090
 N213 N 0.66143 1.05322 -0.10305
 C214 C 0.65877 1.09602 -0.10814
 N215 N 0.63233 1.11409 -0.08274
 N216 N 0.60935 1.09009 -0.05334
 C217 C 0.61259 1.04733 -0.04785
 N218 N 0.63895 1.02938 -0.07334
 N219 N 0.32340 0.95700 -0.08641
 C220 C 0.32882 0.91618 -0.09518
 N221 N 0.36066 0.89709 -0.07498
 N222 N 0.38626 0.91826 -0.04706
 C223 C 0.38051 0.95901 -0.03796
 N224 N 0.34862 0.97793 -0.05820
 N225 N 0.65943 0.88000 0.06268
 C226 C 0.65422 0.87094 0.10492
 N227 N 0.62494 0.89036 0.12558
 N228 N 0.60202 0.91817 0.10465
 C229 C 0.60796 0.92785 0.06247
 N230 N 0.63693 0.90803 0.04193
   
