data_POSCAR
  _audit_creation_date              2014-09-24
  _audit_creation_method            'ToBaCCo'
  _symmetry_space_group_name_H-M    'P1'
  _symmetry_Int_Tables_number       1
  _symmetry_cell_setting            triclinic
  loop_
  _symmetry_equiv_pos_as_xyz
 x,y,z
_cell_length_a 48.7466
_cell_length_b 48.6855
_cell_length_c 49.0833
_cell_angle_alpha 90.090600
_cell_angle_beta 90.049800
_cell_angle_gamma 89.959100
loop_
  _atom_site_label
  _atom_site_type_symbol
  _atom_site_fract_x
  _atom_site_fract_y
  _atom_site_fract_z
N1 N 0.16318 0.22821 0.23737
 N2 N 0.17136 0.20620 0.25061
 C3 C 0.15440 0.20177 0.27184
 C4 C 0.13476 0.22213 0.27172
 C5 C 0.14077 0.23856 0.24969
 H6 H 0.15613 0.18510 0.28626
 H7 H 0.12963 0.25659 0.24309
 Cu8 Cu 0.20352 0.18588 0.23875
 Cu9 Cu 0.18217 0.24188 0.20519
 Cu10 Cu 0.23974 0.20549 0.18409
 N11 N 0.23577 0.16562 0.22709
 N12 N 0.24993 0.17343 0.20565
 C13 C 0.27136 0.15629 0.20221
 C14 C 0.27042 0.13688 0.22261
 C15 C 0.24770 0.14324 0.23804
 H16 H 0.28648 0.15785 0.18618
 H17 H 0.24058 0.13244 0.25591
 N18 N 0.22604 0.23848 0.16509
 N19 N 0.20417 0.25236 0.17314
 C20 C 0.20007 0.27360 0.15602
 C21 C 0.22029 0.27294 0.13647
 C22 C 0.23640 0.25055 0.14265
 H23 H 0.18355 0.28837 0.15750
 H24 H 0.25421 0.24354 0.13150
 H25 H 0.19838 0.20462 0.19297
 H26 H 0.22042 0.22652 0.21517
 N27 N 0.66599 0.73113 0.73820
 N28 N 0.67370 0.70914 0.75179
 C29 C 0.65680 0.70565 0.77324
 C30 C 0.63779 0.72664 0.77297
 C31 C 0.64405 0.74240 0.75055
 H32 H 0.65819 0.68921 0.78797
 H33 H 0.63338 0.76062 0.74370
 Cu34 Cu 0.70521 0.68768 0.73985
 Cu35 Cu 0.68514 0.74394 0.70578
 Cu36 Cu 0.74139 0.70574 0.68463
 N37 N 0.73672 0.66622 0.72788
 N38 N 0.75071 0.67353 0.70614
 C39 C 0.77163 0.65586 0.70240
 C40 C 0.77059 0.63657 0.72282
 C41 C 0.74828 0.64355 0.73867
 H42 H 0.78656 0.65704 0.68615
 H43 H 0.74127 0.63306 0.75678
 N44 N 0.72873 0.73898 0.66556
 N45 N 0.70728 0.75353 0.67353
 C46 C 0.70410 0.77504 0.65655
 C47 C 0.72451 0.77381 0.63720
 C48 C 0.73973 0.75084 0.64333
 H49 H 0.68824 0.79050 0.65814
 H50 H 0.75753 0.74343 0.63243
 H51 H 0.70007 0.70610 0.69389
 H52 H 0.72291 0.72762 0.71571
 N53 N 0.33461 0.77000 0.73681
 N54 N 0.32661 0.79136 0.75122
 C55 C 0.34337 0.79428 0.77289
 C56 C 0.36276 0.77368 0.77182
 C57 C 0.35676 0.75864 0.74875
 H58 H 0.34166 0.81009 0.78831
 H59 H 0.36762 0.74077 0.74129
 Cu60 Cu 0.29462 0.81260 0.74037
 Cu61 Cu 0.31559 0.75839 0.70374
 Cu62 Cu 0.25821 0.79632 0.68477
 N63 N 0.26240 0.83372 0.72997
 N64 N 0.24813 0.82706 0.70816
 C65 C 0.22694 0.84460 0.70545
 C66 C 0.22807 0.86301 0.72675
 C67 C 0.25072 0.85574 0.74196
 H68 H 0.21200 0.84411 0.68915
 H69 H 0.25818 0.86586 0.76014
 N70 N 0.27172 0.76451 0.66381
 N71 N 0.29351 0.75004 0.67099
 C72 C 0.29727 0.72968 0.65272
 C73 C 0.27693 0.73161 0.63332
 C74 C 0.26107 0.75373 0.64083
 H75 H 0.31343 0.71448 0.65348
 H76 H 0.24304 0.76125 0.63036
 H77 H 0.29965 0.79626 0.69366
 H78 H 0.27750 0.77334 0.71458
 N79 N 0.83552 0.27143 0.23660
 N80 N 0.82802 0.29360 0.25005
 C81 C 0.84520 0.29750 0.27121
 C82 C 0.86432 0.27671 0.27079
 C83 C 0.85778 0.26047 0.24870
 H84 H 0.84392 0.31410 0.28584
 H85 H 0.86830 0.24208 0.24203
 Cu86 Cu 0.79652 0.31510 0.23861
 Cu87 Cu 0.81554 0.25821 0.20477
 Cu88 Cu 0.75873 0.29620 0.18457
 N89 N 0.76476 0.33626 0.22723
 N90 N 0.75005 0.32879 0.20599
 C91 C 0.72943 0.34687 0.20250
 C92 C 0.73147 0.36653 0.22263
 C93 C 0.75397 0.35932 0.23801
 H94 H 0.71410 0.34579 0.18659
 H95 H 0.76180 0.37010 0.25566
 N96 N 0.77087 0.26260 0.16558
 N97 N 0.79256 0.24821 0.17318
 C98 C 0.79544 0.22654 0.15630
 C99 C 0.77458 0.22744 0.13739
 C100 C 0.75939 0.25044 0.14368
 H101 H 0.81146 0.21121 0.15761
 H102 H 0.74135 0.25770 0.13306
 H103 H 0.80030 0.29595 0.19281
 H104 H 0.77806 0.27481 0.21547
 N105 N 0.83681 0.72942 0.26529
 N106 N 0.82975 0.70740 0.25136
 C107 C 0.84798 0.70345 0.23108
 C108 C 0.86722 0.72415 0.23249
 C109 C 0.85963 0.74030 0.25429
 H110 H 0.84731 0.68693 0.21631
 H111 H 0.86990 0.75858 0.26156
 Cu112 Cu 0.79768 0.68603 0.26166
 Cu113 Cu 0.81577 0.74255 0.29645
 Cu114 Cu 0.75855 0.70441 0.31486
 N115 N 0.76561 0.66466 0.27196
 N116 N 0.75053 0.67191 0.29302
 C117 C 0.72996 0.65374 0.29606
 C118 C 0.73245 0.63414 0.27593
 C119 C 0.75520 0.64150 0.26098
 H120 H 0.71441 0.65467 0.31173
 H121 H 0.76343 0.63079 0.24346
 N122 N 0.77007 0.73796 0.33434
 N123 N 0.79184 0.75248 0.32733
 C124 C 0.79434 0.77397 0.34450
 C125 C 0.77314 0.77283 0.36298
 C126 C 0.75816 0.74985 0.35616
 H127 H 0.81045 0.78920 0.34381
 H128 H 0.74009 0.74230 0.36648
 H129 H 0.80028 0.70476 0.30771
 H130 H 0.77852 0.72612 0.28473
 N131 N 0.33946 0.22939 -0.23543
 N132 N 0.33177 0.20768 -0.24948
 C133 C 0.34975 0.20350 -0.26995
 C134 C 0.36952 0.22369 -0.26839
 C135 C 0.36253 0.23978 -0.24638
 H136 H 0.34855 0.18714 -0.28485
 H137 H 0.37332 0.25770 -0.23897
 Cu138 Cu 0.29885 0.18730 -0.23970
 Cu139 Cu 0.31923 0.24254 -0.20389
 Cu140 Cu 0.26137 0.20577 -0.18509
 N141 N 0.26650 0.16667 -0.22875
 N142 N 0.25197 0.17401 -0.20735
 C143 C 0.23074 0.15659 -0.20444
 C144 C 0.23211 0.13748 -0.22511
 C145 C 0.25495 0.14428 -0.24018
 H146 H 0.21538 0.15779 -0.18858
 H147 H 0.26247 0.13376 -0.25810
 N148 N 0.27424 0.23858 -0.16524
 N149 N 0.29618 0.25268 -0.17255
 C150 C 0.29950 0.27395 -0.15526
 C151 C 0.27871 0.27305 -0.13635
 C152 C 0.26304 0.25052 -0.14310
 H153 H 0.31580 0.28897 -0.15627
 H154 H 0.24487 0.24344 -0.13263
 H155 H 0.30289 0.20476 -0.19324
 H156 H 0.28123 0.22729 -0.21526
 N157 N 0.66417 0.27009 -0.23424
 N158 N 0.67158 0.29213 -0.24788
 C159 C 0.65340 0.29657 -0.26813
 C160 C 0.63374 0.27625 -0.26688
 C161 C 0.64106 0.25977 -0.24528
 H162 H 0.65440 0.31317 -0.28273
 H163 H 0.63049 0.24160 -0.23823
 Cu164 Cu 0.70448 0.31263 -0.23796
 Cu165 Cu 0.68504 0.25623 -0.20334
 Cu166 Cu 0.74268 0.29315 -0.18424
 N167 N 0.73665 0.33346 -0.22647
 N168 N 0.75141 0.32569 -0.20538
 C169 C 0.77231 0.34340 -0.20183
 C170 C 0.77052 0.36317 -0.22177
 C171 C 0.74776 0.35643 -0.23709
 H172 H 0.78767 0.34201 -0.18598
 H173 H 0.73994 0.36746 -0.25457
 N174 N 0.73071 0.25963 -0.16532
 N175 N 0.70879 0.24546 -0.17261
 C176 C 0.70605 0.22378 -0.15576
 C177 C 0.72728 0.22449 -0.13721
 C178 C 0.74248 0.24737 -0.14368
 H179 H 0.68977 0.20874 -0.15669
 H180 H 0.76062 0.25460 -0.13320
 H181 H 0.70090 0.29385 -0.19206
 H182 H 0.72248 0.27206 -0.21489
 N183 N 0.16336 0.77184 0.26641
 N184 N 0.17112 0.79309 0.25178
 C185 C 0.15338 0.79646 0.23096
 C186 C 0.13364 0.77630 0.23284
 C187 C 0.14048 0.76099 0.25543
 H188 H 0.15468 0.81230 0.21559
 H189 H 0.12960 0.74334 0.26327
 Cu190 Cu 0.20364 0.81420 0.26137
 Cu191 Cu 0.18333 0.75998 0.29869
 Cu192 Cu 0.24165 0.79686 0.31595
 N193 N 0.23698 0.83407 0.27081
 N194 N 0.25167 0.82723 0.29226
 C195 C 0.27327 0.84433 0.29440
 C196 C 0.27195 0.86267 0.27311
 C197 C 0.24877 0.85581 0.25851
 H198 H 0.28854 0.84369 0.31039
 H199 H 0.24097 0.86607 0.24057
 N200 N 0.22829 0.76543 0.33736
 N201 N 0.20620 0.75121 0.33068
 C202 C 0.20266 0.73091 0.34899
 C203 C 0.22346 0.73261 0.36792
 C204 C 0.23936 0.75457 0.36009
 H205 H 0.18629 0.71594 0.34859
 H206 H 0.25769 0.76191 0.37015
 H207 H 0.19995 0.79779 0.30819
 H208 H 0.22116 0.77462 0.28636
 N209 N 0.47907 0.41193 0.48376
 N210 N 0.45739 0.41909 0.49806
 C211 C 0.45426 0.40134 0.51887
 C212 C 0.47508 0.38224 0.51739
 C213 C 0.49049 0.38943 0.49499
 H214 H 0.43812 0.40217 0.53396
 H215 H 0.50858 0.37906 0.48744
 Cu216 Cu 0.43548 0.45092 0.48798
 Cu217 Cu 0.49075 0.43217 0.45156
 Cu218 Cu 0.45155 0.48871 0.43312
 N219 N 0.41345 0.48249 0.47736
 N220 N 0.41997 0.49723 0.45587
 C221 C 0.40170 0.51778 0.45304
 C222 C 0.38283 0.51567 0.47380
 C223 C 0.39073 0.49317 0.48891
 H224 H 0.40211 0.53312 0.43714
 H225 H 0.38071 0.48531 0.50694
 N226 N 0.48423 0.47681 0.41265
 N227 N 0.49917 0.45528 0.41964
 C228 C 0.51981 0.45235 0.40160
 C229 C 0.51760 0.47297 0.38254
 C230 C 0.49496 0.48812 0.39000
 H231 H 0.53525 0.43640 0.40217
 H232 H 0.48692 0.50596 0.37960
 H233 H 0.47451 0.46961 0.46311
 H234 H 0.45246 0.44711 0.44146
 N235 N -0.02112 -0.08704 0.98422
 N236 N -0.04303 -0.07922 0.99781
 C237 C -0.04720 -0.09679 1.01864
 C238 C -0.02685 -0.11649 1.01775
 C239 C -0.01065 -0.10979 0.99581
 H240 H -0.06367 -0.09539 1.03331
 H241 H 0.00745 -0.12060 0.98889
 Cu242 Cu -0.06373 -0.04677 0.98682
 Cu243 Cu -0.00762 -0.06731 0.95255
 Cu244 Cu -0.04353 -0.00906 0.93308
 N245 N -0.08333 -0.01361 0.97601
 N246 N -0.07531 0.00098 0.95493
 C247 C -0.09242 0.02246 0.95164
 C248 C -0.11205 0.02121 0.97177
 C249 C -0.10584 -0.00182 0.98690
 H250 H -0.09085 0.03773 0.93573
 H251 H -0.11704 -0.00948 1.00430
 N252 N -0.01082 -0.02251 0.91360
 N253 N 0.00289 -0.04468 0.92105
 C254 C 0.02408 -0.04850 0.90383
 C255 C 0.02355 -0.02775 0.88484
 C256 C 0.00129 -0.01165 0.89143
 H257 H 0.03875 -0.06513 0.90491
 H258 H -0.00555 0.00654 0.88079
 H259 H -0.02297 -0.02935 0.96387
 H260 H -0.04489 -0.05071 0.94093
 N261 N 1.02014 0.58632 0.98460
 N262 N 1.04180 0.57883 0.99879
 C263 C 1.04592 0.59713 1.01903
 C264 C 1.02579 0.61695 1.01724
 C265 C 1.00975 0.60959 0.99531
 H266 H 1.06211 0.59604 1.03407
 H267 H 0.99175 0.62021 0.98786
 Cu268 Cu 1.06215 0.54567 0.98955
 Cu269 Cu 1.00677 0.56519 0.95360
 Cu270 Cu 1.04314 0.50639 0.93642
 N271 N 1.08216 0.51243 0.97993
 N272 N 1.07474 0.49731 0.95894
 C273 C 1.09188 0.47572 0.95671
 C274 C 1.11086 0.47747 0.97744
 C275 C 1.10431 0.50093 0.99179
 H276 H 1.09066 0.45997 0.94120
 H277 H 1.11495 0.50896 1.00942
 N278 N 1.01050 0.51889 0.91621
 N279 N 0.99648 0.54114 0.92288
 C280 C 0.97517 0.54390 0.90558
 C281 C 0.97593 0.52237 0.88737
 C282 C 0.99849 0.50694 0.89448
 H283 H 0.96024 0.56034 0.90608
 H284 H 1.00557 0.48842 0.88452
 H285 H 1.02185 0.52757 0.96616
 H286 H 1.04421 0.54832 0.94322
 N287 N 0.52218 0.08757 0.48435
 N288 N 0.54379 0.07945 0.49826
 C289 C 0.54816 0.09716 0.51896
 C290 C 0.52822 0.11723 0.51775
 C291 C 0.51206 0.11064 0.49567
 H292 H 0.56449 0.09561 0.53381
 H293 H 0.49427 0.12175 0.48846
 Cu294 Cu 0.56397 0.04649 0.48792
 Cu295 Cu 0.50870 0.06773 0.45265
 Cu296 Cu 0.54505 0.00982 0.43287
 N297 N 0.58447 0.01421 0.47618
 N298 N 0.57696 0.00003 0.45459
 C299 C 0.59449 -0.02104 0.45093
 C300 C 0.61388 -0.01992 0.47132
 C301 C 0.60710 0.00261 0.48700
 H302 H 0.59328 -0.03600 0.43466
 H303 H 0.61791 0.00996 0.50483
 N304 N 0.51216 0.02297 0.41351
 N305 N 0.49825 0.04498 0.42110
 C306 C 0.47688 0.04852 0.40403
 C307 C 0.47753 0.02778 0.38495
 C308 C 0.50000 0.01192 0.39140
 H309 H 0.46195 0.06491 0.40531
 H310 H 0.50689 -0.00627 0.38075
 H311 H 0.52373 0.02958 0.46351
 H312 H 0.54626 0.05137 0.44168
 N313 N -0.01953 0.08499 0.51233
 N314 N -0.04125 0.07691 0.49854
 C315 C -0.04477 0.09364 0.47695
 C316 C -0.02411 0.11297 0.47740
 C317 C -0.00850 0.10705 0.50004
 H318 H -0.06109 0.09202 0.46210
 H319 H 0.00945 0.11804 0.50707
 Cu320 Cu -0.06243 0.04519 0.51031
 Cu321 Cu -0.00693 0.06628 0.54504
 Cu322 Cu -0.04468 0.00987 0.56633
 N323 N -0.08372 0.01374 0.52256
 N324 N -0.07656 0.00000 0.54452
 C325 C -0.09419 -0.02091 0.54832
 C326 C -0.11329 -0.02014 0.52766
 C327 C -0.10622 0.00198 0.51163
 H328 H -0.09311 -0.03566 0.56474
 H329 H -0.11659 0.00881 0.49337
 N330 N -0.01177 0.02309 0.58565
 N331 N 0.00255 0.04463 0.57758
 C332 C 0.02385 0.04830 0.59471
 C333 C 0.02274 0.02817 0.61431
 C334 C 0.00006 0.01251 0.60813
 H335 H 0.03914 0.06429 0.59303
 H336 H -0.00713 -0.00530 0.61914
 H337 H -0.02266 0.02812 0.53529
 H338 H -0.04477 0.05106 0.55643
 N339 N 0.47744 0.58562 0.01346
 N340 N 0.45580 0.57752 -0.00043
 C341 C 0.45201 0.59448 -0.02178
 C342 C 0.47230 0.61412 -0.02107
 C343 C 0.48813 0.60806 0.00144
 H344 H 0.43579 0.59273 -0.03674
 H345 H 0.50605 0.61907 0.00848
 Cu346 Cu 0.43523 0.54523 0.01051
 Cu347 Cu 0.49003 0.56648 0.04614
 Cu348 Cu 0.45301 0.50872 0.06552
 N349 N 0.41471 0.51277 0.02117
 N350 N 0.42195 0.49848 0.04273
 C351 C 0.40490 0.47693 0.04549
 C352 C 0.38617 0.47787 0.02448
 C353 C 0.39280 0.50075 0.00940
 H354 H 0.40606 0.46172 0.06147
 H355 H 0.38243 0.50800 -0.00871
 N356 N 0.48507 0.52233 0.08589
 N357 N 0.49927 0.54422 0.07854
 C358 C 0.51986 0.54807 0.09652
 C359 C 0.51834 0.52767 0.11589
 C360 C 0.49623 0.51171 0.10868
 H361 H 0.53482 0.56443 0.09566
 H362 H 0.48888 0.49372 0.11930
 H363 H 0.47512 0.52839 0.03538
 H364 H 0.45249 0.55035 0.05691
 N365 N 0.52253 -0.08571 0.01208
 N366 N 0.54464 -0.07744 -0.00089
 C367 C 0.54923 -0.09428 -0.02226
 C368 C 0.52885 -0.11390 -0.02254
 C369 C 0.51229 -0.10801 -0.00056
 H370 H 0.56606 -0.09251 -0.03648
 H371 H 0.49423 -0.11920 0.00580
 Cu372 Cu 0.56494 -0.04544 0.01170
 Cu373 Cu 0.50863 -0.06707 0.04447
 Cu374 Cu 0.54499 -0.01001 0.06685
 N375 N 0.58522 -0.01335 0.02414
 N376 N 0.57723 0.00041 0.04583
 C377 C 0.59436 0.02170 0.04998
 C378 C 0.61400 0.02113 0.02983
 C379 C 0.60776 -0.00127 0.01376
 H380 H 0.59262 0.03653 0.06632
 H381 H 0.61872 -0.00805 -0.00417
 N382 N 0.51185 -0.02378 0.08532
 N383 N 0.49794 -0.04545 0.07680
 C384 C 0.47652 -0.04961 0.09368
 C385 C 0.47715 -0.02960 0.11353
 C386 C 0.49967 -0.01360 0.10779
 H387 H 0.46165 -0.06597 0.09179
 H388 H 0.50665 0.00406 0.11924
 H389 H 0.52413 -0.02875 0.03515
 H390 H 0.54574 -0.05129 0.05714
 N391 N 1.01933 0.41537 0.51364
 N392 N 1.04140 0.42256 0.50000
 C393 C 1.04462 0.40545 0.47863
 C394 C 1.02344 0.38675 0.47907
 C395 C 1.00777 0.39345 0.50146
 H396 H 1.06099 0.40653 0.46381
 H397 H 0.98930 0.38325 0.50824
 Cu398 Cu 1.06344 0.45376 0.51140
 Cu399 Cu 1.00681 0.43542 0.54567
 Cu400 Cu 1.04576 0.49155 0.56594
 N401 N 1.08532 0.48499 0.52297
 N402 N 1.07829 0.49975 0.54434
 C403 C 1.09664 0.52015 0.54773
 C404 C 1.11603 0.51788 0.52742
 C405 C 1.10836 0.49550 0.51203
 H406 H 1.09587 0.53555 0.56362
 H407 H 1.11870 0.48765 0.49415
 N408 N 1.01215 0.47985 0.58508
 N409 N 0.99746 0.45836 0.57745
 C410 C 0.97587 0.45573 0.59437
 C411 C 0.97712 0.47653 0.61335
 C412 C 1.00025 0.49145 0.60706
 H413 H 0.96033 0.43995 0.59301
 H414 H 1.00778 0.50939 0.61771
 H415 H 1.02378 0.47283 0.53510
 H416 H 1.04488 0.45007 0.55739
 C417 C 0.37379 -0.00035 0.24925
 C418 C 0.12728 0.00112 0.74942
 C419 C 0.62455 0.50066 0.24962
 C420 C 0.87381 0.49979 0.74974
 C421 C 0.24906 0.37489 0.00009
 C422 C 0.75072 0.12368 0.00112
 C423 C 0.25009 0.62448 0.50016
 C424 C 0.75022 0.87609 0.50030
 C425 C -0.00165 0.25071 0.37463
 C426 C 0.00038 0.75036 0.12515
 C427 C 0.50202 0.25007 0.62603
 C428 C 0.49971 0.74945 0.87486
 C429 C 0.06959 0.23326 0.32253
 C430 C 0.07097 0.22909 0.35065
 C431 C 0.04810 0.23454 0.36700
 C432 C 0.11232 0.22544 0.29035
 C433 C 0.02225 0.24755 0.32694
 C434 C 0.04517 0.24229 0.31077
 C435 C 0.09311 0.22868 0.30545
 C436 C 0.02329 0.24460 0.35566
 H437 H 0.08976 0.22182 0.35998
 H438 H 0.04988 0.23139 0.38876
 H439 H 0.00398 0.25380 0.31628
 H440 H 0.04381 0.24533 0.28894
 C441 C 0.57271 0.73966 0.82359
 C442 C 0.57455 0.73718 0.85189
 C443 C 0.55121 0.74089 0.86806
 C444 C 0.61546 0.73098 0.79156
 C445 C 0.52444 0.75069 0.82770
 C446 C 0.54775 0.74688 0.81164
 C447 C 0.59627 0.73489 0.80656
 C448 C 0.52529 0.74634 0.85622
 H449 H 0.59395 0.73218 0.86146
 H450 H 0.55316 0.73876 0.88993
 H451 H 0.50603 0.75729 0.81739
 H452 H 0.54627 0.74962 0.78977
 C453 C 0.42608 0.76070 0.82477
 C454 C 0.43276 0.78050 0.84430
 C455 C 0.45572 0.77699 0.86105
 C456 C 0.38478 0.76898 0.79073
 C457 C 0.46479 0.73325 0.83937
 C458 C 0.44181 0.73680 0.82274
 C459 C 0.40343 0.76513 0.80643
 C460 C 0.47312 0.75389 0.85795
 H461 H 0.42030 0.79881 0.84650
 H462 H 0.45943 0.79251 0.87632
 H463 H 0.47682 0.71467 0.83711
 H464 H 0.43656 0.72106 0.80800
 C465 C -0.07374 0.26560 0.32311
 C466 C -0.07220 0.24146 0.33831
 C467 C -0.04988 0.23669 0.35551
 C468 C -0.11471 0.27299 0.28863
 C469 C -0.03078 0.28071 0.34273
 C470 C -0.05325 0.28544 0.32571
 C471 C -0.09609 0.26972 0.30445
 C472 C -0.02803 0.25578 0.35739
 H473 H -0.08821 0.22610 0.33668
 H474 H -0.05018 0.21782 0.36689
 H475 H -0.01487 0.29620 0.34374
 H476 H -0.05438 0.30439 0.31422
 C477 C -0.06789 0.73711 0.18165
 C478 C -0.04600 0.71862 0.18044
 C479 C -0.02427 0.72323 0.16247
 C480 C -0.10979 0.72838 0.21470
 C481 C -0.04585 0.76537 0.14749
 C482 C -0.06758 0.76063 0.16541
 C483 C -0.09059 0.73221 0.19972
 C484 C -0.02425 0.74611 0.14472
 H485 H -0.04573 0.70059 0.19334
 H486 H -0.00752 0.70861 0.16199
 H487 H -0.04613 0.78443 0.13628
 H488 H -0.08411 0.77547 0.16669
 C489 C 0.43356 0.23527 0.68193
 C490 C 0.44316 0.21383 0.66559
 C491 C 0.46512 0.21807 0.64781
 C492 C 0.39129 0.22737 0.71473
 C493 C 0.46835 0.26523 0.66314
 C494 C 0.44644 0.26087 0.68096
 C495 C 0.41060 0.23090 0.69982
 C496 C 0.47748 0.24427 0.64532
 H497 H 0.43374 0.19371 0.66667
 H498 H 0.47239 0.20049 0.63651
 H499 H 0.47801 0.28525 0.66285
 H500 H 0.43952 0.27752 0.69392
 C501 C 0.56989 0.26489 0.68286
 C502 C 0.55695 0.23931 0.68168
 C503 C 0.53524 0.23496 0.66357
 C504 C 0.61197 0.27265 0.71611
 C505 C 0.53879 0.28205 0.64827
 C506 C 0.56055 0.28629 0.66636
 C507 C 0.59273 0.26919 0.70102
 C508 C 0.52636 0.25589 0.64563
 H509 H 0.56367 0.22267 0.69471
 H510 H 0.52553 0.21496 0.66315
 H511 H 0.53174 0.29959 0.63681
 H512 H 0.57001 0.30639 0.66757
 C513 C 0.06896 0.76341 0.18152
 C514 C 0.06852 0.73991 0.16518
 C515 C 0.04676 0.73529 0.14720
 C516 C 0.11077 0.77197 0.21486
 C517 C 0.02542 0.77755 0.16229
 C518 C 0.04719 0.78206 0.18029
 C519 C 0.09164 0.76817 0.19973
 C520 C 0.02522 0.75464 0.14451
 H521 H 0.08495 0.72497 0.16647
 H522 H 0.04691 0.71623 0.13594
 H523 H 0.00873 0.79224 0.16188
 H524 H 0.04703 0.80010 0.19324
 C525 C 0.32277 0.07282 0.23546
 C526 C 0.32601 0.06205 0.26161
 C527 C 0.34262 0.03904 0.26578
 C528 C 0.28917 0.11459 0.22704
 C529 C 0.35345 0.03800 0.21768
 C530 C 0.33669 0.06091 0.21361
 C531 C 0.30465 0.09569 0.23090
 C532 C 0.35636 0.02599 0.24382
 H533 H 0.31539 0.07120 0.27875
 H534 H 0.34416 0.03085 0.28622
 H535 H 0.36374 0.03006 0.19995
 H536 H 0.33442 0.06922 0.19326
 C537 C 0.82339 0.57253 0.73394
 C538 C 0.82156 0.54937 0.71724
 C539 C 0.83840 0.52668 0.72207
 C540 C 0.78921 0.61409 0.72680
 C541 C 0.85998 0.55081 0.75953
 C542 C 0.84300 0.57343 0.75470
 C543 C 0.80489 0.59522 0.73002
 C544 C 0.85698 0.52631 0.74425
 H545 H 0.80681 0.54864 0.70073
 H546 H 0.83624 0.50881 0.70908
 H547 H 0.87529 0.55292 0.77528
 H548 H 0.84507 0.59161 0.76730
 C549 C 0.82118 0.42890 0.76701
 C550 C 0.80954 0.45498 0.76483
 C551 C 0.82605 0.47783 0.75989
 C552 C 0.78864 0.38609 0.77435
 C553 C 0.86626 0.44869 0.76013
 C554 C 0.84964 0.42583 0.76517
 C555 C 0.80371 0.40544 0.77111
 C556 C 0.85472 0.47503 0.75598
 H557 H 0.78757 0.45771 0.76697
 H558 H 0.81594 0.49756 0.75948
 H559 H 0.88824 0.44576 0.75874
 H560 H 0.85898 0.40577 0.76744
 C561 C 0.32114 -0.07283 0.26036
 C562 C 0.30966 -0.04662 0.26157
 C563 C 0.32600 -0.02341 0.25783
 C564 C 0.28907 -0.11582 0.26846
 C565 C 0.36568 -0.05265 0.25174
 C566 C 0.34916 -0.07584 0.25527
 C567 C 0.30397 -0.09647 0.26461
 C568 C 0.35463 -0.02573 0.25325
 H569 H 0.28791 -0.04407 0.26543
 H570 H 0.31557 -0.00394 0.25860
 H571 H 0.38739 -0.05571 0.24818
 H572 H 0.35830 -0.09610 0.25419
 C573 C 0.17935 -0.07196 0.73899
 C574 C 0.15127 -0.07466 0.74390
 C575 C 0.13493 -0.05128 0.74728
 C576 C 0.21108 -0.11530 0.73116
 C577 C 0.17493 -0.02249 0.74139
 C578 C 0.19108 -0.04589 0.73784
 C579 C 0.19632 -0.09579 0.73487
 C580 C 0.14624 -0.02449 0.74572
 H581 H 0.14194 -0.09482 0.74495
 H582 H 0.11317 -0.05407 0.75069
 H583 H 0.18555 -0.00315 0.74065
 H584 H 0.21288 -0.04358 0.73416
 C585 C 0.68091 0.43215 0.23482
 C586 C 0.67989 0.44505 0.26023
 C587 C 0.66194 0.46700 0.26456
 C588 C 0.71377 0.38970 0.22686
 C589 C 0.64655 0.46373 0.21777
 C590 C 0.66448 0.44175 0.21355
 C591 C 0.69887 0.40911 0.23049
 C592 C 0.64399 0.47610 0.24377
 H593 H 0.69292 0.43812 0.27675
 H594 H 0.66163 0.47670 0.28443
 H595 H 0.63520 0.47103 0.20033
 H596 H 0.66564 0.43231 0.19357
 C597 C 0.68173 0.56857 0.26393
 C598 C 0.66518 0.55937 0.28527
 C599 C 0.64701 0.53755 0.28123
 C600 C 0.71486 0.61088 0.27156
 C601 C 0.66234 0.53369 0.23450
 C602 C 0.68055 0.55543 0.23865
 C603 C 0.69989 0.59150 0.26803
 C604 C 0.64432 0.52496 0.25535
 H605 H 0.66640 0.56901 0.30515
 H606 H 0.63553 0.53058 0.29869
 H607 H 0.66189 0.52384 0.21470
 H608 H 0.69364 0.56205 0.22208
 C609 C 0.17934 0.07373 0.76201
 C610 C 0.17579 0.06260 0.73603
 C611 C 0.15878 0.03983 0.73224
 C612 C 0.21348 0.11515 0.77006
 C613 C 0.14805 0.03982 0.78037
 C614 C 0.16524 0.06248 0.78406
 C615 C 0.19786 0.09635 0.76624
 C616 C 0.14494 0.02738 0.75442
 H617 H 0.18647 0.07127 0.71871
 H618 H 0.15703 0.03132 0.71191
 H619 H 0.13762 0.03240 0.79821
 H620 H 0.16768 0.07112 0.80428
 C621 C 0.23081 0.32331 0.07094
 C622 C 0.23337 0.31122 0.04527
 C623 C 0.23858 0.32738 0.02239
 C624 C 0.22359 0.29127 0.11380
 C625 C 0.23794 0.36810 0.05070
 C626 C 0.23261 0.35184 0.07357
 C627 C 0.22666 0.30620 0.09447
 C628 C 0.24241 0.35612 0.02479
 H629 H 0.23137 0.28918 0.04290
 H630 H 0.23933 0.31697 0.00298
 H631 H 0.23935 0.39015 0.05331
 H632 H 0.23014 0.36152 0.09331
 C633 C 0.73738 0.82591 0.57349
 C634 C 0.76313 0.82731 0.56114
 C635 C 0.76701 0.84374 0.53815
 C636 C 0.72905 0.79249 0.61506
 C637 C 0.71956 0.85824 0.54042
 C638 C 0.71575 0.84162 0.56328
 C639 C 0.73292 0.80789 0.59626
 C640 C 0.74509 0.85897 0.52664
 H641 H 0.78015 0.81541 0.56903
 H642 H 0.78709 0.84399 0.52875
 H643 H 0.70216 0.87021 0.53398
 H644 H 0.69578 0.84092 0.57294
 C645 C 0.76014 0.82332 0.42817
 C646 C 0.75902 0.81147 0.45399
 C647 C 0.75541 0.82784 0.47709
 C648 C 0.76834 0.79112 0.38548
 C649 C 0.75378 0.86825 0.44852
 C650 C 0.75719 0.85172 0.42542
 C651 C 0.76448 0.80610 0.40469
 C652 C 0.75356 0.85683 0.47507
 H653 H 0.76097 0.78942 0.45634
 H654 H 0.75406 0.81715 0.49622
 H655 H 0.75185 0.89023 0.44573
 H656 H 0.75773 0.86114 0.40544
 C657 C 0.26627 0.32499 -0.07226
 C658 C 0.28241 0.32266 -0.04886
 C659 C 0.27699 0.33915 -0.02620
 C660 C 0.27448 0.29158 -0.11396
 C661 C 0.23996 0.36124 -0.05068
 C662 C 0.24538 0.34462 -0.07329
 C663 C 0.27085 0.30696 -0.09505
 C664 C 0.25477 0.35788 -0.02609
 H665 H 0.29900 0.30786 -0.04800
 H666 H 0.28968 0.33674 -0.00823
 H667 H 0.22424 0.37668 -0.05294
 H668 H 0.23318 0.34704 -0.09159
 C669 C 0.74092 0.17445 -0.07198
 C670 C 0.73863 0.14588 -0.07350
 C671 C 0.74236 0.12989 -0.05012
 C672 C 0.73198 0.20611 -0.11482
 C673 C 0.75178 0.17097 -0.02395
 C674 C 0.74793 0.18686 -0.04729
 C675 C 0.73606 0.19129 -0.09559
 C676 C 0.74767 0.14217 -0.02449
 H677 H 0.73374 0.13596 -0.09267
 H678 H 0.74034 0.10780 -0.05182
 H679 H 0.75817 0.18164 -0.00574
 H680 H 0.75045 0.20894 -0.04604
 C681 C 0.23704 0.68142 0.43231
 C682 C 0.26053 0.66497 0.43269
 C683 C 0.26518 0.64684 0.45425
 C684 C 0.22808 0.71475 0.39074
 C685 C 0.22303 0.66203 0.47550
 C686 C 0.21849 0.68018 0.45394
 C687 C 0.23211 0.69965 0.40977
 C688 C 0.24589 0.64410 0.47562
 H689 H 0.27539 0.66627 0.41634
 H690 H 0.28420 0.63546 0.45406
 H691 H 0.20837 0.66157 0.49206
 H692 H 0.20046 0.69320 0.45414
 C693 C 0.26359 0.68098 0.56837
 C694 C 0.23990 0.66488 0.56781
 C695 C 0.23506 0.64698 0.54607
 C696 C 0.27261 0.71386 0.61034
 C697 C 0.27740 0.66176 0.52498
 C698 C 0.28213 0.67971 0.54673
 C699 C 0.26865 0.69895 0.59111
 C700 C 0.25437 0.64410 0.52473
 H701 H 0.22503 0.66625 0.58415
 H702 H 0.21590 0.63587 0.54614
 H703 H 0.29206 0.66121 0.50843
 H704 H 0.30029 0.69252 0.54667
 C705 C 0.76167 0.17448 0.07414
 C706 C 0.78148 0.15480 0.06760
 C707 C 0.77809 0.13790 0.04479
 C708 C 0.76984 0.20853 0.11539
 C709 C 0.73449 0.15977 0.03550
 C710 C 0.73792 0.17655 0.05835
 C711 C 0.76599 0.19285 0.09674
 C712 C 0.75512 0.14099 0.02739
 H713 H 0.79968 0.15257 0.08011
 H714 H 0.79359 0.12248 0.04125
 H715 H 0.71598 0.16200 0.02347
 H716 H 0.72217 0.19140 0.06349
 C717 C 0.48768 0.31795 0.56920
 C718 C 0.46621 0.30879 0.58567
 C719 C 0.47029 0.28706 0.60380
 C720 C 0.47969 0.35953 0.53549
 C721 C 0.51739 0.28328 0.58870
 C722 C 0.51319 0.30493 0.57052
 C723 C 0.48341 0.34053 0.55078
 C724 C 0.49637 0.27451 0.60653
 H725 H 0.44617 0.31834 0.58435
 H726 H 0.45268 0.28007 0.61514
 H727 H 0.53733 0.27346 0.58918
 H728 H 0.52987 0.31152 0.55750
 C729 C -0.01376 0.81904 0.06923
 C730 C 0.00986 0.81877 0.08536
 C731 C 0.01493 0.79690 0.10308
 C732 C -0.02283 0.86085 0.03605
 C733 C -0.02707 0.77510 0.08809
 C734 C -0.03202 0.79697 0.07034
 C735 C -0.01891 0.84177 0.05119
 C736 C -0.00409 0.77511 0.10574
 H737 H 0.02453 0.83542 0.08410
 H738 H 0.03403 0.79722 0.11422
 H739 H -0.04153 0.75823 0.08850
 H740 H -0.05012 0.79665 0.05751
 C741 C 0.01332 0.68185 0.06853
 C742 C 0.03185 0.70370 0.06974
 C743 C 0.02736 0.72546 0.08780
 C744 C 0.02172 0.63997 0.03515
 C745 C -0.01465 0.70395 0.10301
 C746 C -0.01005 0.68220 0.08498
 C747 C 0.01803 0.65916 0.05027
 C748 C 0.00458 0.72558 0.10565
 H749 H 0.04980 0.70392 0.05674
 H750 H 0.04198 0.74220 0.08823
 H751 H -0.03360 0.70370 0.11437
 H752 H -0.02489 0.66568 0.08374
 C753 C 0.51682 0.18193 0.56947
 C754 C 0.53817 0.19117 0.58611
 C755 C 0.53394 0.21300 0.60416
 C756 C 0.52455 0.14004 0.53598
 C757 C 0.48696 0.21672 0.58858
 C758 C 0.49130 0.19496 0.57051
 C759 C 0.52114 0.15917 0.55122
 C760 C 0.50785 0.22558 0.60659
 H761 H 0.55821 0.18160 0.58502
 H762 H 0.55144 0.22002 0.61571
 H763 H 0.46701 0.22651 0.58888
 H764 H 0.47471 0.18827 0.55738
 C765 C -0.01213 0.17810 0.42669
 C766 C -0.00851 0.17523 0.39861
 C767 C -0.00493 0.19849 0.38229
 C768 C -0.02003 0.13530 0.45878
 C769 C -0.00775 0.22742 0.42232
 C770 C -0.01152 0.20418 0.43846
 C771 C -0.01642 0.15449 0.44374
 C772 C -0.00518 0.22529 0.39362
 H773 H -0.00861 0.15506 0.38928
 H774 H -0.00249 0.19562 0.36055
 H775 H -0.00686 0.24675 0.43296
 H776 H -0.01394 0.20660 0.46029
 C777 C 0.48322 0.67730 0.92549
 C778 C 0.46671 0.70069 0.92724
 C779 C 0.47172 0.72317 0.91032
 C780 C 0.47611 0.63626 0.96000
 C781 C 0.50894 0.69841 0.88882
 C782 C 0.50393 0.67599 0.90587
 C783 C 0.47926 0.65488 0.94414
 C784 C 0.49391 0.72313 0.89175
 H785 H 0.45023 0.70175 0.94199
 H786 H 0.45888 0.74121 0.91242
 H787 H 0.52464 0.69596 0.87353
 H788 H 0.51639 0.65765 0.90385
 C789 C 0.51848 0.82070 0.92640
 C790 C 0.51664 0.82343 0.89811
 C791 C 0.51112 0.80045 0.88184
 C792 C 0.52577 0.86360 0.95873
 C793 C 0.51039 0.77182 0.92207
 C794 C 0.51580 0.79480 0.93822
 C795 C 0.52273 0.84431 0.94358
 C796 C 0.50647 0.77433 0.89357
 H797 H 0.51923 0.84334 0.88863
 H798 H 0.50973 0.80313 0.85998
 H799 H 0.50962 0.75225 0.93231
 H800 H 0.51786 0.79233 0.96007
 C801 C 0.01062 0.32370 0.42581
 C802 C -0.01530 0.31183 0.42320
 C803 C -0.01902 0.28900 0.40634
 C804 C 0.01871 0.36478 0.46013
 C805 C 0.02897 0.29054 0.39380
 C806 C 0.03261 0.31324 0.41085
 C807 C 0.01488 0.34619 0.44436
 C808 C 0.00322 0.27720 0.39184
 H809 H -0.03257 0.31990 0.43455
 H810 H -0.03923 0.27985 0.40529
 H811 H 0.04670 0.28378 0.38257
 H812 H 0.05275 0.32251 0.41255
 C813 C 0.31814 0.56703 0.48757
 C814 C 0.29656 0.56858 0.46889
 C815 C 0.27494 0.58692 0.47325
 C816 C 0.35989 0.53348 0.47876
 C817 C 0.29606 0.60171 0.51542
 C818 C 0.31767 0.58339 0.51096
 C819 C 0.34076 0.54865 0.48281
 C820 C 0.27475 0.60475 0.49603
 H821 H 0.29646 0.55565 0.45091
 H822 H 0.25839 0.58758 0.45853
 H823 H 0.29615 0.61297 0.53439
 H824 H 0.33398 0.58188 0.52590
 C825 C 0.82204 0.07171 -0.01677
 C826 C 0.79621 0.05971 -0.01395
 C827 C 0.77319 0.07598 -0.00878
 C828 C 0.86512 0.03951 -0.02439
 C829 C 0.80167 0.11663 -0.00999
 C830 C 0.82468 0.10026 -0.01526
 C831 C 0.84570 0.05450 -0.02106
 C832 C 0.77560 0.10477 -0.00530
 H833 H 0.79380 0.03766 -0.01578
 H834 H 0.75366 0.06561 -0.00787
 H835 H 0.80428 0.13869 -0.00886
 H836 H 0.84452 0.10987 -0.01794
 C837 C 0.67800 0.07382 0.01843
 C838 C 0.67696 0.09321 -0.00249
 C839 C 0.69965 0.10987 -0.00789
 C840 C 0.63633 0.03998 0.02618
 C841 C 0.72424 0.08831 0.02921
 C842 C 0.70148 0.07179 0.03462
 C843 C 0.65522 0.05559 0.02285
 C844 C 0.72437 0.10677 0.00697
 H845 H 0.65862 0.09538 -0.01478
 H846 H 0.69737 0.12508 -0.02370
 H847 H 0.74230 0.08607 0.04189
 H848 H 0.70237 0.05714 0.05119
 C849 C 0.18134 0.56824 0.51355
 C850 C 0.18178 0.58447 0.49011
 C851 C 0.20368 0.60229 0.48529
 C852 C 0.13912 0.53553 0.52277
 C853 C 0.22514 0.58719 0.52717
 C854 C 0.20324 0.56934 0.53187
 C855 C 0.15844 0.55037 0.51864
 C856 C 0.22531 0.60497 0.50438
 H857 H 0.16521 0.58326 0.47543
 H858 H 0.20351 0.61353 0.46635
 H859 H 0.24188 0.58761 0.54169
 H860 H 0.20336 0.55648 0.54986
 C861 C 0.17612 0.42687 -0.00874
 C862 C 0.20112 0.43878 -0.00153
 C863 C 0.22443 0.42249 0.00189
 C864 C 0.13338 0.45915 -0.01748
 C865 C 0.19759 0.38197 -0.00829
 C866 C 0.17426 0.39837 -0.01164
 C867 C 0.15261 0.44412 -0.01337
 C868 C 0.22353 0.39379 -0.00281
 H869 H 0.20264 0.46079 0.00146
 H870 H 0.24289 0.43277 0.00848
 H871 H 0.19562 0.35995 -0.01071
 H872 H 0.15484 0.38882 -0.01670
 C873 C 0.67940 0.92929 0.48315
 C874 C 0.70411 0.94098 0.49151
 C875 C 0.72694 0.92447 0.49659
 C876 C 0.63664 0.96177 0.47522
 C877 C 0.70044 0.88421 0.48464
 C878 C 0.67766 0.90089 0.47939
 C879 C 0.65594 0.94667 0.47865
 C880 C 0.72550 0.89548 0.49413
 H881 H 0.70578 0.96303 0.49415
 H882 H 0.74546 0.93505 0.50233
 H883 H 0.69838 0.86223 0.48185
 H884 H 0.65866 0.89159 0.47261
 C885 C 0.82292 0.92701 0.51565
 C886 C 0.82145 0.91149 0.49176
 C887 C 0.79889 0.89448 0.48683
 C888 C 0.86434 0.96116 0.52350
 C889 C 0.77941 0.90815 0.53012
 C890 C 0.80210 0.92495 0.53503
 C891 C 0.84553 0.94549 0.52000
 C892 C 0.77676 0.89315 0.50549
 H893 H 0.83769 0.91269 0.47674
 H894 H 0.79926 0.88279 0.46820
 H895 H 0.76329 0.90756 0.54528
 H896 H 0.80315 0.93669 0.55377
 C897 C 0.32285 0.42492 0.01104
 C898 C 0.30696 0.42720 -0.01253
 C899 C 0.28389 0.41058 -0.01599
 C900 C 0.36415 0.45898 0.01950
 C901 C 0.29328 0.38841 0.02713
 C902 C 0.31630 0.40515 0.03057
 C903 C 0.34548 0.44329 0.01550
 C904 C 0.27569 0.39181 0.00442
 H905 H 0.31215 0.44211 -0.02805
 H906 H 0.27172 0.41301 -0.03431
 H907 H 0.28967 0.37292 0.04240
 H908 H 0.32891 0.40276 0.04860
 C909 C 0.56803 0.48591 0.31746
 C910 C 0.56918 0.51156 0.30476
 C911 C 0.58716 0.51588 0.28302
 C912 C 0.53520 0.47765 0.35954
 C913 C 0.60230 0.46864 0.28605
 C914 C 0.58437 0.46442 0.30783
 C915 C 0.55005 0.48151 0.34030
 C916 C 0.60500 0.49487 0.27390
 H917 H 0.55622 0.52825 0.31170
 H918 H 0.58757 0.53593 0.27349
 H919 H 0.61355 0.45101 0.27875
 H920 H 0.58315 0.44427 0.31709
 C921 C 0.07446 -0.01548 0.82011
 C922 C 0.06298 -0.00496 0.79629
 C923 C 0.07939 0.00019 0.77360
 C924 C 0.04206 -0.02387 0.86244
 C925 C 0.11914 -0.01576 0.79855
 C926 C 0.10255 -0.02106 0.82118
 C927 C 0.05717 -0.02028 0.84336
 C928 C 0.10809 -0.00456 0.77424
 H929 H 0.04118 -0.00072 0.79521
 H930 H 0.06894 0.00783 0.75584
 H931 H 0.14088 -0.02005 0.80013
 H932 H 0.11167 -0.02938 0.83953
 C933 C 0.07568 0.01619 0.67755
 C934 C 0.07938 0.03656 0.69724
 C935 C 0.09625 0.03168 0.71973
 C936 C 0.04153 0.02414 0.63646
 C937 C 0.10655 -0.01372 0.70235
 C938 C 0.08948 -0.00880 0.68002
 C939 C 0.05722 0.02064 0.65512
 C940 C 0.10984 0.00616 0.72323
 H941 H 0.06888 0.05610 0.69545
 H942 H 0.09807 0.04766 0.73498
 H943 H 0.11673 -0.03334 0.70283
 H944 H 0.08687 -0.02467 0.66473
 C945 C 0.56844 0.51578 0.18148
 C946 C 0.58484 0.53717 0.19118
 C947 C 0.60258 0.53287 0.21314
 C948 C 0.53603 0.52372 0.13897
 C949 C 0.58697 0.48580 0.21626
 C950 C 0.56921 0.49021 0.19434
 C951 C 0.55076 0.52015 0.15839
 C952 C 0.60498 0.50666 0.22539
 H953 H 0.58387 0.55729 0.18181
 H954 H 0.61399 0.55039 0.22045
 H955 H 0.58716 0.46579 0.22585
 H956 H 0.55618 0.47361 0.18734
 C957 C 0.42638 -0.01786 0.17853
 C958 C 0.39837 -0.02379 0.17776
 C959 C 0.38187 -0.01826 0.20041
 C960 C 0.45857 -0.02616 0.13598
 C961 C 0.42157 -0.00138 0.22486
 C962 C 0.43788 -0.00676 0.20212
 C963 C 0.44353 -0.02271 0.15516
 C964 C 0.39295 -0.00652 0.22450
 H965 H 0.38921 -0.03250 0.15958
 H966 H 0.36016 -0.02271 0.19899
 H967 H 0.43199 0.00682 0.24241
 H968 H 0.45962 -0.00216 0.20297
 C969 C 0.92427 0.48938 0.67657
 C970 C 0.90457 0.46957 0.68287
 C971 C 0.88771 0.47280 0.70569
 C972 C 0.95832 0.48138 0.63537
 C973 C 0.90968 0.51628 0.71546
 C974 C 0.92641 0.51301 0.69260
 C975 C 0.94266 0.48519 0.65400
 C976 C 0.89089 0.49561 0.72334
 H977 H 0.90230 0.45147 0.67019
 H978 H 0.87228 0.45731 0.70908
 H979 H 0.91200 0.53466 0.72770
 H980 H 0.94128 0.52876 0.68766
 C981 C 0.92539 0.50847 0.82249
 C982 C 0.89689 0.51106 0.82428
 C983 C 0.88061 0.50762 0.80103
 C984 C 0.95754 0.51741 0.86502
 C985 C 0.92123 0.49786 0.77445
 C986 C 0.93741 0.50138 0.79766
 C987 C 0.94255 0.51325 0.84590
 C988 C 0.89253 0.50239 0.77526
 H989 H 0.88726 0.51599 0.84356
 H990 H 0.85859 0.50988 0.80294
 H991 H 0.93161 0.49140 0.75611
 H992 H 0.95942 0.49861 0.79619
 C993 C 0.42510 0.01536 0.32130
 C994 C 0.41147 -0.00971 0.31879
 C995 C 0.39458 -0.01485 0.29635
 C996 C 0.45882 0.02366 0.36272
 C997 C 0.40479 0.03046 0.27889
 C998 C 0.42150 0.03555 0.30147
 C999 C 0.44332 0.02003 0.34392
 C1000 C 0.39125 0.00490 0.27542
 H1001 H 0.41407 -0.02548 0.33414
 H1002 H 0.38457 -0.03453 0.29586
 H1003 H 0.40301 0.04634 0.26357
 H1004 H 0.43193 0.05511 0.30323
   
