data_POSCAR
  _audit_creation_date              2014-09-24
  _audit_creation_method            'ToBaCCo'
  _symmetry_space_group_name_H-M    'P1'
  _symmetry_Int_Tables_number       1
  _symmetry_cell_setting            triclinic
  loop_
  _symmetry_equiv_pos_as_xyz
 x,y,z
_cell_length_a 5.8655
_cell_length_b 5.8655
_cell_length_c 5.8655
_cell_angle_alpha 90.000000
_cell_angle_beta 90.000000
_cell_angle_gamma 90.000000
loop_
  _atom_site_label
  _atom_site_type_symbol
  _atom_site_fract_x
  _atom_site_fract_y
  _atom_site_fract_z
C1 C -0.00075 0.49925 0.25000
 C2 C -0.00075 0.49925 0.75000
 C3 C 0.24925 -0.00075 0.50000
 C4 C 0.74925 -0.00075 0.50000
 C5 C 0.49925 0.24925 1.00000
 C6 C 0.49925 0.74925 1.00000
 B7 B 0.99925 1.23780 0.13536
 B8 B 0.99925 1.23780 -0.13536
 B9 B 1.23780 1.13461 -0.00000
 B10 B 1.13461 0.99925 0.23854
 B11 B 0.86389 0.99925 0.23854
 B12 B 0.76071 1.13461 -0.00000
 B13 B 0.99925 0.76071 -0.13536
 B14 B 0.99925 0.76071 0.13536
 B15 B 0.76071 0.86389 -0.00000
 B16 B 0.86389 0.99925 -0.23854
 B17 B 1.13461 0.99925 -0.23854
 B18 B 1.23780 0.86389 0.00000
 B19 B 0.73780 0.49925 0.36464
 B20 B 0.73780 0.49925 0.63536
 B21 B 0.63461 0.73780 0.50000
 B22 B 0.49925 0.63461 0.26146
 B23 B 0.49925 0.36389 0.26146
 B24 B 0.63461 0.26071 0.50000
 B25 B 0.26071 0.49925 0.63536
 B26 B 0.26071 0.49925 0.36464
 B27 B 0.36389 0.26071 0.50000
 B28 B 0.49925 0.36389 0.73854
 B29 B 0.49925 0.63461 0.73854
 B30 B 0.36389 0.73780 0.50000
   
