data_POSCAR
  _audit_creation_date              2014-09-24
  _audit_creation_method            'ToBaCCo'
  _symmetry_space_group_name_H-M    'P1'
  _symmetry_Int_Tables_number       1
  _symmetry_cell_setting            triclinic
  loop_
  _symmetry_equiv_pos_as_xyz
 x,y,z
_cell_length_a 47.9643
_cell_length_b 47.6517
_cell_length_c 68.3302
_cell_angle_alpha 90.006400
_cell_angle_beta 90.017600
_cell_angle_gamma 120.615300
loop_
  _atom_site_label
  _atom_site_type_symbol
  _atom_site_fract_x
  _atom_site_fract_y
  _atom_site_fract_z
C1 C -0.01621 0.49285 1.25003
 C2 C 0.01679 0.50841 1.24996
 C3 C 0.03592 0.51841 1.26839
 C4 C 0.03556 0.51625 1.23145
 C5 C -0.03524 0.48487 1.23160
 C6 C -0.03508 0.48275 1.26855
 C7 C 0.03277 0.53853 1.28203
 C8 C 0.05072 0.54747 1.29939
 C9 C 0.07275 0.53668 1.30370
 C10 C 0.07591 0.51685 1.28939
 C11 C 0.05792 0.50806 1.27210
 C12 C 0.06007 0.54846 1.22773
 C13 C 0.07768 0.55643 1.21032
 C14 C 0.07125 0.53228 1.19628
 C15 C 0.04712 0.49985 1.20023
 C16 C 0.02955 0.49188 1.21770
 C17 C -0.05980 0.45262 1.22799
 C18 C -0.07756 0.44448 1.21061
 C19 C -0.07123 0.46848 1.19649
 C20 C -0.04706 0.50095 1.20033
 C21 C -0.02934 0.50909 1.21777
 C22 C -0.03114 0.46309 1.28227
 C23 C -0.04885 0.45413 1.29970
 C24 C -0.07115 0.46430 1.30364
 C25 C -0.07550 0.48339 1.28965
 C26 C -0.05770 0.49245 1.27228
 H27 H 0.01609 0.54709 1.27933
 H28 H 0.04561 0.56151 1.30963
 H29 H 0.09338 0.50905 1.29072
 H30 H 0.06115 0.49298 1.26155
 H31 H 0.06532 0.56754 1.23826
 H32 H 0.09655 0.58150 1.20791
 H33 H 0.01113 0.46675 1.22047
 H34 H -0.06496 0.43364 1.23856
 H35 H -0.09645 0.41939 1.20829
 H36 H -0.04150 0.51997 1.18972
 H37 H -0.01089 0.53425 1.22044
 H38 H -0.01428 0.45479 1.27950
 H39 H -0.04478 0.43957 1.31021
 H40 H -0.09295 0.49106 1.29203
 H41 H -0.06136 0.50731 1.26179
 H42 H 0.04150 0.48073 1.18968
 C43 C 0.50926 0.49265 1.25046
 C44 C 0.49277 0.50900 1.25051
 C45 C 0.48213 0.51715 1.26899
 C46 C 0.48444 0.51959 1.23206
 C47 C 0.51770 0.48228 1.23196
 C48 C 0.51976 0.48424 1.26891
 C49 C 0.46306 0.49291 1.28270
 C50 C 0.45366 0.50115 1.30013
 C51 C 0.46284 0.53372 1.30406
 C52 C 0.48131 0.55776 1.29007
 C53 C 0.49078 0.54954 1.27271
 C54 C 0.45215 0.51048 1.22837
 C55 C 0.44374 0.51975 1.21100
 C56 C 0.46750 0.53846 1.19698
 C57 C 0.49998 0.54816 1.20089
 C58 C 0.50840 0.53896 1.21833
 C59 C 0.54998 0.49132 1.22834
 C60 C 0.55847 0.48215 1.21096
 C61 C 0.53479 0.46360 1.19685
 C62 C 0.50231 0.45401 1.20068
 C63 C 0.49382 0.46311 1.21813
 C64 C 0.53870 0.50829 1.28275
 C65 C 0.54789 0.49981 1.30017
 C66 C 0.53862 0.46717 1.30395
 C67 C 0.52030 0.44332 1.28982
 C68 C 0.51104 0.45180 1.27248
 H69 H 0.45560 0.46766 1.27994
 H70 H 0.43959 0.48209 1.31064
 H71 H 0.48821 0.58295 1.29246
 H72 H 0.50517 0.56853 1.26223
 H73 H 0.43337 0.49585 1.23887
 H74 H 0.41862 0.51246 1.20861
 H75 H 0.53356 0.54677 1.22108
 H76 H 0.56871 0.50580 1.23892
 H77 H 0.58358 0.48935 1.20865
 H78 H 0.48353 0.43987 1.19008
 H79 H 0.46866 0.45534 1.22081
 H80 H 0.54621 0.53359 1.28011
 H81 H 0.56185 0.51872 1.31079
 H82 H 0.51334 0.41810 1.29210
 H83 H 0.49673 0.43295 1.26188
 H84 H 0.51881 0.56244 1.19036
 C85 C 0.50815 1.01684 1.24986
 C86 C 0.49125 0.98359 1.24974
 C87 C 0.48238 0.96434 1.26815
 C88 C 0.48070 0.96467 1.23120
 C89 C 0.51860 1.03614 1.23147
 C90 C 0.51702 1.03574 1.26840
 C91 C 0.50599 0.96851 1.28181
 C92 C 0.49715 0.95041 1.29915
 C93 C 0.46432 0.92736 1.30329
 C94 C 0.44094 0.92305 1.28911
 C95 C 0.44991 0.94118 1.27183
 C96 C 0.48928 0.94111 1.22749
 C97 C 0.48002 0.92337 1.21006
 C98 C 0.46182 0.92872 1.19598
 C99 C 0.45266 0.95190 1.19992
 C100 C 0.46187 0.96958 1.21742
 C101 C 0.50960 1.05937 1.22794
 C102 C 0.51873 1.07748 1.21066
 C103 C 0.53745 1.07308 1.19632
 C104 C 0.54698 1.05000 1.20030
 C105 C 0.53774 1.03190 1.21765
 C106 C 0.49339 1.03137 1.28209
 C107 C 0.50221 1.04922 1.29953
 C108 C 0.53504 1.07221 1.30373
 C109 C 0.55844 1.07670 1.28953
 C110 C 0.54949 1.05882 1.27216
 H111 H 0.53131 0.98602 1.27911
 H112 H 0.51623 0.95572 1.30952
 H113 H 0.41563 0.90482 1.29079
 H114 H 0.43136 0.93721 1.26129
 H115 H 0.50350 0.93670 1.23803
 H116 H 0.48689 0.90523 1.20766
 H117 H 0.45446 0.98722 1.22018
 H118 H 0.49527 1.06338 1.23860
 H119 H 0.51190 1.09576 1.20910
 H120 H 0.56049 1.04465 1.18981
 H121 H 0.54530 1.01433 1.22022
 H122 H 0.46807 1.01391 1.27933
 H123 H 0.48312 1.04378 1.30991
 H124 H 0.58375 1.09490 1.29128
 H125 H 0.56805 1.06293 1.26160
 H126 H 0.43878 0.95670 1.18935
 C127 C 1.01698 0.50626 0.75027
 C128 C 0.98412 0.49168 0.75015
 C129 C 0.96529 0.48394 0.73168
 C130 C 0.96518 0.48221 0.76858
 C131 C 1.03555 0.51506 0.76884
 C132 C 1.03620 0.51474 0.73193
 C133 C 0.97168 0.50820 0.71777
 C134 C 0.95414 0.50016 0.70026
 C135 C 0.92971 0.46779 0.69645
 C136 C 0.92287 0.44380 0.71067
 C137 C 0.94043 0.45182 0.72810
 C138 C 0.94604 0.49576 0.77315
 C139 C 0.92765 0.48677 0.79029
 C140 C 0.92759 0.46357 0.80306
 C141 C 0.94681 0.44995 0.79836
 C142 C 0.96545 0.45922 0.78128
 C143 C 1.05506 0.50188 0.77310
 C144 C 1.07315 0.51027 0.79035
 C145 C 1.07269 0.53264 0.80380
 C146 C 1.05281 0.54577 0.79920
 C147 C 1.03459 0.53710 0.78196
 C148 C 1.03050 0.49104 0.71783
 C149 C 1.04842 0.49970 0.70046
 C150 C 1.07274 0.53242 0.69673
 C151 C 1.07863 0.55581 0.71138
 C152 C 1.06072 0.54702 0.72868
 H153 H 0.99038 0.53326 0.72042
 H154 H 0.96006 0.51917 0.68958
 H155 H 0.90375 0.41879 0.70836
 H156 H 0.93490 0.43282 0.73874
 H157 H 0.94560 0.51357 0.76350
 H158 H 0.91367 0.49822 0.79359
 H159 H 0.97977 0.44818 0.77780
 H160 H 1.05590 0.48463 0.76315
 H161 H 1.08649 0.49805 0.79321
 H162 H 1.05215 0.56394 0.80833
 H163 H 1.02011 0.54805 0.77868
 H164 H 1.01188 0.46584 0.72018
 H165 H 1.04198 0.48068 0.68974
 H166 H 1.09788 0.58093 0.71002
 H167 H 1.06585 0.56561 0.73955
 H168 H 0.94694 0.43164 0.80767
 C169 C 0.49162 0.50828 0.74967
 C170 C 0.50822 0.49202 0.74967
 C171 C 0.51670 0.48163 0.73119
 C172 C 0.51877 0.48370 0.76814
 C173 C 0.48109 0.51656 0.76815
 C174 C 0.48310 0.51867 0.73120
 C175 C 0.49285 0.46233 0.71738
 C176 C 0.50140 0.45320 0.69996
 C177 C 0.53391 0.46288 0.69615
 C178 C 0.55756 0.48156 0.71024
 C179 C 0.54902 0.49077 0.72759
 C180 C 0.51011 0.45129 0.77175
 C181 C 0.51941 0.44288 0.78911
 C182 C 0.53771 0.46676 0.80323
 C183 C 0.54692 0.49938 0.79941
 C184 C 0.53769 0.50779 0.78197
 C185 C 0.48979 0.54898 0.77181
 C186 C 0.48056 0.55736 0.78921
 C187 C 0.46231 0.53344 0.80330
 C188 C 0.45304 0.50082 0.79943
 C189 C 0.46218 0.49244 0.78196
 C190 C 0.50690 0.53794 0.71737
 C191 C 0.49831 0.54707 0.69996
 C192 C 0.46580 0.53743 0.69617
 C193 C 0.44219 0.51878 0.71029
 C194 C 0.45078 0.50957 0.72762
 H195 H 0.46767 0.45449 0.72005
 H196 H 0.48263 0.43895 0.68937
 H197 H 0.58269 0.48884 0.70795
 H198 H 0.56772 0.50535 0.73815
 H199 H 0.49583 0.43239 0.76117
 H200 H 0.51250 0.41767 0.79141
 H201 H 0.54516 0.53307 0.77931
 H202 H 0.50406 0.56789 0.76125
 H203 H 0.48751 0.58257 0.79155
 H204 H 0.43913 0.48185 0.81002
 H205 H 0.45469 0.46716 0.77925
 H206 H 0.53209 0.54576 0.72001
 H207 H 0.51704 0.56129 0.68936
 H208 H 0.41706 0.51153 0.70802
 H209 H 0.43210 0.49502 0.73820
 H210 H 0.56085 0.51833 0.81001
 C211 C 0.49070 -0.01725 0.75015
 C212 C 0.50732 0.01600 0.75021
 C213 C 0.51799 0.03514 0.73176
 C214 C 0.51580 0.03503 0.76871
 C215 C 0.48192 -0.03642 0.76858
 C216 C 0.48044 -0.03629 0.73165
 C217 C 0.53707 0.03050 0.71804
 C218 C 0.54636 0.04834 0.70060
 C219 C 0.53707 0.07142 0.69669
 C220 C 0.51863 0.07651 0.71070
 C221 C 0.50925 0.05860 0.72807
 C222 C 0.54814 0.05890 0.77239
 C223 C 0.55667 0.07680 0.78976
 C224 C 0.53300 0.07129 0.80382
 C225 C 0.50047 0.04776 0.79993
 C226 C 0.49193 0.02993 0.78248
 C227 C 0.44952 -0.05988 0.77219
 C228 C 0.44064 -0.07795 0.78949
 C229 C 0.46404 -0.07329 0.80374
 C230 C 0.49680 -0.04994 0.79967
 C231 C 0.50556 -0.03188 0.78232
 C232 C 0.46121 -0.03204 0.71791
 C233 C 0.45213 -0.04989 0.70047
 C234 C 0.46190 -0.07273 0.69631
 C235 C 0.48072 -0.07714 0.71058
 C236 C 0.48970 -0.05927 0.72796
 H237 H 0.54459 0.01295 0.72078
 H238 H 0.56042 0.04372 0.69007
 H239 H 0.51165 0.09457 0.70832
 H240 H 0.49485 0.06279 0.73857
 H241 H 0.56686 0.06345 0.76186
 H242 H 0.58182 0.09520 0.79211
 H243 H 0.46673 0.01205 0.77976
 H244 H 0.43096 -0.06412 0.76160
 H245 H 0.41540 -0.09643 0.79112
 H246 H 0.51588 -0.04435 0.81010
 H247 H 0.53083 -0.01413 0.77967
 H248 H 0.45346 -0.01465 0.72061
 H249 H 0.43853 -0.04453 0.69003
 H250 H 0.48775 -0.09525 0.70888
 H251 H 0.50412 -0.06329 0.73856
 H252 H 0.48169 0.04282 0.81049
 O253 O 0.38111 0.66652 0.97770
 O254 O 0.38190 0.72094 0.98334
 C255 C 0.36141 0.72446 0.97343
 O256 O 0.33140 0.70917 0.97731
 O257 O 0.27705 0.65502 0.98352
 C258 C 0.27338 0.63066 0.97371
 O259 O 0.28833 0.61585 0.97771
 O260 O 0.34168 0.61566 0.98393
 C261 C 0.36597 0.63626 0.97398
 O262 O 0.38274 0.65818 1.01675
 O263 O 0.38067 0.71112 1.02237
 C264 C 0.36502 0.72533 1.02610
 O265 O 0.34041 0.72037 1.01624
 O266 O 0.28762 0.66485 1.02242
 C267 C 0.27318 0.63470 1.02639
 O268 O 0.27766 0.61452 1.01670
 O269 O 0.33264 0.61739 1.02284
 C270 C 0.36266 0.63346 1.02667
 Cr271 Cr 0.37984 0.68827 1.00004
 Cr272 Cr 0.31003 0.68650 0.99988
 Cr273 Cr 0.31093 0.61762 1.00029
 O274 O 0.33361 0.66414 1.00009
 O275 O 0.61925 0.33363 0.97759
 O276 O 0.61778 0.27897 0.98359
 C277 C 0.63798 0.27493 0.97373
 O278 O 0.66801 0.28991 0.97756
 O279 O 0.72278 0.34386 0.98350
 C280 C 0.72657 0.36808 0.97349
 O281 O 0.71197 0.38329 0.97739
 O282 O 0.65908 0.38439 0.98359
 C283 C 0.63464 0.36383 0.97372
 O284 O 0.61803 0.34271 1.01659
 O285 O 0.61941 0.28952 1.02256
 C286 C 0.63475 0.27502 1.02643
 O287 O 0.65916 0.27944 1.01656
 O288 O 0.71238 0.33477 1.02247
 C289 C 0.72714 0.36499 1.02626
 O290 O 0.72296 0.38521 1.01639
 O291 O 0.66837 0.38317 1.02253
 C292 C 0.63837 0.36743 1.02643
 Cr293 Cr 0.62038 0.31210 1.00008
 Cr294 Cr 0.68970 0.31287 1.00002
 Cr295 Cr 0.68974 0.38225 0.99998
 O296 O 0.66659 0.33573 1.00004
 O297 O 0.66871 0.38208 0.52260
 O298 O 0.72332 0.38405 0.51683
 C299 C 0.72756 0.36378 0.52658
 O300 O 0.71291 0.33360 0.52266
 O301 O 0.65965 0.27839 0.51666
 C302 C 0.63507 0.27379 0.52639
 O303 O 0.61967 0.28818 0.52245
 O304 O 0.61846 0.34150 0.51662
 C305 C 0.63869 0.36628 0.52645
 O306 O 0.66014 0.38355 0.48360
 O307 O 0.71330 0.38266 0.47780
 C308 C 0.72773 0.36727 0.47391
 O309 O 0.72331 0.34263 0.48370
 O310 O 0.66867 0.28887 0.47769
 C311 C 0.63871 0.27401 0.47370
 O312 O 0.61842 0.27807 0.48345
 O313 O 0.62005 0.33286 0.47763
 C314 C 0.63559 0.36308 0.47378
 Cr315 Cr 0.69047 0.38129 0.50021
 Cr316 Cr 0.69024 0.31175 0.50018
 Cr317 Cr 0.62094 0.31107 0.50004
 O318 O 0.66721 0.33470 0.50015
 O319 O 0.33085 0.61787 0.52242
 O320 O 0.27623 0.61594 0.51656
 C321 C 0.27221 0.63631 0.52638
 O322 O 0.28692 0.66648 0.52242
 O323 O 0.34011 0.72168 0.51628
 C324 C 0.36462 0.72617 0.52608
 O325 O 0.37990 0.71164 0.52219
 O326 O 0.38112 0.65834 0.51638
 C327 C 0.36088 0.63365 0.52626
 O328 O 0.33947 0.61625 0.48342
 O329 O 0.28639 0.61725 0.47754
 C330 C 0.27187 0.63255 0.47364
 O331 O 0.27616 0.65712 0.48347
 O332 O 0.33086 0.71084 0.47733
 C333 C 0.36083 0.72571 0.47335
 O334 O 0.38113 0.72175 0.48316
 O335 O 0.37949 0.66693 0.47738
 C336 C 0.36399 0.63670 0.47357
 Cr337 Cr 0.30912 0.61861 0.49998
 Cr338 Cr 0.30939 0.68814 0.49987
 Cr339 Cr 0.37863 0.68876 0.49978
 O340 O 0.33239 0.66517 0.49988
 C341 C 0.43461 0.56121 0.35735
 C342 C 0.41299 0.53190 0.34777
 C343 C 0.42220 0.52280 0.33059
 C344 C 0.45325 0.54275 0.32262
 C345 C 0.47501 0.57176 0.33239
 C346 C 0.46579 0.58091 0.34950
 C347 C 0.42460 0.57157 0.37517
 N348 N 0.44430 0.60140 0.38318
 N349 N 0.43513 0.61112 0.39892
 C350 C 0.40587 0.59140 0.40738
 N351 N 0.38620 0.56148 0.39945
 N352 N 0.39536 0.55178 0.38367
 C353 C 0.39546 0.60262 0.42465
 C354 C 0.36644 0.58140 0.43447
 C355 C 0.35640 0.59231 0.45050
 C356 C 0.37506 0.62474 0.45700
 C357 C 0.40417 0.64587 0.44725
 C358 C 0.41428 0.63493 0.43132
 H359 H 0.38876 0.51618 0.35337
 H360 H 0.40475 0.50047 0.32331
 H361 H 0.49930 0.58738 0.32683
 H362 H 0.48316 0.60351 0.35656
 H363 H 0.35138 0.55635 0.42975
 H364 H 0.33380 0.57541 0.45764
 H365 H 0.41917 0.67099 0.45188
 H366 H 0.43674 0.65197 0.42410
 C367 C 0.43579 0.87135 0.35601
 C368 C 0.41405 0.87752 0.34585
 C369 C 0.42343 0.89600 0.32870
 C370 C 0.45503 0.90905 0.32101
 C371 C 0.47688 0.90306 0.33153
 C372 C 0.46737 0.88449 0.34870
 C373 C 0.42534 0.85097 0.37395
 N374 N 0.44625 0.84507 0.38404
 N375 N 0.43657 0.82627 0.39995
 C376 C 0.40556 0.81256 0.40645
 N377 N 0.38472 0.81857 0.39639
 N378 N 0.39439 0.83736 0.38051
 C379 C 0.39446 0.79106 0.42391
 C380 C 0.36192 0.77577 0.42991
 C381 C 0.35114 0.75485 0.44603
 C382 C 0.37263 0.74873 0.45662
 C383 C 0.40526 0.76429 0.45077
 C384 C 0.41604 0.78519 0.43459
 H385 H 0.38961 0.86814 0.35117
 H386 H 0.40589 0.90084 0.32200
 H387 H 0.50107 0.91131 0.32622
 H388 H 0.48474 0.88006 0.35609
 H389 H 0.34460 0.77971 0.42205
 H390 H 0.32584 0.74331 0.45011
 H391 H 0.42246 0.76008 0.45857
 H392 H 0.44128 0.79658 0.43040
 C393 C 0.12770 0.56295 0.35604
 C394 C 0.12274 0.53596 0.34506
 C395 C 0.10448 0.52715 0.32786
 C396 C 0.09029 0.54507 0.32082
 C397 C 0.09521 0.57206 0.33232
 C398 C 0.11358 0.58078 0.34952
 C399 C 0.14780 0.57257 0.37405
 N400 N 0.15295 0.59884 0.38475
 N401 N 0.17149 0.60771 0.40071
 C402 C 0.18568 0.59071 0.40667
 N403 N 0.18042 0.56439 0.39600
 N404 N 0.16190 0.55552 0.38005
 C405 C 0.20692 0.60091 0.42418
 C406 C 0.22224 0.58370 0.42985
 C407 C 0.24298 0.59375 0.44601
 C408 C 0.24891 0.62126 0.45694
 C409 C 0.23330 0.63827 0.45142
 C410 C 0.21256 0.62822 0.43523
 H411 H 0.13286 0.52130 0.34979
 H412 H 0.10056 0.50513 0.32085
 H413 H 0.08663 0.58806 0.32780
 H414 H 0.11710 0.60193 0.35755
 H415 H 0.21847 0.56254 0.42171
 H416 H 0.25458 0.58006 0.44982
 H417 H 0.23735 0.65959 0.45949
 H418 H 0.20115 0.64204 0.43130
 C419 C 0.56613 0.43905 0.35726
 C420 C 0.53505 0.41943 0.34925
 C421 C 0.52607 0.42877 0.33211
 C422 C 0.54797 0.45789 0.32251
 C423 C 0.57892 0.47773 0.33063
 C424 C 0.58789 0.46844 0.34783
 C425 C 0.57589 0.42854 0.37512
 N426 N 0.60499 0.44830 0.38379
 N427 N 0.61395 0.43850 0.39961
 C428 C 0.59422 0.40850 0.40741
 N429 N 0.56510 0.38880 0.39878
 N430 N 0.55612 0.39862 0.38299
 C431 C 0.60444 0.39721 0.42473
 C432 C 0.58560 0.36486 0.43131
 C433 C 0.59559 0.35388 0.44729
 C434 C 0.62458 0.37503 0.45717
 C435 C 0.64324 0.40749 0.45074
 C436 C 0.63332 0.41843 0.43468
 H437 H 0.51758 0.39676 0.35619
 H438 H 0.50184 0.41323 0.32643
 H439 H 0.59647 0.50013 0.32347
 H440 H 0.61205 0.48409 0.35356
 H441 H 0.56324 0.34782 0.42400
 H442 H 0.58061 0.32873 0.45186
 H443 H 0.66574 0.42441 0.45798
 H444 H 0.64839 0.44352 0.43004
 C445 C 0.56352 0.12787 0.35658
 C446 C 0.58526 0.12170 0.34642
 C447 C 0.57587 0.10331 0.32922
 C448 C 0.54430 0.09035 0.32151
 C449 C 0.52244 0.09629 0.33206
 C450 C 0.53195 0.11478 0.34926
 C451 C 0.57399 0.14824 0.37453
 N452 N 0.55311 0.15419 0.38459
 N453 N 0.56282 0.17303 0.40049
 C454 C 0.59384 0.18674 0.40699
 N455 N 0.61465 0.18068 0.39696
 N456 N 0.60495 0.16185 0.38109
 C457 C 0.60498 0.20833 0.42441
 C458 C 0.63753 0.22366 0.43040
 C459 C 0.64835 0.24469 0.44647
 C460 C 0.62688 0.25088 0.45702
 C461 C 0.59423 0.23529 0.45118
 C462 C 0.58341 0.21427 0.43505
 H463 H 0.60969 0.13105 0.35175
 H464 H 0.59341 0.09848 0.32250
 H465 H 0.49827 0.08810 0.32673
 H466 H 0.51459 0.11920 0.35667
 H467 H 0.65483 0.21967 0.42257
 H468 H 0.67365 0.25626 0.45055
 H469 H 0.57705 0.23954 0.45895
 H470 H 0.55817 0.20286 0.43087
 C471 C 0.87292 0.43693 0.35696
 C472 C 0.87937 0.41474 0.34735
 C473 C 0.89767 0.42365 0.33014
 C474 C 0.91005 0.45499 0.32218
 C475 C 0.90399 0.47731 0.33194
 C476 C 0.88560 0.46837 0.34909
 C477 C 0.85268 0.42723 0.37488
 N478 N 0.84333 0.44726 0.38284
 N479 N 0.82459 0.43833 0.39870
 C480 C 0.81445 0.40899 0.40731
 N481 N 0.82393 0.38901 0.39940
 N482 N 0.84262 0.39792 0.38352
 C483 C 0.79302 0.39878 0.42471
 C484 C 0.78490 0.36978 0.43468
 C485 C 0.76408 0.35979 0.45080
 C486 C 0.75075 0.37848 0.45728
 C487 C 0.75907 0.40760 0.44740
 C488 C 0.78003 0.41767 0.43136
 H489 H 0.86989 0.39028 0.35296
 H490 H 0.90156 0.40575 0.32285
 H491 H 0.91366 0.50183 0.32639
 H492 H 0.88133 0.48617 0.35618
 H493 H 0.79452 0.35467 0.42999
 H494 H 0.75812 0.33719 0.45803
 H495 H 0.74927 0.42260 0.45201
 H496 H 0.78572 0.44012 0.42403
 C497 C 0.56288 0.43631 1.14342
 C498 C 0.53374 0.41427 1.15287
 C499 C 0.52447 0.42316 1.17010
 C500 C 0.54407 0.45432 1.17826
 C501 C 0.57294 0.47649 1.16864
 C502 C 0.58225 0.46759 1.15147
 C503 C 0.57334 0.42664 1.12550
 N504 N 0.60302 0.44667 1.11761
 N505 N 0.61278 0.43778 1.10176
 C506 C 0.59326 0.40849 1.09309
 N507 N 0.56351 0.38850 1.10092
 N508 N 0.55377 0.39737 1.11680
 C509 C 0.60448 0.39837 1.07569
 C510 C 0.58342 0.36932 1.06570
 C511 C 0.59428 0.35949 1.04957
 C512 C 0.62650 0.37839 1.04310
 C513 C 0.64748 0.40754 1.05301
 C514 C 0.63658 0.41746 1.06906
 H515 H 0.51827 0.38995 1.14712
 H516 H 0.50228 0.40539 1.17727
 H517 H 0.58829 0.50088 1.17434
 H518 H 0.60472 0.48528 1.14452
 H519 H 0.55853 0.35406 1.07038
 H520 H 0.57750 0.33685 1.04231
 H521 H 0.67243 0.42271 1.04841
 H522 H 0.65348 0.43995 1.07640
 C523 C 0.87329 0.44110 1.14295
 C524 C 0.88157 0.47058 1.15238
 C525 C 0.89981 0.47966 1.16965
 C526 C 0.91021 0.45948 1.17785
 C527 C 0.90237 0.43028 1.16825
 C528 C 0.88411 0.42118 1.15104
 C529 C 0.85300 0.43075 1.12502
 N530 N 0.84262 0.40092 1.11705
 N531 N 0.82379 0.39119 1.10123
 C532 C 0.81455 0.41088 1.09265
 N533 N 0.82507 0.44081 1.10055
 N534 N 0.84387 0.45053 1.11641
 C535 C 0.79294 0.39959 1.07529
 C536 C 0.78519 0.42064 1.06543
 C537 C 0.76419 0.40959 1.04936
 C538 C 0.75033 0.37720 1.04284
 C539 C 0.75829 0.35625 1.05262
 C540 C 0.77939 0.36733 1.06860
 H541 H 0.87360 0.48648 1.14659
 H542 H 0.90518 0.50215 1.17680
 H543 H 0.91052 0.41449 1.17398
 H544 H 0.87841 0.39843 1.14412
 H545 H 0.79523 0.44565 1.07017
 H546 H 0.75850 0.42634 1.04219
 H547 H 0.74811 0.33117 1.04798
 H548 H 0.78477 0.35042 1.07583
 C549 C 0.56464 0.12900 1.14357
 C550 C 0.53682 0.12281 1.15392
 C551 C 0.52782 0.10435 1.17108
 C552 C 0.54637 0.09135 1.17858
 C553 C 0.57409 0.09731 1.16786
 C554 C 0.58306 0.11588 1.15068
 C555 C 0.57448 0.14939 1.12564
 N556 N 0.60132 0.15552 1.11542
 N557 N 0.61036 0.17436 1.09953
 C558 C 0.59296 0.18787 1.09318
 N559 N 0.56608 0.18162 1.10336
 N560 N 0.55705 0.16281 1.11923
 C561 C 0.60328 0.20943 1.07575
 C562 C 0.58584 0.22439 1.06987
 C563 C 0.59589 0.24538 1.05379
 C564 C 0.62362 0.25191 1.04312
 C565 C 0.64089 0.23668 1.04884
 C566 C 0.63085 0.21570 1.06498
 H567 H 0.52177 0.13217 1.14876
 H568 H 0.50549 0.09951 1.17794
 H569 H 0.59001 0.08906 1.17301
 H570 H 0.60478 0.12030 1.14313
 H571 H 0.56448 0.22014 1.07780
 H572 H 0.58198 0.25665 1.04981
 H573 H 0.66239 0.24120 1.04097
 H574 H 0.64485 0.20458 1.06907
 C575 C 0.43945 0.56564 1.14351
 C576 C 0.42024 0.53427 1.15146
 C577 C 0.42957 0.52541 1.16864
 C578 C 0.45826 0.54772 1.17837
 C579 C 0.47771 0.57896 1.17031
 C580 C 0.46843 0.58782 1.15306
 C581 C 0.42890 0.57525 1.12560
 N582 N 0.44823 0.60467 1.11701
 N583 N 0.43836 0.61346 1.10115
 C584 C 0.40872 0.59324 1.09324
 N585 N 0.38946 0.56380 1.10180
 N586 N 0.39935 0.55499 1.11762
 C587 C 0.39731 0.60323 1.07588
 C588 C 0.36526 0.58382 1.06923
 C589 C 0.35412 0.59354 1.05321
 C590 C 0.37482 0.62282 1.04335
 C591 C 0.40700 0.64207 1.04983
 C592 C 0.41809 0.63242 1.06595
 H593 H 0.39790 0.51647 1.14443
 H594 H 0.41435 0.50096 1.17427
 H595 H 0.49978 0.59683 1.17756
 H596 H 0.48376 0.61221 1.14738
 H597 H 0.34856 0.56121 1.07653
 H598 H 0.32921 0.57810 1.04859
 H599 H 0.42355 0.66481 1.04260
 H600 H 0.44294 0.64792 1.07065
 C601 C 0.12661 0.55914 1.14276
 C602 C 0.11569 0.57907 1.15070
 C603 C 0.09745 0.57012 1.16790
 C604 C 0.08973 0.54107 1.17764
 C605 C 0.10019 0.52086 1.16957
 C606 C 0.11842 0.52978 1.15232
 C607 C 0.14694 0.56936 1.12487
 N608 N 0.15629 0.54962 1.11645
 N609 N 0.17517 0.55926 1.10063
 C610 C 0.18555 0.58906 1.09259
 N611 N 0.17608 0.60871 1.10098
 N612 N 0.15718 0.59906 1.11676
 C613 C 0.20726 0.60028 1.07530
 C614 C 0.22061 0.63243 1.06847
 C615 C 0.24178 0.64345 1.05254
 C616 C 0.25001 0.62256 1.04295
 C617 C 0.23636 0.59027 1.04962
 C618 C 0.21528 0.57928 1.06564
 H619 H 0.12132 0.60172 1.14368
 H620 H 0.08925 0.58593 1.17354
 H621 H 0.09491 0.49848 1.17683
 H622 H 0.12647 0.51387 1.14664
 H623 H 0.21501 0.64930 1.07554
 H624 H 0.25178 0.66845 1.04778
 H625 H 0.24225 0.57357 1.04259
 H626 H 0.20540 0.55436 1.07050
 C627 C 0.43438 0.87296 1.14244
 C628 C 0.46545 0.88514 1.15046
 C629 C 0.47441 0.90351 1.16766
 C630 C 0.45250 0.91010 1.17733
 C631 C 0.42159 0.89835 1.16918
 C632 C 0.41263 0.88001 1.15192
 C633 C 0.42463 0.85251 1.12453
 N634 N 0.39546 0.84230 1.11592
 N635 N 0.38651 0.82332 1.10009
 C636 C 0.40632 0.81369 1.09223
 N637 N 0.43552 0.82401 1.10080
 N638 N 0.44448 0.84302 1.11659
 C639 C 0.39612 0.79186 1.07493
 C640 C 0.41510 0.77900 1.06833
 C641 C 0.40512 0.75765 1.05241
 C642 C 0.37600 0.74877 1.04261
 C643 C 0.35720 0.76196 1.04903
 C644 C 0.36711 0.78319 1.06504
 H645 H 0.48292 0.88041 1.14348
 H646 H 0.49861 0.91272 1.17335
 H647 H 0.40404 0.90272 1.17638
 H648 H 0.38849 0.87097 1.14618
 H649 H 0.43756 0.78510 1.07560
 H650 H 0.42023 0.74800 1.04785
 H651 H 0.33460 0.75556 1.04184
 H652 H 0.35193 0.79269 1.06970
 C653 C 0.56225 0.43543 0.64288
 C654 C 0.53313 0.41337 0.65233
 C655 C 0.52376 0.42232 0.66951
 C656 C 0.54326 0.45354 0.67760
 C657 C 0.57210 0.47574 0.66797
 C658 C 0.58151 0.46678 0.65086
 C659 C 0.57284 0.42569 0.62504
 N660 N 0.60253 0.44575 0.61717
 N661 N 0.61241 0.43682 0.60140
 C662 C 0.59302 0.40744 0.59278
 N663 N 0.56325 0.38743 0.60059
 N664 N 0.55339 0.39634 0.61639
 C665 C 0.60438 0.39728 0.57547
 C666 C 0.58344 0.36815 0.56552
 C667 C 0.59443 0.35828 0.54947
 C668 C 0.62668 0.37723 0.54305
 C669 C 0.64754 0.40646 0.55292
 C670 C 0.63650 0.41640 0.56890
 H671 H 0.51774 0.38900 0.64663
 H672 H 0.50158 0.40454 0.67668
 H673 H 0.58737 0.50018 0.67362
 H674 H 0.60396 0.48448 0.64390
 H675 H 0.55853 0.35286 0.57016
 H676 H 0.57774 0.33559 0.54223
 H677 H 0.67251 0.42167 0.54836
 H678 H 0.65332 0.43896 0.57621
 C679 C 0.56485 0.12740 0.64325
 C680 C 0.58657 0.12040 0.65282
 C681 C 0.57752 0.10204 0.67006
 C682 C 0.54653 0.09021 0.67810
 C683 C 0.52467 0.09680 0.66836
 C684 C 0.53373 0.11521 0.65117
 C685 C 0.57469 0.14775 0.62532
 N686 N 0.55497 0.15737 0.61731
 N687 N 0.56402 0.17624 0.60146
 C688 C 0.59316 0.18627 0.59290
 N689 N 0.61283 0.17653 0.60084
 N690 N 0.60380 0.15770 0.61672
 C691 C 0.60347 0.20790 0.57552
 C692 C 0.63237 0.21614 0.56564
 C693 C 0.64242 0.23716 0.54954
 C694 C 0.62387 0.25056 0.54300
 C695 C 0.59485 0.24212 0.55278
 C696 C 0.58473 0.22098 0.56880
 H697 H 0.61076 0.12947 0.64715
 H698 H 0.59504 0.09770 0.67732
 H699 H 0.50042 0.08753 0.67397
 H700 H 0.51629 0.11991 0.64413
 H701 H 0.64736 0.20646 0.57039
 H702 H 0.66494 0.24321 0.54238
 H703 H 0.57996 0.25196 0.54813
 H704 H 0.56236 0.21520 0.57605
 C705 C 0.87447 0.44037 0.64287
 C706 C 0.88300 0.47004 0.65215
 C707 C 0.90123 0.47917 0.66942
 C708 C 0.91135 0.45886 0.67776
 C709 C 0.90332 0.42952 0.66827
 C710 C 0.88508 0.42036 0.65107
 C711 C 0.85406 0.42991 0.62500
 N712 N 0.84341 0.39992 0.61718
 N713 N 0.82443 0.39007 0.60143
 C714 C 0.81528 0.40978 0.59278
 N715 N 0.82605 0.43986 0.60053
 N716 N 0.84502 0.44970 0.61632
 C717 C 0.79350 0.39838 0.57551
 C718 C 0.78583 0.41945 0.56562
 C719 C 0.76473 0.40837 0.54960
 C720 C 0.75070 0.37591 0.54317
 C721 C 0.75854 0.35492 0.55300
 C722 C 0.77974 0.36604 0.56893
 H723 H 0.87519 0.48602 0.64626
 H724 H 0.90677 0.50178 0.67648
 H725 H 0.91127 0.41363 0.67412
 H726 H 0.87919 0.39748 0.64425
 H727 H 0.79603 0.44452 0.57027
 H728 H 0.75914 0.42516 0.54239
 H729 H 0.74822 0.32979 0.54843
 H730 H 0.78506 0.34911 0.57620
 C731 C 0.43733 0.56486 0.64292
 C732 C 0.41804 0.53354 0.65093
 C733 C 0.42749 0.52460 0.66804
 C734 C 0.45639 0.54676 0.67763
 C735 C 0.47591 0.57795 0.66951
 C736 C 0.46651 0.58689 0.65234
 C737 C 0.42672 0.57457 0.62506
 N738 N 0.44619 0.60387 0.61638
 N739 N 0.43632 0.61275 0.60056
 C740 C 0.40653 0.59274 0.59276
 N741 N 0.38712 0.56342 0.60142
 N742 N 0.39700 0.55451 0.61720
 C743 C 0.39517 0.60286 0.57542
 C744 C 0.36304 0.58372 0.56883
 C745 C 0.35202 0.59359 0.55282
 C746 C 0.37289 0.62276 0.54290
 C747 C 0.40513 0.64173 0.54933
 C748 C 0.41612 0.63193 0.56543
 H749 H 0.39554 0.51586 0.64400
 H750 H 0.41219 0.50018 0.67370
 H751 H 0.49814 0.59572 0.67666
 H752 H 0.48192 0.61123 0.64662
 H753 H 0.34622 0.56120 0.57617
 H754 H 0.32704 0.57837 0.54825
 H755 H 0.42184 0.66438 0.54207
 H756 H 0.44103 0.64723 0.57008
 C757 C 0.43499 0.87197 0.64333
 C758 C 0.46290 0.87827 0.65362
 C759 C 0.47182 0.89654 0.67086
 C760 C 0.45309 0.90923 0.67849
 C761 C 0.42527 0.90316 0.66783
 C762 C 0.41639 0.88479 0.65057
 C763 C 0.42520 0.85173 0.62533
 N764 N 0.39825 0.84548 0.61519
 N765 N 0.38922 0.82673 0.59926
 C766 C 0.40675 0.81344 0.59278
 N767 N 0.43374 0.81981 0.60288
 N768 N 0.44277 0.83854 0.61880
 C769 C 0.39640 0.79192 0.57533
 C770 C 0.41392 0.77709 0.56935
 C771 C 0.40378 0.75607 0.55328
 C772 C 0.37589 0.74938 0.54272
 C773 C 0.35856 0.76451 0.54853
 C774 C 0.36869 0.78551 0.56466
 H775 H 0.47809 0.86913 0.64835
 H776 H 0.49422 0.90148 0.67768
 H777 H 0.40921 0.91117 0.67309
 H778 H 0.39459 0.88027 0.64307
 H779 H 0.43538 0.78145 0.57720
 H780 H 0.41773 0.74488 0.54922
 H781 H 0.33695 0.75986 0.54074
 H782 H 0.35463 0.79653 0.56883
 C783 C 0.12780 0.56082 0.64382
 C784 C 0.12329 0.58327 0.65457
 C785 C 0.10512 0.57392 0.67179
 C786 C 0.09072 0.54165 0.67894
 C787 C 0.09497 0.51908 0.66781
 C788 C 0.11329 0.52857 0.65058
 C789 C 0.14792 0.57127 0.62583
 N790 N 0.15293 0.54995 0.61539
 N791 N 0.17155 0.55968 0.59945
 C792 C 0.18594 0.59113 0.59328
 N793 N 0.18082 0.61237 0.60368
 N794 N 0.16223 0.60266 0.61959
 C795 C 0.20727 0.60231 0.57580
 C796 C 0.22276 0.63515 0.56997
 C797 C 0.24354 0.64604 0.55385
 C798 C 0.24933 0.62436 0.54310
 C799 C 0.23357 0.59142 0.54878
 C800 C 0.21279 0.58052 0.56495
 H801 H 0.13376 0.60826 0.64969
 H802 H 0.10161 0.59210 0.67898
 H803 H 0.08554 0.49427 0.67269
 H804 H 0.11639 0.51063 0.64270
 H805 H 0.21909 0.65264 0.57795
 H806 H 0.25523 0.67158 0.54990
 H807 H 0.23752 0.57406 0.54085
 H808 H 0.20124 0.55505 0.56902
 C809 C 0.43510 0.56123 0.85688
 C810 C 0.41332 0.53186 0.84742
 C811 C 0.42218 0.52268 0.83013
 C812 C 0.45305 0.54263 0.82194
 C813 C 0.47497 0.57173 0.83156
 C814 C 0.46609 0.58095 0.84879
 C815 C 0.42545 0.57159 0.87486
 N816 N 0.44520 0.60151 0.88275
 N817 N 0.43632 0.61119 0.89864
 C818 C 0.40734 0.59134 0.90737
 N819 N 0.38764 0.56134 0.89954
 N820 N 0.39649 0.55168 0.88361
 C821 C 0.39720 0.60248 0.92480
 C822 C 0.36848 0.58110 0.93483
 C823 C 0.35858 0.59191 0.95096
 C824 C 0.37708 0.62441 0.95737
 C825 C 0.40592 0.64571 0.94743
 C826 C 0.41591 0.63485 0.93138
 H827 H 0.38922 0.51612 0.85321
 H828 H 0.40461 0.50030 0.82297
 H829 H 0.49913 0.58735 0.82583
 H830 H 0.48358 0.60361 0.85574
 H831 H 0.35352 0.55599 0.93019
 H832 H 0.33618 0.57488 0.95825
 H833 H 0.42078 0.67089 0.95198
 H834 H 0.43814 0.65201 0.92400
 C835 C 0.13016 0.56013 0.85582
 C836 C 0.10273 0.56337 0.85466
 C837 C 0.08378 0.55426 0.83769
 C838 C 0.09177 0.54177 0.82120
 C839 C 0.11960 0.53882 0.82260
 C840 C 0.13830 0.54771 0.83962
 C841 C 0.15035 0.56976 0.87376
 N842 N 0.17344 0.56158 0.87608
 N843 N 0.19187 0.57043 0.89206
 C844 C 0.18810 0.58796 0.90640
 N845 N 0.16499 0.59615 0.90410
 N846 N 0.14645 0.58718 0.88813
 C847 C 0.20911 0.59824 0.92399
 C848 C 0.20955 0.62118 0.93713
 C849 C 0.23022 0.63157 0.95336
 C850 C 0.25068 0.61903 0.95690
 C851 C 0.24986 0.59573 0.94392
 C852 C 0.22942 0.58556 0.92763
 H853 H 0.09557 0.57255 0.86699
 H854 H 0.06221 0.55604 0.83804
 H855 H 0.12817 0.53093 0.81036
 H856 H 0.15957 0.54532 0.83990
 H857 H 0.19425 0.63148 0.93473
 H858 H 0.23023 0.64953 0.96308
 H859 H 0.26537 0.58563 0.94616
 H860 H 0.22962 0.56777 0.91787
 C861 C 0.43575 0.87068 0.85641
 C862 C 0.41385 0.87655 0.84620
 C863 C 0.42316 0.89506 0.82907
 C864 C 0.45484 0.90842 0.82145
 C865 C 0.47686 0.90276 0.83204
 C866 C 0.46741 0.88416 0.84919
 C867 C 0.42537 0.85022 0.87431
 N868 N 0.44643 0.84461 0.88445
 N869 N 0.43681 0.82571 0.90031
 C870 C 0.40571 0.81160 0.90670
 N871 N 0.38471 0.81731 0.89659
 N872 N 0.39433 0.83620 0.88076
 C873 C 0.39469 0.78999 0.92410
 C874 C 0.36207 0.77424 0.92997
 C875 C 0.35138 0.75323 0.94605
 C876 C 0.37306 0.74749 0.95671
 C877 C 0.40577 0.76349 0.95098
 C878 C 0.41645 0.78447 0.93485
 H879 H 0.38934 0.86690 0.85147
 H880 H 0.40549 0.89966 0.82232
 H881 H 0.50113 0.91128 0.82678
 H882 H 0.48491 0.87997 0.85663
 H883 H 0.34461 0.77789 0.92205
 H884 H 0.32603 0.74134 0.95004
 H885 H 0.42311 0.75958 0.95885
 H886 H 0.44175 0.79622 0.93076
 C887 C 0.56527 0.43886 0.85665
 C888 C 0.58696 0.46828 0.84722
 C889 C 0.57798 0.47749 0.82999
 C890 C 0.54709 0.45754 0.82182
 C891 C 0.52526 0.42838 0.83141
 C892 C 0.53425 0.41913 0.84859
 C893 C 0.57503 0.42847 0.87458
 N894 N 0.55530 0.39855 0.88248
 N895 N 0.56426 0.38886 0.89833
 C896 C 0.59331 0.40868 0.90702
 N897 N 0.61299 0.43867 0.89918
 N898 N 0.60406 0.44834 0.88329
 C899 C 0.60350 0.39754 0.92443
 C900 C 0.63232 0.41888 0.93441
 C901 C 0.64221 0.40808 0.95056
 C902 C 0.62360 0.37565 0.95705
 C903 C 0.59467 0.35439 0.94716
 C904 C 0.58470 0.36523 0.93109
 H905 H 0.61108 0.48403 0.85299
 H906 H 0.59549 0.49992 0.82284
 H907 H 0.50107 0.41275 0.82571
 H908 H 0.51682 0.39643 0.85552
 H909 H 0.64736 0.44394 0.92971
 H910 H 0.66468 0.42508 0.95780
 H911 H 0.57972 0.32926 0.95177
 H912 H 0.56238 0.34810 0.92376
 C913 C 0.86855 0.43479 0.85520
 C914 C 0.89901 0.43723 0.85536
 C915 C 0.91821 0.44658 0.83849
 C916 C 0.90723 0.45340 0.82103
 C917 C 0.87656 0.45053 0.82087
 C918 C 0.85756 0.44154 0.83776
 C919 C 0.84829 0.42544 0.87309
 N920 N 0.82279 0.43030 0.87425
 N921 N 0.80446 0.42192 0.89025
 C922 C 0.81073 0.40817 0.90577
 N923 N 0.83621 0.40325 0.90462
 N924 N 0.85468 0.41181 0.88863
 C925 C 0.78997 0.39855 0.92344
 C926 C 0.79102 0.37751 0.93745
 C927 C 0.77058 0.36770 0.95378
 C928 C 0.74897 0.37907 0.95656
 C929 C 0.74833 0.40053 0.94270
 C930 C 0.76845 0.41001 0.92629
 H931 H 0.90825 0.43237 0.86860
 H932 H 0.94188 0.44899 0.83923
 H933 H 0.86700 0.45488 0.80760
 H934 H 0.83407 0.43956 0.83707
 H935 H 0.80727 0.36818 0.93565
 H936 H 0.77169 0.35118 0.96420
 H937 H 0.73187 0.40964 0.94435
 H938 H 0.76713 0.42636 0.91583
 C939 C 0.56134 0.12762 0.85717
 C940 C 0.58052 0.11592 0.84921
 C941 C 0.57111 0.09737 0.83207
 C942 C 0.54234 0.09014 0.82240
 C943 C 0.52292 0.10147 0.83046
 C944 C 0.53228 0.11997 0.84766
 C945 C 0.57194 0.14816 0.87504
 N946 N 0.55255 0.15766 0.88366
 N947 N 0.56243 0.17665 0.89949
 C948 C 0.59215 0.18702 0.90734
 N949 N 0.61148 0.17744 0.89874
 N950 N 0.60158 0.15841 0.88295
 C951 C 0.60354 0.20881 0.92467
 C952 C 0.63564 0.22250 0.93128
 C953 C 0.64672 0.24374 0.94727
 C954 C 0.62591 0.25167 0.95712
 C955 C 0.59369 0.23767 0.95067
 C956 C 0.58266 0.21655 0.93460
 H957 H 0.60292 0.12112 0.85621
 H958 H 0.58632 0.08851 0.82644
 H959 H 0.50080 0.09664 0.82325
 H960 H 0.51696 0.12865 0.85335
 H961 H 0.65242 0.21711 0.92398
 H962 H 0.67167 0.25404 0.95186
 H963 H 0.57704 0.24332 0.95789
 H964 H 0.55777 0.20640 0.92993
   
