data_POSCAR
  _audit_creation_date              2014-09-24
  _audit_creation_method            'ToBaCCo'
  _symmetry_space_group_name_H-M    'P1'
  _symmetry_Int_Tables_number       1
  _symmetry_cell_setting            triclinic
  loop_
  _symmetry_equiv_pos_as_xyz
 x,y,z
_cell_length_a 48.5732
_cell_length_b 48.4008
_cell_length_c 48.5443
_cell_angle_alpha 90.000600
_cell_angle_beta 89.920800
_cell_angle_gamma 89.928900
loop_
  _atom_site_label
  _atom_site_type_symbol
  _atom_site_fract_x
  _atom_site_fract_y
  _atom_site_fract_z
C1 C 0.60461 0.64482 0.62573
 C2 C 0.60460 0.62434 0.64612
 C3 C 0.62504 0.60386 0.64616
 C4 C 0.64553 0.60393 0.62577
 C5 C 0.64554 0.62441 0.60537
 C6 C 0.62507 0.64483 0.60536
 H7 H 0.58872 0.62437 0.66187
 H8 H 0.66140 0.58813 0.62574
 H9 H 0.62507 0.66067 0.58956
 C10 C 0.89598 0.35398 0.12537
 C11 C 0.87559 0.35403 0.10495
 C12 C 0.85525 0.37458 0.10489
 C13 C 0.85533 0.39512 0.12523
 C14 C 0.87574 0.39514 0.14559
 C15 C 0.89604 0.37457 0.14567
 H16 H 0.87550 0.33815 0.08917
 H17 H 0.83959 0.41103 0.12520
 H18 H 0.91181 0.37462 0.16148
 C19 C 0.39543 0.14553 -0.12501
 C20 C 0.37504 0.14548 -0.10457
 C21 C 0.35464 0.12504 -0.10458
 C22 C 0.35463 0.10464 -0.12504
 C23 C 0.37502 0.10464 -0.14547
 C24 C 0.39541 0.12509 -0.14545
 H25 H 0.37504 0.16128 -0.08872
 H26 H 0.33884 0.08882 -0.12505
 H27 H 0.41120 0.12510 -0.16128
 C28 C 0.10383 0.85385 0.37498
 C29 C 0.10378 0.87440 0.35461
 C30 C 0.12408 0.89492 0.35464
 C31 C 0.14446 0.89491 0.37502
 C32 C 0.14452 0.87442 0.39541
 C33 C 0.12421 0.85390 0.39540
 H34 H 0.08802 0.87445 0.33879
 H35 H 0.16020 0.91078 0.37503
 H36 H 0.12430 0.83806 0.41123
 N37 N 0.09150 0.16891 0.11372
 N38 N 0.08026 0.15719 0.13539
 C39 C 0.05793 0.17186 0.14301
 C40 C 0.05498 0.19406 0.12517
 C41 C 0.07675 0.19140 0.10683
 H42 H 0.04491 0.16678 0.16033
 H43 H 0.08168 0.20483 0.08976
 Cu44 Cu 0.09657 0.12430 0.15165
 Cu45 Cu 0.12453 0.15430 0.09599
 Cu46 Cu 0.15365 0.09567 0.12513
 N47 N 0.11289 0.09149 0.16804
 N48 N 0.13538 0.08057 0.15762
 C49 C 0.14275 0.05856 0.17284
 C50 C 0.12389 0.05538 0.19408
 C51 C 0.10519 0.07675 0.19028
 H52 H 0.16064 0.04594 0.16870
 H53 H 0.08737 0.08133 0.20281
 N54 N 0.16892 0.11405 0.09226
 N55 N 0.15787 0.13633 0.08118
 C56 C 0.17277 0.14366 0.05895
 C57 C 0.19432 0.12511 0.05578
 C58 C 0.19114 0.10663 0.07737
 H59 H 0.16813 0.16118 0.04598
 H60 H 0.20394 0.08897 0.08191
 H61 H 0.11922 0.11385 0.10813
 H62 H 0.14078 0.13604 0.13094
 N63 N 0.40764 0.83090 0.61314
 N64 N 0.41887 0.84266 0.63476
 C65 C 0.44123 0.82801 0.64233
 C66 C 0.44422 0.80580 0.62449
 C67 C 0.42242 0.80841 0.60623
 H68 H 0.45426 0.83313 0.65960
 H69 H 0.41751 0.79500 0.58915
 Cu70 Cu 0.40257 0.87558 0.65108
 Cu71 Cu 0.37469 0.84563 0.59542
 Cu72 Cu 0.34573 0.90449 0.62433
 N73 N 0.38622 0.90851 0.66736
 N74 N 0.36391 0.91958 0.65681
 C75 C 0.35652 0.94162 0.67201
 C76 C 0.37514 0.94461 0.69343
 C77 C 0.39376 0.92314 0.68973
 H78 H 0.33877 0.95438 0.66774
 H79 H 0.41136 0.91835 0.70245
 N80 N 0.33053 0.88612 0.59145
 N81 N 0.34145 0.86367 0.58054
 C82 C 0.32654 0.85628 0.55837
 C83 C 0.30518 0.87501 0.55502
 C84 C 0.30846 0.89364 0.57645
 H85 H 0.33104 0.83859 0.54557
 H86 H 0.29583 0.91149 0.58081
 H87 H 0.38009 0.88618 0.60752
 H88 H 0.35834 0.86410 0.63030
 N89 N 0.90826 0.66931 0.38637
 N90 N 0.91954 0.65755 0.36472
 C91 C 0.94179 0.67226 0.35702
 C92 C 0.94465 0.69452 0.37480
 C93 C 0.92291 0.69187 0.39316
 H94 H 0.95481 0.66717 0.33969
 H95 H 0.91794 0.70530 0.41022
 Cu96 Cu 0.90331 0.62468 0.34845
 Cu97 Cu 0.87528 0.65474 0.40413
 Cu98 Cu 0.84630 0.59609 0.37508
 N99 N 0.88706 0.59181 0.33216
 N100 N 0.86459 0.58092 0.34259
 C101 C 0.85724 0.55892 0.32736
 C102 C 0.87610 0.55573 0.30610
 C103 C 0.89477 0.57707 0.30990
 H104 H 0.83940 0.54629 0.33152
 H105 H 0.91256 0.58167 0.29734
 N106 N 0.83097 0.61449 0.40797
 N107 N 0.84198 0.63679 0.41901
 C108 C 0.82704 0.64418 0.44122
 C109 C 0.80552 0.62565 0.44443
 C110 C 0.80876 0.60712 0.42288
 H111 H 0.83163 0.66174 0.45414
 H112 H 0.79599 0.58945 0.41838
 H113 H 0.88069 0.61429 0.39201
 H114 H 0.85906 0.63647 0.36924
 N115 N 0.59237 0.33121 -0.11341
 N116 N 0.58115 0.34295 -0.13507
 C117 C 0.55881 0.32832 -0.14262
 C118 C 0.55583 0.30613 -0.12474
 C119 C 0.57760 0.30876 -0.10647
 H120 H 0.54578 0.33341 -0.15991
 H121 H 0.58253 0.29532 -0.08941
 Cu122 Cu 0.59753 0.37581 -0.15140
 Cu123 Cu 0.62541 0.34574 -0.09576
 Cu124 Cu 0.65464 0.40425 -0.12500
 N125 N 0.61394 0.40857 -0.16788
 N126 N 0.63644 0.41942 -0.15751
 C127 C 0.64385 0.44139 -0.17278
 C128 C 0.62502 0.44462 -0.19401
 C129 C 0.60629 0.42332 -0.19014
 H130 H 0.66175 0.45395 -0.16868
 H131 H 0.58848 0.41877 -0.20264
 N132 N 0.66988 0.38585 -0.09208
 N133 N 0.65878 0.36361 -0.08098
 C134 C 0.67366 0.35619 -0.05879
 C135 C 0.69525 0.37464 -0.05563
 C136 C 0.69211 0.39315 -0.07721
 H137 H 0.66900 0.33867 -0.04583
 H138 H 0.70495 0.41077 -0.08176
 H139 H 0.62017 0.38618 -0.10791
 H140 H 0.64171 0.36387 -0.13070
 C141 C 0.01296 0.25751 0.10603
 C142 C -0.00765 0.25710 0.12614
 C143 C -0.00777 0.23626 0.14610
 C144 C 0.01260 0.21581 0.14587
 C145 C -0.08430 0.33395 0.12553
 C146 C 0.03334 0.23711 0.10575
 C147 C -0.02872 0.27803 0.12618
 C148 C -0.04630 0.29561 0.12603
 C149 C -0.06682 0.31626 0.12576
 C150 C 0.03342 0.21590 0.12563
 H151 H 0.01327 0.27359 0.09050
 H152 H -0.02362 0.23577 0.16181
 H153 H 0.01189 0.20000 0.16158
 H154 H 0.04893 0.23807 0.08988
 C155 C 0.50709 0.76375 0.64525
 C156 C 0.50703 0.74285 0.62535
 C157 C 0.48647 0.74244 0.60523
 C158 C 0.46606 0.76283 0.60494
 C159 C 0.58366 0.66588 0.62572
 C160 C 0.48670 0.78418 0.64502
 C161 C 0.52804 0.72184 0.62555
 C162 C 0.54560 0.70421 0.62564
 C163 C 0.56613 0.68353 0.62569
 C164 C 0.46589 0.78403 0.62483
 H165 H 0.52291 0.76428 0.66095
 H166 H 0.48621 0.72634 0.58971
 H167 H 0.45050 0.76185 0.58908
 H168 H 0.48737 0.80001 0.66071
 C169 C 1.00739 0.73662 0.35396
 C170 C 1.00728 0.75741 0.37398
 C171 C 0.98662 0.75786 0.39404
 C172 C 0.96622 0.73753 0.39425
 C173 C 1.08411 0.83388 0.37485
 C174 C 0.98700 0.71625 0.35411
 C175 C 1.02840 0.77823 0.37405
 C176 C 1.04603 0.79572 0.37427
 C177 C 1.06660 0.81626 0.37462
 C178 C 0.96617 0.71635 0.37434
 H179 H 1.02326 0.73613 0.33826
 H180 H 0.98631 0.77391 0.40960
 H181 H 0.95062 0.73852 0.41011
 H182 H 0.98771 0.70047 0.33836
 C183 C 0.49299 0.26406 -0.14533
 C184 C 0.49309 0.24324 -0.12534
 C185 C 0.51372 0.24284 -0.10529
 C186 C 0.53412 0.26319 -0.10513
 C187 C 0.41636 0.16656 -0.12505
 C188 C 0.51338 0.28445 -0.14523
 C189 C 0.47204 0.22232 -0.12534
 C190 C 0.45445 0.20476 -0.12525
 C191 C 0.43390 0.18417 -0.12512
 C192 C 0.53422 0.28435 -0.12507
 H193 H 0.47713 0.26455 -0.16100
 H194 H 0.51404 0.22679 -0.08973
 H195 H 0.54972 0.26222 -0.08931
 H196 H 0.51266 0.30023 -0.16097
 C197 C 0.10313 0.01330 0.25692
 C198 C 0.12370 -0.00692 0.25739
 C199 C 0.14439 -0.00675 0.23736
 C200 C 0.14451 0.01350 0.21685
 C201 C 0.12395 -0.08396 0.33378
 C202 C 0.10318 0.03361 0.23642
 C203 C 0.12361 -0.02791 0.27837
 C204 C 0.12365 -0.04557 0.29586
 C205 C 0.12380 -0.06627 0.31631
 C206 C 0.12386 0.03395 0.21603
 H207 H 0.08702 0.01335 0.27239
 H208 H 0.16044 -0.02232 0.23758
 H209 H 0.16084 0.01296 0.20170
 H210 H 0.08697 0.04892 0.23668
 C211 C 0.60431 0.48673 -0.25688
 C212 C 0.62489 0.50692 -0.25745
 C213 C 0.64558 0.50668 -0.23745
 C214 C 0.64568 0.48642 -0.21691
 C215 C 0.62498 0.58391 -0.33404
 C216 C 0.60436 0.46644 -0.23635
 C217 C 0.62479 0.52792 -0.27848
 C218 C 0.62480 0.54556 -0.29603
 C219 C 0.62489 0.56624 -0.31653
 C220 C 0.62502 0.46604 -0.21602
 H221 H 0.58818 0.48665 -0.27228
 H222 H 0.66167 0.52217 -0.23767
 H223 H 0.66198 0.48690 -0.20180
 H224 H 0.58816 0.45116 -0.23652
 C225 C 0.35435 1.00656 0.73694
 C226 C 0.37487 1.00659 0.75711
 C227 C 0.39537 0.98627 0.75667
 C228 C 0.39545 0.96608 0.73606
 C229 C 0.37504 1.08359 0.83359
 C230 C 0.35437 0.98641 0.71631
 C231 C 0.37496 1.02758 0.77811
 C232 C 0.37501 1.04523 0.79563
 C233 C 0.37503 1.06593 0.81609
 C234 C 0.37499 0.96592 0.71552
 H235 H 0.33834 1.02217 0.73711
 H236 H 0.41134 0.98607 0.77223
 H237 H 0.41161 0.95071 0.73634
 H238 H 0.33821 0.98705 0.70106
 C239 C 0.85574 0.49354 0.26290
 C240 C 0.87642 0.49333 0.24285
 C241 C 0.89695 0.51356 0.24330
 C242 C 0.89686 0.53389 0.26378
 C243 C 0.87592 0.41629 0.16642
 C244 C 0.85558 0.51382 0.28339
 C245 C 0.87650 0.47234 0.22185
 C246 C 0.87639 0.45469 0.20434
 C247 C 0.87614 0.43399 0.18388
 C248 C 0.87619 0.53426 0.28417
 H249 H 0.83971 0.47799 0.26273
 H250 H 0.91306 0.51362 0.22783
 H251 H 0.91302 0.54921 0.26351
 H252 H 0.83927 0.51333 0.29854
 C253 C 0.25685 0.10441 0.01329
 C254 C 0.25696 0.12483 -0.00708
 C255 C 0.23662 0.14530 -0.00702
 C256 C 0.21625 0.14539 0.01335
 C257 C 0.33370 0.12499 -0.08360
 C258 C 0.23650 0.10445 0.03368
 C259 C 0.27797 0.12483 -0.02800
 C260 C 0.29556 0.12487 -0.04553
 C261 C 0.31614 0.12493 -0.06605
 C262 C 0.21592 0.12498 0.03403
 H263 H 0.27251 0.08844 0.01342
 H264 H 0.23651 0.16121 -0.02272
 H265 H 0.20086 0.16153 0.01276
 H266 H 0.23707 0.08835 0.04910
 C267 C 0.74315 0.60486 0.48711
 C268 C 0.74306 0.62521 0.50756
 C269 C 0.76331 0.64572 0.50744
 C270 C 0.78360 0.64590 0.48696
 C271 C 0.66655 0.62450 0.58443
 C272 C 0.76340 0.60499 0.46661
 C273 C 0.72216 0.62504 0.52863
 C274 C 0.70464 0.62487 0.54625
 C275 C 0.68411 0.62465 0.56686
 C276 C 0.78393 0.62553 0.46623
 H277 H 0.72755 0.58887 0.48699
 H278 H 0.76344 0.66159 0.52317
 H279 H 0.79893 0.66205 0.48752
 H280 H 0.76284 0.58893 0.45115
 C281 C 0.73732 0.35427 0.00726
 C282 C 0.75773 0.37461 0.00734
 C283 C 0.75775 0.39500 -0.01307
 C284 C 0.73748 0.39506 -0.03351
 C285 C 0.83428 0.37458 0.08397
 C286 C 0.71702 0.35426 -0.01314
 C287 C 0.77865 0.37457 0.02833
 C288 C 0.79618 0.37455 0.04589
 C289 C 0.81673 0.37456 0.06643
 C290 C 0.71682 0.37465 -0.03386
 H291 H 0.73708 0.33837 0.02298
 H292 H 0.77346 0.41088 -0.01321
 H293 H 0.73816 0.41113 -0.04894
 H294 H 0.70157 0.33822 -0.01255
 C295 C 0.24257 0.89554 0.51272
 C296 C 0.24234 0.87494 0.49252
 C297 C 0.26266 0.85446 0.49259
 C298 C 0.28313 0.85450 0.51281
 C299 C 0.16546 0.87448 0.41634
 C300 C 0.26300 0.89564 0.53297
 C301 C 0.22127 0.87483 0.47172
 C302 C 0.20364 0.87471 0.45428
 C303 C 0.18303 0.87457 0.43383
 C304 C 0.28356 0.87508 0.53334
 H305 H 0.22693 0.91152 0.51283
 H306 H 0.26269 0.83842 0.47702
 H307 H 0.29849 0.83834 0.51225
 H308 H 0.26251 0.91184 0.54827
   
