data_POSCAR
  _audit_creation_date              2014-09-24
  _audit_creation_method            'ToBaCCo'
  _symmetry_space_group_name_H-M    'P1'
  _symmetry_Int_Tables_number       1
  _symmetry_cell_setting            triclinic
  loop_
  _symmetry_equiv_pos_as_xyz
 x,y,z
_cell_length_a 34.0018
_cell_length_b 34.1689
_cell_length_c 34.2187
_cell_angle_alpha 89.912000
_cell_angle_beta 89.929100
_cell_angle_gamma 90.080800
loop_
  _atom_site_label
  _atom_site_type_symbol
  _atom_site_fract_x
  _atom_site_fract_y
  _atom_site_fract_z
C1 C 0.16398 0.16778 0.21359
 C2 C 0.19791 0.15111 0.19649
 C3 C 0.21492 0.16636 0.16194
 C4 C 0.19699 0.19925 0.14456
 C5 C 0.16335 0.21642 0.16084
 C6 C 0.14719 0.20068 0.19513
 H7 H 0.20910 0.12397 0.20820
 H8 H 0.20949 0.21253 0.11867
 H9 H 0.12251 0.21569 0.20824
 C10 C -0.16053 0.83542 0.21842
 C11 C -0.19485 0.85163 0.20166
 C12 C -0.21251 0.83494 0.16854
 C13 C -0.19583 0.80140 0.15184
 C14 C -0.16183 0.78456 0.16770
 C15 C -0.14451 0.80159 0.20083
 H16 H -0.20691 0.87872 0.21268
 H17 H -0.20924 0.78848 0.12622
 H18 H -0.11955 0.78692 0.21377
 C19 C -0.16587 0.16252 -0.21687
 C20 C -0.19942 0.14528 -0.19943
 C21 C -0.21731 0.16127 -0.16572
 C22 C -0.20083 0.19559 -0.14971
 C23 C -0.16760 0.21332 -0.16635
 C24 C -0.15048 0.19677 -0.19972
 H25 H -0.21162 0.11909 -0.21208
 H26 H -0.21218 0.20761 -0.12274
 H27 H -0.12615 0.21211 -0.21322
 C28 C 0.16632 0.83671 -0.21552
 C29 C 0.14862 0.80303 -0.19999
 C30 C 0.16390 0.78493 -0.16651
 C31 C 0.19739 0.80089 -0.14850
 C32 C 0.21593 0.83487 -0.16334
 C33 C 0.19981 0.85226 -0.19723
 H34 H 0.12272 0.79096 -0.21391
 H35 H 0.20731 0.78777 -0.12148
 H36 H 0.21418 0.87696 -0.21096
 C37 C 0.16747 1.16537 0.78622
 C38 C 0.15064 1.19903 0.80281
 C39 C 0.16638 1.21569 0.83690
 C40 C 0.19947 1.19839 0.85428
 C41 C 0.21672 1.16475 0.83817
 C42 C 0.20055 1.14849 0.80408
 H43 H 0.12506 1.21214 0.78930
 H44 H 0.21233 1.21163 0.88002
 H45 H 0.21297 1.12189 0.79214
 C46 C 0.83627 0.83878 0.78206
 C47 C 0.85244 0.80433 0.79835
 C48 C 0.83608 0.78619 0.83182
 C49 C 0.80245 0.80340 0.84876
 C50 C 0.78579 0.83755 0.83327
 C51 C 0.80272 0.85490 0.80015
 H52 H 0.87810 0.79158 0.78496
 H53 H 0.79021 0.79181 0.87558
 H54 H 0.78814 0.88001 0.78751
 C55 C 0.16182 0.83277 1.21658
 C56 C 0.14438 0.79952 1.19916
 C57 C 0.16056 0.78216 1.16564
 C58 C 0.19480 0.79805 1.14916
 C59 C 0.21288 0.83097 1.16569
 C60 C 0.19636 0.84802 1.19923
 H61 H 0.11918 0.78553 1.21253
 H62 H 0.20734 0.78486 1.12323
 H63 H 0.20950 0.87468 1.21013
 C64 C 0.83713 1.16628 1.21698
 C65 C 0.85248 1.19990 1.19827
 C66 C 0.83496 1.21600 1.16444
 C67 C 0.80093 1.19765 1.14965
 C68 C 0.78495 1.16434 1.16763
 C69 C 0.80303 1.14898 1.20108
 H70 H 0.87641 1.21549 1.21197
 H71 H 0.78777 1.20759 1.12265
 H72 H 0.79084 1.12261 1.21372
 O73 O 0.44514 0.92502 0.93604
 O74 O 0.40192 0.96255 0.97146
 C75 C 0.40993 0.93546 0.94628
 O76 O 0.55561 0.92925 1.07559
 O77 O 0.59865 0.96486 1.03781
 C78 C 0.59077 0.93967 1.06502
 O79 O 0.44500 0.92527 1.07204
 O80 O 0.40184 0.96272 1.03644
 C81 C 0.40981 0.93563 1.06170
 O82 O 0.55572 0.92903 0.93248
 O83 O 0.59874 0.96472 0.97000
 C84 C 0.59087 0.93952 0.94288
 Zr85 Zr 0.50037 0.94721 0.95462
 O86 O 0.50495 0.88543 0.95547
 O87 O 0.49604 0.94683 0.89291
 Zr88 Zr 0.50027 0.94755 1.05350
 O89 O 0.50481 0.88576 1.05368
 O90 O 0.49579 0.94803 1.11521
 O91 O 0.46527 0.93962 1.00409
 O92 O 0.53449 0.94039 1.00407
 O93 O 0.55538 1.06490 0.93196
 O94 O 0.59858 1.02970 0.96972
 C95 C 0.59058 1.05477 0.94246
 O96 O 0.44468 1.06866 1.07127
 O97 O 0.40166 1.03065 1.03607
 C98 C 0.40952 1.05803 1.06101
 O99 O 0.55525 1.06544 1.07493
 O100 O 0.59851 1.02994 1.03750
 C101 C 0.59047 1.05524 1.06448
 O102 O 0.44486 1.06807 0.93551
 O103 O 0.40175 1.03040 0.97116
 C104 C 0.40969 1.05749 0.94584
 Zr105 Zr 0.50015 1.04628 0.95415
 O106 O 0.50443 1.10811 0.95416
 O107 O 0.49580 1.04598 0.89244
 Zr108 Zr 0.50004 1.04656 1.05305
 O109 O 0.50432 1.10838 1.05285
 O110 O 0.49551 1.04629 1.11477
 Zr111 Zr 0.44177 0.99671 1.00382
 Zr112 Zr 0.55864 0.99714 1.00379
 O113 O 0.53420 1.05369 1.00355
 O114 O 0.46504 1.05395 1.00356
 O115 O 0.53529 0.99686 0.94673
 O116 O 0.46599 0.99696 1.06039
 O117 O 0.46615 0.99661 0.94726
 O118 O 0.53522 0.99721 1.06089
 H119 H 0.55241 0.91755 1.00414
 H120 H 0.44808 0.99699 1.08326
 H121 H 0.55198 1.07669 1.00343
 H122 H 0.44838 0.99649 0.92434
 H123 H 0.51788 0.96391 1.12532
 H124 H 0.51782 1.03085 1.12502
 H125 H 0.48265 1.11850 1.03647
 H126 H 0.48219 1.11830 0.96975
 H127 H 0.51782 1.03008 0.88228
 H128 H 0.51761 0.96332 0.88259
 H129 H 0.48247 0.87520 0.97077
 H130 H 0.48300 0.87542 1.03760
 O131 O -0.07588 0.44466 0.06442
 O132 O -0.03823 0.40195 0.02859
 C133 C -0.06531 0.40971 0.05404
 O134 O -0.07230 0.55538 -0.07506
 O135 O -0.03660 0.59810 -0.03727
 C136 C -0.06188 0.59034 -0.06446
 O137 O -0.07606 0.44526 -0.07185
 O138 O -0.03827 0.40224 -0.03649
 C139 C -0.06550 0.41021 -0.06168
 O140 O -0.07207 0.55468 0.06829
 O141 O -0.03651 0.59779 0.03060
 C142 C -0.06162 0.58974 0.05794
 Zr143 Zr -0.05392 0.49976 0.04571
 O144 O -0.11602 0.50419 0.04489
 O145 O -0.05447 0.49512 0.10741
 Zr146 Zr -0.05387 0.50023 -0.05312
 O147 O -0.11597 0.50460 -0.05264
 O148 O -0.05385 0.49615 -0.11485
 O149 O -0.06159 0.46506 -0.00380
 O150 O -0.06100 0.53401 -0.00357
 O151 O 0.06418 0.55468 0.06797
 O152 O 0.02864 0.59779 0.03049
 C153 C 0.05385 0.58973 0.05765
 O154 O 0.06795 0.44535 -0.07178
 O155 O 0.02996 0.40224 -0.03650
 C156 C 0.05738 0.41028 -0.06156
 O157 O 0.06447 0.55539 -0.07504
 O158 O 0.02876 0.59810 -0.03731
 C159 C 0.05416 0.59035 -0.06442
 O160 O 0.06771 0.44471 0.06407
 O161 O 0.02991 0.40195 0.02843
 C162 C 0.05713 0.40975 0.05369
 Zr163 Zr 0.04568 0.49979 0.04563
 O164 O 0.10779 0.50425 0.04511
 O165 O 0.04577 0.49509 0.10733
 Zr166 Zr 0.04566 0.50027 -0.05326
 O167 O 0.10777 0.50467 -0.05341
 O168 O 0.04518 0.49614 -0.11499
 Zr169 Zr -0.00414 0.44186 -0.00391
 Zr170 Zr -0.00402 0.55814 -0.00354
 O171 O 0.05288 0.53400 -0.00369
 O172 O 0.05332 0.46516 -0.00392
 O173 O -0.00407 0.53455 0.05345
 O174 O -0.00413 0.46630 -0.06041
 O175 O -0.00414 0.46583 0.05271
 O176 O -0.00406 0.53517 -0.06070
 H177 H -0.08395 0.55185 -0.00345
 H178 H -0.00411 0.44864 -0.08335
 H179 H 0.07593 0.55176 -0.00362
 H180 H -0.00413 0.44805 0.07561
 H181 H -0.03749 0.51787 -0.12500
 H182 H 0.02973 0.51846 -0.12509
 H183 H 0.11803 0.48310 -0.03707
 H184 H 0.11804 0.48202 0.02969
 H185 H 0.02956 0.51673 0.11769
 H186 H -0.03741 0.51614 0.11775
 H187 H -0.12625 0.48156 0.03003
 H188 H -0.12622 0.48249 -0.03694
 O189 O 1.07168 -0.06851 0.44482
 O190 O 1.03627 -0.03059 0.40197
 C191 C 1.06134 -0.05796 0.40986
 O192 O 0.93155 -0.06475 0.55473
 O193 O 0.96944 -0.02936 0.59760
 C194 C 0.94210 -0.05453 0.58969
 O195 O 0.93524 -0.06815 0.44491
 O196 O 0.97104 -0.03046 0.40202
 C197 C 0.94566 -0.05764 0.40994
 O198 O 1.07534 -0.06509 0.55468
 O199 O 1.03763 -0.02951 0.59755
 C200 C 1.06477 -0.05484 0.58965
 Zr201 Zr 1.05338 -0.04626 0.49977
 O202 O 1.05347 -0.10807 0.50415
 O203 O 1.11550 -0.04572 0.49529
 Zr204 Zr 0.95383 -0.04613 0.49982
 O205 O 0.95375 -0.10794 0.50422
 O206 O 0.89172 -0.04576 0.49544
 O207 O 1.00360 -0.05380 0.46500
 O208 O 1.00355 -0.05340 0.53369
 O209 O 1.07579 0.07124 0.55475
 O210 O 1.03783 0.03562 0.59756
 C211 C 1.06514 0.06088 0.58971
 O212 O 0.93553 0.07503 0.44493
 O213 O 0.97118 0.03743 0.40205
 C214 C 0.94586 0.06456 0.40996
 O215 O 0.93187 0.07127 0.55478
 O216 O 0.96962 0.03567 0.59762
 C217 C 0.94235 0.06088 0.58974
 O218 O 1.07228 0.07497 0.44480
 O219 O 1.03653 0.03736 0.40200
 C220 C 1.06188 0.06453 0.40984
 Zr221 Zr 1.05367 0.05274 0.49978
 O222 O 1.05386 0.11453 0.50414
 O223 O 1.11578 0.05222 0.49536
 Zr224 Zr 0.95414 0.05291 0.49984
 O225 O 0.95470 0.11471 0.50425
 O226 O 0.89203 0.05300 0.49549
 Zr227 Zr 1.00377 0.00339 0.44175
 Zr228 Zr 1.00369 0.00320 0.55787
 O229 O 1.00389 0.05989 0.53373
 O230 O 1.00394 0.06052 0.46498
 O231 O 1.06117 0.00316 0.53463
 O232 O 0.94683 0.00345 0.46592
 O233 O 1.06070 0.00327 0.46581
 O234 O 0.94626 0.00334 0.53465
 H235 H 1.00345 -0.07639 0.55137
 H236 H 0.92380 0.00349 0.44821
 H237 H 1.00391 0.08279 0.55146
 H238 H 1.08370 0.00324 0.44800
 H239 H 0.88147 -0.03005 0.51745
 H240 H 0.88168 0.03678 0.51716
 H241 H 0.97037 0.12493 0.48210
 H242 H 1.03757 0.12482 0.48253
 H243 H 1.12595 0.03653 0.51745
 H244 H 1.12576 -0.03048 0.51762
 H245 H 1.03677 -0.11828 0.48282
 H246 H 0.96971 -0.11819 0.48233
 C247 C 1.11273 0.11798 0.31583
 C248 C 1.08956 0.13929 0.28974
 C249 C 1.10634 0.15595 0.25630
 C250 C 1.14692 0.15152 0.24804
 C251 C 1.16985 0.13005 0.27512
 C252 C 1.15288 0.11353 0.30853
 C253 C 1.09506 0.09981 0.34954
 C254 C 1.08005 0.08404 0.37736
 H255 H 1.05828 0.14257 0.29491
 H256 H 1.08674 0.17064 0.23624
 H257 H 1.20129 0.12689 0.27155
 H258 H 1.17118 0.09726 0.32872
 C259 C 0.89357 -0.11172 0.31730
 C260 C 0.85335 -0.10693 0.31073
 C261 C 0.83546 -0.12437 0.27837
 C262 C 0.85751 -0.14717 0.25168
 C263 C 0.89821 -0.15179 0.25913
 C264 C 0.91592 -0.13421 0.29150
 C265 C 0.91200 -0.09307 0.35022
 C266 C 0.92739 -0.07711 0.37762
 H267 H 0.83568 -0.08978 0.33074
 H268 H 0.80400 -0.12091 0.27546
 H269 H 0.91719 -0.16748 0.23921
 H270 H 0.94724 -0.13779 0.29613
 C271 C 0.88815 0.11177 0.68304
 C272 C 0.91037 0.13421 0.70898
 C273 C 0.89264 0.15110 0.74171
 C274 C 0.85204 0.14582 0.74940
 C275 C 0.83009 0.12310 0.72254
 C276 C 0.84802 0.10634 0.68982
 C277 C 0.90674 0.09394 0.64974
 C278 C 0.92274 0.07890 0.62214
 H279 H 0.94162 0.13830 0.70418
 H280 H 0.91152 0.16677 0.76172
 H281 H 0.79867 0.11926 0.72554
 H282 H 0.83044 0.08925 0.66967
 C283 C 1.11710 -0.10763 0.68296
 C284 C 1.12003 -0.14845 0.68461
 C285 C 1.13624 -0.16661 0.71749
 C286 C 1.14972 -0.14411 0.74919
 C287 C 1.14686 -0.10307 0.74712
 C288 C 1.13063 -0.08499 0.71423
 C289 C 1.09935 -0.08902 0.64963
 C290 C 1.08392 -0.07340 0.62203
 H291 H 1.10965 -0.16625 0.66055
 H292 H 1.13850 -0.19821 0.71802
 H293 H 1.15652 -0.08500 0.77125
 H294 H 1.12830 -0.05338 0.71334
 C295 C 0.31558 1.11276 1.11093
 C296 C 0.30886 1.10970 1.15108
 C297 C 0.27590 1.12737 1.16793
 C298 C 0.24874 1.14865 1.14488
 C299 C 0.25634 1.15152 1.10427
 C300 C 0.28931 1.13372 1.08761
 C301 C 0.34908 1.09385 1.09352
 C302 C 0.37687 1.07769 1.07877
 H303 H 0.32922 1.09374 1.16948
 H304 H 0.27285 1.12534 1.19933
 H305 H 0.23611 1.16591 1.08462
 H306 H 0.29404 1.13592 1.05635
 C307 C 0.31600 0.88420 0.89283
 C308 C 0.30781 0.84434 0.89685
 C309 C 0.27497 0.82800 0.87843
 C310 C 0.24949 0.85128 0.85539
 C311 C 0.25849 0.89161 0.85178
 C312 C 0.29129 0.90774 0.87031
 C313 C 0.34957 0.90125 0.91194
 C314 C 0.37736 0.91637 0.92773
 H315 H 0.32696 0.82576 0.91404
 H316 H 0.27080 0.79675 0.88126
 H317 H 0.23949 0.91150 0.83609
 H318 H 0.29716 0.93879 0.86733
 C319 C 0.68535 0.88820 1.11706
 C320 C 0.71565 0.87411 1.09325
 C321 C 0.74881 0.85673 1.10995
 C322 C 0.75211 0.85320 1.15079
 C323 C 0.72148 0.86746 1.17451
 C324 C 0.68831 0.88483 1.15772
 C325 C 0.65145 0.90632 1.09960
 C326 C 0.62347 0.92152 1.08425
 H327 H 0.71374 0.87672 1.06175
 H328 H 0.77213 0.84658 1.09094
 H329 H 0.72301 0.86479 1.20601
 H330 H 0.66499 0.89560 1.17643
 C331 C 0.68366 1.10688 0.88796
 C332 C 0.68952 1.14716 0.89162
 C333 C 0.72196 1.16509 0.87394
 C334 C 0.74943 1.14305 0.85200
 C335 C 0.74275 1.10227 0.84860
 C336 C 0.71028 1.08451 0.86642
 C337 C 0.65061 1.08843 0.90679
 C338 C 0.62308 1.07303 0.92287
 H339 H 0.66889 1.16483 0.90805
 H340 H 0.72435 1.19655 0.87647
 H341 H 0.76334 1.08330 0.83379
 H342 H 0.70623 1.05316 0.86376
 C343 C 0.11002 0.31638 0.10597
 C344 C 0.15095 0.31435 0.10966
 C345 C 0.16837 0.28192 0.12758
 C346 C 0.14500 0.25108 0.14204
 C347 C 0.10388 0.25347 0.13825
 C348 C 0.08654 0.28590 0.12032
 C349 C 0.09199 0.34964 0.08744
 C350 C 0.07639 0.37726 0.07198
 H351 H 0.16938 0.33785 0.09876
 H352 H 0.20006 0.28116 0.13054
 H353 H 0.08518 0.22999 0.14870
 H354 H 0.05482 0.28714 0.11754
 C355 C -0.11711 0.31594 -0.11364
 C356 C -0.09277 0.28608 -0.12764
 C357 C -0.10917 0.25281 -0.14489
 C358 C -0.15022 0.24894 -0.14838
 C359 C -0.17447 0.27917 -0.13429
 C360 C -0.15798 0.31246 -0.11703
 C361 C -0.09993 0.34984 -0.09544
 C362 C -0.08471 0.37773 -0.08009
 H363 H -0.06110 0.28840 -0.12501
 H364 H -0.08977 0.22983 -0.15496
 H365 H -0.20614 0.27721 -0.13693
 H366 H -0.17708 0.33542 -0.10633
 C367 C 0.10733 0.68379 -0.11676
 C368 C 0.14838 0.68548 -0.11925
 C369 C 0.16679 0.71826 -0.13561
 C370 C 0.14433 0.74982 -0.14970
 C371 C 0.10305 0.74774 -0.14724
 C372 C 0.08471 0.71494 -0.13085
 C373 C 0.08847 0.65051 -0.09894
 C374 C 0.07275 0.62287 -0.08351
 H375 H 0.16617 0.66153 -0.10842
 H376 H 0.19858 0.71883 -0.13750
 H377 H 0.08498 0.77177 -0.15732
 H378 H 0.05291 0.71402 -0.12887
 C379 C -0.11082 0.68303 0.11368
 C380 C -0.08665 0.71331 0.12713
 C381 C -0.10320 0.74619 0.14496
 C382 C -0.14422 0.74922 0.14953
 C383 C -0.16826 0.71848 0.13614
 C384 C -0.15163 0.68562 0.11833
 C385 C -0.09376 0.64968 0.09446
 C386 C -0.07925 0.62209 0.07799
 H387 H -0.05503 0.71167 0.12353
 H388 H -0.08398 0.76958 0.15453
 H389 H -0.19988 0.71974 0.13969
 H390 H -0.17061 0.66231 0.10806
 C391 C 1.11678 0.11262 0.68393
 C392 C 1.15767 0.11562 0.68749
 C393 C 1.17421 0.13287 0.72069
 C394 C 1.15000 0.14738 0.75074
 C395 C 1.10893 0.14426 0.74681
 C396 C 1.09247 0.12700 0.71363
 C397 C 1.09955 0.09447 0.65009
 C398 C 1.08433 0.07918 0.62220
 H399 H 1.17675 0.10461 0.66464
 H400 H 1.20591 0.13523 0.72269
 H401 H 1.08953 0.15460 0.76968
 H402 H 1.06078 0.12467 0.71125
 C403 C 0.88809 -0.10687 0.68250
 C404 C 0.86684 -0.08458 0.70935
 C405 C 0.84956 -0.10241 0.74192
 C406 C 0.85328 -0.14317 0.74851
 C407 C 0.87475 -0.16517 0.72071
 C408 C 0.89190 -0.14716 0.68817
 C409 C 0.90660 -0.08833 0.64948
 C410 C 0.92254 -0.07285 0.62203
 H411 H 0.86403 -0.05323 0.70542
 H412 H 0.83489 -0.08355 0.76267
 H413 H 0.87731 -0.19663 0.72285
 H414 H 0.90806 -0.16477 0.66732
 C415 C 1.11116 -0.11322 0.31667
 C416 C 1.08766 -0.13492 0.29121
 C417 C 1.10424 -0.15289 0.25845
 C418 C 1.14494 -0.14945 0.25026
 C419 C 1.16817 -0.12744 0.27662
 C420 C 1.15141 -0.10961 0.30937
 C421 C 1.09382 -0.09411 0.34991
 C422 C 1.07911 -0.07779 0.37748
 H423 H 1.05632 -0.13757 0.29640
 H424 H 1.08442 -0.16790 0.23884
 H425 H 1.19968 -0.12491 0.27312
 H426 H 1.16995 -0.09306 0.32910
 C427 C 0.89268 0.11718 0.31705
 C428 C 0.85239 0.11195 0.31121
 C429 C 0.83399 0.12824 0.27853
 C430 C 0.85559 0.15029 0.25075
 C431 C 0.89635 0.15549 0.25751
 C432 C 0.91458 0.13905 0.29023
 C433 C 0.91165 0.09934 0.35013
 C434 C 0.92737 0.08381 0.37762
 H435 H 0.83508 0.09527 0.33200
 H436 H 0.80251 0.12447 0.27617
 H437 H 0.91496 0.17068 0.23679
 H438 H 0.94594 0.14294 0.29429
 C439 C 0.11233 0.31695 -0.11160
 C440 C 0.12561 0.28635 -0.08785
 C441 C 0.14335 0.25351 -0.10458
 C442 C 0.14800 0.25085 -0.14536
 C443 C 0.13466 0.28184 -0.16899
 C444 C 0.11694 0.31468 -0.15218
 C445 C 0.09338 0.35033 -0.09429
 C446 C 0.07716 0.37793 -0.07950
 H447 H 0.12201 0.28773 -0.05642
 H448 H 0.15282 0.22991 -0.08567
 H449 H 0.13826 0.28085 -0.20042
 H450 H 0.10678 0.33823 -0.17082
 C451 C -0.11600 0.31594 0.10808
 C452 C -0.15609 0.30783 0.10455
 C453 C -0.17234 0.27508 0.12307
 C454 C -0.14873 0.24958 0.14574
 C455 C -0.10818 0.25851 0.14893
 C456 C -0.09213 0.29125 0.13029
 C457 C -0.09909 0.34942 0.08878
 C458 C -0.08415 0.37716 0.07279
 H459 H -0.17491 0.32698 0.08762
 H460 H -0.20377 0.27094 0.12060
 H461 H -0.08809 0.23950 0.16439
 H462 H -0.06091 0.29707 0.13291
 C463 C -0.11252 0.68446 -0.11769
 C464 C -0.15270 0.69161 -0.11331
 C465 C -0.16967 0.72490 -0.13000
 C466 C -0.14674 0.75198 -0.15161
 C467 C -0.10610 0.74394 -0.15584
 C468 C -0.08931 0.71062 -0.13902
 C469 C -0.09489 0.65077 -0.09951
 C470 C -0.07994 0.62293 -0.08381
 H471 H -0.17102 0.67137 -0.09701
 H472 H -0.20114 0.72835 -0.12691
 H473 H -0.08643 0.76408 -0.17046
 H474 H -0.05800 0.70560 -0.14219
 C475 C 0.10556 0.68224 0.11245
 C476 C 0.08254 0.71318 0.12632
 C477 C 0.10039 0.74555 0.14388
 C478 C 0.14155 0.74740 0.14773
 C479 C 0.16441 0.71602 0.13391
 C480 C 0.14649 0.68367 0.11638
 C481 C 0.08725 0.64936 0.09356
 C482 C 0.07198 0.62200 0.07737
 H483 H 0.05083 0.71243 0.12327
 H484 H 0.08207 0.76946 0.15381
 H485 H 0.19610 0.71637 0.13692
 H486 H 0.16457 0.65984 0.10579
 C487 C 0.31651 1.11105 0.89348
 C488 C 0.31505 1.11431 0.85274
 C489 C 0.28265 1.13182 0.83470
 C490 C 0.25128 1.14634 0.85725
 C491 C 0.25308 1.14297 0.89821
 C492 C 0.28549 1.12543 0.91617
 C493 C 0.34959 1.09254 0.91199
 C494 C 0.37715 1.07674 0.92748
 H495 H 0.33893 1.10329 0.83491
 H496 H 0.28232 1.13440 0.80316
 H497 H 0.22915 1.15337 0.91633
 H498 H 0.28624 1.12290 0.94773
 C499 C 0.31558 0.88203 1.11266
 C500 C 0.31326 0.87825 1.15333
 C501 C 0.27997 0.86146 1.17060
 C502 C 0.24854 0.84823 1.14736
 C503 C 0.25127 0.85199 1.10648
 C504 C 0.28457 0.86880 1.08929
 C505 C 0.34932 0.90031 1.09491
 C506 C 0.37720 0.91612 1.07985
 H507 H 0.33711 0.88842 1.17169
 H508 H 0.27889 0.85857 1.20210
 H509 H 0.22735 0.84260 1.08785
 H510 H 0.28597 0.87179 1.05779
 C511 C 0.68387 1.10814 1.11722
 C512 C 0.68508 1.14894 1.12063
 C513 C 0.71785 1.16721 1.13722
 C514 C 0.74985 1.14487 1.15063
 C515 C 0.74826 1.10386 1.14723
 C516 C 0.71547 1.08565 1.13062
 C517 C 0.65059 1.08943 1.09921
 C518 C 0.62297 1.07379 1.08365
 H519 H 0.66078 1.16662 1.11033
 H520 H 0.71811 1.19880 1.13979
 H521 H 0.77267 1.08592 1.15676
 H522 H 0.71491 1.05406 1.12792
 C523 C 0.68472 0.88952 0.88811
 C524 C 0.68683 0.84888 0.88358
 C525 C 0.71962 0.83194 0.86567
 C526 C 0.75076 0.85549 0.85205
 C527 C 0.74829 0.89633 0.85668
 C528 C 0.71549 0.91320 0.87460
 C529 C 0.65127 0.90694 0.90708
 C530 C 0.62351 0.92171 0.92324
 H531 H 0.66315 0.83028 0.89391
 H532 H 0.72048 0.80046 0.86212
 H533 H 0.77200 0.91518 0.84696
 H534 H 0.71422 0.94468 0.87812
   
