data_POSCAR
  _audit_creation_date              2014-09-24
  _audit_creation_method            'ToBaCCo'
  _symmetry_space_group_name_H-M    'P1'
  _symmetry_Int_Tables_number       1
  _symmetry_cell_setting            triclinic
  loop_
  _symmetry_equiv_pos_as_xyz
 x,y,z
_cell_length_a 32.1058
_cell_length_b 32.0568
_cell_length_c 43.3119
_cell_angle_alpha 90.940600
_cell_angle_beta 86.398900
_cell_angle_gamma 88.359800
loop_
  _atom_site_label
  _atom_site_type_symbol
  _atom_site_fract_x
  _atom_site_fract_y
  _atom_site_fract_z
C1 C 0.00073 0.50060 0.98327
 C2 C 0.00654 0.50293 1.01416
 C3 C 0.01056 0.54363 1.03048
 C4 C 0.00933 0.46495 1.03324
 C5 C 0.00046 0.45996 0.96629
 C6 C -0.00547 0.53867 0.96483
 C7 C 0.04067 0.57190 1.02039
 C8 C 0.04386 0.61025 1.03572
 C9 C 0.01722 0.62165 1.06214
 C10 C -0.01248 0.59196 1.07224
 C11 C -0.01555 0.55377 1.05671
 C12 C 0.04388 0.45844 1.05102
 C13 C 0.04721 0.42279 1.06889
 C14 C 0.01588 0.39301 1.06948
 C15 C -0.01902 0.39987 1.05195
 C16 C -0.02239 0.43565 1.03415
 C17 C -0.03358 0.45042 0.94894
 C18 C -0.03465 0.41210 0.93326
 C19 C -0.00154 0.38262 0.93447
 C20 C 0.03289 0.39255 0.95145
 C21 C 0.03400 0.43098 0.96704
 C22 C -0.03790 0.56781 0.97307
 C23 C -0.04261 0.60408 0.95600
 C24 C -0.01511 0.61172 0.93028
 C25 C 0.01675 0.58200 0.92173
 C26 C 0.02137 0.54573 0.93876
 H27 H 0.06157 0.56442 1.00033
 H28 H 0.06626 0.63118 1.02540
 H29 H -0.03252 0.59651 1.09304
 H30 H -0.03855 0.53196 1.06524
 H31 H 0.06862 0.48074 1.05069
 H32 H 0.07465 0.41820 1.08188
 H33 H -0.04976 0.44055 1.02112
 H34 H -0.05968 0.47243 0.94799
 H35 H -0.06177 0.40521 0.92065
 H36 H 0.05919 0.37079 0.95236
 H37 H 0.06100 0.43814 0.97973
 H38 H -0.05931 0.56260 0.99287
 H39 H -0.06731 0.62650 0.96323
 H40 H 0.03796 0.58669 0.90173
 H41 H 0.04635 0.52341 0.93190
 H42 H -0.04401 0.37786 1.05236
 C43 C 0.50167 -0.00578 0.48267
 C44 C 0.49804 -0.00597 0.51419
 C45 C 0.45671 -0.00725 0.53150
 C46 C 0.53504 -0.00476 0.53305
 C47 C 0.54263 -0.00160 0.46526
 C48 C 0.46460 -0.00900 0.46402
 C49 C 0.42576 0.02377 0.52779
 C50 C 0.38667 0.02157 0.54373
 C51 C 0.37795 -0.01158 0.56378
 C52 C 0.40933 -0.04214 0.56783
 C53 C 0.44839 -0.03985 0.55196
 C54 C 0.53745 0.02687 0.55555
 C55 C 0.57200 0.02865 0.57349
 C56 C 0.60471 -0.00146 0.56952
 C57 C 0.60199 -0.03343 0.54714
 C58 C 0.56739 -0.03514 0.52914
 C59 C 0.55594 -0.03155 0.44254
 C60 C 0.59444 -0.02823 0.42601
 C61 C 0.62029 0.00535 0.43174
 C62 C 0.60657 0.03570 0.45422
 C63 C 0.56801 0.03236 0.47072
 C64 C 0.43797 -0.04285 0.46720
 C65 C 0.40200 -0.04427 0.45068
 C66 C 0.39225 -0.01207 0.43042
 C67 C 0.41970 0.02113 0.42664
 C68 C 0.45558 0.02255 0.44320
 H69 H 0.43183 0.04950 0.51241
 H70 H 0.36306 0.04544 0.54001
 H71 H 0.40378 -0.06763 0.58352
 H72 H 0.47203 -0.06387 0.55529
 H73 H 0.51277 0.05056 0.55891
 H74 H 0.57336 0.05400 0.59019
 H75 H 0.56571 -0.06025 0.51227
 H76 H 0.53659 -0.05774 0.43777
 H77 H 0.60374 -0.05169 0.40847
 H78 H 0.62586 0.06180 0.45929
 H79 H 0.55796 0.05623 0.48778
 H80 H 0.44486 -0.06793 0.48271
 H81 H 0.38189 -0.07063 0.45367
 H82 H 0.41287 0.04662 0.41148
 H83 H 0.47581 0.04888 0.44040
 H84 H 0.62629 -0.05750 0.54388
 C85 C 0.10585 0.00681 0.25995
 H86 H 0.10999 0.00861 0.23503
 C87 C 0.14066 0.00475 0.27768
 H88 H 0.17157 0.00450 0.26614
 C89 C 0.06032 0.00401 0.30504
 H90 H 0.02899 0.00428 0.31567
 C91 C 0.09426 0.00191 0.32367
 H92 H 0.08857 0.00065 0.34853
 N93 N 0.06668 0.00563 0.27374
 C94 C -0.00774 -0.04719 0.20256
 H95 H -0.03232 -0.02354 0.20152
 C96 C -0.00763 -0.08280 0.18350
 H97 H -0.03197 -0.08603 0.16750
 C98 C 0.05391 -0.07144 0.22463
 H99 H 0.07740 -0.06745 0.24111
 C100 C 0.05521 -0.10748 0.20607
 H101 H 0.07980 -0.13078 0.20857
 Zn102 Zn 0.02143 0.00697 0.24768
 N103 N 0.02311 -0.04185 0.22226
 C104 C 0.02741 0.05363 0.19202
 N105 N 0.02635 0.05547 0.22346
 C106 C 0.02901 0.09246 0.23893
 C107 C 0.03128 0.12974 0.22281
 C108 C 0.02955 0.09021 0.17496
 C109 C -0.04008 -0.02418 0.28950
 C110 C -0.07766 -0.02390 0.30763
 C111 C -0.09494 0.04384 0.28755
 C112 C -0.05709 0.04225 0.26982
 N113 N -0.03023 0.00889 0.27146
 H114 H 0.02640 0.02390 0.18006
 H115 H 0.02856 0.09297 0.26393
 H116 H 0.03214 0.15893 0.23565
 H117 H 0.03021 0.08818 0.14996
 H118 H -0.01843 -0.05062 0.29003
 H119 H -0.08448 -0.05010 0.32239
 H120 H -0.11595 0.07060 0.28578
 H121 H -0.04942 0.06769 0.25467
 C122 C 0.02434 -0.11344 0.18498
 C123 C 0.13512 0.00187 0.30999
 C124 C -0.10553 0.01062 0.30698
 C125 C 0.03113 0.12897 0.19039
 C126 C -0.02404 0.08169 0.76313
 H127 H -0.02538 0.08402 0.73832
 C128 C -0.02286 0.11783 0.78144
 H129 H -0.02287 0.14792 0.77046
 C130 C -0.02127 0.03938 0.80734
 H131 H -0.02109 0.00880 0.81742
 C132 C -0.02000 0.07470 0.82652
 H133 H -0.01893 0.07085 0.85125
 N134 N -0.02237 0.04343 0.77619
 C135 C 0.03550 -0.03964 0.70402
 H136 H 0.01246 -0.06353 0.70307
 C137 C 0.07238 -0.04312 0.68510
 H138 H 0.07728 -0.06959 0.66931
 C139 C 0.05701 0.02385 0.72586
 H140 H 0.05146 0.04945 0.74223
 C141 C 0.09420 0.02166 0.70735
 H142 H 0.11680 0.04574 0.70974
 Zn143 Zn -0.02170 -0.00391 0.74937
 N144 N 0.02833 -0.00630 0.72366
 C145 C -0.06501 0.00025 0.69397
 N146 N -0.06891 0.00098 0.72543
 C147 C -0.10694 0.00570 0.74094
 C148 C -0.14317 0.00822 0.72480
 C149 C -0.10046 0.00278 0.67688
 C150 C 0.00930 -0.06356 0.78943
 C151 C 0.00931 -0.09974 0.80697
 C152 C -0.05801 -0.11560 0.78851
 C153 C -0.05666 -0.07922 0.77126
 N154 N -0.02366 -0.05367 0.77241
 H155 H -0.03448 -0.00239 0.68202
 H156 H -0.10910 0.00671 0.76597
 H157 H -0.17318 0.01064 0.73767
 H158 H -0.09670 0.00220 0.65186
 H159 H 0.03545 -0.04302 0.78957
 H160 H 0.03542 -0.10661 0.82088
 H161 H -0.08450 -0.13558 0.78722
 H162 H -0.08199 -0.07164 0.75690
 C163 C 0.10225 -0.01210 0.68657
 C164 C -0.02030 0.11459 0.81357
 C165 C -0.02486 -0.12614 0.80683
 C166 C -0.14027 0.00641 0.69230
 C167 C 0.02582 -0.26398 0.11001
 C168 C 0.05885 -0.27816 0.08950
 C169 C 0.05604 -0.31599 0.07348
 C170 C 0.02014 -0.34061 0.07735
 C171 C -0.01264 -0.32404 0.09787
 N172 N -0.00890 -0.28712 0.11314
 C173 C 0.02701 -0.22452 0.12828
 N174 N -0.00957 -0.20741 0.14101
 C175 C -0.01128 -0.17193 0.15873
 C176 C 0.02549 -0.15154 0.16490
 C177 C 0.06358 -0.16862 0.15205
 C178 C 0.06453 -0.20502 0.13390
 H179 H 0.08345 -0.32612 0.05934
 H180 H -0.04229 -0.33887 0.10113
 H181 H -0.04130 -0.16027 0.16852
 H182 H 0.09270 -0.15378 0.15599
 H183 H 0.08678 -0.26048 0.08556
 H184 H 0.09450 -0.21787 0.12508
 C185 C 0.02728 0.28280 0.12335
 C186 C 0.03867 0.32144 0.13557
 C187 C 0.03495 0.35730 0.11801
 C188 C 0.01964 0.35505 0.08841
 C189 C 0.00806 0.31598 0.07721
 N190 N 0.01209 0.28144 0.09470
 C191 C 0.03000 0.24362 0.14094
 N192 N 0.00673 0.21091 0.13259
 C193 C 0.00705 0.17405 0.14765
 C194 C 0.03182 0.16844 0.17293
 C195 C 0.05664 0.20144 0.18161
 C196 C 0.05600 0.23890 0.16566
 H197 H 0.04337 0.38694 0.12783
 H198 H -0.00362 0.31276 0.05442
 H199 H -0.01278 0.14953 0.14027
 H200 H 0.07692 0.19813 0.20053
 H201 H 0.04949 0.32444 0.15861
 H202 H 0.07617 0.26338 0.17249
 C203 C 0.25875 -0.01887 0.61341
 C204 C 0.27818 -0.05523 0.59999
 C205 C 0.31696 -0.05281 0.58375
 C206 C 0.33638 -0.01433 0.58053
 C207 C 0.31556 0.02137 0.59369
 N208 N 0.27795 0.01821 0.60958
 C209 C 0.21795 -0.01917 0.63147
 N210 N 0.19620 0.01766 0.63651
 C211 C 0.15920 0.02054 0.65356
 C212 C 0.14192 -0.01512 0.66700
 C213 C 0.16369 -0.05346 0.66209
 C214 C 0.20168 -0.05564 0.64450
 H215 H 0.33151 -0.08098 0.57334
 H216 H 0.32949 0.05165 0.59191
 H217 H 0.14328 0.05069 0.65649
 H218 H 0.15192 -0.08160 0.67254
 H219 H 0.26367 -0.08519 0.60145
 H220 H 0.21831 -0.08540 0.64205
 C221 C -0.28906 0.00553 0.62439
 C222 C -0.32915 0.01498 0.63800
 C223 C -0.36372 0.01250 0.62017
 C224 C -0.35867 0.00054 0.58880
 C225 C -0.31812 -0.00925 0.57620
 N226 N -0.28489 -0.00662 0.59405
 C227 C -0.25128 0.00725 0.64225
 N228 N -0.21706 -0.01666 0.63260
 C229 C -0.18135 -0.01709 0.64789
 C230 C -0.17856 0.00769 0.67471
 C231 C -0.21323 0.03319 0.68472
 C232 C -0.24950 0.03315 0.66859
 H233 H -0.39448 0.01931 0.63109
 H234 H -0.31268 -0.01833 0.55208
 H235 H -0.15555 -0.03747 0.63943
 H236 H -0.21216 0.05357 0.70482
 H237 H -0.33410 0.02333 0.66228
 H238 H -0.27542 0.05373 0.67647
 C239 C -0.02630 -0.27585 0.87890
 C240 C -0.06246 -0.29697 0.88871
 C241 C -0.05886 -0.33348 0.90559
 C242 C -0.01943 -0.34936 0.91252
 C243 C 0.01590 -0.32760 0.90206
 N244 N 0.01162 -0.29203 0.88579
 C245 C -0.02766 -0.23710 0.86068
 N246 N 0.00810 -0.22501 0.84518
 C247 C 0.00982 -0.18989 0.82804
 C248 C -0.02606 -0.16440 0.82567
 C249 C -0.06320 -0.17597 0.84166
 C250 C -0.06413 -0.21204 0.85926
 H251 H -0.08687 -0.34975 0.91270
 H252 H 0.04690 -0.33854 0.90712
 H253 H 0.03906 -0.18230 0.81593
 H254 H -0.09138 -0.15670 0.84101
 H255 H -0.09321 -0.28626 0.88302
 H256 H -0.09297 -0.21942 0.87192
 C257 C -0.00687 0.26475 0.88700
 C258 C 0.00854 0.26640 0.91667
 C259 C 0.01054 0.30483 0.93205
 C260 C -0.00303 0.34163 0.91819
 C261 C -0.01860 0.33858 0.88869
 N262 N -0.02011 0.30085 0.87412
 C263 C -0.00998 0.22506 0.86933
 N264 N -0.03582 0.22405 0.84559
 C265 C -0.03995 0.18929 0.82778
 C266 C -0.01706 0.15251 0.83335
 C267 C 0.00987 0.15281 0.85765
 C268 C 0.01363 0.18891 0.87559
 H269 H 0.02191 0.30567 0.95507
 H270 H -0.02911 0.36619 0.87703
 H271 H -0.06133 0.19039 0.80945
 H272 H 0.02884 0.12543 0.86232
 H273 H 0.01817 0.23852 0.92832
 H274 H 0.03559 0.18847 0.89350
 C275 C -0.26188 0.01401 0.38033
 C276 C -0.28671 0.05032 0.38680
 C277 C -0.32494 0.04756 0.40375
 C278 C -0.33878 0.00879 0.41414
 C279 C -0.31315 -0.02674 0.40704
 N280 N -0.27604 -0.02328 0.39053
 C281 C -0.22139 0.01462 0.36193
 N282 N -0.20605 -0.02144 0.34790
 C283 C -0.16927 -0.02357 0.33051
 C284 C -0.14541 0.01216 0.32636
 C285 C -0.16030 0.04954 0.34098
 C286 C -0.19806 0.05091 0.35882
 H287 H -0.34410 0.07564 0.40812
 H288 H -0.32239 -0.05722 0.41482
 H289 H -0.15913 -0.05301 0.31953
 H290 H -0.14243 0.07762 0.33902
 H291 H -0.27751 0.08043 0.37834
 H292 H -0.20819 0.07993 0.37037
 C293 C 0.27958 -0.01098 0.38235
 C294 C 0.27887 -0.02443 0.41310
 C295 C 0.31568 -0.02528 0.42863
 C296 C 0.35320 -0.01259 0.41378
 C297 C 0.35254 0.00072 0.38309
 N298 N 0.31633 0.00127 0.36844
 C299 C 0.24151 -0.00843 0.36473
 N300 N 0.24123 0.01699 0.33985
 C301 C 0.20780 0.02095 0.32226
 C302 C 0.17170 -0.00165 0.32927
 C303 C 0.17136 -0.02827 0.35469
 C304 C 0.20611 -0.03186 0.37238
 H305 H 0.31456 -0.03486 0.45252
 H306 H 0.38080 0.01044 0.37064
 H307 H 0.20935 0.04210 0.30303
 H308 H 0.14456 -0.04702 0.36051
 H309 H 0.25024 -0.03317 0.42547
 H310 H 0.20532 -0.05347 0.39129
   
