data_POSCAR
  _audit_creation_date              2014-09-24
  _audit_creation_method            'ToBaCCo'
  _symmetry_space_group_name_H-M    'P1'
  _symmetry_Int_Tables_number       1
  _symmetry_cell_setting            triclinic
  loop_
  _symmetry_equiv_pos_as_xyz
 x,y,z
_cell_length_a 63.7571
_cell_length_b 63.7355
_cell_length_c 63.9339
_cell_angle_alpha 90.172200
_cell_angle_beta 90.017800
_cell_angle_gamma 90.092300
loop_
  _atom_site_label
  _atom_site_type_symbol
  _atom_site_fract_x
  _atom_site_fract_y
  _atom_site_fract_z
N1 N 0.17410 0.22407 0.22821
 N2 N 0.17963 0.20747 0.23906
 C3 C 0.16606 0.20499 0.25504
 C4 C 0.15138 0.22093 0.25406
 C5 C 0.15692 0.23269 0.23686
 H6 H 0.16683 0.19268 0.26661
 H7 H 0.14911 0.24660 0.23118
 Cu8 Cu 0.20442 0.19130 0.23142
 Cu9 Cu 0.18952 0.23355 0.20378
 Cu10 Cu 0.23306 0.20465 0.18924
 N11 N 0.22870 0.17491 0.22272
 N12 N 0.23989 0.18036 0.20632
 C13 C 0.25592 0.16684 0.20400
 C14 C 0.25473 0.15215 0.21978
 C15 C 0.23727 0.15767 0.23137
 H16 H 0.26767 0.16768 0.19183
 H17 H 0.23141 0.14977 0.24513
 N18 N 0.22363 0.22968 0.17396
 N19 N 0.20702 0.24069 0.17954
 C20 C 0.20448 0.25663 0.16601
 C21 C 0.22023 0.25557 0.15126
 C22 C 0.23210 0.23834 0.15671
 H23 H 0.19208 0.26817 0.16675
 H24 H 0.24584 0.23256 0.14865
 H25 H 0.20142 0.20448 0.19594
 H26 H 0.21837 0.22157 0.21274
 N27 N 0.67442 0.72386 0.72941
 N28 N 0.68030 0.70743 0.74033
 C29 C 0.66688 0.70472 0.75639
 C30 C 0.65185 0.72029 0.75544
 C31 C 0.65711 0.73218 0.73817
 H32 H 0.66784 0.69235 0.76790
 H33 H 0.64889 0.74580 0.73239
 Cu34 Cu 0.70476 0.69106 0.73224
 Cu35 Cu 0.68956 0.73322 0.70460
 Cu36 Cu 0.73318 0.70420 0.69003
 N37 N 0.72928 0.67489 0.72389
 N38 N 0.74024 0.68017 0.70730
 C39 C 0.75622 0.66663 0.70489
 C40 C 0.75521 0.65205 0.72076
 C41 C 0.73793 0.65769 0.73257
 H42 H 0.76774 0.66730 0.69251
 H43 H 0.73217 0.64981 0.74640
 N44 N 0.72361 0.72901 0.67456
 N45 N 0.70701 0.74010 0.68004
 C46 C 0.70480 0.75617 0.66657
 C47 C 0.72077 0.75507 0.65201
 C48 C 0.73239 0.73772 0.65752
 H49 H 0.69260 0.76792 0.66733
 H50 H 0.74631 0.73200 0.64972
 H51 H 0.70145 0.70424 0.69661
 H52 H 0.71839 0.72136 0.71324
 N53 N 0.32528 0.77706 0.72848
 N54 N 0.31932 0.79344 0.73952
 C55 C 0.33285 0.79632 0.75547
 C56 C 0.34799 0.78086 0.75435
 C57 C 0.34272 0.76891 0.73707
 H58 H 0.33191 0.80875 0.76700
 H59 H 0.35113 0.75548 0.73103
 Cu60 Cu 0.29512 0.81004 0.73125
 Cu61 Cu 0.31019 0.76760 0.70369
 Cu62 Cu 0.26638 0.79614 0.68927
 N63 N 0.27027 0.82570 0.72310
 N64 N 0.25922 0.82021 0.70659
 C65 C 0.24323 0.83372 0.70417
 C66 C 0.24440 0.84855 0.71992
 C67 C 0.26176 0.84306 0.73167
 H68 H 0.23174 0.83294 0.69175
 H69 H 0.26770 0.85114 0.74536
 N70 N 0.27609 0.77129 0.67373
 N71 N 0.29289 0.76052 0.67916
 C72 C 0.29549 0.74454 0.66558
 C73 C 0.27952 0.74527 0.65102
 C74 C 0.26750 0.76239 0.65660
 H75 H 0.30800 0.73314 0.66622
 H76 H 0.25348 0.76783 0.64879
 H77 H 0.29838 0.79673 0.69554
 H78 H 0.28157 0.77975 0.71246
 N79 N 0.82680 0.27614 0.22931
 N80 N 0.82133 0.29303 0.23984
 C81 C 0.83475 0.29580 0.25592
 C82 C 0.84933 0.27975 0.25538
 C83 C 0.84383 0.26758 0.23829
 H84 H 0.83396 0.30843 0.26724
 H85 H 0.85160 0.25351 0.23286
 Cu86 Cu 0.79685 0.30920 0.23157
 Cu87 Cu 0.81143 0.26634 0.20480
 Cu88 Cu 0.76776 0.29515 0.19001
 N89 N 0.77237 0.32536 0.22331
 N90 N 0.76100 0.31959 0.20710
 C91 C 0.74490 0.33300 0.20485
 C92 C 0.74625 0.34796 0.22044
 C93 C 0.76384 0.34270 0.23192
 H94 H 0.73304 0.33194 0.19280
 H95 H 0.76985 0.35086 0.24551
 N96 N 0.77727 0.26994 0.17482
 N97 N 0.79389 0.25899 0.18048
 C98 C 0.79637 0.24283 0.16710
 C99 C 0.78058 0.24366 0.15238
 C100 C 0.76874 0.26100 0.15768
 H101 H 0.80875 0.23129 0.16792
 H102 H 0.75497 0.26666 0.14960
 H103 H 0.79944 0.29519 0.19619
 H104 H 0.78260 0.27865 0.21342
 N105 N 0.82582 0.72380 0.27132
 N106 N 0.82028 0.70686 0.26088
 C107 C 0.83360 0.70407 0.24475
 C108 C 0.84818 0.72013 0.24515
 C109 C 0.84282 0.73236 0.26220
 H110 H 0.83275 0.69143 0.23347
 H111 H 0.85065 0.74648 0.26748
 Cu112 Cu 0.79584 0.69062 0.26925
 Cu113 Cu 0.81051 0.73366 0.29583
 Cu114 Cu 0.76684 0.70470 0.31072
 N115 N 0.77137 0.67438 0.27757
 N116 N 0.76001 0.68013 0.29377
 C117 C 0.74384 0.66673 0.29596
 C118 C 0.74512 0.65180 0.28031
 C119 C 0.76278 0.65707 0.26892
 H120 H 0.73193 0.66781 0.30796
 H121 H 0.76875 0.64896 0.25529
 N122 N 0.77637 0.73000 0.32580
 N123 N 0.79299 0.74100 0.32014
 C124 C 0.79546 0.75720 0.33350
 C125 C 0.77965 0.75632 0.34820
 C126 C 0.76784 0.73893 0.34291
 H127 H 0.80783 0.76878 0.33268
 H128 H 0.75408 0.73323 0.35101
 H129 H 0.79860 0.70483 0.30453
 H130 H 0.78175 0.72126 0.28725
 N131 N 0.32580 0.22416 -0.22969
 N132 N 0.32003 0.20749 -0.24043
 C133 C 0.33338 0.20476 -0.25658
 C134 C 0.34824 0.22060 -0.25587
 C135 C 0.34296 0.23262 -0.23860
 H136 H 0.33241 0.19224 -0.26802
 H137 H 0.35096 0.24649 -0.23298
 Cu138 Cu 0.29562 0.19088 -0.23238
 Cu139 Cu 0.31061 0.23363 -0.20498
 Cu140 Cu 0.26727 0.20468 -0.18996
 N141 N 0.27105 0.17488 -0.22357
 N142 N 0.26016 0.18029 -0.20694
 C143 C 0.24416 0.16672 -0.20446
 C144 C 0.24497 0.15211 -0.22043
 C145 C 0.26224 0.15769 -0.23228
 H146 H 0.23271 0.16750 -0.19203
 H147 H 0.26781 0.14984 -0.24625
 N148 N 0.27689 0.22979 -0.17467
 N149 N 0.29337 0.24091 -0.18046
 C150 C 0.29584 0.25709 -0.16706
 C151 C 0.28022 0.25606 -0.15215
 C152 C 0.26853 0.23854 -0.15736
 H153 H 0.30806 0.26883 -0.16804
 H154 H 0.25497 0.23264 -0.14909
 H155 H 0.29886 0.20433 -0.19683
 H156 H 0.28186 0.22119 -0.21367
 N157 N 0.67374 0.27556 -0.22884
 N158 N 0.67959 0.29210 -0.23964
 C159 C 0.66624 0.29480 -0.25572
 C160 C 0.65125 0.27913 -0.25493
 C161 C 0.65646 0.26718 -0.23767
 H162 H 0.66728 0.30722 -0.26717
 H163 H 0.64826 0.25347 -0.23194
 Cu164 Cu 0.70397 0.30861 -0.23146
 Cu165 Cu 0.68899 0.26612 -0.20417
 Cu166 Cu 0.73289 0.29475 -0.18974
 N167 N 0.72894 0.32431 -0.22341
 N168 N 0.74013 0.31870 -0.20707
 C169 C 0.75611 0.33227 -0.20454
 C170 C 0.75480 0.34726 -0.22000
 C171 C 0.73744 0.34175 -0.23178
 H172 H 0.76769 0.33147 -0.19221
 H173 H 0.73133 0.35004 -0.24519
 N174 N 0.72316 0.26996 -0.17430
 N175 N 0.70638 0.25908 -0.17972
 C176 C 0.70398 0.24302 -0.16628
 C177 C 0.72006 0.24384 -0.15183
 C178 C 0.73196 0.26104 -0.15737
 H179 H 0.69154 0.23148 -0.16695
 H180 H 0.74611 0.26646 -0.14973
 H181 H 0.70095 0.29525 -0.19594
 H182 H 0.71778 0.27836 -0.21303
 N183 N 0.17427 0.77633 0.27116
 N184 N 0.18002 0.79298 0.26048
 C185 C 0.16667 0.79568 0.24438
 C186 C 0.15177 0.77993 0.24509
 C187 C 0.15704 0.76792 0.26226
 H188 H 0.16762 0.80814 0.23296
 H189 H 0.14896 0.75409 0.26782
 Cu190 Cu 0.20458 0.80921 0.26858
 Cu191 Cu 0.18952 0.76682 0.29580
 Cu192 Cu 0.23320 0.79582 0.31061
 N193 N 0.22896 0.82551 0.27706
 N194 N 0.24013 0.82009 0.29348
 C195 C 0.25610 0.83372 0.29586
 C196 C 0.25491 0.84841 0.28004
 C197 C 0.23751 0.84276 0.26838
 H198 H 0.26777 0.83296 0.30812
 H199 H 0.23160 0.85064 0.25461
 N200 N 0.22360 0.77077 0.32587
 N201 N 0.20696 0.75975 0.32022
 C202 C 0.20439 0.74376 0.33370
 C203 C 0.22013 0.74479 0.34849
 C204 C 0.23204 0.76206 0.34311
 H205 H 0.19199 0.73220 0.33289
 H206 H 0.24580 0.76782 0.35120
 H207 H 0.20155 0.79581 0.30409
 H208 H 0.21844 0.77891 0.28721
 N209 N 0.47391 0.42376 0.47940
 N210 N 0.45733 0.42962 0.49015
 C211 C 0.45456 0.41635 0.50629
 C212 C 0.47028 0.40146 0.50563
 C213 C 0.48228 0.40660 0.48836
 H214 H 0.44214 0.41742 0.51776
 H215 H 0.49607 0.39847 0.48279
 Cu216 Cu 0.44096 0.45396 0.48183
 Cu217 Cu 0.48344 0.43895 0.45465
 Cu218 Cu 0.45451 0.48254 0.43986
 N219 N 0.42490 0.47851 0.47355
 N220 N 0.43029 0.48953 0.45705
 C221 C 0.41673 0.50548 0.45465
 C222 C 0.40204 0.50439 0.47047
 C223 C 0.40762 0.48709 0.48220
 H224 H 0.41747 0.51705 0.44234
 H225 H 0.39970 0.48131 0.49599
 N226 N 0.47949 0.47291 0.42453
 N227 N 0.49051 0.45632 0.43013
 C228 C 0.50660 0.45390 0.41668
 C229 C 0.50562 0.46971 0.40199
 C230 C 0.48827 0.48146 0.40738
 H231 H 0.51825 0.44163 0.41751
 H232 H 0.48257 0.49527 0.39942
 H233 H 0.47124 0.46782 0.46316
 H234 H 0.45440 0.45083 0.44625
 N235 N -0.02665 -0.07615 0.97866
 N236 N -0.04315 -0.07032 0.98956
 C237 C -0.04581 -0.08370 1.00562
 C238 C -0.03019 -0.09868 1.00466
 C239 C -0.01833 -0.09346 0.98735
 H240 H -0.05809 -0.08264 1.01724
 H241 H -0.00459 -0.10158 0.98162
 Cu242 Cu -0.05922 -0.04553 0.98190
 Cu243 Cu -0.01703 -0.06081 0.95412
 Cu244 Cu -0.04571 -0.01701 0.93984
 N245 N -0.07549 -0.02115 0.97336
 N246 N -0.06995 -0.00999 0.95700
 C247 C -0.08341 0.00609 0.95472
 C248 C -0.09815 0.00495 0.97049
 C249 C -0.09271 -0.01251 0.98206
 H250 H -0.08249 0.01783 0.94257
 H251 H -0.10068 -0.01837 0.99578
 N252 N -0.02076 -0.02654 0.92440
 N253 N -0.00989 -0.04330 0.92978
 C254 C 0.00596 -0.04591 0.91610
 C255 C 0.00507 -0.02997 0.90154
 C256 C -0.01203 -0.01799 0.90722
 H257 H 0.01733 -0.05846 0.91660
 H258 H -0.01765 -0.00408 0.89938
 H259 H -0.02879 -0.03197 0.96318
 H260 H -0.04593 -0.04886 0.94638
 N261 N 1.02577 0.57572 0.97866
 N262 N 1.04259 0.57021 0.98922
 C263 C 1.04529 0.58361 1.00536
 C264 C 1.02940 0.59831 1.00473
 C265 C 1.01730 0.59285 0.98762
 H266 H 1.05789 0.58286 1.01668
 H267 H 1.00333 0.60072 0.98218
 Cu268 Cu 1.05889 0.54573 0.98109
 Cu269 Cu 1.01626 0.56048 0.95390
 Cu270 Cu 1.04550 0.51714 0.93896
 N271 N 1.07530 0.52146 0.97250
 N272 N 1.06983 0.51030 0.95605
 C273 C 1.08347 0.49441 0.95357
 C274 C 1.09817 0.49557 0.96939
 C275 C 1.09255 0.51288 0.98119
 H276 H 1.08268 0.48276 0.94128
 H277 H 1.10046 0.51873 0.99501
 N278 N 1.02043 0.52654 0.92366
 N279 N 1.00922 0.54298 0.92940
 C280 C 0.99314 0.54530 0.91594
 C281 C 0.99438 0.52963 0.90102
 C282 C 1.01183 0.51802 0.90636
 H283 H 0.98136 0.55745 0.91685
 H284 H 1.01779 0.50442 0.89816
 H285 H 1.02845 0.53179 0.96249
 H286 H 1.04525 0.54882 0.94569
 N287 N 0.52590 0.07601 0.47868
 N288 N 0.54253 0.07031 0.48941
 C289 C 0.54516 0.08364 0.50559
 C290 C 0.52946 0.09854 0.50480
 C291 C 0.51750 0.09325 0.48754
 H292 H 0.55761 0.08274 0.51702
 H293 H 0.50371 0.10133 0.48191
 Cu294 Cu 0.55907 0.04603 0.48111
 Cu295 Cu 0.51647 0.06081 0.45389
 Cu296 Cu 0.54530 0.01726 0.43907
 N297 N 0.57486 0.02122 0.47288
 N298 N 0.56937 0.01014 0.45637
 C299 C 0.58307 -0.00567 0.45370
 C300 C 0.59790 -0.00447 0.46938
 C301 C 0.59219 0.01266 0.48139
 H302 H 0.58242 -0.01711 0.44118
 H303 H 0.60029 0.01862 0.49502
 N304 N 0.52044 0.02690 0.42365
 N305 N 0.50940 0.04347 0.42933
 C306 C 0.49337 0.04594 0.41583
 C307 C 0.49443 0.03019 0.40099
 C308 C 0.51173 0.01840 0.40638
 H309 H 0.48174 0.05824 0.41667
 H310 H 0.51748 0.00463 0.39831
 H311 H 0.52882 0.03205 0.46258
 H312 H 0.54567 0.04904 0.44560
 N313 N -0.02687 0.07579 0.52137
 N314 N -0.04349 0.06995 0.51064
 C315 C -0.04643 0.08343 0.49471
 C316 C -0.03085 0.09849 0.49560
 C317 C -0.01868 0.09318 0.51266
 H318 H -0.05902 0.08253 0.48340
 H319 H -0.00499 0.10144 0.51837
 Cu320 Cu -0.05973 0.04545 0.51874
 Cu321 Cu -0.01732 0.06072 0.54608
 Cu322 Cu -0.04626 0.01708 0.56089
 N323 N -0.07606 0.02118 0.52735
 N324 N -0.07060 0.01008 0.54377
 C325 C -0.08421 -0.00590 0.54612
 C326 C -0.09892 -0.00476 0.53030
 C327 C -0.09334 0.01260 0.51867
 H328 H -0.08344 -0.01758 0.55833
 H329 H -0.10126 0.01844 0.50490
 N330 N -0.02114 0.02674 0.57616
 N331 N -0.01019 0.04340 0.57055
 C332 C 0.00595 0.04592 0.58391
 C333 C 0.00511 0.03011 0.59860
 C334 C -0.01222 0.01822 0.59326
 H335 H 0.01755 0.05828 0.58305
 H336 H -0.01784 0.00437 0.60125
 H337 H -0.02941 0.03188 0.53759
 H338 H -0.04637 0.04884 0.55434
 N339 N 0.47437 0.57580 0.02171
 N340 N 0.45779 0.57016 0.01080
 C341 C 0.45530 0.58365 -0.00522
 C342 C 0.47119 0.59844 -0.00421
 C343 C 0.48297 0.59300 0.01305
 H344 H 0.44299 0.58277 -0.01683
 H345 H 0.49683 0.60092 0.01880
 Cu346 Cu 0.44151 0.54546 0.01859
 Cu347 Cu 0.48381 0.56044 0.04621
 Cu348 Cu 0.45479 0.51690 0.06080
 N349 N 0.42506 0.52119 0.02720
 N350 N 0.43045 0.51008 0.04366
 C351 C 0.41681 0.49413 0.04600
 C352 C 0.40213 0.49527 0.03017
 C353 C 0.40778 0.51261 0.01851
 H354 H 0.41757 0.48245 0.05822
 H355 H 0.39993 0.51840 0.00468
 N356 N 0.47992 0.52640 0.07611
 N357 N 0.49094 0.54301 0.07051
 C358 C 0.50708 0.54548 0.08388
 C359 C 0.50617 0.52968 0.09855
 C360 C 0.48878 0.51786 0.09322
 H361 H 0.51869 0.55783 0.08305
 H362 H 0.48308 0.50407 0.10123
 H363 H 0.47162 0.53151 0.03746
 H364 H 0.45465 0.54851 0.05423
 N365 N 0.52601 -0.07618 0.02132
 N366 N 0.54255 -0.07038 0.01048
 C367 C 0.54527 -0.08384 -0.00560
 C368 C 0.52950 -0.09872 -0.00482
 C369 C 0.51758 -0.09342 0.01244
 H370 H 0.55766 -0.08287 -0.01713
 H371 H 0.50380 -0.10151 0.01808
 Cu372 Cu 0.55897 -0.04601 0.01879
 Cu373 Cu 0.51652 -0.06092 0.04606
 Cu374 Cu 0.54555 -0.01726 0.06086
 N375 N 0.57508 -0.02143 0.02705
 N376 N 0.56976 -0.01037 0.04362
 C377 C 0.58343 0.00554 0.04607
 C378 C 0.59813 0.00434 0.03028
 C379 C 0.59245 -0.01297 0.01848
 H380 H 0.58277 0.01714 0.05842
 H381 H 0.60035 -0.01880 0.00467
 N382 N 0.52055 -0.02682 0.07621
 N383 N 0.50949 -0.04345 0.07058
 C384 C 0.49344 -0.04588 0.08405
 C385 C 0.49448 -0.03006 0.09882
 C386 C 0.51182 -0.01826 0.09342
 H387 H 0.48180 -0.05820 0.08323
 H388 H 0.51758 -0.00444 0.10145
 H389 H 0.52873 -0.03208 0.03758
 H390 H 0.54556 -0.04897 0.05440
 N391 N 1.02657 0.42339 0.52120
 N392 N 1.04329 0.42900 0.51052
 C393 C 1.04597 0.41558 0.49443
 C394 C 1.03010 0.40082 0.49510
 C395 C 1.01808 0.40620 0.51228
 H396 H 1.05843 0.41646 0.48299
 H397 H 1.00417 0.39822 0.51780
 Cu398 Cu 1.05958 0.45354 0.51861
 Cu399 Cu 1.01691 0.43889 0.54578
 Cu400 Cu 1.04594 0.48280 0.55999
 N401 N 1.07588 0.47810 0.52669
 N402 N 1.07023 0.48957 0.54286
 C403 C 1.08371 0.50568 0.54507
 C404 C 1.09861 0.50422 0.52948
 C405 C 1.09323 0.48655 0.51807
 H406 H 1.08274 0.51762 0.55708
 H407 H 1.10133 0.48042 0.50451
 N408 N 1.02094 0.47348 0.57538
 N409 N 1.00990 0.45672 0.57013
 C410 C 0.99403 0.45444 0.58387
 C411 C 0.99518 0.47057 0.59832
 C412 C 1.01237 0.48231 0.59250
 H413 H 0.98250 0.44197 0.58349
 H414 H 1.01818 0.49626 0.60025
 H415 H 1.02905 0.46747 0.53682
 H416 H 1.04576 0.45079 0.55399
 C417 C 0.37379 -0.00037 0.24989
 C418 C 0.12514 -0.00059 0.75001
 C419 C 0.62551 0.49919 0.25038
 C420 C 0.87443 0.49942 0.74948
 C421 C 0.24976 0.37562 0.00011
 C422 C 0.74967 0.12466 -0.00006
 C423 C 0.25016 0.62463 0.49948
 C424 C 0.74901 0.87521 0.50059
 C425 C -0.00014 0.24915 0.37474
 C426 C -0.00010 0.75023 0.12509
 C427 C 0.50011 0.24994 0.62582
 C428 C 0.49932 0.74949 0.87456
 N429 N 0.11437 0.21589 0.29798
 C430 C 0.10144 0.23245 0.29478
 N431 N 0.10491 0.24520 0.27820
 N432 N 0.12085 0.24151 0.26524
 C433 C 0.13382 0.22492 0.26839
 N434 N 0.13031 0.21220 0.28501
 C435 C 0.08406 0.23612 0.30855
 C436 C 0.06939 0.23878 0.32015
 C437 C 0.05188 0.24141 0.33400
 N438 N 0.04431 0.26078 0.33839
 N439 N 0.02810 0.26309 0.35135
 C440 C 0.01893 0.24614 0.36054
 N441 N 0.02637 0.22675 0.35563
 N442 N 0.04262 0.22443 0.34275
 N443 N 0.61440 0.71311 0.79874
 C444 C 0.60083 0.72915 0.79556
 N445 N 0.60405 0.74229 0.77923
 N446 N 0.62032 0.73947 0.76646
 C447 C 0.63394 0.72342 0.76960
 N448 N 0.63068 0.71029 0.78597
 C449 C 0.58337 0.73228 0.80938
 C450 C 0.56872 0.73508 0.82098
 C451 C 0.55131 0.73862 0.83476
 N452 N 0.55082 0.75589 0.84717
 N453 N 0.53458 0.75934 0.85981
 C454 C 0.51824 0.74560 0.86058
 N455 N 0.51881 0.72835 0.84801
 N456 N 0.53506 0.72491 0.83536
 N457 N 0.38607 0.78858 0.79706
 C458 C 0.39968 0.77259 0.79366
 N459 N 0.39628 0.75935 0.77737
 N460 N 0.37982 0.76203 0.76483
 C461 C 0.36616 0.77801 0.76818
 N462 N 0.36960 0.79126 0.78451
 C463 C 0.41717 0.76931 0.80740
 C464 C 0.43174 0.76610 0.81898
 C465 C 0.44887 0.76179 0.83290
 N466 N 0.46586 0.77456 0.83359
 N467 N 0.48159 0.77056 0.84672
 C468 C 0.48090 0.75371 0.85975
 N469 N 0.46393 0.74080 0.85865
 N470 N 0.44820 0.74479 0.84555
 N471 N -0.10521 0.25637 0.27955
 C472 C -0.10167 0.26968 0.29574
 N473 N -0.11454 0.28638 0.29848
 N474 N -0.13048 0.28966 0.28540
 C475 C -0.13406 0.27637 0.26912
 N476 N -0.12113 0.25965 0.26648
 C477 C -0.08434 0.26622 0.30964
 C478 C -0.06967 0.26319 0.32113
 C479 C -0.05212 0.25955 0.33468
 N480 N -0.05182 0.24265 0.34748
 N481 N -0.03553 0.23929 0.36008
 C482 C -0.01893 0.25275 0.36040
 N483 N -0.01926 0.26954 0.34731
 N484 N -0.03556 0.27290 0.33472
 N485 N -0.11524 0.71319 0.20109
 C486 C -0.10218 0.72982 0.20360
 N487 N -0.10547 0.74329 0.21972
 N488 N -0.12133 0.74023 0.23293
 C489 C -0.13441 0.72357 0.23049
 N490 N -0.13110 0.71012 0.21431
 C491 C -0.08487 0.73297 0.18961
 C492 C -0.07016 0.73571 0.17809
 C493 C -0.05244 0.73914 0.16467
 N494 N -0.03314 0.74227 0.17298
 N495 N -0.01670 0.74575 0.16062
 C496 C -0.01892 0.74630 0.13945
 N497 N -0.03835 0.74298 0.13123
 N498 N -0.05481 0.73951 0.14361
 N499 N 0.39421 0.24327 0.71994
 C500 C 0.39731 0.23006 0.70358
 N501 N 0.38403 0.21364 0.70080
 N502 N 0.36811 0.21058 0.71396
 C503 C 0.36492 0.22380 0.73037
 N504 N 0.37829 0.24021 0.73310
 C505 C 0.41461 0.23332 0.68955
 C506 C 0.42934 0.23621 0.67805
 C507 C 0.44720 0.23976 0.66477
 N508 N 0.44482 0.24213 0.64383
 N509 N 0.46146 0.24546 0.63163
 C510 C 0.48109 0.24661 0.63993
 N511 N 0.48332 0.24415 0.66095
 N512 N 0.46670 0.24082 0.67313
 N513 N 0.61553 0.28655 0.70189
 C514 C 0.60201 0.27036 0.70460
 N515 N 0.60495 0.25707 0.72087
 N516 N 0.62093 0.25990 0.73403
 C517 C 0.63451 0.27611 0.73136
 N518 N 0.63151 0.28937 0.71504
 C519 C 0.58479 0.26732 0.69045
 C520 C 0.57027 0.26467 0.67864
 C521 C 0.55291 0.26129 0.66474
 N522 N 0.55177 0.24353 0.65310
 N523 N 0.53539 0.24008 0.64062
 C524 C 0.51953 0.25429 0.63922
 N525 N 0.52077 0.27203 0.65106
 N526 N 0.53717 0.27549 0.66353
 N527 N 0.10480 0.75730 0.22008
 C528 C 0.10180 0.77051 0.20377
 N529 N 0.11519 0.78681 0.20105
 N530 N 0.13113 0.78981 0.21423
 C531 C 0.13419 0.77660 0.23057
 N532 N 0.12074 0.76029 0.23326
 C533 C 0.08460 0.76732 0.18961
 C534 C 0.07010 0.76460 0.17779
 C535 C 0.05273 0.76123 0.16388
 N536 N 0.03748 0.77590 0.16200
 N537 N 0.02107 0.77252 0.14953
 C538 C 0.01932 0.75436 0.13841
 N539 N 0.03468 0.73970 0.14042
 N540 N 0.05109 0.74309 0.15289
 N541 N 0.27910 0.10557 0.24343
 C542 C 0.29567 0.10222 0.23057
 N543 N 0.29881 0.11529 0.21417
 N544 N 0.28577 0.13123 0.21074
 C545 C 0.26914 0.13461 0.22358
 N546 N 0.26606 0.12151 0.24001
 C547 C 0.30948 0.08483 0.23408
 C548 C 0.32089 0.07007 0.23701
 C549 C 0.33425 0.05232 0.24043
 N550 N 0.35537 0.05430 0.23914
 N551 N 0.36773 0.03774 0.24211
 C552 C 0.35944 0.01854 0.24640
 N553 N 0.33820 0.01675 0.24780
 N554 N 0.32585 0.03331 0.24484
 N555 N 0.79868 0.61477 0.71364
 C556 C 0.79580 0.60150 0.72992
 N557 N 0.77961 0.60487 0.74326
 N558 N 0.76666 0.62101 0.74040
 C559 C 0.76950 0.63431 0.72409
 N560 N 0.78574 0.63090 0.71078
 C561 C 0.80961 0.58403 0.73292
 C562 C 0.82110 0.56927 0.73550
 C563 C 0.83459 0.55159 0.73873
 N564 N 0.82632 0.53226 0.74185
 N565 N 0.83879 0.51586 0.74515
 C566 C 0.86002 0.51814 0.74549
 N567 N 0.86818 0.53761 0.74226
 N568 N 0.85570 0.55402 0.73896
 N569 N 0.77784 0.39585 0.75904
 C570 C 0.79414 0.39913 0.77230
 N571 N 0.79745 0.38542 0.78812
 N572 N 0.78486 0.36891 0.79058
 C573 C 0.76857 0.36553 0.77728
 N574 N 0.76524 0.37934 0.76151
 C575 C 0.80811 0.41649 0.76914
 C576 C 0.81993 0.43093 0.76609
 C577 C 0.83403 0.44799 0.76199
 N578 N 0.84110 0.45141 0.74231
 N579 N 0.85409 0.46730 0.73838
 C580 C 0.86087 0.48013 0.75404
 N581 N 0.85330 0.47685 0.77368
 N582 N 0.84022 0.46102 0.77761
 N583 N 0.29817 -0.11544 0.28605
 C584 C 0.29510 -0.10239 0.26964
 N585 N 0.27854 -0.10572 0.25674
 N586 N 0.26545 -0.12168 0.26013
 C587 C 0.26849 -0.13483 0.27654
 N588 N 0.28510 -0.13140 0.28943
 C589 C 0.30917 -0.08521 0.26601
 C590 C 0.32095 -0.07071 0.26305
 C591 C 0.33482 -0.05334 0.25964
 N592 N 0.33667 -0.04473 0.24037
 N593 N 0.34919 -0.02827 0.23731
 C594 C 0.36040 -0.01986 0.25340
 N595 N 0.35842 -0.02857 0.27271
 N596 N 0.34589 -0.04502 0.27575
 N597 N 0.20149 -0.11525 0.71308
 C598 C 0.20454 -0.10187 0.72931
 N599 N 0.22100 -0.10498 0.74236
 N600 N 0.23401 -0.12104 0.73930
 C601 C 0.23098 -0.13453 0.72308
 N602 N 0.21449 -0.13129 0.71001
 C603 C 0.19039 -0.08473 0.73270
 C604 C 0.17848 -0.07034 0.73551
 C605 C 0.16442 -0.05313 0.73888
 N606 N 0.16298 -0.03750 0.72464
 N607 N 0.15034 -0.02123 0.72802
 C608 C 0.13855 -0.01999 0.74572
 N609 N 0.14014 -0.03575 0.75996
 N610 N 0.15279 -0.05202 0.75658
 N611 N 0.72181 0.39515 0.24316
 C612 C 0.70514 0.39798 0.23029
 N613 N 0.70201 0.38440 0.21423
 N614 N 0.71514 0.36847 0.21113
 C615 C 0.73185 0.36558 0.22397
 N616 N 0.73496 0.37920 0.24005
 C617 C 0.69097 0.41512 0.23358
 C618 C 0.67904 0.42952 0.23627
 C619 C 0.66493 0.44672 0.23953
 N620 N 0.65325 0.44785 0.25718
 N621 N 0.64053 0.46409 0.26046
 C622 C 0.63892 0.47978 0.24614
 N623 N 0.65078 0.47853 0.22849
 N624 N 0.66349 0.46228 0.22521
 N625 N 0.70051 0.61543 0.28564
 C626 C 0.70371 0.60204 0.26944
 N627 N 0.72053 0.60499 0.25680
 N628 N 0.73374 0.62086 0.26024
 C629 C 0.73058 0.63429 0.27647
 N630 N 0.71371 0.63129 0.28909
 C631 C 0.68971 0.58472 0.26596
 C632 C 0.67817 0.56997 0.26312
 C633 C 0.66480 0.55212 0.25982
 N634 N 0.67309 0.53259 0.25913
 N635 N 0.66079 0.51595 0.25610
 C636 C 0.63972 0.51820 0.25360
 N637 N 0.63148 0.53787 0.25442
 N638 N 0.64380 0.55453 0.25745
 N639 N 0.20056 0.11550 0.78544
 C640 C 0.20330 0.10247 0.76886
 N641 N 0.21975 0.10573 0.75582
 N642 N 0.23303 0.12155 0.75922
 C643 C 0.23034 0.13462 0.77582
 N644 N 0.21384 0.13132 0.78884
 C645 C 0.18926 0.08514 0.76544
 C646 C 0.17771 0.07037 0.76266
 C647 C 0.16434 0.05246 0.75940
 N648 N 0.17267 0.03293 0.75866
 N649 N 0.16041 0.01626 0.75563
 C650 C 0.13932 0.01846 0.75317
 N651 N 0.13104 0.03812 0.75406
 N652 N 0.14333 0.05480 0.75709
 N653 N 0.24343 0.28015 0.10465
 C654 C 0.23043 0.29666 0.10154
 N655 N 0.21397 0.29956 0.11464
 N656 N 0.21066 0.28639 0.13045
 C657 C 0.22370 0.26988 0.13366
 N658 N 0.24012 0.26698 0.12045
 C659 C 0.23404 0.31088 0.08458
 C660 C 0.23702 0.32276 0.07027
 C661 C 0.24041 0.33673 0.05305
 N662 N 0.22437 0.34829 0.04537
 N663 N 0.22734 0.36079 0.02898
 C664 C 0.24648 0.36228 0.01967
 N665 N 0.26247 0.35052 0.02746
 N666 N 0.25951 0.33803 0.04387
 N667 N 0.74482 0.77904 0.60547
 C668 C 0.73198 0.79560 0.60201
 N669 N 0.71548 0.79887 0.61499
 N670 N 0.71192 0.78597 0.63097
 C671 C 0.72474 0.76936 0.63447
 N672 N 0.74126 0.76614 0.62145
 C673 C 0.73559 0.80941 0.58471
 C674 C 0.73826 0.82109 0.57016
 C675 C 0.74100 0.83506 0.55282
 N676 N 0.72408 0.84290 0.54271
 N677 N 0.72654 0.85580 0.52655
 C678 C 0.74601 0.86165 0.52007
 N679 N 0.76292 0.85336 0.53008
 N680 N 0.76047 0.84041 0.54622
 N681 N 0.78620 0.80032 0.38508
 C682 C 0.76989 0.79728 0.39834
 N683 N 0.75678 0.78083 0.39510
 N684 N 0.75987 0.76779 0.37909
 C685 C 0.77620 0.77076 0.36579
 N686 N 0.78930 0.78727 0.36906
 C687 C 0.76665 0.81113 0.41573
 C688 C 0.76379 0.82255 0.43050
 C689 C 0.76021 0.83586 0.44825
 N690 N 0.75312 0.82761 0.46642
 N691 N 0.74963 0.83993 0.48291
 C692 C 0.75313 0.86097 0.48185
 N693 N 0.76024 0.86912 0.46352
 N694 N 0.76372 0.85679 0.44703
 N695 N 0.25701 0.28090 -0.10547
 C696 C 0.26987 0.29761 -0.10247
 N697 N 0.28614 0.30066 -0.11577
 N698 N 0.28945 0.28741 -0.13160
 C699 C 0.27661 0.27064 -0.13464
 N700 N 0.26031 0.26765 -0.12130
 C701 C 0.26653 0.31161 -0.08514
 C702 C 0.26372 0.32311 -0.07038
 C703 C 0.26030 0.33642 -0.05255
 N704 N 0.26354 0.35741 -0.05379
 N705 N 0.26031 0.36969 -0.03719
 C706 C 0.25378 0.36142 -0.01869
 N707 N 0.25050 0.34034 -0.01762
 N708 N 0.25373 0.32809 -0.03421
 N709 N 0.74365 0.21926 -0.10542
 C710 C 0.73050 0.20288 -0.10206
 N711 N 0.71390 0.20000 -0.11500
 N712 N 0.71058 0.21306 -0.13089
 C713 C 0.72375 0.22945 -0.13433
 N714 N 0.74034 0.23233 -0.12130
 C715 C 0.73400 0.18884 -0.08494
 C716 C 0.73677 0.17711 -0.07046
 C717 C 0.73985 0.16337 -0.05302
 N718 N 0.72679 0.16434 -0.03635
 N719 N 0.72984 0.15196 -0.01990
 C720 C 0.74608 0.13815 -0.01946
 N721 N 0.75902 0.13713 -0.03636
 N722 N 0.75597 0.14953 -0.05283
 N723 N 0.21344 0.70079 0.38508
 C724 C 0.22980 0.70368 0.39833
 N725 N 0.24294 0.72014 0.39527
 N726 N 0.23984 0.73329 0.37941
 C727 C 0.22349 0.73042 0.36609
 N728 N 0.21034 0.71394 0.36922
 C729 C 0.23315 0.68951 0.41539
 C730 C 0.23599 0.67770 0.42980
 C731 C 0.23938 0.66386 0.44712
 N732 N 0.25597 0.65060 0.44725
 N733 N 0.25939 0.63813 0.46359
 C734 C 0.24640 0.63854 0.48048
 N735 N 0.22966 0.65175 0.48010
 N736 N 0.22624 0.66420 0.46376
 N737 N 0.28622 0.70119 0.61432
 C738 C 0.26969 0.70379 0.60126
 N739 N 0.25637 0.72005 0.60452
 N740 N 0.25949 0.73330 0.62038
 C741 C 0.27605 0.73073 0.63350
 N742 N 0.28934 0.71444 0.63018
 C743 C 0.26644 0.68965 0.58406
 C744 C 0.26369 0.67792 0.56950
 C745 C 0.26029 0.66419 0.55201
 N746 N 0.24247 0.66569 0.54059
 N747 N 0.23938 0.65321 0.52414
 C748 C 0.25402 0.63879 0.51841
 N749 N 0.27182 0.63729 0.53007
 N750 N 0.27491 0.64979 0.54653
 N751 N 0.78736 0.19952 0.11574
 C752 C 0.77107 0.20234 0.10243
 N753 N 0.75789 0.21873 0.10551
 N754 N 0.76089 0.23192 0.12145
 C755 C 0.77720 0.22914 0.13482
 N756 N 0.79037 0.21270 0.13169
 C757 C 0.76793 0.18833 0.08511
 C758 C 0.76515 0.17683 0.07038
 C759 C 0.76160 0.16357 0.05257
 N760 N 0.75799 0.17217 0.03357
 N761 N 0.75427 0.15999 0.01704
 C762 C 0.75389 0.13872 0.01884
 N763 N 0.75778 0.13021 0.03795
 N764 N 0.76150 0.14240 0.05452
 N765 N 0.46313 0.36523 0.54990
 C766 C 0.47945 0.35185 0.54733
 N767 N 0.49272 0.35471 0.53100
 N768 N 0.48980 0.37051 0.51769
 C769 C 0.47350 0.38396 0.52024
 N770 N 0.46022 0.38102 0.53659
 C771 C 0.48252 0.33472 0.56157
 C772 C 0.48521 0.32014 0.57326
 C773 C 0.48860 0.30241 0.58668
 N774 N 0.49196 0.28320 0.57827
 N775 N 0.49551 0.26674 0.59053
 C776 C 0.49595 0.26881 0.61172
 N777 N 0.49229 0.28813 0.62008
 N778 N 0.48875 0.30463 0.60779
 N779 N -0.00718 0.85465 0.02957
 C780 C -0.02012 0.85177 0.04615
 N781 N -0.03640 0.86512 0.04906
 N782 N -0.03962 0.88090 0.03581
 C783 C -0.02669 0.88384 0.01920
 N784 N -0.01040 0.87043 0.01632
 C785 C -0.01669 0.83470 0.06035
 C786 C -0.01378 0.82025 0.07214
 C787 C -0.01024 0.80289 0.08595
 N788 N -0.02547 0.79646 0.09926
 N789 N -0.02232 0.78003 0.11171
 C790 C -0.00386 0.76933 0.11126
 N791 N 0.01141 0.77606 0.09800
 N792 N 0.00827 0.79249 0.08556
 N793 N 0.00650 0.64513 0.02963
 C794 C 0.01978 0.64842 0.04588
 N795 N 0.03622 0.63525 0.04862
 N796 N 0.03929 0.61926 0.03550
 C797 C 0.02601 0.61592 0.01921
 N798 N 0.00956 0.62914 0.01651
 C799 C 0.01649 0.66568 0.05996
 C800 C 0.01370 0.68026 0.07168
 C801 C 0.01035 0.69775 0.08545
 N802 N 0.02256 0.71509 0.08402
 N803 N 0.01923 0.73149 0.09653
 C804 C 0.00351 0.73123 0.11092
 N805 N -0.00857 0.71366 0.11237
 N806 N -0.00524 0.69726 0.09985
 N807 N 0.50654 0.14501 0.53038
 C808 C 0.51966 0.14786 0.54686
 N809 N 0.53609 0.13464 0.54938
 N810 N 0.53924 0.11896 0.53592
 C811 C 0.52608 0.11600 0.51946
 N812 N 0.50969 0.12933 0.51691
 C813 C 0.51631 0.16479 0.56134
 C814 C 0.51358 0.17916 0.57333
 C815 C 0.51046 0.19660 0.58724
 N816 N 0.52346 0.21340 0.58639
 N817 N 0.52023 0.22996 0.59871
 C818 C 0.50385 0.23040 0.61235
 N819 N 0.49096 0.21337 0.61324
 N820 N 0.49419 0.19680 0.60089
 N821 N -0.00947 0.14670 0.47219
 C822 C -0.02297 0.15007 0.45617
 N823 N -0.03905 0.13646 0.45304
 N824 N -0.04157 0.12000 0.46561
 C825 C -0.02807 0.11658 0.48168
 N826 N -0.01199 0.13025 0.48475
 C827 C -0.01987 0.16751 0.44236
 C828 C -0.01680 0.18199 0.43066
 C829 C -0.01258 0.19894 0.41655
 N830 N -0.02527 0.21596 0.41591
 N831 N -0.02125 0.23159 0.40269
 C832 C -0.00447 0.23077 0.38953
 N833 N 0.00830 0.21375 0.39055
 N834 N 0.00430 0.19811 0.40373
 N835 N 0.49529 0.64504 0.97166
 C836 C 0.48247 0.64844 0.95510
 N837 N 0.46589 0.63545 0.95194
 N838 N 0.46226 0.61951 0.96490
 C839 C 0.47509 0.61605 0.98149
 N840 N 0.49167 0.62910 0.98462
 C841 C 0.48617 0.66575 0.94123
 C842 C 0.48888 0.68032 0.92953
 C843 C 0.49155 0.69771 0.91553
 N844 N 0.47458 0.70706 0.90688
 N845 N 0.47692 0.72320 0.89390
 C846 C 0.49632 0.73044 0.88877
 N847 N 0.51327 0.72119 0.89785
 N848 N 0.51095 0.70509 0.91091
 N849 N 0.50649 0.85423 0.97066
 C850 C 0.51957 0.85096 0.95426
 N851 N 0.53597 0.86420 0.95131
 N852 N 0.53916 0.88026 0.96435
 C853 C 0.52606 0.88359 0.98077
 N854 N 0.50968 0.87027 0.98369
 C855 C 0.51612 0.83363 0.94028
 C856 C 0.51315 0.81899 0.92865
 C857 C 0.50959 0.80148 0.91491
 N858 N 0.52300 0.78501 0.91480
 N859 N 0.51971 0.76874 0.90208
 C860 C 0.50293 0.76834 0.88892
 N861 N 0.48944 0.78487 0.88929
 N862 N 0.49273 0.80114 0.90201
 N863 N 0.03691 0.36404 0.45109
 C864 C 0.02048 0.35079 0.45380
 N865 N 0.00717 0.35402 0.47002
 N866 N 0.01022 0.36999 0.48318
 C867 C 0.02668 0.38326 0.48054
 N868 N 0.03996 0.38001 0.46424
 C869 C 0.01728 0.33346 0.43979
 C870 C 0.01446 0.31882 0.42814
 C871 C 0.01089 0.30135 0.41439
 N872 N -0.00638 0.30079 0.40204
 N873 N -0.00988 0.28447 0.38945
 C874 C 0.00378 0.26811 0.38871
 N875 N 0.02102 0.26874 0.40124
 N876 N 0.02452 0.28507 0.41383
 N877 N 0.36511 0.54825 0.46421
 C878 C 0.35191 0.54529 0.48056
 N879 N 0.35512 0.52883 0.49356
 N880 N 0.37108 0.51575 0.49034
 C881 C 0.38435 0.51869 0.47400
 N882 N 0.38107 0.53517 0.46099
 C883 C 0.33469 0.55933 0.48399
 C884 C 0.32011 0.57099 0.48684
 C885 C 0.30252 0.58460 0.49018
 N886 N 0.28346 0.57641 0.49471
 N887 N 0.26701 0.58894 0.49759
 C888 C 0.26896 0.61014 0.49598
 N889 N 0.28823 0.61824 0.49158
 N890 N 0.30469 0.60570 0.48868
 N891 N 0.85528 0.02972 -0.00597
 C892 C 0.85214 0.04630 -0.01885
 N893 N 0.86529 0.04925 -0.03523
 N894 N 0.88114 0.03607 -0.03862
 C895 C 0.88434 0.01946 -0.02575
 N896 N 0.87113 0.01653 -0.00936
 C897 C 0.83486 0.06030 -0.01540
 C898 C 0.82017 0.07186 -0.01259
 C899 C 0.80239 0.08526 -0.00934
 N900 N 0.80489 0.10627 -0.00699
 N901 N 0.78830 0.11863 -0.00405
 C902 C 0.76860 0.11042 -0.00330
 N903 N 0.76625 0.08934 -0.00579
 N904 N 0.78282 0.07700 -0.00873
 N905 N 0.63533 0.04801 0.03697
 C906 C 0.64855 0.04504 0.02065
 N907 N 0.64533 0.02858 0.00754
 N908 N 0.62928 0.01553 0.01061
 C909 C 0.61594 0.01853 0.02690
 N910 N 0.61929 0.03497 0.04005
 C911 C 0.66564 0.05924 0.01721
 C912 C 0.67999 0.07120 0.01436
 C913 C 0.69717 0.08530 0.01098
 N914 N 0.69822 0.09690 -0.00671
 N915 N 0.71447 0.10961 -0.01006
 C916 C 0.73025 0.11128 0.00421
 N917 N 0.72907 0.09950 0.02188
 N918 N 0.71281 0.08681 0.02524
 N919 N 0.13507 0.54871 0.53510
 C920 C 0.14843 0.54549 0.51892
 N921 N 0.14550 0.52863 0.50625
 N922 N 0.12965 0.51541 0.50963
 C923 C 0.11622 0.51862 0.52580
 N924 N 0.11922 0.53550 0.53847
 C925 C 0.16550 0.55971 0.51532
 C926 C 0.17990 0.57162 0.51240
 C927 C 0.19719 0.58563 0.50905
 N928 N 0.20571 0.58768 0.48975
 N929 N 0.22214 0.60025 0.48675
 C930 C 0.23060 0.61131 0.50293
 N931 N 0.22197 0.60912 0.52227
 N932 N 0.20555 0.59655 0.52525
 N933 N 0.13487 0.45148 -0.03692
 C934 C 0.14802 0.45436 -0.02049
 N935 N 0.14484 0.47082 -0.00739
 N936 N 0.12896 0.48401 -0.01060
 C937 C 0.11575 0.48115 -0.02704
 N938 N 0.11900 0.46466 -0.04013
 C939 C 0.16510 0.44017 -0.01704
 C940 C 0.17951 0.42833 -0.01410
 C941 C 0.19683 0.41448 -0.01043
 N942 N 0.20744 0.41538 0.00790
 N943 N 0.22387 0.40294 0.01119
 C944 C 0.23034 0.38914 -0.00374
 N945 N 0.21948 0.38820 -0.02206
 N946 N 0.20304 0.40066 -0.02534
 N947 N 0.64592 0.97223 0.49122
 C948 C 0.64933 0.95598 0.47792
 N949 N 0.63591 0.95279 0.46176
 N950 N 0.61955 0.96546 0.45901
 C951 C 0.61603 0.98169 0.47236
 N952 N 0.62955 0.98489 0.48847
 C953 C 0.66656 0.94195 0.48128
 C954 C 0.68088 0.93003 0.48437
 C955 C 0.69779 0.91579 0.48836
 N956 N 0.70081 0.90800 0.50782
 N957 N 0.71660 0.89488 0.51160
 C958 C 0.72975 0.88874 0.49599
 N959 N 0.72681 0.89697 0.47658
 N960 N 0.71107 0.91014 0.47280
 N961 N 0.86435 0.95100 0.53585
 C962 C 0.85124 0.95402 0.51945
 N963 N 0.85444 0.97062 0.50663
 N964 N 0.87033 0.98380 0.51008
 C965 C 0.88351 0.98081 0.52649
 N966 N 0.88023 0.96417 0.53931
 C967 C 0.83395 0.94003 0.51593
 C968 C 0.81928 0.92844 0.51311
 C969 C 0.80156 0.91494 0.50988
 N970 N 0.78194 0.92303 0.50965
 N971 N 0.76541 0.91057 0.50673
 C972 C 0.76787 0.88954 0.50393
 N973 N 0.78764 0.88154 0.50423
 N974 N 0.80419 0.89401 0.50715
 N975 N 0.36548 0.45094 0.03569
 C976 C 0.35245 0.45387 0.01920
 N977 N 0.35564 0.47049 0.00639
 N978 N 0.37145 0.48374 0.00991
 C979 C 0.38457 0.48081 0.02638
 N980 N 0.38129 0.46419 0.03921
 C981 C 0.33533 0.43973 0.01549
 C982 C 0.32072 0.42809 0.01243
 C983 C 0.30295 0.41473 0.00890
 N984 N 0.28394 0.42323 0.00491
 N985 N 0.26725 0.41098 0.00211
 C986 C 0.26887 0.38972 0.00328
 N987 N 0.28811 0.38129 0.00700
 N988 N 0.30483 0.39356 0.00983
 N989 N 0.53050 0.49316 0.35560
 C990 C 0.54707 0.48022 0.35250
 N991 N 0.54996 0.46378 0.36559
 N992 N 0.53671 0.46042 0.38135
 C993 C 0.52012 0.47337 0.38453
 N994 N 0.51725 0.48981 0.37137
 C995 C 0.56126 0.48369 0.33544
 C996 C 0.57307 0.48641 0.32099
 C997 C 0.58686 0.48943 0.30352
 N998 N 0.60069 0.50560 0.30326
 N999 N 0.61306 0.50864 0.28674
 C1000 C 0.61202 0.49563 0.26984
 N1001 N 0.59822 0.47934 0.27034
 N1002 N 0.58587 0.47630 0.28685
 N1003 N 0.03014 -0.00631 0.85534
 C1004 C 0.04656 -0.01942 0.85207
 N1005 N 0.04922 -0.03608 0.86493
 N1006 N 0.03593 -0.03948 0.88064
 C1007 C 0.01951 -0.02636 0.88400
 N1008 N 0.01684 -0.00972 0.87105
 C1009 C 0.06080 -0.01590 0.83506
 C1010 C 0.07267 -0.01318 0.82064
 C1011 C 0.08650 -0.01023 0.80319
 N1012 N 0.10027 0.00599 0.80285
 N1013 N 0.11266 0.00897 0.78633
 C1014 C 0.11171 -0.00415 0.76952
 N1015 N 0.09798 -0.02051 0.77010
 N1016 N 0.08561 -0.02348 0.78661
 N1017 N 0.03018 0.00727 0.64518
 C1018 C 0.04662 0.02045 0.64825
 N1019 N 0.04940 0.03681 0.63503
 N1020 N 0.03616 0.03987 0.61921
 C1021 C 0.01969 0.02669 0.61607
 N1022 N 0.01694 0.01033 0.62935
 C1023 C 0.06078 0.01721 0.66540
 C1024 C 0.07242 0.01439 0.67999
 C1025 C 0.08584 0.01085 0.69766
 N1026 N 0.10699 0.01067 0.69548
 N1027 N 0.11932 0.00710 0.71194
 C1028 C 0.11096 0.00344 0.73118
 N1029 N 0.08971 0.00387 0.73321
 N1030 N 0.07740 0.00746 0.71678
 N1031 N 0.53118 0.50690 0.14516
 C1032 C 0.54763 0.52007 0.14820
 N1033 N 0.55046 0.53638 0.13493
 N1034 N 0.53723 0.53941 0.11909
 C1035 C 0.52073 0.52625 0.11600
 N1036 N 0.51795 0.50993 0.12932
 C1037 C 0.56169 0.51694 0.16543
 C1038 C 0.57323 0.51421 0.18010
 C1039 C 0.58654 0.51075 0.19786
 N1040 N 0.60770 0.51066 0.19582
 N1041 N 0.61992 0.50706 0.21234
 C1042 C 0.61144 0.50328 0.23150
 N1043 N 0.59018 0.50365 0.23340
 N1044 N 0.57797 0.50727 0.21691
 N1045 N 0.45049 -0.03649 0.13554
 C1046 C 0.45346 -0.02013 0.14882
 N1047 N 0.46993 -0.00702 0.14570
 N1048 N 0.48303 -0.01017 0.12976
 C1049 C 0.48009 -0.02654 0.11642
 N1050 N 0.46359 -0.03964 0.11961
 C1051 C 0.43934 -0.01680 0.16598
 C1052 C 0.42747 -0.01409 0.18041
 C1053 C 0.41345 -0.01087 0.19767
 N1054 N 0.40015 0.00568 0.19784
 N1055 N 0.38749 0.00894 0.21410
 C1056 C 0.38771 -0.00418 0.23086
 N1057 N 0.40094 -0.02091 0.23041
 N1058 N 0.41359 -0.02417 0.21415
 N1059 N 0.97174 0.49513 0.64497
 C1060 C 0.95526 0.48224 0.64882
 N1061 N 0.95191 0.46550 0.63611
 N1062 N 0.96464 0.46174 0.62000
 C1063 C 0.98115 0.47461 0.61610
 N1064 N 0.98447 0.49137 0.62886
 C1065 C 0.94162 0.48607 0.66625
 C1066 C 0.93001 0.48883 0.68087
 C1067 C 0.91596 0.49153 0.69819
 N1068 N 0.90464 0.47505 0.70533
 N1069 N 0.89144 0.47746 0.72129
 C1070 C 0.88885 0.49650 0.73060
 N1071 N 0.90059 0.51288 0.72354
 N1072 N 0.91381 0.51048 0.70758
 N1073 N 0.97059 0.50659 0.85373
 C1074 C 0.95397 0.51944 0.85054
 N1075 N 0.95065 0.53565 0.86390
 N1076 N 0.96355 0.53892 0.87999
 C1077 C 0.98020 0.52607 0.88325
 N1078 N 0.98349 0.50986 0.86982
 C1079 C 0.94000 0.51588 0.83330
 C1080 C 0.92826 0.51292 0.81881
 C1081 C 0.91435 0.50945 0.80151
 N1082 N 0.89975 0.52399 0.79641
 N1083 N 0.88706 0.52092 0.78013
 C1084 C 0.88856 0.50322 0.76828
 N1085 N 0.90315 0.48862 0.77362
 N1086 N 0.91582 0.49169 0.78991
 N1087 N 0.45055 0.03649 0.36410
 C1088 C 0.45359 0.02015 0.35083
 N1089 N 0.47008 0.00713 0.35400
 N1090 N 0.48312 0.01034 0.36999
 C1091 C 0.48010 0.02668 0.38333
 N1092 N 0.46359 0.03970 0.38009
 C1093 C 0.43952 0.01665 0.33366
 C1094 C 0.42773 0.01369 0.31921
 C1095 C 0.41381 0.01008 0.30194
 N1096 N 0.41504 -0.00793 0.29073
 N1097 N 0.40236 -0.01117 0.27447
 C1098 C 0.38800 0.00351 0.26876
 N1099 N 0.38675 0.02148 0.28024
 N1100 N 0.39944 0.02472 0.29650
   
