data_POSCAR
  _audit_creation_date              2014-09-24
  _audit_creation_method            'ToBaCCo'
  _symmetry_space_group_name_H-M    'P1'
  _symmetry_Int_Tables_number       1
  _symmetry_cell_setting            triclinic
  loop_
  _symmetry_equiv_pos_as_xyz
 x,y,z
_cell_length_a 53.0468
_cell_length_b 49.7048
_cell_length_c 52.8492
_cell_angle_alpha 93.881700
_cell_angle_beta 88.841000
_cell_angle_gamma 90.238800
loop_
  _atom_site_label
  _atom_site_type_symbol
  _atom_site_fract_x
  _atom_site_fract_y
  _atom_site_fract_z
N1 N 0.59276 0.65219 0.60126
 N2 N 0.57876 0.63733 0.61569
 C3 C 0.55638 0.64949 0.62038
 C4 C 0.55638 0.67337 0.60835
 C5 C 0.57981 0.67445 0.59642
 H6 H 0.54144 0.64180 0.63214
 H7 H 0.58678 0.69006 0.58479
 Cu8 Cu 0.59120 0.60405 0.62795
 Cu9 Cu 0.62621 0.64084 0.58905
 Cu10 Cu 0.65202 0.58688 0.61723
 N11 N 0.60788 0.57832 0.64796
 N12 N 0.63168 0.57189 0.64402
 C13 C 0.63843 0.55437 0.66096
 C14 C 0.61769 0.54943 0.67654
 C15 C 0.59861 0.56511 0.66751
 H16 H 0.65714 0.54600 0.66174
 H17 H 0.57948 0.56730 0.67472
 N18 N 0.66932 0.60504 0.58975
 N19 N 0.65963 0.62591 0.57927
 C20 C 0.67541 0.63332 0.56070
 C21 C 0.69600 0.61621 0.55930
 C22 C 0.69146 0.59854 0.57806
 H23 H 0.67170 0.64933 0.54843
 H24 H 0.70326 0.58197 0.58267
 H25 H 0.62358 0.60003 0.59465
 H26 H 0.63291 0.62306 0.62253
 N27 N 0.89556 0.32479 0.10601
 N28 N 0.90373 0.33570 0.12766
 C29 C 0.92388 0.32176 0.13463
 C30 C 0.92881 0.30098 0.11623
 C31 C 0.91030 0.30373 0.09834
 H32 H 0.93434 0.32674 0.15164
 H33 H 0.90740 0.29124 0.08112
 Cu34 Cu 0.88752 0.36748 0.14417
 Cu35 Cu 0.86614 0.33832 0.08952
 Cu36 Cu 0.83662 0.39459 0.11883
 N37 N 0.87097 0.39925 0.16029
 N38 N 0.85095 0.40957 0.15041
 C39 C 0.84328 0.43124 0.16518
 C40 C 0.85945 0.43485 0.18539
 C41 C 0.87681 0.41415 0.18163
 H42 H 0.82740 0.44374 0.16122
 H43 H 0.89243 0.41014 0.19363
 N44 N 0.82502 0.37649 0.08678
 N45 N 0.83612 0.35491 0.07579
 C46 C 0.82361 0.34698 0.05464
 C47 C 0.80374 0.36446 0.05207
 C48 C 0.80526 0.38296 0.07278
 H49 H 0.82872 0.32987 0.04188
 H50 H 0.79262 0.39962 0.07751
 H51 H 0.86970 0.37790 0.10380
 H52 H 0.84875 0.35555 0.12202
 N53 N 0.39943 0.17747 -0.09975
 N54 N 0.40885 0.16585 -0.12091
 C55 C 0.42976 0.17926 -0.12766
 C56 C 0.43374 0.20044 -0.10974
 C57 C 0.41406 0.19861 -0.09228
 H58 H 0.44141 0.17382 -0.14421
 H59 H 0.41047 0.21181 -0.07550
 Cu60 Cu 0.39294 0.13420 -0.13744
 Cu61 Cu 0.36892 0.16435 -0.08345
 Cu62 Cu 0.34036 0.10779 -0.11254
 N63 N 0.37669 0.10255 -0.15362
 N64 N 0.35608 0.09240 -0.14381
 C65 C 0.34867 0.07089 -0.15867
 C66 C 0.36555 0.06724 -0.17895
 C67 C 0.38311 0.08776 -0.17506
 H68 H 0.33230 0.05868 -0.15483
 H69 H 0.39919 0.09183 -0.18711
 N70 N 0.32731 0.12628 -0.08083
 N71 N 0.33797 0.14800 -0.06992
 C72 C 0.32447 0.15603 -0.04891
 C73 C 0.30441 0.13845 -0.04639
 C74 C 0.30684 0.11985 -0.06698
 H75 H 0.32908 0.17320 -0.03619
 H76 H 0.29441 0.10307 -0.07171
 H77 H 0.37280 0.12462 -0.09714
 H78 H 0.35317 0.14673 -0.11599
 N79 N 0.10443 0.84179 0.39655
 N80 N 0.09586 0.84945 0.37505
 C81 C 0.07424 0.83618 0.36971
 C82 C 0.06880 0.81917 0.38895
 C83 C 0.08849 0.82352 0.40573
 H84 H 0.06338 0.83881 0.35300
 H85 H 0.09162 0.81356 0.42292
 Cu86 Cu 0.11378 0.87590 0.35589
 Cu87 Cu 0.13664 0.85427 0.40997
 Cu88 Cu 0.16960 0.90073 0.37607
 N89 N 0.13148 0.90398 0.33864
 N90 N 0.15343 0.91328 0.34637
 C91 C 0.16119 0.93272 0.33146
 C92 C 0.14308 0.93595 0.31340
 C93 C 0.12448 0.91731 0.31857
 H94 H 0.17839 0.94421 0.33410
 H95 H 0.10709 0.91381 0.30856
 N96 N 0.18270 0.88581 0.40672
 N97 N 0.16970 0.86903 0.42028
 C98 C 0.18335 0.86322 0.44043
 C99 C 0.20612 0.87680 0.43934
 C100 C 0.20506 0.89089 0.41772
 H101 H 0.17751 0.84956 0.45451
 H102 H 0.21944 0.90411 0.41070
 H103 H 0.13608 0.89120 0.39412
 H104 H 0.15275 0.86300 0.37559
 C105 C 0.09947 0.14004 0.13528
 C106 C 0.09972 0.12098 0.15370
 C107 C 0.11826 0.10081 0.15289
 C108 C 0.13678 0.10004 0.13347
 C109 C 0.13691 0.11911 0.11504
 C110 C 0.11814 0.13900 0.11604
 H111 H 0.08538 0.12179 0.16862
 H112 H 0.15113 0.08455 0.13267
 H113 H 0.11801 0.15367 0.10178
 C114 C 0.40426 0.85861 0.61848
 C115 C 0.40478 0.87902 0.63816
 C116 C 0.38485 0.89750 0.64182
 C117 C 0.36437 0.89548 0.62534
 C118 C 0.36384 0.87547 0.60530
 C119 C 0.38379 0.85705 0.60203
 H120 H 0.42037 0.87997 0.65114
 H121 H 0.34916 0.90998 0.62762
 H122 H 0.38337 0.84145 0.58668
 C123 C 0.89694 0.65541 0.37433
 C124 C 0.89709 0.63401 0.35558
 C125 C 0.87895 0.61339 0.35602
 C126 C 0.86042 0.61444 0.37542
 C127 C 0.85998 0.63574 0.39431
 C128 C 0.87838 0.65610 0.39367
 H129 H 0.91139 0.63340 0.34062
 H130 H 0.84629 0.59865 0.37580
 H131 H 0.87824 0.67256 0.40820
 C132 C 0.60842 0.36055 -0.13196
 C133 C 0.61024 0.37861 -0.15123
 C134 C 0.62953 0.39804 -0.15132
 C135 C 0.64714 0.39932 -0.13177
 C136 C 0.64563 0.38138 -0.11236
 C137 C 0.62621 0.36207 -0.11260
 H138 H 0.59661 0.37749 -0.16627
 H139 H 0.66209 0.41423 -0.13169
 H140 H 0.62499 0.34816 -0.09770
 C141 C -0.02857 0.24442 0.09363
 C142 C -0.01230 0.24249 0.11429
 C143 C -0.01669 0.26018 0.13608
 C144 C -0.03590 0.27961 0.13652
 C145 C -0.05178 0.28155 0.11572
 C146 C -0.04788 0.26345 0.09441
 C147 C -0.00196 0.25837 0.15745
 C148 C 0.01681 0.23904 0.15793
 C149 C 0.02205 0.22099 0.13671
 C150 C 0.00787 0.22342 0.11421
 C151 C 0.01461 0.20704 0.09225
 C152 C 0.03405 0.18846 0.09238
 C153 C 0.04726 0.18499 0.11443
 C154 C 0.04129 0.20089 0.13706
 C155 C 0.05465 0.19565 0.15915
 C156 C 0.07336 0.17591 0.15852
 C157 C 0.07954 0.16087 0.13593
 C158 C 0.06640 0.16553 0.11396
 H159 H -0.02726 0.23117 0.07667
 H160 H -0.03860 0.29283 0.15347
 H161 H -0.05954 0.26390 0.07791
 H162 H -0.00513 0.27191 0.17416
 H163 H 0.02733 0.23922 0.17516
 H164 H 0.00560 0.20851 0.07433
 H165 H 0.03863 0.17647 0.07500
 H166 H 0.05083 0.20607 0.17735
 H167 H 0.08324 0.17256 0.17576
 H168 H 0.07078 0.15355 0.09651
 C169 C 0.49125 0.70431 0.61235
 C170 C 0.49625 0.73190 0.60914
 C171 C 0.52179 0.73982 0.60610
 C172 C 0.54120 0.72062 0.60533
 C173 C 0.53583 0.69342 0.60845
 C174 C 0.51075 0.68552 0.61212
 C175 C 0.52790 0.76691 0.60411
 C176 C 0.50929 0.78655 0.60573
 C177 C 0.48359 0.77978 0.60881
 C178 C 0.47688 0.75189 0.60937
 C179 C 0.45106 0.74489 0.60977
 C180 C 0.43241 0.76444 0.61052
 C181 C 0.43864 0.79174 0.61150
 C182 C 0.46430 0.79991 0.61099
 C183 C 0.46951 0.82796 0.61326
 C184 C 0.45006 0.84686 0.61560
 C185 C 0.42483 0.83856 0.61549
 C186 C 0.41926 0.81097 0.61330
 H187 H 0.47255 0.69663 0.61571
 H188 H 0.56062 0.72703 0.60297
 H189 H 0.50609 0.66463 0.61464
 H190 H 0.54737 0.77308 0.60161
 H191 H 0.51568 0.80694 0.60390
 H192 H 0.44455 0.72431 0.60891
 H193 H 0.41283 0.75808 0.61070
 H194 H 0.48839 0.83598 0.61395
 H195 H 0.45475 0.86813 0.61742
 H196 H 0.39972 0.80445 0.61371
 C197 C 1.02483 0.76789 0.41383
 C198 C 1.00797 0.76301 0.39362
 C199 C 1.01202 0.77740 0.37165
 C200 C 1.03170 0.79632 0.37046
 C201 C 1.04844 0.80090 0.39062
 C202 C 1.04463 0.78634 0.41227
 C203 C 0.99660 0.77268 0.35076
 C204 C 0.97761 0.75340 0.35081
 C205 C 0.97290 0.73831 0.37210
 C206 C 0.98762 0.74400 0.39425
 C207 C 0.98135 0.73072 0.41633
 C208 C 0.96199 0.71187 0.41657
 C209 C 0.94839 0.70503 0.39477
 C210 C 0.95376 0.71790 0.37211
 C211 C 0.94004 0.70934 0.35026
 C212 C 0.92170 0.68919 0.35111
 C213 C 0.91622 0.67700 0.37368
 C214 C 0.92956 0.68512 0.39549
 H215 H 1.02368 0.75734 0.43095
 H216 H 1.03415 0.80686 0.35333
 H217 H 1.05686 0.78906 0.42836
 H218 H 0.99945 0.78379 0.33396
 H219 H 0.96658 0.75118 0.33391
 H220 H 0.99077 0.73483 0.43403
 H221 H 0.95783 0.70226 0.43400
 H222 H 0.94337 0.71734 0.33205
 H223 H 0.91161 0.68318 0.33401
 H224 H 0.92568 0.67541 0.41292
 C225 C 0.47958 0.25501 -0.08655
 C226 C 0.49455 0.25901 -0.10850
 C227 C 0.48872 0.24329 -0.13104
 C228 C 0.46903 0.22430 -0.13127
 C229 C 0.45452 0.22055 -0.10934
 C230 C 0.45997 0.23616 -0.08706
 C231 C 0.50251 0.24658 -0.15334
 C232 C 0.52195 0.26527 -0.15398
 C233 C 0.52861 0.28149 -0.13214
 C234 C 0.51491 0.27805 -0.10892
 C235 C 0.52211 0.29365 -0.08690
 C236 C 0.54174 0.31215 -0.08748
 C237 C 0.55495 0.31608 -0.10998
 C238 C 0.54859 0.30096 -0.13270
 C239 C 0.56247 0.30617 -0.15506
 C240 C 0.58175 0.32537 -0.15469
 C241 C 0.58799 0.34005 -0.13214
 C242 C 0.57451 0.33524 -0.10984
 H243 H 0.48233 0.26617 -0.06865
 H244 H 0.46486 0.21269 -0.14878
 H245 H 0.44922 0.23369 -0.06974
 H246 H 0.49817 0.23457 -0.17061
 H247 H 0.53155 0.26629 -0.17202
 H248 H 0.51307 0.29196 -0.06866
 H249 H 0.54657 0.32361 -0.07006
 H250 H 0.55891 0.29595 -0.17324
 H251 H 0.59204 0.32856 -0.17215
 H252 H 0.57897 0.34681 -0.09235
 C253 C 0.16579 -0.01235 0.26850
 C254 C 0.14337 -0.00531 0.25642
 C255 C 0.12075 -0.01839 0.26354
 C256 C 0.12084 -0.03764 0.28181
 C257 C 0.14318 -0.04422 0.29364
 C258 C 0.16559 -0.03139 0.28675
 C259 C 0.09806 -0.01211 0.25253
 C260 C 0.09711 0.00706 0.23469
 C261 C 0.11900 0.02080 0.22693
 C262 C 0.14258 0.01428 0.23775
 C263 C 0.16458 0.02750 0.22950
 C264 C 0.16366 0.04653 0.21153
 C265 C 0.14086 0.05337 0.20107
 C266 C 0.11814 0.04078 0.20862
 C267 C 0.09551 0.04888 0.19754
 C268 C 0.09565 0.06833 0.17968
 C269 C 0.11821 0.08043 0.17217
 C270 C 0.14075 0.07286 0.18303
 H271 H 0.18384 -0.00345 0.26451
 H272 H 0.10327 -0.04714 0.28711
 H273 H 0.18322 -0.03614 0.29535
 H274 H 0.08073 -0.02210 0.25785
 H275 H 0.07877 0.01049 0.22722
 H276 H 0.18303 0.02351 0.23643
 H277 H 0.18108 0.05608 0.20578
 H278 H 0.07732 0.04070 0.20221
 H279 H 0.07798 0.07365 0.17141
 H280 H 0.15828 0.08243 0.17763
 C281 C 0.59193 0.51234 -0.26947
 C282 C 0.61331 0.49848 -0.26152
 C283 C 0.63643 0.50239 -0.27468
 C284 C 0.63774 0.51905 -0.29514
 C285 C 0.61631 0.53259 -0.30296
 C286 C 0.59346 0.52898 -0.28968
 C287 C 0.65825 0.48970 -0.26740
 C288 C 0.65778 0.47322 -0.24723
 C289 C 0.63526 0.46847 -0.23351
 C290 C 0.61257 0.48103 -0.24100
 C291 C 0.58987 0.47551 -0.22788
 C292 C 0.58926 0.45848 -0.20814
 C293 C 0.61119 0.44639 -0.20043
 C294 C 0.63459 0.45133 -0.21275
 C295 C 0.65631 0.43887 -0.20366
 C296 C 0.65463 0.42193 -0.18366
 C297 C 0.63136 0.41675 -0.17199
 C298 C 0.60974 0.42922 -0.18041
 H299 H 0.57365 0.51101 -0.26041
 H300 H 0.65574 0.52146 -0.30471
 H301 H 0.57637 0.53888 -0.29478
 H302 H 0.67600 0.49259 -0.27741
 H303 H 0.67551 0.46421 -0.24310
 H304 H 0.57197 0.48375 -0.23258
 H305 H 0.57133 0.45474 -0.19879
 H306 H 0.67494 0.44174 -0.21149
 H307 H 0.67161 0.41243 -0.17758
 H308 H 0.59169 0.42570 -0.17117
 C309 C 0.34219 1.01120 0.77505
 C310 C 0.36358 1.00551 0.75912
 C311 C 0.38581 1.02068 0.76429
 C312 C 0.38630 1.04071 0.78434
 C313 C 0.36492 1.04610 0.79985
 C314 C 0.34294 1.03108 0.79499
 C315 C 0.40755 1.01580 0.74949
 C316 C 0.40791 0.99607 0.72963
 C317 C 0.38635 0.98034 0.72358
 C318 C 0.36372 0.98533 0.73841
 C319 C 0.34198 0.97007 0.73196
 C320 C 0.34228 0.95050 0.71196
 C321 C 0.36419 0.94515 0.69757
 C322 C 0.38661 0.95985 0.70314
 C323 C 0.40836 0.95325 0.68799
 C324 C 0.40769 0.93313 0.66826
 C325 C 0.38543 0.91887 0.66283
 C326 C 0.36374 0.92503 0.67760
 H327 H 0.32454 1.00065 0.77280
 H328 H 0.40357 1.05187 0.78801
 H329 H 0.32604 1.03480 0.80646
 H330 H 0.42459 1.02736 0.75334
 H331 H 0.42552 0.99382 0.71926
 H332 H 0.32419 0.97280 0.74192
 H333 H 0.32508 0.93935 0.70775
 H334 H 0.42628 0.96310 0.69084
 H335 H 0.42467 0.92892 0.65698
 H336 H 0.34649 0.91381 0.67378
 C337 C 0.83550 0.49125 0.23142
 C338 C 0.85707 0.49816 0.24589
 C339 C 0.87961 0.48373 0.23969
 C340 C 0.88017 0.46302 0.22024
 C341 C 0.85862 0.45643 0.20619
 C342 C 0.83637 0.47081 0.21194
 C343 C 0.90161 0.49011 0.25279
 C344 C 0.90198 0.51083 0.27173
 C345 C 0.88013 0.52594 0.27866
 C346 C 0.85712 0.51900 0.26601
 C347 C 0.83493 0.53297 0.27405
 C348 C 0.83520 0.55334 0.29334
 C349 C 0.85757 0.56097 0.30522
 C350 C 0.88044 0.54759 0.29798
 C351 C 0.90271 0.55676 0.31024
 C352 C 0.90209 0.57798 0.32895
 C353 C 0.87939 0.59078 0.33621
 C354 C 0.85717 0.58210 0.32428
 H355 H 0.81771 0.50143 0.23435
 H356 H 0.89764 0.45238 0.21574
 H357 H 0.81939 0.46617 0.20148
 H358 H 0.91887 0.47906 0.24821
 H359 H 0.91977 0.51420 0.28088
 H360 H 0.81678 0.52838 0.26606
 H361 H 0.81765 0.56341 0.29888
 H362 H 0.92101 0.54830 0.30565
 H363 H 0.91951 0.58428 0.33796
 H364 H 0.83957 0.59222 0.32951
 C365 C 0.26085 0.16424 0.00754
 C366 C 0.24625 0.14116 0.01244
 C367 C 0.25175 0.11690 -0.00228
 C368 C 0.27056 0.11621 -0.02140
 C369 C 0.28461 0.13933 -0.02614
 C370 C 0.27966 0.16324 -0.01137
 C371 C 0.23853 0.09334 0.00213
 C372 C 0.22000 0.09311 0.02102
 C373 C 0.21365 0.11667 0.03621
 C374 C 0.22660 0.14124 0.03146
 C375 C 0.21925 0.16512 0.04566
 C376 C 0.20026 0.16503 0.06409
 C377 C 0.18796 0.14119 0.06942
 C378 C 0.19457 0.11657 0.05579
 C379 C 0.18188 0.09287 0.06256
 C380 C 0.16332 0.09380 0.08171
 C381 C 0.15666 0.11825 0.09473
 C382 C 0.16908 0.14188 0.08847
 H383 H 0.25848 0.18338 0.01811
 H384 H 0.27447 0.09743 -0.03236
 H385 H 0.29017 0.18145 -0.01457
 H386 H 0.24261 0.07475 -0.00911
 H387 H 0.21071 0.07404 0.02293
 H388 H 0.22756 0.18448 0.04276
 H389 H 0.19522 0.18391 0.07440
 H390 H 0.18595 0.07319 0.05369
 H391 H 0.15392 0.07527 0.08617
 H392 H 0.16431 0.16084 0.09879
 C393 C 0.75151 0.59189 0.51771
 C394 C 0.75719 0.61453 0.50368
 C395 C 0.74274 0.63822 0.50925
 C396 C 0.72303 0.63867 0.52744
 C397 C 0.71735 0.61587 0.54071
 C398 C 0.73197 0.59265 0.53585
 C399 C 0.74791 0.66137 0.49661
 C400 C 0.76712 0.66170 0.47843
 C401 C 0.78190 0.63862 0.47185
 C402 C 0.77661 0.61451 0.48442
 C403 C 0.79062 0.59108 0.47704
 C404 C 0.80920 0.59112 0.45818
 C405 C 0.81484 0.61448 0.44604
 C406 C 0.80155 0.63869 0.45283
 C407 C 0.80860 0.66196 0.44024
 C408 C 0.82758 0.66093 0.42151
 C409 C 0.84019 0.63680 0.41459
 C410 C 0.83377 0.61367 0.42703
 H411 H 0.76181 0.57325 0.51528
 H412 H 0.71219 0.65696 0.53133
 H413 H 0.72811 0.57469 0.54576
 H414 H 0.73693 0.67954 0.50081
 H415 H 0.76959 0.68042 0.46956
 H416 H 0.78745 0.57205 0.48517
 H417 H 0.81929 0.57255 0.45304
 H418 H 0.79998 0.68136 0.44443
 H419 H 0.83215 0.67907 0.41211
 H420 H 0.84377 0.59500 0.42208
 C421 C 0.76243 0.33793 -0.00173
 C422 C 0.74852 0.36100 -0.00728
 C423 C 0.75370 0.38553 0.00697
 C424 C 0.77147 0.38647 0.02638
 C425 C 0.78487 0.36336 0.03173
 C426 C 0.78026 0.33920 0.01738
 C427 C 0.74123 0.40909 0.00176
 C428 C 0.72388 0.40905 -0.01755
 C429 C 0.71791 0.38520 -0.03229
 C430 C 0.72991 0.36062 -0.02658
 C431 C 0.72265 0.33643 -0.04010
 C432 C 0.70470 0.33623 -0.05884
 C433 C 0.69348 0.36008 -0.06521
 C434 C 0.70007 0.38499 -0.05231
 C435 C 0.68865 0.40866 -0.06023
 C436 C 0.67119 0.40742 -0.07971
 C437 C 0.66440 0.38266 -0.09190
 C438 C 0.67568 0.35907 -0.08456
 H439 H 0.76033 0.31861 -0.01199
 H440 H 0.77517 0.40543 0.03704
 H441 H 0.79028 0.32099 0.02105
 H442 H 0.74505 0.42788 0.01265
 H443 H 0.71507 0.42813 -0.02011
 H444 H 0.73013 0.31704 -0.03634
 H445 H 0.69964 0.31713 -0.06857
 H446 H 0.69297 0.42853 -0.05205
 H447 H 0.66270 0.42593 -0.08507
 H448 H 0.67086 0.33986 -0.09426
 C449 C 0.27205 0.87967 0.46537
 C450 C 0.26794 0.87467 0.49119
 C451 C 0.24269 0.87112 0.49971
 C452 C 0.22271 0.87134 0.48266
 C453 C 0.22722 0.87608 0.45714
 C454 C 0.25199 0.88047 0.44875
 C455 C 0.23744 0.86760 0.52522
 C456 C 0.25663 0.86815 0.54273
 C457 C 0.28209 0.87153 0.53526
 C458 C 0.28792 0.87359 0.50889
 C459 C 0.31351 0.87402 0.50104
 C460 C 0.33276 0.87336 0.51837
 C461 C 0.32738 0.87296 0.54425
 C462 C 0.30200 0.87246 0.55320
 C463 C 0.29766 0.87346 0.57980
 C464 C 0.31770 0.87445 0.59657
 C465 C 0.34265 0.87416 0.58748
 C466 C 0.34736 0.87331 0.56130
 H467 H 0.29046 0.88369 0.45749
 H468 H 0.20353 0.86846 0.48943
 H469 H 0.25598 0.88428 0.42914
 H470 H 0.21819 0.86472 0.53183
 H471 H 0.25091 0.86515 0.56201
 H472 H 0.31936 0.87413 0.48141
 H473 H 0.35213 0.87354 0.51142
 H474 H 0.27903 0.87420 0.58830
 H475 H 0.31369 0.87530 0.61679
 H476 H 0.36669 0.87363 0.55422
   
