data_POSCAR
  _audit_creation_date              2014-09-24
  _audit_creation_method            'ToBaCCo'
  _symmetry_space_group_name_H-M    'P1'
  _symmetry_Int_Tables_number       1
  _symmetry_cell_setting            triclinic
  loop_
  _symmetry_equiv_pos_as_xyz
 x,y,z
_cell_length_a 23.5748
_cell_length_b 23.6111
_cell_length_c 65.2857
_cell_angle_alpha 89.980900
_cell_angle_beta 90.077100
_cell_angle_gamma 119.939000
loop_
  _atom_site_label
  _atom_site_type_symbol
  _atom_site_fract_x
  _atom_site_fract_y
  _atom_site_fract_z
C1 C -0.05873 -0.07178 0.48350
 C2 C -0.01822 -0.03717 0.50010
 C3 C -0.01229 -0.07169 0.51671
 C4 C -0.04601 -0.14017 0.51664
 C5 C -0.08688 -0.17443 0.50013
 C6 C -0.09353 -0.14026 0.48360
 C7 C 0.01787 0.03499 0.50008
 C8 C 0.01168 0.06964 0.51659
 C9 C 0.04539 0.13808 0.51648
 C10 C 0.08649 0.17220 0.50006
 C11 C 0.09340 0.13795 0.48364
 C12 C 0.05865 0.06952 0.48356
 H13 H -0.06388 -0.04529 0.47072
 H14 H 0.01940 -0.04513 0.52947
 H15 H -0.02015 0.04334 0.52932
 H16 H 0.06414 0.04312 0.47084
 H17 H -0.11343 -0.22750 0.50014
 H18 H 0.11300 0.22521 0.50005
 C19 C 1.07237 0.01195 0.14980
 C20 C 1.03790 0.01792 0.16641
 C21 C 1.07268 0.05846 0.18297
 C22 C 1.14121 0.09320 0.18284
 C23 C 1.17535 0.08655 0.16634
 C24 C 1.14097 0.04566 0.14985
 C25 C 0.96562 -0.01813 0.16646
 C26 C 0.93119 -0.05857 0.18305
 C27 C 0.86265 -0.09325 0.18301
 C28 C 0.82820 -0.08663 0.16656
 C29 C 0.86224 -0.04588 0.15006
 C30 C 0.93078 -0.01223 0.14992
 H31 H 1.04571 -0.01976 0.13706
 H32 H 1.04641 0.06377 0.19576
 H33 H 0.95773 -0.06383 0.19580
 H34 H 0.95701 0.01935 0.13713
 H35 H 1.22847 0.11315 0.16636
 H36 H 0.77511 -0.11309 0.16660
 C37 C 0.05721 0.98803 0.85037
 C38 C 0.01651 0.98202 0.83380
 C39 C 0.01057 0.94150 0.81723
 C40 C 0.04444 0.90683 0.81731
 C41 C 0.08548 0.91352 0.83377
 C42 C 0.09217 0.95439 0.85027
 C43 C -0.01972 1.01807 0.83378
 C44 C -0.01377 1.05863 0.81722
 C45 C -0.04763 1.09332 0.81728
 C46 C -0.08866 1.08660 0.83371
 C47 C -0.09537 1.04568 0.85020
 C48 C -0.06042 1.01202 0.85032
 H49 H 0.06240 1.01974 0.86312
 H50 H -0.02119 0.93618 0.80446
 H51 H 0.01799 1.06398 0.80448
 H52 H -0.06561 0.98029 0.86307
 H53 H 0.11206 0.88698 0.83371
 H54 H -0.11524 1.11315 0.83363
 O55 O 0.58143 0.05491 -0.02022
 O56 O 0.47163 0.05497 0.01967
 O57 O 0.58115 0.05326 0.01971
 O58 O 0.47021 0.05326 -0.02026
 O59 O 0.41637 -0.05483 -0.02015
 O60 O 0.52689 -0.05483 0.01958
 O61 O 0.41738 -0.05312 0.01978
 O62 O 0.52759 -0.05318 -0.02034
 Cu63 Cu 0.53155 0.06500 -0.00028
 Cu64 Cu 0.46660 -0.06489 -0.00029
 C65 C 0.57308 0.00103 -0.02706
 C66 C 0.42614 0.00111 0.02651
 C67 C 0.57252 -0.00097 0.02641
 C68 C 0.42460 -0.00096 -0.02697
 O69 O 0.05363 0.47264 0.64671
 O70 O 0.05360 0.58268 0.68649
 O71 O 0.05186 0.47161 0.68663
 O72 O 0.05205 0.58208 0.64656
 O73 O -0.05620 0.52799 0.64660
 O74 O -0.05640 0.41793 0.68644
 O75 O -0.05466 0.52899 0.68653
 O76 O -0.05462 0.41854 0.64652
 Cu77 Cu 0.06370 0.53269 0.66661
 Cu78 Cu -0.06638 0.46794 0.66651
 C79 C -0.00031 0.42716 0.63985
 C80 C -0.00036 0.57442 0.69329
 C81 C -0.00248 0.42617 0.69332
 C82 C -0.00222 0.57346 0.63980
 O83 O 0.41953 0.47230 0.35347
 O84 O 0.52964 0.58248 0.31375
 O85 O 0.42037 0.47140 0.31354
 O86 O 0.53050 0.58176 0.35368
 O87 O 0.58470 0.52769 0.35362
 O88 O 0.47498 0.41774 0.31371
 O89 O 0.58425 0.52883 0.31369
 O90 O 0.47373 0.41823 0.35364
 Cu91 Cu 0.46952 0.53242 0.33361
 Cu92 Cu 0.53491 0.46770 0.33367
 C93 C 0.42800 0.42681 0.36030
 C94 C 0.57536 0.57427 0.30696
 C95 C 0.42931 0.42599 0.30684
 C96 C 0.57615 0.57314 0.36044
 C97 C 0.03706 0.17334 0.53308
 C98 C 0.02987 0.20316 0.54686
 C99 C 0.02139 0.23928 0.56316
 C100 C 0.03541 0.23096 0.58343
 C101 C 0.02849 0.26721 0.59918
 C102 C 0.00746 0.31187 0.59473
 C103 C -0.00704 0.31981 0.57447
 C104 C -0.00012 0.28358 0.55873
 C105 C 0.00295 0.35117 0.61079
 C106 C 0.00056 0.38521 0.62413
 H107 H 0.05213 0.19688 0.58703
 H108 H 0.04009 0.26088 0.61478
 H109 H -0.02308 0.35440 0.57084
 H110 H -0.01104 0.29044 0.54310
 C111 C 0.82762 0.86358 0.19971
 C112 C 0.79805 0.82694 0.21358
 C113 C 0.76228 0.78277 0.22999
 C114 C 0.76736 0.80641 0.24999
 C115 C 0.73140 0.76358 0.26583
 C116 C 0.69027 0.69694 0.26174
 C117 C 0.68559 0.67324 0.24178
 C118 C 0.72153 0.71606 0.22594
 C119 C 0.65115 0.65333 0.27785
 C120 C 0.61723 0.61702 0.29122
 H121 H 0.79867 0.85792 0.25329
 H122 H 0.73518 0.78248 0.28120
 H123 H 0.65373 0.62186 0.23843
 H124 H 0.71719 0.69727 0.21053
 C125 C 0.13335 -0.03788 -0.13396
 C126 C 0.17026 -0.03081 -0.12012
 C127 C 0.21478 -0.02243 -0.10377
 C128 C 0.28127 0.00206 -0.10797
 C129 C 0.32440 0.00890 -0.09218
 C130 C 0.30124 -0.00865 -0.07211
 C131 C 0.23483 -0.03267 -0.06787
 C132 C 0.19169 -0.03952 -0.08367
 C133 C 0.34513 -0.00418 -0.05604
 C134 C 0.38164 -0.00182 -0.04269
 H135 H 0.29963 0.01536 -0.12346
 H136 H 0.37559 0.02727 -0.09565
 H137 H 0.21635 -0.04665 -0.05242
 H138 H 0.14036 -0.05855 -0.08025
 C139 C -0.03837 0.82657 0.53246
 C140 C -0.03140 0.79689 0.54634
 C141 C -0.02314 0.76096 0.56276
 C142 C 0.00246 0.71982 0.55871
 C143 C 0.00917 0.68371 0.57456
 C144 C -0.00963 0.68862 0.59453
 C145 C -0.03476 0.73015 0.59862
 C146 C -0.04147 0.76628 0.58276
 C147 C -0.00527 0.64937 0.61065
 C148 C -0.00299 0.61538 0.62403
 H149 H 0.01672 0.71530 0.54330
 H150 H 0.02841 0.65155 0.57121
 H151 H -0.04970 0.73412 0.61399
 H152 H -0.06138 0.79789 0.58606
 C153 C 0.17655 0.13648 0.19950
 C154 C 0.20635 0.17322 0.21335
 C155 C 0.24237 0.21749 0.22973
 C156 C 0.23453 0.19468 0.24993
 C157 C 0.27061 0.23757 0.26577
 C158 C 0.31461 0.30345 0.26148
 C159 C 0.32208 0.32634 0.24131
 C160 C 0.28602 0.28346 0.22547
 C161 C 0.35370 0.34703 0.27763
 C162 C 0.38755 0.38330 0.29104
 H163 H 0.20095 0.14375 0.25339
 H164 H 0.26464 0.21930 0.28130
 H165 H 0.35615 0.37712 0.23781
 H166 H 0.29250 0.30161 0.20991
 C167 C 0.86347 0.03793 -0.13406
 C168 C 0.82658 0.03086 -0.12025
 C169 C 0.78211 0.02248 -0.10392
 C170 C 0.71626 0.00107 -0.10831
 C171 C 0.67322 -0.00578 -0.09253
 C172 C 0.69584 0.00869 -0.07229
 C173 C 0.76159 0.02964 -0.06788
 C174 C 0.80464 0.03649 -0.08367
 C175 C 0.65214 0.00423 -0.05619
 C176 C 0.61580 0.00187 -0.04282
 H177 H 0.69834 -0.00984 -0.12392
 H178 H 0.62255 -0.02176 -0.09612
 H179 H 0.77965 0.04121 -0.05230
 H180 H 0.85548 0.05313 -0.08011
 C181 C 0.17420 0.03800 0.13404
 C182 C 0.20381 0.03098 0.12015
 C183 C 0.23964 0.02264 0.10373
 C184 C 0.28312 -0.00011 0.10792
 C185 C 0.31904 -0.00696 0.09205
 C186 C 0.31158 0.00885 0.07191
 C187 C 0.26773 0.03114 0.06769
 C188 C 0.23180 0.03799 0.08357
 C189 C 0.35058 0.00437 0.05574
 C190 C 0.38440 0.00199 0.04232
 H191 H 0.28960 -0.01206 0.12345
 H192 H 0.35300 -0.02398 0.09550
 H193 H 0.26179 0.04376 0.05219
 H194 H 0.19834 0.05567 0.08016
 C195 C 0.86551 0.82640 0.46780
 C196 C 0.82880 0.79664 0.45393
 C197 C 0.78453 0.76062 0.43752
 C198 C 0.71830 0.71755 0.44173
 C199 C 0.67544 0.68141 0.42589
 C200 C 0.69861 0.68822 0.40577
 C201 C 0.76474 0.73166 0.40154
 C202 C 0.80762 0.76782 0.41739
 C203 C 0.65504 0.64899 0.38963
 C204 C 0.61879 0.61502 0.37623
 H205 H 0.69995 0.71157 0.45725
 H206 H 0.62447 0.64777 0.42934
 H207 H 0.78323 0.73711 0.38605
 H208 H 0.85875 0.80095 0.41397
 C209 C -0.03953 0.13659 0.80060
 C210 C -0.03249 0.17331 0.78675
 C211 C -0.02414 0.21755 0.77035
 C212 C -0.04152 0.19420 0.75027
 C213 C -0.03466 0.23708 0.73443
 C214 C -0.01033 0.30349 0.73861
 C215 C 0.00751 0.32691 0.75866
 C216 C 0.00065 0.28404 0.77449
 C217 C -0.00582 0.34713 0.72248
 C218 C -0.00341 0.38344 0.70909
 H219 H -0.06079 0.14287 0.74691
 H220 H -0.04886 0.21841 0.71900
 H221 H 0.02612 0.37811 0.76207
 H222 H 0.01419 0.30261 0.78996
 C223 C 0.82681 -0.03781 0.13342
 C224 C 0.79690 -0.03079 0.11960
 C225 C 0.76074 -0.02245 0.10324
 C226 C 0.76699 -0.03927 0.08313
 C227 C 0.73071 -0.03243 0.06733
 C228 C 0.68809 -0.00868 0.07158
 C229 C 0.68224 0.00860 0.09167
 C230 C 0.71851 0.00176 0.10746
 C231 C 0.64871 -0.00421 0.05549
 C232 C 0.61459 -0.00183 0.04214
 H233 H 0.79947 -0.05809 0.07970
 H234 H 0.73541 -0.04619 0.05186
 H235 H 0.64924 0.02676 0.09514
 H236 H 0.71326 0.01486 0.12297
 C237 C 0.13693 0.17310 0.46703
 C238 C 0.17388 0.20283 0.45324
 C239 C 0.21842 0.23884 0.43693
 C240 C 0.19547 0.23245 0.41677
 C241 C 0.23861 0.26867 0.40102
 C242 C 0.30487 0.31137 0.40536
 C243 C 0.32790 0.31736 0.42549
 C244 C 0.28478 0.28115 0.44123
 C245 C 0.34871 0.35072 0.38932
 C246 C 0.38516 0.38480 0.37601
 H247 H 0.14424 0.19993 0.41328
 H248 H 0.22023 0.26387 0.38553
 H249 H 0.37898 0.35043 0.42903
 H250 H 0.30303 0.28652 0.45676
 C251 C 0.03636 0.86360 0.80062
 C252 C 0.02934 0.82692 0.78676
 C253 C 0.02101 0.78271 0.77036
 C254 C -0.00221 0.71653 0.77455
 C255 C -0.00903 0.67371 0.75871
 C256 C 0.00727 0.69688 0.73859
 C257 C 0.03003 0.76298 0.73436
 C258 C 0.03685 0.80581 0.75022
 C259 C 0.00283 0.65335 0.72245
 C260 C 0.00048 0.61710 0.70906
 H261 H -0.01454 0.69816 0.79007
 H262 H -0.02641 0.62276 0.76216
 H263 H 0.04303 0.78147 0.71888
 H264 H 0.05489 0.85690 0.74680
   
