data_POSCAR
  _audit_creation_date              2014-09-24
  _audit_creation_method            'ToBaCCo'
  _symmetry_space_group_name_H-M    'P1'
  _symmetry_Int_Tables_number       1
  _symmetry_cell_setting            triclinic
  loop_
  _symmetry_equiv_pos_as_xyz
 x,y,z
_cell_length_a 56.0621
_cell_length_b 55.9913
_cell_length_c 33.6724
_cell_angle_alpha 89.997900
_cell_angle_beta 89.824700
_cell_angle_gamma 90.011600
loop_
  _atom_site_label
  _atom_site_type_symbol
  _atom_site_fract_x
  _atom_site_fract_y
  _atom_site_fract_z
C1 C -0.00094 0.26658 -0.01916
 C2 C -0.00019 0.26658 0.02133
 C3 C -0.02230 0.26750 0.04572
 C4 C 0.02273 0.26505 0.04324
 C5 C 0.02117 0.26748 -0.04354
 C6 C -0.02386 0.26508 -0.04109
 C7 C -0.03918 0.28577 0.04037
 C8 C -0.06044 0.28573 0.06219
 C9 C -0.06492 0.26755 0.08988
 C10 C -0.04782 0.24969 0.09611
 C11 C -0.02660 0.24973 0.07427
 C12 C 0.02843 0.28244 0.07174
 C13 C 0.05010 0.28138 0.09211
 C14 C 0.06620 0.26281 0.08445
 C15 C 0.06043 0.24517 0.05661
 C16 C 0.03876 0.24619 0.03625
 C17 C 0.02544 0.24969 -0.07210
 C18 C 0.04666 0.24966 -0.09395
 C19 C 0.06374 0.26750 -0.08774
 C20 C 0.05933 0.28566 -0.06008
 C21 C 0.03808 0.28573 -0.03822
 C22 C -0.03992 0.24625 -0.03410
 C23 C -0.06156 0.24521 -0.05457
 C24 C -0.06725 0.26282 -0.08251
 C25 C -0.05112 0.28137 -0.09013
 C26 C -0.02949 0.28245 -0.06965
 H27 H -0.03599 0.29987 0.01899
 H28 H -0.07343 0.29974 0.05708
 H29 H -0.05097 0.23551 0.11744
 H30 H -0.01375 0.23556 0.07894
 H31 H 0.01623 0.29701 0.07775
 H32 H 0.05434 0.29508 0.11368
 H33 H 0.03449 0.23234 0.01498
 H34 H 0.01259 0.23553 -0.07676
 H35 H 0.04989 0.23554 -0.11531
 H36 H 0.07239 0.29959 -0.05513
 H37 H 0.03492 0.29984 -0.01683
 H38 H -0.03570 0.23241 -0.01278
 H39 H -0.07384 0.23069 -0.04860
 H40 H -0.05530 0.29505 -0.11179
 H41 H -0.01727 0.29700 -0.07566
 H42 H 0.07269 0.23064 0.05061
 C43 C 0.49971 0.76783 0.48036
 C44 C 0.50027 0.76783 0.52085
 C45 C 0.47805 0.76878 0.54499
 C46 C 0.52308 0.76620 0.54301
 C47 C 0.52192 0.76878 0.45622
 C48 C 0.47689 0.76620 0.45820
 C49 C 0.46117 0.78703 0.53937
 C50 C 0.43987 0.78704 0.56107
 C51 C 0.43536 0.76898 0.58888
 C52 C 0.45239 0.75114 0.59536
 C53 C 0.47367 0.75109 0.57366
 C54 C 0.52872 0.78354 0.57162
 C55 C 0.55029 0.78236 0.59223
 C56 C 0.56634 0.76374 0.58469
 C57 C 0.56062 0.74615 0.55673
 C58 C 0.53905 0.74729 0.53614
 C59 C 0.52628 0.75110 0.42753
 C60 C 0.54754 0.75117 0.40578
 C61 C 0.56458 0.76901 0.41225
 C62 C 0.56010 0.78706 0.44008
 C63 C 0.53881 0.78703 0.46183
 C64 C 0.46092 0.74728 0.46507
 C65 C 0.43935 0.74613 0.44446
 C66 C 0.43364 0.76372 0.41651
 C67 C 0.44969 0.78235 0.40897
 C68 C 0.47126 0.78354 0.42959
 H69 H 0.46441 0.80107 0.51790
 H70 H 0.42684 0.80098 0.55591
 H71 H 0.44910 0.73710 0.61682
 H72 H 0.48650 0.73693 0.57855
 H73 H 0.51655 0.79814 0.57754
 H74 H 0.55450 0.79602 0.61389
 H75 H 0.53481 0.73348 0.51477
 H76 H 0.51345 0.73694 0.42264
 H77 H 0.55082 0.73713 0.38430
 H78 H 0.57313 0.80099 0.44523
 H79 H 0.53559 0.80107 0.48331
 H80 H 0.46516 0.73347 0.48643
 H81 H 0.42712 0.73156 0.45037
 H82 H 0.44548 0.79602 0.38731
 H83 H 0.48343 0.79815 0.42368
 H84 H 0.57285 0.73159 0.55082
 C85 C 1.00054 0.73351 -0.02078
 C86 C 1.00018 0.73344 0.01973
 C87 C 1.02247 0.73523 0.04324
 C88 C 0.97744 0.73232 0.04250
 C89 C 0.97824 0.73539 -0.04426
 C90 C 1.02327 0.73244 -0.04356
 C91 C 1.02759 0.71798 0.07225
 C92 C 1.04870 0.71933 0.09411
 C93 C 1.06478 0.73805 0.08741
 C94 C 1.05955 0.75556 0.05907
 C95 C 1.03845 0.75425 0.03723
 C96 C 0.96073 0.71406 0.03558
 C97 C 0.93903 0.71378 0.05620
 C98 C 0.93394 0.73158 0.08419
 C99 C 0.95076 0.74945 0.09189
 C100 C 0.97243 0.74978 0.07128
 C101 C 0.96229 0.75441 -0.03807
 C102 C 0.94116 0.75578 -0.05982
 C103 C 0.93587 0.73834 -0.08825
 C104 C 0.95193 0.71963 -0.09515
 C105 C 0.97308 0.71822 -0.07338
 C106 C 1.02830 0.74998 -0.07219
 C107 C 1.04997 0.74972 -0.09280
 C108 C 1.06680 0.73180 -0.08526
 C109 C 1.06166 0.71391 -0.05739
 C110 C 1.03996 0.71415 -0.03680
 H111 H 1.01540 0.70330 0.07751
 H112 H 1.05255 0.70572 0.11606
 H113 H 1.07182 0.77019 0.05379
 H114 H 1.03458 0.76799 0.01556
 H115 H 0.96443 0.70019 0.01402
 H116 H 0.92618 0.69981 0.05011
 H117 H 0.98510 0.76394 0.07717
 H118 H 0.96620 0.76809 -0.01632
 H119 H 0.92891 0.77040 -0.05440
 H120 H 0.94804 0.70608 -0.11716
 H121 H 0.98525 0.70354 -0.07877
 H122 H 1.01564 0.76417 -0.07796
 H123 H 1.05367 0.76366 -0.11430
 H124 H 1.07446 0.69988 -0.05134
 H125 H 1.03624 0.70022 -0.01535
 H126 H 0.94702 0.76329 0.11351
 C127 C 0.50041 0.23270 0.47884
 C128 C 0.49975 0.23263 0.51935
 C129 C 0.52191 0.23172 0.54342
 C130 C 0.47687 0.23408 0.54161
 C131 C 0.47826 0.23183 0.45477
 C132 C 0.52329 0.23427 0.45661
 C133 C 0.53884 0.21351 0.53777
 C134 C 0.56008 0.21353 0.55946
 C135 C 0.56447 0.23160 0.58726
 C136 C 0.54738 0.24941 0.59376
 C137 C 0.52617 0.24943 0.57207
 C138 C 0.47125 0.21662 0.57008
 C139 C 0.44963 0.21762 0.59080
 C140 C 0.43351 0.23619 0.58350
 C141 C 0.43920 0.25391 0.55568
 C142 C 0.46083 0.25294 0.53498
 C143 C 0.47396 0.24963 0.42628
 C144 C 0.45275 0.24965 0.40462
 C145 C 0.43568 0.23179 0.41097
 C146 C 0.44010 0.21364 0.43860
 C147 C 0.46135 0.21357 0.46026
 C148 C 0.53931 0.25313 0.46342
 C149 C 0.56096 0.25419 0.44278
 C150 C 0.56670 0.23655 0.41485
 C151 C 0.55059 0.21799 0.40736
 C152 C 0.52895 0.21690 0.42801
 H153 H 0.53570 0.19946 0.51631
 H154 H 0.57315 0.19962 0.55429
 H155 H 0.55058 0.26346 0.61522
 H156 H 0.51330 0.26356 0.57699
 H157 H 0.48348 0.20205 0.57580
 H158 H 0.44544 0.20387 0.61235
 H159 H 0.46505 0.26684 0.51373
 H160 H 0.48681 0.26379 0.42148
 H161 H 0.44952 0.26377 0.38330
 H162 H 0.42705 0.19968 0.44365
 H163 H 0.46451 0.19945 0.48159
 H164 H 0.53506 0.26697 0.48478
 H165 H 0.57323 0.26871 0.44865
 H166 H 0.55482 0.20430 0.38571
 H167 H 0.51675 0.20233 0.42214
 H168 H 0.42692 0.26843 0.54997
 C169 C 0.73304 -0.00046 -0.02009
 C170 C 0.73333 -0.00041 0.02041
 C171 C 0.73249 -0.02296 0.04367
 C172 C 0.73515 0.02215 0.04341
 C173 C 0.73198 0.02207 -0.04333
 C174 C 0.73446 -0.02302 -0.04321
 C175 C 0.71419 -0.03975 0.03777
 C176 C 0.71427 -0.06138 0.05856
 C177 C 0.73249 -0.06632 0.08576
 C178 C 0.75040 -0.04935 0.09252
 C179 C 0.75034 -0.02776 0.07171
 C180 C 0.71801 0.02751 0.07257
 C181 C 0.71930 0.04893 0.09381
 C182 C 0.73784 0.06508 0.08635
 C183 C 0.75527 0.05962 0.05789
 C184 C 0.75401 0.03820 0.03666
 C185 C 0.74943 0.02675 -0.07230
 C186 C 0.74922 0.04824 -0.09334
 C187 C 0.73143 0.06525 -0.08589
 C188 C 0.71362 0.06046 -0.05770
 C189 C 0.71381 0.03892 -0.03667
 C190 C 0.75339 -0.03910 -0.03749
 C191 C 0.75442 -0.06037 -0.05913
 C192 C 0.73668 -0.06568 -0.08702
 C193 C 0.71802 -0.04949 -0.09338
 C194 C 0.71698 -0.02822 -0.07170
 H195 H 0.70003 -0.03620 0.01678
 H196 H 0.70024 -0.07429 0.05313
 H197 H 0.76458 -0.05290 0.11351
 H198 H 0.76453 -0.01501 0.07681
 H199 H 0.70344 0.01528 0.07839
 H200 H 0.70576 0.05295 0.11586
 H201 H 0.76767 0.03417 0.01487
 H202 H 0.76352 0.01394 -0.07799
 H203 H 0.76310 0.05168 -0.11509
 H204 H 0.69969 0.07341 -0.05172
 H205 H 0.69994 0.03546 -0.01496
 H206 H 0.76731 -0.03517 -0.01624
 H207 H 0.76903 -0.07266 -0.05405
 H208 H 0.70422 -0.05332 -0.11494
 H209 H 0.70237 -0.01595 -0.07673
 H210 H 0.76977 0.07193 0.05203
 C211 C 0.23228 0.49968 0.47903
 C212 C 0.23254 0.49999 0.51954
 C213 C 0.23167 0.47759 0.54316
 C214 C 0.23432 0.52268 0.54222
 C215 C 0.23101 0.52208 0.45548
 C216 C 0.23390 0.47698 0.45631
 C217 C 0.21336 0.46078 0.53749
 C218 C 0.21335 0.43934 0.55879
 C219 C 0.23147 0.43464 0.58624
 C220 C 0.24938 0.45159 0.59276
 C221 C 0.24944 0.47300 0.57145
 C222 C 0.21731 0.52805 0.57157
 C223 C 0.21870 0.54945 0.59284
 C224 C 0.23724 0.56559 0.58521
 C225 C 0.25450 0.56015 0.55646
 C226 C 0.25314 0.53876 0.53521
 C227 C 0.24844 0.52682 0.42650
 C228 C 0.24813 0.54832 0.40547
 C229 C 0.23029 0.56523 0.41296
 C230 C 0.21247 0.56036 0.44105
 C231 C 0.21274 0.53883 0.46207
 C232 C 0.25287 0.46101 0.46256
 C233 C 0.25402 0.43954 0.44147
 C234 C 0.23638 0.43392 0.41363
 C235 C 0.21770 0.44997 0.40670
 C236 C 0.21652 0.47144 0.42781
 H237 H 0.19926 0.46417 0.51632
 H238 H 0.19936 0.42637 0.55362
 H239 H 0.26347 0.44814 0.61395
 H240 H 0.26363 0.48578 0.57639
 H241 H 0.20278 0.51581 0.57761
 H242 H 0.20530 0.55344 0.61511
 H243 H 0.26672 0.53472 0.51327
 H244 H 0.26261 0.51410 0.42086
 H245 H 0.26199 0.55190 0.38378
 H246 H 0.19854 0.57330 0.44698
 H247 H 0.19890 0.53533 0.48381
 H248 H 0.26672 0.46517 0.48382
 H249 H 0.26863 0.42731 0.44691
 H250 H 0.20401 0.44584 0.38514
 H251 H 0.20187 0.48361 0.42237
 H252 H 0.26899 0.57245 0.55047
 C253 C 0.26669 1.00018 -0.02182
 C254 C 0.26695 1.00018 0.01869
 C255 C 0.26794 1.02274 0.04187
 C256 C 0.26557 0.97765 0.04188
 C257 C 0.26753 0.97761 -0.04499
 C258 C 0.26490 1.02272 -0.04489
 C259 C 0.28609 1.03962 0.03525
 C260 C 0.28623 1.06116 0.05628
 C261 C 0.26839 1.06591 0.08444
 C262 C 0.25062 1.04887 0.09184
 C263 C 0.25045 1.02738 0.07079
 C264 C 0.28307 0.97250 0.07036
 C265 C 0.28206 0.95126 0.09210
 C266 C 0.26343 0.93505 0.08581
 C267 C 0.24569 0.94027 0.05795
 C268 C 0.24667 0.96152 0.03623
 C269 C 0.24965 0.97275 -0.07297
 C270 C 0.24956 0.95111 -0.09364
 C271 C 0.26746 0.93416 -0.08681
 C272 C 0.28571 0.93916 -0.05970
 C273 C 0.28582 0.96083 -0.03905
 C274 C 0.24603 1.03877 -0.03827
 C275 C 0.24481 1.06017 -0.05954
 C276 C 0.26229 1.06563 -0.08797
 C277 C 0.28085 1.04945 -0.09530
 C278 C 0.28208 1.02805 -0.07399
 H279 H 0.29998 1.03618 0.01357
 H280 H 0.30015 1.07413 0.05034
 H281 H 0.23672 1.05228 0.11357
 H282 H 0.23638 1.01455 0.07646
 H283 H 0.29767 0.98481 0.07535
 H284 H 0.29584 0.94743 0.11368
 H285 H 0.23273 0.96539 0.01498
 H286 H 0.23546 0.98549 -0.07810
 H287 H 0.23535 0.94752 -0.11456
 H288 H 0.29974 0.92626 -0.05421
 H289 H 0.30000 0.96442 -0.01810
 H290 H 0.23234 1.03475 -0.01651
 H291 H 0.23027 1.07245 -0.05369
 H292 H 0.29445 1.05339 -0.11729
 H293 H 0.29665 1.01581 -0.07971
 H294 H 0.23112 0.92791 0.05300
 C295 C 0.76751 0.50015 0.48142
 C296 C 0.76774 0.49982 0.52192
 C297 C 0.76902 0.52221 0.54550
 C298 C 0.76608 0.47710 0.54460
 C299 C 0.76842 0.47778 0.45775
 C300 C 0.76572 0.52287 0.45878
 C301 C 0.78730 0.53895 0.53895
 C302 C 0.78758 0.56048 0.55997
 C303 C 0.76975 0.56535 0.58803
 C304 C 0.75189 0.54845 0.59550
 C305 C 0.75158 0.52694 0.57447
 C306 C 0.78342 0.47155 0.57316
 C307 C 0.78220 0.45006 0.59422
 C308 C 0.76352 0.43401 0.58719
 C309 C 0.74593 0.43965 0.55929
 C310 C 0.74711 0.46114 0.53825
 C311 C 0.75070 0.47320 0.42935
 C312 C 0.75082 0.45183 0.40795
 C313 C 0.76874 0.43490 0.41447
 C314 C 0.78680 0.43958 0.44204
 C315 C 0.78672 0.46098 0.46344
 C316 C 0.74689 0.53891 0.46580
 C317 C 0.74550 0.56031 0.44456
 C318 C 0.76276 0.56578 0.41581
 C319 C 0.78131 0.54967 0.40818
 C320 C 0.78273 0.52827 0.42944
 H321 H 0.80115 0.53545 0.51723
 H322 H 0.80152 0.57341 0.55405
 H323 H 0.73802 0.55203 0.61717
 H324 H 0.73740 0.51422 0.58008
 H325 H 0.79806 0.48371 0.57868
 H326 H 0.79586 0.44591 0.61583
 H327 H 0.73329 0.46531 0.51695
 H328 H 0.73650 0.48597 0.42440
 H329 H 0.73677 0.44840 0.38666
 H330 H 0.80080 0.42662 0.44721
 H331 H 0.80079 0.46436 0.48469
 H332 H 0.73331 0.53485 0.48773
 H333 H 0.73099 0.57259 0.45055
 H334 H 0.79472 0.55368 0.38592
 H335 H 0.79727 0.51605 0.42339
 H336 H 0.73132 0.42743 0.55377
 O337 O 0.23869 0.26963 0.29743
 O338 O 0.24641 0.21151 0.24769
 O339 O 0.27151 0.23677 0.29717
 O340 O 0.21334 0.24410 0.24818
 O341 O 0.23101 0.26207 0.19754
 O342 O 0.28924 0.25475 0.24659
 O343 O 0.26411 0.22951 0.19710
 O344 O 0.25639 0.28759 0.24681
 Cu345 Cu 0.24067 0.23872 0.27772
 Cu346 Cu 0.26194 0.26033 0.21691
 C347 C 0.24637 0.28841 0.28060
 C348 C 0.25657 0.21071 0.21399
 C349 C 0.29020 0.24450 0.28016
 C350 C 0.21236 0.25418 0.21448
 O351 O 0.71058 0.74487 0.24655
 O352 O 0.76851 0.73592 0.19675
 O353 O 0.74271 0.71136 0.24687
 O354 O 0.73621 0.76940 0.19648
 O355 O 0.75442 0.78720 0.24657
 O356 O 0.76092 0.72918 0.29695
 O357 O 0.78669 0.75373 0.24684
 O358 O 0.72880 0.76269 0.29663
 Cu359 Cu 0.73769 0.73858 0.21659
 Cu360 Cu 0.75957 0.75998 0.27677
 C361 C 0.70992 0.75527 0.28002
 C362 C 0.78738 0.74337 0.21335
 C363 C 0.75280 0.71049 0.28051
 C364 C 0.74418 0.78810 0.21306
 O365 O 0.74710 0.28786 0.25049
 O366 O 0.73979 0.22952 0.20140
 O367 O 0.71414 0.25515 0.25032
 O368 O 0.77252 0.26249 0.20141
 O369 O 0.79006 0.24478 0.25224
 O370 O 0.73164 0.23744 0.30119
 O371 O 0.75731 0.21183 0.25227
 O372 O 0.76462 0.27013 0.30132
 Cu373 Cu 0.74159 0.26051 0.22077
 Cu374 Cu 0.76265 0.23922 0.28188
 C375 C 0.75710 0.28883 0.28419
 C376 C 0.74744 0.21084 0.21846
 C377 C 0.71305 0.24521 0.28412
 C378 C 0.79114 0.25490 0.21857
 O379 O 0.26128 0.77171 0.20404
 O380 O 0.25284 0.71334 0.25248
 O381 O 0.22795 0.73950 0.20395
 O382 O 0.28634 0.74554 0.25267
 O383 O 0.26904 0.76335 0.30380
 O384 O 0.21062 0.75731 0.25507
 O385 O 0.23553 0.73114 0.30362
 O386 O 0.24397 0.78953 0.25516
 Cu387 Cu 0.25889 0.74073 0.22315
 Cu388 Cu 0.23808 0.76214 0.28461
 C389 C 0.25389 0.79045 0.22128
 C390 C 0.24276 0.71239 0.28621
 C391 C 0.20945 0.74745 0.22122
 C392 C 0.28754 0.75538 0.28653
 O393 O 0.76112 0.26955 0.70260
 O394 O 0.75338 0.21128 0.75185
 O395 O 0.72839 0.23658 0.70228
 O396 O 0.78634 0.24399 0.75199
 O397 O 0.76841 0.26177 0.80254
 O398 O 0.71040 0.25437 0.75279
 O399 O 0.73542 0.22908 0.80237
 O400 O 0.74317 0.28732 0.75315
 Cu401 Cu 0.75915 0.23859 0.72208
 Cu402 Cu 0.73757 0.25996 0.78280
 C403 C 0.75332 0.28826 0.71947
 C404 C 0.74309 0.21035 0.78543
 C405 C 0.70961 0.24420 0.71914
 C406 C 0.78715 0.25398 0.78576
 O407 O 0.28912 0.74491 0.75407
 O408 O 0.23112 0.73606 0.80369
 O409 O 0.25698 0.71139 0.75382
 O410 O 0.26343 0.76954 0.80387
 O411 O 0.24530 0.78723 0.75359
 O412 O 0.23885 0.72909 0.70356
 O413 O 0.21301 0.75375 0.75341
 O414 O 0.27098 0.76261 0.70380
 Cu415 Cu 0.26196 0.73868 0.78395
 Cu416 Cu 0.24017 0.75994 0.72355
 C417 C 0.28983 0.75523 0.72054
 C418 C 0.21227 0.74347 0.78696
 C419 C 0.24694 0.71045 0.72014
 C420 C 0.25550 0.78821 0.78713
 O421 O 0.21050 0.24425 0.74751
 O422 O 0.26880 0.23687 0.69820
 O423 O 0.24318 0.21124 0.74721
 O424 O 0.23590 0.26962 0.69838
 O425 O 0.25357 0.28726 0.74917
 O426 O 0.26085 0.22884 0.79802
 O427 O 0.28645 0.25449 0.74903
 O428 O 0.22820 0.26187 0.79830
 Cu429 Cu 0.23785 0.23868 0.71770
 Cu430 Cu 0.25908 0.25985 0.77876
 C431 C 0.20952 0.25434 0.78121
 C432 C 0.28745 0.24458 0.71519
 C433 C 0.25311 0.21020 0.78096
 C434 C 0.24348 0.28829 0.71553
 O435 O 0.74738 0.71361 0.74821
 O436 O 0.73901 0.77203 0.79649
 O437 O 0.71387 0.74578 0.74809
 O438 O 0.77238 0.73985 0.79648
 O439 O 0.78958 0.75762 0.74519
 O440 O 0.73105 0.76354 0.69679
 O441 O 0.75620 0.78981 0.74520
 O442 O 0.76457 0.73137 0.69690
 Cu443 Cu 0.74139 0.74103 0.77747
 Cu444 Cu 0.76205 0.76239 0.71582
 C445 C 0.75740 0.71262 0.71442
 C446 C 0.74636 0.79076 0.77914
 C447 C 0.71259 0.75557 0.71420
 C448 C 0.79084 0.74780 0.77906
 C449 C 0.26793 0.08720 0.10401
 C450 C 0.26707 0.10606 0.12122
 C451 C 0.26557 0.12815 0.14123
 C452 C 0.26391 0.14704 0.15817
 C453 C 0.26162 0.16918 0.17783
 C454 C 0.25941 0.18812 0.19445
 C455 C 0.76927 0.58796 0.60833
 C456 C 0.76839 0.60697 0.62505
 C457 C 0.76686 0.62929 0.64435
 C458 C 0.76516 0.64838 0.66063
 C459 C 0.76278 0.67076 0.67951
 C460 C 0.76046 0.68988 0.69550
 C461 C 0.73317 0.91227 0.10493
 C462 C 0.73416 0.89328 0.12173
 C463 C 0.73574 0.87102 0.14123
 C464 C 0.73739 0.85200 0.15777
 C465 C 0.73958 0.82973 0.17706
 C466 C 0.74162 0.81071 0.19349
 C467 C 0.23210 0.41220 0.60702
 C468 C 0.23307 0.39334 0.62419
 C469 C 0.23466 0.37121 0.64402
 C470 C 0.23633 0.35226 0.66075
 C471 C 0.23860 0.33002 0.68008
 C472 C 0.24075 0.31099 0.69638
 C473 C 0.91479 0.26684 0.10910
 C474 C 0.89601 0.26579 0.12656
 C475 C 0.87396 0.26409 0.14666
 C476 C 0.85506 0.26231 0.16355
 C477 C 0.83286 0.25993 0.18302
 C478 C 0.81384 0.25770 0.19939
 C479 C 0.41302 0.76828 0.61000
 C480 C 0.39425 0.76720 0.62747
 C481 C 0.37223 0.76542 0.64766
 C482 C 0.35339 0.76352 0.66469
 C483 C 0.33128 0.76093 0.68439
 C484 C 0.31237 0.75844 0.70101
 C485 C 0.08675 0.73919 0.10928
 C486 C 0.10526 0.74017 0.12728
 C487 C 0.12707 0.74140 0.14796
 C488 C 0.14580 0.74255 0.16530
 C489 C 0.16786 0.74405 0.18519
 C490 C 0.18680 0.74549 0.20184
 C491 C 0.58672 0.23230 0.60843
 C492 C 0.60541 0.23336 0.62594
 C493 C 0.62736 0.23505 0.64619
 C494 C 0.64614 0.23681 0.66326
 C495 C 0.66819 0.23918 0.68300
 C496 C 0.68707 0.24140 0.69963
 C497 C 0.73187 0.08656 0.89460
 C498 C 0.73270 0.10544 0.87747
 C499 C 0.73417 0.12759 0.85758
 C500 C 0.73580 0.14652 0.84076
 C501 C 0.73806 0.16872 0.82126
 C502 C 0.74025 0.18771 0.80479
 C503 C 0.23076 0.58783 0.39264
 C504 C 0.23165 0.60683 0.37588
 C505 C 0.23320 0.62914 0.35653
 C506 C 0.23491 0.64821 0.34019
 C507 C 0.23731 0.67057 0.32125
 C508 C 0.23966 0.68966 0.30520
 C509 C 0.26673 0.91269 0.89419
 C510 C 0.26569 0.89365 0.87756
 C511 C 0.26406 0.87133 0.85827
 C512 C 0.26237 0.85226 0.84190
 C513 C 0.26014 0.82993 0.82281
 C514 C 0.25807 0.81087 0.80653
 C515 C 0.76818 0.41250 0.39355
 C516 C 0.76728 0.39369 0.37625
 C517 C 0.76576 0.37160 0.35624
 C518 C 0.76414 0.35270 0.33938
 C519 C 0.76193 0.33050 0.31989
 C520 C 0.75981 0.31150 0.30347
 C521 C 0.08604 0.26669 0.89106
 C522 C 0.10480 0.26555 0.87359
 C523 C 0.12684 0.26376 0.85344
 C524 C 0.14571 0.26192 0.83650
 C525 C 0.16788 0.25946 0.81696
 C526 C 0.18686 0.25719 0.80051
 C527 C 0.58690 0.76833 0.39106
 C528 C 0.60565 0.76726 0.37352
 C529 C 0.62764 0.76549 0.35324
 C530 C 0.64645 0.76360 0.33613
 C531 C 0.66853 0.76100 0.31633
 C532 C 0.68741 0.75851 0.29964
 C533 C 0.91386 0.73951 0.89002
 C534 C 0.89529 0.74052 0.87217
 C535 C 0.87342 0.74177 0.85166
 C536 C 0.85464 0.74293 0.83449
 C537 C 0.83252 0.74442 0.81478
 C538 C 0.81354 0.74586 0.79828
 C539 C 0.41340 0.23255 0.38987
 C540 C 0.39469 0.23363 0.37245
 C541 C 0.37270 0.23535 0.35232
 C542 C 0.35388 0.23713 0.33539
 C543 C 0.33176 0.23951 0.31584
 C544 C 0.31282 0.24172 0.29940
 C545 C 0.73755 0.91345 0.89225
 C546 C 0.73837 0.89490 0.87412
 C547 C 0.73947 0.87308 0.85321
 C548 C 0.74060 0.85436 0.83565
 C549 C 0.74220 0.83232 0.81548
 C550 C 0.74389 0.81340 0.79864
 C551 C 0.23741 0.41163 0.39237
 C552 C 0.23832 0.39290 0.37478
 C553 C 0.23951 0.37088 0.35440
 C554 C 0.24069 0.35204 0.33720
 C555 C 0.24232 0.32991 0.31726
 C556 C 0.24398 0.31098 0.30042
 C557 C 0.26133 0.08670 0.89187
 C558 C 0.26048 0.10544 0.87426
 C559 C 0.25939 0.12746 0.85395
 C560 C 0.25832 0.14634 0.83685
 C561 C 0.25684 0.16853 0.81710
 C562 C 0.25532 0.18753 0.80047
 C563 C 0.76147 0.58794 0.39426
 C564 C 0.76039 0.60656 0.37636
 C565 C 0.75909 0.62842 0.35558
 C566 C 0.75789 0.64714 0.33802
 C567 C 0.75634 0.66913 0.31770
 C568 C 0.75484 0.68798 0.30057
 C569 C 0.08824 0.73214 0.89560
 C570 C 0.10724 0.73289 0.87875
 C571 C 0.12949 0.73427 0.85913
 C572 C 0.14849 0.73584 0.84246
 C573 C 0.17073 0.73812 0.82304
 C574 C 0.18971 0.74039 0.80653
 C575 C 0.58915 0.23745 0.39405
 C576 C 0.60801 0.23821 0.37681
 C577 C 0.63015 0.23919 0.35680
 C578 C 0.64911 0.24016 0.33989
 C579 C 0.67135 0.24156 0.32025
 C580 C 0.69038 0.24303 0.30366
 C581 C 0.91035 0.26189 0.89673
 C582 C 0.89156 0.26110 0.87945
 C583 C 0.86952 0.26009 0.85934
 C584 C 0.85067 0.25909 0.84228
 C585 C 0.82856 0.25768 0.82242
 C586 C 0.80966 0.25618 0.80560
 C587 C 0.41126 0.76273 0.39576
 C588 C 0.39245 0.76190 0.37857
 C589 C 0.37036 0.76088 0.35866
 C590 C 0.35144 0.75990 0.34184
 C591 C 0.32923 0.75859 0.32234
 C592 C 0.31022 0.75726 0.30589
 C593 C 0.26256 0.91302 0.10778
 C594 C 0.26178 0.89449 0.12595
 C595 C 0.26072 0.87269 0.14694
 C596 C 0.25962 0.85399 0.16456
 C597 C 0.25803 0.83197 0.18480
 C598 C 0.25636 0.81307 0.20170
 C599 C 0.76246 0.41170 0.60839
 C600 C 0.76152 0.39294 0.62592
 C601 C 0.76029 0.37090 0.64620
 C602 C 0.75908 0.35203 0.66331
 C603 C 0.75741 0.32986 0.68312
 C604 C 0.75573 0.31088 0.69983
 C605 C 0.73890 0.08736 0.10761
 C606 C 0.73981 0.10610 0.12516
 C607 C 0.74096 0.12814 0.14543
 C608 C 0.74209 0.14702 0.16251
 C609 C 0.74363 0.16920 0.18225
 C610 C 0.74519 0.18819 0.19890
 C611 C 0.23849 0.58776 0.60676
 C612 C 0.23954 0.60638 0.62464
 C613 C 0.24081 0.62826 0.64537
 C614 C 0.24197 0.64700 0.66288
 C615 C 0.24348 0.66902 0.68314
 C616 C 0.24494 0.68790 0.70019
 C617 C 0.91129 0.73190 0.10445
 C618 C 0.89231 0.73265 0.12132
 C619 C 0.87007 0.73405 0.14097
 C620 C 0.85109 0.73565 0.15768
 C621 C 0.82887 0.73796 0.17716
 C622 C 0.80991 0.74026 0.19372
 C623 C 0.41109 0.23702 0.60441
 C624 C 0.39226 0.23773 0.62177
 C625 C 0.37016 0.23865 0.64191
 C626 C 0.35125 0.23959 0.65897
 C627 C 0.32906 0.24095 0.67875
 C628 C 0.31007 0.24241 0.69549
 C629 C 0.08866 0.26192 0.10501
 C630 C 0.10752 0.26116 0.12210
 C631 C 0.12965 0.26019 0.14195
 C632 C 0.14857 0.25922 0.15878
 C633 C 0.17078 0.25783 0.17835
 C634 C 0.18975 0.25636 0.19492
 C635 C 0.58873 0.76276 0.60541
 C636 C 0.60755 0.76195 0.62256
 C637 C 0.62966 0.76094 0.64243
 C638 C 0.64859 0.75999 0.65919
 C639 C 0.67083 0.75871 0.67860
 C640 C 0.68988 0.75741 0.69497
   
