data_POSCAR
  _audit_creation_date              2014-09-24
  _audit_creation_method            'ToBaCCo'
  _symmetry_space_group_name_H-M    'P1'
  _symmetry_Int_Tables_number       1
  _symmetry_cell_setting            triclinic
  loop_
  _symmetry_equiv_pos_as_xyz
 x,y,z
_cell_length_a 33.6557
_cell_length_b 33.6540
_cell_length_c 33.6540
_cell_angle_alpha 89.742100
_cell_angle_beta 90.000000
_cell_angle_gamma 90.000000
loop_
  _atom_site_label
  _atom_site_type_symbol
  _atom_site_fract_x
  _atom_site_fract_y
  _atom_site_fract_z
N1 N 0.22620 0.22490 0.22489
 N2 N -0.22523 0.77346 0.22655
 N3 N -0.22523 0.22656 -0.22654
 N4 N 0.22620 0.77512 -0.22488
 N5 N 0.22298 1.22383 0.77619
 N6 N 0.77749 0.77833 0.77832
 N7 N 0.22298 0.77619 1.22382
 N8 N 0.77749 1.22169 1.22169
 N9 N 0.45921 0.92967 0.95733
 N10 N 0.43105 0.90326 0.95051
 N11 N 0.54278 0.95735 0.92968
 N12 N 0.57121 0.95076 0.90349
 N13 N 0.54278 0.92969 0.95735
 N14 N 0.57121 0.90350 0.95075
 N15 N 0.45921 0.95733 0.92967
 N16 N 0.43105 0.95052 0.90325
 C17 C 0.41362 0.91696 0.91696
 C18 C 0.58878 0.91731 0.91731
 N19 N 0.54271 1.07054 0.95701
 N20 N 0.57079 1.09706 0.95001
 N21 N 0.45915 1.04299 0.92949
 N22 N 0.43075 1.04972 0.90325
 N23 N 0.45915 1.07053 0.95703
 N24 N 0.43075 1.09677 0.95030
 N25 N 0.54271 1.04301 0.92947
 N26 N 0.57079 1.05001 0.90296
 Mn27 Mn 0.50096 1.00017 0.92915
 C28 C 0.58818 1.08354 0.91648
 C29 C 0.41320 1.08312 0.91690
 N30 N 0.54271 0.92948 1.04300
 N31 N 0.57079 0.90297 1.05000
 N32 N 0.45915 0.95704 1.07052
 N33 N 0.43075 0.95030 1.09676
 N34 N 0.45915 0.92950 1.04298
 N35 N 0.43075 0.90325 1.04971
 N36 N 0.54271 0.95702 1.07054
 N37 N 0.57079 0.95001 1.09705
 Mn38 Mn 0.50096 0.92916 1.00016
 C39 C 0.58818 0.91648 1.08353
 C40 C 0.41320 0.91691 1.08311
 N41 N 0.45921 1.07035 1.04268
 N42 N 0.43105 1.09676 1.04949
 N43 N 0.54278 1.04267 1.07033
 N44 N 0.57121 1.04926 1.09652
 N45 N 0.54278 1.07033 1.04266
 N46 N 0.57121 1.09652 1.04925
 N47 N 0.45921 1.04269 1.07034
 N48 N 0.43105 1.04950 1.09676
 Mn49 Mn 0.50096 1.07086 0.99985
 Mn50 Mn 0.50096 0.99985 1.07085
 Cl51 Cl 0.50096 1.00001 1.00000
 C52 C 0.41362 1.08306 1.08305
 C53 C 0.58878 1.08271 1.08270
 N54 N 0.04213 0.45755 0.07021
 N55 N 0.04913 0.42924 0.09658
 N56 N 0.06969 0.54139 0.04304
 N57 N 0.09591 0.56974 0.04984
 N58 N 0.04211 0.54112 0.07065
 N59 N 0.04878 0.56928 0.09702
 N60 N 0.06972 0.45784 0.04260
 N61 N 0.09626 0.42974 0.04940
 C62 C 0.08270 0.41202 0.08288
 C63 C 0.08219 0.58697 0.08335
 N64 N 0.04213 0.54247 -0.07020
 N65 N 0.04913 0.57078 -0.09657
 N66 N 0.06969 0.45864 -0.04303
 N67 N 0.09591 0.43028 -0.04982
 N68 N 0.04211 0.45891 -0.07064
 N69 N 0.04878 0.43074 -0.09700
 N70 N 0.06972 0.54219 -0.04259
 N71 N 0.09626 0.57029 -0.04939
 Mn72 Mn 0.07012 0.50001 0.00001
 C73 C 0.08270 0.58800 -0.08287
 C74 C 0.08219 0.41305 -0.08334
 N75 N -0.04354 0.54105 0.07067
 N76 N -0.05035 0.56899 0.09723
 N77 N -0.07113 0.45776 0.04260
 N78 N -0.09735 0.42928 0.04914
 N79 N -0.04352 0.45749 0.07020
 N80 N -0.05018 0.42882 0.09627
 N81 N -0.07115 0.54134 0.04308
 N82 N -0.09753 0.56948 0.05010
 Mn83 Mn -0.00071 0.49930 0.07086
 C84 C -0.08386 0.58658 0.08370
 C85 C -0.08360 0.41139 0.08246
 N86 N -0.04354 0.45897 -0.07066
 N87 N -0.05035 0.43104 -0.09722
 N88 N -0.07113 0.54226 -0.04259
 N89 N -0.09735 0.57074 -0.04912
 N90 N -0.04352 0.54253 -0.07018
 N91 N -0.05018 0.57120 -0.09626
 N92 N -0.07115 0.45869 -0.04307
 N93 N -0.09753 0.43054 -0.05009
 Mn94 Mn -0.00071 0.50073 -0.07084
 Mn95 Mn -0.07157 0.50001 0.00001
 Cl96 Cl -0.00072 0.50001 0.00001
 C97 C -0.08386 0.41344 -0.08369
 C98 C -0.08360 0.58863 -0.08245
 N99 N 0.92885 -0.04307 0.45868
 N100 N 0.90247 -0.05008 0.43053
 N101 N 0.95648 -0.07018 0.54253
 N102 N 0.94982 -0.09625 0.57120
 N103 N 0.92887 -0.04259 0.54225
 N104 N 0.90265 -0.04912 0.57073
 N105 N 0.95646 -0.07066 0.45897
 N106 N 0.94965 -0.09721 0.43103
 C107 C 0.91614 -0.08369 0.41343
 C108 C 0.91640 -0.08245 0.58862
 N109 N 1.06972 -0.04258 0.54218
 N110 N 1.09626 -0.04938 0.57028
 N111 N 1.04211 -0.07063 0.45890
 N112 N 1.04878 -0.09700 0.43074
 N113 N 1.06969 -0.04302 0.45863
 N114 N 1.09591 -0.04982 0.43028
 N115 N 1.04213 -0.07019 0.54247
 N116 N 1.04913 -0.09656 0.57078
 Mn117 Mn 0.99929 -0.07084 0.50072
 C118 C 1.08270 -0.08286 0.58800
 C119 C 1.08219 -0.08334 0.41304
 N120 N 0.92885 0.04309 0.54133
 N121 N 0.90247 0.05010 0.56948
 N122 N 0.95648 0.07020 0.45748
 N123 N 0.94982 0.09627 0.42881
 N124 N 0.92887 0.04261 0.45776
 N125 N 0.90265 0.04914 0.42928
 N126 N 0.95646 0.07068 0.54104
 N127 N 0.94965 0.09724 0.56898
 Mn128 Mn 0.92843 0.00001 0.50001
 C129 C 0.91614 0.08371 0.58658
 C130 C 0.91640 0.08247 0.41139
 N131 N 1.06972 0.04261 0.45783
 N132 N 1.09626 0.04940 0.42973
 N133 N 1.04211 0.07066 0.54111
 N134 N 1.04878 0.09702 0.56927
 N135 N 1.06969 0.04305 0.54138
 N136 N 1.09591 0.04984 0.56974
 N137 N 1.04213 0.07022 0.45755
 N138 N 1.04913 0.09658 0.42923
 Mn139 Mn 1.07012 0.00001 0.50001
 Mn140 Mn 0.99929 0.07086 0.49929
 Cl141 Cl 0.99928 0.00001 0.50001
 C142 C 1.08271 0.08289 0.41201
 C143 C 1.08219 0.08336 0.58697
 C144 C 1.20363 0.20231 0.25105
 C145 C 1.18421 0.18297 0.27421
 C146 C 1.16180 0.16082 0.30196
 C147 C 1.14301 0.14230 0.32624
 C148 C 1.12145 0.12111 0.35539
 C149 C 1.10349 0.10343 0.38089
 C150 C 0.79727 -0.20406 0.25266
 C151 C 0.81652 -0.18471 0.27580
 C152 C 0.83856 -0.16242 0.30354
 C153 C 0.85698 -0.14373 0.32781
 C154 C 0.87806 -0.12229 0.35694
 C155 C 0.89567 -0.10441 0.38240
 C156 C 0.79727 0.20408 0.74735
 C157 C 0.81652 0.18474 0.72421
 C158 C 0.83857 0.16244 0.69647
 C159 C 0.85698 0.14375 0.67220
 C160 C 0.87806 0.12231 0.64307
 C161 C 0.89567 0.10443 0.61761
 C162 C 1.20364 -0.20229 0.74896
 C163 C 1.18421 -0.18296 0.72580
 C164 C 1.16180 -0.16080 0.69805
 C165 C 1.14301 -0.14228 0.67377
 C166 C 1.12145 -0.12109 0.64462
 C167 C 1.10349 -0.10341 0.61912
 C168 C 0.25236 1.20243 1.20242
 C169 C 0.27555 1.18316 1.18315
 C170 C 0.30336 1.16102 1.16101
 C171 C 0.32770 1.14250 1.14249
 C172 C 0.35692 1.12128 1.12128
 C173 C 0.38247 1.10359 1.10358
 C174 C 0.25236 0.79759 0.79758
 C175 C 0.27555 0.81686 0.81686
 C176 C 0.30336 0.83900 0.83899
 C177 C 0.32770 0.85752 0.85751
 C178 C 0.35692 0.87874 0.87873
 C179 C 0.38247 0.89643 0.89642
 C180 C 0.74866 0.79606 1.20396
 C181 C 0.72555 0.81547 1.18455
 C182 C 0.69787 0.83778 1.16224
 C183 C 0.67366 0.85647 1.14355
 C184 C 0.64460 0.87789 1.12213
 C185 C 0.61918 0.89575 1.10426
 C186 C 0.74866 1.20396 0.79606
 C187 C 0.72555 1.18456 0.81546
 C188 C 0.69787 1.16224 0.83777
 C189 C 0.67366 1.14356 0.85646
 C190 C 0.64460 1.12214 0.87788
 C191 C 0.61918 1.10427 0.89575
 C192 C 0.20363 0.25106 0.20230
 C193 C 0.18421 0.27422 0.18297
 C194 C 0.16180 0.30197 0.16081
 C195 C 0.14300 0.32625 0.14230
 C196 C 0.12145 0.35539 0.12110
 C197 C 0.10349 0.38090 0.10342
 C198 C -0.20273 0.25266 -0.20406
 C199 C -0.18348 0.27580 -0.18472
 C200 C -0.16143 0.30354 -0.16243
 C201 C -0.14302 0.32782 -0.14373
 C202 C -0.12194 0.35694 -0.12229
 C203 C -0.10433 0.38241 -0.10441
 C204 C 0.20364 0.74896 -0.20230
 C205 C 0.18421 0.72580 -0.18296
 C206 C 0.16180 0.69805 -0.16080
 C207 C 0.14301 0.67377 -0.14229
 C208 C 0.12145 0.64463 -0.12109
 C209 C 0.10349 0.61912 -0.10341
 C210 C -0.20273 0.74736 0.20407
 C211 C -0.18348 0.72422 0.18473
 C212 C -0.16144 0.69648 0.16244
 C213 C -0.14302 0.67220 0.14375
 C214 C -0.12194 0.64308 0.12231
 C215 C -0.10434 0.61762 0.10443
 C216 C 1.20054 0.20144 0.74993
 C217 C 1.18133 0.18231 0.72657
 C218 C 1.15931 0.16042 0.69846
 C219 C 1.14094 0.14215 0.67382
 C220 C 1.11993 0.12121 0.64424
 C221 C 1.10245 0.10373 0.61841
 C222 C 0.79872 -0.20039 0.75332
 C223 C 0.81788 -0.18115 0.72977
 C224 C 0.83973 -0.15917 0.70139
 C225 C 0.85795 -0.14086 0.67649
 C226 C 0.87878 -0.11995 0.64657
 C227 C 0.89616 -0.10257 0.62043
 C228 C 1.20054 -0.20142 0.25008
 C229 C 1.18133 -0.18229 0.27344
 C230 C 1.15932 -0.16040 0.30156
 C231 C 1.14094 -0.14212 0.32620
 C232 C 1.11994 -0.12119 0.35577
 C233 C 1.10245 -0.10370 0.38161
 C234 C 0.79872 0.20041 0.24669
 C235 C 0.81788 0.18117 0.27024
 C236 C 0.83974 0.15919 0.29862
 C237 C 0.85795 0.14088 0.32352
 C238 C 0.87879 0.11997 0.35344
 C239 C 0.89617 0.10259 0.37958
 C240 C 0.20054 0.25009 -0.20142
 C241 C 0.18133 0.27345 -0.18229
 C242 C 0.15931 0.30156 -0.16040
 C243 C 0.14094 0.32620 -0.14213
 C244 C 0.11993 0.35578 -0.12119
 C245 C 0.10245 0.38161 -0.10371
 C246 C -0.20128 0.24670 0.20040
 C247 C -0.18212 0.27025 0.18117
 C248 C -0.16026 0.29863 0.15919
 C249 C -0.14205 0.32353 0.14088
 C250 C -0.12122 0.35345 0.11997
 C251 C -0.10383 0.37958 0.10258
 C252 C -0.20128 0.75332 -0.20039
 C253 C -0.18212 0.72977 -0.18116
 C254 C -0.16027 0.70140 -0.15918
 C255 C -0.14205 0.67649 -0.14087
 C256 C -0.12122 0.64658 -0.11996
 C257 C -0.10383 0.62044 -0.10257
 C258 C 0.20054 0.74994 0.20144
 C259 C 0.18133 0.72657 0.18231
 C260 C 0.15932 0.69846 0.16042
 C261 C 0.14094 0.67382 0.14214
 C262 C 0.11993 0.64424 0.12121
 C263 C 0.10245 0.61841 0.10372
 C264 C 0.24936 1.20138 0.79864
 C265 C 0.27285 1.18218 0.81784
 C266 C 0.30111 1.16021 0.83981
 C267 C 0.32588 1.14188 0.85814
 C268 C 0.35562 1.12090 0.87912
 C269 C 0.38159 1.10342 0.89660
 C270 C 0.24937 0.79865 1.20137
 C271 C 0.27285 0.81784 1.18218
 C272 C 0.30111 0.83981 1.16020
 C273 C 0.32589 0.85815 1.14187
 C274 C 0.35562 0.87912 1.12090
 C275 C 0.38159 0.89660 1.10341
 C276 C 0.75261 1.20047 1.20046
 C277 C 0.72918 1.18130 1.18129
 C278 C 0.70095 1.15940 1.15939
 C279 C 0.67618 1.14115 1.14114
 C280 C 0.64642 1.12028 1.12027
 C281 C 0.62042 1.10289 1.10288
 C282 C 0.75261 0.79955 0.79954
 C283 C 0.72917 0.81872 0.81871
 C284 C 0.70095 0.84062 0.84061
 C285 C 0.67618 0.85887 0.85887
 C286 C 0.64642 0.87974 0.87974
 C287 C 0.62042 0.89713 0.89712
   
