data_POSCAR
  _audit_creation_date              2014-09-24
  _audit_creation_method            'ToBaCCo'
  _symmetry_space_group_name_H-M    'P1'
  _symmetry_Int_Tables_number       1
  _symmetry_cell_setting            triclinic
  loop_
  _symmetry_equiv_pos_as_xyz
 x,y,z
_cell_length_a 25.8688
_cell_length_b 28.5758
_cell_length_c 26.1144
_cell_angle_alpha 90.113900
_cell_angle_beta 89.903900
_cell_angle_gamma 123.165000
loop_
  _atom_site_label
  _atom_site_type_symbol
  _atom_site_fract_x
  _atom_site_fract_y
  _atom_site_fract_z
O1 O 0.06810 0.57308 -0.08316
 O2 O 0.08732 0.47890 0.00049
 O3 O 0.04844 0.47081 -0.09088
 O4 O 0.12599 0.57979 0.00363
 O5 O 0.03735 0.55315 0.04116
 O6 O -0.04360 0.44150 -0.05921
 O7 O -0.00470 0.44711 0.03401
 O8 O -0.02181 0.54233 -0.04638
 Cu9 Cu 0.09018 0.52943 -0.04735
 Cu10 Cu -0.01716 0.49365 -0.00444
 C11 C 0.01909 0.57308 -0.07897
 C12 C 0.04430 0.44733 0.03185
 C13 C -0.00957 0.43691 -0.09158
 C14 C 0.09642 0.58389 0.03993
 O15 O 0.61920 0.55510 -0.02270
 O16 O 0.48788 0.46510 0.06151
 O17 O 0.52148 0.45550 -0.02983
 O18 O 0.58105 0.57024 0.06497
 O19 O 0.52159 0.59533 0.03083
 O20 O 0.45970 0.47980 -0.05998
 O21 O 0.43435 0.49670 0.02757
 O22 O 0.56537 0.58475 -0.05937
 Cu23 Cu 0.55809 0.50877 0.02227
 Cu24 Cu 0.49255 0.54363 -0.02076
 C25 C 0.61437 0.58470 -0.05583
 C26 C 0.43913 0.46551 0.05916
 C27 C 0.47876 0.44728 -0.06009
 C28 C 0.56008 0.60148 0.06442
 O29 O 0.52852 0.98099 -0.06251
 O30 O 0.39062 0.95681 0.00478
 O31 O 0.46716 1.02974 -0.06156
 O32 O 0.45350 0.91168 0.00946
 O33 O 0.51803 0.97012 0.06824
 O34 O 0.52559 1.08638 0.00078
 O35 O 0.45041 1.01075 0.06803
 O36 O 0.58873 1.04207 -0.00331
 Cu37 Cu 0.45445 0.96405 -0.03384
 Cu38 Cu 0.52668 1.03311 0.03956
 C39 C 0.58189 1.01730 -0.04557
 C40 C 0.39707 0.97777 0.04897
 C41 C 0.49927 1.07849 -0.04225
 C42 C 0.48222 0.92074 0.05155
 O43 O 1.08769 0.55752 0.48927
 O44 O 0.97181 0.43183 0.56059
 O45 O 1.04724 0.44783 0.49289
 O46 O 1.00035 0.53119 0.56145
 O47 O 0.94370 0.52439 0.49510
 O48 O 0.99490 0.44504 0.42506
 O49 O 0.90570 0.41495 0.49863
 O50 O 1.02069 0.54239 0.42868
 Cu51 Cu 1.03549 0.49608 0.53095
 Cu52 Cu 0.95704 0.47705 0.45708
 C53 C 1.07448 0.57161 0.44755
 C54 C 0.91845 0.40181 0.54115
 C55 C 1.03008 0.43308 0.44692
 C56 C 0.96411 0.54205 0.53990
 O57 O 0.55885 0.55401 0.44766
 O58 O 0.49405 0.43222 0.53364
 O59 O 0.46587 0.44885 0.44265
 O60 O 0.58855 0.53273 0.53580
 O61 O 0.53120 0.55930 0.57184
 O62 O 0.40786 0.47535 0.47746
 O63 O 0.43350 0.45588 0.56843
 O64 O 0.49843 0.57722 0.48358
 Cu65 Cu 0.53260 0.48944 0.48593
 Cu66 Cu 0.46188 0.51933 0.52943
 C67 C 0.53899 0.58595 0.45090
 C68 C 0.45286 0.42366 0.56576
 C69 C 0.41638 0.44802 0.44387
 C70 C 0.58073 0.55994 0.56981
 O71 O 0.43079 0.01951 0.56985
 O72 O 0.41872 -0.09874 0.49924
 O73 O 0.48508 -0.02914 0.57900
 O74 O 0.35552 -0.04865 0.50365
 O75 O 0.41952 -0.00149 0.44008
 O76 O 0.55063 0.02408 0.51812
 O77 O 0.48760 -0.04064 0.44271
 O78 O 0.49422 0.07543 0.50920
 Cu79 Cu 0.41577 -0.04702 0.54236
 Cu80 Cu 0.49429 0.02068 0.47166
 C81 C 0.46706 0.06825 0.55173
 C82 C 0.45087 -0.08982 0.45899
 C83 C 0.53978 0.00280 0.56260
 C84 C 0.36496 -0.03061 0.45811
 O85 O 0.21448 0.34059 0.28902
 O86 O 0.11125 0.33971 0.19118
 O87 O 0.21808 0.34351 0.19470
 O88 O 0.11416 0.33359 0.29606
 O89 O 0.15608 0.42477 0.29200
 O90 O 0.26676 0.43565 0.19636
 O91 O 0.16526 0.43192 0.19137
 O92 O 0.26079 0.43230 0.29550
 Cu93 Cu 0.15677 0.33009 0.24059
 Cu94 Cu 0.21665 0.44040 0.24407
 C95 C 0.25530 0.38704 0.30892
 C96 C 0.12229 0.38560 0.17322
 C97 C 0.26180 0.39149 0.17996
 C98 C 0.11886 0.37758 0.31248
 O99 O 0.53114 0.82615 0.31211
 O100 O 0.58973 0.77213 0.21460
 O101 O 0.53922 0.83035 0.21016
 O102 O 0.58440 0.76982 0.31166
 O103 O 0.49124 0.69216 0.30818
 O104 O 0.44689 0.75203 0.20634
 O105 O 0.49645 0.69476 0.20961
 O106 O 0.43900 0.74767 0.30779
 Cu107 Cu 0.57002 0.80828 0.26264
 Cu108 Cu 0.45884 0.71425 0.25766
 C109 C 0.47564 0.79530 0.32766
 C110 C 0.55285 0.72355 0.19636
 C111 C 0.48620 0.80068 0.18971
 C112 C 0.54574 0.72003 0.32607
 O113 O 0.14809 0.73416 0.30036
 O114 O 0.19853 0.84029 0.19753
 O115 O 0.14419 0.73182 0.19972
 O116 O 0.18607 0.83999 0.29836
 O117 O 0.28115 0.85910 0.30116
 O118 O 0.23863 0.75014 0.20560
 O119 O 0.29359 0.86046 0.20667
 O120 O 0.24456 0.75776 0.30824
 Cu121 Cu 0.15963 0.78485 0.24861
 Cu122 Cu 0.27263 0.80671 0.25450
 C123 C 0.18866 0.72898 0.32236
 C124 C 0.25538 0.86837 0.18479
 C125 C 0.18508 0.72303 0.18572
 C126 C 0.24039 0.86760 0.31661
 O127 O 0.89786 0.66552 0.68152
 O128 O 0.82322 0.68184 0.79441
 O129 O 0.92479 0.67700 0.78225
 O130 O 0.80538 0.67183 0.70028
 O131 O 0.75145 0.57953 0.70527
 O132 O 0.86425 0.58608 0.79535
 O133 O 0.76667 0.58998 0.80344
 O134 O 0.84908 0.57491 0.69675
 Cu135 Cu 0.87072 0.68342 0.73997
 Cu136 Cu 0.80243 0.57346 0.75120
 C137 C 0.88602 0.61739 0.66994
 C138 C 0.77966 0.63814 0.81620
 C139 C 0.91448 0.63256 0.80318
 C140 C 0.75798 0.62436 0.68891
 O141 O 0.43540 0.17607 0.81274
 O142 O 0.39458 0.24226 0.71356
 O143 O 0.42935 0.17299 0.71103
 O144 O 0.40229 0.24910 0.81051
 O145 O 0.50075 0.31817 0.80708
 O146 O 0.52707 0.24329 0.70705
 O147 O 0.49272 0.31194 0.70869
 O148 O 0.53273 0.24711 0.80871
 Cu149 Cu 0.40578 0.20218 0.76305
 Cu150 Cu 0.52347 0.28659 0.75761
 C151 C 0.49074 0.20130 0.82858
 C152 C 0.43687 0.28866 0.69468
 C153 C 0.48237 0.19684 0.69040
 C154 C 0.44658 0.29734 0.82433
 O155 O 0.76013 0.12429 0.69352
 O156 O 0.86855 0.23810 0.77614
 O157 O 0.77574 0.13016 0.79399
 O158 O 0.83294 0.22852 0.68387
 O159 O 0.76037 0.24494 0.70019
 O160 O 0.71226 0.15639 0.81365
 O161 O 0.80136 0.26056 0.79450
 O162 O 0.68718 0.13875 0.71478
 Cu163 Cu 0.81554 0.17757 0.73737
 Cu164 Cu 0.73329 0.20181 0.75805
 C165 C 0.70552 0.11231 0.68915
 C166 C 0.85557 0.27023 0.79748
 C167 C 0.73353 0.12650 0.82223
 C168 C 0.80434 0.25195 0.67260
 N169 N 0.02683 0.34421 0.12023
 N170 N 0.00620 0.36069 0.08263
 C171 C 0.05195 0.41225 0.06773
 C172 C 0.10355 0.42985 0.09751
 C173 C 0.08549 0.38566 0.13061
 H174 H 0.14677 0.47030 0.09721
 H175 H 0.00026 0.30631 0.13972
 H176 H -0.03885 0.33753 0.06840
 N177 N 0.63183 0.70760 0.16113
 N178 N 0.63325 0.67367 0.12740
 C179 C 0.57792 0.64404 0.10402
 C180 C 0.53952 0.65913 0.12389
 C181 C 0.57527 0.69930 0.16009
 H182 H 0.49158 0.64186 0.11454
 H183 H 0.66817 0.73431 0.18563
 H184 H 0.67130 0.67085 0.12079
 N185 N 0.24523 0.90288 0.10042
 N186 N 0.28403 0.93246 0.06292
 C187 C 0.34228 0.95849 0.08087
 C188 C 0.34030 0.94542 0.13194
 C189 C 0.27821 0.90881 0.14261
 H190 H 0.37881 0.95305 0.15521
 H191 H 0.19786 0.87430 0.09540
 H192 H 0.27097 0.93035 0.02472
 N193 N 0.92552 0.63899 0.58045
 N194 N 0.94420 0.61780 0.54554
 C195 C 0.94585 0.57579 0.56693
 C196 C 0.92675 0.56934 0.61736
 C197 C 0.91397 0.61009 0.62428
 H198 H 0.92122 0.53842 0.64461
 H199 H 0.91889 0.67137 0.57374
 H200 H 0.95557 0.63194 0.50781
 N201 N 0.36626 0.31140 0.65407
 N202 N 0.37085 0.34819 0.62065
 C203 C 0.42846 0.37664 0.60121
 C204 C 0.46224 0.35778 0.62331
 C205 C 0.42124 0.31674 0.65690
 H206 H 0.51067 0.37376 0.61782
 H207 H 0.32703 0.28502 0.67607
 H208 H 0.33547 0.35423 0.61211
 N209 N 0.68496 0.04701 0.61769
 N210 N 0.64089 0.01755 0.58379
 C211 C 0.59156 0.01915 0.59668
 C212 C 0.60478 0.05153 0.64025
 C213 C 0.66484 0.06891 0.65204
 H214 H 0.57719 0.06534 0.65741
 H215 H 0.72936 0.05486 0.61523
 H216 H 0.64584 -0.00069 0.55103
 N217 N 0.54921 0.21227 0.90736
 N218 N 0.54952 0.17781 0.94483
 C219 C 0.50791 0.12444 0.93107
 C220 C 0.47933 0.12351 0.88562
 C221 C 0.50655 0.17926 0.87224
 H222 H 0.44387 0.08720 0.86480
 H223 H 0.57637 0.25592 0.90792
 H224 H 0.57896 0.19185 0.97649
 N225 N 0.72691 0.68135 0.85418
 N226 N 0.68094 0.66606 0.88662
 C227 C 0.66578 0.61755 0.90860
 C228 C 0.70321 0.60108 0.88935
 C229 C 0.74099 0.64237 0.85463
 H230 H 0.70024 0.56242 0.89678
 H231 H 0.74556 0.71604 0.83003
 H232 H 0.65956 0.68780 0.89251
 N233 N 0.96568 0.34098 0.81009
 N234 N 1.00302 0.38767 0.84029
 C235 C 0.96621 0.39456 0.87161
 C236 C 0.90444 0.35302 0.86155
 C237 C 0.90658 0.32036 0.82277
 H238 H 0.86382 0.34680 0.88036
 H239 H 0.98183 0.32557 0.78237
 H240 H 1.05124 0.41161 0.83890
 N241 N 0.40194 0.78002 0.39750
 N242 N 0.39637 0.80977 0.43333
 C243 C 0.44418 0.86335 0.42929
 C244 C 0.48205 0.86784 0.38928
 C245 C 0.45354 0.81404 0.37010
 H246 H 0.52370 0.90515 0.37544
 H247 H 0.37088 0.73711 0.39209
 H248 H 0.35962 0.79374 0.45915
 N249 N 0.31327 0.35071 0.34972
 N250 N 0.35685 0.36740 0.38469
 C251 C 0.36869 0.41549 0.40541
 C252 C 0.33176 0.43058 0.38242
 C253 C 0.29760 0.38850 0.34708
 H254 H 0.33156 0.46790 0.38903
 H255 H 0.29629 0.31512 0.32692
 H256 H 0.37834 0.34640 0.39375
 N257 N 0.21283 0.69115 0.39769
 N258 N 0.18285 0.65020 0.43119
 C259 C 0.12214 0.62191 0.42032
 C260 C 0.11287 0.64617 0.37837
 C261 C 0.17167 0.68991 0.36519
 H262 H 0.06974 0.63318 0.35957
 H263 H 0.26068 0.71935 0.39722
 H264 H 0.20392 0.64140 0.46031
 N265 N 1.02275 0.67013 0.83165
 N266 N 1.05081 0.65356 0.86191
 C267 C 1.00746 0.60689 0.88656
 C268 C 0.94960 0.59293 0.87116
 C269 C 0.96121 0.63374 0.83609
 H270 H 0.90530 0.55639 0.88183
 H271 H 1.04550 0.70419 0.80675
 H272 H 1.09863 0.67331 0.86476
 N273 N 0.38763 0.33814 0.85073
 N274 N 0.39902 0.38321 0.88082
 C275 C 0.45196 0.40184 0.90660
 C276 C 0.47569 0.37008 0.89348
 C277 C 0.43458 0.33130 0.85806
 H278 H 0.51930 0.37672 0.90541
 H279 H 0.35240 0.31785 0.82361
 H280 H 0.37120 0.39928 0.88202
 N281 N 0.68810 0.03157 0.85887
 N282 N 0.64543 0.00125 0.89378
 C283 C 0.63611 0.03535 0.92225
 C284 C 0.67397 0.08939 0.90450
 C285 C 0.70553 0.08528 0.86375
 H286 H 0.67162 0.12496 0.91457
 H287 H 0.69985 0.01478 0.82894
 H288 H 0.61994 -0.04237 0.89538
 N289 N 0.09706 0.35951 0.40446
 N290 N 0.07592 0.37876 0.44304
 C291 C 0.05113 0.40436 0.42036
 C292 C 0.05627 0.40264 0.36749
 C293 C 0.08622 0.37514 0.35925
 H294 H 0.04570 0.42380 0.33913
 H295 H 0.12391 0.34296 0.41052
 H296 H 0.08117 0.37543 0.48225
 N297 N 0.62087 0.70163 0.36491
 N298 N 0.61873 0.66452 0.39660
 C299 C 0.56103 0.63272 0.41547
 C300 C 0.52476 0.64966 0.39478
 C301 C 0.56430 0.69320 0.36274
 H302 H 0.47582 0.63121 0.40048
 H303 H 0.65964 0.73042 0.34356
 H304 H 0.65593 0.66089 0.40465
 N305 N 0.21849 0.89521 0.39928
 N306 N 0.25545 0.92325 0.44177
 C307 C 0.31474 0.95225 0.42602
 C308 C 0.31681 0.94530 0.37375
 C309 C 0.25631 0.90692 0.35903
 H310 H 0.35763 0.95650 0.35182
 H311 H 0.17218 0.86226 0.40154
 H312 H 0.23979 0.91530 0.47961
 N313 N 0.42237 0.78916 0.11362
 N314 N 0.42282 0.82025 0.07602
 C315 C 0.47108 0.87326 0.08274
 C316 C 0.50296 0.87604 0.12654
 C317 C 0.47045 0.82170 0.14495
 H318 H 0.54334 0.91248 0.14308
 H319 H 0.38971 0.74632 0.11748
 H320 H 0.38965 0.80548 0.04706
 N321 N 0.32496 0.35905 0.14154
 N322 N 0.37323 0.37943 0.11077
 C323 C 0.38759 0.42956 0.09351
 C324 C 0.34738 0.44204 0.11434
 C325 C 0.30864 0.39636 0.14481
 H326 H 0.34768 0.47980 0.10947
 H327 H 0.30512 0.32122 0.16125
 H328 H 0.39591 0.35939 0.10206
 N329 N 0.21682 0.67635 0.12603
 N330 N 0.19367 0.64073 0.08763
 C331 C 0.13391 0.62294 0.08128
 C332 C 0.11796 0.64850 0.11771
 C333 C 0.17255 0.68250 0.14507
 H334 H 0.07416 0.64453 0.12244
 H335 H 0.26272 0.69694 0.13808
 H336 H 0.21890 0.62914 0.06592
 N337 N 0.53836 0.20210 0.61131
 N338 N 0.53234 0.16897 0.57330
 C339 C 0.48212 0.11745 0.58201
 C340 C 0.45459 0.11779 0.62753
 C341 C 0.49197 0.17238 0.64485
 H342 H 0.41434 0.08310 0.64603
 H343 H 0.57361 0.24440 0.61394
 H344 H 0.56341 0.18120 0.54287
 N345 N 0.69349 0.65892 0.65821
 N346 N 0.64500 0.64095 0.62815
 C347 C 0.62994 0.59191 0.60732
 C348 C 0.66980 0.57759 0.62521
 C349 C 0.70926 0.62111 0.65743
 H350 H 0.66984 0.54060 0.61625
 H351 H 0.71445 0.69582 0.67960
 H352 H 0.62337 0.66234 0.62160
 N353 N 0.77957 0.28916 0.59735
 N354 N 0.80950 0.32802 0.56202
 C355 C 0.87055 0.35207 0.56895
 C356 C 0.87999 0.32669 0.60993
 C357 C 0.82099 0.28711 0.62684
 H358 H 0.92343 0.33761 0.62678
 H359 H 0.73161 0.26522 0.60170
 H360 H 0.78837 0.33932 0.53514
   
