data_POSCAR
  _audit_creation_date              2014-09-24
  _audit_creation_method            'ToBaCCo'
  _symmetry_space_group_name_H-M    'P1'
  _symmetry_Int_Tables_number       1
  _symmetry_cell_setting            triclinic
  loop_
  _symmetry_equiv_pos_as_xyz
 x,y,z
_cell_length_a 32.0874
_cell_length_b 43.2905
_cell_length_c 22.4414
_cell_angle_alpha 90.370500
_cell_angle_beta 89.428600
_cell_angle_gamma 89.387900
loop_
  _atom_site_label
  _atom_site_type_symbol
  _atom_site_fract_x
  _atom_site_fract_y
  _atom_site_fract_z
C1 C 0.72377 0.32903 0.48934
 C2 C 0.72332 0.31415 0.54496
 C3 C 0.73219 0.28216 0.54625
 C4 C 0.74452 0.26577 0.49418
 C5 C 0.74569 0.28186 0.43971
 C6 C 0.73348 0.31297 0.43654
 C7 C 0.75518 0.23190 0.49650
 C8 C 0.75161 0.21288 0.44535
 C9 C 0.76152 0.18113 0.44684
 C10 C 0.77237 0.16812 0.50186
 C11 C 0.77811 0.18655 0.55265
 C12 C 0.76975 0.21836 0.54956
 H13 H 0.71290 0.35272 0.48625
 H14 H 0.73050 0.27019 0.58821
 H15 H 0.75574 0.27045 0.39901
 H16 H 0.73980 0.22232 0.40434
 H17 H 0.77980 0.14375 0.50459
 H18 H 0.77619 0.23251 0.58818
 C19 C 0.22722 0.83247 0.49320
 C20 C 0.22719 0.81728 0.54854
 C21 C 0.23628 0.78530 0.54918
 C22 C 0.24845 0.76928 0.49664
 C23 C 0.24943 0.78572 0.44255
 C24 C 0.23692 0.81677 0.44004
 C25 C 0.25952 0.73548 0.49782
 C26 C 0.25548 0.71707 0.44614
 C27 C 0.26788 0.68604 0.44563
 C28 C 0.28195 0.67252 0.49821
 C29 C 0.28671 0.68989 0.55106
 C30 C 0.27558 0.72158 0.54979
 H31 H 0.21608 0.85611 0.49066
 H32 H 0.23492 0.77305 0.59087
 H33 H 0.25961 0.77461 0.40161
 H34 H 0.24285 0.72651 0.40560
 H35 H 0.28933 0.64812 0.49690
 H36 H 0.28193 0.73592 0.58808
 C37 C 0.27667 0.32992 -0.49670
 C38 C 0.26673 0.31571 -0.55082
 C39 C 0.25158 0.28543 -0.55024
 C40 C 0.25038 0.26789 -0.49722
 C41 C 0.26226 0.28262 -0.44361
 C42 C 0.27380 0.31381 -0.44295
 C43 C 0.23803 0.23436 -0.49863
 C44 C 0.22478 0.21887 -0.44646
 C45 C 0.21577 0.18701 -0.44738
 C46 C 0.21622 0.17149 -0.50272
 C47 C 0.22653 0.18668 -0.55555
 C48 C 0.23951 0.21740 -0.55266
 H49 H 0.28872 0.35320 -0.49637
 H50 H 0.24109 0.27592 -0.59196
 H51 H 0.26292 0.27026 -0.40201
 H52 H 0.22274 0.23117 -0.40461
 H53 H 0.20513 0.14799 -0.50549
 H54 H 0.25061 0.22764 -0.59346
 C55 C -0.21839 0.82791 -0.49525
 C56 C -0.22910 0.81482 -0.55057
 C57 C -0.24484 0.78447 -0.55096
 C58 C -0.24653 0.76644 -0.49866
 C59 C -0.23335 0.78010 -0.44482
 C60 C -0.22061 0.81093 -0.44250
 C61 C -0.26082 0.73336 -0.50033
 C62 C -0.27371 0.71827 -0.44757
 C63 C -0.28365 0.68681 -0.44789
 C64 C -0.28380 0.67061 -0.50197
 C65 C -0.27372 0.68526 -0.55547
 C66 C -0.26118 0.71622 -0.55433
 H67 H -0.20480 0.85063 -0.49299
 H68 H -0.25685 0.77540 -0.59212
 H69 H -0.23250 0.76706 -0.40406
 H70 H -0.27594 0.73049 -0.40558
 H71 H -0.29366 0.64674 -0.50266
 H72 H -0.25127 0.72628 -0.59595
 N73 N 0.04071 0.96773 -0.10066
 N74 N 0.06722 0.96260 -0.14486
 N75 N -0.04397 0.94373 -0.05416
 N76 N -0.06883 0.92068 -0.06798
 N77 N -0.04677 0.96576 -0.09392
 N78 N -0.07376 0.95837 -0.13541
 N79 N 0.04326 0.94568 -0.06097
 N80 N 0.07139 0.92470 -0.07765
 C81 C 0.08652 0.93591 -0.12977
 C82 C -0.08780 0.93041 -0.11826
 N83 N -0.04012 0.96557 0.11543
 N84 N -0.06784 0.95966 0.15750
 N85 N 0.04730 0.94570 0.06776
 N86 N 0.07625 0.92460 0.07854
 N87 N 0.04743 0.96738 0.10895
 N88 N 0.07654 0.96167 0.14860
 N89 N -0.04021 0.94389 0.07425
 N90 N -0.06800 0.92261 0.08731
 Mn91 Mn 0.00164 0.94444 0.00680
 C92 C -0.08528 0.93293 0.13918
 C93 C 0.09468 0.93512 0.12871
 N94 N -0.05013 1.03222 -0.09275
 N95 N -0.07644 1.03905 -0.13546
 N96 N 0.03755 1.05598 -0.05923
 N97 N 0.06354 1.07803 -0.07545
 N98 N 0.03726 1.03384 -0.09949
 N99 N 0.06319 1.03996 -0.14351
 N100 N -0.04976 1.05436 -0.05244
 N101 N -0.07577 1.07691 -0.06725
 Mn102 Mn -0.00479 0.99989 -0.09696
 C103 C -0.09282 1.06668 -0.11867
 C104 C 0.07977 1.06737 -0.12788
 N105 N 0.04392 1.03386 0.11006
 N106 N 0.07291 1.04021 0.14937
 N107 N -0.04596 1.05393 0.07642
 N108 N -0.07653 1.07357 0.08996
 N109 N -0.04362 1.03200 0.11643
 N110 N -0.07256 1.03597 0.15792
 N111 N 0.04160 1.05570 0.06983
 N112 N 0.06891 1.07757 0.08103
 Mn113 Mn 0.00192 0.99973 0.11326
 Mn114 Mn -0.00413 1.05536 0.00877
 Cl115 Cl -0.00135 0.99986 0.00794
 C116 C 0.08863 1.06736 0.13042
 C117 C -0.09307 1.06185 0.14077
 N118 N 0.54129 0.46712 -0.10224
 N119 N 0.56799 0.46170 -0.14606
 N120 N 0.45479 0.44470 -0.05954
 N121 N 0.42832 0.42281 -0.07443
 N122 N 0.45367 0.46725 -0.09835
 N123 N 0.42619 0.46151 -0.14011
 N124 N 0.54217 0.44457 -0.06345
 N125 N 0.56933 0.42295 -0.08047
 C126 C 0.58567 0.43430 -0.13176
 C127 C 0.41018 0.43394 -0.12433
 N128 N 0.45681 0.46500 0.11103
 N129 N 0.42897 0.45905 0.15289
 N130 N 0.54411 0.44341 0.06552
 N131 N 0.57259 0.42191 0.07595
 N132 N 0.54447 0.46476 0.10734
 N133 N 0.57330 0.45844 0.14706
 N134 N 0.45649 0.44357 0.06935
 N135 N 0.42845 0.42239 0.08201
 Mn136 Mn 0.49941 0.44372 0.00304
 C137 C 0.41116 0.43259 0.13401
 C138 C 0.59096 0.43183 0.12663
 N139 N 0.45316 0.53364 -0.09511
 N140 N 0.42745 0.54125 -0.13809
 N141 N 0.54109 0.55502 -0.05775
 N142 N 0.56768 0.57689 -0.07257
 N143 N 0.54077 0.53326 -0.09878
 N144 N 0.56744 0.53945 -0.14192
 N145 N 0.45377 0.55540 -0.05408
 N146 N 0.42864 0.57852 -0.06867
 Mn147 Mn 0.49719 0.50031 -0.09888
 C148 C 0.41178 0.56902 -0.12074
 C149 C 0.58440 0.56649 -0.12480
 N150 N 0.54379 0.53122 0.11065
 N151 N 0.57250 0.53640 0.15100
 N152 N 0.45538 0.55370 0.07469
 N153 N 0.42574 0.57410 0.08791
 N154 N 0.45604 0.53145 0.11417
 N155 N 0.42678 0.53600 0.15504
 N156 N 0.54296 0.55357 0.07137
 N157 N 0.57094 0.57472 0.08444
 Mn158 Mn 0.50028 0.49812 0.11133
 Mn159 Mn 0.49832 0.55475 0.00869
 Cl160 Cl 0.49880 0.49922 0.00602
 C161 C 0.58954 0.56342 0.13386
 C162 C 0.40789 0.56257 0.13792
 C163 C 0.30799 0.36270 0.29263
 C164 C 0.31109 0.33033 0.29509
 C165 C 0.29537 0.31485 0.34470
 C166 C 0.27648 0.33139 0.39195
 C167 C 0.27192 0.36353 0.38615
 N168 N 0.28812 0.37815 0.33790
 C169 C 0.33023 0.38082 0.24663
 N170 N 0.34093 0.41037 0.26022
 C171 C 0.36502 0.42771 0.22362
 C172 C 0.38056 0.41527 0.16989
 C173 C 0.36844 0.38541 0.15342
 C174 C 0.34318 0.36812 0.19153
 H175 H 0.30032 0.29012 0.34761
 H176 H 0.25694 0.37718 0.42095
 H177 H 0.37310 0.45084 0.23760
 H178 H 0.37940 0.37511 0.11196
 H179 H 0.32769 0.31709 0.26126
 H180 H 0.33454 0.34505 0.17810
 C181 C -0.19027 0.86334 0.29627
 C182 C -0.19489 0.83113 0.29304
 C183 C -0.21043 0.81519 0.34232
 C184 C -0.22095 0.83102 0.39567
 C185 C -0.21892 0.86356 0.39476
 N186 N -0.20338 0.87841 0.34650
 C187 C -0.16746 0.88135 0.25051
 N188 N -0.15503 0.91033 0.26558
 C189 C -0.13045 0.92763 0.22963
 C190 C -0.11604 0.91569 0.17493
 C191 C -0.12970 0.88644 0.15700
 C192 C -0.15554 0.86922 0.19445
 H193 H -0.21059 0.79023 0.33968
 H194 H -0.22909 0.87742 0.43252
 H195 H -0.12113 0.95028 0.24484
 H196 H -0.11962 0.87656 0.11473
 H197 H -0.18449 0.81787 0.25468
 H198 H -0.16521 0.84666 0.17959
 C199 C 0.69304 0.63261 0.29183
 C200 C 0.72114 0.61991 0.33291
 C201 C 0.73428 0.63776 0.38100
 C202 C 0.72034 0.66840 0.38762
 C203 C 0.69547 0.68110 0.34273
 N204 N 0.68204 0.66300 0.29716
 C205 C 0.67171 0.61329 0.24682
 N206 N 0.65298 0.62722 0.19964
 C207 C 0.62856 0.61149 0.16079
 C208 C 0.62065 0.58003 0.16965
 C209 C 0.64039 0.56506 0.21698
 C210 C 0.66588 0.58149 0.25549
 H211 H 0.75408 0.62733 0.41428
 H212 H 0.68424 0.70472 0.34618
 H213 H 0.61386 0.62388 0.12477
 H214 H 0.63502 0.54081 0.22547
 H215 H 0.73194 0.59622 0.32934
 H216 H 0.67880 0.56954 0.29332
 C217 C 0.19016 1.13974 0.28554
 C218 C 0.18483 1.17194 0.28991
 C219 C 0.19926 1.18758 0.34010
 C220 C 0.21904 1.17135 0.38604
 C221 C 0.22617 1.13953 0.37807
 N222 N 0.21114 1.12471 0.32936
 C223 C 0.16876 1.12108 0.23966
 N224 N 0.16046 1.09103 0.25220
 C225 C 0.13686 1.07307 0.21631
 C226 C 0.11919 1.08539 0.16461
 C227 C 0.12894 1.11580 0.14899
 C228 C 0.15383 1.13371 0.18623
 H229 H 0.19246 1.21204 0.34469
 H230 H 0.24196 1.12617 0.41180
 H231 H 0.13066 1.04955 0.22951
 H232 H 0.11631 1.12603 0.10904
 H233 H 0.16735 1.18483 0.25730
 H234 H 0.16051 1.15721 0.17358
 C235 C 0.68326 0.36654 -0.30519
 C236 C 0.70789 0.38027 -0.34948
 C237 C 0.72174 0.36277 -0.39808
 C238 C 0.71240 0.33112 -0.40274
 C239 C 0.69076 0.31770 -0.35450
 N240 N 0.67626 0.33560 -0.30848
 C241 C 0.66236 0.38513 -0.25749
 N242 N 0.64683 0.37075 -0.20825
 C243 C 0.62405 0.38611 -0.16562
 C244 C 0.61487 0.41766 -0.17220
 C245 C 0.63125 0.43299 -0.22179
 C246 C 0.65476 0.41694 -0.26440
 H247 H 0.74052 0.37414 -0.43157
 H248 H 0.68242 0.29358 -0.35507
 H249 H 0.61181 0.37344 -0.12802
 H250 H 0.62479 0.45730 -0.22877
 H251 H 0.71632 0.40435 -0.34741
 H252 H 0.66492 0.42934 -0.30346
 C253 C 0.18660 0.86906 -0.30134
 C254 C 0.21126 0.88301 -0.34528
 C255 C 0.22547 0.86567 -0.39386
 C256 C 0.21638 0.83399 -0.39884
 C257 C 0.19488 0.82033 -0.35074
 N258 N 0.18003 0.83808 -0.30473
 C259 C 0.16506 0.88754 -0.25415
 N260 N 0.15032 0.87325 -0.20434
 C261 C 0.12697 0.88845 -0.16216
 C262 C 0.11630 0.91967 -0.16988
 C263 C 0.13179 0.93493 -0.22012
 C264 C 0.15597 0.91907 -0.26222
 H265 H 0.24420 0.87720 -0.42719
 H266 H 0.18684 0.79615 -0.35151
 H267 H 0.11544 0.87585 -0.12402
 H268 H 0.12414 0.95899 -0.22794
 H269 H 0.21931 0.90717 -0.34298
 H270 H 0.16547 0.93128 -0.30185
 C271 C 0.33288 0.64461 -0.29576
 C272 C 0.30908 0.67174 -0.28845
 C273 C 0.29435 0.68722 -0.33887
 C274 C 0.30316 0.67575 -0.39688
 C275 C 0.32862 0.64900 -0.40120
 N276 N 0.34204 0.63442 -0.35169
 C277 C 0.34816 0.62586 -0.24559
 N278 N 0.35583 0.59536 -0.25616
 C279 C 0.37363 0.57660 -0.21536
 C280 C 0.38621 0.58852 -0.16028
 C281 C 0.37748 0.61971 -0.14722
 C282 C 0.35826 0.63851 -0.18979
 H283 H 0.27434 0.70718 -0.33169
 H284 H 0.33929 0.63980 -0.44357
 H285 H 0.37946 0.55265 -0.22719
 H286 H 0.38692 0.62979 -0.10525
 H287 H 0.30069 0.68035 -0.24452
 H288 H 0.35333 0.66280 -0.18016
 C289 C -0.17373 1.14145 -0.29294
 C290 C -0.20353 1.16517 -0.28518
 C291 C -0.21892 1.18054 -0.33532
 C292 C -0.20435 1.17240 -0.39268
 C293 C -0.17325 1.14945 -0.39771
 N294 N -0.15948 1.13457 -0.34871
 C295 C -0.15803 1.12248 -0.24349
 N296 N -0.14659 1.09281 -0.25604
 C297 C -0.12824 1.07422 -0.21547
 C298 C -0.11890 1.08559 -0.15857
 C299 C -0.13142 1.11588 -0.14370
 C300 C -0.15132 1.13442 -0.18606
 H301 H -0.24299 1.19805 -0.32945
 H302 H -0.16001 1.14306 -0.44063
 H303 H -0.11936 1.05098 -0.22882
 H304 H -0.12460 1.12551 -0.10027
 H305 H -0.21585 1.17098 -0.24140
 H306 H -0.15943 1.15811 -0.17495
 C307 C 0.67810 0.63655 -0.29406
 C308 C 0.70959 0.62442 -0.33160
 C309 C 0.72286 0.64130 -0.38072
 C310 C 0.70545 0.67047 -0.39217
 C311 C 0.67609 0.68272 -0.35146
 N312 N 0.66294 0.66553 -0.30443
 C313 C 0.65872 0.61773 -0.24664
 N314 N 0.63917 0.63200 -0.19962
 C315 C 0.61731 0.61603 -0.15780
 C316 C 0.61309 0.58392 -0.16338
 C317 C 0.63361 0.56875 -0.21071
 C318 C 0.65645 0.58545 -0.25221
 H319 H 0.74634 0.63140 -0.41036
 H320 H 0.66215 0.70526 -0.35859
 H321 H 0.60167 0.62855 -0.12202
 H322 H 0.63094 0.54400 -0.21673
 H323 H 0.72348 0.60194 -0.32386
 H324 H 0.67022 0.57322 -0.28981
 C325 C 0.17612 1.13583 -0.29804
 C326 C 0.20181 1.12189 -0.34165
 C327 C 0.21550 1.13904 -0.39000
 C328 C 0.20511 1.17059 -0.39497
 C329 C 0.18272 1.18438 -0.34711
 N330 N 0.16822 1.16675 -0.30139
 C331 C 0.15511 1.11726 -0.25131
 N332 N 0.13906 1.13146 -0.20156
 C333 C 0.11653 1.11593 -0.15971
 C334 C 0.10824 1.08440 -0.16767
 C335 C 0.12501 1.06933 -0.21796
 C336 C 0.14816 1.08554 -0.25974
 H337 H 0.23493 1.12747 -0.42318
 H338 H 0.17380 1.20852 -0.34794
 H339 H 0.10391 1.12841 -0.12156
 H340 H 0.11922 1.04507 -0.22607
 H341 H 0.21107 1.09785 -0.33933
 H342 H 0.15863 1.07332 -0.29935
 C343 C 0.31355 0.36405 -0.28995
 C344 C 0.28225 0.37646 -0.32629
 C345 C 0.26821 0.35946 -0.37485
 C346 C 0.28458 0.32991 -0.38684
 C347 C 0.31357 0.31736 -0.34708
 N348 N 0.32756 0.33467 -0.30066
 C349 C 0.33397 0.38293 -0.24356
 N350 N 0.35365 0.36869 -0.19754
 C351 C 0.37627 0.38461 -0.15675
 C352 C 0.38114 0.41665 -0.16231
 C353 C 0.36058 0.43180 -0.20866
 C354 C 0.33700 0.41514 -0.24918
 H355 H 0.24514 0.36964 -0.40390
 H356 H 0.32671 0.29453 -0.35471
 H357 H 0.39186 0.37208 -0.12169
 H358 H 0.36372 0.45648 -0.21469
 H359 H 0.26920 0.39926 -0.31822
 H360 H 0.32319 0.42734 -0.28608
 C361 C -0.17683 0.85565 -0.28473
 C362 C -0.16645 0.82442 -0.29508
 C363 C -0.18176 0.80940 -0.34551
 C364 C -0.20735 0.82535 -0.38558
 C365 C -0.21816 0.85616 -0.37236
 N366 N -0.20247 0.87038 -0.32353
 C367 C -0.15739 0.87410 -0.23694
 N368 N -0.15430 0.90514 -0.24479
 C369 C -0.13399 0.92367 -0.20595
 C370 C -0.11476 0.91106 -0.15571
 C371 C -0.11908 0.87936 -0.14502
 C372 C -0.14038 0.86076 -0.18552
 H373 H -0.17208 0.78577 -0.35446
 H374 H -0.23835 0.86918 -0.40156
 H375 H -0.13183 0.94809 -0.21542
 H376 H -0.10490 0.86879 -0.10647
 H377 H -0.14516 0.81206 -0.26651
 H378 H -0.14301 0.83632 -0.17677
 C379 C 0.29842 0.63107 0.29378
 C380 C 0.27246 0.61868 0.33824
 C381 C 0.25944 0.63730 0.38603
 C382 C 0.27150 0.66831 0.38905
 C383 C 0.29372 0.68057 0.34070
 N384 N 0.30711 0.66179 0.29552
 C385 C 0.32071 0.61136 0.24930
 N386 N 0.33784 0.62485 0.20025
 C387 C 0.36377 0.60926 0.16199
 C388 C 0.37508 0.57850 0.17345
 C389 C 0.35692 0.56384 0.22260
 C390 C 0.32974 0.58008 0.26049
 H391 H 0.24163 0.62715 0.42203
 H392 H 0.30345 0.70444 0.34122
 H393 H 0.37703 0.62136 0.12438
 H394 H 0.36486 0.54011 0.23300
 H395 H 0.26355 0.59466 0.33766
 H396 H 0.31813 0.56858 0.29980
 C397 C -0.20661 1.12594 0.29853
 C398 C -0.22742 1.11248 0.34702
 C399 C -0.24076 1.13097 0.39466
 C400 C -0.23470 1.16314 0.39398
 C401 C -0.21910 1.17601 0.34075
 N402 N -0.20448 1.15731 0.29606
 C403 C -0.18275 1.10721 0.25382
 N404 N -0.16751 1.12127 0.20407
 C405 C -0.14067 1.10680 0.16534
 C406 C -0.12657 1.07666 0.17683
 C407 C -0.14277 1.06141 0.22664
 C408 C -0.17070 1.07646 0.26509
 H409 H -0.25528 1.11986 0.43251
 H410 H -0.21411 1.20059 0.33688
 H411 H -0.12898 1.11933 0.12720
 H412 H -0.13273 1.03811 0.23713
 H413 H -0.23222 1.08787 0.34974
 H414 H -0.18059 1.06438 0.30463
 C415 C 0.69559 0.35951 0.27858
 C416 C 0.69018 0.32743 0.28296
 C417 C 0.70520 0.31180 0.33270
 C418 C 0.72572 0.32793 0.37809
 C419 C 0.73305 0.35955 0.36986
 N420 N 0.71733 0.37439 0.32172
 C421 C 0.67336 0.37825 0.23365
 N422 N 0.66379 0.40817 0.24751
 C423 C 0.63935 0.42611 0.21244
 C424 C 0.62224 0.41390 0.16020
 C425 C 0.63328 0.38364 0.14329
 C426 C 0.65890 0.36574 0.17979
 H427 H 0.69821 0.28752 0.33749
 H428 H 0.74943 0.37280 0.40312
 H429 H 0.63215 0.44952 0.22662
 H430 H 0.62109 0.37348 0.10292
 H431 H 0.67208 0.31474 0.25082
 H432 H 0.66656 0.34232 0.16628
 C433 C 0.19908 0.86367 0.28234
 C434 C 0.19408 0.83153 0.28627
 C435 C 0.20897 0.81586 0.33601
 C436 C 0.22897 0.83198 0.38188
 C437 C 0.23581 0.86372 0.37423
 N438 N 0.22024 0.87860 0.32603
 C439 C 0.17707 0.88233 0.23707
 N440 N 0.16680 0.91213 0.25095
 C441 C 0.14242 0.92988 0.21544
 C442 C 0.12611 0.91758 0.16274
 C443 C 0.13795 0.88747 0.14583
 C444 C 0.16351 0.86979 0.18274
 H445 H 0.20232 0.79150 0.34032
 H446 H 0.25179 0.87698 0.40787
 H447 H 0.13457 0.95318 0.22965
 H448 H 0.12641 0.87726 0.10511
 H449 H 0.17641 0.81881 0.25369
 H450 H 0.17179 0.84648 0.16920
   
