data_POSCAR
  _audit_creation_date              2014-09-24
  _audit_creation_method            'ToBaCCo'
  _symmetry_space_group_name_H-M    'P1'
  _symmetry_Int_Tables_number       1
  _symmetry_cell_setting            triclinic
  loop_
  _symmetry_equiv_pos_as_xyz
 x,y,z
_cell_length_a 46.4351
_cell_length_b 46.4584
_cell_length_c 46.3620
_cell_angle_alpha 89.997700
_cell_angle_beta 90.000800
_cell_angle_gamma 89.965200
loop_
  _atom_site_label
  _atom_site_type_symbol
  _atom_site_fract_x
  _atom_site_fract_y
  _atom_site_fract_z
C1 C 0.16088 0.18148 0.20318
 C2 C 0.16086 0.20282 0.18177
 C3 C 0.18195 0.20283 0.16073
 C4 C 0.20331 0.18146 0.16079
 C5 C 0.20327 0.16050 0.18180
 C6 C 0.18191 0.16054 0.20322
 C7 C 0.14317 0.17623 0.22634
 N8 N 0.15280 0.15246 0.24081
 C9 C 0.17668 0.14290 0.22644
 C10 C 0.22644 0.14282 0.17659
 N11 N 0.24088 0.15240 0.15275
 C12 C 0.22650 0.17623 0.14313
 C13 C 0.17674 0.22600 0.14301
 N14 N 0.15295 0.24008 0.15273
 C15 C 0.14313 0.22596 0.17647
 H16 H 0.12487 0.18941 0.23203
 H17 H 0.18955 0.12430 0.23186
 H18 H 0.23214 0.12455 0.18982
 H19 H 0.23192 0.18910 0.12451
 H20 H 0.18920 0.23192 0.12420
 H21 H 0.12470 0.23227 0.18930
 C22 C -0.16080 0.81852 0.20320
 C23 C -0.16080 0.79715 0.18183
 C24 C -0.18190 0.79713 0.16079
 C25 C -0.20322 0.81853 0.16080
 C26 C -0.20320 0.83948 0.18183
 C27 C -0.18181 0.83947 0.20322
 C28 C -0.14310 0.82377 0.22637
 N29 N -0.15271 0.84756 0.24081
 C30 C -0.17658 0.85712 0.22643
 C31 C -0.22639 0.85715 0.17662
 N32 N -0.24080 0.84759 0.15276
 C33 C -0.22640 0.82379 0.14312
 C34 C -0.17670 0.77394 0.14309
 N35 N -0.15292 0.75985 0.15283
 C36 C -0.14309 0.77399 0.17656
 H37 H -0.12480 0.81059 0.23206
 H38 H -0.18946 0.87571 0.23185
 H39 H -0.23179 0.87571 0.18956
 H40 H -0.23210 0.81061 0.12480
 H41 H -0.18916 0.76802 0.12427
 H42 H -0.12467 0.76768 0.18939
 C43 C -0.16121 0.18169 -0.20321
 C44 C -0.16121 0.20306 -0.18183
 C45 C -0.18229 0.20310 -0.16079
 C46 C -0.20362 0.18172 -0.16080
 C47 C -0.20358 0.16075 -0.18180
 C48 C -0.18221 0.16076 -0.20322
 C49 C -0.14350 0.17641 -0.22637
 N50 N -0.15310 0.15262 -0.24079
 C51 C -0.17697 0.14308 -0.22642
 C52 C -0.22672 0.14307 -0.17657
 N53 N -0.24116 0.15265 -0.15272
 C54 C -0.22680 0.17648 -0.14312
 C55 C -0.17709 0.22629 -0.14309
 N56 N -0.15332 0.24034 -0.15284
 C57 C -0.14350 0.22619 -0.17657
 H58 H -0.12521 0.18958 -0.23208
 H59 H -0.18982 0.12448 -0.23181
 H60 H -0.23226 0.12469 -0.18969
 H61 H -0.23231 0.18948 -0.12462
 H62 H -0.18954 0.23223 -0.12427
 H63 H -0.12508 0.23248 -0.18941
 C64 C 0.16114 0.81835 -0.20320
 C65 C 0.16113 0.79698 -0.18182
 C66 C 0.18222 0.79693 -0.16078
 C67 C 0.20357 0.81828 -0.16080
 C68 C 0.20352 0.83927 -0.18179
 C69 C 0.18215 0.83927 -0.20321
 C70 C 0.14343 0.82365 -0.22635
 N71 N 0.15304 0.84744 -0.24078
 C72 C 0.17691 0.85696 -0.22640
 C73 C 0.22666 0.85695 -0.17655
 N74 N 0.24111 0.84733 -0.15273
 C75 C 0.22676 0.82350 -0.14313
 C76 C 0.17701 0.77373 -0.14309
 N77 N 0.15323 0.75969 -0.15284
 C78 C 0.14341 0.77385 -0.17656
 H79 H 0.12513 0.81049 -0.23206
 H80 H 0.18977 0.87556 -0.23179
 H81 H 0.23234 0.87523 -0.18976
 H82 H 0.23218 0.81061 -0.12453
 H83 H 0.18947 0.76777 -0.12428
 H84 H 0.12499 0.76757 -0.18940
 C85 C 0.18112 1.16061 0.79717
 C86 C 0.20250 1.16060 0.81854
 C87 C 0.20256 1.18171 0.83955
 C88 C 0.18120 1.20307 0.83950
 C89 C 0.16019 1.20301 0.81852
 C90 C 0.16018 1.18163 0.79714
 C91 C 0.17584 1.14290 0.77403
 N92 N 0.15204 1.15253 0.75959
 C93 C 0.14250 1.17640 0.77395
 C94 C 0.14253 1.22619 0.82371
 N95 N 0.15218 1.24067 0.84749
 C96 C 0.17602 1.22630 0.85711
 C97 C 0.22579 1.17653 0.85722
 N98 N 0.23984 1.15274 0.84749
 C99 C 0.22566 1.14289 0.82381
 H100 H 0.18902 1.12460 0.76833
 H101 H 0.12390 1.18927 0.76854
 H102 H 0.12426 1.23191 0.81048
 H103 H 0.18892 1.23173 0.87571
 H104 H 0.23177 1.18902 0.87599
 H105 H 0.23195 1.12446 0.81099
 C106 C 0.81893 0.83938 0.79714
 C107 C 0.79757 0.83939 0.81853
 C108 C 0.79754 0.81830 0.83955
 C109 C 0.81893 0.79697 0.83952
 C110 C 0.83987 0.79697 0.81847
 C111 C 0.83987 0.81836 0.79709
 C112 C 0.82417 0.85708 0.77398
 N113 N 0.84795 0.84745 0.75951
 C114 C 0.85751 0.82358 0.77387
 C115 C 0.85751 0.77377 0.82363
 N116 N 0.84795 0.75936 0.84748
 C117 C 0.82417 0.77378 0.85718
 C118 C 0.77434 0.82349 0.85726
 N119 N 0.76026 0.84726 0.84752
 C120 C 0.77440 0.85709 0.82381
 H121 H 0.81098 0.87537 0.76829
 H122 H 0.87610 0.81070 0.76844
 H123 H 0.87610 0.76838 0.81071
 H124 H 0.81097 0.76803 0.87546
 H125 H 0.76840 0.81102 0.87606
 H126 H 0.76809 0.87551 0.81098
 C127 C 0.18133 0.83944 1.20304
 C128 C 0.20275 0.83940 1.18171
 C129 C 0.20278 0.81838 1.16062
 C130 C 0.18144 0.79704 1.16062
 C131 C 0.16040 0.79706 1.18172
 C132 C 0.16038 0.81846 1.20307
 C133 C 0.17608 0.85714 1.22621
 N134 N 0.15229 0.84754 1.24065
 C135 C 0.14273 0.82369 1.22628
 C136 C 0.14275 0.77386 1.17653
 N137 N 0.15252 0.75975 1.15276
 C138 C 0.17621 0.77387 1.14292
 C139 C 0.22597 0.82360 1.14292
 N140 N 0.24008 0.84730 1.15276
 C141 C 0.22595 0.85707 1.17652
 H142 H 0.18928 0.87539 1.23193
 H143 H 0.12414 0.81083 1.23171
 H144 H 0.12396 0.76795 1.18900
 H145 H 0.18906 0.76752 1.12450
 H146 H 0.23233 0.81077 1.12451
 H147 H 0.23184 0.87586 1.18897
 C148 C 0.81854 1.16060 1.20304
 C149 C 0.79718 1.16057 1.18164
 C150 C 0.79711 1.18164 1.16059
 C151 C 0.81843 1.20299 1.16060
 C152 C 0.83949 1.20296 1.18167
 C153 C 0.83947 1.18161 1.20308
 C154 C 0.82380 1.14291 1.22620
 N155 N 0.84757 1.15254 1.24067
 C156 C 0.85712 1.17640 1.22630
 C157 C 0.85716 1.22615 1.17646
 N158 N 0.84733 1.24030 1.15273
 C159 C 0.82360 1.22621 1.14294
 C160 C 0.77390 1.17644 1.14291
 N161 N 0.75986 1.15267 1.15267
 C162 C 0.77404 1.14286 1.17639
 H163 H 0.81063 1.12463 1.23191
 H164 H 0.87571 1.18926 1.23171
 H165 H 0.87554 1.23248 1.18933
 H166 H 0.81114 1.23215 1.12413
 H167 H 0.76793 1.18889 1.12411
 H168 H 0.76775 1.12446 1.18924
 N169 N 0.53024 1.03091 1.05111
 N170 N 0.55210 1.03454 1.06895
 N171 N 0.46962 1.05087 1.03107
 N172 N 0.44775 1.06869 1.03474
 N173 N 0.46963 1.03087 1.05110
 N174 N 0.44779 1.03451 1.06896
 N175 N 0.53023 1.05090 1.03108
 N176 N 0.55207 1.06871 1.03472
 C177 C 0.56540 1.05818 1.05841
 C178 C 0.43445 1.05815 1.05843
 N179 N 0.46967 1.03091 0.94889
 N180 N 0.44780 1.03455 0.93105
 N181 N 0.53026 1.05093 0.96894
 N182 N 0.55208 1.06877 0.96529
 N183 N 0.53028 1.03094 0.94890
 N184 N 0.55212 1.03462 0.93104
 N185 N 0.46965 1.05090 0.96893
 N186 N 0.44777 1.06870 0.96530
 Mn187 Mn 0.49994 1.05124 1.00001
 C188 C 0.43447 1.05817 0.94161
 C189 C 0.56541 1.05827 0.94159
 N190 N 0.46972 0.96886 1.05107
 N191 N 0.44785 0.96522 1.06890
 N192 N 0.53037 0.94892 1.03105
 N193 N 0.55224 0.93111 1.03471
 N194 N 0.53033 0.96890 1.05109
 N195 N 0.55218 0.96527 1.06896
 N196 N 0.46975 0.94888 1.03103
 N197 N 0.44791 0.93106 1.03465
 Mn198 Mn 0.49998 0.99989 1.05144
 C199 C 0.43457 0.94158 1.05833
 C200 C 0.56553 0.94164 1.05842
 N201 N 0.53034 0.96893 0.94888
 N202 N 0.55222 0.96532 0.93106
 N203 N 0.46975 0.94889 0.96890
 N204 N 0.44792 0.93106 0.96524
 N205 N 0.46973 0.96890 0.94887
 N206 N 0.44788 0.96524 0.93101
 N207 N 0.53036 0.94894 0.96892
 N208 N 0.55225 0.93115 0.96529
 Mn209 Mn 0.50001 0.99992 0.94854
 Mn210 Mn 0.50006 0.94856 0.99997
 Cl211 Cl 0.50000 0.99990 0.99999
 C212 C 0.56557 0.94170 0.94162
 C213 C 0.43460 0.94159 0.94155
 N214 N 0.03102 0.46965 0.05088
 N215 N 0.03464 0.44780 0.06873
 N216 N 0.05107 0.53019 0.03083
 N217 N 0.06891 0.55202 0.03447
 N218 N 0.03108 0.53023 0.05087
 N219 N 0.03473 0.55207 0.06871
 N220 N 0.05101 0.46961 0.03084
 N221 N 0.06881 0.44774 0.03449
 C222 C 0.05828 0.43445 0.05818
 C223 C 0.05839 0.56534 0.05816
 N224 N 0.03106 0.53023 -0.05134
 N225 N 0.03472 0.55208 -0.06918
 N226 N 0.05100 0.46962 -0.03130
 N227 N 0.06879 0.44774 -0.03494
 N228 N 0.03099 0.46965 -0.05133
 N229 N 0.03461 0.44780 -0.06918
 N230 N 0.05106 0.53020 -0.03130
 N231 N 0.06890 0.55201 -0.03495
 Mn232 Mn 0.05138 0.49990 -0.00023
 C233 C 0.05839 0.56535 -0.05863
 C234 C 0.05825 0.43445 -0.05863
 N235 N -0.03096 0.53034 0.05089
 N236 N -0.03459 0.55219 0.06874
 N237 N -0.05103 0.46979 0.03087
 N238 N -0.06887 0.44797 0.03452
 N239 N -0.03102 0.46977 0.05089
 N240 N -0.03467 0.44793 0.06875
 N241 N -0.05097 0.53037 0.03086
 N242 N -0.06878 0.55224 0.03451
 Mn243 Mn 0.00003 0.50000 0.05123
 C244 C -0.05824 0.56553 0.05820
 C245 C -0.05834 0.43465 0.05821
 N246 N -0.03105 0.46974 -0.05132
 N247 N -0.03473 0.44789 -0.06915
 N248 N -0.05098 0.53036 -0.03128
 N249 N -0.06877 0.55224 -0.03492
 N250 N -0.03099 0.53032 -0.05132
 N251 N -0.03460 0.55218 -0.06917
 N252 N -0.05105 0.46978 -0.03127
 N253 N -0.06889 0.44796 -0.03490
 Mn254 Mn 0.00000 0.49998 -0.05167
 Mn255 Mn -0.05135 0.50008 -0.00021
 Cl256 Cl 0.00001 0.49999 -0.00022
 C257 C -0.05839 0.43462 -0.05859
 C258 C -0.05823 0.56553 -0.05861
 N259 N 0.94901 -0.03097 0.46972
 N260 N 0.93118 -0.03464 0.44784
 N261 N 0.96904 -0.05095 0.53043
 N262 N 0.96542 -0.06877 0.55231
 N263 N 0.94901 -0.03098 0.53042
 N264 N 0.93119 -0.03463 0.55231
 N265 N 0.96904 -0.05095 0.46972
 N266 N 0.96540 -0.06878 0.44784
 C267 C 0.94173 -0.05828 0.43451
 C268 C 0.94176 -0.05826 0.56565
 N269 N 1.05105 -0.03091 0.53045
 N270 N 1.06890 -0.03456 0.55232
 N271 N 1.03108 -0.05092 0.46975
 N272 N 1.03473 -0.06872 0.44786
 N273 N 1.05106 -0.03091 0.46974
 N274 N 1.06888 -0.03455 0.44785
 N275 N 1.03108 -0.05092 0.53045
 N276 N 1.03477 -0.06875 0.55232
 Mn277 Mn 1.00006 -0.05128 0.50008
 C278 C 1.05842 -0.05822 0.56565
 C279 C 1.05837 -0.05819 0.43452
 N280 N 0.94893 0.03104 0.53043
 N281 N 0.93108 0.03468 0.55230
 N282 N 0.96892 0.05104 0.46973
 N283 N 0.96526 0.06886 0.44785
 N284 N 0.94894 0.03104 0.46972
 N285 N 0.93111 0.03468 0.44784
 N286 N 0.96891 0.05104 0.53043
 N287 N 0.96522 0.06887 0.55231
 Mn288 Mn 0.94863 0.00003 0.50007
 C289 C 0.94157 0.05833 0.56563
 C290 C 0.94162 0.05833 0.43451
 N291 N 1.05099 0.03110 0.46973
 N292 N 1.06883 0.03476 0.44786
 N293 N 1.03095 0.05108 0.53043
 N294 N 1.03454 0.06888 0.55233
 N295 N 1.05098 0.03110 0.53044
 N296 N 1.06877 0.03474 0.55235
 N297 N 1.03097 0.05108 0.46972
 N298 N 1.03461 0.06890 0.44784
 Mn299 Mn 1.05136 0.00009 0.50009
 Mn300 Mn 0.99994 0.05140 0.50008
 Cl301 Cl 1.00000 0.00006 0.50008
 C302 C 1.05829 0.05840 0.43452
 C303 C 1.05819 0.05837 0.56568
 C304 C 1.10257 0.13895 0.30163
 C305 C 1.11618 0.11599 0.31548
 C306 C 1.14196 0.10513 0.30443
 C307 C 1.15416 0.11715 0.27964
 C308 C 1.14080 0.14049 0.26520
 C309 C 1.11464 0.15109 0.27684
 C310 C 1.10372 0.10361 0.34106
 C311 C 1.09329 0.09325 0.36248
 C312 C 1.08109 0.08113 0.38758
 C313 C 1.07068 0.07077 0.40901
 H314 H 1.08252 0.14750 0.30999
 H315 H 1.15273 0.08735 0.31504
 H316 H 1.17423 0.10802 0.27234
 H317 H 1.10296 0.16857 0.26697
 C318 C 0.89742 -0.13902 0.30174
 C319 C 0.88389 -0.11595 0.31548
 C320 C 0.85821 -0.10499 0.30433
 C321 C 0.84601 -0.11701 0.27953
 C322 C 0.85929 -0.14047 0.26521
 C323 C 0.88535 -0.15117 0.27695
 C324 C 0.89635 -0.10355 0.34106
 C325 C 0.90677 -0.09318 0.36248
 C326 C 0.91895 -0.08104 0.38758
 C327 C 0.92935 -0.07066 0.40901
 H328 H 0.91740 -0.14766 0.31019
 H329 H 0.84750 -0.08712 0.31485
 H330 H 0.82602 -0.10779 0.27214
 H331 H 0.89696 -0.16875 0.26718
 C332 C 0.89716 0.13898 0.69843
 C333 C 0.88356 0.11603 0.68460
 C334 C 0.85778 0.10521 0.69564
 C335 C 0.84556 0.11727 0.72042
 C336 C 0.85891 0.14061 0.73483
 C337 C 0.88508 0.15116 0.72320
 C338 C 0.89604 0.10360 0.65905
 C339 C 0.90649 0.09321 0.63764
 C340 C 0.91872 0.08106 0.61256
 C341 C 0.92915 0.07070 0.59113
 H342 H 0.91722 0.14749 0.69008
 H343 H 0.84701 0.08744 0.68504
 H344 H 0.82548 0.10819 0.72771
 H345 H 0.89676 0.16864 0.73306
 C346 C 1.10278 -0.13889 0.69845
 C347 C 1.11639 -0.11595 0.68462
 C348 C 1.14218 -0.10514 0.69566
 C349 C 1.15439 -0.11721 0.72044
 C350 C 1.14102 -0.14055 0.73485
 C351 C 1.11486 -0.15108 0.72322
 C352 C 1.10393 -0.10351 0.65906
 C353 C 1.09349 -0.09313 0.63764
 C354 C 1.08127 -0.08099 0.61255
 C355 C 1.07084 -0.07061 0.59114
 H356 H 1.08271 -0.14739 0.69009
 H357 H 1.15296 -0.08737 0.68506
 H358 H 1.17448 -0.10813 0.72773
 H359 H 1.10317 -0.16855 0.73308
 C360 C 0.30183 1.10236 1.13940
 C361 C 0.31552 1.11585 1.11626
 C362 C 0.30434 1.14148 1.10524
 C363 C 0.27956 1.15366 1.11727
 C364 C 0.26527 1.14042 1.14079
 C365 C 0.27705 1.11441 1.15155
 C366 C 0.34107 1.10341 1.10384
 C367 C 0.36248 1.09302 1.09344
 C368 C 0.38756 1.08087 1.08126
 C369 C 0.40897 1.07051 1.07084
 H370 H 0.31029 1.08241 1.14808
 H371 H 0.31483 1.15216 1.08732
 H372 H 0.27215 1.17362 1.10799
 H373 H 0.26731 1.10283 1.16919
 C374 C 0.30453 0.85823 0.89482
 C375 C 0.31570 0.88386 0.88380
 C376 C 0.30201 0.89736 0.86066
 C377 C 0.27724 0.88532 0.84850
 C378 C 0.26548 0.85931 0.85925
 C379 C 0.27977 0.84606 0.88278
 C380 C 0.34125 0.89629 0.89622
 C381 C 0.36265 0.90668 0.90660
 C382 C 0.38773 0.91883 0.91876
 C383 C 0.40913 0.92921 0.92915
 H384 H 0.31502 0.84755 0.91275
 H385 H 0.31046 0.91730 0.85199
 H386 H 0.26750 0.89690 0.83085
 H387 H 0.27237 0.82611 0.89206
 C388 C 0.69591 0.89526 1.14176
 C389 C 0.68454 0.88409 1.11624
 C390 C 0.69806 0.86082 1.10285
 C391 C 0.72284 0.84867 1.11488
 C392 C 0.73480 0.85957 1.14079
 C393 C 0.72070 0.88323 1.15393
 C394 C 0.65897 0.89649 1.10381
 C395 C 0.63754 0.90684 1.09341
 C396 C 0.61245 0.91894 1.08122
 C397 C 0.59102 0.92929 1.07082
 H398 H 0.68556 0.91330 1.15236
 H399 H 0.68944 0.85202 1.08299
 H400 H 0.73241 0.83089 1.10339
 H401 H 0.72828 0.89265 1.17378
 C402 C 0.69632 1.14083 0.89583
 C403 C 0.68426 1.11607 0.88382
 C404 C 0.69705 1.10345 0.85969
 C405 C 0.72181 1.11550 0.84753
 C406 C 0.73447 1.14065 0.85926
 C407 C 0.72108 1.15301 0.88379
 C408 C 0.65872 1.10363 0.89625
 C409 C 0.63732 1.09322 0.90663
 C410 C 0.61226 1.08106 0.91880
 C411 C 0.59086 1.07066 0.92919
 H412 H 0.68656 1.15081 0.91456
 H413 H 0.68787 1.08420 0.85022
 H414 H 0.73068 1.10470 0.82896
 H415 H 0.72929 1.17217 0.89400
 C416 C 0.09870 0.29605 0.13096
 C417 C 0.11602 0.31549 0.11581
 C418 C 0.14551 0.31005 0.11277
 C419 C 0.15765 0.28528 0.12485
 C420 C 0.14043 0.26559 0.14018
 C421 C 0.11079 0.27127 0.14308
 C422 C 0.10357 0.34104 0.10342
 C423 C 0.09316 0.36245 0.09305
 C424 C 0.08100 0.38753 0.08092
 C425 C 0.07063 0.40895 0.07056
 H426 H 0.07582 0.30000 0.13337
 H427 H 0.15914 0.32501 0.10116
 H428 H 0.18057 0.28178 0.12255
 H429 H 0.09688 0.25639 0.15438
 C430 C -0.14583 0.31035 -0.11296
 C431 C -0.11634 0.31575 -0.11603
 C432 C -0.09904 0.29626 -0.13118
 C433 C -0.11115 0.27149 -0.14325
 C434 C -0.14078 0.26585 -0.14032
 C435 C -0.15798 0.28558 -0.12500
 C436 C -0.10386 0.34129 -0.10369
 C437 C -0.09342 0.36269 -0.09337
 C438 C -0.08121 0.38776 -0.08128
 C439 C -0.07079 0.40916 -0.07095
 H440 H -0.15944 0.32534 -0.10135
 H441 H -0.07617 0.30018 -0.13361
 H442 H -0.09724 0.25658 -0.15455
 H443 H -0.18090 0.28211 -0.12267
 C444 C 0.14576 0.68966 -0.11300
 C445 C 0.11627 0.68426 -0.11606
 C446 C 0.09896 0.70376 -0.13119
 C447 C 0.11107 0.72854 -0.14325
 C448 C 0.14071 0.73418 -0.14032
 C449 C 0.15791 0.71444 -0.12502
 C450 C 0.10380 0.65871 -0.10373
 C451 C 0.09337 0.63730 -0.09342
 C452 C 0.08118 0.61222 -0.08133
 C453 C 0.07077 0.59082 -0.07099
 H454 H 0.15938 0.67466 -0.10140
 H455 H 0.07609 0.69984 -0.13362
 H456 H 0.09716 0.74346 -0.15453
 H457 H 0.18083 0.71790 -0.12270
 C458 C -0.09867 0.70387 0.13109
 C459 C -0.11600 0.68443 0.11593
 C460 C -0.14548 0.68987 0.11289
 C461 C -0.15762 0.71464 0.12497
 C462 C -0.14041 0.73433 0.14029
 C463 C -0.11077 0.72864 0.14320
 C464 C -0.10354 0.65889 0.10352
 C465 C -0.09313 0.63749 0.09314
 C466 C -0.08097 0.61242 0.08098
 C467 C -0.07059 0.59101 0.07060
 H468 H -0.07580 0.69991 0.13349
 H469 H -0.15912 0.67492 0.10127
 H470 H -0.18054 0.71815 0.12267
 H471 H -0.09685 0.74352 0.15450
 C472 C 1.13849 0.10235 0.69877
 C473 C 1.11556 0.11600 0.68491
 C474 C 1.10471 0.14176 0.69596
 C475 C 1.11673 0.15393 0.72077
 C476 C 1.14006 0.14054 0.73520
 C477 C 1.15063 0.11438 0.72357
 C478 C 1.10319 0.10359 0.65931
 C479 C 1.09287 0.09321 0.63785
 C480 C 1.08079 0.08107 0.61271
 C481 C 1.07049 0.07071 0.59124
 H482 H 1.14702 0.08230 0.69041
 H483 H 1.08695 0.15256 0.68533
 H484 H 1.10762 0.17401 0.72806
 H485 H 1.16810 0.10268 0.73346
 C486 C 0.86147 -0.10235 0.69871
 C487 C 0.88436 -0.11602 0.68480
 C488 C 0.89518 -0.14181 0.69581
 C489 C 0.88319 -0.15398 0.72062
 C490 C 0.85990 -0.14057 0.73511
 C491 C 0.84935 -0.11439 0.72352
 C492 C 0.89671 -0.10359 0.65920
 C493 C 0.90703 -0.09318 0.63775
 C494 C 0.91910 -0.08101 0.61263
 C495 C 0.92943 -0.07063 0.59117
 H496 H 0.85296 -0.08227 0.69039
 H497 H 0.91291 -0.15263 0.68514
 H498 H 0.89227 -0.17409 0.72788
 H499 H 0.83193 -0.10266 0.73345
 C500 C 1.10499 -0.14165 0.30431
 C501 C 1.11586 -0.11592 0.31537
 C502 C 1.13880 -0.10231 0.30152
 C503 C 1.15093 -0.11435 0.27671
 C504 C 1.14033 -0.14048 0.26506
 C505 C 1.11699 -0.15382 0.27949
 C506 C 1.10350 -0.10349 0.34097
 C507 C 1.09316 -0.09309 0.36242
 C508 C 1.08107 -0.08092 0.38754
 C509 C 1.07073 -0.07054 0.40900
 H510 H 1.08721 -0.15241 0.31493
 H511 H 1.14735 -0.08228 0.30989
 H512 H 1.16840 -0.10268 0.26683
 H513 H 1.10786 -0.17387 0.27218
 C514 C 0.89482 0.14181 0.30437
 C515 C 0.88403 0.11602 0.31538
 C516 C 0.86116 0.10234 0.30148
 C517 C 0.84902 0.11438 0.27667
 C518 C 0.85954 0.14056 0.26508
 C519 C 0.88281 0.15398 0.27956
 C520 C 0.89641 0.10360 0.34098
 C521 C 0.90677 0.09321 0.36243
 C522 C 0.91889 0.08106 0.38755
 C523 C 0.92925 0.07069 0.40899
 H524 H 0.91254 0.15263 0.31504
 H525 H 0.85268 0.08227 0.30981
 H526 H 0.83161 0.10266 0.26674
 H527 H 0.89186 0.17409 0.27230
 C528 C 0.10211 0.30156 -0.13913
 C529 C 0.11577 0.31539 -0.11618
 C530 C 0.14151 0.30433 -0.10528
 C531 C 0.15365 0.27951 -0.11726
 C532 C 0.14024 0.26509 -0.14059
 C533 C 0.11412 0.27674 -0.15123
 C534 C 0.10338 0.34098 -0.10382
 C535 C 0.09302 0.36242 -0.09348
 C536 C 0.08091 0.38752 -0.08136
 C537 C 0.07057 0.40895 -0.07100
 H538 H 0.08208 0.30994 -0.14770
 H539 H 0.15232 0.31494 -0.08750
 H540 H 0.17371 0.27220 -0.10811
 H541 H 0.10241 0.26687 -0.16871
 C542 C -0.09855 0.29634 0.13105
 C543 C -0.11592 0.31578 0.11592
 C544 C -0.14540 0.31034 0.11290
 C545 C -0.15748 0.28555 0.12496
 C546 C -0.14022 0.26585 0.14024
 C547 C -0.11059 0.27155 0.14315
 C548 C -0.10353 0.34132 0.10352
 C549 C -0.09317 0.36273 0.09313
 C550 C -0.08106 0.38780 0.08097
 C551 C -0.07070 0.40919 0.07059
 H552 H -0.07568 0.30031 0.13344
 H553 H -0.15906 0.32529 0.10130
 H554 H -0.18039 0.28203 0.12266
 H555 H -0.09664 0.25667 0.15442
 C556 C -0.13852 0.69849 -0.10243
 C557 C -0.11564 0.68465 -0.11616
 C558 C -0.10482 0.69572 -0.14197
 C559 C -0.11682 0.72053 -0.15408
 C560 C -0.14010 0.73495 -0.14060
 C561 C -0.15065 0.72330 -0.11441
 C562 C -0.10327 0.65905 -0.10380
 C563 C -0.09295 0.63760 -0.09345
 C564 C -0.08086 0.61248 -0.08133
 C565 C -0.07054 0.59104 -0.07097
 H566 H -0.14703 0.69011 -0.08234
 H567 H -0.08709 0.68510 -0.15284
 H568 H -0.10774 0.72784 -0.17419
 H569 H -0.16807 0.73318 -0.10263
 C570 C 0.11278 0.68972 0.14542
 C571 C 0.11582 0.68427 0.11589
 C572 C 0.13091 0.70372 0.09851
 C573 C 0.14295 0.72852 0.11059
 C574 C 0.14004 0.73421 0.14027
 C575 C 0.12479 0.71452 0.15754
 C576 C 0.10350 0.65871 0.10345
 C577 C 0.09318 0.63730 0.09305
 C578 C 0.08109 0.61222 0.08089
 C579 C 0.07075 0.59082 0.07051
 H580 H 0.10121 0.67476 0.15909
 H581 H 0.13332 0.69975 0.07561
 H582 H 0.15420 0.74340 0.09663
 H583 H 0.12249 0.71803 0.18049
 C584 C 0.29586 1.09854 0.86920
 C585 C 0.31539 1.11588 0.88422
 C586 C 0.30999 1.14537 0.88719
 C587 C 0.28517 1.15749 0.87518
 C588 C 0.26540 1.14025 0.85999
 C589 C 0.27104 1.11061 0.85715
 C590 C 0.34098 1.10345 0.89654
 C591 C 0.36242 1.09305 0.90685
 C592 C 0.38752 1.08089 0.91892
 C593 C 0.40896 1.07052 0.92926
 H594 H 0.29979 1.07567 0.86684
 H595 H 0.32501 1.15901 0.89870
 H596 H 0.28169 1.18040 0.87743
 H597 H 0.25609 1.09668 0.84595
 C598 C 0.29614 0.86896 1.09853
 C599 C 0.31557 0.88407 1.11593
 C600 C 0.31010 0.88710 1.14545
 C601 C 0.28530 0.87506 1.15756
 C602 C 0.26562 0.85979 1.14027
 C603 C 0.27134 0.85688 1.11060
 C604 C 0.34113 0.89643 1.10351
 C605 C 0.36255 0.90677 1.09313
 C606 C 0.38764 0.91888 1.08101
 C607 C 0.40907 0.92924 1.07066
 H608 H 0.30013 0.86656 1.07563
 H609 H 0.32504 0.89868 1.15913
 H610 H 0.28177 0.87735 1.18050
 H611 H 0.25647 0.84562 1.09663
 C612 C 0.68977 1.14528 1.11291
 C613 C 0.68438 1.11581 1.11592
 C614 C 0.70389 1.09847 1.13100
 C615 C 0.72869 1.11055 1.14307
 C616 C 0.73432 1.14018 1.14018
 C617 C 0.71456 1.15740 1.12493
 C618 C 0.65882 1.10338 1.10356
 C619 C 0.63740 1.09300 1.09322
 C620 C 0.61231 1.08086 1.08112
 C621 C 0.59089 1.07051 1.07076
 H622 H 0.67476 1.15892 1.10134
 H623 H 0.69997 1.07561 1.13338
 H624 H 0.74363 1.09663 1.15431
 H625 H 0.71803 1.18032 1.12266
 C626 C 0.70422 0.90144 0.86922
 C627 C 0.68472 0.88409 0.88428
 C628 C 0.69016 0.85462 0.88730
 C629 C 0.71498 0.84251 0.87528
 C630 C 0.73471 0.85975 0.86004
 C631 C 0.72904 0.88938 0.85716
 C632 C 0.65913 0.89651 0.89660
 C633 C 0.63767 0.90690 0.90690
 C634 C 0.61255 0.91903 0.91896
 C635 C 0.59110 0.92938 0.92928
 H636 H 0.70026 0.92430 0.86683
 H637 H 0.67516 0.84098 0.89885
 H638 H 0.71848 0.81960 0.87756
 H639 H 0.74395 0.90330 0.84592
   
