data_POSCAR
  _audit_creation_date              2014-09-24
  _audit_creation_method            'ToBaCCo'
  _symmetry_space_group_name_H-M    'P1'
  _symmetry_Int_Tables_number       1
  _symmetry_cell_setting            triclinic
  loop_
  _symmetry_equiv_pos_as_xyz
 x,y,z
_cell_length_a 48.5150
_cell_length_b 47.8786
_cell_length_c 48.5990
_cell_angle_alpha 89.963700
_cell_angle_beta 90.011900
_cell_angle_gamma 89.974600
loop_
  _atom_site_label
  _atom_site_type_symbol
  _atom_site_fract_x
  _atom_site_fract_y
  _atom_site_fract_z
N1 N 0.59306 0.66858 0.61231
 N2 N 0.58197 0.65680 0.63412
 C3 C 0.55954 0.67154 0.64169
 C4 C 0.55660 0.69353 0.62362
 C5 C 0.57808 0.69116 0.60524
 H6 H 0.54635 0.66673 0.65899
 H7 H 0.58247 0.70483 0.58806
 Cu8 Cu 0.59796 0.62343 0.65051
 Cu9 Cu 0.62604 0.65382 0.59474
 Cu10 Cu 0.65561 0.59501 0.62416
 N11 N 0.61515 0.59080 0.66714
 N12 N 0.63770 0.57979 0.65672
 C13 C 0.64524 0.55759 0.67202
 C14 C 0.62637 0.55473 0.69301
 C15 C 0.60755 0.57599 0.68948
 H16 H 0.66305 0.54457 0.66817
 H17 H 0.58976 0.58030 0.70220
 N18 N 0.67070 0.61342 0.59117
 N19 N 0.65943 0.63583 0.57996
 C20 C 0.67436 0.64338 0.55779
 C21 C 0.69589 0.62484 0.55508
 C22 C 0.69310 0.60612 0.57642
 H23 H 0.66995 0.66098 0.54455
 H24 H 0.70639 0.58854 0.58079
 H25 H 0.62080 0.61283 0.60703
 H26 H 0.64214 0.63558 0.62982
 N27 N 0.90680 0.33022 0.11291
 N28 N 0.91722 0.34123 0.13544
 C29 C 0.93957 0.32639 0.14308
 C30 C 0.94310 0.30512 0.12431
 C31 C 0.92210 0.30801 0.10544
 H32 H 0.95230 0.33068 0.16085
 H33 H 0.91825 0.29499 0.08767
 Cu34 Cu 0.90061 0.37389 0.15253
 Cu35 Cu 0.87423 0.34549 0.09496
 Cu36 Cu 0.84483 0.40437 0.12433
 N37 N 0.88424 0.40731 0.16839
 N38 N 0.86243 0.41912 0.15726
 C39 C 0.85537 0.44173 0.17215
 C40 C 0.87376 0.44407 0.19363
 C41 C 0.89182 0.42204 0.19077
 H42 H 0.83820 0.45543 0.16772
 H43 H 0.90911 0.41720 0.20398
 N44 N 0.83003 0.38637 0.09101
 N45 N 0.84123 0.36393 0.07982
 C46 C 0.82646 0.35663 0.05746
 C47 C 0.80512 0.37537 0.05462
 C48 C 0.80784 0.39393 0.07607
 H49 H 0.83082 0.33902 0.04424
 H50 H 0.79460 0.41156 0.08042
 H51 H 0.87997 0.38606 0.10837
 H52 H 0.85705 0.36336 0.12966
 N53 N 0.40669 0.16988 -0.11246
 N54 N 0.41748 0.15842 -0.13458
 C55 C 0.43986 0.17319 -0.14220
 C56 C 0.44307 0.19488 -0.12385
 C57 C 0.42180 0.19230 -0.10525
 H58 H 0.45286 0.16859 -0.15969
 H59 H 0.41766 0.20569 -0.08782
 Cu60 Cu 0.40115 0.12536 -0.15117
 Cu61 Cu 0.37389 0.15493 -0.09467
 Cu62 Cu 0.34447 0.09597 -0.12394
 N63 N 0.38449 0.09230 -0.16741
 N64 N 0.36230 0.08091 -0.15663
 C65 C 0.35503 0.05848 -0.17167
 C66 C 0.37368 0.05582 -0.19289
 C67 C 0.39210 0.07747 -0.18972
 H68 H 0.33754 0.04513 -0.16753
 H69 H 0.40964 0.08202 -0.20269
 N70 N 0.32948 0.11427 -0.09085
 N71 N 0.34069 0.13673 -0.07970
 C72 C 0.32581 0.14419 -0.05747
 C73 C 0.30440 0.12555 -0.05466
 C74 C 0.30719 0.10687 -0.07600
 H75 H 0.33017 0.16183 -0.04428
 H76 H 0.29395 0.08924 -0.08031
 H77 H 0.37937 0.11410 -0.10733
 H78 H 0.35725 0.13676 -0.12948
 N79 N 0.09319 0.82991 0.38711
 N80 N 0.08277 0.84094 0.36458
 C81 C 0.06043 0.82612 0.35693
 C82 C 0.05691 0.80484 0.37570
 C83 C 0.07790 0.80769 0.39458
 H84 H 0.04771 0.83043 0.33916
 H85 H 0.08174 0.79465 0.41236
 Cu86 Cu 0.09938 0.87361 0.34748
 Cu87 Cu 0.12575 0.84513 0.40506
 Cu88 Cu 0.15514 0.90402 0.37568
 N89 N 0.11575 0.90703 0.33161
 N90 N 0.13755 0.91882 0.34275
 C91 C 0.14460 0.94145 0.32785
 C92 C 0.12621 0.94383 0.30638
 C93 C 0.10816 0.92180 0.30924
 H94 H 0.16176 0.95513 0.33229
 H95 H 0.09086 0.91700 0.29603
 N96 N 0.16995 0.88598 0.40900
 N97 N 0.15875 0.86354 0.42020
 C98 C 0.17352 0.85621 0.44256
 C99 C 0.19486 0.87493 0.44540
 C100 C 0.19214 0.89351 0.42394
 H101 H 0.16917 0.83859 0.45579
 H102 H 0.20537 0.91113 0.41958
 H103 H 0.12001 0.88571 0.39164
 H104 H 0.14293 0.86302 0.37036
 C105 C 0.10357 0.14600 0.12519
 C106 C 0.12397 0.14602 0.10478
 C107 C 0.14456 0.12549 0.10489
 C108 C 0.14474 0.10493 0.12542
 C109 C 0.12435 0.10489 0.14583
 C110 C 0.10377 0.12544 0.14571
 H111 H 0.12382 0.16194 0.08889
 H112 H 0.16067 0.08904 0.12551
 H113 H 0.08799 0.12541 0.16150
 C114 C 0.39551 0.85429 0.62542
 C115 C 0.37508 0.85437 0.60504
 C116 C 0.35451 0.87491 0.60521
 C117 C 0.35437 0.89539 0.62579
 C118 C 0.37478 0.89534 0.64618
 C119 C 0.39535 0.87478 0.64599
 H120 H 0.37520 0.83851 0.58911
 H121 H 0.33845 0.91130 0.62593
 H122 H 0.41115 0.87473 0.66178
 C123 C 0.89652 0.64577 0.37501
 C124 C 0.87618 0.64575 0.39547
 C125 C 0.85560 0.62523 0.39540
 C126 C 0.85536 0.60473 0.37485
 C127 C 0.87569 0.60473 0.35437
 C128 C 0.89626 0.62526 0.35446
 H129 H 0.87637 0.66163 0.41138
 H130 H 0.83943 0.58884 0.37479
 H131 H 0.91200 0.62527 0.33862
 C132 C 0.60454 0.35512 -0.12548
 C133 C 0.60477 0.37557 -0.14610
 C134 C 0.62538 0.39606 -0.14633
 C135 C 0.64577 0.39609 -0.12591
 C136 C 0.64556 0.37564 -0.10528
 C137 C 0.62494 0.35516 -0.10507
 H138 H 0.58898 0.37554 -0.16191
 H139 H 0.66172 0.41194 -0.12608
 H140 H 0.62477 0.33933 -0.08910
 C141 C -0.03682 0.28532 0.12442
 C142 C -0.01903 0.26774 0.12451
 C143 C 0.00220 0.24674 0.12461
 C144 C 0.01664 0.24082 0.14891
 C145 C 0.03725 0.22038 0.14902
 C146 C 0.04351 0.20578 0.12483
 C147 C 0.02908 0.21170 0.10054
 C148 C 0.00847 0.23214 0.10043
 C149 C 0.06469 0.18473 0.12495
 C150 C 0.08242 0.16708 0.12506
 H151 H 0.01195 0.25198 0.16772
 H152 H 0.04827 0.21597 0.16791
 H153 H 0.03376 0.20053 0.08173
 H154 H -0.00256 0.23655 0.08153
 C155 C 0.53550 0.71457 0.62389
 C156 C 0.51778 0.73223 0.62412
 C157 C 0.49663 0.75331 0.62437
 C158 C 0.49774 0.77512 0.64355
 C159 C 0.47719 0.79562 0.64378
 C160 C 0.45546 0.79440 0.62483
 C161 C 0.45435 0.77259 0.60566
 C162 C 0.47489 0.75209 0.60543
 C163 C 0.43433 0.81550 0.62505
 C164 C 0.41664 0.83319 0.62522
 H165 H 0.51446 0.77627 0.65829
 H166 H 0.47825 0.81240 0.65870
 H167 H 0.43763 0.77145 0.59091
 H168 H 0.47384 0.73532 0.59051
 C169 C 1.03683 0.78504 0.37560
 C170 C 1.01904 0.76747 0.37551
 C171 C 0.99782 0.74649 0.37542
 C172 C 0.98777 0.73604 0.35043
 C173 C 0.96717 0.71561 0.35034
 C174 C 0.95654 0.70554 0.37525
 C175 C 0.96658 0.71599 0.40024
 C176 C 0.98718 0.73642 0.40032
 C177 C 0.93538 0.68449 0.37516
 C178 C 0.91766 0.66685 0.37509
 H179 H 0.99586 0.74368 0.33106
 H180 H 0.95956 0.70767 0.33090
 H181 H 0.95850 0.70834 0.41961
 H182 H 0.99480 0.74435 0.41976
 C183 C 0.46422 0.21585 -0.12408
 C184 C 0.48197 0.23346 -0.12425
 C185 C 0.50316 0.25449 -0.12444
 C186 C 0.52993 0.24783 -0.11581
 C187 C 0.55052 0.26827 -0.11602
 C188 C 0.54443 0.29544 -0.12485
 C189 C 0.51766 0.30210 -0.13348
 C190 C 0.49707 0.28166 -0.13328
 C191 C 0.56562 0.31646 -0.12508
 C192 C 0.58337 0.33408 -0.12526
 H193 H 0.53486 0.22689 -0.10894
 H194 H 0.57115 0.26290 -0.10930
 H195 H 0.51273 0.32304 -0.14035
 H196 H 0.47644 0.28704 -0.13999
 C197 C 0.12591 -0.03508 0.28536
 C198 C 0.12567 -0.01737 0.26772
 C199 C 0.12540 0.00376 0.24665
 C200 C 0.12833 -0.00378 0.21895
 C201 C 0.12809 0.01676 0.19848
 C202 C 0.12494 0.04493 0.20562
 C203 C 0.12201 0.05247 0.23332
 C204 C 0.12224 0.03193 0.25379
 C205 C 0.12472 0.06607 0.18456
 C206 C 0.12454 0.08377 0.16691
 H207 H 0.13078 -0.02550 0.21320
 H208 H 0.13037 0.01070 0.17712
 H209 H 0.11956 0.07419 0.23907
 H210 H 0.11997 0.03799 0.27515
 C211 C 0.62631 0.53495 -0.28692
 C212 C 0.62626 0.51740 -0.26912
 C213 C 0.62617 0.49644 -0.24789
 C214 C 0.62636 0.50436 -0.22014
 C215 C 0.62624 0.48398 -0.19950
 C216 C 0.62593 0.45560 -0.20653
 C217 C 0.62575 0.44769 -0.23428
 C218 C 0.62587 0.46806 -0.25492
 C219 C 0.62576 0.43464 -0.18530
 C220 C 0.62559 0.41706 -0.16753
 H221 H 0.62659 0.52624 -0.21447
 H222 H 0.62638 0.49033 -0.17811
 H223 H 0.62550 0.42581 -0.23994
 H224 H 0.62572 0.46171 -0.27631
 C225 C 0.37386 1.03481 0.78603
 C226 C 0.37399 1.01718 0.76834
 C227 C 0.37414 0.99611 0.74723
 C228 C 0.37537 0.96779 0.75441
 C229 C 0.37550 0.94732 0.73389
 C230 C 0.37440 0.95508 0.70611
 C231 C 0.37317 0.98340 0.69893
 C232 C 0.37304 1.00388 0.71945
 C233 C 0.37452 0.93402 0.68500
 C234 C 0.37463 0.91638 0.66731
 H235 H 0.37622 0.96156 0.77583
 H236 H 0.37646 0.92548 0.73967
 H237 H 0.37231 0.98963 0.67751
 H238 H 0.37208 1.02571 0.71367
 C239 C 0.87405 0.46513 0.21466
 C240 C 0.87428 0.48279 0.23232
 C241 C 0.87455 0.50387 0.25341
 C242 C 0.87645 0.49614 0.28116
 C243 C 0.87669 0.51663 0.30166
 C244 C 0.87502 0.54493 0.29450
 C245 C 0.87312 0.55266 0.26675
 C246 C 0.87288 0.53218 0.24625
 C247 C 0.87524 0.56601 0.31559
 C248 C 0.87544 0.58366 0.33327
 H249 H 0.87775 0.47432 0.28692
 H250 H 0.87816 0.51042 0.32305
 H251 H 0.87182 0.57449 0.26099
 H252 H 0.87140 0.53839 0.22486
 C253 C 0.28347 0.12558 -0.03377
 C254 C 0.26589 0.12560 -0.01624
 C255 C 0.24490 0.12560 0.00468
 C256 C 0.24674 0.14406 0.02696
 C257 C 0.22635 0.14404 0.04730
 C258 C 0.20403 0.12557 0.04544
 C259 C 0.20219 0.10712 0.02315
 C260 C 0.22258 0.10714 0.00281
 C261 C 0.18306 0.12554 0.06638
 C262 C 0.16551 0.12552 0.08393
 H263 H 0.26391 0.15842 0.02861
 H264 H 0.22798 0.15839 0.06446
 H265 H 0.18502 0.09276 0.02150
 H266 H 0.22095 0.09278 -0.01434
 C267 C 0.71686 0.62493 0.53423
 C268 C 0.73445 0.62500 0.51672
 C269 C 0.75543 0.62508 0.49579
 C270 C 0.75332 0.64331 0.47331
 C271 C 0.77369 0.64336 0.45295
 C272 C 0.79625 0.62519 0.45498
 C273 C 0.79836 0.60698 0.47746
 C274 C 0.77799 0.60692 0.49783
 C275 C 0.81718 0.62521 0.43400
 C276 C 0.83470 0.62523 0.41641
 H277 H 0.73596 0.65743 0.47154
 H278 H 0.77185 0.65752 0.43565
 H279 H 0.81572 0.59284 0.47923
 H280 H 0.77982 0.59275 0.51512
 C281 C 0.78424 0.37546 0.03366
 C282 C 0.76671 0.37551 0.01608
 C283 C 0.74578 0.37556 -0.00490
 C284 C 0.74718 0.39469 -0.02668
 C285 C 0.72683 0.39473 -0.04707
 C286 C 0.70499 0.37563 -0.04576
 C287 C 0.70359 0.35650 -0.02398
 C288 C 0.72394 0.35646 -0.00359
 C289 C 0.68405 0.37566 -0.06674
 C290 C 0.66651 0.37566 -0.08431
 H291 H 0.76397 0.40955 -0.02789
 H292 H 0.72811 0.40961 -0.06383
 H293 H 0.68679 0.34164 -0.02277
 H294 H 0.72265 0.34158 0.01316
 C295 C 0.21574 0.87499 0.46635
 C296 C 0.23328 0.87502 0.48393
 C297 C 0.25423 0.87504 0.50489
 C298 C 0.28111 0.86651 0.49854
 C299 C 0.30148 0.86651 0.51892
 C300 C 0.29504 0.87504 0.54573
 C301 C 0.26816 0.88358 0.55208
 C302 C 0.24779 0.88358 0.53170
 C303 C 0.31599 0.87501 0.56670
 C304 C 0.33354 0.87497 0.58426
 H305 H 0.28631 0.85986 0.47788
 H306 H 0.32220 0.85986 0.51379
 H307 H 0.26296 0.89022 0.57275
 H308 H 0.22707 0.89022 0.53684
   
