data_POSCAR
  _audit_creation_date              2014-09-24
  _audit_creation_method            'ToBaCCo'
  _symmetry_space_group_name_H-M    'P1'
  _symmetry_Int_Tables_number       1
  _symmetry_cell_setting            triclinic
  loop_
  _symmetry_equiv_pos_as_xyz
 x,y,z
_cell_length_a 43.8784
_cell_length_b 45.6998
_cell_length_c 8.9290
_cell_angle_alpha 89.829600
_cell_angle_beta 90.222000
_cell_angle_gamma 90.105100
loop_
  _atom_site_label
  _atom_site_type_symbol
  _atom_site_fract_x
  _atom_site_fract_y
  _atom_site_fract_z
C1 C 0.16990 0.25054 0.17372
 C2 C 0.18441 0.22481 0.21946
 C3 C 0.21565 0.22509 0.25233
 C4 C 0.23306 0.25087 0.23395
 C5 C 0.21805 0.27652 0.18531
 C6 C 0.18659 0.27641 0.15791
 C7 C 0.26662 0.25086 0.26480
 C8 C 0.28169 0.27646 0.31377
 C9 C 0.31315 0.27633 0.34141
 C10 C 0.32976 0.25050 0.32526
 C11 C 0.31519 0.22485 0.27901
 C12 C 0.28395 0.22513 0.24610
 H13 H 0.14562 0.25047 0.15013
 H14 H 0.22616 0.20515 0.29286
 H15 H 0.23065 0.29659 0.16700
 H16 H 0.26916 0.29650 0.33208
 H17 H 0.35405 0.25040 0.34901
 H18 H 0.27339 0.20524 0.20533
 C19 C 0.82951 0.25125 0.17469
 C20 C 0.81291 0.27714 0.15875
 C21 C 0.78149 0.27726 0.18606
 C22 C 0.76645 0.25159 0.23456
 C23 C 0.78379 0.22583 0.25326
 C24 C 0.81497 0.22558 0.22085
 C25 C 0.73292 0.25157 0.26509
 C26 C 0.71548 0.22583 0.24631
 C27 C 0.68429 0.22551 0.27902
 C28 C 0.66985 0.25116 0.32526
 C29 C 0.68657 0.27703 0.34115
 C30 C 0.71799 0.27717 0.31379
 H31 H 0.85373 0.25108 0.15098
 H32 H 0.76896 0.29733 0.16785
 H33 H 0.77333 0.20587 0.29353
 H34 H 0.72595 0.20595 0.20562
 H35 H 0.64561 0.25103 0.34915
 H36 H 0.73061 0.29722 0.33217
 C37 C 0.67053 0.75200 0.67536
 C38 C 0.68511 0.72634 0.72111
 C39 C 0.71631 0.72666 0.75382
 C40 C 0.73368 0.75245 0.73536
 C41 C 0.71863 0.77810 0.68679
 C42 C 0.68716 0.77791 0.65943
 C43 C 0.76724 0.75246 0.76584
 C44 C 0.78236 0.77805 0.81458
 C45 C 0.81386 0.77787 0.84207
 C46 C 0.83040 0.75196 0.82574
 C47 C 0.81574 0.72638 0.77967
 C48 C 0.78453 0.72671 0.74714
 H49 H 0.64626 0.75179 0.65189
 H50 H 0.72678 0.70670 0.79425
 H51 H 0.73118 0.79819 0.66849
 H52 H 0.76979 0.79808 0.83285
 H53 H 0.85470 0.75165 0.84904
 H54 H 0.77399 0.70680 0.70667
 C55 C 0.32954 0.75136 0.67511
 C56 C 0.31288 0.77722 0.65905
 C57 C 0.28145 0.77729 0.68636
 C58 C 0.26647 0.75161 0.73499
 C59 C 0.28387 0.72588 0.75377
 C60 C 0.31504 0.72566 0.72125
 C61 C 0.23294 0.75152 0.76544
 C62 C 0.21556 0.72574 0.74684
 C63 C 0.18437 0.72536 0.77950
 C64 C 0.16988 0.75099 0.82554
 C65 C 0.18653 0.77689 0.84138
 C66 C 0.21795 0.77710 0.81400
 H67 H 0.35378 0.75123 0.65150
 H68 H 0.26888 0.79735 0.66801
 H69 H 0.27344 0.70589 0.79425
 H70 H 0.22607 0.70588 0.70624
 H71 H 0.14564 0.75082 0.84934
 H72 H 0.23052 0.79718 0.83226
 O73 O 1.02990 -0.03482 0.21326
 O74 O 0.97055 0.02092 0.27328
 O75 O 0.97050 -0.03502 0.21358
 O76 O 1.02971 0.02114 0.27295
 O77 O 1.02941 0.03090 0.03021
 O78 O 0.97033 -0.02516 -0.02902
 O79 O 0.97037 0.03066 0.03051
 O80 O 1.02962 -0.02494 -0.02930
 Cu81 Cu 1.00020 -0.00802 0.26761
 Cu82 Cu 0.99991 0.00383 -0.02371
 C83 C 1.03970 -0.03935 0.08189
 C84 C 0.96066 0.03540 0.16179
 C85 C 0.96049 -0.03962 0.08224
 C86 C 1.03933 0.03570 0.16147
 O87 O 0.47061 0.52094 0.77361
 O88 O 0.52997 0.46521 0.71371
 O89 O 0.52976 0.52114 0.77340
 O90 O 0.47057 0.46497 0.71401
 O91 O 0.47037 0.47484 0.47142
 O92 O 0.52945 0.53090 0.53064
 O93 O 0.52967 0.47509 0.47114
 O94 O 0.47041 0.53069 0.53086
 Cu95 Cu 0.50025 0.49199 0.76802
 Cu96 Cu 0.49994 0.50384 0.47669
 C97 C 0.46072 0.53543 0.66218
 C98 C 0.53978 0.46070 0.58234
 C99 C 0.53938 0.53569 0.66189
 C100 C 0.46056 0.46036 0.58269
 O101 O -0.02962 0.46562 -0.21307
 O102 O 0.02988 0.52148 -0.27327
 O103 O 0.02979 0.46544 -0.21334
 O104 O -0.02928 0.52158 -0.27312
 O105 O -0.02895 0.53109 -0.03040
 O106 O 0.03002 0.47507 0.02919
 O107 O 0.03008 0.53099 -0.03056
 O108 O -0.02929 0.47525 0.02948
 Cu109 Cu 0.00018 0.49247 -0.26753
 Cu110 Cu 0.00051 0.50404 0.02373
 C111 C -0.03945 0.46098 -0.08168
 C112 C 0.03977 0.53589 -0.16190
 C113 C 0.03979 0.46072 -0.08201
 C114 C -0.03888 0.53598 -0.16165
 O115 O 0.52930 1.02199 0.22605
 O116 O 0.46989 0.96605 0.28658
 O117 O 0.47014 1.02202 0.22613
 O118 O 0.52930 0.96600 0.28643
 O119 O 0.52948 0.97570 0.52891
 O120 O 0.47041 1.03160 0.46876
 O121 O 0.47017 0.97575 0.52904
 O122 O 0.52945 1.03157 0.46871
 Cu123 Cu 0.49964 0.99295 0.23198
 Cu124 Cu 0.49990 1.00460 0.52315
 C125 C 0.53918 1.03642 0.33739
 C126 C 0.46006 0.96142 0.41799
 C127 C 0.46049 1.03644 0.33744
 C128 C 0.53931 0.96135 0.41782
 C129 C 1.13551 0.15086 0.22992
 N130 N 1.11153 0.14783 0.32410
 N131 N 1.09371 0.12422 0.31671
 C132 C 1.09935 0.10294 0.21498
 N133 N 1.12339 0.10594 0.12112
 N134 N 1.14120 0.12954 0.12851
 C135 C 1.15351 0.17710 0.23106
 C136 C 1.16820 0.19941 0.22778
 C137 C 1.07896 0.07854 0.19998
 C138 C 1.06122 0.05862 0.18403
 C139 C 0.63550 0.65085 0.73133
 N140 N 0.64112 0.62967 0.62905
 N141 N 0.62335 0.60605 0.62132
 C142 C 0.59942 0.60288 0.71571
 N143 N 0.59385 0.62402 0.81831
 N144 N 0.61163 0.64765 0.82603
 C145 C 0.65342 0.67712 0.73283
 C146 C 0.66806 0.69946 0.72989
 C147 C 0.57905 0.57849 0.70042
 C148 C 0.56129 0.55858 0.68439
 C149 C -0.13931 0.35071 0.04957
 N150 N -0.13509 0.37207 0.15278
 N151 N -0.11666 0.39459 0.12401
 C152 C -0.10187 0.39642 -0.00880
 N153 N -0.10616 0.37511 -0.11216
 N154 N -0.12459 0.35259 -0.08340
 C155 C -0.15731 0.32540 0.08490
 C156 C -0.17145 0.30364 0.11706
 C157 C -0.08057 0.41968 -0.03615
 C158 C -0.06207 0.43876 -0.05769
 C159 C 0.36053 0.85087 0.54946
 N160 N 0.37528 0.85277 0.41659
 N161 N 0.39365 0.87534 0.38781
 C162 C 0.39786 0.89668 0.49112
 N163 N 0.38304 0.89483 0.62385
 N164 N 0.36467 0.87226 0.65262
 C165 C 0.34258 0.82551 0.58484
 C166 C 0.32848 0.80374 0.61713
 C167 C 0.41908 0.92001 0.46374
 C168 C 0.43751 0.93915 0.44212
 C169 C -0.13486 0.65097 -0.23092
 N170 N -0.11094 0.64797 -0.32533
 N171 N -0.09321 0.62437 -0.31764
 C172 C -0.09887 0.60306 -0.21536
 N173 N -0.12284 0.60602 -0.12124
 N174 N -0.14058 0.62962 -0.12893
 C175 C -0.15273 0.67721 -0.23234
 C176 C -0.16730 0.69952 -0.22934
 C177 C -0.07853 0.57869 -0.20010
 C178 C -0.06079 0.55882 -0.18414
 C179 C 0.36400 1.15106 0.26822
 N180 N 0.38803 1.14828 0.17430
 N181 N 0.40590 1.12477 0.18178
 C182 C 0.40026 1.10332 0.28337
 N183 N 0.37617 1.10607 0.37700
 N184 N 0.35831 1.12958 0.36951
 C185 C 0.34600 1.17722 0.26713
 C186 C 0.33133 1.19948 0.27048
 C187 C 0.42072 1.07905 0.29857
 C188 C 0.43853 1.05923 0.31468
 C189 C 1.13888 -0.14973 -0.04911
 N190 N 1.13483 -0.12821 -0.15219
 N191 N 1.11650 -0.10571 -0.12355
 C192 C 1.10163 -0.10405 0.00903
 N193 N 1.10574 -0.12553 0.11228
 N194 N 1.12407 -0.14804 0.08362
 C195 C 1.15683 -0.17500 -0.08439
 C196 C 1.17094 -0.19669 -0.11668
 C197 C 1.08049 -0.08075 0.03636
 C198 C 1.06216 -0.06162 0.05791
 C199 C 0.63907 0.35045 0.45090
 N200 N 0.62431 0.35214 0.58378
 N201 N 0.60599 0.37464 0.61259
 C202 C 0.60183 0.39612 0.50941
 N203 N 0.61665 0.39447 0.37668
 N204 N 0.63498 0.37197 0.34788
 C205 C 0.65698 0.32518 0.41546
 C206 C 0.67104 0.30348 0.38308
 C207 C 0.58066 0.41938 0.53684
 C208 C 0.56228 0.43847 0.55840
 C209 C 0.86102 -0.15021 -0.04950
 N210 N 0.87619 -0.14866 0.08289
 N211 N 0.89463 -0.12615 0.11182
 C212 C 0.89851 -0.10455 0.00913
 N213 N 0.88330 -0.10607 -0.12313
 N214 N 0.86485 -0.12857 -0.15203
 C215 C 0.84294 -0.17545 -0.08514
 C216 C 0.82875 -0.19714 -0.11791
 C217 C 0.91969 -0.08120 0.03675
 C218 C 0.93805 -0.06200 0.05836
 C219 C 0.36116 0.34966 0.45177
 N220 N 0.37635 0.35125 0.58411
 N221 N 0.39480 0.37376 0.61279
 C222 C 0.39865 0.39535 0.50998
 N223 N 0.38342 0.39379 0.37778
 N224 N 0.36497 0.37128 0.34911
 C225 C 0.34306 0.32442 0.41641
 C226 C 0.32883 0.30275 0.38380
 C227 C 0.41982 0.41871 0.53742
 C228 C 0.43815 0.43794 0.55889
 C229 C 0.13570 0.65126 -0.23117
 N230 N 0.11160 0.64819 -0.32546
 N231 N 0.09388 0.62452 -0.31779
 C232 C 0.09972 0.60320 -0.21565
 N233 N 0.12386 0.60624 -0.12162
 N234 N 0.14158 0.62991 -0.12930
 C235 C 0.15358 0.67757 -0.23245
 C236 C 0.16820 0.69992 -0.22908
 C237 C 0.07941 0.57873 -0.20049
 C238 C 0.06170 0.55878 -0.18456
 C239 C 0.63542 1.15154 0.26790
 N240 N 0.64138 1.13006 0.36894
 N241 N 0.62357 1.10646 0.37670
 C242 C 0.59926 1.10361 0.28358
 N243 N 0.59334 1.12506 0.18228
 N244 N 0.61115 1.14867 0.17452
 C245 C 0.65338 1.17780 0.26670
 C246 C 0.66806 1.20012 0.27023
 C247 C 0.57889 1.07920 0.29881
 C248 C 0.56113 1.05928 0.31471
 C249 C 0.13884 0.34991 0.04834
 N250 N 0.13501 0.37132 0.15144
 N251 N 0.11665 0.39387 0.12292
 C252 C 0.10153 0.39568 -0.00952
 N253 N 0.10541 0.37432 -0.11279
 N254 N 0.12377 0.35176 -0.08426
 C255 C 0.15684 0.32462 0.08352
 C256 C 0.17098 0.30290 0.11589
 C257 C 0.08043 0.41907 -0.03677
 C258 C 0.06215 0.43830 -0.05817
 C259 C 0.63904 0.85116 0.54942
 N260 N 0.62408 0.85293 0.41651
 N261 N 0.60556 0.87536 0.38771
 C262 C 0.60141 0.89666 0.49106
 N263 N 0.61641 0.89491 0.62386
 N264 N 0.63492 0.87249 0.65263
 C265 C 0.65720 0.82598 0.58484
 C266 C 0.67146 0.80434 0.61730
 C267 C 0.58016 0.91991 0.46351
 C268 C 0.56177 0.93904 0.44189
 C269 C 0.86458 0.15022 0.23160
 N270 N 0.88861 0.14706 0.32624
 N271 N 0.90637 0.12349 0.31825
 C272 C 0.90064 0.10237 0.21543
 N273 N 0.87657 0.10550 0.12102
 N274 N 0.85881 0.12907 0.12902
 C275 C 0.84666 0.17645 0.23328
 C276 C 0.83202 0.19874 0.23019
 C277 C 0.92098 0.07802 0.20015
 C278 C 0.93873 0.05817 0.18429
 C279 C 0.36473 0.65034 0.73173
 N280 N 0.38876 0.64720 0.82634
 N281 N 0.40650 0.62361 0.81860
 C282 C 0.40074 0.60245 0.71607
 N283 N 0.37666 0.60556 0.62173
 N284 N 0.35892 0.62914 0.62947
 C285 C 0.34679 0.67657 0.73330
 C286 C 0.33213 0.69885 0.73033
 C287 C 0.42107 0.57808 0.70082
 C288 C 0.43880 0.55823 0.68481
   
