data_POSCAR
  _audit_creation_date              2014-09-24
  _audit_creation_method            'ToBaCCo'
  _symmetry_space_group_name_H-M    'P1'
  _symmetry_Int_Tables_number       1
  _symmetry_cell_setting            triclinic
  loop_
  _symmetry_equiv_pos_as_xyz
 x,y,z
_cell_length_a 23.0290
_cell_length_b 23.0301
_cell_length_c 23.0327
_cell_angle_alpha 88.223700
_cell_angle_beta 88.403900
_cell_angle_gamma 87.167000
loop_
  _atom_site_label
  _atom_site_type_symbol
  _atom_site_fract_x
  _atom_site_fract_y
  _atom_site_fract_z
O1 O 0.56781 0.50192 0.05164
 O2 O 0.40769 0.50657 0.04921
 O3 O 0.48892 0.42372 0.05099
 O4 O 0.48537 0.58363 0.04939
 O5 O 0.48948 0.58537 -0.04670
 O6 O 0.49264 0.42562 -0.04504
 O7 O 0.41178 0.50805 -0.04684
 O8 O 0.57170 0.50417 -0.04438
 Cu9 Cu 0.48728 0.50352 0.06002
 Cu10 Cu 0.49206 0.50572 -0.05543
 C11 C 0.59687 0.50310 0.00401
 C12 C 0.38262 0.50852 0.00075
 C13 C 0.49059 0.39763 0.00322
 C14 C 0.48641 0.61152 0.00102
 O15 O -0.04378 0.57639 0.49614
 O16 O -0.04458 0.41602 0.50206
 O17 O -0.04916 0.49658 0.57835
 O18 O -0.04892 0.49543 0.41955
 O19 O 0.04725 0.49117 0.41659
 O20 O 0.04703 0.49164 0.57656
 O21 O 0.05158 0.41132 0.49920
 O22 O 0.05234 0.57064 0.49375
 Cu23 Cu -0.05626 0.49668 0.49916
 Cu24 Cu 0.05922 0.49063 0.49626
 C25 C 0.00471 0.60066 0.49415
 C26 C 0.00360 0.38662 0.50169
 C27 C -0.00139 0.49424 0.60442
 C28 C -0.00106 0.49300 0.39111
 O29 O 0.50553 0.04687 0.57942
 O30 O 0.50590 0.04247 0.42007
 O31 O 0.42525 0.04077 0.50200
 O32 O 0.58504 0.04266 0.49728
 O33 O 0.59069 -0.05353 0.50182
 O34 O 0.43148 -0.05526 0.50897
 O35 O 0.51035 -0.05365 0.42519
 O36 O 0.51293 -0.04916 0.58535
 Cu37 Cu 0.50458 0.05287 0.49926
 Cu38 Cu 0.51164 -0.06258 0.50595
 C39 C 0.51011 -0.00015 0.60946
 C40 C 0.50870 -0.00615 0.39555
 C41 C 0.40134 -0.00775 0.50632
 C42 C 0.61481 -0.00524 0.49832
 C43 C 0.45868 0.14987 -0.09784
 C44 C 0.46107 0.10909 -0.14003
 C45 C 0.49191 0.06083 -0.11776
 N46 N 0.50605 0.06990 -0.06219
 C47 C 0.48576 0.12440 -0.04976
 C48 C 0.50985 0.01026 -0.14809
 C49 C 0.52122 -0.04281 -0.11663
 C50 C 0.55216 -0.09167 -0.13686
 C51 C 0.54799 -0.13456 -0.09445
 C52 C 0.51269 -0.11191 -0.05034
 N53 N 0.49801 -0.05550 -0.06329
 C54 C 0.49073 -0.14320 -0.00149
 C55 C 0.47932 -0.11464 0.05136
 C56 C 0.44981 -0.13631 0.09998
 C57 C 0.45278 -0.09603 0.14219
 C58 C 0.48611 -0.05221 0.11913
 N59 N 0.50136 -0.06312 0.06328
 C60 C 0.50581 -0.00480 0.14927
 C61 C 0.51879 0.04741 0.11819
 C62 C 0.54928 0.09277 0.13856
 C63 C 0.54803 0.13606 0.09619
 C64 C 0.51476 0.11749 0.05196
 N65 N 0.49843 0.06286 0.06490
 C66 C 0.49579 0.15143 0.00324
 H67 H 0.43816 0.19258 -0.10312
 H68 H 0.43930 0.11409 -0.18081
 H69 H 0.46925 0.04024 0.04138
 H70 H 0.57599 -0.09730 -0.17723
 H71 H 0.57007 -0.17698 -0.09588
 H72 H 0.42761 -0.17617 0.10567
 H73 H 0.43054 -0.09822 0.18401
 H74 H 0.57060 0.17596 0.09777
 H75 H 0.46802 -0.02934 -0.03986
 H76 H 0.57062 0.09593 0.17915
 C77 C -0.11015 0.54390 0.85818
 C78 C -0.15293 0.54126 0.90047
 C79 C -0.12766 0.51516 0.94922
 N80 N -0.07102 0.50014 0.93698
 C81 C -0.06050 0.51693 0.88095
 C82 C -0.15645 0.50217 1.00302
 C83 C -0.12368 0.48531 1.05233
 C84 C -0.14208 0.45131 1.09923
 C85 C -0.10038 0.45274 1.14073
 C86 C -0.05619 0.48561 1.11718
 N87 N -0.07070 0.50482 1.06306
 C88 C -0.00611 0.50197 1.14583
 C89 C 0.04050 0.52468 1.11330
 C90 C 0.07801 0.56529 1.13133
 C91 C 0.12023 0.56993 1.08843
 C92 C 0.10649 0.53242 1.04571
 N93 N 0.05731 0.50544 1.06045
 C94 C 0.14021 0.52018 0.99551
 C95 C 0.11339 0.50793 0.94293
 C96 C 0.14226 0.49352 0.89153
 C97 C 0.10077 0.48931 0.85061
 C98 C 0.04696 0.50114 0.87758
 N99 N 0.05542 0.51342 0.93374
 C100 C -0.00749 0.50551 0.84965
 H101 H -0.11503 0.56581 0.81635
 H102 H -0.19693 0.55786 0.89474
 H103 H 0.02394 0.52987 0.96283
 H104 H -0.18058 0.42643 1.10312
 H105 H -0.10355 0.43168 1.18299
 H106 H 0.07434 0.59053 1.17019
 H107 H 0.15571 0.59906 1.08780
 H108 H 0.11102 0.48105 0.80571
 H109 H -0.04877 0.53532 1.03750
 H110 H 0.18840 0.48890 0.88259
 C111 C 0.15960 -0.12089 0.50474
 C112 C 0.11880 -0.16156 0.49971
 C113 C 0.06527 -0.13157 0.49714
 N114 N 0.07227 -0.07372 0.50033
 C115 C 0.13001 -0.06703 0.50491
 C116 C 0.01163 -0.15698 0.48827
 C117 C -0.03853 -0.12258 0.47371
 C118 C -0.08135 -0.13979 0.43780
 C119 C -0.12422 -0.09636 0.43757
 C120 C -0.10639 -0.05371 0.47320
 N121 N -0.05317 -0.06905 0.49385
 C122 C -0.14005 -0.00305 0.48709
 C123 C -0.11439 0.05048 0.49491
 C124 C -0.14423 0.10414 0.49608
 C125 C -0.10363 0.14479 0.50077
 C126 C -0.04992 0.11504 0.50216
 N127 N -0.05661 0.05724 0.49859
 C128 C 0.00361 0.14074 0.51022
 C129 C 0.05425 0.10679 0.52425
 C130 C 0.09720 0.12455 0.55965
 C131 C 0.13988 0.08094 0.56062
 C132 C 0.12200 0.03767 0.52570
 N133 N 0.06878 0.05286 0.50493
 C134 C 0.15574 -0.01332 0.51256
 H135 H 0.20551 -0.13089 0.50941
 H136 H 0.12855 -0.20767 0.49665
 H137 H 0.04680 0.03063 0.47418
 H138 H -0.08111 -0.17884 0.41287
 H139 H -0.16331 -0.09561 0.41253
 H140 H -0.19020 0.11416 0.49232
 H141 H -0.11378 0.19073 0.50439
 H142 H 0.17889 0.08052 0.58575
 H143 H -0.03139 -0.04733 0.52512
 H144 H 0.09698 0.16389 0.58411
 C145 C -0.25779 0.46112 0.97367
 C146 C -0.29858 0.45294 1.02768
 C147 C -0.33824 0.50364 1.00495
 C148 C -0.29825 0.51209 0.95116
 C149 C -0.30448 0.54707 1.03839
 C150 C -0.26384 0.49647 1.06110
 C151 C -0.22312 0.50433 1.00699
 C152 C -0.26352 0.55545 0.98490
 H153 H -0.23852 0.42550 0.94683
 H154 H -0.31341 0.41062 1.04532
 H155 H -0.31264 0.51863 0.90573
 H156 H -0.32431 0.58258 1.06504
 H157 H -0.25355 0.49304 1.10784
 H158 H -0.25032 0.59899 0.96907
 C159 C 0.24298 0.51991 1.05405
 C160 C 0.28244 0.46832 1.03240
 C161 C 0.32121 0.51150 0.99984
 C162 C 0.28279 0.56317 1.02153
 C163 C 0.28519 0.50867 0.94499
 C164 C 0.24540 0.46553 0.97777
 C165 C 0.20629 0.51751 0.99895
 C166 C 0.24573 0.56050 0.96652
 H167 H 0.22799 0.52289 1.10008
 H168 H 0.29810 0.43028 1.05943
 H169 H 0.29878 0.60336 1.03966
 H170 H 0.30290 0.50377 0.89999
 H171 H 0.23016 0.42472 0.96028
 H172 H 0.23036 0.59855 0.93937
 C173 C 0.03261 -0.26262 0.44140
 C174 C 0.06161 -0.30382 0.48776
 C175 C 0.00585 -0.33790 0.49264
 C176 C -0.02324 -0.29765 0.44647
 C177 C -0.01842 -0.29905 0.54146
 C178 C 0.03712 -0.26394 0.53653
 C179 C 0.00843 -0.22311 0.48997
 C180 C -0.04748 -0.25780 0.49542
 H181 H 0.05370 -0.24738 0.40016
 H182 H 0.10673 -0.32304 0.48477
 H183 H -0.04829 -0.31199 0.40946
 H184 H -0.03941 -0.31459 0.58266
 H185 H 0.06172 -0.25022 0.57411
 H186 H -0.09311 -0.24041 0.50014
 C187 C 0.06023 0.24340 0.50317
 C188 C 0.03055 0.28304 0.45622
 C189 C 0.00406 0.32186 0.50410
 C190 C 0.03381 0.28317 0.55116
 C191 C -0.05031 0.28593 0.50865
 C192 C -0.02368 0.24616 0.46078
 C193 C 0.00562 0.20690 0.50825
 C194 C -0.02074 0.24631 0.55594
 H195 H 0.10640 0.22748 0.49939
 H196 H 0.05154 0.29883 0.41512
 H197 H 0.05758 0.29904 0.58834
 H198 H -0.09591 0.30393 0.51068
 H199 H -0.04711 0.23098 0.42304
 H200 H -0.04184 0.23090 0.59711
 C201 C 0.50553 0.06307 -0.25868
 C202 C 0.55570 0.03698 -0.29715
 C203 C 0.51185 0.00257 -0.32928
 C204 C 0.46157 0.02863 -0.29185
 C205 C 0.52044 -0.04925 -0.28631
 C206 C 0.56419 -0.01444 -0.25302
 C207 C 0.51347 0.01111 -0.21475
 C208 C 0.46987 -0.02330 -0.24800
 H209 H 0.50319 0.11057 -0.25195
 H210 H 0.59124 0.06174 -0.31801
 H211 H 0.41911 0.04625 -0.30811
 H212 H 0.52660 -0.09565 -0.29779
 H213 H 0.60825 -0.02966 -0.23911
 H214 H 0.43420 -0.04828 -0.22774
 C215 C 0.50423 -0.06277 0.25685
 C216 C 0.55426 -0.04266 0.29354
 C217 C 0.50990 -0.00729 0.33071
 C218 C 0.45978 -0.02738 0.29501
 C219 C 0.51670 0.04636 0.29017
 C220 C 0.56097 0.01066 0.25194
 C221 C 0.51033 -0.00880 0.21558
 C222 C 0.46626 0.02646 0.25375
 H223 H 0.50246 -0.10935 0.24657
 H224 H 0.59058 -0.07117 0.31059
 H225 H 0.41802 -0.04309 0.31312
 H226 H 0.52191 0.09148 0.30409
 H227 H 0.60454 0.02365 0.23615
 H228 H 0.42979 0.05516 0.23737
 C229 C 0.49205 -0.24790 -0.05732
 C230 C 0.53569 -0.28877 -0.02390
 C231 C 0.48493 -0.32381 0.00000
 C232 C 0.44135 -0.28392 -0.03343
 C233 C 0.47777 -0.28552 0.05336
 C234 C 0.52885 -0.24975 0.02961
 C235 C 0.48559 -0.20890 -0.00374
 C236 C 0.43429 -0.24446 0.01963
 H237 H 0.49494 -0.23522 -0.10412
 H238 H 0.57754 -0.30750 -0.04179
 H239 H 0.40525 -0.29879 -0.05932
 H240 H 0.47180 -0.30138 0.09903
 H241 H 0.56512 -0.23556 0.05569
 H242 H 0.39094 -0.22745 0.03534
 C243 C 0.53553 0.25480 -0.02709
 C244 C 0.48531 0.29572 -0.04980
 C245 C 0.49018 0.33289 0.00392
 C246 C 0.54007 0.29274 0.02682
 C247 C 0.44531 0.29680 0.03741
 C248 C 0.44054 0.25853 -0.01601
 C249 C 0.49096 0.21776 0.00630
 C250 C 0.49513 0.25568 0.06029
 H251 H 0.57292 0.23740 -0.05381
 H252 H 0.48119 0.31251 -0.09527
 H253 H 0.58113 0.30725 0.04447
 H254 H 0.40807 0.31481 0.06395
 H255 H 0.39785 0.24590 -0.03141
 H256 H 0.49608 0.24243 0.10696
 C257 C -0.24182 -0.06037 0.49570
 C258 C -0.28098 -0.03086 0.54289
 C259 C -0.32068 -0.00498 0.49529
 C260 C -0.28247 -0.03454 0.44800
 C261 C -0.28541 0.04980 0.48986
 C262 C -0.24474 0.02377 0.53744
 C263 C -0.20598 -0.00536 0.48974
 C264 C -0.24625 0.02040 0.44234
 H265 H -0.22535 -0.10638 0.49958
 H266 H -0.29602 -0.05183 0.58430
 H267 H -0.29874 -0.05866 0.41126
 H268 H -0.30393 0.09522 0.48771
 H269 H -0.22918 0.04754 0.57476
 H270 H -0.23159 0.04148 0.40086
 C271 C 0.26128 -0.03352 0.56027
 C272 C 0.30222 -0.06437 0.51511
 C273 C 0.33664 -0.00900 0.50804
 C274 C 0.29661 0.02196 0.55296
 C275 C 0.29776 0.01374 0.45841
 C276 C 0.26238 -0.04143 0.46550
 C277 C 0.22185 -0.01083 0.51087
 C278 C 0.25685 0.04468 0.50321
 H279 H 0.24597 -0.05303 0.60227
 H280 H 0.32139 -0.10940 0.51981
 H281 H 0.31128 0.04824 0.58890
 H282 H 0.31341 0.03315 0.41648
 H283 H 0.24842 -0.06728 0.42893
 H284 H 0.23969 0.09023 0.49677
 C285 C 0.05130 0.50594 1.24851
 C286 C 0.01327 0.54627 1.28815
 C287 C -0.00172 0.49323 1.32654
 C288 C 0.03628 0.45293 1.28781
 C289 C -0.05528 0.48333 1.29043
 C290 C -0.04044 0.53665 1.25124
 C291 C -0.00255 0.49664 1.21171
 C292 C -0.01700 0.44315 1.25058
 H293 H 0.09680 0.51291 1.23396
 H294 H 0.02583 0.58875 1.30416
 H295 H 0.06788 0.41843 1.30358
 H296 H -0.09924 0.47386 1.30815
 H297 H -0.07218 0.57125 1.23597
 H298 H -0.02732 0.39936 1.23627
 C299 C 0.01674 0.54675 0.74244
 C300 C 0.05006 0.49868 0.70754
 C301 C -0.00277 0.49535 0.66895
 C302 C -0.03622 0.54308 0.70302
 C303 C -0.02797 0.44808 0.70923
 C304 C 0.02458 0.45147 0.74899
 C305 C -0.00842 0.49983 0.78366
 C306 C -0.06141 0.49572 0.74425
 H307 H 0.03516 0.58763 0.75620
 H308 H 0.09603 0.49973 0.69188
 H309 H -0.06129 0.58088 0.68355
 H310 H -0.04620 0.40735 0.69480
 H311 H 0.04879 0.41268 0.76758
 H312 H -0.10800 0.49121 0.75609
   
