data_POSCAR
  _audit_creation_date              2014-09-24
  _audit_creation_method            'ToBaCCo'
  _symmetry_space_group_name_H-M    'P1'
  _symmetry_Int_Tables_number       1
  _symmetry_cell_setting            triclinic
  loop_
  _symmetry_equiv_pos_as_xyz
 x,y,z
_cell_length_a 39.1573
_cell_length_b 39.0273
_cell_length_c 39.0065
_cell_angle_alpha 90.078000
_cell_angle_beta 90.041800
_cell_angle_gamma 90.019800
loop_
  _atom_site_label
  _atom_site_type_symbol
  _atom_site_fract_x
  _atom_site_fract_y
  _atom_site_fract_z
N1 N 0.15845 0.23892 0.24663
 N2 N 0.16764 0.21231 0.26503
 C3 C 0.14483 0.20798 0.29055
 C4 C 0.11989 0.23303 0.28767
 C5 C 0.12965 0.25234 0.25962
 H6 H 0.14572 0.18773 0.30943
 H7 H 0.11680 0.27445 0.24917
 Cu8 Cu 0.20777 0.18539 0.25273
 Cu9 Cu 0.18340 0.25386 0.20645
 Cu10 Cu 0.25305 0.20536 0.18180
 N11 N 0.24654 0.15785 0.23781
 N12 N 0.26390 0.16571 0.21007
 C13 C 0.28904 0.14267 0.20563
 C14 C 0.28776 0.11925 0.23223
 C15 C 0.26013 0.12943 0.25191
 H16 H 0.30687 0.14280 0.18449
 H17 H 0.25062 0.11689 0.27468
 N18 N 0.23799 0.24655 0.15670
 N19 N 0.21161 0.26514 0.16648
 C20 C 0.20763 0.29145 0.14459
 C21 C 0.23292 0.28967 0.11998
 C22 C 0.25146 0.26060 0.12819
 H23 H 0.18740 0.31021 0.14604
 H24 H 0.27303 0.25043 0.11421
 H25 H 0.20185 0.20559 0.19391
 H26 H 0.23048 0.23364 0.22013
 N27 N 0.65822 0.73999 0.74674
 N28 N 0.66790 0.71397 0.76571
 C29 C 0.64505 0.70957 0.79117
 C30 C 0.61957 0.73395 0.78769
 C31 C 0.62901 0.75295 0.75930
 H32 H 0.64634 0.68974 0.81046
 H33 H 0.61573 0.77459 0.74839
 Cu34 Cu 0.70856 0.68755 0.75436
 Cu35 Cu 0.68354 0.75493 0.70678
 Cu36 Cu 0.75476 0.70779 0.68397
 N37 N 0.74737 0.66015 0.73949
 N38 N 0.76559 0.66836 0.71243
 C39 C 0.79038 0.64487 0.70805
 C40 C 0.78726 0.62029 0.73339
 C41 C 0.75978 0.63099 0.75303
 H42 H 0.80893 0.64513 0.68753
 H43 H 0.74947 0.61853 0.77545
 N44 N 0.73949 0.74857 0.65843
 N45 N 0.71223 0.76636 0.66721
 C46 C 0.70789 0.79211 0.64474
 C47 C 0.73389 0.79083 0.62086
 C48 C 0.75322 0.76259 0.63005
 H49 H 0.68701 0.81019 0.64532
 H50 H 0.77538 0.75284 0.61672
 H51 H 0.70330 0.70685 0.69518
 H52 H 0.73077 0.73592 0.72158
 N53 N 0.34048 0.75913 0.74719
 N54 N 0.33158 0.78594 0.76551
 C55 C 0.35437 0.79014 0.79110
 C56 C 0.37903 0.76483 0.78832
 C57 C 0.36914 0.74547 0.76028
 H58 H 0.35378 0.81058 0.80984
 H59 H 0.38186 0.72326 0.74983
 Cu60 Cu 0.29226 0.81341 0.75217
 Cu61 Cu 0.31536 0.74445 0.70681
 Cu62 Cu 0.24478 0.79283 0.68330
 N63 N 0.25296 0.84084 0.73884
 N64 N 0.23428 0.83247 0.71209
 C65 C 0.20937 0.85590 0.70809
 C66 C 0.21289 0.88070 0.73335
 C67 C 0.24074 0.87001 0.75261
 H68 H 0.19048 0.85547 0.68784
 H69 H 0.25147 0.88243 0.77490
 N70 N 0.25993 0.75177 0.65773
 N71 N 0.28682 0.73353 0.66685
 C72 C 0.29111 0.70777 0.64434
 C73 C 0.26551 0.70947 0.62004
 C74 C 0.24644 0.73797 0.62905
 H75 H 0.31175 0.68942 0.64514
 H76 H 0.22460 0.74804 0.61541
 H77 H 0.29635 0.79227 0.69352
 H78 H 0.26857 0.76482 0.72096
 N79 N 0.84220 0.25876 0.24696
 N80 N 0.83342 0.28569 0.26517
 C81 C 0.85636 0.29005 0.29062
 C82 C 0.88111 0.26474 0.28786
 C83 C 0.87091 0.24514 0.25999
 H84 H 0.85574 0.31053 0.30931
 H85 H 0.88334 0.22272 0.24963
 Cu86 Cu 0.79387 0.31299 0.25211
 Cu87 Cu 0.81681 0.24388 0.20675
 Cu88 Cu 0.74574 0.29175 0.18382
 N89 N 0.75413 0.33999 0.23910
 N90 N 0.73515 0.33128 0.21267
 C91 C 0.70991 0.35439 0.20894
 C92 C 0.71346 0.37923 0.23406
 C93 C 0.74173 0.36908 0.25289
 H94 H 0.69080 0.35377 0.18892
 H95 H 0.75264 0.38194 0.27484
 N96 N 0.76094 0.25086 0.15807
 N97 N 0.78801 0.23277 0.16694
 C98 C 0.79229 0.20711 0.14429
 C99 C 0.76650 0.20874 0.12016
 C100 C 0.74733 0.23709 0.12943
 H101 H 0.81305 0.18889 0.14487
 H102 H 0.72535 0.24709 0.11598
 H103 H 0.79744 0.29154 0.19350
 H104 H 0.77011 0.26407 0.22139
 N105 N 0.84167 0.74152 0.25355
 N106 N 0.83273 0.71465 0.23531
 C107 C 0.85556 0.71025 0.20984
 C108 C 0.88033 0.73547 0.21258
 C109 C 0.87044 0.75500 0.24051
 H110 H 0.85486 0.68980 0.19112
 H111 H 0.88319 0.77728 0.25084
 Cu112 Cu 0.79316 0.68742 0.24837
 Cu113 Cu 0.81609 0.75669 0.29352
 Cu114 Cu 0.74488 0.70888 0.31631
 N115 N 0.75354 0.66032 0.26140
 N116 N 0.73450 0.66909 0.28774
 C117 C 0.70938 0.64584 0.29157
 C118 C 0.71309 0.62087 0.26661
 C119 C 0.74131 0.63107 0.24778
 H120 H 0.69024 0.64649 0.31153
 H121 H 0.75230 0.61814 0.22592
 N122 N 0.75989 0.75001 0.34180
 N123 N 0.78703 0.76805 0.33304
 C124 C 0.79117 0.79384 0.35559
 C125 C 0.76520 0.79233 0.37951
 C126 C 0.74609 0.76393 0.37024
 H127 H 0.81198 0.81203 0.35513
 H128 H 0.72408 0.75394 0.38363
 H129 H 0.79668 0.70908 0.30692
 H130 H 0.76947 0.73646 0.27881
 N131 N 0.34155 0.24212 -0.24739
 N132 N 0.33287 0.21514 -0.26557
 C133 C 0.35587 0.21077 -0.29090
 C134 C 0.38057 0.23613 -0.28806
 C135 C 0.37028 0.25579 -0.26031
 H136 H 0.35537 0.19021 -0.30951
 H137 H 0.38269 0.27823 -0.24992
 Cu138 Cu 0.29352 0.18761 -0.25246
 Cu139 Cu 0.31614 0.25694 -0.20726
 Cu140 Cu 0.24545 0.20857 -0.18419
 N141 N 0.25404 0.16033 -0.23940
 N142 N 0.23509 0.16892 -0.21294
 C143 C 0.21003 0.14562 -0.20914
 C144 C 0.21368 0.12079 -0.23424
 C145 C 0.24181 0.13113 -0.25314
 H146 H 0.19096 0.14614 -0.18910
 H147 H 0.25271 0.11833 -0.27511
 N148 N 0.26043 0.24963 -0.15858
 N149 N 0.28732 0.26795 -0.16754
 C150 C 0.29147 0.29369 -0.14495
 C151 C 0.26579 0.29184 -0.12077
 C152 C 0.24683 0.26331 -0.12994
 H153 H 0.31210 0.31207 -0.14558
 H154 H 0.22500 0.25311 -0.11639
 H155 H 0.29713 0.20915 -0.19392
 H156 H 0.26954 0.23638 -0.22182
 N157 N 0.65755 0.25912 -0.24731
 N158 N 0.66646 0.28591 -0.26560
 C159 C 0.64337 0.29045 -0.29084
 C160 C 0.61837 0.26539 -0.28787
 C161 C 0.62859 0.24575 -0.26010
 H162 H 0.64406 0.31086 -0.30955
 H163 H 0.61604 0.22344 -0.24968
 Cu164 Cu 0.70640 0.31283 -0.25284
 Cu165 Cu 0.68315 0.24405 -0.20733
 Cu166 Cu 0.75487 0.29137 -0.18503
 N167 N 0.74639 0.33961 -0.24012
 N168 N 0.76550 0.33078 -0.21385
 C169 C 0.79082 0.35383 -0.21013
 C170 C 0.78718 0.37876 -0.23506
 C171 C 0.75877 0.36873 -0.25379
 H172 H 0.81000 0.35314 -0.19017
 H173 H 0.74771 0.38174 -0.27554
 N174 N 0.73960 0.25064 -0.15925
 N175 N 0.71226 0.23277 -0.16782
 C176 C 0.70801 0.20720 -0.14513
 C177 C 0.73412 0.20866 -0.12132
 C178 C 0.75343 0.23681 -0.13079
 H179 H 0.68709 0.18914 -0.14546
 H180 H 0.77564 0.24667 -0.11758
 H181 H 0.70303 0.29154 -0.19425
 H182 H 0.72986 0.26374 -0.22236
 N183 N 0.15941 0.76107 0.25252
 N184 N 0.16800 0.78843 0.23491
 C185 C 0.14516 0.79288 0.20939
 C186 C 0.12080 0.76715 0.21149
 C187 C 0.13098 0.74730 0.23901
 H188 H 0.14558 0.81368 0.19112
 H189 H 0.11859 0.72463 0.24882
 Cu190 Cu 0.20730 0.81602 0.24857
 Cu191 Cu 0.18444 0.74577 0.29263
 Cu192 Cu 0.25470 0.79376 0.31714
 N193 N 0.24755 0.84227 0.26200
 N194 N 0.26576 0.83339 0.28889
 C195 C 0.29170 0.85566 0.29282
 C196 C 0.29013 0.87963 0.26667
 C197 C 0.26135 0.87063 0.24794
 H198 H 0.31000 0.85475 0.31356
 H199 H 0.25111 0.88401 0.22596
 N200 N 0.23936 0.75266 0.34224
 N201 N 0.21280 0.73423 0.33254
 C202 C 0.20865 0.70803 0.35452
 C203 C 0.23403 0.70970 0.37911
 C204 C 0.25277 0.73860 0.37079
 H205 H 0.18824 0.68944 0.35321
 H206 H 0.27440 0.74871 0.38477
 H207 H 0.20309 0.79343 0.30672
 H208 H 0.23099 0.76669 0.27855
 N209 N 0.49002 0.40775 0.49737
 N210 N 0.46295 0.41704 0.51497
 C211 C 0.45840 0.39499 0.54109
 C212 C 0.48425 0.37084 0.54010
 C213 C 0.50358 0.37948 0.51169
 H214 H 0.43753 0.39600 0.55917
 H215 H 0.52566 0.36595 0.50200
 Cu216 Cu 0.43599 0.45657 0.50146
 Cu217 Cu 0.50536 0.43293 0.45710
 Cu218 Cu 0.45783 0.50427 0.43330
 N219 N 0.40929 0.49628 0.48799
 N220 N 0.41809 0.51516 0.46155
 C221 C 0.39508 0.54053 0.45769
 C222 C 0.37028 0.53710 0.48279
 C223 C 0.38035 0.50883 0.50168
 H224 H 0.39579 0.55966 0.43767
 H225 H 0.36756 0.49806 0.52367
 N226 N 0.49886 0.48884 0.40814
 N227 N 0.51682 0.46170 0.41724
 C228 C 0.54275 0.45752 0.39498
 C229 C 0.54138 0.48345 0.37089
 C230 C 0.51293 0.50255 0.37976
 H231 H 0.56100 0.43679 0.39583
 H232 H 0.50308 0.52457 0.36620
 H233 H 0.48522 0.47989 0.47124
 H234 H 0.45807 0.45235 0.44318
 N235 N -0.01003 -0.09303 0.99556
 N236 N -0.03689 -0.08356 1.01337
 C237 C -0.04148 -0.10562 1.03945
 C238 C -0.01588 -0.13000 1.03820
 C239 C 0.00335 -0.12148 1.00969
 H240 H -0.06216 -0.10439 1.05773
 H241 H 0.02532 -0.13511 0.99991
 Cu242 Cu -0.06352 -0.04371 1.00040
 Cu243 Cu 0.00545 -0.06768 0.95550
 Cu244 Cu -0.04150 0.00427 0.93245
 N245 N -0.08992 -0.00380 0.98717
 N246 N -0.08111 0.01521 0.96085
 C247 C -0.10408 0.04064 0.95718
 C248 C -0.12885 0.03709 0.98229
 C249 C -0.11882 0.00871 1.00098
 H250 H -0.10339 0.05986 0.93724
 H251 H -0.13162 -0.00221 1.02289
 N252 N -0.00062 -0.01126 0.90710
 N253 N 0.01708 -0.03866 0.91590
 C254 C 0.04296 -0.04285 0.89360
 C255 C 0.04185 -0.01665 0.86980
 C256 C 0.01358 0.00263 0.87888
 H257 H 0.06103 -0.06376 0.89422
 H258 H 0.00393 0.02488 0.86556
 H259 H -0.01416 -0.02067 0.97014
 H260 H -0.04171 -0.04775 0.94200
 N261 N 1.00953 0.59241 0.99715
 N262 N 1.03579 0.58245 1.01557
 C263 C 1.04034 0.60456 1.04169
 C264 C 1.01535 0.62952 1.03981
 C265 C 0.99650 0.62123 1.01091
 H266 H 1.06073 0.60304 1.06031
 H267 H 0.97507 0.63533 1.00060
 Cu268 Cu 1.06223 0.54217 1.00339
 Cu269 Cu 0.99442 0.56717 0.95680
 Cu270 Cu 1.04152 0.49547 0.93371
 N271 N 1.08916 0.50289 0.98920
 N272 N 1.08087 0.48438 0.96229
 C273 C 1.10416 0.45930 0.95827
 C274 C 1.12863 0.46259 0.98374
 C275 C 1.11808 0.49043 1.00301
 H276 H 1.10387 0.44049 0.93789
 H277 H 1.13054 0.50101 1.02534
 N278 N 1.00088 0.51097 0.90811
 N279 N 0.98307 0.53831 0.91691
 C280 C 0.95729 0.54245 0.89444
 C281 C 0.95863 0.51629 0.87051
 C282 C 0.98689 0.49710 0.87971
 H283 H 0.93913 0.56328 0.89506
 H284 H 0.99668 0.47487 0.86638
 H285 H 1.01352 0.51993 0.97126
 H286 H 1.04201 0.54736 0.94447
 N287 N 0.50822 0.09194 0.49885
 N288 N 0.53519 0.08284 0.51672
 C289 C 0.53990 0.10542 0.54239
 C290 C 0.51426 0.12974 0.54088
 C291 C 0.49486 0.12063 0.51259
 H292 H 0.56075 0.10462 0.56053
 H293 H 0.47290 0.13412 0.50259
 Cu294 Cu 0.56209 0.04285 0.50459
 Cu295 Cu 0.49309 0.06628 0.45873
 Cu296 Cu 0.54128 -0.00476 0.43585
 N297 N 0.58935 0.00363 0.49075
 N298 N 0.58076 -0.01536 0.46428
 C299 C 0.60406 -0.04040 0.46029
 C300 C 0.62888 -0.03666 0.48532
 C301 C 0.61854 -0.00852 0.50433
 H302 H 0.60357 -0.05951 0.44019
 H303 H 0.63130 0.00244 0.52630
 N304 N 0.50052 0.01013 0.41027
 N305 N 0.48201 0.03700 0.41900
 C306 C 0.45671 0.04095 0.39590
 C307 C 0.45972 0.01568 0.37117
 C308 C 0.48764 -0.00356 0.38134
 H309 H 0.43790 0.06122 0.39636
 H310 H 0.49807 -0.02574 0.36854
 H311 H 0.51318 0.01975 0.47344
 H312 H 0.54082 0.04742 0.44601
 N313 N -0.01064 0.09306 0.50362
 N314 N -0.03729 0.08335 0.48558
 C315 C -0.04198 0.10545 0.45956
 C316 C -0.01664 0.13012 0.46106
 C317 C 0.00252 0.12170 0.48968
 H318 H -0.06255 0.10405 0.44113
 H319 H 0.02435 0.13549 0.49961
 Cu320 Cu -0.06374 0.04315 0.49797
 Cu321 Cu 0.00493 0.06765 0.54359
 Cu322 Cu -0.04213 -0.00401 0.56688
 N323 N -0.09059 0.00386 0.51220
 N324 N -0.08193 -0.01485 0.53879
 C325 C -0.10517 -0.03998 0.54287
 C326 C -0.12997 -0.03652 0.51776
 C327 C -0.11968 -0.00852 0.49864
 H328 H -0.10457 -0.05899 0.56300
 H329 H -0.13240 0.00216 0.47654
 N330 N -0.00106 0.01128 0.59199
 N331 N 0.01671 0.03861 0.58312
 C332 C 0.04276 0.04266 0.60529
 C333 C 0.04167 0.01644 0.62908
 C334 C 0.01325 -0.00269 0.62013
 H335 H 0.06092 0.06351 0.60460
 H336 H 0.00355 -0.02490 0.63350
 H337 H -0.01461 0.02057 0.52909
 H338 H -0.04253 0.04795 0.55658
 N339 N 0.48964 0.59237 0.00379
 N340 N 0.46230 0.58340 -0.01360
 C341 C 0.45779 0.60550 -0.03968
 C342 C 0.48394 0.62934 -0.03889
 C343 C 0.50341 0.62048 -0.01062
 H344 H 0.43676 0.60473 -0.05763
 H345 H 0.52573 0.63376 -0.00109
 Cu346 Cu 0.43505 0.54410 -0.00003
 Cu347 Cu 0.50502 0.56702 0.04393
 Cu348 Cu 0.45713 0.49597 0.06784
 N349 N 0.40830 0.50443 0.01344
 N350 N 0.41717 0.48537 0.03973
 C351 C 0.39417 0.45996 0.04343
 C352 C 0.36933 0.46353 0.01837
 C353 C 0.37935 0.49194 -0.00032
 H354 H 0.39498 0.44064 0.06327
 H355 H 0.36658 0.50278 -0.02231
 N356 N 0.49840 0.51110 0.09285
 N357 N 0.51649 0.53813 0.08369
 C358 C 0.54255 0.54216 0.10585
 C359 C 0.54114 0.51625 0.12995
 C360 C 0.51252 0.49732 0.12119
 H361 H 0.56089 0.56283 0.10497
 H362 H 0.50257 0.47538 0.13481
 H363 H 0.48436 0.52025 0.02971
 H364 H 0.45770 0.54790 0.05809
 N365 N 0.50954 -0.09198 0.00226
 N366 N 0.53648 -0.08289 -0.01562
 C367 C 0.54108 -0.10544 -0.04133
 C368 C 0.51540 -0.12974 -0.03978
 C369 C 0.49610 -0.12064 -0.01148
 H370 H 0.56186 -0.10462 -0.05953
 H371 H 0.47415 -0.13412 -0.00146
 Cu372 Cu 0.56347 -0.04296 -0.00334
 Cu373 Cu 0.49447 -0.06636 0.04234
 Cu374 Cu 0.54284 0.00453 0.06553
 N375 N 0.59077 -0.00375 0.01051
 N376 N 0.58232 0.01515 0.03707
 C377 C 0.60561 0.04024 0.04100
 C378 C 0.63026 0.03661 0.01582
 C379 C 0.61983 0.00850 -0.00320
 H380 H 0.60519 0.05932 0.06112
 H381 H 0.63241 -0.00232 -0.02533
 N382 N 0.50203 -0.01042 0.09105
 N383 N 0.48342 -0.03717 0.08207
 C384 C 0.45797 -0.04112 0.10496
 C385 C 0.46096 -0.01600 0.12982
 C386 C 0.48907 0.00316 0.11998
 H387 H 0.43906 -0.06130 0.10426
 H388 H 0.49955 0.02521 0.13299
 H389 H 0.51466 -0.01970 0.02779
 H390 H 0.54219 -0.04751 0.05519
 N391 N 1.01017 0.40737 0.50250
 N392 N 1.03656 0.41718 0.48420
 C393 C 1.04092 0.39514 0.45799
 C394 C 1.01563 0.37043 0.45967
 C395 C 0.99685 0.37875 0.48855
 H396 H 1.06131 0.39658 0.43940
 H397 H 0.97529 0.36478 0.49878
 Cu398 Cu 1.06315 0.45737 0.49657
 Cu399 Cu 0.99524 0.43246 0.54294
 Cu400 Cu 1.04246 0.50409 0.56618
 N401 N 1.09016 0.49663 0.51080
 N402 N 1.08177 0.51525 0.53759
 C403 C 1.10495 0.54047 0.54152
 C404 C 1.12946 0.53718 0.51612
 C405 C 1.11905 0.50916 0.49699
 H406 H 1.10458 0.55938 0.56181
 H407 H 1.13155 0.49855 0.47471
 N408 N 1.00184 0.48850 0.59181
 N409 N 0.98404 0.46116 0.58295
 C410 C 0.95828 0.45692 0.60537
 C411 C 0.95958 0.48304 0.62933
 C412 C 0.98782 0.50232 0.62020
 H413 H 0.94011 0.43609 0.60465
 H414 H 0.99753 0.52458 0.63354
 H415 H 1.01443 0.47968 0.52859
 H416 H 1.04282 0.45223 0.55545
 C417 C 0.37411 -0.00077 0.25005
 C418 C 0.12797 -0.00015 0.74943
 C419 C 0.62739 0.49988 0.25040
 C420 C 0.87313 0.49958 0.74953
 C421 C 0.24932 0.37707 0.00047
 C422 C 0.75056 0.12275 -0.00074
 C423 C 0.24987 0.62319 0.49937
 C424 C 0.74954 0.87761 0.50086
 C425 C -0.00044 0.24962 0.37375
 C426 C 0.00020 0.75055 0.12558
 C427 C 0.49943 0.25069 0.62681
 C428 C 0.49955 0.74938 0.87439
 C429 C 0.08856 0.23752 0.30978
 C430 C 0.06173 0.26204 0.29530
 C431 C 0.03386 0.26594 0.31549
 C432 C 0.03388 0.24490 0.34939
 C433 C 0.04123 0.20778 0.33642
 C434 C 0.06914 0.20421 0.31605
 C435 C 0.09660 0.25137 0.34548
 C436 C 0.06870 0.25526 0.36589
 H437 H 0.06376 0.27519 0.27095
 H438 H 0.01402 0.28308 0.30716
 H439 H 0.02586 0.18554 0.34177
 H440 H 0.07648 0.17970 0.30511
 H441 H 0.12224 0.25745 0.35419
 H442 H 0.07213 0.26443 0.39173
 C443 C 0.58826 0.73817 0.80988
 C444 C 0.59637 0.75185 0.84563
 C445 C 0.56856 0.75541 0.86620
 C446 C 0.53373 0.74496 0.84979
 C447 C 0.53342 0.76619 0.81599
 C448 C 0.56125 0.76263 0.79567
 C449 C 0.56907 0.70470 0.81604
 C450 C 0.54122 0.70796 0.83657
 H451 H 0.62201 0.75801 0.85428
 H452 H 0.57206 0.76437 0.89210
 H453 H 0.51342 0.78323 0.80784
 H454 H 0.56315 0.77602 0.77144
 H455 H 0.57653 0.68031 0.80492
 H456 H 0.52602 0.68561 0.84187
 C457 C 0.41044 0.76050 0.81036
 C458 C 0.43727 0.73586 0.79605
 C459 C 0.46522 0.73226 0.81624
 C460 C 0.46521 0.75368 0.84998
 C461 C 0.45774 0.79063 0.83671
 C462 C 0.42981 0.79391 0.81633
 C463 C 0.40251 0.74701 0.84617
 C464 C 0.43046 0.74339 0.86658
 H465 H 0.43514 0.72241 0.77182
 H466 H 0.48512 0.71509 0.80808
 H467 H 0.47306 0.81298 0.84181
 H468 H 0.42243 0.81828 0.80515
 H469 H 0.37690 0.74096 0.85495
 H470 H 0.42709 0.73447 0.89248
 C471 C -0.08913 0.26066 0.30893
 C472 C -0.06959 0.29407 0.31485
 C473 C -0.04185 0.29082 0.33553
 C474 C -0.03462 0.25393 0.34908
 C475 C -0.06953 0.24391 0.36549
 C476 C -0.09733 0.24744 0.34484
 C477 C -0.06217 0.23584 0.29502
 C478 C -0.03444 0.23230 0.31550
 H479 H -0.07666 0.31842 0.30342
 H480 H -0.02646 0.31311 0.34066
 H481 H -0.07309 0.23523 0.39145
 H482 H -0.12300 0.24153 0.35355
 H483 H -0.06385 0.22232 0.27080
 H484 H -0.01451 0.21506 0.30756
 C485 C -0.08839 0.73972 0.19033
 C486 C -0.06150 0.76450 0.20429
 C487 C -0.03369 0.76800 0.18389
 C488 C -0.03393 0.74635 0.15029
 C489 C -0.04124 0.70948 0.16386
 C490 C -0.06902 0.70630 0.18446
 C491 C -0.09661 0.75293 0.15447
 C492 C -0.06883 0.75645 0.13384
 H493 H -0.06350 0.77815 0.22841
 H494 H -0.01376 0.78527 0.19181
 H495 H -0.02591 0.68715 0.15878
 H496 H -0.07628 0.68200 0.19585
 H497 H -0.12229 0.75889 0.14582
 H498 H -0.07240 0.76519 0.10790
 C499 C 0.41044 0.24012 0.69111
 C500 C 0.43758 0.26460 0.70534
 C501 C 0.46544 0.26802 0.68503
 C502 C 0.46515 0.24660 0.65131
 C503 C 0.45751 0.20971 0.66461
 C504 C 0.42967 0.20658 0.68510
 C505 C 0.40250 0.25365 0.65527
 C506 C 0.43040 0.25708 0.63480
 H507 H 0.43592 0.27794 0.72967
 H508 H 0.48553 0.28499 0.69320
 H509 H 0.47271 0.18730 0.65952
 H510 H 0.42238 0.18223 0.69639
 H511 H 0.37693 0.25991 0.64649
 H512 H 0.42701 0.26602 0.60890
 C513 C 0.58848 0.26147 0.69121
 C514 C 0.59637 0.24772 0.65541
 C515 C 0.56846 0.24429 0.63489
 C516 C 0.53374 0.25492 0.65134
 C517 C 0.53341 0.23370 0.68514
 C518 C 0.56127 0.23716 0.70547
 C519 C 0.56934 0.29504 0.68506
 C520 C 0.54146 0.29187 0.66453
 H521 H 0.62193 0.24139 0.64666
 H522 H 0.57182 0.23528 0.60900
 H523 H 0.51328 0.21687 0.69338
 H524 H 0.56285 0.22399 0.72986
 H525 H 0.57675 0.31944 0.69625
 H526 H 0.52632 0.31428 0.65928
 C527 C 0.08940 0.76267 0.18939
 C528 C 0.06999 0.79597 0.18311
 C529 C 0.04201 0.79237 0.16280
 C530 C 0.03458 0.75524 0.14989
 C531 C 0.06933 0.74481 0.13335
 C532 C 0.09731 0.74875 0.15370
 C533 C 0.06259 0.73818 0.20396
 C534 C 0.03464 0.73425 0.18382
 H535 H 0.07734 0.82049 0.19403
 H536 H 0.02663 0.81460 0.15749
 H537 H 0.07265 0.73555 0.10754
 H538 H 0.12291 0.74264 0.14496
 H539 H 0.06469 0.72511 0.22836
 H540 H 0.01478 0.71715 0.19221
 C541 C 0.31033 0.08830 0.23733
 C542 C 0.34624 0.09237 0.22262
 C543 C 0.36636 0.06435 0.22654
 C544 C 0.34957 0.03338 0.24529
 C545 C 0.33615 0.05018 0.27899
 C546 C 0.31614 0.07835 0.27478
 C547 C 0.29610 0.05609 0.22039
 C548 C 0.31605 0.02787 0.22437
 H549 H 0.35574 0.11577 0.21105
 H550 H 0.39238 0.06563 0.21779
 H551 H 0.34128 0.04113 0.30455
 H552 H 0.30556 0.09229 0.29639
 H553 H 0.27230 0.05549 0.20610
 H554 H 0.30812 0.00410 0.21277
 C555 C 0.80914 0.58874 0.73786
 C556 C 0.84476 0.59682 0.75153
 C557 C 0.86514 0.56886 0.75527
 C558 C 0.84870 0.53391 0.74497
 C559 C 0.81496 0.53387 0.76617
 C560 C 0.79482 0.56189 0.76245
 C561 C 0.81525 0.56922 0.70448
 C562 C 0.83562 0.54125 0.70791
 H563 H 0.85345 0.62255 0.75756
 H564 H 0.89093 0.57235 0.76423
 H565 H 0.80674 0.51391 0.78328
 H566 H 0.77062 0.56408 0.77574
 H567 H 0.80419 0.57652 0.68003
 H568 H 0.84089 0.52584 0.68563
 C569 C 0.80908 0.41032 0.76054
 C570 C 0.84482 0.40229 0.74723
 C571 C 0.86523 0.43028 0.74372
 C572 C 0.84868 0.46521 0.75384
 C573 C 0.81513 0.46520 0.73229
 C574 C 0.79498 0.43715 0.73579
 C575 C 0.81490 0.42986 0.79397
 C576 C 0.83529 0.45785 0.79076
 H577 H 0.85359 0.37657 0.74128
 H578 H 0.89111 0.42683 0.73503
 H579 H 0.80708 0.48513 0.71506
 H580 H 0.77099 0.43490 0.72211
 H581 H 0.80367 0.42252 0.81832
 H582 H 0.84039 0.47325 0.81310
 C583 C 0.31141 -0.09082 0.26213
 C584 C 0.34733 -0.09432 0.27722
 C585 C 0.36706 -0.06598 0.27350
 C586 C 0.35000 -0.03529 0.25455
 C587 C 0.33716 -0.05232 0.22072
 C588 C 0.31753 -0.08081 0.22471
 C589 C 0.29661 -0.05874 0.27887
 C590 C 0.31622 -0.03026 0.27508
 H591 H 0.35733 -0.11760 0.28862
 H592 H 0.39306 -0.06688 0.28237
 H593 H 0.34248 -0.04325 0.19520
 H594 H 0.30748 -0.09495 0.20294
 H595 H 0.27268 -0.05839 0.29293
 H596 H 0.30786 -0.00662 0.28659
 C597 C 0.19218 -0.08930 0.73775
 C598 C 0.20634 -0.06233 0.76253
 C599 C 0.18608 -0.03439 0.76626
 C600 C 0.15245 -0.03447 0.74488
 C601 C 0.16566 -0.04174 0.70788
 C602 C 0.18612 -0.06964 0.70441
 C603 C 0.15647 -0.09739 0.75124
 C604 C 0.13604 -0.06945 0.75497
 H605 H 0.23054 -0.06419 0.77589
 H606 H 0.19420 -0.01441 0.78346
 H607 H 0.16045 -0.02628 0.68564
 H608 H 0.19731 -0.07674 0.67994
 H609 H 0.14774 -0.12311 0.75723
 H610 H 0.11023 -0.07296 0.76386
 C611 C 0.69152 0.41076 0.23870
 C612 C 0.70572 0.43761 0.26347
 C613 C 0.68554 0.46561 0.26722
 C614 C 0.65187 0.46556 0.24585
 C615 C 0.66506 0.45827 0.20883
 C616 C 0.68547 0.43033 0.20538
 C617 C 0.65587 0.40264 0.25220
 C618 C 0.63544 0.43059 0.25596
 H619 H 0.72983 0.43541 0.27696
 H620 H 0.69363 0.48554 0.28449
 H621 H 0.65983 0.47369 0.18658
 H622 H 0.69657 0.42305 0.18094
 H623 H 0.64719 0.37690 0.25812
 H624 H 0.60964 0.42708 0.26485
 C625 C 0.69127 0.58925 0.26202
 C626 C 0.65557 0.59721 0.24853
 C627 C 0.63523 0.56919 0.24480
 C628 C 0.65179 0.53429 0.25492
 C629 C 0.68542 0.53435 0.23356
 C630 C 0.70551 0.56243 0.23727
 C631 C 0.68534 0.56969 0.29536
 C632 C 0.66503 0.54165 0.29194
 H633 H 0.64678 0.62292 0.24260
 H634 H 0.60940 0.57260 0.23594
 H635 H 0.69356 0.51443 0.21632
 H636 H 0.72959 0.56471 0.22377
 H637 H 0.69646 0.57704 0.31979
 H638 H 0.65990 0.52621 0.31420
 C639 C 0.19187 0.08918 0.76113
 C640 C 0.15619 0.09718 0.74762
 C641 C 0.13584 0.06917 0.74386
 C642 C 0.15237 0.03425 0.75398
 C643 C 0.18602 0.03432 0.73262
 C644 C 0.20613 0.06239 0.73637
 C645 C 0.18592 0.06961 0.79446
 C646 C 0.16559 0.04160 0.79100
 H647 H 0.14743 0.12289 0.74169
 H648 H 0.11002 0.07261 0.73498
 H649 H 0.19417 0.01441 0.71536
 H650 H 0.23021 0.06468 0.72289
 H651 H 0.19702 0.07694 0.81890
 H652 H 0.16042 0.02616 0.81326
 C653 C 0.23742 0.31268 0.08927
 C654 C 0.27459 0.31903 0.07937
 C655 C 0.27851 0.33922 0.05128
 C656 C 0.24476 0.35231 0.03451
 C657 C 0.22434 0.31845 0.02888
 C658 C 0.22074 0.29827 0.05701
 C659 C 0.22221 0.34852 0.09349
 C660 C 0.22581 0.36883 0.06551
 H661 H 0.29624 0.30851 0.09320
 H662 H 0.30392 0.34454 0.04221
 H663 H 0.21269 0.31048 0.00517
 H664 H 0.20673 0.27426 0.05636
 H665 H 0.21060 0.35791 0.11694
 H666 H 0.21664 0.39481 0.06673
 C667 C 0.73829 0.81353 0.58994
 C668 C 0.77538 0.81970 0.57965
 C669 C 0.77909 0.83976 0.55146
 C670 C 0.74522 0.85292 0.53498
 C671 C 0.72466 0.81911 0.52965
 C672 C 0.72123 0.79905 0.55789
 C673 C 0.72325 0.84941 0.59419
 C674 C 0.72660 0.86960 0.56611
 H675 H 0.79714 0.80917 0.59330
 H676 H 0.80443 0.84492 0.54211
 H677 H 0.71284 0.81107 0.50602
 H678 H 0.70720 0.77504 0.55745
 H679 H 0.71182 0.85886 0.61771
 H680 H 0.71744 0.89557 0.56735
 C681 C 0.76084 0.81471 0.41075
 C682 C 0.77588 0.85066 0.40706
 C683 C 0.77250 0.87049 0.43546
 C684 C 0.75389 0.85339 0.46633
 C685 C 0.72003 0.84042 0.44964
 C686 C 0.72375 0.82072 0.42113
 C687 C 0.77789 0.79984 0.44258
 C688 C 0.77446 0.81953 0.47113
 H689 H 0.78732 0.86040 0.38370
 H690 H 0.78164 0.89649 0.43464
 H691 H 0.69468 0.84546 0.45904
 H692 H 0.70199 0.81037 0.40730
 H693 H 0.79192 0.77584 0.44265
 H694 H 0.78629 0.81120 0.49462
 C695 C 0.26135 0.31423 -0.08957
 C696 C 0.22420 0.32024 -0.07946
 C697 C 0.22028 0.33991 -0.05099
 C698 C 0.25402 0.35289 -0.03404
 C699 C 0.27459 0.31905 -0.02910
 C700 C 0.27819 0.29934 -0.05763
 C701 C 0.27643 0.35018 -0.09314
 C702 C 0.27287 0.37000 -0.06475
 H703 H 0.20254 0.30987 -0.09343
 H704 H 0.19486 0.34489 -0.04177
 H705 H 0.28634 0.31078 -0.00555
 H706 H 0.29226 0.27538 -0.05748
 H707 H 0.28806 0.35994 -0.11640
 H708 H 0.28207 0.39598 -0.06547
 C709 C 0.73868 0.18619 -0.09023
 C710 C 0.77584 0.18020 -0.08002
 C711 C 0.77973 0.16037 -0.05168
 C712 C 0.74598 0.14720 -0.03501
 C713 C 0.72536 0.18099 -0.02983
 C714 C 0.72175 0.20084 -0.05822
 C715 C 0.72371 0.15023 -0.09417
 C716 C 0.72725 0.13026 -0.06596
 H717 H 0.79751 0.19068 -0.09382
 H718 H 0.80513 0.15537 -0.04238
 H719 H 0.71367 0.18916 -0.00622
 H720 H 0.70767 0.22481 -0.05789
 H721 H 0.71216 0.14060 -0.11757
 H722 H 0.71813 0.10426 -0.06697
 C723 C 0.23834 0.68689 0.41000
 C724 C 0.27545 0.68069 0.42023
 C725 C 0.27922 0.66073 0.44850
 C726 C 0.24540 0.64767 0.46510
 C727 C 0.22488 0.68151 0.47033
 C728 C 0.22143 0.70149 0.44203
 C729 C 0.22320 0.65100 0.40592
 C730 C 0.22665 0.63089 0.43408
 H731 H 0.29717 0.69115 0.40650
 H732 H 0.30459 0.65556 0.45779
 H733 H 0.21304 0.68962 0.49389
 H734 H 0.20738 0.72548 0.44241
 H735 H 0.21165 0.64148 0.38247
 H736 H 0.21745 0.60491 0.43302
 C737 C 0.26123 0.68684 0.58897
 C738 C 0.27637 0.65095 0.59293
 C739 C 0.27303 0.63090 0.56468
 C740 C 0.25430 0.64768 0.53371
 C741 C 0.22044 0.66069 0.55032
 C742 C 0.22415 0.68062 0.57866
 C743 C 0.27820 0.70152 0.55703
 C744 C 0.27482 0.68156 0.52864
 H745 H 0.28786 0.64139 0.61636
 H746 H 0.28229 0.60495 0.56566
 H747 H 0.19508 0.65555 0.54098
 H748 H 0.20239 0.69106 0.59238
 H749 H 0.29220 0.72553 0.55677
 H750 H 0.28667 0.68968 0.50511
 C751 C 0.76209 0.18622 0.08899
 C752 C 0.77726 0.15034 0.09281
 C753 C 0.77383 0.13035 0.06452
 C754 C 0.75501 0.14720 0.03363
 C755 C 0.72119 0.16016 0.05035
 C756 C 0.72497 0.18001 0.07875
 C757 C 0.77895 0.20098 0.05703
 C758 C 0.77546 0.18111 0.02858
 H759 H 0.78884 0.14074 0.11618
 H760 H 0.78308 0.10440 0.06544
 H761 H 0.69582 0.15501 0.04104
 H762 H 0.70325 0.19038 0.09257
 H763 H 0.79292 0.22502 0.05678
 H764 H 0.78715 0.18934 0.00500
 C765 C 0.48849 0.33998 0.56295
 C766 C 0.52556 0.32948 0.56909
 C767 C 0.52917 0.30125 0.58913
 C768 C 0.49526 0.28495 0.60229
 C769 C 0.47685 0.31617 0.61906
 C770 C 0.47353 0.34428 0.59887
 C771 C 0.47126 0.30806 0.54846
 C772 C 0.47459 0.27980 0.56848
 H773 H 0.54737 0.34307 0.55863
 H774 H 0.55447 0.29181 0.59441
 H775 H 0.46784 0.31743 0.64509
 H776 H 0.46219 0.36783 0.60830
 H777 H 0.45715 0.30772 0.52449
 H778 H 0.46259 0.25630 0.56042
 C779 C -0.01152 0.83932 0.06121
 C780 C -0.02857 0.80722 0.04693
 C781 C -0.02506 0.77911 0.06713
 C782 C -0.00434 0.78460 0.10086
 C783 C 0.02945 0.80105 0.08752
 C784 C 0.02562 0.82912 0.06734
 C785 C -0.02645 0.84375 0.09713
 C786 C -0.02292 0.81578 0.11748
 H787 H -0.04275 0.80666 0.02300
 H788 H -0.03698 0.75550 0.05927
 H789 H 0.05483 0.79182 0.09273
 H790 H 0.04732 0.84278 0.05675
 H791 H -0.03792 0.86728 0.10648
 H792 H -0.03194 0.81712 0.14351
 C793 C 0.01128 0.66058 0.06248
 C794 C -0.02580 0.67089 0.06878
 C795 C -0.02943 0.69932 0.08858
 C796 C 0.00448 0.71602 0.10136
 C797 C 0.02324 0.68516 0.11830
 C798 C 0.02658 0.65682 0.09834
 C799 C 0.02816 0.69244 0.04757
 C800 C 0.02486 0.72090 0.06738
 H801 H -0.04759 0.65706 0.05852
 H802 H -0.05476 0.70865 0.09385
 H803 H 0.03249 0.68430 0.14428
 H804 H 0.03811 0.63346 0.10797
 H805 H 0.04212 0.69257 0.02352
 H806 H 0.03673 0.74435 0.05907
 C807 C 0.51013 0.16088 0.56342
 C808 C 0.47310 0.17147 0.56951
 C809 C 0.46958 0.19987 0.58938
 C810 C 0.50355 0.21626 0.60243
 C811 C 0.52197 0.18518 0.61936
 C812 C 0.52517 0.15689 0.59936
 C813 C 0.52737 0.19265 0.54871
 C814 C 0.52415 0.22110 0.56858
 H815 H 0.45125 0.15785 0.55911
 H816 H 0.44429 0.20940 0.59455
 H817 H 0.53106 0.18411 0.64538
 H818 H 0.53644 0.13340 0.60898
 H819 H 0.54140 0.19276 0.52471
 H820 H 0.53614 0.24453 0.56039
 C821 C -0.01228 0.16081 0.43804
 C822 C -0.02732 0.15645 0.40212
 C823 C -0.02374 0.18443 0.38179
 C824 C -0.00502 0.21554 0.39842
 C825 C -0.02565 0.22106 0.43216
 C826 C -0.02920 0.19295 0.45236
 C827 C 0.02487 0.17092 0.43187
 C828 C 0.02874 0.19899 0.41169
 H829 H -0.03887 0.13296 0.39276
 H830 H -0.03278 0.18311 0.35575
 H831 H -0.03751 0.24469 0.44002
 H832 H -0.04333 0.19353 0.47629
 H833 H 0.04656 0.15719 0.44243
 H834 H 0.05414 0.20814 0.40643
 C835 C 0.48831 0.66017 0.93827
 C836 C 0.47321 0.65594 0.90238
 C837 C 0.47662 0.68404 0.88217
 C838 C 0.49527 0.71515 0.89892
 C839 C 0.47475 0.72042 0.93276
 C840 C 0.47132 0.69218 0.95279
 C841 C 0.52542 0.67047 0.93206
 C842 C 0.52913 0.69868 0.91200
 H843 H 0.46171 0.63244 0.89296
 H844 H 0.46752 0.68282 0.85616
 H845 H 0.46294 0.74399 0.94085
 H846 H 0.45730 0.69260 0.97679
 H847 H 0.54719 0.65674 0.94244
 H848 H 0.55448 0.70796 0.90667
 C849 C 0.51106 0.83915 0.93768
 C850 C 0.47394 0.82878 0.93166
 C851 C 0.47017 0.80038 0.91185
 C852 C 0.50399 0.78380 0.89875
 C853 C 0.52256 0.81476 0.88176
 C854 C 0.52601 0.84304 0.90173
 C855 C 0.52814 0.80730 0.95240
 C856 C 0.52466 0.77885 0.93256
 H857 H 0.45221 0.84254 0.94209
 H858 H 0.44480 0.79098 0.90677
 H859 H 0.53158 0.81576 0.85572
 H860 H 0.53744 0.86645 0.89209
 H861 H 0.54227 0.80714 0.97636
 H862 H 0.53653 0.75536 0.94075
 C863 C 0.01129 0.33944 0.43695
 C864 C -0.02586 0.32932 0.43069
 C865 C -0.02972 0.30093 0.41085
 C866 C 0.00406 0.28411 0.39799
 C867 C 0.02291 0.31493 0.38107
 C868 C 0.02650 0.34321 0.40107
 C869 C 0.02806 0.30749 0.45177
 C870 C 0.02452 0.27908 0.43193
 H871 H -0.04755 0.34327 0.44097
 H872 H -0.05511 0.29175 0.40552
 H873 H 0.03202 0.31583 0.35505
 H874 H 0.03813 0.36653 0.39147
 H875 H 0.04209 0.30724 0.47580
 H876 H 0.03628 0.25557 0.44020
 C877 C 0.33884 0.55908 0.48750
 C878 C 0.31214 0.54473 0.51224
 C879 C 0.28419 0.56490 0.51608
 C880 C 0.28411 0.59868 0.49483
 C881 C 0.31895 0.61524 0.50502
 C882 C 0.34686 0.59485 0.50113
 C883 C 0.31925 0.56512 0.45422
 C884 C 0.29132 0.58546 0.45776
 H885 H 0.31438 0.52051 0.52561
 H886 H 0.26437 0.55669 0.53330
 H887 H 0.32235 0.64108 0.51415
 H888 H 0.37250 0.60360 0.50716
 H889 H 0.32645 0.55398 0.42975
 H890 H 0.27581 0.59054 0.43555
 C891 C 0.83967 0.05894 -0.01288
 C892 C 0.82001 0.06495 -0.04611
 C893 C 0.79203 0.08519 -0.04249
 C894 C 0.78485 0.09835 -0.00540
 C895 C 0.78506 0.06455 0.01582
 C896 C 0.81307 0.04447 0.01190
 C897 C 0.84762 0.09471 0.00077
 C898 C 0.81966 0.11500 0.00475
 H899 H 0.82718 0.05383 -0.07060
 H900 H 0.77647 0.09019 -0.06468
 H901 H 0.76528 0.05627 0.03306
 H902 H 0.81539 0.02026 0.02526
 H903 H 0.87324 0.10354 0.00675
 H904 H 0.82301 0.14084 0.01389
 C905 C 0.66173 0.05848 0.01108
 C906 C 0.68836 0.04413 -0.01375
 C907 C 0.71631 0.06434 -0.01755
 C908 C 0.71639 0.09814 0.00380
 C909 C 0.68154 0.11465 -0.00628
 C910 C 0.65366 0.09423 -0.00242
 C911 C 0.68136 0.06451 0.04435
 C912 C 0.70926 0.08489 0.04083
 H913 H 0.68607 0.01990 -0.02716
 H914 H 0.73616 0.05614 -0.03478
 H915 H 0.67806 0.14049 -0.01528
 H916 H 0.62801 0.10296 -0.00836
 H917 H 0.67425 0.05329 0.06878
 H918 H 0.72480 0.08993 0.06304
 C919 C 0.16091 0.55908 0.51131
 C920 C 0.18058 0.56516 0.54454
 C921 C 0.20849 0.58549 0.54096
 C922 C 0.21563 0.59867 0.50390
 C923 C 0.21549 0.56487 0.48259
 C924 C 0.18754 0.54468 0.48647
 C925 C 0.15288 0.59482 0.49774
 C926 C 0.18079 0.61519 0.49378
 H927 H 0.17349 0.55399 0.56901
 H928 H 0.22405 0.59053 0.56316
 H929 H 0.23528 0.55669 0.46528
 H930 H 0.18522 0.52044 0.47308
 H931 H 0.12723 0.60356 0.49179
 H932 H 0.17738 0.64100 0.48464
 C933 C 0.16016 0.44083 -0.01148
 C934 C 0.18664 0.45520 0.01359
 C935 C 0.21467 0.43513 0.01747
 C936 C 0.21502 0.40148 -0.00408
 C937 C 0.18021 0.38471 0.00573
 C938 C 0.15223 0.40497 0.00179
 C939 C 0.17997 0.43511 -0.04466
 C940 C 0.20796 0.41490 -0.04108
 H941 H 0.18419 0.47934 0.02712
 H942 H 0.23439 0.44333 0.03488
 H943 H 0.17684 0.35882 0.01463
 H944 H 0.12660 0.39605 0.00754
 H945 H 0.17288 0.44639 -0.06908
 H946 H 0.22364 0.41011 -0.06323
 C947 C 0.66044 0.94160 0.48983
 C948 C 0.68715 0.95588 0.51465
 C949 C 0.71520 0.93577 0.51819
 C950 C 0.71528 0.90212 0.49662
 C951 C 0.68053 0.88540 0.50673
 C952 C 0.65257 0.90572 0.50312
 C953 C 0.67992 0.93585 0.45644
 C954 C 0.70790 0.91557 0.45971
 H955 H 0.68482 0.97998 0.52828
 H956 H 0.73511 0.94393 0.53541
 H957 H 0.67718 0.85948 0.51557
 H958 H 0.62697 0.89685 0.50910
 H959 H 0.67262 0.94718 0.43210
 H960 H 0.72334 0.91072 0.43741
 C961 C 0.83855 0.94161 0.51302
 C962 C 0.84649 0.90596 0.49911
 C963 C 0.81856 0.88561 0.49514
 C964 C 0.78378 0.90210 0.50553
 C965 C 0.79114 0.91506 0.54268
 C966 C 0.81910 0.93535 0.54630
 C967 C 0.81177 0.95618 0.48846
 C968 C 0.78379 0.93604 0.48454
 H969 H 0.87210 0.89724 0.49298
 H970 H 0.82194 0.85984 0.48584
 H971 H 0.77571 0.90987 0.56490
 H972 H 0.82639 0.94635 0.57082
 H973 H 0.81395 0.98053 0.47533
 H974 H 0.76386 0.94440 0.46747
 C975 C 0.33800 0.44145 0.01337
 C976 C 0.34621 0.40581 -0.00046
 C977 C 0.31839 0.38533 -0.00465
 C978 C 0.28345 0.40167 0.00544
 C979 C 0.29045 0.41465 0.04264
 C980 C 0.31829 0.43509 0.04649
 C981 C 0.31136 0.45586 -0.01143
 C982 C 0.28351 0.43560 -0.01558
 H983 H 0.37191 0.39720 -0.00638
 H984 H 0.32193 0.35955 -0.01391
 H985 H 0.27488 0.40934 0.06473
 H986 H 0.32536 0.44608 0.07108
 H987 H 0.31355 0.48018 -0.02461
 H988 H 0.26373 0.44384 -0.03286
 C989 C 0.56403 0.48798 0.33991
 C990 C 0.54950 0.47103 0.30782
 C991 C 0.56936 0.47465 0.27950
 C992 C 0.60305 0.49533 0.28474
 C993 C 0.58997 0.52919 0.30150
 C994 C 0.57010 0.52528 0.32979
 C995 C 0.59984 0.47293 0.34387
 C996 C 0.61986 0.47655 0.31570
 H997 H 0.52563 0.45686 0.30743
 H998 H 0.56128 0.46284 0.25588
 H999 H 0.59515 0.55468 0.29233
 H1000 H 0.55970 0.54702 0.34367
 H1001 H 0.60935 0.46133 0.36726
 H1002 H 0.64579 0.46747 0.31675
 C1003 C 0.06453 -0.01207 0.83887
 C1004 C 0.10034 -0.02713 0.84288
 C1005 C 0.12039 -0.02351 0.81473
 C1006 C 0.10362 -0.00471 0.78376
 C1007 C 0.06994 -0.02539 0.77847
 C1008 C 0.05004 -0.02901 0.80676
 C1009 C 0.07062 0.02523 0.82878
 C1010 C 0.09054 0.02915 0.80053
 H1011 H 0.10981 -0.03874 0.86629
 H1012 H 0.14633 -0.03258 0.81581
 H1013 H 0.06189 -0.03720 0.75485
 H1014 H 0.02616 -0.04317 0.80633
 H1015 H 0.06022 0.04697 0.84266
 H1016 H 0.09577 0.05464 0.79140
 C1017 C 0.06439 0.01180 0.66000
 C1018 C 0.10018 0.02692 0.65603
 C1019 C 0.12028 0.02326 0.68417
 C1020 C 0.10356 0.00439 0.71510
 C1021 C 0.06985 0.02499 0.72042
 C1022 C 0.04993 0.02865 0.69213
 C1023 C 0.07053 -0.02552 0.67003
 C1024 C 0.09050 -0.02946 0.69828
 H1025 H 0.10961 0.03860 0.63265
 H1026 H 0.14620 0.03236 0.68309
 H1027 H 0.06179 0.03673 0.74406
 H1028 H 0.02605 0.04278 0.69259
 H1029 H 0.06012 -0.04724 0.65611
 H1030 H 0.09579 -0.05495 0.70739
 C1031 C 0.56384 0.51168 0.16091
 C1032 C 0.57000 0.47439 0.17098
 C1033 C 0.58993 0.47049 0.19927
 C1034 C 0.60296 0.50437 0.21606
 C1035 C 0.61968 0.52323 0.18512
 C1036 C 0.59962 0.52683 0.15696
 C1037 C 0.54932 0.52855 0.19302
 C1038 C 0.56923 0.52494 0.22134
 H1039 H 0.55958 0.45265 0.15709
 H1040 H 0.59517 0.44501 0.20844
 H1041 H 0.64560 0.53236 0.18406
 H1042 H 0.60909 0.53846 0.13358
 H1043 H 0.52541 0.54263 0.19345
 H1044 H 0.56114 0.53667 0.24498
 C1045 C 0.43876 -0.01174 0.16120
 C1046 C 0.40300 0.00138 0.15289
 C1047 C 0.38237 0.00481 0.18073
 C1048 C 0.39874 -0.00515 0.21580
 C1049 C 0.41232 -0.04201 0.20849
 C1050 C 0.43294 -0.04517 0.18066
 C1051 C 0.45255 0.01308 0.18819
 C1052 C 0.43220 0.01652 0.21607
 H1053 H 0.39437 0.00717 0.12708
 H1054 H 0.35644 0.01324 0.17705
 H1055 H 0.40714 -0.06435 0.22379
 H1056 H 0.44430 -0.06947 0.17335
 H1057 H 0.47652 0.02682 0.18618
 H1058 H 0.44007 0.03379 0.23610
 C1059 C 0.93688 0.48769 0.66027
 C1060 C 0.95129 0.47080 0.69239
 C1061 C 0.93133 0.47445 0.72065
 C1062 C 0.89764 0.49507 0.71529
 C1063 C 0.91076 0.52893 0.69864
 C1064 C 0.93075 0.52500 0.67041
 C1065 C 0.90109 0.47260 0.65615
 C1066 C 0.88097 0.47623 0.68424
 H1067 H 0.97519 0.45670 0.69287
 H1068 H 0.93935 0.46275 0.74431
 H1069 H 0.90551 0.55441 0.70783
 H1070 H 0.94119 0.54673 0.65660
 H1071 H 0.89165 0.46098 0.63269
 H1072 H 0.85505 0.46714 0.68303
 C1073 C 0.93613 0.51162 0.83940
 C1074 C 0.90030 0.52664 0.84319
 C1075 C 0.88040 0.52295 0.81491
 C1076 C 0.89734 0.50414 0.78401
 C1077 C 0.93105 0.52482 0.77897
 C1078 C 0.95078 0.52852 0.80741
 C1079 C 0.93012 0.47429 0.82921
 C1080 C 0.91036 0.47031 0.80079
 H1081 H 0.89068 0.53825 0.86655
 H1082 H 0.85444 0.53196 0.81587
 H1083 H 0.93925 0.53653 0.75539
 H1084 H 0.97466 0.54267 0.80715
 H1085 H 0.94047 0.45258 0.84313
 H1086 H 0.90521 0.44482 0.79155
 C1087 C 0.43778 0.01122 0.33959
 C1088 C 0.43162 0.04457 0.32011
 C1089 C 0.41130 0.04109 0.29204
 C1090 C 0.39836 0.00401 0.28457
 C1091 C 0.43214 -0.01711 0.28462
 C1092 C 0.45219 -0.01333 0.31270
 C1093 C 0.40216 -0.00248 0.34753
 C1094 C 0.38183 -0.00624 0.31947
 H1095 H 0.44253 0.06905 0.32756
 H1096 H 0.40592 0.06336 0.27670
 H1097 H 0.44050 -0.03418 0.26465
 H1098 H 0.47643 -0.02655 0.31484
 H1099 H 0.39339 -0.00841 0.37324
 H1100 H 0.35600 -0.01510 0.32286
   
