data_POSCAR
  _audit_creation_date              2014-09-24
  _audit_creation_method            'ToBaCCo'
  _symmetry_space_group_name_H-M    'P1'
  _symmetry_Int_Tables_number       1
  _symmetry_cell_setting            triclinic
  loop_
  _symmetry_equiv_pos_as_xyz
 x,y,z
_cell_length_a 38.1012
_cell_length_b 38.9083
_cell_length_c 39.0261
_cell_angle_alpha 89.912000
_cell_angle_beta 90.203500
_cell_angle_gamma 90.360100
loop_
  _atom_site_label
  _atom_site_type_symbol
  _atom_site_fract_x
  _atom_site_fract_y
  _atom_site_fract_z
C1 C 0.15020 0.14520 0.18560
 C2 C 0.18121 0.13345 0.17017
 C3 C 0.19464 0.14912 0.14026
 C4 C 0.17587 0.17647 0.12547
 C5 C 0.14479 0.18842 0.14041
 C6 C 0.13204 0.17265 0.17019
 H7 H 0.19429 0.11155 0.18142
 H8 H 0.18531 0.18836 0.10208
 H9 H 0.10743 0.18159 0.18050
 C10 C -0.14911 0.83684 0.20760
 C11 C -0.18448 0.84393 0.19947
 C12 C -0.20102 0.82802 0.17146
 C13 C -0.18274 0.80335 0.15244
 C14 C -0.14777 0.79543 0.16049
 C15 C -0.13092 0.81301 0.18730
 H16 H -0.19901 0.86311 0.21342
 H17 H -0.19564 0.79058 0.13119
 H18 H -0.10373 0.80717 0.19306
 C19 C -0.14529 0.14471 -0.19179
 C20 C -0.17302 0.12650 -0.17639
 C21 C -0.19261 0.14067 -0.14956
 C22 C -0.18228 0.17283 -0.13625
 C23 C -0.15358 0.19086 -0.15013
 C24 C -0.13567 0.17710 -0.17841
 H25 H -0.18044 0.10146 -0.18643
 H26 H -0.19547 0.18359 -0.11428
 H27 H -0.11304 0.19063 -0.18834
 C28 C 0.13600 0.86022 -0.19301
 C29 C 0.16829 0.87274 -0.18073
 C30 C 0.18511 0.85713 -0.15260
 C31 C 0.16902 0.82824 -0.13711
 C32 C 0.13636 0.81593 -0.14893
 C33 C 0.11981 0.83251 -0.17639
 H34 H 0.18014 0.89502 -0.19288
 H35 H 0.18045 0.81645 -0.11467
 H36 H 0.09454 0.82322 -0.18544
 C37 C 0.16600 1.15444 0.79919
 C38 C 0.19806 1.14526 0.81410
 C39 C 0.21295 1.16541 0.84027
 C40 C 0.19530 1.19469 0.85166
 C41 C 0.16246 1.20347 0.83775
 C42 C 0.14802 1.18325 0.81148
 H43 H 0.21185 1.12297 0.80457
 H44 H 0.20651 1.20955 0.87248
 H45 H 0.12256 1.18975 0.80092
 C46 C 0.84811 0.84023 0.78952
 C47 C 0.82219 0.85975 0.80613
 C48 C 0.80886 0.84963 0.83790
 C49 C 0.82231 0.82041 0.85417
 C50 C 0.84829 0.80040 0.83851
 C51 C 0.86041 0.81015 0.80566
 H52 H 0.81076 0.88210 0.79410
 H53 H 0.81255 0.81342 0.87932
 H54 H 0.88064 0.79561 0.79300
 C55 C 0.15402 0.83194 1.21348
 C56 C 0.13990 0.80379 1.19532
 C57 C 0.15289 0.79485 1.16283
 C58 C 0.18122 0.81335 1.14914
 C59 C 0.19657 0.84058 1.16740
 C60 C 0.18260 0.85011 1.19911
 H61 H 0.11748 0.79012 1.20571
 H62 H 0.19098 0.80683 1.12394
 H63 H 0.19523 0.87097 1.21275
 C64 C 0.83041 1.17311 1.20983
 C65 C 0.80025 1.15948 1.19399
 C66 C 0.78290 1.17751 1.16791
 C67 C 0.79652 1.20897 1.15659
 C68 C 0.82764 1.22262 1.17086
 C69 C 0.84366 1.20508 1.19832
 H70 H 0.78939 1.13530 1.20300
 H71 H 0.78226 1.22271 1.13691
 H72 H 0.86753 1.21566 1.20916
 O73 O 0.44876 0.92336 0.94623
 O74 O 0.41253 0.95509 0.98056
 C75 C 0.41807 0.93162 0.95768
 O76 O 0.55801 0.92513 1.05843
 O77 O 0.59220 0.95817 1.02286
 C78 C 0.58817 0.93497 1.04630
 O79 O 0.45937 0.91917 1.06295
 O80 O 0.41763 0.95328 1.03778
 C81 C 0.42706 0.92815 1.05752
 O82 O 0.54605 0.92939 0.93470
 O83 O 0.58679 0.96137 0.96438
 C84 C 0.57805 0.93901 0.94123
 Zr85 Zr 0.49848 0.94489 0.95790
 O86 O 0.50295 0.89092 0.95324
 O87 O 0.48936 0.94946 0.90451
 Zr88 Zr 0.50674 0.94128 1.04429
 O89 O 0.51198 0.88717 1.04291
 O90 O 0.50773 0.94031 1.09853
 O91 O 0.47169 0.93548 1.00355
 O92 O 0.53286 0.93759 0.99819
 O93 O 0.54381 1.05134 0.93975
 O94 O 0.58565 1.01896 0.96698
 C95 C 0.57616 1.04277 0.94566
 O96 O 0.45711 1.04520 1.06912
 O97 O 0.41624 1.01325 1.03940
 C98 C 0.42498 1.03630 1.06191
 O99 O 0.55620 1.04446 1.06338
 O100 O 0.59175 1.01524 1.02613
 C101 C 0.58681 1.03614 1.05139
 O102 O 0.44586 1.05032 0.95022
 O103 O 0.41142 1.01453 0.98279
 C104 C 0.41562 1.03941 0.96117
 Zr105 Zr 0.49683 1.03161 0.96161
 O106 O 0.49909 1.08596 0.96333
 O107 O 0.48831 1.03263 0.90798
 Zr108 Zr 0.50522 1.02795 1.04792
 O109 O 0.50816 1.08225 1.04992
 O110 O 0.50660 1.02546 1.10212
 Zr111 Zr 0.44981 0.98499 1.00756
 Zr112 Zr 0.55373 0.98781 0.99828
 O113 O 0.53119 1.03689 1.00243
 O114 O 0.46977 1.03565 1.00779
 O115 O 0.52831 0.98940 0.95027
 O116 O 0.47611 0.98353 1.05502
 O117 O 0.46664 0.98758 0.95629
 O118 O 0.53783 0.98516 1.04995
 H119 H 0.54867 0.91760 0.99605
 H120 H 0.46200 0.98228 1.07627
 H121 H 0.54653 1.05754 1.00218
 H122 H 0.44887 0.98773 0.93769
 H123 H 0.52912 0.95277 1.10602
 H124 H 0.52729 1.01170 1.10878
 H125 H 0.48710 1.09128 1.03819
 H126 H 0.48133 1.09368 0.98000
 H127 H 0.50839 1.02104 0.89704
 H128 H 0.50999 0.96118 0.89439
 H129 H 0.48847 0.88051 0.97154
 H130 H 0.49209 0.87787 1.02940
 O131 O 0.07051 0.55179 -0.05662
 O132 O 0.03257 0.58715 -0.02809
 C133 C 0.05909 0.58191 -0.04810
 O134 O -0.05195 0.45277 -0.07798
 O135 O -0.02326 0.41414 -0.04357
 C136 C -0.04408 0.42169 -0.06882
 O137 O -0.04939 0.54868 -0.07684
 O138 O -0.02568 0.58581 -0.03726
 C139 C -0.04312 0.57929 -0.06518
 O140 O 0.07544 0.45584 -0.05754
 O141 O 0.03788 0.41557 -0.03478
 C142 C 0.06552 0.42438 -0.05207
 Zr143 Zr 0.05144 0.50240 -0.04288
 O144 O 0.05830 0.50122 -0.09670
 O145 O 0.10626 0.50768 -0.03537
 Zr146 Zr -0.03612 0.50027 -0.05610
 O147 O -0.02918 0.49896 -0.10985
 O148 O -0.09125 0.50310 -0.06254
 O149 O 0.00793 0.53234 -0.05473
 O150 O 0.00941 0.47173 -0.05706
 O151 O 0.05860 0.44990 0.05814
 O152 O 0.02980 0.41265 0.02206
 C153 C 0.05159 0.41926 0.04682
 O154 O -0.07018 0.54223 0.04836
 O155 O -0.03478 0.58253 0.02258
 C156 C -0.06050 0.57374 0.04250
 O157 O -0.06908 0.44599 0.04126
 O158 O -0.03102 0.41061 0.01266
 C159 C -0.05803 0.41585 0.03201
 O160 O 0.04984 0.54555 0.06644
 O161 O 0.02347 0.58462 0.03061
 C162 C 0.04187 0.57669 0.05750
 Zr163 Zr 0.03813 0.49798 0.04252
 O164 O 0.02876 0.49037 0.09547
 O165 O 0.09244 0.50393 0.05257
 Zr166 Zr -0.04933 0.49569 0.02920
 O167 O -0.05852 0.48947 0.08230
 O168 O -0.10400 0.49784 0.01949
 Zr169 Zr -0.00027 0.55045 -0.00448
 Zr170 Zr 0.00240 0.44778 -0.00918
 O171 O -0.00563 0.46657 0.04070
 O172 O -0.00744 0.52718 0.04390
 O173 O 0.05242 0.46979 -0.00057
 O174 O -0.04985 0.52788 -0.01308
 O175 O 0.05040 0.53016 0.00219
 O176 O -0.04875 0.46711 -0.01588
 H177 H 0.01285 0.45722 -0.07761
 H178 H -0.07045 0.54311 -0.01557
 H179 H -0.00786 0.44993 0.05983
 H180 H 0.07045 0.54601 0.00615
 H181 H -0.10163 0.48217 -0.05221
 H182 H -0.11056 0.47718 0.00612
 H183 H -0.04426 0.50701 0.09437
 H184 H 0.01483 0.51003 0.10375
 H185 H 0.10501 0.48843 0.03684
 H186 H 0.11383 0.48883 -0.02008
 H187 H 0.04798 0.52245 -0.10629
 H188 H -0.01072 0.51599 -0.11552
 O189 O 1.06641 -0.04846 0.54136
 O190 O 1.03662 -0.01642 0.58095
 C191 C 1.05960 -0.03931 0.57265
 O192 O 1.05924 0.07457 0.44503
 O193 O 1.02419 0.04162 0.41002
 C194 C 1.04764 0.06538 0.41512
 O195 O 1.07033 0.07172 0.54052
 O196 O 1.03952 0.04087 0.58069
 C197 C 1.06348 0.06290 0.57188
 O198 O 1.05452 -0.05206 0.44533
 O199 O 1.02128 -0.01752 0.41036
 C200 C 1.04353 -0.04202 0.41535
 Zr201 Zr 1.04276 -0.03198 0.49467
 O202 O 1.09758 -0.03555 0.48703
 O203 O 1.03691 -0.08596 0.49701
 Zr204 Zr 1.04675 0.05485 0.49414
 O205 O 1.10153 0.05086 0.48618
 O206 O 1.05107 0.10903 0.49694
 O207 O 1.05420 0.01134 0.52438
 O208 O 1.04859 0.01117 0.46422
 O209 O 0.93286 -0.04810 0.45582
 O210 O 0.96286 -0.01678 0.41537
 C211 C 0.93992 -0.03986 0.42435
 O212 O 0.94508 0.07744 0.54981
 O213 O 0.97917 0.04418 0.58508
 C214 C 0.95621 0.06808 0.57984
 O215 O 0.94192 0.08023 0.45386
 O216 O 0.96590 0.04394 0.41406
 C217 C 0.94710 0.07026 0.42258
 O218 O 0.93860 -0.04416 0.55194
 O219 O 0.97604 -0.01274 0.58612
 C220 C 0.95047 -0.03432 0.58169
 Zr221 Zr 0.95452 -0.02860 0.50192
 O222 O 0.89906 -0.02593 0.50279
 O223 O 0.95253 -0.08285 0.50549
 Zr224 Zr 0.95810 0.05793 0.50078
 O225 O 0.90255 0.05501 0.50111
 O226 O 0.95432 0.11204 0.50255
 Zr227 Zr 1.00493 0.01352 0.54866
 Zr228 Zr 0.99625 0.01304 0.44695
 O229 O 0.94740 0.01481 0.47183
 O230 O 0.95211 0.01521 0.53248
 O231 O 0.99573 -0.03696 0.46782
 O232 O 1.00524 0.06298 0.52684
 O233 O 1.00099 -0.03634 0.52815
 O234 O 1.00024 0.06313 0.46724
 H235 H 1.06783 0.01048 0.44722
 H236 H 1.00767 0.08343 0.54177
 H237 H 0.92593 0.01569 0.45745
 H238 H 1.00136 -0.05636 0.54388
 H239 H 1.03341 0.11871 0.48104
 H240 H 0.97860 0.12104 0.50295
 H241 H 0.89518 0.04877 0.52461
 H242 H 0.89243 -0.01174 0.52274
 H243 H 0.96929 -0.09194 0.48850
 H244 H 1.06089 -0.09544 0.49499
 H245 H 1.10897 -0.01942 0.50324
 H246 H 1.11176 0.03956 0.50660
 C247 C 1.13795 0.12844 0.21531
 C248 C 1.11266 0.14183 0.23738
 C249 C 1.10022 0.12265 0.26749
 N250 N 1.08774 0.13987 0.29502
 N251 N 1.07598 0.12285 0.32235
 C252 C 1.07581 0.08795 0.32293
 N253 N 1.08785 0.07070 0.29521
 N254 N 1.10005 0.08774 0.26804
 C255 C 1.06223 0.06900 0.35271
 C256 C 1.06199 0.08358 0.38528
 H257 H 1.10354 0.16793 0.23449
 H258 H 1.05359 0.04264 0.34923
 H259 H 1.15012 0.10439 0.22268
 H260 H 1.07394 0.10860 0.38929
 C261 C 0.86903 -0.14681 0.23463
 C262 C 0.85316 -0.12731 0.26032
 C263 C 0.87382 -0.10989 0.28715
 N264 N 0.85805 -0.10010 0.31665
 N265 N 0.87630 -0.08409 0.34111
 C266 C 0.91095 -0.07693 0.33682
 N267 N 0.92664 -0.08635 0.30715
 N268 N 0.90846 -0.10267 0.28281
 C269 C 0.93127 -0.05892 0.36350
 C270 C 0.91994 -0.05774 0.39740
 H271 H 0.82494 -0.12616 0.26251
 H272 H 0.95629 -0.04754 0.35660
 H273 H 0.89716 -0.15057 0.23649
 H274 H 0.89637 -0.07157 0.40474
 C275 C 0.87188 0.12926 0.78041
 C276 C 0.89429 0.14615 0.75756
 C277 C 0.90901 0.12765 0.72811
 N278 N 0.91644 0.14468 0.69863
 N279 N 0.92824 0.12775 0.67136
 C280 C 0.93334 0.09324 0.67274
 N281 N 0.92655 0.07634 0.70242
 N282 N 0.91438 0.09319 0.72953
 C283 C 0.94618 0.07416 0.64289
 C284 C 0.94259 0.08674 0.60962
 H285 H 0.89829 0.17366 0.75884
 H286 H 0.95733 0.04894 0.64710
 H287 H 0.86548 0.10264 0.77477
 H288 H 0.92881 0.11062 0.60521
 C289 C 1.11825 -0.12381 0.77735
 C290 C 1.13657 -0.11226 0.74864
 C291 C 1.11840 -0.09750 0.71877
 N292 N 1.13523 -0.09450 0.68828
 N293 N 1.11897 -0.08103 0.66113
 C294 C 1.08537 -0.06986 0.66362
 N295 N 1.06869 -0.07264 0.69415
 N296 N 1.08482 -0.08634 0.72118
 C297 C 1.06712 -0.05399 0.63445
 C298 C 1.07889 -0.05622 0.60070
 H299 H 1.16474 -0.11555 0.74737
 H300 H 1.04282 -0.04074 0.63981
 H301 H 1.08981 -0.12386 0.77689
 H302 H 1.10182 -0.07134 0.59470
 C303 C 0.22540 1.13761 1.12403
 C304 C 0.25030 1.11615 1.13937
 C305 C 0.28021 1.10217 1.12025
 N306 N 0.30892 1.09073 1.13741
 N307 N 0.33562 1.07671 1.12058
 C308 C 0.33439 1.07321 1.08598
 N309 N 0.30558 1.08443 1.06884
 N310 N 0.27904 1.09880 1.08563
 C311 C 0.36303 1.05651 1.06720
 C312 C 0.39676 1.05348 1.08083
 H313 H 0.24921 1.11046 1.16647
 H314 H 0.35770 1.04735 1.04148
 H315 H 0.23093 1.14692 1.09839
 H316 H 0.40302 1.06540 1.10518
 C317 C 0.21640 0.87201 0.85991
 C318 C 0.23894 0.85654 0.88363
 C319 C 0.26924 0.87514 0.89812
 N320 N 0.29699 0.85744 0.91076
 N321 N 0.32433 0.87399 0.92450
 C322 C 0.32467 0.90885 0.92653
 N323 N 0.29673 0.92653 0.91427
 N324 N 0.26957 0.91000 0.90016
 C325 C 0.35452 0.92736 0.94194
 C326 C 0.38780 0.91288 0.94354
 H327 H 0.23578 0.82982 0.89066
 H328 H 0.35073 0.95362 0.95030
 H329 H 0.22409 0.89700 0.84998
 H330 H 0.39234 0.88799 0.93202
 C331 C 0.76283 0.83823 1.16210
 C332 C 0.75195 0.84059 1.12804
 C333 C 0.71772 0.85477 1.11803
 N334 N 0.71219 0.86434 1.08505
 N335 N 0.68179 0.87813 1.07554
 C336 C 0.65561 0.88266 1.09860
 N337 N 0.66090 0.87260 1.13153
 N338 N 0.69147 0.85904 1.14112
 C339 C 0.62227 0.89862 1.08820
 C340 C 0.62040 0.91845 1.05853
 H341 H 0.77018 0.83449 1.10775
 H342 H 0.59955 0.89598 1.10461
 H343 H 0.74576 0.84765 1.18211
 H344 H 0.64404 0.92294 1.04378
 C345 C 0.77862 1.12169 0.86307
 C346 C 0.75196 1.13496 0.88362
 C347 C 0.72232 1.11319 0.89471
 N348 N 0.69116 1.12761 0.90306
 N349 N 0.66421 1.10805 0.91306
 C350 C 0.66755 1.07337 0.91534
 N351 N 0.69881 1.05901 0.90734
 N352 N 0.72562 1.07851 0.89699
 C353 C 0.63868 1.05158 0.92796
 C354 C 0.60390 1.06252 0.92817
 H355 H 0.75093 1.16207 0.88954
 H356 H 0.64507 1.02623 0.93757
 H357 H 0.77554 1.09535 0.85444
 H358 H 0.59701 1.08663 0.91604
 C359 C 0.12434 0.21655 0.12473
 C360 C 0.14017 0.24560 0.11047
 C361 C 0.11935 0.27431 0.09681
 N362 N 0.13414 0.30594 0.09346
 N363 N 0.11552 0.33219 0.08131
 C364 C 0.08148 0.32769 0.07175
 N365 N 0.06680 0.29596 0.07472
 N366 N 0.08532 0.26979 0.08721
 C367 C 0.06087 0.35629 0.05757
 C368 C 0.07050 0.39051 0.06282
 H369 H 0.16847 0.24834 0.11131
 H370 H 0.03722 0.35025 0.04323
 H371 H 0.09603 0.21580 0.12725
 H372 H 0.09273 0.39648 0.07920
 C373 C -0.14107 0.22240 -0.13254
 C374 C -0.12305 0.24904 -0.14896
 C375 C -0.10806 0.27826 -0.12973
 N376 N -0.09811 0.30735 -0.14643
 N377 N -0.08383 0.33362 -0.12933
 C378 C -0.07863 0.33162 -0.09492
 N379 N -0.08829 0.30243 -0.07829
 N380 N -0.10285 0.27630 -0.09533
 C381 C -0.06228 0.36006 -0.07563
 C382 C -0.05979 0.39335 -0.08872
 H383 H -0.12029 0.24885 -0.17655
 H384 H -0.05328 0.35491 -0.04977
 H385 H -0.14673 0.22488 -0.10546
 H386 H -0.07131 0.39919 -0.11346
 C387 C 0.11818 0.78665 -0.13235
 C388 C 0.13592 0.75938 -0.11702
 C389 C 0.11705 0.72977 -0.10228
 N390 N 0.13467 0.70053 -0.09466
 N391 N 0.11781 0.67335 -0.08179
 C392 C 0.08272 0.67451 -0.07584
 N393 N 0.06517 0.70387 -0.08310
 N394 N 0.08198 0.73096 -0.09620
 C395 C 0.06373 0.64470 -0.06175
 C396 C 0.07811 0.61185 -0.06177
 H397 H 0.16432 0.75868 -0.11744
 H398 H 0.03724 0.64845 -0.05247
 H399 H 0.08983 0.78532 -0.13452
 H400 H 0.10358 0.60769 -0.07325
 C401 C -0.12809 0.76922 0.14110
 C402 C -0.14418 0.73993 0.12749
 C403 C -0.12427 0.71288 0.10998
 N404 N -0.13978 0.68209 0.10340
 N405 N -0.12210 0.65719 0.08781
 C406 C -0.08828 0.66223 0.07803
 N407 N -0.07285 0.69313 0.08433
 N408 N -0.09047 0.71797 0.10012
 C409 C -0.06845 0.63499 0.06073
 C410 C -0.08044 0.60107 0.05948
 H411 H -0.17198 0.73563 0.13139
 H412 H -0.04327 0.64164 0.04964
 H413 H -0.09977 0.77163 0.13995
 H414 H -0.10465 0.59406 0.07226
 C415 C 1.15152 0.13326 0.77119
 C416 C 1.13449 0.14785 0.74316
 C417 C 1.12159 0.12693 0.71447
 N418 N 1.11467 0.14198 0.68385
 N419 N 1.10280 0.12335 0.65762
 C420 C 1.09719 0.08903 0.66116
 N421 N 1.10377 0.07403 0.69189
 N422 N 1.11598 0.09260 0.71803
 C423 C 1.08254 0.06861 0.63292
 C424 C 1.08319 0.08034 0.59919
 H425 H 1.13231 0.17553 0.74123
 H426 H 1.07053 0.04401 0.63890
 H427 H 1.15711 0.10599 0.77115
 H428 H 1.09764 0.10354 0.59282
 C429 C 0.86195 -0.15033 0.75734
 C430 C 0.85778 -0.11783 0.74253
 C431 C 0.87281 -0.10839 0.70919
 N432 N 0.87781 -0.07471 0.70168
 N433 N 0.89133 -0.06524 0.67172
 C434 C 0.89998 -0.08907 0.64788
 N435 N 0.89447 -0.12283 0.65511
 N436 N 0.88124 -0.13236 0.68532
 C437 C 0.91570 -0.07833 0.61514
 C438 C 0.93389 -0.04727 0.61303
 H439 H 0.84582 -0.09717 0.75669
 H440 H 0.91460 -0.09547 0.59331
 H441 H 0.87839 -0.16857 0.74402
 H442 H 0.93776 -0.03220 0.63610
 C443 C 1.13899 -0.15892 0.24511
 C444 C 1.14442 -0.12719 0.26113
 C445 C 1.12682 -0.11774 0.29315
 N446 N 1.12075 -0.08413 0.29977
 N447 N 1.10485 -0.07475 0.32854
 C448 C 1.09480 -0.09858 0.35204
 N449 N 1.10136 -0.13225 0.34574
 N450 N 1.11691 -0.14170 0.31667
 C451 C 1.07731 -0.08782 0.38380
 C452 C 1.05820 -0.05745 0.38431
 H453 H 1.15886 -0.10690 0.24842
 H454 H 1.07911 -0.10378 0.40649
 H455 H 1.12017 -0.17643 0.25666
 H456 H 1.05414 -0.04365 0.36048
 C457 C 0.84638 0.15371 0.23599
 C458 C 0.87246 0.16578 0.25826
 C459 C 0.88741 0.14336 0.28486
 N460 N 0.90162 0.15725 0.31361
 N461 N 0.91461 0.13714 0.33816
 C462 C 0.91421 0.10240 0.33467
 N463 N 0.90054 0.08851 0.30566
 N464 N 0.88718 0.10862 0.28128
 C465 C 0.92851 0.08003 0.36162
 C466 C 0.93138 0.09126 0.39536
 H467 H 0.88029 0.19252 0.25842
 H468 H 0.93571 0.05397 0.35505
 H469 H 0.83674 0.12776 0.24024
 H470 H 0.92145 0.11635 0.40224
 C471 C 0.14167 0.23210 -0.14834
 C472 C 0.15684 0.26078 -0.13276
 C473 C 0.13544 0.28749 -0.11668
 N474 N 0.15033 0.31793 -0.10773
 N475 N 0.13131 0.34223 -0.09277
 C476 C 0.09678 0.33682 -0.08595
 N477 N 0.08196 0.30625 -0.09461
 N478 N 0.10093 0.28204 -0.10978
 C479 C 0.07547 0.36344 -0.06962
 C480 C 0.08725 0.39726 -0.06689
 H481 H 0.18504 0.26423 -0.13286
 H482 H 0.04937 0.35656 -0.06092
 H483 H 0.11337 0.23080 -0.15108
 H484 H 0.11254 0.40449 -0.07736
 C485 C -0.15664 0.25300 0.15841
 C486 C -0.16368 0.26702 0.12609
 C487 C -0.14538 0.29781 0.11341
 N488 N -0.14122 0.30246 0.07920
 N489 N -0.12466 0.33018 0.06720
 C490 C -0.11206 0.35451 0.08898
 N491 N -0.11664 0.35011 0.12319
 N492 N -0.13281 0.32214 0.13523
 C493 C -0.09403 0.38532 0.07598
 C494 C -0.07700 0.38542 0.04446
 H495 H -0.18020 0.25349 0.10794
 H496 H -0.09233 0.40772 0.09237
 H497 H -0.13577 0.26474 0.17341
 H498 H -0.07539 0.36191 0.02974
 C499 C -0.13818 0.77224 -0.14302
 C500 C -0.11535 0.74753 -0.15609
 C501 C -0.10096 0.72005 -0.13428
 N502 N -0.08769 0.69133 -0.14885
 N503 N -0.07465 0.66622 -0.12946
 C504 C -0.07404 0.66904 -0.09476
 N505 N -0.08686 0.69798 -0.08018
 N506 N -0.10020 0.72297 -0.09957
 C507 C -0.05994 0.64125 -0.07317
 C508 C -0.05658 0.60798 -0.08579
 H509 H -0.10898 0.74675 -0.18302
 H510 H -0.05370 0.64665 -0.04660
 H511 H -0.14653 0.76903 -0.11666
 H512 H -0.06547 0.60230 -0.11158
 C513 C 0.13608 0.76797 0.14148
 C514 C 0.11761 0.74005 0.15494
 C515 C 0.10118 0.71402 0.13266
 N516 N 0.09114 0.68329 0.14594
 N517 N 0.07671 0.65929 0.12596
 C518 C 0.07151 0.66524 0.09201
 N519 N 0.08109 0.69617 0.07881
 N520 N 0.09576 0.72008 0.09875
 C521 C 0.05634 0.63860 0.06961
 C522 C 0.05499 0.60430 0.07981
 H523 H 0.11654 0.73611 0.18237
 H524 H 0.04792 0.64575 0.04404
 H525 H 0.13964 0.76953 0.11398
 H526 H 0.06563 0.59704 0.10455
 C527 C 0.24690 1.15631 0.85600
 C528 C 0.25623 1.12226 0.86175
 C529 C 0.28926 1.11275 0.87855
 N530 N 0.29289 1.08064 0.89147
 N531 N 0.32259 1.07139 0.90682
 C532 C 0.34991 1.09381 0.90959
 N533 N 0.34648 1.12586 0.89630
 N534 N 0.31659 1.13524 0.88119
 C535 C 0.38286 1.08318 0.92603
 C536 C 0.38338 1.05461 0.94750
 H537 H 0.23784 1.10184 0.85554
 H538 H 0.40668 1.09768 0.92108
 H539 H 0.26358 1.17679 0.86566
 H540 H 0.35883 1.04207 0.95409
 C541 C 0.22643 0.86029 1.15328
 C542 C 0.25300 0.84486 1.13440
 C543 C 0.28249 0.86484 1.12037
 N544 N 0.31213 0.84866 1.11023
 N545 N 0.33886 0.86650 1.09708
 C546 C 0.33674 0.90113 1.09333
 N547 N 0.30699 0.91726 1.10320
 N548 N 0.28041 0.89948 1.11664
 C549 C 0.36538 0.92109 1.07780
 C550 C 0.39933 0.90833 1.07477
 H551 H 0.25294 0.81725 1.13089
 H552 H 0.35966 0.94693 1.06911
 H553 H 0.22876 0.88726 1.15986
 H554 H 0.40586 0.88361 1.08578
 C555 C 0.74981 1.16446 1.15289
 C556 C 0.74338 1.12951 1.14820
 C557 C 0.71056 1.11665 1.13305
 N558 N 0.70902 1.08418 1.12060
 N559 N 0.67952 1.07211 1.10661
 C560 C 0.65038 1.09196 1.10485
 N561 N 0.65175 1.12431 1.11772
 N562 N 0.68138 1.13650 1.13146
 C563 C 0.61788 1.07879 1.08920
 C564 C 0.61847 1.05060 1.06734
 H565 H 0.76367 1.11105 1.15416
 H566 H 0.59350 1.09213 1.09389
 H567 H 0.73091 1.18292 1.14345
 H568 H 0.64338 1.03904 1.06085
 C569 C 0.78104 0.87030 0.85383
 C570 C 0.75240 0.85514 0.87011
 C571 C 0.72344 0.87573 0.88369
 N572 N 0.69184 0.86074 0.88972
 N573 N 0.66533 0.87910 0.90200
 C574 C 0.66956 0.91308 0.90893
 N575 N 0.70128 0.92800 0.90324
 N576 N 0.72770 0.90971 0.89064
 C577 C 0.64087 0.93322 0.92366
 C578 C 0.60612 0.92197 0.92210
 H579 H 0.75006 0.82738 0.87102
 H580 H 0.64728 0.95724 0.93629
 H581 H 0.78132 0.89784 0.84967
 H582 H 0.59947 0.89926 0.90734
   
