data_POSCAR
  _audit_creation_date              2014-09-24
  _audit_creation_method            'ToBaCCo'
  _symmetry_space_group_name_H-M    'P1'
  _symmetry_Int_Tables_number       1
  _symmetry_cell_setting            triclinic
  loop_
  _symmetry_equiv_pos_as_xyz
 x,y,z
_cell_length_a 22.6041
_cell_length_b 29.7176
_cell_length_c 6.8723
_cell_angle_alpha 90.019600
_cell_angle_beta 90.089200
_cell_angle_gamma 90.212600
loop_
  _atom_site_label
  _atom_site_type_symbol
  _atom_site_fract_x
  _atom_site_fract_y
  _atom_site_fract_z
O1 O 0.21429 0.29386 0.01273
 O2 O 0.32214 0.20845 0.16529
 O3 O 0.21766 0.20478 0.01539
 O4 O 0.31922 0.29582 0.16129
 O5 O 0.28400 0.29393 0.46091
 O6 O 0.17716 0.20746 0.30737
 O7 O 0.28160 0.20535 0.45731
 O8 O 0.17925 0.29514 0.31259
 Cu9 Cu 0.27213 0.25079 0.05928
 Cu10 Cu 0.22651 0.25047 0.41359
 C11 C 0.17950 0.30987 0.13967
 C12 C 0.31914 0.19152 0.33417
 C13 C 0.18049 0.19030 0.13890
 C14 C 0.31897 0.31021 0.33482
 O15 O 0.82192 0.29089 0.33011
 O16 O 0.71438 0.20450 0.47996
 O17 O 0.81990 0.20338 0.33565
 O18 O 0.71741 0.29334 0.47795
 O19 O 0.67749 0.29032 0.18459
 O20 O 0.78525 0.20478 0.03496
 O21 O 0.67985 0.20284 0.17922
 O22 O 0.78198 0.29350 0.03677
 Cu23 Cu 0.77224 0.24796 0.43524
 Cu24 Cu 0.72728 0.24776 0.07965
 C25 C 0.81906 0.30783 0.16122
 C26 C 0.67959 0.18831 0.35248
 C27 C 0.82012 0.18890 0.16233
 C28 C 0.68034 0.30737 0.35332
 O29 O 0.71633 0.79551 0.53172
 O30 O 0.82226 0.70895 0.68393
 O31 O 0.71769 0.70671 0.53614
 O32 O 0.82148 0.79604 0.68126
 O33 O 0.78450 0.79673 0.97855
 O34 O 0.67819 0.70930 0.82976
 O35 O 0.78301 0.70748 0.97807
 O36 O 0.68005 0.79671 0.83000
 Cu37 Cu 0.77329 0.75188 0.57895
 Cu38 Cu 0.72764 0.75257 0.93352
 C39 C 0.68087 0.81135 0.65701
 C40 C 0.81966 0.69270 0.85397
 C41 C 0.68074 0.69244 0.66069
 C42 C 0.82031 0.81192 0.85233
 O43 O 0.17825 0.79193 0.67543
 O44 O 0.28388 0.70470 0.52640
 O45 O 0.17864 0.70382 0.67310
 O46 O 0.28263 0.79334 0.52987
 O47 O 0.32114 0.79111 0.82535
 O48 O 0.21435 0.70403 0.97240
 O49 O 0.31933 0.70353 0.82608
 O50 O 0.21600 0.79263 0.97210
 Cu51 Cu 0.22687 0.74834 0.57212
 Cu52 Cu 0.27158 0.74779 0.92808
 C53 C 0.18007 0.80782 0.84639
 C54 C 0.31901 0.68887 0.65301
 C55 C 0.17901 0.68848 0.84521
 C56 C 0.31915 0.80779 0.65583
 C57 C 1.03442 0.04117 0.01251
 C58 C 0.97153 0.04148 0.01992
 C59 C 0.94140 0.00007 0.01352
 C60 C 0.96985 -0.04133 -0.01483
 C61 C 1.03274 -0.04177 -0.02120
 C62 C 1.06306 -0.00037 -0.01312
 H63 H 1.11028 -0.00048 -0.03127
 H64 H 0.89434 0.00002 0.03550
 C65 C 0.53335 0.54108 0.52579
 C66 C 0.47048 0.54121 0.51507
 C67 C 0.44095 0.49968 0.49737
 C68 C 0.47038 0.45821 0.48364
 C69 C 0.53331 0.45842 0.48041
 C70 C 0.56279 0.49977 0.50500
 H71 H 0.61015 0.49978 0.50793
 H72 H 0.39346 0.49963 0.49424
 C73 C -0.03342 0.45913 0.02636
 C74 C 0.02937 0.45880 0.01079
 C75 C 0.05905 0.50027 -0.00806
 C76 C 0.02976 0.54189 -0.01780
 C77 C -0.03318 0.54184 -0.01689
 C78 C -0.06271 0.50059 0.00946
 H79 H -0.11002 0.50081 0.01679
 H80 H 0.10652 0.50019 -0.01509
 C81 C 0.46688 0.95902 0.52326
 C82 C 0.52977 0.95900 0.51577
 C83 C 0.55929 1.00058 0.50053
 C84 C 0.52979 1.04199 0.48489
 C85 C 0.46692 1.04160 0.47608
 C86 C 0.43743 1.00023 0.49962
 H87 H 0.39006 1.00011 0.49945
 H88 H 0.60681 1.00071 0.50082
 C89 C 1.08276 0.12122 -0.10778
 C90 C 1.07671 0.15581 0.06106
 C91 C 1.14360 0.15322 0.09440
 C92 C 1.15050 0.11946 -0.07293
 C93 C 1.13540 0.11469 0.24068
 C94 C 1.06793 0.11668 0.20772
 C95 C 1.07360 0.08265 0.03956
 C96 C 1.14150 0.08051 0.07336
 H97 H 1.06286 0.12339 -0.25519
 H98 H 1.05089 0.18747 0.05516
 H99 H 1.18480 0.12082 -0.18831
 H100 H 1.15748 0.11199 0.38470
 H101 H 1.03656 0.11600 0.33092
 H102 H 1.17118 0.05098 0.08413
 C103 C 0.56437 0.61769 0.72234
 C104 C 0.63146 0.61590 0.76313
 C105 C 0.64137 0.65363 0.61418
 C106 C 0.57485 0.65605 0.57299
 C107 C 0.64989 0.61895 0.45140
 C108 C 0.63935 0.58086 0.60030
 C109 C 0.57182 0.58277 0.55840
 C110 C 0.58262 0.62057 0.40854
 H111 H 0.53194 0.61777 0.84256
 H112 H 0.65203 0.61403 0.90979
 H113 H 0.54927 0.68772 0.56069
 H114 H 0.68539 0.61972 0.33998
 H115 H 0.66939 0.55173 0.61821
 H116 H 0.56431 0.62202 0.25878
 C117 C -0.06395 0.38215 0.22113
 C118 C -0.13082 0.38405 0.26500
 C119 C -0.14170 0.34670 0.11477
 C120 C -0.07542 0.34418 0.07046
 C121 C -0.15085 0.38179 -0.04595
 C122 C -0.13933 0.41951 0.10420
 C123 C -0.07201 0.41749 0.05920
 C124 C -0.08382 0.38007 -0.09193
 H125 H -0.03103 0.38164 0.34019
 H126 H -0.15062 0.38566 0.41265
 H127 H -0.05014 0.31244 0.05533
 H128 H -0.18692 0.38140 -0.15579
 H129 H -0.16914 0.44867 0.12479
 H130 H -0.06635 0.37892 -0.24264
 C131 C 0.43565 0.88247 0.71968
 C132 C 0.36852 0.88432 0.75924
 C133 C 0.35866 0.84655 0.61025
 C134 C 0.42521 0.84406 0.57030
 C135 C 0.35034 0.88118 0.44718
 C136 C 0.36082 0.91931 0.59613
 C137 C 0.42838 0.91733 0.55544
 C138 C 0.41763 0.87948 0.40556
 H139 H 0.46794 0.88239 0.84060
 H140 H 0.34785 0.88627 0.90551
 H141 H 0.45077 0.81237 0.55861
 H142 H 0.31491 0.88042 0.33511
 H143 H 0.33088 0.94852 0.61349
 H144 H 0.43606 0.87795 0.25615
 C145 C -0.06520 0.61810 -0.21110
 C146 C -0.13252 0.61603 -0.24694
 C147 C -0.14128 0.65401 -0.09843
 C148 C -0.07449 0.65666 -0.06214
 C149 C -0.14891 0.61959 0.06591
 C150 C -0.13950 0.58126 -0.08263
 C151 C -0.07170 0.58344 -0.04571
 C152 C -0.08134 0.62145 0.10391
 H153 H -0.03364 0.61807 -0.33375
 H154 H -0.15406 0.61382 -0.39203
 H155 H -0.04866 0.68841 -0.05250
 H156 H -0.18368 0.62046 0.17979
 H157 H -0.16964 0.55193 -0.09775
 H158 H -0.06203 0.62321 0.25229
 C159 C 0.43618 1.11773 0.27701
 C160 C 0.36919 1.11532 0.23441
 C161 C 0.35871 1.15316 0.38220
 C162 C 0.42512 1.15621 0.42512
 C163 C 0.34998 1.11865 0.54560
 C164 C 0.36107 1.08045 0.39786
 C165 C 0.42847 1.08299 0.44163
 C166 C 0.41713 1.12092 0.59024
 H167 H 0.46895 1.11790 0.15781
 H168 H 0.34900 1.11307 0.08726
 H169 H 0.45058 1.18810 0.43722
 H170 H 0.31418 1.11926 0.65601
 H171 H 0.33130 1.05099 0.37965
 H172 H 0.43512 1.12276 0.74037
 C173 C 1.13776 -0.08519 0.00141
 C174 C 1.13032 -0.13217 0.09445
 C175 C 1.14062 -0.15375 -0.10522
 C176 C 1.14885 -0.10723 -0.19860
 C177 C 1.07418 -0.15291 -0.14972
 C178 C 1.06308 -0.13066 0.05135
 C179 C 1.07044 -0.08394 -0.04380
 C180 C 1.08195 -0.10580 -0.24347
 H181 H 1.16597 -0.05862 0.06748
 H182 H 1.15067 -0.14321 0.23356
 H183 H 1.18471 -0.09780 -0.30121
 H184 H 1.04867 -0.18132 -0.21334
 H185 H 1.03092 -0.14185 0.16207
 H186 H 1.06367 -0.09457 -0.38528
 C187 C 0.58131 0.37883 0.60051
 C188 C 0.57438 0.34359 0.43447
 C189 C 0.64118 0.34613 0.39887
 C190 C 0.64887 0.38058 0.56327
 C191 C 0.63255 0.38408 0.25021
 C192 C 0.56520 0.38214 0.28536
 C193 C 0.57179 0.41683 0.45080
 C194 C 0.63960 0.41889 0.41460
 H195 H 0.56201 0.37715 0.74870
 H196 H 0.54848 0.31187 0.44378
 H197 H 0.68362 0.37969 0.67757
 H198 H 0.65411 0.38619 0.10535
 H199 H 0.53358 0.38221 0.16250
 H200 H 0.66989 0.44814 0.40003
 C201 C 0.86261 -0.07912 -0.08362
 C202 C 0.86873 -0.11366 -0.24927
 C203 C 0.85828 -0.15174 -0.10242
 C204 C 0.85137 -0.11758 0.06326
 C205 C 0.92482 -0.15556 -0.06415
 C206 C 0.93586 -0.11685 -0.21137
 C207 C 0.93020 -0.08244 -0.04465
 C208 C 0.91878 -0.12056 0.10317
 H209 H 0.83394 -0.04910 -0.09836
 H210 H 0.84772 -0.11076 -0.39494
 H211 H 0.81626 -0.11807 0.17605
 H212 H 0.94954 -0.18769 -0.05514
 H213 H 0.96772 -0.11709 -0.33313
 H214 H 0.93763 -0.12295 0.25198
 C215 C 0.41962 0.39600 0.25596
 C216 C 0.42595 0.34825 0.34413
 C217 C 0.35945 0.34790 0.38707
 C218 C 0.35264 0.39504 0.29919
 C219 C 0.37021 0.36804 0.58946
 C220 C 0.43752 0.36909 0.54798
 C221 C 0.43156 0.41648 0.45844
 C222 C 0.36413 0.41565 0.50198
 H223 H 0.43850 0.40791 0.11608
 H224 H 0.45063 0.31997 0.27744
 H225 H 0.31719 0.40551 0.19694
 H226 H 0.34938 0.35634 0.72676
 H227 H 0.46912 0.35678 0.65826
 H228 H 0.33616 0.44174 0.57114
 C229 C 0.13604 0.58439 0.00239
 C230 C 0.14746 0.60566 -0.19914
 C231 C 0.14060 0.65251 -0.10827
 C232 C 0.13002 0.63174 0.09291
 C233 C 0.07409 0.65232 -0.15162
 C234 C 0.08042 0.60481 -0.24270
 C235 C 0.06859 0.58369 -0.04153
 C236 C 0.06267 0.63080 0.05094
 H237 H 0.16389 0.55797 0.06987
 H238 H 0.18285 0.59548 -0.30187
 H239 H 0.15083 0.64295 0.23125
 H240 H 0.04927 0.68076 -0.21662
 H241 H 0.06152 0.59333 -0.38344
 H242 H 0.03109 0.64272 0.16177
 C243 C 0.63561 1.08486 0.51446
 C244 C 0.64878 1.10539 0.31272
 C245 C 0.64099 1.15253 0.39965
 C246 C 0.62862 1.13253 0.60110
 C247 C 0.57488 1.15206 0.34976
 C248 C 0.58219 1.10427 0.26259
 C249 C 0.56859 1.08385 0.46382
 C250 C 0.56165 1.13127 0.55250
 H251 H 0.66298 1.05881 0.58659
 H252 H 0.68513 1.09489 0.21432
 H253 H 0.64816 1.14429 0.74058
 H254 H 0.55054 1.18022 0.28054
 H255 H 0.56454 1.09226 0.12091
 H256 H 0.52889 1.14348 0.65899
 C257 C 0.08141 0.39594 0.22949
 C258 C 0.07336 0.34844 0.13992
 C259 C 0.13941 0.34782 0.09027
 C260 C 0.14790 0.39475 0.17948
 C261 C 0.12720 0.36848 -0.11007
 C262 C 0.06030 0.36979 -0.06174
 C263 C 0.06796 0.41695 0.02929
 C264 C 0.13493 0.41590 -0.02109
 H265 H 0.06421 0.40768 0.37185
 H266 H 0.04885 0.32011 0.20791
 H267 H 0.18447 0.40482 0.27858
 H268 H 0.14652 0.35698 -0.24990
 H269 H 0.02737 0.35793 -0.16915
 H270 H 0.16279 0.44202 -0.09149
 C271 C 0.63573 0.91672 0.49131
 C272 C 0.64799 0.89604 0.69328
 C273 C 0.64051 0.84892 0.60519
 C274 C 0.62899 0.86912 0.40356
 C275 C 0.57421 0.84912 0.65139
 C276 C 0.58124 0.89684 0.73981
 C277 C 0.56852 0.91738 0.53823
 C278 C 0.56185 0.87003 0.44838
 H279 H 0.66353 0.94293 0.42122
 H280 H 0.68397 0.90654 0.79388
 H281 H 0.64914 0.85752 0.26516
 H282 H 0.54964 0.82076 0.71889
 H283 H 0.56312 0.90866 0.88078
 H284 H 0.52956 0.85776 0.33976
 C285 C 0.92120 0.10408 0.24604
 C286 C 0.92746 0.15174 0.15635
 C287 C 0.86098 0.15153 0.11207
 C288 C 0.85424 0.10449 0.20139
 C289 C 0.87197 0.13112 -0.08943
 C290 C 0.93925 0.13062 -0.04662
 C291 C 0.93336 0.08335 0.04451
 C292 C 0.86597 0.08365 -0.00053
 H293 H 0.94012 0.09267 0.38666
 H294 H 0.95216 0.18028 0.22236
 H295 H 0.81870 0.09392 0.30315
 H296 H 0.85123 0.14241 -0.22753
 H297 H 0.97078 0.14307 -0.15675
 H298 H 0.83848 0.05704 -0.06956
 C299 C 0.41869 0.60337 0.73820
 C300 C 0.42581 0.65111 0.65030
 C301 C 0.35956 0.65131 0.60250
 C302 C 0.35199 0.60417 0.69007
 C303 C 0.37137 0.63115 0.40103
 C304 C 0.43845 0.63024 0.44745
 C305 C 0.43169 0.58286 0.53677
 C306 C 0.36452 0.58354 0.48829
 H307 H 0.43664 0.59153 0.87953
 H308 H 0.45027 0.67946 0.71862
 H309 H 0.31589 0.59363 0.78975
 H310 H 0.35141 0.64276 0.26218
 H311 H 0.47086 0.64257 0.33968
 H312 H 0.33673 0.55740 0.41732
   
