data_POSCAR
  _audit_creation_date              2014-09-24
  _audit_creation_method            'ToBaCCo'
  _symmetry_space_group_name_H-M    'P1'
  _symmetry_Int_Tables_number       1
  _symmetry_cell_setting            triclinic
  loop_
  _symmetry_equiv_pos_as_xyz
 x,y,z
_cell_length_a 30.3524
_cell_length_b 29.4981
_cell_length_c 31.6164
_cell_angle_alpha 92.053700
_cell_angle_beta 91.217900
_cell_angle_gamma 89.301700
loop_
  _atom_site_label
  _atom_site_type_symbol
  _atom_site_fract_x
  _atom_site_fract_y
  _atom_site_fract_z
C1 C 0.30613 0.39057 1.36724
 C2 C 0.32421 0.41367 1.33319
 C3 C 0.36467 0.40053 1.31561
 C4 C 0.38800 0.36397 1.33283
 C5 C 0.37202 0.34015 1.36719
 C6 C 0.33103 0.35438 1.38427
 H7 H 0.30719 0.44220 1.31998
 H8 H 0.41805 0.35347 1.31765
 H9 H 0.31781 0.33640 1.41036
 C10 C 1.17335 0.58657 0.90619
 C11 C 1.15962 0.56600 0.86712
 C12 C 1.12537 0.58525 0.84250
 C13 C 1.10680 0.62718 0.85615
 C14 C 1.12128 0.64882 0.89393
 C15 C 1.15193 0.62676 0.92000
 H16 H 1.17640 0.53563 0.85543
 H17 H 1.08255 0.64413 0.83645
 H18 H 1.16236 0.64425 0.94903
 C19 C 0.68239 -0.09213 0.12037
 C20 C 0.65818 -0.07072 0.15317
 C21 C 0.62068 -0.09077 0.16936
 C22 C 0.60716 -0.13332 0.15267
 C23 C 0.63012 -0.15533 0.11960
 C24 C 0.66642 -0.13346 0.10257
 H25 H 0.66843 -0.03856 0.16695
 H26 H 0.57938 -0.14986 0.16626
 H27 H 0.68345 -0.14976 0.07634
 C28 C -0.18703 1.10689 -0.37413
 C29 C -0.16404 1.14290 -0.39172
 C30 C -0.12301 1.15724 -0.37446
 C31 C -0.10477 1.13497 -0.33957
 C32 C -0.12606 1.09827 -0.32248
 C33 C -0.16645 1.08408 -0.34027
 H34 H -0.17867 1.16104 -0.41780
 H35 H -0.07442 1.14699 -0.32471
 H36 H -0.18162 1.05519 -0.32694
 C37 C 0.66657 0.62929 0.63804
 C38 C 0.65138 0.61128 0.67546
 C39 C 0.61661 0.63227 0.69724
 C40 C 0.59758 0.67225 0.68210
 C41 C 0.61259 0.69154 0.64485
 C42 C 0.64684 0.66899 0.62265
 H43 H 0.66662 0.58087 0.68768
 H44 H 0.57014 0.68721 0.69911
 H45 H 0.65924 0.68288 0.59400
 C46 C 0.85545 0.40085 0.12172
 C47 C 0.87110 0.41369 0.16224
 C48 C 0.90569 0.38949 0.18123
 C49 C 0.92451 0.35195 0.15949
 C50 C 0.90983 0.33901 0.11827
 C51 C 0.87529 0.36427 0.09963
 H52 H 0.85527 0.44147 0.17968
 H53 H 0.95050 0.33274 0.17495
 H54 H 0.86113 0.35379 0.06918
 C55 C 0.30965 0.14423 0.86163
 C56 C 0.33566 0.18187 0.87419
 C57 C 0.37076 0.19512 0.84951
 C58 C 0.38007 0.17098 0.81189
 C59 C 0.35480 0.13350 0.79883
 C60 C 0.32022 0.11979 0.82394
 H61 H 0.32981 0.20049 0.90368
 H62 H 0.40712 0.18136 0.79272
 H63 H 0.30101 0.09064 0.81336
 C64 C 0.17997 0.84658 0.35774
 C65 C 0.16076 0.87184 0.32489
 C66 C 0.12108 0.85797 0.30492
 C67 C 0.09974 0.81939 0.31861
 C68 C 0.11777 0.79477 0.35188
 C69 C 0.15771 0.80816 0.37099
 H70 H 0.17718 0.90151 0.31388
 H71 H 0.06913 0.80852 0.30339
 H72 H 0.17034 0.78915 0.39738
 Zn73 Zn 0.02116 1.05207 -0.02601
 Zn74 Zn -0.02912 0.96619 -0.04181
 Zn75 Zn 0.06070 0.96449 -0.00148
 Zn76 Zn -0.01402 1.00423 0.04690
 O77 O 0.00949 0.99667 -0.00561
 O78 O -0.00682 1.06132 -0.07484
 O79 O -0.00881 0.91119 -0.05936
 O80 O 0.10637 0.99201 -0.02360
 O81 O -0.04223 0.99716 -0.08878
 O82 O 0.07794 1.05941 -0.03748
 O83 O 0.05741 0.91105 -0.02873
 O84 O 0.01828 0.97761 0.08746
 O85 O -0.08034 0.95532 -0.01715
 O86 O 0.07616 0.95236 0.05189
 O87 O -0.06863 0.98215 0.04850
 O88 O -0.01879 1.06263 0.06404
 O89 O 0.00557 1.09806 0.00877
 C90 C -0.03132 1.03674 -0.09889
 C91 C 0.02776 0.89166 -0.05140
 C92 C 0.11008 1.03160 -0.03728
 C93 C 0.05583 0.95822 0.08636
 C94 C -0.09326 0.96298 0.02040
 C95 C -0.01032 1.09886 0.04551
 Zn96 Zn 0.47786 -0.05079 0.46388
 Zn97 Zn 0.51885 -0.00413 0.53785
 Zn98 Zn 0.51763 0.04222 0.45438
 Zn99 Zn 0.43437 0.03028 0.50287
 O100 O 0.48739 0.00466 0.48944
 O101 O 0.50152 -0.09767 0.49162
 O102 O 0.56964 0.02442 0.53816
 O103 O 0.52941 0.01360 0.40365
 O104 O 0.53193 -0.06226 0.54740
 O105 O 0.50172 -0.05431 0.41370
 O106 O 0.57087 0.05952 0.47739
 O107 O 0.42758 0.08474 0.48190
 O108 O 0.49157 0.01647 0.58374
 O109 O 0.48686 0.09461 0.44385
 O110 O 0.42641 0.03825 0.55878
 O111 O 0.38867 -0.00054 0.48086
 O112 O 0.42072 -0.06241 0.45366
 C113 C 0.52359 -0.09844 0.52610
 C114 C 0.58874 0.04964 0.51277
 C115 C 0.52184 -0.02716 0.39097
 C116 C 0.44976 0.10859 0.45774
 C117 C 0.45333 0.03284 0.58949
 C118 C 0.38660 -0.03819 0.46038
 Zn119 Zn 0.93367 0.47392 0.50518
 Zn120 Zn 1.02231 0.45601 0.54913
 Zn121 Zn 1.01616 0.50120 0.46556
 Zn122 Zn 0.98446 0.55092 0.54142
 O123 O 0.98931 0.49513 0.51565
 O124 O 0.92648 0.42161 0.52933
 O125 O 1.07361 0.43645 0.52368
 O126 O 0.98469 0.48003 0.42166
 O127 O 0.99062 0.40560 0.56080
 O128 O 0.92132 0.46271 0.44986
 O129 O 1.06697 0.47162 0.46316
 O130 O 1.00744 0.59526 0.51236
 O131 O 1.03906 0.48355 0.59989
 O132 O 1.02838 0.55836 0.45409
 O133 O 1.01187 0.55272 0.59103
 O134 O 0.92895 0.56855 0.55152
 O135 O 0.89055 0.51060 0.52530
 C136 C 0.95079 0.39556 0.55101
 C137 C 1.08850 0.44608 0.48766
 C138 C 0.94577 0.46535 0.41800
 C139 C 1.02418 0.59484 0.47601
 C140 C 1.03310 0.52451 0.61315
 C141 C 0.89235 0.54931 0.54401
 Zn142 Zn 0.49620 0.48806 0.95535
 Zn143 Zn 0.56780 0.53113 1.00610
 Zn144 Zn 0.47538 0.53253 1.04030
 Zn145 Zn 0.52784 0.44616 1.03346
 O146 O 0.51661 0.49983 1.00903
 O147 O 0.52744 0.51327 0.91528
 O148 O 0.56412 0.58456 1.03362
 O149 O 0.42373 0.53923 1.01056
 O150 O 0.58216 0.54412 0.95298
 O151 O 0.44186 0.50787 0.94853
 O152 O 0.49529 0.58883 1.05608
 O153 O 0.50123 0.44197 1.08242
 O154 O 0.61468 0.50143 1.02738
 O155 O 0.46132 0.50496 1.08905
 O156 O 0.58475 0.43658 1.04406
 O157 O 0.50965 0.39825 1.00237
 O158 O 0.49152 0.42906 0.94173
 C159 C 0.56276 0.53576 0.91765
 C160 C 0.53321 0.60621 1.05212
 C161 C 0.41382 0.52690 0.97252
 C162 C 0.47438 0.46699 1.10301
 C163 C 0.61810 0.46157 1.04097
 C164 C 0.49526 0.39473 0.96454
 C165 C 1.21190 0.40089 0.43944
 C166 C 1.18298 0.42841 0.41652
 N167 N 1.19416 0.44187 0.37781
 C168 C 1.23344 0.42989 0.36085
 C169 C 1.26400 0.40291 0.38374
 N170 N 1.25157 0.38858 0.42256
 N171 N 1.19993 0.38754 0.47840
 C172 C 1.16042 0.40075 0.49528
 C173 C 1.13151 0.42868 0.47212
 N174 N 1.14394 0.44145 0.43321
 H175 H 1.23919 0.44034 0.32915
 H176 H 1.15185 0.38986 0.52634
 C177 C 0.28473 0.54217 0.92159
 C178 C 0.29453 0.55652 0.96352
 N179 N 0.26239 0.57601 0.98730
 C180 C 0.22144 0.58362 0.97059
 C181 C 0.21198 0.57167 0.92755
 N182 N 0.24397 0.54984 0.90481
 N183 N 0.31682 0.52318 0.89746
 C184 C 0.35844 0.51819 0.91321
 C185 C 0.36875 0.53307 0.95512
 N186 N 0.33622 0.55157 0.97947
 H187 H 0.19680 0.59880 0.99099
 H188 H 0.38323 0.50282 0.89299
 C189 C -0.21954 0.92204 0.05652
 C190 C -0.19578 0.95431 0.08086
 N191 N -0.21307 0.97203 0.11701
 C192 C -0.25307 0.95889 0.13029
 C193 C -0.27721 0.92550 0.10653
 N194 N -0.25916 0.90820 0.07005
 N195 N -0.20231 0.90452 0.02008
 C196 C -0.16210 0.91767 0.00711
 C197 C -0.13769 0.94927 0.03208
 N198 N -0.15538 0.96687 0.06839
 H199 H -0.26398 0.97314 0.16018
 H200 H -0.14901 0.90295 -0.02192
 C201 C 0.71438 0.09512 0.55624
 C202 C 0.68757 0.06869 0.58075
 N203 N 0.70149 0.05668 0.61964
 C204 C 0.74162 0.06896 0.63526
 C205 C 0.77013 0.09458 0.61068
 N206 N 0.75493 0.10768 0.57175
 N207 N 0.69950 0.10717 0.51719
 C208 C 0.65910 0.09369 0.50174
 C209 C 0.63246 0.06682 0.52650
 N210 N 0.64773 0.05535 0.56544
 H211 H 0.74962 0.05994 0.66728
 H212 H 0.64811 0.10357 0.47058
 C213 C 0.39232 0.23380 0.42189
 C214 C 0.43482 0.22142 0.40892
 N215 N 0.45704 0.24965 0.38435
 C216 C 0.43848 0.28910 0.37123
 C217 C 0.39475 0.30125 0.38268
 N218 N 0.37351 0.27299 0.40858
 N219 N 0.37002 0.20593 0.44676
 C220 C 0.38814 0.16605 0.45902
 C221 C 0.43063 0.15290 0.44560
 N222 N 0.45307 0.18129 0.42088
 H223 H 0.45863 0.31045 0.35281
 H224 H 0.36919 0.14458 0.47871
 C225 C 0.89223 0.27296 0.58552
 C226 C 0.93824 0.27769 0.58787
 N227 N 0.96363 0.24224 0.60043
 C228 C 0.94510 0.20264 0.61137
 C229 C 0.89884 0.19813 0.61003
 N230 N 0.87371 0.23359 0.59666
 N231 N 0.86667 0.30805 0.57278
 C232 C 0.88492 0.34770 0.56211
 C233 C 0.93105 0.35291 0.56441
 N234 N 0.95671 0.31753 0.57736
 H235 H 0.96635 0.17503 0.62107
 H236 H 0.86345 0.37498 0.55196
 C237 C 0.05706 0.75700 -0.09259
 C238 C 0.08951 0.78579 -0.07482
 N239 N 0.13120 0.77021 -0.06910
 C240 C 0.14201 0.72667 -0.07959
 C241 C 0.10948 0.69682 -0.09602
 N242 N 0.06769 0.71303 -0.10287
 N243 N 0.01536 0.77340 -0.09837
 C244 C 0.00469 0.81708 -0.08669
 C245 C 0.03715 0.84543 -0.06794
 N246 N 0.07877 0.82885 -0.06284
 H247 H 0.17588 0.71562 -0.07528
 H248 H -0.02885 0.82916 -0.09110
 C249 C 0.56413 0.74002 1.09549
 C250 C 0.59626 0.71033 1.07888
 N251 N 0.63838 0.72437 1.07613
 C252 C 0.65001 0.76707 1.08883
 C253 C 0.61792 0.79777 1.10482
 N254 N 0.57561 0.78302 1.10812
 N255 N 0.52203 0.72528 1.09860
 C256 C 0.51071 0.68224 1.08562
 C257 C 0.54296 0.65263 1.06852
 N258 N 0.58496 0.66775 1.06579
 H259 H 0.68427 0.77627 1.08723
 H260 H 0.47693 0.67150 1.08819
 C261 C 0.42624 0.41481 1.21622
 C262 C 0.41410 0.45869 1.20449
 N263 N 0.38662 0.48375 1.22969
 C264 C 0.37044 0.46675 1.26575
 C265 C 0.38195 0.42221 1.27726
 N266 N 0.40992 0.39781 1.25185
 N267 N 0.45394 0.38959 1.19172
 C268 C 0.47006 0.40609 1.15575
 C269 C 0.45779 0.44995 1.14321
 N270 N 0.42995 0.47537 1.16814
 H271 H 0.34940 0.48821 1.28524
 H272 H 0.49197 0.38478 1.13692
 C273 C 0.56599 -0.08040 0.27315
 C274 C 0.56662 -0.03341 0.28205
 N275 N 0.58207 -0.00552 0.25268
 C276 C 0.59784 -0.02256 0.21531
 C277 C 0.59890 -0.06991 0.20703
 N278 N 0.58223 -0.09742 0.23621
 N279 N 0.55039 -0.10850 0.30208
 C280 C 0.53560 -0.09187 0.33976
 C281 C 0.53686 -0.04485 0.34940
 N282 N 0.55228 -0.01659 0.32006
 H283 H 0.60966 0.00070 0.19256
 H284 H 0.52360 -0.11541 0.36222
 C285 C -0.07351 1.08885 -0.21600
 C286 C -0.08011 1.04311 -0.20737
 N287 N -0.09982 1.01550 -0.23717
 C288 C -0.11386 1.03171 -0.27496
 C289 C -0.10822 1.07789 -0.28336
 N290 N -0.08771 1.10508 -0.25352
 N291 N -0.05362 1.11653 -0.18647
 C292 C -0.03997 1.10060 -0.14857
 C293 C -0.04672 1.05483 -0.13953
 N294 N -0.06668 1.02711 -0.16937
 H295 H -0.12914 1.00869 -0.29811
 H296 H -0.02414 1.12358 -0.12570
 C297 C 1.08009 0.57589 0.73239
 C298 C 1.08332 0.52923 0.72244
 N299 N 1.10058 0.50121 0.75189
 C300 C 1.11471 0.51775 0.79066
 C301 C 1.11137 0.56469 0.80067
 N302 N 1.09400 0.59225 0.77087
 N303 N 1.06277 0.60427 0.70362
 C304 C 1.04815 0.58824 0.66524
 C305 C 1.05073 0.54140 0.65480
 N306 N 1.06857 0.51283 0.68381
 H307 H 1.12750 0.49432 0.81353
 H308 H 1.03445 0.61210 0.64316
 C309 C 0.77636 0.61366 0.58942
 C310 C 0.77783 0.56658 0.58114
 N311 N 0.74254 0.54113 0.59030
 C312 C 0.70599 0.56054 0.60777
 C313 C 0.70444 0.60767 0.61627
 N314 N 0.73972 0.63314 0.60652
 N315 N 0.81223 0.63889 0.58172
 C316 C 0.84968 0.61917 0.56647
 C317 C 0.85138 0.57199 0.55820
 N318 N 0.81510 0.54688 0.56552
 H319 H 0.67847 0.53942 0.61516
 H320 H 0.87790 0.64010 0.56102
 C321 C 0.74230 0.40898 1.07739
 C322 C 0.73468 0.45603 1.07792
 N323 N 0.76712 0.48452 1.09189
 C324 C 0.80676 0.46800 1.10564
 C325 C 0.81439 0.42088 1.10491
 N326 N 0.78188 0.39262 1.09059
 N327 N 0.70963 0.38028 1.06491
 C328 C 0.66939 0.39646 1.05304
 C329 C 0.66156 0.44355 1.05325
 N330 N 0.69460 0.47232 1.06549
 H331 H 0.83201 0.49127 1.11701
 H332 H 0.64385 0.37278 1.04328
 C333 C 0.22516 1.07217 -0.09657
 C334 C 0.20134 1.10303 -0.07094
 N335 N 0.21467 1.14667 -0.06663
 C336 C 0.25066 1.16106 -0.08699
 C337 C 0.27384 1.13063 -0.11430
 N338 N 0.26004 1.08681 -0.11811
 N339 N 0.21274 1.02814 -0.09993
 C340 C 0.17702 1.01372 -0.07925
 C341 C 0.15185 1.04504 -0.05516
 N342 N 0.16472 1.08908 -0.05151
 H343 H 0.25912 1.19649 -0.08351
 H344 H 0.16730 0.97859 -0.08301
 C345 C 0.26803 -0.08056 0.40030
 C346 C 0.29706 -0.11225 0.41828
 N347 N 0.28707 -0.15690 0.41577
 C348 C 0.24915 -0.17142 0.39646
 C349 C 0.21996 -0.13989 0.37760
 N350 N 0.23081 -0.09511 0.37975
 N351 N 0.27717 -0.03568 0.40430
 C352 C 0.31426 -0.02111 0.42519
 C353 C 0.34416 -0.05292 0.44193
 N354 N 0.33484 -0.09788 0.43791
 H355 H 0.24309 -0.20748 0.39447
 H356 H 0.32111 0.01484 0.42745
 C357 C 0.57719 -0.22065 0.57182
 C358 C 0.55788 -0.18826 0.59940
 N359 N 0.55650 -0.19622 0.64129
 C360 C 0.57335 -0.23521 0.65702
 C361 C 0.59382 -0.26779 0.62973
 N362 N 0.59536 -0.25903 0.58763
 N363 N 0.57700 -0.21341 0.52962
 C364 C 0.55864 -0.17502 0.51384
 C365 C 0.54065 -0.14180 0.54164
 N366 N 0.54083 -0.14930 0.58388
 H367 H 0.57242 -0.23928 0.69082
 H368 H 0.55920 -0.16987 0.48013
 C369 C 1.07264 0.71492 0.42684
 C370 C 1.05958 0.67864 0.39969
 N371 N 1.06353 0.68192 0.35721
 C372 C 1.08052 0.71972 0.34065
 C373 C 1.09505 0.75537 0.36792
 N374 N 1.09055 0.75207 0.41042
 N375 N 1.06804 0.71208 0.46924
 C376 C 1.05133 0.67427 0.48588
 C377 C 1.03958 0.63725 0.45892
 N378 N 1.04388 0.64046 0.41635
 H379 H 1.08407 0.72129 0.30674
 H380 H 1.04837 0.67269 0.51985
 C381 C -0.04298 1.22519 0.10393
 C382 C -0.04535 1.21867 0.05982
 N383 N -0.06081 1.25257 0.03558
 C384 C -0.07495 1.29256 0.05345
 C385 C -0.07313 1.29944 0.09793
 N386 N -0.05625 1.26543 0.12180
 N387 N -0.02941 1.19047 0.12830
 C388 C -0.01838 1.14934 0.11044
 C389 C -0.02040 1.14292 0.06619
 N390 N -0.03356 1.17799 0.04196
 H391 H -0.08639 1.31885 0.03279
 H392 H -0.00803 1.12205 0.13051
 C393 C 0.43669 0.27367 0.91855
 C394 C 0.44474 0.30896 0.89119
 N395 N 0.43010 0.30561 0.85036
 C396 C 0.40728 0.26871 0.83573
 C397 C 0.39785 0.23408 0.86346
 N398 N 0.41305 0.23736 0.90424
 N399 N 0.45149 0.27690 0.95931
 C400 C 0.47315 0.31438 0.97431
 C401 C 0.47946 0.35074 0.94754
 N402 N 0.46537 0.34684 0.90641
 H403 H 0.39544 0.26705 0.80318
 H404 H 0.48355 0.31651 1.00727
 C405 C 0.61306 0.58708 0.80534
 C406 C 0.56828 0.57651 0.80833
 N407 N 0.54032 0.58427 0.77523
 C408 C 0.55507 0.60224 0.73922
 C409 C 0.59995 0.61239 0.73588
 N410 N 0.62799 0.60435 0.76909
 N411 N 0.64066 0.58070 0.83905
 C412 C 0.62550 0.56429 0.87566
 C413 C 0.58077 0.55312 0.87855
 N414 N 0.55331 0.55946 0.84458
 H415 H 0.53212 0.60820 0.71329
 H416 H 0.64818 0.55968 0.90208
 C417 C 0.41900 0.08102 0.71161
 C418 C 0.38616 0.07221 0.68055
 N419 N 0.34330 0.08106 0.68960
 C420 C 0.33190 0.09894 0.72816
 C421 C 0.36497 0.10933 0.75868
 N422 N 0.40774 0.09985 0.74958
 N423 N 0.46177 0.07181 0.70295
 C424 C 0.47340 0.05470 0.66433
 C425 C 0.44085 0.04733 0.63255
 N426 N 0.39782 0.05610 0.64155
 H427 H 0.29762 0.10658 0.73435
 H428 H 0.50790 0.04826 0.65817
 C429 C 0.11231 0.90794 0.19904
 C430 C 0.06739 0.91975 0.19654
 N431 N 0.04132 0.91291 0.23002
 C432 C 0.05801 0.89425 0.26574
 C433 C 0.10290 0.88208 0.26827
 N434 N 0.12907 0.88959 0.23482
 N435 N 0.13805 0.91342 0.16507
 C436 C 0.12089 0.92989 0.12854
 C437 C 0.07587 0.94167 0.12584
 N438 N 0.05030 0.93653 0.16020
 H439 H 0.03642 0.88860 0.29181
 H440 H 0.14217 0.93367 0.10189
 C441 C 0.90251 0.42467 0.29491
 C442 C 0.94751 0.42809 0.30534
 N443 N 0.97798 0.41816 0.27552
 C444 C 0.96546 0.40500 0.23548
 C445 C 0.92042 0.40227 0.22464
 N446 N 0.88997 0.41228 0.25475
 N447 N 0.87216 0.43374 0.32513
 C448 C 0.88483 0.44632 0.36538
 C449 C 0.92990 0.45066 0.37561
 N450 N 0.96007 0.44134 0.34517
 H451 H 0.99038 0.39762 0.21215
 H452 H 0.86004 0.45352 0.38887
   
