data_POSCAR
  _audit_creation_date              2014-09-24
  _audit_creation_method            'ToBaCCo'
  _symmetry_space_group_name_H-M    'P1'
  _symmetry_Int_Tables_number       1
  _symmetry_cell_setting            triclinic
  loop_
  _symmetry_equiv_pos_as_xyz
 x,y,z
_cell_length_a 51.4329
_cell_length_b 51.4051
_cell_length_c 51.4392
_cell_angle_alpha 90.069100
_cell_angle_beta 90.041600
_cell_angle_gamma 89.851400
loop_
  _atom_site_label
  _atom_site_type_symbol
  _atom_site_fract_x
  _atom_site_fract_y
  _atom_site_fract_z
C1 C 0.33863 0.37934 1.36103
 C2 C 0.35713 0.38083 1.34107
 C3 C 0.37646 0.36216 1.33920
 C4 C 0.37743 0.34166 1.35714
 C5 C 0.35927 0.34028 1.37682
 C6 C 0.33956 0.35912 1.37862
 C7 C 0.31717 0.39417 1.36701
 N8 N 0.30462 0.38332 1.38769
 C9 C 0.31844 0.36177 1.39480
 C10 C 0.36459 0.31820 1.39092
 N11 N 0.38547 0.30576 1.38020
 C12 C 0.39329 0.32019 1.35938
 C13 C 0.39109 0.36798 1.31761
 N14 N 0.38099 0.38961 1.30621
 C15 C 0.36018 0.39757 1.32043
 H16 H 0.31068 0.41092 1.35604
 H17 H 0.31388 0.34887 1.41074
 H18 H 0.35315 0.31135 1.40715
 H19 H 0.40960 0.31590 1.34681
 H20 H 0.40739 0.35683 1.31026
 H21 H 0.34806 0.41424 1.31602
 C22 C 1.16034 0.62064 0.86255
 C23 C 1.14191 0.61909 0.84250
 C24 C 1.12256 0.63772 0.84056
 C25 C 1.12151 0.65826 0.85851
 C26 C 1.13960 0.65970 0.87827
 C27 C 1.15934 0.64089 0.88014
 C28 C 1.18184 0.60588 0.86857
 N29 N 1.19434 0.61680 0.88928
 C30 C 1.18045 0.63833 0.89638
 C31 C 1.13423 0.68183 0.89233
 N32 N 1.11338 0.69423 0.88148
 C33 C 1.10563 0.67973 0.86064
 C34 C 1.10805 0.63188 0.81885
 N35 N 1.11824 0.61028 0.80747
 C36 C 1.13899 0.60234 0.82180
 H37 H 1.18839 0.58915 0.85759
 H38 H 1.18498 0.65128 0.91232
 H39 H 1.14562 0.68875 0.90859
 H40 H 1.08937 0.68398 0.84799
 H41 H 1.09179 0.64303 0.81142
 H42 H 1.15118 0.58571 0.81741
 C43 C 0.66162 -0.12157 0.13758
 C44 C 0.64338 -0.12026 0.15781
 C45 C 0.62410 -0.13888 0.15965
 C46 C 0.62293 -0.15915 0.14141
 C47 C 0.64083 -0.16035 0.12148
 C48 C 0.66049 -0.14157 0.11971
 C49 C 0.68300 -0.10676 0.13156
 N50 N 0.69530 -0.11740 0.11057
 C51 C 0.68141 -0.13880 0.10330
 C52 C 0.63534 -0.18223 0.10711
 N53 N 0.61461 -0.19472 0.11793
 C54 C 0.60705 -0.18052 0.13906
 C55 C 0.60973 -0.13326 0.18150
 N56 N 0.61992 -0.11180 0.19307
 C57 C 0.64055 -0.10375 0.17871
 H58 H 0.68960 -0.09019 0.14270
 H59 H 0.68578 -0.15152 0.08712
 H60 H 0.64657 -0.18893 0.09064
 H61 H 0.59091 -0.18491 0.15177
 H62 H 0.59352 -0.14444 0.18887
 H63 H 0.65268 -0.08716 0.18319
 C64 C -0.16228 1.12388 -0.36137
 C65 C -0.14393 1.12257 -0.34122
 C66 C -0.12457 1.14112 -0.33949
 C67 C -0.12342 1.16132 -0.35776
 C68 C -0.14143 1.16251 -0.37762
 C69 C -0.16118 1.14380 -0.37928
 C70 C -0.18372 1.10909 -0.36732
 N71 N -0.19608 1.11968 -0.38830
 C72 C -0.18217 1.14102 -0.39563
 C73 C -0.13592 1.18429 -0.39206
 N74 N -0.11507 1.19674 -0.38137
 C75 C -0.10745 1.18261 -0.36023
 C76 C -0.11007 1.13550 -0.31771
 N77 N -0.12027 1.11411 -0.30609
 C78 C -0.14102 1.10610 -0.32034
 H79 H -0.19031 1.09256 -0.35615
 H80 H -0.18656 1.15368 -0.41183
 H81 H -0.14721 1.19096 -0.40851
 H82 H -0.09122 1.18697 -0.34761
 H83 H -0.09376 1.14662 -0.31044
 H84 H -0.15318 1.08956 -0.31580
 C85 C 0.67432 0.63926 0.65538
 C86 C 0.65515 0.63807 0.67470
 C87 C 0.63563 0.65660 0.67547
 C88 C 0.63496 0.67653 0.65687
 C89 C 0.65390 0.67775 0.63796
 C90 C 0.67367 0.65894 0.63710
 C91 C 0.69584 0.62419 0.65017
 N92 N 0.70827 0.63421 0.62913
 C93 C 0.69478 0.65550 0.62105
 C94 C 0.64884 0.69939 0.62311
 N95 N 0.62710 0.71156 0.63238
 C96 C 0.61858 0.69738 0.65313
 C97 C 0.62024 0.65105 0.69661
 N98 N 0.62994 0.62961 0.70872
 C99 C 0.65130 0.62155 0.69535
 H100 H 0.70183 0.60705 0.66084
 H101 H 0.70017 0.66793 0.60497
 H102 H 0.66023 0.70526 0.60649
 H103 H 0.60218 0.70203 0.66542
 H104 H 0.60321 0.66187 0.70266
 H105 H 0.66360 0.60527 0.70062
 C106 C 0.82440 0.36123 0.15587
 C107 C 0.84348 0.36237 0.17533
 C108 C 0.86301 0.34387 0.17611
 C109 C 0.86378 0.32402 0.15738
 C110 C 0.84493 0.32288 0.13834
 C111 C 0.82516 0.34171 0.13750
 C112 C 0.80301 0.37639 0.15056
 N113 N 0.79050 0.36671 0.12920
 C114 C 0.80423 0.34534 0.12125
 C115 C 0.85014 0.30137 0.12331
 N116 N 0.87188 0.28920 0.13260
 C117 C 0.88025 0.30325 0.15354
 C118 C 0.87837 0.34943 0.19731
 N119 N 0.86864 0.37087 0.20943
 C120 C 0.84729 0.37890 0.19602
 H121 H 0.79757 0.39348 0.16153
 H122 H 0.79942 0.33270 0.10517
 H123 H 0.83888 0.29560 0.10654
 H124 H 0.89662 0.29858 0.16588
 H125 H 0.89544 0.33866 0.20336
 H126 H 0.83500 0.39521 0.20125
 C127 C 0.32162 0.14065 0.84193
 C128 C 0.34001 0.14022 0.82181
 C129 C 0.35925 0.15891 0.82086
 C130 C 0.36044 0.17824 0.84009
 C131 C 0.34236 0.17857 0.85995
 C132 C 0.32282 0.15960 0.86086
 C133 C 0.30058 0.12522 0.84748
 N134 N 0.28868 0.13421 0.86949
 C135 C 0.30251 0.15536 0.87767
 C136 C 0.34807 0.19949 0.87561
 N137 N 0.36917 0.21196 0.86574
 C138 C 0.37683 0.19899 0.84397
 C139 C 0.37413 0.15385 0.79922
 N140 N 0.36443 0.13249 0.78701
 C141 C 0.34351 0.12406 0.80076
 H142 H 0.29490 0.10847 0.83614
 H143 H 0.29812 0.16750 0.89426
 H144 H 0.33770 0.20500 0.89307
 H145 H 0.39285 0.20446 0.83151
 H146 H 0.39101 0.16475 0.79306
 H147 H 0.33145 0.10761 0.79566
 C148 C 0.17742 0.86101 0.34280
 C149 C 0.15894 0.86140 0.32274
 C150 C 0.13949 0.84291 0.32204
 C151 C 0.13818 0.82383 0.34146
 C152 C 0.15632 0.82358 0.36130
 C153 C 0.17604 0.84238 0.36199
 C154 C 0.19879 0.87615 0.34800
 N155 N 0.21065 0.86730 0.37006
 C156 C 0.19652 0.84655 0.37866
 C157 C 0.15060 0.80277 0.37705
 N158 N 0.12945 0.79029 0.36725
 C159 C 0.12175 0.80315 0.34545
 C160 C 0.12460 0.84783 0.30036
 N161 N 0.13449 0.86892 0.28790
 C162 C 0.15555 0.87729 0.30151
 H163 H 0.20470 0.89266 0.33647
 H164 H 0.20099 0.83453 0.39530
 H165 H 0.16107 0.79730 0.39447
 H166 H 0.10574 0.79758 0.33299
 H167 H 0.10758 0.83703 0.29435
 H168 H 0.16779 0.89354 0.29620
 Zn169 Zn 0.00216 1.03115 -0.01662
 Zn170 Zn -0.01519 1.00107 0.02962
 Zn171 Zn -0.02156 0.97840 -0.02362
 Zn172 Zn 0.03141 0.98403 -0.00010
 O173 O -0.00084 0.99863 -0.00272
 O174 O -0.01010 1.05618 0.00432
 O175 O -0.04509 0.98375 0.03211
 O176 O -0.03190 0.99517 -0.05252
 O177 O -0.02282 1.03385 0.03871
 O178 O -0.01511 1.03433 -0.04657
 O179 O -0.05078 0.96796 -0.00753
 O180 O 0.03405 0.95443 -0.01801
 O181 O 0.00538 0.98836 0.05469
 O182 O -0.00538 0.94923 -0.03446
 O183 O 0.04006 0.97585 0.03261
 O184 O 0.05672 1.00463 -0.01195
 O185 O 0.03508 1.03978 -0.02401
 C186 C -0.02016 1.05531 0.02683
 C187 C -0.05848 0.97105 0.01574
 C188 C -0.02828 1.01842 -0.06007
 C189 C 0.01783 0.94136 -0.03122
 C190 C 0.02790 0.97824 0.05394
 C191 C 0.05630 1.02735 -0.02155
 Zn192 Zn 0.49827 -0.03020 0.48299
 Zn193 Zn 0.51500 -0.00001 0.52948
 Zn194 Zn 0.52141 0.02278 0.47636
 Zn195 Zn 0.46834 0.01653 0.49950
 O196 O 0.50079 0.00231 0.49705
 O197 O 0.51055 -0.05514 0.50398
 O198 O 0.54477 0.01752 0.53221
 O199 O 0.53207 0.00619 0.44744
 O200 O 0.52278 -0.03274 0.53856
 O201 O 0.51579 -0.03318 0.45320
 O202 O 0.55046 0.03347 0.49268
 O203 O 0.46547 0.04612 0.48164
 O204 O 0.49421 0.01255 0.55443
 O205 O 0.50497 0.05178 0.46556
 O206 O 0.45946 0.02464 0.53218
 O207 O 0.44330 -0.00438 0.48745
 O208 O 0.46554 -0.03913 0.47525
 C209 C 0.52037 -0.05422 0.52660
 C210 C 0.55810 0.03037 0.51596
 C211 C 0.52879 -0.01709 0.43981
 C212 C 0.48165 0.05939 0.46863
 C213 C 0.47159 0.02244 0.55357
 C214 C 0.44413 -0.02705 0.47767
 Zn215 Zn 0.96810 0.48546 0.49888
 Zn216 Zn 1.02108 0.47880 0.52225
 Zn217 Zn 1.01479 0.50280 0.46956
 Zn218 Zn 0.99765 0.53185 0.51660
 O219 O 1.00045 0.49968 0.50186
 O220 O 0.96530 0.45556 0.51620
 O221 O 1.05024 0.46851 0.50588
 O222 O 0.99426 0.49062 0.44424
 O223 O 1.00476 0.44959 0.53240
 O224 O 0.95951 0.47790 0.46597
 O225 O 1.04473 0.48541 0.46669
 O226 O 1.01014 0.55720 0.49642
 O227 O 1.03151 0.49476 0.55161
 O228 O 1.02230 0.53578 0.46118
 O229 O 1.01483 0.53415 0.54664
 O230 O 0.96480 0.54070 0.52407
 O231 O 0.94287 0.50612 0.51114
 C232 C 0.98147 0.44206 0.52909
 C233 C 1.05803 0.47218 0.48274
 C234 C 0.97176 0.48057 0.44473
 C235 C 1.01993 0.55690 0.47378
 C236 C 1.02794 0.51784 0.55975
 C237 C 0.94348 0.52864 0.52127
 Zn238 Zn 0.48502 0.49853 0.96953
 Zn239 Zn 0.53183 0.51599 0.99861
 Zn240 Zn 0.47903 0.52236 1.02237
 Zn241 Zn 0.50265 0.46940 1.01632
 O242 O 0.49959 0.50161 1.00174
 O243 O 0.50531 0.51079 0.94412
 O244 O 0.53464 0.54586 1.01603
 O245 O 0.44972 0.53261 1.00621
 O246 O 0.54017 0.52360 0.96568
 O247 O 0.45501 0.51583 0.96691
 O248 O 0.49532 0.55161 1.03257
 O249 O 0.48566 0.46695 1.04643
 O250 O 0.55724 0.49542 1.01063
 O251 O 0.46885 0.50626 1.05167
 O252 O 0.53562 0.46070 1.02361
 O253 O 0.49012 0.44404 0.99607
 O254 O 0.47754 0.46556 0.96107
 C255 C 0.52779 0.52090 0.94450
 C256 C 0.51853 0.55925 1.02911
 C257 C 0.44178 0.52899 0.98309
 C258 C 0.47254 0.48316 1.05967
 C259 C 0.55684 0.47290 1.02069
 C260 C 0.48011 0.44440 0.97351
 C261 C 1.23364 0.40941 0.41958
 C262 C 1.24280 0.38412 0.42456
 C263 C 1.26660 0.37563 0.41450
 C264 C 1.28183 0.39200 0.39863
 C265 C 1.27265 0.41748 0.39400
 C266 C 1.24911 0.42607 0.40450
 C267 C 1.20783 0.41819 0.42951
 C268 C 1.19235 0.43531 0.41480
 C269 C 1.16809 0.44347 0.42387
 C270 C 1.15831 0.43437 0.44770
 C271 C 1.17373 0.41720 0.46243
 C272 C 1.19823 0.40936 0.45354
 C273 C 1.13217 0.44286 0.45701
 C274 C 1.12724 0.44670 0.48368
 C275 C 1.10291 0.45552 0.49217
 C276 C 1.08316 0.46114 0.47416
 C277 C 1.08790 0.45698 0.44761
 C278 C 1.11199 0.44771 0.43916
 H279 H 1.23125 0.37052 0.43566
 H280 H 1.27227 0.35576 0.41836
 H281 H 1.28384 0.43124 0.38279
 H282 H 1.24316 0.44595 0.40089
 H283 H 1.19878 0.44222 0.39601
 H284 H 1.15710 0.45710 0.41217
 H285 H 1.16678 0.40953 0.48073
 H286 H 1.20969 0.39648 0.46563
 H287 H 1.14235 0.44355 0.49799
 H288 H 1.09982 0.45872 0.51275
 H289 H 1.07291 0.46084 0.43331
 H290 H 1.11473 0.44431 0.41858
 C291 C 0.26550 0.59104 0.92106
 C292 C 0.25624 0.61628 0.92610
 C293 C 0.23236 0.62466 0.91611
 C294 C 0.21716 0.60821 0.90023
 C295 C 0.22642 0.58276 0.89558
 C296 C 0.25003 0.57428 0.90602
 C297 C 0.29142 0.58239 0.93085
 C298 C 0.30689 0.56536 0.91601
 C299 C 0.33124 0.55733 0.92493
 C300 C 0.34114 0.56647 0.94874
 C301 C 0.32573 0.58355 0.96360
 C302 C 0.30112 0.59128 0.95485
 C303 C 0.36737 0.55811 0.95789
 C304 C 0.37250 0.55425 0.98451
 C305 C 0.39691 0.54549 0.99284
 C306 C 0.41656 0.53998 0.97470
 C307 C 0.41163 0.54418 0.94820
 C308 C 0.38746 0.55338 0.93992
 H309 H 0.26778 0.62995 0.93719
 H310 H 0.22662 0.64452 0.91999
 H311 H 0.21525 0.56893 0.88438
 H312 H 0.25605 0.55442 0.90237
 H313 H 0.30037 0.55842 0.89724
 H314 H 0.34223 0.54375 0.91315
 H315 H 0.33275 0.59125 0.98188
 H316 H 0.28967 0.60410 0.96702
 H317 H 0.35747 0.55731 0.99891
 H318 H 0.40015 0.54226 1.01339
 H319 H 0.42654 0.54040 0.93380
 H320 H 0.38457 0.55680 0.91936
 C321 C -0.23403 0.90871 0.07837
 C322 C -0.24329 0.88357 0.07302
 C323 C -0.26701 0.87509 0.08317
 C324 C -0.28204 0.89132 0.09949
 C325 C -0.27279 0.91667 0.10445
 C326 C -0.24934 0.92526 0.09387
 C327 C -0.20826 0.91744 0.06843
 C328 C -0.19262 0.93413 0.08339
 C329 C -0.16837 0.94220 0.07435
 C330 C -0.15876 0.93343 0.05028
 C331 C -0.17436 0.91671 0.03528
 C332 C -0.19885 0.90895 0.04416
 C333 C -0.13262 0.94180 0.04103
 C334 C -0.12778 0.94616 0.01445
 C335 C -0.10345 0.95495 0.00606
 C336 C -0.08360 0.95997 0.02412
 C337 C -0.08824 0.95524 0.05058
 C338 C -0.11232 0.94601 0.05890
 H339 H -0.23187 0.87006 0.06158
 H340 H -0.27274 0.85531 0.07903
 H341 H -0.28384 0.93034 0.11600
 H342 H -0.24331 0.94504 0.09777
 H343 H -0.19890 0.94077 0.10235
 H344 H -0.15724 0.95551 0.08626
 H345 H -0.16755 0.90931 0.01679
 H346 H -0.21045 0.89639 0.03189
 H347 H -0.14298 0.94347 0.00014
 H348 H -0.10044 0.95859 -0.01445
 H349 H -0.07317 0.95863 0.06490
 H350 H -0.11499 0.94219 0.07941
 C351 C 0.73319 0.09352 0.57951
 C352 C 0.74244 0.11864 0.57417
 C353 C 0.76617 0.12715 0.58433
 C354 C 0.78122 0.11096 0.60067
 C355 C 0.77195 0.08564 0.60565
 C356 C 0.74849 0.07702 0.59505
 C357 C 0.70744 0.08474 0.56949
 C358 C 0.69179 0.06804 0.58438
 C359 C 0.66759 0.05988 0.57523
 C360 C 0.65803 0.06857 0.55112
 C361 C 0.67362 0.08533 0.53620
 C362 C 0.69807 0.09317 0.54519
 C363 C 0.63196 0.06008 0.54172
 C364 C 0.62726 0.05568 0.51510
 C365 C 0.60301 0.04675 0.50657
 C366 C 0.58312 0.04162 0.52451
 C367 C 0.58762 0.04639 0.55100
 C368 C 0.61162 0.05575 0.55947
 H369 H 0.73103 0.13212 0.56270
 H370 H 0.77191 0.14691 0.58018
 H371 H 0.78300 0.07200 0.61722
 H372 H 0.74246 0.05725 0.59896
 H373 H 0.69805 0.06145 0.60336
 H374 H 0.65647 0.04657 0.58708
 H375 H 0.66686 0.09267 0.51768
 H376 H 0.70967 0.10573 0.53297
 H377 H 0.64249 0.05843 0.50087
 H378 H 0.60009 0.04308 0.48603
 H379 H 0.57252 0.04291 0.56523
 H380 H 0.61419 0.05960 0.58000
 C381 C 0.41706 0.23424 0.40527
 C382 C 0.42263 0.24393 0.38037
 C383 C 0.41260 0.26788 0.37219
 C384 C 0.39618 0.28271 0.38850
 C385 C 0.39088 0.27294 0.41357
 C386 C 0.40135 0.24927 0.42186
 C387 C 0.42713 0.20838 0.41378
 C388 C 0.41219 0.19247 0.43019
 C389 C 0.42148 0.16827 0.43828
 C390 C 0.44578 0.15895 0.42980
 C391 C 0.46071 0.17477 0.41327
 C392 C 0.45158 0.19923 0.40550
 C393 C 0.45540 0.13294 0.43835
 C394 C 0.48203 0.12848 0.44302
 C395 C 0.49074 0.10432 0.45210
 C396 C 0.47296 0.08428 0.45715
 C397 C 0.44647 0.08852 0.45210
 C398 C 0.43783 0.11243 0.44255
 H399 H 0.43423 0.23273 0.36682
 H400 H 0.41696 0.27400 0.35260
 H401 H 0.37921 0.28378 0.42730
 H402 H 0.39726 0.24290 0.44148
 H403 H 0.39309 0.19855 0.43664
 H404 H 0.40960 0.15696 0.45142
 H405 H 0.47937 0.16819 0.40607
 H406 H 0.46383 0.21102 0.39316
 H407 H 0.49612 0.14385 0.44036
 H408 H 0.51127 0.10160 0.45599
 H409 H 0.43237 0.07328 0.45550
 H410 H 0.41731 0.11479 0.43850
 C411 C 0.91692 0.26756 0.59262
 C412 C 0.92229 0.25824 0.61773
 C413 C 0.91213 0.23452 0.62622
 C414 C 0.89578 0.21955 0.61002
 C415 C 0.89069 0.22893 0.58474
 C416 C 0.90129 0.25237 0.57615
 C417 C 0.92707 0.29323 0.58380
 C418 C 0.91224 0.30898 0.56704
 C419 C 0.92155 0.33306 0.55876
 C420 C 0.94575 0.34240 0.56739
 C421 C 0.96059 0.32672 0.58421
 C422 C 0.95145 0.30239 0.59218
 C423 C 0.95530 0.36836 0.55877
 C424 C 0.98195 0.37282 0.55438
 C425 C 0.99062 0.39699 0.54541
 C426 C 0.97280 0.41705 0.54021
 C427 C 0.94628 0.41279 0.54494
 C428 C 0.93767 0.38887 0.55435
 H429 H 0.93382 0.26958 0.63119
 H430 H 0.91634 0.22869 0.64595
 H431 H 0.87909 0.21795 0.57110
 H432 H 0.89735 0.25845 0.55639
 H433 H 0.89320 0.30289 0.56048
 H434 H 0.90975 0.34426 0.54539
 H435 H 0.97918 0.33333 0.59152
 H436 H 0.96362 0.29070 0.60478
 H437 H 0.99609 0.35745 0.55721
 H438 H 1.01118 0.39973 0.54179
 H439 H 0.93212 0.42803 0.54142
 H440 H 0.91713 0.38651 0.55819
 C441 C 0.08176 0.76589 -0.09375
 C442 C 0.07626 0.75608 -0.11866
 C443 C 0.08630 0.73209 -0.12673
 C444 C 0.10265 0.71732 -0.11030
 C445 C 0.10787 0.72719 -0.08523
 C446 C 0.09739 0.75091 -0.07704
 C447 C 0.07173 0.79182 -0.08537
 C448 C 0.08667 0.80778 -0.06895
 C449 C 0.07745 0.83207 -0.06101
 C450 C 0.05322 0.84142 -0.06966
 C451 C 0.03828 0.82555 -0.08618
 C452 C 0.04734 0.80101 -0.09380
 C453 C 0.04370 0.86755 -0.06129
 C454 C 0.01708 0.87218 -0.05675
 C455 C 0.00848 0.89644 -0.04776
 C456 C 0.02636 0.91640 -0.04270
 C457 C 0.05283 0.91200 -0.04767
 C458 C 0.06136 0.88800 -0.05712
 H459 H 0.06472 0.76723 -0.13229
 H460 H 0.08200 0.72588 -0.14633
 H461 H 0.11948 0.71640 -0.07142
 H462 H 0.10143 0.75738 -0.05742
 H463 H 0.10573 0.80168 -0.06238
 H464 H 0.08933 0.84342 -0.04786
 H465 H 0.01966 0.83215 -0.09349
 H466 H 0.03509 0.78917 -0.10615
 H467 H 0.00292 0.85687 -0.05940
 H468 H -0.01204 0.89929 -0.04394
 H469 H 0.06701 0.92717 -0.04426
 H470 H 0.08188 0.88550 -0.06109
 C471 C 0.58280 0.73418 1.09224
 C472 C 0.59826 0.74936 1.07566
 C473 C 0.60880 0.77289 1.08415
 C474 C 0.60383 0.78237 1.10942
 C475 C 0.58765 0.76740 1.12573
 C476 C 0.57755 0.74359 1.11735
 C477 C 0.57271 0.70842 1.08353
 C478 C 0.54843 0.69920 1.09205
 C479 C 0.53933 0.67479 1.08417
 C480 C 0.55412 0.65910 1.06730
 C481 C 0.57823 0.66851 1.05853
 C482 C 0.58749 0.69266 1.06672
 C483 C 0.54461 0.63308 1.05875
 C484 C 0.56229 0.61263 1.05424
 C485 C 0.55371 0.58866 1.04485
 C486 C 0.52718 0.58429 1.04026
 C487 C 0.50931 0.60429 1.04557
 C488 C 0.51795 0.62851 1.05450
 H489 H 0.60211 0.74320 1.05590
 H490 H 0.62027 0.78386 1.07042
 H491 H 0.58353 0.77331 1.14547
 H492 H 0.56615 0.73227 1.13090
 H493 H 0.53629 0.71089 1.10469
 H494 H 0.52082 0.66814 1.09159
 H495 H 0.58999 0.65731 1.04512
 H496 H 0.60646 0.69880 1.06006
 H497 H 0.58285 0.61508 1.05797
 H498 H 0.56790 0.57347 1.04125
 H499 H 0.48874 0.60147 1.04204
 H500 H 0.50377 0.64383 1.05741
 C501 C 0.40804 0.42226 1.23501
 C502 C 0.42566 0.41186 1.25321
 C503 C 0.41679 0.40134 1.27661
 C504 C 0.39016 0.40129 1.28253
 C505 C 0.37257 0.41224 1.26471
 C506 C 0.38139 0.42248 1.24116
 C507 C 0.41737 0.43210 1.20946
 C508 C 0.40554 0.45371 1.19752
 C509 C 0.41393 0.46236 1.17314
 C510 C 0.43445 0.44970 1.16019
 C511 C 0.44650 0.42834 1.17234
 C512 C 0.43798 0.41957 1.19654
 C513 C 0.44322 0.45847 1.13407
 C514 C 0.45134 0.44018 1.11539
 C515 C 0.46059 0.44826 1.09122
 C516 C 0.46167 0.47482 1.08495
 C517 C 0.45295 0.49315 1.10328
 C518 C 0.44394 0.48507 1.12764
 H519 H 0.44636 0.41188 1.24943
 H520 H 0.43077 0.39339 1.29020
 H521 H 0.35191 0.41215 1.26867
 H522 H 0.36722 0.42992 1.22747
 H523 H 0.38985 0.46405 1.20704
 H524 H 0.40404 0.47872 1.16429
 H525 H 0.46265 0.41838 1.16319
 H526 H 0.44733 0.40265 1.20491
 H527 H 0.45046 0.41953 1.11938
 H528 H 0.46689 0.43363 1.07741
 H529 H 0.45366 0.51376 1.09904
 H530 H 0.43813 0.49970 1.14164
 C531 C 0.59351 -0.07952 0.26483
 C532 C 0.57576 -0.08991 0.24679
 C533 C 0.58441 -0.10032 0.22323
 C534 C 0.61097 -0.10030 0.21698
 C535 C 0.62870 -0.08941 0.23466
 C536 C 0.62009 -0.07925 0.25838
 C537 C 0.58440 -0.06966 0.29049
 C538 C 0.59616 -0.04795 0.30228
 C539 C 0.58788 -0.03917 0.32667
 C540 C 0.56752 -0.05178 0.33980
 C541 C 0.55559 -0.07328 0.32785
 C542 C 0.56401 -0.08218 0.30363
 C543 C 0.55872 -0.04272 0.36586
 C544 C 0.55075 -0.06078 0.38473
 C545 C 0.54135 -0.05242 0.40878
 C546 C 0.53997 -0.02577 0.41474
 C547 C 0.54858 -0.00767 0.39622
 C548 C 0.55774 -0.01604 0.37199
 H549 H 0.55510 -0.08992 0.25081
 H550 H 0.57031 -0.10822 0.20975
 H551 H 0.64932 -0.08944 0.23047
 H552 H 0.63437 -0.07182 0.27194
 H553 H 0.61169 -0.03762 0.29260
 H554 H 0.59767 -0.02270 0.33538
 H555 H 0.53957 -0.08321 0.33715
 H556 H 0.55473 -0.09917 0.29537
 H557 H 0.55182 -0.08148 0.38096
 H558 H 0.53513 -0.06688 0.42274
 H559 H 0.54763 0.01301 0.40020
 H560 H 0.56343 -0.00157 0.35783
 C561 C -0.09344 1.08172 -0.23457
 C562 C -0.07577 1.09201 -0.25270
 C563 C -0.08457 1.10248 -0.27618
 C564 C -0.11118 1.10261 -0.28224
 C565 C -0.12882 1.09183 -0.26445
 C566 C -0.12007 1.08163 -0.24082
 C567 C -0.08416 1.07174 -0.20901
 C568 C -0.09600 1.05011 -0.19723
 C569 C -0.08757 1.04122 -0.17294
 C570 C -0.06699 1.05362 -0.15991
 C571 C -0.05498 1.07504 -0.17186
 C572 C -0.06354 1.08406 -0.19599
 C573 C -0.05805 1.04444 -0.13394
 C574 C -0.04975 1.06240 -0.11505
 C575 C -0.04035 1.05391 -0.09105
 C576 C -0.03930 1.02725 -0.08516
 C577 C -0.04819 1.00926 -0.10371
 C578 C -0.05734 1.01775 -0.12790
 H579 H -0.05509 1.09190 -0.24883
 H580 H -0.07054 1.11030 -0.28974
 H581 H -0.14947 1.09199 -0.26851
 H582 H -0.13428 1.07428 -0.22718
 H583 H -0.11171 1.03993 -0.20683
 H584 H -0.09744 1.02483 -0.16422
 H585 H -0.03878 1.08481 -0.16265
 H586 H -0.05419 1.10098 -0.20424
 H587 H -0.05059 1.08311 -0.11875
 H588 H -0.03390 1.06828 -0.07707
 H589 H -0.04750 0.98858 -0.09978
 H590 H -0.06328 1.00336 -0.14207
 C591 C 1.09172 0.57781 0.73587
 C592 C 1.11833 0.57756 0.74225
 C593 C 1.12697 0.58773 0.76594
 C594 C 1.10925 0.59862 0.78366
 C595 C 1.08266 0.59858 0.77751
 C596 C 1.07397 0.58815 0.75398
 C597 C 1.08259 0.56812 0.71016
 C598 C 1.06211 0.58075 0.69713
 C599 C 1.05377 0.57211 0.67279
 C600 C 1.06588 0.55079 0.66061
 C601 C 1.08626 0.53802 0.67366
 C602 C 1.09447 0.54653 0.69817
 C603 C 1.05726 0.54215 0.63436
 C604 C 1.05646 0.51558 0.62777
 C605 C 1.04749 0.50762 0.60333
 C606 C 1.03891 0.52605 0.58506
 C607 C 1.04012 0.55258 0.59148
 C608 C 1.04933 0.56053 0.61573
 H609 H 1.13260 0.57017 0.72864
 H610 H 1.14760 0.58781 0.77007
 H611 H 1.06857 0.60649 0.79102
 H612 H 1.05330 0.58814 0.75001
 H613 H 1.05273 0.59765 0.70554
 H614 H 1.03771 0.58215 0.66356
 H615 H 1.09618 0.52167 0.66478
 H616 H 1.11007 0.53612 0.70777
 H617 H 1.06214 0.50087 0.64172
 H618 H 1.04667 0.48702 0.59897
 H619 H 1.03393 0.56729 0.57772
 H620 H 1.05029 0.58117 0.61985
 C621 C 0.77803 0.60472 0.59503
 C622 C 0.77301 0.60115 0.62164
 C623 C 0.75015 0.61075 0.63278
 C624 C 0.73180 0.62420 0.61760
 C625 C 0.73684 0.62776 0.59098
 C626 C 0.75967 0.61810 0.57981
 C627 C 0.80233 0.59446 0.58323
 C628 C 0.80190 0.58239 0.55870
 C629 C 0.82472 0.57235 0.54783
 C630 C 0.84848 0.57424 0.56120
 C631 C 0.84893 0.58651 0.58563
 C632 C 0.82612 0.59649 0.59653
 C633 C 0.87264 0.56305 0.54999
 C634 C 0.89638 0.57636 0.55216
 C635 C 0.91930 0.56538 0.54247
 C636 C 0.91900 0.54082 0.53042
 C637 C 0.89518 0.52770 0.52789
 C638 C 0.87226 0.53870 0.53755
 H639 H 0.78665 0.59068 0.63381
 H640 H 0.74701 0.60792 0.65338
 H641 H 0.72298 0.63778 0.57870
 H642 H 0.76310 0.62135 0.55931
 H643 H 0.78383 0.58034 0.54809
 H644 H 0.82380 0.56322 0.52887
 H645 H 0.86688 0.58801 0.59654
 H646 H 0.82712 0.60594 0.61532
 H647 H 0.89723 0.59532 0.56132
 H648 H 0.93729 0.57606 0.54466
 H649 H 0.89428 0.50873 0.51876
 H650 H 0.85433 0.52784 0.53585
 C651 C 0.72248 0.39709 1.09453
 C652 C 0.73653 0.37706 1.08241
 C653 C 0.75903 0.36694 1.09386
 C654 C 0.76829 0.37657 1.11790
 C655 C 0.75390 0.39675 1.12991
 C656 C 0.73140 0.40676 1.11841
 C657 C 0.69857 0.40788 1.08236
 C658 C 0.69347 0.43474 1.08316
 C659 C 0.67079 0.44489 1.07215
 C660 C 0.65266 0.42842 1.06003
 C661 C 0.65784 0.40158 1.05905
 C662 C 0.68054 0.39142 1.07008
 C663 C 0.62826 0.43923 1.04891
 C664 C 0.60453 0.42611 1.05209
 C665 C 0.58141 0.43681 1.04255
 C666 C 0.58149 0.46090 1.02964
 C667 C 0.60528 0.47381 1.02607
 C668 C 0.62840 0.46308 1.03558
 H669 H 0.73036 0.36945 1.06376
 H670 H 0.76920 0.35191 1.08327
 H671 H 0.75940 0.40475 1.14851
 H672 H 0.72072 0.42188 1.12851
 H673 H 0.70711 0.44797 1.09220
 H674 H 0.66724 0.46562 1.07351
 H675 H 0.64439 0.38842 1.04963
 H676 H 0.68379 0.37061 1.06935
 H677 H 0.60373 0.40786 1.06255
 H678 H 0.56341 0.42640 1.04570
 H679 H 0.60605 0.49233 1.01610
 H680 H 0.64641 0.47347 1.03245
 C681 C 0.22145 1.10320 -0.09525
 C682 C 0.22993 1.09402 -0.11949
 C683 C 0.25220 1.10420 -0.13115
 C684 C 0.26681 1.12404 -0.11895
 C685 C 0.25805 1.13311 -0.09449
 C686 C 0.23576 1.12284 -0.08289
 C687 C 0.19768 1.09236 -0.08300
 C688 C 0.17989 1.10872 -0.07016
 C689 C 0.15726 1.09855 -0.05914
 C690 C 0.15193 1.07178 -0.06068
 C691 C 0.16984 1.05541 -0.07333
 C692 C 0.19245 1.06558 -0.08434
 C693 C 0.12759 1.06097 -0.04960
 C694 C 0.12774 1.03683 -0.03679
 C695 C 0.10467 1.02612 -0.02735
 C696 C 0.08090 1.03932 -0.03044
 C697 C 0.08081 1.06369 -0.04281
 C698 C 0.10389 1.07439 -0.05229
 H699 H 0.21905 1.07921 -0.12975
 H700 H 0.25734 1.09660 -0.15002
 H701 H 0.26842 1.14784 -0.08375
 H702 H 0.22995 1.13004 -0.06397
 H703 H 0.18324 1.12948 -0.06901
 H704 H 0.14397 1.11163 -0.04930
 H705 H 0.16617 1.03476 -0.07513
 H706 H 0.20591 1.05242 -0.09383
 H707 H 0.14574 1.02621 -0.03404
 H708 H 0.10546 1.00738 -0.01779
 H709 H 0.06282 1.07434 -0.04557
 H710 H 0.10306 1.09287 -0.06233
 C711 C 0.27907 -0.10302 0.40407
 C712 C 0.27141 -0.09516 0.37913
 C713 C 0.24863 -0.10478 0.36792
 C714 C 0.23285 -0.12286 0.38126
 C715 C 0.24079 -0.13058 0.40643
 C716 C 0.26347 -0.12070 0.41766
 C717 C 0.30336 -0.09285 0.41578
 C718 C 0.30385 -0.08448 0.44180
 C719 C 0.32667 -0.07443 0.45262
 C720 C 0.34949 -0.07280 0.43772
 C721 C 0.34905 -0.08144 0.41180
 C722 C 0.32620 -0.09126 0.40092
 C723 C 0.37360 -0.06171 0.44895
 C724 C 0.39778 -0.07362 0.44435
 C725 C 0.42062 -0.06264 0.45410
 C726 C 0.41980 -0.03939 0.46851
 C727 C 0.39555 -0.02767 0.47339
 C728 C 0.37269 -0.03877 0.46380
 H729 H 0.28299 -0.08135 0.36829
 H730 H 0.24404 -0.09832 0.34850
 H731 H 0.22943 -0.14389 0.41796
 H732 H 0.26900 -0.12717 0.43692
 H733 H 0.28647 -0.08532 0.45363
 H734 H 0.32652 -0.06807 0.47270
 H735 H 0.36629 -0.08017 0.39980
 H736 H 0.32643 -0.09780 0.38090
 H737 H 0.39901 -0.09147 0.43321
 H738 H 0.43897 -0.07217 0.45001
 H739 H 0.39424 -0.00976 0.48443
 H740 H 0.35434 -0.02906 0.46744
 C741 C 0.59350 -0.21943 0.60332
 C742 C 0.61830 -0.22734 0.59521
 C743 C 0.62939 -0.25028 0.60467
 C744 C 0.61607 -0.26599 0.62282
 C745 C 0.59107 -0.25777 0.63086
 C746 C 0.57996 -0.23492 0.62114
 C747 C 0.58185 -0.19505 0.59319
 C748 C 0.55579 -0.19438 0.58499
 C749 C 0.54506 -0.17153 0.57485
 C750 C 0.56010 -0.14883 0.57295
 C751 C 0.58606 -0.14943 0.58145
 C752 C 0.59685 -0.17232 0.59137
 C753 C 0.54898 -0.12470 0.56169
 C754 C 0.55376 -0.10046 0.57334
 C755 C 0.54407 -0.07762 0.56222
 C756 C 0.52956 -0.07852 0.53906
 C757 C 0.52452 -0.10283 0.52757
 C758 C 0.53405 -0.12568 0.53883
 H759 H 0.62910 -0.21584 0.58130
 H760 H 0.64870 -0.25508 0.59799
 H761 H 0.57958 -0.26905 0.64428
 H762 H 0.56081 -0.22919 0.62781
 H763 H 0.54385 -0.21167 0.58601
 H764 H 0.52494 -0.17155 0.56861
 H765 H 0.59817 -0.13229 0.57999
 H766 H 0.61692 -0.17223 0.59776
 H767 H 0.56498 -0.09918 0.59112
 H768 H 0.54828 -0.05922 0.57157
 H769 H 0.51340 -0.10420 0.50975
 H770 H 0.53027 -0.14409 0.52931
 C771 C 1.09446 0.72185 0.39848
 C772 C 1.12073 0.72743 0.40338
 C773 C 1.13218 0.74980 0.39314
 C774 C 1.11760 0.76719 0.37784
 C775 C 1.09128 0.76157 0.37299
 C776 C 1.07986 0.73912 0.38313
 C777 C 1.08239 0.69806 0.40937
 C778 C 1.06583 0.68261 0.39409
 C779 C 1.05486 0.65994 0.40427
 C780 C 1.06007 0.65238 0.43000
 C781 C 1.07644 0.66797 0.44533
 C782 C 1.08753 0.69052 0.43511
 C783 C 1.04878 0.62816 0.44078
 C784 C 1.03884 0.62770 0.46620
 C785 C 1.02906 0.60468 0.47673
 C786 C 1.02914 0.58155 0.46212
 C787 C 1.03876 0.58209 0.43655
 C788 C 1.04842 0.60517 0.42597
 H789 H 1.13256 0.71426 0.41480
 H790 H 1.15258 0.75320 0.39688
 H791 H 1.07935 0.77470 0.36166
 H792 H 1.05948 0.73548 0.37933
 H793 H 1.06169 0.68784 0.37412
 H794 H 1.04215 0.64841 0.39207
 H795 H 1.08102 0.66249 0.46514
 H796 H 1.10002 0.70218 0.44742
 H797 H 1.03857 0.64520 0.47795
 H798 H 1.02175 0.60496 0.49647
 H799 H 1.03910 0.56462 0.42477
 H800 H 1.05618 0.60490 0.40641
 C801 C -0.09412 1.22049 0.10314
 C802 C -0.08073 1.23591 0.12119
 C803 C -0.09197 1.25867 0.13103
 C804 C -0.11695 1.26687 0.12289
 C805 C -0.13011 1.25125 0.10448
 C806 C -0.11889 1.22840 0.09490
 C807 C -0.08237 1.19617 0.09294
 C808 C -0.09732 1.17343 0.09088
 C809 C -0.08640 1.15056 0.08100
 C810 C -0.06035 1.15000 0.07279
 C811 C -0.04537 1.17273 0.07491
 C812 C -0.05624 1.19556 0.08501
 C813 C -0.04906 1.12587 0.06166
 C814 C -0.03388 1.12681 0.03899
 C815 C -0.02423 1.10394 0.02783
 C816 C -0.02939 1.07965 0.03924
 C817 C -0.04413 1.07879 0.06223
 C818 C -0.05394 1.10164 0.07325
 H819 H -0.06161 1.23020 0.12796
 H820 H -0.08059 1.26989 0.14463
 H821 H -0.14939 1.25603 0.09770
 H822 H -0.12958 1.21695 0.08082
 H823 H -0.11744 1.17329 0.09707
 H824 H -0.09846 1.13340 0.07936
 H825 H -0.02520 1.17278 0.06889
 H826 H -0.04433 1.21286 0.08623
 H827 H -0.03002 1.14520 0.02953
 H828 H -0.01293 1.10527 0.01013
 H829 H -0.04844 1.06040 0.07152
 H830 H -0.06535 1.10039 0.09090
 C831 C 0.40464 0.28010 0.89730
 C832 C 0.37834 0.27466 0.90218
 C833 C 0.36673 0.25241 0.89180
 C834 C 0.38117 0.23499 0.87639
 C835 C 0.40751 0.24047 0.87153
 C836 C 0.41909 0.26280 0.88182
 C837 C 0.41690 0.30374 0.90836
 C838 C 0.43352 0.31916 0.89316
 C839 C 0.44467 0.34170 0.90349
 C840 C 0.43958 0.34917 0.92928
 C841 C 0.42316 0.33361 0.94454
 C842 C 0.41189 0.31118 0.93417
 C843 C 0.45100 0.37331 0.94019
 C844 C 0.46104 0.37365 0.96559
 C845 C 0.47092 0.39661 0.97623
 C846 C 0.47085 0.41979 0.96174
 C847 C 0.46113 0.41935 0.93619
 C848 C 0.45138 0.39633 0.92551
 H849 H 0.36662 0.28786 0.91371
 H850 H 0.34632 0.24911 0.89555
 H851 H 0.41933 0.22731 0.86012
 H852 H 0.43948 0.26633 0.87802
 H853 H 0.43756 0.31400 0.87315
 H854 H 0.45741 0.35321 0.89136
 H855 H 0.41869 0.33902 0.96439
 H856 H 0.39937 0.29954 0.94640
 H857 H 0.46128 0.35612 0.97724
 H858 H 0.47830 0.39626 0.99595
 H859 H 0.46079 0.43686 0.92451
 H860 H 0.44354 0.39670 0.90596
 C861 C 0.60077 0.59514 0.77827
 C862 C 0.61389 0.57994 0.75969
 C863 C 0.62335 0.59121 0.73688
 C864 C 0.61985 0.61791 0.73207
 C865 C 0.60657 0.63305 0.75059
 C866 C 0.59717 0.62181 0.77342
 C867 C 0.59092 0.58328 0.80265
 C868 C 0.59334 0.59650 0.82645
 C869 C 0.58381 0.58553 0.84937
 C870 C 0.57161 0.56110 0.84901
 C871 C 0.56933 0.54780 0.82522
 C872 C 0.57891 0.55875 0.80230
 C873 C 0.56090 0.54981 0.87329
 C874 C 0.53660 0.53737 0.87321
 C875 C 0.52604 0.52764 0.89625
 C876 C 0.53955 0.53011 0.91989
 C877 C 0.56405 0.54216 0.91989
 C878 C 0.57459 0.55192 0.89685
 H879 H 0.61715 0.55939 0.76297
 H880 H 0.63324 0.57896 0.72289
 H881 H 0.60379 0.65371 0.74764
 H882 H 0.58688 0.63397 0.78722
 H883 H 0.60276 0.61529 0.82740
 H884 H 0.58562 0.59638 0.86733
 H885 H 0.56024 0.52884 0.82436
 H886 H 0.57657 0.54819 0.78423
 H887 H 0.52545 0.53571 0.85543
 H888 H 0.50710 0.51851 0.89557
 H889 H 0.57501 0.54431 0.93774
 H890 H 0.59352 0.56108 0.89747
 C891 C 0.39435 0.09796 0.71765
 C892 C 0.38135 0.08275 0.73619
 C893 C 0.37152 0.09405 0.75888
 C894 C 0.37453 0.12083 0.76358
 C895 C 0.38756 0.13602 0.74503
 C896 C 0.39733 0.12473 0.72232
 C897 C 0.40485 0.08598 0.69355
 C898 C 0.40256 0.09885 0.66957
 C899 C 0.41274 0.08776 0.64695
 C900 C 0.42549 0.06356 0.64779
 C901 C 0.42765 0.05061 0.67174
 C902 C 0.41741 0.06167 0.69437
 C903 C 0.43686 0.05213 0.62382
 C904 C 0.46140 0.04007 0.62445
 C905 C 0.47252 0.03011 0.60172
 C906 C 0.45932 0.03197 0.57785
 C907 C 0.43459 0.04367 0.57730
 C908 C 0.42350 0.05365 0.60002
 H909 H 0.37854 0.06211 0.73303
 H910 H 0.36183 0.08176 0.77289
 H911 H 0.38996 0.15673 0.74792
 H912 H 0.40750 0.13692 0.70854
 H913 H 0.39274 0.11746 0.66827
 H914 H 0.41101 0.09835 0.62884
 H915 H 0.43715 0.03182 0.67296
 H916 H 0.41969 0.05139 0.71259
 H917 H 0.47231 0.03887 0.64242
 H918 H 0.49162 0.02127 0.60283
 H919 H 0.42386 0.04534 0.55925
 H920 H 0.40440 0.06250 0.59899
 C921 C 0.10452 0.90301 0.21839
 C922 C 0.11778 0.91829 0.23675
 C923 C 0.12764 0.90712 0.25948
 C924 C 0.12440 0.88043 0.26441
 C925 C 0.11111 0.86516 0.24604
 C926 C 0.10132 0.87632 0.22328
 C927 C 0.09401 0.91486 0.19425
 C928 C 0.09608 0.90175 0.17035
 C929 C 0.08593 0.91275 0.14767
 C930 C 0.07345 0.93709 0.14838
 C931 C 0.07148 0.95026 0.17226
 C932 C 0.08168 0.93929 0.19494
 C933 C 0.06220 0.94847 0.12434
 C934 C 0.03779 0.96081 0.12489
 C935 C 0.02680 0.97077 0.10211
 C936 C 0.04000 0.96865 0.07827
 C937 C 0.06459 0.95665 0.07781
 C938 C 0.07555 0.94666 0.10058
 H939 H 0.12077 0.93886 0.23342
 H940 H 0.13752 0.91946 0.27336
 H941 H 0.10853 0.84452 0.24910
 H942 H 0.09095 0.86409 0.20963
 H943 H 0.10572 0.88303 0.16915
 H944 H 0.08751 0.90199 0.12963
 H945 H 0.06218 0.96915 0.17338
 H946 H 0.07957 0.94975 0.21310
 H947 H 0.02689 0.96224 0.14284
 H948 H 0.00781 0.97985 0.10314
 H949 H 0.07532 0.95476 0.05980
 H950 H 0.09455 0.93759 0.09962
 C951 C 0.89796 0.40565 0.27889
 C952 C 0.90156 0.37896 0.27409
 C953 C 0.89209 0.36761 0.25129
 C954 C 0.87876 0.38267 0.23277
 C955 C 0.87524 0.40939 0.23753
 C956 C 0.88477 0.42076 0.26031
 C957 C 0.90790 0.41764 0.30321
 C958 C 0.91989 0.44217 0.30277
 C959 C 0.92956 0.45325 0.32564
 C960 C 0.92739 0.44007 0.34946
 C961 C 0.91520 0.41563 0.34992
 C962 C 0.90559 0.40454 0.32706
 C963 C 0.93821 0.45148 0.37368
 C964 C 0.92464 0.44947 0.39730
 C965 C 0.93531 0.45931 0.42028
 C966 C 0.95983 0.47134 0.42017
 C967 C 0.97321 0.47372 0.39647
 C968 C 0.96251 0.46392 0.37349
 H969 H 0.91190 0.36687 0.28790
 H970 H 0.89488 0.34695 0.24837
 H971 H 0.86531 0.42157 0.22353
 H972 H 0.88150 0.44132 0.26355
 H973 H 0.92215 0.45264 0.28466
 H974 H 0.93864 0.47221 0.32470
 H975 H 0.91348 0.40486 0.36791
 H976 H 0.89618 0.38575 0.32808
 H977 H 0.90572 0.44031 0.39800
 H978 H 0.92446 0.45722 0.43818
 H979 H 0.99215 0.48284 0.39570
 H980 H 0.97357 0.46550 0.35566
   
