data_POSCAR
  _audit_creation_date              2014-09-24
  _audit_creation_method            'ToBaCCo'
  _symmetry_space_group_name_H-M    'P1'
  _symmetry_Int_Tables_number       1
  _symmetry_cell_setting            triclinic
  loop_
  _symmetry_equiv_pos_as_xyz
 x,y,z
_cell_length_a 32.4530
_cell_length_b 32.2205
_cell_length_c 32.5544
_cell_angle_alpha 81.117100
_cell_angle_beta 86.055300
_cell_angle_gamma 86.390100
loop_
  _atom_site_label
  _atom_site_type_symbol
  _atom_site_fract_x
  _atom_site_fract_y
  _atom_site_fract_z
O1 O 0.52883 0.50957 -0.02200
 O2 O 0.41460 0.51384 -0.01971
 O3 O 0.47313 0.45440 -0.02075
 O4 O 0.47068 0.56875 -0.02019
 O5 O 0.47370 0.57963 -0.08896
 O6 O 0.47524 0.46523 -0.08949
 O7 O 0.41754 0.52520 -0.08844
 O8 O 0.53135 0.51990 -0.09077
 Cu9 Cu 0.47146 0.51053 -0.01376
 Cu10 Cu 0.47468 0.52355 -0.09628
 C11 C 0.54950 0.51407 -0.05688
 C12 C 0.39660 0.52037 -0.05380
 C13 C 0.47467 0.44034 -0.05522
 C14 C 0.47209 0.59365 -0.05449
 O15 O -0.06626 0.54590 0.50275
 O16 O -0.06827 0.43051 0.51463
 O17 O -0.07566 0.48594 0.56563
 O18 O -0.05818 0.49041 0.45204
 O19 O 0.00933 0.48513 0.45850
 O20 O -0.00814 0.48039 0.57196
 O21 O -0.00075 0.42515 0.52093
 O22 O 0.00120 0.54044 0.50926
 Cu23 Cu -0.07389 0.48873 0.50815
 Cu24 Cu 0.00718 0.48223 0.51587
 C25 C -0.03220 0.56288 0.50399
 C26 C -0.03483 0.40821 0.51952
 C27 C -0.04483 0.48250 0.58812
 C28 C -0.02143 0.48847 0.43596
 O29 O 0.53135 0.02898 0.56250
 O30 O 0.54076 0.04063 0.44799
 O31 O 0.47946 0.04255 0.50375
 O32 O 0.59258 0.02654 0.50679
 O33 O 0.58730 -0.04202 0.51092
 O34 O 0.47460 -0.02592 0.50672
 O35 O 0.53591 -0.02788 0.45125
 O36 O 0.52566 -0.03940 0.56586
 Cu37 Cu 0.53660 0.04157 0.50489
 Cu38 Cu 0.53041 -0.04069 0.50893
 C39 C 0.52681 -0.00718 0.58374
 C40 C 0.53978 0.00842 0.43011
 C41 C 0.45779 0.01094 0.50473
 C42 C 0.60912 -0.01051 0.50968
 C43 C 0.53109 0.12124 -0.07369
 C44 C 0.53235 0.09494 -0.10305
 C45 C 0.52822 0.05459 -0.08165
 N46 N 0.52398 0.05560 -0.04021
 C47 C 0.52544 0.09635 -0.03520
 C48 C 0.52966 0.01788 -0.10066
 C49 C 0.52861 -0.02357 -0.07838
 C50 C 0.54055 -0.05941 -0.09586
 C51 C 0.53582 -0.09312 -0.06500
 C52 C 0.52117 -0.07725 -0.02920
 N53 N 0.51670 -0.03471 -0.03759
 C54 C 0.51301 -0.10261 0.00981
 C55 C 0.51017 -0.08726 0.04838
 C56 C 0.50542 -0.11225 0.08691
 C57 C 0.50663 -0.08627 0.11629
 C58 C 0.51133 -0.04598 0.09489
 N59 N 0.51359 -0.04675 0.05337
 C60 C 0.51263 -0.00962 0.11412
 C61 C 0.51323 0.03203 0.09222
 C62 C 0.50412 0.06774 0.11081
 C63 C 0.50633 0.10166 0.07981
 C64 C 0.51665 0.08606 0.04282
 N65 N 0.52126 0.04350 0.05073
 C66 C 0.52091 0.11176 0.00342
 H67 H 0.53415 0.15489 -0.08023
 H68 H 0.53635 0.10461 -0.13635
 H69 H 0.53201 0.02366 0.02966
 H70 H 0.55253 -0.06123 -0.12742
 H71 H 0.54351 -0.12562 -0.06842
 H72 H 0.50194 -0.14585 0.09343
 H73 H 0.50406 -0.09613 0.14963
 H74 H 0.50005 0.13416 0.08407
 H75 H 0.50310 -0.01489 -0.01760
 H76 H 0.49550 0.06933 0.14325
 C77 C -0.09139 0.53992 0.89614
 C78 C -0.12458 0.54401 0.92399
 C79 C -0.11098 0.52866 0.96315
 N80 N -0.07066 0.51539 0.96017
 C81 C -0.05865 0.52217 0.91922
 C82 C -0.13590 0.52518 1.00074
 C83 C -0.11904 0.51785 1.04027
 C84 C -0.14152 0.50616 1.07762
 C85 C -0.11478 0.50496 1.10878
 C86 C -0.07664 0.51597 1.08967
 N87 N -0.07951 0.52381 1.04789
 C88 C -0.04129 0.52094 1.11114
 C89 C -0.00113 0.52420 1.09154
 C90 C 0.03294 0.53635 1.10929
 C91 C 0.06610 0.53278 1.08133
 C92 C 0.05115 0.51882 1.04729
 N93 N 0.01007 0.51352 1.05363
 C94 C 0.07564 0.50892 1.01221
 C95 C 0.05812 0.50020 0.97601
 C96 C 0.07892 0.47984 0.94554
 C97 C 0.05213 0.48038 0.91450
 C98 C 0.01553 0.50070 0.92700
 N99 N 0.01938 0.51260 0.96457
 C100 C -0.01908 0.51032 0.90251
 H101 H -0.09139 0.54920 0.86274
 H102 H -0.15510 0.55708 0.91626
 H103 H -0.00148 0.53236 0.97912
 H104 H -0.17392 0.49943 1.08204
 H105 H -0.12266 0.49715 1.14181
 H106 H 0.03389 0.54676 1.13925
 H107 H 0.09756 0.53980 1.08558
 H108 H 0.05892 0.46741 0.88588
 H109 H -0.05715 0.53710 1.02630
 H110 H 0.11023 0.46613 0.94549
 C111 C 0.13853 -0.10234 0.50906
 C112 C 0.10861 -0.13000 0.50695
 C113 C 0.07085 -0.10820 0.51204
 N114 N 0.07669 -0.06829 0.51751
 C115 C 0.11807 -0.06460 0.51552
 C116 C 0.03198 -0.12586 0.51340
 C117 C -0.00597 -0.10164 0.51343
 C118 C -0.04451 -0.11796 0.52354
 C119 C -0.07331 -0.08489 0.51681
 C120 C -0.05162 -0.04899 0.50358
 N121 N -0.01059 -0.05960 0.50128
 C122 C -0.06978 -0.00829 0.49101
 C123 C -0.04744 0.02852 0.48490
 C124 C -0.06291 0.06816 0.46811
 C125 C -0.03320 0.09568 0.47158
 C126 C -0.00081 0.07199 0.49079
 N127 N -0.00959 0.03100 0.49889
 C128 C 0.03487 0.08843 0.50322
 C129 C 0.06996 0.06291 0.51628
 C130 C 0.10202 0.07622 0.53622
 C131 C 0.13101 0.04318 0.54156
 C132 C 0.11594 0.01064 0.52459
 N133 N 0.07868 0.02288 0.50929
 C134 C 0.13763 -0.02828 0.52148
 H135 H 0.17157 -0.10934 0.50622
 H136 H 0.11409 -0.16242 0.50210
 H137 H 0.06260 0.00661 0.49089
 H138 H -0.05138 -0.15041 0.53423
 H139 H -0.10644 -0.08748 0.52076
 H140 H -0.09271 0.07654 0.45525
 H141 H -0.03547 0.12931 0.46150
 H142 H 0.15996 0.04319 0.55619
 H143 H 0.01247 -0.04013 0.48760
 H144 H 0.10438 0.10663 0.54585
 C145 C -0.40496 0.51267 0.94127
 C146 C -0.38262 0.50974 0.97687
 C147 C -0.33679 0.50923 0.97583
 C148 C -0.31795 0.52026 1.00986
 C149 C -0.27486 0.52002 1.01027
 C150 C -0.24955 0.50853 0.97653
 C151 C -0.26836 0.49655 0.94294
 C152 C -0.31147 0.49694 0.94245
 C153 C -0.20372 0.50704 0.97597
 C154 C -0.18172 0.52973 0.99962
 H155 H -0.39953 0.50975 1.00676
 H156 H -0.33668 0.52917 1.03628
 H157 H -0.26171 0.52799 1.03747
 H158 H -0.24960 0.48686 0.91689
 H159 H -0.32462 0.48683 0.91626
 H160 H -0.18650 0.48770 0.95557
 H161 H -0.38898 0.51556 0.91078
 H162 H -0.19813 0.54922 1.02027
 C163 C 0.35351 0.52244 0.94603
 C164 C 0.32765 0.51629 0.98241
 C165 C 0.28184 0.51842 0.98223
 C166 C 0.25894 0.49697 1.01620
 C167 C 0.21569 0.49810 1.01713
 C168 C 0.19425 0.52136 0.98416
 C169 C 0.21726 0.54328 0.95048
 C170 C 0.26048 0.54197 0.94949
 C171 C 0.14839 0.52357 0.98312
 C172 C 0.12136 0.50507 1.01509
 H173 H 0.34140 0.50761 1.01216
 H174 H 0.27461 0.47879 1.04195
 H175 H 0.19968 0.48044 1.04368
 H176 H 0.20172 0.56167 0.92476
 H177 H 0.27684 0.56004 0.92334
 H178 H 0.13495 0.54116 0.95569
 H179 H 0.34000 0.52822 0.91606
 H180 H 0.13304 0.48990 1.04422
 C181 C -0.03203 -0.39340 0.49959
 C182 C 0.00407 -0.37236 0.50132
 C183 C 0.00506 -0.32605 0.49786
 C184 C 0.03856 -0.30910 0.51331
 C185 C 0.04066 -0.26563 0.51109
 C186 C 0.00917 -0.23810 0.49319
 C187 C -0.02367 -0.25496 0.47655
 C188 C -0.02582 -0.29847 0.47886
 C189 C 0.00994 -0.19187 0.49053
 C190 C 0.03152 -0.17232 0.51717
 H191 H 0.03276 -0.39069 0.50751
 H192 H 0.06315 -0.32960 0.52740
 H193 H 0.06732 -0.25392 0.52284
 H194 H -0.04793 -0.23439 0.46195
 H195 H -0.05138 -0.31011 0.46519
 H196 H -0.00857 -0.17234 0.46778
 H197 H -0.06131 -0.37572 0.49565
 H198 H 0.05020 -0.19090 0.54027
 C199 C -0.03597 0.36225 0.52304
 C200 C -0.00007 0.33602 0.52645
 C201 C 0.00067 0.28993 0.52692
 C202 C 0.03837 0.26868 0.51747
 C203 C 0.04046 0.22537 0.51662
 C204 C 0.00466 0.20231 0.52530
 C205 C -0.03278 0.22333 0.53606
 C206 C -0.03486 0.26665 0.53689
 C207 C 0.00507 0.15651 0.52417
 C208 C 0.03601 0.13437 0.50321
 H209 H 0.02934 0.35023 0.52636
 H210 H 0.06634 0.28573 0.51036
 H211 H 0.07025 0.21030 0.50964
 H212 H -0.06066 0.20619 0.54358
 H213 H -0.06425 0.28143 0.54579
 H214 H -0.02103 0.13956 0.53925
 H215 H -0.06560 0.34942 0.52089
 H216 H 0.06290 0.14983 0.48828
 C217 C 0.52294 -0.01211 -0.37287
 C218 C 0.52502 0.02151 -0.35069
 C219 C 0.52090 0.01690 -0.30463
 C220 C 0.53773 0.04697 -0.28467
 C221 C 0.53437 0.04386 -0.24127
 C222 C 0.51381 0.01057 -0.21691
 C223 C 0.49605 -0.01886 -0.23693
 C224 C 0.49958 -0.01587 -0.28031
 C225 C 0.50922 0.00616 -0.17090
 C226 C 0.53581 0.02323 -0.14681
 H227 H 0.53174 0.05227 -0.36759
 H228 H 0.55368 0.07293 -0.30273
 H229 H 0.54724 0.06802 -0.22716
 H230 H 0.47946 -0.04439 -0.21891
 H231 H 0.48489 -0.03881 -0.29455
 H232 H 0.48485 -0.01287 -0.15503
 H233 H 0.51901 -0.04350 -0.35620
 H234 H 0.56089 0.04180 -0.16153
 C235 C 0.54295 0.01385 0.38433
 C236 C 0.53763 -0.01913 0.36231
 C237 C 0.53869 -0.01399 0.31624
 C238 C 0.51844 -0.04259 0.29728
 C239 C 0.51834 -0.03855 0.25390
 C240 C 0.53878 -0.00580 0.22853
 C241 C 0.56006 0.02203 0.24747
 C242 C 0.55999 0.01812 0.29084
 C243 C 0.53961 -0.00034 0.18248
 C244 C 0.50991 -0.01553 0.16040
 H245 H 0.52996 -0.04946 0.37958
 H246 H 0.50240 -0.06802 0.31614
 H247 H 0.50283 -0.06156 0.24055
 H248 H 0.57664 0.04708 0.22861
 H249 H 0.57719 0.03989 0.30418
 H250 H 0.56375 0.01788 0.16501
 H251 H 0.54767 0.04516 0.36785
 H252 H 0.48491 -0.03314 0.17675
 C253 C 0.47215 -0.36064 -0.05482
 C254 C 0.47366 -0.34323 -0.01827
 C255 C 0.47579 -0.29754 -0.01748
 C256 C 0.49101 -0.28440 0.01746
 C257 C 0.49395 -0.24164 0.01937
 C258 C 0.48152 -0.21103 -0.01374
 C259 C 0.46517 -0.22412 -0.04814
 C260 C 0.46236 -0.26689 -0.05011
 C261 C 0.48423 -0.16539 -0.01322
 C262 C 0.51116 -0.14876 0.01089
 H263 H 0.47561 -0.36423 0.01102
 H264 H 0.50091 -0.30734 0.04333
 H265 H 0.50535 -0.23290 0.04710
 H266 H 0.45474 -0.20115 -0.07374
 H267 H 0.44910 -0.27558 -0.07693
 H268 H 0.46557 -0.14371 -0.03415
 H269 H 0.47281 -0.34071 -0.08477
 H270 H 0.53074 -0.16939 0.03162
 C271 C 0.47585 0.39473 -0.05596
 C272 C 0.47913 0.36545 -0.01979
 C273 C 0.48151 0.31935 -0.01956
 C274 C 0.49960 0.29319 0.01367
 C275 C 0.50259 0.24953 0.01500
 C276 C 0.48723 0.23110 -0.01691
 C277 C 0.46804 0.25717 -0.04950
 C278 C 0.46529 0.30085 -0.05097
 C279 C 0.48971 0.18503 -0.01670
 C280 C 0.51989 0.15795 0.00328
 H281 H 0.48225 0.37677 0.00945
 H282 H 0.51168 0.30660 0.03861
 H283 H 0.51626 0.23044 0.04141
 H284 H 0.45536 0.24368 -0.07408
 H285 H 0.44984 0.31982 -0.07634
 H286 H 0.46812 0.17202 -0.03460
 H287 H 0.47565 0.38426 -0.08596
 H288 H 0.54194 0.16988 0.02137
 C289 C -0.34599 -0.01757 0.51228
 C290 C -0.31940 0.01542 0.50464
 C291 C -0.27439 0.00858 0.50851
 C292 C -0.24758 0.03500 0.48258
 C293 C -0.20480 0.02901 0.48547
 C294 C -0.18825 -0.00316 0.51492
 C295 C -0.21512 -0.02866 0.54179
 C296 C -0.25783 -0.02311 0.53845
 C297 C -0.14332 -0.01002 0.51912
 C298 C -0.11469 -0.00325 0.48525
 H299 H -0.33164 0.04690 0.49344
 H300 H -0.25976 0.06004 0.45977
 H301 H -0.18485 0.05004 0.46521
 H302 H -0.20297 -0.05320 0.56513
 H303 H -0.27783 -0.04313 0.55977
 H304 H -0.13242 -0.02274 0.54949
 H305 H -0.33359 -0.04966 0.51959
 H306 H -0.12480 0.00886 0.45448
 C307 C 0.41266 0.01737 0.50355
 C308 C 0.38743 -0.01646 0.50538
 C309 C 0.34182 -0.01219 0.50484
 C310 C 0.31927 -0.04806 0.51815
 C311 C 0.27620 -0.04581 0.51784
 C312 C 0.25473 -0.00743 0.50414
 C313 C 0.27731 0.02826 0.49001
 C314 C 0.32042 0.02603 0.49036
 C315 C 0.20922 -0.00372 0.50262
 C316 C 0.18284 -0.03201 0.52626
 H317 H 0.40173 -0.04802 0.50887
 H318 H 0.33505 -0.07803 0.52881
 H319 H 0.26017 -0.07443 0.52754
 H320 H 0.26151 0.05803 0.47865
 H321 H 0.33663 0.05411 0.47854
 H322 H 0.19570 0.02287 0.48248
 H323 H 0.39944 0.04916 0.50223
 H324 H 0.19517 -0.05878 0.54685
 C325 C -0.01387 0.48981 1.39074
 C326 C -0.04616 0.49336 1.36401
 C327 C -0.03983 0.49419 1.31839
 C328 C -0.07222 0.51024 1.29311
 C329 C -0.06774 0.51137 1.24996
 C330 C -0.03060 0.49632 1.23114
 C331 C 0.00142 0.47934 1.25650
 C332 C -0.00303 0.47828 1.29965
 C333 C -0.02448 0.49658 1.18560
 C334 C -0.04743 0.52292 1.15639
 H335 H -0.07763 0.49704 1.37692
 H336 H -0.10114 0.52201 1.30682
 H337 H -0.09377 0.52331 1.23181
 H338 H 0.03007 0.46690 1.24285
 H339 H 0.02216 0.46426 1.31805
 H340 H -0.00004 0.47589 1.17440
 H341 H 0.01795 0.48850 1.37855
 H342 H -0.07223 0.54377 1.16639
 C343 C -0.05212 0.48136 0.63336
 C344 C -0.01951 0.47846 0.65968
 C345 C -0.02499 0.47960 0.70508
 C346 C 0.00912 0.48821 0.72603
 C347 C 0.00543 0.49030 0.76868
 C348 C -0.03268 0.48381 0.79139
 C349 C -0.06647 0.47390 0.77074
 C350 C -0.06279 0.47183 0.72804
 C351 C -0.03825 0.48639 0.83649
 C352 C -0.01260 0.50833 0.85728
 H353 H 0.01187 0.47735 0.64599
 H354 H 0.03878 0.49360 0.70927
 H355 H 0.03269 0.49644 0.78358
 H356 H -0.09599 0.46806 0.78765
 H357 H -0.08951 0.46368 0.71353
 H358 H -0.06463 0.47179 0.85382
 H359 H -0.08382 0.48442 0.64553
 H360 H 0.01419 0.52293 0.84105
   
