data_POSCAR
  _audit_creation_date              2014-09-24
  _audit_creation_method            'ToBaCCo'
  _symmetry_space_group_name_H-M    'P1'
  _symmetry_Int_Tables_number       1
  _symmetry_cell_setting            triclinic
  loop_
  _symmetry_equiv_pos_as_xyz
 x,y,z
_cell_length_a 44.7293
_cell_length_b 44.9881
_cell_length_c 45.2039
_cell_angle_alpha 90.155300
_cell_angle_beta 90.153400
_cell_angle_gamma 90.105900
loop_
  _atom_site_label
  _atom_site_type_symbol
  _atom_site_fract_x
  _atom_site_fract_y
  _atom_site_fract_z
N1 N 0.29937 0.23862 0.21532
 N2 N 0.28762 0.26298 0.20439
 C3 C 0.30278 0.27075 0.17991
 C4 C 0.32533 0.25018 0.17518
 C5 C 0.32241 0.23010 0.19819
 H6 H 0.29733 0.28960 0.16616
 H7 H 0.33590 0.21061 0.20218
 Cu8 Cu 0.25295 0.28186 0.22230
 Cu9 Cu 0.28346 0.21939 0.25041
 Cu10 Cu 0.22017 0.25035 0.28161
 N11 N 0.21637 0.29773 0.23939
 N12 N 0.20374 0.28540 0.26251
 C13 C 0.17862 0.30033 0.26920
 C14 C 0.17511 0.32334 0.24915
 C15 C 0.19960 0.32093 0.23053
 H16 H 0.16370 0.29439 0.28699
 H17 H 0.20474 0.33483 0.21176
 N18 N 0.23999 0.21489 0.29786
 N19 N 0.26414 0.20314 0.28598
 C20 C 0.27186 0.17882 0.30150
 C21 C 0.25157 0.17494 0.32429
 C22 C 0.23169 0.19833 0.32124
 H23 H 0.29050 0.16457 0.29613
 H24 H 0.21243 0.20286 0.33488
 H25 H 0.24009 0.23379 0.24361
 H26 H 0.26412 0.25669 0.26882
 N27 N 0.70170 -0.24025 0.21469
 N28 N 0.71302 -0.26507 0.20436
 C29 C 0.69817 -0.27291 0.17959
 C30 C 0.67619 -0.25183 0.17394
 C31 C 0.67923 -0.23144 0.19691
 H32 H 0.70341 -0.29236 0.16656
 H33 H 0.66639 -0.21145 0.20048
 Cu34 Cu 0.74667 -0.28473 0.22343
 Cu35 Cu 0.71726 -0.22091 0.25003
 Cu36 Cu 0.77981 -0.25208 0.28243
 N37 N 0.78353 -0.30000 0.24061
 N38 N 0.79624 -0.28731 0.26362
 C39 C 0.82150 -0.30199 0.27039
 C40 C 0.82512 -0.32528 0.25045
 C41 C 0.80037 -0.32320 0.23188
 H42 H 0.83627 -0.29567 0.28827
 H43 H 0.79506 -0.33715 0.21310
 N44 N 0.76002 -0.21642 0.29832
 N45 N 0.73616 -0.20455 0.28594
 C46 C 0.72838 -0.18009 0.30130
 C47 C 0.74833 -0.17625 0.32451
 C48 C 0.76808 -0.19980 0.32187
 H49 H 0.70994 -0.16573 0.29554
 H50 H 0.78708 -0.20441 0.33591
 H51 H 0.76041 -0.23638 0.24385
 H52 H 0.73587 -0.25813 0.26938
 N53 N 0.70145 0.23974 0.78408
 N54 N 0.71324 0.26433 0.79469
 C55 C 0.69833 0.27230 0.81930
 C56 C 0.67594 0.25161 0.82443
 C57 C 0.67865 0.23127 0.80152
 H58 H 0.70389 0.29133 0.83287
 H59 H 0.66522 0.21161 0.79786
 Cu60 Cu 0.74769 0.28316 0.77628
 Cu61 Cu 0.71713 0.22005 0.74909
 Cu62 Cu 0.77998 0.25098 0.71695
 N63 N 0.78401 0.29907 0.75864
 N64 N 0.79639 0.28652 0.73548
 C65 C 0.82143 0.30145 0.72842
 C66 C 0.82527 0.32475 0.74836
 C67 C 0.80086 0.32242 0.76720
 H68 H 0.83595 0.29526 0.71039
 H69 H 0.79584 0.33629 0.78608
 N70 N 0.76020 0.21505 0.70134
 N71 N 0.73620 0.20332 0.71356
 C72 C 0.72847 0.17865 0.69842
 C73 C 0.74860 0.17452 0.67554
 C74 C 0.76839 0.19812 0.67812
 H75 H 0.70994 0.16435 0.70412
 H76 H 0.78752 0.20255 0.66426
 H77 H 0.76055 0.23488 0.75526
 H78 H 0.73619 0.25721 0.73008
 N79 N 0.29872 -0.23851 0.78412
 N80 N 0.28682 -0.26284 0.79499
 C81 C 0.30190 -0.27061 0.81958
 C82 C 0.32454 -0.25006 0.82446
 C83 C 0.32177 -0.23000 0.80139
 H84 H 0.29630 -0.28942 0.83331
 H85 H 0.33533 -0.21050 0.79751
 Cu86 Cu 0.25200 -0.28158 0.77691
 Cu87 Cu 0.28285 -0.21919 0.74899
 Cu88 Cu 0.21949 -0.25020 0.71732
 N89 N 0.21551 -0.29762 0.75949
 N90 N 0.20302 -0.28536 0.73624
 C91 C 0.17791 -0.30034 0.72930
 C92 C 0.17417 -0.32339 0.74939
 C93 C 0.19868 -0.32085 0.76822
 H94 H 0.16332 -0.29439 0.71120
 H95 H 0.20382 -0.33452 0.78716
 N96 N 0.23938 -0.21465 0.70133
 N97 N 0.26355 -0.20286 0.71337
 C98 C 0.27128 -0.17846 0.69797
 C99 C 0.25096 -0.17457 0.67511
 C100 C 0.23108 -0.19803 0.67797
 H101 H 0.28992 -0.16416 0.70348
 H102 H 0.21182 -0.20258 0.66422
 H103 H 0.23935 -0.23357 0.75536
 H104 H 0.26334 -0.25652 0.73040
 N105 N 0.70257 -0.23881 0.78541
 N106 N 0.71520 -0.26249 0.79686
 C107 C 0.70030 -0.27033 0.82146
 C108 C 0.67701 -0.25047 0.82576
 C109 C 0.67921 -0.23078 0.80234
 H110 H 0.70640 -0.28868 0.83557
 H111 H 0.66510 -0.21182 0.79796
 Cu112 Cu 0.75067 -0.27998 0.77914
 Cu113 Cu 0.71799 -0.21951 0.75008
 Cu114 Cu 0.78112 -0.25040 0.71802
 N115 N 0.78612 -0.29709 0.76101
 N116 N 0.79781 -0.28543 0.73709
 C117 C 0.82245 -0.30077 0.72963
 C118 C 0.82671 -0.32340 0.75008
 C119 C 0.80298 -0.32028 0.76965
 H120 H 0.83638 -0.29531 0.71095
 H121 H 0.79847 -0.33351 0.78903
 N122 N 0.76095 -0.21496 0.70207
 N123 N 0.73693 -0.20324 0.71427
 C124 C 0.72905 -0.17886 0.69894
 C125 C 0.74907 -0.17490 0.67595
 C126 C 0.76897 -0.19830 0.67868
 H127 H 0.71054 -0.16458 0.70459
 H128 H 0.78809 -0.20273 0.66482
 H129 H 0.73777 -0.25687 0.73212
 H130 H 0.76200 -0.23256 0.75565
 N131 N 0.29793 0.23813 0.78625
 N132 N 0.28557 0.26203 0.79760
 C133 C 0.30074 0.27003 0.82214
 C134 C 0.32389 0.25003 0.82645
 C135 C 0.32135 0.23009 0.80315
 H136 H 0.29493 0.28859 0.83618
 H137 H 0.33536 0.21103 0.79882
 Cu138 Cu 0.25021 0.27954 0.77968
 Cu139 Cu 0.28216 0.21864 0.75092
 Cu140 Cu 0.21925 0.25005 0.71858
 N141 N 0.21497 0.29709 0.76158
 N142 N 0.20313 0.28553 0.73752
 C143 C 0.17877 0.30127 0.72992
 C144 C 0.17496 0.32394 0.75038
 C145 C 0.19843 0.32056 0.77017
 H146 H 0.16444 0.29601 0.71134
 H147 H 0.20301 0.33402 0.78949
 N148 N 0.23892 0.21414 0.70286
 N149 N 0.26285 0.20225 0.71515
 C150 C 0.27043 0.17768 0.69988
 C151 C 0.25029 0.17376 0.67686
 C152 C 0.23064 0.19739 0.67948
 H153 H 0.28884 0.16327 0.70558
 H154 H 0.21156 0.20196 0.66553
 H155 H 0.26272 0.25602 0.73271
 H156 H 0.23828 0.23215 0.75618
 N157 N 0.29852 -0.23807 0.21422
 N158 N 0.28616 -0.26207 0.20291
 C159 C 0.30127 -0.27005 0.17842
 C160 C 0.32436 -0.24995 0.17408
 C161 C 0.32187 -0.22996 0.19734
 H162 H 0.29539 -0.28864 0.16437
 H163 H 0.33581 -0.21077 0.20159
 Cu164 Cu 0.25074 -0.27956 0.22066
 Cu165 Cu 0.28271 -0.21844 0.24934
 Cu166 Cu 0.21959 -0.24976 0.28127
 N167 N 0.21540 -0.29708 0.23854
 N168 N 0.20341 -0.28535 0.26234
 C169 C 0.17887 -0.30096 0.26968
 C170 C 0.17511 -0.32377 0.24931
 C171 C 0.19879 -0.32058 0.22986
 H172 H 0.16439 -0.29553 0.28800
 H173 H 0.20345 -0.33413 0.21066
 N174 N 0.23933 -0.21378 0.29702
 N175 N 0.26336 -0.20194 0.28490
 C176 C 0.27098 -0.17730 0.30015
 C177 C 0.25077 -0.17331 0.32298
 C178 C 0.23104 -0.19694 0.32027
 H179 H 0.28948 -0.16293 0.29455
 H180 H 0.21189 -0.20146 0.33406
 H181 H 0.26312 -0.25574 0.26758
 H182 H 0.23884 -0.23204 0.24374
 N183 N 0.70092 0.23908 0.21719
 N184 N 0.71126 0.26489 0.20832
 C185 C 0.69667 0.27307 0.18359
 C186 C 0.67595 0.25119 0.17650
 C187 C 0.67936 0.22996 0.19844
 H188 H 0.70126 0.29323 0.17146
 H189 H 0.66717 0.20933 0.20065
 Cu190 Cu 0.74314 0.28523 0.22948
 Cu191 Cu 0.71661 0.21898 0.25201
 Cu192 Cu 0.77960 0.24998 0.28433
 N193 N 0.78141 0.29938 0.24421
 N194 N 0.79548 0.28564 0.26571
 C195 C 0.82143 0.29975 0.27124
 C196 C 0.82390 0.32371 0.25213
 C197 C 0.79795 0.32270 0.23527
 H198 H 0.83751 0.29266 0.28763
 H199 H 0.79155 0.33760 0.21766
 N200 N 0.75999 0.21396 0.29974
 N201 N 0.73597 0.20219 0.28740
 C202 C 0.72828 0.17755 0.30241
 C203 C 0.74846 0.17347 0.32535
 C204 C 0.76823 0.19710 0.32293
 H205 H 0.70969 0.16331 0.29662
 H206 H 0.78735 0.20162 0.33690
 H207 H 0.73488 0.25528 0.27362
 H208 H 0.75894 0.23623 0.24558
 C209 C 0.24311 0.02676 0.56277
 C210 C 0.24316 -0.00039 0.57765
 C211 C 0.24316 -0.02730 0.56218
 C212 C 0.24295 -0.02732 0.53092
 C213 C 0.24291 0.00014 0.51553
 C214 C 0.24297 0.02734 0.53152
 C215 C 0.24306 0.05430 0.51584
 C216 C 0.24328 0.05457 0.48503
 C217 C 0.24339 0.02789 0.46875
 C218 C 0.24311 0.00042 0.48413
 C219 C 0.24296 -0.05400 0.51464
 C220 C 0.24312 -0.05373 0.48382
 C221 C 0.24330 -0.02677 0.46815
 C222 C 0.24384 -0.02620 0.43690
 C223 C 0.24412 0.00096 0.42203
 C224 C 0.24395 0.02787 0.43749
 H225 H 0.24304 0.07546 0.52731
 H226 H 0.24342 0.07593 0.47403
 H227 H 0.24288 -0.07536 0.52563
 H228 H 0.24317 -0.07489 0.47236
 H229 H 0.24350 -0.00059 0.60167
 H230 H 0.24473 0.00115 0.39802
 C231 C 0.75537 -0.02848 0.43771
 C232 C 0.75531 -0.00153 0.42245
 C233 C 0.75545 0.02559 0.43755
 C234 C 0.75574 0.02608 0.46880
 C235 C 0.75585 -0.00115 0.48457
 C236 C 0.75569 -0.02857 0.46897
 C237 C 0.75571 -0.05530 0.48504
 C238 C 0.75573 -0.05510 0.51586
 C239 C 0.75572 -0.02817 0.53174
 C240 C 0.75584 -0.00094 0.51597
 C241 C 0.75576 0.05301 0.48469
 C242 C 0.75574 0.05320 0.51550
 C243 C 0.75570 0.02648 0.53157
 C244 C 0.75538 0.02638 0.56283
 C245 C 0.75531 -0.00056 0.57809
 C246 C 0.75544 -0.02768 0.56299
 H247 H 0.75565 -0.07662 0.47389
 H248 H 0.75568 -0.07629 0.52715
 H249 H 0.75574 0.07420 0.47340
 H250 H 0.75569 0.07453 0.52666
 H251 H 0.75489 -0.00167 0.39843
 H252 H 0.75489 -0.00043 0.60210
 C253 C 0.43827 0.24432 0.02761
 C254 C 0.42270 0.24440 0.00079
 C255 C 0.43782 0.24457 -0.02620
 C256 C 0.46940 0.24454 -0.02668
 C257 C 0.48548 0.24447 0.00043
 C258 C 0.46986 0.24434 0.02772
 C259 C 0.48624 0.24440 0.05432
 C260 C 0.51738 0.24473 0.05413
 C261 C 0.53329 0.24501 0.02733
 C262 C 0.51721 0.24478 0.00023
 C263 C 0.48531 0.24472 -0.05347
 C264 C 0.51645 0.24497 -0.05366
 C265 C 0.53282 0.24509 -0.02706
 C266 C 0.56441 0.24565 -0.02695
 C267 C 0.57999 0.24587 -0.00013
 C268 C 0.56487 0.24562 0.02685
 H269 H 0.47509 0.24423 0.07555
 H270 H 0.52891 0.24481 0.07522
 H271 H 0.47378 0.24471 -0.07456
 H272 H 0.52759 0.24515 -0.07489
 H273 H 0.39843 0.24457 0.00091
 H274 H 0.60425 0.24644 -0.00026
 C275 C 0.43733 0.75623 -0.02723
 C276 C 0.42196 0.75606 -0.00039
 C277 C 0.43728 0.75595 0.02657
 C278 C 0.46887 0.75611 0.02699
 C279 C 0.48475 0.75629 -0.00015
 C280 C 0.46892 0.75638 -0.02740
 C281 C 0.48510 0.75647 -0.05404
 C282 C 0.51624 0.75630 -0.05392
 C283 C 0.53235 0.75603 -0.02717
 C284 C 0.51649 0.75611 -0.00003
 C285 C 0.48499 0.75595 0.05374
 C286 C 0.51614 0.75577 0.05386
 C287 C 0.53231 0.75576 0.02723
 C288 C 0.56390 0.75525 0.02704
 C289 C 0.57926 0.75518 0.00018
 C290 C 0.56394 0.75553 -0.02677
 H291 H 0.47379 0.75661 -0.07524
 H292 H 0.52760 0.75632 -0.07504
 H293 H 0.47362 0.75589 0.07486
 H294 H 0.52746 0.75558 0.07506
 H295 H 0.39769 0.75577 -0.00047
 H296 H 0.60352 0.75462 0.00026
 C297 C -0.02762 0.56250 0.23944
 C298 C -0.00044 0.57782 0.23960
 C299 C 0.02676 0.56264 0.23922
 C300 C 0.02709 0.53124 0.23854
 C301 C -0.00038 0.51541 0.23835
 C302 C -0.02789 0.53109 0.23875
 C303 C -0.05485 0.51496 0.23870
 C304 C -0.05481 0.48400 0.23848
 C305 C -0.02781 0.46803 0.23833
 C306 C -0.00034 0.48386 0.23814
 C307 C 0.05409 0.51526 0.23828
 C308 C 0.05413 0.48430 0.23809
 C309 C 0.02717 0.46817 0.23815
 C310 C 0.02690 0.43676 0.23847
 C311 C -0.00028 0.42145 0.23863
 C312 C -0.02748 0.43663 0.23863
 H313 H -0.07625 0.52617 0.23891
 H314 H -0.07618 0.47266 0.23852
 H315 H 0.07546 0.52661 0.23830
 H316 H 0.07552 0.47308 0.23799
 H317 H -0.00043 0.60194 0.24039
 H318 H -0.00028 0.39732 0.23918
 C319 C -0.02693 0.56334 0.75931
 C320 C 0.00030 0.57855 0.75930
 C321 C 0.02744 0.56328 0.75946
 C322 C 0.02763 0.53187 0.75980
 C323 C 0.00009 0.51615 0.75980
 C324 C -0.02735 0.53194 0.75957
 C325 C -0.05439 0.51593 0.75940
 C326 C -0.05449 0.48497 0.75924
 C327 C -0.02757 0.46888 0.75927
 C328 C -0.00003 0.48460 0.75966
 C329 C 0.05455 0.51579 0.75993
 C330 C 0.05445 0.48483 0.75982
 C331 C 0.02741 0.46882 0.75955
 C332 C 0.02701 0.43742 0.75897
 C333 C -0.00022 0.42220 0.75861
 C334 C -0.02737 0.43747 0.75869
 H335 H -0.07573 0.52725 0.75930
 H336 H -0.07591 0.47372 0.75903
 H337 H 0.07597 0.52705 0.76004
 H338 H 0.07579 0.47353 0.75985
 H339 H 0.00037 0.60268 0.75880
 H340 H -0.00028 0.39807 0.75792
 C341 C 0.38660 0.24721 0.10202
 C342 C 0.37003 0.27294 0.10763
 C343 C 0.35039 0.27403 0.13159
 C344 C 0.34697 0.24932 0.15033
 C345 C 0.36408 0.22367 0.14473
 C346 C 0.38371 0.22263 0.12070
 C347 C 0.40563 0.24580 0.07644
 C348 C 0.42089 0.24494 0.05451
 H349 H 0.37208 0.29210 0.09329
 H350 H 0.33793 0.29426 0.13532
 H351 H 0.36200 0.20417 0.15852
 H352 H 0.39634 0.20254 0.11650
 C353 C 0.61619 0.75134 0.10125
 C354 C 0.63626 0.72774 0.10404
 C355 C 0.65587 0.72651 0.12812
 C356 C 0.65586 0.74901 0.14996
 C357 C 0.63517 0.77252 0.14697
 C358 C 0.61559 0.77364 0.12281
 C359 C 0.59694 0.75300 0.07574
 C360 C 0.58149 0.75417 0.05388
 H361 H 0.63694 0.71035 0.08742
 H362 H 0.67106 0.70789 0.12922
 H363 H 0.63402 0.79034 0.16299
 H364 H 0.60015 0.79207 0.12084
 C365 C 0.61570 0.24879 -0.10160
 C366 C 0.61854 0.22405 -0.12017
 C367 C 0.63784 0.22503 -0.14445
 C368 C 0.65466 0.25081 -0.15042
 C369 C 0.65131 0.27569 -0.13177
 C370 C 0.63199 0.27465 -0.10755
 C371 C 0.59690 0.24743 -0.07586
 C372 C 0.58175 0.24650 -0.05386
 H373 H 0.60611 0.20386 -0.11569
 H374 H 0.63990 0.20539 -0.15812
 H375 H 0.66358 0.29602 -0.13578
 H376 H 0.62997 0.29395 -0.09330
 C377 C 0.38544 0.75313 -0.10176
 C378 C 0.38307 0.77748 -0.12080
 C379 C 0.36356 0.77636 -0.14502
 C380 C 0.34606 0.75085 -0.15047
 C381 C 0.34895 0.72637 -0.13135
 C382 C 0.36847 0.72755 -0.10718
 C383 C 0.40446 0.75461 -0.07608
 C384 C 0.41978 0.75553 -0.05411
 H385 H 0.39604 0.79745 -0.11674
 H386 H 0.36190 0.79569 -0.15909
 H387 H 0.33617 0.70625 -0.13492
 H388 H 0.37012 0.70857 -0.09257
 C389 C 0.10156 0.38469 0.24358
 C390 C 0.12282 0.38361 0.22096
 C391 C 0.14694 0.36393 0.22286
 C392 C 0.15008 0.34496 0.24742
 C393 C 0.12870 0.34655 0.27018
 C394 C 0.10465 0.36622 0.26823
 C395 C 0.07598 0.40393 0.24125
 C396 C 0.05398 0.41931 0.23973
 H397 H 0.12058 0.39774 0.20171
 H398 H 0.16278 0.36336 0.20484
 H399 H 0.13038 0.33261 0.28956
 H400 H 0.08830 0.36684 0.28587
 C401 C 0.10192 0.61574 0.75442
 C402 C 0.10292 0.63680 0.73179
 C403 C 0.12686 0.65667 0.72993
 C404 C 0.15039 0.65594 0.75080
 C405 C 0.14923 0.63422 0.77330
 C406 C 0.12518 0.61438 0.77507
 C407 C 0.07648 0.59627 0.75675
 C408 C 0.05453 0.58077 0.75824
 H409 H 0.08499 0.63807 0.71568
 H410 H 0.12651 0.67263 0.71212
 H411 H 0.16661 0.63249 0.78985
 H412 H 0.12459 0.59815 0.79273
 C413 C -0.10226 0.61452 0.24507
 C414 C -0.10321 0.63580 0.26761
 C415 C -0.12727 0.65544 0.26959
 C416 C -0.15099 0.65425 0.24893
 C417 C -0.14990 0.63230 0.22654
 C418 C -0.12572 0.61269 0.22464
 C419 C -0.07671 0.59528 0.24259
 C420 C -0.05470 0.57992 0.24092
 H421 H -0.08515 0.63741 0.28356
 H422 H -0.12688 0.67156 0.28734
 H423 H -0.16744 0.63022 0.21017
 H424 H -0.12520 0.59629 0.20706
 C425 C -0.10213 0.38529 0.75332
 C426 C -0.10332 0.36403 0.73077
 C427 C -0.12740 0.34429 0.72890
 C428 C -0.15087 0.34536 0.74970
 C429 C -0.14955 0.36731 0.77209
 C430 C -0.12536 0.38702 0.77387
 C431 C -0.07653 0.40460 0.75569
 C432 C -0.05450 0.42000 0.75728
 H433 H -0.08543 0.36248 0.71472
 H434 H -0.12719 0.32817 0.71115
 H435 H -0.16691 0.36932 0.78856
 H436 H -0.12465 0.40342 0.79146
 C437 C 0.24800 0.10233 0.38600
 C438 C 0.27350 0.10682 0.36873
 C439 C 0.27484 0.13064 0.34900
 C440 C 0.25059 0.15035 0.34616
 C441 C 0.22520 0.14588 0.36398
 C442 C 0.22392 0.12200 0.38372
 C443 C 0.24622 0.07684 0.40510
 C444 C 0.24502 0.05491 0.42032
 H445 H 0.29226 0.09169 0.37028
 H446 H 0.29487 0.13343 0.33596
 H447 H 0.20603 0.16040 0.36239
 H448 H 0.20400 0.11866 0.39689
 C449 C 0.75182 0.10103 0.61447
 C450 C 0.77596 0.12075 0.61654
 C451 C 0.77481 0.14488 0.63609
 C452 C 0.74948 0.14957 0.65395
 C453 C 0.72519 0.12977 0.65137
 C454 C 0.72640 0.10570 0.63181
 C455 C 0.75342 0.07539 0.59544
 C456 C 0.75447 0.05340 0.58018
 H457 H 0.79582 0.11727 0.60331
 H458 H 0.79402 0.15945 0.63751
 H459 H 0.70521 0.13272 0.66445
 H460 H 0.70758 0.09055 0.63042
 C461 C 0.24726 -0.10181 0.61361
 C462 C 0.27287 -0.10635 0.63081
 C463 C 0.27425 -0.13021 0.65049
 C464 C 0.24994 -0.14992 0.65333
 C465 C 0.22443 -0.14538 0.63557
 C466 C 0.22311 -0.12146 0.61590
 C467 C 0.24543 -0.07628 0.59456
 C468 C 0.24421 -0.05434 0.57935
 H469 H 0.29169 -0.09124 0.62925
 H470 H 0.29437 -0.13306 0.66349
 H471 H 0.20520 -0.15988 0.63719
 H472 H 0.20310 -0.11808 0.60278
 C473 C 0.75155 -0.10318 0.38611
 C474 C 0.77546 -0.12311 0.38444
 C475 C 0.77428 -0.14715 0.36476
 C476 C 0.74916 -0.15153 0.34638
 C477 C 0.72505 -0.13158 0.34865
 C478 C 0.72629 -0.10760 0.36833
 C479 C 0.75326 -0.07753 0.40514
 C480 C 0.75439 -0.05551 0.42038
 H481 H 0.79518 -0.11985 0.39804
 H482 H 0.79333 -0.16188 0.36364
 H483 H 0.70520 -0.13430 0.33520
 H484 H 0.70765 -0.09230 0.36944
 C485 C 0.61598 0.75230 -0.10088
 C486 C 0.63411 0.72741 -0.10532
 C487 C 0.65367 0.72634 -0.12935
 C488 C 0.65544 0.75025 -0.14931
 C489 C 0.63678 0.77504 -0.14483
 C490 C 0.61723 0.77604 -0.12076
 C491 C 0.59689 0.75376 -0.07536
 C492 C 0.58153 0.75472 -0.05352
 H493 H 0.63333 0.70890 -0.09004
 H494 H 0.66738 0.70677 -0.13212
 H495 H 0.63754 0.79393 -0.15955
 H496 H 0.60335 0.79548 -0.11746
 C497 C 0.38537 0.24762 -0.10030
 C498 C 0.36846 0.27316 -0.10570
 C499 C 0.34875 0.27410 -0.12971
 C500 C 0.34565 0.24943 -0.14871
 C501 C 0.36312 0.22399 -0.14332
 C502 C 0.38280 0.22311 -0.11925
 C503 C 0.40454 0.24630 -0.07474
 C504 C 0.42002 0.24538 -0.05290
 H505 H 0.37029 0.29228 -0.09117
 H506 H 0.33596 0.29416 -0.13327
 H507 H 0.36123 0.20451 -0.15726
 H508 H 0.39571 0.20317 -0.11519
 C509 C 0.38535 0.75270 0.10075
 C510 C 0.36836 0.72714 0.10609
 C511 C 0.34885 0.72613 0.13015
 C512 C 0.34598 0.75073 0.14923
 C513 C 0.36350 0.77619 0.14388
 C514 C 0.38300 0.77714 0.11976
 C515 C 0.40435 0.75408 0.07517
 C516 C 0.41968 0.75506 0.05331
 H517 H 0.37002 0.70807 0.09150
 H518 H 0.33604 0.70604 0.13368
 H519 H 0.36182 0.79562 0.15790
 H520 H 0.39598 0.79709 0.11576
 C521 C 0.61683 0.24849 0.10132
 C522 C 0.62033 0.22332 0.11907
 C523 C 0.63937 0.22422 0.14364
 C524 C 0.65525 0.25035 0.15077
 C525 C 0.65135 0.27560 0.13284
 C526 C 0.63229 0.27464 0.10830
 C527 C 0.59799 0.24732 0.07551
 C528 C 0.58263 0.24645 0.05357
 H529 H 0.60853 0.20292 0.11378
 H530 H 0.64187 0.20427 0.15669
 H531 H 0.66293 0.29618 0.13767
 H532 H 0.62975 0.29426 0.09468
 C533 C -0.10127 0.61571 0.75447
 C534 C -0.10289 0.63626 0.73141
 C535 C -0.12680 0.65610 0.72974
 C536 C -0.14964 0.65586 0.75124
 C537 C -0.14788 0.63462 0.77416
 C538 C -0.12387 0.61480 0.77573
 C539 C -0.07583 0.59634 0.75665
 C540 C -0.05391 0.58087 0.75808
 H541 H -0.08547 0.63716 0.71483
 H542 H -0.12694 0.67168 0.71159
 H543 H -0.16473 0.63326 0.79118
 H544 H -0.12279 0.59896 0.79372
 C545 C -0.10204 0.38441 0.24471
 C546 C -0.12528 0.38529 0.22397
 C547 C -0.14954 0.36577 0.22647
 C548 C -0.15083 0.34505 0.24976
 C549 C -0.12741 0.34466 0.27064
 C550 C -0.10324 0.36416 0.26808
 C551 C -0.07650 0.40367 0.24188
 C552 C -0.05452 0.41909 0.24009
 H553 H -0.12454 0.40086 0.20574
 H554 H -0.16699 0.36676 0.20991
 H555 H -0.12756 0.32931 0.28899
 H556 H -0.08534 0.36329 0.28426
 C557 C 0.10187 0.38569 0.75468
 C558 C 0.12078 0.38209 0.77910
 C559 C 0.14487 0.36237 0.77760
 C560 C 0.15029 0.34590 0.75163
 C561 C 0.13140 0.35011 0.72705
 C562 C 0.10738 0.36985 0.72860
 C563 C 0.07612 0.40468 0.75660
 C564 C 0.05404 0.41995 0.75789
 H565 H 0.11664 0.39417 0.79945
 H566 H 0.15876 0.35962 0.79702
 H567 H 0.13504 0.33813 0.70660
 H568 H 0.09288 0.37249 0.70955
 C569 C 0.10168 0.61457 0.24419
 C570 C 0.12128 0.61750 0.22031
 C571 C 0.14546 0.63719 0.22210
 C572 C 0.15029 0.65432 0.24780
 C573 C 0.13066 0.65081 0.27184
 C574 C 0.10655 0.63110 0.27000
 C575 C 0.07592 0.59550 0.24197
 C576 C 0.05383 0.58017 0.24049
 H577 H 0.11767 0.60485 0.20018
 H578 H 0.15992 0.63934 0.20309
 H579 H 0.13378 0.66330 0.29209
 H580 H 0.09151 0.62898 0.28863
 C581 C 0.75207 -0.10191 0.61474
 C582 C 0.77605 -0.12174 0.61645
 C583 C 0.77496 -0.14575 0.63602
 C584 C 0.74984 -0.15018 0.65424
 C585 C 0.72568 -0.13030 0.65195
 C586 C 0.72683 -0.10635 0.63238
 C587 C 0.75362 -0.07638 0.59572
 C588 C 0.75462 -0.05449 0.58045
 H589 H 0.79575 -0.11844 0.60294
 H590 H 0.79405 -0.16041 0.63717
 H591 H 0.70584 -0.13306 0.66528
 H592 H 0.70813 -0.09111 0.63123
 C593 C 0.24741 -0.10021 0.38443
 C594 C 0.27284 -0.10472 0.36709
 C595 C 0.27408 -0.12866 0.34737
 C596 C 0.24981 -0.14846 0.34466
 C597 C 0.22445 -0.14390 0.36250
 C598 C 0.22327 -0.11990 0.38221
 C599 C 0.24582 -0.07476 0.40370
 C600 C 0.24476 -0.05296 0.41920
 H601 H 0.29165 -0.08957 0.36861
 H602 H 0.29409 -0.13152 0.33431
 H603 H 0.20525 -0.15847 0.36098
 H604 H 0.20341 -0.11653 0.39546
 C605 C 0.75182 0.09999 0.38599
 C606 C 0.77556 0.12023 0.38479
 C607 C 0.77435 0.14437 0.36539
 C608 C 0.74935 0.14856 0.34685
 C609 C 0.72543 0.12826 0.34861
 C610 C 0.72671 0.10417 0.36801
 C611 C 0.75348 0.07436 0.40488
 C612 C 0.75456 0.05243 0.42009
 H613 H 0.79517 0.11715 0.39857
 H614 H 0.79325 0.15936 0.36465
 H615 H 0.70569 0.13078 0.33501
 H616 H 0.70820 0.08861 0.36875
 C617 C 0.24674 0.10077 0.61528
 C618 C 0.22265 0.12042 0.61741
 C619 C 0.22390 0.14440 0.63714
 C620 C 0.24929 0.14898 0.65510
 C621 C 0.27352 0.12923 0.65247
 C622 C 0.27221 0.10531 0.63273
 C623 C 0.24508 0.07533 0.59599
 C624 C 0.24400 0.05353 0.58048
 H625 H 0.20276 0.11702 0.60409
 H626 H 0.20473 0.15893 0.63862
 H627 H 0.29354 0.13211 0.66564
 H628 H 0.29098 0.09019 0.63128
   
