data_POSCAR
  _audit_creation_date              2014-09-24
  _audit_creation_method            'ToBaCCo'
  _symmetry_space_group_name_H-M    'P1'
  _symmetry_Int_Tables_number       1
  _symmetry_cell_setting            triclinic
  loop_
  _symmetry_equiv_pos_as_xyz
 x,y,z
_cell_length_a 26.0629
_cell_length_b 26.0453
_cell_length_c 16.3504
_cell_angle_alpha 89.728500
_cell_angle_beta 90.064600
_cell_angle_gamma 90.025000
loop_
  _atom_site_label
  _atom_site_type_symbol
  _atom_site_fract_x
  _atom_site_fract_y
  _atom_site_fract_z
C1 C 1.29463 0.19526 0.27966
 C2 C 1.25162 0.22215 0.25126
 C3 C 1.20862 0.19507 0.22360
 C4 C 1.20832 0.14152 0.22403
 C5 C 1.25160 0.11441 0.25265
 C6 C 1.29493 0.14164 0.28062
 C7 C 1.25160 0.27861 0.25041
 C8 C 1.29438 0.30553 0.22130
 C9 C 1.29463 0.35914 0.21996
 C10 C 1.25137 0.38635 0.24839
 C11 C 1.20828 0.35917 0.27780
 C12 C 1.20875 0.30561 0.27851
 H13 H 1.32756 0.21624 0.30271
 H14 H 1.17565 0.21579 0.19993
 H15 H 1.32717 0.28455 0.19793
 H16 H 1.17596 0.28483 0.30262
 H17 H 1.25148 0.07278 0.25307
 H18 H 1.25116 0.42797 0.24765
 C19 C 0.79304 -0.30575 0.27917
 C20 C 0.75005 -0.27881 0.25098
 C21 C 0.70727 -0.30575 0.22236
 C22 C 0.70714 -0.35927 0.22157
 C23 C 0.75048 -0.38651 0.24991
 C24 C 0.79364 -0.35931 0.27887
 C25 C 0.74995 -0.22242 0.25119
 C26 C 0.79297 -0.19531 0.22359
 C27 C 0.79328 -0.14179 0.22372
 C28 C 0.74998 -0.11475 0.25174
 C29 C 0.70666 -0.14208 0.27948
 C30 C 0.70692 -0.19562 0.27902
 H31 H 0.82579 -0.28481 0.30300
 H32 H 0.67432 -0.28492 0.19887
 H33 H 0.82596 -0.21594 0.20027
 H34 H 0.67392 -0.21652 0.30210
 H35 H 0.75054 -0.42813 0.24939
 H36 H 0.75000 -0.07314 0.25196
 C37 C 0.79375 0.19589 -0.22279
 C38 C 0.75067 0.22275 -0.25093
 C39 C 0.70766 0.19564 -0.27841
 C40 C 0.70746 0.14210 -0.27797
 C41 C 0.75083 0.11505 -0.24970
 C42 C 0.79412 0.14235 -0.22203
 C43 C 0.75064 0.27917 -0.25180
 C44 C 0.79355 0.30606 -0.28041
 C45 C 0.79389 0.35964 -0.28150
 C46 C 0.75058 0.38689 -0.25349
 C47 C 0.70734 0.35973 -0.22469
 C48 C 0.70772 0.30619 -0.22408
 H49 H 0.82674 0.21675 -0.19978
 H50 H 0.67462 0.21630 -0.30194
 H51 H 0.82641 0.28507 -0.30354
 H52 H 0.67483 0.28543 -0.20027
 H53 H 0.75090 0.07344 -0.24925
 H54 H 0.75045 0.42852 -0.25404
 C55 C 1.29312 -0.30573 -0.22086
 C56 C 1.25005 -0.27873 -0.24852
 C57 C 1.20714 -0.30558 -0.27679
 C58 C 1.20698 -0.35908 -0.27766
 C59 C 1.25037 -0.38639 -0.24996
 C60 C 1.29365 -0.35928 -0.22146
 C61 C 1.25001 -0.22238 -0.24830
 C62 C 1.29308 -0.19534 -0.27579
 C63 C 1.29337 -0.14184 -0.27580
 C64 C 1.25005 -0.11474 -0.24822
 C65 C 1.20670 -0.14202 -0.22068
 C66 C 1.20694 -0.19554 -0.22078
 H67 H 1.32599 -0.28488 -0.19723
 H68 H 1.17413 -0.28472 -0.29998
 H69 H 1.32610 -0.21599 -0.29898
 H70 H 1.17389 -0.21636 -0.19772
 H71 H 1.25039 -0.42801 -0.25063
 H72 H 1.25008 -0.07313 -0.24821
 C73 C 0.19483 0.29261 0.72414
 C74 C 0.22203 0.24988 0.75290
 C75 C 0.19534 0.20676 0.78151
 C76 C 0.14178 0.20606 0.78158
 C77 C 0.11438 0.24918 0.75248
 C78 C 0.14133 0.29259 0.72366
 C79 C 0.27843 0.25022 0.75270
 C80 C 0.30521 0.29339 0.78033
 C81 C 0.35877 0.29412 0.77998
 C82 C 0.38607 0.25100 0.75145
 C83 C 0.35902 0.20754 0.72362
 C84 C 0.30552 0.20748 0.72452
 H85 H 0.21543 0.32563 0.70031
 H86 H 0.21646 0.17403 0.80534
 H87 H 0.28417 0.32613 0.80374
 H88 H 0.28484 0.17441 0.70144
 H89 H 0.07278 0.24902 0.75219
 H90 H 0.42767 0.25119 0.75085
 C91 C 0.69411 0.79342 0.72239
 C92 C 0.72096 0.75030 0.75052
 C93 C 0.69394 0.70725 0.77854
 C94 C 0.64037 0.70698 0.77869
 C95 C 0.61329 0.75044 0.75025
 C96 C 0.64055 0.79383 0.72196
 C97 C 0.77737 0.75020 0.75053
 C98 C 0.80445 0.79299 0.77887
 C99 C 0.85797 0.79323 0.77899
 C100 C 0.88501 0.75007 0.75030
 C101 C 0.85774 0.70697 0.72174
 C102 C 0.80422 0.70733 0.72209
 H103 H 0.71509 0.82637 0.69904
 H104 H 0.71480 0.67423 0.80194
 H105 H 0.78378 0.82585 0.80254
 H106 H 0.78337 0.67453 0.69847
 H107 H 0.57167 0.75049 0.75011
 H108 H 0.92659 0.75002 0.75020
 C109 C 0.69518 0.29278 0.22023
 C110 C 0.72214 0.24980 0.24851
 C111 C 0.69524 0.20671 0.27655
 C112 C 0.64176 0.20636 0.27649
 C113 C 0.61456 0.24964 0.24815
 C114 C 0.64170 0.29299 0.21996
 C115 C 0.77847 0.24995 0.24883
 C116 C 0.80526 0.29311 0.27629
 C117 C 0.85873 0.29356 0.27665
 C118 C 0.88605 0.25028 0.24936
 C119 C 0.85903 0.20683 0.22181
 C120 C 0.80555 0.20695 0.22166
 H121 H 0.71589 0.32584 0.19674
 H122 H 0.71600 0.17375 0.30025
 H123 H 0.78441 0.32610 0.29915
 H124 H 0.78492 0.17384 0.19861
 H125 H 0.57298 0.24960 0.24807
 H126 H 0.92764 0.25040 0.24956
 C127 C 0.19421 0.79282 0.22209
 C128 C 0.22107 0.74977 0.25042
 C129 C 0.19411 0.70676 0.27867
 C130 C 0.14056 0.70648 0.27893
 C131 C 0.11342 0.74988 0.25030
 C132 C 0.14067 0.79322 0.22173
 C133 C 0.27744 0.74976 0.25044
 C134 C 0.30441 0.79258 0.27887
 C135 C 0.35791 0.79298 0.27885
 C136 C 0.38506 0.74993 0.24991
 C137 C 0.35785 0.70679 0.22126
 C138 C 0.30435 0.70701 0.22180
 H139 H 0.21518 0.82573 0.19858
 H140 H 0.21502 0.67381 0.30220
 H141 H 0.28365 0.82535 0.30268
 H142 H 0.28353 0.67420 0.19812
 H143 H 0.07181 0.74992 0.25026
 H144 H 0.42663 0.75001 0.24967
 O145 O 1.08841 0.02541 0.10308
 O146 O 0.91337 -0.02589 0.10257
 O147 O 0.97491 0.08695 0.10248
 O148 O 1.02656 -0.08793 0.10276
 O149 O 0.90334 0.06025 0.05782
 O150 O 1.09825 -0.06088 0.05876
 O151 O 0.94032 -0.09756 0.05900
 O152 O 1.06114 0.09718 0.05909
 C153 C 1.08827 0.07229 0.10867
 C154 C 0.91342 -0.07276 0.10848
 C155 C 0.92808 0.08695 0.10771
 C156 C 1.07341 -0.08816 0.10820
 O157 O 1.08818 -0.02600 -0.09961
 O158 O 0.91371 0.02624 -0.10038
 O159 O 1.02734 0.08753 -0.09982
 O160 O 0.97421 -0.08712 -0.09985
 O161 O 0.90280 -0.06000 -0.05571
 O162 O 1.09879 0.06014 -0.05538
 O163 O 1.06029 -0.09764 -0.05590
 O164 O 0.94115 0.09773 -0.05650
 Co165 Co 1.08429 -0.00032 0.00169
 Co166 Co 0.91743 0.00013 0.00110
 Co167 Co 1.00109 0.08328 0.00134
 Co168 Co 1.00038 -0.08351 0.00149
 O169 O 1.00081 -0.00010 0.00141
 C170 C 1.08741 -0.07284 -0.10546
 C171 C 0.91409 0.07313 -0.10617
 C172 C 1.07419 0.08754 -0.10498
 C173 C 0.92737 -0.08702 -0.10530
 O174 O 1.08700 0.52612 0.60049
 O175 O 0.91243 0.47400 0.59985
 O176 O 0.97352 0.58751 0.60012
 O177 O 1.02563 0.41262 0.60041
 O178 O 0.90204 0.56032 0.55581
 O179 O 1.09730 0.44001 0.55685
 O180 O 0.93948 0.40248 0.55587
 O181 O 1.05977 0.59789 0.55643
 C182 C 1.08681 0.57295 0.60609
 C183 C 0.91229 0.42712 0.60526
 C184 C 0.92668 0.58732 0.60550
 C185 C 1.07247 0.41272 0.60629
 O186 O 1.08736 0.47454 0.39795
 O187 O 0.91259 0.52657 0.39719
 O188 O 1.02582 0.58825 0.39770
 O189 O 0.97405 0.41339 0.39743
 O190 O 0.90240 0.44036 0.44115
 O191 O 1.09737 0.56079 0.44192
 O192 O 1.06019 0.40280 0.44199
 O193 O 0.93944 0.59816 0.44130
 Co194 Co 1.08318 0.50036 0.49924
 Co195 Co 0.91644 0.50031 0.49854
 Co196 Co 0.99965 0.58387 0.49888
 Co197 Co 0.99982 0.41693 0.49891
 O198 O 0.99978 0.50037 0.49889
 C199 C 1.08749 0.42766 0.39262
 C200 C 0.91234 0.57344 0.39176
 C201 C 1.07268 0.58819 0.39240
 C202 C 0.92724 0.41359 0.39157
 O203 O 0.58754 0.02581 0.60223
 O204 O 0.41281 -0.02595 0.60277
 O205 O 0.47440 0.08741 0.60207
 O206 O 0.52598 -0.08767 0.60311
 O207 O 0.40266 0.06034 0.55854
 O208 O 0.59754 -0.06054 0.55888
 O209 O 0.43979 -0.09757 0.55903
 O210 O 0.56046 0.09745 0.55749
 C211 C 0.58747 0.07269 0.60735
 C212 C 0.41304 -0.07279 0.60869
 C213 C 0.42757 0.08743 0.60781
 C214 C 0.57283 -0.08776 0.60852
 O215 O 0.58710 -0.02635 0.40001
 O216 O 0.41249 0.02636 0.39990
 O217 O 0.52596 0.08720 0.39923
 O218 O 0.47368 -0.08742 0.40050
 O219 O 0.40220 -0.05998 0.44430
 O220 O 0.59754 0.05975 0.44326
 O221 O 0.55985 -0.09791 0.44460
 O222 O 0.43993 0.09783 0.44362
 Co223 Co 0.58336 -0.00031 0.50113
 Co224 Co 0.41661 0.00016 0.50136
 Co225 Co 0.50018 0.08336 0.50065
 Co226 Co 0.49984 -0.08355 0.50176
 O227 O 0.49999 -0.00008 0.50123
 C228 C 0.58685 -0.07320 0.39475
 C229 C 0.41266 0.07325 0.39424
 C230 C 0.57277 0.08674 0.39338
 C231 C 0.42684 -0.08715 0.39489
 O232 O 0.58700 0.52590 0.09879
 O233 O 0.41221 0.47390 0.09928
 O234 O 0.47333 0.58736 0.09889
 O235 O 0.52582 0.41278 0.09870
 O236 O 0.40176 0.56024 0.05477
 O237 O 0.59726 0.44003 0.05415
 O238 O 0.43953 0.40240 0.05550
 O239 O 0.55959 0.59775 0.05541
 C240 C 0.58684 0.57273 0.10472
 C241 C 0.41231 0.42700 0.10494
 C242 C 0.42649 0.58723 0.10437
 C243 C 0.57265 0.41298 0.10406
 O244 O 0.58668 0.47490 -0.10413
 O245 O 0.41190 0.52619 -0.10356
 O246 O 0.52554 0.58815 -0.10363
 O247 O 0.47320 0.41316 -0.10363
 O248 O 0.40171 0.43984 -0.05906
 O249 O 0.59710 0.56101 -0.05941
 O250 O 0.55957 0.40303 -0.06030
 O251 O 0.43928 0.59781 -0.05995
 Co252 Co 0.58288 0.50044 -0.00266
 Co253 Co 0.41602 0.50007 -0.00219
 Co254 Co 0.49944 0.58372 -0.00235
 Co255 Co 0.49953 0.41690 -0.00244
 O256 O 0.49946 0.50029 -0.00242
 C257 C 0.58668 0.42804 -0.10978
 C258 C 0.41205 0.57306 -0.10928
 C259 C 0.57239 0.58836 -0.10887
 C260 C 0.42634 0.41281 -0.10863
 C261 C 1.16430 0.11587 0.18961
 C262 C 1.12799 0.09646 0.15578
 C263 C 1.16294 0.61574 0.68746
 C264 C 1.12653 0.59685 0.65332
 C265 C 0.66347 0.11640 0.68786
 C266 C 0.62717 0.09694 0.65421
 C267 C 0.66312 0.61546 0.18634
 C268 C 0.62670 0.59658 0.15204
 C269 C 0.83734 -0.11616 0.18947
 C270 C 0.87370 -0.09687 0.15566
 C271 C 0.83557 0.38377 0.68542
 C272 C 0.87215 0.40297 0.65180
 C273 C 0.33735 -0.11627 0.68999
 C274 C 0.37358 -0.09694 0.65607
 C275 C 0.33610 0.38335 0.18622
 C276 C 0.37245 0.40270 0.15206
 C277 C 0.83821 0.11691 -0.18740
 C278 C 0.87451 0.09752 -0.15342
 C279 C 0.83542 0.61654 0.31162
 C280 C 0.87211 0.59743 0.34515
 C281 C 0.33649 0.11731 0.31369
 C282 C 0.37283 0.09769 0.34739
 C283 C 0.33541 0.61646 -0.18919
 C284 C 0.37203 0.59718 -0.15590
 C285 C 1.16277 -0.11656 -0.18652
 C286 C 1.12665 -0.09715 -0.15271
 C287 C 1.16414 0.38461 0.31233
 C288 C 1.12760 0.40368 0.34602
 C289 C 0.66265 -0.11671 0.31394
 C290 C 0.62640 -0.09743 0.34776
 C291 C 0.66319 0.38515 -0.19037
 C292 C 0.62666 0.40416 -0.15665
 C293 C 1.11772 0.16428 -0.18530
 C294 C 1.09843 0.12768 -0.15162
 C295 C 1.11628 0.66480 0.31196
 C296 C 1.09690 0.62827 0.34565
 C297 C 0.61629 0.16237 0.31133
 C298 C 0.59697 0.12616 0.34566
 C299 C 0.61601 0.66524 -0.18866
 C300 C 0.59655 0.62863 -0.15530
 C301 C 0.88362 -0.16289 -0.18622
 C302 C 0.90303 -0.12667 -0.15228
 C303 C 0.88405 0.33767 0.31075
 C304 C 0.90320 0.37401 0.34446
 C305 C 0.38337 -0.16307 0.31375
 C306 C 0.40258 -0.12679 0.34782
 C307 C 0.38292 0.33595 -0.18777
 C308 C 0.40221 0.37260 -0.15472
 C309 C 1.11654 -0.16503 0.18867
 C310 C 1.09737 -0.12840 0.15495
 C311 C 1.11573 0.33651 0.68825
 C312 C 1.09653 0.37287 0.65380
 C313 C 0.61635 -0.16442 0.68901
 C314 C 0.59699 -0.12786 0.65535
 C315 C 0.61621 0.33701 0.18529
 C316 C 0.59690 0.37333 0.15126
 C317 C 0.88464 0.16286 0.18798
 C318 C 0.90397 0.12657 0.15449
 C319 C 0.88314 0.66306 0.68674
 C320 C 0.90241 0.62687 0.65263
 C321 C 0.38451 0.16361 0.68879
 C322 C 0.40362 0.12726 0.65482
 C323 C 0.38323 0.66298 0.18597
 C324 C 0.40237 0.62680 0.15164
   
