data_POSCAR
  _audit_creation_date              2014-09-24
  _audit_creation_method            'ToBaCCo'
  _symmetry_space_group_name_H-M    'P1'
  _symmetry_Int_Tables_number       1
  _symmetry_cell_setting            triclinic
  loop_
  _symmetry_equiv_pos_as_xyz
 x,y,z
_cell_length_a 55.4270
_cell_length_b 55.4302
_cell_length_c 55.4220
_cell_angle_alpha 89.966300
_cell_angle_beta 90.000700
_cell_angle_gamma 90.064000
loop_
  _atom_site_label
  _atom_site_type_symbol
  _atom_site_fract_x
  _atom_site_fract_y
  _atom_site_fract_z
C1 C 0.28985 0.36208 -0.02252
 C2 C 0.28126 0.37079 -0.00048
 C3 C 0.29007 0.36196 0.02140
 C4 C 0.30795 0.34382 0.02154
 C5 C 0.31684 0.33477 -0.00071
 C6 C 0.30776 0.34391 -0.02286
 C7 C 0.31692 0.33470 -0.04467
 C8 C 0.33469 0.31697 -0.04474
 C9 C 0.34402 0.30774 -0.02300
 C10 C 0.33496 0.31668 -0.00077
 C11 C 0.31723 0.33461 0.04327
 C12 C 0.33501 0.31687 0.04320
 C13 C 0.34415 0.30771 0.02140
 C14 C 0.36233 0.28988 0.02112
 C15 C 0.37107 0.28119 -0.00083
 C16 C 0.36223 0.28987 -0.02279
 H17 H 0.31042 0.34120 -0.06191
 H18 H 0.34113 0.31056 -0.06203
 H19 H 0.31084 0.34108 0.06055
 H20 H 0.34158 0.31042 0.06043
 H21 H 0.26761 0.38484 -0.00031
 H22 H 0.38516 0.26757 -0.00078
 C23 C 0.71041 0.63779 0.02222
 C24 C 0.71919 0.62897 0.00033
 C25 C 0.71060 0.63773 -0.02170
 C26 C 0.69274 0.65595 -0.02203
 C27 C 0.68370 0.66507 0.00014
 C28 C 0.69257 0.65596 0.02237
 C29 C 0.68330 0.66517 0.04411
 C30 C 0.66555 0.68293 0.04406
 C31 C 0.65643 0.69214 0.02225
 C32 C 0.66561 0.68318 0.00009
 C33 C 0.68358 0.66522 -0.04383
 C34 C 0.66584 0.68299 -0.04387
 C35 C 0.65658 0.69217 -0.02213
 C36 C 0.63843 0.71003 -0.02194
 C37 C 0.62957 0.71871 -0.00002
 C38 C 0.63827 0.71000 0.02195
 H39 H 0.68969 0.65866 0.06139
 H40 H 0.65899 0.68938 0.06128
 H41 H 0.69006 0.65874 -0.06108
 H42 H 0.65939 0.68946 -0.06114
 H43 H 0.73280 0.61489 0.00049
 H44 H 0.61551 0.73233 -0.00007
 C45 C 0.63747 0.28996 0.97805
 C46 C 0.62868 0.28109 0.99993
 C47 C 0.63747 0.28963 1.02197
 C48 C 0.65566 0.30755 1.02232
 C49 C 0.66477 0.31667 1.00016
 C50 C 0.65565 0.30783 0.97792
 C51 C 0.66485 0.31717 0.95619
 C52 C 0.68263 0.33494 0.95627
 C53 C 0.69184 0.34404 0.97808
 C54 C 0.68287 0.33480 1.00024
 C55 C 0.66492 0.31668 1.04414
 C56 C 0.68267 0.33448 1.04420
 C57 C 0.69185 0.34382 1.02247
 C58 C 0.70970 0.36203 1.02230
 C59 C 0.71839 0.37093 1.00039
 C60 C 0.70971 0.36223 0.97841
 H61 H 0.65834 0.31081 0.93891
 H62 H 0.68908 0.34155 0.93905
 H63 H 0.65845 0.31014 1.06138
 H64 H 0.68914 0.34091 1.06147
 H65 H 0.61460 0.26744 0.99976
 H66 H 0.73201 0.38502 1.00045
 C67 C 0.29057 0.63712 1.02266
 C68 C 0.28185 0.62835 1.00069
 C69 C 0.29053 0.63717 0.97875
 C70 C 0.30840 0.65535 0.97848
 C71 C 0.31740 0.66448 1.00066
 C72 C 0.30846 0.65536 1.02288
 C73 C 0.31771 0.66464 1.04463
 C74 C 0.33545 0.68244 1.04457
 C75 C 0.34466 0.69166 1.02277
 C76 C 0.33552 0.68262 1.00060
 C77 C 0.31758 0.66454 0.95668
 C78 C 0.33535 0.68232 0.95663
 C79 C 0.34459 0.69156 0.97837
 C80 C 0.36276 0.70944 0.97851
 C81 C 0.37159 0.71822 1.00040
 C82 C 0.36285 0.70959 1.02243
 H83 H 0.31130 0.65817 1.06191
 H84 H 0.34196 0.68892 1.06182
 H85 H 0.31110 0.65802 0.93945
 H86 H 0.34183 0.68875 0.93935
 H87 H 0.26820 0.61427 1.00062
 H88 H 0.38566 0.73189 1.00024
 C89 C 0.02127 0.36205 0.28966
 C90 C -0.00064 0.37094 0.28102
 C91 C -0.02264 0.36215 0.28969
 C92 C -0.02292 0.34385 0.30749
 C93 C -0.00074 0.33465 0.31639
 C94 C 0.02147 0.34378 0.30743
 C95 C 0.04324 0.33449 0.31654
 C96 C 0.04323 0.31664 0.33422
 C97 C 0.02146 0.30741 0.34344
 C98 C -0.00074 0.31644 0.33442
 C99 C -0.04470 0.33458 0.31672
 C100 C -0.04470 0.31673 0.33441
 C101 C -0.02293 0.30743 0.34356
 C102 C -0.02266 0.28945 0.36170
 C103 C -0.00066 0.28072 0.37037
 C104 C 0.02125 0.28947 0.36154
 H105 H 0.06049 0.34101 0.31009
 H106 H 0.06048 0.31014 0.34066
 H107 H -0.06196 0.34112 0.31035
 H108 H -0.06197 0.31027 0.34090
 H109 H -0.00052 0.38509 0.26745
 H110 H -0.00054 0.26702 0.38440
 C111 C 0.02143 0.63772 0.71005
 C112 C -0.00051 0.62900 0.71885
 C113 C -0.02248 0.63778 0.71017
 C114 C -0.02272 0.65591 0.69219
 C115 C -0.00051 0.66495 0.68313
 C116 C 0.02168 0.65582 0.69211
 C117 C 0.04347 0.66494 0.68284
 C118 C 0.04351 0.68265 0.66500
 C119 C 0.02176 0.69187 0.65578
 C120 C -0.00046 0.68299 0.66493
 C121 C -0.04447 0.66517 0.68294
 C122 C -0.04443 0.68286 0.66509
 C123 C -0.02264 0.69200 0.65578
 C124 C -0.02231 0.70983 0.63750
 C125 C -0.00029 0.71842 0.62870
 C126 C 0.02160 0.70968 0.63754
 H127 H 0.06070 0.65842 0.68930
 H128 H 0.06078 0.68903 0.65846
 H129 H -0.06175 0.65875 0.68943
 H130 H -0.06168 0.68932 0.65859
 H131 H -0.00043 0.61498 0.73256
 H132 H -0.00014 0.73202 0.61457
 C133 C 1.02257 0.63810 0.29025
 C134 C 1.00060 0.62926 0.28164
 C135 C 0.97868 0.63807 0.29035
 C136 C 0.97849 0.65631 0.30814
 C137 C 1.00071 0.66546 0.31704
 C138 C 1.02287 0.65632 0.30805
 C139 C 1.04467 0.66554 0.31718
 C140 C 1.04473 0.68335 0.33490
 C141 C 1.02299 0.69261 0.34415
 C142 C 1.00076 0.68362 0.33508
 C143 C 0.95675 0.66554 0.31734
 C144 C 0.95679 0.68336 0.33504
 C145 C 0.97858 0.69260 0.34418
 C146 C 0.97884 0.71051 0.36229
 C147 C 1.00078 0.71924 0.37107
 C148 C 1.02276 0.71054 0.36232
 H149 H 1.06190 0.65902 0.31071
 H150 H 1.06202 0.68980 0.34133
 H151 H 0.93948 0.65901 0.31094
 H152 H 0.93955 0.68983 0.34154
 H153 H 1.00056 0.61515 0.26807
 H154 H 1.00071 0.73291 0.38511
 C155 C 1.02202 0.29109 0.63722
 C156 C 1.00007 0.28244 0.62838
 C157 C 0.97813 0.29110 0.63717
 C158 C 0.97789 0.30891 0.65539
 C159 C 1.00008 0.31783 0.66457
 C160 C 1.02227 0.30888 0.65547
 C161 C 1.04404 0.31801 0.66475
 C162 C 1.04405 0.33569 0.68259
 C163 C 1.02228 0.34492 0.69182
 C164 C 1.00008 0.33587 0.68275
 C165 C 0.95612 0.31809 0.66458
 C166 C 0.95611 0.33579 0.68241
 C167 C 0.97787 0.34495 0.69170
 C168 C 0.97808 0.36305 0.70963
 C169 C 1.00000 0.37179 0.71845
 C170 C 1.02200 0.36304 0.70980
 H171 H 1.06128 0.31156 0.65824
 H172 H 1.06132 0.34213 0.68909
 H173 H 0.93887 0.31167 0.65802
 H174 H 0.93885 0.34229 0.68884
 H175 H 1.00007 0.26885 0.61427
 H176 H 0.99989 0.38580 0.73215
 C177 C 0.29022 -0.02280 0.36229
 C178 C 0.28158 -0.00080 0.37103
 C179 C 0.29030 0.02111 0.36216
 C180 C 0.30813 0.02131 0.34395
 C181 C 0.31706 -0.00090 0.33486
 C182 C 0.30808 -0.02309 0.34404
 C183 C 0.31727 -0.04487 0.33481
 C184 C 0.33499 -0.04488 0.31701
 C185 C 0.34423 -0.02311 0.30772
 C186 C 0.33513 -0.00092 0.31670
 C187 C 0.31733 0.04307 0.33468
 C188 C 0.33505 0.04305 0.31688
 C189 C 0.34423 0.02128 0.30769
 C190 C 0.36236 0.02107 0.28978
 C191 C 0.37114 -0.00085 0.28107
 C192 C 0.36239 -0.02284 0.28978
 H193 H 0.31083 -0.06212 0.34135
 H194 H 0.34145 -0.06214 0.31058
 H195 H 0.31090 0.06032 0.34117
 H196 H 0.34155 0.06030 0.31038
 H197 H 0.26797 -0.00067 0.38513
 H198 H 0.38519 -0.00074 0.26739
 C199 C 0.63724 -0.02193 0.71015
 C200 C 0.62840 0.00006 0.71872
 C201 C 0.63722 0.02199 0.70999
 C202 C 0.65547 0.02222 0.69221
 C203 C 0.66466 0.00003 0.68335
 C204 C 0.65554 -0.02218 0.69235
 C205 C 0.66489 -0.04393 0.68321
 C206 C 0.68275 -0.04389 0.66554
 C207 C 0.69193 -0.02211 0.65632
 C208 C 0.68286 0.00006 0.66533
 C209 C 0.66468 0.04400 0.68298
 C210 C 0.68253 0.04402 0.66529
 C211 C 0.69182 0.02227 0.65619
 C212 C 0.70976 0.02205 0.63809
 C213 C 0.71855 0.00012 0.62941
 C214 C 0.70988 -0.02184 0.63823
 H215 H 0.65841 -0.06121 0.68966
 H216 H 0.68928 -0.06113 0.65910
 H217 H 0.65811 0.06125 0.68936
 H218 H 0.68897 0.06128 0.65876
 H219 H 0.61426 0.00015 0.73230
 H220 H 0.73224 0.00013 0.61539
 C221 C 0.36200 0.97844 0.71046
 C222 C 0.37078 1.00037 0.71919
 C223 C 0.36200 1.02235 0.71051
 C224 C 0.34381 1.02258 0.69259
 C225 C 0.33473 1.00036 0.68361
 C226 C 0.34385 0.97818 0.69258
 C227 C 0.33469 0.95639 0.68336
 C228 C 0.31696 0.95636 0.66555
 C229 C 0.30774 0.97811 0.65633
 C230 C 0.31666 1.00032 0.66546
 C231 C 0.33454 1.04433 0.68334
 C232 C 0.31680 1.04427 0.66554
 C233 C 0.30767 1.02248 0.65632
 C234 C 0.28985 1.02219 0.63811
 C235 C 0.28121 1.00023 0.62929
 C236 C 0.28993 0.97831 0.63810
 H237 H 0.34120 0.93915 0.68982
 H238 H 0.31054 0.93909 0.65903
 H239 H 0.34099 1.06161 0.68978
 H240 H 0.31033 1.06150 0.65901
 H241 H 0.38485 1.00029 0.73285
 H242 H 0.26762 1.00020 0.61518
 C243 C 0.70965 1.02251 0.36272
 C244 C 0.71829 1.00052 0.37152
 C245 C 0.70956 0.97859 0.36274
 C246 C 0.69170 0.97836 0.34456
 C247 C 0.68276 1.00056 0.33541
 C248 C 0.69176 1.02276 0.34450
 C249 C 0.68256 1.04452 0.33522
 C250 C 0.66481 1.04450 0.31743
 C251 C 0.65555 1.02271 0.30824
 C252 C 0.66465 1.00053 0.31728
 C253 C 0.68248 0.95659 0.33538
 C254 C 0.66472 0.95656 0.31760
 C255 C 0.65554 0.97832 0.30835
 C256 C 0.63740 0.97850 0.29046
 C257 C 0.62861 1.00040 0.28168
 C258 C 0.63737 1.02241 0.29031
 H259 H 0.68901 1.06179 0.34168
 H260 H 0.65834 1.06175 0.31095
 H261 H 0.68891 0.93934 0.34192
 H262 H 0.65821 0.93930 0.31117
 H263 H 0.73194 1.00043 0.38559
 H264 H 0.61455 1.00026 0.26801
 O265 O 0.85075 0.81749 0.47698
 O266 O 0.81760 0.85043 0.52393
 O267 O 0.85087 0.81727 0.52373
 O268 O 0.81750 0.85067 0.47718
 O269 O 0.78921 0.82250 0.47701
 O270 O 0.82277 0.78892 0.52378
 O271 O 0.78931 0.82226 0.52398
 O272 O 0.82265 0.78913 0.47681
 Cu273 Cu 0.83700 0.83680 0.50046
 Cu274 Cu 0.80313 0.80283 0.50039
 C275 C 0.84245 0.79768 0.46909
 C276 C 0.79779 0.84207 0.53175
 C277 C 0.84261 0.79739 0.53149
 C278 C 0.79765 0.84238 0.46937
 O279 O 0.14969 0.18276 0.47607
 O280 O 0.18285 0.14989 0.52307
 O281 O 0.14965 0.18310 0.52281
 O282 O 0.18288 0.14953 0.47633
 O283 O 0.21121 0.17765 0.47601
 O284 O 0.17780 0.21140 0.52272
 O285 O 0.21119 0.17800 0.52299
 O286 O 0.17783 0.21107 0.47575
 Cu287 Cu 0.16344 0.16349 0.49959
 Cu288 Cu 0.19738 0.19740 0.49934
 C289 C 0.15800 0.20254 0.46810
 C290 C 0.20268 0.15824 0.53085
 C291 C 0.15797 0.20298 0.53049
 C292 C 0.20272 0.15777 0.46845
 O293 O 0.14993 0.81693 0.52298
 O294 O 0.18327 0.85021 0.47630
 O295 O 0.15001 0.81699 0.47623
 O296 O 0.18317 0.85018 0.52304
 O297 O 0.21146 0.82207 0.52320
 O298 O 0.17809 0.78868 0.47616
 O299 O 0.21155 0.82210 0.47623
 O300 O 0.17803 0.78864 0.52313
 Cu301 Cu 0.16377 0.83641 0.49963
 Cu302 Cu 0.19765 0.80251 0.49969
 C303 C 0.15820 0.79710 0.53081
 C304 C 0.20311 0.84192 0.46850
 C305 C 0.15829 0.79717 0.46842
 C306 C 0.20298 0.84189 0.53091
 O307 O 0.81696 0.14970 0.47616
 O308 O 0.85024 0.18312 0.52275
 O309 O 0.81700 0.14986 0.52291
 O310 O 0.85023 0.18293 0.47600
 O311 O 0.82213 0.21123 0.47579
 O312 O 0.78871 0.17796 0.52292
 O313 O 0.82214 0.21141 0.52276
 O314 O 0.78867 0.17781 0.47595
 Cu315 Cu 0.83643 0.16357 0.49947
 Cu316 Cu 0.80255 0.19746 0.49934
 C317 C 0.79712 0.15796 0.46831
 C318 C 0.84197 0.20297 0.53050
 C319 C 0.79718 0.15816 0.53071
 C320 C 0.84195 0.20273 0.46810
 O321 O 0.47692 0.85026 0.81710
 O322 O 0.52387 0.81713 0.85006
 O323 O 0.52366 0.85047 0.81693
 O324 O 0.47713 0.81696 0.85026
 O325 O 0.47699 0.78873 0.82207
 O326 O 0.52375 0.82244 0.78855
 O327 O 0.52396 0.78891 0.82188
 O328 O 0.47678 0.82223 0.78872
 Cu329 Cu 0.50040 0.83653 0.83642
 Cu330 Cu 0.50037 0.80272 0.80243
 C331 C 0.46905 0.84199 0.79728
 C332 C 0.53172 0.79736 0.84169
 C333 C 0.53144 0.84227 0.79705
 C334 C 0.46933 0.79713 0.84194
 O335 O 0.47710 0.14903 0.18228
 O336 O 0.52397 0.18220 0.14909
 O337 O 0.52385 0.14900 0.18241
 O338 O 0.47723 0.18221 0.14897
 O339 O 0.47709 0.21055 0.17704
 O340 O 0.52393 0.17717 0.21065
 O341 O 0.52405 0.21055 0.17715
 O342 O 0.47696 0.17719 0.21053
 Cu343 Cu 0.50054 0.16278 0.16287
 Cu344 Cu 0.50051 0.19673 0.19670
 C345 C 0.46924 0.15736 0.20208
 C346 C 0.53179 0.20204 0.15736
 C347 C 0.53163 0.15732 0.20225
 C348 C 0.46941 0.20205 0.15721
 O349 O 0.52243 0.15006 0.81679
 O350 O 0.47570 0.18327 0.84997
 O351 O 0.47569 0.14997 0.81683
 O352 O 0.52244 0.18331 0.84995
 O353 O 0.52253 0.21158 0.82178
 O354 O 0.47555 0.17804 0.78845
 O355 O 0.47556 0.21153 0.82179
 O356 O 0.52252 0.17814 0.78842
 Cu357 Cu 0.49906 0.16383 0.83622
 Cu358 Cu 0.49903 0.19768 0.80224
 C359 C 0.53024 0.15834 0.79694
 C360 C 0.46787 0.20307 0.84164
 C361 C 0.46785 0.15822 0.79698
 C362 C 0.53026 0.20313 0.84161
 O363 O 0.47627 0.81716 0.14947
 O364 O 0.52294 0.85045 0.18278
 O365 O 0.52301 0.81726 0.14953
 O366 O 0.47620 0.85038 0.18271
 O367 O 0.47607 0.82224 0.21102
 O368 O 0.52311 0.78893 0.17764
 O369 O 0.52304 0.82231 0.21108
 O370 O 0.47614 0.78883 0.17759
 Cu371 Cu 0.49960 0.83664 0.16329
 Cu372 Cu 0.49959 0.80271 0.19719
 C373 C 0.46846 0.79730 0.15774
 C374 C 0.53075 0.84216 0.20262
 C375 C 0.53085 0.79744 0.15783
 C376 C 0.46836 0.84206 0.20254
 O377 O 0.81728 0.47738 0.85072
 O378 O 0.85048 0.52424 0.81754
 O379 O 0.81736 0.52412 0.85089
 O380 O 0.85043 0.47750 0.81741
 O381 O 0.82224 0.47750 0.78917
 O382 O 0.78897 0.52435 0.82286
 O383 O 0.82227 0.52447 0.78931
 O384 O 0.78889 0.47738 0.82267
 Cu385 Cu 0.83672 0.50080 0.83696
 Cu386 Cu 0.80272 0.50094 0.80315
 C387 C 0.79742 0.46959 0.84245
 C388 C 0.84214 0.53214 0.79775
 C389 C 0.79751 0.53198 0.84269
 C390 C 0.84208 0.46975 0.79757
 O391 O 0.18330 0.47658 0.14961
 O392 O 0.15027 0.52341 0.18281
 O393 O 0.18354 0.52332 0.14963
 O394 O 0.14999 0.47668 0.18276
 O395 O 0.17805 0.47639 0.21112
 O396 O 0.21180 0.52327 0.17780
 O397 O 0.17834 0.52336 0.21118
 O398 O 0.21155 0.47630 0.17779
 Cu399 Cu 0.16395 0.50001 0.16337
 Cu400 Cu 0.19779 0.49981 0.19734
 C401 C 0.20307 0.46865 0.15794
 C402 C 0.15857 0.53117 0.20267
 C403 C 0.20340 0.53104 0.15797
 C404 C 0.15820 0.46878 0.20260
 O405 O 0.85019 0.47637 0.18372
 O406 O 0.81703 0.52317 0.15057
 O407 O 0.85030 0.52311 0.18374
 O408 O 0.81694 0.47644 0.15053
 O409 O 0.78866 0.47631 0.17869
 O410 O 0.82222 0.52322 0.21209
 O411 O 0.78875 0.52328 0.17873
 O412 O 0.82211 0.47625 0.21208
 Cu413 Cu 0.83644 0.49977 0.16431
 Cu414 Cu 0.80258 0.49977 0.19827
 C415 C 0.84190 0.46853 0.20356
 C416 C 0.79723 0.53101 0.15890
 C417 C 0.84205 0.53093 0.20358
 C418 C 0.79711 0.46862 0.15885
 O419 O 0.14914 0.47609 0.81762
 O420 O 0.18244 0.52279 0.85090
 O421 O 0.14916 0.52283 0.81769
 O422 O 0.18239 0.47604 0.85087
 O423 O 0.21068 0.47599 0.82273
 O424 O 0.17727 0.52300 0.78937
 O425 O 0.21072 0.52295 0.82276
 O426 O 0.17725 0.47604 0.78930
 Cu427 Cu 0.16296 0.49943 0.83710
 Cu428 Cu 0.19684 0.49950 0.80318
 C429 C 0.15741 0.46832 0.79777
 C430 C 0.20227 0.53063 0.84260
 C431 C 0.15745 0.53069 0.79786
 C432 C 0.20222 0.46824 0.84256
 C433 C 0.26144 0.39469 0.08076
 N434 N 0.23846 0.38972 0.08759
 N435 N 0.22768 0.40293 0.10452
 C436 C 0.23955 0.42152 0.11515
 N437 N 0.26256 0.42642 0.10840
 N438 N 0.27334 0.41320 0.09147
 C439 C 0.27209 0.38216 0.06079
 C440 C 0.28055 0.37249 0.04325
 C441 C 0.22711 0.43731 0.13143
 C442 C 0.21630 0.45127 0.14410
 C443 C 0.73892 0.60497 0.08162
 N444 N 0.72703 0.58638 0.09223
 N445 N 0.73777 0.57316 0.10920
 C446 C 0.76072 0.57814 0.11609
 N447 N 0.77257 0.59680 0.10557
 N448 N 0.76183 0.61002 0.08859
 C449 C 0.72832 0.61751 0.06162
 C450 C 0.71990 0.62720 0.04407
 C451 C 0.77315 0.56235 0.13240
 C452 C 0.78396 0.54838 0.14508
 C453 C 0.73866 0.39538 0.91935
 N454 N 0.76163 0.39042 0.91256
 N455 N 0.77250 0.40371 0.89571
 C456 C 0.76073 0.42238 0.88514
 N457 N 0.73772 0.42727 0.89185
 N458 N 0.72685 0.41397 0.90870
 C459 C 0.72789 0.38273 0.93921
 C460 C 0.71934 0.37293 0.95666
 C461 C 0.77326 0.43821 0.86891
 C462 C 0.78413 0.45220 0.85627
 C463 C 0.26138 0.60437 0.91962
 N464 N 0.23840 0.60941 0.91291
 N465 N 0.22744 0.59621 0.89605
 C466 C 0.23914 0.57758 0.88538
 N467 N 0.26217 0.57261 0.89201
 N468 N 0.27312 0.58581 0.90887
 C469 C 0.27223 0.61691 0.93950
 C470 C 0.28084 0.62660 0.95696
 C471 C 0.22654 0.56184 0.86913
 C472 C 0.21562 0.54794 0.85646
 C473 C 0.08062 0.26070 0.39415
 N474 N 0.09159 0.27272 0.41243
 N475 N 0.10858 0.26197 0.42560
 C476 C 0.11512 0.23887 0.42090
 N477 N 0.10423 0.22689 0.40256
 N478 N 0.08724 0.23764 0.38938
 C479 C 0.06062 0.27135 0.38168
 C480 C 0.04308 0.27985 0.37205
 C481 C 0.13145 0.22648 0.43669
 C482 C 0.14416 0.21572 0.45067
 C483 C 0.08092 0.73840 0.60466
 N484 N 0.08789 0.76130 0.60977
 N485 N 0.10483 0.77213 0.59656
 C486 C 0.11530 0.76040 0.57782
 N487 N 0.10841 0.73747 0.57278
 N488 N 0.09147 0.72663 0.58600
 C489 C 0.06096 0.72771 0.61722
 C490 C 0.04344 0.71922 0.62693
 C491 C 0.13161 0.77291 0.56206
 C492 C 0.14431 0.78379 0.54814
 C493 C 0.91962 0.73934 0.39509
 N494 N 0.90876 0.72739 0.41349
 N495 N 0.89183 0.73818 0.42670
 C496 C 0.88525 0.76125 0.42192
 N497 N 0.89603 0.77316 0.40344
 N498 N 0.91295 0.76237 0.39023
 C499 C 0.93955 0.72864 0.38255
 C500 C 0.95705 0.72013 0.37287
 C501 C 0.86896 0.77369 0.43771
 C502 C 0.85629 0.78448 0.45169
 C503 C 0.91899 0.26209 0.60424
 N504 N 0.91209 0.23918 0.60943
 N505 N 0.89522 0.22825 0.59621
 C506 C 0.88475 0.23989 0.57741
 N507 N 0.89157 0.26284 0.57230
 N508 N 0.90843 0.27377 0.58551
 C509 C 0.93887 0.27290 0.61682
 C510 C 0.95634 0.28147 0.62655
 C511 C 0.86850 0.22728 0.56168
 C512 C 0.85582 0.21635 0.54779
 C513 C 0.39520 0.08030 0.26082
 N514 N 0.39026 0.08702 0.23782
 N515 N 0.40350 0.10392 0.22695
 C516 C 0.42208 0.11461 0.23876
 N517 N 0.42695 0.10797 0.26180
 N518 N 0.41372 0.09107 0.27267
 C519 C 0.38264 0.06037 0.27158
 C520 C 0.37294 0.04287 0.28014
 C521 C 0.43788 0.13087 0.22624
 C522 C 0.45185 0.14354 0.21537
 C523 C 0.60424 0.08122 0.73855
 N524 N 0.58560 0.09174 0.72671
 N525 N 0.57236 0.10866 0.73747
 C526 C 0.57735 0.11557 0.76041
 N527 N 0.59606 0.10513 0.77221
 N528 N 0.60931 0.08821 0.76145
 C529 C 0.61684 0.06129 0.72793
 C530 C 0.62658 0.04379 0.71949
 C531 C 0.56155 0.13184 0.77285
 C532 C 0.54760 0.14451 0.78367
 C533 C 0.39489 0.91918 0.73913
 N534 N 0.39005 0.91237 0.76214
 N535 N 0.40329 0.89543 0.77287
 C536 C 0.42178 0.88477 0.76093
 N537 N 0.42655 0.89149 0.73788
 N538 N 0.41330 0.90843 0.72714
 C539 C 0.38232 0.93913 0.72850
 C540 C 0.37261 0.95664 0.72004
 C541 C 0.43761 0.86848 0.77331
 C542 C 0.45162 0.85581 0.78408
 C543 C 0.60457 0.91926 0.26154
 N544 N 0.58593 0.90859 0.27330
 N545 N 0.57272 0.89170 0.26240
 C546 C 0.57774 0.88497 0.23942
 N547 N 0.59645 0.89556 0.22771
 N548 N 0.60966 0.91244 0.23860
 C549 C 0.61713 0.93917 0.27232
 C550 C 0.62682 0.95667 0.28086
 C551 C 0.56198 0.86870 0.22686
 C552 C 0.54807 0.85602 0.21596
 C553 C 0.39421 0.26167 0.91894
 N554 N 0.38915 0.23872 0.91211
 N555 N 0.40229 0.22791 0.89514
 C556 C 0.42090 0.23971 0.88448
 N557 N 0.42589 0.26270 0.89122
 N558 N 0.41275 0.27351 0.90819
 C559 C 0.38178 0.27234 0.93896
 C560 C 0.37219 0.28081 0.95654
 C561 C 0.43662 0.22723 0.86817
 C562 C 0.45053 0.21637 0.85548
 C563 C 0.60574 0.73884 0.91873
 N564 N 0.58729 0.72692 0.90794
 N565 N 0.57408 0.73773 0.89100
 C566 C 0.57893 0.76078 0.88434
 N567 N 0.59746 0.77266 0.89506
 N568 N 0.61067 0.76185 0.91199
 C569 C 0.61825 0.72815 0.93870
 C570 C 0.62790 0.71964 0.95623
 C571 C 0.56312 0.77325 0.86809
 C572 C 0.54914 0.78409 0.85545
 C573 C 0.39495 0.73822 0.08048
 N574 N 0.41348 0.72648 0.09131
 N575 N 0.42661 0.73741 0.10822
 C576 C 0.42162 0.76043 0.11484
 N577 N 0.40301 0.77213 0.10410
 N578 N 0.38988 0.76119 0.08718
 C579 C 0.38249 0.72739 0.06054
 C580 C 0.37287 0.71879 0.04303
 C581 C 0.43730 0.77302 0.13114
 C582 C 0.45117 0.78395 0.14385
 C583 C 0.60543 0.26095 0.08005
 N584 N 0.61034 0.23790 0.08663
 N585 N 0.59721 0.22699 0.10358
 C586 C 0.57876 0.23879 0.11447
 N587 N 0.57393 0.26188 0.10797
 N588 N 0.58706 0.27279 0.09102
 C589 C 0.61787 0.27177 0.06009
 C590 C 0.62747 0.28038 0.04256
 C591 C 0.56305 0.22624 0.13079
 C592 C 0.54914 0.21535 0.14349
 C593 C 0.26110 0.08137 0.60514
 N594 N 0.23811 0.08815 0.61004
 N595 N 0.22734 0.10505 0.59677
 C596 C 0.23922 0.11569 0.57819
 N597 N 0.26224 0.10899 0.57336
 N598 N 0.27302 0.09209 0.58663
 C599 C 0.27176 0.06145 0.61773
 C600 C 0.28025 0.04396 0.62747
 C601 C 0.22677 0.13191 0.56233
 C602 C 0.21595 0.14451 0.54830
 C603 C 0.73815 0.08064 0.39478
 N604 N 0.72639 0.09139 0.41334
 N605 N 0.73730 0.10832 0.42649
 C606 C 0.76031 0.11502 0.42147
 N607 N 0.77203 0.10435 0.40284
 N608 N 0.76112 0.08742 0.38969
 C609 C 0.72736 0.06068 0.38232
 C610 C 0.71880 0.04314 0.37270
 C611 C 0.77288 0.13133 0.43716
 C612 C 0.78379 0.14405 0.45104
 C613 C 0.73898 0.91898 0.60562
 N614 N 0.72710 0.90804 0.58724
 N615 N 0.73799 0.89114 0.57407
 C616 C 0.76109 0.88468 0.57887
 N617 N 0.77293 0.89555 0.59733
 N618 N 0.76204 0.91244 0.61050
 C619 C 0.72819 0.93890 0.61810
 C620 C 0.71959 0.95638 0.62773
 C621 C 0.77362 0.86845 0.56311
 C622 C 0.78449 0.85583 0.54915
 C623 C 0.26189 0.91910 0.39462
 N624 N 0.23897 0.91219 0.38953
 N625 N 0.22812 0.89527 0.40275
 C626 C 0.23986 0.88474 0.42146
 N627 N 0.26282 0.89157 0.42648
 N628 N 0.27367 0.90849 0.41326
 C629 C 0.27261 0.93905 0.38207
 C630 C 0.28112 0.95659 0.37237
 C631 C 0.22733 0.86846 0.43723
 C632 C 0.21644 0.85578 0.45117
 C633 C 0.08012 0.39493 0.73855
 N634 N 0.08670 0.38988 0.76158
 N635 N 0.10363 0.40297 0.77255
 C636 C 0.11450 0.42152 0.76084
 N637 N 0.10800 0.42650 0.73778
 N638 N 0.09107 0.41341 0.72680
 C639 C 0.06017 0.38253 0.72767
 C640 C 0.04263 0.37297 0.71904
 C641 C 0.13081 0.43718 0.77347
 C642 C 0.14352 0.45104 0.78441
 C643 C 0.08169 0.60519 0.26134
 N644 N 0.09239 0.58665 0.27320
 N645 N 0.10926 0.57341 0.26235
 C646 C 0.11595 0.57832 0.23932
 N647 N 0.10534 0.59693 0.22751
 N648 N 0.08847 0.61017 0.23836
 C649 C 0.06180 0.61776 0.27208
 C650 C 0.04433 0.62748 0.28062
 C651 C 0.13217 0.56252 0.22682
 C652 C 0.14480 0.54855 0.21596
 C653 C 0.91918 0.39450 0.26174
 N654 N 0.90862 0.41307 0.27365
 N655 N 0.89165 0.42630 0.26294
 C656 C 0.88471 0.42136 0.24000
 N657 N 0.89518 0.40271 0.22814
 N658 N 0.91215 0.38948 0.23885
 C659 C 0.93918 0.38195 0.27230
 C660 C 0.95674 0.37225 0.28069
 C661 C 0.86841 0.43717 0.22760
 C662 C 0.85573 0.45114 0.21681
 C663 C 0.91934 0.60584 0.73877
 N664 N 0.91276 0.61078 0.76181
 N665 N 0.89583 0.59764 0.77274
 C666 C 0.88496 0.57915 0.76095
 N667 N 0.89145 0.57428 0.73787
 N668 N 0.90839 0.58742 0.72695
 C669 C 0.93931 0.61827 0.72795
 C670 C 0.95687 0.62784 0.71936
 C671 C 0.86867 0.56342 0.77353
 C672 C 0.85599 0.54949 0.78443
 C673 C 0.73899 0.60555 0.92021
 N674 N 0.72712 0.58706 0.90942
 N675 N 0.73795 0.57391 0.89247
 C676 C 0.76097 0.57883 0.88578
 N677 N 0.77280 0.59739 0.89649
 N678 N 0.76198 0.61054 0.91345
 C679 C 0.72827 0.61804 0.94017
 C680 C 0.71974 0.62770 0.95770
 C681 C 0.77344 0.56314 0.86941
 C682 C 0.78426 0.54926 0.85665
 C683 C 0.26123 0.39437 0.91953
 N684 N 0.23821 0.38937 0.91286
 N685 N 0.22728 0.40259 0.89601
 C686 C 0.23902 0.42122 0.88530
 N687 N 0.26208 0.42615 0.89189
 N688 N 0.27301 0.41293 0.90874
 C689 C 0.27206 0.38182 0.93941
 C690 C 0.28066 0.37214 0.95690
 C691 C 0.22644 0.43698 0.86906
 C692 C 0.21554 0.45090 0.85640
 C693 C 0.26234 0.60487 0.08085
 N694 N 0.27405 0.58614 0.09137
 N695 N 0.26319 0.57293 0.10829
 C696 C 0.24029 0.57805 0.11522
 N697 N 0.22863 0.59685 0.10479
 N698 N 0.23948 0.61006 0.08786
 C699 C 0.27303 0.61741 0.06088
 C700 C 0.28151 0.62708 0.04332
 C701 C 0.22773 0.56229 0.13150
 C702 C 0.21681 0.54837 0.14416
 C703 C 0.73846 0.39478 0.08163
 N704 N 0.76138 0.38973 0.08853
 N705 N 0.77219 0.40294 0.10547
 C706 C 0.76041 0.42159 0.11603
 N707 N 0.73745 0.42656 0.10921
 N708 N 0.72663 0.41335 0.09227
 C709 C 0.72777 0.38225 0.06166
 C710 C 0.71928 0.37257 0.04413
 C711 C 0.77290 0.43735 0.13233
 C712 C 0.78377 0.45128 0.14501
 C713 C 0.91970 0.73833 0.60520
 N714 N 0.91289 0.76126 0.61032
 N715 N 0.89602 0.77218 0.59711
 C716 C 0.88546 0.76052 0.57837
 N717 N 0.89220 0.73755 0.57332
 N718 N 0.90906 0.72663 0.58653
 C719 C 0.93959 0.72753 0.61775
 C720 C 0.95709 0.71897 0.62744
 C721 C 0.86919 0.77310 0.56265
 C722 C 0.85650 0.78403 0.54876
 C723 C 0.91921 0.26118 0.39404
 N724 N 0.90849 0.27308 0.41252
 N725 N 0.89155 0.26228 0.42576
 C726 C 0.88482 0.23925 0.42092
 N727 N 0.89546 0.22740 0.40236
 N728 N 0.91240 0.23820 0.38912
 C729 C 0.93918 0.27187 0.38148
 C730 C 0.95672 0.28036 0.37178
 C731 C 0.86851 0.22680 0.43673
 C732 C 0.85581 0.21598 0.45070
 C733 C 0.08112 0.26213 0.60428
 N734 N 0.09163 0.27379 0.58549
 N735 N 0.10846 0.26287 0.57226
 C736 C 0.11529 0.23995 0.57740
 N737 N 0.10486 0.22832 0.59626
 N738 N 0.08804 0.23925 0.60949
 C739 C 0.06126 0.27292 0.61688
 C740 C 0.04381 0.28148 0.62662
 C741 C 0.13150 0.22734 0.56165
 C742 C 0.14414 0.21639 0.54776
 C743 C 0.08099 0.73872 0.39450
 N744 N 0.08787 0.76168 0.38950
 N745 N 0.10484 0.77245 0.40271
 C746 C 0.11544 0.76061 0.42131
 N747 N 0.10865 0.73761 0.42622
 N748 N 0.09168 0.72683 0.41302
 C749 C 0.06098 0.72807 0.38199
 C750 C 0.04341 0.71961 0.37234
 C751 C 0.13176 0.77306 0.43709
 C752 C 0.14445 0.78389 0.45104
 C753 C 0.60503 0.91986 0.73842
 N754 N 0.61015 0.91292 0.76132
 N755 N 0.59698 0.89594 0.77213
 C756 C 0.57829 0.88537 0.76038
 N757 N 0.57325 0.89223 0.73743
 N758 N 0.58642 0.90922 0.72662
 C759 C 0.61754 0.93987 0.72773
 C760 C 0.62720 0.95743 0.71924
 C761 C 0.56259 0.86899 0.77287
 C762 C 0.54871 0.85622 0.78373
 C763 C 0.39454 0.91908 0.26138
 N764 N 0.38952 0.91233 0.23840
 N765 N 0.40271 0.89545 0.22752
 C766 C 0.42134 0.88480 0.23928
 N767 N 0.42629 0.89147 0.26229
 N768 N 0.41310 0.90835 0.27318
 C769 C 0.38204 0.93901 0.27214
 C770 C 0.37240 0.95653 0.28067
 C771 C 0.43709 0.86854 0.22673
 C772 C 0.45101 0.85588 0.21585
 C773 C 0.60523 0.08039 0.26161
 N774 N 0.61036 0.08712 0.23864
 N775 N 0.59719 0.10396 0.22765
 C776 C 0.57848 0.11459 0.23928
 N777 N 0.57343 0.10794 0.26229
 N778 N 0.58660 0.09110 0.27328
 C779 C 0.61773 0.06051 0.27249
 C780 C 0.62737 0.04301 0.28112
 C781 C 0.56278 0.13082 0.22662
 C782 C 0.54891 0.14348 0.21565
 C783 C 0.39413 0.08062 0.73866
 N784 N 0.38914 0.08747 0.76161
 N785 N 0.40230 0.10449 0.77236
 C786 C 0.42086 0.11517 0.76049
 N787 N 0.42578 0.10840 0.73750
 N788 N 0.41261 0.09138 0.72675
 C789 C 0.38165 0.06058 0.72803
 C790 C 0.37202 0.04300 0.71958
 C791 C 0.43659 0.13156 0.77292
 C792 C 0.45051 0.14431 0.78373
 C793 C 0.60510 0.73886 0.08099
 N794 N 0.61006 0.76183 0.08780
 N795 N 0.59675 0.77267 0.10462
 C796 C 0.57806 0.76086 0.11515
 N797 N 0.57317 0.73785 0.10842
 N798 N 0.58648 0.72701 0.09160
 C799 C 0.61778 0.72812 0.06115
 C800 C 0.62758 0.71960 0.04371
 C801 C 0.56222 0.77335 0.13136
 C802 C 0.54823 0.78418 0.14400
 C803 C 0.39543 0.26089 0.08018
 N804 N 0.41410 0.27265 0.09078
 N805 N 0.42737 0.26176 0.10761
 C806 C 0.42239 0.23876 0.11435
 N807 N 0.40366 0.22703 0.10383
 N808 N 0.39039 0.23793 0.08700
 C809 C 0.38278 0.27168 0.06034
 C810 C 0.37300 0.28025 0.04290
 C811 C 0.43817 0.22622 0.13061
 C812 C 0.45209 0.21534 0.14330
 C813 C 0.60445 0.26154 0.91870
 N814 N 0.58573 0.27336 0.90828
 N815 N 0.57245 0.26261 0.89136
 C816 C 0.57747 0.23973 0.88434
 N817 N 0.59626 0.22795 0.89467
 N818 N 0.60954 0.23870 0.91160
 C819 C 0.61708 0.27212 0.93866
 C820 C 0.62683 0.28052 0.95620
 C821 C 0.56163 0.22729 0.86807
 C822 C 0.54765 0.21645 0.85541
 C823 C 0.39559 0.73822 0.91919
 N824 N 0.39041 0.76109 0.91218
 N825 N 0.40362 0.77195 0.89525
 C826 C 0.42241 0.76027 0.88482
 N827 N 0.42751 0.73737 0.89175
 N828 N 0.41431 0.72651 0.90867
 C829 C 0.38304 0.72751 0.93914
 C830 C 0.37334 0.71900 0.95667
 C831 C 0.43815 0.77282 0.86852
 C832 C 0.45204 0.78374 0.85582
 C833 C 0.73856 0.91946 0.39566
 N834 N 0.72688 0.90886 0.41438
 N835 N 0.73781 0.89201 0.42760
 C836 C 0.76076 0.88525 0.42250
 N837 N 0.77241 0.89577 0.40371
 N838 N 0.76147 0.91262 0.39049
 C839 C 0.72775 0.93933 0.38308
 C840 C 0.71917 0.95680 0.37335
 C841 C 0.77336 0.86898 0.43822
 C842 C 0.78429 0.85628 0.45210
 C843 C 0.26132 0.91904 0.60507
 N844 N 0.23840 0.91206 0.61007
 N845 N 0.22765 0.89514 0.59679
 C846 C 0.23948 0.88468 0.57811
 N847 N 0.26244 0.89158 0.57319
 N848 N 0.27320 0.90850 0.58646
 C849 C 0.27195 0.93898 0.61769
 C850 C 0.28040 0.95649 0.62745
 C851 C 0.22706 0.86840 0.56228
 C852 C 0.21624 0.85572 0.54830
 C853 C 0.26145 0.08036 0.39492
 N854 N 0.23853 0.08721 0.38981
 N855 N 0.22767 0.10413 0.40298
 C856 C 0.23940 0.11472 0.42166
 N857 N 0.26236 0.10795 0.42670
 N858 N 0.27322 0.09103 0.41353
 C859 C 0.27219 0.06043 0.38239
 C860 C 0.28072 0.04293 0.37271
 C861 C 0.22689 0.13106 0.43735
 C862 C 0.21602 0.14381 0.45121
 C863 C 0.73855 0.08123 0.60499
 N864 N 0.76150 0.08812 0.60997
 N865 N 0.77233 0.10499 0.59667
 C866 C 0.76054 0.11549 0.57798
 N867 N 0.73754 0.10869 0.57307
 N868 N 0.72672 0.09182 0.58637
 C869 C 0.72784 0.06133 0.61764
 C870 C 0.71933 0.04385 0.62742
 C871 C 0.77303 0.13173 0.56213
 C872 C 0.78388 0.14437 0.54813
 C873 C 0.91938 0.60500 0.26184
 N874 N 0.90887 0.58634 0.27371
 N875 N 0.89192 0.57307 0.26298
 C876 C 0.88497 0.57805 0.24005
 N877 N 0.89540 0.59678 0.22822
 N878 N 0.91235 0.61005 0.23895
 C879 C 0.93934 0.61763 0.27244
 C880 C 0.95686 0.62740 0.28086
 C881 C 0.86864 0.56224 0.22764
 C882 C 0.85593 0.54828 0.21684
 C883 C 0.91891 0.39592 0.73852
 N884 N 0.91198 0.39074 0.76141
 N885 N 0.89513 0.40397 0.77231
 C886 C 0.88471 0.42278 0.76065
 N887 N 0.89156 0.42789 0.73772
 N888 N 0.90840 0.41466 0.72682
 C889 C 0.93880 0.38334 0.72775
 C890 C 0.95627 0.37363 0.71921
 C891 C 0.86849 0.43854 0.77324
 C892 C 0.85586 0.45245 0.78418
 C893 C 0.08052 0.60473 0.73903
 N894 N 0.08730 0.60971 0.76201
 N895 N 0.10413 0.59644 0.77290
 C896 C 0.11471 0.57779 0.76115
 N897 N 0.10801 0.57288 0.73813
 N898 N 0.09118 0.58614 0.72724
 C899 C 0.06067 0.61735 0.72824
 C900 C 0.04322 0.62710 0.71968
 C901 C 0.13094 0.56199 0.77369
 C902 C 0.14360 0.54805 0.78456
 C903 C 0.08059 0.39497 0.26095
 N904 N 0.09127 0.41351 0.27282
 N905 N 0.10825 0.42673 0.26205
 C906 C 0.11507 0.42180 0.23908
 N907 N 0.10447 0.40318 0.22724
 N908 N 0.08749 0.38997 0.23801
 C909 C 0.06062 0.38240 0.27161
 C910 C 0.04310 0.37267 0.28009
 C911 C 0.13146 0.43755 0.22665
 C912 C 0.14423 0.45147 0.21584
   
