data_POSCAR
  _audit_creation_date              2014-09-24
  _audit_creation_method            'ToBaCCo'
  _symmetry_space_group_name_H-M    'P1'
  _symmetry_Int_Tables_number       1
  _symmetry_cell_setting            triclinic
  loop_
  _symmetry_equiv_pos_as_xyz
 x,y,z
_cell_length_a 33.7887
_cell_length_b 33.7860
_cell_length_c 33.9940
_cell_angle_alpha 90.249200
_cell_angle_beta 90.176100
_cell_angle_gamma 89.916300
loop_
  _atom_site_label
  _atom_site_type_symbol
  _atom_site_fract_x
  _atom_site_fract_y
  _atom_site_fract_z
C1 C 0.75173 0.62295 0.99794
 C2 C 0.74890 0.37867 0.49910
 C3 C 0.25227 -0.12011 -0.00248
 C4 C 0.24479 0.12699 0.49953
 C5 C 0.12374 0.49697 0.24510
 C6 C -0.12387 -0.00407 0.25610
 C7 C 0.37578 0.50177 0.74872
 C8 C 0.62862 1.00288 0.75433
 C9 C -0.00174 0.24429 -0.11326
 C10 C 0.50088 0.25401 0.12274
 C11 C 1.00088 0.74266 0.62094
 C12 C 0.49797 0.75586 0.37538
 C13 C 0.43095 -0.03708 0.28915
 H14 H 0.43663 -0.00900 0.30348
 C15 C 0.44984 -0.07130 0.30247
 H16 H 0.47012 -0.06911 0.32711
 C17 C 0.39496 -0.07447 0.24215
 H18 H 0.37220 -0.07593 0.21980
 C19 C 0.41297 -0.10948 0.25471
 H20 H 0.40346 -0.13691 0.24140
 N21 N 0.40373 -0.03928 0.25978
 C22 C 0.37725 0.08194 0.22616
 H23 H 0.34553 0.07757 0.22631
 C24 C 0.39266 0.11783 0.21383
 H25 H 0.37188 0.13966 0.20337
 C26 C 0.44153 0.05583 0.23613
 H27 H 0.46032 0.03114 0.24394
 C28 C 0.45842 0.09183 0.22438
 H29 H 0.49031 0.09431 0.22265
 Zn30 Zn 0.37203 0.00561 0.24833
 N31 N 0.40150 0.05165 0.23641
 C32 C 0.35914 0.04512 0.31691
 N33 N 0.34162 0.01730 0.29387
 C34 C 0.30765 -0.00097 0.30549
 C35 C 0.28902 0.01042 0.34082
 C36 C 0.34186 0.05723 0.35175
 C37 C 0.36784 -0.01045 0.17111
 C38 C 0.35342 -0.02117 0.13435
 C39 C 0.28703 -0.01622 0.15995
 C40 C 0.30298 -0.00586 0.19678
 N41 N 0.34292 -0.00450 0.20177
 H42 H 0.38695 0.05814 0.30838
 H43 H 0.29491 -0.02412 0.28744
 H44 H 0.26141 -0.00338 0.34892
 H45 H 0.35607 0.08056 0.36856
 H46 H 0.39947 -0.00868 0.17588
 H47 H 0.37500 -0.02868 0.11227
 H48 H 0.25530 -0.01957 0.15686
 H49 H 0.28358 -0.00008 0.22135
 C50 C 0.43390 0.12356 0.21269
 C51 C 0.44044 -0.10845 0.28585
 C52 C 0.31240 -0.02508 0.12816
 C53 C 0.30621 0.04023 0.36438
 C54 C 0.05930 1.03465 0.79115
 H55 H 0.05460 1.00526 0.80270
 C56 C 0.03999 1.06695 0.80820
 H57 H 0.01912 1.06125 0.83148
 C58 C 0.09226 1.07689 0.74664
 H59 H 0.11364 1.08090 0.72345
 C60 C 0.07388 1.11007 0.76313
 H61 H 0.08064 1.13905 0.75152
 N62 N 0.08568 1.04022 0.76167
 C63 C 0.11642 0.92232 0.72069
 H64 H 0.14780 0.92847 0.71925
 C65 C 0.10233 0.88562 0.70881
 H66 H 0.12354 0.86510 0.69660
 C67 C 0.05151 0.94444 0.73497
 H68 H 0.03185 0.96783 0.74447
 C69 C 0.03601 0.90749 0.72380
 H70 H 0.00428 0.90311 0.72395
 Zn71 Zn 0.11906 0.99761 0.74710
 N72 N 0.09121 0.95096 0.73314
 C73 C 0.13515 0.95495 0.81333
 N74 N 0.15033 0.98518 0.79200
 C75 C 0.18240 1.00586 0.80517
 C76 C 0.20157 0.99478 0.84032
 C77 C 0.15292 0.94320 0.84808
 C78 C 0.12337 1.01930 0.67066
 C79 C 0.13838 1.03190 0.63484
 C80 C 0.20436 1.02527 0.66138
 C81 C 0.18784 1.01321 0.69726
 N82 N 0.14784 1.01146 0.70136
 H83 H 0.10864 0.93995 0.80376
 H84 H 0.19313 1.03085 0.78855
 H85 H 0.22761 1.01081 0.84965
 H86 H 0.14048 0.91831 0.86377
 H87 H 0.09168 1.01722 0.67465
 H88 H 0.11714 1.04044 0.61275
 H89 H 0.23617 1.02825 0.65900
 H90 H 0.20690 1.00597 0.72178
 C91 C 0.06156 0.87723 0.71055
 C92 C 0.04936 1.10575 0.79617
 C93 C 0.17955 1.03555 0.62953
 C94 C 0.18676 0.96276 0.86222
 C95 C 0.56493 0.54978 0.28783
 H96 H 0.55912 0.52200 0.30240
 C97 C 0.54644 0.58434 0.30083
 H98 H 0.52618 0.58267 0.32541
 C99 C 0.60103 0.58609 0.24058
 H100 H 0.62358 0.58688 0.21812
 C101 C 0.58344 0.62152 0.25292
 H102 H 0.59285 0.64871 0.23932
 N103 N 0.59222 0.55133 0.25870
 C104 C 0.61969 0.42974 0.22681
 H105 H 0.65137 0.43434 0.22762
 C106 C 0.60473 0.39339 0.21489
 H107 H 0.62578 0.37142 0.20516
 C108 C 0.55507 0.45555 0.23513
 H109 H 0.53600 0.48024 0.24234
 C110 C 0.53863 0.41908 0.22373
 H111 H 0.50679 0.41629 0.22143
 Zn112 Zn 0.62409 0.50619 0.24928
 N113 N 0.59506 0.46006 0.23614
 C114 C 0.63419 0.46592 0.31848
 N115 N 0.65203 0.49465 0.29706
 C116 C 0.68477 0.51360 0.31125
 C117 C 0.70237 0.50146 0.34689
 C118 C 0.65030 0.45329 0.35380
 C119 C 0.63446 0.51789 0.17034
 C120 C 0.65262 0.52756 0.13491
 C121 C 0.71503 0.53163 0.16938
 C122 C 0.69566 0.52109 0.20417
 N123 N 0.65581 0.51582 0.20425
 H124 H 0.60714 0.45240 0.30822
 H125 H 0.69755 0.53777 0.29493
 H126 H 0.72933 0.51564 0.35662
 H127 H 0.63604 0.42918 0.36912
 H128 H 0.60279 0.51332 0.17114
 H129 H 0.63450 0.53104 0.10881
 H130 H 0.74616 0.53841 0.17124
 H131 H 0.71232 0.51863 0.23118
 C132 C 0.56357 0.38721 0.21325
 C133 C 0.55638 0.62119 0.28423
 C134 C 0.69335 0.53565 0.13397
 C135 C 0.68524 0.47038 0.36847
 C136 C 0.94721 0.44202 0.76920
 H137 H 0.96716 0.46608 0.76274
 C138 C 0.96238 0.40554 0.78192
 H139 H 0.99404 0.40208 0.78555
 C140 C 0.88179 0.41795 0.77520
 H141 H 0.85027 0.42327 0.77301
 C142 C 0.89547 0.38157 0.78845
 H143 H 0.87348 0.36039 0.79731
 N144 N 0.90741 0.44747 0.76643
 C145 C 0.90340 0.57447 0.75721
 H146 H 0.87935 0.57710 0.77796
 C147 C 0.92131 0.60875 0.74281
 H148 H 0.91141 0.63724 0.75364
 C149 C 0.94374 0.53427 0.71660
 H150 H 0.95131 0.50528 0.70530
 C151 C 0.96309 0.56767 0.70223
 H152 H 0.98681 0.56335 0.68138
 Zn153 Zn 0.88020 0.49456 0.75252
 N154 N 0.91373 0.53828 0.74276
 C155 C 0.86875 0.50919 0.83096
 N156 N 0.84808 0.50622 0.79673
 C157 C 0.80822 0.51158 0.79587
 C158 C 0.78813 0.52333 0.82997
 C159 C 0.84986 0.52000 0.86575
 C160 C 0.86616 0.45304 0.68404
 C161 C 0.84877 0.44174 0.64879
 C162 C 0.80211 0.49547 0.65532
 C163 C 0.82106 0.50623 0.69075
 N164 N 0.85161 0.48403 0.70506
 H165 H 0.90041 0.50434 0.83090
 H166 H 0.79209 0.50815 0.76862
 H167 H 0.75703 0.53012 0.82739
 H168 H 0.86744 0.52423 0.89212
 H169 H 0.89165 0.43687 0.69446
 H170 H 0.86054 0.41619 0.63339
 H171 H 0.77705 0.51260 0.64530
 H172 H 0.81112 0.53204 0.70683
 C173 C 0.94971 0.60587 0.71276
 C174 C 0.93640 0.37468 0.79238
 C175 C 0.81573 0.46229 0.63408
 C176 C 0.80914 0.52848 0.86561
 C177 C 0.28117 0.44281 -0.04747
 H178 H 0.29233 0.45277 -0.01930
 C179 C 0.29314 0.46188 -0.08169
 H180 H 0.31377 0.48624 -0.07915
 C181 C 0.24507 0.39585 -0.08494
 H182 H 0.22815 0.36874 -0.08610
 C183 C 0.25640 0.41401 -0.12000
 H184 H 0.24796 0.40025 -0.14751
 N185 N 0.25805 0.41006 -0.04967
 C186 C 0.24664 0.38420 0.07501
 H187 H 0.25709 0.35398 0.07291
 C188 C 0.23456 0.39925 0.11123
 H189 H 0.23722 0.38011 0.13634
 C190 C 0.23088 0.44453 0.04347
 H191 H 0.22824 0.46155 0.01673
 C192 C 0.21854 0.46090 0.07929
 H193 H 0.20681 0.49075 0.07973
 Zn194 Zn 0.25240 0.37758 -0.00491
 N195 N 0.24346 0.40634 0.04193
 C196 C 0.33039 0.37364 0.01667
 N197 N 0.30131 0.35040 0.00143
 C198 C 0.30839 0.31168 -0.00723
 C199 C 0.34364 0.29369 0.00514
 C200 C 0.36644 0.35731 0.02805
 C201 C 0.17386 0.36733 -0.02061
 C202 C 0.13817 0.34879 -0.02952
 C203 C 0.16903 0.28575 -0.01654
 C204 C 0.20406 0.30576 -0.00693
 N205 N 0.20650 0.34567 -0.01148
 H206 H 0.32483 0.40472 0.02192
 H207 H 0.28678 0.29444 -0.02313
 H208 H 0.34761 0.26253 -0.00074
 H209 H 0.38835 0.37625 0.04182
 H210 H 0.17605 0.39922 -0.02245
 H211 H 0.11321 0.36667 -0.03876
 H212 H 0.16899 0.25394 -0.01443
 H213 H 0.22899 0.28914 0.00389
 C214 C 0.21790 0.43739 0.11351
 C215 C 0.28135 0.44725 -0.11881
 C216 C 0.13580 0.30725 -0.02977
 C217 C 0.37221 0.31617 0.02564
 C218 C 0.78345 0.05562 1.05139
 H219 H 0.79677 0.04754 1.02360
 C220 C 0.79585 0.03689 1.08576
 H221 H 0.81862 0.01439 1.08378
 C222 C 0.74140 0.09787 1.08805
 H223 H 0.72136 0.12276 1.08909
 C224 C 0.75308 0.08001 1.12326
 H225 H 0.74175 0.09193 1.15051
 N226 N 0.75774 0.08648 1.05321
 C227 C 0.74025 0.11823 0.92946
 H228 H 0.74414 0.14967 0.93362
 C229 C 0.72850 0.10402 0.89279
 H230 H 0.72352 0.12567 0.87015
 C231 C 0.73809 0.05386 0.95639
 H232 H 0.74012 0.03466 0.98165
 C233 C 0.72669 0.03816 0.91980
 H234 H 0.72017 0.00687 0.91739
 Zn235 Zn 0.75163 0.12049 1.00920
 N236 N 0.74389 0.09350 0.96061
 C237 C 0.79500 0.18830 0.98678
 N238 N 0.79779 0.15251 1.00468
 C239 C 0.83365 0.13728 1.01494
 C240 C 0.86853 0.15697 1.00511
 C241 C 0.82910 0.20898 0.97638
 C242 C 0.67081 0.13815 1.00416
 C243 C 0.63564 0.15762 1.01380
 C244 C 0.67414 0.20616 1.04951
 C245 C 0.70850 0.18579 1.03917
 N246 N 0.70620 0.15216 1.01730
 H247 H 0.76634 0.19978 0.97837
 H248 H 0.83562 0.10866 1.02864
 H249 H 0.89648 0.14239 1.01073
 H250 H 0.82583 0.23564 0.95916
 H251 H 0.66968 0.11071 0.98771
 H252 H 0.60791 0.14428 1.00507
 H253 H 0.67662 0.23138 1.06909
 H254 H 0.73685 0.19563 1.05033
 C255 C 0.72054 0.06346 0.88744
 C256 C 0.78165 0.04977 1.12262
 C257 C 0.63685 0.19211 1.03705
 C258 C 0.86675 0.19305 0.98476
 C259 C 0.29164 0.56373 0.54078
 H260 H 0.30704 0.55807 0.51347
 C261 C 0.30518 0.54679 0.57565
 H262 H 0.33096 0.52772 0.57476
 C263 C 0.24141 0.59801 0.57549
 H264 H 0.21747 0.61924 0.57555
 C265 C 0.25414 0.58192 0.61115
 H266 H 0.23921 0.59104 0.63767
 N267 N 0.26074 0.58939 0.54143
 C268 C 0.22435 0.61376 0.42201
 H269 H 0.22300 0.64536 0.42715
 C270 C 0.21185 0.59849 0.38628
 H271 H 0.19926 0.61907 0.36549
 C272 C 0.23875 0.54957 0.44587
 H273 H 0.24858 0.53079 0.46965
 C274 C 0.22703 0.53282 0.40973
 H275 H 0.22708 0.50096 0.40627
 Zn276 Zn 0.25004 0.61969 0.49617
 N277 N 0.23704 0.58950 0.45108
 C278 C 0.31622 0.63578 0.45206
 N279 N 0.29631 0.64929 0.48406
 C280 C 0.31076 0.67999 0.50595
 C281 C 0.34521 0.69999 0.49409
 C282 C 0.35040 0.65430 0.43959
 C283 C 0.17052 0.62984 0.50720
 C284 C 0.13504 0.64814 0.51723
 C285 C 0.16997 0.71027 0.52251
 C286 C 0.20479 0.69079 0.51149
 N287 N 0.20465 0.65100 0.50564
 H288 H 0.30589 0.61021 0.43599
 H289 H 0.29553 0.68918 0.53239
 H290 H 0.35543 0.72499 0.51119
 H291 H 0.36499 0.64323 0.41340
 H292 H 0.17126 0.59822 0.50214
 H293 H 0.10880 0.63013 0.52063
 H294 H 0.17193 0.74126 0.53005
 H295 H 0.23206 0.70721 0.50939
 C296 C 0.21350 0.55747 0.37909
 C297 C 0.28719 0.55663 0.61179
 C298 C 0.13443 0.68870 0.52638
 C299 C 0.36523 0.68734 0.46001
 C300 C 0.79096 0.93233 0.46292
 H301 H 0.80662 0.93735 0.49025
 C302 C 0.80425 0.95036 0.42857
 H303 H 0.82962 0.96987 0.43016
 C304 C 0.74217 0.89734 0.42681
 H305 H 0.71910 0.87527 0.42580
 C306 C 0.75467 0.91452 0.39171
 H307 H 0.74037 0.90527 0.36481
 N308 N 0.76093 0.90566 0.46138
 C309 C 0.72443 0.87848 0.58094
 H310 H 0.71743 0.84793 0.57473
 C311 C 0.71265 0.89490 0.61650
 H312 H 0.69629 0.87621 0.63638
 C313 C 0.74817 0.94041 0.55918
 H314 H 0.76037 0.95848 0.53612
 C315 C 0.73724 0.95815 0.59503
 H316 H 0.74092 0.98975 0.59881
 Zn317 Zn 0.74994 0.87255 0.50515
 N318 N 0.74168 0.90106 0.55292
 C319 C 0.79181 0.80931 0.54103
 N320 N 0.79317 0.83684 0.51206
 C321 C 0.82685 0.84233 0.49086
 C322 C 0.86195 0.82315 0.50140
 C323 C 0.82602 0.78905 0.55216
 C324 C 0.67016 0.87064 0.49240
 C325 C 0.63347 0.85650 0.48025
 C326 C 0.66169 0.79092 0.47593
 C327 C 0.69822 0.80656 0.48779
 N328 N 0.70186 0.84606 0.49459
 H329 H 0.76469 0.80432 0.55691
 H330 H 0.82737 0.86324 0.46702
 H331 H 0.88843 0.83047 0.48541
 H332 H 0.82475 0.76906 0.57695
 H333 H 0.67401 0.90192 0.49821
 H334 H 0.61021 0.87799 0.47662
 H335 H 0.65967 0.75978 0.46851
 H336 H 0.72390 0.78754 0.48984
 C337 C 0.71929 0.93526 0.62454
 C338 C 0.78693 0.94071 0.39200
 C339 C 0.62885 0.81619 0.47054
 C340 C 0.86233 0.79739 0.53375
 C341 C -0.04513 0.28227 0.43772
 H342 H -0.01647 0.28982 0.44982
 C343 C -0.07950 0.29474 0.45683
 H344 H -0.07654 0.31229 0.48337
 C345 C -0.08319 0.25475 0.38582
 H346 H -0.08426 0.24045 0.35731
 C347 C -0.11833 0.26653 0.40401
 H348 H -0.14601 0.26162 0.38872
 N349 N -0.04756 0.26304 0.40264
 C350 C 0.08009 0.25939 0.39195
 H351 H 0.08220 0.27582 0.36495
 C352 C 0.11494 0.24838 0.41136
 H353 H 0.14294 0.25598 0.39811
 C354 C 0.04132 0.22610 0.43915
 H355 H 0.01268 0.21660 0.44949
 C356 C 0.07533 0.21456 0.45952
 H357 H 0.07211 0.19533 0.48469
 Zn358 Zn -0.00168 0.25229 0.37248
 N359 N 0.04421 0.24698 0.40520
 C360 C 0.03245 0.29240 0.30763
 N361 N 0.00571 0.29513 0.33727
 C362 C -0.01197 0.33024 0.34623
 C363 C -0.00067 0.36499 0.32722
 C364 C 0.04431 0.32627 0.28760
 C365 C -0.01832 0.17295 0.37150
 C366 C -0.02953 0.13603 0.35724
 C367 C -0.02261 0.16070 0.29115
 C368 C -0.01200 0.19767 0.30686
 N369 N -0.01039 0.20311 0.34654
 H370 H 0.04689 0.26447 0.30154
 H371 H -0.03286 0.33199 0.37016
 H372 H -0.01313 0.39260 0.33740
 H373 H 0.06775 0.32378 0.26607
 H374 H -0.01828 0.17819 0.40282
 H375 H -0.03851 0.11434 0.37860
 H376 H -0.02574 0.15742 0.25959
 H377 H -0.00693 0.22222 0.28730
 C378 C 0.11305 0.22485 0.44530
 C379 C -0.11699 0.28694 0.44012
 C380 C -0.03214 0.12920 0.31642
 C381 C 0.02890 0.36357 0.29826
 C382 C 1.04644 0.79182 0.06347
 H383 H 1.01845 0.80650 0.05827
 C384 C 1.08074 0.80566 0.04546
 H385 H 1.07873 0.83098 0.02612
 C386 C 1.08345 0.74306 0.09738
 H387 H 1.08461 0.71953 0.11877
 C388 C 1.11858 0.75620 0.08032
 H389 H 1.14583 0.74201 0.08896
 N390 N 1.04850 0.76148 0.08939
 C391 C 0.92970 0.72233 0.11488
 H392 H 0.93516 0.72064 0.14620
 C393 C 0.89375 0.70977 0.09981
 H394 H 0.87306 0.69677 0.12014
 C395 C 0.95291 0.73794 0.05113
 H396 H 0.97649 0.74832 0.03242
 C397 C 0.91660 0.72613 0.03463
 H398 H 0.91285 0.72662 0.00300
 Zn399 Zn 1.00380 0.74968 0.12025
 N400 N 0.95850 0.73576 0.09072
 C401 C 0.95761 0.81468 0.13722
 N402 N 0.99047 0.79559 0.15031
 C403 C 1.01206 0.81051 0.18093
 C404 C 0.99916 0.84467 0.20107
 C405 C 0.94403 0.84845 0.15597
 C406 C 1.01764 0.67036 0.12920
 C407 C 1.02780 0.63482 0.14714
 C408 C 1.03110 0.66934 0.20943
 C409 C 1.02007 0.70422 0.19027
 N410 N 1.01490 0.70429 0.15065
 H411 H 0.94169 0.80405 0.11178
 H412 H 1.03908 0.79589 0.18993
 H413 H 1.01613 0.85536 0.22590
 H414 H 0.91723 0.86236 0.14515
 H415 H 1.01306 0.67126 0.09770
 H416 H 1.03174 0.60864 0.12907
 H417 H 1.03772 0.67120 0.24043
 H418 H 1.01706 0.73134 0.20689
 C419 C 0.88615 0.71209 0.05917
 C420 C 1.11777 0.78871 0.05466
 C421 C 1.03573 0.63390 0.18770
 C422 C 0.96427 0.86387 0.18874
 C423 C 0.54224 0.28882 0.56357
 H424 H 0.51396 0.30276 0.55793
 C425 C 0.57619 0.30250 0.54462
 H426 H 0.57356 0.32702 0.52436
 C427 C 0.58037 0.24254 0.59953
 H428 H 0.58223 0.22035 0.62225
 C429 C 0.61512 0.25551 0.58149
 H430 H 0.64275 0.24266 0.59103
 N431 N 0.54497 0.25979 0.59096
 C432 C 0.42150 0.22954 0.61654
 H433 H 0.42295 0.23397 0.64805
 C434 C 0.38591 0.21823 0.59900
 H435 H 0.36028 0.21330 0.61738
 C436 C 0.45392 0.22907 0.55491
 H437 H 0.48074 0.23278 0.53805
 C438 C 0.41902 0.21689 0.53617
 H439 H 0.42045 0.21061 0.50509
 Zn440 Zn 0.50051 0.24919 0.62330
 N441 N 0.45455 0.23476 0.59447
 C442 C 0.45872 0.31799 0.63453
 N443 N 0.48859 0.29686 0.65108
 C444 C 0.50873 0.31127 0.68288
 C445 C 0.49661 0.34674 0.70112
 C446 C 0.44599 0.35314 0.65133
 C447 C 0.51699 0.17069 0.63471
 C448 C 0.52947 0.13625 0.65343
 C449 C 0.53005 0.17205 0.71503
 C450 C 0.51693 0.20581 0.69507
 N451 N 0.51215 0.20487 0.65538
 H452 H 0.44448 0.30768 0.60796
 H453 H 0.53394 0.29527 0.69435
 H454 H 0.51198 0.35675 0.72722
 H455 H 0.42112 0.36843 0.63809
 H456 H 0.51267 0.17067 0.60316
 H457 H 0.53509 0.11000 0.63591
 H458 H 0.53601 0.17484 0.74609
 H459 H 0.51200 0.23292 0.71121
 C460 C 0.38412 0.21120 0.55828
 C461 C 0.61360 0.28657 0.55407
 C462 C 0.53732 0.13662 0.69404
 C463 C 0.46426 0.36788 0.68554
 C464 C 0.45983 0.79125 0.93609
 H465 H 0.48750 0.80629 0.94172
 C466 C 0.42552 0.80409 0.95499
 H467 H 0.42748 0.82862 0.97552
 C468 C 0.42284 0.74484 0.89886
 H469 H 0.42146 0.72302 0.87559
 C470 C 0.38775 0.75694 0.91686
 H471 H 0.36042 0.74386 0.90679
 N472 N 0.45782 0.76270 0.90790
 C473 C 0.57675 0.72389 0.87827
 H474 H 0.57001 0.71812 0.84774
 C475 C 0.61230 0.71033 0.89365
 H476 H 0.63161 0.69390 0.87423
 C477 C 0.55628 0.74649 0.94093
 H478 H 0.53371 0.75903 0.95962
 C479 C 0.59216 0.73377 0.95763
 H480 H 0.59648 0.73646 0.98909
 Zn481 Zn 0.50158 0.75272 0.87420
 N482 N 0.54941 0.74150 0.90170
 C483 C 0.53947 0.79672 0.81498
 N484 N 0.50994 0.79792 0.84195
 C485 C 0.49039 0.83239 0.84976
 C486 C 0.50293 0.86804 0.83312
 C487 C 0.55273 0.83144 0.79752
 C488 C 0.48811 0.67382 0.86831
 C489 C 0.47674 0.63746 0.85286
 C490 C 0.47284 0.66744 0.78863
 C491 C 0.48405 0.70369 0.80560
 N492 N 0.49030 0.70624 0.84506
 H493 H 0.55418 0.76915 0.80837
 H494 H 0.46638 0.83290 0.87057
 H495 H 0.48832 0.89505 0.84198
 H496 H 0.57791 0.82999 0.77792
 H497 H 0.49367 0.67673 0.89955
 H498 H 0.47351 0.61364 0.87348
 H499 H 0.46600 0.66617 0.75751
 H500 H 0.48632 0.72988 0.78758
 C501 C 0.62104 0.71558 0.93380
 C502 C 0.38853 0.78776 0.94473
 C503 C 0.46757 0.63379 0.81254
 C504 C 0.53557 0.86810 0.80764
 C505 C 0.48206 -0.20702 0.34772
 C506 C 0.46182 -0.21774 0.30784
 C507 C 0.44819 -0.18634 0.28648
 C508 C 0.45565 -0.14578 0.30601
 C509 C 0.43724 -0.14935 0.34666
 C510 C 0.45049 -0.18030 0.36795
 C511 C 0.51400 -0.17666 0.33421
 C512 C 0.50029 -0.14538 0.31317
 H513 H 0.45891 -0.24735 0.29615
 H514 H 0.43543 -0.19067 0.25753
 H515 H 0.41497 -0.12908 0.35795
 H516 H 0.43864 -0.18447 0.39697
 H517 H 0.54545 -0.17980 0.33768
 H518 H 0.52003 -0.12352 0.30060
 C519 C 0.98118 0.27984 0.85791
 C520 C 1.00200 0.28629 0.81752
 C521 C 0.98730 0.31683 0.79541
 C522 C 0.95226 0.33863 0.81440
 C523 C 0.92254 0.30537 0.82271
 C524 C 0.93719 0.27554 0.84496
 C525 C 0.98246 0.32189 0.87670
 C526 C 0.96741 0.35143 0.85468
 H527 H 1.02598 0.26829 0.80640
 H528 H 0.99882 0.32394 0.76653
 H529 H 0.89416 0.30189 0.80825
 H530 H 0.91928 0.24954 0.84848
 H531 H 0.99375 0.32923 0.90539
 H532 H 0.96657 0.38181 0.86526
 C533 C 0.01266 1.20590 0.85984
 C534 C 0.05558 1.20737 0.84327
 C535 C 0.06755 1.17454 0.82330
 C536 C 0.03592 1.14217 0.81951
 C537 C 0.02446 1.13382 0.86216
 C538 C 0.01234 1.16598 0.88251
 C539 C -0.01172 1.19620 0.82200
 C540 C 0.00011 1.16334 0.80169
 H541 H 0.07565 1.23194 0.84561
 H542 H 0.09712 1.17221 0.81112
 H543 H 0.02876 1.10584 0.87705
 H544 H 0.00588 1.16242 0.91323
 H545 H -0.03613 1.21354 0.81100
 H546 H -0.01436 1.15376 0.77474
 C547 C 0.51478 0.71949 0.34702
 C548 C 0.48293 0.68985 0.33142
 C549 C 0.49682 0.65886 0.31005
 C550 C 0.54160 0.65873 0.30450
 C551 C 0.55028 0.69958 0.28639
 C552 C 0.53640 0.73082 0.30823
 C553 C 0.54560 0.69210 0.36745
 C554 C 0.55896 0.66136 0.34581
 H555 H 0.45142 0.69347 0.33358
 H556 H 0.47715 0.63764 0.29604
 H557 H 0.56454 0.70423 0.25831
 H558 H 0.54023 0.76073 0.29781
 H559 H 0.55706 0.69565 0.39678
 H560 H 0.58090 0.64079 0.35717
 C561 C 0.51763 0.29053 0.15085
 C562 C 0.51969 0.33122 0.12969
 C563 C 0.53481 0.36144 0.15089
 C564 C 0.54669 0.35071 0.19266
 C565 C 0.50942 0.33217 0.21055
 C566 C 0.49460 0.30088 0.18934
 C567 C 0.56034 0.28483 0.16709
 C568 C 0.57504 0.31542 0.18846
 H569 H 0.51037 0.33716 0.10005
 H570 H 0.53762 0.39101 0.13880
 H571 H 0.49665 0.34168 0.23829
 H572 H 0.46936 0.28479 0.20022
 H573 H 0.57689 0.25764 0.16661
 H574 H 0.60211 0.31174 0.20524
 C575 C 0.01702 0.77946 0.64893
 C576 C 0.01580 0.82059 0.62852
 C577 C 0.03044 0.85117 0.64951
 C578 C 0.04505 0.84033 0.69038
 C579 C 0.00971 0.81952 0.70978
 C580 C -0.00455 0.78782 0.68867
 C581 C 0.06075 0.77578 0.66290
 C582 C 0.07488 0.80667 0.68413
 H583 H 0.00444 0.82657 0.59958
 H584 H 0.03094 0.88109 0.63794
 H585 H -0.00220 0.82798 0.73821
 H586 H -0.02859 0.77023 0.70006
 H587 H 0.07868 0.74955 0.66123
 H588 H 0.10288 0.80411 0.69959
 C589 C 0.98643 0.70521 0.64866
 C590 C 1.01019 0.69672 0.68710
 C591 C 0.99829 0.66426 0.70778
 C592 C 0.96284 0.64251 0.68979
 C593 C 0.93110 0.67478 0.68499
 C594 C 0.94327 0.70712 0.66457
 C595 C 0.98740 0.66468 0.62683
 C596 C 0.97494 0.63316 0.64748
 H597 H 1.03397 0.71477 0.69840
 H598 H 1.01215 0.65564 0.73529
 H599 H 0.90131 0.67279 0.69662
 H600 H 0.92330 0.73176 0.66139
 H601 H 0.99450 0.66016 0.59636
 H602 H 0.97107 0.60469 0.63313
 C603 C 0.48260 0.21835 0.15053
 C604 C 0.43913 0.22443 0.16422
 C605 C 0.42342 0.19449 0.18543
 C606 C 0.45155 0.15941 0.19198
 C607 C 0.46548 0.14744 0.15112
 C608 C 0.48157 0.17707 0.13009
 C609 C 0.50369 0.20921 0.19044
 C610 C 0.48786 0.17857 0.21146
 H611 H 0.42256 0.25151 0.16234
 H612 H 0.39559 0.19876 0.20064
 H613 H 0.46309 0.11755 0.13945
 H614 H 0.49208 0.17048 0.10097
 H615 H 0.52841 0.22557 0.20231
 H616 H 0.49930 0.16989 0.24002
 C617 C 0.34665 0.48648 -0.21524
 C618 C 0.30703 0.46573 -0.22680
 C619 C 0.28454 0.45298 -0.19595
 C620 C 0.30276 0.46177 -0.15531
 C621 C 0.34390 0.44346 -0.15694
 C622 C 0.36623 0.45568 -0.18737
 C623 C 0.33170 0.51923 -0.18633
 C624 C 0.30943 0.50644 -0.15582
 H625 H 0.29638 0.46186 -0.25653
 H626 H 0.25561 0.43988 -0.20052
 H627 H 0.35463 0.42178 -0.13592
 H628 H 0.39548 0.44347 -0.19053
 H629 H 0.33448 0.55061 -0.19027
 H630 H 0.29519 0.52694 -0.13562
 C631 C 0.84867 0.98028 0.29326
 C632 C 0.80897 0.95916 0.28297
 C633 C 0.78765 0.94607 0.31442
 C634 C 0.80708 0.95485 0.35457
 C635 C 0.84834 0.93683 0.35134
 C636 C 0.86957 0.94959 0.32029
 C637 C 0.83445 1.01273 0.32288
 C638 C 0.81350 0.99952 0.35416
 H639 H 0.79743 0.95500 0.25362
 H640 H 0.75898 0.93242 0.31024
 H641 H 0.85995 0.91503 0.37175
 H642 H 0.89888 0.93782 0.31607
 H643 H 0.83722 1.04415 0.31927
 H644 H 0.80046 1.01962 0.37552
 C645 C 0.84700 0.01142 1.21993
 C646 C 0.80752 0.03249 1.23124
 C647 C 0.78489 0.04509 1.20023
 C648 C 0.80296 0.03589 1.15964
 C649 C 0.84413 0.05412 1.16140
 C650 C 0.86653 0.04203 1.19203
 C651 C 0.83191 -0.02143 1.19115
 C652 C 0.80964 -0.00875 1.16046
 H653 H 0.79709 0.03673 1.26096
 H654 H 0.75609 0.05842 1.20480
 H655 H 0.85480 0.07573 1.14038
 H656 H 0.89574 0.05423 1.19524
 H657 H 0.83494 -0.05280 1.19519
 H658 H 0.79566 -0.02925 1.14004
 C659 C 0.34836 0.51767 0.71150
 C660 C 0.33397 0.48514 0.68203
 C661 C 0.31320 0.49826 0.65050
 C662 C 0.30703 0.54295 0.64968
 C663 C 0.28755 0.55225 0.68963
 C664 C 0.30876 0.53920 0.72138
 C665 C 0.36939 0.54811 0.68449
 C666 C 0.34831 0.56075 0.65316
 H667 H 0.33647 0.45371 0.68600
 H668 H 0.30004 0.47808 0.62924
 H669 H 0.25910 0.56649 0.69343
 H670 H 0.29732 0.54369 0.75067
 H671 H 0.39866 0.55984 0.68883
 H672 H 0.36002 0.58241 0.63275
 C673 C 0.15162 0.51258 0.28209
 C674 C 0.16770 0.55543 0.27774
 C675 C 0.18908 0.56933 0.30843
 C676 C 0.19320 0.54035 0.34275
 C677 C 0.15122 0.52810 0.35301
 C678 C 0.13012 0.51353 0.32249
 C679 C 0.19040 0.48928 0.29187
 C680 C 0.21156 0.50346 0.32344
 H681 H 0.16744 0.57269 0.25130
 H682 H 0.20606 0.59637 0.30551
 H683 H 0.13909 0.52986 0.38253
 H684 H 0.10046 0.50345 0.32797
 H685 H 0.20118 0.46408 0.27541
 H686 H 0.23937 0.49038 0.33279
 C687 C 0.65674 0.01938 0.79080
 C688 C 0.63563 0.02075 0.83136
 C689 C 0.65704 0.03565 0.86156
 C690 C 0.69902 0.04790 0.85086
 C691 C 0.71715 0.01102 0.83152
 C692 C 0.69575 -0.00353 0.80040
 C693 C 0.67248 0.06230 0.78591
 C694 C 0.69401 0.07680 0.81643
 H695 H 0.60588 0.01102 0.83704
 H696 H 0.64494 0.03815 0.89104
 H697 H 0.74513 -0.00188 0.84066
 H698 H 0.70681 -0.02865 0.78413
 H699 H 0.67145 0.07930 0.75928
 H700 H 0.71007 0.10424 0.81296
 C701 C 0.65696 0.98545 0.71852
 C702 C 0.67125 0.94205 0.72428
 C703 C 0.69271 0.92648 0.69450
 C704 C 0.69894 0.95446 0.65978
 C705 C 0.65780 0.96837 0.64792
 C706 C 0.63656 0.98460 0.67743
 C707 C 0.69686 1.00685 0.70947
 C708 C 0.71829 0.99097 0.67894
 H709 H 0.66930 0.92533 0.75101
 H710 H 0.70783 0.89833 0.69787
 H711 H 0.64642 0.96657 0.61805
 H712 H 0.60757 0.99596 0.67074
 H713 H 0.70841 1.03176 0.72581
 H714 H 0.74696 1.00248 0.67044
 C715 C 0.15221 0.48019 0.20918
 C716 C 0.19222 0.50179 0.20152
 C717 C 0.21384 0.48746 0.17065
 C718 C 0.19508 0.45193 0.14961
 C719 C 0.18761 0.42195 0.18268
 C720 C 0.16619 0.43650 0.21319
 C721 C 0.13208 0.48073 0.16797
 C722 C 0.15370 0.46589 0.13802
 H723 H 0.20385 0.52587 0.21890
 H724 H 0.24245 0.49960 0.16277
 H725 H 0.19838 0.39183 0.18354
 H726 H 0.16163 0.41784 0.23831
 H727 H 0.10255 0.49088 0.16174
 H728 H 0.14180 0.46381 0.10837
 C729 C -0.21438 0.35042 0.48270
 C730 C -0.18657 0.37130 0.45287
 C731 C -0.15569 0.34967 0.43970
 C732 C -0.15353 0.30793 0.45613
 C733 C -0.15404 0.31301 0.50082
 C734 C -0.18503 0.33456 0.51454
 C735 C -0.22553 0.31145 0.46056
 C736 C -0.19424 0.28971 0.44685
 H737 H -0.18982 0.40107 0.44226
 H738 H -0.13451 0.36144 0.41882
 H739 H -0.13375 0.29800 0.52060
 H740 H -0.18910 0.33624 0.54583
 H741 H -0.25537 0.30074 0.45643
 H742 H -0.19839 0.26127 0.43252
 C743 C 0.28962 0.85154 0.98294
 C744 C 0.31944 0.83826 1.01555
 C745 C 0.35080 0.81653 1.00298
 C746 C 0.35110 0.80857 0.95876
 C747 C 0.31066 0.78912 0.95078
 C748 C 0.27912 0.81114 0.96322
 C749 C 0.31693 0.87111 0.95183
 C750 C 0.34801 0.84917 0.93970
 H751 H 0.31589 0.84226 1.04669
 H752 H 0.37223 0.80398 1.02328
 H753 H 0.30648 0.75977 0.93855
 H754 H 0.24952 0.79964 0.95975
 H755 H 0.31303 0.90009 0.93942
 H756 H 0.36869 0.85993 0.91781
 C757 C 1.21564 0.85181 0.01378
 C758 C 1.18783 0.87279 0.04375
 C759 C 1.15722 0.85107 0.05702
 C760 C 1.15505 0.80928 0.04015
 C761 C 1.15536 0.81442 -0.00440
 C762 C 1.18631 0.83581 -0.01809
 C763 C 1.22702 0.81304 0.03581
 C764 C 1.19592 0.79123 0.04942
 H765 H 1.19093 0.90257 0.05456
 H766 H 1.13633 0.86278 0.07835
 H767 H 1.13420 0.80029 -0.02402
 H768 H 1.18996 0.83793 -0.04939
 H769 H 1.25690 0.80260 0.04029
 H770 H 1.20086 0.76327 0.06406
 C771 C 0.71170 0.35042 0.51402
 C772 C 0.68457 0.37038 0.54527
 C773 C 0.65378 0.34849 0.55797
 C774 C 0.65067 0.30756 0.53924
 C775 C 0.65043 0.31499 0.49491
 C776 C 0.68162 0.33663 0.48181
 C777 C 0.72259 0.31028 0.53377
 C778 C 0.69134 0.28839 0.54676
 H779 H 0.68819 0.39976 0.55705
 H780 H 0.63314 0.35963 0.57983
 H781 H 0.62869 0.30230 0.47496
 H782 H 0.68483 0.34059 0.45063
 H783 H 0.75221 0.29869 0.53671
 H784 H 0.69590 0.25917 0.55892
 C785 C 0.28313 0.15307 0.51572
 C786 C 0.31029 0.13046 0.54506
 C787 C 0.34286 0.14999 0.55744
 C788 C 0.34700 0.19174 0.54127
 C789 C 0.34507 0.18687 0.49654
 C790 C 0.31252 0.16738 0.48345
 C791 C 0.27469 0.19245 0.53824
 C792 C 0.30759 0.21216 0.55148
 H793 H 0.30529 0.10113 0.55610
 H794 H 0.36385 0.13674 0.57779
 H795 H 0.36430 0.20175 0.47592
 H796 H 0.30708 0.16719 0.45231
 H797 H 0.24557 0.20467 0.54325
 H798 H 0.30568 0.24023 0.56701
 C799 C 0.78874 0.65079 0.01393
 C800 C 0.82940 0.62913 0.01480
 C801 C 0.86004 0.65004 0.02951
 C802 C 0.84964 0.69198 0.04209
 C803 C 0.83031 0.71063 0.00565
 C804 C 0.79861 0.68971 -0.00871
 C805 C 0.78414 0.66673 0.05667
 C806 C 0.81505 0.68784 0.07083
 H807 H 0.83500 0.59950 0.00455
 H808 H 0.88973 0.63777 0.03123
 H809 H 0.83952 0.73864 -0.00682
 H810 H 0.78197 0.70109 -0.03333
 H811 H 0.75740 0.66667 0.07365
 H812 H 0.81220 0.70458 0.09799
 C813 C 0.71578 0.65158 0.98104
 C814 C 0.70739 0.69164 1.00263
 C815 C 0.67663 0.71341 0.98762
 C816 C 0.65655 0.69433 0.95166
 C817 C 0.69089 0.68764 0.92309
 C818 C 0.72097 0.66576 0.93787
 C819 C 0.67435 0.63158 0.98066
 C820 C 0.64451 0.65330 0.96537
 H821 H 0.72443 0.70322 1.02695
 H822 H 0.66869 0.74228 0.99928
 H823 H 0.69396 0.70278 0.89518
 H824 H 0.74753 0.66359 0.92074
 H825 H 0.66774 0.60252 0.99164
 H826 H 0.61436 0.64225 0.96390
 C827 C 0.20896 0.15726 0.48487
 C828 C 0.18053 0.13860 0.45387
 C829 C 0.15034 0.16166 0.44173
 C830 C 0.14929 0.20262 0.46040
 C831 C 0.14966 0.19542 0.50477
 C832 C 0.18016 0.17246 0.51745
 C833 C 0.22116 0.19695 0.46501
 C834 C 0.19047 0.22013 0.45232
 H835 H 0.18300 0.10936 0.44150
 H836 H 0.12895 0.15148 0.42001
 H837 H 0.12958 0.20989 0.52516
 H838 H 0.18429 0.16930 0.54863
 H839 H 0.25118 0.20733 0.46200
 H840 H 0.19545 0.24924 0.43998
 C841 C 0.60097 0.03994 0.73809
 C842 C 0.56159 0.02928 0.71652
 C843 C 0.54021 0.06082 0.70302
 C844 C 0.55899 0.10127 0.71185
 C845 C 0.56484 0.10105 0.75654
 C846 C 0.58612 0.06975 0.76999
 C847 C 0.62194 0.06713 0.70785
 C848 C 0.60066 0.09839 0.69497
 H849 H 0.55051 -0.00035 0.71213
 H850 H 0.51198 0.05723 0.68810
 H851 H 0.55005 0.12075 0.77697
 H852 H 0.58791 0.06564 0.80125
 H853 H 0.65144 0.06308 0.69669
 H854 H 0.61263 0.11937 0.67402
 C855 C 1.09665 0.53471 0.22943
 C856 C 1.05725 0.52524 0.20735
 C857 C 1.03654 0.55754 0.19446
 C858 C 1.05607 0.59741 0.20450
 C859 C 1.06145 0.59595 0.24915
 C860 C 1.08201 0.56398 0.26195
 C861 C 1.11824 0.56223 0.19991
 C862 C 1.09772 0.59420 0.18781
 H863 H 1.04575 0.49583 0.20230
 H864 H 1.00834 0.55489 0.17930
 H865 H 1.04632 0.61504 0.26992
 H866 H 1.08289 0.55886 0.29309
 H867 H 1.14759 0.55791 0.18852
 H868 H 1.11019 0.61538 0.16734
 C869 C 0.90422 0.95948 0.23912
 C870 C 0.91780 0.96406 0.19567
 C871 C 0.93857 0.93330 0.18062
 C872 C 0.94547 0.89929 0.20931
 C873 C 0.96561 0.91929 0.24485
 C874 C 0.94448 0.95053 0.26012
 C875 C 0.88361 0.91836 0.23949
 C876 C 0.90463 0.88803 0.22439
 H877 H 0.91495 0.99025 0.17808
 H878 H 0.95143 0.93434 0.15140
 H879 H 0.99422 0.91084 0.25661
 H880 H 0.95642 0.96730 0.28448
 H881 H 0.85460 0.91221 0.25085
 H882 H 0.89319 0.85800 0.22395
 C883 C 0.40396 0.46492 0.73283
 C884 C 0.38263 0.42417 0.73237
 C885 C 0.40370 0.39347 0.71816
 C886 C 0.44534 0.40395 0.70485
 C887 C 0.44030 0.43802 0.67583
 C888 C 0.41943 0.46920 0.68997
 C889 C 0.44316 0.45536 0.75545
 C890 C 0.46432 0.42369 0.74115
 H891 H 0.35304 0.41853 0.74241
 H892 H 0.39169 0.36366 0.71714
 H893 H 0.45442 0.43877 0.64719
 H894 H 0.41767 0.49543 0.67227
 H895 H 0.45452 0.47215 0.78007
 H896 H 0.49245 0.41503 0.75388
 C897 C 0.40396 0.53795 0.76581
 C898 C 0.44381 0.54680 0.74449
 C899 C 0.46521 0.57773 0.75984
 C900 C 0.44615 0.59746 0.79592
 C901 C 0.40477 0.60907 0.78215
 C902 C 0.38350 0.57919 0.76630
 C903 C 0.41818 0.53266 0.80899
 C904 C 0.43956 0.56286 0.82430
 H905 H 0.45510 0.53028 0.71968
 H906 H 0.49362 0.58658 0.74797
 H907 H 0.39301 0.63895 0.78421
 H908 H 0.35431 0.58560 0.75529
 H909 H 0.41641 0.50585 0.82575
 H910 H 0.45445 0.55872 0.85217
 C911 C -0.09556 0.03248 0.27205
 C912 C -0.05676 0.04184 0.24907
 C913 C -0.03520 0.07309 0.26348
 C914 C -0.05318 0.09264 0.30021
 C915 C -0.09514 0.10365 0.28803
 C916 C -0.11661 0.07340 0.27326
 C917 C -0.07945 0.02748 0.31465
 C918 C -0.05779 0.05805 0.32889
 H919 H -0.04616 0.02535 0.22395
 H920 H -0.00732 0.08215 0.25058
 H921 H -0.10710 0.13345 0.29026
 H922 H -0.14634 0.07934 0.26349
 H923 H -0.08012 0.00064 0.33147
 H924 H -0.04100 0.05461 0.35587
 C925 C 0.09448 0.46069 0.25978
 C926 C 0.11381 0.43259 0.29046
 C927 C 0.09125 0.40217 0.30260
 C928 C 0.05022 0.40048 0.28403
 C929 C 0.03211 0.44145 0.29259
 C930 C 0.05480 0.47238 0.28010
 C931 C 0.07965 0.43164 0.22709
 C932 C 0.05729 0.40086 0.23969
 H933 H 0.14320 0.43519 0.30235
 H934 H 0.10190 0.38094 0.32411
 H935 H 0.00306 0.44640 0.30509
 H936 H 0.04402 0.50225 0.28363
 H937 H 0.08334 0.43538 0.19595
 H938 H 0.04374 0.37996 0.21939
 C939 C 0.59971 0.96652 0.76985
 C940 C 0.58520 0.93706 0.73739
 C941 C 0.56334 0.90612 0.75009
 C942 C 0.55629 0.90573 0.79433
 C943 C 0.59726 0.90816 0.81302
 C944 C 0.61935 0.93898 0.80086
 C945 C 0.55992 0.97780 0.79022
 C946 C 0.53763 0.94652 0.80289
 H947 H 0.58815 0.94078 0.70620
 H948 H 0.54985 0.88515 0.72980
 H949 H 0.60795 0.88754 0.83509
 H950 H 0.64832 0.94272 0.81351
 H951 H 0.54916 1.00765 0.79415
 H952 H 0.50897 0.95111 0.81634
 C953 C 0.73572 0.59584 0.03520
 C954 C 0.71357 0.55651 0.02566
 C955 C 0.70040 0.53600 0.05776
 C956 C 0.71032 0.55565 0.09751
 C957 C 0.75526 0.56081 0.09612
 C958 C 0.76829 0.58109 0.06434
 C959 C 0.70585 0.61765 0.06248
 C960 C 0.69355 0.59736 0.09424
 H961 H 0.70884 0.54483 -0.00360
 H962 H 0.68522 0.50782 0.05506
 H963 H 0.77604 0.54561 0.11513
 H964 H 0.79962 0.58161 0.05921
 H965 H 0.69426 0.64696 0.05806
 H966 H 0.67277 0.61000 0.11515
 C967 C 0.22725 1.09871 0.53501
 C968 C 0.18348 1.08560 0.52964
 C969 C 0.16798 1.06422 0.55945
 C970 C 0.19670 1.05669 0.59370
 C971 C 0.23234 1.03683 0.57366
 C972 C 0.24789 1.05817 0.54313
 C973 C 0.22759 1.11869 0.57630
 C974 C 0.21162 1.09747 0.60578
 H975 H 0.16659 1.08774 0.50291
 H976 H 0.13995 1.04928 0.55521
 H977 H 0.24356 1.00789 0.58181
 H978 H 0.27215 1.04624 0.52621
 H979 H 0.23933 1.14750 0.58308
 H980 H 0.21031 1.10879 0.63570
 C981 C 0.23553 0.90662 0.96030
 C982 C 0.23591 0.88412 0.92029
 C983 C 0.22125 0.90393 0.88924
 C984 C 0.20654 0.94547 0.89862
 C985 C 0.17727 0.94063 0.93250
 C986 C 0.19193 0.92103 0.96404
 C987 C 0.25707 0.94617 0.95004
 C988 C 0.24229 0.96599 0.91798
 H989 H 0.24667 0.85456 0.91541
 H990 H 0.22068 0.89099 0.85992
 H991 H 0.14800 0.95395 0.93277
 H992 H 0.17402 0.91936 0.99007
 H993 H 0.28120 0.95877 0.96674
 H994 H 0.25416 0.99426 0.90883
 C995 C 0.73255 0.40775 0.46352
 C996 C 0.75515 0.44715 0.45524
 C997 C 0.74081 0.46906 0.42433
 C998 C 0.70436 0.45065 0.40410
 C999 C 0.71777 0.40922 0.39254
 C1000 C 0.73204 0.38739 0.42242
 C1001 C 0.68939 0.42314 0.46830
 C1002 C 0.67513 0.44484 0.43790
 H1003 H 0.77980 0.45799 0.47247
 H1004 H 0.75340 0.49746 0.41664
 H1005 H 0.71657 0.39780 0.36263
 H1006 H 0.74184 0.35782 0.41594
 H1007 H 0.67162 0.42054 0.49435
 H1008 H 0.64627 0.45898 0.43906
 C1009 C 0.76590 0.40573 0.53622
 C1010 C 0.76574 0.38359 0.57624
 C1011 C 0.78065 0.40358 0.60720
 C1012 C 0.79549 0.44494 0.59776
 C1013 C 0.82447 0.43964 0.56372
 C1014 C 0.80951 0.41998 0.53222
 C1015 C 0.74445 0.44539 0.54664
 C1016 C 0.75956 0.46547 0.57862
 H1017 H 0.75479 0.35422 0.58129
 H1018 H 0.78120 0.39092 0.63653
 H1019 H 0.85374 0.45289 0.56325
 H1020 H 0.82715 0.41844 0.50602
 H1021 H 0.71987 0.45757 0.53026
 H1022 H 0.74754 0.49367 0.58810
 C1023 C 0.26830 -0.09069 0.03304
 C1024 C 0.31122 -0.07511 0.02787
 C1025 C 0.32545 -0.05265 0.05781
 C1026 C 0.29638 -0.04677 0.09199
 C1027 C 0.25961 -0.02907 0.07197
 C1028 C 0.24533 -0.05138 0.04125
 C1029 C 0.26926 -0.11050 0.07422
 C1030 C 0.28397 -0.08829 0.10381
 H1031 H 0.32823 -0.07673 0.00123
 H1032 H 0.35256 -0.03609 0.05387
 H1033 H 0.24674 -0.00080 0.08024
 H1034 H 0.22035 -0.04099 0.02428
 H1035 H 0.25957 -0.14001 0.08087
 H1036 H 0.28615 -0.09950 0.13365
 C1037 C 0.25993 0.09901 0.46230
 C1038 C 0.30270 0.08229 0.46630
 C1039 C 0.31637 0.06181 0.43486
 C1040 C 0.28706 0.05846 0.40067
 C1041 C 0.25021 0.03986 0.41960
 C1042 C 0.23639 0.06055 0.45171
 C1043 C 0.26068 0.12124 0.42234
 C1044 C 0.27454 0.10063 0.39136
 H1045 H 0.32047 0.08239 0.49254
 H1046 H 0.34468 0.04655 0.43556
 H1047 H 0.23703 0.01216 0.41018
 H1048 H 0.21164 0.04931 0.46825
 H1049 H 0.25085 0.15107 0.41735
 H1050 H 0.27559 0.11330 0.36206
 C1051 C 0.76688 0.59381 0.96161
 C1052 C 0.73415 0.57905 0.93258
 C1053 C 0.74697 0.55708 0.90152
 C1054 C 0.79180 0.55036 0.90094
 C1055 C 0.80971 0.59160 0.90311
 C1056 C 0.79761 0.61354 0.93397
 C1057 C 0.78760 0.55409 0.97258
 C1058 C 0.80058 0.53196 0.94133
 H1059 H 0.70278 0.58122 0.93727
 H1060 H 0.72602 0.54213 0.88242
 H1061 H 0.83087 0.60285 0.88193
 H1062 H 0.80975 0.64274 0.93728
 H1063 H 0.79146 0.54322 1.00215
 H1064 H 0.81473 0.50335 0.94508
 C1065 C 0.03770 0.72846 0.59193
 C1066 C 0.02673 0.70731 0.55253
 C1067 C 0.05816 0.69515 0.53028
 C1068 C 0.09874 0.70503 0.54830
 C1069 C 0.09697 0.74982 0.55496
 C1070 C 0.06580 0.76188 0.57713
 C1071 C 0.06675 0.69859 0.61139
 C1072 C 0.09777 0.68718 0.58930
 H1073 H -0.00311 0.70252 0.54206
 H1074 H 0.05439 0.68083 0.50187
 H1075 H 0.11534 0.77118 0.53993
 H1076 H 0.06043 0.79314 0.57943
 H1077 H 0.06444 0.68670 0.64055
 H1078 H 0.11998 0.66671 0.60034
 C1079 C 0.53808 0.23680 1.09605
 C1080 C 0.56879 0.26813 1.08199
 C1081 C 0.60020 0.25364 1.06172
 C1082 C 0.59970 0.20876 1.05612
 C1083 C 0.59551 0.19176 1.09723
 C1084 C 0.56424 0.20569 1.11757
 C1085 C 0.52781 0.21534 1.05662
 C1086 C 0.55953 0.20086 1.03616
 H1087 H 0.56562 0.29970 1.08410
 H1088 H 0.62183 0.27300 1.04822
 H1089 H 0.61555 0.16981 1.10948
 H1090 H 0.55955 0.19456 1.14676
 H1091 H 0.49836 0.21237 1.04456
 H1092 H 0.55602 0.18718 1.00745
 C1093 C 0.96228 0.23078 0.91689
 C1094 C 0.93385 0.26428 0.93127
 C1095 C 0.90338 0.25243 0.95442
 C1096 C 0.90266 0.20791 0.96239
 C1097 C 0.90326 0.18839 0.92204
 C1098 C 0.93340 0.19972 0.89889
 C1099 C 0.97448 0.21136 0.95668
 C1100 C 0.94379 0.19952 0.97995
 H1101 H 0.93812 0.29550 0.92710
 H1102 H 0.88367 0.27356 0.96844
 H1103 H 0.88139 0.16695 0.91218
 H1104 H 0.93516 0.18704 0.86990
 H1105 H 1.00455 0.20798 0.96696
 H1106 H 0.94867 0.18737 1.00905
 C1107 C 0.46130 0.73838 0.40243
 C1108 C 0.42061 0.73822 0.38094
 C1109 C 0.39010 0.72295 0.40120
 C1110 C 0.40078 0.70808 0.44210
 C1111 C 0.43528 0.67944 0.43615
 C1112 C 0.46624 0.69474 0.41617
 C1113 C 0.45129 0.75959 0.44216
 C1114 C 0.41988 0.74408 0.46246
 H1115 H 0.41487 0.74917 0.35183
 H1116 H 0.36032 0.72207 0.38906
 H1117 H 0.43643 0.65007 0.44897
 H1118 H 0.49268 0.67719 0.41384
 H1119 H 0.46745 0.78435 0.45428
 H1120 H 0.41073 0.75601 0.49064
 C1121 C 0.53364 0.77247 0.40436
 C1122 C 0.52793 0.81534 0.42022
 C1123 C 0.55797 0.82984 0.44251
 C1124 C 0.59264 0.80092 0.44817
 C1125 C 0.57300 0.76393 0.46534
 C1126 C 0.54238 0.74943 0.44314
 C1127 C 0.57494 0.77403 0.38442
 C1128 C 0.60459 0.78890 0.40660
 H1129 H 0.50112 0.83240 0.41833
 H1130 H 0.55402 0.85746 0.45824
 H1131 H 0.58164 0.75088 0.49320
 H1132 H 0.52596 0.72408 0.45324
 H1133 H 0.58146 0.76482 0.35481
 H1134 H 0.63447 0.79179 0.39525
 C1135 C 0.03665 0.26065 -0.08764
 C1136 C 0.06618 0.22874 -0.07216
 C1137 C 0.09853 0.24282 -0.05270
 C1138 C 0.09977 0.28812 -0.04919
 C1139 C 0.09607 0.30252 -0.09149
 C1140 C 0.06396 0.28908 -0.11094
 C1141 C 0.02776 0.28456 -0.04935
 C1142 C 0.06019 0.29887 -0.02994
 H1143 H 0.06200 0.19724 -0.07380
 H1144 H 0.11951 0.22264 -0.03942
 H1145 H 0.11768 0.32149 -0.10562
 H1146 H 0.06025 0.29765 -0.14112
 H1147 H -0.00139 0.28976 -0.03750
 H1148 H 0.05785 0.31546 -0.00262
 C1149 C 0.46526 0.27042 0.09343
 C1150 C 0.43537 0.23883 0.07783
 C1151 C 0.40504 0.25288 0.05554
 C1152 C 0.40614 0.29775 0.04910
 C1153 C 0.40753 0.31485 0.09078
 C1154 C 0.43783 0.30170 0.11302
 C1155 C 0.47776 0.29121 0.05455
 C1156 C 0.44735 0.30556 0.03216
 H1157 H 0.43747 0.20740 0.08201
 H1158 H 0.38289 0.23298 0.04371
 H1159 H 0.38585 0.33551 0.10247
 H1160 H 0.44043 0.31287 0.14256
 H1161 H 0.50787 0.29445 0.04457
 H1162 H 0.45223 0.32031 0.00429
 C1163 C 0.96280 0.75755 0.59400
 C1164 C 0.93506 0.78734 0.61543
 C1165 C 0.90366 0.80024 0.59453
 C1166 C 0.90035 0.78285 0.55320
 C1167 C 0.94039 0.79242 0.53401
 C1168 C 0.97238 0.77933 0.55484
 C1169 C 0.93354 0.72487 0.57940
 C1170 C 0.90157 0.73804 0.55884
 H1171 H 0.93841 0.79779 0.64514
 H1172 H 0.88256 0.82120 0.60677
 H1173 H 0.94418 0.80664 0.50582
 H1174 H 1.00170 0.78383 0.54325
 H1175 H 0.93753 0.69348 0.58247
 H1176 H 0.88000 0.71795 0.54601
   
