data_POSCAR
  _audit_creation_date              2014-09-24
  _audit_creation_method            'ToBaCCo'
  _symmetry_space_group_name_H-M    'P1'
  _symmetry_Int_Tables_number       1
  _symmetry_cell_setting            triclinic
  loop_
  _symmetry_equiv_pos_as_xyz
 x,y,z
_cell_length_a 20.2120
_cell_length_b 20.2363
_cell_length_c 20.3076
_cell_angle_alpha 89.273800
_cell_angle_beta 90.038500
_cell_angle_gamma 89.912300
loop_
  _atom_site_label
  _atom_site_type_symbol
  _atom_site_fract_x
  _atom_site_fract_y
  _atom_site_fract_z
O1 O 0.59173 0.16937 -0.00462
 O2 O 0.66668 0.08396 -0.00122
 C3 C 0.65164 0.14638 -0.00357
 O4 O 0.41212 0.00105 0.17137
 O5 O 0.33665 0.00173 0.08687
 C6 C 0.35206 0.00003 0.14889
 O7 O 0.59626 0.01357 0.16775
 O8 O 0.66889 0.00730 0.08144
 C9 C 0.65588 0.01211 0.14389
 O10 O 0.40723 0.16719 -0.01130
 O11 O 0.33411 0.08112 0.00028
 C12 C 0.34778 0.14337 -0.00783
 Zr13 Zr 0.49998 0.11958 -0.00266
 O14 O 0.49266 0.19408 0.06933
 O15 O 0.50544 0.19253 -0.07804
 Zr16 Zr 0.50324 0.00791 0.12084
 O17 O 0.49544 0.08775 0.18688
 O18 O 0.51299 -0.05887 0.20127
 O19 O 0.56132 0.07378 0.06669
 O20 O 0.44343 0.07226 0.06818
 O21 O 0.40640 -0.00105 -0.16022
 O22 O 0.33390 -0.00033 -0.07342
 C23 C 0.34706 -0.00017 -0.13590
 O24 O 0.59494 -0.16386 0.00850
 O25 O 0.66817 -0.07730 0.00316
 C26 C 0.65436 -0.13995 0.00537
 O27 O 0.41037 -0.16438 0.02030
 O28 O 0.33564 -0.07915 0.01135
 C29 C 0.35047 -0.14128 0.01828
 O30 O 0.59023 -0.00735 -0.16326
 O31 O 0.66604 -0.00076 -0.07931
 C32 C 0.65032 -0.00523 -0.14120
 Zr33 Zr 0.49928 -0.00354 -0.11284
 O34 O 0.49147 -0.08246 -0.17992
 O35 O 0.50444 0.06541 -0.19197
 Zr36 Zr 0.50235 -0.11539 0.01081
 O37 O 0.49420 -0.19180 -0.05902
 O38 O 0.51189 -0.18613 0.08799
 Zr39 Zr 0.60085 0.00284 0.00227
 Zr40 Zr 0.40176 0.00138 0.00565
 O41 O 0.44284 -0.06883 -0.05816
 O42 O 0.56024 -0.06866 -0.06072
 O43 O 0.44034 0.06644 -0.06664
 O44 O 0.56071 -0.06161 0.07396
 O45 O 0.55701 0.06677 -0.06783
 O46 O 0.44397 -0.06312 0.07660
 H47 H 0.41317 0.10028 0.09421
 H48 H 0.59089 -0.08790 0.10250
 H49 H 0.41283 -0.09764 -0.08355
 H50 H 0.58549 0.09359 -0.09748
 H51 H 0.48345 -0.09665 0.19261
 H52 H 0.47521 -0.17886 0.11929
 H53 H 0.53137 -0.18685 -0.09034
 H54 H 0.53131 -0.11048 -0.17462
 H55 H 0.46877 0.09822 -0.18571
 H56 H 0.47305 0.18047 -0.11232
 H57 H 0.53323 0.19209 0.09657
 H58 H 0.53558 0.11525 0.18173
 O59 O 0.00819 0.40576 -0.16346
 O60 O 0.00301 0.33447 -0.07492
 C61 C 0.00664 0.34672 -0.13765
 O62 O 0.16890 0.59315 0.00259
 O63 O 0.08349 0.66794 -0.00404
 C64 C 0.14591 0.65298 0.00005
 O65 O 0.16732 0.40901 0.00300
 O66 O 0.08046 0.33596 0.00470
 C67 C 0.14326 0.34965 0.00434
 O68 O 0.00061 0.59001 -0.17122
 O69 O 0.00187 0.66641 -0.08872
 C70 C 0.00023 0.65043 -0.15053
 Zr71 Zr 0.00467 0.49947 -0.11873
 O72 O 0.08237 0.50443 -0.18858
 O73 O -0.06552 0.49064 -0.19549
 Zr74 Zr 0.11902 0.50158 0.00113
 O75 O 0.19387 0.50575 -0.07172
 O76 O 0.19115 0.49593 0.07667
 O77 O 0.07068 0.44076 -0.06534
 O78 O 0.07107 0.55827 -0.06943
 O79 O -0.16404 0.59669 -0.01503
 O80 O -0.07747 0.66983 -0.01032
 C81 C -0.14001 0.65608 -0.01514
 O82 O -0.00996 0.41518 0.16716
 O83 O -0.00276 0.33906 0.08462
 C84 C -0.00865 0.35502 0.14602
 O85 O 0.00351 0.59889 0.16046
 O86 O 0.00359 0.67078 0.07221
 C87 C 0.00498 0.65802 0.13503
 O88 O -0.16616 0.41255 0.00328
 O89 O -0.08073 0.33765 0.00298
 C90 C -0.14315 0.35268 0.00498
 Zr91 Zr -0.11639 0.50409 -0.00481
 O92 O -0.19209 0.51529 0.06623
 O93 O -0.18832 0.49457 -0.07995
 Zr94 Zr -0.00172 0.50586 0.11522
 O95 O -0.07714 0.51713 0.18655
 O96 O 0.07028 0.49864 0.19079
 Zr97 Zr 0.00031 0.40345 0.00219
 Zr98 Zr 0.00226 0.60218 -0.00565
 O99 O -0.06729 0.56310 0.06137
 O100 O -0.06921 0.44611 0.06653
 O101 O -0.06438 0.56071 -0.07362
 O102 O 0.06652 0.44619 0.06936
 O103 O -0.06498 0.44409 -0.06835
 O104 O 0.06828 0.56299 0.06534
 H105 H 0.09924 0.58723 -0.09734
 H106 H 0.09296 0.41699 0.09879
 H107 H -0.09504 0.59390 0.08702
 H108 H -0.09231 0.41410 -0.09530
 H109 H 0.18384 0.53371 0.10623
 H110 H 0.10262 0.53461 0.18348
 H111 H -0.10946 0.48112 0.18025
 H112 H -0.18672 0.47949 0.09941
 H113 H -0.18117 0.53085 -0.11223
 H114 H -0.09987 0.52466 -0.18850
 H115 H 0.11033 0.46469 -0.18229
 H116 H 0.18827 0.46698 -0.10035
 O117 O -0.16932 -0.01174 0.59029
 O118 O -0.08429 -0.00806 0.66517
 C119 C -0.14647 -0.01243 0.65008
 O120 O 0.00676 -0.16233 0.40427
 O121 O 0.00377 -0.07327 0.33334
 C122 C 0.00695 -0.13624 0.34548
 O123 O -0.00498 -0.17009 0.58799
 O124 O -0.00334 -0.08718 0.66403
 C125 C -0.00512 -0.14913 0.64813
 O126 O -0.16675 0.00703 0.40623
 O127 O -0.07934 0.00774 0.33432
 C128 C -0.14222 0.00947 0.34708
 Zr129 Zr -0.11951 -0.00156 0.49897
 O130 O -0.19231 -0.07563 0.48744
 O131 O -0.19443 0.07100 0.50788
 Zr132 Zr -0.00002 -0.11755 0.49753
 O133 O -0.07306 -0.19151 0.48653
 O134 O 0.07468 -0.19082 0.50406
 O135 O -0.06986 -0.07146 0.55688
 O136 O -0.06731 -0.06583 0.44030
 O137 O -0.00533 0.17005 0.41370
 O138 O -0.00143 0.08687 0.33796
 C139 C -0.00392 0.14875 0.35377
 O140 O 0.16315 0.00273 0.59582
 O141 O 0.07582 -0.00418 0.66759
 C142 C 0.13852 -0.00025 0.65479
 O143 O 0.16671 0.00305 0.41237
 O144 O 0.08183 0.00582 0.33714
 C145 C 0.14421 0.00490 0.35261
 O146 O 0.00058 0.16254 0.59708
 O147 O -0.00289 0.07381 0.66838
 C148 C 0.00002 0.13684 0.65594
 Zr149 Zr -0.00355 0.11742 0.50419
 O150 O 0.06748 0.19413 0.50030
 O151 O -0.08063 0.18786 0.51247
 Zr152 Zr 0.11597 0.00157 0.50309
 O153 O 0.18908 0.07639 0.49945
 O154 O 0.19020 -0.07222 0.50941
 Zr155 Zr -0.00338 -0.00416 0.59983
 Zr156 Zr 0.00002 0.00404 0.40206
 O157 O 0.06573 0.07058 0.44663
 O158 O 0.06435 0.06638 0.56296
 O159 O -0.06988 0.06951 0.44264
 O160 O 0.06582 -0.06891 0.55761
 O161 O -0.07121 0.06413 0.55929
 O162 O 0.06849 -0.06471 0.44125
 H163 H -0.09399 -0.09228 0.40934
 H164 H 0.09345 -0.09728 0.58677
 H165 H 0.09356 0.09979 0.41865
 H166 H -0.09936 0.09005 0.58946
 H167 H 0.10701 -0.18168 0.46858
 H168 H 0.18555 -0.10080 0.47053
 H169 H 0.18172 0.10575 0.53733
 H170 H 0.10163 0.18377 0.53375
 H171 H -0.10802 0.18545 0.47219
 H172 H -0.18710 0.10453 0.47280
 H173 H -0.18529 -0.10910 0.52266
 H174 H -0.10443 -0.18751 0.52363
 C175 C -0.29565 0.19629 -0.00648
 C176 C -0.23124 0.18332 0.00331
 C177 C -0.17945 0.23541 0.00175
 C178 C -0.19289 0.29987 0.00929
 H179 H -0.21523 0.13276 0.01137
 H180 H -0.12870 0.21961 -0.00493
 H181 H -0.31200 0.24608 -0.01741
 H182 H -0.24284 0.31613 0.01892
 C183 C 0.29725 0.80943 0.02321
 C184 C 0.23376 0.82208 0.00814
 C185 C 0.18186 0.77017 0.00720
 C186 C 0.19584 0.70572 0.00096
 H187 H 0.21873 0.87213 -0.00415
 H188 H 0.13074 0.78612 0.00933
 H189 H 0.31245 0.76027 0.03816
 H190 H 0.24651 0.68950 -0.00425
 C191 C 0.29393 0.19209 -0.01342
 C192 C 0.23042 0.17956 0.00144
 C193 C 0.17842 0.23166 0.00028
 C194 C 0.19249 0.29606 0.00657
 H195 H 0.21553 0.12972 0.01452
 H196 H 0.12737 0.21606 -0.00383
 H197 H 0.30867 0.24102 -0.02947
 H198 H 0.24302 0.31167 0.01417
 C199 C -0.29191 0.81095 0.00520
 C200 C -0.22811 0.82509 -0.00658
 C201 C -0.17581 0.77340 -0.00754
 C202 C -0.18890 0.70980 -0.02015
 H203 H -0.21303 0.87603 -0.01358
 H204 H -0.12542 0.78852 0.00230
 H205 H -0.30675 0.76057 0.01554
 H206 H -0.23856 0.69492 -0.03304
 C207 C 0.00786 -0.28601 0.18103
 C208 C 0.01409 -0.29709 0.24612
 C209 C 0.01453 -0.24673 0.29801
 C210 C 0.00967 -0.18119 0.28878
 H211 H 0.01814 -0.34747 0.26436
 H212 H 0.01812 -0.26645 0.34774
 H213 H 0.00437 -0.23635 0.16107
 H214 H 0.00659 -0.15991 0.23977
 C215 C 0.00770 0.28998 0.81728
 C216 C 0.01182 0.29957 0.75195
 C217 C 0.01043 0.24787 0.70142
 C218 C 0.00273 0.18267 0.71199
 H219 H 0.01593 0.34951 0.73255
 H220 H 0.01525 0.26637 0.65137
 H221 H 0.00412 0.24074 0.83825
 H222 H -0.00181 0.16249 0.76132
 C223 C -0.01415 0.30290 0.19660
 C224 C -0.00398 0.23857 0.18500
 C225 C -0.00603 0.18663 0.23720
 C226 C -0.00352 0.19975 0.30175
 H227 H 0.00625 0.22270 0.13529
 H228 H -0.00749 0.13576 0.22132
 H229 H -0.02670 0.31965 0.24527
 H230 H 0.00060 0.24991 0.31870
 C231 C -0.00184 -0.30239 0.80263
 C232 C -0.00283 -0.23418 0.81472
 C233 C -0.00446 -0.18499 0.76505
 C234 C -0.00628 -0.19781 0.69728
 H235 H -0.00175 -0.21744 0.86519
 H236 H -0.00379 -0.13409 0.78095
 H237 H -0.00269 -0.31987 0.75270
 H238 H -0.00795 -0.24783 0.67979
 C239 C 0.29108 0.00079 0.81752
 C240 C 0.30170 0.00336 0.75234
 C241 C 0.25036 0.00409 0.70080
 C242 C 0.18491 0.00010 0.71081
 H243 H 0.35200 0.00516 0.73405
 H244 H 0.26907 0.00749 0.65090
 H245 H 0.24151 -0.00037 0.83744
 H246 H 0.16464 -0.00354 0.75996
 C247 C -0.29302 0.01454 0.18637
 C248 C -0.30330 0.01858 0.25474
 C249 C -0.25463 0.01747 0.30365
 C250 C -0.18611 0.01358 0.29378
 H251 H -0.35354 0.02155 0.27315
 H252 H -0.27312 0.01932 0.35368
 H253 H -0.24329 0.01226 0.16686
 H254 H -0.16580 0.01366 0.24452
 C255 C 0.29940 -0.00382 0.19862
 C256 C 0.23471 0.00333 0.18505
 C257 C 0.18220 0.00137 0.23626
 C258 C 0.19476 0.00759 0.30074
 H259 H 0.21897 0.01016 0.13443
 H260 H 0.13156 -0.00413 0.21974
 H261 H 0.31608 -0.01318 0.24837
 H262 H 0.24459 0.01561 0.31799
 C263 C -0.29799 -0.00606 0.80796
 C264 C -0.23291 -0.01036 0.82004
 C265 C -0.18205 -0.00926 0.76710
 C266 C -0.19585 -0.01808 0.70302
 H267 H -0.21562 -0.01253 0.87052
 H268 H -0.13140 -0.00048 0.78200
 H269 H -0.31602 -0.00151 0.75807
 H270 H -0.24551 -0.02916 0.68708
   
