data_POSCAR
  _audit_creation_date              2014-09-24
  _audit_creation_method            'ToBaCCo'
  _symmetry_space_group_name_H-M    'P1'
  _symmetry_Int_Tables_number       1
  _symmetry_cell_setting            triclinic
  loop_
  _symmetry_equiv_pos_as_xyz
 x,y,z
_cell_length_a 42.7218
_cell_length_b 42.9334
_cell_length_c 47.6643
_cell_angle_alpha 90.046700
_cell_angle_beta 89.924100
_cell_angle_gamma 104.884600
loop_
  _atom_site_label
  _atom_site_type_symbol
  _atom_site_fract_x
  _atom_site_fract_y
  _atom_site_fract_z
O1 O 0.04884 0.27768 -0.02308
 O2 O -0.00629 0.28916 0.03290
 O3 O 0.05140 0.28133 0.03118
 O4 O -0.00962 0.28517 -0.02196
 O5 O -0.02919 0.23234 -0.01944
 O6 O 0.03097 0.22886 0.03509
 O7 O -0.02811 0.23671 0.03390
 O8 O 0.02960 0.22497 -0.02014
 Cu9 Cu 0.02307 0.28859 0.00438
 Cu10 Cu -0.00090 0.22533 0.00771
 C11 C 0.04886 0.24949 -0.03114
 C12 C -0.02709 0.26492 0.04268
 C13 C 0.05143 0.25462 0.04256
 C14 C -0.02994 0.25946 -0.02961
 O15 O 0.47497 0.79886 0.52312
 O16 O 0.53245 0.79524 0.46663
 O17 O 0.47065 0.79255 0.46826
 O18 O 0.53571 0.79957 0.52089
 O19 O 0.52235 0.74669 0.52555
 O20 O 0.46032 0.73957 0.47110
 O21 O 0.52146 0.74239 0.47098
 O22 O 0.46096 0.74571 0.52563
 Cu23 Cu 0.50450 0.80187 0.49430
 Cu24 Cu 0.48998 0.73830 0.49877
 C25 C 0.45826 0.77299 0.53407
 C26 C 0.53713 0.76835 0.45930
 C27 C 0.45493 0.76465 0.46023
 C28 C 0.53996 0.77423 0.53236
 O29 O 1.01175 0.71034 0.02588
 O30 O 0.95269 0.71393 -0.02966
 O31 O 1.01044 0.70528 -0.02958
 O32 O 0.95324 0.71775 0.02428
 O33 O 0.97457 0.77029 0.02208
 O34 O 1.03240 0.75766 -0.03154
 O35 O 0.97398 0.76634 -0.03336
 O36 O 1.03329 0.76257 0.02138
 Cu37 Cu 0.98014 0.70652 -0.00190
 Cu38 Cu 1.00525 0.76960 -0.00569
 C39 C 1.03293 0.73584 0.03291
 C40 C 0.95337 0.74082 -0.04106
 C41 C 1.03136 0.72923 -0.03971
 C42 C 0.95408 0.74610 0.03237
 O43 O 0.54060 0.24267 0.53117
 O44 O 0.48032 0.24592 0.47714
 O45 O 0.53954 0.24051 0.47663
 O46 O 0.48161 0.24808 0.53158
 O47 O 0.49966 0.30101 0.53003
 O48 O 0.55866 0.29346 0.47569
 O49 O 0.49933 0.29876 0.47459
 O50 O 0.55931 0.29564 0.52921
 Cu51 Cu 0.50860 0.23901 0.50427
 Cu52 Cu 0.53073 0.30266 0.50226
 C53 C 0.56047 0.26852 0.53912
 C54 C 0.47979 0.27280 0.46636
 C55 C 0.55934 0.26563 0.46714
 C56 C 0.48084 0.27578 0.54040
 O57 O 0.71442 0.01862 -0.03026
 O58 O 0.71858 -0.04298 0.02249
 O59 O 0.71409 0.01604 0.02448
 O60 O 0.71652 -0.04132 -0.03184
 O61 O 0.76986 -0.02497 -0.03290
 O62 O 0.76742 0.03243 0.02445
 O63 O 0.77186 -0.02651 0.02178
 O64 O 0.76777 0.03485 -0.03057
 Cu65 Cu 0.71057 -0.01396 -0.00375
 Cu66 Cu 0.77458 0.00567 -0.00440
 C67 C 0.74052 0.03704 -0.03968
 C68 C 0.74602 -0.04518 0.03134
 C69 C 0.74017 0.03366 0.03450
 C70 C 0.74344 -0.04301 -0.04211
 O71 O 0.20885 0.51124 0.47784
 O72 O 0.21647 0.44883 0.52841
 O73 O 0.20884 0.50688 0.53241
 O74 O 0.21744 0.45297 0.47416
 O75 O 0.27050 0.47219 0.47585
 O76 O 0.26168 0.52792 0.53208
 O77 O 0.26928 0.47017 0.53052
 O78 O 0.26209 0.52992 0.47697
 Cu79 Cu 0.20756 0.47806 0.50303
 Cu80 Cu 0.27119 0.50216 0.50385
 C81 C 0.23418 0.53089 0.46849
 C82 C 0.24408 0.44916 0.53842
 C83 C 0.23389 0.52648 0.54234
 C84 C 0.24556 0.45306 0.46534
 O85 O 0.26900 1.02658 0.02951
 O86 O 0.26101 0.96555 -0.02646
 O87 O 0.26641 1.02649 -0.02603
 O88 O 0.26529 0.96549 0.02821
 O89 O 0.21281 0.95910 0.03346
 O90 O 0.21403 1.02134 -0.02033
 O91 O 0.20817 0.95907 -0.02574
 O92 O 0.21618 1.02113 0.02869
 Cu93 Cu 0.27075 0.99681 0.00111
 Cu94 Cu 0.20752 0.98671 0.00431
 C95 C 0.24410 1.03501 0.03806
 C96 C 0.23309 0.95250 -0.03624
 C97 C 0.24079 1.03495 -0.03209
 C98 C 0.23899 0.95234 0.04067
 O99 O 0.77609 0.47461 0.47072
 O100 O 0.76874 0.53376 0.52434
 O101 O 0.77015 0.47402 0.52552
 O102 O 0.77382 0.53467 0.47033
 O103 O 0.72085 0.51750 0.46469
 O104 O 0.71685 0.46004 0.52268
 O105 O 0.71560 0.52059 0.51856
 O106 O 0.72290 0.45808 0.46755
 Cu107 Cu 0.77755 0.50554 0.49809
 Cu108 Cu 0.71365 0.48721 0.49311
 C109 C 0.75088 0.45648 0.45968
 C110 C 0.74103 0.53773 0.53008
 C111 C 0.74285 0.45735 0.53417
 C112 C 0.74794 0.53627 0.45799
 C113 C 0.25795 0.21578 0.23497
 C114 C 0.23090 0.22939 0.23689
 C115 C 0.22738 0.24777 0.26050
 C116 C 0.24969 0.25282 0.28253
 C117 C 0.27612 0.23888 0.28107
 C118 C 0.28030 0.22114 0.25732
 H119 H 0.30124 0.21131 0.25648
 H120 H 0.20720 0.25876 0.26152
 C121 C 0.73086 0.75720 0.21746
 C122 C 0.75148 0.73628 0.21578
 C123 C 0.75120 0.71411 0.23735
 C124 C 0.73102 0.71266 0.26076
 C125 C 0.71083 0.73398 0.26286
 C126 C 0.71095 0.75597 0.24108
 H127 H 0.69515 0.77206 0.24237
 H128 H 0.76672 0.69776 0.23586
 C129 C 0.77027 0.25283 0.22192
 C130 C 0.75422 0.22072 0.22958
 C131 C 0.73514 0.21504 0.25386
 C132 C 0.73219 0.24048 0.27121
 C133 C 0.74867 0.27255 0.26387
 C134 C 0.76778 0.27829 0.23955
 H135 H 0.78006 0.30287 0.23394
 H136 H 0.72266 0.19050 0.25943
 C137 C 0.20406 0.73484 0.23397
 C138 C 0.22270 0.76700 0.23873
 C139 C 0.24420 0.77356 0.26153
 C140 C 0.24704 0.74912 0.28012
 C141 C 0.22697 0.71759 0.27640
 C142 C 0.20613 0.71072 0.25327
 H143 H 0.19168 0.68623 0.25016
 H144 H 0.25938 0.79779 0.26445
 C145 C 0.74359 0.25532 0.73079
 C146 C 0.76556 0.28619 0.73400
 C147 C 0.78736 0.29165 0.75656
 C148 C 0.78786 0.26737 0.77610
 C149 C 0.76602 0.23655 0.77274
 C150 C 0.74400 0.23112 0.75042
 H151 H 0.72750 0.20745 0.74790
 H152 H 0.80395 0.31528 0.75908
 C153 C 0.26261 0.75077 0.72467
 C154 C 0.24600 0.71914 0.73298
 C155 C 0.22867 0.71437 0.75827
 C156 C 0.22824 0.74033 0.77611
 C157 C 0.24500 0.77211 0.76783
 C158 C 0.26200 0.77676 0.74231
 H159 H 0.27479 0.80096 0.73604
 H160 H 0.21627 0.69005 0.76451
 C161 C 0.27203 0.27990 0.73797
 C162 C 0.29170 0.25817 0.73705
 C163 C 0.29028 0.23637 0.75919
 C164 C 0.26871 0.23454 0.78198
 C165 C 0.24889 0.25669 0.78257
 C166 C 0.25126 0.27919 0.76074
 H167 H 0.23610 0.29595 0.76112
 H168 H 0.30661 0.22081 0.75855
 C169 C 0.76101 0.74083 0.71381
 C170 C 0.74057 0.76223 0.71334
 C171 C 0.74434 0.78626 0.73400
 C172 C 0.76756 0.78923 0.75523
 C173 C 0.78802 0.76822 0.75557
 C174 C 0.78475 0.74454 0.73484
 H175 H 0.80053 0.72839 0.73549
 H176 H 0.72830 0.80217 0.73413
 C177 C 0.22818 0.10441 0.07662
 C178 C 0.25217 0.10988 0.09767
 C179 C 0.27274 0.08877 0.09914
 C180 C 0.27170 0.06559 0.07806
 C181 C 0.24723 0.05994 0.05763
 C182 C 0.22502 0.07903 0.05767
 C183 C 0.29320 0.09017 0.12223
 C184 C 0.29215 0.11082 0.14457
 C185 C 0.27269 0.13283 0.14333
 C186 C 0.25505 0.13443 0.11829
 C187 C 0.24145 0.16079 0.11447
 C188 C 0.24394 0.18412 0.13522
 C189 C 0.25741 0.18033 0.16129
 C190 C 0.27066 0.15378 0.16605
 C191 C 0.27968 0.14821 0.19369
 C192 C 0.27504 0.16802 0.21572
 C193 C 0.26338 0.19534 0.21079
 C194 C 0.25656 0.20221 0.18297
 H195 H 0.21040 0.11828 0.07548
 H196 H 0.28825 0.05021 0.07894
 H197 H 0.20571 0.07508 0.04231
 H198 H 0.30899 0.07410 0.12365
 H199 H 0.30790 0.11024 0.16216
 H200 H 0.23001 0.16456 0.09502
 H201 H 0.23368 0.20435 0.13137
 H202 H 0.28817 0.12736 0.19907
 H203 H 0.28009 0.16144 0.23684
 H204 H 0.24941 0.22398 0.17811
 C205 C 0.73023 0.61542 0.56003
 C206 C 0.74087 0.61422 0.58807
 C207 C 0.74852 0.58556 0.59710
 C208 C 0.74821 0.56055 0.57806
 C209 C 0.73876 0.56279 0.55027
 C210 C 0.72905 0.58988 0.54151
 C211 C 0.75683 0.58213 0.62497
 C212 C 0.75748 0.60645 0.64432
 C213 C 0.75105 0.63583 0.63625
 C214 C 0.74412 0.64035 0.60742
 C215 C 0.74201 0.67117 0.59869
 C216 C 0.74630 0.69665 0.61753
 C217 C 0.75137 0.69211 0.64597
 C218 C 0.75259 0.66132 0.65590
 C219 C 0.75494 0.65723 0.68518
 C220 C 0.75722 0.68294 0.70358
 C221 C 0.75773 0.71374 0.69358
 C222 C 0.75512 0.71819 0.66461
 H223 H 0.72228 0.63553 0.55193
 H224 H 0.75533 0.53924 0.58481
 H225 H 0.72144 0.59171 0.52003
 H226 H 0.76273 0.56030 0.63196
 H227 H 0.76462 0.60205 0.66532
 H228 H 0.73845 0.67674 0.57708
 H229 H 0.74522 0.72009 0.60980
 H230 H 0.75404 0.63421 0.69462
 H231 H 0.75837 0.67865 0.72591
 H232 H 0.75577 0.74195 0.65656
 C233 C 0.78004 0.90940 0.08455
 C234 C 0.75189 0.88842 0.09607
 C235 C 0.72164 0.88884 0.08410
 C236 C 0.71980 0.91066 0.06261
 C237 C 0.74790 0.93211 0.05206
 C238 C 0.77800 0.93074 0.06301
 C239 C 0.69326 0.86761 0.09372
 C240 C 0.69412 0.84571 0.11492
 C241 C 0.72352 0.84465 0.12791
 C242 C 0.75276 0.86700 0.11888
 C243 C 0.78175 0.86778 0.13339
 C244 C 0.78237 0.84716 0.15564
 C245 C 0.75437 0.82449 0.16401
 C246 C 0.72459 0.82245 0.15006
 C247 C 0.69719 0.79811 0.15888
 C248 C 0.69942 0.77718 0.18074
 C249 C 0.72883 0.77976 0.19451
 C250 C 0.75607 0.80377 0.18635
 H251 H 0.80413 0.90975 0.09142
 H252 H 0.69629 0.91089 0.05418
 H253 H 0.80032 0.94650 0.05517
 H254 H 0.67005 0.86782 0.08467
 H255 H 0.67102 0.83045 0.12116
 H256 H 0.80444 0.88473 0.12859
 H257 H 0.80516 0.84884 0.16629
 H258 H 0.67384 0.79411 0.14902
 H259 H 0.67811 0.75861 0.18677
 H260 H 0.77867 0.80640 0.19752
 C261 C 0.22767 0.37154 0.57969
 C262 C 0.25034 0.37944 0.60190
 C263 C 0.27072 0.41123 0.60280
 C264 C 0.26941 0.43341 0.58145
 C265 C 0.24676 0.42512 0.55974
 C266 C 0.22577 0.39419 0.55919
 C267 C 0.29191 0.42093 0.62523
 C268 C 0.29253 0.40015 0.64743
 C269 C 0.27270 0.36830 0.64756
 C270 C 0.25275 0.35722 0.62364
 C271 C 0.23636 0.32422 0.62202
 C272 C 0.23835 0.30300 0.64352
 C273 C 0.25572 0.31396 0.66789
 C274 C 0.27262 0.34692 0.67057
 C275 C 0.28801 0.35724 0.69650
 C276 C 0.28727 0.33550 0.71840
 C277 C 0.27184 0.30287 0.71498
 C278 C 0.25605 0.29216 0.68977
 H279 H 0.21029 0.34845 0.57813
 H280 H 0.28523 0.45760 0.58230
 H281 H 0.20784 0.38744 0.54272
 H282 H 0.30773 0.44511 0.62594
 H283 H 0.30961 0.40949 0.66391
 H284 H 0.22253 0.31381 0.60388
 H285 H 0.22563 0.27780 0.64125
 H286 H 0.29999 0.38209 0.70079
 H287 H 0.29917 0.34409 0.73803
 H288 H 0.24362 0.26688 0.68743
 C289 C 0.93616 0.30084 0.10110
 C290 C 0.90686 0.27711 0.10570
 C291 C 0.89895 0.25043 0.08716
 C292 C 0.92151 0.24587 0.06719
 C293 C 0.95086 0.26929 0.06317
 C294 C 0.95733 0.29733 0.07967
 C295 C 0.86852 0.22859 0.08856
 C296 C 0.84557 0.23292 0.10782
 C297 C 0.85317 0.25802 0.12777
 C298 C 0.88497 0.27914 0.12783
 C299 C 0.89445 0.30016 0.15085
 C300 C 0.87365 0.29979 0.17344
 C301 C 0.84198 0.28034 0.17286
 C302 C 0.83069 0.26111 0.14898
 C303 C 0.79736 0.24557 0.14738
 C304 C 0.77702 0.24591 0.17018
 C305 C 0.78967 0.26002 0.19566
 C306 C 0.82174 0.27894 0.19634
 H307 H 0.94271 0.32283 0.11318
 H308 H 0.91546 0.22466 0.05386
 H309 H 0.97946 0.31618 0.07675
 H310 H 0.86219 0.20823 0.07433
 H311 H 0.82264 0.21495 0.10792
 H312 H 0.91869 0.31548 0.15284
 H313 H 0.88242 0.31490 0.19147
 H314 H 0.78650 0.23319 0.12867
 H315 H 0.75166 0.23331 0.16847
 H316 H 0.83137 0.29131 0.21553
 C317 C 0.42644 0.79940 0.60137
 C318 C 0.39532 0.77788 0.60373
 C319 C 0.38447 0.75588 0.58140
 C320 C 0.40525 0.75388 0.55893
 C321 C 0.43624 0.77488 0.55742
 C322 C 0.44634 0.79804 0.57841
 C323 C 0.35298 0.73606 0.58162
 C324 C 0.33180 0.73780 0.60338
 C325 C 0.34183 0.75852 0.62652
 C326 C 0.37457 0.77766 0.62732
 C327 C 0.38591 0.79484 0.65214
 C328 C 0.36597 0.79329 0.67542
 C329 C 0.33361 0.77585 0.67448
 C330 C 0.32066 0.75947 0.64957
 C331 C 0.28700 0.74475 0.64882
 C332 C 0.26779 0.74397 0.67264
 C333 C 0.28159 0.75690 0.69813
 C334 C 0.31426 0.77399 0.69858
 H335 H 0.43577 0.81808 0.61656
 H336 H 0.39710 0.73644 0.54229
 H337 H 0.47009 0.81480 0.57734
 H338 H 0.34450 0.71920 0.56464
 H339 H 0.30803 0.72141 0.60219
 H340 H 0.41072 0.80844 0.65475
 H341 H 0.37603 0.80594 0.69437
 H342 H 0.27483 0.73396 0.63004
 H343 H 0.24219 0.73213 0.67143
 H344 H 0.32493 0.78484 0.71804
 C345 C 0.10855 0.75907 0.07478
 C346 C 0.10386 0.73399 0.09470
 C347 C 0.07409 0.70996 0.09435
 C348 C 0.05139 0.70952 0.07289
 C349 C 0.05625 0.73482 0.05334
 C350 C 0.08479 0.75984 0.05500
 C351 C 0.06683 0.68719 0.11591
 C352 C 0.08781 0.68889 0.13853
 C353 C 0.11794 0.71210 0.13931
 C354 C 0.12715 0.73301 0.11582
 C355 C 0.15943 0.75183 0.11394
 C356 C 0.18151 0.75154 0.13521
 C357 C 0.17163 0.73425 0.15984
 C358 C 0.13944 0.71501 0.16262
 C359 C 0.12963 0.70091 0.18907
 C360 C 0.15074 0.70689 0.21200
 C361 C 0.18263 0.72578 0.20898
 C362 C 0.19340 0.73736 0.18223
 H363 H 0.12968 0.77926 0.07494
 H364 H 0.02905 0.69052 0.07251
 H365 H 0.08927 0.77991 0.04046
 H366 H 0.04416 0.66866 0.11585
 H367 H 0.08048 0.67094 0.15473
 H368 H 0.16852 0.76615 0.09566
 H369 H 0.20614 0.76625 0.13294
 H370 H 0.10514 0.68708 0.19309
 H371 H 0.14175 0.69755 0.23239
 H372 H 0.21838 0.75068 0.17923
 C373 C 0.64130 0.28378 0.57543
 C374 C 0.63430 0.26251 0.59859
 C375 C 0.60175 0.24454 0.60254
 C376 C 0.57792 0.24611 0.58275
 C377 C 0.58547 0.26695 0.55979
 C378 C 0.61708 0.28615 0.55654
 C379 C 0.59309 0.22536 0.62633
 C380 C 0.61582 0.22459 0.64694
 C381 C 0.64852 0.24187 0.64383
 C382 C 0.65828 0.25921 0.61839
 C383 C 0.69167 0.27205 0.61332
 C384 C 0.71467 0.26927 0.63308
 C385 C 0.70519 0.25529 0.65916
 C386 C 0.67192 0.24215 0.66521
 C387 C 0.66331 0.23129 0.69287
 C388 C 0.68677 0.23463 0.71376
 C389 C 0.71957 0.24774 0.70760
 C390 C 0.72872 0.25591 0.67977
 H391 H 0.66502 0.29962 0.57188
 H392 H 0.55323 0.23175 0.58558
 H393 H 0.62320 0.30266 0.53901
 H394 H 0.56831 0.21138 0.62937
 H395 H 0.60732 0.20924 0.66474
 H396 H 0.70080 0.28352 0.59378
 H397 H 0.74008 0.27942 0.62833
 H398 H 0.63848 0.22222 0.69945
 H399 H 0.67910 0.22813 0.73511
 H400 H 0.75414 0.26527 0.67467
 C401 C 0.70889 0.08888 0.90888
 C402 C 0.73731 0.10519 0.89427
 C403 C 0.76684 0.09832 0.90208
 C404 C 0.76771 0.07667 0.92392
 C405 C 0.73938 0.06081 0.93814
 C406 C 0.71001 0.06707 0.93034
 C407 C 0.79545 0.11292 0.88801
 C408 C 0.79551 0.13395 0.86594
 C409 C 0.76683 0.14162 0.85719
 C410 C 0.73742 0.12774 0.87211
 C411 C 0.70927 0.13731 0.86471
 C412 C 0.70970 0.15952 0.84349
 C413 C 0.73792 0.17264 0.82836
 C414 C 0.76675 0.16340 0.83448
 C415 C 0.79429 0.17641 0.81751
 C416 C 0.79358 0.19903 0.79668
 C417 C 0.76562 0.20953 0.79217
 C418 C 0.73758 0.19553 0.80744
 H419 H 0.68526 0.09193 0.90397
 H420 H 0.79057 0.07175 0.92953
 H421 H 0.68770 0.05497 0.94083
 H422 H 0.81812 0.10790 0.89404
 H423 H 0.81877 0.14441 0.85655
 H424 H 0.68648 0.12867 0.87541
 H425 H 0.68761 0.16653 0.83889
 H426 H 0.81674 0.16964 0.81971
 H427 H 0.81527 0.20911 0.78454
 H428 H 0.71577 0.20340 0.80368
 C429 C 0.20636 0.59690 0.43188
 C430 C 0.22461 0.60106 0.40669
 C431 C 0.24529 0.58048 0.40194
 C432 C 0.24913 0.55841 0.42261
 C433 C 0.23109 0.55496 0.44745
 C434 C 0.20933 0.57388 0.45170
 C435 C 0.26172 0.58177 0.37648
 C436 C 0.25751 0.60250 0.35526
 C437 C 0.23770 0.62390 0.35917
 C438 C 0.22250 0.62441 0.38586
 C439 C 0.20659 0.64886 0.39117
 C440 C 0.20505 0.67167 0.37091
 C441 C 0.21797 0.67020 0.34421
 C442 C 0.23351 0.64562 0.33760
 C443 C 0.24382 0.64362 0.30954
 C444 C 0.24031 0.66614 0.28943
 C445 C 0.22717 0.69165 0.29680
 C446 C 0.21562 0.69335 0.32407
 H447 H 0.18881 0.61031 0.43642
 H448 H 0.26540 0.54313 0.41901
 H449 H 0.19481 0.57109 0.47064
 H450 H 0.27762 0.56617 0.37272
 H451 H 0.27118 0.60216 0.33629
 H452 H 0.19624 0.65182 0.41132
 H453 H 0.19324 0.69046 0.37612
 H454 H 0.25413 0.62458 0.30240
 H455 H 0.24893 0.66433 0.26826
 H456 H 0.20490 0.71286 0.32957
 C457 C 0.19680 0.89351 0.90577
 C458 C 0.22462 0.89013 0.89102
 C459 C 0.25528 0.90739 0.90139
 C460 C 0.25770 0.92705 0.92525
 C461 C 0.22997 0.93038 0.93939
 C462 C 0.19954 0.91338 0.92942
 C463 C 0.28355 0.90521 0.88787
 C464 C 0.28234 0.88594 0.86436
 C465 C 0.25259 0.86781 0.85326
 C466 C 0.22319 0.87026 0.86657
 C467 C 0.19343 0.85268 0.85502
 C468 C 0.19234 0.83286 0.83178
 C469 C 0.22072 0.82942 0.81918
 C470 C 0.25129 0.84692 0.82958
 C471 C 0.27933 0.84192 0.81631
 C472 C 0.27696 0.81897 0.79515
 C473 C 0.24674 0.80063 0.78609
 C474 C 0.21868 0.80732 0.79701
 H475 H 0.17253 0.88121 0.89963
 H476 H 0.28144 0.94019 0.93261
 H477 H 0.17766 0.91548 0.93990
 H478 H 0.30703 0.91855 0.89562
 H479 H 0.30544 0.88591 0.85537
 H480 H 0.17033 0.85352 0.86356
 H481 H 0.16891 0.81947 0.82398
 H482 H 0.30356 0.85426 0.82245
 H483 H 0.29895 0.81437 0.78682
 H484 H 0.19519 0.79344 0.78972
 C485 C 0.78890 0.41219 0.40616
 C486 C 0.76197 0.39534 0.39008
 C487 C 0.73088 0.39809 0.39836
 C488 C 0.72727 0.41713 0.42156
 C489 C 0.75432 0.43416 0.43681
 C490 C 0.78503 0.43122 0.42899
 C491 C 0.70351 0.38210 0.38331
 C492 C 0.70619 0.36388 0.35978
 C493 C 0.73658 0.36079 0.35028
 C494 C 0.76486 0.37616 0.36606
 C495 C 0.79503 0.37162 0.35743
 C496 C 0.79755 0.35248 0.33452
 C497 C 0.77034 0.33752 0.31888
 C498 C 0.73955 0.34207 0.32598
 C499 C 0.71300 0.32728 0.30856
 C500 C 0.71651 0.30662 0.28681
 C501 C 0.74649 0.30021 0.28166
 C502 C 0.77361 0.31693 0.29678
 H503 H 0.81342 0.41173 0.40149
 H504 H 0.70335 0.41928 0.42731
 H505 H 0.80641 0.44409 0.44034
 H506 H 0.67964 0.38380 0.38971
 H507 H 0.68374 0.35204 0.34970
 H508 H 0.81734 0.38202 0.36828
 H509 H 0.82114 0.34914 0.32912
 H510 H 0.68906 0.33058 0.31149
 H511 H 0.69537 0.29416 0.27496
 H512 H 0.79689 0.31211 0.29260
 C513 C 0.09035 0.21225 0.91225
 C514 C 0.11451 0.23914 0.90228
 C515 C 0.11695 0.26925 0.91555
 C516 C 0.09560 0.27223 0.93714
 C517 C 0.07155 0.24554 0.94642
 C518 C 0.06932 0.21550 0.93396
 C519 C 0.14057 0.29646 0.90720
 C520 C 0.16219 0.29467 0.88598
 C521 C 0.16092 0.26542 0.87190
 C522 C 0.13628 0.23730 0.87975
 C523 C 0.13394 0.20854 0.86453
 C524 C 0.15488 0.20720 0.84246
 C525 C 0.17939 0.23419 0.83495
 C526 C 0.18316 0.26355 0.84987
 C527 C 0.20926 0.28984 0.84220
 C528 C 0.23013 0.28717 0.82042
 C529 C 0.22596 0.25837 0.80551
 C530 C 0.20033 0.23196 0.81263
 H531 H 0.08714 0.18832 0.90392
 H532 H 0.09783 0.29558 0.94679
 H533 H 0.05106 0.19440 0.94083
 H534 H 0.14240 0.31955 0.91722
 H535 H 0.17925 0.31706 0.88076
 H536 H 0.11570 0.18660 0.86879
 H537 H 0.15194 0.18466 0.83123
 H538 H 0.21476 0.31272 0.85283
 H539 H 0.25001 0.30774 0.81534
 H540 H 0.19709 0.20959 0.80107
 C541 C 0.60433 0.79563 0.40597
 C542 C 0.60599 0.76640 0.39302
 C543 C 0.58409 0.73758 0.40243
 C544 C 0.56216 0.73824 0.42433
 C545 C 0.56091 0.76744 0.43686
 C546 C 0.58215 0.79603 0.42740
 C547 C 0.58392 0.70825 0.38980
 C548 C 0.60443 0.70682 0.36749
 C549 C 0.62650 0.73479 0.35710
 C550 C 0.62814 0.76488 0.37077
 C551 C 0.65205 0.79238 0.36192
 C552 C 0.67290 0.79089 0.33991
 C553 C 0.67054 0.76216 0.32548
 C554 C 0.64721 0.73368 0.33365
 C555 C 0.64519 0.70547 0.31753
 C556 C 0.66573 0.70565 0.29468
 C557 C 0.68921 0.73365 0.28731
 C558 C 0.69136 0.76187 0.30271
 H559 H 0.61929 0.81877 0.39970
 H560 H 0.54561 0.71597 0.43126
 H561 H 0.58165 0.81898 0.43658
 H562 H 0.56742 0.68610 0.39704
 H563 H 0.60275 0.68314 0.35911
 H564 H 0.65574 0.81554 0.37191
 H565 H 0.69087 0.81265 0.33391
 H566 H 0.62747 0.68307 0.32149
 H567 H 0.66288 0.68387 0.28241
 H568 H 0.70930 0.78372 0.29682
 C569 C 0.87934 0.71873 0.91240
 C570 C 0.88579 0.74379 0.89223
 C571 C 0.91549 0.76781 0.89443
 C572 C 0.93696 0.76724 0.91663
 C573 C 0.93009 0.74224 0.93637
 C574 C 0.90124 0.71797 0.93392
 C575 C 0.92385 0.79207 0.87428
 C576 C 0.90382 0.79261 0.85146
 C577 C 0.87402 0.76926 0.84824
 C578 C 0.86418 0.74539 0.86967
 C579 C 0.83289 0.72425 0.86807
 C580 C 0.81229 0.72560 0.84588
 C581 C 0.82224 0.74745 0.82403
 C582 C 0.85342 0.76931 0.82458
 C583 C 0.86283 0.78987 0.80110
 C584 C 0.84177 0.78917 0.77857
 C585 C 0.81071 0.76841 0.77892
 C586 C 0.80110 0.74745 0.80152
 H587 H 0.85805 0.69882 0.91172
 H588 H 0.95953 0.78583 0.91809
 H589 H 0.89550 0.69824 0.94879
 H590 H 0.94641 0.81062 0.87594
 H591 H 0.91206 0.81225 0.83696
 H592 H 0.82315 0.70680 0.88413
 H593 H 0.78839 0.70903 0.84567
 H594 H 0.88653 0.80621 0.79916
 H595 H 0.84969 0.80499 0.76083
 H596 H 0.77710 0.73105 0.80145
 C597 C 0.44268 0.29690 0.40053
 C598 C 0.41382 0.27192 0.39777
 C599 C 0.40602 0.24875 0.41957
 C600 C 0.42753 0.24937 0.44190
 C601 C 0.45651 0.27355 0.44370
 C602 C 0.46352 0.29770 0.42324
 C603 C 0.37695 0.22486 0.41890
 C604 C 0.35513 0.22347 0.39712
 C605 C 0.36205 0.24543 0.37453
 C606 C 0.39245 0.26921 0.37429
 C607 C 0.40096 0.28867 0.35019
 C608 C 0.38037 0.28529 0.32722
 C609 C 0.35005 0.26329 0.32771
 C610 C 0.33999 0.24371 0.35170
 C611 C 0.30805 0.22348 0.35195
 C612 C 0.28756 0.22213 0.32899
 C613 C 0.29828 0.24049 0.30505
 C614 C 0.32955 0.26089 0.30435
 H615 H 0.44962 0.31641 0.38571
 H616 H 0.42162 0.23097 0.45804
 H617 H 0.48564 0.31686 0.42440
 H618 H 0.37089 0.20706 0.43550
 H619 H 0.33348 0.20397 0.39805
 H620 H 0.42404 0.30602 0.34798
 H621 H 0.38817 0.30036 0.30897
 H622 H 0.29784 0.20908 0.36984
 H623 H 0.26316 0.20666 0.32987
 H624 H 0.33750 0.27554 0.28588
 C625 C 0.71493 0.88847 0.90657
 C626 C 0.74248 0.89070 0.88939
 C627 C 0.77071 0.91552 0.89546
 C628 C 0.77125 0.93655 0.91819
 C629 C 0.74365 0.93397 0.93484
 C630 C 0.71560 0.90978 0.92876
 C631 C 0.79817 0.91948 0.87865
 C632 C 0.79817 0.89982 0.85551
 C633 C 0.77068 0.87486 0.84844
 C634 C 0.74276 0.86955 0.86621
 C635 C 0.71618 0.84307 0.86042
 C636 C 0.71644 0.82290 0.83775
 C637 C 0.74289 0.82844 0.81966
 C638 C 0.77031 0.85466 0.82444
 C639 C 0.79604 0.85966 0.80474
 C640 C 0.79481 0.83885 0.78200
 C641 C 0.76815 0.81248 0.77821
 C642 C 0.74210 0.80762 0.79683
 H643 H 0.69217 0.87104 0.90315
 H644 H 0.79299 0.95544 0.92251
 H645 H 0.69386 0.90730 0.94120
 H646 H 0.81988 0.93828 0.88326
 H647 H 0.82046 0.90451 0.84381
 H648 H 0.69483 0.83674 0.87337
 H649 H 0.69554 0.80276 0.83427
 H650 H 0.81726 0.87958 0.80605
 H651 H 0.81481 0.84336 0.76729
 H652 H 0.72132 0.78723 0.79368
 C653 C 0.28374 0.41341 0.40845
 C654 C 0.25779 0.38756 0.39961
 C655 C 0.22754 0.38356 0.41335
 C656 C 0.22353 0.40515 0.43443
 C657 C 0.24949 0.43069 0.44273
 C658 C 0.27956 0.43445 0.42961
 C659 C 0.20141 0.35798 0.40611
 C660 C 0.20453 0.33598 0.38561
 C661 C 0.23398 0.33892 0.37108
 C662 C 0.26088 0.36552 0.37783
 C663 C 0.28982 0.36948 0.36230
 C664 C 0.29259 0.34824 0.34108
 C665 C 0.26690 0.32194 0.33462
 C666 C 0.23733 0.31651 0.34968
 C667 C 0.21238 0.28884 0.34253
 C668 C 0.21660 0.26812 0.32104
 C669 C 0.24570 0.27409 0.30609
 C670 C 0.27065 0.30114 0.31290
 H671 H 0.30776 0.41794 0.39979
 H672 H 0.20021 0.40176 0.44466
 H673 H 0.30012 0.45385 0.43568
 H674 H 0.17822 0.35480 0.41652
 H675 H 0.18304 0.31712 0.38132
 H676 H 0.31083 0.38921 0.36560
 H677 H 0.31522 0.35246 0.32960
 H678 H 0.18939 0.28231 0.35319
 H679 H 0.19702 0.24724 0.31608
 H680 H 0.29295 0.30632 0.30088
 C681 C 0.22526 0.10676 0.93290
 C682 C 0.24730 0.11135 0.91022
 C683 C 0.26513 0.08812 0.90592
 C684 C 0.26426 0.06402 0.92600
 C685 C 0.24230 0.05970 0.94847
 C686 C 0.22189 0.08049 0.95102
 C687 C 0.28309 0.08873 0.88133
 C688 C 0.28266 0.11128 0.86047
 C689 C 0.26669 0.13584 0.86475
 C690 C 0.25130 0.13750 0.89103
 C691 C 0.24177 0.16576 0.89768
 C692 C 0.24705 0.19147 0.87888
 C693 C 0.25886 0.18850 0.85190
 C694 C 0.26678 0.15968 0.84403
 C695 C 0.27326 0.15528 0.81553
 C696 C 0.27243 0.17898 0.79576
 C697 C 0.26769 0.20900 0.80385
 C698 C 0.26220 0.21378 0.83250
 H699 H 0.20939 0.12238 0.93619
 H700 H 0.27919 0.04728 0.92309
 H701 H 0.20441 0.07746 0.96795
 H702 H 0.29664 0.07093 0.87773
 H703 H 0.29664 0.11026 0.84175
 H704 H 0.23195 0.16919 0.91801
 H705 H 0.24053 0.21329 0.88507
 H706 H 0.27703 0.13285 0.80781
 H707 H 0.27543 0.17350 0.77391
 H708 H 0.25994 0.23688 0.83994
 C709 C 0.77228 0.61329 0.41600
 C710 C 0.75022 0.60681 0.39327
 C711 C 0.72855 0.57570 0.39168
 C712 C 0.72766 0.55307 0.41306
 C713 C 0.74923 0.56018 0.43562
 C714 C 0.77188 0.59015 0.43667
 C715 C 0.70792 0.56724 0.36874
 C716 C 0.70872 0.58877 0.34690
 C717 C 0.72948 0.62018 0.34765
 C718 C 0.74929 0.62989 0.37189
 C719 C 0.76672 0.66251 0.37433
 C720 C 0.76543 0.68476 0.35350
 C721 C 0.74785 0.67517 0.32898
 C722 C 0.73038 0.64254 0.32530
 C723 C 0.71499 0.63352 0.29915
 C724 C 0.71587 0.65630 0.27815
 C725 C 0.73153 0.68866 0.28269
 C726 C 0.74770 0.69805 0.30798
 H727 H 0.79064 0.63568 0.41802
 H728 H 0.71055 0.52957 0.41188
 H729 H 0.78902 0.59593 0.45382
 H730 H 0.69123 0.54353 0.36747
 H731 H 0.69178 0.58045 0.33009
 H732 H 0.78069 0.67189 0.39269
 H733 H 0.77875 0.70968 0.35647
 H734 H 0.70282 0.60895 0.29402
 H735 H 0.70380 0.64875 0.25837
 H736 H 0.76041 0.72313 0.31111
 C737 C 0.06722 0.69253 0.90184
 C738 C 0.09622 0.71640 0.89648
 C739 C 0.10461 0.74321 0.91484
 C740 C 0.08257 0.74785 0.93529
 C741 C 0.05332 0.72442 0.93987
 C742 C 0.04660 0.69614 0.92369
 C743 C 0.13493 0.76518 0.91267
 C744 C 0.15726 0.76087 0.89276
 C745 C 0.14903 0.73570 0.87292
 C746 C 0.11730 0.71445 0.87370
 C747 C 0.10696 0.69342 0.85083
 C748 C 0.12683 0.69393 0.82758
 C749 C 0.15848 0.71347 0.82731
 C750 C 0.17070 0.73267 0.85098
 C751 C 0.20411 0.74815 0.85166
 C752 C 0.22361 0.74765 0.82825
 C753 C 0.20991 0.73370 0.80301
 C754 C 0.17775 0.71493 0.80321
 H755 H 0.06046 0.67041 0.88995
 H756 H 0.08885 0.76923 0.94838
 H757 H 0.02459 0.67727 0.92705
 H758 H 0.14165 0.78564 0.92676
 H759 H 0.18012 0.77890 0.89205
 H760 H 0.08268 0.67803 0.84949
 H761 H 0.11738 0.67884 0.80969
 H762 H 0.21566 0.76056 0.87011
 H763 H 0.24905 0.76012 0.82929
 H764 H 0.16727 0.70262 0.78425
 C765 C 0.63797 0.28067 0.42705
 C766 C 0.63117 0.25588 0.40665
 C767 C 0.59944 0.23512 0.40592
 C768 C 0.57636 0.23794 0.42610
 C769 C 0.58369 0.26244 0.44623
 C770 C 0.61442 0.28400 0.44631
 C771 C 0.59077 0.21196 0.38485
 C772 C 0.61249 0.20983 0.36368
 C773 C 0.64430 0.22999 0.36350
 C774 C 0.65442 0.25173 0.38641
 C775 C 0.68749 0.26819 0.38853
 C776 C 0.70960 0.26485 0.36812
 C777 C 0.69933 0.24636 0.34419
 C778 C 0.66643 0.22912 0.34124
 C779 C 0.65670 0.21314 0.31547
 C780 C 0.67851 0.21567 0.29324
 C781 C 0.71081 0.23317 0.29627
 C782 C 0.72150 0.24646 0.32248
 H783 H 0.66090 0.29851 0.42805
 H784 H 0.55232 0.22161 0.42565
 H785 H 0.62042 0.30330 0.46161
 H786 H 0.56666 0.19582 0.38431
 H787 H 0.60400 0.19140 0.34809
 H788 H 0.69716 0.28324 0.40622
 H789 H 0.73475 0.27805 0.37050
 H790 H 0.63194 0.20047 0.31118
 H791 H 0.66972 0.20516 0.27316
 H792 H 0.74673 0.25915 0.32524
 C793 C 0.88928 0.24352 0.93390
 C794 C 0.89629 0.26412 0.91028
 C795 C 0.92875 0.28239 0.90640
 C796 C 0.95251 0.28152 0.92651
 C797 C 0.94499 0.26108 0.94974
 C798 C 0.91343 0.24182 0.95308
 C799 C 0.93741 0.30101 0.88229
 C800 C 0.91485 0.30083 0.86128
 C801 C 0.88228 0.28305 0.86421
 C802 C 0.87244 0.26630 0.88993
 C803 C 0.83909 0.25275 0.89465
 C804 C 0.81626 0.25404 0.87428
 C805 C 0.82588 0.26750 0.84805
 C806 C 0.85907 0.28167 0.84239
 C807 C 0.86780 0.29257 0.81475
 C808 C 0.84455 0.28865 0.79360
 C809 C 0.81182 0.27463 0.79939
 C810 C 0.80253 0.26574 0.82706
 H811 H 0.86565 0.22759 0.93757
 H812 H 0.97717 0.29595 0.92362
 H813 H 0.90731 0.22564 0.97084
 H814 H 0.96210 0.31524 0.87929
 H815 H 0.92341 0.31574 0.84325
 H816 H 0.82981 0.24176 0.91431
 H817 H 0.79089 0.24332 0.87877
 H818 H 0.89261 0.30245 0.80845
 H819 H 0.85236 0.29559 0.77236
 H820 H 0.77715 0.25570 0.83192
 C821 C 0.40174 0.72867 0.39919
 C822 C 0.38543 0.75257 0.39275
 C823 C 0.39136 0.78031 0.41013
 C824 C 0.41441 0.78461 0.43186
 C825 C 0.43073 0.76084 0.43750
 C826 C 0.42380 0.73277 0.42121
 C827 C 0.37409 0.80342 0.40583
 C828 C 0.35055 0.79934 0.38502
 C829 C 0.34420 0.77244 0.36686
 C830 C 0.36305 0.74949 0.37001
 C831 C 0.35951 0.72463 0.34994
 C832 C 0.33750 0.72148 0.32815
 C833 C 0.31753 0.74237 0.32582
 C834 C 0.32011 0.76791 0.34527
 C835 C 0.29808 0.78744 0.34243
 C836 C 0.27461 0.78157 0.32123
 C837 C 0.27252 0.75635 0.30214
 C838 C 0.29472 0.73753 0.30412
 H839 H 0.39741 0.70610 0.38809
 H840 H 0.41917 0.80613 0.44475
 H841 H 0.43583 0.71389 0.42530
 H842 H 0.37846 0.82470 0.41900
 H843 H 0.33832 0.81828 0.38312
 H844 H 0.37420 0.70766 0.34997
 H845 H 0.33574 0.70208 0.31317
 H846 H 0.29769 0.80676 0.35675
 H847 H 0.25765 0.79644 0.32004
 H848 H 0.29392 0.71865 0.28884
 C849 C 0.27075 0.90265 0.09381
 C850 C 0.24361 0.88996 0.11122
 C851 C 0.21396 0.89700 0.10395
 C852 C 0.21219 0.91683 0.08071
 C853 C 0.23966 0.92985 0.06421
 C854 C 0.26872 0.92218 0.07092
 C855 C 0.18627 0.88435 0.11997
 C856 C 0.18720 0.86480 0.14306
 C857 C 0.21616 0.85735 0.15142
 C858 C 0.24492 0.87046 0.13538
 C859 C 0.27413 0.86383 0.14413
 C860 C 0.27517 0.84428 0.16705
 C861 C 0.24730 0.83053 0.18237
 C862 C 0.21739 0.83704 0.17512
 C863 C 0.18996 0.82243 0.19172
 C864 C 0.19206 0.80118 0.21346
 C865 C 0.22141 0.79379 0.21940
 C866 C 0.24916 0.80948 0.20447
 H867 H 0.29403 0.89797 0.09710
 H868 H 0.18948 0.92241 0.07571
 H869 H 0.29034 0.93155 0.05849
 H870 H 0.16349 0.88952 0.11453
 H871 H 0.16463 0.85600 0.15404
 H872 H 0.29694 0.87346 0.13376
 H873 H 0.29812 0.83960 0.17267
 H874 H 0.16633 0.82618 0.18806
 H875 H 0.17036 0.78936 0.22494
 H876 H 0.27192 0.80374 0.20901
 C877 C 0.71071 0.40048 0.59448
 C878 C 0.73950 0.39701 0.60738
 C879 C 0.76934 0.41233 0.59435
 C880 C 0.77012 0.43133 0.57030
 C881 C 0.74148 0.43538 0.55836
 C882 C 0.71180 0.41940 0.57045
 C883 C 0.79841 0.40899 0.60551
 C884 C 0.79873 0.39044 0.62924
 C885 C 0.76979 0.37471 0.64314
 C886 C 0.73975 0.37885 0.63256
 C887 C 0.71113 0.36520 0.64778
 C888 C 0.71165 0.34754 0.67210
 C889 C 0.74047 0.34196 0.68187
 C890 C 0.76993 0.35509 0.66738
 C891 C 0.79816 0.34715 0.67732
 C892 C 0.79675 0.32610 0.69981
 C893 C 0.76745 0.31266 0.71350
 C894 C 0.73972 0.32209 0.70540
 H895 H 0.68693 0.38879 0.60228
 H896 H 0.79327 0.44330 0.56102
 H897 H 0.68924 0.42185 0.56155
 H898 H 0.82130 0.42082 0.59572
 H899 H 0.82232 0.38957 0.63653
 H900 H 0.68781 0.36817 0.64171
 H901 H 0.68904 0.33744 0.68302
 H902 H 0.82145 0.35540 0.66736
 H903 H 0.81846 0.31908 0.70571
 H904 H 0.71702 0.31197 0.71618
 C905 C 0.70593 0.07701 0.09120
 C906 C 0.73379 0.09328 0.10643
 C907 C 0.76428 0.09020 0.09674
 C908 C 0.76639 0.07134 0.07300
 C909 C 0.73844 0.05507 0.05851
 C910 C 0.70833 0.05829 0.06780
 C911 C 0.79252 0.10587 0.11080
 C912 C 0.79139 0.12471 0.13429
 C913 C 0.76171 0.12861 0.14486
 C914 C 0.73242 0.11258 0.13071
 C915 C 0.70274 0.11660 0.14115
 C916 C 0.70166 0.13650 0.16383
 C917 C 0.72994 0.15292 0.17735
 C918 C 0.76036 0.14866 0.16866
 C919 C 0.78815 0.16531 0.18388
 C920 C 0.78588 0.18705 0.20514
 C921 C 0.75600 0.19284 0.21188
 C922 C 0.72797 0.17460 0.19890
 H923 H 0.68179 0.07803 0.09671
 H924 H 0.78986 0.06897 0.06607
 H925 H 0.68628 0.04609 0.05701
 H926 H 0.81590 0.10368 0.10347
 H927 H 0.81443 0.13623 0.14352
 H928 H 0.67965 0.10504 0.13206
 H929 H 0.67834 0.13942 0.17061
 H930 H 0.81210 0.16280 0.17950
 H931 H 0.80776 0.20070 0.21535
 H932 H 0.70477 0.17894 0.20431
 C933 C 0.19758 0.56898 0.59867
 C934 C 0.22531 0.58691 0.61325
 C935 C 0.25599 0.58417 0.60383
 C936 C 0.25855 0.56485 0.58060
 C937 C 0.23088 0.54744 0.56636
 C938 C 0.20043 0.54960 0.57573
 C939 C 0.28411 0.60074 0.61757
 C940 C 0.28269 0.62019 0.64052
 C941 C 0.25287 0.62414 0.65067
 C942 C 0.22370 0.60748 0.63664
 C943 C 0.19402 0.61247 0.64613
 C944 C 0.19284 0.63355 0.66797
 C945 C 0.22099 0.65014 0.68164
 C946 C 0.25136 0.64505 0.67379
 C947 C 0.27901 0.66166 0.68917
 C948 C 0.27680 0.68419 0.70969
 C949 C 0.24712 0.69079 0.71566
 C950 C 0.21907 0.67273 0.70250
 H951 H 0.17327 0.56909 0.60451
 H952 H 0.28227 0.56312 0.57377
 H953 H 0.17861 0.53626 0.56525
 H954 H 0.30763 0.59874 0.61043
 H955 H 0.30568 0.63240 0.64948
 H956 H 0.17110 0.60102 0.63665
 H957 H 0.16956 0.63720 0.67400
 H958 H 0.30282 0.65832 0.68561
 H959 H 0.29865 0.69764 0.72009
 H960 H 0.19601 0.67768 0.70736
 C961 C 0.91870 0.77814 0.09561
 C962 C 0.88833 0.75534 0.09877
 C963 C 0.87911 0.73119 0.07789
 C964 C 0.90059 0.72861 0.05625
 C965 C 0.93105 0.75054 0.05416
 C966 C 0.93957 0.77578 0.07353
 C967 C 0.84865 0.70946 0.07884
 C968 C 0.82693 0.71101 0.10014
 C969 C 0.83526 0.73381 0.12201
 C970 C 0.86688 0.75562 0.12183
 C971 C 0.87648 0.77603 0.14521
 C972 C 0.85598 0.77523 0.16799
 C973 C 0.82473 0.75496 0.16800
 C974 C 0.81346 0.73472 0.14464
 C975 C 0.78075 0.71627 0.14495
 C976 C 0.76069 0.71714 0.16794
 C977 C 0.77258 0.73610 0.19128
 C978 C 0.80461 0.75480 0.19135
 H979 H 0.92690 0.79825 0.10965
 H980 H 0.89356 0.70943 0.04088
 H981 H 0.96286 0.79325 0.07206
 H982 H 0.84147 0.69099 0.06289
 H983 H 0.80414 0.69300 0.09947
 H984 H 0.90033 0.79210 0.14707
 H985 H 0.86466 0.79082 0.18575
 H986 H 0.76971 0.70147 0.12754
 H987 H 0.73578 0.70284 0.16758
 H988 H 0.81365 0.76965 0.20949
 C989 C 0.43924 0.30992 0.59881
 C990 C 0.41671 0.28212 0.60933
 C991 C 0.41488 0.25245 0.59550
 C992 C 0.43544 0.25078 0.57289
 C993 C 0.45815 0.27835 0.56327
 C994 C 0.45954 0.30796 0.57622
 C995 C 0.39277 0.22439 0.60439
 C996 C 0.37238 0.22483 0.62693
 C997 C 0.37343 0.25353 0.64183
 C998 C 0.39614 0.28263 0.63303
 C999 C 0.39787 0.31111 0.64849
 C1000 C 0.37827 0.31126 0.67170
 C1001 C 0.35589 0.28325 0.68038
 C1002 C 0.35282 0.25400 0.66546
 C1003 C 0.32918 0.22644 0.67496
 C1004 C 0.30977 0.22802 0.69820
 C1005 C 0.31312 0.25693 0.71279
 C1006 C 0.33649 0.28438 0.70397
 H1007 H 0.44190 0.33361 0.60751
 H1008 H 0.43386 0.22773 0.56289
 H1009 H 0.47672 0.32971 0.56912
 H1010 H 0.39126 0.20167 0.59383
 H1011 H 0.35632 0.20194 0.63236
 H1012 H 0.41453 0.33381 0.64345
 H1013 H 0.38063 0.33369 0.68299
 H1014 H 0.32467 0.20331 0.66483
 H1015 H 0.29168 0.20657 0.70464
 H1016 H 0.33960 0.30669 0.71557
 C1017 C 0.11941 0.28332 0.09453
 C1018 C 0.11976 0.25499 0.10956
 C1019 C 0.09785 0.22577 0.10102
 C1020 C 0.07584 0.22551 0.07898
 C1021 C 0.07532 0.25408 0.06493
 C1022 C 0.09757 0.28277 0.07278
 C1023 C 0.09787 0.19701 0.11460
 C1024 C 0.11909 0.19647 0.13659
 C1025 C 0.14100 0.22495 0.14625
 C1026 C 0.14106 0.25474 0.13267
 C1027 C 0.16206 0.28345 0.14291
 C1028 C 0.18258 0.28321 0.16528
 C1029 C 0.18325 0.25447 0.17841
 C1030 C 0.16268 0.22480 0.16920
 C1031 C 0.16488 0.19638 0.18343
 C1032 C 0.18659 0.19768 0.20566
 C1033 C 0.20678 0.22719 0.21423
 C1034 C 0.20469 0.25544 0.20075
 H1035 H 0.13571 0.30644 0.09884
 H1036 H 0.05892 0.20307 0.07296
 H1037 H 0.09808 0.30519 0.06217
 H1038 H 0.08126 0.17457 0.10814
 H1039 H 0.11736 0.17323 0.14585
 H1040 H 0.16306 0.30687 0.13438
 H1041 H 0.19820 0.30591 0.17239
 H1042 H 0.15047 0.17276 0.17779
 H1043 H 0.18796 0.17560 0.21597
 H1044 H 0.22048 0.27829 0.20738
 C1045 C 0.61203 0.80856 0.57946
 C1046 C 0.61523 0.78113 0.59460
 C1047 C 0.59239 0.75141 0.58909
 C1048 C 0.56812 0.74936 0.56880
 C1049 C 0.56558 0.77668 0.55380
 C1050 C 0.58763 0.80626 0.55949
 C1051 C 0.59378 0.72377 0.60383
 C1052 C 0.61717 0.72486 0.62424
 C1053 C 0.64057 0.75377 0.63059
 C1054 C 0.64006 0.78221 0.61506
 C1055 C 0.66462 0.81064 0.62023
 C1056 C 0.68854 0.81153 0.64008
 C1057 C 0.68886 0.78435 0.65590
 C1058 C 0.66477 0.75511 0.65169
 C1059 C 0.66583 0.72857 0.66905
 C1060 C 0.69014 0.73098 0.68912
 C1061 C 0.71434 0.75965 0.69241
 C1062 C 0.71333 0.78634 0.67596
 H1063 H 0.62768 0.83229 0.58269
 H1064 H 0.55102 0.72634 0.56480
 H1065 H 0.58615 0.82783 0.54837
 H1066 H 0.57645 0.70096 0.59961
 H1067 H 0.61653 0.70231 0.63437
 H1068 H 0.66646 0.83272 0.60891
 H1069 H 0.70698 0.83389 0.64317
 H1070 H 0.64806 0.70572 0.66800
 H1071 H 0.69010 0.71030 0.70215
 H1072 H 0.73191 0.80870 0.67868
   
