data_POSCAR
  _audit_creation_date              2014-09-24
  _audit_creation_method            'ToBaCCo'
  _symmetry_space_group_name_H-M    'P1'
  _symmetry_Int_Tables_number       1
  _symmetry_cell_setting            triclinic
  loop_
  _symmetry_equiv_pos_as_xyz
 x,y,z
_cell_length_a 17.9323
_cell_length_b 17.9325
_cell_length_c 17.9332
_cell_angle_alpha 90.303100
_cell_angle_beta 89.999800
_cell_angle_gamma 90.007500
loop_
  _atom_site_label
  _atom_site_type_symbol
  _atom_site_fract_x
  _atom_site_fract_y
  _atom_site_fract_z
C1 C 0.50055 1.00007 -0.70004
 C2 C 0.43187 1.00660 -0.66131
 C3 C 0.43486 1.01495 -0.58362
 C4 C 0.50054 1.00000 -0.54395
 C5 C 0.56623 0.98508 -0.58379
 C6 C 0.56923 0.99350 -0.66138
 C7 C 0.50055 0.99998 -0.46094
 C8 C 0.56653 1.01378 -0.42108
 C9 C 0.56884 1.00693 -0.34344
 C10 C 0.50056 0.99991 -0.30482
 C11 C 0.43226 0.99294 -0.34351
 C12 C 0.43457 0.98614 -0.42122
 H13 H 0.50056 1.00010 -0.76050
 H14 H 0.38627 1.03344 -0.55354
 H15 H 0.61481 0.96656 -0.55391
 H16 H 0.61588 1.03028 -0.45079
 H17 H 0.50056 0.99989 -0.24440
 H18 H 0.38521 0.96967 -0.45112
 C19 C -0.69996 1.50014 0.00036
 C20 C -0.66133 1.43148 0.00699
 C21 C -0.58368 1.43448 0.01544
 C22 C -0.54387 1.50003 0.00046
 C23 C -0.58355 1.56566 -0.01455
 C24 C -0.66121 1.56876 -0.00623
 C25 C -0.46085 1.49995 0.00047
 C26 C -0.42100 1.56598 0.01423
 C27 C -0.34333 1.56820 0.00734
 C28 C -0.30472 1.49984 0.00038
 C29 C -0.34344 1.43154 -0.00654
 C30 C -0.42112 1.43386 -0.01331
 H31 H -0.76042 1.50019 0.00034
 H32 H -0.55376 1.38597 0.03401
 H33 H -0.55352 1.61412 -0.03306
 H34 H -0.45077 1.61544 0.03070
 H35 H -0.24430 1.49981 0.00035
 H36 H -0.45099 1.38443 -0.02971
 C37 C -0.00029 0.30238 0.50005
 C38 C 0.00666 0.34070 0.43147
 C39 C 0.01542 0.41836 0.43447
 C40 C 0.00138 0.45848 0.50039
 C41 C -0.01331 0.41906 0.56614
 C42 C -0.00687 0.34140 0.56844
 C43 C 0.00153 0.54150 0.50045
 C44 C 0.01571 0.58157 0.56638
 C45 C 0.00712 0.65925 0.56941
 C46 C 0.00024 0.69761 0.50084
 C47 C -0.00640 0.65861 0.43244
 C48 C -0.01304 0.58097 0.43471
 H49 H -0.00061 0.24194 0.50031
 H50 H 0.03372 0.44805 0.38579
 H51 H -0.03000 0.44916 0.61540
 H52 H 0.03393 0.55181 0.61504
 H53 H -0.00001 0.75805 0.50061
 H54 H -0.02982 0.55094 0.38544
 O55 O -0.19204 1.00293 -0.09756
 O56 O 0.19319 0.99670 -0.09755
 O57 O -0.00277 1.09748 -0.19185
 O58 O 0.00394 0.90217 -0.19277
 O59 O 0.00271 0.80928 -0.10421
 O60 O -0.00224 1.19054 -0.10245
 O61 O 0.10401 0.99737 -0.19032
 O62 O -0.10288 1.00234 -0.19035
 Zr63 Zr 0.00054 0.99986 -0.13056
 O64 O 0.06817 0.93230 -0.06752
 O65 O -0.06715 1.06751 -0.06696
 C66 C -0.17169 1.00388 -0.16649
 C67 C 0.17282 0.99579 -0.16647
 C68 C -0.00375 1.16646 -0.17137
 C69 C 0.00443 0.83322 -0.17291
 H70 H 0.09962 1.09927 -0.09848
 O71 O 0.06786 1.06745 -0.06672
 H72 H -0.09881 0.90054 -0.09939
 O73 O -0.06695 0.93240 -0.06742
 O74 O 0.19350 1.00376 0.09772
 O75 O -0.19236 0.99658 0.09773
 O76 O 0.09772 1.19301 0.00467
 O77 O 0.09794 0.80714 -0.00384
 O78 O -0.09734 0.80730 0.00287
 O79 O -0.09756 1.19251 -0.00204
 O80 O 0.00393 1.09779 0.19367
 O81 O -0.00276 0.90253 0.19275
 O82 O 0.00246 1.19067 0.10508
 O83 O -0.00198 0.80949 0.10332
 O84 O 0.19091 1.10424 0.00275
 O85 O -0.19029 1.10328 -0.00194
 O86 O -0.19017 0.89641 0.00252
 O87 O 0.19104 0.89604 -0.00218
 O88 O 0.10466 1.00234 0.19084
 O89 O -0.10353 0.99791 0.19088
 Zr90 Zr 0.13158 1.00010 0.00028
 Zr91 Zr -0.13045 0.99988 0.00028
 Zr92 Zr 0.00031 1.13101 0.00103
 Zr93 Zr 0.00045 0.86898 -0.00020
 Zr94 Zr 0.00054 1.00013 0.13146
 O95 O -0.06708 0.93243 0.06772
 O96 O 0.06810 1.06772 0.06829
 C97 C 0.17349 1.00412 0.16671
 C98 C -0.17236 0.99618 0.16672
 C99 C 0.16673 1.17306 0.00478
 C100 C 0.16693 0.82719 -0.00407
 C101 C -0.16628 0.82762 0.00393
 C102 C -0.16647 1.17211 -0.00322
 C103 C 0.00425 1.16673 0.17379
 C104 C -0.00357 0.83355 0.17225
 H105 H -0.09892 1.09925 0.10005
 O106 O -0.06701 1.06740 0.06813
 H107 H 0.09973 0.90091 0.09914
 O108 O 0.06792 0.93272 0.06744
 C109 C 0.36140 1.00587 0.29877
 C110 C 0.35010 1.07612 0.25154
 C111 C 0.28644 1.07571 0.21039
 C112 C 0.23890 1.00492 0.21927
 C113 C 0.29241 0.93989 0.20212
 C114 C 0.35590 0.94037 0.24330
 C115 C 0.28781 0.99883 0.34490
 C116 C 0.22410 0.99911 0.30300
 H117 H 0.38852 1.12294 0.25127
 H118 H 0.27067 1.12228 0.17523
 H119 H 0.28023 0.89568 0.16228
 H120 H 0.39735 0.89646 0.23839
 H121 H 0.28462 0.98763 0.40410
 H122 H 0.16918 0.99097 0.32705
 C123 C -0.36030 0.99428 0.29872
 C124 C -0.34898 0.92408 0.25066
 C125 C -0.28532 0.92454 0.20953
 C126 C -0.23778 0.99534 0.21926
 C127 C -0.29129 1.06038 0.20286
 C128 C -0.35478 1.05985 0.24402
 C129 C -0.28671 1.00127 0.34495
 C130 C -0.22300 1.00104 0.30306
 H131 H -0.38740 0.87727 0.24983
 H132 H -0.26954 0.87803 0.17382
 H133 H -0.27911 1.10462 0.16353
 H134 H -0.39624 1.10375 0.23961
 H135 H -0.28353 1.01239 0.40428
 H136 H -0.16807 1.00914 0.32721
 C137 C -0.35736 1.00658 -0.30088
 C138 C -0.35160 0.93944 -0.24832
 C139 C -0.28880 0.93866 -0.20617
 C140 C -0.23637 1.00517 -0.21965
 C141 C -0.22026 1.00270 -0.30343
 C142 C -0.28331 1.00294 -0.34627
 C143 C -0.34832 1.07531 -0.25040
 C144 C -0.28534 1.07474 -0.20828
 H145 H -0.39265 0.89501 -0.24584
 H146 H -0.27655 0.89358 -0.16783
 H147 H -0.16477 0.99766 -0.32709
 H148 H -0.27923 0.99600 -0.40611
 H149 H -0.38771 1.12126 -0.24881
 H150 H -0.27100 1.12036 -0.17084
 C151 C 0.35847 0.99324 -0.30094
 C152 C 0.28442 0.99694 -0.34626
 C153 C 0.22137 0.99712 -0.30341
 C154 C 0.23750 0.99455 -0.21966
 C155 C 0.28646 0.92497 -0.20913
 C156 C 0.34944 0.92444 -0.25127
 C157 C 0.35272 1.06031 -0.24758
 C158 C 0.28993 1.06104 -0.20542
 H159 H 0.28033 1.00396 -0.40602
 H160 H 0.16588 1.00221 -0.32701
 H161 H 0.27212 0.87930 -0.17223
 H162 H 0.38883 0.87849 -0.25023
 H163 H 0.39377 1.10474 -0.24459
 H164 H 0.27769 1.10608 -0.16655
 C165 C 0.29873 1.36103 0.00631
 C166 C 0.34490 1.28743 -0.00090
 C167 C 0.30301 1.22370 -0.00054
 C168 C 0.21926 1.23850 0.00551
 C169 C 0.21018 1.28637 0.07635
 C170 C 0.25131 1.35004 0.07668
 C171 C 0.24343 1.35520 -0.05905
 C172 C 0.20226 1.29171 -0.05944
 H173 H 0.40412 1.28422 -0.01229
 H174 H 0.32710 1.16875 -0.00878
 H175 H 0.17489 1.27080 0.12299
 H176 H 0.25091 1.38868 0.12351
 H177 H 0.23863 1.39645 -0.10292
 H178 H 0.16253 1.27931 -0.10354
 C179 C 0.29893 0.63925 -0.00559
 C180 C 0.34514 0.71287 0.00139
 C181 C 0.30326 0.77659 0.00103
 C182 C 0.21949 0.76179 -0.00481
 C183 C 0.21025 0.71381 -0.07556
 C184 C 0.25137 0.65014 -0.07588
 C185 C 0.24378 0.64518 0.05988
 C186 C 0.20263 0.70868 0.06027
 H187 H 0.40440 0.71610 0.01259
 H188 H 0.32738 0.83156 0.00911
 H189 H 0.17488 0.72931 -0.12216
 H190 H 0.25086 0.61143 -0.12265
 H191 H 0.23906 0.60401 0.10382
 H192 H 0.16301 0.72115 0.10444
 C193 C -0.30072 0.64197 0.00688
 C194 C -0.24785 0.64731 -0.06029
 C195 C -0.20567 0.71010 -0.06117
 C196 C -0.21943 0.76293 0.00529
 C197 C -0.30320 0.77905 0.00288
 C198 C -0.34606 0.71600 0.00320
 C199 C -0.25055 0.65142 0.07557
 C200 C -0.20840 0.71439 0.07490
 H201 H -0.24517 0.60597 -0.10467
 H202 H -0.16711 0.72205 -0.10629
 H203 H -0.32683 0.83451 -0.00221
 H204 H -0.40587 0.72007 -0.00372
 H205 H -0.24918 0.61231 0.12156
 H206 H -0.17116 0.72900 0.12048
 C207 C -0.30091 1.35772 -0.00613
 C208 C -0.34629 1.28369 -0.00265
 C209 C -0.30344 1.22063 -0.00233
 C210 C -0.21966 1.23676 -0.00457
 C211 C -0.20850 1.28540 -0.07409
 C212 C -0.25063 1.34837 -0.07475
 C213 C -0.24816 1.35228 0.06112
 C214 C -0.20601 1.28949 0.06199
 H215 H -0.40612 1.27961 0.00408
 H216 H -0.32709 1.16516 0.00260
 H217 H -0.17120 1.27085 -0.11963
 H218 H -0.24918 1.38754 -0.12068
 H219 H -0.24555 1.39356 0.10557
 H220 H -0.16754 1.27747 0.10716
 C221 C 0.00593 1.30028 0.36116
 C222 C -0.05980 1.24536 0.35566
 C223 C -0.06022 1.20358 0.29238
 C224 C 0.00504 1.21968 0.23906
 C225 C -0.00038 1.30336 0.22393
 C226 C -0.00067 1.34584 0.28745
 C227 C 0.07604 1.25230 0.35026
 C228 C 0.07566 1.21056 0.28680
 H229 H -0.10388 1.24126 0.39698
 H230 H -0.10452 1.16400 0.28021
 H231 H -0.00820 1.32700 0.16889
 H232 H -0.01154 1.40513 0.28402
 H233 H 0.12275 1.25198 0.38881
 H234 H 0.12212 1.17483 0.27129
 C235 C -0.00651 1.29938 -0.35758
 C236 C 0.06039 1.24624 -0.35182
 C237 C 0.06124 1.20470 -0.28882
 C238 C -0.00504 1.21924 -0.23619
 C239 C -0.00216 1.30312 -0.22041
 C240 C -0.00240 1.34538 -0.28366
 C241 C -0.07542 1.24964 -0.34811
 C242 C -0.07482 1.20811 -0.28493
 H243 H 0.10465 1.24293 -0.39303
 H244 H 0.10622 1.16607 -0.27658
 H245 H 0.00325 1.32724 -0.16504
 H246 H 0.00493 1.40518 -0.27981
 H247 H -0.12149 1.24809 -0.38736
 H248 H -0.12055 1.17124 -0.27031
 C249 C 0.00637 0.69966 -0.36027
 C250 C -0.05950 0.75439 -0.35475
 C251 C -0.06000 0.79619 -0.29148
 C252 C 0.00533 0.78028 -0.23819
 C253 C 0.00015 0.69659 -0.22303
 C254 C -0.00006 0.65409 -0.28655
 C255 C 0.07636 0.74784 -0.34942
 C256 C 0.07590 0.78960 -0.28597
 H257 H -0.10360 0.75838 -0.39605
 H258 H -0.10438 0.83566 -0.27930
 H259 H -0.00757 0.67293 -0.16799
 H260 H -0.01075 0.59478 -0.28307
 H261 H 0.12305 0.74830 -0.38799
 H262 H 0.12227 0.82548 -0.27049
 C263 C -0.00606 0.70065 0.35847
 C264 C -0.07511 0.75017 0.34894
 C265 C -0.07459 0.79168 0.28576
 C266 C -0.00475 0.78076 0.23706
 C267 C 0.06145 0.79552 0.28974
 C268 C 0.06069 0.75400 0.35275
 C269 C -0.00176 0.65465 0.28457
 C270 C -0.00160 0.69689 0.22131
 H271 H -0.12121 0.75158 0.38816
 H272 H -0.12043 0.82840 0.27109
 H273 H 0.10635 0.83427 0.27751
 H274 H 0.10492 0.75744 0.39398
 H275 H 0.00581 0.59487 0.28076
 H276 H 0.00395 0.67279 0.16594
   
