data_POSCAR
  _audit_creation_date              2014-09-24
  _audit_creation_method            'ToBaCCo'
  _symmetry_space_group_name_H-M    'P1'
  _symmetry_Int_Tables_number       1
  _symmetry_cell_setting            triclinic
  loop_
  _symmetry_equiv_pos_as_xyz
 x,y,z
_cell_length_a 35.3479
_cell_length_b 34.4547
_cell_length_c 32.4111
_cell_angle_alpha 89.459900
_cell_angle_beta 90.621500
_cell_angle_gamma 90.260500
loop_
  _atom_site_label
  _atom_site_type_symbol
  _atom_site_fract_x
  _atom_site_fract_y
  _atom_site_fract_z
C1 C 0.24874 0.25340 0.25611
 C2 C 0.74695 0.74558 0.24744
 C3 C 0.75032 0.24834 0.74880
 C4 C 0.24958 0.75583 0.75468
 C5 C 0.05160 0.06034 0.01975
 H6 H 0.05225 0.06136 -0.01361
 C7 C 0.07319 0.08664 0.04261
 H8 H 0.09094 0.10734 0.02649
 C9 C 0.02786 0.03161 0.08097
 H10 H 0.00963 0.01061 0.09579
 C11 C 0.04890 0.05748 0.10507
 H12 H 0.04660 0.05600 0.13833
 N13 N 0.02995 0.03318 0.03911
 C14 C 0.01729 -0.05987 -0.05091
 H15 H -0.01316 -0.06324 -0.05184
 C16 C 0.03993 -0.08334 -0.07538
 H17 H 0.02668 -0.10445 -0.09549
 C18 C 0.07148 -0.02794 -0.02384
 H19 H 0.08382 -0.00683 -0.00326
 C20 C 0.09511 -0.05059 -0.04789
 H21 H 0.12545 -0.04652 -0.04555
 Zn22 Zn 0.00108 -0.00047 0.00512
 N23 N 0.03326 -0.03232 -0.02640
 C24 C -0.03079 0.02720 -0.07128
 N25 N -0.02916 0.03148 -0.02962
 C26 C -0.04929 0.05953 -0.01060
 C27 C -0.07295 0.08406 -0.03343
 C28 C -0.05444 0.05092 -0.09534
 C29 C -0.01458 -0.05905 0.06412
 C30 C -0.03737 -0.08427 0.08716
 C31 C -0.09239 -0.05647 0.05358
 C32 C -0.06865 -0.03167 0.03147
 N33 N -0.03051 -0.03322 0.03716
 H34 H -0.01416 0.00514 -0.08594
 H35 H -0.04705 0.06263 0.02252
 H36 H -0.08840 0.10636 -0.01754
 H37 H -0.05620 0.04625 -0.12828
 H38 H 0.01588 -0.06015 0.06753
 H39 H -0.02427 -0.10491 0.10821
 H40 H -0.12269 -0.05460 0.04875
 H41 H -0.08081 -0.01152 0.00939
 C42 C 0.07939 -0.07843 -0.07445
 C43 C 0.07210 0.08540 0.08592
 C44 C -0.07683 -0.08330 0.08177
 C45 C -0.07620 0.07966 -0.07639
 C46 C 0.05228 0.56462 0.51915
 H47 H 0.05301 0.56528 0.48578
 C48 C 0.07392 0.59108 0.54177
 H49 H 0.09172 0.61164 0.52550
 C50 C 0.02844 0.53651 0.58063
 H51 H 0.01016 0.51569 0.59567
 C52 C 0.04962 0.56247 0.60449
 H53 H 0.04740 0.56122 0.63777
 N54 N 0.03055 0.53767 0.53875
 C55 C 0.01865 0.44472 0.44872
 H56 H -0.01182 0.44200 0.44692
 C57 C 0.04139 0.42101 0.42468
 H58 H 0.02816 0.40041 0.40397
 C59 C 0.07280 0.47537 0.47757
 H60 H 0.08501 0.49609 0.49871
 C61 C 0.09656 0.45231 0.45410
 H62 H 0.12691 0.45566 0.45747
 Zn63 Zn 0.00206 0.50331 0.50511
 N64 N 0.03459 0.47172 0.47394
 C65 C -0.02637 0.53254 0.42805
 N66 N -0.02854 0.53445 0.46988
 C67 C -0.05187 0.56011 0.48835
 C68 C -0.07485 0.58463 0.46463
 C69 C -0.04890 0.55658 0.40310
 C70 C -0.01101 0.44530 0.56469
 C71 C -0.03229 0.41999 0.58920
 C72 C -0.08908 0.44490 0.55657
 C73 C -0.06674 0.46987 0.53289
 N74 N -0.02846 0.46999 0.53767
 H75 H -0.00694 0.51271 0.41391
 H76 H -0.05268 0.56135 0.52167
 H77 H -0.09373 0.60430 0.48004
 H78 H -0.04654 0.55493 0.36988
 H79 H 0.01954 0.44541 0.56725
 H80 H -0.01792 0.40052 0.61052
 H81 H -0.11954 0.44568 0.55278
 H82 H -0.08009 0.48896 0.51056
 C83 C 0.08092 0.42495 0.42688
 C84 C 0.07292 0.59013 0.58508
 C85 C -0.07190 0.41965 0.58533
 C86 C -0.07357 0.58309 0.42137
 C87 C 0.55401 0.05411 0.50977
 H88 H 0.55306 0.05523 0.47640
 C89 C 0.57736 0.07972 0.53146
 H90 H 0.59482 0.10002 0.51442
 C91 C 0.53253 0.02582 0.57221
 H92 H 0.51447 0.00532 0.58802
 C93 C 0.55533 0.05104 0.59516
 H94 H 0.55448 0.04956 0.62852
 N95 N 0.53264 0.02745 0.53026
 C96 C 0.51317 -0.06451 0.44054
 H97 H 0.48266 -0.06695 0.44140
 C98 C 0.53388 -0.08910 0.41535
 H99 H 0.51903 -0.11009 0.39645
 C100 C 0.56950 -0.03420 0.46434
 H101 H 0.58343 -0.01345 0.48413
 C102 C 0.59128 -0.05811 0.43957
 H103 H 0.62180 -0.05535 0.44063
 Zn104 Zn 0.50136 -0.00557 0.49809
 N105 N 0.53112 -0.03742 0.46400
 C106 C 0.46524 0.02320 0.42458
 N107 N 0.46923 0.02691 0.46613
 C108 C 0.45061 0.05497 0.48686
 C109 C 0.42642 0.08041 0.46589
 C110 C 0.44090 0.04774 0.40241
 C111 C 0.48988 -0.06421 0.55773
 C112 C 0.46902 -0.08915 0.58312
 C113 C 0.41158 -0.06199 0.55417
 C114 C 0.43350 -0.03731 0.52970
 N115 N 0.47192 -0.03855 0.53218
 H116 H 0.48067 0.00110 0.40852
 H117 H 0.45471 0.05759 0.51985
 H118 H 0.41247 0.10290 0.48308
 H119 H 0.43737 0.04353 0.36955
 H120 H 0.52047 -0.06511 0.55850
 H121 H 0.48373 -0.10931 0.60342
 H122 H 0.38104 -0.06021 0.55220
 H123 H 0.41973 -0.01729 0.50862
 C124 C 0.57350 -0.08596 0.41456
 C125 C 0.57832 0.07837 0.57480
 C126 C 0.42933 -0.08818 0.58150
 C127 C 0.42098 0.07685 0.42307
 C128 C 0.55098 0.55208 0.00916
 H129 H 0.55115 0.55349 -0.02420
 C130 C 0.57401 0.57708 0.03200
 H131 H 0.59233 0.59720 0.01582
 C132 C 0.52706 0.52361 0.07042
 H133 H 0.50817 0.50327 0.08530
 C134 C 0.54946 0.54828 0.09451
 H135 H 0.54745 0.54658 0.12779
 N136 N 0.52851 0.52566 0.02852
 C137 C 0.51040 0.43687 -0.06499
 H138 H 0.47982 0.43548 -0.06589
 C139 C 0.53149 0.41245 -0.09000
 H140 H 0.51691 0.39266 -0.11054
 C141 C 0.56648 0.46433 -0.03692
 H142 H 0.58011 0.48383 -0.01548
 C143 C 0.58864 0.44058 -0.06143
 H144 H 0.61916 0.44223 -0.05859
 Zn145 Zn 0.49778 0.49362 -0.00529
 N146 N 0.52809 0.46243 -0.03944
 C147 C 0.46674 0.52704 -0.07918
 N148 N 0.46653 0.52707 -0.03721
 C149 C 0.44488 0.55250 -0.01615
 C150 C 0.42166 0.57879 -0.03729
 C151 C 0.44391 0.55289 -0.10160
 C152 C 0.48618 0.43382 0.05231
 C153 C 0.46562 0.40852 0.07753
 C154 C 0.40789 0.43607 0.04976
 C155 C 0.42955 0.46097 0.02524
 N156 N 0.46797 0.45984 0.02742
 H157 H 0.48487 0.50731 -0.09538
 H158 H 0.44562 0.55221 0.01723
 H159 H 0.40416 0.59828 -0.01984
 H160 H 0.44477 0.55275 -0.13498
 H161 H 0.51678 0.43304 0.05282
 H162 H 0.48061 0.38813 0.09730
 H163 H 0.37734 0.43800 0.04828
 H164 H 0.41556 0.48117 0.00455
 C165 C 0.57119 0.41423 -0.08847
 C166 C 0.57344 0.57546 0.07534
 C167 C 0.42592 0.40964 0.07663
 C168 C 0.42095 0.57925 -0.08063
 C169 C 0.17527 -0.17000 -0.17781
 C170 C 0.19538 -0.15457 -0.21119
 C171 C 0.21928 -0.17836 -0.23351
 C172 C 0.22479 -0.21778 -0.22213
 C173 C 0.20111 -0.23247 -0.19051
 N174 N 0.17801 -0.20858 -0.16922
 C175 C 0.15071 -0.14552 -0.15215
 N176 N 0.12111 -0.16215 -0.13191
 C177 C 0.09782 -0.14142 -0.10734
 C178 C 0.10410 -0.10156 -0.10150
 C179 C 0.13465 -0.08396 -0.12176
 C180 C 0.15797 -0.10573 -0.14699
 H181 H 0.23297 -0.16555 -0.26006
 H182 H 0.20165 -0.26295 -0.18218
 H183 H 0.07486 -0.15622 -0.09185
 H184 H 0.14039 -0.05325 -0.11831
 H185 H 0.19216 -0.12459 -0.22073
 H186 H 0.18181 -0.09157 -0.16151
 C187 C 0.17620 0.33127 0.32487
 C188 C 0.19931 0.34668 0.29385
 C189 C 0.22243 0.32215 0.27148
 C190 C 0.22363 0.28196 0.28026
 C191 C 0.19762 0.26759 0.30948
 N192 N 0.17544 0.29216 0.33105
 C193 C 0.15213 0.35631 0.35053
 N194 N 0.12106 0.34068 0.36894
 C195 C 0.09792 0.36188 0.39321
 C196 C 0.10576 0.40125 0.40050
 C197 C 0.13787 0.41778 0.38218
 C198 C 0.16111 0.39551 0.35739
 H199 H 0.23866 0.33506 0.24683
 H200 H 0.19563 0.23674 0.31573
 H201 H 0.07377 0.34781 0.40723
 H202 H 0.14488 0.44808 0.38673
 H203 H 0.19909 0.37728 0.28608
 H204 H 0.18612 0.40887 0.34447
 C205 C 0.66730 -0.18556 0.31751
 C206 C 0.67068 -0.22555 0.32494
 C207 C 0.69625 -0.24703 0.30220
 C208 C 0.71971 -0.22902 0.27267
 C209 C 0.71416 -0.18901 0.26523
 N210 N 0.68898 -0.16869 0.28785
 C211 C 0.64168 -0.16091 0.34174
 N212 N 0.64961 -0.12234 0.34490
 C213 C 0.62812 -0.09794 0.36743
 C214 C 0.59633 -0.11202 0.38854
 C215 C 0.58710 -0.15150 0.38495
 C216 C 0.60957 -0.17598 0.36159
 H217 H 0.69832 -0.27794 0.30813
 H218 H 0.72903 -0.17370 0.24111
 H219 H 0.63585 -0.06754 0.36870
 H220 H 0.56289 -0.16362 0.40080
 H221 H 0.65448 -0.24020 0.34857
 H222 H 0.60154 -0.20618 0.35899
 C223 C 0.66684 0.31543 -0.18429
 C224 C 0.66860 0.27501 -0.17923
 C225 C 0.69526 0.25400 -0.20106
 C226 C 0.72136 0.27287 -0.22719
 C227 C 0.71713 0.31333 -0.23270
 N228 N 0.69093 0.33312 -0.21102
 C229 C 0.64063 0.33979 -0.16047
 N230 N 0.64937 0.37797 -0.15533
 C231 C 0.62750 0.40221 -0.13306
 C232 C 0.59442 0.38837 -0.11428
 C233 C 0.58433 0.34932 -0.11994
 C234 C 0.60726 0.32498 -0.14300
 H235 H 0.69621 0.22280 -0.19688
 H236 H 0.73400 0.32954 -0.25446
 H237 H 0.63595 0.43230 -0.13017
 H238 H 0.55911 0.33740 -0.10591
 H239 H 0.65039 0.25962 -0.15800
 H240 H 0.59861 0.29513 -0.14719
 C241 C -0.17622 0.17781 -0.17214
 C242 C -0.19972 0.20532 -0.15400
 C243 C -0.22319 0.22828 -0.17881
 C244 C -0.22451 0.22333 -0.22199
 C245 C -0.19861 0.19687 -0.23881
 N246 N -0.17580 0.17498 -0.21394
 C247 C -0.15124 0.15253 -0.14690
 N248 N -0.11789 0.14032 -0.16279
 C249 C -0.09361 0.11714 -0.14111
 C250 C -0.10251 0.10463 -0.10093
 C251 C -0.13717 0.11632 -0.08441
 C252 C -0.16147 0.14023 -0.10716
 H253 H -0.23950 0.25033 -0.16373
 H254 H -0.19697 0.19332 -0.27189
 H255 H -0.06715 0.10910 -0.15507
 H256 H -0.14585 0.10653 -0.05411
 H257 H -0.19934 0.20985 -0.12100
 H258 H -0.18830 0.14828 -0.09401
 C259 C -0.17319 0.68030 0.32418
 C260 C -0.19420 0.71013 0.34186
 C261 C -0.21992 0.73101 0.31769
 C262 C -0.22621 0.72168 0.27584
 C263 C -0.20320 0.69249 0.25916
 N264 N -0.17829 0.67246 0.28343
 C265 C -0.14621 0.65670 0.34895
 N266 N -0.13895 0.61962 0.33733
 C267 C -0.11548 0.59588 0.35939
 C268 C -0.09781 0.60912 0.39571
 C269 C -0.10413 0.64759 0.40757
 C270 C -0.12812 0.67143 0.38432
 H271 H -0.23424 0.75487 0.33212
 H272 H -0.20532 0.68546 0.22674
 H273 H -0.11146 0.56641 0.34911
 H274 H -0.09028 0.65938 0.43468
 H275 H -0.19128 0.71722 0.37417
 H276 H -0.13198 0.70114 0.39385
 C277 C 0.32102 0.17964 0.33304
 C278 C 0.30024 0.20901 0.35183
 C279 C 0.27707 0.23306 0.32778
 C280 C 0.27326 0.22727 0.28486
 C281 C 0.29625 0.19847 0.26734
 N282 N 0.31893 0.17574 0.29140
 C283 C 0.34610 0.15358 0.35716
 N284 N 0.37788 0.13964 0.33932
 C285 C 0.40210 0.11536 0.35959
 C286 C 0.39471 0.10330 0.40030
 C287 C 0.36167 0.11694 0.41895
 C288 C 0.33746 0.14212 0.39762
 H289 H 0.26310 0.25657 0.34314
 H290 H 0.29584 0.19393 0.23434
 H291 H 0.42734 0.10605 0.34401
 H292 H 0.35411 0.10769 0.44979
 H293 H 0.30267 0.21417 0.38465
 H294 H 0.31186 0.15172 0.41236
 C295 C 0.32344 0.68481 -0.17039
 C296 C 0.30587 0.71688 -0.15263
 C297 C 0.28166 0.74002 -0.17644
 C298 C 0.27308 0.73078 -0.21805
 C299 C 0.29305 0.69906 -0.23472
 N300 N 0.31656 0.67707 -0.21082
 C301 C 0.34907 0.65884 -0.14655
 N302 N 0.35435 0.62196 -0.16001
 C303 C 0.37722 0.59627 -0.13982
 C304 C 0.39654 0.60721 -0.10363
 C305 C 0.39201 0.64531 -0.08959
 C306 C 0.36848 0.67117 -0.11092
 H307 H 0.27039 0.76557 -0.16197
 H308 H 0.28975 0.69168 -0.26695
 H309 H 0.37969 0.56715 -0.15166
 H310 H 0.40709 0.65532 -0.06243
 H311 H 0.31042 0.72419 -0.12059
 H312 H 0.36626 0.70057 -0.09985
 C313 C -0.17500 -0.18615 0.17255
 C314 C -0.19517 -0.21674 0.15433
 C315 C -0.21998 -0.23890 0.17799
 C316 C -0.22593 -0.23032 0.21992
 C317 C -0.20272 -0.20125 0.23747
 N318 N -0.17871 -0.17995 0.21369
 C319 C -0.14962 -0.16074 0.14816
 N320 N -0.11995 -0.14274 0.16728
 C321 C -0.09604 -0.11845 0.14674
 C322 C -0.10178 -0.11058 0.10454
 C323 C -0.13231 -0.12867 0.08436
 C324 C -0.15623 -0.15364 0.10596
 H325 H -0.23389 -0.26310 0.16313
 H326 H -0.20432 -0.19502 0.27007
 H327 H -0.07308 -0.10471 0.16354
 H328 H -0.13763 -0.12357 0.05180
 H329 H -0.19137 -0.22412 0.12227
 H330 H -0.18009 -0.16644 0.08983
 C331 C -0.16734 0.32002 0.68339
 C332 C -0.17193 0.32399 0.72606
 C333 C -0.19820 0.30068 0.74653
 C334 C -0.22105 0.27393 0.72481
 C335 C -0.21399 0.26979 0.68228
 N336 N -0.18830 0.29294 0.66305
 C337 C -0.14140 0.34517 0.65939
 N338 N -0.14855 0.35059 0.61838
 C339 C -0.12669 0.37382 0.59423
 C340 C -0.09527 0.39326 0.61114
 C341 C -0.08684 0.38747 0.65316
 C342 C -0.10976 0.36350 0.67736
 H343 H -0.20140 0.30407 0.77949
 H344 H -0.22824 0.24804 0.66403
 H345 H -0.13379 0.37689 0.56181
 H346 H -0.06289 0.40198 0.66744
 H347 H -0.15624 0.34541 0.74350
 H348 H -0.10242 0.35922 0.70955
 C349 C 0.33393 -0.18220 0.68520
 C350 C 0.32859 -0.17391 0.72692
 C351 C 0.30143 -0.19444 0.74914
 C352 C 0.27805 -0.22274 0.73003
 C353 C 0.28676 -0.23179 0.68860
 N354 N 0.31320 -0.21105 0.66757
 C355 C 0.36027 -0.15934 0.65935
 N356 N 0.35225 -0.15487 0.61841
 C357 C 0.37412 -0.13290 0.59298
 C358 C 0.40641 -0.11388 0.60845
 C359 C 0.41586 -0.11898 0.65030
 C360 C 0.39288 -0.14159 0.67585
 H361 H 0.29789 -0.18745 0.78137
 H362 H 0.27295 -0.25541 0.67264
 H363 H 0.36624 -0.13027 0.56071
 H364 H 0.44052 -0.10477 0.66343
 H365 H 0.34438 -0.15109 0.74215
 H366 H 0.40071 -0.14518 0.70801
 C367 C 0.33246 0.31571 0.18269
 C368 C 0.33086 0.32109 0.22545
 C369 C 0.30427 0.30054 0.24846
 C370 C 0.27817 0.27521 0.22926
 C371 C 0.28235 0.26926 0.18650
 N372 N 0.30842 0.28981 0.16474
 C373 C 0.35828 0.33859 0.15618
 N374 N 0.34855 0.34441 0.11585
 C375 C 0.36989 0.36633 0.08984
 C376 C 0.40337 0.38400 0.10407
 C377 C 0.41449 0.37755 0.14526
 C378 C 0.39212 0.35488 0.17136
 H379 H 0.30324 0.30519 0.28143
 H380 H 0.26540 0.24826 0.17004
 H381 H 0.36066 0.36993 0.05810
 H382 H 0.44006 0.39070 0.15753
 H383 H 0.34904 0.34172 0.24105
 H384 H 0.40146 0.35017 0.20288
 C385 C 0.16708 0.18770 0.18233
 C386 C 0.17151 0.22784 0.17596
 C387 C 0.19762 0.24841 0.19990
 C388 C 0.22023 0.22948 0.22995
 C389 C 0.21283 0.18969 0.23703
 N390 N 0.18738 0.17028 0.21315
 C391 C 0.14111 0.16327 0.15715
 N392 N 0.13520 0.12580 0.16935
 C393 C 0.11302 0.10078 0.14765
 C394 C 0.09525 0.11288 0.11082
 C395 C 0.10071 0.15143 0.09768
 C396 C 0.12360 0.17660 0.12053
 H397 H 0.20068 0.27934 0.19458
 H398 H 0.22662 0.17371 0.26166
 H399 H 0.11009 0.07121 0.15873
 H400 H 0.08722 0.16221 0.06972
 H401 H 0.15510 0.24366 0.15318
 H402 H 0.12773 0.20573 0.10883
 C403 C 0.16870 0.69234 0.68091
 C404 C 0.17702 0.73127 0.67143
 C405 C 0.20309 0.75157 0.69568
 C406 C 0.22261 0.73336 0.72893
 C407 C 0.21076 0.69509 0.73900
 N408 N 0.18533 0.67599 0.71482
 C409 C 0.14261 0.66793 0.65569
 N410 N 0.13690 0.63039 0.66779
 C411 C 0.11452 0.60539 0.64628
 C412 C 0.09631 0.61757 0.60976
 C413 C 0.10142 0.65619 0.59677
 C414 C 0.12442 0.68140 0.61948
 H415 H 0.20861 0.78170 0.68795
 H416 H 0.22118 0.68015 0.76625
 H417 H 0.11177 0.57577 0.65728
 H418 H 0.08746 0.66703 0.56911
 H419 H 0.16391 0.74644 0.64580
 H420 H 0.12771 0.71075 0.60817
 C421 C 0.67547 0.18011 0.66943
 C422 C 0.67802 0.22054 0.66432
 C423 C 0.70248 0.24178 0.68957
 C424 C 0.72527 0.22331 0.71979
 C425 C 0.72034 0.18288 0.72494
 N426 N 0.69633 0.16285 0.69991
 C427 C 0.65001 0.15538 0.64396
 N428 N 0.64427 0.11789 0.65614
 C429 C 0.62163 0.09300 0.63481
 C430 C 0.60301 0.10536 0.59857
 C431 C 0.60863 0.14381 0.58523
 C432 C 0.63213 0.16879 0.60758
 H433 H 0.70368 0.27301 0.68560
 H434 H 0.73452 0.16694 0.74934
 H435 H 0.61872 0.06345 0.64593
 H436 H 0.59460 0.15477 0.55767
 H437 H 0.66102 0.23613 0.64187
 H438 H 0.63624 0.19792 0.59587
 C439 C 0.66853 0.67687 0.17284
 C440 C 0.67120 0.71722 0.16719
 C441 C 0.69641 0.73852 0.19134
 C442 C 0.71975 0.72025 0.22118
 C443 C 0.71412 0.68010 0.22769
 N444 N 0.68951 0.65986 0.20343
 C445 C 0.64326 0.65215 0.14713
 N446 N 0.63670 0.61483 0.15944
 C447 C 0.61450 0.59003 0.13739
 C448 C 0.59736 0.60229 0.10022
 C449 C 0.60377 0.64060 0.08690
 C450 C 0.62676 0.66543 0.10994
 H451 H 0.69809 0.76962 0.18648
 H452 H 0.72860 0.66459 0.25220
 H453 H 0.61088 0.56058 0.14860
 H454 H 0.59085 0.65155 0.05871
 H455 H 0.65395 0.73271 0.14489
 H456 H 0.63171 0.69433 0.09797
   
