data_POSCAR
  _audit_creation_date              2014-09-24
  _audit_creation_method            'ToBaCCo'
  _symmetry_space_group_name_H-M    'P1'
  _symmetry_Int_Tables_number       1
  _symmetry_cell_setting            triclinic
  loop_
  _symmetry_equiv_pos_as_xyz
 x,y,z
_cell_length_a 17.2796
_cell_length_b 15.6983
_cell_length_c 23.0941
_cell_angle_alpha 89.394900
_cell_angle_beta 89.804200
_cell_angle_gamma 90.385400
loop_
  _atom_site_label
  _atom_site_type_symbol
  _atom_site_fract_x
  _atom_site_fract_y
  _atom_site_fract_z
O1 O 0.14566 0.05495 0.06538
 O2 O -0.17296 -0.08312 0.01647
 O3 O -0.06067 0.15289 0.06198
 O4 O 0.04906 -0.14037 0.07334
 O5 O -0.11923 0.03497 0.07611
 O6 O 0.15462 -0.09684 0.03651
 O7 O -0.07818 -0.12170 0.06480
 O8 O 0.07757 0.16686 0.04107
 C9 C 0.12785 0.13091 0.07284
 C10 C -0.14817 -0.12898 0.05632
 C11 C -0.10227 0.10685 0.09394
 C12 C 0.11958 -0.13246 0.07681
 O13 O 0.14040 -0.05296 -0.07013
 O14 O -0.19404 0.07995 -0.01609
 O15 O 0.04182 0.14490 -0.07380
 O16 O -0.07190 -0.14250 -0.05445
 O17 O -0.11536 -0.01713 -0.07679
 O18 O 0.14944 0.09969 -0.04269
 O19 O 0.06907 -0.16313 -0.04419
 O20 O -0.08944 0.13491 -0.05407
 Co21 Co 0.13390 0.00136 -0.00223
 Co22 Co -0.11192 0.01166 -0.00046
 Co23 Co -0.00671 0.13719 -0.00499
 Co24 Co -0.00750 -0.13123 0.00872
 O25 O 0.00639 0.00064 0.00166
 C26 C 0.11980 -0.12855 -0.07709
 C27 C -0.16222 0.13931 -0.04814
 C28 C 0.11156 0.13378 -0.08216
 C29 C -0.10517 -0.09328 -0.09008
 O30 O 0.47119 0.35199 0.42656
 O31 O 0.53865 0.64714 0.42779
 O32 O 0.37515 0.54458 0.42997
 O33 O 0.63819 0.45038 0.43145
 O34 O 0.41017 0.66216 0.46487
 O35 O 0.60000 0.33350 0.46701
 O36 O 0.64722 0.59547 0.45423
 O37 O 0.36330 0.40088 0.45547
 C38 C 0.40226 0.36700 0.41638
 C39 C 0.60725 0.63300 0.41645
 C40 C 0.37757 0.62237 0.42541
 C41 C 0.63503 0.37247 0.42764
 O42 O 0.53993 0.35035 0.57364
 O43 O 0.46593 0.64198 0.57386
 O44 O 0.37405 0.44515 0.56982
 O45 O 0.63505 0.55053 0.57076
 O46 O 0.59535 0.66606 0.53516
 O47 O 0.41303 0.32914 0.53506
 O48 O 0.64810 0.40617 0.54820
 O49 O 0.35964 0.58871 0.54441
 Co50 Co 0.50584 0.35730 0.50033
 Co51 Co 0.50268 0.63833 0.50065
 Co52 Co 0.38051 0.49518 0.49995
 Co53 Co 0.62968 0.50039 0.50109
 O54 O 0.50477 0.49780 0.50051
 C55 C 0.60770 0.36810 0.58594
 C56 C 0.39706 0.62470 0.58353
 C57 C 0.37691 0.36727 0.57349
 C58 C 0.63044 0.62823 0.57465
 C59 C 0.24952 0.24793 0.21152
 C60 C 0.17318 0.27362 0.19988
 C61 C 0.13402 0.23907 0.15217
 C62 C 0.17034 0.17760 0.11779
 C63 C 0.24729 0.15402 0.12957
 C64 C 0.28720 0.18902 0.17620
 C65 C 0.28992 0.28101 0.26278
 C66 C 0.36584 0.25434 0.27466
 C67 C 0.40329 0.28419 0.32430
 C68 C 0.36463 0.33873 0.36253
 C69 C 0.28863 0.36513 0.34979
 C70 C 0.25108 0.33671 0.29982
 C71 C 0.36332 0.16440 0.18905
 C72 C 0.40215 0.19688 0.23733
 C73 C 0.13688 0.33094 0.23739
 C74 C 0.17503 0.36154 0.28670
 H75 H 0.39282 0.11894 0.16191
 H76 H 0.46060 0.17577 0.24602
 H77 H 0.07801 0.35103 0.22920
 H78 H 0.14437 0.40414 0.31520
 H79 H 0.07463 0.25665 0.14350
 H80 H 0.27563 0.10692 0.10296
 H81 H 0.46164 0.26343 0.33387
 H82 H 0.25844 0.40712 0.37901
 C83 C 0.73572 0.75366 0.19945
 C84 C 0.80922 0.72592 0.18262
 C85 C 0.84254 0.75940 0.13206
 C86 C 0.80455 0.82249 0.09899
 C87 C 0.72945 0.84762 0.11501
 C88 C 0.69473 0.81324 0.16562
 C89 C 0.70261 0.72227 0.25482
 C90 C 0.62954 0.75062 0.27233
 C91 C 0.59876 0.72117 0.32529
 C92 C 0.64117 0.66503 0.36120
 C93 C 0.71484 0.63823 0.34316
 C94 C 0.74559 0.66615 0.28984
 C95 C 0.62142 0.83967 0.18461
 C96 C 0.58920 0.80850 0.23679
 C97 C 0.84986 0.66849 0.21816
 C98 C 0.81878 0.63956 0.27103
 H99 H 0.58898 0.88551 0.15925
 H100 H 0.53270 0.83088 0.24984
 H101 H 0.90699 0.64720 0.20560
 H102 H 0.85274 0.59688 0.29773
 H103 H 0.90060 0.74008 0.12034
 H104 H 0.70048 0.89718 0.09050
 H105 H 0.54216 0.74260 0.33876
 H106 H 0.74790 0.59526 0.37034
 C107 C 0.72948 0.25700 0.80638
 C108 C 0.80415 0.28223 0.82259
 C109 C 0.83558 0.24942 0.87388
 C110 C 0.79432 0.18914 0.90802
 C111 C 0.71808 0.16722 0.89252
 C112 C 0.68541 0.20101 0.84150
 C113 C 0.69819 0.28694 0.75036
 C114 C 0.62400 0.26070 0.73365
 C115 C 0.59508 0.28779 0.67993
 C116 C 0.64012 0.33966 0.64235
 C117 C 0.71467 0.36527 0.65982
 C118 C 0.74384 0.33938 0.71395
 C119 C 0.61088 0.17717 0.82345
 C120 C 0.58057 0.20700 0.77069
 C121 C 0.84752 0.33636 0.78578
 C122 C 0.81803 0.36407 0.73226
 H123 H 0.57603 0.13431 0.84996
 H124 H 0.52307 0.18678 0.75840
 H125 H 0.90546 0.35594 0.79785
 H126 H 0.85400 0.40426 0.70469
 H127 H 0.89441 0.26672 0.88524
 H128 H 0.68615 0.12038 0.91800
 H129 H 0.53771 0.26776 0.66721
 H130 H 0.74976 0.40528 0.63147
 C131 C 0.24104 0.75006 0.78537
 C132 C 0.27743 0.81329 0.81811
 C133 C 0.23731 0.84960 0.86398
 C134 C 0.16103 0.82383 0.87761
 C135 C 0.12578 0.75827 0.84577
 C136 C 0.16557 0.72165 0.79886
 C137 C 0.28212 0.71486 0.73504
 C138 C 0.24508 0.65383 0.70069
 C139 C 0.28337 0.62344 0.65137
 C140 C 0.35816 0.65358 0.63678
 C141 C 0.39506 0.71305 0.67265
 C142 C 0.35704 0.74456 0.72144
 C143 C 0.13109 0.65897 0.76416
 C144 C 0.17012 0.62573 0.71589
 C145 C 0.35267 0.84064 0.80366
 C146 C 0.39197 0.80660 0.75620
 H147 H 0.07307 0.63631 0.77388
 H148 H 0.14106 0.57827 0.68990
 H149 H 0.38110 0.88948 0.82887
 H150 H 0.44968 0.82994 0.74613
 H151 H 0.26532 0.89935 0.88872
 H152 H 0.06710 0.73840 0.85597
 H153 H 0.25485 0.57705 0.62417
 H154 H 0.45253 0.73650 0.66178
 C155 C 0.21627 0.21887 0.76610
 C156 C 0.14350 0.25064 0.78167
 C157 C 0.10696 0.21880 0.83149
 C158 C 0.14561 0.16106 0.86860
 C159 C 0.21975 0.13148 0.85279
 C160 C 0.25380 0.15762 0.80039
 C161 C 0.25472 0.25189 0.71356
 C162 C 0.32577 0.21718 0.69619
 C163 C 0.36331 0.25103 0.64713
 C164 C 0.33251 0.32243 0.61854
 C165 C 0.26066 0.35534 0.63570
 C166 C 0.22066 0.31915 0.68254
 C167 C 0.32447 0.12367 0.78146
 C168 C 0.35895 0.15162 0.72946
 C169 C 0.10943 0.31509 0.74790
 C170 C 0.14812 0.34997 0.69970
 H171 H 0.35312 0.07486 0.80689
 H172 H 0.41290 0.12321 0.71593
 H173 H 0.05341 0.34033 0.75971
 H174 H 0.12111 0.40142 0.67571
 H175 H 0.05019 0.24279 0.84284
 H176 H 0.24960 0.08541 0.87984
 H177 H 0.41804 0.22504 0.63306
 H178 H 0.23635 0.40952 0.61281
 C179 C 0.79124 0.79610 0.76002
 C180 C 0.77354 0.88069 0.77392
 C181 C 0.81008 0.91864 0.82163
 C182 C 0.86317 0.87188 0.85548
 C183 C 0.88145 0.78792 0.83975
 C184 C 0.84556 0.74967 0.79234
 C185 C 0.75075 0.75446 0.71164
 C186 C 0.76730 0.66925 0.69901
 C187 C 0.72754 0.62911 0.65414
 C188 C 0.67178 0.67338 0.62141
 C189 C 0.65627 0.75928 0.63412
 C190 C 0.69541 0.80005 0.67964
 C191 C 0.86151 0.66502 0.77760
 C192 C 0.82294 0.62545 0.73177
 C193 C 0.71828 0.92460 0.74066
 C194 C 0.68000 0.88503 0.69431
 H195 H 0.90351 0.62870 0.80215
 H196 H 0.83639 0.55983 0.72216
 H197 H 0.70397 0.98987 0.75085
 H198 H 0.63749 0.92106 0.67010
 H199 H 0.79528 0.98316 0.83354
 H200 H 0.92204 0.75133 0.86542
 H201 H 0.74030 0.56325 0.64457
 H202 H 0.61321 0.79366 0.60932
 C203 C 0.23003 0.76668 0.22641
 C204 C 0.16540 0.72446 0.20325
 C205 C 0.13032 0.75766 0.15370
 C206 C 0.16041 0.83125 0.12661
 C207 C 0.22606 0.87225 0.14940
 C208 C 0.26059 0.84074 0.20009
 C209 C 0.26613 0.73267 0.27927
 C210 C 0.32962 0.77569 0.30358
 C211 C 0.36423 0.74198 0.35367
 C212 C 0.33709 0.66455 0.37751
 C213 C 0.27279 0.62326 0.35309
 C214 C 0.23666 0.65730 0.30431
 C215 C 0.32418 0.88213 0.22551
 C216 C 0.35781 0.85044 0.27664
 C217 C 0.13675 0.65015 0.23021
 C218 C 0.17217 0.61679 0.27980
 H219 H 0.34790 0.93968 0.20589
 H220 H 0.40660 0.88431 0.29495
 H221 H 0.08685 0.61730 0.21266
 H222 H 0.14877 0.55903 0.29920
 H223 H 0.07966 0.72622 0.13604
 H224 H 0.24838 0.92983 0.12885
 H225 H 0.41352 0.77393 0.37280
 H226 H 0.25110 0.56426 0.37201
 C227 C 0.79884 0.20896 0.24216
 C228 C 0.78028 0.12490 0.22702
 C229 C 0.81659 0.08850 0.17863
 C230 C 0.86996 0.13659 0.14464
 C231 C 0.88960 0.21993 0.16245
 C232 C 0.85409 0.25631 0.21065
 C233 C 0.75806 0.24926 0.29092
 C234 C 0.77541 0.33412 0.30471
 C235 C 0.73494 0.37328 0.34961
 C236 C 0.67766 0.32836 0.38116
 C237 C 0.66162 0.24268 0.36751
 C238 C 0.70145 0.20293 0.32196
 C239 C 0.87113 0.34037 0.22674
 C240 C 0.83239 0.37862 0.27296
 C241 C 0.72403 0.08003 0.25957
 C242 C 0.68536 0.11833 0.30621
 H243 H 0.91397 0.37738 0.20285
 H244 H 0.84664 0.44384 0.28355
 H245 H 0.70904 0.01508 0.24845
 H246 H 0.64192 0.08170 0.32971
 H247 H 0.80067 0.02426 0.16625
 H248 H 0.93060 0.25828 0.13766
 H249 H 0.74820 0.43888 0.36005
 H250 H 0.61741 0.20779 0.39148
   
