data_POSCAR
  _audit_creation_date              2014-09-24
  _audit_creation_method            'ToBaCCo'
  _symmetry_space_group_name_H-M    'P1'
  _symmetry_Int_Tables_number       1
  _symmetry_cell_setting            triclinic
  loop_
  _symmetry_equiv_pos_as_xyz
 x,y,z
_cell_length_a 31.5645
_cell_length_b 31.1154
_cell_length_c 37.0747
_cell_angle_alpha 90.175000
_cell_angle_beta 89.475300
_cell_angle_gamma 89.919600
loop_
  _atom_site_label
  _atom_site_type_symbol
  _atom_site_fract_x
  _atom_site_fract_y
  _atom_site_fract_z
Zr1 Zr 0.25558 0.24245 0.31498
 O2 O 0.29285 0.27049 0.35600
 O3 O 0.21900 0.19886 0.34457
 O4 O 0.21735 0.27680 0.35235
 O5 O 0.33036 0.16835 0.28553
 O6 O 0.18111 0.32478 0.31771
 O7 O 0.30066 0.19917 0.33580
 O8 O 0.17288 0.17265 0.30293
 O9 O 0.19634 0.24894 0.29070
 O10 O 0.25031 0.19108 0.27870
 O11 O 0.25603 0.30350 0.29097
 O12 O 0.30809 0.24740 0.27962
 Zr13 Zr 0.24243 0.26367 0.19133
 Zr14 Zr 0.19802 0.30830 0.26427
 Zr15 Zr 0.29998 0.19774 0.24165
 Zr16 Zr 0.19252 0.19892 0.25326
 O17 O 0.36648 0.20095 0.23439
 O18 O 0.12665 0.21074 0.25937
 O19 O 0.24190 0.20197 0.21481
 O20 O 0.19055 0.25814 0.22700
 O21 O 0.24780 0.31555 0.22719
 O22 O 0.30128 0.25728 0.21620
 C23 C 0.18718 0.17591 0.33521
 C24 C 0.32669 0.17316 0.31992
 C25 C 0.19116 0.30820 0.34826
 O26 O 0.13129 0.30487 0.26915
 O27 O 0.17094 0.34075 0.22021
 O28 O 0.19860 0.30781 0.17013
 C29 C 0.17395 0.33518 0.18585
 O30 O 0.34041 0.32110 0.30073
 Zr31 Zr 0.30550 0.30703 0.25339
 O32 O 0.27736 0.30959 0.16264
 O33 O 0.20625 0.37514 0.27206
 O34 O 0.29786 0.37385 0.26290
 O35 O 0.37130 0.29865 0.24351
 O36 O 0.32070 0.33877 0.20510
 C37 C 0.30669 0.33538 0.17277
 O38 O 0.20449 0.23580 0.15067
 O39 O 0.29184 0.13059 0.23593
 O40 O 0.27940 0.22903 0.15350
 O41 O 0.31416 0.17954 0.18775
 O42 O 0.19811 0.13119 0.24852
 O43 O 0.16284 0.17817 0.20502
 C44 C 0.30478 0.19696 0.15729
 H45 H 0.25167 0.16268 0.29061
 H46 H 0.16325 0.26024 0.21420
 H47 H 0.32560 0.25892 0.19922
 H48 H 0.25945 0.32649 0.30923
 H49 H 0.11270 0.18276 0.26406
 H50 H 0.12113 0.33454 0.27380
 H51 H 0.17758 0.38768 0.27529
 H52 H 0.32464 0.38809 0.25558
 H53 H 0.17051 0.11863 0.25581
 H54 H 0.32049 0.11813 0.23246
 H55 H 0.37633 0.17128 0.22926
 H56 H 0.38387 0.32759 0.24033
 H57 H 0.13956 0.15806 0.21101
 H58 H 0.21208 0.24990 0.12752
 H59 H 0.28482 0.25640 0.37904
 H60 H 0.35851 0.34657 0.29643
 Zr61 Zr 0.76258 0.75203 0.31108
 O62 O 0.74047 0.71782 0.35686
 O63 O 0.80706 0.79408 0.33393
 O64 O 0.80859 0.71137 0.33388
 O65 O 0.67473 0.81867 0.31215
 O66 O 0.83909 0.67841 0.28498
 O67 O 0.72723 0.79092 0.34710
 O68 O 0.83254 0.83280 0.28631
 O69 O 0.81143 0.75509 0.27249
 O70 O 0.75203 0.80803 0.28151
 O71 O 0.75717 0.69535 0.28034
 O72 O 0.70064 0.74603 0.29063
 Zr73 Zr 0.73395 0.74930 0.18778
 Zr74 Zr 0.80421 0.70020 0.24027
 Zr75 Zr 0.69221 0.80102 0.25897
 Zr76 Zr 0.79882 0.80974 0.24170
 O77 O 0.62646 0.79129 0.26707
 O78 O 0.86431 0.80336 0.22951
 O79 O 0.73868 0.80650 0.21824
 O80 O 0.79531 0.75527 0.20886
 O81 O 0.74438 0.69288 0.21698
 O82 O 0.68557 0.74645 0.22667
 C83 C 0.83098 0.82327 0.31994
 C84 C 0.69329 0.81317 0.34262
 C85 C 0.83511 0.68502 0.31916
 O86 O 0.86932 0.71027 0.22926
 O87 O 0.81890 0.67806 0.18770
 O88 O 0.76786 0.70808 0.15243
 C89 C 0.80052 0.68396 0.15722
 O90 O 0.68138 0.66653 0.30856
 Zr91 Zr 0.69736 0.69170 0.25696
 O92 O 0.69074 0.70650 0.16419
 O93 O 0.80328 0.63223 0.24082
 O94 O 0.71137 0.62501 0.25598
 O95 O 0.63091 0.69634 0.26514
 O96 O 0.66866 0.66480 0.21123
 C97 C 0.66966 0.67487 0.17768
 O98 O 0.75716 0.78173 0.14149
 O99 O 0.69313 0.86896 0.26163
 O100 O 0.69004 0.79282 0.16529
 O101 O 0.66060 0.82666 0.21428
 O102 O 0.78771 0.87682 0.24595
 O103 O 0.80823 0.83959 0.19076
 C104 C 0.66466 0.82029 0.18014
 H105 H 0.75311 0.83447 0.29639
 H106 H 0.81680 0.75754 0.18934
 H107 H 0.65699 0.74560 0.21592
 H108 H 0.76097 0.66936 0.29529
 H109 H 0.87758 0.83186 0.23321
 H110 H 0.88273 0.68149 0.22788
 H111 H 0.83265 0.62256 0.23570
 H112 H 0.68413 0.60932 0.25446
 H113 H 0.81567 0.89129 0.24614
 H114 H 0.66381 0.87831 0.26736
 H115 H 0.61328 0.82014 0.26892
 H116 H 0.61880 0.66736 0.26113
 H117 H 0.83266 0.85943 0.19209
 H118 H 0.74172 0.77026 0.12034
 H119 H 0.75526 0.72943 0.37831
 H120 H 0.66168 0.64204 0.30571
 Zr121 Zr 0.74598 0.23871 -0.31292
 O122 O 0.71112 0.26915 -0.35420
 O123 O 0.78023 0.19223 -0.34213
 O124 O 0.78651 0.27045 -0.34996
 O125 O 0.66683 0.16986 -0.28399
 O126 O 0.82480 0.31664 -0.31507
 O127 O 0.69764 0.19910 -0.33423
 O128 O 0.82473 0.16416 -0.30014
 O129 O 0.80536 0.24216 -0.28833
 O130 O 0.74873 0.18721 -0.27681
 O131 O 0.74845 0.29970 -0.28834
 O132 O 0.69389 0.24679 -0.27740
 Zr133 Zr 0.76047 0.25928 -0.18890
 Zr134 Zr 0.80665 0.30160 -0.26168
 Zr135 Zr 0.69948 0.19661 -0.23992
 Zr136 Zr 0.80674 0.19215 -0.25097
 O137 O 0.63341 0.20359 -0.23159
 O138 O 0.87307 0.20032 -0.25749
 O139 O 0.75757 0.19775 -0.21280
 O140 O 0.81192 0.25122 -0.22459
 O141 O 0.75743 0.31150 -0.22437
 O142 O 0.70128 0.25584 -0.21375
 C143 C 0.81067 0.16751 -0.33239
 C144 C 0.67010 0.17482 -0.31840
 C145 C 0.81429 0.30032 -0.34567
 O146 O 0.87318 0.29476 -0.26617
 O147 O 0.83480 0.33318 -0.21748
 O148 O 0.80568 0.30197 -0.16741
 C149 C 0.83132 0.32830 -0.18307
 O150 O 0.66568 0.32383 -0.29752
 Zr151 Zr 0.69935 0.30601 -0.25046
 O152 O 0.72713 0.30563 -0.15928
 O153 O 0.80161 0.36867 -0.26984
 O154 O 0.71081 0.37248 -0.25818
 O155 O 0.63309 0.30045 -0.24169
 O156 O 0.68449 0.33672 -0.20123
 C157 C 0.69807 0.33195 -0.16884
 O158 O 0.79802 0.22991 -0.14881
 O159 O 0.70364 0.12894 -0.23561
 O160 O 0.72292 0.22524 -0.15140
 O161 O 0.68600 0.17788 -0.18631
 O162 O 0.79769 0.12490 -0.24590
 O163 O 0.83547 0.17026 -0.20274
 C164 C 0.69671 0.19402 -0.15563
 H165 H 0.74567 0.15892 -0.28879
 H166 H 0.83929 0.25206 -0.21177
 H167 H 0.67712 0.25819 -0.19666
 H168 H 0.74623 0.32288 -0.30646
 H169 H 0.88566 0.17155 -0.26186
 H170 H 0.88475 0.32386 -0.27070
 H171 H 0.83086 0.37974 -0.27274
 H172 H 0.68499 0.38812 -0.25022
 H173 H 0.82465 0.11068 -0.25298
 H174 H 0.67436 0.11824 -0.23195
 H175 H 0.62210 0.17447 -0.22671
 H176 H 0.62173 0.32980 -0.23763
 H177 H 0.85790 0.14908 -0.20875
 H178 H 0.79093 0.24396 -0.12545
 H179 H 0.71842 0.25442 -0.37722
 H180 H 0.64903 0.35021 -0.29255
 Zr181 Zr 0.23450 0.75290 -0.30717
 O182 O 0.25972 0.71425 -0.34935
 O183 O 0.19293 0.79432 -0.33478
 O184 O 0.18823 0.71345 -0.33105
 O185 O 0.32711 0.81135 -0.30722
 O186 O 0.15047 0.68860 -0.28270
 O187 O 0.27275 0.78893 -0.34257
 O188 O 0.16768 0.83940 -0.29110
 O189 O 0.18307 0.76269 -0.27220
 O190 O 0.24635 0.81056 -0.28017
 O191 O 0.23404 0.69870 -0.27320
 O192 O 0.29382 0.74366 -0.28214
 Zr193 Zr 0.25115 0.75990 -0.18208
 Zr194 Zr 0.18403 0.71025 -0.23723
 Zr195 Zr 0.30356 0.80099 -0.25380
 Zr196 Zr 0.19666 0.81900 -0.24362
 O197 O 0.36890 0.78592 -0.25697
 O198 O 0.13014 0.81907 -0.23493
 O199 O 0.25428 0.81395 -0.21639
 O200 O 0.19281 0.76734 -0.20810
 O201 O 0.24018 0.70134 -0.20843
 O202 O 0.30273 0.74981 -0.21733
 C203 C 0.16971 0.82606 -0.32388
 C204 C 0.30866 0.80762 -0.33810
 C205 C 0.15792 0.69150 -0.31678
 O206 O 0.11926 0.72522 -0.22888
 O207 O 0.16649 0.69007 -0.18558
 O208 O 0.20853 0.72684 -0.14668
 C209 C 0.17835 0.69992 -0.15349
 O210 O 0.31007 0.65928 -0.29175
 Zr211 Zr 0.29063 0.69290 -0.24441
 O212 O 0.28800 0.71743 -0.15205
 O213 O 0.17961 0.64237 -0.23690
 O214 O 0.27071 0.62814 -0.23919
 O215 O 0.35768 0.69260 -0.24876
 O216 O 0.31384 0.67029 -0.19413
 C217 C 0.30965 0.68422 -0.16140
 O218 O 0.22705 0.80000 -0.14044
 O219 O 0.30796 0.86836 -0.26038
 O220 O 0.29780 0.80066 -0.15971
 O221 O 0.33367 0.82741 -0.20868
 O222 O 0.21221 0.88463 -0.25147
 O223 O 0.18619 0.85383 -0.19495
 C224 C 0.32703 0.82383 -0.17455
 H225 H 0.24798 0.83581 -0.29628
 H226 H 0.16954 0.77245 -0.19052
 H227 H 0.33012 0.74786 -0.20466
 H228 H 0.22970 0.67186 -0.28707
 H229 H 0.11959 0.84828 -0.24057
 H230 H 0.10398 0.69750 -0.22718
 H231 H 0.14943 0.63512 -0.23250
 H232 H 0.29595 0.61077 -0.23303
 H233 H 0.18527 0.90072 -0.25388
 H234 H 0.33823 0.87481 -0.26509
 H235 H 0.38421 0.81346 -0.26013
 H236 H 0.36771 0.66409 -0.24056
 H237 H 0.16365 0.87548 -0.19865
 H238 H 0.23926 0.78969 -0.11745
 H239 H 0.24729 0.72449 -0.37228
 H240 H 0.32709 0.63387 -0.28492
 Zr241 Zr 1.26567 1.24994 0.80794
 O242 O 1.24053 1.20944 0.84866
 O243 O 1.30624 1.29087 0.83705
 O244 O 1.31179 1.20948 0.83069
 O245 O 1.17600 1.31436 0.80885
 O246 O 1.34807 1.18355 0.78165
 O247 O 1.22626 1.28389 0.84454
 O248 O 1.33524 1.33416 0.79380
 O249 O 1.31738 1.25990 0.77310
 O250 O 1.25493 1.30860 0.78238
 O251 O 1.26614 1.19695 0.77230
 O252 O 1.20629 1.24292 0.78268
 Zr253 Zr 1.24875 1.26109 0.68327
 Zr254 Zr 1.31634 1.20881 0.73638
 Zr255 Zr 1.19765 1.30125 0.75564
 Zr256 Zr 1.30468 1.31731 0.74606
 O257 O 1.13249 1.28619 0.76025
 O258 O 1.37101 1.31664 0.73624
 O259 O 1.24698 1.31434 0.71864
 O260 O 1.30746 1.26698 0.70904
 O261 O 1.25964 1.20165 0.70793
 O262 O 1.19734 1.25077 0.71830
 C263 C 1.33116 1.32119 0.82638
 C264 C 1.19261 1.30658 0.83982
 C265 C 1.34097 1.18628 0.81589
 O266 O 1.38159 1.22323 0.73119
 O267 O 1.33720 1.19420 0.68356
 O268 O 1.28929 1.22736 0.64707
 C269 C 1.32255 1.20408 0.65232
 O270 O 1.18934 1.16006 0.79133
 Zr271 Zr 1.20925 1.19299 0.74398
 O272 O 1.21113 1.22010 0.65236
 O273 O 1.31915 1.14114 0.73124
 O274 O 1.22774 1.12774 0.73832
 O275 O 1.14213 1.19268 0.74719
 O276 O 1.18717 1.17104 0.69331
 C277 C 1.19072 1.18595 0.66097
 O278 O 1.27369 1.30169 0.64257
 O279 O 1.19428 1.36877 0.76215
 O280 O 1.20283 1.30327 0.66176
 O281 O 1.16711 1.32876 0.71136
 O282 O 1.29049 1.38279 0.75681
 O283 O 1.31499 1.35423 0.69866
 C284 C 1.17381 1.32630 0.67719
 H285 H 1.25370 1.33331 0.79924
 H286 H 1.33053 1.27281 0.69148
 H287 H 1.16989 1.24945 0.70565
 H288 H 1.27003 1.16955 0.78535
 H289 H 1.38214 1.34534 0.74286
 H290 H 1.39663 1.19543 0.72834
 H291 H 1.34939 1.13359 0.72754
 H292 H 1.20204 1.11099 0.73238
 H293 H 1.31778 1.39806 0.75979
 H294 H 1.16410 1.37597 0.76669
 H295 H 1.11718 1.31384 0.76306
 H296 H 1.13245 1.16398 0.73907
 H297 H 1.33751 1.37567 0.70306
 H298 H 1.26132 1.29229 0.61934
 H299 H 1.25271 1.21878 0.87200
 H300 H 1.17195 1.13488 0.78454
 Zr301 Zr 0.75488 0.73893 0.81424
 O302 O 0.79089 0.76794 0.85563
 O303 O 0.72062 0.69257 0.84323
 O304 O 0.71581 0.77169 0.85211
 O305 O 0.83276 0.66887 0.78374
 O306 O 0.67805 0.81899 0.81805
 O307 O 0.80263 0.69822 0.83444
 O308 O 0.67586 0.66454 0.80134
 O309 O 0.69517 0.74349 0.79048
 O310 O 0.75116 0.68784 0.77752
 O311 O 0.75317 0.80013 0.79044
 O312 O 0.80671 0.74633 0.77835
 Zr313 Zr 0.73938 0.76076 0.69074
 Zr314 Zr 0.69465 0.80318 0.76445
 Zr315 Zr 0.80010 0.69666 0.74023
 Zr316 Zr 0.69281 0.69384 0.75249
 O317 O 0.86619 0.70263 0.73162
 O318 O 0.62682 0.70331 0.76044
 O319 O 0.74159 0.69896 0.71383
 O320 O 0.68824 0.75324 0.72683
 O321 O 0.74353 0.81252 0.72683
 O322 O 0.79886 0.75624 0.71487
 C323 C 0.69049 0.66748 0.83346
 C324 C 0.82969 0.67365 0.81820
 C325 C 0.68890 0.80255 0.84842
 O326 O 0.62814 0.79732 0.76983
 O327 O 0.66630 0.83557 0.72106
 O328 O 0.69442 0.80429 0.67041
 C329 C 0.66932 0.83083 0.68663
 O330 O 0.83690 0.82174 0.79912
 Zr331 Zr 0.80188 0.80591 0.75223
 O332 O 0.77244 0.80737 0.66150
 O333 O 0.70070 0.87019 0.77283
 O334 O 0.79187 0.87240 0.76173
 O335 O 0.86781 0.79951 0.74196
 O336 O 0.81542 0.83793 0.70355
 C337 C 0.80120 0.83393 0.67128
 O338 O 0.70113 0.73225 0.65060
 O339 O 0.79492 0.62914 0.73497
 O340 O 0.77627 0.72697 0.65236
 O341 O 0.81303 0.67852 0.68616
 O342 O 0.70080 0.62658 0.74584
 O343 O 0.66256 0.67333 0.70443
 C344 C 0.80230 0.69540 0.65583
 H345 H 0.75404 0.65934 0.78904
 H346 H 0.66070 0.75466 0.71432
 H347 H 0.82277 0.75862 0.69753
 H348 H 0.75610 0.82310 0.80879
 H349 H 0.61387 0.67476 0.76472
 H350 H 0.61702 0.82656 0.77478
 H351 H 0.67166 0.88177 0.77626
 H352 H 0.81788 0.88766 0.75387
 H353 H 0.67374 0.61264 0.75286
 H354 H 0.82402 0.61799 0.73099
 H355 H 0.87707 0.67339 0.72626
 H356 H 0.87937 0.82878 0.73819
 H357 H 0.63961 0.65287 0.71053
 H358 H 0.70791 0.74666 0.62741
 H359 H 0.78360 0.75309 0.87851
 H360 H 0.85418 0.84770 0.79441
 Zr361 Zr 1.26145 0.75886 0.18581
 O362 O 1.23153 0.79770 0.14672
 O363 O 1.30766 0.72687 0.15512
 O364 O 1.30284 0.80551 0.16453
 O365 O 1.18187 0.68263 0.18325
 O366 O 1.33395 0.83417 0.21452
 O367 O 1.22771 0.72138 0.14818
 O368 O 1.34104 0.68484 0.19645
 O369 O 1.31334 0.75540 0.22060
 O370 O 1.25921 0.69806 0.20962
 O371 O 1.25369 0.81004 0.22248
 O372 O 1.20124 0.75503 0.21066
 Zr373 Zr 1.24334 0.74082 0.30979
 Zr374 Zr 1.30393 0.80419 0.25879
 Zr375 Zr 1.20115 0.69522 0.23666
 Zr376 Zr 1.30905 0.69567 0.24573
 O377 O 1.13435 0.69868 0.23309
 O378 O 1.37441 0.70686 0.25453
 O379 O 1.25107 0.68891 0.27344
 O380 O 1.30304 0.74434 0.28441
 O381 O 1.24576 0.80191 0.28639
 O382 O 1.19213 0.74414 0.27441
 C383 C 1.33593 0.69943 0.16432
 C384 C 1.19714 0.69443 0.15248
 C385 C 1.32872 0.83131 0.18019
 O386 O 1.37030 0.79947 0.26529
 O387 O 1.32032 0.82064 0.31217
 O388 O 1.27558 0.78043 0.34711
 C389 C 1.30506 0.80869 0.34289
 O390 O 1.17382 0.83509 0.20260
 Zr391 Zr 1.19591 0.80384 0.24976
 O392 O 1.19797 0.77426 0.34048
 O393 O 1.29663 0.87143 0.26466
 O394 O 1.20383 0.87081 0.25804
 O395 O 1.12970 0.79429 0.24471
 O396 O 1.16767 0.81928 0.29964
 C397 C 1.17200 0.80414 0.33162
 O398 O 1.27365 0.70355 0.34971
 O399 O 1.20899 0.62848 0.22770
 O400 O 1.20341 0.69239 0.33076
 O401 O 1.17495 0.66132 0.28058
 O402 O 1.30466 0.62903 0.23418
 O403 O 1.32585 0.65917 0.29182
 C404 C 1.17936 0.66481 0.31495
 H405 H 1.26185 0.67426 0.19197
 H406 H 1.32613 0.74160 0.30215
 H407 H 1.16433 0.74059 0.28659
 H408 H 1.25412 0.83818 0.21009
 H409 H 1.39002 0.68098 0.24617
 H410 H 1.38103 0.82914 0.26853
 H411 H 1.32530 0.88328 0.26882
 H412 H 1.17549 0.88317 0.26337
 H413 H 1.33382 0.61830 0.22967
 H414 H 1.18042 0.61669 0.22298
 H415 H 1.12410 0.66894 0.22922
 H416 H 1.11541 0.82119 0.25250
 H417 H 1.35157 0.64201 0.28636
 H418 H 1.25955 0.71022 0.37310
 H419 H 1.24525 0.79139 0.12309
 H420 H 1.15315 0.85770 0.20948
 Zr421 Zr 0.73646 1.25272 0.19197
 O422 O 0.75773 1.21778 0.14609
 O423 O 0.69410 1.29686 0.16895
 O424 O 0.68889 1.21463 0.16846
 O425 O 0.82695 1.31584 0.19250
 O426 O 0.65593 1.18326 0.21678
 O427 O 0.77402 1.29038 0.15676
 O428 O 0.67021 1.33717 0.21647
 O429 O 0.68728 1.25794 0.23015
 O430 O 0.74920 1.30786 0.22220
 O431 O 0.73861 1.19556 0.22222
 O432 O 0.79773 1.24319 0.21291
 Zr433 Zr 0.76334 1.24707 0.31554
 Zr434 Zr 0.69137 1.20252 0.26200
 Zr435 Zr 0.80831 1.29746 0.24522
 Zr436 Zr 0.70198 1.31170 0.26151
 O437 O 0.87347 1.28425 0.23693
 O438 O 0.63606 1.30853 0.27271
 O439 O 0.76160 1.30481 0.28563
 O440 O 0.70263 1.25680 0.29398
 O441 O 0.75051 1.19154 0.28569
 O442 O 0.81188 1.24224 0.27688
 C443 C 0.67147 1.32731 0.18274
 C444 C 0.80852 1.31158 0.16179
 C445 C 0.66083 1.18978 0.18271
 O446 O 0.62680 1.21612 0.27279
 O447 O 0.67479 1.18038 0.31416
 O448 O 0.72721 1.20679 0.34998
 C449 C 0.69337 1.18451 0.34479
 O450 O 0.81287 1.16252 0.19431
 Zr451 Zr 0.79787 1.18837 0.24603
 O452 O 0.80538 1.20262 0.33888
 O453 O 0.68881 1.13461 0.26041
 O454 O 0.78035 1.12258 0.24655
 O455 O 0.86449 1.18936 0.23804
 O456 O 0.82541 1.15984 0.29164
 C457 C 0.82550 1.17025 0.32520
 O458 O 0.74098 1.28001 0.36206
 O459 O 0.81064 1.36542 0.24415
 O460 O 0.80896 1.28792 0.33890
 O461 O 0.84089 1.32037 0.29057
 O462 O 0.71667 1.37809 0.25838
 O463 O 0.69284 1.34165 0.31260
 C464 C 0.83607 1.31386 0.32459
 H465 H 0.74952 1.33448 0.20765
 H466 H 0.68107 1.25996 0.31338
 H467 H 0.84035 1.23984 0.28768
 H468 H 0.73370 1.16992 0.20697
 H469 H 0.62417 1.33766 0.26895
 H470 H 0.61184 1.18814 0.27347
 H471 H 0.65894 1.12651 0.26520
 H472 H 0.80670 1.10537 0.24817
 H473 H 0.68952 1.39409 0.25761
 H474 H 0.84043 1.37338 0.23883
 H475 H 0.88814 1.31236 0.23593
 H476 H 0.87509 1.15970 0.24167
 H477 H 0.66945 1.36278 0.31105
 H478 H 0.75560 1.26748 0.38317
 H479 H 0.74376 1.23027 0.12464
 H480 H 0.83098 1.13676 0.19708
 O481 O 0.55571 1.08319 0.06605
 O482 O 0.60564 1.04385 0.03484
 C483 C 0.59455 1.07264 0.05879
 O484 O 0.44046 0.92769 0.06202
 O485 O 0.39359 0.96688 0.02832
 C486 C 0.40241 0.93803 0.05250
 O487 O 0.55700 0.93148 0.06830
 O488 O 0.60662 0.96939 0.03584
 C489 C 0.59585 0.94145 0.06032
 O490 O 0.43877 1.08540 0.06059
 O491 O 0.39322 1.04235 0.02881
 C492 C 0.40099 1.07248 0.05215
 Zr493 Zr 0.49868 1.06052 0.04485
 O494 O 0.49558 1.05574 0.10168
 O495 O 0.49658 1.12854 0.04670
 Zr496 Zr 0.49936 0.95328 0.04707
 O497 O 0.49598 0.96323 0.10345
 O498 O 0.49948 0.88588 0.05437
 O499 O 0.53704 1.00715 0.05407
 O500 O 0.46128 1.00682 0.05151
 O501 O 0.44684 1.08244 -0.06531
 O502 O 0.39694 1.04408 -0.03354
 C503 C 0.40797 1.07271 -0.05749
 O504 O 0.56313 0.92712 -0.06175
 O505 O 0.60922 0.96828 -0.02869
 C506 C 0.60101 0.93908 -0.05285
 O507 O 0.44532 0.92447 -0.06149
 O508 O 0.39631 0.96646 -0.03183
 C509 C 0.40661 0.93561 -0.05381
 O510 O 0.56379 1.07779 -0.06520
 O511 O 0.60939 1.03894 -0.03000
 C512 C 0.60149 1.06586 -0.05574
 Zr513 Zr 0.50390 1.05785 -0.04561
 O514 O 0.50212 1.05602 -0.10267
 O515 O 0.50801 1.12576 -0.04585
 Zr516 Zr 0.50348 0.94979 -0.04364
 O517 O 0.50159 0.94933 -0.10074
 O518 O 0.50712 0.88186 -0.04256
 Zr519 Zr 0.56531 1.00503 0.00233
 Zr520 Zr 0.43742 1.00527 -0.00122
 O521 O 0.46683 1.00372 -0.05237
 O522 O 0.54190 1.00344 -0.05076
 O523 O 0.46325 1.06771 -0.00169
 O524 O 0.53840 0.94330 0.00282
 O525 O 0.53862 1.06697 0.00050
 O526 O 0.46368 0.94293 0.00090
 H527 H 0.44132 1.00693 0.07230
 H528 H 0.55737 0.91795 0.00359
 H529 H 0.44874 1.00311 -0.07407
 H530 H 0.55801 1.09195 0.00005
 H531 H 0.50981 0.87288 0.03160
 H532 H 0.48440 0.87154 -0.02619
 H533 H 0.52721 0.96427 -0.10974
 H534 H 0.52573 1.03753 -0.11110
 H535 H 0.48591 1.13680 -0.02911
 H536 H 0.51733 1.13967 0.02894
 H537 H 0.49361 1.08559 0.11095
 H538 H 0.49403 0.93429 0.11439
 O539 O 1.05067 0.58308 0.56735
 O540 O 1.10154 0.54586 0.53542
 C541 C 1.08980 0.57390 0.55972
 O542 O 0.93943 0.42317 0.56159
 O543 O 0.89200 0.46369 0.52949
 C544 C 0.90114 0.43387 0.55269
 O545 O 1.05671 0.43120 0.56750
 O546 O 1.10467 0.47124 0.53505
 C547 C 1.09512 0.44267 0.55922
 O548 O 0.93367 0.58213 0.56106
 O549 O 0.88922 0.53838 0.52878
 C550 C 0.89625 0.56863 0.55220
 Zr551 Zr 0.99419 0.55860 0.54601
 O552 O 0.99102 0.55181 0.60269
 O553 O 0.99074 0.62640 0.55014
 Zr554 Zr 0.99796 0.45132 0.54682
 O555 O 0.99424 0.45992 0.60332
 O556 O 1.00003 0.38376 0.55291
 O557 O 1.03413 0.50632 0.55446
 O558 O 0.95833 0.50372 0.55189
 O559 O 0.94136 0.58077 0.43618
 O560 O 0.89265 0.54012 0.46720
 C561 C 0.90283 0.56970 0.44381
 O562 O 1.06272 0.42964 0.43760
 O563 O 1.10739 0.47203 0.47092
 C564 C 1.10015 0.44286 0.44652
 O565 O 0.94555 0.42257 0.43787
 O566 O 0.89485 0.46185 0.46810
 C567 C 0.90645 0.43183 0.44563
 O568 O 1.05825 0.57910 0.43555
 O569 O 1.10534 0.54424 0.47215
 C570 C 1.09642 0.57016 0.44589
 Zr571 Zr 0.99914 0.55768 0.45537
 O572 O 0.99691 0.55713 0.39830
 O573 O 1.00135 0.62569 0.45578
 Zr574 Zr 1.00243 0.44992 0.45599
 O575 O 1.00037 0.45063 0.39889
 O576 O 1.00845 0.38215 0.45609
 Zr577 Zr 1.06234 0.50648 0.50260
 Zr578 Zr 0.93452 0.50229 0.49909
 O579 O 0.96384 0.50254 0.44792
 O580 O 1.03909 0.50491 0.44949
 O581 O 0.95852 0.56550 0.49950
 O582 O 1.03744 0.44380 0.50238
 O583 O 1.03346 0.56741 0.50162
 O584 O 0.96271 0.44079 0.50041
 H585 H 0.93829 0.50319 0.57262
 H586 H 1.05724 0.41908 0.50264
 H587 H 0.94571 0.50166 0.42625
 H588 H 1.05178 0.59322 0.50155
 H589 H 1.01311 0.37174 0.53078
 H590 H 0.98685 0.37080 0.47306
 H591 H 1.02583 0.46596 0.39002
 H592 H 1.02052 0.53890 0.38944
 H593 H 0.97835 0.63591 0.47200
 H594 H 1.00720 0.63862 0.52984
 H595 H 0.98790 0.58126 0.61260
 H596 H 0.99371 0.43067 0.61379
 O597 O 0.92851 0.44142 -0.06489
 O598 O 0.96471 0.39297 -0.03012
 C599 C 0.93820 0.40253 -0.05567
 O600 O 1.07942 0.55867 -0.06396
 O601 O 1.04199 0.60861 -0.03097
 C602 C 1.07020 0.59805 -0.05539
 O603 O 1.07554 0.43999 -0.06609
 O604 O 1.03628 0.39262 -0.03215
 C605 C 1.06351 0.40140 -0.05765
 O606 O 0.92538 0.55996 -0.06290
 O607 O 0.96454 0.60915 -0.03118
 C608 C 0.93581 0.59906 -0.05469
 Zr609 Zr 0.94940 0.50081 -0.04486
 O610 O 0.95525 0.50068 -0.10171
 O611 O 0.88236 0.50290 -0.04734
 Zr612 Zr 1.05567 0.49997 -0.04490
 O613 O 1.05689 0.50255 -0.10194
 O614 O 1.12257 0.49491 -0.04329
 O615 O 1.00231 0.46167 -0.05144
 O616 O 1.00270 0.53816 -0.05203
 O617 O 0.92295 0.56191 0.06208
 O618 O 0.96457 0.60972 0.03069
 C619 C 0.93454 0.60062 0.05375
 O620 O 1.07448 0.44382 0.06740
 O621 O 1.03848 0.39409 0.03361
 C622 C 1.06482 0.40463 0.05900
 O623 O 1.07845 0.56280 0.06266
 O624 O 1.03760 0.61028 0.03076
 C625 C 1.06661 0.60145 0.05423
 O626 O 0.92721 0.44310 0.06741
 O627 O 0.96705 0.39419 0.03525
 C628 C 0.93930 0.40413 0.06005
 Zr629 Zr 0.94816 0.50221 0.04554
 O630 O 0.94752 0.50826 0.10246
 O631 O 0.88123 0.49825 0.04446
 Zr632 Zr 1.05500 0.50248 0.04533
 O633 O 1.05657 0.50838 0.10219
 O634 O 1.12191 0.49732 0.04310
 Zr635 Zr 1.00184 0.43624 0.00119
 Zr636 Zr 1.00221 0.56636 -0.00043
 O637 O 1.00143 0.53982 0.05177
 O638 O 1.00157 0.46409 0.05318
 O639 O 0.94062 0.54020 -0.00007
 O640 O 1.06296 0.46315 0.00070
 O641 O 0.94091 0.46355 0.00083
 O642 O 1.06384 0.54004 -0.00034
 H643 H 1.00291 0.55703 -0.07351
 H644 H 1.08766 0.44345 0.00059
 H645 H 1.00104 0.55906 0.07311
 H646 H 0.91632 0.44385 0.00152
 H647 H 1.13351 0.52080 -0.03095
 H648 H 1.13306 0.52337 0.03109
 H649 H 1.03611 0.48747 0.11224
 H650 H 0.96467 0.48448 0.11231
 H651 H 0.87129 0.51864 0.02593
 H652 H 0.87076 0.48053 -0.03119
 H653 H 0.92602 0.50174 -0.11121
 H654 H 1.03397 0.48364 -0.11068
 O655 O 0.42354 0.93553 0.43660
 O656 O 0.46235 0.88849 0.47080
 C657 C 0.43520 0.89704 0.44551
 O658 O 0.57236 1.05884 0.44002
 O659 O 0.52969 1.10631 0.47113
 C660 C 0.55981 1.09748 0.44793
 O661 O 0.57172 0.93987 0.43711
 O662 O 0.53370 0.89064 0.47020
 C663 C 0.56110 0.90077 0.44528
 O664 O 0.41797 1.05456 0.43904
 O665 O 0.45455 1.10449 0.47217
 C666 C 0.42682 1.09384 0.44807
 Zr667 Zr 0.44299 0.99553 0.45710
 O668 O 0.44858 0.99655 0.40025
 O669 O 0.37614 0.99022 0.45552
 Zr670 Zr 0.54946 0.99894 0.45825
 O671 O 0.55104 1.00238 0.40125
 O672 O 0.61646 0.99603 0.46034
 O673 O 0.49753 0.95867 0.45071
 O674 O 0.49511 1.03485 0.45092
 O675 O 0.40997 1.05421 0.56070
 O676 O 0.45312 1.10433 0.53365
 C677 C 0.42109 1.09345 0.55409
 O678 O 0.56848 0.94124 0.56981
 O679 O 0.53453 0.89097 0.53503
 C680 C 0.56026 0.90188 0.56070
 O681 O 0.56897 1.05974 0.56666
 O682 O 0.52985 1.10711 0.53319
 C683 C 0.55838 1.09837 0.55736
 O684 O 0.41954 0.93591 0.56726
 O685 O 0.46429 0.88932 0.53759
 C686 C 0.43477 0.89774 0.56133
 Zr687 Zr 0.44078 0.99612 0.54772
 O688 O 0.44473 1.00245 0.60453
 O689 O 0.37427 0.99079 0.55281
 Zr690 Zr 0.54690 0.99978 0.54869
 O691 O 0.54509 1.00487 0.60565
 O692 O 0.61394 0.99697 0.54895
 Zr693 Zr 0.49711 0.93261 0.50309
 Zr694 Zr 0.49299 1.06267 0.50274
 O695 O 0.49233 1.03598 0.55481
 O696 O 0.49498 0.95940 0.55546
 O697 O 0.43231 1.03401 0.50213
 O698 O 0.55721 0.96180 0.50362
 O699 O 0.43528 0.95776 0.50247
 O700 O 0.55538 1.03836 0.50341
 H701 H 0.49500 1.05372 0.42943
 H702 H 0.58269 0.94315 0.50369
 H703 H 0.49098 1.05589 0.57571
 H704 H 0.41101 0.93760 0.50241
 H705 H 0.62643 1.02190 0.47329
 H706 H 0.62470 1.02149 0.53466
 H707 H 0.52748 0.98100 0.61493
 H708 H 0.45423 0.97456 0.61437
 H709 H 0.36302 0.98878 0.52811
 H710 H 0.36415 1.01362 0.47062
 H711 H 0.41928 0.99638 0.39086
 H712 H 0.52886 0.98278 0.39220
 O713 O 1.08176 0.91502 0.54121
 O714 O 1.04716 0.95195 0.58637
 C715 C 1.07500 0.92407 0.57481
 O716 O 1.07119 1.07070 0.44689
 O717 O 1.02721 1.03325 0.40915
 C718 C 1.05674 1.06115 0.41520
 O719 O 1.08574 1.06480 0.54687
 O720 O 1.04911 1.02542 0.58899
 C721 C 1.07797 1.05285 0.57985
 O722 O 1.06401 0.91495 0.44305
 O723 O 1.02451 0.95930 0.40718
 C724 C 1.05080 0.92782 0.41189
 Zr725 Zr 1.05093 0.93782 0.49526
 O726 O 1.11669 0.93093 0.48532
 O727 O 1.04189 0.87052 0.49584
 Zr728 Zr 1.05595 1.04598 0.49818
 O729 O 1.12208 1.04271 0.48833
 O730 O 1.05941 1.11366 0.50348
 O731 O 1.06581 0.99032 0.52793
 O732 O 1.05764 0.99277 0.46480
 O733 O 0.91875 0.92009 0.45719
 O734 O 0.95355 0.95992 0.41420
 C735 C 0.92648 0.93066 0.42403
 O736 O 0.93182 1.06813 0.55971
 O737 O 0.97494 1.02768 0.59577
 C738 C 0.94488 1.05544 0.59092
 O739 O 0.92433 1.07738 0.46051
 O740 O 0.95538 1.03657 0.41597
 C741 C 0.93044 1.06728 0.42694
 O742 O 0.92396 0.92499 0.55691
 O743 O 0.97233 0.95720 0.59399
 C744 C 0.93919 0.93378 0.58847
 Zr745 Zr 0.94603 0.94203 0.50516
 O746 O 0.87935 0.93723 0.50945
 O747 O 0.95141 0.87431 0.50501
 Zr748 Zr 0.95010 1.05021 0.50742
 O749 O 0.88315 1.05399 0.50994
 O750 O 0.95456 1.11778 0.51335
 Zr751 Zr 1.00713 0.99209 0.55542
 Zr752 Zr 0.99426 0.99627 0.44764
 O753 O 0.93626 0.99750 0.47576
 O754 O 0.94340 0.99543 0.53878
 O755 O 0.99436 0.93293 0.46766
 O756 O 1.00676 1.05487 0.53442
 O757 O 1.00181 0.93086 0.53193
 O758 O 0.99970 1.05795 0.47082
 H759 H 1.08089 0.99214 0.44666
 H760 H 1.00925 1.07954 0.55124
 H761 H 0.90965 0.99894 0.46185
 H762 H 1.00237 0.90538 0.54792
 H763 H 1.04029 1.12631 0.48538
 H764 H 0.96824 1.12926 0.49129
 H765 H 0.87339 1.03373 0.52878
 H766 H 0.86778 0.96634 0.50561
 H767 H 0.92242 0.86318 0.50934
 H768 H 1.07034 0.85756 0.49238
 H769 H 1.13085 0.95475 0.49810
 H770 H 1.13497 1.02667 0.50847
 O771 O 0.41345 0.42397 -0.03793
 O772 O 0.45198 0.45566 -0.08337
 C773 C 0.42180 0.43086 -0.07162
 O774 O 0.44086 0.58220 0.05343
 O775 O 0.47887 0.53988 0.09222
 C776 C 0.45383 0.57177 0.08540
 O777 O 0.42420 0.57277 -0.04643
 O778 O 0.45756 0.52855 -0.08732
 C779 C 0.43095 0.55875 -0.07908
 O780 O 0.42825 0.42724 0.06052
 O781 O 0.47366 0.46631 0.09570
 C782 C 0.44276 0.43947 0.09148
 Zr783 Zr 0.44507 0.44588 0.00799
 O784 O 0.37877 0.45024 0.01620
 O785 O 0.44404 0.37799 0.00956
 Zr786 Zr 0.45281 0.55355 0.00263
 O787 O 0.38621 0.56155 0.00678
 O788 O 0.46223 0.62053 -0.00203
 O789 O 0.43703 0.49834 -0.02597
 O790 O 0.44476 0.50226 0.03731
 O791 O 0.57252 0.41163 0.04767
 O792 O 0.54414 0.45843 0.08946
 C793 C 0.56677 0.42497 0.08045
 O794 O 0.57883 0.55897 -0.05814
 O795 O 0.53090 0.52356 -0.09357
 C796 C 0.56367 0.54809 -0.08918
 O797 O 0.58455 0.57209 0.04089
 O798 O 0.54961 0.53580 0.08589
 C799 C 0.57675 0.56408 0.07456
 O800 O 0.56904 0.41463 -0.05291
 O801 O 0.52577 0.45234 -0.09103
 C802 C 0.55562 0.42494 -0.08479
 Zr803 Zr 0.55062 0.43692 -0.00120
 O804 O 0.61748 0.43171 -0.00248
 O805 O 0.54538 0.36915 -0.00294
 Zr806 Zr 0.55864 0.54426 -0.00575
 O807 O 0.62486 0.53445 -0.00875
 O808 O 0.56550 0.61140 -0.01248
 Zr809 Zr 0.49572 0.49189 -0.05281
 Zr810 Zr 0.50794 0.49818 0.05476
 O811 O 0.56614 0.49174 0.02747
 O812 O 0.55929 0.48822 -0.03617
 O813 O 0.50068 0.43478 0.03584
 O814 O 0.50292 0.55495 -0.03333
 O815 O 0.49379 0.43146 -0.02770
 O816 O 0.50977 0.55913 0.03009
 H817 H 0.42185 0.50509 0.05557
 H818 H 0.50303 0.57925 -0.05055
 H819 H 0.59237 0.49063 0.04193
 H820 H 0.49059 0.40537 -0.04282
 H821 H 0.43373 0.63381 -0.00025
 H822 H 0.54317 0.62526 0.00242
 H823 H 0.63772 0.56335 -0.01115
 H824 H 0.62803 0.45257 -0.02054
 H825 H 0.52349 0.36097 0.01503
 H826 H 0.41401 0.36967 0.01319
 H827 H 0.36892 0.47546 0.00239
 H828 H 0.37617 0.54792 0.02933
 C829 C 0.32755 1.18200 0.12472
 C830 C 0.33620 1.14064 0.11825
 C831 C 0.36696 1.12823 0.08984
 C832 C 0.36489 1.09021 0.07302
 H833 H 0.32246 1.11592 0.13523
 H834 H 0.39328 1.14966 0.08429
 H835 H 0.33901 1.20622 0.10609
 H836 H 0.33730 1.07000 0.07695
 C837 C 0.82394 0.68006 0.62293
 C838 C 0.83122 0.63848 0.61638
 C839 C 0.86147 0.62528 0.58791
 C840 C 0.85979 0.58647 0.57240
 H841 H 0.81709 0.61417 0.63356
 H842 H 0.88747 0.64676 0.58146
 H843 H 0.83581 0.70402 0.60424
 H844 H 0.83260 0.56594 0.57711
 C845 C 0.63678 0.84587 0.15723
 C846 C 0.64947 0.86466 0.12658
 C847 C 0.61875 0.89086 0.10660
 C848 C 0.62931 0.91799 0.07992
 H849 H 0.68186 0.86142 0.11698
 H850 H 0.58575 0.88771 0.11456
 H851 H 0.60511 0.85213 0.16759
 H852 H 0.66221 0.92233 0.07220
 C853 C 1.14420 0.35060 0.65502
 C854 C 1.15448 0.36881 0.62362
 C855 C 1.12156 0.39280 0.60443
 C856 C 1.12997 0.42053 0.57785
 H857 H 1.18646 0.36674 0.61285
 H858 H 1.08900 0.38782 0.61305
 H859 H 1.11272 0.35567 0.66627
 H860 H 1.16242 0.42668 0.56962
 C861 C 0.67513 1.17777 -0.12321
 C862 C 0.66640 1.13618 -0.11876
 C863 C 0.63632 1.12233 -0.09062
 C864 C 0.63735 1.08273 -0.07690
 H865 H 0.67932 1.11248 -0.13735
 H866 H 0.61123 1.14431 -0.08256
 H867 H 0.66453 1.20098 -0.10320
 H868 H 0.66380 1.06156 -0.08290
 C869 C 1.15281 0.63619 0.33707
 C870 C 1.15800 0.63000 0.37244
 C871 C 1.12584 0.60538 0.39262
 C872 C 1.13152 0.59127 0.42630
 H873 H 1.18455 0.64415 0.38647
 H874 H 1.09596 0.59911 0.37936
 H875 H 1.12685 0.62022 0.32353
 H876 H 1.16188 0.59504 0.43932
 C877 C 0.35699 0.84694 -0.15168
 C878 C 0.34774 0.86178 -0.11874
 C879 C 0.38079 0.88491 -0.09892
 C880 C 0.37224 0.91176 -0.07160
 H881 H 0.31627 0.85803 -0.10723
 H882 H 0.41327 0.88100 -0.10820
 H883 H 0.38787 0.85374 -0.16341
 H884 H 0.33976 0.91727 -0.06306
 C885 C 0.86487 0.33755 0.34813
 C886 C 0.85316 0.35409 0.38002
 C887 C 0.88419 0.37930 0.40049
 C888 C 0.87350 0.40646 0.42721
 H889 H 0.82102 0.35038 0.39006
 H890 H 0.91713 0.37642 0.39226
 H891 H 0.89624 0.34440 0.33744
 H892 H 0.84056 0.41074 0.43489
 C893 C 1.14695 0.36251 0.16344
 C894 C 1.13258 0.35055 0.13103
 C895 C 1.10669 0.38092 0.11029
 C896 C 1.08633 0.37063 0.07981
 H897 H 1.14009 0.31915 0.11996
 H898 H 1.10493 0.41362 0.12044
 H899 H 1.13714 0.39314 0.17482
 H900 H 1.08626 0.33782 0.06997
 C901 C 0.64194 0.85833 0.66479
 C902 C 0.62857 0.84742 0.63186
 C903 C 0.60240 0.87796 0.61168
 C904 C 0.58263 0.86805 0.58089
 H905 H 0.63708 0.81669 0.61998
 H906 H 0.59976 0.91029 0.62251
 H907 H 0.63117 0.88822 0.67692
 H908 H 0.58349 0.83552 0.57041
 C909 C 1.15768 0.68029 -0.12592
 C910 C 1.13135 0.64478 -0.13316
 C911 C 1.10919 0.61903 -0.10881
 C912 C 1.09175 0.63012 -0.07501
 H913 H 1.13168 0.63163 -0.16030
 H914 H 1.10088 0.58788 -0.11990
 H915 H 1.16380 0.68957 -0.09826
 H916 H 1.09118 0.66331 -0.06612
 C917 C 0.67595 1.16048 0.37592
 C918 C 0.63441 1.15890 0.38393
 C919 C 0.61795 1.12861 0.41147
 C920 C 0.57962 1.13306 0.42724
 H921 H 0.61226 1.17842 0.36894
 H922 H 0.63699 1.10054 0.41748
 H923 H 0.69818 1.14318 0.39263
 H924 H 0.56141 1.16212 0.42302
 C925 C 0.81725 0.66036 0.12570
 C926 C 0.85845 0.66065 0.11678
 C927 C 0.87541 0.63077 0.08921
 C928 C 0.91364 0.63608 0.07372
 H929 H 0.88013 0.68130 0.13127
 H930 H 0.85718 0.60211 0.08327
 H931 H 0.79515 0.64186 0.10974
 H932 H 0.93106 0.66562 0.07795
 C933 C 0.34549 1.18731 0.62029
 C934 C 0.38750 1.18018 0.62087
 C935 C 0.41181 1.15768 0.59202
 C936 C 0.39482 1.12650 0.57194
 H937 H 0.40534 1.19028 0.64424
 H938 H 0.44593 1.16150 0.59195
 H939 H 0.32762 1.18096 0.59606
 H940 H 0.36144 1.11921 0.57506
 C941 C 0.85859 0.35569 -0.16067
 C942 C 0.87134 0.34542 -0.12736
 C943 C 0.89697 0.37658 -0.10690
 C944 C 0.91659 0.36772 -0.07573
 H945 H 0.86260 0.31495 -0.11534
 H946 H 0.89931 0.40873 -0.11797
 H947 H 0.86966 0.38538 -0.17275
 H948 H 0.91626 0.33541 -0.06493
 C949 C 0.32126 0.83035 0.37542
 C950 C 0.36278 0.83463 0.38185
 C951 C 0.37808 0.86425 0.41016
 C952 C 0.41695 0.86122 0.42439
 H953 H 0.38572 0.81832 0.36468
 H954 H 0.35777 0.89095 0.41786
 H955 H 0.29833 0.84436 0.39396
 H956 H 0.43652 0.83334 0.41872
 C957 C 1.16584 1.15197 0.36388
 C958 C 1.13104 1.12879 0.35809
 C959 C 1.11044 1.10713 0.38837
 C960 C 1.07603 1.08287 0.38413
 H961 H 1.11759 1.12619 0.33136
 H962 H 1.12417 1.11108 0.41490
 H963 H 1.17868 1.15429 0.39087
 H964 H 1.06265 1.07815 0.35759
 C965 C 0.67171 0.63996 -0.13892
 C966 C 0.64007 0.61288 -0.14620
 C967 C 0.62067 0.58861 -0.11688
 C968 C 0.58497 0.56613 -0.12101
 H969 H 0.62737 0.61006 -0.17318
 H970 H 0.63507 0.59133 -0.09052
 H971 H 0.68361 0.64270 -0.11165
 H972 H 0.57056 0.56285 -0.14729
 C973 C 0.83107 1.14127 0.63982
 C974 C 0.86483 1.11694 0.64704
 C975 C 0.88644 1.09447 0.61777
 C976 C 0.92312 1.07382 0.62238
 H977 H 0.87762 1.11511 0.67404
 H978 H 0.87236 1.09632 0.59123
 H979 H 0.81913 1.14325 0.61253
 H980 H 0.93693 1.07076 0.64891
 C981 C 0.36333 0.68271 0.13550
 C982 C 0.39225 0.65239 0.14155
 C983 C 0.41386 0.63157 0.11118
 C984 C 0.43796 0.59691 0.11611
 H985 H 0.39778 0.64069 0.16863
 H986 H 0.40753 0.64305 0.08416
 H987 H 0.35780 0.69376 0.10822
 H988 H 0.44438 0.58557 0.14315
 C989 C 1.14640 0.84664 0.65160
 C990 C 1.11949 0.88132 0.66084
 C991 C 1.09603 0.90559 0.63637
 C992 C 1.09942 0.90114 0.59906
 H993 H 1.11561 0.89031 0.68894
 H994 H 1.07469 0.92963 0.64749
 H995 H 1.14868 0.83526 0.62410
 H996 H 1.12200 0.87890 0.58738
 C997 C 0.64606 0.35275 0.15737
 C998 C 0.62016 0.38511 0.16754
 C999 C 0.59549 0.41154 0.14174
 C1000 C 0.58763 0.39870 0.10798
 H1001 H 0.61796 0.39398 0.19576
 H1002 H 0.58372 0.44240 0.15100
 H1003 H 0.65040 0.34482 0.12920
 H1004 H 0.59799 0.36737 0.09885
 C1005 C 0.85803 0.84884 0.34373
 C1006 C 0.85353 0.84762 0.37956
 C1007 C 0.87807 0.87390 0.40494
 C1008 C 0.90317 0.90720 0.39602
 H1009 H 0.83062 0.82593 0.39157
 H1010 H 0.87417 0.86509 0.43301
 H1011 H 0.88090 0.86994 0.33110
 H1012 H 0.90728 0.91726 0.36835
 C1013 C 0.35718 0.34393 -0.14750
 C1014 C 0.34522 0.34954 -0.11325
 C1015 C 0.36930 0.37636 -0.08790
 C1016 C 0.39632 0.40756 -0.09811
 H1017 H 0.31700 0.33372 -0.10308
 H1018 H 0.36381 0.37007 -0.05953
 H1019 H 0.38565 0.35892 -0.15789
 H1020 H 0.40101 0.41561 -0.12621
 C1021 C 1.17465 0.32836 -0.12801
 C1022 C 1.13337 0.33703 -0.12349
 C1023 C 1.11911 0.36744 -0.09509
 C1024 C 1.08043 0.36562 -0.07991
 H1025 H 1.11035 0.32381 -0.14197
 H1026 H 1.14040 0.39324 -0.08761
 H1027 H 1.19685 0.33943 -0.10787
 H1028 H 1.06005 0.33840 -0.08530
 C1029 C 0.67612 0.83611 0.37430
 C1030 C 0.63454 0.84027 0.38054
 C1031 C 0.61865 0.87018 0.40845
 C1032 C 0.58020 0.86593 0.42351
 H1033 H 0.61206 0.82320 0.36384
 H1034 H 0.63820 0.89753 0.41551
 H1035 H 0.69846 0.85082 0.39261
 H1036 H 0.56162 0.83733 0.41840
 C1037 C 0.85850 0.64731 -0.16002
 C1038 C 0.86891 0.65619 -0.12583
 C1039 C 0.89481 0.62502 -0.10578
 C1040 C 0.91337 0.63361 -0.07413
 H1041 H 0.85771 0.68528 -0.11270
 H1042 H 0.89846 0.59326 -0.11756
 H1043 H 0.87191 0.61904 -0.17300
 H1044 H 0.91215 0.66570 -0.06276
 C1045 C 0.35338 1.14511 0.34203
 C1046 C 0.36206 1.15252 0.37675
 C1047 C 0.38642 1.12032 0.39690
 C1048 C 0.40409 1.12828 0.42894
 H1049 H 0.35095 1.18150 0.39012
 H1050 H 0.39020 1.08879 0.38471
 H1051 H 0.36665 1.11688 0.32889
 H1052 H 0.40263 1.16021 0.44062
 C1053 C 1.18050 0.67325 0.12001
 C1054 C 1.13926 0.66509 0.11592
 C1055 C 1.12452 0.63520 0.08779
 C1056 C 1.08519 0.63729 0.07477
 H1057 H 1.11634 0.67836 0.13488
 H1058 H 1.14541 0.60926 0.07939
 H1059 H 1.20304 0.66242 0.09969
 H1060 H 1.06519 0.66463 0.08128
 C1061 C 0.64103 1.14855 0.65969
 C1062 C 0.62850 1.15771 0.62605
 C1063 C 0.60187 1.12608 0.60677
 C1064 C 0.58089 1.13390 0.57600
 H1065 H 0.63832 1.18718 0.61294
 H1066 H 0.59981 1.09428 0.61856
 H1067 H 0.62869 1.11987 0.67259
 H1068 H 0.58068 1.16587 0.56453
 C1069 C 0.82608 0.33517 0.13055
 C1070 C 0.86762 0.34159 0.12527
 C1071 C 0.88279 0.37211 0.09752
 C1072 C 0.92148 0.36919 0.08248
 H1073 H 0.89045 0.32583 0.14245
 H1074 H 0.86221 0.39859 0.09025
 H1075 H 0.80374 0.34870 0.11165
 H1076 H 0.94107 0.34132 0.08774
 C1077 C 0.32585 0.82577 0.63231
 C1078 C 0.36823 0.83812 0.62817
 C1079 C 0.37993 0.86552 0.59986
 C1080 C 0.41984 0.86416 0.58308
 H1081 H 0.39225 0.82443 0.64542
 H1082 H 0.35626 0.88723 0.58916
 H1083 H 0.30563 0.82952 0.60897
 H1084 H 0.43929 0.83568 0.58613
 C1085 C 0.36847 1.16052 -0.16067
 C1086 C 0.35592 1.14471 -0.12865
 C1087 C 0.38591 1.11908 -0.10725
 C1088 C 0.37499 1.09607 -0.07791
 H1089 H 0.32404 1.15034 -0.11860
 H1090 H 0.41865 1.11909 -0.11636
 H1091 H 0.39967 1.15238 -0.17113
 H1092 H 0.34220 1.09431 -0.06919
 C1093 C 0.86294 0.65995 0.34266
 C1094 C 0.85006 0.64316 0.37421
 C1095 C 0.88015 0.61746 0.39536
 C1096 C 0.86936 0.59282 0.42379
 H1097 H 0.81787 0.64784 0.38386
 H1098 H 0.91303 0.61881 0.38670
 H1099 H 0.89434 0.65242 0.33232
 H1100 H 0.83651 0.58972 0.43207
 C1101 C 0.63249 1.16609 0.15872
 C1102 C 0.64596 1.14762 0.12797
 C1103 C 0.61596 1.12227 0.10651
 C1104 C 0.62742 1.09603 0.07921
 H1105 H 0.67877 1.15029 0.11939
 H1106 H 0.58278 1.12510 0.11401
 H1107 H 0.60037 1.16052 0.16821
 H1108 H 0.66053 1.09187 0.07205
 C1109 C 1.12936 0.66748 0.65947
 C1110 C 1.14200 0.64918 0.62841
 C1111 C 1.11141 0.62392 0.60734
 C1112 C 1.12252 0.59787 0.57986
 H1113 H 1.17459 0.65189 0.61926
 H1114 H 1.07834 0.62648 0.61525
 H1115 H 1.09735 0.66203 0.66929
 H1116 H 1.15556 0.59411 0.57231
 C1117 C 0.66785 0.81958 -0.11890
 C1118 C 0.66334 0.86189 -0.11325
 C1119 C 0.63400 0.87866 -0.08535
 C1120 C 0.63659 0.91904 -0.07283
 H1121 H 0.67918 0.88448 -0.13103
 H1122 H 0.60779 0.85844 -0.07689
 H1123 H 0.65435 0.79689 -0.09991
 H1124 H 0.66397 0.93860 -0.07937
 C1125 C 1.16982 0.32536 0.38071
 C1126 C 1.16444 0.36760 0.38605
 C1127 C 1.13483 0.38370 0.41398
 C1128 C 1.13628 0.42417 0.42640
 H1129 H 1.17967 0.39041 0.36810
 H1130 H 1.10930 0.36272 0.42264
 H1131 H 1.15688 0.30264 0.39997
 H1132 H 1.16297 0.44461 0.41973
 C1133 C 0.35506 0.85959 0.15780
 C1134 C 0.34533 0.87104 0.12407
 C1135 C 0.37577 0.89727 0.10360
 C1136 C 0.36779 0.91541 0.07157
 H1137 H 0.31608 0.86060 0.11174
 H1138 H 0.40676 0.90150 0.11553
 H1139 H 0.38359 0.87217 0.17003
 H1140 H 0.33653 0.91373 0.05985
 C1141 C 0.83699 0.31597 0.62209
 C1142 C 0.84016 0.35792 0.61475
 C1143 C 0.87029 0.37391 0.58723
 C1144 C 0.86595 0.41281 0.57229
 H1145 H 0.82225 0.38101 0.63072
 H1146 H 0.89813 0.35467 0.58108
 H1147 H 0.85266 0.29258 0.60483
 H1148 H 0.83705 0.43098 0.57675
 C1149 C 1.17002 1.16311 0.63115
 C1150 C 1.14811 1.12684 0.63565
 C1151 C 1.12728 1.10622 0.60474
 C1152 C 1.10224 1.07215 0.60944
 H1153 H 1.14484 1.11273 0.66223
 H1154 H 1.13128 1.12001 0.57810
 H1155 H 1.17284 1.17688 0.60439
 H1156 H 1.09762 1.05924 0.63633
 C1157 C 0.64455 0.64765 0.15360
 C1158 C 0.64781 0.65011 0.11768
 C1159 C 0.62450 0.62242 0.09230
 C1160 C 0.59969 0.58916 0.10173
 H1161 H 0.66879 0.67372 0.10568
 H1162 H 0.62848 0.63035 0.06404
 H1163 H 0.62395 0.62442 0.16634
 H1164 H 0.59506 0.58020 0.12960
 C1165 C 1.14527 0.82202 0.36030
 C1166 C 1.11634 0.85233 0.35394
 C1167 C 1.09318 0.87150 0.38414
 C1168 C 1.06809 0.90570 0.38006
 H1169 H 1.11116 0.86432 0.32690
 H1170 H 1.09885 0.85856 0.41081
 H1171 H 1.15016 0.81058 0.38756
 H1172 H 1.06203 0.91859 0.35347
 C1173 C 0.67761 0.35658 -0.14004
 C1174 C 0.63901 0.37308 -0.14413
 C1175 C 0.61652 0.39121 -0.11311
 C1176 C 0.57701 0.40577 -0.11598
 H1177 H 0.62301 0.37102 -0.16985
 H1178 H 0.63263 0.39261 -0.08741
 H1179 H 0.69261 0.35738 -0.11384
 H1180 H 0.56139 0.40606 -0.14190
 C1181 C 0.85119 1.14283 0.34891
 C1182 C 0.85586 1.15107 0.38410
 C1183 C 0.88092 1.12444 0.40915
 C1184 C 0.90706 1.09204 0.39961
 H1185 H 0.83976 1.17855 0.39592
 H1186 H 0.87759 1.13299 0.43737
 H1187 H 0.86632 1.11518 0.33663
 H1188 H 0.91191 1.08336 0.37163
 C1189 C 0.33120 0.66179 -0.13174
 C1190 C 0.35794 0.62891 -0.13645
 C1191 C 0.37954 0.60979 -0.10513
 C1192 C 0.40768 0.57804 -0.10938
 H1193 H 0.36452 0.61665 -0.16333
 H1194 H 0.37274 0.62229 -0.07837
 H1195 H 0.32546 0.67381 -0.10463
 H1196 H 0.41434 0.56584 -0.13627
 C1197 C 0.82017 0.86019 0.64289
 C1198 C 0.85658 0.88090 0.64779
 C1199 C 0.87807 0.90064 0.61707
 C1200 C 0.91699 0.91668 0.62005
 H1201 H 0.87198 0.88076 0.67383
 H1202 H 0.86225 0.90062 0.59121
 H1203 H 0.80585 0.85943 0.61641
 H1204 H 0.93253 0.91755 0.64600
 C1205 C 0.32637 0.36181 0.14488
 C1206 C 0.36194 0.38374 0.15077
 C1207 C 0.38326 0.40460 0.12054
 C1208 C 0.42150 0.42242 0.12362
 H1209 H 0.37658 0.38412 0.17712
 H1210 H 0.36768 0.40384 0.09458
 H1211 H 0.31285 0.36086 0.11809
 H1212 H 0.43689 0.42451 0.14957
   
