data_POSCAR
  _audit_creation_date              2014-09-24
  _audit_creation_method            'ToBaCCo'
  _symmetry_space_group_name_H-M    'P1'
  _symmetry_Int_Tables_number       1
  _symmetry_cell_setting            triclinic
  loop_
  _symmetry_equiv_pos_as_xyz
 x,y,z
_cell_length_a 43.7587
_cell_length_b 41.9342
_cell_length_c 41.1073
_cell_angle_alpha 90.027500
_cell_angle_beta 86.888800
_cell_angle_gamma 90.498000
loop_
  _atom_site_label
  _atom_site_type_symbol
  _atom_site_fract_x
  _atom_site_fract_y
  _atom_site_fract_z
N1 N 0.18500 1.25048 0.14572
 N2 N 0.16147 1.24967 0.16693
 C3 C 0.14150 1.27235 0.15926
 C4 C 0.15306 1.28843 0.13162
 C5 C 0.18089 1.27375 0.12389
 H6 H 0.12003 1.27649 0.17272
 H7 H 0.19685 1.27902 0.10360
 Cu8 Cu 0.15876 1.21826 0.20182
 Cu9 Cu 0.21854 1.22029 0.14704
 Cu10 Cu 0.21382 1.16375 0.20877
 N11 N 0.15645 1.18669 0.23656
 N12 N 0.17794 1.16529 0.23895
 C13 C 0.17034 1.14574 0.26410
 C14 C 0.14240 1.15529 0.27847
 C15 C 0.13445 1.18154 0.26020
 H16 H 0.18418 1.12593 0.27105
 H17 H 0.11392 1.19556 0.26332
 N18 N 0.24830 1.16618 0.17589
 N19 N 0.25011 1.18772 0.15246
 C20 C 0.27564 1.18259 0.13348
 C21 C 0.29072 1.15653 0.14543
 C22 C 0.27267 1.14682 0.17241
 H23 H 0.28255 1.19665 0.11229
 H24 H 0.27654 1.12661 0.18790
 H25 H 0.19334 1.18385 0.16964
 H26 H 0.21407 1.21151 0.19654
 N27 N 0.81082 0.75461 0.15723
 N28 N 0.83259 0.75535 0.17802
 C29 C 0.85263 0.73194 0.17056
 C30 C 0.84290 0.71554 0.14368
 C31 C 0.81619 0.73063 0.13596
 H32 H 0.87289 0.72728 0.18363
 H33 H 0.80213 0.72516 0.11584
 Cu34 Cu 0.83343 0.78729 0.21233
 Cu35 Cu 0.77797 0.78563 0.15839
 Cu36 Cu 0.78023 0.84490 0.21688
 N37 N 0.83460 0.82147 0.24432
 N38 N 0.81397 0.84403 0.24573
 C39 C 0.82047 0.86480 0.26937
 C40 C 0.84672 0.85481 0.28384
 C41 C 0.85496 0.82708 0.26712
 H42 H 0.80688 0.88555 0.27543
 H43 H 0.87447 0.81220 0.27085
 N44 N 0.74781 0.84184 0.18562
 N45 N 0.74683 0.81919 0.16343
 C46 C 0.72234 0.82387 0.14557
 C47 C 0.70714 0.85083 0.15701
 C48 C 0.72401 0.86151 0.18247
 H49 H 0.71641 0.80912 0.12526
 H50 H 0.71938 0.88217 0.19759
 H51 H 0.80340 0.82159 0.17864
 H52 H 0.77887 0.79649 0.20733
 N53 N 0.80769 1.25017 -0.15829
 N54 N 0.83124 1.24964 -0.17951
 C55 C 0.85146 1.27239 -0.17178
 C56 C 0.84001 1.28810 -0.14408
 C57 C 0.81205 1.27337 -0.13634
 H58 H 0.87329 1.27640 -0.18479
 H59 H 0.79623 1.27860 -0.11595
 Cu60 Cu 0.83381 1.21854 -0.21463
 Cu61 Cu 0.77422 1.21926 -0.16008
 Cu62 Cu 0.79904 1.14885 -0.19645
 N63 N 0.83936 1.18166 -0.24284
 N64 N 0.82599 1.15429 -0.23537
 C65 C 0.83483 1.13238 -0.25776
 C66 C 0.85483 1.14679 -0.28090
 C67 C 0.85702 1.17826 -0.27043
 H68 H 0.82717 1.10782 -0.25686
 H69 H 0.87083 1.19724 -0.28145
 N70 N 0.76288 1.15135 -0.16578
 N71 N 0.75227 1.17848 -0.15364
 C72 C 0.72649 1.17260 -0.13518
 C73 C 0.72078 1.14009 -0.13546
 C74 C 0.74431 1.12739 -0.15509
 H75 H 0.71349 1.19051 -0.12165
 H76 H 0.74739 1.10258 -0.16156
 H77 H 0.80900 1.18904 -0.16917
 H78 H 0.78354 1.19358 -0.20379
 N79 N 0.18899 0.75995 -0.16028
 N80 N 0.16779 0.76065 -0.18172
 C81 C 0.14861 0.73569 -0.17642
 C82 C 0.15826 0.71836 -0.15023
 C83 C 0.18405 0.73450 -0.14069
 H84 H 0.12894 0.73065 -0.19042
 H85 H 0.19769 0.72879 -0.12037
 Cu86 Cu 0.16671 0.79476 -0.21371
 Cu87 Cu 0.22033 0.79308 -0.15817
 Cu88 Cu 0.21907 0.85378 -0.21538
 N89 N 0.16664 0.82856 -0.24614
 N90 N 0.18740 0.85138 -0.24681
 C91 C 0.18202 0.87184 -0.27099
 C92 C 0.15626 0.86150 -0.28647
 C93 C 0.14724 0.83378 -0.26988
 H94 H 0.19565 0.89298 -0.27628
 H95 H 0.12788 0.81859 -0.27442
 N96 N 0.24930 0.85203 -0.18163
 N97 N 0.25000 0.82881 -0.16003
 C98 C 0.27258 0.83492 -0.13984
 C99 C 0.28667 0.86345 -0.14903
 C100 C 0.27130 0.87355 -0.17566
 H101 H 0.27772 0.82024 -0.11928
 H102 H 0.27564 0.89516 -0.18950
 H103 H 0.19546 0.82907 -0.17823
 H104 H 0.22083 0.80528 -0.20682
 Si105 Si 0.50002 0.99005 0.00837
 Si106 Si -0.00070 0.50043 0.99390
 Si107 Si 1.00048 -0.00940 0.49825
 C108 C 0.15404 0.32745 1.08693
 C109 C 0.13996 0.35161 1.06988
 C110 C 0.11083 0.36259 1.08013
 C111 C 0.09587 0.34855 1.10775
 C112 C 0.10992 0.32448 1.12488
 C113 C 0.13923 0.31335 1.11473
 C114 C 0.09627 0.38740 1.06051
 C115 C 0.07321 0.40577 1.07220
 C116 C 0.05731 0.42956 1.05253
 C117 C 0.03847 0.45202 1.06893
 C118 C 0.02160 0.47375 1.05161
 C119 C 0.02339 0.47355 1.01749
 C120 C 0.04208 0.45125 1.00091
 C121 C 0.05888 0.42937 1.01818
 H122 H 0.17653 0.31998 1.07797
 H123 H 0.15193 0.36179 1.04851
 H124 H 0.07295 0.35539 1.11591
 H125 H 0.09728 0.31446 1.14580
 H126 H 0.10565 0.39097 1.03590
 H127 H 0.06578 0.40401 1.09767
 H128 H 0.03645 0.45248 1.09531
 H129 H 0.00677 0.49017 1.06503
 H130 H 0.04326 0.45037 0.97454
 H131 H 0.07223 0.41193 1.00442
 C132 C -0.15738 0.66974 1.10431
 C133 C -0.14259 0.64474 1.08755
 C134 C -0.11181 0.63795 1.09236
 C135 C -0.09600 0.65706 1.11422
 C136 C -0.11082 0.68195 1.13106
 C137 C -0.14166 0.68865 1.12627
 C138 C -0.09689 0.61180 1.07313
 C139 C -0.07039 0.59836 1.08044
 C140 C -0.05476 0.57376 1.05988
 C141 C -0.02280 0.57163 1.06014
 C142 C -0.00696 0.54936 1.04060
 C143 C -0.02286 0.52828 1.02105
 C144 C -0.05482 0.52991 1.02098
 C145 C -0.07073 0.55241 1.04034
 H146 H -0.18119 0.67408 1.10011
 H147 H -0.15530 0.63062 1.07072
 H148 H -0.07201 0.65362 1.11795
 H149 H -0.09779 0.69635 1.14729
 H150 H -0.10823 0.60373 1.05183
 H151 H -0.05871 0.60630 1.10150
 H152 H -0.00997 0.58771 1.07502
 H153 H 0.01778 0.54869 1.04064
 H154 H -0.06756 0.51419 1.00574
 H155 H -0.09543 0.55279 1.04013
 C156 C -0.15454 0.32073 0.90659
 C157 C -0.13924 0.34378 0.92432
 C158 C -0.11399 0.36049 0.91013
 C159 C -0.10414 0.35341 0.87779
 C160 C -0.11936 0.33028 0.86011
 C161 C -0.14466 0.31355 0.87432
 C162 C -0.09759 0.38369 0.93031
 C163 C -0.08075 0.40807 0.91767
 C164 C -0.06266 0.43070 0.93701
 C165 C -0.04201 0.45145 0.92010
 C166 C -0.02376 0.47265 0.93688
 C167 C -0.02601 0.47377 0.97096
 C168 C -0.04657 0.45330 0.98806
 C169 C -0.06493 0.43209 0.97135
 H170 H -0.17369 0.30811 0.91851
 H171 H -0.14709 0.34849 0.94929
 H172 H -0.08419 0.36495 0.86625
 H173 H -0.11110 0.32545 0.83534
 H174 H -0.09987 0.38020 0.95635
 H175 H -0.07961 0.41161 0.89155
 H176 H -0.03963 0.45093 0.89373
 H177 H -0.00758 0.48767 0.92308
 H178 H -0.04839 0.45368 1.01445
 H179 H -0.08071 0.41712 0.98564
 C180 C 0.15873 0.67107 0.88726
 C181 C 0.14412 0.64492 0.90266
 C182 C 0.11376 0.63692 0.89648
 C183 C 0.09825 0.65586 0.87449
 C184 C 0.11289 0.68189 0.85902
 C185 C 0.14323 0.68995 0.86533
 C186 C 0.09874 0.60996 0.91479
 C187 C 0.07264 0.59587 0.90645
 C188 C 0.05620 0.57139 0.92678
 C189 C 0.02424 0.56946 0.92594
 C190 C 0.00757 0.54775 0.94570
 C191 C 0.02261 0.52697 0.96603
 C192 C 0.05460 0.52819 0.96647
 C193 C 0.07135 0.55023 0.94694
 H194 H 0.18216 0.67642 0.89260
 H195 H 0.15658 0.63096 0.91963
 H196 H 0.07455 0.65149 0.86971
 H197 H 0.10001 0.69616 0.84275
 H198 H 0.10940 0.60210 0.93651
 H199 H 0.06163 0.60355 0.88493
 H200 H 0.01205 0.58540 0.91056
 H201 H -0.01717 0.54737 0.94534
 H202 H 0.06665 0.51261 0.98225
 H203 H 0.09603 0.55051 0.94761
 C204 C 1.09749 0.15394 0.31705
 C205 C 1.08034 0.13919 0.34257
 C206 C 1.09058 0.11119 0.35690
 C207 C 1.11853 0.09815 0.34502
 C208 C 1.13580 0.11295 0.31961
 C209 C 1.12548 0.14098 0.30494
 C210 C 1.07063 0.09552 0.38268
 C211 C 1.08048 0.07350 0.40330
 C212 C 1.06029 0.05594 0.42754
 C213 C 1.07401 0.03785 0.45145
 C214 C 1.05626 0.01903 0.47336
 C215 C 1.02437 0.01808 0.47190
 C216 C 1.01043 0.03630 0.44842
 C217 C 1.02815 0.05498 0.42632
 H218 H 1.08844 0.17546 0.30696
 H219 H 1.05880 0.14968 0.35104
 H220 H 1.12693 0.07605 0.35450
 H221 H 1.15694 0.10174 0.31125
 H222 H 1.04706 0.10308 0.38481
 H223 H 1.10459 0.06802 0.40287
 H224 H 1.09867 0.03781 0.45280
 H225 H 1.06764 0.00475 0.49086
 H226 H 0.98584 0.03540 0.44661
 H227 H 1.01646 0.06764 0.40786
 C228 C 1.15431 -0.09552 0.67315
 C229 C 1.13965 -0.08026 0.64822
 C230 C 1.11234 -0.09256 0.63678
 C231 C 1.09995 -0.12070 0.65091
 C232 C 1.11465 -0.13610 0.67579
 C233 C 1.14197 -0.12364 0.68759
 C234 C 1.09686 -0.07431 0.61156
 C235 C 1.07481 -0.08636 0.59356
 C236 C 1.05835 -0.06723 0.56978
 C237 C 1.04268 -0.08315 0.54554
 C238 C 1.02579 -0.06609 0.52355
 C239 C 1.02435 -0.03279 0.52546
 C240 C 1.03971 -0.01677 0.54969
 C241 C 1.05649 -0.03375 0.57173
 H242 H 1.17525 -0.08488 0.68099
 H243 H 1.14965 -0.05852 0.63795
 H244 H 1.07850 -0.13060 0.64361
 H245 H 1.10400 -0.15745 0.68600
 H246 H 1.10465 -0.05003 0.60738
 H247 H 1.06884 -0.11139 0.59548
 H248 H 1.04332 -0.10892 0.54376
 H249 H 1.01360 -0.07904 0.50548
 H250 H 1.03831 0.00892 0.55191
 H251 H 1.06713 -0.02052 0.59072
 C252 C 0.85107 -0.10129 0.32291
 C253 C 0.86598 -0.08653 0.34814
 C254 C 0.89191 -0.10021 0.36082
 C255 C 0.90239 -0.12949 0.34798
 C256 C 0.88760 -0.14424 0.32259
 C257 C 0.86168 -0.13038 0.30953
 C258 C 0.90671 -0.08333 0.38767
 C259 C 0.93505 -0.08938 0.39691
 C260 C 0.94989 -0.07110 0.42277
 C261 C 0.98199 -0.07058 0.42282
 C262 C 0.99692 -0.05273 0.44599
 C263 C 0.98002 -0.03537 0.46975
 C264 C 0.94799 -0.03631 0.47031
 C265 C 0.93301 -0.05426 0.44726
 H266 H 0.83134 -0.08947 0.31399
 H267 H 0.85723 -0.06410 0.35767
 H268 H 0.92169 -0.14150 0.35760
 H269 H 0.89656 -0.16671 0.31362
 H270 H 0.89405 -0.06387 0.39901
 H271 H 0.94890 -0.10693 0.38388
 H272 H 0.99557 -0.08350 0.40445
 H273 H 1.02170 -0.05208 0.44506
 H274 H 0.93440 -0.02293 0.48821
 H275 H 0.90827 -0.05485 0.44888
 C276 C 0.88965 0.15038 0.67024
 C277 C 0.90535 0.13588 0.64373
 C278 C 0.90193 0.10316 0.63774
 C279 C 0.88237 0.08513 0.65906
 C280 C 0.86658 0.09959 0.68550
 C281 C 0.87009 0.13244 0.69176
 C282 C 0.92038 0.08864 0.61026
 C283 C 0.91426 0.06000 0.59741
 C284 C 0.93441 0.04445 0.57209
 C285 C 0.93458 0.01101 0.57070
 C286 C 0.95404 -0.00480 0.54815
 C287 C 0.97322 0.01253 0.52611
 C288 C 0.97274 0.04592 0.52684
 C289 C 0.95339 0.06183 0.54958
 H290 H 0.89317 0.17567 0.67367
 H291 H 0.92040 0.15034 0.62785
 H292 H 0.87968 0.05967 0.65619
 H293 H 0.85208 0.08453 0.70122
 H294 H 0.94018 0.10203 0.60086
 H295 H 0.89459 0.04637 0.60667
 H296 H 0.92012 -0.00293 0.58765
 H297 H 0.95433 -0.03063 0.54812
 H298 H 0.98751 0.05979 0.51020
 H299 H 0.95329 0.08762 0.54928
 C300 C 0.33095 1.14961 0.10008
 C301 C 0.35690 1.13450 0.08639
 C302 C 0.37149 1.11060 0.10349
 C303 C 0.36015 1.10285 0.13522
 C304 C 0.33415 1.11798 0.14895
 C305 C 0.31902 1.14132 0.13141
 C306 C 0.39825 1.09448 0.08727
 C307 C 0.40745 1.06519 0.09525
 C308 C 0.43189 1.04789 0.07630
 C309 C 0.43112 1.01441 0.07616
 C310 C 0.45234 0.99723 0.05670
 C311 C 0.47497 1.01322 0.03743
 C312 C 0.47668 1.04657 0.03846
 C313 C 0.45543 1.06382 0.05788
 H314 H 0.32003 1.16738 0.08572
 H315 H 0.36527 1.14112 0.06201
 H316 H 0.37133 1.08538 0.14970
 H317 H 0.32607 1.11139 0.17337
 H318 H 0.40904 1.10626 0.06617
 H319 H 0.39490 1.05206 0.11436
 H320 H 0.41342 1.00154 0.09031
 H321 H 0.45062 0.97146 0.05607
 H322 H 0.49392 1.05945 0.02377
 H323 H 0.45745 1.08954 0.05819
 C324 C 0.70011 1.09123 -0.10700
 C325 C 0.67669 1.07485 -0.08943
 C326 C 0.64812 1.08911 -0.08309
 C327 C 0.64350 1.12036 -0.09405
 C328 C 0.66718 1.13703 -0.11098
 C329 C 0.69565 1.12254 -0.11773
 C330 C 0.62414 1.07137 -0.06377
 C331 C 0.59433 1.07340 -0.06930
 C332 C 0.57096 1.05449 -0.05033
 C333 C 0.54639 1.04087 -0.06611
 C334 C 0.52479 1.02173 -0.04881
 C335 C 0.52700 1.01683 -0.01529
 C336 C 0.55097 1.03127 0.00071
 C337 C 0.57289 1.04983 -0.01665
 H338 H 0.72194 1.07962 -0.11155
 H339 H 0.68081 1.05089 -0.08096
 H340 H 0.62187 1.13216 -0.08890
 H341 H 0.66316 1.16113 -0.11905
 H342 H 0.63149 1.05462 -0.04576
 H343 H 0.58710 1.08741 -0.08961
 H344 H 0.54443 1.04429 -0.09203
 H345 H 0.50671 1.01060 -0.06179
 H346 H 0.55302 1.02777 0.02661
 H347 H 0.59126 1.06063 -0.00374
 C348 C 0.31659 0.91320 -0.13798
 C349 C 0.33943 0.92941 -0.12202
 C350 C 0.35807 0.91319 -0.10093
 C351 C 0.35311 0.88033 -0.09573
 C352 C 0.33010 0.86415 -0.11154
 C353 C 0.31156 0.88040 -0.13283
 C354 C 0.38124 0.93167 -0.08366
 C355 C 0.40683 0.91884 -0.07293
 C356 C 0.42980 0.93684 -0.05469
 C357 C 0.45123 0.91953 -0.03774
 C358 C 0.47276 0.93523 -0.01942
 C359 C 0.47348 0.96859 -0.01802
 C360 C 0.45246 0.98605 -0.03514
 C361 C 0.43099 0.97044 -0.05357
 H362 H 0.30251 0.92661 -0.15384
 H363 H 0.34254 0.95477 -0.12615
 H364 H 0.36636 0.86717 -0.07889
 H365 H 0.32686 0.83889 -0.10701
 H366 H 0.37672 0.95674 -0.08013
 H367 H 0.41114 0.89375 -0.07711
 H368 H 0.45096 0.89370 -0.03818
 H369 H 0.48837 0.92116 -0.00598
 H370 H 0.45252 1.01187 -0.03409
 H371 H 0.41566 0.98497 -0.06683
 C372 C 0.67080 0.89661 0.15379
 C373 C 0.64542 0.91100 0.14099
 C374 C 0.62832 0.89504 0.11802
 C375 C 0.63658 0.86380 0.10887
 C376 C 0.66200 0.84939 0.12169
 C377 C 0.67961 0.86572 0.14409
 C378 C 0.60219 0.91182 0.10438
 C379 C 0.59125 0.90475 0.07534
 C380 C 0.56737 0.92382 0.06032
 C381 C 0.56670 0.92435 0.02623
 C382 C 0.54579 0.94347 0.01096
 C383 C 0.52485 0.96199 0.02952
 C384 C 0.52470 0.96083 0.06358
 C385 C 0.54568 0.94176 0.07893
 H386 H 0.68372 0.91006 0.17090
 H387 H 0.63945 0.93498 0.14864
 H388 H 0.62338 0.85023 0.09212
 H389 H 0.66767 0.82536 0.11410
 H390 H 0.59345 0.93238 0.11767
 H391 H 0.60191 0.88614 0.06057
 H392 H 0.58300 0.91064 0.01133
 H393 H 0.54637 0.94428 -0.01540
 H394 H 0.50888 0.97509 0.07841
 H395 H 0.54484 0.94123 0.10526
   
