data_POSCAR
  _audit_creation_date              2014-09-24
  _audit_creation_method            'ToBaCCo'
  _symmetry_space_group_name_H-M    'P1'
  _symmetry_Int_Tables_number       1
  _symmetry_cell_setting            triclinic
  loop_
  _symmetry_equiv_pos_as_xyz
 x,y,z
_cell_length_a 30.7767
_cell_length_b 27.2483
_cell_length_c 31.7294
_cell_angle_alpha 89.991600
_cell_angle_beta 84.723700
_cell_angle_gamma 87.207100
loop_
  _atom_site_label
  _atom_site_type_symbol
  _atom_site_fract_x
  _atom_site_fract_y
  _atom_site_fract_z
N1 N 0.54009 0.66627 0.60630
 N2 N 0.53366 0.63558 0.63799
 C3 C 0.49653 0.64947 0.66154
 C4 C 0.47824 0.69038 0.64308
 C5 C 0.50649 0.70005 0.60791
 H6 H 0.48434 0.63187 0.69053
 H7 H 0.50401 0.73080 0.58657
 Cu8 Cu 0.57548 0.58223 0.64754
 Cu9 Cu 0.59343 0.66167 0.56783
 Cu10 Cu 0.67636 0.58243 0.59873
 N11 N 0.62390 0.54652 0.67011
 N12 N 0.66420 0.55001 0.65306
 C13 C 0.69162 0.52511 0.67710
 C14 C 0.66681 0.50435 0.71045
 C15 C 0.62397 0.51851 0.70495
 H16 H 0.72668 0.52111 0.67010
 H17 H 0.59511 0.51024 0.72529
 N18 N 0.68415 0.62653 0.54950
 N19 N 0.65331 0.65858 0.53914
 C20 C 0.66939 0.68548 0.50617
 C21 C 0.71180 0.66851 0.49467
 C22 C 0.72014 0.63109 0.52250
 H23 H 0.65139 0.71452 0.49104
 H24 H 0.75052 0.60964 0.52352
 H25 H 0.61541 0.58978 0.57716
 H26 H 0.62936 0.63644 0.61589
 N27 N 0.93863 0.30028 0.09805
 N28 N 0.95241 0.32987 0.12617
 C29 C 0.99128 0.31173 0.13737
 C30 C 1.00250 0.26918 0.11414
 C31 C 0.96844 0.26313 0.08952
 H32 H 1.01024 0.32856 0.16000
 H33 H 0.96501 0.23331 0.06774
 Cu34 Cu 0.91759 0.38912 0.14460
 Cu35 Cu 0.88139 0.30942 0.07744
 Cu36 Cu 0.83769 0.42857 0.08505
 N37 N 0.88013 0.44729 0.16010
 N38 N 0.84771 0.46127 0.13781
 C39 C 0.82527 0.49992 0.15714
 C40 C 0.84506 0.51101 0.19306
 C41 C 0.87986 0.47716 0.19395
 H42 H 0.79659 0.51838 0.14601
 H43 H 0.90211 0.47339 0.21835
 N44 N 0.81935 0.38006 0.04486
 N45 N 0.83413 0.33376 0.04447
 C46 C 0.81320 0.30821 0.01704
 C47 C 0.78427 0.33999 -0.00121
 C48 C 0.78891 0.38541 0.01694
 H49 H 0.81888 0.26937 0.01046
 H50 H 0.77032 0.41917 0.01154
 H51 H 0.89367 0.38166 0.07359
 H52 H 0.85045 0.36590 0.11596
 N53 N 0.47142 0.14729 -0.11440
 N54 N 0.46809 0.13575 -0.15418
 C55 C 0.49595 0.16186 -0.17925
 C56 C 0.51825 0.19083 -0.15370
 C57 C 0.50224 0.18046 -0.11270
 H58 H 0.49891 0.16082 -0.21348
 H59 H 0.51035 0.19794 -0.08402
 Cu60 Cu 0.42641 0.08913 -0.16934
 Cu61 Cu 0.43073 0.12346 -0.06898
 Cu62 Cu 0.33230 0.09827 -0.10780
 N63 N 0.37588 0.05526 -0.18364
 N64 N 0.33816 0.06086 -0.16067
 C65 C 0.30809 0.03593 -0.17899
 C66 C 0.32861 0.01264 -0.21463
 C67 C 0.37157 0.02558 -0.21665
 H68 H 0.27432 0.03363 -0.16658
 H69 H 0.39757 0.01468 -0.24058
 N70 N 0.33764 0.11572 -0.04808
 N71 N 0.37555 0.12176 -0.03282
 C72 C 0.36889 0.12938 0.00922
 C73 C 0.32460 0.12858 0.02084
 C74 C 0.30570 0.11985 -0.01613
 H75 H 0.39429 0.13598 0.02963
 H76 H 0.27140 0.11555 -0.01933
 H77 H 0.39351 0.07219 -0.09828
 H78 H 0.38814 0.13859 -0.11213
 N79 N 0.05481 0.82618 0.38901
 N80 N 0.06529 0.84401 0.35112
 C81 C 0.04095 0.82362 0.32331
 C82 C 0.01275 0.79268 0.34533
 C83 C 0.02238 0.79510 0.38703
 H84 H 0.04245 0.83230 0.28995
 H85 H 0.00745 0.77535 0.41371
 Cu86 Cu 0.10737 0.89516 0.34171
 Cu87 Cu 0.08651 0.84377 0.43640
 Cu88 Cu 0.13595 0.95010 0.43325
 N89 N 0.13105 0.96126 0.34311
 N90 N 0.13907 0.98363 0.37831
 C91 C 0.14971 1.03012 0.36926
 C92 C 0.14854 1.03701 0.32622
 C93 C 0.13678 0.99270 0.31065
 H94 H 0.15766 1.05680 0.39223
 H95 H 0.13099 0.98459 0.27835
 N96 N 0.14805 0.89977 0.47524
 N97 N 0.12998 0.85701 0.47507
 C98 C 0.14805 0.82695 0.50297
 C99 C 0.17869 0.85251 0.52200
 C100 C 0.17767 0.89875 0.50401
 H101 H 0.14049 0.78892 0.50800
 H102 H 0.19894 0.92819 0.50923
 H103 H 0.08518 0.92239 0.39993
 H104 H 0.14070 0.89092 0.39526
 C105 C 0.13918 0.18609 0.14891
 N106 N 0.13602 0.17425 0.19064
 C107 C 0.17106 0.15324 0.20807
 N108 N 0.20928 0.14428 0.18372
 C109 C 0.21269 0.15650 0.14211
 N110 N 0.17728 0.17642 0.12466
 C111 C 0.34972 0.80793 0.66200
 N112 N 0.34265 0.84762 0.68792
 C113 C 0.30897 0.88057 0.68314
 N114 N 0.28183 0.87333 0.65256
 C115 C 0.28861 0.83351 0.62656
 N116 N 0.32260 0.80083 0.63135
 C117 C 0.88666 0.69432 0.32949
 N118 N 0.85861 0.70397 0.36445
 C119 C 0.82132 0.67933 0.37112
 N120 N 0.81180 0.64540 0.34243
 C121 C 0.83960 0.63577 0.30734
 N122 N 0.87696 0.66038 0.30089
 C123 C 0.62956 0.31676 -0.15881
 N124 N 0.65249 0.30785 -0.12488
 C125 C 0.68510 0.33722 -0.11646
 N126 N 0.69524 0.37542 -0.14262
 C127 C 0.67214 0.38454 -0.17656
 N128 N 0.63950 0.35509 -0.18449
 N129 N 0.08834 0.18144 0.09541
 N130 N 0.05084 0.20234 0.08571
 C131 C 0.03994 0.23842 0.11441
 C132 C 0.07179 0.23878 0.14240
 N133 N 0.10126 0.20264 0.12928
 H134 H 0.07327 0.26238 0.16963
 N135 N 0.39360 0.75681 0.70619
 N136 N 0.42737 0.72458 0.70232
 C137 C 0.44001 0.72043 0.66059
 C138 C 0.41276 0.75078 0.63882
 N139 N 0.38429 0.77268 0.66848
 H140 H 0.41387 0.75691 0.60504
 N141 N 0.94292 0.73308 0.28384
 N142 N 0.97682 0.76059 0.28706
 C143 C 0.98088 0.76585 0.32878
 C144 C 0.94823 0.74105 0.35111
 N145 N 0.92531 0.72124 0.32189
 H146 H 0.94129 0.73829 0.38508
 N147 N 0.58190 0.28172 -0.20667
 N148 N 0.55260 0.24769 -0.20680
 C149 C 0.54878 0.22850 -0.16754
 C150 C 0.57665 0.25163 -0.14329
 N151 N 0.59668 0.28454 -0.16890
 H152 H 0.58181 0.24528 -0.11039
 N153 N 0.16247 0.15805 0.28542
 N154 N 0.15685 0.12773 0.31805
 C155 C 0.15620 0.08202 0.30173
 C156 C 0.16172 0.08514 0.25833
 N157 N 0.16562 0.13290 0.24951
 H158 H 0.16211 0.05575 0.23532
 N159 N 0.72369 0.43476 -0.21808
 N160 N 0.72352 0.46623 -0.25001
 C161 C 0.68135 0.47461 -0.25755
 C162 C 0.65574 0.44744 -0.22939
 N163 N 0.68331 0.42315 -0.20540
 H164 H 0.62074 0.44375 -0.22771
 N165 N 0.26328 0.94503 0.72111
 N166 N 0.26707 0.98031 0.74917
 C167 C 0.30959 0.97957 0.75644
 C168 C 0.33171 0.94279 0.73233
 N169 N 0.30172 0.92211 0.71083
 H170 H 0.36609 0.93174 0.73089
 N171 N 0.78819 0.59632 0.26605
 N172 N 0.78843 0.56408 0.23473
 C173 C 0.83043 0.54853 0.22509
 C174 C 0.85604 0.57232 0.25124
 N175 N 0.82842 0.60178 0.27625
 H176 H 0.89115 0.56870 0.25201
 N177 N 0.29154 0.13957 0.13125
 N178 N 0.32246 0.13246 0.09959
 C179 C 0.30240 0.13524 0.06355
 C180 C 0.25834 0.14452 0.07397
 N181 N 0.25292 0.14697 0.11643
 H182 H 0.23274 0.14899 0.05284
 N183 N 0.77820 0.73582 0.41959
 N184 N 0.74788 0.73448 0.45203
 C185 C 0.74193 0.68662 0.46037
 C186 C 0.76922 0.65859 0.43201
 N187 N 0.79120 0.69068 0.40715
 H188 H 0.77252 0.61894 0.42942
 N189 N 0.71294 0.28117 -0.06495
 N190 N 0.73943 0.28036 -0.03436
 C191 C 0.75360 0.32615 -0.03140
 C192 C 0.73523 0.35522 -0.06141
 N193 N 0.71015 0.32557 -0.08168
 H194 H 0.73996 0.39364 -0.06815
 N195 N 0.25190 0.78087 0.58058
 N196 N 0.22184 0.78437 0.55324
 C197 C 0.20978 0.83245 0.55070
 C198 C 0.23320 0.85841 0.57741
 N199 N 0.25905 0.82485 0.59542
 H200 H 0.23184 0.89767 0.58301
   
