data_POSCAR
  _audit_creation_date              2014-09-24
  _audit_creation_method            'ToBaCCo'
  _symmetry_space_group_name_H-M    'P1'
  _symmetry_Int_Tables_number       1
  _symmetry_cell_setting            triclinic
  loop_
  _symmetry_equiv_pos_as_xyz
 x,y,z
_cell_length_a 48.7326
_cell_length_b 48.8407
_cell_length_c 48.8811
_cell_angle_alpha 89.999000
_cell_angle_beta 90.078700
_cell_angle_gamma 89.921000
loop_
  _atom_site_label
  _atom_site_type_symbol
  _atom_site_fract_x
  _atom_site_fract_y
  _atom_site_fract_z
C1 C 0.33069 0.36568 1.36373
 N2 N 0.34100 0.37801 1.34102
 C3 C 0.36361 0.36787 1.32829
 N4 N 0.37594 0.34507 1.33849
 C5 C 0.36600 0.33240 1.36116
 N6 N 0.34337 0.34290 1.37359
 C7 C 1.16821 0.63754 0.87019
 N8 N 1.15564 0.66030 0.88023
 C9 C 1.13274 0.67070 0.86810
 N10 N 1.12244 0.65796 0.84559
 C11 C 1.13467 0.63520 0.83525
 N12 N 1.15751 0.62517 0.84766
 C13 C 0.66742 -0.13710 0.12973
 N14 N 0.65689 -0.12476 0.15230
 C15 C 0.63413 -0.13483 0.16474
 N16 N 0.62192 -0.15757 0.15437
 C17 C 0.63213 -0.17026 0.13180
 N18 N 0.65494 -0.15983 0.11964
 C19 C -0.16958 1.13443 -0.36417
 N20 N -0.15923 1.12213 -0.34142
 C21 C -0.13659 1.13222 -0.32871
 N22 N -0.12426 1.15495 -0.33896
 C23 C -0.13424 1.16759 -0.36167
 N24 N -0.15691 1.15713 -0.37409
 C25 C 0.66743 0.63730 0.63016
 N26 N 0.65497 0.66006 0.62005
 C27 C 0.63216 0.67058 0.63218
 N28 N 0.62191 0.65794 0.65476
 C29 C 0.63411 0.63516 0.66515
 N30 N 0.65686 0.62500 0.65274
 C31 C 0.83067 0.36547 0.13627
 N32 N 0.84333 0.34274 0.12632
 C33 C 0.86599 0.33218 0.13873
 N34 N 0.87598 0.34476 0.16146
 C35 C 0.86367 0.36752 0.17174
 N36 N 0.84104 0.37771 0.15904
 C37 C 0.33039 0.13392 0.86375
 N38 N 0.34308 0.15661 0.87371
 C39 C 0.36570 0.16702 0.86129
 N40 N 0.37566 0.15448 0.83857
 C41 C 0.36331 0.13177 0.82828
 N42 N 0.34070 0.12165 0.84098
 C43 C 0.16831 0.86293 0.37018
 N44 N 0.15574 0.84025 0.38032
 C45 C 0.13285 0.82994 0.36821
 N46 N 0.12253 0.84253 0.34564
 C47 C 0.13477 0.86521 0.33520
 N48 N 0.15762 0.87523 0.34758
 Zn49 Zn 0.00637 1.03506 -0.01280
 Zn50 Zn -0.02037 0.98019 -0.01819
 Zn51 Zn 0.03425 0.98548 0.00932
 Zn52 Zn -0.01585 1.00718 0.03660
 O53 O 0.00107 1.00195 0.00370
 O54 O -0.01063 1.03743 -0.04510
 O55 O -0.00342 0.94900 -0.02805
 O56 O 0.06247 1.00532 -0.00315
 O57 O -0.03032 0.99689 -0.04943
 O58 O 0.04176 1.04208 -0.01961
 O59 O 0.03681 0.95314 -0.00750
 O60 O 0.00388 0.99466 0.06491
 O61 O -0.05173 0.97005 -0.00181
 O62 O 0.04116 0.97877 0.04467
 O63 O -0.04821 0.99015 0.03858
 O64 O -0.02273 1.04249 0.04370
 O65 O -0.00616 1.06322 0.00710
 C66 C -0.02524 1.02069 -0.05860
 C67 C 0.02031 0.93973 -0.02246
 C68 C 0.06346 1.02842 -0.01500
 C69 C 0.02722 0.98315 0.06615
 C70 C -0.06134 0.97530 0.02177
 C71 C -0.01801 1.06417 0.03020
 Zn72 Zn 0.48391 0.00711 0.46310
 Zn73 Zn 0.47942 -0.01987 0.51788
 Zn74 Zn 0.53404 -0.01456 0.49051
 Zn75 Zn 0.50614 0.03500 0.51255
 O76 O 0.50084 0.00189 0.49604
 O77 O 0.45155 -0.00993 0.46105
 O78 O 0.49639 -0.05104 0.52779
 O79 O 0.54092 -0.02129 0.45517
 O80 O 0.44806 -0.03003 0.50142
 O81 O 0.50362 -0.00541 0.43485
 O82 O 0.53662 -0.04689 0.50736
 O83 O 0.54153 0.04205 0.51942
 O84 O 0.46947 -0.00317 0.54909
 O85 O 0.56225 0.00531 0.50300
 O86 O 0.48915 0.03737 0.54482
 O87 O 0.49359 0.06314 0.49262
 O88 O 0.47702 0.04242 0.45597
 C89 C 0.43843 -0.02480 0.47783
 C90 C 0.52012 -0.06030 0.52228
 C91 C 0.52696 -0.01692 0.43366
 C92 C 0.56323 0.02841 0.51484
 C93 C 0.47455 0.02062 0.55828
 C94 C 0.48175 0.06410 0.46949
 Zn95 Zn 1.00660 0.46451 0.48765
 Zn96 Zn 1.03436 0.51405 0.50980
 Zn97 Zn 0.97973 0.51939 0.48227
 Zn98 Zn 0.98431 0.49237 0.53706
 O99 O 1.00122 0.49761 0.50416
 O100 O 1.04201 0.45746 0.48085
 O101 O 1.03684 0.54639 0.49300
 O102 O 0.96983 0.50270 0.45101
 O103 O 1.06263 0.49421 0.49733
 O104 O 0.98963 0.46216 0.45534
 O105 O 0.99662 0.55057 0.47243
 O106 O 0.95191 0.50942 0.53903
 O107 O 1.04124 0.52075 0.54516
 O108 O 0.94835 0.52953 0.49865
 O109 O 1.00399 0.50487 0.56538
 O110 O 0.97748 0.45706 0.54413
 O111 O 0.99411 0.43635 0.50753
 C112 C 1.06367 0.47112 0.48547
 C113 C 1.02032 0.55982 0.47804
 C114 C 0.97498 0.47890 0.44184
 C115 C 0.93875 0.52429 0.52222
 C116 C 1.02730 0.51638 0.56663
 C117 C 0.98224 0.43539 0.53061
 Zn118 Zn 0.48400 0.49327 0.96348
 Zn119 Zn 0.53410 0.51491 0.99084
 Zn120 Zn 0.47948 0.52027 1.01826
 Zn121 Zn 0.50632 0.46538 1.01292
 O122 O 0.50094 0.49849 0.99641
 O123 O 0.50368 0.50576 0.93520
 O124 O 0.53661 0.54724 1.00767
 O125 O 0.44809 0.53044 1.00181
 O126 O 0.54095 0.52162 0.95550
 O127 O 0.45161 0.51033 0.96144
 O128 O 0.49639 0.55144 1.02814
 O129 O 0.48937 0.46303 1.04520
 O130 O 0.56237 0.49503 1.00334
 O131 O 0.46959 0.50358 1.04949
 O132 O 0.54173 0.45830 1.01978
 O133 O 0.49381 0.43724 0.99301
 O134 O 0.47717 0.45796 0.95637
 C135 C 0.52699 0.51726 0.93400
 C136 C 0.52010 0.56067 1.02259
 C137 C 0.43847 0.52520 0.97822
 C138 C 0.47473 0.47978 1.05867
 C139 C 0.56341 0.47193 1.01519
 C140 C 0.48195 0.43628 0.96990
 C141 C 1.27223 0.37302 0.41241
 C142 C 1.25892 0.39607 0.40180
 C143 C 1.26962 0.40931 0.37881
 C144 C 1.29345 0.39944 0.36630
 C145 C 1.30701 0.37604 0.37661
 C146 C 1.29606 0.36307 0.39999
 C147 C 1.23400 0.40584 0.41422
 C148 C 1.21297 0.41387 0.42442
 C149 C 1.18817 0.42317 0.43606
 C150 C 1.16683 0.43109 0.44569
 C151 C 1.14117 0.44060 0.45674
 C152 C 1.11728 0.42521 0.45289
 C153 C 1.09212 0.43490 0.46263
 C154 C 1.09053 0.46018 0.47636
 C155 C 1.11475 0.47531 0.48048
 C156 C 1.13989 0.46557 0.47071
 H157 H 1.26410 0.36261 0.43021
 H158 H 1.25945 0.42718 0.37042
 H159 H 1.30107 0.41013 0.34845
 H160 H 1.30572 0.34509 0.40870
 H161 H 1.11804 0.40586 0.44207
 H162 H 1.07389 0.42275 0.45910
 H163 H 1.11425 0.49485 0.49095
 H164 H 1.15826 0.47766 0.47378
 C165 C 0.22792 0.63016 0.91759
 C166 C 0.24091 0.60708 0.90665
 C167 C 0.22955 0.59387 0.88394
 C168 C 0.20543 0.60377 0.87201
 C169 C 0.19218 0.62719 0.88262
 C170 C 0.20375 0.64015 0.90573
 C171 C 0.26619 0.59716 0.91829
 C172 C 0.28754 0.58864 0.92744
 C173 C 0.31272 0.57838 0.93743
 C174 C 0.33438 0.56937 0.94530
 C175 C 0.36038 0.55826 0.95387
 C176 C 0.37529 0.54162 0.93594
 C177 C 0.40064 0.53086 0.94390
 C178 C 0.41149 0.53659 0.96998
 C179 C 0.39633 0.55333 0.98791
 C180 C 0.37093 0.56409 0.97988
 H181 H 0.23657 0.64056 0.93517
 H182 H 0.23946 0.57599 0.87530
 H183 H 0.19735 0.59307 0.85435
 H184 H 0.19434 0.65816 0.91464
 H185 H 0.36733 0.53699 0.91576
 H186 H 0.41174 0.51806 0.92959
 H187 H 0.40409 0.55814 1.00811
 H188 H 0.35955 0.57697 0.99391
 C189 C -0.27030 0.90713 0.11538
 C190 C -0.25881 0.89379 0.09280
 C191 C -0.27166 0.87059 0.08195
 C192 C -0.29580 0.86064 0.09377
 C193 C -0.30740 0.87378 0.11666
 C194 C -0.29440 0.89725 0.12723
 C195 C -0.23354 0.90367 0.08125
 C196 C -0.21220 0.91215 0.07216
 C197 C -0.18702 0.92236 0.06224
 C198 C -0.16537 0.93133 0.05443
 C199 C -0.13938 0.94237 0.04593
 C200 C -0.12884 0.93654 0.01994
 C201 C -0.10345 0.94725 0.01197
 C202 C -0.08830 0.96395 0.02995
 C203 C -0.09914 0.96970 0.05600
 C204 C -0.12448 0.95898 0.06390
 H205 H -0.26050 0.92510 0.12396
 H206 H -0.26291 0.86007 0.06450
 H207 H -0.30523 0.84255 0.08509
 H208 H -0.30272 0.90791 0.14479
 H209 H -0.14021 0.92369 0.00588
 H210 H -0.09569 0.94243 -0.00821
 H211 H -0.08804 0.98246 0.07035
 H212 H -0.13243 0.96362 0.08406
 C213 C 0.76933 0.09090 0.62088
 C214 C 0.75855 0.10408 0.59785
 C215 C 0.77182 0.12707 0.58717
 C216 C 0.79568 0.13701 0.59956
 C217 C 0.80670 0.12409 0.62297
 C218 C 0.79319 0.10076 0.63336
 C219 C 0.73361 0.09430 0.58547
 C220 C 0.71256 0.08622 0.57534
 C221 C 0.68774 0.07683 0.56380
 C222 C 0.66638 0.06882 0.55427
 C223 C 0.64071 0.05920 0.54334
 C224 C 0.61675 0.07453 0.54722
 C225 C 0.59159 0.06474 0.53757
 C226 C 0.59007 0.03941 0.52392
 C227 C 0.61435 0.02433 0.51979
 C228 C 0.63949 0.03417 0.52947
 H229 H 0.75919 0.07308 0.62933
 H230 H 0.76363 0.13744 0.56934
 H231 H 0.80531 0.15495 0.59079
 H232 H 0.80085 0.09010 0.65124
 H233 H 0.61747 0.09392 0.55796
 H234 H 0.57331 0.07686 0.54110
 H235 H 0.61390 0.00476 0.50938
 H236 H 0.65791 0.02212 0.52639
 C237 C 0.38032 0.27114 0.40450
 C238 C 0.40319 0.26006 0.39125
 C239 C 0.41400 0.27318 0.36824
 C240 C 0.40189 0.29721 0.35837
 C241 C 0.37864 0.30852 0.37138
 C242 C 0.36814 0.29514 0.39472
 C243 C 0.41520 0.23496 0.40104
 C244 C 0.42487 0.21378 0.40931
 C245 C 0.43575 0.18883 0.41906
 C246 C 0.44465 0.16738 0.42746
 C247 C 0.45482 0.14161 0.43759
 C248 C 0.45050 0.11761 0.42257
 C249 C 0.45952 0.09242 0.43278
 C250 C 0.47299 0.09090 0.45823
 C251 C 0.47750 0.11520 0.47305
 C252 C 0.46844 0.14037 0.46278
 H253 H 0.37178 0.26112 0.42234
 H254 H 0.43170 0.26474 0.35782
 H255 H 0.41072 0.30673 0.34042
 H256 H 0.35037 0.30303 0.40545
 H257 H 0.43993 0.11834 0.40306
 H258 H 0.45573 0.07413 0.42086
 H259 H 0.48779 0.11476 0.49270
 H260 H 0.47185 0.15883 0.47460
 C261 C 0.91383 0.22659 0.63118
 C262 C 0.90300 0.23972 0.60814
 C263 C 0.88010 0.22872 0.59488
 C264 C 0.86789 0.20478 0.60469
 C265 C 0.87840 0.19139 0.62807
 C266 C 0.90170 0.20263 0.64108
 C267 C 0.91505 0.26475 0.59834
 C268 C 0.92479 0.28588 0.59012
 C269 C 0.93577 0.31078 0.58045
 C270 C 0.94478 0.33219 0.57215
 C271 C 0.95508 0.35792 0.56216
 C272 C 0.96877 0.35916 0.53705
 C273 C 0.97793 0.38431 0.52690
 C274 C 0.97345 0.40859 0.54177
 C275 C 0.95992 0.40707 0.56715
 C276 C 0.95079 0.38190 0.57724
 H277 H 0.93157 0.23496 0.64161
 H278 H 0.87154 0.23874 0.57702
 H279 H 0.85009 0.19695 0.59396
 H280 H 0.91055 0.19310 0.65905
 H281 H 0.97215 0.34072 0.52519
 H282 H 0.98826 0.38475 0.50731
 H283 H 0.95614 0.42535 0.57911
 H284 H 0.94017 0.38118 0.59668
 C285 C 0.11880 0.73206 -0.08859
 C286 C 0.09566 0.74297 -0.10159
 C287 C 0.08455 0.72970 -0.12438
 C288 C 0.09663 0.70569 -0.13431
 C289 C 0.12015 0.69454 -0.12157
 C290 C 0.13096 0.70807 -0.09843
 C291 C 0.08373 0.76810 -0.09180
 C292 C 0.07420 0.78932 -0.08351
 C293 C 0.06369 0.81438 -0.07364
 C294 C 0.05534 0.83594 -0.06498
 C295 C 0.04622 0.86187 -0.05432
 C296 C 0.02006 0.87196 -0.06062
 C297 C 0.01151 0.89730 -0.05027
 C298 C 0.02908 0.91284 -0.03349
 C299 C 0.05531 0.90245 -0.02729
 C300 C 0.06378 0.87717 -0.03764
 H301 H 0.12758 0.74220 -0.07092
 H302 H 0.06664 0.73800 -0.13461
 H303 H 0.08754 0.69605 -0.15210
 H304 H 0.14894 0.70032 -0.08792
 H305 H 0.00630 0.86028 -0.07354
 H306 H -0.00880 0.90471 -0.05543
 H307 H 0.06936 0.91384 -0.01444
 H308 H 0.08408 0.86957 -0.03265
 C309 C 0.58409 0.77074 1.12433
 C310 C 0.59512 0.75750 1.10150
 C311 C 0.61815 0.76844 1.08845
 C312 C 0.63028 0.79242 1.09828
 C313 C 0.61956 0.80591 1.12147
 C314 C 0.59614 0.79474 1.13426
 C315 C 0.58322 0.73237 1.09173
 C316 C 0.57373 0.71114 1.08347
 C317 C 0.56326 0.68607 1.07363
 C318 C 0.55495 0.66449 1.06501
 C319 C 0.54588 0.63855 1.05439
 C320 C 0.56347 0.62321 1.03778
 C321 C 0.55504 0.59792 1.02746
 C322 C 0.52883 0.58756 1.03361
 C323 C 0.51123 0.60314 1.05033
 C324 C 0.51974 0.62849 1.06065
 H325 H 0.56627 0.76242 1.13461
 H326 H 0.62687 0.75832 1.07074
 H327 H 0.64818 0.80019 1.08773
 H328 H 0.58712 0.80435 1.15208
 H329 H 0.58375 0.63079 1.03282
 H330 H 0.56911 0.58649 1.01466
 H331 H 0.49094 0.59576 1.05544
 H332 H 0.50597 0.64021 1.07352
 C333 C 0.37120 0.41653 1.26816
 C334 C 0.39426 0.40567 1.25500
 C335 C 0.40753 0.38275 1.26600
 C336 C 0.39772 0.37059 1.28994
 C337 C 0.37441 0.38119 1.30325
 C338 C 0.36133 0.40441 1.29213
 C339 C 0.40406 0.41760 1.22993
 C340 C 0.41245 0.42704 1.20875
 C341 C 0.42251 0.43740 1.18375
 C342 C 0.43136 0.44558 1.16223
 C343 C 0.44226 0.45449 1.13636
 C344 C 0.45866 0.43665 1.12108
 C345 C 0.46923 0.44492 1.09586
 C346 C 0.46353 0.47123 1.08552
 C347 C 0.44704 0.48907 1.10106
 C348 C 0.43647 0.48072 1.12633
 H349 H 0.36075 0.43425 1.25980
 H350 H 0.42538 0.37415 1.25596
 H351 H 0.40832 0.35278 1.29789
 H352 H 0.34336 0.41313 1.30181
 H353 H 0.46326 0.41630 1.12864
 H354 H 0.48184 0.43067 1.08446
 H355 H 0.44227 0.50944 1.09369
 H356 H 0.42377 0.49469 1.13801
 C357 C 0.58991 -0.12000 0.22688
 C358 C 0.60305 -0.09704 0.23786
 C359 C 0.62606 -0.08614 0.22474
 C360 C 0.63605 -0.09826 0.20082
 C361 C 0.62313 -0.12152 0.18971
 C362 C 0.59984 -0.13217 0.20297
 C363 C 0.59322 -0.08502 0.26289
 C364 C 0.58507 -0.07523 0.28401
 C365 C 0.57558 -0.06412 0.30891
 C366 C 0.56748 -0.05497 0.33033
 C367 C 0.55776 -0.04449 0.35607
 C368 C 0.57334 -0.04830 0.37984
 C369 C 0.56351 -0.03901 0.40504
 C370 C 0.53789 -0.02578 0.40681
 C371 C 0.52253 -0.02175 0.38273
 C372 C 0.53241 -0.03107 0.35754
 H373 H 0.57208 -0.12863 0.23690
 H374 H 0.63641 -0.06838 0.23309
 H375 H 0.65400 -0.08949 0.19118
 H376 H 0.58937 -0.15002 0.19502
 H377 H 0.59297 -0.05870 0.37893
 H378 H 0.57585 -0.04245 0.42316
 H379 H 0.50274 -0.01166 0.38336
 H380 H 0.52017 -0.02804 0.33927
 C381 C -0.09257 1.11739 -0.26632
 C382 C -0.10585 1.09456 -0.25526
 C383 C -0.12893 1.08373 -0.26841
 C384 C -0.13883 1.09581 -0.29243
 C385 C -0.12576 1.11894 -0.30361
 C386 C -0.10242 1.12951 -0.29031
 C387 C -0.09602 1.08269 -0.23013
 C388 C -0.08762 1.07329 -0.20891
 C389 C -0.07754 1.06298 -0.18386
 C390 C -0.06869 1.05482 -0.16230
 C391 C -0.05778 1.04595 -0.13639
 C392 C -0.06349 1.01972 -0.12636
 C393 C -0.05291 1.01138 -0.10105
 C394 C -0.03647 1.02923 -0.08547
 C395 C -0.03085 1.05554 -0.09580
 C396 C -0.04144 1.06379 -0.12106
 H397 H -0.07470 1.12596 -0.25629
 H398 H -0.13939 1.06608 -0.26000
 H399 H -0.15683 1.08712 -0.30210
 H400 H -0.09182 1.14725 -0.29831
 H401 H -0.07614 1.00574 -0.13807
 H402 H -0.05762 0.99101 -0.09369
 H403 H -0.01829 1.06980 -0.08437
 H404 H -0.03690 1.08414 -0.12862
 C405 C 1.12643 0.58630 0.77544
 C406 C 1.10333 0.59716 0.76232
 C407 C 1.09018 0.62017 0.77324
 C408 C 1.10019 0.63242 0.79709
 C409 C 1.12357 0.62181 0.81035
 C410 C 1.13650 0.59850 0.79930
 C411 C 1.09343 0.58505 0.73735
 C412 C 1.08525 0.57517 0.71626
 C413 C 1.07575 0.56396 0.69139
 C414 C 1.06766 0.55472 0.66999
 C415 C 1.05799 0.54414 0.64425
 C416 C 1.07357 0.54787 0.62053
 C417 C 1.06379 0.53850 0.59532
 C418 C 1.03821 0.52527 0.59351
 C419 C 1.02284 0.52131 0.61755
 C420 C 1.03268 0.53071 0.64274
 H421 H 1.13679 0.56850 0.76714
 H422 H 1.07229 0.62876 0.76322
 H423 H 1.08972 0.65030 0.80500
 H424 H 1.15451 0.58976 0.80893
 H425 H 1.09318 0.55827 0.62147
 H426 H 1.07613 0.54189 0.57723
 H427 H 1.00308 0.51123 0.61687
 H428 H 1.02043 0.52775 0.66098
 C429 C 0.72837 0.62938 0.58242
 C430 C 0.74121 0.60615 0.59330
 C431 C 0.72971 0.59286 0.61588
 C432 C 0.70560 0.60283 0.62772
 C433 C 0.69261 0.62632 0.61712
 C434 C 0.70422 0.63941 0.59422
 C435 C 0.76648 0.59619 0.58176
 C436 C 0.78782 0.58764 0.57267
 C437 C 0.81300 0.57738 0.56275
 C438 C 0.83465 0.56837 0.55492
 C439 C 0.86066 0.55728 0.54641
 C440 C 0.87559 0.54065 0.56437
 C441 C 0.90094 0.52991 0.55646
 C442 C 0.91177 0.53566 0.53041
 C443 C 0.89658 0.55238 0.51244
 C444 C 0.87118 0.56312 0.52043
 H445 H 0.73712 0.63985 0.56496
 H446 H 0.73950 0.57487 0.62449
 H447 H 0.69727 0.59221 0.64528
 H448 H 0.69480 0.65752 0.58552
 H449 H 0.86764 0.53601 0.58453
 H450 H 0.91206 0.51712 0.57080
 H451 H 0.90433 0.55720 0.49226
 H452 H 0.85979 0.57600 0.50637
 C453 C 0.76960 0.40920 1.12137
 C454 C 0.75882 0.39608 1.09832
 C455 C 0.77208 0.37306 1.08762
 C456 C 0.79594 0.36304 1.10000
 C457 C 0.80696 0.37590 1.12343
 C458 C 0.79345 0.39926 1.13384
 C459 C 0.73387 0.40593 1.08595
 C460 C 0.71282 0.41406 1.07582
 C461 C 0.68799 0.42348 1.06426
 C462 C 0.66663 0.43151 1.05471
 C463 C 0.64094 0.44114 1.04376
 C464 C 0.61702 0.42581 1.04762
 C465 C 0.59185 0.43560 1.03795
 C466 C 0.59026 0.46093 1.02428
 C467 C 0.61451 0.47601 1.02017
 C468 C 0.63966 0.46616 1.02987
 H469 H 0.75946 0.42705 1.12984
 H470 H 0.76389 0.36274 1.06978
 H471 H 0.80556 0.34508 1.09121
 H472 H 0.80112 0.40987 1.15174
 H473 H 0.61778 0.40643 1.05837
 H474 H 0.57359 0.42349 1.04146
 H475 H 0.61402 0.49557 1.00975
 H476 H 0.65806 0.47821 1.02680
 C477 C 0.26931 1.09040 -0.12138
 C478 C 0.25861 1.10356 -0.09833
 C479 C 0.27192 1.12652 -0.08762
 C480 C 0.29575 1.13646 -0.09999
 C481 C 0.30670 1.12357 -0.12342
 C482 C 0.29314 1.10026 -0.13384
 C483 C 0.23369 1.09379 -0.08595
 C484 C 0.21267 1.08576 -0.07580
 C485 C 0.18787 1.07644 -0.06421
 C486 C 0.16654 1.06850 -0.05463
 C487 C 0.14089 1.05898 -0.04363
 C488 C 0.13967 1.03398 -0.02969
 C489 C 0.11455 1.02422 -0.01996
 C490 C 0.09028 1.03936 -0.02409
 C491 C 0.09182 1.06466 -0.03779
 C492 C 0.11696 1.07436 -0.04750
 H493 H 0.25914 1.07260 -0.12985
 H494 H 0.26378 1.13688 -0.06977
 H495 H 0.30541 1.15438 -0.09119
 H496 H 0.30076 1.08963 -0.15174
 H497 H 0.15807 1.02189 -0.02662
 H498 H 0.11409 1.00468 -0.00951
 H499 H 0.07355 1.07681 -0.04133
 H500 H 0.11768 1.09373 -0.05829
 C501 C 0.22802 -0.12963 0.41754
 C502 C 0.24101 -0.10664 0.40649
 C503 C 0.22965 -0.09351 0.38372
 C504 C 0.20553 -0.10340 0.37184
 C505 C 0.19229 -0.12674 0.38255
 C506 C 0.20386 -0.13962 0.40573
 C507 C 0.26629 -0.09673 0.41808
 C508 C 0.28763 -0.08821 0.42719
 C509 C 0.31280 -0.07795 0.43713
 C510 C 0.33444 -0.06893 0.44498
 C511 C 0.36043 -0.05784 0.45352
 C512 C 0.37529 -0.04122 0.43558
 C513 C 0.40062 -0.03046 0.44352
 C514 C 0.41149 -0.03618 0.46960
 C515 C 0.39637 -0.05290 0.48755
 C516 C 0.37099 -0.06365 0.47953
 H517 H 0.23667 -0.13997 0.43517
 H518 H 0.23956 -0.07570 0.37499
 H519 H 0.19745 -0.09276 0.35412
 H520 H 0.19444 -0.15755 0.41472
 H521 H 0.36731 -0.03659 0.41539
 H522 H 0.41168 -0.01768 0.42920
 H523 H 0.40415 -0.05770 0.50775
 H524 H 0.35965 -0.07652 0.49358
 C525 C 0.58416 -0.27027 0.62459
 C526 C 0.59522 -0.25710 0.60174
 C527 C 0.61826 -0.26814 0.58873
 C528 C 0.63036 -0.29214 0.59862
 C529 C 0.61961 -0.30556 0.62181
 C530 C 0.59619 -0.29430 0.63456
 C531 C 0.58334 -0.23196 0.59190
 C532 C 0.57387 -0.21072 0.58357
 C533 C 0.56340 -0.18565 0.57365
 C534 C 0.55509 -0.16408 0.56496
 C535 C 0.54600 -0.13815 0.55426
 C536 C 0.56358 -0.12286 0.53764
 C537 C 0.55513 -0.09758 0.52725
 C538 C 0.52888 -0.08718 0.53335
 C539 C 0.51130 -0.10271 0.55007
 C540 C 0.51983 -0.12805 0.56046
 H541 H 0.56633 -0.26188 0.63483
 H542 H 0.62700 -0.25807 0.57102
 H543 H 0.64827 -0.29999 0.58809
 H544 H 0.58715 -0.30386 0.65239
 H545 H 0.58388 -0.13047 0.53272
 H546 H 0.56918 -0.08619 0.51445
 H547 H 0.49098 -0.09530 0.55515
 H548 H 0.50606 -0.13972 0.57334
 C549 C 1.08421 0.76980 0.37622
 C550 C 1.09529 0.75659 0.39911
 C551 C 1.11836 0.76756 0.41216
 C552 C 1.13045 0.79153 0.40229
 C553 C 1.11962 0.80489 0.37913
 C554 C 1.09625 0.79379 0.36629
 C555 C 1.08342 0.73147 0.40890
 C556 C 1.07394 0.71025 0.41718
 C557 C 1.06346 0.68520 0.42703
 C558 C 1.05515 0.66363 0.43565
 C559 C 1.04608 0.63770 0.44628
 C560 C 1.06367 0.62237 0.46295
 C561 C 1.05525 0.59709 0.47326
 C562 C 1.02904 0.58671 0.46704
 C563 C 1.01144 0.60228 0.45026
 C564 C 1.01994 0.62763 0.43995
 H565 H 1.06638 0.76146 0.36593
 H566 H 1.12713 0.75747 0.42988
 H567 H 1.14838 0.79946 0.41270
 H568 H 1.08735 0.80350 0.34845
 H569 H 1.08395 0.62996 0.46796
 H570 H 1.06931 0.58567 0.48611
 H571 H 0.99115 0.59489 0.44509
 H572 H 1.00617 0.63934 0.42703
 C573 C -0.08600 1.27302 0.13145
 C574 C -0.09684 1.25997 0.10839
 C575 C -0.11974 1.27109 0.09516
 C576 C -0.13192 1.29505 0.10503
 C577 C -0.12139 1.30835 0.12843
 C578 C -0.09810 1.29700 0.14141
 C579 C -0.08483 1.23491 0.09853
 C580 C -0.07514 1.21377 0.09023
 C581 C -0.06423 1.18884 0.08046
 C582 C -0.05528 1.16741 0.07207
 C583 C -0.04506 1.14166 0.06198
 C584 C -0.03144 1.14043 0.03682
 C585 C -0.02233 1.11527 0.02660
 C586 C -0.02679 1.09097 0.04142
 C587 C -0.04026 1.09248 0.06683
 C588 C -0.04934 1.11766 0.07700
 H589 H -0.06827 1.26456 0.14186
 H590 H -0.12832 1.26113 0.07729
 H591 H -0.14972 1.30296 0.09432
 H592 H -0.08923 1.30646 0.15939
 H593 H -0.02806 1.15889 0.02500
 H594 H -0.01204 1.11484 0.00698
 H595 H -0.04403 1.07419 0.07876
 H596 H -0.05990 1.11838 0.09648
 C597 C 0.41413 0.22740 0.86886
 C598 C 0.40338 0.24043 0.89198
 C599 C 0.38060 0.22927 0.90531
 C600 C 0.36848 0.20529 0.89548
 C601 C 0.37898 0.19210 0.87211
 C602 C 0.40205 0.20339 0.85898
 C603 C 0.41534 0.26551 0.90179
 C604 C 0.42499 0.28667 0.91004
 C605 C 0.43587 0.31161 0.91975
 C606 C 0.44479 0.33305 0.92811
 C607 C 0.45499 0.35880 0.93817
 C608 C 0.46866 0.36004 0.96333
 C609 C 0.47773 0.38520 0.97354
 C610 C 0.47320 0.40949 0.95869
 C611 C 0.45968 0.40796 0.93327
 C612 C 0.45063 0.38278 0.92312
 H613 H 0.43175 0.23588 0.85837
 H614 H 0.37209 0.23921 0.92322
 H615 H 0.35078 0.19720 0.90612
 H616 H 0.41069 0.19381 0.84096
 H617 H 0.47210 0.34159 0.97517
 H618 H 0.48806 0.38564 0.99316
 H619 H 0.45585 0.42625 0.92132
 H620 H 0.44003 0.38206 0.90363
 C621 C 0.62594 0.58648 0.72513
 C622 C 0.60293 0.59746 0.73824
 C623 C 0.58982 0.62048 0.72726
 C624 C 0.59978 0.63262 0.70336
 C625 C 0.62307 0.62189 0.69011
 C626 C 0.63596 0.59857 0.70122
 C627 C 0.59307 0.58545 0.76325
 C628 C 0.58492 0.57567 0.78436
 C629 C 0.57543 0.56455 0.80926
 C630 C 0.56735 0.55538 0.83067
 C631 C 0.55766 0.54488 0.85641
 C632 C 0.53235 0.53148 0.85789
 C633 C 0.52251 0.52213 0.88307
 C634 C 0.53788 0.52612 0.90714
 C635 C 0.56347 0.53934 0.90537
 C636 C 0.57326 0.54865 0.88016
 H637 H 0.63626 0.56867 0.73348
 H638 H 0.57199 0.62917 0.73727
 H639 H 0.58934 0.65051 0.69540
 H640 H 0.65390 0.58974 0.69159
 H641 H 0.52009 0.52848 0.83962
 H642 H 0.50274 0.51206 0.88371
 H643 H 0.57582 0.54275 0.92348
 H644 H 0.59287 0.55904 0.87925
 C645 C 0.37086 0.08339 0.76791
 C646 C 0.39393 0.09423 0.75481
 C647 C 0.40722 0.11705 0.76592
 C648 C 0.39741 0.12912 0.78992
 C649 C 0.37409 0.11853 0.80318
 C650 C 0.36100 0.09542 0.79194
 C651 C 0.40373 0.08240 0.72968
 C652 C 0.41212 0.07304 0.70846
 C653 C 0.42220 0.06277 0.68342
 C654 C 0.43106 0.05466 0.66187
 C655 C 0.44197 0.04581 0.63599
 C656 C 0.45831 0.06368 0.62071
 C657 C 0.46890 0.05545 0.59548
 C658 C 0.46330 0.02915 0.58512
 C659 C 0.44688 0.01127 0.60065
 C660 C 0.43628 0.01958 0.62593
 H661 H 0.36039 0.06575 0.75946
 H662 H 0.42508 0.12563 0.75593
 H663 H 0.40803 0.14685 0.79796
 H664 H 0.34302 0.08672 0.80158
 H665 H 0.46283 0.08403 0.62830
 H666 H 0.48146 0.06973 0.58410
 H667 H 0.44219 -0.00909 0.59326
 H668 H 0.42364 0.00559 0.63759
 C669 C 0.12660 0.91384 0.27515
 C670 C 0.10349 0.90299 0.26207
 C671 C 0.09033 0.88008 0.27311
 C672 C 0.10032 0.86792 0.29702
 C673 C 0.12370 0.87852 0.31023
 C674 C 0.13665 0.90172 0.29907
 C675 C 0.09361 0.91501 0.23704
 C676 C 0.08542 0.92480 0.21591
 C677 C 0.07590 0.93591 0.19100
 C678 C 0.06777 0.94507 0.16956
 C679 C 0.05804 0.95556 0.14380
 C680 C 0.03269 0.96898 0.14228
 C681 C 0.02280 0.97831 0.11707
 C682 C 0.03816 0.97429 0.09303
 C683 C 0.06378 0.96106 0.09485
 C684 C 0.07361 0.95176 0.12007
 H685 H 0.13697 0.93156 0.26676
 H686 H 0.07243 0.87150 0.26312
 H687 H 0.08983 0.85011 0.30501
 H688 H 0.15466 0.91045 0.30867
 H689 H 0.02046 0.97200 0.16052
 H690 H 0.00301 0.98841 0.11639
 H691 H 0.07611 0.95763 0.07676
 H692 H 0.09325 0.94136 0.12103
 C693 C 0.90770 0.38215 0.23414
 C694 C 0.89446 0.40504 0.24520
 C695 C 0.87138 0.41596 0.23205
 C696 C 0.86147 0.40393 0.20803
 C697 C 0.87452 0.38074 0.19684
 C698 C 0.89784 0.37008 0.21014
 C699 C 0.90430 0.41689 0.27032
 C700 C 0.91270 0.42628 0.29154
 C701 C 0.92278 0.43659 0.31659
 C702 C 0.93162 0.44475 0.33814
 C703 C 0.94251 0.45364 0.36404
 C704 C 0.95891 0.43580 0.37937
 C705 C 0.96947 0.44406 0.40463
 C706 C 0.96377 0.47036 0.41496
 C707 C 0.94728 0.48821 0.39938
 C708 C 0.93672 0.47987 0.37407
 H709 H 0.92556 0.37351 0.24417
 H710 H 0.86095 0.43366 0.24046
 H711 H 0.84349 0.41269 0.19835
 H712 H 0.90842 0.35230 0.20215
 H713 H 0.96351 0.41545 0.37182
 H714 H 0.98209 0.42980 0.41605
 H715 H 0.94251 0.50857 0.40674
 H716 H 0.92402 0.49384 0.36236
   
