data_POSCAR
  _audit_creation_date              2014-09-24
  _audit_creation_method            'ToBaCCo'
  _symmetry_space_group_name_H-M    'P1'
  _symmetry_Int_Tables_number       1
  _symmetry_cell_setting            triclinic
  loop_
  _symmetry_equiv_pos_as_xyz
 x,y,z
_cell_length_a 34.1948
_cell_length_b 34.2367
_cell_length_c 44.4807
_cell_angle_alpha 89.833500
_cell_angle_beta 90.052800
_cell_angle_gamma 89.969400
loop_
  _atom_site_label
  _atom_site_type_symbol
  _atom_site_fract_x
  _atom_site_fract_y
  _atom_site_fract_z
B1 B 0.26389 0.23638 0.28103
 B2 B 0.21692 0.22971 0.27257
 B3 B 0.23377 0.27465 0.27866
 B4 B 0.27937 0.27798 0.26469
 B5 B 0.29034 0.23341 0.24944
 B6 B 0.25123 0.20313 0.25481
 B7 B 0.22760 0.26375 0.21928
 B8 B 0.27455 0.27043 0.22770
 B9 B 0.25775 0.22552 0.22163
 B10 B 0.21217 0.22217 0.23558
 B11 B 0.20118 0.26674 0.25085
 B12 B 0.24029 0.29701 0.24546
 B13 B 0.73146 0.76445 0.28058
 B14 B 0.77874 0.77131 0.27334
 B15 B 0.76180 0.72633 0.27900
 B16 B 0.71684 0.72290 0.26391
 B17 B 0.70631 0.76753 0.24835
 B18 B 0.74511 0.79793 0.25472
 B19 B 0.77036 0.73761 0.21979
 B20 B 0.72314 0.73071 0.22707
 B21 B 0.74000 0.77575 0.22139
 B22 B 0.78502 0.77916 0.23647
 B23 B 0.79551 0.73450 0.25202
 B24 B 0.75676 0.70415 0.24571
 B25 B 0.73679 0.22964 -0.22131
 B26 B 0.73010 0.27664 -0.22946
 B27 B 0.77509 0.25968 -0.22361
 B28 B 0.77825 0.21431 -0.23783
 B29 B 0.73345 0.20366 -0.25304
 B30 B 0.70324 0.24272 -0.24734
 B31 B 0.76364 0.26663 -0.28291
 B32 B 0.77032 0.21961 -0.27477
 B33 B 0.72533 0.23660 -0.28062
 B34 B 0.72218 0.28195 -0.26639
 B35 B 0.76696 0.29261 -0.25118
 B36 B 0.79718 0.25354 -0.25688
 B37 B 0.26443 0.77044 -0.21750
 B38 B 0.27049 0.72332 -0.22541
 B39 B 0.22575 0.74085 -0.21946
 B40 B 0.22299 0.78624 -0.23393
 B41 B 0.26775 0.79631 -0.24939
 B42 B 0.29754 0.75691 -0.24362
 B43 B 0.23648 0.73368 -0.27881
 B44 B 0.23047 0.78082 -0.27089
 B45 B 0.27520 0.76324 -0.27683
 B46 B 0.27794 0.71788 -0.26236
 B47 B 0.23319 0.70779 -0.24690
 B48 B 0.20338 0.74723 -0.25269
 B49 B 1.23229 1.26537 0.78069
 B50 B 1.27966 1.27116 0.77325
 B51 B 1.26168 1.22654 0.77870
 B52 B 1.21649 1.22439 0.76379
 B53 B 1.20698 1.26947 0.74860
 B54 B 1.24655 1.29881 0.75499
 B55 B 1.27003 1.23833 0.71953
 B56 B 1.22271 1.23255 0.72697
 B57 B 1.24066 1.27718 0.72156
 B58 B 1.28583 1.27928 0.73642
 B59 B 1.29534 1.23420 0.75161
 B60 B 1.25579 1.20488 0.74525
 B61 B 0.76490 0.73786 0.78109
 B62 B 0.71790 0.73128 0.77272
 B63 B 0.73484 0.77618 0.77877
 B64 B 0.78038 0.77944 0.76476
 B65 B 0.79127 0.73489 0.74946
 B66 B 0.75212 0.70464 0.75487
 B67 B 0.72850 0.76534 0.71940
 B68 B 0.77548 0.77197 0.72777
 B69 B 0.75862 0.72707 0.72167
 B70 B 0.71303 0.72375 0.73571
 B71 B 0.70215 0.76833 0.75102
 B72 B 0.74129 0.79855 0.74559
 B73 B 1.23920 0.72732 0.27783
 B74 B 1.23225 0.77436 0.27003
 B75 B 1.27734 0.75760 0.27573
 B76 B 1.28073 0.71242 0.26120
 B77 B 1.23596 0.70171 0.24594
 B78 B 1.20557 0.74053 0.25192
 B79 B 1.26576 0.76518 0.21647
 B80 B 1.27272 0.71809 0.22429
 B81 B 1.22763 0.73493 0.21860
 B82 B 1.22423 0.78011 0.23316
 B83 B 1.26899 0.79082 0.24839
 B84 B 1.29942 0.75197 0.24238
 B85 B 0.77717 1.26166 0.22373
 B86 B 0.73257 1.27959 0.22967
 B87 B 0.73819 1.23245 0.22159
 B88 B 0.77946 1.21618 0.23802
 B89 B 0.79936 1.25489 0.25697
 B90 B 0.76993 1.29461 0.25131
 B91 B 0.72735 1.23932 0.28094
 B92 B 0.77194 1.22141 0.27499
 B93 B 0.76629 1.26853 0.28310
 B94 B 0.72503 1.28483 0.26664
 B95 B 0.70514 1.24612 0.24770
 B96 B 0.73457 1.20639 0.25337
 O97 O 0.55195 1.07266 0.05624
 O98 O 0.59713 1.03939 0.02784
 C99 C 0.58752 1.06420 0.04868
 O100 O 0.44780 0.92818 0.05199
 O101 O 0.40261 0.96472 0.02586
 C102 C 0.41223 0.93725 0.04472
 O103 O 0.55586 0.93515 0.05563
 O104 O 0.59906 0.97148 0.02750
 C105 C 0.59088 0.94592 0.04827
 O106 O 0.44366 1.07290 0.05336
 O107 O 0.40053 1.03501 0.02651
 C108 C 0.40863 1.06202 0.04609
 Zr109 Zr 0.49843 1.05110 0.03951
 O110 O 0.49770 1.04292 0.08662
 O111 O 0.49727 1.11250 0.04445
 Zr112 Zr 0.50124 0.95384 0.03889
 O113 O 0.49971 0.96036 0.08611
 O114 O 0.50376 0.89232 0.04302
 O115 O 0.53538 1.00340 0.04495
 O116 O 0.46496 1.00139 0.04454
 O117 O 0.44359 1.07325 -0.05122
 O118 O 0.40050 1.03526 -0.02433
 C119 C 0.40859 1.06231 -0.04397
 O120 O 0.55586 0.93708 -0.05434
 O121 O 0.59913 0.97246 -0.02571
 C122 C 0.59088 0.94752 -0.04682
 O123 O 0.44775 0.93076 -0.05172
 O124 O 0.40260 0.96577 -0.02459
 C125 C 0.41221 0.93936 -0.04420
 O126 O 0.55218 1.07361 -0.05331
 O127 O 0.59729 1.03975 -0.02507
 C128 C 0.58773 1.06485 -0.04580
 Zr129 Zr 0.49850 1.05258 -0.03637
 O130 O 0.49443 1.05280 -0.08388
 O131 O 0.50020 1.11440 -0.03559
 Zr132 Zr 0.50131 0.95461 -0.03698
 O133 O 0.49692 0.95583 -0.08448
 O134 O 0.50679 0.89299 -0.03715
 Zr135 Zr 0.55909 1.00469 0.00115
 Zr136 Zr 0.44089 1.00140 0.00104
 O137 O 0.46563 1.00268 -0.04225
 O138 O 0.53514 1.00467 -0.04261
 O139 O 0.46336 1.05877 0.00155
 O140 O 0.53566 0.94787 0.00092
 O141 O 0.53238 1.06011 0.00162
 O142 O 0.46669 0.94540 0.00083
 H143 H 0.44698 1.00053 0.06199
 H144 H 0.55383 0.92533 0.00069
 H145 H 0.44816 1.00233 -0.06003
 H146 H 0.54913 1.08371 0.00167
 H147 H 0.51189 0.88194 0.02330
 H148 H 0.48581 0.88229 -0.02422
 H149 H 0.51879 0.97181 -0.09226
 H150 H 0.51705 1.03807 -0.09180
 H151 H 0.47810 1.12342 -0.02304
 H152 H 0.50382 1.12389 0.02467
 H153 H 0.49562 1.06936 0.09548
 H154 H 0.49915 0.93356 0.09455
 O155 O 1.05218 0.57355 0.55531
 O156 O 1.09724 0.53982 0.52711
 C157 C 1.08771 0.56496 0.54774
 O158 O 0.94821 0.42888 0.55299
 O159 O 0.90282 0.46489 0.52664
 C160 C 0.91259 0.43775 0.54573
 O161 O 1.05631 0.43594 0.55603
 O162 O 1.09928 0.47188 0.52740
 C163 C 1.09126 0.44659 0.54841
 O164 O 0.94393 0.57355 0.55296
 O165 O 0.90064 0.53522 0.52663
 C166 C 0.90886 0.56253 0.54596
 Zr167 Zr 0.99862 0.55162 0.53901
 O168 O 0.99829 0.54438 0.58622
 O169 O 0.99724 0.61313 0.54320
 Zr170 Zr 1.00154 0.45436 0.53939
 O171 O 1.00043 0.46179 0.58654
 O172 O 1.00393 0.39290 0.54417
 O173 O 1.03567 0.50405 0.54480
 O174 O 0.96525 0.50196 0.54470
 O175 O 0.94321 0.57227 0.44840
 O176 O 0.90032 0.53468 0.47580
 C177 C 0.90827 0.56148 0.45593
 O178 O 1.05550 0.43608 0.44605
 O179 O 1.09896 0.47193 0.47416
 C180 C 1.09057 0.44668 0.45330
 O181 O 0.94752 0.42958 0.44929
 O182 O 0.90247 0.46502 0.47619
 C183 C 0.91202 0.43827 0.45682
 O184 O 1.05177 0.57261 0.44580
 O185 O 1.09708 0.53923 0.47417
 C186 C 1.08738 0.56399 0.45324
 Zr187 Zr 0.99821 0.55176 0.46313
 O188 O 0.99374 0.55086 0.41564
 O189 O 0.99987 0.61359 0.46309
 Zr190 Zr 1.00109 0.45381 0.46353
 O191 O 0.99633 0.45414 0.41605
 O192 O 1.00663 0.39221 0.46406
 Zr193 Zr 1.05909 0.50460 0.50089
 Zr194 Zr 0.94087 0.50120 0.50131
 O195 O 0.96531 0.50176 0.45791
 O196 O 1.03485 0.50379 0.45724
 O197 O 0.96331 0.55859 0.50112
 O198 O 1.03572 0.44776 0.50134
 O199 O 1.03233 0.56000 0.50090
 O200 O 0.96674 0.44524 0.50157
 H201 H 0.94740 0.50138 0.56224
 H202 H 1.05394 0.42527 0.50123
 H203 H 0.94768 0.50109 0.44023
 H204 H 1.04906 0.58360 0.50063
 H205 H 1.01333 0.38219 0.52489
 H206 H 0.98610 0.38181 0.47755
 H207 H 1.01795 0.47025 0.40801
 H208 H 1.01667 0.53656 0.40776
 H209 H 0.97813 0.62286 0.47590
 H210 H 1.00439 0.62416 0.52342
 H211 H 0.99632 0.57099 0.59478
 H212 H 0.99994 0.43515 0.59528
 O213 O 0.93013 0.44499 -0.05606
 O214 O 0.96616 0.40159 -0.02783
 C215 C 0.94080 0.40995 -0.04871
 O216 O 1.06827 0.55663 -0.05307
 O217 O 1.03011 0.59964 -0.02639
 C218 C 1.05741 0.59159 -0.04578
 O219 O 1.06785 0.44846 -0.05598
 O220 O 1.03414 0.40327 -0.02775
 C221 C 1.05928 0.41292 -0.04841
 O222 O 0.92330 0.55287 -0.05243
 O223 O 0.95968 0.59776 -0.02611
 C224 C 0.93240 0.58833 -0.04515
 Zr225 Zr 0.94874 0.49937 -0.03917
 O226 O 0.95576 0.50116 -0.08636
 O227 O 0.88719 0.49688 -0.04353
 Zr228 Zr 1.04612 0.50190 -0.03943
 O229 O 1.03842 0.50290 -0.08657
 O230 O 1.10766 0.50309 -0.04415
 O231 O 0.99836 0.46517 -0.04507
 O232 O 0.99647 0.53550 -0.04463
 O233 O 0.92515 0.55243 0.05152
 O234 O 0.96048 0.59755 0.02447
 C235 C 0.93400 0.58795 0.04411
 O236 O 1.06793 0.44760 0.05327
 O237 O 1.03402 0.40281 0.02501
 C238 C 1.05918 0.41217 0.04569
 O239 O 1.06785 0.55595 0.05126
 O240 O 1.03009 0.59931 0.02435
 C241 C 1.05713 0.59099 0.04395
 O242 O 0.93127 0.44430 0.05416
 O243 O 0.96670 0.40120 0.02548
 C244 C 0.94179 0.40934 0.04666
 Zr245 Zr 0.94876 0.49886 0.03668
 O246 O 0.94905 0.50296 0.08418
 O247 O 0.88707 0.49350 0.03629
 Zr248 Zr 1.04687 0.50136 0.03648
 O249 O 1.04614 0.50515 0.08400
 O250 O 1.10877 0.49953 0.03626
 Zr251 Zr 0.99922 0.44124 -0.00127
 Zr252 Zr 0.99612 0.55929 -0.00111
 O253 O 0.99695 0.53431 0.04217
 O254 O 0.99879 0.46490 0.04250
 O255 O 0.93997 0.53372 -0.00114
 O256 O 1.05474 0.46778 -0.00151
 O257 O 0.94234 0.46475 -0.00124
 O258 O 1.05349 0.53663 -0.00140
 H259 H 0.99585 0.55357 -0.06207
 H260 H 1.07836 0.45103 -0.00147
 H261 H 0.99658 0.55167 0.05995
 H262 H 0.91978 0.44662 -0.00110
 H263 H 1.11893 0.49532 -0.02458
 H264 H 1.11799 0.52094 0.02306
 H265 H 1.03232 0.48189 0.09184
 H266 H 0.96593 0.48179 0.09202
 H267 H 0.87652 0.51518 0.02394
 H268 H 0.87661 0.48955 -0.02366
 H269 H 0.92902 0.50183 -0.09493
 H270 H 1.06498 0.50501 -0.09530
 O271 O 0.42982 0.94506 0.44378
 O272 O 0.46580 0.90164 0.47206
 C273 C 0.44049 0.91000 0.45112
 O274 O 0.56814 1.05660 0.44716
 O275 O 0.52990 1.09965 0.47375
 C276 C 0.55730 1.09157 0.45444
 O277 O 0.56745 0.94851 0.44403
 O278 O 0.53375 0.90330 0.47224
 C279 C 0.55886 0.91297 0.45157
 O280 O 0.42300 1.05296 0.44756
 O281 O 0.45936 1.09783 0.47392
 C282 C 0.43208 1.08841 0.45487
 Zr283 Zr 0.44840 0.99943 0.46076
 O284 O 0.45549 1.00130 0.41358
 O285 O 0.38686 0.99704 0.45633
 Zr286 Zr 0.54578 1.00193 0.46066
 O287 O 0.53816 1.00313 0.41351
 O288 O 0.60731 1.00272 0.45598
 O289 O 0.49803 0.96523 0.45492
 O290 O 0.49616 1.03557 0.45540
 O291 O 0.42451 1.05237 0.55142
 O292 O 0.45992 1.09753 0.52447
 C293 C 0.43335 1.08790 0.54403
 O294 O 0.56734 0.94762 0.55339
 O295 O 0.53356 0.90283 0.52505
 C296 C 0.55865 0.91220 0.54577
 O297 O 0.56720 1.05594 0.55149
 O298 O 0.52959 1.09934 0.52449
 C299 C 0.55653 1.09099 0.54418
 O300 O 0.43063 0.94425 0.55393
 O301 O 0.46621 0.90118 0.52534
 C302 C 0.44119 0.90931 0.54644
 Zr303 Zr 0.44825 0.99885 0.53661
 O304 O 0.44854 1.00288 0.58412
 O305 O 0.38654 0.99357 0.53617
 Zr306 Zr 0.54634 1.00135 0.53657
 O307 O 0.54553 1.00507 0.58409
 O308 O 0.60824 0.99949 0.53642
 Zr309 Zr 0.49879 0.94126 0.49870
 Zr310 Zr 0.49572 1.05932 0.49893
 O311 O 0.49641 1.03430 0.54219
 O312 O 0.49825 0.96487 0.54248
 O313 O 0.43957 1.03375 0.49880
 O314 O 0.55431 0.96779 0.49856
 O315 O 0.44192 0.96478 0.49865
 O316 O 0.55308 1.03664 0.49871
 H317 H 0.49560 1.05369 0.43798
 H318 H 0.57794 0.95106 0.49860
 H319 H 0.49596 1.05165 0.55998
 H320 H 0.41935 0.94665 0.49874
 H321 H 0.61848 0.99654 0.47591
 H322 H 0.61755 1.02131 0.52365
 H323 H 0.53140 0.98197 0.59187
 H324 H 0.46499 0.98138 0.59198
 H325 H 0.37607 1.01507 0.52360
 H326 H 0.37623 0.98910 0.47605
 H327 H 0.42876 1.00210 0.40499
 H328 H 0.56474 1.00517 0.40480
 O329 O 1.09318 0.95960 0.54264
 O330 O 1.04646 0.98197 0.57552
 C331 C 1.08017 0.96675 0.56939
 O332 O 1.03962 1.08507 0.45471
 O333 O 1.01997 1.03548 0.42342
 C334 C 1.03394 1.06998 0.42841
 O335 O 1.04707 1.08720 0.53843
 O336 O 1.02459 1.04327 0.57360
 C337 C 1.04177 1.07543 0.56581
 O338 O 1.08867 0.94927 0.45909
 O339 O 1.04247 0.97124 0.42543
 C340 C 1.07492 0.95377 0.43218
 Zr341 Zr 1.06563 0.96767 0.50064
 O342 O 1.12158 0.99358 0.49767
 O343 O 1.09006 0.91119 0.50519
 Zr344 Zr 1.03247 1.05978 0.49760
 O345 O 1.09261 1.07366 0.49518
 O346 O 1.01738 1.11963 0.49742
 O347 O 1.05656 1.01780 0.52589
 O348 O 1.05518 1.01454 0.47250
 O349 O 0.96120 0.90507 0.46198
 O350 O 0.98142 0.95020 0.42699
 C351 C 0.96646 0.91696 0.43464
 O352 O 0.91297 1.03923 0.54154
 O353 O 0.96081 1.02064 0.57493
 C354 C 0.92682 1.03492 0.56842
 O355 O 0.91390 1.03898 0.45748
 O356 O 0.95921 1.01389 0.42467
 C357 C 0.92680 1.03170 0.43074
 O358 O 0.95817 0.91233 0.54581
 O359 O 0.98253 0.95975 0.57710
 C360 C 0.96473 0.92709 0.57208
 Zr361 Zr 0.97277 0.93397 0.50287
 O362 O 0.91526 0.91133 0.50102
 O363 O 0.99538 0.87675 0.50829
 Zr364 Zr 0.93915 1.02680 0.49977
 O365 O 0.88102 1.00569 0.49764
 O366 O 0.91819 1.08499 0.50124
 Zr367 Zr 1.00312 0.99968 0.54482
 Zr368 Zr 1.00144 0.99447 0.45566
 O369 O 0.94858 0.97648 0.47549
 O370 O 0.94911 0.97936 0.52816
 O371 O 1.02124 0.94196 0.47533
 O372 O 0.98382 1.05175 0.52445
 O373 O 1.02209 0.94552 0.52803
 O374 O 0.98263 1.04914 0.47189
 H375 H 1.07625 1.02126 0.45809
 H376 H 0.97637 1.07421 0.53722
 H377 H 0.92659 0.96815 0.46248
 H378 H 1.02999 0.92467 0.54230
 H379 H 0.98866 1.12083 0.49532
 H380 H 0.92830 1.09881 0.48329
 H381 H 0.87678 0.98878 0.51540
 H382 H 0.89929 0.92639 0.51543
 H383 H 1.01018 0.87016 0.48988
 H384 H 1.07264 0.89310 0.49426
 H385 H 1.14056 0.97171 0.49772
 H386 H 1.09402 1.10245 0.49325
 O387 O 0.59031 0.45336 -0.04246
 O388 O 0.54409 0.47694 -0.07545
 C389 C 0.57686 0.45981 -0.06925
 O390 O 0.45779 0.40807 0.04157
 O391 O 0.48142 0.45347 0.07497
 C392 C 0.46372 0.42116 0.06849
 O393 O 0.46338 0.40631 -0.04244
 O394 O 0.48304 0.45430 -0.07541
 C395 C 0.46871 0.42022 -0.06922
 O396 O 0.59330 0.45761 0.04148
 O397 O 0.54562 0.47637 0.07484
 C398 C 0.57983 0.46257 0.06839
 Zr399 Zr 0.56545 0.46660 -0.00033
 O400 O 0.58108 0.40687 0.00062
 O401 O 0.62465 0.48407 -0.00309
 Zr402 Zr 0.47360 0.43252 -0.00034
 O403 O 0.50051 0.37694 0.00079
 O404 O 0.41723 0.40740 -0.00320
 O405 O 0.52196 0.44305 -0.02736
 O406 O 0.52204 0.44262 0.02611
 O407 O 0.54649 0.58306 0.04247
 O408 O 0.52351 0.53665 0.07542
 C409 C 0.54097 0.56917 0.06923
 O410 O 0.41401 0.54085 -0.04155
 O411 O 0.45932 0.51718 -0.07494
 C412 C 0.42702 0.53491 -0.06846
 O413 O 0.41216 0.53481 0.04228
 O414 O 0.45965 0.51413 0.07524
 C415 C 0.42575 0.52888 0.06906
 O416 O 0.54138 0.58689 -0.04156
 O417 O 0.52115 0.54001 -0.07494
 C418 C 0.53572 0.57380 -0.06847
 Zr419 Zr 0.53118 0.55956 0.00027
 O420 O 0.50854 0.61691 0.00431
 O421 O 0.58859 0.58228 -0.00315
 Zr422 Zr 0.43866 0.52499 0.00019
 O423 O 0.41554 0.58211 0.00387
 O424 O 0.38136 0.50196 -0.00340
 Zr425 Zr 0.50205 0.49683 -0.04472
 Zr426 Zr 0.50241 0.49552 0.04455
 O427 O 0.48257 0.54875 0.02635
 O428 O 0.48214 0.55000 -0.02650
 O429 O 0.55580 0.51543 0.02653
 O430 O 0.44921 0.47663 -0.02614
 O431 O 0.55515 0.51597 -0.02596
 O432 O 0.44892 0.47578 0.02658
 H433 H 0.52981 0.42115 0.03987
 H434 H 0.42754 0.46888 -0.03967
 H435 H 0.47491 0.57012 0.04012
 H436 H 0.57689 0.52402 -0.03932
 H437 H 0.39948 0.42432 0.00849
 H438 H 0.37622 0.48621 0.01486
 H439 H 0.43014 0.59882 -0.01038
 H440 H 0.49246 0.62229 -0.01373
 H441 H 0.60450 0.56983 0.01279
 H442 H 0.62718 0.50816 0.00893
 H443 H 0.61004 0.40618 0.00121
 H444 H 0.47889 0.35770 0.00126
 C445 C 0.27019 1.20216 0.19349
 C446 C 0.28124 1.18404 0.17180
 C447 C 0.29594 1.16248 0.14629
 C448 C 0.29305 1.12162 0.14554
 C449 C 0.31073 1.10047 0.12227
 C450 C 0.33134 1.12003 0.09951
 C451 C 0.33323 1.16096 0.09982
 C452 C 0.31559 1.18209 0.12309
 C453 C 0.35486 1.09828 0.07833
 C454 C 0.37753 1.08096 0.06231
 H455 H 0.27819 1.10605 0.16343
 H456 H 0.30953 1.06886 0.12263
 H457 H 0.34958 1.17647 0.08268
 H458 H 0.31833 1.21362 0.12348
 C459 C 0.77106 0.70370 0.69349
 C460 C 0.78214 0.68550 0.67183
 C461 C 0.79683 0.66376 0.64636
 C462 C 0.81613 0.68323 0.62291
 C463 C 0.83368 0.66194 0.59966
 C464 C 0.83205 0.62099 0.59961
 C465 C 0.81184 0.60157 0.62266
 C466 C 0.79425 0.62287 0.64590
 C467 C 0.85539 0.59910 0.57836
 C468 C 0.87789 0.58164 0.56226
 H469 H 0.81863 0.71478 0.62306
 H470 H 0.84972 0.67737 0.58232
 H471 H 0.81085 0.56995 0.62324
 H472 H 0.77968 0.60739 0.66397
 C473 C 0.72849 0.79977 0.19326
 C474 C 0.71801 0.81912 0.17194
 C475 C 0.70388 0.84257 0.14713
 C476 C 0.68860 0.82459 0.12141
 C477 C 0.67102 0.84714 0.09879
 C478 C 0.66861 0.88786 0.10168
 C479 C 0.68498 0.90595 0.12698
 C480 C 0.70259 0.88339 0.14960
 C481 C 0.64483 0.91015 0.08090
 C482 C 0.62201 0.92750 0.06492
 H483 H 0.68910 0.79307 0.11930
 H484 H 0.65798 0.83269 0.07961
 H485 H 0.68283 0.93730 0.12977
 H486 H 0.71403 0.89768 0.16945
 C487 C 1.22946 0.30158 0.69356
 C488 C 1.21906 0.32088 0.67220
 C489 C 1.20488 0.34404 0.64726
 C490 C 1.18883 0.32572 0.62196
 C491 C 1.17109 0.34802 0.59928
 C492 C 1.16931 0.38883 0.60168
 C493 C 1.18643 0.40723 0.62655
 C494 C 1.20420 0.38492 0.64923
 C495 C 1.14542 0.41100 0.58091
 C496 C 1.12250 0.42829 0.56498
 H497 H 1.18885 0.29415 0.62026
 H498 H 1.15744 0.33333 0.58045
 H499 H 1.18473 0.43866 0.62897
 H500 H 1.21621 0.39946 0.66877
 C501 C 0.72366 1.21066 -0.19148
 C502 C 0.71273 1.19358 -0.16922
 C503 C 0.69859 1.17152 -0.14376
 C504 C 0.67677 1.18989 -0.12120
 C505 C 0.65923 1.16762 -0.09845
 C506 C 0.66341 1.12684 -0.09808
 C507 C 0.68633 1.10864 -0.12007
 C508 C 0.70390 1.13091 -0.14280
 C509 C 0.64013 1.10363 -0.07769
 C510 C 0.61789 1.08508 -0.06212
 H511 H 0.67221 1.22120 -0.12178
 H512 H 0.64117 1.18203 -0.08183
 H513 H 0.68939 1.07714 -0.12032
 H514 H 0.72048 1.11631 -0.16022
 C515 C 1.22591 0.70808 0.30753
 C516 C 1.21451 0.69109 0.32968
 C517 C 1.19960 0.66934 0.35504
 C518 C 1.17696 0.68798 0.37698
 C519 C 1.15881 0.66601 0.39963
 C520 C 1.16321 0.62527 0.40052
 C521 C 1.18685 0.60679 0.37911
 C522 C 1.20501 0.62876 0.35648
 C523 C 1.13972 0.60233 0.42096
 C524 C 1.11745 0.58400 0.43666
 H525 H 1.17228 0.71926 0.37600
 H526 H 1.14020 0.68063 0.41578
 H527 H 1.19008 0.57531 0.37926
 H528 H 1.22219 0.61395 0.33952
 C529 C 0.27795 0.78945 -0.18783
 C530 C 0.28898 0.80667 -0.16572
 C531 C 0.30304 0.82898 -0.14042
 C532 C 0.29529 0.86916 -0.13885
 C533 C 0.31249 0.89192 -0.11630
 C534 C 0.33747 0.87463 -0.09509
 C535 C 0.34418 0.83421 -0.09609
 C536 C 0.32701 0.81146 -0.11866
 C537 C 0.36023 0.89871 -0.07500
 C538 C 0.38216 0.91807 -0.05980
 H539 H 0.27704 0.88313 -0.15566
 H540 H 0.30748 0.92317 -0.11610
 H541 H 0.36387 0.82053 -0.08013
 H542 H 0.33349 0.78051 -0.11974
 C543 C 0.77979 0.28725 0.31291
 C544 C 0.79062 0.30439 0.33512
 C545 C 0.80429 0.32682 0.36050
 C546 C 0.79654 0.36702 0.36183
 C547 C 0.81329 0.38993 0.38447
 C548 C 0.83783 0.37280 0.40605
 C549 C 0.84455 0.33237 0.40530
 C550 C 0.82782 0.30945 0.38262
 C551 C 0.86026 0.39709 0.42623
 C552 C 0.88199 0.41671 0.44141
 H553 H 0.77864 0.38088 0.34475
 H554 H 0.80832 0.42119 0.38446
 H555 H 0.86394 0.31881 0.42154
 H556 H 0.83429 0.27849 0.38176
 C557 C 1.20875 0.27702 0.18946
 C558 C 1.19142 0.28790 0.16731
 C559 C 1.16876 0.30185 0.14209
 C560 C 1.18644 0.32394 0.11930
 C561 C 1.16347 0.34129 0.09684
 C562 C 1.12270 0.33664 0.09703
 C563 C 1.10519 0.31345 0.11926
 C564 C 1.12816 0.29608 0.14168
 C565 C 1.09878 0.35977 0.07701
 C566 C 1.07973 0.38196 0.06173
 H567 H 1.21774 0.32886 0.11947
 H568 H 1.17733 0.35958 0.08004
 H569 H 1.07371 0.31006 0.11994
 H570 H 1.11410 0.27930 0.15930
 C571 C 0.70952 0.77861 0.68961
 C572 C 0.69201 0.78937 0.66750
 C573 C 0.66914 0.80309 0.64231
 C574 C 0.62861 0.79682 0.64191
 C575 C 0.60543 0.81388 0.61947
 C576 C 0.62265 0.83721 0.59720
 C577 C 0.66335 0.84238 0.59702
 C578 C 0.68654 0.82536 0.61949
 C579 C 0.59846 0.86002 0.57714
 C580 C 0.57926 0.88204 0.56182
 H581 H 0.61476 0.77990 0.65955
 H582 H 0.57398 0.81011 0.62016
 H583 H 0.67699 0.86082 0.58020
 H584 H 0.71777 0.83067 0.61966
 C585 C 1.20208 0.72909 -0.19126
 C586 C 1.18344 0.71845 -0.16965
 C587 C 1.16106 0.70418 -0.14436
 C588 C 1.17997 0.68531 -0.12040
 C589 C 1.15806 0.66780 -0.09742
 C590 C 1.11706 0.66905 -0.09818
 C591 C 1.09819 0.68894 -0.12168
 C592 C 1.12011 0.70648 -0.14465
 C593 C 1.09468 0.64545 -0.07738
 C594 C 1.07685 0.62272 -0.06167
 H595 H 1.21157 0.68301 -0.12000
 H596 H 1.17306 0.65200 -0.07970
 H597 H 1.06655 0.68961 -0.12286
 H598 H 1.10509 0.72070 -0.16314
 C599 C 0.70350 1.22760 0.30908
 C600 C 0.68474 1.21706 0.33065
 C601 C 0.66218 1.20297 0.35592
 C602 C 0.68085 1.18377 0.37984
 C603 C 0.65872 1.16655 0.40282
 C604 C 0.61773 1.16843 0.40212
 C605 C 0.59912 1.18861 0.37864
 C606 C 0.62126 1.20587 0.35566
 C607 C 0.59504 1.14515 0.42292
 C608 C 0.57695 1.12262 0.43862
 H609 H 0.71242 1.18102 0.38022
 H610 H 0.67351 1.15049 0.42051
 H611 H 0.56750 1.18975 0.37749
 H612 H 0.60643 1.22035 0.33721
 C613 C 0.78983 0.72429 0.19024
 C614 C 0.80665 0.71302 0.16801
 C615 C 0.82796 0.69842 0.14237
 C616 C 0.80934 0.67447 0.12126
 C617 C 0.83103 0.65688 0.09827
 C618 C 0.87149 0.66313 0.09620
 C619 C 0.88989 0.68803 0.11679
 C620 C 0.86819 0.70565 0.13976
 C621 C 0.89455 0.64007 0.07562
 C622 C 0.91323 0.61801 0.06005
 H623 H 0.77835 0.66838 0.12314
 H624 H 0.81651 0.63726 0.08280
 H625 H 0.92120 0.69268 0.11576
 H626 H 0.88302 0.72386 0.15607
 C627 C 0.28905 1.22491 0.68982
 C628 C 0.30572 1.21354 0.66756
 C629 C 0.32704 1.19882 0.64196
 C630 C 0.30833 1.17519 0.62067
 C631 C 0.33005 1.15740 0.59777
 C632 C 0.37062 1.16316 0.59596
 C633 C 0.38910 1.18775 0.61673
 C634 C 0.36738 1.20554 0.63961
 C635 C 0.39368 1.14000 0.57543
 C636 C 0.41243 1.11793 0.55992
 H637 H 0.27724 1.16948 0.62235
 H638 H 0.31545 1.13802 0.58217
 H639 H 0.42047 1.19202 0.61591
 H640 H 0.38227 1.22349 0.65605
 C641 C 0.79893 0.27179 -0.19559
 C642 C 0.81762 0.28272 -0.17411
 C643 C 0.83994 0.29737 -0.14894
 C644 C 0.88093 0.29593 -0.14935
 C645 C 0.90264 0.31371 -0.12640
 C646 C 0.88350 0.33295 -0.10282
 C647 C 0.84249 0.33340 -0.10200
 C648 C 0.82080 0.31567 -0.12494
 C649 C 0.90545 0.35646 -0.08176
 C650 C 0.92258 0.37905 -0.06557
 H651 H 0.89612 0.28214 -0.16786
 H652 H 0.93428 0.31364 -0.12761
 H653 H 0.82727 0.34869 -0.08421
 H654 H 0.78916 0.31729 -0.12445
 C655 C 0.30108 0.76967 0.30384
 C656 C 0.31960 0.78076 0.32536
 C657 C 0.34170 0.79570 0.35056
 C658 C 0.38267 0.79692 0.34939
 C659 C 0.40395 0.81516 0.37236
 C660 C 0.38443 0.83224 0.39673
 C661 C 0.34352 0.83000 0.39832
 C662 C 0.32224 0.81179 0.37535
 C663 C 0.40569 0.85623 0.41791
 C664 C 0.42245 0.87904 0.43417
 H665 H 0.39810 0.78488 0.33027
 H666 H 0.43548 0.81715 0.37057
 H667 H 0.32796 0.84356 0.41675
 H668 H 0.29059 0.81134 0.37645
 C669 C 1.18803 1.21009 0.29366
 C670 C 1.16391 1.19415 0.30882
 C671 C 1.13484 1.17453 0.32614
 C672 C 1.11748 1.19339 0.35058
 C673 C 1.09094 1.17321 0.36861
 C674 C 1.08174 1.13431 0.36208
 C675 C 1.09812 1.11590 0.33703
 C676 C 1.12464 1.13609 0.31899
 C677 C 1.06086 1.11166 0.38369
 C678 C 1.04664 1.09247 0.40339
 H679 H 1.12530 1.22318 0.35615
 H680 H 1.07887 1.18734 0.38830
 H681 H 1.09165 1.08558 0.33221
 H682 H 1.13802 1.12142 0.30004
 C683 C 0.68915 0.71210 -0.20581
 C684 C 0.66534 0.69696 -0.18987
 C685 C 0.63672 0.67842 -0.17142
 C686 C 0.62410 0.69644 -0.14497
 C687 C 0.59809 0.67700 -0.12600
 C688 C 0.58469 0.63968 -0.13361
 C689 C 0.59638 0.62221 -0.16054
 C690 C 0.62237 0.64165 -0.17950
 C691 C 0.56380 0.61718 -0.11188
 C692 C 0.54925 0.59755 -0.09256
 H693 H 0.63515 0.72492 -0.13865
 H694 H 0.58959 0.69036 -0.10494
 H695 H 0.58660 0.59306 -0.16629
 H696 H 0.63209 0.62761 -0.19998
 C697 C 0.78939 1.19116 0.70369
 C698 C 0.80464 1.16742 0.68789
 C699 C 0.82346 1.13875 0.66983
 C700 C 0.86160 1.12715 0.67692
 C701 C 0.88103 1.10075 0.65844
 C702 C 0.86220 1.08594 0.63299
 C703 C 0.82361 1.09664 0.62640
 C704 C 0.80416 1.12306 0.64491
 C705 C 0.88427 1.06448 0.61148
 C706 C 0.90357 1.04936 0.59234
 H707 H 0.87658 1.13925 0.69625
 H708 H 0.91111 1.09302 0.66333
 H709 H 0.80915 1.08568 0.60644
 H710 H 0.77458 1.13197 0.63942
 C711 C 0.29175 0.68969 0.20264
 C712 C 0.30660 0.66551 0.18699
 C713 C 0.32460 0.63596 0.16924
 C714 C 0.36103 0.62103 0.17786
 C715 C 0.37963 0.59346 0.15987
 C716 C 0.36164 0.58074 0.13341
 C717 C 0.32465 0.59482 0.12527
 C718 C 0.30605 0.62242 0.14326
 C719 C 0.38351 0.55832 0.11234
 C720 C 0.40265 0.54285 0.09325
 H721 H 0.37540 0.63141 0.19804
 H722 H 0.40857 0.58320 0.16597
 H723 H 0.31094 0.58559 0.10450
 H724 H 0.27778 0.63387 0.13658
 C725 C 1.21186 0.80979 0.70748
 C726 C 1.19764 0.83418 0.69152
 C727 C 1.18055 0.86376 0.67309
 C728 C 1.14457 0.88004 0.68124
 C729 C 1.12651 0.90708 0.66230
 C730 C 1.14459 0.91790 0.63533
 C731 C 1.18124 0.90263 0.62771
 C732 C 1.19930 0.87557 0.64666
 C733 C 1.12291 0.93929 0.61338
 C734 C 1.10369 0.95382 0.59380
 H735 H 1.13001 0.87100 0.70174
 H736 H 1.09782 0.91828 0.66803
 H737 H 1.19502 0.91039 0.60660
 H738 H 1.22721 0.86307 0.64032
 C739 C 0.71410 0.30857 0.20794
 C740 C 0.69972 0.33251 0.19165
 C741 C 0.68219 0.36127 0.17268
 C742 C 0.64650 0.37808 0.18096
 C743 C 0.62790 0.40416 0.16153
 C744 C 0.64513 0.41349 0.13392
 C745 C 0.68145 0.39764 0.12607
 C746 C 0.70005 0.37154 0.14551
 C747 C 0.62308 0.43451 0.11193
 C748 C 0.60362 0.44910 0.09250
 H749 H 0.63260 0.37019 0.20200
 H750 H 0.59950 0.41586 0.16749
 H751 H 0.69460 0.40429 0.10450
 H752 H 0.72771 0.35860 0.13903
 C753 C 0.80666 0.78993 0.29561
 C754 C 0.83032 0.80357 0.31240
 C755 C 0.85921 0.81949 0.33193
 C756 C 0.88167 0.85131 0.32237
 C757 C 0.90870 0.86804 0.34194
 C758 C 0.91330 0.85273 0.37092
 C759 C 0.89161 0.82020 0.38016
 C760 C 0.86457 0.80349 0.36060
 C761 C 0.93575 0.87372 0.39249
 C762 C 0.95159 0.89285 0.41140
 H763 H 0.87763 0.86370 0.30013
 H764 H 0.92495 0.89363 0.33490
 H765 H 0.89460 0.80868 0.40277
 H766 H 0.84725 0.77880 0.36801
 C767 C 0.30833 0.28928 -0.20483
 C768 C 0.33267 0.30342 -0.18890
 C769 C 0.36234 0.32067 -0.17081
 C770 C 0.37805 0.35680 -0.17920
 C771 C 0.40554 0.37487 -0.16078
 C772 C 0.41738 0.35663 -0.13411
 C773 C 0.40260 0.31989 -0.12621
 C774 C 0.37509 0.30181 -0.14465
 C775 C 0.43953 0.37817 -0.11267
 C776 C 0.45481 0.39717 -0.09343
 H777 H 0.36828 0.37141 -0.19951
 H778 H 0.41637 0.40362 -0.16669
 H779 H 0.41117 0.30599 -0.10531
 H780 H 0.36305 0.27375 -0.13816
 C781 C 1.21269 0.27855 -0.18979
 C782 C 1.19474 0.28942 -0.16799
 C783 C 1.17138 0.30337 -0.14322
 C784 C 1.18842 0.32540 -0.12018
 C785 C 1.16485 0.34267 -0.09816
 C786 C 1.12409 0.33800 -0.09901
 C787 C 1.10720 0.31489 -0.12150
 C788 C 1.13077 0.29760 -0.14349
 C789 C 1.09963 0.36093 -0.07934
 C790 C 1.08020 0.38292 -0.06428
 H791 H 1.21972 0.33033 -0.11982
 H792 H 1.17826 0.36088 -0.08115
 H793 H 1.07574 0.31146 -0.12270
 H794 H 1.11719 0.28086 -0.16130
 C795 C 0.71141 0.77765 0.30992
 C796 C 0.69338 0.78870 0.33163
 C797 C 0.67016 0.80298 0.35637
 C798 C 0.68736 0.82556 0.37902
 C799 C 0.66399 0.84306 0.40106
 C800 C 0.62326 0.83807 0.40062
 C801 C 0.60620 0.81451 0.37849
 C802 C 0.62958 0.79698 0.35647
 C803 C 0.59895 0.86101 0.42040
 C804 C 0.57966 0.88298 0.43558
 H805 H 0.71863 0.83070 0.37908
 H806 H 0.67752 0.86166 0.41776
 H807 H 0.57475 0.81085 0.37759
 H808 H 0.61587 0.77985 0.33895
 C809 C 0.78362 0.72440 -0.18904
 C810 C 0.80053 0.71323 -0.16676
 C811 C 0.82247 0.69889 -0.14126
 C812 C 0.86266 0.70656 -0.13917
 C813 C 0.88513 0.68902 -0.11650
 C814 C 0.86753 0.66375 -0.09569
 C815 C 0.82709 0.65712 -0.09718
 C816 C 0.80462 0.67464 -0.11987
 C817 C 0.89142 0.64064 -0.07558
 C818 C 0.91081 0.61850 -0.06048
 H819 H 0.87689 0.72500 -0.15570
 H820 H 0.91641 0.69396 -0.11593
 H821 H 0.81318 0.63720 -0.08153
 H822 H 0.77366 0.66820 -0.12136
 C823 C 0.28255 1.22307 0.31095
 C824 C 0.29948 1.21215 0.33330
 C825 C 0.32151 1.19818 0.35886
 C826 C 0.36168 1.20605 0.36084
 C827 C 0.38428 1.18881 0.38356
 C828 C 0.36685 1.16365 0.40452
 C829 C 0.32642 1.15686 0.40316
 C830 C 0.30382 1.17408 0.38042
 C831 C 0.39090 1.14066 0.42459
 C832 C 0.41041 1.11858 0.43963
 H833 H 0.37578 1.22439 0.34418
 H834 H 0.41555 1.19386 0.38403
 H835 H 0.31265 1.13702 0.41894
 H836 H 0.27288 1.16751 0.37903
 C837 C 1.20375 0.72335 0.19048
 C838 C 1.18486 0.71325 0.16887
 C839 C 1.16209 0.69986 0.14354
 C840 C 1.18057 0.68147 0.11927
 C841 C 1.15825 0.66498 0.09613
 C842 C 1.11728 0.66679 0.09702
 C843 C 1.09885 0.68620 0.12085
 C844 C 1.12118 0.70273 0.14399
 C845 C 1.09449 0.64405 0.07601
 C846 C 1.07649 0.62182 0.06009
 H847 H 1.21214 0.67878 0.11873
 H848 H 1.17291 0.64951 0.07816
 H849 H 1.06723 0.68728 0.12213
 H850 H 1.10649 0.71663 0.16269
 C851 C 0.70151 1.22474 0.69127
 C852 C 0.68280 1.21434 0.66965
 C853 C 0.66037 1.20055 0.64424
 C854 C 0.61948 1.20381 0.64414
 C855 C 0.59748 1.18700 0.62093
 C856 C 0.61621 1.16690 0.59758
 C857 C 0.65718 1.16466 0.59725
 C858 C 0.67917 1.18143 0.62046
 C859 C 0.59364 1.14406 0.57646
 C860 C 0.57578 1.12182 0.56044
 H861 H 0.60454 1.21827 0.66247
 H862 H 0.56584 1.18843 0.62178
 H863 H 0.67207 1.14868 0.57965
 H864 H 0.71071 1.17843 0.62034
 C865 C 0.80105 0.27332 0.19558
 C866 C 0.81974 0.28378 0.17393
 C867 C 0.84202 0.29783 0.14849
 C868 C 0.88303 0.29719 0.14919
 C869 C 0.90461 0.31449 0.12589
 C870 C 0.88535 0.33246 0.10167
 C871 C 0.84434 0.33202 0.10056
 C872 C 0.82278 0.31475 0.12384
 C873 C 0.90705 0.35578 0.08025
 C874 C 0.92395 0.37832 0.06378
 H875 H 0.89831 0.28444 0.16817
 H876 H 0.93624 0.31510 0.12733
 H877 H 0.82899 0.34630 0.08226
 H878 H 0.79112 0.31568 0.12307
 C879 C 0.29899 0.77478 0.69497
 C880 C 0.31777 0.78501 0.67332
 C881 C 0.34029 0.79870 0.64791
 C882 C 0.38129 0.79784 0.64882
 C883 C 0.40315 0.81482 0.62555
 C884 C 0.38416 0.83266 0.60115
 C885 C 0.34317 0.83242 0.59982
 C886 C 0.32133 0.81549 0.62308
 C887 C 0.40613 0.85581 0.57981
 C888 C 0.42321 0.87830 0.56343
 H889 H 0.39634 0.78519 0.66795
 H890 H 0.43476 0.81531 0.62715
 H891 H 0.32806 0.84664 0.58138
 H892 H 0.28968 0.81660 0.62217
 C893 C 0.27280 1.20262 -0.19300
 C894 C 0.28298 1.18426 -0.17109
 C895 C 0.29680 1.16255 -0.14526
 C896 C 0.29472 1.12164 -0.14484
 C897 C 0.31194 1.10042 -0.12129
 C898 C 0.33129 1.11995 -0.09794
 C899 C 0.33224 1.16092 -0.09788
 C900 C 0.31504 1.18212 -0.12142
 C901 C 0.35477 1.09830 -0.07656
 C902 C 0.37746 1.08110 -0.06038
 H903 H 0.28095 1.10611 -0.16321
 H904 H 0.31148 1.06879 -0.12191
 H905 H 0.34760 1.17643 -0.08027
 H906 H 0.31710 1.21370 -0.12153
 C907 C 0.77304 0.70275 0.30742
 C908 C 0.78310 0.68434 0.32933
 C909 C 0.79666 0.66232 0.35508
 C910 C 0.79535 0.62138 0.35488
 C911 C 0.81243 0.59992 0.37836
 C912 C 0.83086 0.61925 0.40224
 C913 C 0.83101 0.66021 0.40291
 C914 C 0.81391 0.68165 0.37945
 C915 C 0.85432 0.59750 0.42354
 C916 C 0.87705 0.58024 0.43964
 H917 H 0.78232 0.60604 0.33611
 H918 H 0.81262 0.56831 0.37727
 H919 H 0.84568 0.67558 0.42094
 H920 H 0.81531 0.71325 0.37984
 C921 C 0.72436 1.21356 0.19192
 C922 C 0.71289 1.19619 0.17001
 C923 C 0.69821 1.17356 0.14506
 C924 C 0.67519 1.19118 0.12274
 C925 C 0.65749 1.16829 0.10048
 C926 C 0.66268 1.12762 0.10035
 C927 C 0.68666 1.11016 0.12215
 C928 C 0.70439 1.13305 0.14439
 C929 C 0.63963 1.10373 0.08029
 C930 C 0.61759 1.08472 0.06489
 H931 H 0.66990 1.22238 0.12310
 H932 H 0.63861 1.18214 0.08403
 H933 H 0.69052 1.07876 0.12262
 H934 H 0.72187 1.11900 0.16163
 C935 C 1.22282 0.71457 0.69157
 C936 C 1.21158 0.69715 0.66961
 C937 C 1.19727 0.67448 0.64456
 C938 C 1.20298 0.63390 0.64419
 C939 C 1.18563 0.61104 0.62178
 C940 C 1.16252 0.62858 0.59948
 C941 C 1.15778 0.66931 0.59932
 C942 C 1.17511 0.69218 0.62176
 C943 C 1.13970 0.60472 0.57925
 C944 C 1.11778 0.58564 0.56381
 H945 H 1.21978 0.61979 0.66180
 H946 H 1.18907 0.57959 0.62248
 H947 H 1.13951 0.68323 0.58250
 H948 H 1.17020 0.72345 0.62188
 C949 C 0.72286 0.80011 -0.19327
 C950 C 0.71263 0.81940 -0.17195
 C951 C 0.69923 0.84281 -0.14699
 C952 C 0.70071 0.88372 -0.14865
 C953 C 0.68432 0.90650 -0.12574
 C954 C 0.66645 0.88855 -0.10093
 C955 C 0.66600 0.84765 -0.09888
 C956 C 0.68234 0.82488 -0.12179
 C957 C 0.64391 0.91148 -0.07987
 C958 C 0.62177 0.92918 -0.06366
 H959 H 0.71345 0.89798 -0.16808
 H960 H 0.68434 0.93803 -0.12792
 H961 H 0.65173 0.83333 -0.08012
 H962 H 0.68073 0.79332 -0.12029
 C963 C 1.22171 0.29861 0.30661
 C964 C 1.21150 0.31797 0.32791
 C965 C 1.19818 0.34153 0.35284
 C966 C 1.19920 0.38242 0.35089
 C967 C 1.18296 0.40531 0.37381
 C968 C 1.16571 0.38748 0.39893
 C969 C 1.16571 0.34659 0.40125
 C970 C 1.18190 0.32372 0.37833
 C971 C 1.14333 0.41045 0.42008
 C972 C 1.12133 0.42823 0.43637
 H973 H 1.21147 0.39660 0.33124
 H974 H 1.18261 0.43681 0.37141
 H975 H 1.15192 0.33234 0.42026
 H976 H 1.18066 0.29217 0.38007
 C977 C 0.27860 0.78456 0.18673
 C978 C 0.28917 0.80196 0.16452
 C979 C 0.30282 0.82445 0.13913
 C980 C 0.32763 0.80745 0.11780
 C981 C 0.34476 0.83056 0.09537
 C982 C 0.33717 0.87081 0.09409
 C983 C 0.31125 0.88753 0.11477
 C984 C 0.29409 0.86442 0.13718
 C985 C 0.36010 0.89540 0.07444
 C986 C 0.38216 0.91526 0.05971
 H987 H 0.33485 0.77668 0.11917
 H988 H 0.36518 0.81734 0.07980
 H989 H 0.30554 0.91866 0.11433
 H990 H 0.27516 0.87798 0.15366
 C991 C 0.77679 0.28568 0.68731
 C992 C 0.78775 0.30297 0.66517
 C993 C 0.80194 0.32543 0.63993
 C994 C 0.82679 0.30828 0.61870
 C995 C 0.84441 0.33133 0.59645
 C996 C 0.83729 0.37167 0.59527
 C997 C 0.81138 0.38857 0.61588
 C998 C 0.79372 0.36551 0.63810
 C999 C 0.86047 0.39611 0.57568
 C1000 C 0.88259 0.41586 0.56091
 H1001 H 0.83363 0.27742 0.61999
 H1002 H 0.86481 0.31797 0.58094
 H1003 H 0.80602 0.41976 0.61552
 H1004 H 0.77480 0.37919 0.65452
 C1005 C 1.19505 1.21430 0.70436
 C1006 C 1.17319 1.19960 0.68672
 C1007 C 1.14766 1.18124 0.66581
 C1008 C 1.16316 1.16543 0.63947
 C1009 C 1.13886 1.14530 0.61980
 C1010 C 1.09911 1.14101 0.62649
 C1011 C 1.08338 1.15740 0.65258
 C1012 C 1.10777 1.17760 0.67231
 C1013 C 1.07536 1.11858 0.60667
 C1014 C 1.05824 1.09899 0.58873
 H1015 H 1.19406 1.16812 0.63443
 H1016 H 1.15113 1.13258 0.59961
 H1017 H 1.05262 1.15410 0.65781
 H1018 H 1.09575 1.18981 0.69277
 C1019 C 0.69603 0.71067 0.20496
 C1020 C 0.67428 0.69352 0.18858
 C1021 C 0.64851 0.67187 0.16979
 C1022 C 0.66033 0.63539 0.15908
 C1023 C 0.63528 0.61389 0.14085
 C1024 C 0.59843 0.62887 0.13341
 C1025 C 0.58640 0.66520 0.14436
 C1026 C 0.61150 0.68673 0.16268
 C1027 C 0.57484 0.60821 0.11237
 C1028 C 0.55767 0.59049 0.09334
 H1029 H 0.68893 0.62377 0.16464
 H1030 H 0.64487 0.58596 0.13212
 H1031 H 0.55806 0.67705 0.13836
 H1032 H 0.60224 0.71493 0.17108
 C1033 C 1.21298 0.80168 0.29230
 C1034 C 1.19756 0.82340 0.30963
 C1035 C 1.17867 0.84893 0.33020
 C1036 C 1.16263 0.88416 0.31995
 C1037 C 1.14233 0.90812 0.33987
 C1038 C 1.13824 0.89667 0.36990
 C1039 C 1.15484 0.86172 0.38019
 C1040 C 1.17509 0.83781 0.36032
 C1041 C 1.11574 0.91955 0.39022
 C1042 C 1.09683 0.93657 0.40862
 H1043 H 1.16534 0.89274 0.29658
 H1044 H 1.12940 0.93510 0.33184
 H1045 H 1.15160 0.85272 0.40344
 H1046 H 1.18739 0.81048 0.36827
 C1047 C 0.71097 0.30488 -0.20778
 C1048 C 0.69562 0.32818 -0.19165
 C1049 C 0.67670 0.35617 -0.17306
 C1050 C 0.69774 0.37533 -0.15051
 C1051 C 0.67855 0.40135 -0.13150
 C1052 C 0.63848 0.40817 -0.13524
 C1053 C 0.61773 0.38974 -0.15828
 C1054 C 0.63689 0.36375 -0.17726
 C1055 C 0.61757 0.42976 -0.11314
 C1056 C 0.59920 0.44507 -0.09356
 H1057 H 0.72860 0.36950 -0.14724
 H1058 H 0.69457 0.41513 -0.11337
 H1059 H 0.58658 0.39446 -0.16092
 H1060 H 0.62054 0.34892 -0.19472
 C1061 C 0.79071 1.19232 0.29648
 C1062 C 0.80580 1.16808 0.31210
 C1063 C 0.82449 1.13879 0.32990
 C1064 C 0.80560 1.12340 0.35517
 C1065 C 0.82496 1.09632 0.37335
 C1066 C 0.86305 1.08462 0.36613
 C1067 C 0.88145 1.09920 0.34037
 C1068 C 0.86211 1.12624 0.32220
 C1069 C 0.88511 1.06228 0.38731
 C1070 C 0.90416 1.04651 0.40644
 H1071 H 0.77643 1.13301 0.36116
 H1072 H 0.81082 1.08559 0.39354
 H1073 H 0.91116 1.09075 0.33497
 H1074 H 0.87679 1.13807 0.30262
 C1075 C 0.28986 0.69489 -0.20374
 C1076 C 0.30587 0.67158 -0.18782
 C1077 C 0.32587 0.64360 -0.16964
 C1078 C 0.30485 0.61892 -0.15042
 C1079 C 0.32482 0.59243 -0.13210
 C1080 C 0.36570 0.59063 -0.13317
 C1081 C 0.38657 0.61477 -0.15286
 C1082 C 0.36664 0.64122 -0.17114
 C1083 C 0.38660 0.56770 -0.11166
 C1084 C 0.40485 0.55112 -0.09248
 H1085 H 0.27324 0.62063 -0.14927
 H1086 H 0.30857 0.57417 -0.11659
 H1087 H 0.41824 0.61391 -0.15345
 H1088 H 0.38301 0.66025 -0.18602
 C1089 C 0.80412 0.79167 0.70654
 C1090 C 0.82788 0.80777 0.69116
 C1091 C 0.85657 0.82765 0.67365
 C1092 C 0.87951 0.80692 0.65315
 C1093 C 0.90645 0.82683 0.63527
 C1094 C 0.91045 0.86734 0.63808
 C1095 C 0.88818 0.88788 0.65913
 C1096 C 0.86127 0.86799 0.67700
 C1097 C 0.93306 0.88846 0.61658
 C1098 C 0.94921 0.90629 0.59702
 H1099 H 0.87598 0.77566 0.65056
 H1100 H 0.92318 0.81091 0.61863
 H1101 H 0.89068 0.91932 0.66101
 H1102 H 0.84358 0.88411 0.69292
 C1103 C 0.30306 0.28976 0.20616
 C1104 C 0.32652 0.30514 0.19007
 C1105 C 0.35474 0.32401 0.17147
 C1106 C 0.37792 0.30203 0.15188
 C1107 C 0.40451 0.32089 0.13302
 C1108 C 0.40787 0.36161 0.13393
 C1109 C 0.38526 0.38343 0.15400
 C1110 C 0.35872 0.36460 0.17282
 C1111 C 0.43080 0.38155 0.11197
 C1112 C 0.44741 0.39926 0.09256
 H1113 H 0.37493 0.27056 0.15083
 H1114 H 0.42159 0.30394 0.11722
 H1115 H 0.38736 0.41500 0.15446
 H1116 H 0.34081 0.38169 0.18799
   
