data_POSCAR
  _audit_creation_date              2014-09-24
  _audit_creation_method            'ToBaCCo'
  _symmetry_space_group_name_H-M    'P1'
  _symmetry_Int_Tables_number       1
  _symmetry_cell_setting            triclinic
  loop_
  _symmetry_equiv_pos_as_xyz
 x,y,z
_cell_length_a 45.3166
_cell_length_b 46.6376
_cell_length_c 23.0771
_cell_angle_alpha 90.880700
_cell_angle_beta 89.464400
_cell_angle_gamma 117.485200
loop_
  _atom_site_label
  _atom_site_type_symbol
  _atom_site_fract_x
  _atom_site_fract_y
  _atom_site_fract_z
O1 O -0.04574 0.44130 0.00485
 O2 O 0.02685 0.51721 0.04721
 O3 O -0.02492 0.50178 -0.01773
 O4 O 0.00601 0.45624 0.07111
 O5 O 0.03510 0.45308 -0.00381
 O6 O -0.00080 0.49280 -0.09438
 O7 O 0.05392 0.51279 -0.02967
 O8 O -0.01777 0.43438 -0.06813
 Cu9 Cu -0.01209 0.47964 0.03407
 Cu10 Cu 0.02070 0.47311 -0.05655
 C11 C -0.04454 0.42509 -0.03912
 C12 C 0.05288 0.52790 0.01605
 C13 C -0.01980 0.50324 -0.07208
 C14 C 0.02649 0.44762 0.04895
 O15 O 0.56526 0.51013 0.10015
 O16 O 0.47414 0.46879 0.11430
 O17 O 0.51939 0.45439 0.07144
 O18 O 0.52000 0.52500 0.14444
 O19 O 0.51858 0.54558 0.05954
 O20 O 0.51004 0.47097 -0.01218
 O21 O 0.46955 0.48995 0.03182
 O22 O 0.56073 0.52696 0.01339
 Cu23 Cu 0.52026 0.48789 0.11624
 Cu24 Cu 0.51465 0.51062 0.01460
 C25 C 0.57845 0.52413 0.05308
 C26 C 0.45645 0.47278 0.07606
 C27 C 0.51410 0.45024 0.01728
 C28 C 0.51897 0.54710 0.11453
 O29 O 0.52198 1.00326 -0.11333
 O30 O 0.44326 0.95530 -0.03641
 O31 O 0.46988 1.01325 -0.09688
 O32 O 0.49810 0.95362 -0.05568
 O33 O 0.51795 0.98139 0.02573
 O34 O 0.47982 1.03340 -0.00824
 O35 O 0.46561 0.98203 0.04477
 O36 O 0.53987 1.03589 -0.03713
 Cu37 Cu 0.47994 0.97924 -0.08391
 Cu38 Cu 0.50425 1.01256 0.01240
 C39 C 0.54446 1.02784 -0.08799
 C40 C 0.44240 0.95849 0.01836
 C41 C 0.46905 1.03292 -0.05895
 C42 C 0.51283 0.95751 -0.00738
 O43 O 1.04238 0.54807 0.52301
 O44 O 0.97466 0.46894 0.56523
 O45 O 1.03578 0.48968 0.53218
 O46 O 0.98018 0.52677 0.55662
 O47 O 0.96089 0.51239 0.46780
 O48 O 1.02503 0.48640 0.43865
 O49 O 0.96307 0.45722 0.47243
 O50 O 1.02275 0.54019 0.43379
 Cu51 Cu 1.00991 0.50966 0.55351
 Cu52 Cu 0.99098 0.49795 0.44407
 C53 C 1.04398 0.55767 0.47127
 C54 C 0.95828 0.44906 0.52531
 C55 C 1.04085 0.48274 0.48072
 C56 C 0.96006 0.52471 0.51689
 O57 O 0.52369 0.48438 0.51826
 O58 O 0.53329 0.56473 0.48374
 O59 O 0.56230 0.54105 0.55395
 O60 O 0.49111 0.50445 0.45337
 O61 O 0.45781 0.50469 0.52366
 O62 O 0.52714 0.53476 0.62550
 O63 O 0.50126 0.56240 0.55785
 O64 O 0.48684 0.47888 0.58627
 Cu65 Cu 0.53099 0.52465 0.49458
 Cu66 Cu 0.48978 0.52020 0.58017
 C67 C 0.50421 0.46813 0.55863
 C68 C 0.51939 0.57760 0.51509
 C69 C 0.55615 0.54154 0.60773
 C70 C 0.46225 0.49814 0.47187
 O71 O 0.52705 0.05636 0.43168
 O72 O 0.44528 0.00259 0.36983
 O73 O 0.46824 0.05325 0.43969
 O74 O 0.50498 0.00604 0.36710
 O75 O 0.49200 -0.02552 0.44325
 O76 O 0.45397 0.02014 0.51395
 O77 O 0.43308 -0.02979 0.44474
 O78 O 0.51459 0.02598 0.50967
 Cu79 Cu 0.48723 0.03265 0.39433
 Cu80 Cu 0.47220 -0.00530 0.48574
 C81 C 0.53503 0.05005 0.48056
 C82 C 0.42534 -0.02291 0.39594
 C83 C 0.45466 0.04449 0.48912
 C84 C 0.50526 -0.01760 0.39346
 C85 C 0.18597 0.40808 0.25071
 C86 C 0.19345 0.41666 0.31025
 C87 C 0.22392 0.42034 0.33212
 C88 C 0.24777 0.41802 0.29584
 C89 C 0.24162 0.41310 0.23555
 C90 C 0.21036 0.40671 0.21428
 H91 H 0.20541 0.40177 0.16836
 H92 H 0.22968 0.42603 0.37761
 C93 C 0.53850 0.75063 0.24784
 C94 C 0.54800 0.76324 0.30483
 C95 C 0.55709 0.79591 0.31584
 C96 C 0.55629 0.81618 0.27211
 C97 C 0.54678 0.80346 0.21504
 C98 C 0.53891 0.77110 0.20360
 H99 H 0.53108 0.76119 0.16036
 H100 H 0.56417 0.80553 0.35944
 C101 C 0.25018 0.78502 0.18632
 C102 C 0.23977 0.79322 0.23913
 C103 C 0.21389 0.76910 0.27040
 C104 C 0.19775 0.73710 0.24926
 C105 C 0.20555 0.72984 0.19298
 C106 C 0.23198 0.75410 0.16223
 H107 H 0.23997 0.74825 0.12128
 H108 H 0.20794 0.77473 0.31333
 C109 C 0.80774 0.56565 0.73410
 C110 C 0.81675 0.55927 0.78958
 C111 C 0.79857 0.56048 0.83848
 C112 C 0.76884 0.56283 0.83338
 C113 C 0.75741 0.56439 0.77685
 C114 C 0.77821 0.56820 0.72898
 H115 H 0.77015 0.57092 0.68632
 H116 H 0.80658 0.55754 0.88097
 C117 C 0.45864 0.26413 0.72412
 C118 C 0.46291 0.26285 0.78447
 C119 C 0.45243 0.23262 0.81019
 C120 C 0.43957 0.20375 0.77758
 C121 C 0.43555 0.20522 0.71691
 C122 C 0.44462 0.23537 0.69136
 H123 H 0.44217 0.23664 0.64488
 H124 H 0.45584 0.23174 0.85642
 C125 C 0.73598 0.20104 0.67283
 C126 C 0.73542 0.19613 0.73322
 C127 C 0.75846 0.22069 0.76894
 C128 C 0.78377 0.24936 0.74585
 C129 C 0.78660 0.25270 0.68472
 C130 C 0.76188 0.22901 0.64953
 H131 H 0.76292 0.23247 0.60306
 H132 H 0.75713 0.21714 0.81541
 C133 C 0.09063 0.42743 0.11093
 C134 C 0.07301 0.40663 0.15460
 C135 C 0.03972 0.39805 0.16593
 C136 C 0.02415 0.41151 0.13080
 C137 C 0.04190 0.43250 0.08499
 C138 C 0.07549 0.44027 0.07483
 O139 O 0.12253 0.43478 0.10995
 C140 C 0.12526 0.41817 0.15374
 C141 C 0.09569 0.40019 0.18223
 C142 C 0.09347 0.38176 0.23055
 C143 C 0.12304 0.38263 0.25095
 C144 C 0.15405 0.40266 0.22414
 C145 C 0.15481 0.41986 0.17382
 H146 H 0.02648 0.38223 0.20130
 H147 H -0.00156 0.40564 0.13913
 H148 H 0.08989 0.45694 0.04120
 H149 H 0.07000 0.36775 0.25240
 H150 H 0.12210 0.36899 0.28908
 H151 H 0.17805 0.43568 0.15279
 C152 C 0.52975 0.63007 0.15336
 C153 C 0.50719 0.62260 0.19810
 C154 C 0.48889 0.59139 0.21866
 C155 C 0.49383 0.56681 0.19160
 C156 C 0.51619 0.57379 0.14427
 C157 C 0.53435 0.60585 0.12474
 O158 O 0.54572 0.66146 0.14242
 C159 C 0.53280 0.67402 0.18079
 C160 C 0.50879 0.65122 0.21535
 C161 C 0.49174 0.65903 0.25798
 C162 C 0.50038 0.69181 0.26625
 C163 C 0.52658 0.71594 0.23370
 C164 C 0.54232 0.70678 0.18922
 H165 H 0.47161 0.58618 0.25442
 H166 H 0.47968 0.54222 0.20651
 H167 H 0.55172 0.61174 0.08895
 H168 H 0.47264 0.64061 0.28412
 H169 H 0.48753 0.69853 0.29930
 H170 H 0.56220 0.72470 0.16350
 C171 C 0.36195 0.88810 0.06661
 C172 C 0.37281 0.88080 0.11708
 C173 C 0.40456 0.89900 0.13900
 C174 C 0.42646 0.92556 0.10692
 C175 C 0.41664 0.93293 0.05323
 C176 C 0.38381 0.91398 0.03272
 O177 O 0.33000 0.86852 0.05590
 C178 C 0.32078 0.84834 0.10034
 C179 C 0.34638 0.85466 0.13826
 C180 C 0.34283 0.83677 0.18761
 C181 C 0.31119 0.81190 0.19969
 C182 C 0.28377 0.80626 0.16382
 C183 C 0.28867 0.82400 0.11234
 H184 H 0.41219 0.89301 0.17943
 H185 H 0.45152 0.93977 0.12301
 H186 H 0.37569 0.91920 -0.00796
 H187 H 0.36351 0.84217 0.21638
 H188 H 0.30751 0.79814 0.23888
 H189 H 0.26800 0.82020 0.08465
 C190 C 0.91151 0.56275 0.58989
 C191 C 0.88242 0.54840 0.55871
 C192 C 0.87815 0.52814 0.51123
 C193 C 0.90474 0.52202 0.49571
 C194 C 0.93451 0.53538 0.52866
 C195 C 0.93809 0.55655 0.57579
 O196 O 0.90939 0.57868 0.63660
 C197 C 0.87814 0.57384 0.63546
 C198 C 0.86051 0.55523 0.58893
 C199 C 0.82622 0.54270 0.58426
 C200 C 0.80922 0.54823 0.63067
 C201 C 0.82668 0.56656 0.68015
 C202 C 0.86195 0.58142 0.68031
 H203 H 0.85478 0.51659 0.48812
 H204 H 0.90145 0.50553 0.45992
 H205 H 0.96022 0.56663 0.60242
 H206 H 0.81273 0.52709 0.54833
 H207 H 0.78231 0.53612 0.62977
 H208 H 0.87601 0.59520 0.71753
 C209 C 0.47681 0.38421 0.61728
 C210 C 0.50633 0.38259 0.61348
 C211 C 0.53514 0.40721 0.59041
 C212 C 0.53357 0.43475 0.57073
 C213 C 0.50373 0.43753 0.57556
 C214 C 0.47488 0.41181 0.59919
 O215 O 0.45242 0.35807 0.64074
 C216 C 0.46699 0.33977 0.65241
 C217 C 0.50008 0.35387 0.63714
 C218 C 0.52063 0.33982 0.64843
 C219 C 0.50654 0.31013 0.67714
 C220 C 0.47250 0.29505 0.69294
 C221 C 0.45222 0.30967 0.67918
 H222 H 0.55808 0.40538 0.58798
 H223 H 0.55593 0.45438 0.55337
 H224 H 0.45183 0.41333 0.60356
 H225 H 0.54670 0.35161 0.63663
 H226 H 0.52206 0.29888 0.68743
 H227 H 0.42615 0.29853 0.69111
 C228 C 0.60904 0.10746 0.56941
 C229 C 0.63449 0.11036 0.53297
 C230 C 0.62898 0.09389 0.48028
 C231 C 0.59590 0.07383 0.46419
 C232 C 0.56923 0.07010 0.50113
 C233 C 0.57584 0.08690 0.55486
 O234 O 0.61976 0.12632 0.61630
 C235 C 0.65261 0.14126 0.60933
 C236 C 0.66287 0.13217 0.55926
 C237 C 0.69618 0.14469 0.54347
 C238 C 0.71997 0.16733 0.58112
 C239 C 0.71017 0.17732 0.63307
 C240 C 0.67582 0.16431 0.64673
 H241 H 0.64939 0.09684 0.45209
 H242 H 0.59095 0.06114 0.42286
 H243 H 0.55582 0.08485 0.58326
 H244 H 0.70362 0.13707 0.50384
 H245 H 0.74606 0.17680 0.57018
 H246 H 0.66743 0.17182 0.68543
 C247 C 0.44973 0.08984 0.85871
 C248 C 0.43531 0.09998 0.90164
 C249 C 0.43159 0.08899 0.95821
 C250 C 0.44332 0.06674 0.97113
 C251 C 0.45679 0.05456 0.92701
 C252 C 0.45933 0.06592 0.86956
 O253 O 0.45520 0.10658 0.81022
 C254 C 0.44351 0.12739 0.82260
 C255 C 0.43030 0.12374 0.87747
 C256 C 0.41703 0.14317 0.89970
 C257 C 0.41796 0.16777 0.86436
 C258 C 0.43342 0.17361 0.80886
 C259 C 0.44625 0.15279 0.78782
 H260 H 0.42130 0.09823 0.99177
 H261 H 0.44135 0.05859 1.01538
 H262 H 0.47073 0.05823 0.83536
 H263 H 0.40663 0.13974 0.94297
 H264 H 0.40775 0.18314 0.88119
 H265 H 0.45943 0.15706 0.74700
 C266 C 0.66356 0.56080 0.98306
 C267 C 0.67680 0.54314 1.00963
 C268 C 0.66075 0.52188 1.05437
 C269 C 0.62938 0.51798 1.07153
 C270 C 0.61417 0.53440 1.04264
 C271 C 0.63194 0.55673 0.99859
 O272 O 0.68169 0.57765 0.93844
 C273 C 0.70648 0.56992 0.93612
 C274 C 0.70433 0.54852 0.97824
 C275 C 0.72416 0.53303 0.97806
 C276 C 0.74630 0.53894 0.93158
 C277 C 0.74909 0.56088 0.88710
 C278 C 0.73009 0.57800 0.89184
 H279 H 0.67143 0.50785 1.07391
 H280 H 0.61603 0.50048 1.10469
 H281 H 0.62073 0.56903 0.97484
 H282 H 0.72100 0.51519 1.01027
 H283 H 0.75964 0.52482 0.92874
 H284 H 0.73140 0.59488 0.85904
 C285 C 0.89508 0.35191 0.87441
 C286 C 0.86562 0.34682 0.90017
 C287 C 0.86400 0.36489 0.94734
 C288 C 0.89396 0.38968 0.96842
 C289 C 0.92482 0.39627 0.94185
 C290 C 0.92530 0.37672 0.89442
 O291 O 0.89086 0.33220 0.82941
 C292 C 0.85798 0.31448 0.82660
 C293 C 0.84151 0.32272 0.86878
 C294 C 0.80709 0.30846 0.87267
 C295 C 0.78877 0.28466 0.83140
 C296 C 0.80489 0.27526 0.78757
 C297 C 0.84017 0.29020 0.78567
 H298 H 0.84043 0.36039 0.96671
 H299 H 0.89291 0.40438 1.00439
 H300 H 0.94831 0.38122 0.87280
 H301 H 0.79474 0.31569 0.90584
 H302 H 0.76187 0.27361 0.83330
 H303 H 0.85324 0.28335 0.75326
 C304 C 0.53011 0.91817 0.36630
 C305 C 0.55170 0.93087 0.32050
 C306 C 0.55815 0.96019 0.29561
 C307 C 0.54194 0.97715 0.31936
 C308 C 0.52050 0.96503 0.36821
 C309 C 0.51482 0.93505 0.39186
 O310 O 0.52459 0.88865 0.38003
 C311 C 0.54330 0.88256 0.34244
 C312 C 0.56095 0.90778 0.30564
 C313 C 0.58149 0.90596 0.26204
 C314 C 0.58268 0.87651 0.25466
 C315 C 0.56213 0.84930 0.28869
 C316 C 0.54341 0.85299 0.33485
 H317 H 0.57448 0.96934 0.25850
 H318 H 0.54665 0.99996 0.30030
 H319 H 0.49801 0.92444 0.42799
 H320 H 0.59532 0.92611 0.23371
 H321 H 0.59767 0.87417 0.21991
 H322 H 0.52729 0.83270 0.36129
 C323 C 0.37805 0.47268 0.40719
 C324 C 0.37418 0.44609 0.37504
 C325 C 0.39927 0.43691 0.36903
 C326 C 0.42926 0.45548 0.39861
 C327 C 0.43311 0.48205 0.43409
 C328 C 0.40726 0.49094 0.43786
 O329 O 0.35157 0.47775 0.40633
 C330 C 0.33032 0.45364 0.37337
 C331 C 0.34274 0.43332 0.35378
 C332 C 0.32421 0.40594 0.32014
 C333 C 0.29196 0.39984 0.30465
 C334 C 0.27943 0.42169 0.32102
 C335 C 0.29866 0.44849 0.35731
 H336 H 0.39575 0.41606 0.34308
 H337 H 0.44885 0.44836 0.39599
 H338 H 0.40964 0.51114 0.46474
 H339 H 0.33426 0.38995 0.30607
 H340 H 0.27716 0.37880 0.27801
 H341 H 0.28984 0.46558 0.37056
 C342 C 0.09652 0.63160 0.38404
 C343 C 0.12689 0.64150 0.41016
 C344 C 0.13117 0.62671 0.45898
 C345 C 0.10308 0.60009 0.48101
 C346 C 0.07178 0.58854 0.45331
 C347 C 0.06842 0.60489 0.40463
 O348 O 0.09793 0.64870 0.33768
 C349 C 0.12999 0.66961 0.33402
 C350 C 0.14879 0.66597 0.37704
 C351 C 0.18314 0.68417 0.37982
 C352 C 0.19872 0.70708 0.33650
 C353 C 0.17987 0.71159 0.29210
 C354 C 0.14491 0.69295 0.29144
 H355 H 0.15536 0.63495 0.47869
 H356 H 0.10605 0.58758 0.51790
 H357 H 0.04488 0.59648 0.38242
 H358 H 0.19745 0.68061 0.41366
 H359 H 0.22551 0.72150 0.33748
 H360 H 0.12977 0.69664 0.25949
 C361 C 0.92535 0.53736 0.87991
 C362 C 0.91685 0.52298 0.82603
 C363 C 0.93189 0.50575 0.80098
 C364 C 0.95586 0.50215 0.83371
 C365 C 0.96259 0.51383 0.89192
 C366 C 0.94759 0.53242 0.91465
 O367 O 0.90848 0.55320 0.89515
 C368 C 0.88832 0.54801 0.85045
 C369 C 0.89180 0.52884 0.80789
 C370 C 0.87011 0.51658 0.76142
 C371 C 0.84437 0.52518 0.75795
 C372 C 0.84254 0.54809 0.79739
 C373 C 0.86457 0.55898 0.84530
 H374 H 0.92507 0.49504 0.75810
 H375 H 0.96694 0.48786 0.81525
 H376 H 0.95228 0.54194 0.95859
 H377 H 0.87208 0.49994 0.73030
 H378 H 0.82622 0.51440 0.72376
 H379 H 0.86331 0.57540 0.87769
 C380 C 0.49562 0.38362 0.91151
 C381 C 0.51244 0.36886 0.93640
 C382 C 0.52928 0.37925 0.98866
 C383 C 0.52891 0.40607 1.01626
 C384 C 0.51318 0.42285 0.99002
 C385 C 0.49659 0.41149 0.93635
 O386 O 0.47823 0.36786 0.86517
 C387 C 0.48465 0.34289 0.86028
 C388 C 0.50604 0.34281 0.90203
 C389 C 0.51610 0.31892 0.90506
 C390 C 0.50319 0.29381 0.86381
 C391 C 0.47955 0.29222 0.82210
 C392 C 0.47028 0.31734 0.82060
 H393 H 0.54153 0.36664 1.00824
 H394 H 0.54171 0.41425 1.05729
 H395 H 0.48346 0.42301 0.91589
 H396 H 0.53317 0.31951 0.93811
 H397 H 0.51095 0.27507 0.86534
 H398 H 0.45119 0.31632 0.79182
 C399 C 0.62339 0.09816 0.86063
 C400 C 0.63506 0.08266 0.82269
 C401 C 0.61845 0.04951 0.81231
 C402 C 0.58854 0.03160 0.84222
 C403 C 0.57622 0.04699 0.88207
 C404 C 0.59410 0.08073 0.89179
 O405 O 0.64169 0.13005 0.86119
 C406 C 0.66547 0.13477 0.82287
 C407 C 0.66268 0.10652 0.79845
 C408 C 0.68428 0.10589 0.75588
 C409 C 0.70935 0.13564 0.73682
 C410 C 0.71178 0.16512 0.75946
 C411 C 0.69007 0.16463 0.80424
 H412 H 0.62784 0.03795 0.78150
 H413 H 0.57500 0.00576 0.83450
 H414 H 0.58490 0.09313 0.92113
 H415 H 0.68153 0.08336 0.73724
 H416 H 0.72617 0.13584 0.70300
 H417 H 0.69124 0.18680 0.82182
 C418 C 0.10034 0.46090 0.40478
 C419 C 0.10867 0.44653 0.44890
 C420 C 0.09631 0.44446 0.50493
 C421 C 0.07436 0.45759 0.51577
 C422 C 0.06395 0.47103 0.47018
 C423 C 0.07725 0.47250 0.41375
 O424 O 0.11611 0.46198 0.35549
 C425 C 0.13438 0.44747 0.36848
 C426 C 0.13028 0.43697 0.42469
 C427 C 0.14575 0.41963 0.44618
 C428 C 0.16595 0.41256 0.40797
 C429 C 0.17123 0.42375 0.34993
 C430 C 0.15583 0.44240 0.33094
 H431 H 0.10362 0.43352 0.53926
 H432 H 0.06468 0.45624 0.55929
 H433 H 0.07059 0.48317 0.37805
 H434 H 0.14179 0.41115 0.49036
 H435 H 0.17726 0.39815 0.42353
 H436 H 0.16006 0.45247 0.28794
 C437 C 0.54539 0.65641 0.43708
 C438 C 0.52821 0.66929 0.46819
 C439 C 0.50873 0.65408 0.51619
 C440 C 0.50668 0.62428 0.53250
 C441 C 0.52376 0.61020 0.50053
 C442 C 0.54371 0.62689 0.45248
 O443 O 0.56080 0.67359 0.39087
 C444 C 0.55306 0.69778 0.39258
 C445 C 0.53314 0.69629 0.43900
 C446 C 0.51994 0.71776 0.44651
 C447 C 0.52669 0.74101 0.40354
 C448 C 0.54628 0.74236 0.35429
 C449 C 0.56077 0.72121 0.35017
 H450 H 0.49503 0.66443 0.53954
 H451 H 0.49118 0.61188 0.56915
 H452 H 0.55672 0.61674 0.42653
 H453 H 0.50386 0.71581 0.48282
 H454 H 0.51521 0.75683 0.40704
 H455 H 0.57565 0.72153 0.31298
 C456 C 0.34491 0.90276 0.35852
 C457 C 0.33376 0.91430 0.31372
 C458 C 0.35097 0.94591 0.29438
 C459 C 0.38087 0.96649 0.32235
 C460 C 0.39298 0.95529 0.36885
 C461 C 0.37443 0.92293 0.38742
 O462 O 0.32620 0.87133 0.36717
 C463 C 0.30274 0.86286 0.32698
 C464 C 0.30619 0.88832 0.29329
 C465 C 0.28593 0.88451 0.24586
 C466 C 0.26186 0.85304 0.23142
 C467 C 0.25862 0.82624 0.26412
 C468 C 0.27862 0.83137 0.31379
 H469 H 0.34205 0.95426 0.25827
 H470 H 0.39471 0.99109 0.30741
 H471 H 0.38328 0.91341 0.42190
 H472 H 0.28953 0.90481 0.21934
 H473 H 0.24707 0.84922 0.19275
 H474 H 0.27749 0.81119 0.33806
 C475 C 0.51949 0.89526 0.08504
 C476 C 0.53778 0.88540 0.04965
 C477 C 0.54868 0.89820 -0.00522
 C478 C 0.54021 0.92198 -0.02430
 C479 C 0.52218 0.93301 0.01232
 C480 C 0.51181 0.91950 0.06775
 O481 O 0.51112 0.87991 0.13512
 C482 C 0.52470 0.86012 0.13168
 C483 C 0.54162 0.86271 0.08061
 C484 C 0.55920 0.84537 0.06967
 C485 C 0.56011 0.82530 0.11377
 C486 C 0.54323 0.82265 0.16712
 C487 C 0.52409 0.83932 0.17488
 H488 H 0.56290 0.89000 -0.03251
 H489 H 0.54801 0.93212 -0.06700
 H490 H 0.49766 0.92727 0.09616
 H491 H 0.57260 0.84796 0.02942
 H492 H 0.57468 0.81254 0.10711
 H493 H 0.51044 0.83738 0.21462
 C494 C 0.37300 0.45881 0.13151
 C495 C 0.35254 0.42953 0.10564
 C496 C 0.36460 0.41357 0.06828
 C497 C 0.39908 0.42838 0.05747
 C498 C 0.42040 0.45825 0.08448
 C499 C 0.40720 0.47372 0.12172
 O500 O 0.35704 0.46947 0.16716
 C501 C 0.32585 0.44640 0.16413
 C502 C 0.32161 0.42132 0.12729
 C503 C 0.29110 0.39379 0.12071
 C504 C 0.26421 0.39174 0.15460
 C505 C 0.26842 0.41699 0.19396
 C506 C 0.29942 0.44518 0.19696
 H507 H 0.34817 0.39043 0.04881
 H508 H 0.40927 0.41641 0.02914
 H509 H 0.42321 0.49641 0.14321
 H510 H 0.28838 0.37414 0.09202
 H511 H 0.24060 0.37002 0.15211
 H512 H 0.30332 0.46485 0.22655
 C513 C 0.10731 0.60908 0.08522
 C514 C 0.13795 0.60978 0.08124
 C515 C 0.14265 0.58552 0.05330
 C516 C 0.11456 0.55924 0.02943
 C517 C 0.08254 0.55742 0.03500
 C518 C 0.07897 0.58284 0.06307
 O519 O 0.10827 0.63488 0.11210
 C520 C 0.14013 0.65208 0.12600
 C521 C 0.15931 0.63765 0.10874
 C522 C 0.19328 0.65136 0.11985
 C523 C 0.20803 0.68122 0.14958
 C524 C 0.18887 0.69686 0.16692
 C525 C 0.15449 0.68214 0.15419
 H526 H 0.16703 0.58667 0.05029
 H527 H 0.11752 0.53977 0.00852
 H528 H 0.05482 0.58207 0.06789
 H529 H 0.20789 0.63955 0.10605
 H530 H 0.23447 0.69246 0.15841
 H531 H 0.13960 0.69422 0.16401
 C532 C 0.44388 0.11368 0.55278
 C533 C 0.41527 0.09730 0.58486
 C534 C 0.39777 0.06373 0.58551
 C535 C 0.41051 0.04643 0.55235
 C536 C 0.43989 0.06289 0.51891
 C537 C 0.45641 0.09698 0.51828
 O538 O 0.45880 0.14526 0.56300
 C539 C 0.43925 0.14895 0.60229
 C540 C 0.41207 0.12044 0.61685
 C541 C 0.38969 0.11865 0.66018
 C542 C 0.39614 0.14725 0.69069
 C543 C 0.42504 0.17651 0.67837
 C544 C 0.44620 0.17746 0.63221
 H545 H 0.37586 0.05131 0.61226
 H546 H 0.39787 0.02027 0.55341
 H547 H 0.47948 0.11007 0.49466
 H548 H 0.36868 0.09589 0.67140
 H549 H 0.37971 0.14635 0.72578
 H550 H 0.46879 0.19929 0.62269
 C551 C 0.63913 0.56498 0.67724
 C552 C 0.62905 0.54284 0.72125
 C553 C 0.59586 0.52261 0.73371
 C554 C 0.57200 0.52464 0.69835
 C555 C 0.58170 0.54584 0.65049
 C556 C 0.61576 0.56668 0.64024
 O557 O 0.67198 0.58124 0.67205
 C558 C 0.68275 0.56867 0.71301
 C559 C 0.65741 0.54467 0.74349
 C560 C 0.66275 0.52552 0.78327
 C561 C 0.69564 0.53168 0.79261
 C562 C 0.72259 0.55794 0.76515
 C563 C 0.71581 0.57643 0.72410
 H564 H 0.58862 0.50530 0.76842
 H565 H 0.54600 0.50814 0.70594
 H566 H 0.62378 0.58260 0.60336
 H567 H 0.64225 0.50576 0.80467
 H568 H 0.70012 0.51603 0.82145
 H569 H 0.73560 0.59592 0.70086
 C570 C 0.88996 0.37720 0.59940
 C571 C 0.89123 0.35251 0.56792
 C572 C 0.91294 0.35777 0.52168
 C573 C 0.93443 0.38988 0.50736
 C574 C 0.93434 0.41578 0.54007
 C575 C 0.91186 0.40940 0.58694
 O576 O 0.86650 0.36676 0.64016
 C577 C 0.85288 0.33478 0.63447
 C578 C 0.86748 0.32497 0.59129
 C579 C 0.85775 0.29273 0.57822
 C580 C 0.83173 0.26953 0.61075
 C581 C 0.81548 0.27873 0.65469
 C582 C 0.82618 0.31199 0.66651
 H583 H 0.91316 0.33787 0.49726
 H584 H 0.95165 0.39461 0.47158
 H585 H 0.91118 0.42886 0.61217
 H586 H 0.86983 0.28567 0.54429
 H587 H 0.82395 0.24422 0.60141
 H588 H 0.81400 0.31980 0.69905
   
