data_POSCAR
  _audit_creation_date              2014-09-24
  _audit_creation_method            'ToBaCCo'
  _symmetry_space_group_name_H-M    'P1'
  _symmetry_Int_Tables_number       1
  _symmetry_cell_setting            triclinic
  loop_
  _symmetry_equiv_pos_as_xyz
 x,y,z
_cell_length_a 35.2945
_cell_length_b 18.8059
_cell_length_c 15.4494
_cell_angle_alpha 89.869600
_cell_angle_beta 89.970700
_cell_angle_gamma 89.995700
loop_
  _atom_site_label
  _atom_site_type_symbol
  _atom_site_fract_x
  _atom_site_fract_y
  _atom_site_fract_z
C1 C 0.67756 0.31423 0.58104
 C2 C 0.65871 0.31472 0.50094
 C3 C 0.67763 0.31307 0.42128
 C4 C 0.71473 0.28420 0.42125
 C5 C 0.73266 0.26693 0.50143
 C6 C 0.71456 0.28395 0.58155
 C7 C 0.73322 0.26678 0.65902
 C8 C 0.76884 0.23562 0.65891
 C9 C 0.78660 0.21481 0.58158
 C10 C 0.76861 0.23207 0.50136
 C11 C 0.73369 0.26895 0.34378
 C12 C 0.76932 0.23803 0.34385
 C13 C 0.78665 0.21551 0.42101
 C14 C 0.82259 0.18128 0.42107
 C15 C 0.84138 0.17741 0.50098
 C16 C 0.82280 0.18132 0.58126
 H17 H 0.72044 0.27563 0.72146
 H18 H 0.78234 0.22967 0.72105
 H19 H 0.72117 0.27930 0.28139
 H20 H 0.78320 0.23376 0.28195
 H21 H 0.62817 0.31634 0.50064
 H22 H 0.87177 0.17030 0.50035
 C23 C 0.18681 0.84100 0.57970
 C24 C 0.17712 0.87170 0.49984
 C25 C 0.18714 0.84031 0.42076
 C26 C 0.21896 0.79438 0.42095
 C27 C 0.23484 0.77190 0.50119
 C28 C 0.21845 0.79451 0.58080
 C29 C 0.23502 0.77221 0.65888
 C30 C 0.26647 0.72771 0.65950
 C31 C 0.28255 0.70288 0.58201
 C32 C 0.26642 0.72492 0.50179
 C33 C 0.23639 0.77305 0.34358
 C34 C 0.26775 0.72830 0.34417
 C35 C 0.28258 0.70163 0.42215
 C36 C 0.31217 0.65039 0.42330
 C37 C 0.32049 0.61893 0.50343
 C38 C 0.31329 0.65412 0.58181
 H39 H 0.22437 0.78990 0.72074
 H40 H 0.27727 0.71154 0.72190
 H41 H 0.22646 0.79185 0.28145
 H42 H 0.27953 0.71390 0.28221
 H43 H 0.15991 0.91899 0.49898
 H44 H 0.33469 0.56839 0.50560
 C45 C 0.18259 0.17042 -0.42146
 C46 C 0.16404 0.16268 -0.50111
 C47 C 0.18187 0.16982 -0.58205
 C48 C 0.21683 0.20764 -0.58310
 C49 C 0.23431 0.22731 -0.50315
 C50 C 0.21776 0.20700 -0.42237
 C51 C 0.23536 0.22904 -0.34537
 C52 C 0.26815 0.26972 -0.34644
 C53 C 0.28378 0.29392 -0.42452
 C54 C 0.26720 0.27127 -0.50391
 C55 C 0.23318 0.23192 -0.66085
 C56 C 0.26615 0.27195 -0.66139
 C57 C 0.28342 0.29321 -0.58405
 C58 C 0.31460 0.34081 -0.58403
 C59 C 0.32225 0.37557 -0.50577
 C60 C 0.31375 0.34426 -0.42580
 H61 H 0.22317 0.21901 -0.28269
 H62 H 0.27959 0.28534 -0.28460
 H63 H 0.21986 0.22427 -0.72279
 H64 H 0.27640 0.29000 -0.72358
 H65 H 0.13384 0.15430 -0.50007
 H66 H 0.33685 0.42576 -0.50797
 C67 C -0.32173 0.67928 -0.42034
 C68 C -0.34028 0.67506 -0.50070
 C69 C -0.32168 0.67872 -0.58103
 C70 C -0.28579 0.71333 -0.58143
 C71 C -0.26826 0.73211 -0.50114
 C72 C -0.28564 0.71331 -0.42052
 C73 C -0.26799 0.73489 -0.34323
 C74 C -0.23446 0.77357 -0.34384
 C75 C -0.21742 0.79457 -0.42173
 C76 C -0.23423 0.77312 -0.50148
 C77 C -0.26863 0.73578 -0.65902
 C78 C -0.23506 0.77421 -0.65912
 C79 C -0.21731 0.79380 -0.58159
 C80 C -0.18492 0.83871 -0.58127
 C81 C -0.17616 0.87171 -0.50233
 C82 C -0.18576 0.84111 -0.42255
 H83 H -0.28080 0.72618 -0.28077
 H84 H -0.22341 0.79056 -0.28204
 H85 H -0.28189 0.72802 -0.72111
 H86 H -0.22459 0.79232 -0.72110
 H87 H -0.37077 0.67075 -0.50095
 H88 H -0.15956 0.91986 -0.50340
 O89 O -0.05209 0.87631 0.16053
 O90 O -0.09476 0.94284 0.08261
 C91 C -0.08614 0.89924 0.14502
 O92 O 0.05383 1.12197 0.15733
 O93 O 0.09646 1.05552 0.07952
 C94 C 0.08793 1.10044 0.14036
 O95 O -0.05055 1.11766 0.16424
 O96 O -0.09426 1.05711 0.08262
 C97 C -0.08495 1.09888 0.14623
 O98 O 0.05326 0.86983 0.15463
 O99 O 0.09599 0.93783 0.07889
 C100 C 0.08741 0.89266 0.13951
 Zr101 Zr 0.00040 0.90600 0.10657
 O102 O 0.00193 0.89078 0.24194
 O103 O -0.00369 0.79439 0.09064
 Zr104 Zr 0.00123 1.08769 0.10856
 O105 O 0.00430 1.09769 0.24471
 O106 O -0.00222 1.19979 0.09684
 O107 O -0.03221 0.99733 0.12598
 O108 O 0.03281 0.99630 0.12462
 O109 O 0.05301 0.87204 -0.15470
 O110 O 0.09590 0.93879 -0.07818
 C111 C 0.08720 0.89437 -0.13928
 O112 O -0.05066 1.12061 -0.15927
 O113 O -0.09427 1.05800 -0.07923
 C114 C -0.08501 1.10088 -0.14203
 O115 O 0.05378 1.12417 -0.15367
 O116 O 0.09639 1.05650 -0.07715
 C117 C 0.08786 1.10211 -0.13745
 O118 O -0.05229 0.87894 -0.16003
 O119 O -0.09493 0.94370 -0.08007
 C120 C -0.08636 0.90118 -0.14339
 Zr121 Zr 0.00026 0.90766 -0.10586
 O122 O 0.00173 0.89452 -0.24151
 O123 O -0.00392 0.79582 -0.09195
 Zr124 Zr 0.00116 1.08945 -0.10465
 O125 O 0.00397 1.10219 -0.24052
 O126 O -0.00210 1.20130 -0.09018
 Zr127 Zr -0.05668 0.99917 0.00134
 Zr128 Zr 0.05816 0.99724 0.00091
 O129 O 0.03266 0.99820 -0.12257
 O130 O -0.03231 0.99932 -0.12348
 O131 O 0.03555 0.89299 0.00009
 O132 O -0.03300 1.10176 0.00217
 O133 O -0.03421 0.89543 0.00040
 O134 O 0.03632 1.10180 0.00195
 H135 H 0.04797 0.99583 0.17836
 H136 H -0.05078 1.14259 0.00258
 H137 H 0.04776 0.99837 -0.17643
 H138 H -0.05249 0.85540 0.00016
 H139 H 0.02324 1.21768 0.08106
 H140 H 0.02353 1.21887 -0.07546
 H141 H -0.00811 1.05982 -0.26624
 H142 H -0.00159 0.94233 -0.26688
 H143 H 0.02172 0.77713 -0.07949
 H144 H 0.02199 0.77596 0.07801
 H145 H -0.00087 0.93833 0.26811
 H146 H -0.00859 1.05571 0.26965
 O147 O 0.44712 0.37597 0.15735
 O148 O 0.40426 0.44184 0.07923
 C149 C 0.41303 0.39822 0.14154
 O150 O 0.55184 0.62347 0.15621
 O151 O 0.59498 0.55753 0.07905
 C152 C 0.58609 0.60235 0.13991
 O153 O 0.44697 0.61700 0.16298
 O154 O 0.40404 0.55585 0.07988
 C155 C 0.41276 0.59670 0.14464
 O156 O 0.55162 0.37021 0.15073
 O157 O 0.59479 0.43923 0.07748
 C158 C 0.58579 0.39260 0.13642
 Zr159 Zr 0.49926 0.40689 0.10318
 O160 O 0.50129 0.39077 0.23844
 O161 O 0.49528 0.29538 0.08583
 Zr162 Zr 0.49934 0.58868 0.10711
 O163 O 0.50217 0.59911 0.24315
 O164 O 0.49530 0.70073 0.09592
 O165 O 0.46635 0.49756 0.12354
 O166 O 0.53135 0.49749 0.12239
 O167 O 0.55181 0.37405 -0.15671
 O168 O 0.59497 0.44093 -0.08092
 C169 C 0.58604 0.39544 -0.14098
 O170 O 0.44733 0.62177 -0.16138
 O171 O 0.40433 0.55740 -0.08173
 C172 C 0.41314 0.60016 -0.14488
 O173 O 0.55209 0.62740 -0.15437
 O174 O 0.59506 0.55937 -0.07926
 C175 C 0.58628 0.60542 -0.13903
 O176 O 0.44711 0.38114 -0.16439
 O177 O 0.40412 0.44340 -0.08251
 C178 C 0.41293 0.40188 -0.14660
 Zr179 Zr 0.49936 0.41025 -0.10929
 O180 O 0.50233 0.40089 -0.24541
 O181 O 0.49498 0.29816 -0.09899
 Zr182 Zr 0.49950 0.59201 -0.10575
 O183 O 0.50162 0.60921 -0.24083
 O184 O 0.49576 0.70345 -0.08778
 Zr185 Zr 0.44206 0.49962 -0.00125
 Zr186 Zr 0.55698 0.49937 -0.00105
 O187 O 0.53152 0.50119 -0.12460
 O188 O 0.46650 0.50145 -0.12597
 O189 O 0.53454 0.39506 -0.00322
 O190 O 0.46507 0.60279 0.00080
 O191 O 0.46494 0.39638 -0.00330
 O192 O 0.53464 0.60379 0.00100
 H193 H 0.54655 0.49677 0.17609
 H194 H 0.44693 0.64306 0.00143
 H195 H 0.54683 0.50139 -0.17816
 H196 H 0.44684 0.35606 -0.00402
 H197 H 0.52077 0.71922 0.08131
 H198 H 0.52160 0.72155 -0.07626
 H199 H 0.49931 0.56202 -0.26816
 H200 H 0.49152 0.44508 -0.26966
 H201 H 0.52015 0.27933 -0.08248
 H202 H 0.52093 0.27707 0.07273
 H203 H 0.49774 0.43790 0.26524
 H204 H 0.49146 0.55502 0.26793
 C205 C 0.33922 0.35389 0.34143
 C206 C 0.35156 0.28678 0.29048
 C207 C 0.37480 0.30053 0.22134
 C208 C 0.38407 0.37980 0.20970
 C209 C 0.34527 0.41644 0.20349
 C210 C 0.32214 0.40394 0.27271
 C211 C 0.37774 0.38774 0.36522
 C212 C 0.40017 0.40232 0.29738
 H213 H 0.34344 0.23302 0.30823
 H214 H 0.38595 0.25891 0.17997
 H215 H 0.33570 0.44521 0.14679
 H216 H 0.29345 0.42462 0.27593
 H217 H 0.38950 0.39095 0.42967
 H218 H 0.42896 0.42099 0.30705
 C219 C -0.16042 0.85213 0.34376
 C220 C -0.17602 0.90826 0.28027
 C221 C -0.15271 0.92260 0.21179
 C222 C -0.11532 0.88068 0.21294
 C223 C -0.09809 0.89595 0.30179
 C224 C -0.12060 0.87946 0.36877
 C225 C -0.15066 0.78701 0.28660
 C226 C -0.12735 0.80218 0.21794
 H227 H -0.20370 0.93281 0.28700
 H228 H -0.16096 0.95795 0.15968
 H229 H -0.06881 0.91129 0.31231
 H230 H -0.10828 0.87624 0.43245
 H231 H -0.16023 0.73329 0.30022
 H232 H -0.11772 0.76185 0.17286
 C233 C 0.65711 0.65682 0.34161
 C234 C 0.62471 0.60361 0.36128
 C235 C 0.60247 0.58832 0.29314
 C236 C 0.61468 0.62315 0.20800
 C237 C 0.61592 0.70301 0.22744
 C238 C 0.63775 0.72043 0.29683
 C239 C 0.67861 0.61754 0.26822
 C240 C 0.65648 0.60080 0.19783
 H241 H 0.62139 0.57405 0.42119
 H242 H 0.57913 0.55126 0.29878
 H243 H 0.60118 0.74274 0.18908
 H244 H 0.64145 0.77516 0.31744
 H245 H 0.70809 0.60154 0.27258
 H246 H 0.66740 0.57226 0.14221
 C247 C 0.16020 1.14946 0.34090
 C248 C 0.12911 1.09325 0.35889
 C249 C 0.10629 1.07981 0.29111
 C250 C 0.11679 1.11971 0.20802
 C251 C 0.11678 1.19845 0.23306
 C252 C 0.13915 1.21384 0.30209
 C253 C 0.18143 1.11506 0.26362
 C254 C 0.15879 1.10093 0.19338
 H255 H 0.12735 1.06042 0.41666
 H256 H 0.08411 1.04014 0.29506
 H257 H 0.10089 1.23900 0.19856
 H258 H 0.14215 1.26770 0.32636
 H259 H 0.21117 1.10043 0.26503
 H260 H 0.16959 1.07702 0.13451
 C261 C 0.65645 0.33744 -0.34211
 C262 C 0.62257 0.38672 -0.36360
 C263 C 0.60062 0.40328 -0.29552
 C264 C 0.61446 0.37363 -0.20883
 C265 C 0.61752 0.29315 -0.22276
 C266 C 0.63918 0.27438 -0.29201
 C267 C 0.67757 0.38200 -0.27279
 C268 C 0.65570 0.40006 -0.20249
 H269 H 0.61807 0.41359 -0.42487
 H270 H 0.57633 0.43800 -0.30257
 H271 H 0.60411 0.25410 -0.18094
 H272 H 0.64410 0.21916 -0.30904
 H273 H 0.70652 0.40059 -0.28002
 H274 H 0.66634 0.43234 -0.14971
 C275 C 0.16089 0.85436 -0.34114
 C276 C 0.12222 0.88789 -0.36403
 C277 C 0.09969 0.90063 -0.29570
 C278 C 0.11615 0.87763 -0.20835
 C279 C 0.12614 0.79890 -0.22086
 C280 C 0.14924 0.78660 -0.29047
 C281 C 0.17774 0.90433 -0.27235
 C282 C 0.15459 0.91604 -0.20287
 H283 H 0.11051 0.89368 -0.42805
 H284 H 0.07096 0.91974 -0.30476
 H285 H 0.11552 0.75651 -0.17970
 H286 H 0.15782 0.73330 -0.30883
 H287 H 0.20585 0.92738 -0.27714
 H288 H 0.16338 0.94786 -0.14804
 C289 C 0.33843 0.64170 -0.34424
 C290 C 0.32120 0.59488 -0.27242
 C291 C 0.34470 0.58342 -0.20359
 C292 C 0.38397 0.61784 -0.21302
 C293 C 0.39911 0.59170 -0.30010
 C294 C 0.37628 0.60494 -0.36780
 C295 C 0.35218 0.70973 -0.29708
 C296 C 0.37572 0.69709 -0.22823
 H297 H 0.29224 0.57542 -0.27357
 H298 H 0.33520 0.55666 -0.14533
 H299 H 0.42767 0.57185 -0.30985
 H300 H 0.38755 0.59889 -0.43244
 H301 H 0.34472 0.76328 -0.31716
 H302 H 0.38779 0.73946 -0.18945
 C303 C -0.15617 1.15828 -0.34171
 C304 C -0.13535 1.22090 -0.29881
 C305 C -0.11337 1.20256 -0.23003
 C306 C -0.11358 1.12283 -0.20925
 C307 C -0.15568 1.10380 -0.19688
 C308 C -0.17789 1.12092 -0.26695
 C309 C -0.12499 1.10266 -0.36159
 C310 C -0.10261 1.08638 -0.29395
 H311 H -0.13823 1.27571 -0.32011
 H312 H -0.09766 1.24158 -0.19281
 H313 H -0.16687 1.07792 -0.13954
 H314 H -0.20762 1.10638 -0.26998
 H315 H -0.12273 1.07241 -0.42106
 H316 H -0.08013 1.04742 -0.29927
 C317 C 0.65701 0.65813 -0.34250
 C318 C 0.62375 0.60671 -0.36133
 C319 C 0.60160 0.59233 -0.29269
 C320 C 0.61476 0.62586 -0.20776
 C321 C 0.65627 0.60131 -0.19894
 C322 C 0.67829 0.61738 -0.26987
 C323 C 0.63878 0.72246 -0.29694
 C324 C 0.61703 0.70574 -0.22693
 H325 H 0.61975 0.57720 -0.42086
 H326 H 0.57757 0.55688 -0.29800
 H327 H 0.66707 0.57191 -0.14372
 H328 H 0.70753 0.60003 -0.27508
 H329 H 0.64314 0.77710 -0.31753
 H330 H 0.60301 0.74593 -0.18807
 C331 C 0.16007 1.14971 -0.33911
 C332 C 0.18111 1.11410 -0.26244
 C333 C 0.15849 1.10036 -0.19192
 C334 C 0.11667 1.12115 -0.20561
 C335 C 0.11763 1.20006 -0.23024
 C336 C 0.14006 1.21482 -0.29963
 C337 C 0.12819 1.09538 -0.35687
 C338 C 0.10540 1.08251 -0.28880
 H339 H 0.21067 1.09830 -0.26454
 H340 H 0.16919 1.07562 -0.13335
 H341 H 0.10238 1.24108 -0.19526
 H342 H 0.14382 1.26861 -0.32379
 H343 H 0.12584 1.06306 -0.41473
 H344 H 0.08253 1.04430 -0.29283
 C345 C 0.33935 0.36060 -0.34712
 C346 C 0.37478 0.40609 -0.36751
 C347 C 0.39720 0.41853 -0.29902
 C348 C 0.38385 0.38450 -0.21450
 C349 C 0.34313 0.41157 -0.20185
 C350 C 0.32006 0.40020 -0.27166
 C351 C 0.35634 0.29288 -0.30540
 C352 C 0.37940 0.30537 -0.23607
 H353 H 0.38467 0.42289 -0.43027
 H354 H 0.42404 0.44599 -0.30641
 H355 H 0.33275 0.43415 -0.14187
 H356 H 0.29046 0.41581 -0.27200
 H357 H 0.35085 0.23951 -0.32889
 H358 H 0.39319 0.26295 -0.20024
 C359 C -0.16023 0.85659 -0.34318
 C360 C -0.17758 0.90676 -0.27505
 C361 C -0.15442 0.92031 -0.20596
 C362 C -0.11559 0.88335 -0.21127
 C363 C -0.12481 0.80405 -0.22229
 C364 C -0.14790 0.78998 -0.29137
 C365 C -0.12192 0.89145 -0.36666
 C366 C -0.09949 0.90581 -0.29894
 H367 H -0.20603 0.92830 -0.27976
 H368 H -0.16353 0.95197 -0.15126
 H369 H -0.11385 0.76261 -0.18020
 H370 H -0.15617 0.73621 -0.30832
 H371 H -0.11018 0.89736 -0.43048
 H372 H -0.07085 0.92533 -0.30867
 C373 C 0.33818 0.63478 0.34486
 C374 C 0.35629 0.70299 0.30679
 C375 C 0.37971 0.69174 0.23772
 C376 C 0.38344 0.61321 0.21261
 C377 C 0.39578 0.57608 0.29596
 C378 C 0.37292 0.58706 0.36424
 C379 C 0.31903 0.59837 0.26693
 C380 C 0.34248 0.58827 0.19741
 H381 H 0.35121 0.75581 0.33249
 H382 H 0.39422 0.73468 0.20438
 H383 H 0.42222 0.54714 0.30273
 H384 H 0.38183 0.56682 0.42626
 H385 H 0.28930 0.58372 0.26565
 H386 H 0.33231 0.56767 0.13619
 C387 C -0.15654 1.15775 0.34420
 C388 C -0.17846 1.12386 0.26750
 C389 C -0.15604 1.10629 0.19797
 C390 C -0.11365 1.12113 0.21290
 C391 C -0.11164 1.20032 0.23581
 C392 C -0.13377 1.21923 0.30394
 C393 C -0.12704 1.09896 0.36417
 C394 C -0.10450 1.08174 0.29704
 H395 H -0.20847 1.11132 0.26901
 H396 H -0.16730 1.08237 0.13960
 H397 H -0.09468 1.23870 0.20028
 H398 H -0.13551 1.27382 0.32639
 H399 H -0.12614 1.06789 0.42340
 H400 H -0.08350 1.03983 0.30195
 C401 C 0.65542 0.33659 0.33966
 C402 C 0.62036 0.38259 0.36067
 C403 C 0.59871 0.39871 0.29186
 C404 C 0.61388 0.37133 0.20524
 C405 C 0.65458 0.40078 0.20101
 C406 C 0.67619 0.38335 0.27190
 C407 C 0.63994 0.27292 0.28809
 C408 C 0.61845 0.29095 0.21816
 H409 H 0.61480 0.40829 0.42203
 H410 H 0.57377 0.43185 0.29843
 H411 H 0.66510 0.43410 0.14887
 H412 H 0.70479 0.40334 0.28040
 H413 H 0.64590 0.21796 0.30484
 H414 H 0.60618 0.25153 0.17530
 C415 C 0.16132 0.85274 0.34120
 C416 C 0.17744 0.90495 0.27374
 C417 C 0.15423 0.91659 0.20437
 C418 C 0.11642 0.87587 0.20859
 C419 C 0.12774 0.79751 0.21937
 C420 C 0.15098 0.78526 0.28888
 C421 C 0.12203 0.88321 0.36450
 C422 C 0.09945 0.89618 0.29634
 H423 H 0.20519 0.92938 0.27915
 H424 H 0.16264 0.94978 0.15024
 H425 H 0.11789 0.75532 0.17720
 H426 H 0.16042 0.73217 0.30613
 H427 H 0.11013 0.88634 0.42867
 H428 H 0.07045 0.91366 0.30568
   
