data_POSCAR
  _audit_creation_date              2014-09-24
  _audit_creation_method            'ToBaCCo'
  _symmetry_space_group_name_H-M    'P1'
  _symmetry_Int_Tables_number       1
  _symmetry_cell_setting            triclinic
  loop_
  _symmetry_equiv_pos_as_xyz
 x,y,z
_cell_length_a 56.8477
_cell_length_b 56.8702
_cell_length_c 56.8594
_cell_angle_alpha 89.998900
_cell_angle_beta 89.973400
_cell_angle_gamma 90.001300
loop_
  _atom_site_label
  _atom_site_type_symbol
  _atom_site_fract_x
  _atom_site_fract_y
  _atom_site_fract_z
C1 C 0.21358 0.51763 1.02911
 H2 H 0.21296 0.53117 1.01576
 C3 C 0.19770 0.51812 1.04784
 H4 H 0.18484 0.53215 1.04896
 C5 C 0.23071 0.48246 1.04360
 H6 H 0.24327 0.46835 1.04164
 C7 C 0.21513 0.48226 1.06262
 H8 H 0.21594 0.46809 1.07534
 N9 N 0.22975 0.50007 1.02741
 C10 C 0.28552 0.52855 0.98307
 H11 H 0.28615 0.51519 0.96954
 C12 C 0.30139 0.54728 0.98255
 H13 H 0.31425 0.54843 0.96854
 C14 C 0.26840 0.54307 1.01825
 H15 H 0.25584 0.54113 1.03237
 C16 C 0.28397 0.56209 1.01840
 H17 H 0.28321 0.57485 1.03252
 Zn18 Zn 0.24956 0.50010 1.00064
 N19 N 0.26936 0.52686 1.00065
 C20 C 0.23071 0.51770 0.95768
 N21 N 0.22975 0.50011 0.97390
 C22 C 0.21360 0.48253 0.97222
 C23 C 0.19775 0.48200 0.95348
 C24 C 0.21516 0.51783 0.93865
 C25 C 0.28554 0.47167 1.01818
 C26 C 0.30143 0.45296 1.01866
 C27 C 0.28402 0.43817 0.98282
 C28 C 0.26843 0.45717 0.98300
 N29 N 0.26938 0.47337 1.00061
 H30 H 0.24325 0.53182 0.95962
 H31 H 0.21297 0.46900 0.98558
 H32 H 0.18489 0.46798 0.95232
 H33 H 0.21592 0.53195 0.92588
 H34 H 0.28617 0.48502 1.03172
 H35 H 0.31430 0.45180 1.03266
 H36 H 0.28327 0.42542 0.96868
 H37 H 0.25588 0.45912 0.96889
 C38 C 0.30062 0.56417 1.00040
 C39 C 0.19845 0.50024 1.06473
 C40 C 0.30067 0.43608 1.00080
 C41 C 0.19852 0.49983 0.93657
 C42 C 0.78589 0.51772 -0.02804
 H43 H 0.78656 0.53123 -0.01466
 C44 C 0.80174 0.51824 -0.04680
 H45 H 0.81463 0.53222 -0.04795
 C46 C 0.76872 0.48260 -0.04260
 H47 H 0.75615 0.46849 -0.04066
 C48 C 0.78427 0.48245 -0.06164
 H49 H 0.78349 0.46835 -0.07442
 N50 N 0.76971 0.50016 -0.02636
 C51 C 0.71403 0.52858 0.01812
 H52 H 0.71341 0.51520 0.03164
 C53 C 0.69816 0.54730 0.01868
 H54 H 0.68530 0.54843 0.03270
 C55 C 0.73110 0.54314 -0.01706
 H56 H 0.74363 0.54122 -0.03121
 C57 C 0.71553 0.56216 -0.01717
 H58 H 0.71626 0.57493 -0.03129
 Zn59 Zn 0.74994 0.50014 0.00043
 N60 N 0.73016 0.52691 0.00052
 C61 C 0.76888 0.51761 0.04341
 N62 N 0.76979 0.50006 0.02714
 C63 C 0.78593 0.48246 0.02875
 C64 C 0.80184 0.48188 0.04744
 C65 C 0.78449 0.51770 0.06239
 C66 C 0.71392 0.47180 -0.01714
 C67 C 0.69802 0.45309 -0.01768
 C68 C 0.71547 0.43816 0.01808
 C69 C 0.73106 0.45715 0.01796
 N70 N 0.73010 0.47342 0.00041
 H71 H 0.75634 0.53174 0.04153
 H72 H 0.78652 0.46897 0.01535
 H73 H 0.81469 0.46786 0.04852
 H74 H 0.78378 0.53179 0.07519
 H75 H 0.71328 0.48520 -0.03064
 H76 H 0.68514 0.45199 -0.03167
 H77 H 0.71623 0.42535 0.03217
 H78 H 0.74364 0.45904 0.03206
 C79 C 0.69889 0.56421 0.00084
 C80 C 0.80094 0.50042 -0.06372
 C81 C 0.69879 0.43615 0.00012
 C82 C 0.80113 0.49969 0.06438
 C83 C -0.01766 0.28643 0.47107
 H84 H -0.03111 0.28705 0.48452
 C85 C -0.01830 0.30231 0.45235
 H86 H -0.03235 0.31515 0.45135
 C87 C 0.01743 0.26935 0.45630
 H88 H 0.03157 0.25680 0.45814
 C89 C 0.01748 0.28492 0.43728
 H90 H 0.03156 0.28412 0.42445
 N91 N -0.00007 0.27029 0.47263
 C92 C -0.02824 0.21449 0.51709
 H93 H -0.01480 0.21386 0.53054
 C94 C -0.04696 0.19861 0.51770
 H95 H -0.04803 0.18574 0.53170
 C96 C -0.04298 0.23162 0.48202
 H97 H -0.04113 0.24418 0.46790
 C98 C -0.06199 0.21604 0.48196
 H99 H -0.07484 0.21679 0.46791
 Zn100 Zn 0.00009 0.25047 0.49937
 N101 N -0.02666 0.23066 0.49952
 C102 C -0.01725 0.26927 0.54248
 N103 N 0.00023 0.27025 0.52613
 C104 C 0.01782 0.28641 0.52771
 C105 C 0.01846 0.30224 0.54647
 C106 C -0.01727 0.28480 0.56153
 C107 C 0.02846 0.21453 0.48162
 C108 C 0.04718 0.19865 0.48102
 C109 C 0.06216 0.21605 0.51679
 C110 C 0.04315 0.23162 0.51672
 N111 N 0.02685 0.23068 0.49921
 H112 H -0.03138 0.25672 0.54062
 H113 H 0.03126 0.28706 0.51425
 H114 H 0.03248 0.31510 0.54754
 H115 H -0.03130 0.28402 0.57440
 H116 H 0.01503 0.21390 0.46815
 H117 H 0.04827 0.18579 0.46701
 H118 H 0.07498 0.21679 0.53086
 H119 H 0.04127 0.24417 0.53086
 C120 C -0.06396 0.19938 0.49995
 C121 C -0.00054 0.30158 0.43532
 C122 C 0.06415 0.19940 0.49879
 C123 C 0.00074 0.30144 0.56350
 C124 C 0.98228 0.71398 0.52821
 H125 H 0.96887 0.71333 0.51473
 C126 C 0.98161 0.69813 0.54695
 H127 H 0.96759 0.68526 0.54800
 C128 C 1.01731 0.73112 0.54303
 H129 H 1.03145 0.74368 0.54121
 C130 C 1.01730 0.71558 0.56207
 H131 H 1.03131 0.71635 0.57496
 N132 N 0.99987 0.73014 0.52667
 C133 C 0.97178 0.78583 0.48205
 H134 H 0.98525 0.78645 0.46862
 C135 C 0.95306 0.80171 0.48140
 H136 H 0.95202 0.81457 0.46738
 C137 C 0.95697 0.76877 0.51714
 H138 H 0.95880 0.75623 0.53129
 C139 C 0.93796 0.78435 0.51715
 H140 H 0.92509 0.78362 0.53119
 Zn141 Zn 1.00009 0.74991 0.49989
 N142 N 0.97332 0.76970 0.49966
 C143 C 0.98289 0.73100 0.45679
 N144 N 1.00034 0.73008 0.47317
 C145 C 1.01794 0.71394 0.47167
 C146 C 1.01864 0.69805 0.45296
 C147 C 0.98293 0.71541 0.43779
 C148 C 1.02835 0.78591 0.51766
 C149 C 1.04706 0.80180 0.51829
 C150 C 1.06219 0.78437 0.48259
 C151 C 1.04319 0.76878 0.48262
 N152 N 1.02683 0.76973 0.50009
 H153 H 0.96875 0.74354 0.45859
 H154 H 1.03135 0.71334 0.48515
 H155 H 1.03267 0.68519 0.45196
 H156 H 0.96893 0.71613 0.42490
 H157 H 1.01487 0.78654 0.53109
 H158 H 1.04808 0.81469 0.53229
 H159 H 1.07507 0.78362 0.46856
 H160 H 1.04138 0.75621 0.46850
 C161 C 0.93603 0.80098 0.49914
 C162 C 0.99930 0.69892 0.56401
 C163 C 1.06410 0.80104 0.50057
 C164 C 1.00096 0.69878 0.43590
 C165 C 0.47173 -0.01833 0.28548
 H166 H 0.48517 -0.03179 0.28611
 C167 C 0.45301 -0.01892 0.30138
 H168 H 0.45194 -0.03292 0.31426
 C169 C 0.45701 0.01675 0.26836
 H170 H 0.45887 0.03087 0.25581
 C171 C 0.43800 0.01682 0.28395
 H172 H 0.42516 0.03088 0.28321
 N173 N 0.47332 -0.00076 0.26931
 C174 C 0.51787 -0.02890 0.21355
 H175 H 0.53130 -0.01544 0.21292
 C176 C 0.51852 -0.04761 0.19767
 H177 H 0.53257 -0.04861 0.18482
 C178 C 0.48279 -0.04368 0.23067
 H179 H 0.46866 -0.04184 0.24323
 C180 C 0.48276 -0.06269 0.21510
 H181 H 0.46870 -0.07553 0.21590
 Zn182 Zn 0.50008 -0.00059 0.24951
 N183 N 0.50027 -0.02734 0.22971
 C184 C 0.54318 -0.01787 0.26836
 N185 N 0.52683 -0.00039 0.26931
 C186 C 0.52838 0.01719 0.28546
 C187 C 0.54710 0.01784 0.30133
 C188 C 0.56219 -0.01788 0.28393
 C189 C 0.48231 0.02769 0.21354
 C190 C 0.48163 0.04643 0.19770
 C191 C 0.51734 0.06154 0.21511
 C192 C 0.51735 0.04251 0.23066
 N193 N 0.49990 0.02615 0.22969
 H194 H 0.54135 -0.03200 0.25581
 H195 H 0.51491 0.03062 0.28608
 H196 H 0.54814 0.03186 0.31419
 H197 H 0.57506 -0.03191 0.28319
 H198 H 0.46889 0.01422 0.21291
 H199 H 0.46761 0.04748 0.18484
 H200 H 0.53135 0.07444 0.21587
 H201 H 0.53149 0.04069 0.24320
 C202 C 0.50078 -0.06465 0.19842
 C203 C 0.43602 -0.00116 0.30062
 C204 C 0.49933 0.06348 0.19848
 C205 C 0.56413 0.00012 0.30058
 C206 C 0.52847 -0.01786 0.71406
 H207 H 0.51503 -0.03132 0.71343
 C208 C 0.54720 -0.01847 0.69818
 H209 H 0.54827 -0.03248 0.68531
 C210 C 0.54319 0.01723 0.73116
 H211 H 0.54132 0.03136 0.74370
 C212 C 0.56221 0.01728 0.71558
 H213 H 0.57505 0.03134 0.71632
 N214 N 0.52688 -0.00028 0.73021
 C215 C 0.48226 -0.02835 0.78596
 H216 H 0.46884 -0.01488 0.78657
 C217 C 0.48158 -0.04706 0.80184
 H218 H 0.46755 -0.04809 0.81470
 C219 C 0.51734 -0.04318 0.76888
 H220 H 0.53149 -0.04137 0.75634
 C221 C 0.51732 -0.06219 0.78447
 H222 H 0.53135 -0.07507 0.78373
 Zn223 Zn 0.50010 -0.00009 0.75000
 N224 N 0.49988 -0.02682 0.76981
 C225 C 0.45701 -0.01738 0.73113
 N226 N 0.47336 0.00009 0.73017
 C227 C 0.47182 0.01767 0.71401
 C228 C 0.45311 0.01831 0.69813
 C229 C 0.43801 -0.01740 0.71555
 C230 C 0.51783 0.02823 0.78595
 C231 C 0.51847 0.04697 0.80180
 C232 C 0.48276 0.06204 0.78435
 C233 C 0.48279 0.04301 0.76880
 N234 N 0.50026 0.02667 0.76978
 H235 H 0.45884 -0.03150 0.74369
 H236 H 0.48529 0.03110 0.71337
 H237 H 0.45207 0.03231 0.68525
 H238 H 0.42513 -0.03143 0.71630
 H239 H 0.53126 0.01477 0.78660
 H240 H 0.53248 0.04803 0.81467
 H241 H 0.46874 0.07492 0.78358
 H242 H 0.46867 0.04117 0.75624
 C243 C 0.49930 -0.06411 0.80110
 C244 C 0.56419 -0.00072 0.69893
 C245 C 0.50075 0.06400 0.80101
 C246 C 0.43608 0.00059 0.69889
 C247 C 0.28604 0.01770 0.47139
 H248 H 0.28669 0.03124 0.48474
 C249 C 0.30192 0.01816 0.45265
 H250 H 0.31481 0.03214 0.45148
 C251 C 0.26887 -0.01746 0.45691
 H252 H 0.25629 -0.03155 0.45887
 C253 C 0.28444 -0.01766 0.43789
 H254 H 0.28367 -0.03180 0.42514
 N255 N 0.26985 0.00016 0.47310
 C256 C 0.21412 0.02872 0.51743
 H257 H 0.21347 0.01537 0.53098
 C258 C 0.19827 0.04746 0.51792
 H259 H 0.18540 0.04864 0.53193
 C260 C 0.23126 0.04319 0.48223
 H261 H 0.24381 0.04121 0.46811
 C262 C 0.21570 0.06221 0.48206
 H263 H 0.21647 0.07496 0.46792
 Zn264 Zn 0.25005 0.00022 0.49987
 N265 N 0.23028 0.02699 0.49985
 C266 C 0.26893 0.01779 0.54282
 N267 N 0.26986 0.00020 0.52661
 C268 C 0.28599 -0.01740 0.52828
 C269 C 0.30186 -0.01794 0.54700
 C270 C 0.28450 0.01792 0.56183
 C271 C 0.21404 -0.02817 0.48233
 C272 C 0.19815 -0.04689 0.48182
 C273 C 0.21555 -0.06172 0.51765
 C274 C 0.23114 -0.04271 0.51749
 N275 N 0.23020 -0.02650 0.49990
 H276 H 0.25640 0.03193 0.54089
 H277 H 0.28660 -0.03092 0.51491
 H278 H 0.31471 -0.03196 0.54814
 H279 H 0.28377 0.03204 0.57460
 H280 H 0.21342 -0.01481 0.46880
 H281 H 0.18529 -0.04803 0.46782
 H282 H 0.21630 -0.07449 0.53177
 H283 H 0.24369 -0.04079 0.53160
 C284 C 0.19905 0.06433 0.50005
 C285 C 0.30112 0.00029 0.43578
 C286 C 0.19891 -0.06379 0.49966
 C287 C 0.30112 -0.00009 0.56390
 C288 C 0.71416 0.01777 0.52809
 H289 H 0.71350 0.03128 0.51471
 C290 C 0.69830 0.01828 0.54684
 H291 H 0.68541 0.03227 0.54799
 C292 C 0.73133 -0.01735 0.54266
 H293 H 0.74390 -0.03146 0.54073
 C294 C 0.71577 -0.01750 0.56169
 H295 H 0.71654 -0.03160 0.57448
 N296 N 0.73034 0.00021 0.52642
 C297 C 0.78605 0.02861 0.48195
 H298 H 0.78669 0.01522 0.46846
 C299 C 0.80191 0.04735 0.48138
 H300 H 0.81477 0.04848 0.46736
 C301 C 0.76895 0.04321 0.51711
 H302 H 0.75641 0.04129 0.53125
 C303 C 0.78451 0.06224 0.51720
 H304 H 0.78375 0.07504 0.53129
 Zn305 Zn 0.75013 0.00019 0.49964
 N306 N 0.76991 0.02696 0.49955
 C307 C 0.73123 0.01764 0.45664
 N308 N 0.73030 0.00010 0.47291
 C309 C 0.71415 -0.01749 0.47130
 C310 C 0.69828 -0.01808 0.45258
 C311 C 0.71565 0.01772 0.43763
 C312 C 0.78614 -0.02818 0.51722
 C313 C 0.80201 -0.04690 0.51776
 C314 C 0.78457 -0.06181 0.48198
 C315 C 0.76900 -0.04280 0.48211
 N316 N 0.76996 -0.02654 0.49967
 H317 H 0.74377 0.03178 0.45852
 H318 H 0.71354 -0.03097 0.48471
 H319 H 0.68542 -0.03210 0.45149
 H320 H 0.71639 0.03179 0.42481
 H321 H 0.78678 -0.01478 0.53072
 H322 H 0.81489 -0.04801 0.53175
 H323 H 0.78380 -0.07461 0.46790
 H324 H 0.75643 -0.04090 0.46801
 C325 C 0.80114 0.06429 0.49919
 C326 C 0.69909 0.00046 0.56376
 C327 C 0.80124 -0.06384 0.49996
 C328 C 0.69902 -0.00029 0.43562
 C329 C 0.48199 0.21404 1.02819
 H330 H 0.46857 0.21343 1.01472
 C331 C 0.48135 0.19812 1.04687
 H332 H 0.46735 0.18524 1.04789
 C333 C 0.51704 0.23115 1.04303
 H334 H 0.53116 0.24371 1.04123
 C335 C 0.51706 0.21553 1.06201
 H336 H 0.53108 0.21626 1.07488
 N337 N 0.49957 0.23021 1.02668
 C338 C 0.47140 0.28603 0.98227
 H339 H 0.48485 0.28669 0.96882
 C340 C 0.45266 0.30189 0.98169
 H341 H 0.45160 0.31479 0.96770
 C342 C 0.45665 0.26885 1.01733
 H343 H 0.45851 0.25628 1.03143
 C344 C 0.43763 0.28441 1.01741
 H345 H 0.42478 0.28363 1.03146
 Zn346 Zn 0.49975 0.25007 0.99997
 N347 N 0.47298 0.26984 0.99983
 C348 C 0.48252 0.23127 0.95683
 N349 N 0.49998 0.23031 0.97319
 C350 C 0.51759 0.21418 0.97163
 C351 C 0.51827 0.19833 0.95290
 C352 C 0.48254 0.21572 0.93780
 C353 C 0.52804 0.28601 1.01782
 C354 C 0.54676 0.30189 1.01848
 C355 C 0.56185 0.28456 0.98271
 C356 C 0.54284 0.26898 0.98271
 N357 N 0.52649 0.26989 1.00020
 H358 H 0.46838 0.24381 0.95867
 H359 H 0.53101 0.21354 0.98511
 H360 H 0.53230 0.18547 0.95185
 H361 H 0.46852 0.21647 0.92492
 H362 H 0.51457 0.28661 1.03126
 H363 H 0.54780 0.31473 1.03252
 H364 H 0.57472 0.28385 0.96867
 H365 H 0.54101 0.25646 0.96855
 C366 C 0.43566 0.30109 0.99944
 C367 C 0.49907 0.19886 1.06390
 C368 C 0.56379 0.30117 1.00075
 C369 C 0.50056 0.19909 0.93586
 C370 C 0.48198 0.78608 -0.02794
 H371 H 0.46855 0.78675 -0.01447
 C372 C 0.48135 0.80191 -0.04670
 H373 H 0.46734 0.81479 -0.04776
 C374 C 0.51704 0.76892 -0.04272
 H375 H 0.53117 0.75637 -0.04087
 C376 C 0.51707 0.78446 -0.06177
 H377 H 0.53110 0.78367 -0.07464
 N378 N 0.49956 0.76992 -0.02637
 C379 C 0.47138 0.71426 0.01827
 H380 H 0.48483 0.71365 0.03171
 C381 C 0.45264 0.69840 0.01893
 H382 H 0.45157 0.68556 0.03296
 C383 C 0.45663 0.73132 -0.01683
 H384 H 0.45849 0.74384 -0.03099
 C385 C 0.43761 0.71575 -0.01684
 H386 H 0.42475 0.71648 -0.03088
 Zn387 Zn 0.49973 0.75017 0.00042
 N388 N 0.47296 0.73039 0.00065
 C389 C 0.48247 0.76910 0.04351
 N390 N 0.49993 0.77002 0.02714
 C391 C 0.51754 0.78617 0.02864
 C392 C 0.51822 0.80206 0.04734
 C393 C 0.48249 0.78469 0.06251
 C394 C 0.52805 0.71416 -0.01728
 C395 C 0.54677 0.69829 -0.01788
 C396 C 0.56182 0.71576 0.01782
 C397 C 0.54281 0.73133 0.01776
 N398 N 0.52648 0.73035 0.00027
 H399 H 0.46833 0.75656 0.04171
 H400 H 0.53096 0.78677 0.01516
 H401 H 0.53225 0.81491 0.04835
 H402 H 0.46847 0.78397 0.07540
 H403 H 0.51460 0.71351 -0.03072
 H404 H 0.54784 0.68540 -0.03187
 H405 H 0.57468 0.71654 0.03186
 H406 H 0.54096 0.74391 0.03187
 C407 C 0.43563 0.69914 0.00119
 C408 C 0.49907 0.80111 -0.06373
 C409 C 0.56378 0.69908 -0.00015
 C410 C 0.50051 0.80133 0.06440
 C411 C 1.02881 0.48176 0.21413
 H412 H 1.01537 0.46831 0.21351
 C413 C 1.04753 0.48115 0.19824
 H414 H 1.04859 0.46715 0.18536
 C415 C 1.04355 0.51685 0.23122
 H416 H 1.04169 0.53098 0.24376
 C417 C 1.06255 0.51691 0.21562
 H418 H 1.07539 0.53097 0.21635
 N419 N 1.02723 0.49935 0.23028
 C420 C 0.98267 0.47127 0.28608
 H421 H 0.96925 0.48475 0.28670
 C422 C 0.98200 0.45257 0.30196
 H423 H 0.96798 0.45154 0.31483
 C424 C 1.01772 0.45644 0.26897
 H425 H 1.03186 0.45825 0.25641
 C426 C 1.01772 0.43743 0.28455
 H427 H 1.03173 0.42455 0.28380
 Zn428 Zn 1.00047 0.49953 0.25010
 N429 N 1.00026 0.47280 0.26991
 C430 C 0.95736 0.48225 0.23127
 N431 N 0.97371 0.49972 0.23030
 C432 C 0.97215 0.51729 0.21414
 C433 C 0.95342 0.51794 0.19828
 C434 C 0.93833 0.48223 0.21572
 C435 C 1.01824 0.52785 0.28604
 C436 C 1.01889 0.54658 0.30189
 C437 C 0.98317 0.56166 0.28448
 C438 C 0.98318 0.54264 0.26892
 N439 N 1.00065 0.52629 0.26989
 H440 H 0.95920 0.46812 0.24383
 H441 H 0.98562 0.53072 0.21349
 H442 H 0.95236 0.53195 0.18541
 H443 H 0.92546 0.46821 0.21649
 H444 H 1.03167 0.51438 0.28668
 H445 H 1.03291 0.54764 0.31475
 H446 H 0.96914 0.57454 0.28372
 H447 H 0.96905 0.54080 0.25638
 C448 C 0.99970 0.43552 0.30121
 C449 C 1.06452 0.49891 0.19897
 C450 C 1.00117 0.56362 0.30112
 C451 C 0.93638 0.50022 0.19907
 C452 C -0.02844 0.48215 0.78599
 H453 H -0.01499 0.46870 0.78662
 C454 C -0.04718 0.48153 0.80186
 H455 H -0.04825 0.46752 0.81473
 C456 C -0.04317 0.51724 0.76889
 H457 H -0.04130 0.53137 0.75635
 C458 C -0.06219 0.51728 0.78446
 H459 H -0.07504 0.53134 0.78372
 N460 N -0.02684 0.49974 0.76984
 C461 C 0.01779 0.47168 0.71411
 H462 H 0.03123 0.48515 0.71352
 C463 C 0.01847 0.45299 0.69821
 H464 H 0.03250 0.45197 0.68536
 C465 C -0.01730 0.45686 0.73116
 H466 H -0.03146 0.45867 0.74370
 C467 C -0.01729 0.43787 0.71556
 H468 H -0.03132 0.42500 0.71627
 Zn469 Zn -0.00006 0.49994 0.75007
 N470 N 0.00018 0.47321 0.73025
 C471 C 0.04301 0.48266 0.76898
 N472 N 0.02667 0.50013 0.76991
 C473 C 0.02819 0.51771 0.78607
 C474 C 0.04688 0.51835 0.80198
 C475 C 0.06199 0.48263 0.78458
 C476 C -0.01780 0.52823 0.71410
 C477 C -0.01845 0.54696 0.69824
 C478 C 0.01724 0.56208 0.71569
 C479 C 0.01723 0.54306 0.73125
 N480 N -0.00023 0.52669 0.73028
 H481 H 0.04120 0.46853 0.75642
 H482 H 0.01472 0.53114 0.78668
 H483 H 0.04790 0.53235 0.81486
 H484 H 0.07486 0.46860 0.78385
 H485 H -0.03122 0.51475 0.71345
 H486 H -0.03245 0.54799 0.68536
 H487 H 0.03125 0.57497 0.71646
 H488 H 0.03134 0.54124 0.74382
 C489 C 0.00074 0.43596 0.69892
 C490 C -0.06417 0.49928 0.80111
 C491 C -0.00075 0.56401 0.69903
 C492 C 0.06390 0.50062 0.80125
 C493 C 0.11716 0.15106 0.49917
 N494 N 0.12593 0.14297 0.51981
 N495 N 0.14250 0.12639 0.51997
 C496 C 0.15079 0.11740 0.49949
 N497 N 0.14203 0.12551 0.47884
 N498 N 0.12547 0.14209 0.47868
 C499 C 0.09881 0.16838 0.49901
 C500 C 0.08314 0.18267 0.49890
 C501 C 0.16808 0.09903 0.49968
 C502 C 0.18235 0.08334 0.49985
 C503 C 0.65053 0.61719 0.00042
 N504 N 0.64179 0.62536 -0.02022
 N505 N 0.62520 0.64191 -0.02034
 C506 C 0.61685 0.65080 0.00016
 N507 N 0.62561 0.64266 0.02080
 N508 N 0.64220 0.62610 0.02092
 C509 C 0.66786 0.59885 0.00057
 C510 C 0.68216 0.58319 0.00069
 C511 C 0.59847 0.66809 0.00004
 C512 C 0.58279 0.68236 -0.00005
 C513 C 0.88307 -0.15063 0.49935
 N514 N 0.87416 -0.14258 0.51997
 N515 N 0.85762 -0.12598 0.52007
 C516 C 0.84948 -0.11692 0.49956
 N517 N 0.85837 -0.12499 0.47894
 N518 N 0.87492 -0.14159 0.47884
 C519 C 0.90140 -0.16797 0.49926
 C520 C 0.91706 -0.18227 0.49920
 C521 C 0.83220 -0.09854 0.49969
 C522 C 0.81794 -0.08285 0.49981
 C523 C 0.34899 0.38306 1.00021
 N524 N 0.35768 0.37489 0.97956
 N525 N 0.37426 0.35831 0.97939
 C526 C 0.38263 0.34941 0.99987
 N527 N 0.37391 0.35756 1.02052
 N528 N 0.35734 0.37414 1.02070
 C529 C 0.33168 0.40142 1.00041
 C530 C 0.31740 0.41709 1.00059
 C531 C 0.40099 0.33210 0.99970
 C532 C 0.41666 0.31782 0.99957
 C533 C 0.88303 0.15104 0.49969
 N534 N 0.87451 0.14235 0.52021
 N535 N 0.85795 0.12577 0.52012
 C536 C 0.84941 0.11736 0.49950
 N537 N 0.85790 0.12607 0.47898
 N538 N 0.87446 0.14265 0.47907
 C539 C 0.90138 0.16836 0.49979
 C540 C 0.91705 0.18264 0.49986
 C541 C 0.83211 0.09899 0.49940
 C542 C 0.81785 0.08330 0.49930
 C543 C 0.34892 0.61721 0.00082
 N544 N 0.35703 0.62630 -0.01969
 N545 N 0.37361 0.64287 -0.01959
 C546 C 0.38258 0.65085 0.00102
 N547 N 0.37445 0.64177 0.02153
 N548 N 0.35787 0.62520 0.02144
 C549 C 0.33161 0.59885 0.00069
 C550 C 0.31734 0.58317 0.00057
 C551 C 0.40095 0.66815 0.00110
 C552 C 0.41663 0.68242 0.00115
 C553 C 0.11705 -0.15056 0.50033
 N554 N 0.12522 -0.14152 0.52084
 N555 N 0.14176 -0.12492 0.52072
 C556 C 0.15065 -0.11686 0.50010
 N557 N 0.14251 -0.12592 0.47960
 N558 N 0.12596 -0.14252 0.47971
 C559 C 0.09872 -0.16790 0.50043
 C560 C 0.08307 -0.18221 0.50050
 C561 C 0.16794 -0.09848 0.49996
 C562 C 0.18220 -0.08279 0.49983
 C563 C 0.65047 0.38313 1.00047
 N564 N 0.64243 0.37402 0.97995
 N565 N 0.62585 0.35744 0.98003
 C566 C 0.61682 0.34949 1.00063
 N567 N 0.62488 0.35858 1.02115
 N568 N 0.64146 0.37515 1.02107
 C569 C 0.66779 0.40148 1.00036
 C570 C 0.68207 0.41715 1.00026
 C571 C 0.59845 0.33218 1.00068
 C572 C 0.58278 0.31790 1.00072
 C573 C 0.49922 0.11665 1.15033
 N574 N 0.51975 0.12595 1.14251
 N575 N 0.51972 0.14258 1.12599
 C576 C 0.49915 0.15041 1.11680
 N577 N 0.47861 0.14114 1.12464
 N578 N 0.47865 0.12451 1.14116
 C579 C 0.49928 0.09824 1.16758
 C580 C 0.49931 0.08253 1.18181
 C581 C 0.49914 0.16777 1.09849
 C582 C 0.49911 0.18209 1.08286
 C583 C -0.00073 0.65069 0.61709
 N584 N -0.02129 0.64146 0.62495
 N585 N -0.02129 0.62490 0.64153
 C586 C -0.00074 0.61706 0.65075
 N587 N 0.01981 0.62630 0.64292
 N588 N 0.01982 0.64287 0.62634
 C589 C -0.00070 0.66798 0.59872
 C590 C -0.00069 0.68223 0.58303
 C591 C -0.00072 0.59870 0.66806
 C592 C -0.00072 0.58302 0.68233
 C593 C 0.49921 0.88290 -0.15056
 N594 N 0.47864 0.87507 -0.14134
 N595 N 0.47861 0.85852 -0.12475
 C596 C 0.49915 0.84930 -0.11686
 N597 N 0.51972 0.85711 -0.12610
 N598 N 0.51975 0.87366 -0.14270
 C599 C 0.49926 0.90124 -0.16789
 C600 C 0.49929 0.91690 -0.18217
 C601 C 0.49914 0.83203 -0.09847
 C602 C 0.49912 0.81778 -0.08277
 C603 C 0.99956 0.34892 0.38324
 N604 N 1.02014 0.35686 0.37414
 N605 N 1.02017 0.37341 0.35754
 C606 C 0.99963 0.38252 0.34954
 N607 N 0.97905 0.37456 0.35862
 N608 N 0.97902 0.35801 0.37522
 C609 C 0.99954 0.33164 0.40163
 C610 C 0.99951 0.31739 0.41733
 C611 C 0.99968 0.40086 0.33222
 C612 C 0.99970 0.41653 0.31793
 C613 C 0.50070 0.88330 0.15105
 N614 N 0.48013 0.87405 0.14329
 N615 N 0.48009 0.85747 0.12672
 C616 C 0.50063 0.84964 0.11742
 N617 N 0.52120 0.85888 0.12520
 N618 N 0.52123 0.87546 0.14176
 C619 C 0.50071 0.90168 0.16834
 C620 C 0.50074 0.91737 0.18260
 C621 C 0.50056 0.83233 0.09907
 C622 C 0.50053 0.81805 0.08340
 C623 C 0.00074 0.34955 0.61671
 N624 N 0.02130 0.35870 0.62461
 N625 N 0.02130 0.37522 0.64125
 C626 C 0.00075 0.38307 0.65048
 N627 N -0.01981 0.37389 0.64259
 N628 N -0.01981 0.35738 0.62595
 C629 C 0.00072 0.33231 0.59828
 C630 C 0.00071 0.31809 0.58256
 C631 C 0.00073 0.40137 0.66784
 C632 C 0.00073 0.41700 0.68216
 C633 C 0.50069 0.11711 0.84922
 N634 N 0.52123 0.12510 0.85833
 N635 N 0.52121 0.14169 0.87488
 C636 C 0.50063 0.15080 0.88282
 N637 N 0.48009 0.14283 0.87369
 N638 N 0.48011 0.12624 0.85714
 C639 C 0.50069 0.09872 0.83194
 C640 C 0.50072 0.08303 0.81769
 C641 C 0.50058 0.16811 0.90117
 C642 C 0.50056 0.18238 0.91685
 C643 C 1.00108 0.65042 0.38293
 N644 N 0.98055 0.64268 0.37357
 N645 N 0.98058 0.62608 0.35702
 C646 C 1.00114 0.61672 0.34934
 N647 N 1.02167 0.62448 0.35868
 N648 N 1.02164 0.64108 0.37522
 C649 C 1.00102 0.66775 0.40126
 C650 C 1.00098 0.68204 0.41692
 C651 C 1.00113 0.59833 0.33206
 C652 C 1.00115 0.58264 0.31781
 C653 C 1.15108 0.49965 0.11683
 N654 N 1.14288 0.52012 0.12592
 N655 N 1.12633 0.51995 0.14253
 C656 C 1.11748 0.49930 0.15055
 N657 N 1.12570 0.47883 0.14148
 N658 N 1.14225 0.47900 0.12487
 C659 C 1.16836 0.49986 0.09843
 C660 C 1.18262 0.50004 0.08273
 C661 C 1.09915 0.49914 0.16790
 C662 C 1.08349 0.49902 0.18221
 C663 C 0.61719 -0.00036 0.65055
 N664 N 0.62542 -0.02085 0.64150
 N665 N 0.64198 -0.02069 0.62491
 C666 C 0.65082 -0.00006 0.61685
 N667 N 0.64262 0.02043 0.62592
 N668 N 0.62605 0.02027 0.64252
 C669 C 0.59884 -0.00051 0.66788
 C670 C 0.58318 -0.00061 0.68218
 C671 C 0.66811 0.00013 0.59847
 C672 C 0.68238 0.00028 0.58278
 C673 C -0.15081 0.49991 0.88317
 N674 N -0.14196 0.47927 0.87512
 N675 N -0.12540 0.47913 0.85852
 C676 C -0.11719 0.49961 0.84948
 N677 N -0.12605 0.52025 0.85751
 N678 N -0.14261 0.52039 0.87411
 C679 C -0.16810 0.50008 0.90156
 C680 C -0.18236 0.50024 0.91726
 C681 C -0.09883 0.49948 0.83214
 C682 C -0.08317 0.49938 0.81785
 C683 C 0.38304 -0.00074 0.34901
 N684 N 0.37417 0.01992 0.35699
 N685 N 0.35761 0.02010 0.37359
 C686 C 0.34941 -0.00036 0.38271
 N687 N 0.35826 -0.02101 0.37471
 N688 N 0.37483 -0.02120 0.35811
 C689 C 0.40138 -0.00091 0.33168
 C690 C 0.41705 -0.00104 0.31738
 C691 C 0.33211 -0.00013 0.40108
 C692 C 0.31784 0.00006 0.41677
 C693 C 0.15035 0.50021 0.88343
 N694 N 0.14212 0.47970 0.87447
 N695 N 0.12559 0.47979 0.85785
 C696 C 0.11680 0.50040 0.84969
 N697 N 0.12505 0.52092 0.85863
 N698 N 0.14157 0.52082 0.87525
 C699 C 0.16760 0.50009 0.90184
 C700 C 0.18184 0.49998 0.91754
 C701 C 0.09849 0.50049 0.83233
 C702 C 0.08286 0.50055 0.81801
 C703 C 0.61713 0.00001 0.34890
 N704 N 0.62585 -0.02058 0.35720
 N705 N 0.64241 -0.02063 0.37378
 C706 C 0.65075 -0.00009 0.38257
 N707 N 0.64206 0.02051 0.37425
 N708 N 0.62550 0.02055 0.35766
 C709 C 0.59878 0.00005 0.33158
 C710 C 0.58312 0.00008 0.31730
 C711 C 0.66805 -0.00015 0.40094
 C712 C 0.68231 -0.00021 0.41662
 C713 C 0.84954 0.49997 0.11730
 N714 N 0.85777 0.47944 0.12623
 N715 N 0.87438 0.47950 0.14276
 C716 C 0.88326 0.50010 0.15087
 N717 N 0.87502 0.52063 0.14196
 N718 N 0.85840 0.52056 0.12543
 C719 C 0.83219 0.49988 0.09898
 C720 C 0.81788 0.49980 0.08334
 C721 C 0.90166 0.50015 0.16814
 C722 C 0.91736 0.50018 0.18238
 C723 C 0.38306 0.00042 0.65058
 N724 N 0.37487 0.02094 0.64159
 N725 N 0.35830 0.02086 0.62502
 C726 C 0.34942 0.00026 0.61693
 N727 N 0.35758 -0.02026 0.62594
 N728 N 0.37415 -0.02018 0.64252
 C729 C 0.40142 0.00049 0.66789
 C730 C 0.41709 0.00054 0.68217
 C731 C 0.33211 0.00015 0.59857
 C732 C 0.31784 0.00005 0.58290
   
