data_POSCAR
  _audit_creation_date              2014-09-24
  _audit_creation_method            'ToBaCCo'
  _symmetry_space_group_name_H-M    'P1'
  _symmetry_Int_Tables_number       1
  _symmetry_cell_setting            triclinic
  loop_
  _symmetry_equiv_pos_as_xyz
 x,y,z
_cell_length_a 24.7846
_cell_length_b 24.9945
_cell_length_c 24.7547
_cell_angle_alpha 88.793400
_cell_angle_beta 90.717400
_cell_angle_gamma 89.836400
loop_
  _atom_site_label
  _atom_site_type_symbol
  _atom_site_fract_x
  _atom_site_fract_y
  _atom_site_fract_z
C1 C 0.18598 0.17478 0.24907
 C2 C 0.16055 0.22185 0.22981
 C3 C 0.18418 0.25418 0.18951
 C4 C 0.23301 0.23737 0.16626
 C5 C 0.26006 0.19104 0.18584
 C6 C 0.23713 0.16171 0.22900
 H7 H 0.12186 0.23325 0.24595
 H8 H 0.25025 0.26065 0.13339
 H9 H 0.25707 0.12561 0.24388
 C10 C -0.20341 0.81711 0.26427
 C11 C -0.24595 0.84092 0.23398
 C12 C -0.26302 0.81938 0.18463
 C13 C -0.23777 0.77347 0.16519
 C14 C -0.19412 0.75038 0.19384
 C15 C -0.17809 0.77146 0.24351
 H16 H -0.26491 0.87730 0.24757
 H17 H -0.24891 0.75870 0.12574
 H18 H -0.14375 0.75336 0.26447
 C19 C -0.18467 0.18093 -0.25561
 C20 C -0.23983 0.17341 -0.24436
 C21 C -0.26532 0.20361 -0.20449
 C22 C -0.23674 0.24483 -0.17962
 C23 C -0.18218 0.25254 -0.19024
 C24 C -0.15620 0.22049 -0.22752
 H25 H -0.26175 0.14128 -0.26335
 H26 H -0.25568 0.26841 -0.14883
 H27 H -0.11360 0.22690 -0.23452
 C28 C 0.19949 0.81051 -0.24924
 C29 C 0.17377 0.76532 -0.22694
 C30 C 0.19202 0.74201 -0.17823
 C31 C 0.23722 0.76283 -0.15164
 C32 C 0.26568 0.80558 -0.17493
 C33 C 0.24708 0.82881 -0.22407
 H34 H 0.13728 0.74992 -0.24546
 H35 H 0.25021 0.74568 -0.11303
 H36 H 0.26779 0.86350 -0.24054
 C37 C 0.17722 1.19470 0.72338
 C38 C 0.15372 1.23883 0.74900
 C39 C 0.17715 1.25939 0.79648
 C40 C 0.22222 1.23341 0.81980
 C41 C 0.24568 1.18967 0.79507
 C42 C 0.22501 1.17219 0.74578
 H43 H 0.11726 1.25694 0.73225
 H44 H 0.23915 1.24671 0.85778
 H45 H 0.24337 1.13738 0.72808
 C46 C 0.81872 0.81891 0.74887
 C47 C 0.77626 0.84790 0.77190
 C48 C 0.75947 0.83644 0.82479
 C49 C 0.78267 0.79355 0.85415
 C50 C 0.82117 0.76046 0.83023
 C51 C 0.83984 0.77440 0.77798
 H52 H 0.75854 0.88201 0.75044
 H53 H 0.76855 0.78463 0.89462
 H54 H 0.87149 0.75091 0.76003
 C55 C 0.20038 0.78680 1.26630
 C56 C 0.17898 0.74054 1.24261
 C57 C 0.19737 0.72298 1.19235
 C58 C 0.23695 0.75320 1.16513
 C59 C 0.25989 0.79833 1.18903
 C60 C 0.24313 0.81353 1.24026
 H61 H 0.14638 0.71930 1.26228
 H62 H 0.24950 0.74226 1.12507
 H63 H 0.25998 0.84966 1.25699
 C64 C 0.81926 1.17862 1.25373
 C65 C 0.76739 1.16218 1.23728
 C66 C 0.73977 1.18774 1.19395
 C67 C 0.76392 1.23232 1.16792
 C68 C 0.81602 1.24963 1.18327
 C69 C 0.84286 1.22235 1.22644
 H70 H 0.74894 1.12797 1.25715
 H71 H 0.74318 1.25189 1.13415
 H72 H 0.88283 1.23500 1.23879
 O73 O 0.55077 0.95931 0.89905
 O74 O 0.43893 0.94541 1.07423
 O75 O 0.60429 0.99185 1.04666
 O76 O 0.42074 0.93814 0.97878
 O77 O 0.53893 0.93868 1.06989
 O78 O 0.44770 0.95897 0.89874
 O79 O 0.36420 0.98443 1.04290
 O80 O 0.61083 1.00169 0.94933
 C81 C 0.59848 0.96566 0.91563
 C82 C 0.38754 0.95047 1.07735
 C83 C 0.58830 0.94732 1.06540
 C84 C 0.42216 0.92859 0.92966
 O85 O 0.44859 1.06381 0.89316
 O86 O 0.54918 1.03575 1.11008
 O87 O 0.56943 1.10339 0.95565
 O88 O 0.41100 1.07498 1.02842
 O89 O 0.44982 1.04891 1.10153
 O90 O 0.54895 1.05999 0.88524
 O91 O 0.38503 1.03112 0.94395
 O92 O 0.55590 1.09299 1.04823
 Co93 Co 0.49854 1.01083 0.90369
 Co94 Co 0.49448 0.99494 1.07979
 Co95 Co 0.57873 1.04521 1.00014
 Co96 Co 0.42118 1.00716 1.00454
 O97 O 0.50072 1.01662 0.99266
 C98 C 0.40013 1.06202 0.90644
 C99 C 0.56442 1.08115 1.09568
 C100 C 0.56980 1.09967 0.90607
 C101 C 0.41935 1.08156 1.07715
 O102 O 0.02149 0.44392 0.11474
 O103 O 0.04590 0.54653 -0.10147
 O104 O 0.08286 0.42652 -0.04098
 O105 O 0.06446 0.57856 0.03727
 O106 O 0.03542 0.44670 -0.11039
 O107 O 0.03673 0.54203 0.10973
 O108 O 0.02138 0.60977 -0.04671
 O109 O 0.07651 0.43798 0.05201
 C110 C 0.06656 0.42871 0.09945
 C111 C 0.04995 0.59348 -0.08469
 C112 C 0.07570 0.42419 -0.09020
 C113 C 0.07135 0.56984 0.08593
 O114 O -0.06748 0.55760 0.07943
 O115 O -0.06550 0.45166 -0.09389
 O116 O -0.02599 0.39263 0.05066
 O117 O -0.07448 0.58242 -0.01501
 O118 O -0.05816 0.55434 -0.09477
 O119 O -0.07806 0.45774 0.07444
 O120 O -0.02265 0.63015 0.05338
 O121 O -0.02071 0.38904 -0.04697
 Co122 Co -0.01967 0.50012 0.08569
 Co123 Co -0.01002 0.49987 -0.09052
 Co124 Co 0.02604 0.41771 0.00402
 Co125 Co -0.00474 0.57454 0.01249
 O126 O -0.00072 0.49575 -0.00158
 C127 C -0.05792 0.60756 0.08604
 C128 C -0.05905 0.40364 -0.07882
 C129 C -0.06982 0.40865 0.07010
 C130 C -0.08398 0.58401 -0.06459
 O131 O 1.10268 0.04008 0.44291
 O132 O 0.92997 0.05273 0.55808
 O133 O 0.95186 0.01289 0.39101
 O134 O 1.02544 0.06043 0.57238
 O135 O 0.93138 0.06350 0.45814
 O136 O 1.10421 0.03717 0.54592
 O137 O 0.96247 0.01199 0.63153
 O138 O 1.04930 0.00194 0.38232
 C139 C 1.08503 0.03621 0.39528
 C140 C 0.92663 0.04467 0.60914
 C141 C 0.93395 0.05651 0.40845
 C142 C 1.07486 0.06880 0.57072
 O143 O 1.10472 -0.06833 0.54291
 O144 O 0.88822 -0.03222 0.44735
 O145 O 1.03978 -0.10147 0.42070
 O146 O 0.97299 -0.07640 0.58371
 O147 O 0.89947 -0.04943 0.54644
 O148 O 1.11203 -0.06082 0.44234
 O149 O 1.05920 -0.03366 0.60792
 O150 O 0.94793 -0.08988 0.43691
 Co151 Co 1.09633 -0.01312 0.49420
 Co152 Co 0.92127 0.00580 0.50190
 Co153 Co 0.99729 -0.04197 0.41427
 Co154 Co 0.99844 -0.00867 0.57307
 O155 O 1.00739 -0.01665 0.49311
 C156 C 1.09402 -0.06599 0.59191
 C157 C 0.90055 -0.07716 0.43106
 C158 C 1.08945 -0.09892 0.42016
 C159 C 0.92371 -0.08205 0.57723
 N160 N 1.18630 0.09654 0.30728
 C161 C 1.15995 0.13994 0.28582
 N162 N 1.10745 0.14765 0.29942
 N163 N 1.08260 0.11360 0.33295
 C164 C 1.10935 0.07048 0.35405
 N165 N 1.16171 0.06288 0.34115
 N166 N 0.85976 -0.18185 0.33853
 C167 C 0.81715 -0.15922 0.31151
 N168 N 0.79806 -0.11147 0.32891
 N169 N 0.82217 -0.08648 0.36977
 C170 C 0.86597 -0.10859 0.39519
 N171 N 0.88376 -0.15701 0.37921
 N172 N 0.89738 0.14937 0.70545
 C173 C 0.84267 0.14766 0.70856
 N174 N 0.81564 0.11204 0.67748
 N175 N 0.84222 0.07967 0.64487
 C176 C 0.89684 0.08131 0.64270
 N177 N 0.92397 0.11661 0.67350
 N178 N 1.19877 -0.11619 0.68586
 C179 C 1.17514 -0.16066 0.70746
 N180 N 1.12516 -0.17428 0.68906
 N181 N 1.09956 -0.14443 0.65165
 C182 C 1.12314 -0.09994 0.63084
 N183 N 1.17334 -0.08651 0.64809
 N184 N 0.31882 1.18489 1.10877
 C185 C 0.30658 1.17094 1.16068
 N186 N 0.33698 1.13235 1.18595
 N187 N 0.37615 1.10733 1.16021
 C188 C 0.38649 1.11928 1.10772
 N189 N 0.35742 1.15896 1.08252
 N190 N 0.31307 0.83179 0.90872
 C191 C 0.31175 0.82961 0.85383
 N192 N 0.35071 0.85510 0.82543
 N193 N 0.38839 0.88325 0.85065
 C194 C 0.38869 0.88718 0.90524
 N195 N 0.35068 0.86041 0.93404
 N196 N 0.71322 0.89892 1.13059
 C197 C 0.69889 0.84994 1.14996
 N198 N 0.64870 0.83123 1.13854
 N199 N 0.61362 0.86125 1.10978
 C200 C 0.62797 0.91054 1.09070
 N201 N 0.67849 0.92855 1.10141
 N202 N 0.66952 1.20076 0.86935
 C203 C 0.68299 1.18573 0.81878
 N204 N 0.65361 1.14686 0.79492
 N205 N 0.61404 1.12242 0.82150
 C206 C 0.60248 1.13577 0.87297
 N207 N 0.63018 1.17614 0.89607
 N208 N 0.17592 0.33320 0.12823
 C209 C 0.15612 0.30378 0.17012
 N210 N 0.10880 0.31954 0.19236
 N211 N 0.08149 0.36172 0.17238
 C212 C 0.10082 0.39016 0.12961
 N213 N 0.14867 0.37527 0.10825
 N214 N -0.10224 0.27788 -0.13807
 C215 C -0.15126 0.29138 -0.15929
 N216 N -0.17116 0.34116 -0.15133
 N217 N -0.14227 0.37675 -0.12425
 C218 C -0.09317 0.36327 -0.10318
 N219 N -0.07372 0.31321 -0.11032
 N220 N 0.13943 0.65937 -0.18215
 C221 C 0.15950 0.70014 -0.15265
 N222 N 0.14396 0.70507 -0.10069
 N223 N 0.10909 0.67068 -0.07911
 C224 C 0.08890 0.63006 -0.10862
 N225 N 0.10515 0.62446 -0.16028
 N226 N -0.17976 0.66644 0.14471
 C227 C -0.15920 0.71065 0.16835
 N228 N -0.10524 0.71944 0.16626
 N229 N -0.07300 0.68583 0.14089
 C230 C -0.09334 0.64155 0.11756
 N231 N -0.14727 0.63223 0.12005
 N232 N 1.17965 0.13342 0.65057
 C233 C 1.15190 0.16976 0.67934
 N234 N 1.09832 0.17675 0.66799
 N235 N 1.07328 0.14657 0.63145
 C236 C 1.10132 0.10929 0.60399
 N237 N 1.15503 0.10416 0.61361
 N238 N 0.81706 -0.12503 0.66856
 C239 C 0.84194 -0.16328 0.69983
 N240 N 0.89211 -0.17974 0.68540
 N241 N 0.91736 -0.15675 0.64362
 C242 C 0.89273 -0.11755 0.61344
 N243 N 0.84178 -0.10289 0.62625
 N244 N 1.19834 -0.14723 0.33543
 C245 C 1.17572 -0.19021 0.31131
 N246 N 1.12596 -0.20627 0.32773
 N247 N 1.09906 -0.17897 0.36458
 C248 C 1.12137 -0.13513 0.38723
 N249 N 1.17185 -0.12043 0.37268
 N250 N 0.82529 0.10688 0.31991
 C251 C 0.84781 0.15018 0.29504
 N252 N 0.89910 0.16387 0.30973
 N253 N 0.92669 0.13520 0.34695
 C254 C 0.90379 0.09187 0.37115
 N255 N 0.85274 0.07829 0.35698
 N256 N 0.17103 0.31891 -0.12574
 C257 C 0.15353 0.30583 -0.17603
 N258 N 0.11320 0.33529 -0.19951
 N259 N 0.09045 0.37522 -0.17311
 C260 C 0.10735 0.38744 -0.12244
 N261 N 0.14819 0.35866 -0.09928
 N262 N -0.10410 0.30056 0.16517
 C263 C -0.15725 0.29151 0.15507
 N264 N -0.18262 0.32282 0.11661
 N265 N -0.15583 0.36130 0.08980
 C266 C -0.10248 0.36932 0.10002
 N267 N -0.07732 0.33818 0.13804
 N268 N -0.16708 0.70527 -0.08864
 C269 C -0.15905 0.71427 -0.14253
 N270 N -0.13079 0.67743 -0.17000
 N271 N -0.11043 0.63438 -0.14488
 C272 C -0.11696 0.62608 -0.09104
 N273 N -0.14567 0.66242 -0.06310
 N274 N 0.13714 0.64408 0.19432
 C275 C 0.17105 0.67667 0.16614
 N276 N 0.17658 0.66876 0.11237
 N277 N 0.14768 0.63153 0.08748
 C278 C 0.11261 0.60012 0.11540
 N279 N 0.10838 0.60668 0.16946
 N280 N 0.27947 1.14304 0.87644
 C281 C 0.28729 1.15822 0.82416
 N282 N 0.33242 1.14157 0.79891
 N283 N 0.36881 1.11129 0.82538
 C284 C 0.36067 1.09575 0.87754
 N285 N 0.31538 1.11208 0.90260
 N286 N 0.34430 0.84912 1.17809
 C287 C 0.29535 0.83453 1.15802
 N288 N 0.27678 0.85860 1.11174
 N289 N 0.30606 0.89582 1.08640
 C290 C 0.35511 0.91019 1.10623
 N291 N 0.37401 0.88573 1.15221
 N292 N 0.66820 1.11841 1.19555
 C293 C 0.68845 1.16424 1.17307
 N294 N 0.66369 1.18492 1.12803
 N295 N 0.62182 1.16000 1.10560
 C296 C 0.60263 1.11349 1.12729
 N297 N 0.62631 1.09342 1.17309
 N298 N 0.67180 0.88194 0.82103
 C299 C 0.71758 0.86960 0.84922
 N300 N 0.72425 0.88899 0.89975
 N301 N 0.68657 0.92002 0.92113
 C302 C 0.64061 0.93197 0.89296
 N303 N 0.63384 0.91219 0.84270
   
