data_POSCAR
  _audit_creation_date              2014-09-24
  _audit_creation_method            'ToBaCCo'
  _symmetry_space_group_name_H-M    'P1'
  _symmetry_Int_Tables_number       1
  _symmetry_cell_setting            triclinic
  loop_
  _symmetry_equiv_pos_as_xyz
 x,y,z
_cell_length_a 23.7540
_cell_length_b 23.7540
_cell_length_c 23.7539
_cell_angle_alpha 93.831200
_cell_angle_beta 86.168300
_cell_angle_gamma 93.830000
loop_
  _atom_site_label
  _atom_site_type_symbol
  _atom_site_fract_x
  _atom_site_fract_y
  _atom_site_fract_z
O1 O 0.56800 0.51153 0.05380
 O2 O 0.41445 0.50506 0.03765
 O3 O 0.48758 0.43177 0.05497
 O4 O 0.49493 0.58478 0.03638
 O5 O 0.51015 0.56806 -0.05591
 O6 O 0.50279 0.41506 -0.03732
 O7 O 0.42967 0.48835 -0.05463
 O8 O 0.58323 0.49482 -0.03849
 Cu9 Cu 0.48971 0.50995 0.05501
 Cu10 Cu 0.50797 0.48989 -0.05590
 C11 C 0.60151 0.50401 0.01047
 C12 C 0.39615 0.49591 -0.01131
 C13 C 0.49425 0.39761 0.01202
 C14 C 0.50352 0.60222 -0.01297
 O15 O -0.05400 0.57016 0.51163
 O16 O -0.03786 0.41662 0.50515
 O17 O -0.03657 0.49706 0.58488
 O18 O -0.05516 0.48971 0.43186
 O19 O 0.03713 0.50493 0.41515
 O20 O 0.05572 0.51228 0.56815
 O21 O 0.05443 0.43183 0.48844
 O22 O 0.03827 0.58539 0.49491
 Cu23 Cu -0.05521 0.49188 0.51005
 Cu24 Cu 0.05570 0.51013 0.48999
 C25 C -0.01068 0.60369 0.50410
 C26 C 0.01109 0.39833 0.49599
 C27 C 0.01278 0.50561 0.60231
 C28 C -0.01221 0.49634 0.39771
 O29 O 0.50538 0.03766 0.58528
 O30 O 0.51186 0.05381 0.43174
 O31 O 0.43213 0.05499 0.51217
 O32 O 0.58514 0.03640 0.50482
 O33 O 0.56842 -0.05589 0.48959
 O34 O 0.41542 -0.03731 0.49695
 O35 O 0.49514 -0.03847 0.41651
 O36 O 0.48868 -0.05461 0.57006
 Cu37 Cu 0.51031 0.05503 0.51002
 Cu38 Cu 0.49025 -0.05589 0.49177
 C39 C 0.49619 -0.01129 0.60358
 C40 C 0.50429 0.01049 0.39823
 C41 C 0.39797 0.01204 0.50550
 C42 C 0.60258 -0.01295 0.49624
 C43 C 0.49799 -0.05136 -0.12325
 C44 C 0.50013 -0.10755 -0.10999
 C45 C 0.50204 -0.12175 -0.05407
 C46 C 0.50188 -0.07896 -0.00978
 C47 C 0.49966 -0.02173 -0.02268
 C48 C 0.49769 -0.00781 -0.07967
 C49 C 0.49548 0.04919 -0.09149
 C50 C 0.49520 0.09172 -0.04817
 C51 C 0.49713 0.07884 0.00859
 C52 C 0.49941 0.02162 0.02148
 C53 C 0.50383 -0.09183 0.04698
 C54 C 0.50364 -0.04930 0.09028
 C55 C 0.50145 0.00770 0.07846
 C56 C 0.50123 0.05125 0.12204
 C57 C 0.49895 0.10743 0.10880
 C58 C 0.49689 0.12163 0.05289
 H59 H 0.49393 0.06142 -0.13442
 H60 H 0.49344 0.13489 -0.05962
 H61 H 0.50556 -0.13501 0.05843
 H62 H 0.50523 -0.06153 0.13321
 H63 H 0.50029 -0.14074 -0.14371
 H64 H 0.49879 0.14061 0.14252
 C65 C 0.05391 0.50304 0.87824
 C66 C 0.10982 0.50100 0.89244
 C67 C 0.12307 0.49873 0.94862
 C68 C 0.07949 0.49850 0.99217
 C69 C 0.02251 0.50053 0.97825
 C70 C 0.00962 0.50280 0.92103
 C71 C -0.04714 0.50474 0.90816
 C72 C -0.09045 0.50446 0.95068
 C73 C -0.07863 0.50226 1.00768
 C74 C -0.02165 0.50028 1.02161
 C75 C 0.09131 0.49631 1.04917
 C76 C 0.04801 0.49611 1.09171
 C77 C -0.00875 0.49806 1.07884
 C78 C -0.05305 0.49789 1.12163
 C79 C -0.10897 0.49982 1.10741
 C80 C -0.12222 0.50198 1.05122
 H81 H -0.05859 0.50650 0.86498
 H82 H -0.13339 0.50602 0.93845
 H83 H 0.13425 0.49472 1.06140
 H84 H 0.05945 0.49437 1.13489
 H85 H 0.14354 0.50117 0.85925
 H86 H -0.14269 0.49967 1.14059
 C87 C -0.05100 -0.12322 0.50205
 C88 C -0.10719 -0.10996 0.49988
 C89 C -0.12140 -0.05404 0.49794
 C90 C -0.07861 -0.00975 0.49812
 C91 C -0.02138 -0.02265 0.50035
 C92 C -0.00745 -0.07963 0.50234
 C93 C 0.04955 -0.09145 0.50454
 C94 C 0.09207 -0.04814 0.50481
 C95 C 0.07920 0.00862 0.50287
 C96 C 0.02198 0.02151 0.50060
 C97 C -0.09148 0.04701 0.49617
 C98 C -0.04895 0.09031 0.49638
 C99 C 0.00805 0.07849 0.49857
 C100 C 0.05160 0.12207 0.49880
 C101 C 0.10778 0.10883 0.50106
 C102 C 0.12198 0.05291 0.50309
 H103 H 0.06178 -0.13439 0.50610
 H104 H 0.13525 -0.05959 0.50656
 H105 H -0.13465 0.05846 0.49444
 H106 H -0.06117 0.13325 0.49479
 H107 H -0.14037 -0.14368 0.49972
 H108 H 0.14097 0.14254 0.50122
 C109 C -0.33883 0.50505 1.01718
 C110 C -0.28889 0.50515 1.02351
 C111 C -0.23065 0.50455 1.03189
 C112 C -0.18116 0.50357 1.04003
 C113 C 0.33971 0.49506 0.98235
 C114 C 0.28974 0.49506 0.97611
 C115 C 0.23150 0.49583 0.96784
 C116 C 0.18201 0.49696 0.95978
 C117 C -0.01704 -0.33987 0.50505
 C118 C -0.02334 -0.28990 0.50519
 C119 C -0.03168 -0.23165 0.50461
 C120 C -0.03980 -0.18217 0.50364
 C121 C 0.01779 0.33867 0.49506
 C122 C 0.02407 0.28873 0.49510
 C123 C 0.03237 0.23049 0.49589
 C124 C 0.04044 0.18101 0.49703
 C125 C 0.49519 -0.01761 -0.33996
 C126 C 0.49501 -0.02385 -0.28998
 C127 C 0.49553 -0.03211 -0.23171
 C128 C 0.49645 -0.04018 -0.18221
 C129 C 0.50518 0.01722 0.33858
 C130 C 0.50510 0.02356 0.28865
 C131 C 0.50425 0.03194 0.23043
 C132 C 0.50305 0.04007 0.18097
 C133 C 0.50485 -0.33832 -0.02052
 C134 C 0.50513 -0.28850 -0.02732
 C135 C 0.50465 -0.23036 -0.03588
 C136 C 0.50369 -0.18085 -0.04376
 C137 C 0.49308 0.33816 0.01956
 C138 C 0.49301 0.28834 0.02631
 C139 C 0.49377 0.23020 0.03480
 C140 C 0.49498 0.18071 0.04262
 C141 C -0.33796 -0.02051 0.49494
 C142 C -0.28814 -0.02731 0.49470
 C143 C -0.22999 -0.03586 0.49524
 C144 C -0.18049 -0.04374 0.49624
 C145 C 0.33852 0.01957 0.50671
 C146 C 0.28870 0.02632 0.50683
 C147 C 0.23056 0.03481 0.50611
 C148 C 0.18107 0.04264 0.50496
 C149 C -0.01973 0.49501 1.33824
 C150 C -0.02647 0.49474 1.28841
 C151 C -0.03495 0.49524 1.23024
 C152 C -0.04277 0.49622 1.18073
 C153 C 0.02035 0.50678 0.66176
 C154 C 0.02717 0.50686 0.71157
 C155 C 0.03574 0.50611 0.76969
 C156 C 0.04362 0.50493 0.81916
   
