data_POSCAR
  _audit_creation_date              2014-09-24
  _audit_creation_method            'ToBaCCo'
  _symmetry_space_group_name_H-M    'P1'
  _symmetry_Int_Tables_number       1
  _symmetry_cell_setting            triclinic
  loop_
  _symmetry_equiv_pos_as_xyz
 x,y,z
_cell_length_a 41.5938
_cell_length_b 41.5673
_cell_length_c 41.6207
_cell_angle_alpha 89.962800
_cell_angle_beta 90.000500
_cell_angle_gamma 89.925300
loop_
  _atom_site_label
  _atom_site_type_symbol
  _atom_site_fract_x
  _atom_site_fract_y
  _atom_site_fract_z
O1 O 0.22275 1.03191 0.46893
 O2 O 0.22261 0.96933 0.53156
 O3 O 0.22274 1.03202 0.53156
 O4 O 0.22264 0.96922 0.46895
 O5 O 0.27580 0.96905 0.46898
 O6 O 0.27590 1.03184 0.53158
 O7 O 0.27578 0.96916 0.53159
 O8 O 0.27592 1.03174 0.46895
 Cu9 Cu 0.21733 1.00064 0.50025
 Cu10 Cu 0.28120 1.00044 0.50028
 C11 C 0.24936 1.04237 0.45836
 C12 C 0.24917 0.95868 0.54214
 C13 C 0.24934 1.04253 0.54216
 C14 C 0.24921 0.95853 0.45840
 O15 O 0.77692 -0.03213 0.46950
 O16 O 0.77722 0.03045 0.53198
 O17 O 0.77701 -0.03220 0.53209
 O18 O 0.77714 0.03052 0.46941
 O19 O 0.72397 0.03077 0.46949
 O20 O 0.72385 -0.03195 0.53216
 O21 O 0.72404 0.03070 0.53205
 O22 O 0.72374 -0.03188 0.46958
 Cu23 Cu 0.78244 -0.00087 0.50074
 Cu24 Cu 0.71853 -0.00057 0.50083
 C25 C 0.75028 -0.04255 0.45899
 C26 C 0.75068 0.04114 0.54254
 C27 C 0.75040 -0.04267 0.54272
 C28 C 0.75057 0.04123 0.45886
 O29 O 0.22385 0.46794 0.96900
 O30 O 0.22380 0.53061 1.03146
 O31 O 0.22380 0.53059 0.96890
 O32 O 0.22377 0.46796 1.03159
 O33 O 0.27694 0.46791 1.03163
 O34 O 0.27697 0.53054 0.96893
 O35 O 0.27698 0.53056 1.03149
 O36 O 0.27702 0.46788 0.96904
 Cu37 Cu 0.21844 0.49927 1.00023
 Cu38 Cu 0.28234 0.49921 1.00027
 C39 C 0.25045 0.45735 0.95847
 C40 C 0.25038 0.54116 1.04201
 C41 C 0.25039 0.54114 0.95834
 C42 C 0.25035 0.45737 1.04220
 O43 O 0.46978 0.22260 1.03169
 O44 O 0.53231 0.22273 0.96916
 O45 O 0.53242 0.22273 1.03176
 O46 O 0.46968 0.22262 0.96910
 O47 O 0.46952 0.27581 0.96907
 O48 O 0.53225 0.27592 1.03173
 O49 O 0.53214 0.27594 0.96913
 O50 O 0.46962 0.27581 1.03165
 Cu51 Cu 0.50107 0.21731 1.00043
 Cu52 Cu 0.50087 0.28124 1.00039
 C53 C 0.45914 0.24919 1.04220
 C54 C 0.54277 0.24936 0.95859
 C55 C 0.54293 0.24935 1.04233
 C56 C 0.45900 0.24920 0.95851
 O57 O 0.46906 0.77671 -0.03199
 O58 O 0.53153 0.77681 0.03060
 O59 O 0.53171 0.77678 -0.03201
 O60 O 0.46891 0.77674 0.03059
 O61 O 0.46904 0.72354 0.03065
 O62 O 0.53184 0.72359 -0.03195
 O63 O 0.53166 0.72360 0.03065
 O64 O 0.46919 0.72350 -0.03194
 Cu65 Cu 0.50030 0.78212 -0.00072
 Cu66 Cu 0.50045 0.71820 -0.00065
 C67 C 0.45857 0.75009 -0.04251
 C68 C 0.54212 0.75022 0.04120
 C69 C 0.54239 0.75019 -0.04255
 C70 C 0.45837 0.75014 0.04119
 O71 O 1.03158 0.46945 0.22339
 O72 O 0.96885 0.53192 0.22359
 O73 O 1.03148 0.53212 0.22356
 O74 O 0.96896 0.46926 0.22345
 O75 O 0.96900 0.46910 0.27658
 O76 O 1.03153 0.53196 0.27668
 O77 O 0.96889 0.53176 0.27673
 O78 O 1.03163 0.46928 0.27653
 Cu79 Cu 1.00022 0.50071 0.21814
 Cu80 Cu 1.00027 0.50051 0.28199
 C81 C 1.04218 0.45882 0.24992
 C82 C 0.95827 0.54237 0.25020
 C83 C 1.04208 0.54266 0.25013
 C84 C 0.95842 0.45856 0.25000
 O85 O -0.03181 0.46918 0.77657
 O86 O 0.03073 0.53170 0.77667
 O87 O -0.03191 0.53186 0.77665
 O88 O 0.03082 0.46903 0.77660
 O89 O 0.03084 0.46914 0.72347
 O90 O -0.03190 0.53196 0.72353
 O91 O 0.03075 0.53180 0.72353
 O92 O -0.03179 0.46928 0.72343
 Cu93 Cu -0.00055 0.50044 0.78198
 Cu94 Cu -0.00053 0.50056 0.71813
 C95 C -0.04234 0.45868 0.74998
 C96 C 0.04130 0.54229 0.75012
 C97 C -0.04251 0.54253 0.75010
 C98 C 0.04142 0.45848 0.75002
 O99 O 0.46765 0.96935 0.22288
 O100 O 0.53026 1.03188 0.22285
 O101 O 0.53024 0.96925 0.22288
 O102 O 0.46765 1.03200 0.22289
 O103 O 0.46767 1.03198 0.27603
 O104 O 0.53025 0.96924 0.27602
 O105 O 0.53027 1.03185 0.27599
 O106 O 0.46766 0.96933 0.27602
 Cu107 Cu 0.49894 1.00063 0.21751
 Cu108 Cu 0.49896 1.00060 0.28138
 C109 C 0.45711 0.95878 0.24946
 C110 C 0.54084 1.04240 0.24941
 C111 C 0.54080 0.95866 0.24945
 C112 C 0.45710 1.04259 0.24946
 O113 O 1.03173 0.22354 0.53100
 O114 O 0.96908 0.22347 0.46853
 O115 O 1.03168 0.22361 0.46845
 O116 O 0.96914 0.22345 0.53108
 O117 O 0.96898 0.27666 0.53108
 O118 O 1.03151 0.27682 0.46845
 O119 O 0.96891 0.27668 0.46852
 O120 O 1.03157 0.27675 0.53100
 Cu121 Cu 1.00042 0.21815 0.49976
 Cu122 Cu 1.00022 0.28210 0.49976
 C123 C 1.04222 0.25015 0.54154
 C124 C 0.95842 0.25006 0.45798
 C125 C 1.04215 0.25024 0.45788
 C126 C 0.95851 0.25003 0.54165
 O127 O -0.03158 0.72375 0.53132
 O128 O 0.03097 0.72351 0.46874
 O129 O 0.03100 0.72363 0.53130
 O130 O -0.03162 0.72367 0.46876
 O131 O -0.03157 0.77688 0.46865
 O132 O 0.03105 0.77683 0.53119
 O133 O 0.03102 0.77672 0.46863
 O134 O -0.03154 0.77696 0.53121
 Cu135 Cu -0.00031 0.71826 0.50004
 Cu136 Cu -0.00026 0.78222 0.49990
 C137 C -0.04211 0.75039 0.54182
 C138 C 0.04155 0.75008 0.45813
 C139 C 0.04158 0.75022 0.54181
 C140 C -0.04216 0.75028 0.45815
 O141 O 0.77660 0.46866 1.03147
 O142 O 0.77662 0.53124 0.96890
 O143 O 0.77650 0.53128 1.03143
 O144 O 0.77674 0.46862 0.96893
 O145 O 0.72356 0.46860 0.96882
 O146 O 0.72332 0.53126 1.03133
 O147 O 0.72344 0.53122 0.96880
 O148 O 0.72342 0.46864 1.03136
 Cu149 Cu 0.78199 0.49995 1.00020
 Cu150 Cu 0.71806 0.49993 1.00006
 C151 C 0.75000 0.45810 1.04197
 C152 C 0.75004 0.54178 0.95830
 C153 C 0.74987 0.54184 1.04193
 C154 C 0.75019 0.45803 0.95833
 O155 O 0.46814 1.03184 0.77683
 O156 O 0.53073 0.96914 0.77694
 O157 O 0.53075 1.03177 0.77691
 O158 O 0.46814 0.96921 0.77687
 O159 O 0.46820 0.96922 0.72373
 O160 O 0.53080 1.03177 0.72377
 O161 O 0.53079 0.96915 0.72380
 O162 O 0.46820 1.03185 0.72370
 Cu163 Cu 0.49943 1.00049 0.78226
 Cu164 Cu 0.49950 1.00050 0.71838
 C165 C 0.45760 1.04242 0.75025
 C166 C 0.54132 0.95856 0.75038
 C167 C 0.54135 1.04232 0.75035
 C168 C 0.45761 0.95865 0.75029
 C169 C 0.25022 0.22627 0.27347
 C170 C 0.22633 0.25031 0.27342
 C171 C 0.22639 0.27424 0.24944
 C172 C 0.25034 0.27417 0.22551
 C173 C 0.27424 0.25013 0.22560
 C174 C 0.27420 0.22619 0.24958
 C175 C 0.74930 0.77404 0.27410
 C176 C 0.77330 0.75012 0.27405
 C177 C 0.77333 0.72621 0.25010
 C178 C 0.74941 0.72625 0.22615
 C179 C 0.72546 0.75023 0.22617
 C180 C 0.72538 0.77412 0.25015
 C181 C 0.75050 0.22575 0.72623
 C182 C 0.77440 0.24973 0.72618
 C183 C 0.77433 0.27371 0.75006
 C184 C 0.75044 0.27368 0.77404
 C185 C 0.72653 0.24973 0.77404
 C186 C 0.72653 0.22578 0.75013
 C187 C 0.24947 0.77418 0.72642
 C188 C 0.27346 0.77417 0.75030
 C189 C 0.27358 0.75014 0.77417
 C190 C 0.24973 0.72612 0.77421
 C191 C 0.22575 0.72614 0.75031
 C192 C 0.22562 0.75015 0.72640
 C193 C 0.22634 0.24959 0.72596
 C194 C 0.22635 0.27354 0.74993
 C195 C 0.25032 0.27339 0.77388
 C196 C 0.27423 0.24932 0.77390
 C197 C 0.27416 0.22539 0.74991
 C198 C 0.25022 0.22549 0.72594
 C199 C 0.77398 0.75032 0.72645
 C200 C 0.74995 0.77427 0.72640
 C201 C 0.72599 0.77422 0.75036
 C202 C 0.72605 0.75028 0.77435
 C203 C 0.75009 0.72635 0.77432
 C204 C 0.77407 0.72633 0.75039
 C205 C 0.22572 0.74977 0.27376
 C206 C 0.24964 0.77376 0.27378
 C207 C 0.27357 0.77377 0.24979
 C208 C 0.27362 0.74981 0.22583
 C209 C 0.24967 0.72584 0.22587
 C210 C 0.22569 0.72581 0.24980
 C211 C 0.77408 0.24951 0.27377
 C212 C 0.77410 0.27351 0.24985
 C213 C 0.75011 0.27351 0.22592
 C214 C 0.72617 0.24955 0.22586
 C215 C 0.72619 0.22558 0.24983
 C216 C 0.75014 0.22554 0.27379
 C217 C 0.24112 0.16249 0.37883
 C218 C 0.22007 0.13178 0.37846
 C219 C 0.24962 0.11189 0.38838
 C220 C 0.27067 0.14222 0.38913
 C221 C 0.24986 0.15640 0.34350
 C222 C 0.27940 0.13653 0.35339
 C223 C 0.22881 0.12608 0.34273
 C224 C 0.25835 0.10581 0.35303
 C225 C 0.24950 0.08709 0.41337
 C226 C 0.24943 0.06668 0.43393
 C227 C 0.25001 0.18119 0.31858
 C228 C 0.25012 0.20164 0.29809
 H229 H 0.23399 0.18609 0.38909
 H230 H 0.19567 0.12957 0.38904
 H231 H 0.28787 0.14857 0.40850
 H232 H 0.30377 0.13878 0.34273
 H233 H 0.21161 0.11977 0.32335
 H234 H 0.26544 0.08223 0.34269
 C235 C 0.73543 0.83911 0.37812
 C236 C 0.76599 0.85488 0.39235
 C237 C 0.74983 0.88798 0.38915
 C238 C 0.71927 0.87259 0.37531
 C239 C 0.74945 0.84356 0.34428
 C240 C 0.73329 0.87664 0.34107
 C241 C 0.78002 0.85893 0.35811
 C242 C 0.76386 0.89242 0.35530
 C243 C 0.75002 0.91274 0.41411
 C244 C 0.75015 0.93315 0.43462
 C245 C 0.74929 0.81888 0.31932
 C246 C 0.74925 0.79855 0.29877
 H247 H 0.72374 0.81688 0.38717
 H248 H 0.77945 0.84621 0.41370
 H249 H 0.69430 0.87850 0.38267
 H250 H 0.71981 0.88522 0.31968
 H251 H 0.80497 0.85294 0.35075
 H252 H 0.77556 0.91463 0.34621
 C253 C 0.76481 0.12178 0.66105
 C254 C 0.73440 0.10759 0.64493
 C255 C 0.75083 0.11094 0.61205
 C256 C 0.78125 0.12474 0.62777
 C257 C 0.75076 0.15568 0.65660
 C258 C 0.76720 0.15904 0.62374
 C259 C 0.72035 0.14189 0.64089
 C260 C 0.73679 0.14485 0.60762
 C261 C 0.75083 0.08602 0.58725
 C262 C 0.75078 0.06552 0.56683
 C263 C 0.75068 0.18057 0.68135
 C264 C 0.75059 0.20108 0.70173
 H265 H 0.77631 0.11263 0.68332
 H266 H 0.72090 0.08617 0.65337
 H267 H 0.80628 0.11740 0.62209
 H268 H 0.78072 0.18050 0.61539
 H269 H 0.69533 0.14923 0.64666
 H270 H 0.72527 0.15403 0.58536
 C271 C 0.22535 0.87250 0.65529
 C272 C 0.25370 0.89550 0.64795
 C273 C 0.24911 0.88896 0.61191
 C274 C 0.22075 0.86634 0.61887
 C275 C 0.24917 0.84426 0.65661
 C276 C 0.24457 0.83771 0.62059
 C277 C 0.27752 0.86686 0.64967
 C278 C 0.27292 0.86070 0.61325
 C279 C 0.24910 0.91385 0.58701
 C280 C 0.24912 0.93432 0.56652
 C281 C 0.24924 0.81938 0.68143
 C282 C 0.24933 0.79887 0.70186
 H283 H 0.20580 0.87702 0.67287
 H284 H 0.25746 0.91954 0.65891
 H285 H 0.19741 0.86638 0.60594
 H286 H 0.24076 0.81365 0.60968
 H287 H 0.30083 0.86676 0.66268
 H288 H 0.29248 0.85614 0.59567
 C289 C 0.33812 0.24381 0.12011
 C290 C 0.36045 0.27249 0.11204
 C291 C 0.38925 0.24931 0.11162
 C292 C 0.36730 0.22063 0.11930
 C293 C 0.34434 0.24964 0.15600
 C294 C 0.37312 0.22646 0.15560
 C295 C 0.36628 0.27832 0.14833
 C296 C 0.39547 0.25514 0.14753
 C297 C 0.41423 0.24920 0.08688
 C298 C 0.43475 0.24916 0.06649
 C299 C 0.31939 0.24986 0.18069
 C300 C 0.29887 0.25001 0.20106
 H301 H 0.31423 0.23918 0.10917
 H302 H 0.35552 0.29143 0.09387
 H303 H 0.36802 0.19691 0.10708
 H304 H 0.37797 0.20754 0.17383
 H305 H 0.36550 0.30204 0.16056
 H306 H 0.41933 0.25979 0.15850
 C307 C 0.37999 0.75161 0.83673
 C308 C 0.38356 0.77720 0.86354
 C309 C 0.38868 0.75005 0.88808
 C310 C 0.38549 0.72446 0.86166
 C311 C 0.34377 0.75008 0.84370
 C312 C 0.34886 0.72292 0.86822
 C313 C 0.34694 0.77566 0.87010
 C314 C 0.35244 0.74851 0.89503
 C315 C 0.41366 0.75004 0.91282
 C316 C 0.43419 0.75006 0.93320
 C317 C 0.31881 0.75010 0.81901
 C318 C 0.29827 0.75011 0.79867
 H319 H 0.39097 0.75293 0.81246
 H320 H 0.39811 0.79951 0.86187
 H321 H 0.40164 0.70341 0.85849
 H322 H 0.33423 0.70064 0.86981
 H323 H 0.33078 0.79671 0.87323
 H324 H 0.34140 0.74724 0.91928
 C325 C 0.65341 0.72511 0.12925
 C326 C 0.61674 0.72290 0.13537
 C327 C 0.61147 0.75032 0.11116
 C328 C 0.64776 0.75252 0.10465
 C329 C 0.65586 0.75036 0.15605
 C330 C 0.65061 0.77777 0.13186
 C331 C 0.61960 0.74816 0.16257
 C332 C 0.61395 0.77557 0.13798
 C333 C 0.58674 0.75029 0.08617
 C334 C 0.56637 0.75026 0.06562
 C335 C 0.68056 0.75035 0.18100
 C336 C 0.70092 0.75031 0.20152
 H337 H 0.66997 0.70438 0.12601
 H338 H 0.60252 0.70035 0.13651
 H339 H 0.65904 0.75432 0.08055
 H340 H 0.66483 0.80033 0.13078
 H341 H 0.60836 0.74639 0.18670
 H342 H 0.59746 0.79632 0.14131
 C343 C 0.62084 0.25531 0.83771
 C344 C 0.61293 0.22649 0.85995
 C345 C 0.61227 0.24954 0.88878
 C346 C 0.61980 0.27836 0.86693
 C347 C 0.65679 0.24965 0.84400
 C348 C 0.65615 0.27270 0.87281
 C349 C 0.64927 0.22083 0.86583
 C350 C 0.64823 0.24388 0.89506
 C351 C 0.58748 0.24947 0.91371
 C352 C 0.56707 0.24941 0.93421
 C353 C 0.68155 0.24969 0.81913
 C354 C 0.70196 0.24971 0.79866
 H355 H 0.60992 0.25999 0.81382
 H356 H 0.59490 0.20748 0.85492
 H357 H 0.60740 0.30201 0.86767
 H358 H 0.67424 0.29169 0.87774
 H359 H 0.66168 0.19718 0.86502
 H360 H 0.65919 0.23918 0.91892
 C361 C 0.13165 0.34880 0.27633
 C362 C 0.13805 0.38550 0.27548
 C363 C 0.11191 0.38906 0.24964
 C364 C 0.10513 0.35275 0.25048
 C365 C 0.15656 0.34430 0.24946
 C366 C 0.13044 0.34784 0.22361
 C367 C 0.16335 0.38059 0.24861
 C368 C 0.13684 0.38454 0.22277
 C369 C 0.08705 0.41398 0.24974
 C370 C 0.06657 0.43446 0.24983
 C371 C 0.18138 0.31941 0.24940
 C372 C 0.20182 0.29892 0.24939
 H373 H 0.12986 0.33375 0.29831
 H374 H 0.14088 0.40128 0.29680
 H375 H 0.08091 0.34160 0.25126
 H376 H 0.12766 0.33205 0.20229
 H377 H 0.18760 0.39169 0.24779
 H378 H 0.13871 0.39950 0.20075
 C379 C 0.84141 0.37569 0.73112
 C380 C 0.85344 0.39389 0.76127
 C381 C 0.88821 0.38882 0.74989
 C382 C 0.87656 0.37101 0.71973
 C383 C 0.84379 0.34395 0.74987
 C384 C 0.87855 0.33887 0.73848
 C385 C 0.85542 0.36174 0.78002
 C386 C 0.89058 0.35706 0.76864
 C387 C 0.91297 0.41378 0.74992
 C388 C 0.93337 0.43430 0.74994
 C389 C 0.81912 0.31898 0.74990
 C390 C 0.79880 0.29842 0.74996
 H391 H 0.82088 0.38302 0.71570
 H392 H 0.84340 0.41679 0.77066
 H393 H 0.88554 0.37509 0.69495
 H394 H 0.88851 0.31594 0.72907
 H395 H 0.84636 0.35763 0.80478
 H396 H 0.91109 0.34970 0.78406
 C397 C 0.12564 0.65722 0.72917
 C398 C 0.13108 0.62135 0.72066
 C399 C 0.11113 0.61176 0.75021
 C400 C 0.10531 0.64725 0.75872
 C401 C 0.15592 0.65626 0.75026
 C402 C 0.13599 0.64669 0.77981
 C403 C 0.16177 0.62080 0.74176
 C404 C 0.14143 0.61082 0.77130
 C405 C 0.08619 0.58698 0.75018
 C406 C 0.06568 0.56658 0.75016
 C407 C 0.18078 0.68105 0.75030
 C408 C 0.20122 0.70150 0.75031
 H409 H 0.11952 0.67661 0.71183
 H410 H 0.12876 0.61064 0.69634
 H411 H 0.08180 0.65783 0.76569
 H412 H 0.13838 0.65740 0.80412
 H413 H 0.18529 0.61025 0.73480
 H414 H 0.14766 0.59149 0.78864
 C415 C 0.86532 0.64881 0.22149
 C416 C 0.89449 0.64782 0.24461
 C417 C 0.88825 0.61184 0.25027
 C418 C 0.85947 0.61245 0.22714
 C419 C 0.84337 0.65636 0.25018
 C420 C 0.83712 0.62040 0.25584
 C421 C 0.87214 0.65577 0.27332
 C422 C 0.86629 0.61940 0.27897
 C423 C 0.91325 0.58705 0.25028
 C424 C 0.93382 0.56665 0.25026
 C425 C 0.81845 0.68115 0.25013
 C426 C 0.79796 0.70159 0.25010
 H427 H 0.86456 0.66120 0.19786
 H428 H 0.91837 0.65878 0.24000
 H429 H 0.85453 0.59438 0.20816
 H430 H 0.81322 0.60947 0.26043
 H431 H 0.87698 0.67390 0.29229
 H432 H 0.86699 0.60702 0.30260
 C433 C 0.15080 0.22228 0.63221
 C434 C 0.11419 0.22522 0.63845
 C435 C 0.11195 0.25010 0.61122
 C436 C 0.14818 0.24716 0.60460
 C437 C 0.15657 0.24997 0.65593
 C438 C 0.15435 0.27484 0.62872
 C439 C 0.12037 0.25291 0.66257
 C440 C 0.11775 0.27778 0.63496
 C441 C 0.08708 0.25015 0.58634
 C442 C 0.06660 0.25017 0.56588
 C443 C 0.18137 0.24987 0.68082
 C444 C 0.20177 0.24976 0.70132
 H445 H 0.16474 0.19949 0.63140
 H446 H 0.09740 0.20482 0.64216
 H447 H 0.15933 0.24479 0.58048
 H448 H 0.17116 0.29524 0.62504
 H449 H 0.10927 0.25532 0.68671
 H450 H 0.10389 0.30061 0.63584
 C451 C 0.87194 0.77433 0.65505
 C452 C 0.89500 0.74597 0.64771
 C453 C 0.88834 0.75052 0.61168
 C454 C 0.86566 0.77888 0.61864
 C455 C 0.84381 0.75047 0.65648
 C456 C 0.83713 0.75502 0.62047
 C457 C 0.86647 0.72211 0.64954
 C458 C 0.86019 0.72666 0.61313
 C459 C 0.91314 0.75051 0.58673
 C460 C 0.93357 0.75047 0.56621
 C461 C 0.81902 0.75042 0.68137
 C462 C 0.79859 0.75037 0.70185
 H463 H 0.87644 0.79393 0.67258
 H464 H 0.91907 0.74226 0.65862
 H465 H 0.86556 0.80222 0.60566
 H466 H 0.81304 0.75879 0.60962
 H467 H 0.86650 0.69881 0.66260
 H468 H 0.85565 0.70706 0.59560
 C469 C 0.16198 0.74216 0.37929
 C470 C 0.14107 0.77157 0.38865
 C471 C 0.11120 0.74986 0.38837
 C472 C 0.13173 0.72045 0.37939
 C473 C 0.15586 0.74977 0.34369
 C474 C 0.12601 0.72806 0.34339
 C475 C 0.13535 0.77918 0.35266
 C476 C 0.10510 0.75747 0.35276
 C477 C 0.08634 0.74992 0.41327
 C478 C 0.06589 0.74998 0.43375
 C479 C 0.18068 0.74975 0.31884
 C480 C 0.20112 0.74975 0.29838
 H481 H 0.18567 0.73588 0.38987
 H482 H 0.14701 0.78947 0.40752
 H483 H 0.12995 0.69631 0.39066
 H484 H 0.12017 0.71017 0.32448
 H485 H 0.13720 0.80332 0.34139
 H486 H 0.08143 0.76377 0.34214
 C487 C 0.83720 0.24855 0.37995
 C488 C 0.86391 0.22281 0.38373
 C489 C 0.88864 0.24984 0.38835
 C490 C 0.86232 0.27558 0.38496
 C491 C 0.84397 0.24962 0.34369
 C492 C 0.86869 0.27665 0.34830
 C493 C 0.87028 0.22388 0.34707
 C494 C 0.89540 0.25091 0.35208
 C495 C 0.91354 0.24994 0.41322
 C496 C 0.93403 0.25001 0.43366
 C497 C 0.81913 0.24953 0.31885
 C498 C 0.79868 0.24950 0.29839
 H499 H 0.81296 0.24753 0.39108
 H500 H 0.86219 0.20067 0.39855
 H501 H 0.85933 0.29683 0.40082
 H502 H 0.87033 0.29875 0.33339
 H503 H 0.87322 0.20263 0.33120
 H504 H 0.91961 0.25188 0.34090
 C505 C 0.22149 0.36459 0.85209
 C506 C 0.22790 0.35852 0.88826
 C507 C 0.25050 0.38773 0.88868
 C508 C 0.24408 0.39417 0.85289
 C509 C 0.25048 0.34320 0.84388
 C510 C 0.27307 0.37238 0.84427
 C511 C 0.25689 0.33674 0.87964
 C512 C 0.27949 0.36632 0.88044
 C513 C 0.25049 0.41255 0.91361
 C514 C 0.25047 0.43299 0.93411
 C515 C 0.25043 0.31841 0.81898
 C516 C 0.25037 0.29798 0.79850
 H517 H 0.19767 0.36357 0.84007
 H518 H 0.20933 0.35311 0.90664
 H519 H 0.23881 0.41806 0.84217
 H520 H 0.29164 0.37776 0.82589
 H521 H 0.26221 0.31282 0.89030
 H522 H 0.30334 0.36728 0.89237
 C523 C 0.78035 0.36017 0.14333
 C524 C 0.76739 0.35589 0.10870
 C525 C 0.74999 0.38837 0.11164
 C526 C 0.76295 0.39304 0.14588
 C527 C 0.74999 0.34362 0.15624
 C528 C 0.73259 0.37609 0.15920
 C529 C 0.73703 0.33893 0.12201
 C530 C 0.71963 0.37180 0.12457
 C531 C 0.74999 0.41327 0.08679
 C532 C 0.74999 0.43375 0.06633
 C533 C 0.75002 0.31871 0.18100
 C534 C 0.75005 0.29819 0.20139
 H535 H 0.80528 0.35509 0.15141
 H536 H 0.78169 0.34788 0.08764
 H537 H 0.77361 0.41557 0.15542
 H538 H 0.71830 0.38405 0.18027
 H539 H 0.72634 0.31638 0.11256
 H540 H 0.69466 0.37685 0.11658
 C541 C 0.75199 0.62009 0.83732
 C542 C 0.77737 0.61673 0.86436
 C543 C 0.75008 0.61157 0.88869
 C544 C 0.72469 0.61454 0.86204
 C545 C 0.75013 0.65635 0.84412
 C546 C 0.72284 0.65121 0.86843
 C547 C 0.77551 0.65339 0.87075
 C548 C 0.74822 0.64785 0.89547
 C549 C 0.75005 0.58665 0.91352
 C550 C 0.75004 0.56615 0.93396
 C551 C 0.75014 0.68123 0.81932
 C552 C 0.75013 0.70172 0.79890
 H553 H 0.75359 0.60902 0.81310
 H554 H 0.79978 0.60228 0.86294
 H555 H 0.70381 0.59828 0.85875
 H556 H 0.70045 0.66574 0.86976
 H557 H 0.79640 0.66967 0.87400
 H558 H 0.74667 0.65897 0.91966
 C559 C 0.22855 0.65623 0.12606
 C560 C 0.25806 0.64664 0.10545
 C561 C 0.25023 0.61104 0.11153
 C562 C 0.22072 0.62025 0.13176
 C563 C 0.24999 0.65581 0.15609
 C564 C 0.24216 0.62023 0.16219
 C565 C 0.27950 0.64662 0.13589
 C566 C 0.27167 0.61064 0.14159
 C567 C 0.25031 0.58610 0.08672
 C568 C 0.25036 0.56558 0.06631
 C569 C 0.24984 0.68070 0.18089
 C570 C 0.24974 0.70119 0.20130
 H571 H 0.21082 0.67527 0.11999
 H572 H 0.26462 0.65722 0.08185
 H573 H 0.19654 0.60913 0.12980
 H574 H 0.23561 0.60970 0.18581
 H575 H 0.30365 0.65779 0.13791
 H576 H 0.28940 0.59160 0.14768
 C577 C 0.36468 0.14637 0.72065
 C578 C 0.39496 0.14646 0.74234
 C579 C 0.38902 0.11082 0.75010
 C580 C 0.35913 0.11035 0.72841
 C581 C 0.34416 0.15541 0.74997
 C582 C 0.33821 0.11979 0.75773
 C583 C 0.37404 0.15590 0.77167
 C584 C 0.36849 0.11987 0.77942
 C585 C 0.41399 0.08596 0.75016
 C586 C 0.43451 0.06549 0.75021
 C587 C 0.31924 0.18023 0.74991
 C588 C 0.29875 0.20071 0.74989
 H589 H 0.36277 0.15754 0.69650
 H590 H 0.41858 0.15713 0.73602
 H591 H 0.35327 0.09136 0.71062
 H592 H 0.31458 0.10914 0.76404
 H593 H 0.37981 0.17494 0.78945
 H594 H 0.37034 0.10870 0.80359
 C595 C 0.36966 0.84714 0.27520
 C596 C 0.39459 0.85255 0.24807
 C597 C 0.38765 0.88883 0.24955
 C598 C 0.36310 0.88380 0.27667
 C599 C 0.34322 0.84393 0.24965
 C600 C 0.33626 0.88019 0.25113
 C601 C 0.36775 0.84894 0.22253
 C602 C 0.36118 0.88562 0.22400
 C603 C 0.41241 0.91383 0.24950
 C604 C 0.43280 0.93437 0.24948
 C605 C 0.31849 0.81898 0.24971
 C606 C 0.29811 0.79845 0.24975
 H607 H 0.37282 0.83102 0.29624
 H608 H 0.41885 0.84147 0.24681
 H609 H 0.36144 0.89840 0.29894
 H610 H 0.31197 0.89123 0.25243
 H611 H 0.36935 0.83427 0.20030
 H612 H 0.35798 0.90172 0.20296
 C613 C 0.62714 0.15570 0.22658
 C614 C 0.63286 0.11932 0.22080
 C615 C 0.61090 0.11174 0.24949
 C616 C 0.60479 0.14773 0.25527
 C617 C 0.65594 0.15603 0.24968
 C618 C 0.63399 0.14847 0.27837
 C619 C 0.66206 0.12006 0.24389
 C620 C 0.63972 0.11210 0.27259
 C621 C 0.58585 0.08703 0.24943
 C622 C 0.56528 0.06667 0.24941
 C623 C 0.68097 0.18068 0.24979
 C624 C 0.70153 0.20103 0.24984
 H625 H 0.62232 0.17393 0.20766
 H626 H 0.63211 0.10706 0.19712
 H627 H 0.58095 0.15883 0.25995
 H628 H 0.63480 0.16074 0.30204
 H629 H 0.68592 0.10900 0.23924
 H630 H 0.64463 0.09391 0.29151
 C631 C 0.64333 0.86102 0.78063
 C632 C 0.64554 0.89365 0.76275
 C633 C 0.61109 0.88875 0.75040
 C634 C 0.60850 0.85650 0.76828
 C635 C 0.65584 0.84405 0.75033
 C636 C 0.62140 0.83913 0.73798
 C637 C 0.65845 0.87627 0.73245
 C638 C 0.62361 0.87175 0.72010
 C639 C 0.58617 0.91365 0.75042
 C640 C 0.56569 0.93416 0.75041
 C641 C 0.68076 0.81922 0.75031
 C642 C 0.70129 0.79880 0.75032
 H643 H 0.65173 0.85625 0.80550
 H644 H 0.65518 0.91635 0.77293
 H645 H 0.58770 0.84864 0.78302
 H646 H 0.61180 0.81641 0.72781
 H647 H 0.67928 0.88404 0.71769
 H648 H 0.61522 0.87645 0.69521
 C649 C 0.77641 0.84801 0.63068
 C650 C 0.75006 0.85249 0.60473
 C651 C 0.75020 0.88886 0.61136
 C652 C 0.77655 0.88476 0.63693
 C653 C 0.74999 0.84422 0.65621
 C654 C 0.75013 0.88057 0.66284
 C655 C 0.72365 0.84830 0.63065
 C656 C 0.72379 0.88504 0.63690
 C657 C 0.75030 0.91375 0.58637
 C658 C 0.75035 0.93424 0.56583
 C659 C 0.74991 0.81938 0.68118
 C660 C 0.74989 0.79892 0.70172
 H661 H 0.79803 0.83246 0.62843
 H662 H 0.75004 0.84120 0.58057
 H663 H 0.79831 0.90001 0.63925
 H664 H 0.75012 0.89181 0.68703
 H665 H 0.70189 0.83303 0.62837
 H666 H 0.70214 0.90051 0.63923
 C667 C 0.22654 0.37245 0.15417
 C668 C 0.25489 0.39546 0.14685
 C669 C 0.25033 0.38895 0.11080
 C670 C 0.22198 0.36632 0.11774
 C671 C 0.25037 0.34421 0.15551
 C672 C 0.24581 0.33768 0.11947
 C673 C 0.27871 0.36682 0.14858
 C674 C 0.27415 0.36069 0.11215
 C675 C 0.25033 0.41385 0.08586
 C676 C 0.25033 0.43432 0.06533
 C677 C 0.25039 0.31930 0.18037
 C678 C 0.25039 0.29881 0.20085
 H679 H 0.20697 0.37695 0.17176
 H680 H 0.25863 0.41950 0.15783
 H681 H 0.19865 0.36638 0.10479
 H682 H 0.24209 0.31363 0.10852
 H683 H 0.30204 0.36670 0.16154
 H684 H 0.29374 0.35609 0.09462
 C685 C 0.24043 0.16145 0.62056
 C686 C 0.27012 0.14164 0.60977
 C687 C 0.24957 0.11095 0.61086
 C688 C 0.21989 0.13039 0.62127
 C689 C 0.24984 0.15551 0.65577
 C690 C 0.22929 0.12485 0.65687
 C691 C 0.27952 0.13609 0.64538
 C692 C 0.25897 0.10503 0.64609
 C693 C 0.24945 0.08608 0.58584
 C694 C 0.24938 0.06561 0.56528
 C695 C 0.25001 0.18036 0.68074
 C696 C 0.25013 0.20082 0.70126
 H697 H 0.23276 0.18493 0.61036
 H698 H 0.28691 0.14830 0.59014
 H699 H 0.19534 0.12783 0.61111
 H700 H 0.21250 0.11822 0.67652
 H701 H 0.30403 0.13870 0.65563
 H702 H 0.26660 0.08158 0.65636
 C703 C 0.25585 0.87967 0.33763
 C704 C 0.22677 0.88824 0.35930
 C705 C 0.24927 0.88858 0.38859
 C706 C 0.27833 0.88038 0.36730
 C707 C 0.24947 0.84381 0.34389
 C708 C 0.27196 0.84414 0.37317
 C709 C 0.22040 0.85198 0.36517
 C710 C 0.24289 0.85270 0.39484
 C711 C 0.24920 0.91354 0.41352
 C712 C 0.24918 0.93408 0.43401
 C713 C 0.24957 0.81891 0.31897
 C714 C 0.24962 0.79843 0.29847
 H715 H 0.26123 0.89046 0.31382
 H716 H 0.20818 0.90663 0.35384
 H717 H 0.30217 0.89231 0.36839
 H718 H 0.29054 0.82573 0.37859
 H719 H 0.19659 0.83997 0.36402
 H720 H 0.23755 0.84184 0.41862
 C721 C 0.75697 0.11976 0.33790
 C722 C 0.77952 0.11926 0.36754
 C723 C 0.75054 0.11102 0.38891
 C724 C 0.72800 0.11114 0.35964
 C725 C 0.75034 0.15560 0.34400
 C726 C 0.72137 0.14737 0.36535
 C727 C 0.77289 0.15550 0.37324
 C728 C 0.74391 0.14688 0.39500
 C729 C 0.75060 0.08613 0.41391
 C730 C 0.75061 0.06565 0.43444
 C731 C 0.75022 0.18043 0.31901
 C732 C 0.75015 0.20088 0.29847
 H733 H 0.76233 0.10889 0.31413
 H734 H 0.80344 0.10745 0.36870
 H735 H 0.70953 0.09265 0.35428
 H736 H 0.69745 0.15920 0.36413
 H737 H 0.79135 0.17404 0.37851
 H738 H 0.73854 0.15778 0.41874
 C739 C 0.66210 0.75682 0.88018
 C740 C 0.63236 0.77932 0.88076
 C741 C 0.61109 0.75026 0.88902
 C742 C 0.64045 0.72776 0.88881
 C743 C 0.65592 0.75028 0.84438
 C744 C 0.63467 0.72123 0.85263
 C745 C 0.62658 0.77278 0.84457
 C746 C 0.60493 0.74372 0.85320
 C747 C 0.58608 0.75024 0.91391
 C748 C 0.56553 0.75021 0.93438
 C749 C 0.68087 0.75027 0.81951
 C750 C 0.70138 0.75027 0.79903
 H751 H 0.68588 0.76219 0.89100
 H752 H 0.63117 0.80322 0.89258
 H753 H 0.64594 0.70923 0.90723
 H754 H 0.63593 0.69732 0.84080
 H755 H 0.62120 0.79131 0.82609
 H756 H 0.58116 0.73833 0.84235
 C757 C 0.12015 0.25106 0.33667
 C758 C 0.11549 0.22435 0.36222
 C759 C 0.11183 0.25042 0.38811
 C760 C 0.11611 0.27714 0.36295
 C761 C 0.15645 0.25049 0.34339
 C762 C 0.15281 0.27656 0.36927
 C763 C 0.15220 0.22377 0.36854
 C764 C 0.14815 0.24985 0.39482
 C765 C 0.08696 0.25036 0.41302
 C766 C 0.06650 0.25030 0.43351
 C767 C 0.18127 0.25048 0.31851
 C768 C 0.20171 0.25042 0.29804
 H769 H 0.10897 0.25161 0.31246
 H770 H 0.09987 0.20288 0.35960
 H771 H 0.10101 0.29909 0.36089
 H772 H 0.16845 0.29803 0.37184
 H773 H 0.16737 0.20185 0.37052
 H774 H 0.15939 0.24934 0.41901
 C775 C 0.65503 0.22581 0.12739
 C776 C 0.61859 0.22102 0.13345
 C777 C 0.61148 0.24946 0.11092
 C778 C 0.64755 0.25425 0.10448
 C779 C 0.65618 0.24950 0.15568
 C780 C 0.64909 0.27795 0.13316
 C781 C 0.62014 0.24471 0.16213
 C782 C 0.61265 0.27315 0.13923
 C783 C 0.58655 0.24942 0.08595
 C784 C 0.56604 0.24938 0.06543
 C785 C 0.68107 0.24952 0.18062
 C786 C 0.70153 0.24954 0.20114
 H787 H 0.67272 0.20633 0.12280
 H788 H 0.60581 0.19759 0.13336
 H789 H 0.65858 0.25818 0.08051
 H790 H 0.66195 0.30134 0.13332
 H791 H 0.60916 0.24074 0.18612
 H792 H 0.59497 0.29263 0.14385
 C793 C 0.38060 0.24866 0.83724
 C794 C 0.38524 0.27529 0.86286
 C795 C 0.38905 0.24912 0.88870
 C796 C 0.38477 0.22250 0.86345
 C797 C 0.34429 0.24911 0.84399
 C798 C 0.34807 0.22295 0.86981
 C799 C 0.34854 0.27573 0.86923
 C800 C 0.35271 0.24957 0.89544
 C801 C 0.41402 0.24913 0.91363
 C802 C 0.43455 0.24915 0.93411
 C803 C 0.31938 0.24914 0.81908
 C804 C 0.29890 0.24920 0.79858
 H805 H 0.39178 0.24825 0.81302
 H806 H 0.40078 0.29682 0.86025
 H807 H 0.39991 0.20060 0.86128
 H808 H 0.33252 0.20142 0.87238
 H809 H 0.33332 0.29760 0.87132
 H810 H 0.34149 0.24994 0.91963
 C811 C 0.35623 0.78030 0.13882
 C812 C 0.39107 0.76782 0.14326
 C813 C 0.38842 0.75005 0.11100
 C814 C 0.35396 0.76252 0.10618
 C815 C 0.34369 0.74994 0.15573
 C816 C 0.34102 0.73216 0.12349
 C817 C 0.37814 0.73747 0.16057
 C818 C 0.37586 0.71969 0.12794
 C819 C 0.41338 0.75009 0.08606
 C820 C 0.43391 0.75011 0.06557
 C821 C 0.31878 0.74988 0.18065
 C822 C 0.29829 0.74984 0.20115
 H823 H 0.34788 0.80522 0.14359
 H824 H 0.41188 0.78252 0.15117
 H825 H 0.34426 0.77283 0.08355
 H826 H 0.32016 0.71749 0.11565
 H827 H 0.38781 0.72717 0.18321
 H828 H 0.38418 0.69475 0.12322
 C829 C 0.85292 0.63534 0.72106
 C830 C 0.88902 0.64101 0.72828
 C831 C 0.88891 0.61125 0.75022
 C832 C 0.85318 0.60521 0.74300
 C833 C 0.84420 0.65612 0.75032
 C834 C 0.84407 0.62638 0.77226
 C835 C 0.87990 0.66217 0.75753
 C836 C 0.88017 0.63204 0.77948
 C837 C 0.91386 0.58623 0.75017
 C838 C 0.93438 0.56568 0.75013
 C839 C 0.81928 0.68110 0.75035
 C840 C 0.79878 0.70163 0.75037
 H841 H 0.84146 0.63702 0.69703
 H842 H 0.90773 0.64680 0.71017
 H843 H 0.84244 0.58153 0.73703
 H844 H 0.82530 0.62069 0.79036
 H845 H 0.89061 0.68588 0.76349
 H846 H 0.89163 0.63044 0.80352
 C847 C 0.35767 0.14017 0.21922
 C848 C 0.39205 0.14412 0.23296
 C849 C 0.38876 0.11126 0.24955
 C850 C 0.35475 0.10693 0.23582
 C851 C 0.34413 0.15608 0.24965
 C852 C 0.34082 0.12324 0.26625
 C853 C 0.37811 0.16043 0.26339
 C854 C 0.37521 0.12719 0.27999
 C855 C 0.41362 0.08628 0.24950
 C856 C 0.43407 0.06573 0.24947
 C857 C 0.31928 0.18100 0.24967
 C858 C 0.29881 0.20150 0.24965
 H859 H 0.35017 0.14587 0.19425
 H860 H 0.41337 0.15244 0.21925
 H861 H 0.34544 0.08464 0.22448
 H862 H 0.31946 0.11501 0.27997
 H863 H 0.38741 0.18273 0.27471
 H864 H 0.38268 0.12157 0.30497
 C865 C 0.12163 0.66020 0.23560
 C866 C 0.12468 0.62667 0.21962
 C867 C 0.11059 0.61127 0.25010
 C868 C 0.10717 0.64443 0.26608
 C869 C 0.15542 0.65592 0.24991
 C870 C 0.14135 0.64054 0.28040
 C871 C 0.15885 0.62278 0.23393
 C872 C 0.14440 0.60701 0.26442
 C873 C 0.08563 0.58634 0.25016
 C874 C 0.06514 0.56581 0.25016
 C875 C 0.18041 0.68075 0.24982
 C876 C 0.20097 0.70118 0.24978
 H877 H 0.11255 0.68235 0.22375
 H878 H 0.11758 0.62072 0.19461
 H879 H 0.08568 0.65310 0.27933
 H880 H 0.14846 0.64657 0.30539
 H881 H 0.18037 0.61418 0.22068
 H882 H 0.15351 0.58487 0.27628
 C883 C 0.84258 0.37470 0.22985
 C884 C 0.85352 0.39403 0.25973
 C885 C 0.88872 0.38851 0.24991
 C886 C 0.87815 0.36956 0.22003
 C887 C 0.84410 0.34366 0.24987
 C888 C 0.87928 0.33812 0.24004
 C889 C 0.85465 0.36260 0.27974
 C890 C 0.89022 0.35745 0.26992
 C891 C 0.91361 0.41352 0.24993
 C892 C 0.93407 0.43407 0.24996
 C893 C 0.81923 0.31871 0.24985
 C894 C 0.79876 0.29820 0.24985
 H895 H 0.82271 0.38149 0.21336
 H896 H 0.84318 0.41728 0.26784
 H897 H 0.88805 0.37267 0.19546
 H898 H 0.88959 0.31485 0.23196
 H899 H 0.84474 0.35941 0.30430
 H900 H 0.91004 0.35057 0.28642
 C901 C 0.16241 0.37960 0.74338
 C902 C 0.13268 0.38021 0.72094
 C903 C 0.11140 0.38851 0.74998
 C904 C 0.14076 0.38827 0.77241
 C905 C 0.15624 0.34376 0.74997
 C906 C 0.13498 0.35205 0.77901
 C907 C 0.12690 0.34398 0.72754
 C908 C 0.10524 0.35265 0.75657
 C909 C 0.08640 0.41348 0.74999
 C910 C 0.06587 0.43401 0.75000
 C911 C 0.18119 0.31883 0.74997
 C912 C 0.20169 0.29830 0.74996
 H913 H 0.18619 0.39040 0.73796
 H914 H 0.13148 0.39204 0.69705
 H915 H 0.14624 0.40671 0.79089
 H916 H 0.13624 0.34021 0.80289
 H917 H 0.12151 0.32548 0.70907
 H918 H 0.08147 0.34182 0.76200
 C919 C 0.87879 0.75877 0.33787
 C920 C 0.87836 0.77988 0.36855
 C921 C 0.88809 0.75029 0.38846
 C922 C 0.88890 0.72919 0.35817
 C923 C 0.84338 0.75022 0.34382
 C924 C 0.85309 0.72063 0.36371
 C925 C 0.84254 0.77132 0.37409
 C926 C 0.85265 0.74173 0.39439
 C927 C 0.91298 0.75030 0.41333
 C928 C 0.93346 0.75030 0.43380
 C929 C 0.81849 0.75016 0.31902
 C930 C 0.79798 0.75013 0.29861
 H931 H 0.88923 0.76576 0.31434
 H932 H 0.88902 0.80424 0.37081
 H933 H 0.90822 0.71185 0.35187
 H934 H 0.84243 0.69628 0.36138
 H935 H 0.82317 0.78866 0.38028
 H936 H 0.84219 0.73473 0.41790
 C937 C 0.83758 0.24651 0.62009
 C938 C 0.86134 0.27445 0.61359
 C939 C 0.88890 0.24989 0.61149
 C940 C 0.86552 0.22196 0.61761
 C941 C 0.84430 0.24980 0.65623
 C942 C 0.87184 0.22525 0.65415
 C943 C 0.86766 0.27773 0.65013
 C944 C 0.89560 0.25317 0.64764
 C945 C 0.91375 0.24992 0.58656
 C946 C 0.93418 0.24996 0.56605
 C947 C 0.81947 0.24976 0.68110
 C948 C 0.79901 0.24974 0.70156
 H949 H 0.81343 0.24374 0.60910
 H950 H 0.85731 0.29467 0.59662
 H951 H 0.86488 0.19902 0.60398
 H952 H 0.87583 0.20502 0.67112
 H953 H 0.86823 0.30064 0.66383
 H954 H 0.91973 0.25592 0.65869
 C955 C 0.15168 0.72358 0.63108
 C956 C 0.11497 0.72391 0.63737
 C957 C 0.11120 0.75017 0.61163
 C958 C 0.14753 0.74984 0.60497
 C959 C 0.15577 0.75012 0.65641
 C960 C 0.15203 0.77638 0.63070
 C961 C 0.11946 0.75044 0.66309
 C962 C 0.11531 0.77671 0.63698
 C963 C 0.08637 0.75019 0.58670
 C964 C 0.06592 0.75021 0.56619
 C965 C 0.18057 0.75010 0.68131
 C966 C 0.20100 0.75012 0.70179
 H967 H 0.16692 0.70174 0.62899
 H968 H 0.09948 0.70233 0.63986
 H969 H 0.15880 0.74960 0.58079
 H970 H 0.16760 0.79793 0.62828
 H971 H 0.10824 0.75064 0.68729
 H972 H 0.10008 0.79855 0.63912
 C973 C 0.77321 0.62796 0.15511
 C974 C 0.74476 0.60516 0.14757
 C975 C 0.74967 0.61165 0.11156
 C976 C 0.77813 0.63407 0.11871
 C977 C 0.74958 0.65637 0.15619
 C978 C 0.75450 0.66288 0.12020
 C979 C 0.72113 0.63397 0.14905
 C980 C 0.72605 0.64008 0.11267
 C981 C 0.74973 0.58674 0.08670
 C982 C 0.74978 0.56624 0.06626
 C983 C 0.74952 0.68122 0.18103
 C984 C 0.74947 0.70166 0.20150
 H985 H 0.79260 0.62333 0.17287
 H986 H 0.74075 0.58115 0.15854
 H987 H 0.80157 0.63383 0.10596
 H988 H 0.75847 0.68691 0.10927
 H989 H 0.69769 0.63427 0.16182
 H990 H 0.70664 0.64481 0.09496
 C991 C 0.24666 0.66246 0.88020
 C992 C 0.22225 0.63443 0.88253
 C993 C 0.25026 0.61107 0.88864
 C994 C 0.27467 0.63872 0.88669
 C995 C 0.25008 0.65592 0.84404
 C996 C 0.27808 0.63258 0.85013
 C997 C 0.22566 0.62829 0.84597
 C998 C 0.25367 0.60454 0.85246
 C999 C 0.25034 0.58609 0.91350
 C1000 C 0.25038 0.56556 0.93397
 C1001 C 0.24996 0.68088 0.81923
 C1002 C 0.24985 0.70141 0.79880
 H1003 H 0.24381 0.68657 0.89130
 H1004 H 0.19929 0.63492 0.89612
 H1005 H 0.29484 0.64278 0.90367
 H1006 H 0.30104 0.63215 0.83654
 H1007 H 0.20551 0.62433 0.82892
 H1008 H 0.25655 0.58045 0.84132
 C1009 C 0.76258 0.33852 0.87852
 C1010 C 0.78069 0.37100 0.87638
 C1011 C 0.75040 0.38824 0.88868
 C1012 C 0.73229 0.35614 0.89120
 C1013 C 0.75047 0.34355 0.84402
 C1014 C 0.72018 0.36077 0.85631
 C1015 C 0.76858 0.37563 0.84148
 C1016 C 0.73829 0.39325 0.85416
 C1017 C 0.75034 0.41314 0.91355
 C1018 C 0.75027 0.43363 0.93400
 C1019 C 0.75047 0.31871 0.81916
 C1020 C 0.75045 0.29828 0.79868
 H1021 H 0.77256 0.31571 0.88823
 H1022 H 0.80558 0.37548 0.88491
 H1023 H 0.71736 0.34838 0.91190
 H1024 H 0.69532 0.35620 0.84777
 H1025 H 0.78352 0.38329 0.82074
 H1026 H 0.72830 0.41603 0.84443
 C1027 C 0.62869 0.84713 0.27530
 C1028 C 0.63499 0.88381 0.27693
 C1029 C 0.61060 0.88883 0.24965
 C1030 C 0.60392 0.85252 0.24801
 C1031 C 0.65535 0.84411 0.24994
 C1032 C 0.63097 0.84911 0.22265
 C1033 C 0.66204 0.88040 0.25158
 C1034 C 0.63727 0.88580 0.22429
 C1035 C 0.58568 0.91375 0.24953
 C1036 C 0.56518 0.93425 0.24947
 C1037 C 0.68024 0.81925 0.25007
 C1038 C 0.70073 0.79877 0.25014
 H1039 H 0.62549 0.83093 0.29627
 H1040 H 0.63639 0.89835 0.29926
 H1041 H 0.57974 0.84134 0.24654
 H1042 H 0.62965 0.83450 0.20036
 H1043 H 0.68624 0.89154 0.25309
 H1044 H 0.64051 0.90199 0.20331
 C1045 C 0.62794 0.15513 0.72652
 C1046 C 0.63385 0.11863 0.72184
 C1047 C 0.61133 0.11178 0.75029
 C1048 C 0.60503 0.14790 0.75497
 C1049 C 0.65627 0.15619 0.75015
 C1050 C 0.63377 0.14936 0.77861
 C1051 C 0.66258 0.12008 0.74548
 C1052 C 0.63968 0.11285 0.77394
 C1053 C 0.58632 0.08702 0.75034
 C1054 C 0.56577 0.06662 0.75036
 C1055 C 0.68127 0.18088 0.75010
 C1056 C 0.70184 0.20123 0.75009
 H1057 H 0.62343 0.17281 0.70702
 H1058 H 0.63363 0.10573 0.69850
 H1059 H 0.58109 0.15907 0.75888
 H1060 H 0.63404 0.16234 0.80192
 H1061 H 0.68654 0.10897 0.74153
 H1062 H 0.64422 0.09518 0.79343
 C1063 C 0.37309 0.84386 0.77203
 C1064 C 0.39403 0.85324 0.74270
 C1065 C 0.38791 0.88891 0.75027
 C1066 C 0.36736 0.87991 0.77960
 C1067 C 0.34326 0.84421 0.75028
 C1068 C 0.33713 0.87986 0.75785
 C1069 C 0.36379 0.85319 0.72096
 C1070 C 0.35806 0.88923 0.72852
 C1071 C 0.41279 0.91380 0.75026
 C1072 C 0.43325 0.93429 0.75027
 C1073 C 0.31843 0.81934 0.75028
 C1074 C 0.29801 0.79885 0.75028
 H1075 H 0.37892 0.82490 0.78992
 H1076 H 0.41770 0.84259 0.73647
 H1077 H 0.36911 0.89117 0.80371
 H1078 H 0.31343 0.89048 0.76406
 H1079 H 0.36197 0.84193 0.69685
 H1080 H 0.35213 0.90814 0.71062
   
