data_POSCAR
  _audit_creation_date              2014-09-24
  _audit_creation_method            'ToBaCCo'
  _symmetry_space_group_name_H-M    'P1'
  _symmetry_Int_Tables_number       1
  _symmetry_cell_setting            triclinic
  loop_
  _symmetry_equiv_pos_as_xyz
 x,y,z
_cell_length_a 22.5343
_cell_length_b 14.2567
_cell_length_c 14.1243
_cell_angle_alpha 89.722400
_cell_angle_beta 90.176000
_cell_angle_gamma 89.848000
loop_
  _atom_site_label
  _atom_site_type_symbol
  _atom_site_fract_x
  _atom_site_fract_y
  _atom_site_fract_z
O1 O 0.08333 0.16225 0.17451
 O2 O 0.14881 0.07796 0.08380
 C3 C 0.13649 0.13805 0.14939
 O4 O -0.08183 -0.17469 0.16347
 O5 O -0.14767 -0.08268 0.07994
 C6 C -0.13512 -0.14915 0.13949
 O7 O 0.08425 -0.16567 0.17298
 O8 O 0.14944 -0.08085 0.08204
 C9 C 0.13746 -0.14176 0.14761
 O10 O -0.08245 0.17163 0.16554
 O11 O -0.14800 0.08224 0.08017
 C12 C -0.13567 0.14722 0.14085
 Zr13 Zr 0.00044 0.11775 0.12009
 O14 O -0.00517 0.11590 0.26969
 O15 O 0.00692 0.26590 0.11927
 Zr16 Zr 0.00089 -0.11798 0.12133
 O17 O -0.00096 -0.10245 0.26998
 O18 O 0.00256 -0.26570 0.13560
 O19 O 0.05404 -0.00039 0.13891
 O20 O -0.05149 -0.00030 0.13778
 O21 O -0.08272 0.17270 -0.16430
 O22 O -0.14810 0.08264 -0.07897
 C23 C -0.13584 0.14802 -0.13969
 O24 O 0.08300 -0.16351 -0.17240
 O25 O 0.14862 -0.07894 -0.08228
 C26 C 0.13619 -0.13906 -0.14774
 O27 O -0.08274 -0.17152 -0.16389
 O28 O -0.14814 -0.08165 -0.07887
 C29 C -0.13591 -0.14672 -0.13946
 O30 O 0.08337 0.16357 -0.17244
 O31 O 0.14909 0.07916 -0.08086
 C32 C 0.13664 0.13948 -0.14693
 Zr33 Zr 0.00028 0.11825 -0.11915
 O34 O -0.00670 0.11648 -0.26870
 O35 O 0.00687 0.26636 -0.12031
 Zr36 Zr 0.00025 -0.11827 -0.11822
 O37 O -0.00663 -0.11731 -0.26778
 O38 O 0.00615 -0.26653 -0.11678
 Zr39 Zr 0.08923 -0.00042 0.00076
 Zr40 Zr -0.08845 0.00005 0.00077
 O41 O -0.05155 0.00020 -0.13597
 O42 O 0.05334 -0.00013 -0.13733
 O43 O -0.05265 0.13663 0.00033
 O44 O 0.05215 -0.13570 0.00142
 O45 O 0.05195 0.13512 0.00054
 O46 O -0.05219 -0.13662 0.00157
 H47 H -0.07843 -0.00063 0.19312
 H48 H 0.07893 -0.19089 0.00104
 H49 H -0.07839 0.00043 -0.19167
 H50 H 0.07855 0.19034 0.00060
 H51 H 0.01201 -0.29153 0.07268
 H52 H -0.02686 -0.29040 -0.07745
 H53 H 0.02627 -0.07868 -0.29260
 H54 H 0.02781 0.08133 -0.29332
 H55 H -0.02537 0.29109 -0.08010
 H56 H -0.02641 0.29065 0.08081
 H57 H 0.02539 0.07158 0.29336
 H58 H -0.00186 -0.16685 0.29658
 O59 O 0.58260 0.66533 0.67177
 O60 O 0.64794 0.58129 0.58071
 C61 C 0.63576 0.64128 0.64649
 O62 O 0.41646 0.32942 0.66172
 O63 O 0.35060 0.42127 0.57777
 C64 C 0.36312 0.35507 0.63785
 O65 O 0.58267 0.33737 0.67204
 O66 O 0.64799 0.42322 0.58212
 C67 C 0.63578 0.36223 0.64743
 O68 O 0.41693 0.67475 0.66245
 O69 O 0.35143 0.58517 0.57716
 C70 C 0.36377 0.65024 0.63769
 Zr71 Zr 0.49969 0.62057 0.61740
 O72 O 0.49416 0.61911 0.76700
 O73 O 0.50620 0.76870 0.61604
 Zr74 Zr 0.49967 0.38454 0.61935
 O75 O 0.49789 0.39986 0.76804
 O76 O 0.50004 0.23668 0.63330
 O77 O 0.55297 0.50231 0.63648
 O78 O 0.44766 0.50256 0.63558
 O79 O 0.41552 0.67294 0.33201
 O80 O 0.35048 0.58182 0.41686
 C81 C 0.36241 0.64738 0.35606
 O82 O 0.58299 0.33776 0.32732
 O83 O 0.64846 0.42196 0.41820
 C84 C 0.63621 0.36169 0.35270
 O85 O 0.41700 0.32909 0.33531
 O86 O 0.35147 0.41923 0.41989
 C87 C 0.36385 0.35374 0.35985
 O88 O 0.58196 0.66475 0.32351
 O89 O 0.64764 0.58021 0.41501
 C90 C 0.63520 0.64026 0.34884
 Zr91 Zr 0.49903 0.62038 0.37814
 O92 O 0.49212 0.62053 0.22863
 O93 O 0.50549 0.76854 0.37898
 Zr94 Zr 0.49974 0.38348 0.38000
 O95 O 0.49301 0.38463 0.23041
 O96 O 0.50562 0.23525 0.38125
 Zr97 Zr 0.58830 0.50195 0.49841
 Zr98 Zr 0.41087 0.50224 0.49855
 O99 O 0.44773 0.50173 0.36177
 O100 O 0.55240 0.50184 0.36034
 O101 O 0.44629 0.63902 0.49763
 O102 O 0.55134 0.36661 0.49987
 O103 O 0.55104 0.63753 0.49759
 O104 O 0.44699 0.36556 0.49966
 H105 H 0.42070 0.50257 0.69088
 H106 H 0.57827 0.31161 0.50002
 H107 H 0.42098 0.50124 0.30597
 H108 H 0.57777 0.69260 0.49727
 H109 H 0.51631 0.21065 0.57412
 H110 H 0.47451 0.21173 0.42457
 H111 H 0.52718 0.42037 0.20551
 H112 H 0.52441 0.58041 0.20411
 H113 H 0.47109 0.79311 0.41452
 H114 H 0.47347 0.79318 0.57611
 H115 H 0.52444 0.57432 0.79069
 H116 H 0.49626 0.33546 0.79454
 C117 C 0.18523 0.18235 0.19645
 C118 C 0.22622 0.22053 0.23508
 C119 C 0.27419 0.26617 0.27933
 C120 C 0.31516 0.30585 0.31642
 C121 C 0.81607 0.80311 0.18282
 C122 C 0.77452 0.76452 0.21946
 C123 C 0.72566 0.72065 0.26308
 C124 C 0.68408 0.68382 0.30143
 C125 C 0.81535 0.19559 0.81607
 C126 C 0.77415 0.23480 0.77842
 C127 C 0.72586 0.27986 0.73366
 C128 C 0.68464 0.31776 0.69471
 C129 C 0.18486 0.81731 0.80450
 C130 C 0.22589 0.78014 0.76507
 C131 C 0.27397 0.73588 0.71979
 C132 C 0.31503 0.69727 0.68187
 C133 C 0.18530 0.18408 0.80559
 C134 C 0.22606 0.22231 0.76611
 C135 C 0.27375 0.26788 0.72049
 C136 C 0.31449 0.30739 0.68227
 C137 C 0.81520 0.80633 0.81605
 C138 C 0.77406 0.76756 0.77811
 C139 C 0.72584 0.72287 0.73299
 C140 C 0.68469 0.68531 0.69386
 C141 C 0.18201 0.81703 0.18997
 C142 C 0.22336 0.77864 0.22862
 C143 C 0.27186 0.73331 0.27334
 C144 C 0.31324 0.69429 0.31119
 C145 C 0.81550 0.19459 0.18504
 C146 C 0.77440 0.23374 0.22264
 C147 C 0.72622 0.27892 0.26729
 C148 C 0.68510 0.31697 0.30596
   
