data_POSCAR
  _audit_creation_date              2014-09-24
  _audit_creation_method            'ToBaCCo'
  _symmetry_space_group_name_H-M    'P1'
  _symmetry_Int_Tables_number       1
  _symmetry_cell_setting            triclinic
  loop_
  _symmetry_equiv_pos_as_xyz
 x,y,z
_cell_length_a 18.4273
_cell_length_b 18.4116
_cell_length_c 31.5425
_cell_angle_alpha 89.832400
_cell_angle_beta 91.356600
_cell_angle_gamma 90.088300
loop_
  _atom_site_label
  _atom_site_type_symbol
  _atom_site_fract_x
  _atom_site_fract_y
  _atom_site_fract_z
C1 C -0.03120 0.72199 1.02063
 C2 C -0.02794 0.72222 0.97724
 C3 C -0.01099 0.65188 0.96524
 N4 N -0.00326 0.60906 0.99995
 C5 C -0.01606 0.65160 1.03383
 C6 C 0.00162 0.62960 0.92316
 C7 C 0.01189 0.55640 0.91111
 C8 C 0.03597 0.53404 0.87184
 C9 C 0.03452 0.45932 0.87193
 C10 C 0.00973 0.43798 0.91123
 N11 N -0.00451 0.49742 0.93472
 C12 C -0.00270 0.36530 0.92353
 C13 C -0.01450 0.34314 0.96570
 C14 C -0.03188 0.27291 0.97786
 C15 C -0.03317 0.27268 1.02128
 C16 C -0.01658 0.34286 1.03433
 N17 N -0.00475 0.38560 1.00026
 C18 C -0.00771 0.36490 1.07706
 C19 C 0.00198 0.43796 1.08979
 C20 C 0.02212 0.46007 1.13046
 C21 C 0.02146 0.53480 1.13032
 C22 C 0.00111 0.55639 1.08958
 N23 N -0.01125 0.49709 1.06524
 C24 C -0.00938 0.62920 1.07661
 H25 H -0.04250 0.76859 1.04024
 H26 H -0.03632 0.76902 0.95687
 H27 H -0.03518 0.49704 1.03514
 H28 H 0.05226 0.56806 0.84568
 H29 H 0.04955 0.42469 0.84590
 H30 H -0.04163 0.22637 0.95761
 H31 H -0.04418 0.22594 1.04102
 H32 H 0.03408 0.56928 1.15724
 H33 H -0.03150 0.49775 0.96322
 H34 H 0.03523 0.42587 1.15754
 C35 C 0.72859 0.03490 0.51805
 C36 C 0.72525 0.03417 0.47459
 C37 C 0.65393 0.01797 0.46292
 N38 N 0.61395 0.00830 0.49789
 C39 C 0.65929 0.01906 0.53162
 C40 C 0.62827 0.00753 0.42074
 C41 C 0.55417 -0.00198 0.40919
 C42 C 0.52864 -0.02373 0.36942
 C43 C 0.45405 -0.02261 0.37046
 C44 C 0.43591 -0.00038 0.41082
 N45 N 0.49719 0.01273 0.43404
 C46 C 0.36427 0.01060 0.42444
 C47 C 0.34550 0.01927 0.46728
 C48 C 0.27620 0.03452 0.48097
 C49 C 0.27968 0.03312 0.52444
 C50 C 0.35101 0.01719 0.53594
 N51 N 0.39095 0.00825 0.50094
 C52 C 0.37672 0.00639 0.57801
 C53 C 0.45064 -0.00316 0.58956
 C54 C 0.47588 -0.02525 0.62933
 C55 C 0.55048 -0.02415 0.62836
 C56 C 0.56881 -0.00154 0.58800
 N57 N 0.50766 0.01180 0.56474
 C58 C 0.64046 0.00969 0.57443
 H59 H 0.77681 0.04495 0.53742
 H60 H 0.77039 0.04364 0.45392
 H61 H 0.50513 0.03725 0.53536
 H62 H 0.56048 -0.03833 0.34234
 H63 H 0.41737 -0.03628 0.34437
 H64 H 0.22788 0.04458 0.46167
 H65 H 0.23461 0.04201 0.54519
 H66 H 0.58705 -0.03806 0.65448
 H67 H 0.49985 0.03786 0.46343
 H68 H 0.44388 -0.04009 0.65637
 C69 C 0.13794 0.00458 0.26967
 H70 H 0.14304 0.00422 0.23558
 C71 C 0.20013 0.00690 0.29593
 H72 H 0.25338 0.00808 0.28212
 C73 C 0.06249 0.00417 0.32956
 H74 H 0.00894 0.00431 0.34267
 C75 C 0.12310 0.00658 0.35687
 H76 H 0.11591 0.00770 0.39086
 N77 N 0.07083 0.00201 0.28681
 C78 C -0.07083 -0.10055 0.19140
 H79 H -0.11540 -0.06235 0.19081
 C80 C -0.07262 -0.16057 0.16445
 H81 H -0.11862 -0.16869 0.14295
 C82 C 0.04441 -0.13593 0.21942
 H83 H 0.08979 -0.12637 0.24095
 C84 C 0.04476 -0.19672 0.19299
 H85 H 0.09073 -0.23335 0.19396
 Zn86 Zn -0.01185 -0.00188 0.24989
 N87 N -0.01210 -0.08836 0.21739
 C88 C -0.00734 0.07075 0.17069
 N89 N -0.00857 0.08015 0.21346
 C90 C -0.00582 0.14775 0.23086
 C91 C -0.00450 0.20936 0.20483
 C92 C -0.00598 0.13071 0.14362
 C93 C -0.10961 -0.05938 0.30754
 C94 C -0.16920 -0.06036 0.33406
 C95 C -0.20567 0.05632 0.30555
 C96 C -0.14533 0.05517 0.27955
 N97 N -0.09775 -0.00132 0.28180
 H98 H -0.00729 0.01685 0.15737
 H99 H -0.00545 0.15370 0.26498
 H100 H -0.00335 0.26302 0.21883
 H101 H -0.00580 0.12266 0.10960
 H102 H -0.07144 -0.10398 0.30830
 H103 H -0.17694 -0.10573 0.35544
 H104 H -0.24217 0.10240 0.30450
 H105 H -0.13609 0.09997 0.25820
 C106 C -0.01384 -0.20851 0.16486
 C107 C 0.19248 0.00747 0.33994
 C108 C -0.21706 -0.00150 0.33346
 C109 C -0.00511 0.20058 0.16080
 C110 C 0.00794 0.14505 0.76909
 H111 H 0.00842 0.15096 0.73496
 C112 C 0.00518 0.20667 0.79484
 H113 H 0.00381 0.26028 0.78062
 C114 C 0.00815 0.06812 0.82954
 H115 H 0.00798 0.01424 0.84307
 C116 C 0.00532 0.12810 0.85634
 H117 H 0.00386 0.12007 0.89036
 N118 N 0.01054 0.07749 0.78678
 C119 C 0.11250 -0.06217 0.69370
 H120 H 0.07437 -0.10692 0.69315
 C121 C 0.17198 -0.06293 0.66711
 H122 H 0.17975 -0.10833 0.64592
 C123 C 0.14798 0.05272 0.72107
 H124 H 0.13860 0.09762 0.74216
 C125 C 0.20822 0.05410 0.69499
 H126 H 0.24456 0.10041 0.69574
 Zn127 Zn 0.01423 -0.00450 0.75064
 N128 N 0.10054 -0.00402 0.71913
 C129 C -0.05875 0.00181 0.67054
 N130 N -0.06779 -0.00033 0.71324
 C131 C -0.13515 0.00257 0.73001
 C132 C -0.19691 0.00519 0.70342
 C133 C -0.11892 0.00450 0.64291
 C134 C 0.07119 -0.10358 0.80997
 C135 C 0.07164 -0.16361 0.83714
 C136 C -0.04518 -0.19913 0.80748
 C137 C -0.04350 -0.13838 0.78087
 N138 N 0.01331 -0.09107 0.78335
 H139 H -0.00500 0.00171 0.65771
 H140 H -0.14079 0.00225 0.76407
 H141 H -0.25038 0.00663 0.71694
 H142 H -0.11119 0.00560 0.60896
 H143 H 0.11604 -0.06559 0.81091
 H144 H 0.11690 -0.17194 0.85915
 H145 H -0.09146 -0.23548 0.80616
 H146 H -0.08815 -0.12861 0.75885
 C147 C 0.21961 -0.00375 0.66731
 C148 C 0.00424 0.19793 0.83888
 C149 C 0.01244 -0.21121 0.83627
 C150 C -0.18856 0.00572 0.65947
 C151 C -0.01089 -0.31513 0.10898
 C152 C -0.01226 -0.26737 0.13501
 C153 C -0.00638 0.31161 0.10752
 C154 C -0.00550 0.26234 0.13279
 C155 C 0.32339 0.00254 0.61099
 C156 C 0.27714 -0.00052 0.63733
 C157 C -0.30109 0.00848 0.60598
 C158 C -0.25073 0.00737 0.63106
 C159 C 0.00580 -0.31759 0.89255
 C160 C 0.00914 -0.26990 0.86637
 C161 C -0.00013 0.30908 0.89155
 C162 C 0.00186 0.25972 0.86659
 C163 C -0.32118 0.00423 0.38958
 C164 C -0.27483 0.00144 0.36328
 C165 C 0.30569 0.00968 0.39296
 C166 C 0.25508 0.00881 0.36804
   
