data_POSCAR
  _audit_creation_date              2014-09-24
  _audit_creation_method            'ToBaCCo'
  _symmetry_space_group_name_H-M    'P1'
  _symmetry_Int_Tables_number       1
  _symmetry_cell_setting            triclinic
  loop_
  _symmetry_equiv_pos_as_xyz
 x,y,z
_cell_length_a 34.7480
_cell_length_b 36.2052
_cell_length_c 34.6453
_cell_angle_alpha 88.701800
_cell_angle_beta 90.509200
_cell_angle_gamma 92.675600
loop_
  _atom_site_label
  _atom_site_type_symbol
  _atom_site_fract_x
  _atom_site_fract_y
  _atom_site_fract_z
N1 N 0.13831 0.23088 0.25021
 N2 N 0.14042 0.19542 0.25848
 C3 C 0.11120 0.18448 0.28183
 C4 C 0.08991 0.21474 0.28900
 C5 C 0.10781 0.24387 0.26848
 H6 H 0.10743 0.15734 0.29533
 H7 H 0.10092 0.27269 0.26899
 Cu8 Cu 0.18563 0.16957 0.24456
 Cu9 Cu 0.17894 0.25764 0.22082
 Cu10 Cu 0.24232 0.20156 0.17346
 N11 N 0.23072 0.14380 0.23067
 N12 N 0.25409 0.15615 0.20311
 C13 C 0.28296 0.13247 0.20010
 C14 C 0.27687 0.10420 0.22753
 C15 C 0.24370 0.11252 0.24618
 H16 H 0.30617 0.13540 0.17951
 H17 H 0.23011 0.09671 0.26960
 N18 N 0.23285 0.25332 0.15680
 N19 N 0.21041 0.27474 0.17621
 C20 C 0.20725 0.30699 0.15671
 C21 C 0.22803 0.30578 0.12315
 C22 C 0.24409 0.27145 0.12405
 H23 H 0.18834 0.32845 0.16459
 H24 H 0.26074 0.25980 0.10149
 H25 H 0.18543 0.21128 0.18917
 H26 H 0.22578 0.22301 0.22324
 N27 N 0.63058 0.74228 0.74946
 N28 N 0.63955 0.70901 0.76147
 C29 C 0.61498 0.69736 0.78955
 C30 C 0.58978 0.72500 0.79561
 C31 C 0.60048 0.75313 0.76985
 H32 H 0.61566 0.67106 0.80490
 H33 H 0.58713 0.77937 0.76601
 Cu34 Cu 0.68304 0.68445 0.74012
 Cu35 Cu 0.65737 0.76857 0.70741
 Cu36 Cu 0.73138 0.72384 0.66503
 N37 N 0.72470 0.65978 0.71541
 N38 N 0.74214 0.67478 0.68498
 C39 C 0.76840 0.65177 0.67248
 C40 C 0.76786 0.62101 0.69669
 C41 C 0.73994 0.62690 0.72378
 H42 H 0.78728 0.65738 0.64819
 H43 H 0.73128 0.60852 0.74750
 N44 N 0.71654 0.77363 0.64878
 N45 N 0.68789 0.79057 0.66440
 C46 C 0.68297 0.82272 0.64492
 C47 C 0.71005 0.82614 0.61599
 C48 C 0.73091 0.79469 0.61936
 H49 H 0.66054 0.84161 0.65038
 H50 H 0.75363 0.78693 0.60048
 H51 H 0.67394 0.72132 0.68126
 H52 H 0.70923 0.74398 0.71537
 N53 N 0.36561 0.79696 0.74004
 N54 N 0.34587 0.81977 0.76020
 C55 C 0.36554 0.82833 0.79265
 C56 C 0.39904 0.80932 0.79316
 C57 C 0.39826 0.78957 0.75943
 H58 H 0.35549 0.84583 0.81499
 H59 H 0.41940 0.77073 0.75013
 Cu60 Cu 0.29486 0.83369 0.74412
 Cu61 Cu 0.34568 0.77716 0.69158
 Cu62 Cu 0.26147 0.81290 0.65559
 N63 N 0.25306 0.85969 0.72028
 N64 N 0.24092 0.85273 0.68501
 C65 C 0.21197 0.87492 0.67593
 C66 C 0.20554 0.89653 0.70748
 C67 C 0.23214 0.88623 0.73506
 H68 H 0.19600 0.87451 0.64898
 H69 H 0.23596 0.89707 0.76374
 N70 N 0.29164 0.77791 0.62670
 N71 N 0.32461 0.76565 0.63989
 C72 C 0.33794 0.74183 0.61455
 C73 C 0.31187 0.73831 0.58444
 C74 C 0.28276 0.76148 0.59296
 H75 H 0.36344 0.72618 0.61883
 H76 H 0.25651 0.76500 0.57658
 H77 H 0.31541 0.82371 0.67863
 H78 H 0.28739 0.78264 0.69854
 N79 N 0.86153 0.28227 0.24897
 N80 N 0.84518 0.30674 0.27008
 C81 C 0.86082 0.30677 0.30553
 C82 C 0.88978 0.28209 0.30655
 C83 C 0.88979 0.26689 0.27008
 H84 H 0.85320 0.32507 0.32822
 H85 H 0.90855 0.24627 0.25981
 Cu86 Cu 0.80925 0.34047 0.24846
 Cu87 Cu 0.84280 0.27303 0.19626
 Cu88 Cu 0.75654 0.31503 0.17227
 N89 N 0.76312 0.36508 0.23496
 N90 N 0.74228 0.35563 0.20465
 C91 C 0.71143 0.37689 0.20252
 C92 C 0.71330 0.40040 0.23353
 C93 C 0.74634 0.39212 0.25347
 H94 H 0.68894 0.37477 0.18079
 H95 H 0.75708 0.40454 0.27980
 N96 N 0.77657 0.27377 0.14346
 N97 N 0.80935 0.25813 0.15194
 C98 C 0.81398 0.23032 0.12735
 C99 C 0.78263 0.22861 0.10246
 C100 C 0.75966 0.25645 0.11341
 H101 H 0.83782 0.21214 0.12808
 H102 H 0.73228 0.26314 0.10064
 H103 H 0.81473 0.32086 0.18123
 H104 H 0.78892 0.28617 0.21317
 N105 N 0.84847 0.71046 0.28143
 N106 N 0.83910 0.67921 0.26396
 C107 C 0.86898 0.67010 0.24203
 C108 C 0.89868 0.69639 0.24696
 C109 C 0.88481 0.72136 0.27219
 H110 H 0.86890 0.64658 0.22332
 H111 H 0.89950 0.74663 0.28155
 Cu112 Cu 0.78815 0.65298 0.26997
 Cu113 Cu 0.81240 0.73714 0.31273
 Cu114 Cu 0.72467 0.69634 0.32261
 N115 N 0.73314 0.63878 0.26919
 N116 N 0.70794 0.65724 0.28815
 C117 C 0.67270 0.64071 0.28394
 C118 C 0.67614 0.60985 0.26192
 C119 C 0.71487 0.60929 0.25302
 H120 H 0.64693 0.64878 0.29819
 H121 H 0.72888 0.58834 0.23722
 N122 N 0.74285 0.73541 0.35643
 N123 N 0.77716 0.75182 0.35226
 C124 C 0.78179 0.77879 0.37829
 C125 C 0.74869 0.77872 0.40010
 C126 C 0.72470 0.75088 0.38563
 H127 H 0.80722 0.79695 0.38110
 H128 H 0.69594 0.74295 0.39536
 H129 H 0.79297 0.68364 0.32050
 H130 H 0.77568 0.70661 0.27526
 N131 N 0.35085 0.21590 -0.23729
 N132 N 0.33631 0.18663 -0.25509
 C133 C 0.35762 0.18034 -0.28611
 C134 C 0.38739 0.20684 -0.28809
 C135 C 0.38243 0.22918 -0.25659
 H136 H 0.35203 0.15780 -0.30567
 H137 H 0.40001 0.25330 -0.24859
 Cu138 Cu 0.29132 0.15788 -0.23686
 Cu139 Cu 0.32548 0.23391 -0.19121
 Cu140 Cu 0.27908 0.16072 -0.14184
 N141 N 0.25773 0.12163 -0.21004
 N142 N 0.25439 0.12184 -0.17230
 C143 C 0.23038 0.09358 -0.16083
 C144 C 0.21757 0.07505 -0.19325
 C145 C 0.23552 0.09348 -0.22406
 H146 H 0.22164 0.08794 -0.13130
 H147 H 0.23231 0.08720 -0.25433
 N148 N 0.28908 0.20975 -0.11938
 N149 N 0.30507 0.23851 -0.13835
 C150 C 0.29858 0.26948 -0.11877
 C151 C 0.27717 0.25937 -0.08630
 C152 C 0.27212 0.22149 -0.08755
 H153 H 0.30534 0.29734 -0.12936
 H154 H 0.25372 0.20418 -0.06889
 H155 H 0.32347 0.18031 -0.17839
 H156 H 0.27489 0.19956 -0.18667
 N157 N 0.66624 0.24769 -0.24466
 N158 N 0.66881 0.27873 -0.26552
 C159 C 0.63945 0.27862 -0.29131
 C160 C 0.61773 0.24582 -0.28648
 C161 C 0.63558 0.22691 -0.25686
 H162 H 0.63398 0.30091 -0.31164
 H163 H 0.62649 0.20016 -0.24476
 Cu164 Cu 0.70908 0.31829 -0.25654
 Cu165 Cu 0.70248 0.23569 -0.20260
 Cu166 Cu 0.76568 0.30418 -0.17929
 N167 N 0.74227 0.35813 -0.23513
 N168 N 0.76258 0.35272 -0.20346
 C169 C 0.78195 0.38431 -0.19436
 C170 C 0.77435 0.41076 -0.22220
 C171 C 0.74919 0.39332 -0.24800
 H172 H 0.80189 0.38749 -0.17040
 H173 H 0.73727 0.40511 -0.27420
 N174 N 0.76831 0.25542 -0.15551
 N175 N 0.74196 0.22924 -0.16285
 C176 C 0.74789 0.19976 -0.13945
 C177 C 0.78002 0.20794 -0.11680
 C178 C 0.79233 0.24332 -0.12782
 H179 H 0.73001 0.17449 -0.13864
 H180 H 0.81593 0.25955 -0.11517
 H181 H 0.70055 0.29343 -0.20315
 H182 H 0.73657 0.27215 -0.23445
 N183 N 0.17609 0.73160 0.21639
 N184 N 0.18608 0.76131 0.19570
 C185 C 0.15795 0.76829 0.17013
 C186 C 0.12868 0.74156 0.17501
 C187 C 0.14108 0.71847 0.20453
 H188 H 0.15808 0.79196 0.15048
 H189 H 0.12522 0.69503 0.21754
 Cu190 Cu 0.23345 0.78994 0.20568
 Cu191 Cu 0.20923 0.71474 0.25833
 Cu192 Cu 0.26491 0.78734 0.29747
 N193 N 0.27120 0.82610 0.22444
 N194 N 0.28346 0.82596 0.26048
 C195 C 0.30668 0.85645 0.26587
 C196 C 0.30855 0.87651 0.23121
 C197 C 0.28592 0.85626 0.20569
 H198 H 0.31966 0.86421 0.29319
 H199 H 0.27916 0.86384 0.17609
 N200 N 0.25337 0.73958 0.32551
 N201 N 0.23367 0.71176 0.30942
 C202 C 0.23321 0.68221 0.33350
 C203 C 0.25321 0.69171 0.36656
 C204 C 0.26559 0.72833 0.36083
 H205 H 0.21937 0.65559 0.32738
 H206 H 0.28345 0.74491 0.38014
 H207 H 0.21418 0.76898 0.27024
 H208 H 0.26018 0.74924 0.25514
 N209 N 0.49276 0.39766 0.51463
 N210 N 0.47910 0.41791 0.54192
 C211 C 0.48105 0.39960 0.57602
 C212 C 0.49643 0.36583 0.56979
 C213 C 0.50359 0.36541 0.53049
 H214 H 0.46974 0.40907 0.60286
 H215 H 0.51412 0.34274 0.51441
 Cu216 Cu 0.45456 0.46353 0.52978
 Cu217 Cu 0.49146 0.41372 0.46025
 Cu218 Cu 0.46919 0.50540 0.44408
 N219 N 0.42057 0.50065 0.51039
 N220 N 0.42687 0.51822 0.47726
 C221 C 0.39917 0.54258 0.47117
 C222 C 0.37406 0.53945 0.50197
 C223 C 0.38848 0.51268 0.52630
 H224 H 0.39691 0.56038 0.44583
 H225 H 0.37646 0.50259 0.55345
 N226 N 0.49616 0.47677 0.40612
 N227 N 0.50190 0.44112 0.41092
 C228 C 0.51783 0.42877 0.37859
 C229 C 0.52280 0.45822 0.35274
 C230 C 0.50902 0.48825 0.37114
 H231 H 0.52636 0.40077 0.37459
 H232 H 0.50761 0.51617 0.35959
 H233 H 0.50090 0.46679 0.47689
 H234 H 0.45100 0.45386 0.46040
 N235 N -0.04236 -0.13847 1.00964
 N236 N -0.06799 -0.12293 1.03089
 C237 C -0.07836 -0.14626 1.06018
 C238 C -0.05801 -0.17793 1.05718
 C239 C -0.03544 -0.17215 1.02474
 H240 H -0.09740 -0.13985 1.08337
 H241 H -0.01391 -0.19003 1.01433
 Cu242 Cu -0.08145 -0.07197 1.02126
 Cu243 Cu -0.01602 -0.11160 0.96754
 Cu244 Cu -0.05614 -0.02924 0.93801
 N245 N -0.09095 -0.02000 1.01171
 N246 N -0.08231 -0.00370 0.97840
 C247 C -0.09626 0.03041 0.97741
 C248 C -0.11406 0.03585 1.01224
 C249 C -0.11000 0.00345 1.03338
 H250 H -0.09471 0.04928 0.95275
 H251 H -0.12212 -0.00325 1.06145
 N252 N -0.01695 -0.05362 0.90803
 N253 N -0.00212 -0.08514 0.91901
 C254 C 0.02416 -0.09420 0.89295
 C255 C 0.02647 -0.06672 0.86474
 C256 C 0.00015 -0.04136 0.87511
 H257 H 0.04134 -0.11832 0.89499
 H258 H -0.00557 -0.01560 0.86021
 H259 H -0.02656 -0.05644 0.97975
 H260 H -0.06467 -0.08517 0.95471
 N261 N 1.01464 0.59940 0.98184
 N262 N 1.04134 0.58503 1.00390
 C263 C 1.03941 0.59943 1.03947
 C264 C 1.00919 0.62318 1.03937
 C265 C 0.99413 0.62229 1.00252
 H266 H 1.05723 0.59184 1.06388
 H267 H 0.96988 0.63714 0.99157
 Cu268 Cu 1.07320 0.54626 0.98399
 Cu269 Cu 1.00841 0.58742 0.92801
 Cu270 Cu 1.02702 0.50076 0.90753
 N271 N 1.08793 0.49722 0.96628
 N272 N 1.06935 0.47959 0.93821
 C273 C 1.08556 0.44705 0.93298
 C274 C 1.11578 0.44400 0.95881
 C275 C 1.11657 0.47628 0.97956
 H276 H 1.07667 0.42731 0.91130
 H277 H 1.13649 0.48396 1.00248
 N278 N 0.99640 0.53128 0.87274
 N279 N 0.99044 0.56594 0.88032
 C280 C 0.96693 0.57999 0.85330
 C281 C 0.95719 0.55252 0.82756
 C282 C 0.97638 0.52188 0.84064
 H283 H 0.95566 0.60732 0.85383
 H284 H 0.97467 0.49450 0.82868
 H285 H 1.02365 0.52883 0.95911
 H286 H 1.06127 0.54543 0.92404
 N287 N 0.51856 0.09505 0.49508
 N288 N 0.55497 0.09799 0.50580
 C289 C 0.56031 0.12760 0.52863
 C290 C 0.52530 0.14409 0.53157
 C291 C 0.49962 0.12273 0.51008
 H292 H 0.58773 0.13735 0.54051
 H293 H 0.46950 0.12754 0.50488
 Cu294 Cu 0.59146 0.06412 0.48553
 Cu295 Cu 0.49869 0.05730 0.45992
 Cu296 Cu 0.56853 0.03445 0.39631
 N297 N 0.62430 0.03137 0.45834
 N298 N 0.61628 0.02183 0.42261
 C299 C 0.64149 -0.00277 0.41150
 C300 C 0.66589 -0.00988 0.44213
 C301 C 0.65442 0.01240 0.47146
 H302 H 0.63964 -0.01730 0.38455
 H303 H 0.66525 0.01278 0.50082
 N304 N 0.51304 0.03000 0.38376
 N305 N 0.48655 0.03533 0.40986
 C306 C 0.45161 0.02617 0.39512
 C307 C 0.45624 0.01498 0.35771
 C308 C 0.49552 0.01788 0.35119
 H309 H 0.42471 0.02859 0.41013
 H310 H 0.51029 0.01071 0.32525
 H311 H 0.54582 0.02484 0.44924
 H312 H 0.54666 0.07402 0.43184
 N313 N -0.04235 0.12544 0.54296
 N314 N -0.06444 0.11419 0.51411
 C315 C -0.06092 0.13918 0.48468
 C316 C -0.03500 0.16721 0.49604
 C317 C -0.02402 0.15764 0.53309
 H318 H -0.07498 0.13647 0.45685
 H319 H -0.00300 0.17226 0.55103
 Cu320 Cu -0.09356 0.06661 0.51777
 Cu321 Cu -0.03611 0.09600 0.58969
 Cu322 Cu -0.04477 0.00491 0.57627
 N323 N -0.10505 0.01285 0.51784
 N324 N -0.08490 -0.01065 0.53852
 C325 C -0.10038 -0.04505 0.53400
 C326 C -0.13202 -0.04298 0.50988
 C327 C -0.13424 -0.00592 0.50005
 H328 H -0.09121 -0.06940 0.54953
 H329 H -0.15631 0.00662 0.48264
 N330 N -0.01866 0.02553 0.62146
 N331 N -0.01631 0.06133 0.62718
 C332 C 0.00567 0.06826 0.65851
 C333 C 0.01795 0.03500 0.67306
 C334 C 0.00194 0.00834 0.64900
 H335 H 0.01430 0.09559 0.66833
 H336 H 0.00663 -0.02100 0.65012
 H337 H -0.04321 0.05055 0.53899
 H338 H -0.08316 0.04635 0.57476
 N339 N 0.45681 0.60904 0.00603
 N340 N 0.41977 0.60685 -0.00211
 C341 C 0.40983 0.63806 -0.02055
 C342 C 0.44252 0.66091 -0.02457
 C343 C 0.47194 0.64168 -0.00750
 H344 H 0.38149 0.64284 -0.03227
 H345 H 0.50220 0.65008 -0.00635
 Cu346 Cu 0.38921 0.56166 0.00725
 Cu347 Cu 0.48240 0.56764 0.03047
 Cu348 Cu 0.42048 0.49987 0.07185
 N349 N 0.36770 0.51141 0.00919
 N350 N 0.37811 0.48755 0.03605
 C351 C 0.35676 0.45578 0.03215
 C352 C 0.33252 0.46004 0.00060
 C353 C 0.34022 0.49555 -0.01328
 H354 H 0.35924 0.43132 0.05035
 H355 H 0.32626 0.50914 -0.03738
 N356 N 0.47443 0.50814 0.08860
 N357 N 0.49856 0.53187 0.07063
 C358 C 0.53361 0.53002 0.08709
 C359 C 0.53128 0.50439 0.11714
 C360 C 0.49336 0.49105 0.11752
 H361 H 0.55857 0.54741 0.07912
 H362 H 0.48055 0.47048 0.13722
 H363 H 0.44317 0.52330 0.02366
 H364 H 0.43382 0.55705 0.06190
 N365 N 0.53928 -0.09911 0.02603
 N366 N 0.57561 -0.09652 0.01565
 C367 C 0.58257 -0.12360 -0.00879
 C368 C 0.54878 -0.14423 -0.01446
 C369 C 0.52167 -0.12807 0.00806
 H370 H 0.60975 -0.12684 -0.02304
 H371 H 0.49141 -0.13615 0.01041
 Cu372 Cu 0.60947 -0.05548 0.03031
 Cu373 Cu 0.51863 -0.06371 0.06155
 Cu374 Cu 0.57568 0.01614 0.07722
 N375 N 0.63650 -0.00779 0.02956
 N376 N 0.62415 0.02021 0.04871
 C377 C 0.64865 0.04976 0.04281
 C378 C 0.67722 0.03952 0.01811
 C379 C 0.66859 0.00296 0.01026
 H380 H 0.64534 0.07684 0.05456
 H381 H 0.68439 -0.01451 -0.00827
 N382 N 0.52542 0.00595 0.10262
 N383 N 0.50387 -0.02449 0.09670
 C384 C 0.47263 -0.02438 0.11936
 C385 C 0.47445 0.00768 0.14032
 C386 C 0.50816 0.02638 0.12896
 H387 H 0.45048 -0.04634 0.12111
 H388 H 0.51975 0.05235 0.13995
 H389 H 0.55240 -0.02062 0.03787
 H390 H 0.56958 -0.04095 0.08472
 N391 N 1.02747 0.41856 0.49246
 N392 N 1.05924 0.43240 0.47636
 C393 C 1.06964 0.40960 0.44829
 C394 C 1.04262 0.38030 0.44691
 C395 C 1.01636 0.38699 0.47521
 H396 H 1.09495 0.41374 0.43049
 H397 H 0.99142 0.36967 0.48326
 Cu398 Cu 1.08334 0.47845 0.49505
 Cu399 Cu 1.00336 0.44083 0.53592
 Cu400 Cu 1.04493 0.52311 0.56890
 N401 N 1.10630 0.52504 0.51342
 N402 N 1.09147 0.54204 0.54259
 C403 C 1.11417 0.57204 0.55097
 C404 C 1.14465 0.57399 0.52559
 C405 C 1.13876 0.54386 0.50210
 H406 H 1.10942 0.59053 0.57436
 H407 H 1.15751 0.53561 0.47942
 N408 N 0.99782 0.49914 0.59155
 N409 N 0.98288 0.46720 0.57950
 C410 C 0.95243 0.45681 0.60154
 C411 C 0.94767 0.48358 0.62842
 C412 C 0.97675 0.51018 0.62136
 H413 H 0.93478 0.43166 0.59832
 H414 H 0.98249 0.53523 0.63725
 H415 H 1.02231 0.49477 0.52262
 H416 H 1.05240 0.46842 0.55757
 C417 C 0.37147 0.00188 0.24052
 C418 C 0.11633 -0.01742 0.76242
 C419 C 0.60615 0.48844 0.23873
 C420 C 0.85553 0.51924 0.72983
 C421 C 0.22623 0.36325 -0.00980
 C422 C 0.78862 0.13069 0.00271
 C423 C 0.27362 0.63389 0.49773
 C424 C 0.74397 0.88482 0.48992
 C425 C 0.00249 0.25892 0.39062
 C426 C -0.01050 0.71795 0.13901
 C427 C 0.50152 0.23898 0.62987
 C428 C 0.49348 0.76463 0.89070
 N429 N 0.03007 0.20069 0.37081
 N430 N 0.05248 0.18790 0.34403
 C431 C 0.06073 0.21621 0.31917
 C432 C 0.04223 0.24674 0.33124
 N433 N 0.02376 0.23608 0.36405
 H434 H 0.04354 0.27433 0.31848
 N435 N 0.51951 0.70590 0.86833
 N436 N 0.54516 0.69454 0.84371
 C437 C 0.55897 0.72486 0.82425
 C438 C 0.54100 0.75514 0.83756
 N439 N 0.51673 0.74226 0.86537
 H440 H 0.54608 0.78390 0.82907
 N441 N 0.45550 0.82005 0.87865
 N442 N 0.42975 0.83237 0.85369
 C443 C 0.42726 0.80802 0.82486
 C444 C 0.45220 0.78036 0.83293
 N445 N 0.46967 0.78897 0.86668
 H446 H 0.45546 0.75522 0.81719
 N447 N -0.06122 0.28484 0.39425
 N448 N -0.09158 0.29172 0.37257
 C449 C -0.08558 0.27707 0.33789
 C450 C -0.05047 0.26061 0.33901
 N451 N -0.03581 0.26672 0.37471
 H452 H -0.03624 0.24757 0.31563
 N453 N -0.01013 0.72575 0.20948
 N454 N -0.03405 0.72118 0.23892
 C455 C -0.06468 0.70066 0.22623
 C456 C -0.05873 0.69270 0.18811
 N457 N -0.02417 0.70880 0.17850
 H458 H -0.07975 0.68065 0.16832
 N459 N 0.44442 0.19589 0.63136
 N460 N 0.41419 0.18644 0.65283
 C461 C 0.41521 0.20913 0.68309
 C462 C 0.44743 0.23295 0.67956
 N463 N 0.46483 0.22390 0.64650
 H464 H 0.45763 0.25395 0.69941
 N465 N 0.53450 0.20024 0.67814
 N466 N 0.56523 0.20131 0.70104
 C467 C 0.58427 0.23403 0.69398
 C468 C 0.56429 0.25302 0.66582
 N469 N 0.53325 0.23101 0.65681
 H470 H 0.57121 0.28029 0.65364
 N471 N 0.04370 0.76243 0.12302
 N472 N 0.08042 0.76922 0.13168
 C473 C 0.09090 0.74171 0.15575
 C474 C 0.05941 0.71752 0.16136
 N475 N 0.03029 0.73160 0.14050
 H476 H 0.05733 0.69307 0.17992
 N477 N 0.30987 0.01955 0.26548
 N478 N 0.28449 0.04541 0.26273
 C479 C 0.29819 0.07095 0.23697
 C480 C 0.33329 0.05975 0.22371
 N481 N 0.33974 0.02747 0.24281
 H482 H 0.35171 0.07358 0.20239
 N483 N 0.83528 0.55475 0.67178
 N484 N 0.81263 0.58194 0.66218
 C485 C 0.79317 0.58981 0.69419
 C486 C 0.80451 0.56653 0.72380
 N487 N 0.83110 0.54517 0.70870
 H488 H 0.79613 0.56658 0.75382
 N489 N 0.83417 0.49107 0.79214
 N490 N 0.81233 0.46300 0.80582
 C491 C 0.79397 0.44752 0.77541
 C492 C 0.80494 0.46737 0.74247
 N493 N 0.83099 0.49381 0.75406
 H494 H 0.79749 0.46112 0.71286
 N495 N 0.33763 -0.03710 0.19297
 N496 N 0.32050 -0.07023 0.18945
 C497 C 0.32570 -0.08862 0.22318
 C498 C 0.34722 -0.06580 0.24747
 N499 N 0.35418 -0.03373 0.22739
 H500 H 0.35553 -0.07160 0.27705
 N501 N 0.12928 -0.04448 0.69858
 N502 N 0.15265 -0.06791 0.68317
 C503 C 0.17721 -0.07794 0.71141
 C504 C 0.16827 -0.05990 0.74454
 N505 N 0.13803 -0.03939 0.73547
 H506 H 0.18148 -0.06226 0.77285
 N507 N 0.65833 0.46627 0.28002
 N508 N 0.68677 0.44328 0.27989
 C509 C 0.68597 0.42758 0.24503
 C510 C 0.65615 0.44161 0.22363
 N511 N 0.63991 0.46623 0.24636
 H512 H 0.64713 0.43437 0.19469
 N513 N 0.59026 0.55317 0.25131
 N514 N 0.60780 0.58597 0.25672
 C515 C 0.64594 0.58101 0.25511
 C516 C 0.65127 0.54429 0.24881
 N517 N 0.61585 0.52746 0.24764
 H518 H 0.67837 0.53119 0.24549
 N519 N 0.14522 0.00396 0.82434
 N520 N 0.17202 0.02806 0.83699
 C521 C 0.18842 0.04444 0.80551
 C522 C 0.17099 0.02960 0.77316
 N523 N 0.14389 0.00465 0.78609
 H524 H 0.17645 0.03698 0.74318
 N525 N 0.20842 0.37908 0.05673
 N526 N 0.20896 0.36501 0.09235
 C527 C 0.22620 0.33251 0.09070
 C528 C 0.23632 0.32713 0.05299
 N529 N 0.22418 0.35656 0.03241
 H530 H 0.24997 0.30348 0.04159
 N531 N 0.69578 0.89381 0.54173
 N532 N 0.68593 0.87844 0.57558
 C533 C 0.71295 0.85409 0.58463
 C534 C 0.73972 0.85538 0.55567
 N535 N 0.72823 0.88048 0.52929
 H536 H 0.76331 0.83727 0.55232
 N537 N 0.70755 0.82663 0.47659
 N538 N 0.70749 0.79844 0.45300
 C539 C 0.73946 0.80315 0.43146
 C540 C 0.75924 0.83517 0.44250
 N541 N 0.73853 0.84884 0.47116
 H542 H 0.78507 0.84805 0.42991
 N543 N 0.21012 0.29804 -0.02366
 N544 N 0.22304 0.27003 -0.04276
 C545 C 0.25510 0.28270 -0.06123
 C546 C 0.26155 0.31963 -0.05286
 N547 N 0.23283 0.32811 -0.02898
 H548 H 0.28494 0.33814 -0.06275
 N549 N 0.83180 0.17163 -0.03671
 N550 N 0.83024 0.19333 -0.06794
 C551 C 0.79569 0.18602 -0.08471
 C552 C 0.77611 0.15919 -0.06285
 N553 N 0.79975 0.15054 -0.03326
 H554 H 0.74634 0.14949 -0.06614
 N555 N 0.26480 0.61495 0.43044
 N556 N 0.25870 0.62922 0.39561
 C557 C 0.26109 0.66622 0.39891
 C558 C 0.26885 0.67432 0.43707
 N559 N 0.27110 0.64140 0.45586
 H560 H 0.27072 0.70124 0.45009
 N561 N 0.33253 0.66352 0.52520
 N562 N 0.34394 0.69085 0.54787
 C563 C 0.31286 0.71055 0.55425
 C564 C 0.28199 0.69469 0.53416
 N565 N 0.29524 0.66464 0.51702
 H566 H 0.25247 0.70291 0.53428
 N567 N 0.74362 0.17602 0.02476
 N568 N 0.74130 0.20261 0.05008
 C569 C 0.77374 0.20238 0.07159
 C570 C 0.79611 0.17477 0.05870
 N571 N 0.77594 0.15840 0.02977
 H572 H 0.82476 0.16835 0.06841
 N573 N 0.48898 0.30260 0.64989
 N574 N 0.48768 0.33663 0.63517
 C575 C 0.49835 0.33504 0.59798
 C576 C 0.50648 0.29913 0.59045
 N577 N 0.49960 0.27937 0.62339
 H578 H 0.51559 0.28855 0.56324
 N579 N -0.05978 0.76521 0.14209
 N580 N -0.07330 0.79273 0.12100
 C581 C -0.05564 0.79237 0.08657
 C582 C -0.03118 0.76342 0.08701
 N583 N -0.03414 0.74738 0.12244
 H584 H -0.01131 0.75619 0.06481
 N585 N -0.04896 0.67166 0.10261
 N586 N -0.04493 0.64636 0.07619
 C587 C -0.00683 0.64332 0.07129
 C588 C 0.01248 0.66790 0.09533
 N589 N -0.01494 0.68517 0.11457
 H590 H 0.04313 0.67465 0.09610
 N591 N 0.48255 0.22464 0.56338
 N592 N 0.48755 0.19961 0.53698
 C593 C 0.51621 0.17875 0.54981
 C594 C 0.52890 0.19192 0.58508
 N595 N 0.50702 0.22080 0.59263
 H596 H 0.54919 0.17946 0.60471
 N597 N 0.01807 0.24631 0.45927
 N598 N 0.00867 0.22266 0.48764
 C599 C -0.01873 0.19896 0.47362
 C600 C -0.02597 0.20879 0.43561
 N601 N -0.00242 0.23866 0.42778
 H602 H -0.04562 0.19526 0.41542
 N603 N 0.43008 0.73783 0.91187
 N604 N 0.41559 0.71067 0.93435
 C605 C 0.44565 0.69535 0.95237
 C606 C 0.47903 0.71416 0.94060
 N607 N 0.46815 0.74015 0.91483
 H608 H 0.50844 0.70809 0.94797
 N609 N 0.55744 0.78842 0.91352
 N610 N 0.57288 0.81197 0.93855
 C611 C 0.54353 0.82584 0.95783
 C612 C 0.50947 0.80991 0.94396
 N613 N 0.51936 0.78703 0.91584
 H614 H 0.48041 0.81527 0.95252
 N615 N 0.05854 0.30513 0.38483
 N616 N 0.07007 0.33756 0.39921
 C617 C 0.04166 0.34764 0.42242
 C618 C 0.01261 0.32066 0.42171
 N619 N 0.02385 0.29453 0.39781
 H620 H -0.01350 0.31934 0.43853
 N621 N 0.28751 0.57669 0.53440
 N622 N 0.31402 0.55164 0.53686
 C623 C 0.33900 0.55946 0.50800
 C624 C 0.32701 0.58999 0.48763
 N625 N 0.29451 0.59985 0.50486
 H626 H 0.34138 0.60469 0.46388
 N627 N 0.82194 0.09680 0.05441
 N628 N 0.84698 0.07042 0.05785
 C629 C 0.86235 0.06668 0.02270
 C630 C 0.84611 0.09178 -0.00228
 N631 N 0.82126 0.11057 0.01862
 H632 H 0.84879 0.09326 -0.03340
 N633 N 0.75897 0.07794 -0.03198
 N634 N 0.73031 0.05275 -0.02838
 C635 C 0.70975 0.06208 0.00240
 C636 C 0.72665 0.09369 0.01764
 N637 N 0.75721 0.10305 -0.00488
 H638 H 0.71897 0.10696 0.04398
 N639 N 0.22108 0.64003 0.54582
 N640 N 0.18680 0.62431 0.55409
 C641 C 0.17814 0.60035 0.52578
 C642 C 0.20796 0.60208 0.49990
 N643 N 0.23419 0.62749 0.51300
 H644 H 0.21130 0.58479 0.47521
 N645 N 0.16611 0.36091 -0.04913
 N646 N 0.13681 0.38167 -0.05817
 C647 C 0.14168 0.41296 -0.03802
 C648 C 0.17500 0.41073 -0.01625
 N649 N 0.18943 0.37768 -0.02387
 H650 H 0.18814 0.43151 0.00229
 N651 N 0.71609 0.90836 0.42915
 N652 N 0.69633 0.93607 0.41523
 C653 C 0.69143 0.95901 0.44462
 C654 C 0.70908 0.94460 0.47712
 N655 N 0.72365 0.91247 0.46641
 H656 H 0.71011 0.95582 0.50581
 N657 N 0.81202 0.87264 0.50400
 N658 N 0.84541 0.89086 0.50986
 C659 C 0.83961 0.92679 0.50206
 C660 C 0.80167 0.93007 0.49126
 N661 N 0.78528 0.89558 0.49269
 H662 H 0.78703 0.95535 0.48557
 N663 N 0.25998 0.40971 -0.05199
 N664 N 0.28768 0.43602 -0.05022
 C665 C 0.30344 0.43350 -0.01465
 C666 C 0.28471 0.40489 0.00538
 N667 N 0.25750 0.39081 -0.01882
 H668 H 0.28906 0.39658 0.03525
 N669 N 0.56119 0.43815 0.26103
 N670 N 0.53986 0.42837 0.29144
 C671 C 0.54021 0.45794 0.31431
 C672 C 0.56236 0.48608 0.29709
 N673 N 0.57488 0.47284 0.26356
 H674 H 0.57108 0.51227 0.30965
 N675 N 0.09755 -0.07812 0.79317
 N676 N 0.07424 -0.09201 0.82043
 C677 C 0.05362 -0.06391 0.83252
 C678 C 0.06498 -0.03237 0.81191
 N679 N 0.09256 -0.04231 0.78767
 H680 H 0.05551 -0.00457 0.81534
 N681 N 0.09229 0.04393 0.74373
 N682 N 0.06599 0.05863 0.72101
 C683 C 0.04704 0.03032 0.70343
 C684 C 0.06232 -0.00223 0.71619
 N685 N 0.09098 0.00744 0.74092
 H686 H 0.05404 -0.03012 0.70779
 N687 N 0.61887 0.49802 0.16966
 N688 N 0.59995 0.50335 0.13685
 C689 C 0.56240 0.49608 0.14437
 C690 C 0.55882 0.48604 0.18286
 N691 N 0.59487 0.48734 0.19773
 H692 H 0.53243 0.48187 0.19907
 N693 N 0.41945 0.04863 0.21339
 N694 N 0.44747 0.05105 0.18751
 C695 C 0.44725 0.01814 0.17005
 C696 C 0.41848 -0.00440 0.18603
 N697 N 0.40133 0.01557 0.21279
 H698 H 0.41200 -0.03319 0.17988
 N699 N 0.87183 0.46274 0.69486
 N700 N 0.89581 0.45258 0.66801
 C701 C 0.91790 0.48285 0.65819
 C702 C 0.90673 0.51190 0.67977
 N703 N 0.87761 0.49834 0.70217
 H704 H 0.91811 0.54025 0.67891
 N705 N 0.88359 0.57605 0.76040
 N706 N 0.91059 0.58571 0.78598
 C707 C 0.92814 0.55460 0.79662
 C708 C 0.91118 0.52557 0.77672
 N709 N 0.88318 0.53997 0.75471
 H710 H 0.91734 0.49656 0.77916
 N711 N 0.36764 -0.00919 0.31097
 N712 N 0.38895 -0.00566 0.34260
 C713 C 0.42501 0.00373 0.33105
 C714 C 0.42524 0.00559 0.29122
 N715 N 0.38859 -0.00230 0.27958
 H716 H 0.44927 0.01411 0.27294
   
