data_POSCAR
  _audit_creation_date              2014-09-24
  _audit_creation_method            'ToBaCCo'
  _symmetry_space_group_name_H-M    'P1'
  _symmetry_Int_Tables_number       1
  _symmetry_cell_setting            triclinic
  loop_
  _symmetry_equiv_pos_as_xyz
 x,y,z
_cell_length_a 49.6823
_cell_length_b 49.6831
_cell_length_c 47.1450
_cell_angle_alpha 89.981600
_cell_angle_beta 90.050600
_cell_angle_gamma 86.176800
loop_
  _atom_site_label
  _atom_site_type_symbol
  _atom_site_fract_x
  _atom_site_fract_y
  _atom_site_fract_z
O1 O -0.02650 0.27417 0.02422
 O2 O 0.02776 0.27558 -0.02894
 O3 O -0.02414 0.27196 -0.03101
 O4 O 0.02548 0.27847 0.02602
 O5 O 0.03116 0.23415 0.02911
 O6 O -0.01769 0.22765 -0.02903
 O7 O 0.03437 0.23137 -0.02580
 O8 O -0.02064 0.22981 0.02614
 Cu9 Cu -0.00002 0.27948 -0.00266
 Cu10 Cu 0.00738 0.22630 0.00032
 C11 C -0.03287 0.25172 0.03425
 C12 C 0.04056 0.25369 -0.03633
 C13 C -0.02931 0.24875 -0.03994
 C14 C 0.03683 0.25747 0.03733
 O15 O 0.47337 0.77394 0.52754
 O16 O 0.52648 0.77595 0.47304
 O17 O 0.47426 0.77320 0.47223
 O18 O 0.52531 0.77743 0.52827
 O19 O 0.53137 0.73305 0.52896
 O20 O 0.47940 0.72878 0.47351
 O21 O 0.53144 0.73149 0.47368
 O22 O 0.47923 0.72956 0.52875
 Cu23 Cu 0.49929 0.77958 0.50014
 Cu24 Cu 0.50593 0.72628 0.50135
 C25 C 0.46732 0.75137 0.53757
 C26 C 0.53793 0.75399 0.46393
 C27 C 0.46803 0.75032 0.46328
 C28 C 0.53711 0.75601 0.53821
 O29 O 1.03274 0.72208 0.02858
 O30 O 0.98061 0.71682 -0.02614
 O31 O 1.03245 0.72214 -0.02648
 O32 O 0.98086 0.71766 0.02919
 O33 O 0.97370 0.76194 0.02872
 O34 O 1.02525 0.76638 -0.02679
 O35 O 0.97345 0.76111 -0.02666
 O36 O 1.02552 0.76633 0.02858
 Cu37 Cu 1.00732 0.71525 0.00130
 Cu38 Cu 0.99876 0.76837 0.00090
 C39 C 1.03809 0.74506 0.03809
 C40 C 0.96815 0.73800 -0.03587
 C41 C 1.03776 0.74507 -0.03618
 C42 C 0.96854 0.73907 0.03859
 O43 O 0.53267 0.22262 0.52577
 O44 O 0.47978 0.21838 0.47173
 O45 O 0.53155 0.22349 0.47076
 O46 O 0.48075 0.21826 0.52699
 O47 O 0.47378 0.26257 0.52744
 O48 O 0.52446 0.26780 0.47124
 O49 O 0.47271 0.26268 0.47211
 O50 O 0.52567 0.26693 0.52650
 Cu51 Cu 0.50685 0.21625 0.49877
 Cu52 Cu 0.49843 0.26944 0.49938
 C53 C 0.53827 0.24546 0.53538
 C54 C 0.46726 0.23975 0.46255
 C55 C 0.53670 0.24657 0.46138
 C56 C 0.46861 0.23954 0.53690
 O57 O 0.70924 0.02706 -0.03050
 O58 O 0.70846 -0.02311 0.02683
 O59 O 0.70684 0.02924 0.02466
 O60 O 0.71099 -0.02534 -0.02832
 O61 O 0.75543 -0.02679 -0.02610
 O62 O 0.75127 0.02780 0.02680
 O63 O 0.75287 -0.02489 0.02879
 O64 O 0.75365 0.02579 -0.02823
 Cu65 Cu 0.70444 0.00212 -0.00205
 Cu66 Cu 0.75776 0.00036 0.00055
 C67 C 0.73155 0.03509 -0.03913
 C68 C 0.73052 -0.03278 0.03757
 C69 C 0.72835 0.03790 0.03475
 C70 C 0.73393 -0.03548 -0.03619
 O71 O 0.21594 0.47898 0.53109
 O72 O 0.21896 0.52934 0.47407
 O73 O 0.21755 0.47700 0.47585
 O74 O 0.21767 0.53121 0.52924
 O75 O 0.26215 0.52693 0.53045
 O76 O 0.26201 0.47278 0.47736
 O77 O 0.26343 0.52521 0.47559
 O78 O 0.26041 0.47454 0.53232
 Cu79 Cu 0.21306 0.50454 0.50241
 Cu80 Cu 0.26645 0.49942 0.50406
 C81 C 0.23765 0.46806 0.54138
 C82 C 0.24171 0.53608 0.46525
 C83 C 0.23979 0.46553 0.46758
 C84 C 0.23999 0.53845 0.53883
 O85 O 0.27904 1.02689 0.03186
 O86 O 0.28379 0.97387 -0.02283
 O87 O 0.28385 1.02617 -0.02317
 O88 O 0.27915 0.97445 0.03216
 O89 O 0.23484 0.97735 0.02790
 O90 O 0.23959 1.02920 -0.02745
 O91 O 0.23949 0.97685 -0.02715
 O92 O 0.23477 1.02971 0.02765
 Cu93 Cu 0.28589 1.00007 0.00495
 Cu94 Cu 0.23274 1.00359 -0.00018
 C95 C 0.25607 1.03738 0.03923
 C96 C 0.26246 0.96633 -0.03441
 C97 C 0.26257 1.03652 -0.03493
 C98 C 0.25620 0.96703 0.03952
 O99 O 0.77374 0.52465 0.52792
 O100 O 0.77782 0.47396 0.47100
 O101 O 0.77520 0.52645 0.47267
 O102 O 0.77576 0.47219 0.52621
 O103 O 0.73133 0.47344 0.52445
 O104 O 0.73078 0.52731 0.47105
 O105 O 0.73341 0.47491 0.46923
 O106 O 0.72931 0.52579 0.52625
 Cu107 Cu 0.78009 0.49921 0.49961
 Cu108 Cu 0.72676 0.50046 0.49757
 C109 C 0.75086 0.53386 0.53691
 C110 C 0.75636 0.46578 0.46030
 C111 C 0.75283 0.53610 0.46265
 C112 C 0.75356 0.46363 0.53457
 C113 C 0.23666 0.25932 0.25571
 C114 C 0.25667 0.23916 0.25462
 C115 C 0.25610 0.21711 0.23334
 C116 C 0.27998 0.23820 0.27445
 C117 C 0.23497 0.27962 0.27891
 C118 C 0.21572 0.26218 0.23326
 C119 C 0.23349 0.20176 0.23088
 C120 C 0.23254 0.18197 0.20994
 C121 C 0.25438 0.17686 0.19134
 C122 C 0.27738 0.19162 0.19448
 C123 C 0.27823 0.21155 0.21533
 C124 C 0.28665 0.21467 0.29009
 C125 C 0.30797 0.21378 0.30947
 C126 C 0.32313 0.23638 0.31348
 C127 C 0.31680 0.25973 0.29731
 C128 C 0.29556 0.26056 0.27782
 C129 C 0.23227 0.30722 0.27232
 C130 C 0.23184 0.32654 0.29386
 C131 C 0.23409 0.31861 0.32242
 C132 C 0.23598 0.29097 0.32905
 C133 C 0.23613 0.27165 0.30751
 C134 C 0.22301 0.26578 0.20483
 C135 C 0.20332 0.26735 0.18362
 C136 C 0.17602 0.26529 0.19051
 C137 C 0.16874 0.26220 0.21907
 C138 C 0.18842 0.26090 0.24030
 H139 H 0.21647 0.20526 0.24505
 H140 H 0.21478 0.17056 0.20838
 H141 H 0.29443 0.18824 0.18034
 H142 H 0.29591 0.22308 0.21700
 H143 H 0.27495 0.19717 0.28772
 H144 H 0.31222 0.19558 0.32178
 H145 H 0.29115 0.27870 0.26546
 H146 H 0.23119 0.31382 0.25042
 H147 H 0.23052 0.34770 0.28814
 H148 H 0.23728 0.28432 0.35091
 H149 H 0.23747 0.25047 0.31312
 H150 H 0.24399 0.26707 0.19908
 H151 H 0.20949 0.26957 0.16177
 H152 H 0.14780 0.26089 0.22494
 H153 H 0.18246 0.25827 0.26217
 H154 H 0.32843 0.27728 0.29957
 C155 C 0.76239 0.74299 0.25143
 C156 C 0.74254 0.76335 0.25091
 C157 C 0.74090 0.78454 0.22855
 C158 C 0.72082 0.76487 0.27259
 C159 C 0.76147 0.72041 0.27201
 C160 C 0.78547 0.74179 0.23131
 C161 C 0.73663 0.81176 0.23635
 C162 C 0.73448 0.83194 0.21569
 C163 C 0.73669 0.82529 0.18681
 C164 C 0.74078 0.79806 0.17894
 C165 C 0.74247 0.77783 0.19961
 C166 C 0.72692 0.76728 0.30152
 C167 C 0.70648 0.76695 0.32186
 C168 C 0.67963 0.76412 0.31358
 C169 C 0.67352 0.76247 0.28454
 C170 C 0.69391 0.76306 0.26422
 C171 C 0.73920 0.70447 0.27281
 C172 C 0.73772 0.68429 0.29324
 C173 C 0.75867 0.67940 0.31302
 C174 C 0.78142 0.69473 0.31149
 C175 C 0.78281 0.71504 0.29110
 C176 C 0.79155 0.71816 0.21564
 C177 C 0.81264 0.71684 0.19603
 C178 C 0.82820 0.73909 0.19176
 C179 C 0.82245 0.76258 0.20790
 C180 C 0.80142 0.76384 0.22766
 H181 H 0.73513 0.81742 0.25851
 H182 H 0.73143 0.85280 0.22229
 H183 H 0.74213 0.79243 0.15677
 H184 H 0.74487 0.75695 0.19299
 H185 H 0.74758 0.76894 0.30832
 H186 H 0.71176 0.76813 0.34410
 H187 H 0.68884 0.76131 0.24198
 H188 H 0.72282 0.70790 0.25779
 H189 H 0.72021 0.67244 0.29353
 H190 H 0.79779 0.69153 0.32654
 H191 H 0.80023 0.72704 0.29066
 H192 H 0.77956 0.70089 0.21815
 H193 H 0.81638 0.69857 0.18373
 H194 H 0.83438 0.77989 0.20541
 H195 H 0.79746 0.78207 0.23998
 H196 H 0.65294 0.76062 0.27758
 C197 C 0.73597 0.24769 0.24220
 C198 C 0.75621 0.26493 0.24205
 C199 C 0.77861 0.26227 0.22122
 C200 C 0.75717 0.28710 0.26313
 C201 C 0.71540 0.24866 0.26504
 C202 C 0.73355 0.22665 0.22005
 C203 C 0.79452 0.23799 0.21843
 C204 C 0.81522 0.23565 0.19835
 C205 C 0.82055 0.25762 0.18087
 C206 C 0.80489 0.28206 0.18416
 C207 C 0.78421 0.28438 0.20423
 C208 C 0.78034 0.28917 0.27980
 C209 C 0.78130 0.30943 0.30022
 C210 C 0.75913 0.32813 0.30429
 C211 C 0.73612 0.32634 0.28718
 C212 C 0.73523 0.30613 0.26665
 C213 C 0.68800 0.25287 0.25811
 C214 C 0.66844 0.25396 0.27941
 C215 C 0.67595 0.25048 0.30799
 C216 C 0.70341 0.24580 0.31484
 C217 C 0.72298 0.24489 0.29353
 C218 C 0.73396 0.23309 0.19102
 C219 C 0.73193 0.21294 0.17057
 C220 C 0.72881 0.18614 0.17879
 C221 C 0.72778 0.17987 0.20779
 C222 C 0.73017 0.19991 0.22820
 H223 H 0.79087 0.22087 0.23178
 H224 H 0.82724 0.21672 0.19670
 H225 H 0.80828 0.29926 0.17083
 H226 H 0.77221 0.30330 0.20616
 H227 H 0.79751 0.27474 0.27736
 H228 H 0.79920 0.31013 0.31325
 H229 H 0.71739 0.30525 0.25355
 H230 H 0.68180 0.25558 0.23620
 H231 H 0.64741 0.25720 0.27351
 H232 H 0.70976 0.24319 0.33670
 H233 H 0.74403 0.24125 0.29921
 H234 H 0.73580 0.25370 0.18421
 H235 H 0.73239 0.21835 0.14833
 H236 H 0.72560 0.15933 0.21469
 H237 H 0.72968 0.19449 0.25044
 H238 H 0.71893 0.34074 0.28948
 C239 C 0.25994 0.76049 0.25221
 C240 C 0.24025 0.74263 0.25296
 C241 C 0.21902 0.74288 0.23077
 C242 C 0.23916 0.72190 0.27562
 C243 C 0.28331 0.75829 0.27196
 C244 C 0.25888 0.78317 0.23158
 C245 C 0.19178 0.74709 0.23834
 C246 C 0.17176 0.74845 0.21745
 C247 C 0.17865 0.74515 0.18869
 C248 C 0.20592 0.74027 0.18125
 C249 C 0.22595 0.73919 0.20212
 C250 C 0.24048 0.72899 0.30441
 C251 C 0.24091 0.70913 0.32541
 C252 C 0.23938 0.68187 0.31806
 C253 C 0.23696 0.67492 0.28933
 C254 C 0.23687 0.69476 0.26831
 C255 C 0.29958 0.73417 0.27431
 C256 C 0.32060 0.73189 0.29406
 C257 C 0.32595 0.75380 0.31162
 C258 C 0.31013 0.77818 0.30855
 C259 C 0.28909 0.78041 0.28884
 C260 C 0.28075 0.78650 0.21342
 C261 C 0.27944 0.80708 0.19315
 C262 C 0.25626 0.82479 0.19078
 C263 C 0.23467 0.82184 0.20954
 C264 C 0.23605 0.80135 0.22987
 H265 H 0.18610 0.74984 0.26037
 H266 H 0.15086 0.75189 0.22377
 H267 H 0.21178 0.73778 0.15923
 H268 H 0.24688 0.73567 0.19595
 H269 H 0.24147 0.74989 0.31060
 H270 H 0.24230 0.71507 0.34744
 H271 H 0.23566 0.68884 0.24626
 H272 H 0.29579 0.71703 0.26105
 H273 H 0.33274 0.71302 0.29554
 H274 H 0.31353 0.79533 0.32194
 H275 H 0.27681 0.79921 0.28728
 H276 H 0.29858 0.77275 0.21450
 H277 H 0.29631 0.80873 0.17887
 H278 H 0.21678 0.83550 0.20859
 H279 H 0.21922 0.79953 0.24417
 H280 H 0.23586 0.65405 0.28309
 C281 C 0.76647 0.25524 0.74553
 C282 C 0.74679 0.23736 0.74574
 C283 C 0.72523 0.23847 0.72386
 C284 C 0.74538 0.21623 0.76793
 C285 C 0.78960 0.25290 0.76554
 C286 C 0.76536 0.27833 0.72543
 C287 C 0.69812 0.24228 0.73207
 C288 C 0.67772 0.24435 0.71164
 C289 C 0.68406 0.24227 0.68264
 C290 C 0.71121 0.23784 0.67450
 C291 C 0.73163 0.23596 0.69495
 C292 C 0.74596 0.22279 0.79690
 C293 C 0.74416 0.20273 0.81747
 C294 C 0.74116 0.17585 0.80945
 C295 C 0.74022 0.16941 0.78047
 C296 C 0.74231 0.18940 0.75992
 C297 C 0.80584 0.22877 0.76802
 C298 C 0.82681 0.22654 0.78786
 C299 C 0.83209 0.24850 0.80536
 C300 C 0.81621 0.27283 0.80227
 C301 C 0.79526 0.27502 0.78248
 C302 C 0.78693 0.28173 0.70688
 C303 C 0.78528 0.30242 0.68671
 C304 C 0.76203 0.32008 0.68483
 C305 C 0.74088 0.31720 0.70415
 C306 C 0.74262 0.29665 0.72439
 H307 H 0.69283 0.24411 0.75430
 H308 H 0.65695 0.24737 0.71851
 H309 H 0.71666 0.23628 0.65230
 H310 H 0.75244 0.23274 0.68827
 H311 H 0.74756 0.24347 0.80359
 H312 H 0.74450 0.20831 0.83967
 H313 H 0.74166 0.18392 0.73771
 H314 H 0.80214 0.21162 0.75474
 H315 H 0.83897 0.20769 0.78940
 H316 H 0.81953 0.29000 0.81565
 H317 H 0.78299 0.29382 0.78086
 H318 H 0.80471 0.26789 0.70750
 H319 H 0.80183 0.30408 0.67202
 H320 H 0.72296 0.33086 0.70358
 H321 H 0.72604 0.29476 0.73900
 H322 H 0.73814 0.14882 0.77369
 C323 C 0.23993 0.74602 0.74926
 C324 C 0.26065 0.76267 0.75027
 C325 C 0.28325 0.76032 0.72960
 C326 C 0.26172 0.78417 0.77205
 C327 C 0.21891 0.74661 0.77165
 C328 C 0.23754 0.72601 0.72609
 C329 C 0.29874 0.73588 0.72600
 C330 C 0.31926 0.73369 0.70570
 C331 C 0.32485 0.75598 0.68879
 C332 C 0.30971 0.78060 0.69299
 C333 C 0.28921 0.78276 0.71328
 C334 C 0.28473 0.78540 0.78914
 C335 C 0.28598 0.80541 0.80981
 C336 C 0.26429 0.82471 0.81368
 C337 C 0.24139 0.82366 0.79625
 C338 C 0.24019 0.80367 0.77552
 C339 C 0.19169 0.75160 0.76428
 C340 C 0.17173 0.75249 0.78518
 C341 C 0.17863 0.74798 0.81379
 C342 C 0.20589 0.74248 0.82106
 C343 C 0.22587 0.74182 0.80016
 C344 C 0.23842 0.73375 0.69746
 C345 C 0.23783 0.71441 0.67599
 C346 C 0.23570 0.68709 0.68275
 C347 C 0.23363 0.67956 0.71135
 C348 C 0.23456 0.69884 0.73281
 H349 H 0.29479 0.71847 0.73880
 H350 H 0.33088 0.71460 0.70337
 H351 H 0.31327 0.79806 0.68013
 H352 H 0.27752 0.80180 0.71580
 H353 H 0.30158 0.77059 0.78672
 H354 H 0.30377 0.80551 0.82308
 H355 H 0.22251 0.80346 0.76210
 H356 H 0.18595 0.75512 0.74235
 H357 H 0.15086 0.75640 0.77894
 H358 H 0.21178 0.73907 0.84296
 H359 H 0.24677 0.73758 0.80618
 H360 H 0.23995 0.75470 0.69176
 H361 H 0.23902 0.72079 0.65408
 H362 H 0.23212 0.65862 0.71714
 H363 H 0.23366 0.69246 0.75474
 H364 H 0.22457 0.83853 0.79837
 C365 C 0.26514 0.24056 0.75235
 C366 C 0.24552 0.26113 0.75341
 C367 C 0.24313 0.28263 0.73139
 C368 C 0.22521 0.26295 0.77662
 C369 C 0.26576 0.21774 0.77279
 C370 C 0.28711 0.23979 0.73094
 C371 C 0.24086 0.30983 0.73963
 C372 C 0.23867 0.33028 0.71926
 C373 C 0.23878 0.32391 0.69023
 C374 C 0.24067 0.29668 0.68197
 C375 C 0.24249 0.27622 0.70237
 C376 C 0.23318 0.26210 0.80522
 C377 C 0.21388 0.26193 0.82674
 C378 C 0.18626 0.26331 0.82005
 C379 C 0.17830 0.26543 0.79149
 C380 C 0.19761 0.26522 0.76997
 C381 C 0.24343 0.20212 0.77609
 C382 C 0.24398 0.18137 0.79615
 C383 C 0.26702 0.17563 0.81302
 C384 C 0.28957 0.19088 0.80912
 C385 C 0.28896 0.21167 0.78915
 C386 C 0.29218 0.21662 0.71427
 C387 C 0.31267 0.21552 0.69400
 C388 C 0.32862 0.23754 0.69006
 C389 C 0.32377 0.26062 0.70704
 C390 C 0.30333 0.26165 0.72745
 H391 H 0.24112 0.31524 0.76188
 H392 H 0.23740 0.35110 0.72619
 H393 H 0.24036 0.29125 0.65974
 H394 H 0.24342 0.25538 0.69552
 H395 H 0.25436 0.26109 0.81085
 H396 H 0.22051 0.26073 0.84861
 H397 H 0.19104 0.26610 0.74806
 H398 H 0.22553 0.20614 0.76324
 H399 H 0.22648 0.16967 0.79831
 H400 H 0.30751 0.18715 0.82198
 H401 H 0.30642 0.22344 0.78685
 H402 H 0.27997 0.19950 0.71671
 H403 H 0.31576 0.19758 0.68105
 H404 H 0.33602 0.27771 0.70480
 H405 H 0.30017 0.27948 0.74055
 H406 H 0.15714 0.26639 0.78578
 C407 C 0.73926 0.75462 0.75514
 C408 C 0.75871 0.73385 0.75504
 C409 C 0.75749 0.71092 0.73493
 C410 C 0.78206 0.73308 0.77486
 C411 C 0.73807 0.77565 0.77765
 C412 C 0.71813 0.75719 0.73272
 C413 C 0.73438 0.69618 0.73325
 C414 C 0.73258 0.67603 0.71282
 C415 C 0.75401 0.66999 0.69391
 C416 C 0.77754 0.68405 0.69641
 C417 C 0.77929 0.70427 0.71680
 C418 C 0.78820 0.71006 0.79148
 C419 C 0.80947 0.70945 0.81092
 C420 C 0.82512 0.73183 0.81403
 C421 C 0.81935 0.75463 0.79687
 C422 C 0.79817 0.75517 0.77731
 C423 C 0.73590 0.80305 0.77014
 C424 C 0.73534 0.82299 0.79105
 C425 C 0.73699 0.81590 0.81988
 C426 C 0.73858 0.78847 0.82742
 C427 C 0.73880 0.76854 0.80651
 C428 C 0.72512 0.75660 0.70384
 C429 C 0.70509 0.75775 0.68298
 C430 C 0.67771 0.76015 0.69059
 C431 C 0.67076 0.76167 0.71946
 C432 C 0.69079 0.76019 0.74033
 H433 H 0.71756 0.70064 0.74747
 H434 H 0.71441 0.66519 0.71177
 H435 H 0.79430 0.68000 0.68203
 H436 H 0.79731 0.71535 0.71784
 H437 H 0.77611 0.69277 0.78985
 H438 H 0.81329 0.69168 0.82399
 H439 H 0.79419 0.77290 0.76420
 H440 H 0.73512 0.80899 0.74803
 H441 H 0.73424 0.84398 0.78467
 H442 H 0.73941 0.78248 0.84950
 H443 H 0.73970 0.74754 0.81283
 H444 H 0.74610 0.75501 0.69747
 H445 H 0.71100 0.75702 0.66088
 H446 H 0.64980 0.76339 0.72591
 H447 H 0.68496 0.76083 0.76246
 H448 H 0.83136 0.77198 0.79843
 C449 C 0.25103 0.09724 0.10262
 C450 C 0.22729 0.08853 0.09044
 C451 C 0.22896 0.06883 0.06931
 C452 C 0.25418 0.05742 0.06031
 C453 C 0.27742 0.06653 0.07328
 N454 N 0.27524 0.08582 0.09373
 C455 C 0.25079 0.11797 0.12530
 N456 N 0.27363 0.12028 0.14088
 C457 C 0.27527 0.13879 0.16194
 C458 C 0.25295 0.15648 0.16848
 C459 C 0.22926 0.15467 0.15259
 C460 C 0.22810 0.13562 0.13096
 H461 H 0.21039 0.06241 0.06025
 H462 H 0.29735 0.05839 0.06726
 H463 H 0.29390 0.13942 0.17375
 H464 H 0.21177 0.16835 0.15653
 H465 H 0.20753 0.09629 0.09729
 H466 H 0.20978 0.13530 0.11866
 C467 C 0.74740 0.59199 0.60405
 C468 C 0.72332 0.58297 0.59294
 C469 C 0.72440 0.56411 0.57094
 C470 C 0.74936 0.55404 0.56006
 C471 C 0.77293 0.56335 0.57194
 N472 N 0.77136 0.58173 0.59330
 C473 C 0.74781 0.61191 0.62743
 N474 N 0.77108 0.61368 0.64243
 C475 C 0.77345 0.63173 0.66379
 C476 C 0.75153 0.64962 0.67118
 C477 C 0.72735 0.64825 0.65598
 C478 C 0.72542 0.62956 0.63410
 H479 H 0.70571 0.55729 0.56261
 H480 H 0.79262 0.55604 0.56433
 H481 H 0.79241 0.63195 0.67507
 H482 H 0.71014 0.66210 0.66054
 H483 H 0.70382 0.58987 0.60130
 H484 H 0.70679 0.62959 0.62225
 C485 C 0.73001 0.90827 0.10160
 C486 C 0.70549 0.92026 0.09151
 C487 C 0.70562 0.93978 0.07025
 C488 C 0.73015 0.94766 0.05908
 C489 C 0.75425 0.93508 0.06988
 N490 N 0.75355 0.91587 0.09035
 C491 C 0.73091 0.88714 0.12369
 N492 N 0.75119 0.86730 0.12317
 C493 C 0.75326 0.84726 0.14285
 C494 C 0.73445 0.84673 0.16499
 C495 C 0.71360 0.86716 0.16617
 C496 C 0.71168 0.88732 0.14551
 H497 H 0.68646 0.94866 0.06263
 H498 H 0.77368 0.94024 0.06191
 H499 H 0.76981 0.83201 0.14147
 H500 H 0.69871 0.86740 0.18294
 H501 H 0.68637 0.91425 0.09950
 H502 H 0.69564 0.90309 0.14696
 C503 C 0.23462 0.40804 0.60612
 C504 C 0.21110 0.42387 0.59905
 C505 C 0.21206 0.44348 0.57793
 C506 C 0.23640 0.44749 0.56395
 C507 C 0.25943 0.43120 0.57162
 N508 N 0.25794 0.41206 0.59206
 C509 C 0.23469 0.38666 0.62796
 N510 N 0.25274 0.36492 0.62566
 C511 C 0.25417 0.34459 0.64501
 C512 C 0.23701 0.34565 0.66867
 C513 C 0.21845 0.36801 0.67165
 C514 C 0.21717 0.38850 0.65134
 H515 H 0.19377 0.45549 0.57257
 H516 H 0.27856 0.43345 0.56120
 H517 H 0.26902 0.32785 0.64218
 H518 H 0.20485 0.36955 0.68960
 H519 H 0.19202 0.42082 0.60921
 H520 H 0.20300 0.40577 0.65430
 C521 C 0.90436 0.25016 0.09620
 C522 C 0.91701 0.22579 0.08640
 C523 C 0.93741 0.22631 0.06612
 C524 C 0.94537 0.25099 0.05560
 C525 C 0.93237 0.27488 0.06610
 N526 N 0.91258 0.27387 0.08589
 C527 C 0.88281 0.25098 0.11794
 N528 N 0.87821 0.27383 0.13362
 C529 C 0.85869 0.27634 0.15380
 C530 C 0.84220 0.25503 0.15915
 C531 C 0.84645 0.23134 0.14310
 C532 C 0.86661 0.22925 0.12248
 H533 H 0.94703 0.20738 0.05881
 H534 H 0.93796 0.29437 0.05872
 H535 H 0.85630 0.29490 0.16582
 H536 H 0.83379 0.21464 0.14605
 H537 H 0.91174 0.20651 0.09459
 H538 H 0.86892 0.21104 0.10992
 C539 C 0.40659 0.74920 0.60177
 C540 C 0.41866 0.72492 0.59104
 C541 C 0.43841 0.72564 0.57007
 C542 C 0.44629 0.75042 0.55974
 C543 C 0.43391 0.77421 0.57119
 N544 N 0.41475 0.77300 0.59165
 C545 C 0.38567 0.74980 0.62420
 N546 N 0.38180 0.77232 0.64053
 C547 C 0.36282 0.77465 0.66129
 C548 C 0.34609 0.75350 0.66658
 C549 C 0.34960 0.73014 0.64987
 C550 C 0.36926 0.72822 0.62869
 H551 H 0.44757 0.70678 0.56204
 H552 H 0.43947 0.79377 0.56400
 H553 H 0.36101 0.79294 0.67379
 H554 H 0.33674 0.71360 0.65273
 H555 H 0.41342 0.70555 0.59902
 H556 H 0.37098 0.71030 0.61565
 C557 C 0.09690 0.74933 0.10194
 C558 C 0.08278 0.77310 0.09257
 C559 C 0.06339 0.77179 0.07124
 C560 C 0.05785 0.74683 0.05923
 C561 C 0.07270 0.72357 0.06913
 N562 N 0.09159 0.72544 0.08976
 C563 C 0.11776 0.74939 0.12434
 N564 N 0.13797 0.72948 0.12437
 C565 C 0.15764 0.72787 0.14447
 C566 C 0.15746 0.74684 0.16651
 C567 C 0.13667 0.76738 0.16711
 C568 C 0.11684 0.76878 0.14605
 H569 H 0.05270 0.79035 0.06429
 H570 H 0.06943 0.70386 0.06051
 H571 H 0.17314 0.71153 0.14347
 H572 H 0.13588 0.78244 0.18374
 H573 H 0.08692 0.79258 0.10120
 H574 H 0.10075 0.78452 0.14719
 C575 C 0.59989 0.24867 0.59847
 C576 C 0.58414 0.27229 0.59148
 C577 C 0.56408 0.27133 0.57080
 C578 C 0.55963 0.24695 0.55710
 C579 C 0.57601 0.22389 0.56450
 N580 N 0.59547 0.22535 0.58460
 C581 C 0.62144 0.24829 0.62016
 N582 N 0.64216 0.22898 0.61849
 C583 C 0.66243 0.22689 0.63790
 C584 C 0.66239 0.24469 0.66099
 C585 C 0.64114 0.26463 0.66329
 C586 C 0.62068 0.26654 0.64295
 H587 H 0.55204 0.28964 0.56560
 H588 H 0.57345 0.20471 0.55432
 H589 H 0.67826 0.21100 0.63556
 H590 H 0.64043 0.27882 0.68075
 H591 H 0.58747 0.29139 0.60143
 H592 H 0.60423 0.28173 0.64551
 C593 C 0.73260 0.09416 0.89496
 C594 C 0.70841 0.08240 0.90144
 C595 C 0.70807 0.06313 0.92294
 C596 C 0.73173 0.05546 0.93799
 C597 C 0.75545 0.06782 0.93098
 N598 N 0.75524 0.08668 0.91006
 C599 C 0.73404 0.11491 0.87261
 N600 N 0.75288 0.13349 0.87486
 C601 C 0.75542 0.15313 0.85514
 C602 C 0.73858 0.15464 0.83120
 C603 C 0.71926 0.13548 0.82826
 C604 C 0.71690 0.11564 0.84887
 H605 H 0.68928 0.05426 0.92777
 H606 H 0.77409 0.06267 0.94221
 H607 H 0.77083 0.16730 0.85797
 H608 H 0.70582 0.13601 0.81014
 H609 H 0.68981 0.08833 0.89049
 H610 H 0.70214 0.10083 0.84591
 C611 C 0.24416 0.59815 0.40265
 C612 C 0.26800 0.58903 0.41667
 C613 C 0.26729 0.56850 0.43681
 C614 C 0.24292 0.55707 0.44311
 C615 C 0.21963 0.56648 0.42829
 N616 N 0.22085 0.58640 0.40865
 C617 C 0.24370 0.61994 0.38124
 N618 N 0.22495 0.62029 0.36014
 C619 C 0.22321 0.63974 0.33981
 C620 C 0.24082 0.66069 0.34023
 C621 C 0.26003 0.66097 0.36203
 C622 C 0.26158 0.64065 0.38251
 H623 H 0.28577 0.56176 0.44763
 H624 H 0.20045 0.55809 0.43232
 H625 H 0.20790 0.63901 0.32354
 H626 H 0.27404 0.67675 0.36303
 H627 H 0.28708 0.59734 0.41195
 H628 H 0.27631 0.64149 0.39936
 C629 C 0.26739 0.90592 0.90074
 C630 C 0.29110 0.91351 0.91395
 C631 C 0.28950 0.93318 0.93512
 C632 C 0.26438 0.94524 0.94337
 C633 C 0.24115 0.93683 0.92994
 N634 N 0.24322 0.91768 0.90935
 C635 C 0.26763 0.88514 0.87817
 N636 N 0.24451 0.87278 0.87278
 C637 C 0.24294 0.85364 0.85237
 C638 C 0.26560 0.84584 0.83581
 C639 C 0.28957 0.85852 0.84076
 C640 C 0.29067 0.87819 0.86177
 H641 H 0.30794 0.93886 0.94508
 H642 H 0.22134 0.94548 0.93572
 H643 H 0.22409 0.84426 0.84942
 H644 H 0.30736 0.85355 0.82805
 H645 H 0.31069 0.90417 0.90852
 H646 H 0.30922 0.88807 0.86455
 C647 C 0.76122 0.40791 0.39293
 C648 C 0.78500 0.41590 0.40567
 C649 C 0.78339 0.43475 0.42763
 C650 C 0.75821 0.44559 0.43718
 C651 C 0.73492 0.43681 0.42418
 N652 N 0.73699 0.41846 0.40276
 C653 C 0.76155 0.38784 0.36963
 N654 N 0.73881 0.37476 0.36446
 C655 C 0.73746 0.35596 0.34365
 C656 C 0.76000 0.34923 0.32650
 C657 C 0.78352 0.36275 0.33113
 C658 C 0.78436 0.38209 0.35249
 H659 H 0.80189 0.44073 0.43722
 H660 H 0.71507 0.44453 0.43093
 H661 H 0.71896 0.34592 0.34092
 H662 H 0.80116 0.35861 0.31797
 H663 H 0.80469 0.40747 0.39930
 H664 H 0.80257 0.39259 0.35506
 C665 C 0.10405 0.25562 0.90489
 C666 C 0.09820 0.23101 0.91726
 C667 C 0.07704 0.23031 0.93662
 C668 C 0.06169 0.25412 0.94391
 C669 C 0.06820 0.27833 0.93085
 N670 N 0.08876 0.27840 0.91184
 C671 C 0.12588 0.25733 0.88382
 N672 N 0.12328 0.27649 0.86318
 C673 C 0.14232 0.27894 0.84281
 C674 C 0.16580 0.26161 0.84268
 C675 C 0.16918 0.24210 0.86413
 C676 C 0.14928 0.23985 0.88468
 H677 H 0.07283 0.21108 0.94587
 H678 H 0.05693 0.29720 0.93554
 H679 H 0.13916 0.29447 0.82682
 H680 H 0.18699 0.22828 0.86468
 H681 H 0.10942 0.21235 0.91167
 H682 H 0.15236 0.22479 0.90116
 C683 C 0.59785 0.75587 0.39899
 C684 C 0.58748 0.73124 0.40647
 C685 C 0.56808 0.73063 0.42777
 C686 C 0.55885 0.75448 0.44163
 C687 C 0.56992 0.77866 0.43372
 N688 N 0.58897 0.77871 0.41301
 C689 C 0.61851 0.75751 0.37659
 N690 N 0.63664 0.77683 0.37839
 C691 C 0.65626 0.77934 0.35864
 C692 C 0.65819 0.76196 0.33515
 C693 C 0.63945 0.74220 0.33264
 C694 C 0.61965 0.73988 0.35328
 H695 H 0.56022 0.71150 0.43328
 H696 H 0.56354 0.79747 0.44404
 H697 H 0.67016 0.79505 0.36114
 H698 H 0.64033 0.72833 0.31490
 H699 H 0.59455 0.71253 0.39636
 H700 H 0.60520 0.72470 0.35071
 C701 C 0.90857 0.73163 0.89920
 C702 C 0.92104 0.70811 0.91130
 C703 C 0.94046 0.71023 0.93243
 C704 C 0.94742 0.73564 0.94184
 C705 C 0.93425 0.75865 0.92951
 N706 N 0.91545 0.75608 0.90887
 C707 C 0.88765 0.73079 0.87677
 N708 N 0.87096 0.75323 0.87212
 C709 C 0.85118 0.75414 0.85213
 C710 C 0.84717 0.73142 0.83534
 C711 C 0.86436 0.70819 0.83944
 C712 C 0.88466 0.70781 0.85995
 H713 H 0.94989 0.69192 0.94152
 H714 H 0.93890 0.77866 0.93618
 H715 H 0.83827 0.77243 0.84979
 H716 H 0.86234 0.69041 0.82653
 H717 H 0.91569 0.68823 0.90508
 H718 H 0.89796 0.68981 0.86208
 C719 C 0.40707 0.23465 0.39810
 C720 C 0.41977 0.21090 0.40944
 C721 C 0.43936 0.21259 0.43045
 C722 C 0.44628 0.23782 0.44047
 C723 C 0.43285 0.26106 0.42891
 N724 N 0.41388 0.25890 0.40838
 C725 C 0.38601 0.23423 0.37582
 N726 N 0.36889 0.25654 0.37217
 C727 C 0.34896 0.25779 0.35234
 C728 C 0.34528 0.23561 0.33466
 C729 C 0.36292 0.21254 0.33774
 C730 C 0.38333 0.21180 0.35811
 H731 H 0.44899 0.19412 0.43895
 H732 H 0.43745 0.28093 0.43608
 H733 H 0.33571 0.27593 0.35081
 H734 H 0.36115 0.19521 0.32411
 H735 H 0.41446 0.19115 0.40270
 H736 H 0.39698 0.19398 0.35946
 C737 C 0.73816 0.89986 0.90382
 C738 C 0.76157 0.90629 0.91835
 C739 C 0.76024 0.92751 0.93778
 C740 C 0.73566 0.94230 0.94289
 C741 C 0.71278 0.93536 0.92775
 N742 N 0.71462 0.91473 0.90877
 C743 C 0.73848 0.87779 0.88276
 N744 N 0.72042 0.87955 0.86099
 C745 C 0.71956 0.86013 0.84078
 C746 C 0.73742 0.83705 0.84198
 C747 C 0.75590 0.83458 0.86450
 C748 C 0.75654 0.85489 0.88488
 H749 H 0.77842 0.93226 0.94888
 H750 H 0.69347 0.94636 0.93087
 H751 H 0.70477 0.86259 0.82395
 H752 H 0.77006 0.81710 0.86612
 H753 H 0.78082 0.89544 0.91445
 H754 H 0.77073 0.85241 0.90225
 C755 C 0.23953 0.40104 0.40757
 C756 C 0.26366 0.40647 0.42131
 C757 C 0.26376 0.42762 0.44075
 C758 C 0.23992 0.44336 0.44663
 C759 C 0.21627 0.43741 0.43227
 N760 N 0.21671 0.41681 0.41326
 C761 C 0.23842 0.37914 0.38643
 N762 N 0.21977 0.38166 0.36526
 C763 C 0.21784 0.36258 0.34483
 C764 C 0.23524 0.33913 0.34511
 C765 C 0.25423 0.33584 0.36709
 C766 C 0.25590 0.35576 0.38774
 H767 H 0.28250 0.43157 0.45123
 H768 H 0.19748 0.44916 0.43601
 H769 H 0.20267 0.36569 0.32846
 H770 H 0.26808 0.31808 0.36800
 H771 H 0.28240 0.39493 0.41678
 H772 H 0.27053 0.35266 0.40464
 C773 C 0.26793 0.09417 0.90018
 C774 C 0.29155 0.08322 0.91336
 C775 C 0.28978 0.06418 0.93491
 C776 C 0.26453 0.05597 0.94364
 C777 C 0.24136 0.06776 0.93014
 N778 N 0.24365 0.08627 0.90918
 C779 C 0.26850 0.11456 0.87728
 N780 N 0.24596 0.13103 0.87234
 C781 C 0.24491 0.15035 0.85186
 C782 C 0.26753 0.15402 0.83481
 C783 C 0.29083 0.13696 0.83920
 C784 C 0.29138 0.11721 0.86026
 H785 H 0.30827 0.05598 0.94474
 H786 H 0.22141 0.06231 0.93612
 H787 H 0.22658 0.16316 0.84934
 H788 H 0.30853 0.13868 0.82610
 H789 H 0.31123 0.08952 0.90761
 H790 H 0.30942 0.10398 0.86270
 C791 C 0.75170 0.59821 0.39962
 C792 C 0.72740 0.58773 0.40819
 C793 C 0.72781 0.56761 0.42885
 C794 C 0.75231 0.55764 0.44092
 C795 C 0.77617 0.56840 0.43157
 N796 N 0.77527 0.58806 0.41144
 C797 C 0.75260 0.61944 0.37759
 N798 N 0.77629 0.62256 0.36383
 C799 C 0.77877 0.64148 0.34332
 C800 C 0.75647 0.65873 0.33548
 C801 C 0.73196 0.65614 0.34964
 C802 C 0.72995 0.63669 0.37072
 H803 H 0.70893 0.55971 0.43517
 H804 H 0.79554 0.56122 0.44019
 H805 H 0.79803 0.64275 0.33289
 H806 H 0.71444 0.66949 0.34475
 H807 H 0.70827 0.59443 0.39880
 H808 H 0.71096 0.63571 0.38172
 C809 C 0.09659 0.74992 0.90013
 C810 C 0.08245 0.77357 0.90976
 C811 C 0.06302 0.77200 0.93093
 C812 C 0.05747 0.74691 0.94265
 C813 C 0.07232 0.72377 0.93253
 N814 N 0.09125 0.72588 0.91199
 C815 C 0.11749 0.75040 0.87781
 N816 N 0.13775 0.73055 0.87742
 C817 C 0.15752 0.72951 0.85745
 C818 C 0.15742 0.74906 0.83595
 C819 C 0.13656 0.76954 0.83575
 C820 C 0.11662 0.77032 0.85661
 H821 H 0.05237 0.79050 0.93806
 H822 H 0.06903 0.70398 0.94093
 H823 H 0.17305 0.71317 0.85812
 H824 H 0.13579 0.78505 0.81957
 H825 H 0.08661 0.79317 0.90146
 H826 H 0.10049 0.78603 0.85571
 C827 C 0.59535 0.25221 0.39570
 C828 C 0.58004 0.27551 0.40444
 C829 C 0.56096 0.27370 0.42593
 C830 C 0.55705 0.24878 0.43876
 C831 C 0.57298 0.22603 0.42963
 N832 N 0.59151 0.22831 0.40873
 C833 C 0.61589 0.25286 0.37306
 N834 N 0.63680 0.23369 0.37299
 C835 C 0.65626 0.23271 0.35271
 C836 C 0.65515 0.25161 0.33055
 C837 C 0.63366 0.27140 0.33003
 C838 C 0.61403 0.27212 0.35120
 H839 H 0.54926 0.29181 0.43245
 H840 H 0.57079 0.20644 0.43910
 H841 H 0.67230 0.21689 0.35365
 H842 H 0.63212 0.28640 0.31333
 H843 H 0.58299 0.29504 0.39522
 H844 H 0.59737 0.28725 0.35002
 C845 C 0.91325 0.24311 0.89297
 C846 C 0.92522 0.21937 0.90509
 C847 C 0.94400 0.22114 0.92698
 C848 C 0.95097 0.24643 0.93679
 C849 C 0.93880 0.26961 0.92385
 N850 N 0.92060 0.26738 0.90262
 C851 C 0.89306 0.24289 0.86984
 N852 N 0.88871 0.26547 0.85366
 C853 C 0.86987 0.26749 0.83274
 C854 C 0.85371 0.24598 0.82718
 C855 C 0.85790 0.22242 0.84347
 C856 C 0.87746 0.22078 0.86481
 H857 H 0.95307 0.20272 0.93618
 H858 H 0.94368 0.28954 0.93057
 H859 H 0.86758 0.28593 0.82050
 H860 H 0.84552 0.20554 0.84029
 H861 H 0.92059 0.19964 0.89762
 H862 H 0.87959 0.20273 0.87764
 C863 C 0.40823 0.74687 0.39815
 C864 C 0.42022 0.72277 0.40947
 C865 C 0.43970 0.72385 0.43075
 C866 C 0.44740 0.74881 0.44074
 C867 C 0.43516 0.77239 0.42865
 N868 N 0.41626 0.77083 0.40798
 C869 C 0.38744 0.74727 0.37556
 N870 N 0.38306 0.77005 0.35969
 C871 C 0.36394 0.77245 0.33906
 C872 C 0.34757 0.75111 0.33343
 C873 C 0.35168 0.72742 0.34953
 C874 C 0.37148 0.72542 0.37060
 H875 H 0.44879 0.70514 0.43928
 H876 H 0.44058 0.79209 0.43556
 H877 H 0.36166 0.79100 0.32700
 H878 H 0.33912 0.71068 0.34635
 H879 H 0.41509 0.70325 0.40179
 H880 H 0.37359 0.70724 0.38324
 C881 C 0.25160 0.90671 0.10389
 C882 C 0.22771 0.91916 0.09253
 C883 C 0.22920 0.93876 0.07147
 C884 C 0.25434 0.94624 0.06180
 C885 C 0.27770 0.93359 0.07393
 N886 N 0.27574 0.91449 0.09433
 C887 C 0.25159 0.88573 0.12630
 N888 N 0.27468 0.88000 0.14136
 C889 C 0.27663 0.86085 0.16198
 C890 C 0.25440 0.84600 0.16855
 C891 C 0.23043 0.85141 0.15322
 C892 C 0.22895 0.87110 0.13206
 H893 H 0.21065 0.94819 0.06292
 H894 H 0.29752 0.93879 0.06722
 H895 H 0.29545 0.85746 0.17340
 H896 H 0.21298 0.84000 0.15718
 H897 H 0.20804 0.91434 0.09996
 H898 H 0.21043 0.87420 0.12012
 C899 C 0.75353 0.40184 0.59787
 C900 C 0.72894 0.41407 0.58805
 C901 C 0.72901 0.43405 0.56728
 C902 C 0.75344 0.44219 0.55637
 C903 C 0.77759 0.42975 0.56695
 N904 N 0.77702 0.41022 0.58713
 C905 C 0.75482 0.38058 0.62003
 N906 N 0.77836 0.37537 0.63446
 C907 C 0.78120 0.35624 0.65509
 C908 C 0.75944 0.34100 0.66236
 C909 C 0.73510 0.34577 0.64754
 C910 C 0.73272 0.36535 0.62634
 H911 H 0.70989 0.44331 0.56000
 H912 H 0.79690 0.43548 0.55924
 H913 H 0.80032 0.35324 0.66603
 H914 H 0.71802 0.33398 0.65199
 H915 H 0.70977 0.40884 0.59653
 H916 H 0.71392 0.36796 0.61483
 C917 C 0.72433 0.10150 0.09600
 C918 C 0.70075 0.08903 0.08866
 C919 C 0.70201 0.06834 0.06859
 C920 C 0.72669 0.05995 0.05589
 C921 C 0.74974 0.07311 0.06363
 N922 N 0.74797 0.09333 0.08309
 C923 C 0.72422 0.12346 0.11718
 N924 N 0.74296 0.14214 0.11509
 C925 C 0.74447 0.16255 0.13413
 C926 C 0.72670 0.16467 0.15725
 C927 C 0.70733 0.14554 0.15993
 C928 C 0.70596 0.12498 0.13994
 H929 H 0.68370 0.05886 0.06311
 H930 H 0.76914 0.06746 0.05415
 H931 H 0.75992 0.17671 0.13154
 H932 H 0.69323 0.14653 0.17747
 H933 H 0.68144 0.09541 0.09790
 H934 H 0.69122 0.11013 0.14276
 C935 C 0.24019 0.60335 0.59833
 C936 C 0.26444 0.59383 0.58541
 C937 C 0.26439 0.57251 0.56618
 C938 C 0.24027 0.56069 0.55966
 C939 C 0.21650 0.57066 0.57319
 N940 N 0.21708 0.59132 0.59205
 C941 C 0.23926 0.62557 0.61922
 N942 N 0.22042 0.62606 0.64021
 C943 C 0.21871 0.64557 0.66046
 C944 C 0.23653 0.66634 0.66016
 C945 C 0.25569 0.66659 0.63835
 C946 C 0.25716 0.64626 0.61790
 H947 H 0.28322 0.56538 0.55632
 H948 H 0.19749 0.56200 0.56893
 H949 H 0.20341 0.64489 0.67673
 H950 H 0.26986 0.68222 0.63744
 H951 H 0.28335 0.60235 0.59044
 H952 H 0.27197 0.64695 0.60114
 C953 C 0.91021 0.73509 0.10505
 C954 C 0.92251 0.71110 0.09380
 C955 C 0.94151 0.71238 0.07211
 C956 C 0.94820 0.73740 0.06136
 C957 C 0.93520 0.76086 0.07289
 N958 N 0.91683 0.75912 0.09405
 C959 C 0.88974 0.73525 0.12797
 N960 N 0.87326 0.75795 0.13195
 C961 C 0.85386 0.75980 0.15231
 C962 C 0.85005 0.73781 0.17023
 C963 C 0.86708 0.71435 0.16686
 C964 C 0.88697 0.71300 0.14593
 H965 H 0.95085 0.69375 0.06369
 H966 H 0.93965 0.78061 0.06520
 H967 H 0.84107 0.77822 0.15405
 H968 H 0.86521 0.69712 0.18063
 H969 H 0.91736 0.69149 0.10113
 H970 H 0.90013 0.69486 0.14433
 C971 C 0.41029 0.23450 0.60313
 C972 C 0.42235 0.21070 0.59125
 C973 C 0.44140 0.21232 0.56968
 C974 C 0.44838 0.23753 0.55968
 C975 C 0.43564 0.26081 0.57185
 N976 N 0.41721 0.25872 0.59288
 C977 C 0.38976 0.23431 0.62593
 N978 N 0.37360 0.25712 0.63054
 C979 C 0.35424 0.25872 0.65094
 C980 C 0.35016 0.23637 0.66823
 C981 C 0.36680 0.21275 0.66416
 C982 C 0.38665 0.21165 0.64320
 H983 H 0.45053 0.19383 0.56073
 H984 H 0.44032 0.28067 0.56474
 H985 H 0.34176 0.27728 0.65325
 H986 H 0.36471 0.19523 0.67745
 H987 H 0.41695 0.19098 0.59797
 H988 H 0.39955 0.19337 0.64108
 C989 C 0.09580 0.26474 0.10249
 C990 C 0.08618 0.28776 0.08736
 C991 C 0.06678 0.28543 0.06625
 C992 C 0.05696 0.26024 0.06010
 C993 C 0.06686 0.23778 0.07595
 N994 N 0.08565 0.24059 0.09652
 C995 C 0.11638 0.26601 0.12503
 N996 N 0.11677 0.24763 0.14648
 C997 C 0.13531 0.24728 0.16771
 C998 C 0.15528 0.26596 0.16789
 C999 C 0.15546 0.28491 0.14585
 C1000 C 0.13604 0.28506 0.12444
 H1001 H 0.05959 0.30331 0.05467
 H1002 H 0.05967 0.21803 0.07206
 H1003 H 0.13476 0.23208 0.18411
 H1004 H 0.17054 0.29966 0.14526
 H1005 H 0.09319 0.30745 0.09198
 H1006 H 0.13686 0.29954 0.10737
 C1007 C 0.59594 0.76099 0.60395
 C1008 C 0.58016 0.78423 0.59588
 C1009 C 0.56107 0.78261 0.57435
 C1010 C 0.55756 0.75792 0.56083
 C1011 C 0.57390 0.73521 0.56935
 N1012 N 0.59250 0.73732 0.59028
 C1013 C 0.61661 0.76161 0.62651
 N1014 N 0.63844 0.74355 0.62553
 C1015 C 0.65819 0.74287 0.64554
 C1016 C 0.65645 0.76090 0.66848
 C1017 C 0.63394 0.77944 0.67015
 C1018 C 0.61404 0.77990 0.64923
 H1019 H 0.54901 0.80068 0.56835
 H1020 H 0.57202 0.71582 0.55934
 H1021 H 0.67503 0.72798 0.64375
 H1022 H 0.63187 0.79370 0.68750
 H1023 H 0.58278 0.80357 0.60567
 H1024 H 0.59666 0.79410 0.65119
   
