data_POSCAR
  _audit_creation_date              2014-09-24
  _audit_creation_method            'ToBaCCo'
  _symmetry_space_group_name_H-M    'P1'
  _symmetry_Int_Tables_number       1
  _symmetry_cell_setting            triclinic
  loop_
  _symmetry_equiv_pos_as_xyz
 x,y,z
_cell_length_a 30.7587
_cell_length_b 30.7510
_cell_length_c 30.7489
_cell_angle_alpha 90.049700
_cell_angle_beta 90.049100
_cell_angle_gamma 89.999300
loop_
  _atom_site_label
  _atom_site_type_symbol
  _atom_site_fract_x
  _atom_site_fract_y
  _atom_site_fract_z
O1 O 0.28749 1.04152 0.04151
 O2 O 0.28733 0.95716 -0.04336
 O3 O 0.28578 1.04191 -0.04313
 O4 O 0.28588 0.95689 0.04132
 O5 O 0.21398 0.95702 0.04123
 O6 O 0.21387 1.04180 -0.04298
 O7 O 0.21544 0.95709 -0.04340
 O8 O 0.21558 1.04162 0.04163
 Cu9 Cu 0.29388 0.99936 -0.00095
 Cu10 Cu 0.20746 0.99938 -0.00090
 C11 C 0.25163 1.05581 0.05591
 C12 C 0.25143 0.94282 -0.05768
 C13 C 0.24972 1.05623 -0.05724
 C14 C 0.24986 0.94265 0.05553
 O15 O 0.71635 0.54230 0.54238
 O16 O 0.71632 0.45776 0.45737
 O17 O 0.71480 0.45759 0.54208
 O18 O 0.71481 0.54246 0.45766
 O19 O 0.78670 0.54256 0.45759
 O20 O 0.78670 0.45745 0.54225
 O21 O 0.78822 0.45782 0.45750
 O22 O 0.78825 0.54220 0.54235
 Cu23 Cu 0.70834 0.50003 0.49987
 Cu24 Cu 0.79471 0.50001 0.49993
 C25 C 0.75237 0.55651 0.55669
 C26 C 0.75233 0.44353 0.44311
 C27 C 0.75066 0.44316 0.55644
 C28 C 0.75067 0.55686 0.44335
 O29 O 0.78418 0.95777 1.04426
 O30 O 0.78437 1.04224 0.95920
 O31 O 0.78559 1.04254 1.04392
 O32 O 0.78595 0.95758 0.95959
 O33 O 0.71405 0.95740 0.95920
 O34 O 0.71371 1.04260 1.04376
 O35 O 0.71247 1.04211 0.95901
 O36 O 0.71230 0.95778 1.04393
 Cu37 Cu 0.79226 1.00005 1.00180
 Cu38 Cu 0.70589 0.99997 1.00147
 C39 C 0.74815 0.94346 1.05840
 C40 C 0.74839 1.05640 0.94473
 C41 C 0.74968 1.05698 1.05807
 C42 C 0.75014 0.94315 0.94513
 O43 O 0.21222 0.45815 0.54232
 O44 O 0.21212 0.54228 0.45753
 O45 O 0.21375 0.45760 0.45766
 O46 O 0.21373 0.54279 0.54223
 O47 O 0.28564 0.54273 0.54213
 O48 O 0.28565 0.45777 0.45781
 O49 O 0.28403 0.54241 0.45748
 O50 O 0.28414 0.45812 0.54243
 Cu51 Cu 0.20570 0.50021 0.49992
 Cu52 Cu 0.29212 0.50027 0.49995
 C53 C 0.24813 0.44394 0.55669
 C54 C 0.24799 0.55654 0.44318
 C55 C 0.24979 0.44331 0.44349
 C56 C 0.24977 0.55709 0.55646
 O57 O 1.04187 0.21535 0.04141
 O58 O 0.95691 0.21547 -0.04315
 O59 O 1.04156 0.21410 -0.04319
 O60 O 0.95726 0.21366 0.04149
 O61 O 0.95701 0.28559 0.04189
 O62 O 1.04155 0.28602 -0.04302
 O63 O 0.95687 0.28738 -0.04279
 O64 O 1.04165 0.28728 0.04162
 Cu65 Cu 0.99940 0.20739 -0.00090
 Cu66 Cu 0.99925 0.29383 -0.00056
 C67 C 1.05610 0.25136 0.05576
 C68 C 0.94255 0.25151 -0.05723
 C69 C 1.05584 0.25004 -0.05738
 C70 C 0.94290 0.24947 0.05601
 O71 O 0.54242 0.78783 0.54254
 O72 O 0.45765 0.78788 0.45811
 O73 O 0.45775 0.78644 0.54287
 O74 O 0.54242 0.78647 0.45780
 O75 O 0.54230 0.71457 0.45781
 O76 O 0.45785 0.71453 0.54266
 O77 O 0.45757 0.71596 0.45795
 O78 O 0.54248 0.71590 0.54252
 Cu79 Cu 0.50006 0.79440 0.50032
 Cu80 Cu 0.50005 0.70800 0.50021
 C81 C 0.55675 0.75191 0.55681
 C82 C 0.44328 0.75199 0.44378
 C83 C 0.44355 0.75041 0.55714
 C84 C 0.55666 0.75045 0.44348
 O85 O 0.04243 0.71271 -0.04373
 O86 O -0.04243 0.71279 0.04067
 O87 O -0.04240 0.71415 -0.04406
 O88 O 0.04225 0.71388 0.04102
 O89 O 0.04229 0.78580 0.04105
 O90 O -0.04215 0.78605 -0.04384
 O91 O -0.04234 0.78471 0.04086
 O92 O 0.04264 0.78461 -0.04365
 Cu93 Cu -0.00005 0.70614 -0.00157
 Cu94 Cu 0.00012 0.79253 -0.00142
 C95 C 0.05694 0.74860 -0.05790
 C96 C -0.05669 0.74871 0.05505
 C97 C -0.05662 0.75021 -0.05824
 C98 C 0.05651 0.74987 0.05541
 O99 O 0.54264 0.28412 0.45797
 O100 O 0.45778 0.28422 0.54231
 O101 O 0.54240 0.28557 0.54261
 O102 O 0.45803 0.28558 0.45768
 O103 O 0.45788 0.21366 0.45755
 O104 O 0.54247 0.21365 0.54270
 O105 O 0.45781 0.21229 0.54221
 O106 O 0.54252 0.21219 0.45802
 Cu107 Cu 0.50022 0.29213 0.50015
 Cu108 Cu 0.50017 0.20568 0.50012
 C109 C 0.55687 0.24808 0.44377
 C110 C 0.44348 0.24821 0.55647
 C111 C 0.55670 0.24968 0.55700
 C112 C 0.44369 0.24970 0.44327
 O113 O 1.04158 0.04158 0.28825
 O114 O 0.95725 -0.04334 0.28827
 O115 O 1.04197 -0.04311 0.28636
 O116 O 0.95691 0.04137 0.28652
 O117 O 0.95692 0.04121 0.21459
 O118 O 1.04168 -0.04297 0.21443
 O119 O 0.95702 -0.04343 0.21636
 O120 O 1.04154 0.04167 0.21633
 Cu121 Cu 0.99944 -0.00089 0.29460
 Cu122 Cu 0.99927 -0.00089 0.20818
 C123 C 1.05581 0.05598 0.25236
 C124 C 0.94285 -0.05772 0.25239
 C125 C 1.05618 -0.05724 0.25026
 C126 C 0.94261 0.05554 0.25048
 O127 O 0.54237 0.54258 0.71754
 O128 O 0.45796 0.45766 0.71745
 O129 O 0.45768 0.54235 0.71579
 O130 O 0.54258 0.45797 0.71566
 O131 O 0.54279 0.45780 0.78758
 O132 O 0.45760 0.54247 0.78770
 O133 O 0.45811 0.45773 0.78938
 O134 O 0.54235 0.54248 0.78947
 Cu135 Cu 0.50012 0.50016 0.70937
 Cu136 Cu 0.50021 0.50013 0.79578
 C137 C 0.55664 0.55679 0.75360
 C138 C 0.44383 0.44336 0.75347
 C139 C 0.44327 0.55668 0.75166
 C140 C 0.55706 0.44363 0.75150
 O141 O 0.95715 1.04363 0.78360
 O142 O 1.04166 0.95857 0.78347
 O143 O 1.04182 1.04319 0.78497
 O144 O 0.95712 0.95895 0.78544
 O145 O 0.95668 0.95860 0.71351
 O146 O 1.04166 1.04312 0.71304
 O147 O 1.04128 0.95845 0.71154
 O148 O 0.95692 1.04336 0.71169
 Cu149 Cu 0.99945 1.00112 0.79162
 Cu150 Cu 0.99908 1.00089 0.70519
 C151 C 0.94277 1.05785 0.74760
 C152 C 1.05571 0.94415 0.74742
 C153 C 1.05610 1.05735 0.74903
 C154 C 0.94265 0.94447 0.74965
 O155 O 0.45807 0.54234 0.21093
 O156 O 0.54224 0.45754 0.21089
 O157 O 0.45756 0.45765 0.21271
 O158 O 0.54274 0.54231 0.21267
 O159 O 0.54269 0.54222 0.28458
 O160 O 0.45780 0.45786 0.28463
 O161 O 0.54241 0.45752 0.28282
 O162 O 0.45808 0.54249 0.28286
 Cu163 Cu 0.50015 0.49995 0.20455
 Cu164 Cu 0.50027 0.50003 0.29097
 C165 C 0.44386 0.55673 0.24683
 C166 C 0.55651 0.44318 0.24678
 C167 C 0.44331 0.44349 0.24878
 C168 C 0.55704 0.55657 0.24872
 O169 O 0.25038 0.13686 0.18946
 O170 O 0.29780 0.12437 0.24997
 O171 O 0.13693 0.18960 0.25146
 O172 O 0.12117 0.24590 0.29457
 O173 O 0.18967 0.25034 0.13669
 O174 O 0.25001 0.29787 0.12445
 O175 O 0.25119 0.30956 0.36249
 O176 O 0.20078 0.25250 0.37409
 O177 O 0.36230 0.25081 0.30973
 O178 O 0.37610 0.20239 0.24786
 O179 O 0.30969 0.36223 0.25076
 O180 O 0.24750 0.37573 0.20236
 O181 O 0.25112 0.36189 0.31019
 O182 O 0.20133 0.37499 0.24809
 O183 O 0.36208 0.31001 0.25068
 O184 O 0.37490 0.24736 0.20110
 O185 O 0.31019 0.25121 0.36223
 O186 O 0.25066 0.20157 0.37574
 O187 O 0.25052 0.18916 0.13701
 O188 O 0.29857 0.24982 0.12490
 O189 O 0.13729 0.24989 0.18901
 O190 O 0.12742 0.30093 0.24958
 O191 O 0.18919 0.13709 0.25038
 O192 O 0.24981 0.12491 0.29846
 Zr193 Zr 0.24815 0.17187 0.24830
 O194 O 0.28902 0.20913 0.28865
 Zr195 Zr 0.17188 0.24833 0.24816
 O196 O 0.20925 0.28866 0.28920
 Zr197 Zr 0.24838 0.24811 0.17181
 O198 O 0.28882 0.28893 0.20911
 Zr199 Zr 0.25128 0.25083 0.32746
 O200 O 0.20985 0.20994 0.29050
 Zr201 Zr 0.32741 0.25098 0.25079
 O202 O 0.29037 0.20968 0.20986
 Zr203 Zr 0.25085 0.32726 0.25109
 O204 O 0.20996 0.29022 0.20970
 O205 O 0.20787 0.20789 0.20781
 O206 O 0.29191 0.29177 0.29177
 C207 C 0.25130 0.14938 0.14965
 C208 C 0.14943 0.14975 0.25182
 C209 C 0.14989 0.25095 0.14923
 C210 C 0.25106 0.34935 0.34997
 C211 C 0.34991 0.25089 0.34956
 C212 C 0.34949 0.34978 0.25052
 H213 H 0.30714 0.18935 0.30631
 H214 H 0.30662 0.30689 0.18932
 H215 H 0.18927 0.18921 0.18932
 H216 H 0.18973 0.30637 0.30759
 H217 H 0.17864 0.23109 0.36460
 H218 H 0.13056 0.26315 0.32005
 H219 H 0.36915 0.27112 0.18021
 H220 H 0.32119 0.22923 0.13490
 H221 H 0.27242 0.17930 0.36777
 H222 H 0.22931 0.13501 0.32113
 H223 H 0.26989 0.36901 0.18029
 H224 H 0.23012 0.32098 0.13477
 H225 H 0.32100 0.13472 0.23022
 H226 H 0.36912 0.18012 0.26996
 H227 H 0.13629 0.32140 0.22639
 H228 H 0.18040 0.36899 0.27174
 O229 O 0.74964 0.86361 0.18982
 O230 O 0.70243 0.87599 0.25043
 O231 O 0.86327 0.81059 0.25134
 O232 O 0.87920 0.75426 0.29416
 O233 O 0.81001 0.75006 0.13646
 O234 O 0.74956 0.70271 0.12419
 O235 O 0.74928 0.69060 0.36238
 O236 O 0.79972 0.74758 0.37406
 O237 O 0.63799 0.74947 0.30994
 O238 O 0.62398 0.79789 0.24830
 O239 O 0.69045 0.63806 0.25055
 O240 O 0.75228 0.62447 0.20216
 O241 O 0.74919 0.63833 0.30993
 O242 O 0.79892 0.62548 0.24752
 O243 O 0.63806 0.69028 0.25072
 O244 O 0.62510 0.75304 0.20131
 O245 O 0.69026 0.74899 0.36237
 O246 O 0.75000 0.79867 0.37580
 O247 O 0.74925 0.81143 0.13717
 O248 O 0.70099 0.75076 0.12504
 O249 O 0.86260 0.75034 0.18866
 O250 O 0.87260 0.69922 0.24918
 O251 O 0.81105 0.86315 0.25060
 O252 O 0.75060 0.87527 0.29887
 Zr253 Zr 0.75204 0.82844 0.24852
 O254 O 0.71127 0.79114 0.28884
 Zr255 Zr 0.82825 0.75191 0.24794
 O256 O 0.79101 0.71160 0.28902
 Zr257 Zr 0.75144 0.75235 0.17176
 O258 O 0.71117 0.71146 0.20907
 Zr259 Zr 0.74910 0.74937 0.32748
 O260 O 0.79045 0.79025 0.29052
 Zr261 Zr 0.67272 0.74934 0.25094
 O262 O 0.70962 0.79072 0.21007
 Zr263 Zr 0.74927 0.67305 0.25089
 O264 O 0.78996 0.71012 0.20944
 O265 O 0.79214 0.79246 0.20781
 O266 O 0.70834 0.70848 0.29175
 C267 C 0.74858 0.85120 0.14995
 C268 C 0.85081 0.85045 0.25187
 C269 C 0.84985 0.74935 0.14889
 C270 C 0.74936 0.65081 0.34977
 C271 C 0.65049 0.74934 0.34977
 C272 C 0.65065 0.65051 0.25042
 H273 H 0.69321 0.81090 0.30658
 H274 H 0.69330 0.69351 0.18927
 H275 H 0.81069 0.81114 0.18934
 H276 H 0.81058 0.69386 0.30733
 H277 H 0.82191 0.76889 0.36455
 H278 H 0.86985 0.73715 0.31971
 H279 H 0.63074 0.72927 0.18038
 H280 H 0.67851 0.77147 0.13512
 H281 H 0.72803 0.82082 0.36808
 H282 H 0.77119 0.86512 0.32145
 H283 H 0.73010 0.63146 0.17994
 H284 H 0.76938 0.67951 0.13443
 H285 H 0.67915 0.86567 0.23071
 H286 H 0.63115 0.82024 0.27031
 H287 H 0.86372 0.67886 0.22585
 H288 H 0.81971 0.63119 0.27141
 O289 O 0.74998 0.13714 0.81094
 O290 O 0.70250 0.12459 0.75040
 O291 O 0.86344 0.18970 0.74874
 O292 O 0.87924 0.24593 0.70571
 O293 O 0.81076 0.25070 0.86358
 O294 O 0.75047 0.29834 0.87579
 O295 O 0.74927 0.30951 0.63768
 O296 O 0.79968 0.25233 0.62620
 O297 O 0.63812 0.25089 0.69053
 O298 O 0.62433 0.20261 0.75242
 O299 O 0.69075 0.36243 0.74942
 O300 O 0.75292 0.37608 0.79774
 O301 O 0.74935 0.36196 0.68994
 O302 O 0.79918 0.37511 0.75210
 O303 O 0.63836 0.31021 0.74956
 O304 O 0.62551 0.24772 0.79914
 O305 O 0.69022 0.25117 0.63802
 O306 O 0.74969 0.20149 0.62451
 O307 O 0.74985 0.18958 0.86335
 O308 O 0.70184 0.25035 0.87536
 O309 O 0.86313 0.25009 0.81125
 O310 O 0.87300 0.30104 0.75069
 O311 O 0.81116 0.13722 0.74992
 O312 O 0.75052 0.12491 0.70196
 Zr313 Zr 0.75222 0.17203 0.75205
 O314 O 0.71140 0.20923 0.71164
 Zr315 Zr 0.82852 0.24847 0.75210
 O316 O 0.79119 0.28872 0.71102
 Zr317 Zr 0.75204 0.24845 0.82847
 O318 O 0.71163 0.28921 0.79112
 Zr319 Zr 0.74913 0.25084 0.67278
 O320 O 0.79052 0.20999 0.70979
 Zr321 Zr 0.67301 0.25118 0.74947
 O322 O 0.71002 0.20996 0.79045
 Zr323 Zr 0.74959 0.32744 0.74909
 O324 O 0.79046 0.29047 0.79053
 O325 O 0.79253 0.20812 0.79249
 O326 O 0.70852 0.29188 0.70844
 C327 C 0.74905 0.14976 0.85076
 C328 C 0.85092 0.14986 0.74841
 C329 C 0.85054 0.25123 0.85103
 C330 C 0.74940 0.34934 0.65015
 C331 C 0.65050 0.25089 0.65070
 C332 C 0.65095 0.34998 0.74970
 H333 H 0.69326 0.18942 0.69399
 H334 H 0.69384 0.30723 0.81089
 H335 H 0.81112 0.18946 0.81098
 H336 H 0.81071 0.30639 0.69262
 H337 H 0.82177 0.23090 0.63571
 H338 H 0.86986 0.26311 0.68021
 H339 H 0.63132 0.27148 0.82006
 H340 H 0.67922 0.22971 0.86539
 H341 H 0.72799 0.17921 0.63254
 H342 H 0.77094 0.13499 0.67922
 H343 H 0.73064 0.36933 0.81990
 H344 H 0.77038 0.32140 0.86544
 H345 H 0.67935 0.13497 0.77021
 H346 H 0.63128 0.18029 0.73032
 H347 H 0.86415 0.32155 0.77388
 H348 H 0.82006 0.36909 0.72841
 O349 O 0.25006 0.86322 0.81080
 O350 O 0.29755 0.87570 0.75049
 O351 O 0.13670 0.81046 0.74843
 O352 O 0.12098 0.75413 0.70532
 O353 O 0.18917 0.74970 0.86342
 O354 O 0.24958 0.70215 0.87580
 O355 O 0.25111 0.69060 0.63773
 O356 O 0.20073 0.74759 0.62599
 O357 O 0.36216 0.74932 0.69078
 O358 O 0.37565 0.79793 0.75297
 O359 O 0.30953 0.63788 0.74963
 O360 O 0.24736 0.62427 0.79778
 O361 O 0.25100 0.63825 0.69000
 O362 O 0.20113 0.62512 0.75202
 O363 O 0.36191 0.69012 0.74986
 O364 O 0.37482 0.75254 0.79933
 O365 O 0.31010 0.74892 0.63815
 O366 O 0.25050 0.79865 0.62461
 O367 O 0.25010 0.81094 0.86327
 O368 O 0.29808 0.75027 0.87558
 O369 O 0.13689 0.75015 0.81092
 O370 O 0.12721 0.69909 0.75031
 O371 O 0.18896 0.86296 0.74968
 O372 O 0.24963 0.87515 0.70184
 Zr373 Zr 0.24791 0.82819 0.75198
 O374 O 0.28885 0.79098 0.71171
 Zr375 Zr 0.17163 0.75171 0.75189
 O376 O 0.20909 0.71144 0.71092
 Zr377 Zr 0.24799 0.75196 0.82848
 O378 O 0.28854 0.71119 0.79126
 Zr379 Zr 0.25115 0.74929 0.67279
 O380 O 0.20965 0.79013 0.70966
 Zr381 Zr 0.32720 0.74913 0.74968
 O382 O 0.29006 0.79037 0.79054
 Zr383 Zr 0.25067 0.67284 0.74914
 O384 O 0.20968 0.70982 0.79044
 O385 O 0.20754 0.79217 0.79234
 O386 O 0.29176 0.70834 0.70857
 C387 C 0.25091 0.85072 0.85061
 C388 C 0.14921 0.85030 0.74810
 C389 C 0.14939 0.74908 0.85075
 C390 C 0.25098 0.65081 0.65022
 C391 C 0.34982 0.74924 0.65090
 C392 C 0.34934 0.65034 0.74997
 H393 H 0.30698 0.81077 0.69412
 H394 H 0.30632 0.69322 0.81109
 H395 H 0.18891 0.81085 0.81078
 H396 H 0.18960 0.69372 0.69247
 H397 H 0.17853 0.76893 0.63545
 H398 H 0.13041 0.73689 0.67986
 H399 H 0.36874 0.72909 0.82046
 H400 H 0.32077 0.77077 0.86558
 H401 H 0.27245 0.82078 0.63249
 H402 H 0.22920 0.86504 0.67908
 H403 H 0.26958 0.63112 0.82002
 H404 H 0.22967 0.67907 0.86542
 H405 H 0.32075 0.86531 0.77025
 H406 H 0.36903 0.81990 0.73045
 H407 H 0.13604 0.67863 0.77355
 H408 H 0.18026 0.63107 0.72827
 O409 O 0.24956 0.36302 0.69003
 O410 O 0.20215 0.37556 0.75051
 O411 O 0.36284 0.30993 0.75217
 O412 O 0.37857 0.25354 0.79500
 O413 O 0.31005 0.24947 0.63705
 O414 O 0.24961 0.20211 0.62451
 O415 O 0.24835 0.19015 0.86245
 O416 O 0.29887 0.24712 0.87441
 O417 O 0.13741 0.24932 0.80959
 O418 O 0.12390 0.29797 0.74775
 O419 O 0.18980 0.13790 0.75061
 O420 O 0.25189 0.12422 0.70216
 O421 O 0.24837 0.13792 0.80996
 O422 O 0.29809 0.12478 0.74793
 O423 O 0.13755 0.19028 0.75056
 O424 O 0.12477 0.25279 0.70110
 O425 O 0.18947 0.24859 0.86224
 O426 O 0.24910 0.29812 0.87611
 O427 O 0.24934 0.31078 0.63742
 O428 O 0.20121 0.25025 0.62497
 O429 O 0.36240 0.24976 0.68949
 O430 O 0.37214 0.19861 0.74994
 O431 O 0.31068 0.36255 0.75109
 O432 O 0.25016 0.37492 0.79899
 Zr433 Zr 0.25171 0.32796 0.74875
 O434 O 0.21077 0.29080 0.78893
 Zr435 Zr 0.32781 0.25131 0.74855
 O436 O 0.29037 0.21105 0.78940
 Zr437 Zr 0.25135 0.25181 0.67202
 O438 O 0.21081 0.21109 0.70910
 Zr439 Zr 0.24841 0.24894 0.82766
 O440 O 0.28993 0.28977 0.79092
 Zr441 Zr 0.17234 0.24915 0.75079
 O442 O 0.20945 0.29035 0.71005
 Zr443 Zr 0.24871 0.17265 0.75103
 O444 O 0.28970 0.20958 0.70984
 O445 O 0.29193 0.29189 0.70825
 O446 O 0.20772 0.20819 0.79171
 C447 C 0.24862 0.35052 0.65020
 C448 C 0.35038 0.34978 0.75261
 C449 C 0.34980 0.24876 0.64970
 C450 C 0.24843 0.15040 0.84977
 C451 C 0.14978 0.24908 0.84944
 C452 C 0.15006 0.15051 0.75039
 H453 H 0.19269 0.31061 0.80660
 H454 H 0.19297 0.19319 0.68923
 H455 H 0.31058 0.31056 0.68986
 H456 H 0.30984 0.19327 0.80776
 H457 H 0.32106 0.26848 0.86503
 H458 H 0.36909 0.23642 0.82049
 H459 H 0.13055 0.22912 0.68009
 H460 H 0.17860 0.27084 0.63500
 H461 H 0.22735 0.32042 0.86821
 H462 H 0.27050 0.36468 0.82175
 H463 H 0.22943 0.13096 0.68014
 H464 H 0.26942 0.17893 0.63482
 H465 H 0.17898 0.36536 0.73061
 H466 H 0.13070 0.32001 0.77019
 H467 H 0.36331 0.17822 0.72662
 H468 H 0.31905 0.13069 0.77163
 O469 O 0.75109 0.63742 0.69028
 O470 O 0.79867 0.62488 0.75060
 O471 O 0.63773 0.68994 0.75274
 O472 O 0.62168 0.74609 0.79560
 O473 O 0.69012 0.75090 0.63782
 O474 O 0.75030 0.79853 0.62554
 O475 O 0.75192 0.80964 0.86377
 O476 O 0.70180 0.75244 0.87543
 O477 O 0.86308 0.75137 0.81046
 O478 O 0.87687 0.70321 0.74854
 O479 O 0.80980 0.86277 0.75203
 O480 O 0.74784 0.87654 0.70409
 O481 O 0.75150 0.86209 0.81160
 O482 O 0.70126 0.87497 0.74941
 O483 O 0.86237 0.81071 0.75165
 O484 O 0.87530 0.74822 0.70181
 O485 O 0.81115 0.75154 0.86314
 O486 O 0.75161 0.70148 0.87656
 O487 O 0.75105 0.68982 0.63793
 O488 O 0.79902 0.75070 0.62593
 O489 O 0.63784 0.75026 0.69023
 O490 O 0.62809 0.80127 0.75112
 O491 O 0.69007 0.63750 0.75139
 O492 O 0.75084 0.62525 0.79922
 Zr493 Zr 0.74895 0.67232 0.74918
 O494 O 0.78983 0.70953 0.78954
 Zr495 Zr 0.67251 0.74866 0.74935
 O496 O 0.70983 0.78885 0.79054
 Zr497 Zr 0.74886 0.74871 0.67285
 O498 O 0.78918 0.78955 0.71021
 Zr499 Zr 0.75209 0.75102 0.82857
 O500 O 0.71064 0.71022 0.79154
 Zr501 Zr 0.82798 0.75158 0.75167
 O502 O 0.79100 0.71027 0.71073
 Zr503 Zr 0.75117 0.82764 0.75240
 O504 O 0.71039 0.79067 0.71088
 O505 O 0.70850 0.70835 0.70886
 O506 O 0.79247 0.79217 0.79286
 C507 C 0.75192 0.65003 0.65049
 C508 C 0.65032 0.65014 0.75300
 C509 C 0.65037 0.75142 0.65043
 C510 C 0.75162 0.84945 0.85136
 C511 C 0.85083 0.75135 0.85034
 C512 C 0.84961 0.85041 0.75164
 H513 H 0.80806 0.68975 0.80708
 H514 H 0.80687 0.80763 0.69043
 H515 H 0.68989 0.68966 0.69037
 H516 H 0.69030 0.80644 0.80903
 H517 H 0.67957 0.73118 0.86585
 H518 H 0.63125 0.76281 0.82137
 H519 H 0.86951 0.77211 0.68108
 H520 H 0.82162 0.72999 0.63576
 H521 H 0.77380 0.67958 0.86877
 H522 H 0.73047 0.63530 0.82202
 H523 H 0.76969 0.86954 0.68157
 H524 H 0.73041 0.82161 0.63596
 H525 H 0.82182 0.63533 0.73086
 H526 H 0.86992 0.68076 0.77047
 H527 H 0.63659 0.82161 0.72768
 H528 H 0.68079 0.86927 0.77353
 O529 O 0.24941 0.63720 0.30973
 O530 O 0.20213 0.62445 0.24917
 O531 O 0.36283 0.69007 0.24784
 O532 O 0.37877 0.74637 0.20505
 O533 O 0.30980 0.75086 0.36263
 O534 O 0.24931 0.79838 0.37466
 O535 O 0.24869 0.80933 0.13662
 O536 O 0.29918 0.75239 0.12511
 O537 O 0.13758 0.75065 0.18915
 O538 O 0.12396 0.70197 0.25121
 O539 O 0.18984 0.86212 0.24821
 O540 O 0.25174 0.87608 0.29658
 O541 O 0.24847 0.86178 0.18889
 O542 O 0.29819 0.87513 0.25114
 O543 O 0.13756 0.80976 0.24822
 O544 O 0.12450 0.74745 0.29755
 O545 O 0.18981 0.75105 0.13676
 O546 O 0.24956 0.70122 0.12356
 O547 O 0.24906 0.68961 0.36216
 O548 O 0.20091 0.75020 0.37420
 O549 O 0.36228 0.75039 0.31042
 O550 O 0.37210 0.80145 0.24981
 O551 O 0.31066 0.63746 0.24889
 O552 O 0.25021 0.62493 0.20083
 Zr553 Zr 0.25168 0.67207 0.25091
 O554 O 0.21084 0.70906 0.21038
 Zr555 Zr 0.32782 0.74871 0.25120
 O556 O 0.29048 0.78877 0.20999
 Zr557 Zr 0.25118 0.74847 0.32737
 O558 O 0.21073 0.78904 0.28992
 Zr559 Zr 0.24863 0.75073 0.17168
 O560 O 0.29005 0.71009 0.20880
 Zr561 Zr 0.17232 0.75088 0.24818
 O562 O 0.20934 0.70984 0.28927
 Zr563 Zr 0.24873 0.82734 0.24801
 O564 O 0.28960 0.79058 0.28957
 O565 O 0.29183 0.70825 0.29146
 O566 O 0.20785 0.79165 0.20727
 C567 C 0.24838 0.64983 0.34952
 C568 C 0.35036 0.65023 0.24745
 C569 C 0.34961 0.75150 0.35017
 C570 C 0.24867 0.84912 0.14913
 C571 C 0.15006 0.75074 0.14934
 C572 C 0.15009 0.84953 0.24840
 H573 H 0.19281 0.68920 0.19270
 H574 H 0.19285 0.80701 0.30966
 H575 H 0.31043 0.68964 0.30999
 H576 H 0.31001 0.80648 0.19163
 H577 H 0.32142 0.73117 0.13472
 H578 H 0.36932 0.76329 0.17940
 H579 H 0.13048 0.77092 0.31874
 H580 H 0.17833 0.72957 0.36415
 H581 H 0.22741 0.67923 0.13117
 H582 H 0.27057 0.63509 0.17809
 H583 H 0.22956 0.86917 0.31878
 H584 H 0.26929 0.82144 0.36443
 H585 H 0.17885 0.63483 0.26882
 H586 H 0.13062 0.68006 0.22861
 H587 H 0.36325 0.82185 0.27310
 H588 H 0.31908 0.86924 0.22742
 O589 O 0.75071 0.36227 0.30968
 O590 O 0.79806 0.37450 0.24905
 O591 O 0.63708 0.30954 0.24786
 O592 O 0.62091 0.25319 0.20510
 O593 O 0.69007 0.24894 0.36275
 O594 O 0.75040 0.20142 0.37504
 O595 O 0.75075 0.18920 0.13697
 O596 O 0.70022 0.24632 0.12537
 O597 O 0.86197 0.24802 0.18946
 O598 O 0.87603 0.29651 0.25127
 O599 O 0.80933 0.13676 0.24871
 O600 O 0.74740 0.12333 0.29715
 O601 O 0.75072 0.13700 0.18940
 O602 O 0.70094 0.12422 0.25164
 O603 O 0.86182 0.18891 0.24854
 O604 O 0.87507 0.25145 0.29794
 O605 O 0.80970 0.24756 0.13703
 O606 O 0.75019 0.29716 0.12347
 O607 O 0.75093 0.31008 0.36223
 O608 O 0.79901 0.24936 0.37434
 O609 O 0.63752 0.24939 0.31050
 O610 O 0.62734 0.19824 0.25004
 O611 O 0.68944 0.36196 0.24880
 O612 O 0.74986 0.37407 0.20074
 Zr613 Zr 0.74829 0.32713 0.25091
 O614 O 0.78888 0.28975 0.21052
 Zr615 Zr 0.67187 0.25078 0.25131
 O616 O 0.70896 0.21033 0.21024
 Zr617 Zr 0.74863 0.25107 0.32755
 O618 O 0.78882 0.21011 0.29024
 Zr619 Zr 0.75092 0.24802 0.17187
 O620 O 0.70975 0.28906 0.20884
 Zr621 Zr 0.82731 0.24795 0.24844
 O622 O 0.79055 0.28938 0.28938
 Zr623 Zr 0.75061 0.17178 0.24840
 O624 O 0.70999 0.20894 0.28983
 O625 O 0.70806 0.29126 0.29152
 O626 O 0.79159 0.20712 0.20760
 C627 C 0.75172 0.34983 0.34951
 C628 C 0.64969 0.34933 0.24740
 C629 C 0.65027 0.24836 0.35025
 C630 C 0.75063 0.14944 0.14958
 C631 C 0.84944 0.24791 0.14966
 C632 C 0.84913 0.14919 0.24882
 H633 H 0.80696 0.30948 0.19280
 H634 H 0.80665 0.19215 0.31003
 H635 H 0.68955 0.31001 0.31000
 H636 H 0.68936 0.19261 0.19192
 H637 H 0.67818 0.26780 0.13484
 H638 H 0.63020 0.23601 0.17955
 H639 H 0.86923 0.22787 0.31899
 H640 H 0.82159 0.26996 0.36429
 H641 H 0.77194 0.31946 0.13138
 H642 H 0.72936 0.36394 0.17805
 H643 H 0.76977 0.13014 0.31925
 H644 H 0.73046 0.17830 0.36480
 H645 H 0.82121 0.36424 0.26894
 H646 H 0.86908 0.31871 0.22908
 H647 H 0.63620 0.17784 0.27330
 H648 H 0.68010 0.13003 0.22782
 C649 C 0.25184 0.08870 0.08897
 C650 C 0.25186 0.11639 0.11671
 C651 C 0.75254 0.58941 0.58974
 C652 C 0.75252 0.61709 0.61750
 C653 C 0.74796 0.91218 0.08953
 C654 C 0.74796 0.88434 0.11713
 C655 C 0.24801 0.41114 0.58970
 C656 C 0.24804 0.38349 0.61739
 C657 C 0.74831 0.08922 0.91159
 C658 C 0.74839 0.11683 0.88377
 C659 C 0.24779 0.58934 0.41016
 C660 C 0.24779 0.61694 0.38243
 C661 C 0.25152 0.91157 0.91116
 C662 C 0.25150 0.88377 0.88351
 C663 C 0.75247 0.41061 0.41009
 C664 C 0.75240 0.38288 0.38238
 C665 C 0.08916 0.25149 0.08862
 C666 C 0.11693 0.25148 0.11628
 C667 C 0.58970 0.75203 0.58978
 C668 C 0.61740 0.75199 0.61750
 C669 C 0.08838 0.74847 0.91113
 C670 C 0.11630 0.74850 0.88361
 C671 C 0.58981 0.24789 0.41091
 C672 C 0.61746 0.24787 0.38323
 C673 C 0.91035 0.74863 0.08804
 C674 C 0.88270 0.74872 0.11580
 C675 C 0.41047 0.24810 0.58925
 C676 C 0.38273 0.24816 0.61684
 C677 C 0.91127 0.25169 0.91166
 C678 C 0.88350 0.25173 0.88399
 C679 C 0.41024 0.75214 0.41089
 C680 C 0.38250 0.75211 0.38319
 C681 C 0.08872 0.08906 0.25253
 C682 C 0.11642 0.11681 0.25251
 C683 C 0.58962 0.58965 0.75380
 C684 C 0.61737 0.61727 0.75375
 C685 C 0.91162 0.08914 0.74752
 C686 C 0.88393 0.11690 0.74762
 C687 C 0.41102 0.58973 0.24667
 C688 C 0.38335 0.61742 0.24672
 C689 C 0.08857 0.91104 0.74722
 C690 C 0.11622 0.88326 0.74730
 C691 C 0.58925 0.41008 0.24659
 C692 C 0.61682 0.38228 0.24664
 C693 C 0.91164 0.91105 0.25256
 C694 C 0.88388 0.88335 0.25256
 C695 C 0.41103 0.41032 0.75360
 C696 C 0.38338 0.38261 0.75348
 C697 C 0.08886 0.24991 0.90976
 C698 C 0.11667 0.24953 0.88220
 C699 C 0.58968 0.75020 0.41046
 C700 C 0.61744 0.74979 0.38275
 C701 C 0.91200 0.75050 0.91066
 C702 C 0.88408 0.75092 0.88311
 C703 C 0.41074 0.24997 0.41020
 C704 C 0.38300 0.25041 0.38248
 C705 C 0.08939 0.75002 0.08854
 C706 C 0.11706 0.75035 0.11634
 C707 C 0.58966 0.24995 0.59006
 C708 C 0.61741 0.25039 0.61779
 C709 C 0.91004 0.24903 0.08903
 C710 C 0.88239 0.24847 0.11675
 C711 C 0.41064 0.75014 0.59026
 C712 C 0.38294 0.74971 0.61801
 C713 C 0.24939 0.08944 0.91007
 C714 C 0.24891 0.11733 0.88258
 C715 C 0.75038 0.58995 0.41040
 C716 C 0.74990 0.61774 0.38272
 C717 C 0.74981 0.08842 0.08910
 C718 C 0.75018 0.11632 0.11669
 C719 C 0.25005 0.59012 0.58944
 C720 C 0.25050 0.61784 0.61719
 C721 C 0.75054 0.91010 0.91217
 C722 C 0.75108 0.88237 0.88443
 C723 C 0.25009 0.41017 0.41062
 C724 C 0.25056 0.38236 0.38295
 C725 C 0.24960 0.90968 0.08844
 C726 C 0.24915 0.88201 0.11614
 C727 C 0.75037 0.41007 0.58939
 C728 C 0.74991 0.38231 0.61710
 C729 C 0.08923 0.09009 0.74921
 C730 C 0.11706 0.11765 0.74971
 C731 C 0.59003 0.58962 0.24906
 C732 C 0.61771 0.61742 0.24967
 C733 C 0.08930 0.90999 0.24983
 C734 C 0.11711 0.88242 0.24916
 C735 C 0.59018 0.41071 0.75110
 C736 C 0.61797 0.38302 0.75045
 C737 C 0.90963 0.08845 0.25016
 C738 C 0.88197 0.11616 0.24956
 C739 C 0.41013 0.58961 0.75134
 C740 C 0.38234 0.61730 0.75073
 C741 C 0.90986 0.91139 0.75015
 C742 C 0.88234 0.88354 0.75086
 C743 C 0.41022 0.41054 0.24915
 C744 C 0.38246 0.38283 0.24978
   
