data_POSCAR
  _audit_creation_date              2014-09-24
  _audit_creation_method            'ToBaCCo'
  _symmetry_space_group_name_H-M    'P1'
  _symmetry_Int_Tables_number       1
  _symmetry_cell_setting            triclinic
  loop_
  _symmetry_equiv_pos_as_xyz
 x,y,z
_cell_length_a 53.2102
_cell_length_b 53.3128
_cell_length_c 29.8996
_cell_angle_alpha 88.084400
_cell_angle_beta 89.991000
_cell_angle_gamma 119.969400
loop_
  _atom_site_label
  _atom_site_type_symbol
  _atom_site_fract_x
  _atom_site_fract_y
  _atom_site_fract_z
C1 C 0.04590 0.49227 0.05593
 C2 C 0.05664 0.51971 0.07332
 C3 C 0.04388 0.53676 0.06424
 C4 C 0.01964 0.52611 0.03585
 C5 C 0.00820 0.49815 0.01805
 C6 C 0.02117 0.48102 0.02873
 C7 C 0.00986 0.45365 0.01043
 C8 C -0.01346 0.44331 -0.01836
 C9 C -0.02656 0.45988 -0.03004
 C10 C -0.01568 0.48766 -0.01151
 C11 C 0.00654 0.54268 0.02475
 C12 C -0.01634 0.53279 -0.00478
 C13 C -0.02785 0.50544 -0.02366
 C14 C -0.05020 0.49583 -0.05574
 C15 C -0.06050 0.46826 -0.07291
 C16 C -0.04903 0.45029 -0.06170
 H17 H 0.01933 0.44012 0.01745
 H18 H -0.02042 0.42244 -0.03227
 H19 H 0.01403 0.56375 0.03831
 H20 H -0.02439 0.54734 -0.01295
 H21 H 0.07582 0.52816 0.09368
 H22 H -0.07988 0.45927 -0.09275
 C23 C 0.50781 0.55261 0.05855
 C24 C 0.47869 0.53804 0.07249
 C25 C 0.45964 0.50934 0.06153
 C26 C 0.47019 0.49450 0.03607
 C27 C 0.49987 0.50889 0.02202
 C28 C 0.51875 0.53797 0.03367
 C29 C 0.54774 0.55203 0.01863
 C30 C 0.55813 0.53805 -0.00779
 C31 C 0.54000 0.50920 -0.02019
 C32 C 0.51041 0.49453 -0.00505
 C33 C 0.45165 0.46604 0.02285
 C34 C 0.46184 0.45206 -0.00388
 C35 C 0.49098 0.46592 -0.01836
 C36 C 0.50098 0.45222 -0.04695
 C37 C 0.53012 0.46641 -0.06032
 C38 C 0.54997 0.49500 -0.04892
 H39 H 0.56266 0.57429 0.02648
 H40 H 0.58044 0.55075 -0.01901
 H41 H 0.42887 0.45442 0.03215
 H42 H 0.44651 0.43031 -0.01357
 H43 H 0.47086 0.54931 0.09275
 H44 H 0.53724 0.45399 -0.07905
 C45 C 0.42913 0.93136 0.01649
 C46 C 0.44413 0.91615 0.01262
 C47 C 0.47336 0.92998 -0.00045
 C48 C 0.48837 0.96006 -0.01123
 C49 C 0.47366 0.97598 -0.00782
 C50 C 0.44395 0.96157 0.00591
 C51 C 0.42979 0.97774 0.00838
 C52 C 0.44441 1.00735 -0.00144
 C53 C 0.47380 1.02223 -0.01541
 C54 C 0.48871 1.00638 -0.01800
 C55 C 0.51744 0.97448 -0.02615
 C56 C 0.53222 1.00420 -0.03585
 C57 C 0.51851 1.02073 -0.03117
 C58 C 0.53356 1.05106 -0.04026
 C59 C 0.51877 1.06646 -0.03527
 C60 C 0.48886 1.05260 -0.02523
 H61 H 0.40711 0.96777 0.01780
 H62 H 0.43225 1.01833 0.00323
 H63 H 0.52903 0.96287 -0.03082
 H64 H 0.55451 1.01391 -0.04735
 H65 H 0.43350 0.89334 0.02247
 H66 H 0.53071 1.08957 -0.04217
 C67 C 0.95847 0.49778 0.56636
 C68 C 0.94604 0.46781 0.57385
 C69 C 0.96273 0.45418 0.57295
 C70 C 0.99290 0.47104 0.56364
 C71 C 1.00581 0.50142 0.55515
 C72 C 0.98857 0.51482 0.55696
 C73 C 1.00183 0.54490 0.54894
 C74 C 1.03140 0.56161 0.53968
 C75 C 1.04907 0.54894 0.53673
 C76 C 1.03606 0.51846 0.54502
 C77 C 1.01047 0.45829 0.56215
 C78 C 1.04004 0.47494 0.55257
 C79 C 1.05316 0.50491 0.54316
 C80 C 1.08309 0.52180 0.53269
 C81 C 1.09585 0.55182 0.52683
 C82 C 1.07946 0.56592 0.52753
 H83 H 0.98952 0.55601 0.54972
 H84 H 1.04004 0.58469 0.53570
 H85 H 1.00157 0.43525 0.56817
 H86 H 1.05257 0.46403 0.55301
 H87 H 0.92319 0.45507 0.58287
 H88 H 1.11863 0.56379 0.51729
 C89 C 0.52403 0.45039 0.51342
 C90 C 0.55419 0.46904 0.51284
 C91 C 0.56685 0.49866 0.50205
 C92 C 0.54900 0.51009 0.48892
 C93 C 0.51854 0.49135 0.48633
 C94 C 0.50594 0.46143 0.49889
 C95 C 0.47562 0.44366 0.49744
 C96 C 0.45812 0.45469 0.48267
 C97 C 0.47015 0.48403 0.46925
 C98 C 0.50061 0.50268 0.47172
 C99 C 0.56088 0.53967 0.47757
 C100 C 0.54334 0.55076 0.46355
 C101 C 0.51320 0.53264 0.45963
 C102 C 0.49528 0.54372 0.44449
 C103 C 0.46533 0.52481 0.44186
 C104 C 0.45248 0.49534 0.45426
 H105 H 0.46494 0.42099 0.50774
 H106 H 0.43493 0.43997 0.48236
 H107 H 0.58398 0.55460 0.47912
 H108 H 0.55382 0.57381 0.45607
 H109 H 0.56824 0.46057 0.52231
 H110 H 0.45178 0.53282 0.42783
 C111 C 0.54676 0.04647 0.54965
 C112 C 0.53143 0.05949 0.56531
 C113 C 0.50162 0.04759 0.55868
 C114 C 0.48678 0.02215 0.53387
 C115 C 0.50207 0.00871 0.51730
 C116 C 0.53204 0.02067 0.52606
 C117 C 0.54669 0.00692 0.51016
 C118 C 0.53244 -0.01792 0.48563
 C119 C 0.50293 -0.02986 0.47488
 C120 C 0.48744 -0.01659 0.49167
 C121 C 0.45705 0.00962 0.52554
 C122 C 0.44277 -0.01486 0.50021
 C123 C 0.45741 -0.02844 0.48288
 C124 C 0.44336 -0.05235 0.45476
 C125 C 0.45915 -0.06478 0.43820
 C126 C 0.48815 -0.05515 0.44936
 H127 H 0.56950 0.01532 0.51637
 H128 H 0.54526 -0.02731 0.47536
 H129 H 0.44438 0.01869 0.53815
 H130 H 0.42015 -0.02253 0.49386
 H131 H 0.54315 0.07946 0.58294
 H132 H 0.44824 -0.08289 0.41656
 O133 O 0.25281 0.45390 0.31091
 O134 O 0.20618 0.45765 0.22187
 O135 O 0.25808 0.46274 0.22457
 O136 O 0.20097 0.44864 0.30849
 O137 O 0.22101 0.49576 0.31704
 O138 O 0.27748 0.50976 0.23363
 O139 O 0.22664 0.50481 0.23046
 O140 O 0.27173 0.50088 0.31980
 Cu141 Cu 0.22747 0.45094 0.26552
 Cu142 Cu 0.25111 0.50748 0.27603
 C143 C 0.27025 0.47695 0.33034
 C144 C 0.20865 0.48207 0.21113
 C145 C 0.27765 0.48875 0.21524
 C146 C 0.20146 0.46993 0.32718
 O147 O 0.54770 0.75257 0.19706
 O148 O 0.53649 0.79491 0.28309
 O149 O 0.53518 0.74483 0.28218
 O150 O 0.55064 0.80344 0.19841
 O151 O 0.50402 0.78206 0.18288
 O152 O 0.48870 0.72344 0.26564
 O153 O 0.48984 0.77244 0.26743
 O154 O 0.50128 0.73247 0.18051
 Cu155 Cu 0.54724 0.77612 0.24181
 Cu156 Cu 0.49134 0.75050 0.22254
 C157 C 0.52611 0.73528 0.17423
 C158 C 0.51100 0.79066 0.28967
 C159 C 0.50932 0.72403 0.28780
 C160 C 0.52987 0.80275 0.17658
 O161 O 0.23401 0.78630 0.20567
 O162 O 0.18829 0.75324 0.30797
 O163 O 0.23430 0.80363 0.28546
 O164 O 0.18700 0.73666 0.22663
 O165 O 0.21415 0.71832 0.24962
 O166 O 0.26206 0.78552 0.30623
 O167 O 0.21727 0.73670 0.32922
 O168 O 0.26068 0.76689 0.22608
 Cu169 Cu 0.20804 0.77174 0.25431
 Cu170 Cu 0.24139 0.75012 0.27967
 C171 C 0.25525 0.78221 0.19880
 C172 C 0.19519 0.73934 0.33602
 C173 C 0.25635 0.80598 0.30551
 C174 C 0.19228 0.71590 0.22889
 O175 O 0.74965 0.54575 0.77463
 O176 O 0.80917 0.56102 0.69403
 O177 O 0.76007 0.56193 0.68996
 O178 O 0.79969 0.54646 0.77859
 O179 O 0.77688 0.50057 0.76026
 O180 O 0.73829 0.51600 0.67204
 O181 O 0.78586 0.51501 0.67641
 O182 O 0.72759 0.49994 0.75601
 Cu183 Cu 0.78184 0.55847 0.73620
 Cu184 Cu 0.75477 0.50327 0.71476
 C185 C 0.72826 0.52004 0.77833
 C186 C 0.80756 0.54036 0.67176
 C187 C 0.74262 0.54153 0.66571
 C188 C 0.79543 0.52085 0.78348
 O189 O 0.44785 0.24378 0.70448
 O190 O 0.44444 0.20241 0.80878
 O191 O 0.43827 0.24737 0.78900
 O192 O 0.45252 0.19753 0.72425
 O193 O 0.49933 0.22490 0.73678
 O194 O 0.48555 0.27717 0.79248
 O195 O 0.49092 0.23323 0.81892
 O196 O 0.49534 0.26990 0.71139
 Cu197 Cu 0.44096 0.21982 0.75568
 Cu198 Cu 0.49747 0.25405 0.76571
 C199 C 0.47246 0.26412 0.69043
 C200 C 0.46729 0.21112 0.83164
 C201 C 0.45968 0.27127 0.80028
 C202 C 0.47841 0.20241 0.72083
 O203 O 0.74290 0.19868 0.70515
 O204 O 0.79408 0.24581 0.78965
 O205 O 0.73998 0.20131 0.79181
 O206 O 0.79538 0.24431 0.70303
 O207 O 0.77550 0.27191 0.69345
 O208 O 0.72393 0.23225 0.78525
 O209 O 0.77754 0.27610 0.77867
 O210 O 0.72471 0.22789 0.69904
 Cu211 Cu 0.76980 0.21946 0.74850
 Cu212 Cu 0.74849 0.25487 0.73906
 C213 C 0.72514 0.20539 0.68781
 C214 C 0.79549 0.26984 0.79647
 C215 C 0.72222 0.20952 0.80297
 C216 C 0.79449 0.26532 0.68302
 C217 C 0.06166 0.47646 0.06667
 C218 C 0.09182 0.49075 0.06208
 C219 C 0.11018 0.48106 0.08468
 N220 N 0.13930 0.49912 0.08400
 N221 N 0.15647 0.49267 0.10809
 C222 C 0.14521 0.46784 0.13379
 N223 N 0.11609 0.44934 0.13370
 N224 N 0.09884 0.45589 0.10971
 C225 C 0.16397 0.46220 0.16383
 C226 C 0.19085 0.48491 0.17603
 H227 H 0.10279 0.51193 0.04516
 H228 H 0.15549 0.44091 0.17984
 H229 H 0.04986 0.45466 0.08125
 H230 H 0.19803 0.50658 0.16242
 C231 C 0.52570 0.58342 0.06979
 C232 C 0.51640 0.60286 0.05762
 C233 C 0.52789 0.63154 0.07656
 N234 N 0.51631 0.64816 0.06367
 N235 N 0.52357 0.67265 0.08388
 C236 C 0.54269 0.68153 0.11786
 N237 N 0.55486 0.66526 0.13012
 N238 N 0.54757 0.64066 0.10987
 C239 C 0.54758 0.70645 0.14416
 C240 C 0.52884 0.71756 0.14025
 H241 H 0.49794 0.59567 0.03587
 H242 H 0.56317 0.71334 0.17081
 H243 H 0.54509 0.59027 0.08918
 H244 H 0.51210 0.70914 0.11532
 C245 C 0.39907 0.91584 0.03580
 C246 C 0.37983 0.88647 0.02969
 C247 C 0.35269 0.86998 0.05606
 N248 N 0.33947 0.84065 0.05924
 N249 N 0.31607 0.82540 0.08550
 C250 C 0.30482 0.83890 0.10926
 N251 N 0.31765 0.86820 0.10531
 N252 N 0.34123 0.88349 0.07934
 C253 C 0.28044 0.82249 0.14113
 C254 C 0.27456 0.79571 0.15958
 H255 H 0.38572 0.87459 0.00737
 H256 H 0.26942 0.83314 0.15448
 H257 H 0.39259 0.92724 0.05814
 H258 H 0.28754 0.78640 0.14914
 C259 C 0.93979 0.51087 0.57170
 C260 C 0.91207 0.49833 0.55406
 C261 C 0.89130 0.50781 0.56531
 N262 N 0.89817 0.52969 0.59358
 N263 N 0.87816 0.53614 0.60656
 C264 C 0.85059 0.52098 0.59161
 N265 N 0.84391 0.49948 0.56285
 N266 N 0.86389 0.49305 0.54985
 C267 C 0.82715 0.52466 0.61022
 C268 C 0.83157 0.54510 0.64176
 H269 H 0.90474 0.47978 0.53322
 H270 H 0.80514 0.50832 0.60269
 H271 H 0.94765 0.53010 0.59107
 H272 H 0.85316 0.56292 0.64754
 C273 C 0.51248 0.41981 0.53013
 C274 C 0.52628 0.41333 0.56457
 C275 C 0.51923 0.38397 0.57909
 N276 N 0.49201 0.36073 0.57686
 N277 N 0.48621 0.33480 0.59370
 C278 C 0.50755 0.33128 0.61266
 N279 N 0.53469 0.35443 0.61404
 N280 N 0.54038 0.38028 0.59784
 C281 C 0.50194 0.30410 0.63539
 C282 C 0.47464 0.28271 0.65127
 H283 H 0.54462 0.43081 0.58062
 H284 H 0.52090 0.30340 0.64694
 H285 H 0.49389 0.40230 0.51468
 H286 H 0.45526 0.28244 0.63953
 C287 C 0.57811 0.06051 0.55926
 C288 C 0.59596 0.09018 0.55096
 C289 C 0.62416 0.10728 0.57204
 N290 N 0.63790 0.13655 0.56736
 N291 N 0.66168 0.15291 0.59025
 C292 C 0.67269 0.14063 0.61873
 N293 N 0.65938 0.11128 0.62262
 N294 N 0.63545 0.09487 0.59979
 C295 C 0.69707 0.15878 0.64760
 C296 C 0.70440 0.18736 0.65436
 H297 H 0.58743 0.10195 0.53221
 H298 H 0.70734 0.14894 0.66690
 H299 H 0.58649 0.04794 0.57590
 H300 H 0.69270 0.19638 0.63690
 C301 C 0.47412 0.06850 0.97037
 C302 C 0.48764 0.09862 0.97269
 C303 C 0.47479 0.11535 0.95372
 N304 N 0.48949 0.14460 0.95602
 N305 N 0.48031 0.16058 0.93412
 C306 C 0.45608 0.14793 0.90903
 N307 N 0.44097 0.11861 0.90757
 N308 N 0.45016 0.10260 0.92950
 C309 C 0.44841 0.16560 0.87937
 C310 C 0.46757 0.19517 0.87235
 H311 H 0.50903 0.11077 0.98666
 H312 H 0.42996 0.15461 0.85780
 H313 H 0.45136 0.05726 0.96242
 H314 H 0.48650 0.20583 0.89308
 C315 C 0.57896 0.50821 0.93408
 C316 C 0.58630 0.49898 0.89536
 C317 C 0.61602 0.50862 0.87979
 N318 N 0.61984 0.49343 0.84773
 N319 N 0.64625 0.50103 0.83258
 C320 C 0.67000 0.52427 0.84868
 N321 N 0.66627 0.53980 0.88055
 N322 N 0.63970 0.53199 0.89610
 C323 C 0.69902 0.53265 0.83048
 C324 C 0.70290 0.51269 0.80684
 H325 H 0.56948 0.48346 0.87451
 H326 H 0.71675 0.55457 0.83385
 H327 H 0.59639 0.52616 0.95055
 H328 H 0.68524 0.49049 0.80622
 C329 C 0.93854 0.42293 0.91848
 C330 C 0.92740 0.41941 0.87529
 C331 C 0.90393 0.39230 0.85839
 N332 N 0.89232 0.36653 0.88193
 N333 N 0.86883 0.34322 0.86714
 C334 C 0.85605 0.34513 0.82875
 N335 N 0.86785 0.37079 0.80539
 N336 N 0.89134 0.39386 0.81985
 C337 C 0.82913 0.32092 0.81247
 C338 C 0.81946 0.29177 0.82246
 H339 H 0.93357 0.43861 0.85412
 H340 H 0.81778 0.32652 0.78752
 H341 H 0.93704 0.40431 0.93656
 H342 H 0.83186 0.28549 0.84410
 C343 C 0.50147 0.92920 0.43421
 C344 C 0.48551 0.89944 0.42687
 C345 C 0.49744 0.88279 0.40649
 N346 N 0.47967 0.85398 0.40189
 N347 N 0.48889 0.83838 0.38093
 C348 C 0.51629 0.85094 0.36369
 N349 N 0.53433 0.87976 0.36887
 N350 N 0.52506 0.89545 0.38987
 C351 C 0.52549 0.83395 0.33718
 C352 C 0.50495 0.80665 0.32296
 H353 H 0.46290 0.88709 0.43723
 H354 H 0.54780 0.84389 0.32540
 H355 H 0.52468 0.93963 0.42943
 H356 H 0.48241 0.79776 0.33284
 C357 C 0.42081 0.47685 0.44777
 C358 C 0.40176 0.48640 0.45980
 C359 C 0.37294 0.47536 0.44032
 N360 N 0.35785 0.48904 0.44862
 N361 N 0.33352 0.48217 0.42701
 C362 C 0.32329 0.46131 0.39624
 N363 N 0.33796 0.44703 0.38875
 N364 N 0.36242 0.45399 0.41030
 C365 C 0.29849 0.45629 0.36832
 C366 C 0.28961 0.47685 0.36518
 H367 H 0.40971 0.50530 0.48003
 H368 H 0.28960 0.43833 0.34607
 H369 H 0.41297 0.45710 0.42975
 H370 H 0.30001 0.49574 0.38549
 C371 C 0.09313 0.59579 0.51502
 C372 C 0.12291 0.61480 0.51907
 C373 C 0.13844 0.64315 0.49510
 N374 N 0.12520 0.65157 0.46405
 N375 N 0.14058 0.67569 0.43872
 C376 C 0.16972 0.69222 0.44364
 N377 N 0.18277 0.68405 0.47523
 N378 N 0.16743 0.66000 0.50049
 C379 C 0.18792 0.71613 0.41176
 C380 C 0.17684 0.72476 0.37596
 H381 H 0.13587 0.60839 0.53908
 H382 H 0.21115 0.72479 0.41329
 H383 H 0.08055 0.60466 0.50034
 H384 H 0.15403 0.71823 0.37522
 C385 C 0.93651 0.51209 0.92993
 C386 C 0.92318 0.50790 0.88827
 C387 C 0.90151 0.51613 0.87597
 N388 N 0.88364 0.50233 0.84192
 N389 N 0.86301 0.50816 0.83003
 C390 C 0.85948 0.52822 0.85151
 N391 N 0.87764 0.54248 0.88531
 N392 N 0.89818 0.53633 0.89768
 C393 C 0.83697 0.53484 0.83655
 C394 C 0.81309 0.51408 0.81384
 H395 H 0.92686 0.49554 0.86371
 H396 H 0.84031 0.55644 0.84010
 H397 H 0.93594 0.52781 0.95115
 H398 H 0.80937 0.49215 0.81361
 C399 C 0.48187 0.42333 0.93473
 C400 C 0.48202 0.42041 0.88859
 C401 C 0.47578 0.39347 0.86753
 N402 N 0.46341 0.36747 0.89047
 N403 N 0.46121 0.34414 0.87147
 C404 C 0.47157 0.34618 0.82912
 N405 N 0.48361 0.37206 0.80629
 N406 N 0.48552 0.39520 0.82503
 C407 C 0.47303 0.32217 0.80917
 C408 C 0.45482 0.29307 0.82121
 H409 H 0.49217 0.43998 0.86736
 H410 H 0.48911 0.32779 0.78270
 H411 H 0.47120 0.40448 0.95731
 H412 H 0.43634 0.28640 0.84350
 C413 C 0.56453 0.06741 0.94403
 C414 C 0.57406 0.09025 0.91218
 C415 C 0.60450 0.10923 0.89797
 N416 N 0.61198 0.13488 0.87658
 N417 N 0.63908 0.15245 0.86211
 C418 C 0.65985 0.14503 0.86815
 N419 N 0.65239 0.11923 0.88940
 N420 N 0.62521 0.10169 0.90435
 C421 C 0.68935 0.16393 0.84920
 C422 C 0.69807 0.19232 0.83478
 H423 H 0.55846 0.09533 0.89747
 H424 H 0.70323 0.15485 0.84338
 H425 H 0.58003 0.06192 0.95793
 H426 H 0.68429 0.20124 0.84263
 C427 C 0.10202 0.50947 0.52384
 C428 C 0.09561 0.48960 0.49042
 C429 C 0.11839 0.48623 0.46827
 N430 N 0.11135 0.46665 0.43590
 N431 N 0.13202 0.46556 0.41229
 C432 C 0.16048 0.48417 0.42003
 N433 N 0.16749 0.50353 0.45264
 N434 N 0.14685 0.50450 0.47640
 C435 C 0.18358 0.48565 0.39125
 C436 C 0.17888 0.46477 0.36044
 H437 H 0.07411 0.47884 0.47643
 H438 H 0.20498 0.50457 0.39329
 H439 H 0.12398 0.52103 0.53609
 H440 H 0.15836 0.44465 0.36035
 C441 C 0.50741 0.57428 0.42777
 C442 C 0.49237 0.58931 0.43237
 C443 C 0.50156 0.61741 0.40921
 N444 N 0.48271 0.62750 0.40617
 N445 N 0.48992 0.65207 0.38320
 C446 C 0.51636 0.66760 0.36264
 N447 N 0.53543 0.65778 0.36632
 N448 N 0.52813 0.63306 0.38904
 C449 C 0.52396 0.69397 0.33528
 C450 C 0.50271 0.69993 0.31979
 H451 H 0.47215 0.57942 0.45142
 H452 H 0.54631 0.70767 0.32417
 H453 H 0.52780 0.58464 0.40922
 H454 H 0.48013 0.68509 0.32847
 C455 C 0.41369 0.93487 0.44428
 C456 C 0.40334 0.92311 0.40269
 C457 C 0.37266 0.90284 0.39477
 N458 N 0.36235 0.90037 0.35271
 N459 N 0.33582 0.87922 0.34344
 C460 C 0.31882 0.85946 0.37578
 N461 N 0.32906 0.86199 0.41793
 N462 N 0.35546 0.88344 0.42736
 C463 C 0.29178 0.83352 0.36402
 C464 C 0.27640 0.83324 0.32626
 H465 H 0.41843 0.92835 0.37488
 H466 H 0.28522 0.81355 0.38326
 H467 H 0.39823 0.93426 0.46840
 H468 H 0.28063 0.85342 0.30980
 C469 C 0.48710 0.91180 0.00035
 C470 C 0.50909 0.91681 0.03023
 C471 C 0.51345 0.89305 0.04726
 N472 N 0.53345 0.89803 0.07909
 N473 N 0.53505 0.87608 0.09880
 C474 C 0.51661 0.84835 0.08750
 N475 N 0.49696 0.84345 0.05523
 N476 N 0.49544 0.86537 0.03542
 C477 C 0.51536 0.82362 0.11269
 C478 C 0.53562 0.82668 0.14469
 H479 H 0.52046 0.93741 0.04625
 H480 H 0.49671 0.80240 0.10789
 H481 H 0.47499 0.89066 -0.01390
 H482 H 0.55541 0.84727 0.14769
 C483 C 0.42900 0.49558 0.07766
 C484 C 0.41411 0.51094 0.07680
 C485 C 0.38571 0.50032 0.09889
 N486 N 0.37471 0.51834 0.10135
 N487 N 0.34993 0.51004 0.12349
 C488 C 0.33510 0.48333 0.14393
 N489 N 0.34585 0.46508 0.14092
 N490 N 0.37077 0.47344 0.11888
 C491 C 0.30864 0.47478 0.17083
 C492 C 0.30127 0.49530 0.18326
 H493 H 0.42441 0.53250 0.06119
 H494 H 0.29611 0.45264 0.18388
 H495 H 0.41844 0.47359 0.09155
 H496 H 0.31487 0.51774 0.17212
 C497 C 0.05778 0.56630 0.08244
 C498 C 0.07036 0.57180 0.12455
 C499 C 0.08995 0.60113 0.13974
 N500 N 0.10718 0.60449 0.17506
 N501 N 0.12612 0.63080 0.18848
 C502 C 0.12847 0.65480 0.16721
 N503 N 0.11093 0.65147 0.13221
 N504 N 0.09212 0.62509 0.11849
 C505 C 0.14945 0.68386 0.18215
 C506 C 0.17260 0.68814 0.20893
 H507 H 0.06759 0.55385 0.14615
 H508 H 0.14676 0.70204 0.17184
 H509 H 0.05999 0.58422 0.06137
 H510 H 0.17615 0.67015 0.21658
 C511 C 0.48715 0.06305 0.57661
 C512 C 0.49517 0.07668 0.61744
 C513 C 0.48613 0.09692 0.63287
 N514 N 0.50093 0.11471 0.66631
 N515 N 0.49408 0.13402 0.68021
 C516 C 0.47201 0.13621 0.66140
 N517 N 0.45684 0.11811 0.62832
 N518 N 0.46389 0.09891 0.61407
 C519 C 0.46466 0.15776 0.67696
 C520 C 0.48490 0.18168 0.69993
 H521 H 0.51050 0.07400 0.63798
 H522 H 0.44345 0.15496 0.67005
 H523 H 0.47130 0.06512 0.55660
 H524 H 0.50668 0.18522 0.70368
 C525 C 0.59850 0.51715 0.50880
 C526 C 0.61780 0.50822 0.49544
 C527 C 0.64567 0.51748 0.51728
 N528 N 0.65478 0.53633 0.55111
 N529 N 0.67793 0.54113 0.57475
 C530 C 0.69271 0.52718 0.56545
 N531 N 0.68390 0.50883 0.53114
 N532 N 0.66086 0.50410 0.50748
 C533 C 0.71542 0.52854 0.59489
 C534 C 0.72648 0.54703 0.63050
 H535 H 0.61036 0.49053 0.47278
 H536 H 0.72206 0.51258 0.59043
 H537 H 0.60596 0.53587 0.52924
 H538 H 0.72213 0.56469 0.63369
 C539 C 0.94827 0.42271 0.58501
 C540 C 0.92096 0.40335 0.56890
 C541 C 0.90289 0.37368 0.58776
 N542 N 0.87557 0.35718 0.57276
 N543 N 0.85763 0.33147 0.59233
 C544 C 0.86632 0.32118 0.62766
 N545 N 0.89390 0.33739 0.64206
 N546 N 0.91187 0.36319 0.62250
 C547 C 0.84536 0.29465 0.65318
 C548 C 0.81564 0.28314 0.64774
 H549 H 0.91148 0.41095 0.54360
 H550 H 0.85304 0.28702 0.68112
 H551 H 0.95855 0.41502 0.60865
 H552 H 0.80817 0.29248 0.62194
   
