data_POSCAR
  _audit_creation_date              2014-09-24
  _audit_creation_method            'ToBaCCo'
  _symmetry_space_group_name_H-M    'P1'
  _symmetry_Int_Tables_number       1
  _symmetry_cell_setting            triclinic
  loop_
  _symmetry_equiv_pos_as_xyz
 x,y,z
_cell_length_a 18.5382
_cell_length_b 18.5382
_cell_length_c 18.5381
_cell_angle_alpha 91.245000
_cell_angle_beta 88.754400
_cell_angle_gamma 91.243200
loop_
  _atom_site_label
  _atom_site_type_symbol
  _atom_site_fract_x
  _atom_site_fract_y
  _atom_site_fract_z
O1 O 0.58552 0.51410 0.07328
 O2 O 0.38993 0.50913 0.04153
 O3 O 0.48501 0.41415 0.07463
 O4 O 0.49061 0.60894 0.03984
 O5 O 0.51217 0.58566 -0.07605
 O6 O 0.50655 0.39091 -0.04127
 O7 O 0.41148 0.48588 -0.07435
 O8 O 0.60711 0.49083 -0.04260
 Cu9 Cu 0.48561 0.51390 0.06903
 Cu10 Cu 0.51145 0.48597 -0.07028
 C11 C 0.62930 0.50304 0.02085
 C12 C 0.36770 0.49701 -0.02192
 C13 C 0.49521 0.36969 0.02263
 C14 C 0.50207 0.63014 -0.02406
 O15 O -0.07365 0.58826 0.51417
 O16 O -0.04192 0.39267 0.50919
 O17 O -0.04018 0.49327 0.60901
 O18 O -0.07497 0.48767 0.41422
 O19 O 0.04093 0.50921 0.39098
 O20 O 0.07572 0.51483 0.58572
 O21 O 0.07398 0.41421 0.48594
 O22 O 0.04222 0.60985 0.49090
 Cu23 Cu -0.06939 0.48835 0.51398
 Cu24 Cu 0.06991 0.51418 0.48604
 C25 C -0.02123 0.63206 0.50310
 C26 C 0.02153 0.37045 0.49706
 C27 C 0.02374 0.50463 0.63020
 C28 C -0.02296 0.49777 0.36975
 O29 O 0.50952 0.04149 0.60976
 O30 O 0.51449 0.07324 0.41416
 O31 O 0.41465 0.07463 0.51471
 O32 O 0.60943 0.03984 0.50910
 O33 O 0.58615 -0.07605 0.48754
 O34 O 0.39140 -0.04128 0.49316
 O35 O 0.49123 -0.04265 0.39258
 O36 O 0.48627 -0.07439 0.58820
 Cu37 Cu 0.51438 0.06900 0.51408
 Cu38 Cu 0.48645 -0.07030 0.48824
 C39 C 0.49730 -0.02195 0.63199
 C40 C 0.50334 0.02082 0.37039
 C41 C 0.37018 0.02263 0.50453
 C42 C 0.63063 -0.02406 0.49766
 C43 C 0.49814 -0.06227 -0.15643
 C44 C 0.49990 -0.13474 -0.13759
 C45 C 0.50149 -0.15457 -0.06540
 C46 C 0.50143 -0.10100 -0.01000
 C47 C 0.49956 -0.02723 -0.02841
 C48 C 0.49786 -0.00769 -0.10195
 C49 C 0.49595 0.06578 -0.11897
 C50 C 0.49566 0.11904 -0.06480
 C51 C 0.49735 0.10084 0.00842
 C52 C 0.49937 0.02707 0.02681
 C53 C 0.50316 -0.11920 0.06322
 C54 C 0.50309 -0.06594 0.11736
 C55 C 0.50121 0.00753 0.10035
 C56 C 0.50110 0.06210 0.15483
 C57 C 0.49902 0.13456 0.13601
 C58 C 0.49712 0.15440 0.06384
 H59 H 0.49460 0.08274 -0.17443
 H60 H 0.49411 0.17477 -0.08090
 H61 H 0.50464 -0.17493 0.07932
 H62 H 0.50451 -0.08290 0.17282
 H63 H 0.50000 -0.17632 -0.17973
 H64 H 0.49892 0.17614 0.17816
 C65 C 0.06515 0.50285 0.84544
 C66 C 0.13733 0.50100 0.86527
 C67 C 0.15616 0.49896 0.93773
 C68 C 0.10168 0.49882 0.99231
 C69 C 0.02815 0.50064 0.97278
 C70 C 0.00974 0.50264 0.89901
 C71 C -0.06347 0.50433 0.88081
 C72 C -0.11763 0.50408 0.93406
 C73 C -0.10062 0.50218 1.00753
 C74 C -0.02708 0.50045 1.02708
 C75 C 0.11870 0.49694 1.06578
 C76 C 0.06454 0.49684 1.11905
 C77 C -0.00868 0.49856 1.10085
 C78 C -0.06410 0.49848 1.15442
 C79 C -0.13628 0.50013 1.13456
 C80 C -0.15510 0.50194 1.06209
 H81 H -0.07957 0.50588 0.82508
 H82 H -0.17309 0.50544 0.91709
 H83 H 0.17416 0.49553 1.08274
 H84 H 0.08063 0.49535 1.17478
 H85 H 0.17946 0.50111 0.82368
 H86 H -0.17843 0.50003 1.17614
 C87 C -0.06174 -0.15640 0.50197
 C88 C -0.13421 -0.13757 0.50015
 C89 C -0.15406 -0.06538 0.49850
 C90 C -0.10049 -0.00998 0.49859
 C91 C -0.02672 -0.02838 0.50049
 C92 C -0.00717 -0.10192 0.50222
 C93 C 0.06630 -0.11894 0.50412
 C94 C 0.11956 -0.06478 0.50437
 C95 C 0.10135 0.00844 0.50268
 C96 C 0.02758 0.02684 0.50068
 C97 C -0.11869 0.06324 0.49687
 C98 C -0.06542 0.11739 0.49698
 C99 C 0.00804 0.10038 0.49886
 C100 C 0.06262 0.15485 0.49900
 C101 C 0.13508 0.13603 0.50102
 C102 C 0.15491 0.06386 0.50287
 H103 H 0.08327 -0.17440 0.50548
 H104 H 0.17528 -0.08087 0.50591
 H105 H -0.17442 0.07934 0.49538
 H106 H -0.08239 0.17285 0.49557
 H107 H -0.17579 -0.17972 0.50005
 H108 H 0.17666 0.17817 0.50113
 C109 C -0.29468 0.50342 1.03391
 C110 C -0.23103 0.50303 1.04597
 C111 C 0.29577 0.49690 0.96574
 C112 C 0.23209 0.49754 0.95379
 C113 C -0.03361 -0.29602 0.50343
 C114 C -0.04563 -0.23234 0.50305
 C115 C 0.03456 0.29444 0.49691
 C116 C 0.04655 0.23078 0.49757
 C117 C 0.49687 -0.03426 -0.29607
 C118 C 0.49716 -0.04620 -0.23238
 C119 C 0.50339 0.03392 0.29439
 C120 C 0.50264 0.04599 0.23074
 C121 C 0.50272 -0.29415 -0.03802
 C122 C 0.50249 -0.23059 -0.05017
 C123 C 0.49493 0.29398 0.03657
 C124 C 0.49559 0.23041 0.04867
 C125 C -0.29365 -0.03802 0.49709
 C126 C -0.23008 -0.05017 0.49740
 C127 C 0.29448 0.03656 0.50488
 C128 C 0.23092 0.04867 0.50430
 C129 C -0.03685 0.49714 1.29403
 C130 C -0.04892 0.49742 1.23044
 C131 C 0.03774 0.50493 0.70590
 C132 C 0.04993 0.50432 0.76944
   
