data_POSCAR
  _audit_creation_date              2014-09-24
  _audit_creation_method            'ToBaCCo'
  _symmetry_space_group_name_H-M    'P1'
  _symmetry_Int_Tables_number       1
  _symmetry_cell_setting            triclinic
  loop_
  _symmetry_equiv_pos_as_xyz
 x,y,z
_cell_length_a 38.3082
_cell_length_b 38.3830
_cell_length_c 38.4696
_cell_angle_alpha 89.890100
_cell_angle_beta 90.111600
_cell_angle_gamma 89.911700
loop_
  _atom_site_label
  _atom_site_type_symbol
  _atom_site_fract_x
  _atom_site_fract_y
  _atom_site_fract_z
C1 C 0.32211 0.36804 1.36821
 N2 N 0.33818 0.33928 1.38119
 C3 C 0.36643 0.32578 1.36476
 N4 N 0.37848 0.34092 1.33524
 C5 C 0.36241 0.36967 1.32224
 N6 N 0.33416 0.38319 1.33867
 C7 C 1.17815 0.63426 0.86781
 N8 N 1.16489 0.61865 0.83905
 C9 C 1.13585 0.63177 0.82354
 N10 N 1.12016 0.66058 0.83670
 C11 C 1.13341 0.67618 0.86546
 N12 N 1.16245 0.66306 0.88097
 C13 C 0.67739 -0.13899 0.13351
 N14 N 0.66169 -0.16812 0.12114
 C15 C 0.63250 -0.18055 0.13676
 N16 N 0.61913 -0.16395 0.16488
 C17 C 0.63484 -0.13482 0.17724
 N18 N 0.66401 -0.12241 0.16162
 C19 C -0.17534 1.13671 -0.36857
 N20 N -0.15912 1.16536 -0.38141
 C21 C -0.13056 1.17836 -0.36506
 N22 N -0.11834 1.16280 -0.33574
 C23 C -0.13458 1.13414 -0.32290
 N24 N -0.16312 1.12116 -0.33927
 C25 C 0.67579 0.63908 0.63133
 N26 N 0.66318 0.62294 0.66007
 C27 C 0.63478 0.63600 0.67658
 N28 N 0.61909 0.66534 0.66445
 C29 C 0.63170 0.68149 0.63569
 N30 N 0.66012 0.66842 0.61919
 C31 C 0.82393 0.36245 0.13209
 N32 N 0.83973 0.33372 0.11888
 C33 C 0.86832 0.32017 0.13486
 N34 N 0.88099 0.33525 0.16415
 C35 C 0.86519 0.36397 0.17737
 N36 N 0.83661 0.37752 0.16138
 C37 C 0.32215 0.13398 0.86766
 N38 N 0.33417 0.11889 0.83812
 C39 C 0.36257 0.13219 0.82181
 N40 N 0.37884 0.16067 0.83493
 C41 C 0.36683 0.17574 0.86445
 N42 N 0.33843 0.16246 0.88077
 C43 C 0.17724 0.86541 0.36936
 N44 N 0.16205 0.83604 0.38189
 C45 C 0.13334 0.82282 0.36598
 N46 N 0.11994 0.83886 0.33745
 C47 C 0.13513 0.86822 0.32493
 N48 N 0.16383 0.88143 0.34083
 Zn49 Zn 0.01962 0.99113 -0.04206
 Zn50 Zn -0.00700 0.95503 0.02127
 Zn51 Zn 0.02631 1.02532 0.02766
 Zn52 Zn -0.04392 1.01789 -0.00600
 O53 O -0.00121 0.99739 0.00024
 O54 O 0.02884 0.94633 -0.05134
 O55 O 0.01487 0.95231 0.06222
 O56 O 0.06592 1.03833 0.00637
 O57 O 0.00942 0.91956 -0.00411
 O58 O 0.06061 1.01305 -0.04514
 O59 O 0.03942 1.00432 0.06738
 O60 O -0.04728 1.05894 0.01556
 O61 O -0.05173 0.94528 0.03029
 O62 O 0.00470 1.06490 0.04026
 O63 O -0.07926 0.99200 0.01021
 O64 O -0.05345 1.02685 -0.05069
 O65 O -0.00619 1.00728 -0.07752
 C66 C 0.02384 0.91887 -0.03372
 C67 C 0.03315 0.97403 0.07899
 C68 C 0.07744 1.03171 -0.02379
 C69 C -0.02579 1.07610 0.03379
 C70 C -0.07951 0.96243 0.02493
 C71 C -0.03594 1.02177 -0.07813
 Zn72 Zn 0.47864 0.00957 0.45588
 Zn73 Zn 0.47229 -0.02439 0.52583
 Zn74 Zn 0.54216 -0.01810 0.49148
 Zn75 Zn 0.50667 0.04538 0.51882
 O76 O 0.49990 0.00308 0.49804
 O77 O 0.43758 -0.01225 0.45303
 O78 O 0.49391 -0.06366 0.53958
 O79 O 0.55101 -0.02741 0.44676
 O80 O 0.43277 -0.03780 0.50454
 O81 O 0.50394 -0.00662 0.42027
 O82 O 0.54541 -0.05879 0.51384
 O83 O 0.55170 0.05437 0.52767
 O84 O 0.45890 -0.00263 0.56489
 O85 O 0.57805 0.00735 0.50701
 O86 O 0.48466 0.04878 0.55957
 O87 O 0.49072 0.08102 0.49324
 O88 O 0.46970 0.05446 0.44659
 C89 C 0.42103 -0.03114 0.47440
 C90 C 0.52423 -0.07520 0.53306
 C91 C 0.53338 -0.02169 0.41943
 C92 C 0.57908 0.03679 0.52181
 C93 C 0.46554 0.02766 0.57619
 C94 C 0.47563 0.08188 0.46391
 Zn95 Zn 1.02011 0.50696 0.45754
 Zn96 Zn 1.02712 0.47370 0.52781
 Zn97 Zn 0.99268 0.54351 0.52022
 Zn98 Zn 0.95695 0.47982 0.49373
 O99 O 0.99926 0.50097 0.49987
 O100 O 1.06136 0.48545 0.45491
 O101 O 1.03980 0.49535 0.56720
 O102 O 1.00900 0.57886 0.49448
 O103 O 1.06700 0.46091 0.50684
 O104 O 1.02894 0.55169 0.44776
 O105 O 1.01425 0.54691 0.56131
 O106 O 0.92114 0.50552 0.50917
 O107 O 1.00608 0.43402 0.54100
 O108 O 0.94768 0.55294 0.52860
 O109 O 0.95411 0.43906 0.51601
 O110 O 0.94774 0.47016 0.44915
 O111 O 0.99466 0.49026 0.42217
 C112 C 1.07845 0.46730 0.47659
 C113 C 1.03295 0.52565 0.57839
 C114 C 1.02367 0.57930 0.46499
 C115 C 0.92024 0.53534 0.52322
 C116 C 0.97577 0.42239 0.53461
 C117 C 0.96519 0.47531 0.42168
 Zn118 Zn 0.48092 0.49220 0.95643
 Zn119 Zn 0.54390 0.51975 0.99278
 Zn120 Zn 0.47355 0.52613 1.02618
 Zn121 Zn 0.50816 0.45632 1.01986
 O122 O 0.50159 0.49863 0.99885
 O123 O 0.50659 0.50849 0.92110
 O124 O 0.54680 0.56038 1.01509
 O125 O 0.43419 0.53945 1.00437
 O126 O 0.55325 0.52921 0.94816
 O127 O 0.43980 0.51393 0.95301
 O128 O 0.49488 0.56542 1.03998
 O129 O 0.48576 0.45298 1.06042
 O130 O 0.57966 0.49418 1.00872
 O131 O 0.45982 0.50442 1.06522
 O132 O 0.55310 0.44718 1.02917
 O133 O 0.49249 0.42073 0.99424
 O134 O 0.47223 0.44733 0.94715
 C135 C 0.53598 0.52358 0.92062
 C136 C 0.52530 0.57687 1.03389
 C137 C 0.42286 0.53276 0.97411
 C138 C 0.46644 0.47415 1.07676
 C139 C 0.58055 0.46468 1.02355
 C140 C 0.47786 0.41991 0.96469
 C141 C 1.17301 0.43077 0.44351
 C142 C 1.19430 0.45330 0.42352
 C143 C 1.22597 0.44071 0.40898
 C144 C 1.23618 0.40566 0.41454
 C145 C 1.21534 0.38339 0.43527
 C146 C 1.18365 0.39599 0.44979
 C147 C 1.16314 0.37319 0.47023
 C148 C 1.17366 0.33893 0.47621
 C149 C 1.20464 0.32661 0.46203
 C150 C 1.22534 0.34846 0.44176
 C151 C 1.24670 0.46365 0.38892
 C152 C 1.23646 0.49807 0.38339
 C153 C 1.20550 0.51040 0.39761
 C154 C 1.18455 0.48839 0.41744
 C155 C 1.26758 0.39229 0.39818
 C156 C 1.29336 0.38101 0.38421
 C157 C 1.13966 0.44312 0.45650
 C158 C 1.11176 0.45382 0.46629
 H159 H 1.13886 0.38162 0.48186
 H160 H 1.15768 0.32185 0.49194
 H161 H 1.21271 0.29997 0.46676
 H162 H 1.24925 0.33770 0.43134
 H163 H 1.27104 0.45528 0.37736
 H164 H 1.25265 0.51527 0.36801
 H165 H 1.19765 0.53717 0.39326
 H166 H 1.16073 0.49922 0.42799
 C167 C 0.32912 0.57053 0.93950
 C168 C 0.31097 0.55107 0.91397
 C169 C 0.27918 0.56405 0.89986
 C170 C 0.26570 0.59639 0.91135
 C171 C 0.28358 0.61561 0.93723
 C172 C 0.31539 0.60264 0.95134
 C173 C 0.33286 0.62236 0.97707
 C174 C 0.31928 0.65400 0.98857
 C175 C 0.28818 0.66669 0.97478
 C176 C 0.27043 0.64782 0.94940
 C177 C 0.26160 0.54420 0.87427
 C178 C 0.27503 0.51243 0.86296
 C179 C 0.30611 0.49974 0.87675
 C180 C 0.32399 0.51872 0.90196
 C181 C 0.23382 0.61013 0.89607
 C182 C 0.20754 0.62148 0.88295
 C183 C 0.36223 0.55775 0.95291
 C184 C 0.38986 0.54667 0.96316
 H185 H 0.35711 0.61354 0.98859
 H186 H 0.33298 0.66876 1.00828
 H187 H 0.27775 0.69128 0.98381
 H188 H 0.24631 0.65874 0.93948
 H189 H 0.23732 0.55295 0.86277
 H190 H 0.26124 0.49759 0.84338
 H191 H 0.31644 0.47505 0.86788
 H192 H 0.34804 0.50772 0.91191
 C193 C -0.17113 0.92242 0.06187
 C194 C -0.17105 0.90713 0.09541
 C195 C -0.20260 0.89408 0.10976
 C196 C -0.23406 0.89637 0.09048
 C197 C -0.23407 0.91135 0.05681
 C198 C -0.20251 0.92442 0.04247
 C199 C -0.20317 0.93936 0.00881
 C200 C -0.23414 0.94132 -0.01016
 C201 C -0.26500 0.92853 0.00385
 C202 C -0.26513 0.91370 0.03695
 C203 C -0.20188 0.87899 0.14337
 C204 C -0.17087 0.87686 0.16226
 C205 C -0.14002 0.88961 0.14824
 C206 C -0.13995 0.90460 0.11522
 C207 C -0.26637 0.88360 0.10549
 C208 C -0.29295 0.87300 0.11844
 C209 C -0.13899 0.93651 0.04770
 C210 C -0.11201 0.94831 0.03675
 H211 H -0.17982 0.94964 -0.00319
 H212 H -0.23419 0.95281 -0.03588
 H213 H -0.28899 0.93011 -0.01099
 H214 H -0.28977 0.90409 0.04674
 H215 H -0.22519 0.86868 0.15540
 H216 H -0.17080 0.86523 0.18792
 H217 H -0.11599 0.88788 0.16301
 H218 H -0.11527 0.91413 0.10544
 C219 C 0.67305 0.07368 0.55633
 C220 C 0.69577 0.05069 0.57427
 C221 C 0.72751 0.06339 0.58861
 C222 C 0.73636 0.09901 0.58489
 C223 C 0.71399 0.12184 0.56631
 C224 C 0.68224 0.10913 0.55199
 C225 C 0.66021 0.13248 0.53369
 C226 C 0.66932 0.16738 0.52961
 C227 C 0.70036 0.17981 0.54360
 C228 C 0.72254 0.15742 0.56177
 C229 C 0.74970 0.03996 0.60661
 C230 C 0.74081 0.00496 0.61031
 C231 C 0.70978 -0.00748 0.59629
 C232 C 0.68742 0.01500 0.57846
 C233 C 0.76800 0.11232 0.60090
 C234 C 0.79401 0.12342 0.61463
 C235 C 0.63985 0.06101 0.54321
 C236 C 0.61214 0.05019 0.53302
 H237 H 0.63582 0.12402 0.52230
 H238 H 0.65218 0.18488 0.51551
 H239 H 0.70732 0.20695 0.54036
 H240 H 0.74643 0.16830 0.57214
 H241 H 0.77414 0.04839 0.61794
 H242 H 0.75810 -0.01260 0.62414
 H243 H 0.70299 -0.03469 0.59923
 H244 H 0.66361 0.00408 0.56798
 C245 C 0.44023 0.17544 0.42687
 C246 C 0.42184 0.19777 0.44971
 C247 C 0.40740 0.22949 0.43704
 C248 C 0.41146 0.23871 0.40163
 C249 C 0.43037 0.21667 0.37893
 C250 C 0.44479 0.18494 0.39160
 C251 C 0.46344 0.16325 0.36839
 C252 C 0.46775 0.17267 0.33366
 C253 C 0.45365 0.20369 0.32128
 C254 C 0.43515 0.22555 0.34353
 C255 C 0.38897 0.25129 0.46032
 C256 C 0.38494 0.24204 0.49512
 C257 C 0.39907 0.21103 0.50752
 C258 C 0.41732 0.18905 0.48520
 C259 C 0.39558 0.27045 0.38840
 C260 C 0.38202 0.29659 0.37733
 C261 C 0.45365 0.14236 0.43953
 C262 C 0.46411 0.11477 0.45039
 H263 H 0.47492 0.13888 0.37683
 H264 H 0.48211 0.15579 0.31627
 H265 H 0.45708 0.21089 0.29427
 H266 H 0.42471 0.24943 0.33269
 H267 H 0.37753 0.27569 0.45191
 H268 H 0.37077 0.25903 0.51257
 H269 H 0.39588 0.20396 0.53459
 H270 H 0.42786 0.16523 0.49608
 C271 C 0.94300 0.32830 0.57235
 C272 C 0.94848 0.31858 0.60745
 C273 C 0.93433 0.28684 0.62026
 C274 C 0.91476 0.26503 0.59789
 C275 C 0.90993 0.27439 0.56258
 C276 C 0.92410 0.30611 0.54977
 C277 C 0.91877 0.31498 0.51441
 C278 C 0.90001 0.29315 0.49234
 C279 C 0.88615 0.26215 0.50488
 C280 C 0.89096 0.25275 0.53957
 C281 C 0.94000 0.27775 0.65550
 C282 C 0.95915 0.29939 0.67745
 C283 C 0.97298 0.33041 0.66492
 C284 C 0.96778 0.34004 0.63034
 C285 C 0.89888 0.23343 0.61133
 C286 C 0.88523 0.20742 0.62244
 C287 C 0.95577 0.36157 0.55963
 C288 C 0.96546 0.38932 0.54856
 H289 H 0.92908 0.33880 0.50341
 H290 H 0.89621 0.30034 0.46537
 H291 H 0.87159 0.24527 0.48764
 H292 H 0.87970 0.22835 0.54809
 H293 H 0.92979 0.25386 0.66644
 H294 H 0.96327 0.29203 0.70433
 H295 H 0.98784 0.34712 0.68207
 H296 H 0.97910 0.36439 0.62177
 C297 C 0.06036 0.82596 -0.07093
 C298 C 0.08645 0.80823 -0.05164
 C299 C 0.10091 0.77670 -0.06457
 C300 C 0.08919 0.76306 -0.09671
 C301 C 0.06276 0.78054 -0.11576
 C302 C 0.04830 0.81209 -0.10283
 C303 C 0.02201 0.82915 -0.12239
 C304 C 0.01030 0.81543 -0.15383
 C305 C 0.02442 0.78458 -0.16647
 C306 C 0.05036 0.76723 -0.14777
 C307 C 0.12707 0.75952 -0.04489
 C308 C 0.13859 0.77309 -0.01332
 C309 C 0.12444 0.80391 -0.00067
 C310 C 0.09868 0.82139 -0.01949
 C311 C 0.10477 0.73142 -0.11039
 C312 C 0.11808 0.70534 -0.12173
 C313 C 0.04649 0.85877 -0.05818
 C314 C 0.03570 0.88616 -0.04725
 H315 H 0.01021 0.85320 -0.11360
 H316 H -0.00985 0.82881 -0.16845
 H317 H 0.01523 0.77403 -0.19090
 H318 H 0.06052 0.74330 -0.15865
 H319 H 0.13885 0.73545 -0.05363
 H320 H 0.15860 0.75961 0.00139
 H321 H 0.13346 0.81434 0.02388
 H322 H 0.08846 0.84525 -0.00853
 C323 C 0.56061 0.66814 1.07569
 C324 C 0.54079 0.69928 1.07436
 C325 C 0.55514 0.73080 1.08744
 C326 C 0.58922 0.73097 1.10177
 C327 C 0.60886 0.69973 1.10350
 C328 C 0.59452 0.66823 1.09044
 C329 C 0.61471 0.63735 1.09237
 C330 C 0.64811 0.63758 1.10679
 C331 C 0.66213 0.66839 1.11955
 C332 C 0.64287 0.69918 1.11799
 C333 C 0.53488 0.76162 1.08572
 C334 C 0.50139 0.76131 1.07150
 C335 C 0.48737 0.73050 1.05872
 C336 C 0.50673 0.69976 1.06005
 C337 C 0.60429 0.76327 1.11440
 C338 C 0.61733 0.78983 1.12488
 C339 C 0.54665 0.63616 1.06117
 C340 C 0.53617 0.60927 1.04885
 H341 H 0.60495 0.61271 1.08284
 H342 H 0.66317 0.61372 1.10807
 H343 H 0.68809 0.66844 1.13073
 H344 H 0.65492 0.72246 1.12829
 H345 H 0.54466 0.78621 1.09536
 H346 H 0.48624 0.78513 1.07040
 H347 H 0.46134 0.73040 1.04770
 H348 H 0.49471 0.67642 1.04982
 C349 C 0.42453 0.43932 1.16813
 C350 C 0.41221 0.40457 1.16948
 C351 C 0.39892 0.39086 1.20114
 C352 C 0.39799 0.41198 1.23127
 C353 C 0.40988 0.44687 1.22980
 C354 C 0.42320 0.46057 1.19813
 C355 C 0.43505 0.49547 1.19733
 C356 C 0.43376 0.51626 1.22696
 C357 C 0.42073 0.50286 1.25792
 C358 C 0.40890 0.46858 1.25948
 C359 C 0.38688 0.35601 1.20187
 C360 C 0.38792 0.33530 1.17217
 C361 C 0.40092 0.34869 1.14122
 C362 C 0.41296 0.38290 1.13973
 C363 C 0.38523 0.39760 1.26380
 C364 C 0.37476 0.38514 1.29061
 C365 C 0.43913 0.45283 1.13600
 C366 C 0.45148 0.46314 1.10909
 H367 H 0.44537 0.50705 1.17384
 H368 H 0.44292 0.54290 1.22589
 H369 H 0.41978 0.51912 1.28086
 H370 H 0.39898 0.45933 1.28414
 H371 H 0.37651 0.34440 1.22532
 H372 H 0.37859 0.30871 1.17320
 H373 H 0.40168 0.33250 1.11822
 H374 H 0.42280 0.39212 1.11504
 C375 C 0.57081 -0.05745 0.32658
 C376 C 0.60699 -0.05626 0.31921
 C377 C 0.61993 -0.07114 0.28796
 C378 C 0.59661 -0.08714 0.26428
 C379 C 0.56035 -0.08769 0.27131
 C380 C 0.54741 -0.07280 0.30254
 C381 C 0.51107 -0.07381 0.30907
 C382 C 0.48817 -0.08908 0.28541
 C383 C 0.50083 -0.10366 0.25489
 C384 C 0.53648 -0.10306 0.24778
 C385 C 0.65622 -0.06978 0.28125
 C386 C 0.67907 -0.05414 0.30472
 C387 C 0.66641 -0.03959 0.33527
 C388 C 0.63081 -0.04057 0.34257
 C389 C 0.61000 -0.10367 0.23310
 C390 C 0.62123 -0.11775 0.20745
 C391 C 0.55778 -0.04390 0.35930
 C392 C 0.54679 -0.03333 0.38668
 H393 H 0.49996 -0.06276 0.33243
 H394 H 0.46045 -0.08960 0.29081
 H395 H 0.48294 -0.11550 0.23659
 H396 H 0.54507 -0.11470 0.22366
 H397 H 0.66731 -0.08070 0.25782
 H398 H 0.70675 -0.05331 0.29916
 H399 H 0.68426 -0.02746 0.35341
 H400 H 0.62220 -0.02886 0.36665
 C401 C -0.07483 1.05965 -0.16979
 C402 C -0.07062 1.04146 -0.20149
 C403 C -0.08306 1.05637 -0.23304
 C404 C -0.09961 1.08939 -0.23269
 C405 C -0.10411 1.10743 -0.20093
 C406 C -0.09169 1.09252 -0.16939
 C407 C -0.09642 1.11110 -0.13798
 C408 C -0.11294 1.14346 -0.13773
 C409 C -0.12507 1.15804 -0.16857
 C410 C -0.12078 1.14036 -0.19988
 C411 C -0.07849 1.03774 -0.26442
 C412 C -0.06210 1.00530 -0.26463
 C413 C -0.04994 0.99073 -0.23378
 C414 C -0.05408 1.00849 -0.20250
 C415 C -0.11186 1.10492 -0.26494
 C416 C -0.12213 1.11813 -0.29152
 C417 C -0.06124 1.04503 -0.13765
 C418 C -0.04979 1.03380 -0.11065
 H419 H -0.08747 1.10084 -0.11330
 H420 H -0.11634 1.15730 -0.11347
 H421 H -0.13788 1.18320 -0.16825
 H422 H -0.13068 1.15278 -0.22317
 H423 H -0.08752 1.04800 -0.28907
 H424 H -0.05883 0.99139 -0.28886
 H425 H -0.03724 0.96552 -0.23409
 H426 H -0.04421 0.99609 -0.17917
 C427 C 1.07059 0.55971 0.67190
 C428 C 1.10258 0.54731 0.68569
 C429 C 1.11569 0.56123 0.71736
 C430 C 1.09674 0.58747 0.73502
 C431 C 1.06448 0.59947 0.72151
 C432 C 1.05136 0.58556 0.68986
 C433 C 1.01911 0.59809 0.67681
 C434 C 1.00036 0.62362 0.69450
 C435 C 1.01318 0.63721 0.72544
 C436 C 1.04485 0.62539 0.73891
 C437 C 1.14779 0.54851 0.73058
 C438 C 1.16640 0.52277 0.71302
 C439 C 1.15358 0.50918 0.68207
 C440 C 1.12205 0.52122 0.66843
 C441 C 1.11069 0.60264 0.76669
 C442 C 1.12220 0.61571 0.79276
 C443 C 1.05774 0.54656 0.63890
 C444 C 1.04668 0.53648 0.61133
 H445 H 1.00802 0.58831 0.65286
 H446 H 0.97573 0.63288 0.68415
 H447 H 0.99851 0.65703 0.73910
 H448 H 1.05372 0.63675 0.76308
 H449 H 1.15880 0.55825 0.75458
 H450 H 1.19089 0.51332 0.72351
 H451 H 1.16814 0.48919 0.66854
 H452 H 1.11312 0.50984 0.64429
 C453 C 0.82671 0.57432 0.55657
 C454 C 0.82099 0.61075 0.55782
 C455 C 0.78939 0.62405 0.57191
 C456 C 0.76371 0.60084 0.58467
 C457 C 0.76911 0.56439 0.58272
 C458 C 0.80070 0.55109 0.56862
 C459 C 0.80557 0.51456 0.56712
 C460 C 0.77997 0.49182 0.57918
 C461 C 0.74909 0.50482 0.59296
 C462 C 0.74358 0.54067 0.59479
 C463 C 0.78434 0.66057 0.57304
 C464 C 0.80977 0.68330 0.56060
 C465 C 0.84067 0.67030 0.54685
 C466 C 0.84636 0.63446 0.54542
 C467 C 0.73221 0.61444 0.60066
 C468 C 0.70631 0.62569 0.61442
 C469 C 0.85971 0.56075 0.54391
 C470 C 0.88728 0.54928 0.53407
 H471 H 0.82913 0.50318 0.55657
 H472 H 0.78412 0.46395 0.57781
 H473 H 0.72928 0.48705 0.60229
 H474 H 0.71912 0.54953 0.60569
 H475 H 0.76071 0.67193 0.58346
 H476 H 0.80546 0.71116 0.56165
 H477 H 0.86034 0.68807 0.53722
 H478 H 0.87078 0.62559 0.53444
 C479 C 0.67418 0.42703 1.05864
 C480 C 0.69613 0.44924 1.07827
 C481 C 0.72777 0.43613 1.09260
 C482 C 0.73731 0.40090 1.08718
 C483 C 0.71571 0.37888 1.06697
 C484 C 0.68405 0.39199 1.05267
 C485 C 0.66280 0.36944 1.03270
 C486 C 0.67257 0.33494 1.02699
 C487 C 0.70353 0.32213 1.04097
 C488 C 0.72495 0.34372 1.06076
 C489 C 0.74918 0.45878 1.11229
 C490 C 0.73962 0.49340 1.11763
 C491 C 0.70869 0.50622 1.10362
 C492 C 0.68709 0.48452 1.08415
 C493 C 0.76892 0.38713 1.10302
 C494 C 0.79491 0.37558 1.11654
 C495 C 0.64111 0.44004 1.04538
 C496 C 0.61350 0.45109 1.03502
 H497 H 0.63851 0.37823 1.02125
 H498 H 0.65603 0.31806 1.01163
 H499 H 0.71101 0.29531 1.03645
 H500 H 0.74879 0.33257 1.07105
 H501 H 0.77351 0.45003 1.12369
 H502 H 0.75632 0.51037 1.13273
 H503 H 0.70138 0.53314 1.10783
 H504 H 0.66332 0.49572 1.07375
 C505 C 0.17133 1.06975 -0.05701
 C506 C 0.17956 1.10556 -0.05401
 C507 C 0.21118 1.11854 -0.06833
 C508 C 0.23436 1.09562 -0.08559
 C509 C 0.22650 1.05966 -0.08791
 C510 C 0.19490 1.04669 -0.07358
 C511 C 0.18753 1.01067 -0.07639
 C512 C 0.21072 0.98812 -0.09287
 C513 C 0.24161 1.00081 -0.10687
 C514 C 0.24954 1.03615 -0.10451
 C515 C 0.21875 1.15448 -0.06515
 C516 C 0.19577 1.17695 -0.04829
 C517 C 0.16485 1.16426 -0.03431
 C518 C 0.15670 1.12900 -0.03706
 C519 C 0.26581 1.10913 -0.10172
 C520 C 0.29167 1.12041 -0.11553
 C521 C 0.13818 1.05676 -0.04415
 C522 C 0.11049 1.04560 -0.03433
 H523 H 0.16386 0.99954 -0.06586
 H524 H 0.20468 0.96064 -0.09476
 H525 H 0.25955 0.98319 -0.11964
 H526 H 0.27392 1.04477 -0.11577
 H527 H 0.24250 1.16556 -0.07557
 H528 H 0.20198 1.20436 -0.04607
 H529 H 0.14709 1.18183 -0.02124
 H530 H 0.13238 1.12034 -0.02573
 C531 C 0.32725 -0.06955 0.44110
 C532 C 0.31480 -0.10250 0.45202
 C533 C 0.28310 -0.11580 0.43811
 C534 C 0.26406 -0.09606 0.41336
 C535 C 0.27621 -0.06284 0.40289
 C536 C 0.30788 -0.04955 0.41681
 C537 C 0.31957 -0.01632 0.40582
 C538 C 0.30050 0.00319 0.38180
 C539 C 0.26954 -0.00982 0.36819
 C540 C 0.25740 -0.04243 0.37851
 C541 C 0.27124 -0.14887 0.44930
 C542 C 0.29016 -0.16825 0.47357
 C543 C 0.32115 -0.15524 0.48716
 C544 C 0.33346 -0.12277 0.47660
 C545 C 0.23241 -0.11015 0.39806
 C546 C 0.20635 -0.12170 0.38480
 C547 C 0.36037 -0.05651 0.45407
 C548 C 0.38802 -0.04522 0.46392
 H549 H 0.34348 -0.00505 0.41568
 H550 H 0.30982 0.02855 0.37370
 H551 H 0.25482 0.00544 0.34953
 H552 H 0.23315 -0.05140 0.36722
 H553 H 0.24727 -0.16006 0.43949
 H554 H 0.28071 -0.19349 0.48186
 H555 H 0.33573 -0.17040 0.50601
 H556 H 0.35767 -0.11372 0.48794
 C557 C 0.55997 -0.16659 0.57484
 C558 C 0.59463 -0.16728 0.58772
 C559 C 0.60896 -0.19888 0.60079
 C560 C 0.58854 -0.22961 0.60095
 C561 C 0.55373 -0.22881 0.58851
 C562 C 0.53940 -0.19719 0.57541
 C563 C 0.50459 -0.19704 0.56302
 C564 C 0.48449 -0.22727 0.56355
 C565 C 0.49849 -0.25818 0.57635
 C566 C 0.53270 -0.25909 0.58871
 C567 C 0.64371 -0.19895 0.61338
 C568 C 0.66373 -0.16867 0.61309
 C569 C 0.64972 -0.13777 0.60033
 C570 C 0.61560 -0.13693 0.58775
 C571 C 0.60355 -0.26203 0.61357
 C572 C 0.61655 -0.28872 0.62397
 C573 C 0.54592 -0.13453 0.56034
 C574 C 0.53533 -0.10761 0.54803
 H575 H 0.49256 -0.17361 0.55286
 H576 H 0.45790 -0.22669 0.55399
 H577 H 0.48277 -0.28158 0.57671
 H578 H 0.54244 -0.28374 0.59844
 H579 H 0.65578 -0.22234 0.62360
 H580 H 0.69026 -0.16920 0.62284
 H581 H 0.66537 -0.11430 0.60017
 H582 H 0.60588 -0.11224 0.57813
 C583 C 1.06134 0.67106 0.42615
 C584 C 1.04191 0.70239 0.42809
 C585 C 1.05655 0.73402 0.41555
 C586 C 1.09055 0.73411 0.40116
 C587 C 1.10991 0.70273 0.39903
 C588 C 1.09526 0.67111 0.41155
 C589 C 1.11515 0.64008 0.40919
 C590 C 1.14854 0.64028 0.39488
 C591 C 1.16286 0.67120 0.38266
 C592 C 1.14389 0.70213 0.38464
 C593 C 1.03664 0.76502 0.41781
 C594 C 1.00322 0.76480 0.43207
 C595 C 0.98892 0.73388 0.44434
 C596 C 1.00792 0.70296 0.44244
 C597 C 1.10569 0.76643 0.38860
 C598 C 1.11857 0.79306 0.37805
 C599 C 1.04685 0.63885 0.43969
 C600 C 1.03567 0.61182 0.45112
 H601 H 1.10515 0.61536 0.41831
 H602 H 1.16337 0.61630 0.39328
 H603 H 1.18881 0.67122 0.37157
 H604 H 1.15617 0.72551 0.37478
 H605 H 1.04665 0.78972 0.40861
 H606 H 0.98836 0.78875 0.43360
 H607 H 0.96295 0.73385 0.45539
 H608 H 0.99568 0.67955 0.45230
 C609 C -0.05945 1.17006 0.07103
 C610 C -0.05144 1.18092 0.10528
 C611 C -0.06549 1.21264 0.11825
 C612 C -0.08746 1.23331 0.09689
 C613 C -0.09493 1.22278 0.06241
 C614 C -0.08088 1.19107 0.04944
 C615 C -0.08884 1.18103 0.01493
 C616 C -0.11006 1.20171 -0.00616
 C617 C -0.12381 1.23269 0.00653
 C618 C -0.11643 1.24323 0.04040
 C619 C -0.05724 1.22287 0.15262
 C620 C -0.03572 1.20237 0.17358
 C621 C -0.02199 1.17137 0.16089
 C622 C -0.02969 1.16063 0.12716
 C623 C -0.10299 1.26498 0.11059
 C624 C -0.11631 1.29104 0.12199
 C625 C -0.04650 1.13689 0.05827
 C626 C -0.03655 1.10918 0.04735
 H627 H -0.07874 1.15717 0.00386
 H628 H -0.11585 1.19364 -0.03249
 H629 H -0.14028 1.24867 -0.00995
 H630 H -0.12771 1.26757 0.04908
 H631 H -0.06726 1.24679 0.16364
 H632 H -0.02965 1.21059 0.19980
 H633 H -0.00527 1.15554 0.17727
 H634 H -0.01836 1.13633 0.11843
 C635 C 0.44263 0.32659 0.92755
 C636 C 0.44599 0.31789 0.89196
 C637 C 0.43140 0.28634 0.87926
 C638 C 0.41352 0.26370 0.90222
 C639 C 0.41073 0.27209 0.93793
 C640 C 0.42533 0.30363 0.95064
 C641 C 0.42205 0.31154 0.98642
 C642 C 0.40486 0.28893 1.00900
 C643 C 0.39059 0.25810 0.99657
 C644 C 0.39340 0.24964 0.96147
 C645 C 0.43497 0.27827 0.84355
 C646 C 0.45244 0.30072 0.82104
 C647 C 0.46669 0.33158 0.83347
 C648 C 0.46357 0.34020 0.86849
 C649 C 0.39735 0.23220 0.88898
 C650 C 0.38356 0.20629 0.87787
 C651 C 0.45605 0.35955 0.94027
 C652 C 0.46647 0.38707 0.95116
 H653 H 0.43276 0.33519 0.99734
 H654 H 0.40262 0.29539 1.03629
 H655 H 0.37726 0.24062 1.01421
 H656 H 0.38190 0.22534 0.95304
 H657 H 0.42437 0.25455 0.83267
 H658 H 0.45494 0.29413 0.79381
 H659 H 0.48024 0.34893 0.81587
 H660 H 0.47512 0.36447 0.87695
 C661 C 0.57458 0.55986 0.82835
 C662 C 0.55495 0.55626 0.79734
 C663 C 0.56741 0.57113 0.76585
 C664 C 0.59943 0.58952 0.76557
 C665 C 0.61935 0.59260 0.79646
 C666 C 0.60689 0.57774 0.82794
 C667 C 0.62719 0.58130 0.85852
 C668 C 0.65890 0.59902 0.85800
 C669 C 0.67109 0.61355 0.82723
 C670 C 0.65165 0.61047 0.79673
 C671 C 0.54727 0.56732 0.73522
 C672 C 0.51571 0.54930 0.73567
 C673 C 0.50353 0.53476 0.76645
 C674 C 0.52281 0.53813 0.79701
 C675 C 0.61167 0.60568 0.73369
 C676 C 0.62205 0.61940 0.70747
 C677 C 0.56111 0.54611 0.86085
 C678 C 0.54975 0.53539 0.88805
 H679 H 0.61883 0.57041 0.88309
 H680 H 0.67410 0.60149 0.88162
 H681 H 0.69575 0.62729 0.82696
 H682 H 0.66226 0.62218 0.77344
 H683 H 0.55568 0.57814 0.71064
 H684 H 0.50064 0.54661 0.71199
 H685 H 0.47901 0.52078 0.76666
 H686 H 0.51227 0.52632 0.82030
 C687 C 0.42425 0.06258 0.66770
 C688 C 0.42417 0.04169 0.69807
 C689 C 0.41101 0.05541 0.72976
 C690 C 0.39801 0.08995 0.73088
 C691 C 0.39772 0.11071 0.70040
 C692 C 0.41086 0.09698 0.66872
 C693 C 0.41037 0.11827 0.63862
 C694 C 0.39728 0.15214 0.63978
 C695 C 0.38445 0.16556 0.67076
 C696 C 0.38460 0.14521 0.70079
 C697 C 0.41129 0.03407 0.75980
 C698 C 0.42420 0.00013 0.75857
 C699 C 0.43707 -0.01328 0.72759
 C700 C 0.43712 0.00714 0.69760
 C701 C 0.38532 0.10434 0.76338
 C702 C 0.37489 0.11678 0.79018
 C703 C 0.43866 0.04907 0.63553
 C704 C 0.45083 0.03872 0.60858
 H705 H 0.42004 0.10901 0.61389
 H706 H 0.39710 0.16805 0.61651
 H707 H 0.37430 0.19189 0.67153
 H708 H 0.37431 0.15682 0.72425
 H709 H 0.40154 0.04334 0.78449
 H710 H 0.42421 -0.01585 0.78179
 H711 H 0.44706 -0.03966 0.72678
 H712 H 0.44736 -0.00444 0.67410
 C713 C 0.07067 0.94156 0.17325
 C714 C 0.04838 0.92179 0.19499
 C715 C 0.06129 0.90786 0.22678
 C716 C 0.09641 0.91378 0.23665
 C717 C 0.11847 0.93419 0.21529
 C718 C 0.10556 0.94811 0.18348
 C719 C 0.12815 0.96825 0.16245
 C720 C 0.16252 0.97450 0.17258
 C721 C 0.17514 0.96092 0.20368
 C722 C 0.15349 0.94096 0.22489
 C723 C 0.03858 0.88802 0.24797
 C724 C 0.00408 0.88213 0.23806
 C725 C -0.00854 0.89573 0.20697
 C726 C 0.01323 0.91534 0.18558
 C727 C 0.11005 0.89813 0.26829
 C728 C 0.12144 0.88467 0.29429
 C729 C 0.05793 0.95418 0.13994
 C730 C 0.04693 0.96379 0.11215
 H731 H 0.11950 0.97941 0.13806
 H732 H 0.17944 0.98999 0.15620
 H733 H 0.20185 0.96586 0.21144
 H734 H 0.16448 0.93099 0.24886
 H735 H 0.04717 0.87693 0.27242
 H736 H -0.01293 0.86692 0.25460
 H737 H -0.03536 0.89108 0.19938
 H738 H 0.00217 0.92541 0.16168
 C739 C 0.92677 0.43686 0.33021
 C740 C 0.91309 0.40259 0.33010
 C741 C 0.90048 0.38787 0.29862
 C742 C 0.90158 0.40750 0.26743
 C743 C 0.91508 0.44183 0.26759
 C744 C 0.92772 0.45655 0.29908
 C745 C 0.94113 0.49088 0.29858
 C746 C 0.94203 0.51015 0.26786
 C747 C 0.92967 0.49577 0.23707
 C748 C 0.91632 0.46201 0.23678
 C749 C 0.88699 0.35355 0.29915
 C750 C 0.88598 0.33433 0.32990
 C751 C 0.89829 0.34873 0.36069
 C752 C 0.91172 0.38244 0.36094
 C753 C 0.88884 0.39234 0.23526
 C754 C 0.87814 0.37951 0.20872
 C755 C 0.94024 0.45154 0.36231
 C756 C 0.95155 0.46294 0.38925
 H757 H 0.95102 0.50319 0.32188
 H758 H 0.95236 0.53638 0.26794
 H759 H 0.93042 0.51085 0.21328
 H760 H 0.90701 0.45196 0.21220
 H761 H 0.87710 0.34121 0.27588
 H762 H 0.87557 0.30813 0.32984
 H763 H 0.89743 0.33370 0.38451
 H764 H 0.92096 0.39249 0.38555
   
