data_POSCAR
  _audit_creation_date              2014-09-24
  _audit_creation_method            'ToBaCCo'
  _symmetry_space_group_name_H-M    'P1'
  _symmetry_Int_Tables_number       1
  _symmetry_cell_setting            triclinic
  loop_
  _symmetry_equiv_pos_as_xyz
 x,y,z
_cell_length_a 22.2675
_cell_length_b 22.4475
_cell_length_c 22.6652
_cell_angle_alpha 90.475500
_cell_angle_beta 89.797600
_cell_angle_gamma 89.105100
loop_
  _atom_site_label
  _atom_site_type_symbol
  _atom_site_fract_x
  _atom_site_fract_y
  _atom_site_fract_z
C1 C 0.44487 0.99175 -0.53278
 C2 C 0.44530 0.99394 -0.47047
 C3 C 0.50029 0.99236 -0.44040
 C4 C 0.55611 0.99098 -0.47017
 C5 C 0.55628 0.99228 -0.53298
 C6 C 0.50055 0.99195 -0.56266
 H7 H 0.50063 0.99126 -0.60990
 H8 H 0.49876 0.99411 -0.39279
 C9 C -0.53394 1.44906 0.00635
 C10 C -0.47269 1.44814 0.02196
 C11 C -0.43877 1.49976 0.01637
 C12 C -0.46289 1.55273 -0.00776
 C13 C -0.52473 1.55358 -0.02280
 C14 C -0.55862 1.50180 -0.01686
 H15 H -0.60505 1.50307 -0.03093
 H16 H -0.39299 1.49753 0.03195
 C17 C -0.00638 0.44680 0.47233
 C18 C -0.01055 0.44807 0.53532
 C19 C -0.01664 0.50416 0.56369
 C20 C -0.01496 0.55790 0.53302
 C21 C -0.00639 0.55741 0.47142
 C22 C -0.00363 0.50180 0.44202
 H23 H 0.00164 0.50164 0.39473
 H24 H -0.02579 0.50734 0.61047
 O25 O -0.14986 0.98173 -0.08162
 O26 O 0.15355 1.02899 -0.07707
 O27 O -0.01323 1.08983 -0.14781
 O28 O 0.02054 0.93206 -0.15787
 O29 O 0.03050 0.85485 -0.09153
 O30 O -0.02729 1.15659 -0.07079
 O31 O 0.08313 1.02075 -0.15104
 O32 O -0.07886 0.99865 -0.15373
 Zr33 Zr 0.00179 1.00750 -0.10488
 O34 O 0.06442 0.95974 -0.05683
 O35 O -0.06193 1.04882 -0.05198
 C36 C -0.13333 0.98877 -0.13583
 C37 C 0.13751 1.02780 -0.13193
 C38 C -0.02365 1.14288 -0.12638
 C39 C 0.03022 0.87673 -0.14461
 H40 H 0.06614 1.09672 -0.07255
 O41 O 0.04488 1.06608 -0.04980
 H42 H -0.06218 0.91470 -0.08564
 O43 O -0.04171 0.94239 -0.05849
 O44 O 0.15110 1.02311 0.08106
 O45 O -0.15064 0.97011 0.07576
 O46 O 0.05337 1.16515 0.01288
 O47 O 0.10939 0.86339 -0.01160
 O48 O -0.05186 0.83650 -0.01022
 O49 O -0.10729 1.13866 0.00533
 O50 O -0.01186 1.07422 0.15638
 O51 O 0.01043 0.91239 0.14645
 O52 O -0.02662 1.14810 0.08732
 O53 O 0.02550 0.84509 0.06979
 O54 O 0.13787 1.10457 0.00971
 O55 O -0.16512 1.05457 -0.00186
 O56 O -0.13616 0.89736 -0.00641
 O57 O 0.16714 0.94756 -0.00391
 O58 O 0.07986 1.00641 0.15299
 O59 O -0.08076 0.97921 0.15012
 Zr60 Zr 0.10390 1.01802 0.00118
 Zr61 Zr -0.10184 0.98400 -0.00234
 Zr62 Zr -0.01810 1.10440 0.00560
 Zr63 Zr 0.01998 0.89724 -0.00764
 Zr64 Zr -0.00003 0.99555 0.10388
 O65 O -0.04277 0.93595 0.04870
 O66 O 0.04397 1.06030 0.05727
 C67 C 0.13420 1.01700 0.13533
 C68 C -0.13472 0.97046 0.13065
 C69 C 0.11108 1.15610 0.01404
 C70 C 0.16049 0.89058 -0.00918
 C71 C -0.10960 0.84564 -0.00910
 C72 C -0.15835 1.11167 0.00128
 C73 C -0.02191 1.12926 0.14093
 C74 C 0.01964 0.85894 0.12539
 H75 H -0.09261 1.06218 0.08101
 O76 O -0.06233 1.04250 0.05514
 H77 H 0.09241 0.93112 0.07405
 O78 O 0.06287 0.95361 0.05017
 C79 C 0.38996 0.99226 0.43562
 C80 C 0.38506 0.97774 0.37571
 C81 C 0.32948 0.98540 0.34191
 N82 N 0.33220 0.98016 0.28244
 N83 N 0.28325 0.98803 0.24996
 C84 C 0.22946 1.00123 0.27562
 N85 N 0.22634 1.00573 0.33535
 N86 N 0.27565 0.99828 0.36799
 C87 C 0.17577 1.00949 0.23874
 C88 C 0.18269 1.01994 0.17865
 H89 H 0.42281 0.95983 0.35101
 H90 H 0.13152 1.00565 0.25816
 H91 H 0.34870 1.00420 0.45839
 H92 H 0.22742 1.02687 0.16121
 C93 C -0.38941 0.98933 0.43401
 C94 C -0.38476 1.00509 0.37461
 C95 C -0.33006 0.99529 0.33945
 N96 N -0.33329 1.00064 0.28010
 N97 N -0.28479 0.99180 0.24668
 C98 C -0.23104 0.97752 0.27127
 N99 N -0.22749 0.97268 0.33083
 N100 N -0.27631 0.98106 0.36438
 C101 C -0.17740 0.96996 0.23378
 C102 C -0.18379 0.96329 0.17302
 H103 H -0.42187 1.02598 0.35175
 H104 H -0.13327 0.97275 0.25345
 H105 H -0.34865 0.97348 0.45470
 H106 H -0.22832 0.95770 0.15482
 C107 C -0.38990 0.99240 -0.43731
 C108 C -0.38522 0.97328 -0.37898
 C109 C -0.32980 0.97785 -0.34447
 N110 N -0.32968 0.95829 -0.28817
 N111 N -0.28084 0.96303 -0.25508
 C112 C -0.23005 0.98747 -0.27688
 N113 N -0.22983 1.00662 -0.33354
 N114 N -0.27894 1.00197 -0.36677
 C115 C -0.17696 0.99420 -0.23889
 C116 C -0.18191 0.98316 -0.17875
 H117 H -0.42243 0.95182 -0.35752
 H118 H -0.13507 1.00924 -0.25757
 H119 H -0.34924 1.00803 -0.45770
 H120 H -0.22502 0.97031 -0.16098
 C121 C 0.38892 0.99489 -0.43532
 C122 C 0.38233 1.03051 -0.38503
 C123 C 0.32850 1.02952 -0.34755
 N124 N 0.32887 1.05796 -0.29459
 N125 N 0.28138 1.05601 -0.25891
 C126 C 0.23159 1.02582 -0.27499
 N127 N 0.23082 0.99805 -0.32838
 N128 N 0.27853 0.99972 -0.36400
 C129 C 0.18011 1.02144 -0.23459
 C130 C 0.18579 1.03602 -0.17507
 H131 H 0.41854 1.05926 -0.37167
 H132 H 0.13861 1.00308 -0.25097
 H133 H 0.35210 0.96721 -0.44924
 H134 H 0.22868 1.05081 -0.15847
 C135 C 0.42761 1.39614 0.01444
 C136 C 0.36571 1.40110 0.02426
 C137 C 0.32628 1.34925 0.02540
 N138 N 0.26598 1.35756 0.03061
 N139 N 0.22923 1.31131 0.02938
 C140 C 0.25155 1.25500 0.02293
 N141 N 0.31187 1.24665 0.01813
 N142 N 0.34860 1.29291 0.01922
 C143 C 0.21189 1.20340 0.01998
 C144 C 0.14932 1.20873 0.01987
 H145 H 0.34469 1.44453 0.03022
 H146 H 0.23304 1.15973 0.01626
 H147 H 0.44815 1.35220 0.01342
 H148 H 0.12797 1.25233 0.02315
 C149 C 0.44271 0.60618 -0.04581
 C150 C 0.43159 0.65591 -0.01012
 C151 C 0.37848 0.69465 -0.01909
 N152 N 0.37209 0.74611 0.01223
 N153 N 0.32202 0.77907 0.00800
 C154 C 0.27613 0.76142 -0.02714
 N155 N 0.28245 0.70990 -0.05835
 N156 N 0.33273 0.67721 -0.05450
 C157 C 0.21959 0.79615 -0.02998
 C158 C 0.21638 0.85494 -0.01018
 H159 H 0.45838 0.66278 0.02909
 H160 H 0.18028 0.77550 -0.04871
 H161 H 0.41450 0.59924 -0.08404
 H162 H 0.25704 0.87652 0.00424
 C163 C -0.42607 0.60273 -0.01708
 C164 C -0.36306 0.59969 -0.01651
 C165 C -0.32441 0.65205 -0.01857
 N166 N -0.26389 0.64397 -0.01833
 N167 N -0.22747 0.69042 -0.01746
 C168 C -0.25029 0.74680 -0.01667
 N169 N -0.31087 0.75497 -0.01719
 N170 N -0.34736 0.70844 -0.01802
 C171 C -0.21073 0.79855 -0.01438
 C172 C -0.14815 0.79303 -0.01203
 H173 H -0.33957 0.55727 -0.01543
 H174 H -0.23180 0.84237 -0.01403
 H175 H -0.44669 0.64527 -0.02750
 H176 H -0.12694 0.74927 -0.01272
 C177 C -0.44069 1.39476 0.04372
 C178 C -0.42894 1.34666 0.00608
 C179 C -0.37613 1.30743 0.01408
 N180 N -0.36901 1.25790 -0.02005
 N181 N -0.31902 1.22474 -0.01669
 C182 C -0.27395 1.24033 0.02036
 N183 N -0.28100 1.28991 0.05441
 N184 N -0.33120 1.32279 0.05140
 C185 C -0.21763 1.20536 0.02267
 C186 C -0.21384 1.14772 -0.00016
 H187 H -0.45475 1.34181 -0.03406
 H188 H -0.17906 1.22461 0.04422
 H189 H -0.41316 1.40015 0.08268
 H190 H -0.25388 1.12698 -0.01725
 C191 C -0.00290 1.39235 0.43991
 C192 C -0.02012 1.38686 0.38076
 C193 C -0.01785 1.33032 0.34722
 N194 N -0.04095 1.32915 0.29206
 N195 N -0.03921 1.27933 0.25994
 C196 C -0.01429 1.22840 0.28149
 N197 N 0.00877 1.22934 0.33694
 N198 N 0.00696 1.27941 0.36930
 C199 C -0.01053 1.17403 0.24406
 C200 C -0.03060 1.17618 0.18587
 H201 H -0.04040 1.42430 0.35820
 H202 H 0.01077 1.13396 0.26085
 H203 H 0.01118 1.35178 0.46139
 H204 H -0.05010 1.21753 0.16995
 C205 C -0.01353 1.39519 -0.43066
 C206 C -0.00459 1.39337 -0.36948
 C207 C -0.01101 1.33917 -0.33409
 N208 N -0.00883 1.34377 -0.27449
 N209 N -0.01379 1.29573 -0.24098
 C210 C -0.02092 1.24103 -0.26571
 N211 N -0.02289 1.23624 -0.32547
 N212 N -0.01826 1.28450 -0.35911
 C213 C -0.02420 1.18769 -0.22836
 C214 C -0.02954 1.19315 -0.16721
 H215 H 0.00940 1.43240 -0.34532
 H216 H -0.02055 1.14405 -0.24891
 H217 H -0.02300 1.35317 -0.45180
 H218 H -0.03532 1.23709 -0.14766
 C219 C -0.02543 0.61269 -0.43168
 C220 C 0.02180 0.64897 -0.41480
 C221 C 0.01862 0.68516 -0.36008
 N222 N 0.06055 0.72698 -0.34886
 N223 N 0.05956 0.75767 -0.29819
 C224 C 0.01719 0.74702 -0.25637
 N225 N -0.02433 0.70482 -0.26736
 N226 N -0.02369 0.67457 -0.31821
 C227 C 0.01496 0.78115 -0.20040
 C228 C 0.04151 0.83665 -0.19521
 H229 H 0.06379 0.64657 -0.43905
 H230 H -0.01294 0.76522 -0.16478
 H231 H -0.06688 0.61517 -0.40655
 H232 H 0.06394 0.85510 -0.23326
 C233 C -0.00439 0.61401 0.43713
 C234 C 0.02513 0.61792 0.38260
 C235 C 0.02164 0.67029 0.34365
 N236 N 0.04579 0.66637 0.28864
 N237 N 0.04211 0.71209 0.25166
 C238 C 0.01424 0.76381 0.26824
 N239 N -0.00959 0.76800 0.32348
 N240 N -0.00618 0.72205 0.36046
 C241 C 0.00959 0.81466 0.22728
 C242 C 0.02482 0.80921 0.16750
 H243 H 0.05138 0.58026 0.36634
 H244 H -0.00776 0.85680 0.24425
 H245 H -0.02687 0.65335 0.45494
 H246 H 0.03948 0.76621 0.15026
   
