data_POSCAR
  _audit_creation_date              2014-09-24
  _audit_creation_method            'ToBaCCo'
  _symmetry_space_group_name_H-M    'P1'
  _symmetry_Int_Tables_number       1
  _symmetry_cell_setting            triclinic
  loop_
  _symmetry_equiv_pos_as_xyz
 x,y,z
_cell_length_a 38.7018
_cell_length_b 36.9278
_cell_length_c 38.4272
_cell_angle_alpha 90.660600
_cell_angle_beta 89.644800
_cell_angle_gamma 90.061200
loop_
  _atom_site_label
  _atom_site_type_symbol
  _atom_site_fract_x
  _atom_site_fract_y
  _atom_site_fract_z
N1 N 0.35171 0.36603 1.36085
 N2 N 1.15123 0.62432 0.87342
 N3 N 0.64009 -0.12454 0.12748
 N4 N -0.16337 1.15006 -0.35490
 N5 N 0.65060 0.65125 0.65984
 N6 N 0.85002 0.34367 0.16941
 N7 N 0.35381 0.14306 0.84801
 N8 N 0.14949 0.85516 0.33282
 Zn9 Zn 0.00885 1.04359 -0.03503
 Zn10 Zn -0.02798 0.97192 -0.04535
 Zn11 Zn 0.03914 0.97632 -0.00668
 Zn12 Zn -0.02399 1.00662 0.02515
 O13 O -0.00110 0.99960 -0.01571
 O14 O -0.01000 1.04766 -0.07715
 O15 O -0.00768 0.92915 -0.05707
 O16 O 0.07628 0.99991 -0.02195
 O17 O -0.03722 0.99534 -0.08526
 O18 O 0.05432 1.05060 -0.04217
 O19 O 0.04097 0.93334 -0.02738
 O20 O -0.00181 0.98956 0.06217
 O21 O -0.06941 0.96011 -0.02654
 O22 O 0.04609 0.96793 0.03853
 O23 O -0.06500 0.98537 0.02564
 O24 O -0.03218 1.05303 0.03429
 O25 O -0.00692 1.08153 -0.00934
 C26 C -0.02839 1.02661 -0.09574
 C27 C 0.02104 0.91585 -0.04753
 C28 C 0.08008 1.03027 -0.03654
 C29 C 0.02721 0.97402 0.06504
 C30 C -0.08186 0.96694 0.00351
 C31 C -0.02427 1.08207 0.01887
 Zn32 Zn 0.48876 -0.04825 0.47280
 Zn33 Zn 0.51397 -0.00689 0.53436
 Zn34 Zn 0.52224 0.02362 0.46249
 Zn35 Zn 0.45194 0.01782 0.49551
 O36 O 0.49434 -0.00326 0.49130
 O37 O 0.50636 -0.08276 0.49903
 O38 O 0.55360 0.01785 0.53728
 O39 O 0.53420 -0.00024 0.42281
 O40 O 0.52507 -0.05277 0.54529
 O41 O 0.50947 -0.05327 0.43184
 O42 O 0.56192 0.03699 0.48334
 O43 O 0.44975 0.05966 0.47307
 O44 O 0.48663 0.01008 0.56877
 O45 O 0.50171 0.06497 0.44924
 O46 O 0.44078 0.02818 0.53968
 O47 O 0.41727 -0.00971 0.47910
 O48 O 0.44480 -0.06015 0.46502
 C49 C 0.52122 -0.08222 0.52831
 C50 C 0.57180 0.03402 0.51467
 C51 C 0.52730 -0.03240 0.41292
 C52 C 0.47150 0.07723 0.45506
 C53 C 0.45668 0.02410 0.56816
 C54 C 0.41708 -0.04202 0.46751
 Zn55 Zn 0.95929 0.48749 0.50499
 Zn56 Zn 1.02813 0.48116 0.54019
 Zn57 Zn 1.02260 0.51457 0.46928
 Zn58 Zn 0.99546 0.55372 0.53090
 O59 O 1.00140 0.50906 0.51141
 O60 O 0.95575 0.44569 0.52758
 O61 O 1.06772 0.46651 0.51916
 O62 O 0.99771 0.49721 0.43383
 O63 O 1.00592 0.44088 0.55460
 O64 O 0.95086 0.47643 0.46019
 O65 O 1.06288 0.49153 0.46733
 O66 O 1.01188 0.58978 0.50502
 O67 O 1.04110 0.50509 0.57919
 O68 O 1.03216 0.56072 0.45881
 O69 O 1.01674 0.55850 0.57149
 O70 O 0.95129 0.56404 0.53907
 O71 O 0.92379 0.51511 0.52030
 C72 C 0.97598 0.42875 0.54751
 C73 C 1.07962 0.47264 0.48884
 C74 C 0.96850 0.48164 0.43273
 C75 C 1.02684 0.58997 0.47559
 C76 C 1.03506 0.53734 0.58940
 C77 C 0.92349 0.54657 0.53409
 Zn78 Zn 0.52792 0.50111 1.05183
 Zn79 Zn 0.53912 0.46703 0.98151
 Zn80 Zn 0.46790 0.47272 1.01180
 Zn81 Zn 0.50414 0.53890 0.98805
 O82 O 0.50983 0.49491 1.00830
 O83 O 0.56813 0.47791 1.05667
 O84 O 0.51894 0.42650 0.96524
 O85 O 0.45668 0.46202 1.05547
 O86 O 0.57661 0.45281 1.00481
 O87 O 0.50025 0.48435 1.08594
 O88 O 0.46668 0.43067 0.98865
 O89 O 0.46031 0.54809 0.97691
 O90 O 0.55494 0.49013 0.94389
 O91 O 0.43296 0.49909 0.99488
 O92 O 0.52764 0.54259 0.94818
 O93 O 0.51894 0.57576 1.01480
 O94 O 0.53733 0.54758 1.06170
 C95 C 0.58628 0.45878 1.03586
 C96 C 0.48876 0.41394 0.97001
 C97 C 0.47155 0.46769 1.08435
 C98 C 0.43275 0.52982 0.98040
 C99 C 0.54808 0.52126 0.93219
 C100 C 0.53307 0.57640 1.04453
 C101 C 1.26724 0.41591 0.36166
 C102 C 1.25633 0.41305 0.39678
 C103 C 1.27870 0.39525 0.42014
 C104 C 1.31054 0.38116 0.40851
 C105 C 1.32041 0.38335 0.37341
 C106 C 1.29857 0.40126 0.35033
 C107 C 1.26895 0.39100 0.45484
 C108 C 1.23704 0.40320 0.46689
 C109 C 1.21358 0.42070 0.44467
 C110 C 1.22382 0.42658 0.40927
 C111 C 1.20124 0.44583 0.38750
 C112 C 1.16946 0.45810 0.39942
 C113 C 1.15863 0.45161 0.43339
 C114 C 1.18028 0.43276 0.45663
 C115 C 1.16740 0.42660 0.49071
 C116 C 1.13475 0.43915 0.50111
 C117 C 1.11383 0.45818 0.47801
 C118 C 1.12605 0.46411 0.44414
 H119 H 1.25189 0.42841 0.34189
 H120 H 1.32744 0.36768 0.42664
 H121 H 1.30526 0.40313 0.32302
 H122 H 1.28602 0.37760 0.47287
 H123 H 1.23166 0.39869 0.49401
 H124 H 1.20741 0.45235 0.36096
 H125 H 1.15306 0.47276 0.38166
 H126 H 1.18170 0.41198 0.50994
 H127 H 1.12597 0.43405 0.52742
 H128 H 1.11014 0.47865 0.42586
 C129 C 0.20999 0.57631 0.93453
 C130 C 0.24282 0.58147 0.91872
 C131 C 0.24414 0.60121 0.88726
 C132 C 0.21372 0.61373 0.87185
 C133 C 0.18174 0.60852 0.88803
 C134 C 0.18000 0.59004 0.91946
 C135 C 0.27581 0.60895 0.87161
 C136 C 0.30652 0.59854 0.88697
 C137 C 0.30673 0.57889 0.91827
 C138 C 0.27436 0.56857 0.93339
 C139 C 0.27464 0.54514 0.96218
 C140 C 0.30547 0.53277 0.97613
 C141 C 0.33722 0.54428 0.96288
 C142 C 0.33830 0.56835 0.93440
 C143 C 0.37102 0.58133 0.92356
 C144 C 0.40129 0.56946 0.93924
 C145 C 0.40018 0.54408 0.96601
 C146 C 0.36798 0.53177 0.97791
 H147 H 0.20676 0.56293 0.95911
 H148 H 0.21483 0.62882 0.84782
 H149 H 0.15532 0.58649 0.93241
 H150 H 0.27692 0.62378 0.84744
 H151 H 0.32981 0.60534 0.87300
 H152 H 0.25128 0.53483 0.97384
 H153 H 0.30441 0.51431 0.99784
 H154 H 0.37409 0.60122 0.90348
 H155 H 0.42581 0.57971 0.92979
 H156 H 0.36684 0.51263 0.99908
 C157 C -0.26848 0.90909 0.13021
 C158 C -0.25890 0.90925 0.09457
 C159 C -0.28352 0.89667 0.07006
 C160 C -0.31668 0.88589 0.08099
 C161 C -0.32594 0.88694 0.11632
 C162 C -0.30131 0.89807 0.14073
 C163 C -0.27494 0.89486 0.03478
 C164 C -0.24233 0.90510 0.02312
 C165 C -0.21700 0.91830 0.04634
 C166 C -0.22574 0.92112 0.08258
 C167 C -0.20128 0.93633 0.10560
 C168 C -0.16924 0.94782 0.09394
 C169 C -0.15999 0.94444 0.05899
 C170 C -0.18340 0.92936 0.03458
 C171 C -0.17195 0.92600 -0.00048
 C172 C -0.13902 0.93781 -0.01064
 C173 C -0.11650 0.95340 0.01367
 C174 C -0.12725 0.95637 0.04846
 H175 H -0.25112 0.91664 0.15083
 H176 H -0.33547 0.87679 0.06200
 H177 H -0.30734 0.89784 0.16828
 H178 H -0.29363 0.88524 0.01592
 H179 H -0.23800 0.90294 -0.00453
 H180 H -0.20626 0.94054 0.13292
 H181 H -0.15143 0.95955 0.11263
 H182 H -0.18763 0.91415 -0.02068
 H183 H -0.13130 0.93496 -0.03767
 H184 H -0.10997 0.96800 0.06770
 C185 C 0.74103 0.14607 0.63193
 C186 C 0.73774 0.11912 0.60560
 C187 C 0.76851 0.10426 0.59115
 C188 C 0.80089 0.11390 0.60480
 C189 C 0.80342 0.14004 0.63126
 C190 C 0.77347 0.15657 0.64417
 C191 C 0.76679 0.08001 0.56312
 C192 C 0.73517 0.07047 0.54868
 C193 C 0.70377 0.08354 0.56288
 C194 C 0.70508 0.10676 0.59290
 C195 C 0.67382 0.11569 0.61005
 C196 C 0.64232 0.10259 0.59817
 C197 C 0.64050 0.08152 0.56788
 C198 C 0.67104 0.07290 0.54897
 C199 C 0.66743 0.05416 0.51680
 C200 C 0.63499 0.04284 0.50507
 C201 C 0.60540 0.04915 0.52527
 C202 C 0.60824 0.06876 0.55649
 H203 H 0.71908 0.16021 0.64286
 H204 H 0.82432 0.10168 0.59449
 H205 H 0.77533 0.17729 0.66426
 H206 H 0.79019 0.06860 0.55192
 H207 H 0.73603 0.05139 0.52725
 H208 H 0.67304 0.13143 0.63384
 H209 H 0.61906 0.10930 0.61273
 H210 H 0.68911 0.04846 0.49987
 H211 H 0.63316 0.02810 0.48061
 H212 H 0.58517 0.07434 0.57180
 C213 C 0.34705 0.27037 0.39272
 C214 C 0.38237 0.26086 0.39556
 C215 C 0.40731 0.28709 0.38588
 C216 C 0.39704 0.32168 0.37521
 C217 C 0.36198 0.33081 0.37319
 C218 C 0.33718 0.30464 0.38158
 C219 C 0.44239 0.27869 0.38671
 C220 C 0.45349 0.24460 0.39660
 C221 C 0.42981 0.21755 0.40682
 C222 C 0.39372 0.22618 0.40721
 C223 C 0.37022 0.20013 0.41988
 C224 C 0.38136 0.16667 0.43129
 C225 C 0.41624 0.15746 0.43013
 C226 C 0.44102 0.18239 0.41739
 C227 C 0.47595 0.17088 0.41573
 C228 C 0.48572 0.13664 0.42732
 C229 C 0.46117 0.11277 0.44101
 C230 C 0.42641 0.12334 0.44197
 H231 H 0.32630 0.25178 0.39807
 H232 H 0.41637 0.34165 0.36829
 H233 H 0.30992 0.31051 0.37899
 H234 H 0.46157 0.29867 0.37938
 H235 H 0.48104 0.24059 0.39668
 H236 H 0.34288 0.20503 0.42218
 H237 H 0.36235 0.14773 0.44114
 H238 H 0.49637 0.18748 0.40536
 H239 H 0.51273 0.12907 0.42599
 H240 H 0.40704 0.10491 0.45204
 C241 C 0.86832 0.21681 0.57906
 C242 C 0.88498 0.24339 0.59978
 C243 C 0.88719 0.23719 0.63604
 C244 C 0.87096 0.20687 0.65092
 C245 C 0.85409 0.18098 0.63000
 C246 C 0.85334 0.18629 0.59394
 C247 C 0.90554 0.26130 0.65720
 C248 C 0.92217 0.29125 0.64314
 C249 C 0.91985 0.29918 0.60736
 C250 C 0.89967 0.27567 0.58567
 C251 C 0.89375 0.28584 0.55091
 C252 C 0.90738 0.31759 0.53760
 C253 C 0.92840 0.33990 0.55789
 C254 C 0.93593 0.33056 0.59272
 C255 C 0.95938 0.35302 0.61126
 C256 C 0.97331 0.38422 0.59621
 C257 C 0.96392 0.39430 0.56258
 C258 C 0.94172 0.37180 0.54348
 H259 H 0.86716 0.21830 0.55111
 H260 H 0.87139 0.20347 0.67889
 H261 H 0.84114 0.16665 0.57692
 H262 H 0.90741 0.25676 0.68495
 H263 H 0.93561 0.30861 0.66129
 H264 H 0.87737 0.27051 0.53360
 H265 H 0.90149 0.32466 0.51098
 H266 H 0.96783 0.34692 0.63721
 H267 H 0.99076 0.40105 0.61129
 H268 H 0.93493 0.37908 0.51712
 C269 C 0.14827 0.71627 -0.08370
 C270 C 0.11374 0.72732 -0.08931
 C271 C 0.09139 0.70253 -0.10639
 C272 C 0.10342 0.66822 -0.11714
 C273 C 0.13807 0.65824 -0.11246
 C274 C 0.16008 0.68252 -0.09512
 C275 C 0.05732 0.71230 -0.11326
 C276 C 0.04502 0.74656 -0.10437
 C277 C 0.06627 0.77245 -0.08766
 C278 C 0.10092 0.76226 -0.07914
 C279 C 0.12164 0.78731 -0.06069
 C280 C 0.10945 0.82135 -0.05157
 C281 C 0.07625 0.83210 -0.06055
 C282 C 0.05407 0.80811 -0.07885
 C283 C 0.02078 0.82114 -0.08767
 C284 C 0.01007 0.85614 -0.07805
 C285 C 0.03209 0.87925 -0.05939
 C286 C 0.06522 0.86693 -0.05102
 H287 H 0.16731 0.73332 -0.07143
 H288 H 0.08595 0.64948 -0.12999
 H289 H 0.18698 0.67594 -0.09111
 H290 H 0.04005 0.69340 -0.12617
 H291 H 0.01845 0.75182 -0.11074
 H292 H 0.14750 0.78142 -0.05237
 H293 H 0.12637 0.83959 -0.03734
 H294 H 0.00243 0.80513 -0.10215
 H295 H -0.01563 0.86496 -0.08499
 H296 H 0.08274 0.88455 -0.03681
 C297 C 0.57920 0.81170 1.08289
 C298 C 0.59454 0.77757 1.08924
 C299 C 0.62584 0.77712 1.10829
 C300 C 0.64155 0.80957 1.11904
 C301 C 0.62575 0.84282 1.11279
 C302 C 0.59449 0.84375 1.09492
 C303 C 0.64096 0.74432 1.11719
 C304 C 0.62523 0.71169 1.10855
 C305 C 0.59412 0.71056 1.08958
 C306 C 0.57952 0.74395 1.07820
 C307 C 0.55090 0.74255 1.05561
 C308 C 0.53672 0.70971 1.04488
 C309 C 0.54959 0.67704 1.05721
 C310 C 0.57775 0.67703 1.08063
 C311 C 0.58816 0.64339 1.09437
 C312 C 0.57264 0.61108 1.08359
 C313 C 0.54642 0.61108 1.05865
 C314 C 0.53465 0.64426 1.04594
 H315 H 0.55475 0.81447 1.06992
 H316 H 0.66536 0.80910 1.13374
 H317 H 0.58179 0.86941 1.09063
 H318 H 0.66498 0.74384 1.13155
 H319 H 0.63878 0.68760 1.11618
 H320 H 0.53960 0.76649 1.04467
 H321 H 0.51523 0.70993 1.02692
 H322 H 0.60793 0.64113 1.11385
 H323 H 0.58196 0.58586 1.09415
 H324 H 0.51389 0.64458 1.02712
 C325 C 0.40211 0.42915 1.30425
 C326 C 0.40200 0.41063 1.27171
 C327 C 0.38444 0.37691 1.26974
 C328 C 0.36909 0.36198 1.29944
 C329 C 0.36951 0.38071 1.33120
 C330 C 0.38577 0.41442 1.33341
 C331 C 0.38184 0.35841 1.23809
 C332 C 0.39530 0.37310 1.20786
 C333 C 0.41286 0.40663 1.20827
 C334 C 0.41790 0.42473 1.24096
 C335 C 0.43918 0.45582 1.24185
 C336 C 0.45438 0.46924 1.21173
 C337 C 0.44796 0.45313 1.17939
 C338 C 0.42632 0.42218 1.17710
 C339 C 0.41847 0.40843 1.14357
 C340 C 0.43271 0.42383 1.11383
 C341 C 0.45549 0.45321 1.11631
 C342 C 0.46296 0.46786 1.14923
 H343 H 0.41361 0.45551 1.30775
 H344 H 0.35576 0.33618 1.29780
 H345 H 0.38570 0.42933 1.35784
 H346 H 0.36874 0.33247 1.23654
 H347 H 0.39245 0.35685 1.18459
 H348 H 0.44552 0.46979 1.26575
 H349 H 0.47096 0.49285 1.21374
 H350 H 0.40076 0.38631 1.13932
 H351 H 0.42622 0.41220 1.08869
 H352 H 0.48007 0.49105 1.15133
 C353 C 0.61251 -0.05610 0.19520
 C354 C 0.59840 -0.07822 0.22168
 C355 C 0.59619 -0.11596 0.21471
 C356 C 0.60880 -0.13071 0.18337
 C357 C 0.62402 -0.10866 0.15813
 C358 C 0.62507 -0.07119 0.16406
 C359 C 0.58204 -0.13912 0.23928
 C360 C 0.57040 -0.12596 0.27112
 C361 C 0.57269 -0.08879 0.27996
 C362 C 0.58680 -0.06445 0.25481
 C363 C 0.58933 -0.02735 0.26388
 C364 C 0.57862 -0.01443 0.29631
 C365 C 0.56486 -0.03776 0.32108
 C366 C 0.56155 -0.07526 0.31324
 C367 C 0.54725 -0.09771 0.33922
 C368 C 0.53665 -0.08354 0.37123
 C369 C 0.53989 -0.04653 0.37890
 C370 C 0.55424 -0.02374 0.35369
 H371 H 0.61456 -0.02712 0.19775
 H372 H 0.60783 -0.15976 0.17917
 H373 H 0.63625 -0.05358 0.14466
 H374 H 0.58013 -0.16795 0.23395
 H375 H 0.56003 -0.14602 0.28835
 H376 H 0.59982 -0.00742 0.24652
 H377 H 0.58121 0.01426 0.30206
 H378 H 0.54363 -0.12642 0.33587
 H379 H 0.52577 -0.10193 0.39014
 H380 H 0.55675 0.00499 0.35926
 C381 C -0.15950 1.09268 -0.27443
 C382 C -0.12397 1.09311 -0.26620
 C383 C -0.10152 1.11295 -0.28820
 C384 C -0.11427 1.13028 -0.31792
 C385 C -0.14981 1.13054 -0.32526
 C386 C -0.17205 1.11115 -0.30318
 C387 C -0.06653 1.11589 -0.28014
 C388 C -0.05357 1.10104 -0.24981
 C389 C -0.07498 1.08140 -0.22685
 C390 C -0.11020 1.07544 -0.23636
 C391 C -0.13034 1.05174 -0.21595
 C392 C -0.11710 1.03588 -0.18626
 C393 C -0.08374 1.04389 -0.17501
 C394 C -0.06231 1.06718 -0.19486
 C395 C -0.02953 1.07633 -0.18116
 C396 C -0.01869 1.06285 -0.14924
 C397 C -0.03966 1.03922 -0.13022
 C398 C -0.07197 1.02937 -0.14353
 H399 H -0.17855 1.07947 -0.25841
 H400 H -0.09640 1.14405 -0.33508
 H401 H -0.19960 1.11047 -0.30766
 H402 H -0.04909 1.13066 -0.29700
 H403 H -0.02629 1.10463 -0.24545
 H404 H -0.15634 1.04415 -0.22277
 H405 H -0.13351 1.01782 -0.17145
 H406 H -0.01222 1.09498 -0.19379
 H407 H 0.00630 1.07105 -0.13931
 H408 H -0.08859 1.01161 -0.12860
 C409 C 1.12317 0.55791 0.80455
 C410 C 1.11486 0.58071 0.77638
 C411 C 1.11876 0.61860 0.78153
 C412 C 1.13110 0.63262 0.81316
 C413 C 1.13877 0.60971 0.84082
 C414 C 1.13493 0.57229 0.83613
 C415 C 1.11029 0.64247 0.75515
 C416 C 1.09703 0.62980 0.72388
 C417 C 1.09215 0.59241 0.71746
 C418 C 1.10248 0.56737 0.74357
 C419 C 1.10048 0.52994 0.73581
 C420 C 1.08807 0.51735 0.70403
 C421 C 1.07636 0.54137 0.67899
 C422 C 1.07772 0.57924 0.68553
 C423 C 1.06396 0.60239 0.66003
 C424 C 1.05024 0.58852 0.62922
 C425 C 1.04977 0.55117 0.62245
 C426 C 1.06298 0.52769 0.64748
 H427 H 1.12027 0.52892 0.80334
 H428 H 1.13476 0.66158 0.81635
 H429 H 1.14073 0.55413 0.85722
 H430 H 1.11360 0.67142 0.75883
 H431 H 1.09154 0.65018 0.70490
 H432 H 1.10897 0.50950 0.75358
 H433 H 1.08724 0.48838 0.69918
 H434 H 1.06261 0.63135 0.66328
 H435 H 1.04002 0.60735 0.61049
 H436 H 1.06231 0.49870 0.64272
 C437 C 0.70920 0.58206 0.61827
 C438 C 0.73829 0.60318 0.60863
 C439 C 0.73712 0.64085 0.61627
 C440 C 0.70816 0.65631 0.63271
 C441 C 0.67991 0.63495 0.64235
 C442 C 0.68057 0.59781 0.63480
 C443 C 0.76493 0.66303 0.60777
 C444 C 0.79457 0.64867 0.59268
 C445 C 0.79761 0.61125 0.58529
 C446 C 0.76860 0.58829 0.59232
 C447 C 0.77095 0.55129 0.58286
 C448 C 0.80091 0.53690 0.56818
 C449 C 0.82993 0.55854 0.56272
 C450 C 0.82877 0.59603 0.57118
 C451 C 0.85924 0.61655 0.56596
 C452 C 0.88941 0.60043 0.55338
 C453 C 0.89047 0.56340 0.54523
 C454 C 0.86041 0.54268 0.54947
 H455 H 0.70784 0.55325 0.61388
 H456 H 0.70779 0.68507 0.63868
 H457 H 0.65877 0.58092 0.64178
 H458 H 0.76395 0.69190 0.61317
 H459 H 0.81461 0.66794 0.58690
 H460 H 0.74991 0.53256 0.58628
 H461 H 0.80152 0.50829 0.56155
 H462 H 0.86111 0.64498 0.57214
 H463 H 0.91222 0.61716 0.55033
 H464 H 0.86101 0.51391 0.54350
 C465 C 0.76687 0.39629 1.16777
 C466 C 0.75640 0.39238 1.13267
 C467 C 0.77832 0.37241 1.10984
 C468 C 0.80922 0.35722 1.12189
 C469 C 0.81897 0.36092 1.15685
 C470 C 0.79747 0.38082 1.17950
 C471 C 0.76925 0.36736 1.07509
 C472 C 0.73853 0.38115 1.06239
 C473 C 0.71551 0.40093 1.08400
 C474 C 0.72490 0.40719 1.11959
 C475 C 0.70249 0.42808 1.14089
 C476 C 0.67179 0.44188 1.12822
 C477 C 0.66192 0.43539 1.09392
 C478 C 0.68347 0.41479 1.07123
 C479 C 0.67177 0.40878 1.03675
 C480 C 0.64036 0.42291 1.02548
 C481 C 0.61941 0.44347 1.04801
 C482 C 0.63044 0.44953 1.08226
 H483 H 0.75185 0.41061 1.18714
 H484 H 0.82569 0.34221 1.10396
 H485 H 0.80389 0.38395 1.20674
 H486 H 0.78600 0.35226 1.05748
 H487 H 0.73374 0.37592 1.03524
 H488 H 0.70793 0.43459 1.16766
 H489 H 0.65548 0.45775 1.14562
 H490 H 0.68605 0.39309 1.01778
 H491 H 0.63250 0.41767 0.99889
 H492 H 0.61446 0.46532 1.10004
 C493 C 0.26056 1.15094 -0.12678
 C494 C 0.25234 1.11514 -0.11666
 C495 C 0.27883 1.08865 -0.11932
 C496 C 0.31169 1.09776 -0.13221
 C497 C 0.31927 1.13333 -0.14152
 C498 C 0.29356 1.15976 -0.13883
 C499 C 0.27263 1.05334 -0.10860
 C500 C 0.24098 1.04371 -0.09430
 C501 C 0.21383 1.06903 -0.09072
 C502 C 0.21912 1.10492 -0.10339
 C503 C 0.19093 1.12919 -0.10276
 C504 C 0.15887 1.11906 -0.08965
 C505 C 0.15372 1.08471 -0.07589
 C506 C 0.18127 1.05941 -0.07556
 C507 C 0.17509 1.02558 -0.05972
 C508 C 0.14261 1.01679 -0.04640
 C509 C 0.11506 1.04127 -0.04824
 C510 C 0.12097 1.07543 -0.06267
 H511 H 0.24246 1.17301 -0.12480
 H512 H 0.33190 1.07749 -0.13396
 H513 H 0.29929 1.18747 -0.14581
 H514 H 0.29268 1.03294 -0.11085
 H515 H 0.23840 1.01577 -0.08699
 H516 H 0.19250 1.15614 -0.11305
 H517 H 0.13790 1.13849 -0.09011
 H518 H 0.19487 1.00537 -0.05681
 H519 H 0.13900 0.99033 -0.03505
 H520 H 0.09998 1.09480 -0.06386
 C521 C 0.20861 -0.07562 0.37271
 C522 C 0.23515 -0.09729 0.38685
 C523 C 0.23225 -0.13540 0.38270
 C524 C 0.20374 -0.15080 0.36565
 C525 C 0.17793 -0.12889 0.35169
 C526 C 0.18063 -0.09127 0.35537
 C527 C 0.25804 -0.15804 0.39513
 C528 C 0.28742 -0.14377 0.41061
 C529 C 0.29202 -0.10603 0.41476
 C530 C 0.26477 -0.08250 0.40411
 C531 C 0.26803 -0.04504 0.41116
 C532 C 0.29747 -0.03079 0.42661
 C533 C 0.32514 -0.05307 0.43511
 C534 C 0.32295 -0.09101 0.42925
 C535 C 0.35229 -0.11217 0.43722
 C536 C 0.38236 -0.09623 0.45012
 C537 C 0.38430 -0.05879 0.45591
 C538 C 0.35534 -0.03742 0.44881
 H539 H 0.20903 -0.04647 0.37380
 H540 H 0.20199 -0.17994 0.36236
 H541 H 0.16092 -0.07391 0.34466
 H542 H 0.25575 -0.18720 0.39240
 H543 H 0.30593 -0.16327 0.41952
 H544 H 0.24797 -0.02586 0.40544
 H545 H 0.29884 -0.00183 0.43135
 H546 H 0.35336 -0.14099 0.43281
 H547 H 0.40438 -0.11340 0.45528
 H548 H 0.35667 -0.00834 0.45284
 C549 C 0.62089 -0.25228 0.65943
 C550 C 0.60984 -0.24806 0.62461
 C551 C 0.61312 -0.27834 0.60172
 C552 C 0.62745 -0.31091 0.61325
 C553 C 0.63782 -0.31452 0.64776
 C554 C 0.63453 -0.28507 0.67070
 C555 C 0.60171 -0.27621 0.56753
 C556 C 0.58618 -0.24497 0.55555
 C557 C 0.58188 -0.21417 0.57727
 C558 C 0.59514 -0.21522 0.61192
 C559 C 0.59366 -0.18329 0.63250
 C560 C 0.57920 -0.15163 0.61995
 C561 C 0.56488 -0.15063 0.58678
 C562 C 0.56537 -0.18207 0.56521
 C563 C 0.54894 -0.18014 0.53251
 C564 C 0.53417 -0.14802 0.52123
 C565 C 0.53506 -0.11659 0.54198
 C566 C 0.55016 -0.11822 0.57498
 H567 H 0.61861 -0.23116 0.67886
 H568 H 0.62974 -0.33399 0.59568
 H569 H 0.64241 -0.28765 0.69755
 H570 H 0.60447 -0.29914 0.54986
 H571 H 0.57848 -0.24564 0.52867
 H572 H 0.60425 -0.18155 0.65831
 H573 H 0.57902 -0.12770 0.63655
 H574 H 0.54658 -0.20306 0.51510
 H575 H 0.52232 -0.14781 0.49576
 H576 H 0.55063 -0.09422 0.59149
 C577 C 1.11196 0.76158 0.33502
 C578 C 1.10345 0.75756 0.37070
 C579 C 1.10904 0.78774 0.39317
 C580 C 1.12399 0.81969 0.38051
 C581 C 1.13304 0.82271 0.34537
 C582 C 1.12646 0.79364 0.32271
 C583 C 1.09991 0.78589 0.42821
 C584 C 1.08519 0.75474 0.44171
 C585 C 1.07954 0.72368 0.42070
 C586 C 1.08962 0.72481 0.38480
 C587 C 1.08634 0.69291 0.36444
 C588 C 1.07360 0.66108 0.37849
 C589 C 1.06291 0.65977 0.41315
 C590 C 1.06499 0.69119 0.43462
 C591 C 1.05232 0.68868 0.46917
 C592 C 1.03951 0.65609 0.48202
 C593 C 1.03884 0.62481 0.46107
 C594 C 1.05030 0.62699 0.42649
 H595 H 1.10752 0.74066 0.31582
 H596 H 1.12857 0.84244 0.39797
 H597 H 1.13316 0.79557 0.29539
 H598 H 1.10418 0.80886 0.44549
 H599 H 1.07937 0.75564 0.46913
 H600 H 1.09431 0.69127 0.33758
 H601 H 1.07208 0.63715 0.36195
 H602 H 1.05159 0.71142 0.48695
 H603 H 1.03050 0.65535 0.50875
 H604 H 1.04944 0.60310 0.40985
 C605 C -0.14659 1.24734 0.13906
 C606 C -0.11444 1.24570 0.12121
 C607 C -0.09476 1.27804 0.11901
 C608 C -0.10619 1.30997 0.13567
 C609 C -0.13779 1.31069 0.15344
 C610 C -0.15801 1.27944 0.15472
 C611 C -0.06397 1.27842 0.09995
 C612 C -0.05241 1.24753 0.08246
 C613 C -0.07073 1.21451 0.08425
 C614 C -0.10151 1.21329 0.10511
 C615 C -0.11791 1.17955 0.10991
 C616 C -0.10526 1.14821 0.09432
 C617 C -0.07628 1.14922 0.07267
 C618 C -0.05889 1.18238 0.06664
 C619 C -0.03062 1.18186 0.04294
 C620 C -0.01966 1.14955 0.02695
 C621 C -0.03619 1.11678 0.03433
 C622 C -0.06461 1.11697 0.05707
 H623 H -0.16397 1.22462 0.14065
 H624 H -0.09099 1.33460 0.13427
 H625 H -0.18277 1.28002 0.16800
 H626 H -0.04880 1.30304 0.09820
 H627 H -0.02833 1.25014 0.06849
 H628 H -0.14012 1.17615 0.12657
 H629 H -0.11850 1.12285 0.09913
 H630 H -0.01679 1.20601 0.03576
 H631 H 0.00215 1.15014 0.00915
 H632 H -0.07807 1.09184 0.06242
 C633 C 0.38050 0.20561 0.92060
 C634 C 0.40230 0.23058 0.90345
 C635 C 0.41041 0.22373 0.86796
 C636 C 0.39479 0.19479 0.84991
 C637 C 0.37183 0.17138 0.86693
 C638 C 0.36568 0.17662 0.90260
 C639 C 0.43364 0.24609 0.85051
 C640 C 0.44899 0.27534 0.86743
 C641 C 0.44069 0.28421 0.90234
 C642 C 0.41614 0.26208 0.92027
 C643 C 0.40502 0.27302 0.95383
 C644 C 0.41735 0.30448 0.96939
 C645 C 0.44199 0.32573 0.95270
 C646 C 0.45498 0.31536 0.91947
 C647 C 0.48164 0.33681 0.90484
 C648 C 0.49335 0.36818 0.92175
 C649 C 0.47868 0.37932 0.95346
 C650 C 0.45339 0.35768 0.96901
 H651 H 0.37473 0.20739 0.94802
 H652 H 0.39995 0.19099 0.82237
 H653 H 0.34897 0.15828 0.91668
 H654 H 0.44006 0.24092 0.82340
 H655 H 0.46625 0.29149 0.85189
 H656 H 0.38554 0.25865 0.96830
 H657 H 0.40739 0.31228 0.99483
 H658 H 0.49422 0.32992 0.88056
 H659 H 0.51332 0.38429 0.90950
 H660 H 0.44251 0.36575 0.99401
 C661 C 0.58387 0.62610 0.72651
 C662 C 0.60342 0.60681 0.75112
 C663 C 0.63861 0.59976 0.74318
 C664 C 0.65399 0.61417 0.71315
 C665 C 0.63454 0.63462 0.68978
 C666 C 0.59921 0.63959 0.69644
 C667 C 0.65835 0.57867 0.76540
 C668 C 0.64391 0.56414 0.79534
 C669 C 0.60929 0.57130 0.80496
 C670 C 0.58918 0.59420 0.78317
 C671 C 0.55599 0.60488 0.79471
 C672 C 0.54259 0.59317 0.82617
 C673 C 0.56118 0.56950 0.84689
 C674 C 0.59440 0.55736 0.83624
 C675 C 0.61111 0.53153 0.85730
 C676 C 0.59586 0.51944 0.88812
 C677 C 0.56384 0.53302 0.89916
 C678 C 0.54660 0.55792 0.87833
 H679 H 0.55650 0.63067 0.72936
 H680 H 0.68130 0.60996 0.70827
 H681 H 0.58331 0.65426 0.67830
 H682 H 0.68528 0.57314 0.75948
 H683 H 0.66104 0.54847 0.81122
 H684 H 0.54012 0.62356 0.78061
 H685 H 0.51723 0.60260 0.83426
 H686 H 0.63562 0.51959 0.85034
 H687 H 0.60943 0.49978 0.90364
 H688 H 0.52139 0.56790 0.88637
 C689 C 0.41841 0.09814 0.78853
 C690 C 0.39930 0.09325 0.75744
 C691 C 0.36433 0.10476 0.75766
 C692 C 0.34952 0.12042 0.78764
 C693 C 0.36899 0.12556 0.81784
 C694 C 0.40338 0.11402 0.81813
 C695 C 0.34430 0.10102 0.72787
 C696 C 0.35829 0.08691 0.69732
 C697 C 0.39312 0.07569 0.69530
 C698 C 0.41372 0.07796 0.72611
 C699 C 0.44800 0.06492 0.72452
 C700 C 0.46204 0.05109 0.69381
 C701 C 0.44277 0.04997 0.66329
 C702 C 0.40806 0.06227 0.66348
 C703 C 0.38998 0.06119 0.63155
 C704 C 0.40575 0.04855 0.60103
 C705 C 0.44000 0.03639 0.60104
 C706 C 0.45828 0.03693 0.63242
 H707 H 0.44513 0.09053 0.79083
 H708 H 0.32290 0.12952 0.78730
 H709 H 0.41873 0.11752 0.84140
 H710 H 0.31747 0.10947 0.72804
 H711 H 0.34081 0.08497 0.67571
 H712 H 0.46481 0.06479 0.74672
 H713 H 0.48852 0.04153 0.69389
 H714 H 0.36379 0.07049 0.62892
 H715 H 0.39094 0.04853 0.57720
 H716 H 0.48489 0.02779 0.63277
 C717 C 0.15378 0.89244 0.24266
 C718 C 0.11850 0.89865 0.23506
 C719 C 0.09383 0.89123 0.26151
 C720 C 0.10418 0.87669 0.29340
 C721 C 0.13908 0.87024 0.30009
 C722 C 0.16375 0.87855 0.27469
 C723 C 0.05895 0.89833 0.25608
 C724 C 0.04781 0.91307 0.22505
 C725 C 0.07117 0.92059 0.19768
 C726 C 0.10693 0.91214 0.20235
 C727 C 0.12977 0.91663 0.17391
 C728 C 0.11826 0.92927 0.14215
 C729 C 0.08377 0.93879 0.13757
 C730 C 0.05982 0.93540 0.16543
 C731 C 0.02551 0.94718 0.15980
 C732 C 0.01531 0.96028 0.12752
 C733 C 0.03877 0.96204 0.09970
 C734 C 0.07308 0.95153 0.10505
 H735 H 0.17440 0.89852 0.22471
 H736 H 0.08515 0.87073 0.31337
 H737 H 0.19090 0.87387 0.27959
 H738 H 0.03998 0.89261 0.27617
 H739 H 0.02038 0.91731 0.22299
 H740 H 0.15673 0.90959 0.17498
 H741 H 0.13667 0.93174 0.12093
 H742 H 0.00596 0.94709 0.17986
 H743 H -0.01130 0.96857 0.12424
 H744 H 0.09162 0.95332 0.08386
 C745 C 0.87507 0.34603 0.26310
 C746 C 0.88967 0.38106 0.26679
 C747 C 0.89361 0.40208 0.23633
 C748 C 0.88100 0.38938 0.20422
 C749 C 0.86551 0.35529 0.20155
 C750 C 0.86328 0.33346 0.23091
 C751 C 0.90976 0.43579 0.23813
 C752 C 0.92256 0.44909 0.26946
 C753 C 0.91864 0.42962 0.30066
 C754 C 0.90060 0.39579 0.29952
 C755 C 0.89309 0.37839 0.33122
 C756 C 0.90355 0.39302 0.36289
 C757 C 0.92283 0.42489 0.36427
 C758 C 0.93138 0.44328 0.33315
 C759 C 0.95290 0.47421 0.33588
 C760 C 0.96476 0.48653 0.36816
 C761 C 0.95517 0.46894 0.39880
 C762 C 0.93400 0.43825 0.39669
 H763 H 0.87275 0.32752 0.28446
 H764 H 0.88294 0.40599 0.18121
 H765 H 0.85149 0.30691 0.22904
 H766 H 0.91277 0.45202 0.21497
 H767 H 0.93436 0.47550 0.26858
 H768 H 0.87807 0.35386 0.33254
 H769 H 0.89682 0.37891 0.38658
 H770 H 0.96191 0.48888 0.31351
 H771 H 0.98147 0.51008 0.36915
 H772 H 0.92711 0.42403 0.42028
   
