data_POSCAR
  _audit_creation_date              2014-09-24
  _audit_creation_method            'ToBaCCo'
  _symmetry_space_group_name_H-M    'P1'
  _symmetry_Int_Tables_number       1
  _symmetry_cell_setting            triclinic
  loop_
  _symmetry_equiv_pos_as_xyz
 x,y,z
_cell_length_a 56.6119
_cell_length_b 56.6519
_cell_length_c 16.5754
_cell_angle_alpha 90.080700
_cell_angle_beta 90.004800
_cell_angle_gamma 119.848200
loop_
  _atom_site_label
  _atom_site_type_symbol
  _atom_site_fract_x
  _atom_site_fract_y
  _atom_site_fract_z
C1 C 0.22957 0.50272 0.45810
 C2 C 0.22947 0.50263 0.54335
 C3 C 0.25087 0.50252 0.58565
 C4 C 0.27243 0.50255 0.54406
 C5 C 0.27265 0.50295 0.45902
 C6 C 0.25127 0.50302 0.41668
 H7 H 0.25149 0.50310 0.35119
 H8 H 0.25066 0.50222 0.65117
 C9 C 0.49915 -0.27198 0.45637
 C10 C 0.49876 -0.27214 0.54146
 C11 C 0.49892 -0.25061 0.58365
 C12 C 0.49951 -0.22879 0.54211
 C13 C 0.49983 -0.22867 0.45698
 C14 C 0.49962 -0.25023 0.41483
 H15 H 0.49997 -0.24997 0.34934
 H16 H 0.49875 -0.25080 0.64914
 C17 C 1.27200 0.77144 0.45333
 C18 C 1.27178 0.77159 0.53844
 C19 C 1.25041 0.75010 0.58038
 C20 C 1.22919 0.72843 0.53857
 C21 C 1.22948 0.72822 0.45360
 C22 C 1.25082 0.74966 0.41156
 H23 H 1.25082 0.74943 0.34606
 H24 H 1.25022 0.75033 0.64583
 C25 C 0.77221 0.50140 0.46064
 C26 C 0.77244 0.50161 0.54575
 C27 C 0.75099 0.50161 0.58805
 C28 C 0.72934 0.50148 0.54659
 C29 C 0.72915 0.50128 0.46148
 C30 C 0.75054 0.50120 0.41927
 H31 H 0.75040 0.50111 0.35381
 H32 H 0.75121 0.50184 0.65358
 C33 C 0.50052 0.27169 0.46115
 C34 C 0.50017 0.27158 0.54627
 C35 C 0.50025 0.25016 0.58833
 C36 C 0.50065 0.22886 0.54651
 C37 C 0.50117 0.22908 0.46148
 C38 C 0.50112 0.25048 0.41948
 H39 H 0.50135 0.25052 0.35402
 H40 H 0.49983 0.25000 0.65385
 C41 C 0.72832 0.22934 0.45826
 C42 C 0.72832 0.22923 0.54322
 C43 C 0.74986 0.25047 0.58547
 C44 C 0.77152 0.27180 0.54393
 C45 C 0.77154 0.27186 0.45877
 C46 C 0.74990 0.25066 0.41668
 H47 H 0.74995 0.25066 0.35121
 H48 H 0.74980 0.25026 0.65097
 O49 O 1.03800 0.55904 0.14757
 O50 O 1.06810 0.55323 0.06877
 C51 C 1.06241 0.56520 0.12584
 O52 O 0.96206 0.43779 0.14038
 O53 O 0.93192 0.44520 0.06714
 C54 C 0.93762 0.43190 0.11971
 O55 O 1.03822 0.47779 0.14703
 O56 O 1.06822 0.51383 0.06921
 C57 C 1.06262 0.49612 0.12592
 O58 O 0.96195 0.52362 0.13999
 O59 O 0.93186 0.48619 0.06655
 C60 C 0.93751 0.50517 0.11928
 Zr61 Zr 1.00000 0.52966 0.09873
 O62 O 0.99931 0.53311 0.22563
 O63 O 1.00095 0.56717 0.08405
 Zr64 Zr 1.00011 0.46991 0.10032
 O65 O 0.99757 0.46868 0.22784
 O66 O 1.00314 0.43414 0.09878
 O67 O 1.02423 0.51186 0.11548
 O68 O 0.97646 0.48805 0.11477
 O69 O 0.96167 0.52331 -0.14277
 O70 O 0.93168 0.48558 -0.07044
 C71 C 0.93728 0.50468 -0.12252
 O72 O 1.03786 0.47751 -0.15077
 O73 O 1.06801 0.51364 -0.07310
 C74 C 1.06227 0.49589 -0.12984
 O75 O 0.96169 0.43731 -0.14248
 O76 O 0.93171 0.44493 -0.06904
 C77 C 0.93729 0.43148 -0.12159
 O78 O 1.03793 0.55933 -0.15057
 O79 O 1.06809 0.55317 -0.07323
 C80 C 1.06238 0.56535 -0.12963
 Zr81 Zr 0.99989 0.52913 -0.10383
 O82 O 0.99682 0.52744 -0.23128
 O83 O 1.00248 0.56772 -0.10274
 Zr84 Zr 0.99990 0.46942 -0.10269
 O85 O 0.99677 0.46652 -0.22995
 O86 O 1.00313 0.43377 -0.09740
 Zr87 Zr 1.04080 0.51985 -0.00197
 Zr88 Zr 0.95923 0.47920 -0.00147
 O89 O 0.97628 0.48749 -0.11801
 O90 O 1.02414 0.51133 -0.11935
 O91 O 0.97542 0.52172 -0.00240
 O92 O 1.02389 0.47730 -0.00129
 O93 O 1.02392 0.54560 -0.00252
 O94 O 0.97555 0.45287 -0.00097
 H95 H 0.96430 0.48202 0.16243
 H96 H 1.03632 0.46971 -0.00127
 H97 H 0.96413 0.48136 -0.16576
 H98 H 1.03634 0.56557 -0.00253
 H99 H 0.98748 0.42020 0.06760
 H100 H 0.98648 0.41939 -0.07116
 H101 H 1.01005 0.48455 -0.25190
 H102 H 1.01209 0.52548 -0.25248
 H103 H 0.98814 0.56649 -0.06594
 H104 H 1.00161 0.57424 0.13919
 H105 H 0.99587 0.51557 0.24831
 H106 H 1.01242 0.48624 0.24846
 O107 O 0.44036 0.47836 0.14970
 O108 O 0.44589 0.51403 0.07064
 C109 C 0.43414 0.49659 0.12811
 O110 O 0.56141 0.52329 0.14241
 O111 O 0.55394 0.48567 0.06950
 C112 C 0.56727 0.50467 0.12206
 O113 O 0.52137 0.55966 0.14814
 O114 O 0.48520 0.55349 0.07016
 C115 C 0.50301 0.56573 0.12668
 O116 O 0.47592 0.43766 0.14077
 O117 O 0.51351 0.44509 0.06770
 C118 C 0.49450 0.43176 0.12019
 Zr119 Zr 0.46958 0.46956 0.10019
 O120 O 0.46633 0.46515 0.22696
 O121 O 0.43202 0.43318 0.08534
 Zr122 Zr 0.52926 0.52930 0.10215
 O123 O 0.53048 0.52802 0.22968
 O124 O 0.56502 0.56797 0.10101
 O125 O 0.48728 0.51152 0.11702
 O126 O 0.51121 0.48765 0.11652
 O127 O 0.47613 0.43754 -0.14086
 O128 O 0.51380 0.44522 -0.06759
 C129 C 0.49479 0.43178 -0.12009
 O130 O 0.52168 0.55950 -0.14829
 O131 O 0.48532 0.55335 -0.07130
 C132 C 0.50321 0.56549 -0.12747
 O133 O 0.56196 0.52335 -0.14029
 O134 O 0.55431 0.48577 -0.06727
 C135 C 0.56780 0.50477 -0.11952
 O136 O 0.43985 0.47770 -0.14974
 O137 O 0.44581 0.51390 -0.07218
 C138 C 0.43374 0.49609 -0.12885
 Zr139 Zr 0.47001 0.46981 -0.10231
 O140 O 0.47145 0.46808 -0.22968
 O141 O 0.43144 0.43393 -0.10083
 Zr142 Zr 0.52968 0.52942 -0.10122
 O143 O 0.53192 0.52847 -0.22858
 O144 O 0.56532 0.56817 -0.09762
 Zr145 Zr 0.47918 0.51997 -0.00052
 Zr146 Zr 0.52008 0.47930 0.00024
 O147 O 0.51169 0.48783 -0.11644
 O148 O 0.48771 0.51178 -0.11787
 O149 O 0.47757 0.45293 -0.00085
 O150 O 0.52177 0.54552 0.00029
 O151 O 0.45350 0.47746 -0.00109
 O152 O 0.54637 0.52179 0.00080
 H153 H 0.51721 0.48153 0.16431
 H154 H 0.52941 0.56550 0.00034
 H155 H 0.51787 0.48173 -0.16398
 H156 H 0.43352 0.47001 -0.00112
 H157 H 0.57897 0.56622 0.06986
 H158 H 0.57950 0.56616 -0.06867
 H159 H 0.51440 0.52553 -0.25040
 H160 H 0.47431 0.48561 -0.25091
 H161 H 0.43286 0.42078 -0.06479
 H162 H 0.42508 0.42673 0.14048
 H163 H 0.48298 0.48057 0.24982
 H164 H 0.51314 0.52595 0.25028
 O165 O 0.47843 0.03781 0.14963
 O166 O 0.51413 0.06790 0.07075
 C167 C 0.49663 0.06221 0.12822
 O168 O 0.52388 -0.03819 0.14034
 O169 O 0.48638 -0.06820 0.06698
 C170 C 0.50541 -0.06256 0.11942
 O171 O 0.55981 0.03792 0.14750
 O172 O 0.55361 0.06793 0.06981
 C173 C 0.56583 0.06231 0.12625
 O174 O 0.43802 -0.03824 0.14130
 O175 O 0.44540 -0.06833 0.06746
 C176 C 0.43215 -0.06267 0.12061
 Zr177 Zr 0.46974 -0.00015 0.09996
 O178 O 0.46567 -0.00095 0.22687
 O179 O 0.43320 0.00091 0.08552
 Zr180 Zr 0.52956 -0.00015 0.10100
 O181 O 0.52819 -0.00273 0.22850
 O182 O 0.56832 0.00276 0.09994
 O183 O 0.51171 0.02402 0.11650
 O184 O 0.48790 -0.02374 0.11545
 O185 O 0.43780 -0.03812 -0.14238
 O186 O 0.44533 -0.06821 -0.06936
 C187 C 0.43201 -0.06251 -0.12203
 O188 O 0.55921 0.03761 -0.15057
 O189 O 0.55348 0.06780 -0.07188
 C190 C 0.56543 0.06204 -0.12886
 O191 O 0.52325 -0.03867 -0.14285
 O192 O 0.48590 -0.06857 -0.06908
 C193 C 0.50475 -0.06305 -0.12207
 O194 O 0.47765 0.03792 -0.14888
 O195 O 0.51397 0.06794 -0.07168
 C196 C 0.49607 0.06230 -0.12794
 Zr197 Zr 0.47001 -0.00010 -0.10261
 O198 O 0.46834 -0.00306 -0.23012
 O199 O 0.43400 0.00255 -0.10051
 Zr200 Zr 0.52973 -0.00033 -0.10196
 O201 O 0.53070 -0.00306 -0.22896
 O202 O 0.56852 0.00272 -0.09420
 Zr203 Zr 0.52014 0.04061 -0.00088
 Zr204 Zr 0.47947 -0.04085 -0.00099
 O205 O 0.48810 -0.02374 -0.11738
 O206 O 0.51196 0.02398 -0.11836
 O207 O 0.45309 -0.02462 -0.00136
 O208 O 0.54582 0.02362 -0.00053
 O209 O 0.47759 0.02387 -0.00106
 O210 O 0.52204 -0.02470 -0.00048
 H211 H 0.48192 -0.03591 0.16302
 H212 H 0.56580 0.03602 -0.00059
 H213 H 0.48206 -0.03580 -0.16535
 H214 H 0.47005 0.03635 -0.00074
 H215 H 0.56681 -0.01251 0.06701
 H216 H 0.56593 -0.01466 -0.07240
 H217 H 0.52197 0.00691 -0.25096
 H218 H 0.48524 0.01245 -0.25162
 H219 H 0.42088 -0.01204 -0.06459
 H220 H 0.42686 0.00158 0.14072
 H221 H 0.47969 -0.00458 0.24940
 H222 H 0.52566 0.01227 0.24912
 C223 C 1.12400 0.47661 0.30920
 C224 C 1.14956 0.47777 0.27126
 C225 C 1.16750 0.50042 0.33110
 C226 C 1.14228 0.49927 0.36972
 C227 C 1.12671 0.49857 0.24959
 C228 C 1.14466 0.52122 0.30945
 C229 C 1.15193 0.49971 0.21091
 C230 C 1.17023 0.52238 0.27148
 C231 C 1.19017 0.50142 0.37677
 C232 C 1.20870 0.50212 0.41465
 C233 C 1.10388 0.49757 0.20478
 C234 C 1.08506 0.49684 0.16850
 H235 H 1.10475 0.45778 0.32428
 H236 H 1.15182 0.45989 0.25615
 H237 H 1.13845 0.49897 0.43544
 H238 H 1.14244 0.53911 0.32463
 H239 H 1.15568 0.49987 0.14513
 H240 H 1.18950 0.54121 0.25648
 C241 C 0.52150 0.64490 0.31489
 C242 C 0.52437 0.67125 0.27749
 C243 C 0.50024 0.66765 0.32904
 C244 C 0.49737 0.64164 0.36703
 C245 C 0.50132 0.62826 0.24765
 C246 C 0.47719 0.62468 0.29915
 C247 C 0.50420 0.65428 0.20948
 C248 C 0.48006 0.65104 0.26175
 C249 C 0.49971 0.68952 0.37511
 C250 C 0.49939 0.70753 0.41322
 C251 C 0.50195 0.60609 0.20361
 C252 C 0.50246 0.58772 0.16825
 H253 H 0.53856 0.64217 0.33634
 H254 H 0.54378 0.69065 0.26912
 H255 H 0.49461 0.63660 0.43210
 H256 H 0.45776 0.60531 0.30763
 H257 H 0.50702 0.65927 0.14420
 H258 H 0.46300 0.65381 0.24045
 C259 C 0.37085 -0.12996 0.33465
 C260 C 0.34081 -0.13667 0.33986
 C261 C 0.33158 -0.16686 0.32594
 C262 C 0.36130 -0.16048 0.32141
 C263 C 0.37009 -0.12642 0.24292
 C264 C 0.36087 -0.15662 0.22899
 C265 C 0.34037 -0.13281 0.24745
 C266 C 0.33081 -0.16335 0.23423
 C267 C 0.31007 -0.18932 0.37231
 C268 C 0.29229 -0.20773 0.41037
 C269 C 0.39180 -0.10376 0.19766
 C270 C 0.40999 -0.08504 0.16170
 H271 H 0.38755 -0.11597 0.37546
 H272 H 0.33235 -0.12871 0.38602
 H273 H 0.36971 -0.17208 0.35230
 H274 H 0.36931 -0.16460 0.18284
 H275 H 0.33195 -0.12123 0.21650
 H276 H 0.31410 -0.17736 0.19347
 C277 C 0.85140 0.50876 0.20644
 C278 C 0.82994 0.48383 0.25463
 C279 C 0.83402 0.50263 0.32660
 C280 C 0.85510 0.52754 0.27916
 C281 C 0.87387 0.50403 0.24119
 C282 C 0.87790 0.52280 0.31313
 C283 C 0.85276 0.47910 0.28854
 C284 C 0.85648 0.49788 0.36116
 C285 C 0.81202 0.50202 0.37477
 C286 C 0.79395 0.50167 0.41421
 C287 C 0.89640 0.50478 0.19552
 C288 C 0.91512 0.50516 0.15978
 H289 H 0.84953 0.51323 0.14232
 H290 H 0.80995 0.46777 0.23123
 H291 H 0.85581 0.54745 0.27582
 H292 H 0.89787 0.53888 0.33655
 H293 H 0.85202 0.45917 0.29176
 H294 H 0.85834 0.49329 0.42510
 C295 C 0.47477 0.35189 0.30562
 C296 C 0.47465 0.32651 0.27024
 C297 C 0.49803 0.33158 0.32767
 C298 C 0.49816 0.35663 0.36369
 C299 C 0.49600 0.36961 0.24220
 C300 C 0.51938 0.37465 0.29958
 C301 C 0.49588 0.34457 0.20602
 C302 C 0.51928 0.34927 0.26420
 C303 C 0.49910 0.31046 0.37574
 C304 C 0.49985 0.29296 0.41501
 C305 C 0.49507 0.39122 0.19641
 C306 C 0.49460 0.40947 0.16061
 H307 H 0.45643 0.35318 0.32202
 H308 H 0.45627 0.30645 0.25879
 H309 H 0.49909 0.36141 0.42890
 H310 H 0.53779 0.39470 0.31097
 H311 H 0.49491 0.33983 0.14068
 H312 H 0.53760 0.34798 0.24774
 C313 C 0.64284 0.12314 0.31951
 C314 C 0.67022 0.14521 0.28334
 C315 C 0.66690 0.16711 0.32840
 C316 C 0.63984 0.14537 0.36511
 C317 C 0.62785 0.12652 0.24711
 C318 C 0.62454 0.14843 0.29206
 C319 C 0.65491 0.14826 0.21018
 C320 C 0.65195 0.17054 0.25596
 C321 C 0.68867 0.18943 0.37446
 C322 C 0.70665 0.20764 0.41260
 C323 C 0.60590 0.10366 0.20323
 C324 C 0.58768 0.08475 0.16793
 H325 H 0.63891 0.10342 0.34517
 H326 H 0.68927 0.14416 0.28022
 H327 H 0.63364 0.14443 0.42888
 H328 H 0.60551 0.14950 0.29529
 H329 H 0.66087 0.14924 0.14595
 H330 H 0.65591 0.19030 0.23055
 C331 C 0.49782 0.15072 -0.20969
 C332 C 0.52077 0.16986 -0.26810
 C333 C 0.49903 0.16690 -0.32912
 C334 C 0.47610 0.14813 -0.27144
 C335 C 0.49780 0.12619 -0.24945
 C336 C 0.47606 0.12325 -0.31049
 C337 C 0.52073 0.14498 -0.30716
 C338 C 0.49900 0.14237 -0.36886
 C339 C 0.49972 0.18952 -0.37371
 C340 C 0.50021 0.20803 -0.41082
 C341 C 0.49712 0.10344 -0.20557
 C342 C 0.49660 0.08467 -0.16992
 H343 H 0.49733 0.15392 -0.14377
 H344 H 0.53915 0.18930 -0.25123
 H345 H 0.45775 0.14969 -0.25734
 H346 H 0.45767 0.10382 -0.32742
 H347 H 0.53909 0.14345 -0.32130
 H348 H 0.49940 0.13914 -0.43476
 C349 C 0.64665 0.52364 -0.30800
 C350 C 0.67343 0.52695 -0.27234
 C351 C 0.66958 0.50264 -0.32353
 C352 C 0.64313 0.49933 -0.35979
 C353 C 0.63072 0.50379 -0.23953
 C354 C 0.62689 0.47948 -0.29066
 C355 C 0.65716 0.50709 -0.20310
 C356 C 0.65367 0.48277 -0.25503
 C357 C 0.69115 0.50210 -0.37100
 C358 C 0.70897 0.50176 -0.40995
 C359 C 0.60874 0.50440 -0.19452
 C360 C 0.59028 0.50473 -0.15931
 H361 H 0.64356 0.54049 -0.32923
 H362 H 0.69282 0.54646 -0.26534
 H363 H 0.63753 0.49610 -0.42459
 H364 H 0.60752 0.45994 -0.29762
 H365 H 0.66271 0.51028 -0.13817
 H366 H 0.65679 0.46594 -0.23383
 C367 C 0.85252 0.37327 -0.29057
 C368 C 0.85580 0.35749 -0.36199
 C369 C 0.83297 0.33083 -0.32637
 C370 C 0.82934 0.34629 -0.25558
 C371 C 0.87330 0.36909 -0.24218
 C372 C 0.85048 0.34245 -0.20638
 C373 C 0.87690 0.35362 -0.31294
 C374 C 0.85374 0.32664 -0.27791
 C375 C 0.81067 0.30956 -0.37382
 C376 C 0.79235 0.29195 -0.41269
 C377 C 0.89601 0.39080 -0.19704
 C378 C 0.91483 0.40910 -0.16167
 H379 H 0.85225 0.39268 -0.29519
 H380 H 0.85774 0.36352 -0.42631
 H381 H 0.80953 0.34306 -0.23263
 H382 H 0.84852 0.33649 -0.14190
 H383 H 0.89670 0.35682 -0.33593
 H384 H 0.85398 0.30722 -0.27327
 C385 C 0.50654 -0.15017 -0.20796
 C386 C 0.48192 -0.17097 -0.25883
 C387 C 0.50144 -0.16732 -0.32830
 C388 C 0.52604 -0.14689 -0.27817
 C389 C 0.50314 -0.12706 -0.24401
 C390 C 0.52264 -0.12344 -0.31347
 C391 C 0.47853 -0.14751 -0.29409
 C392 C 0.49802 -0.14421 -0.36420
 C393 C 0.50061 -0.18962 -0.37573
 C394 C 0.50003 -0.20795 -0.41454
 C395 C 0.50404 -0.10437 -0.19860
 C396 C 0.50456 -0.08555 -0.16282
 H397 H 0.51004 -0.15241 -0.14322
 H398 H 0.46514 -0.19076 -0.23693
 H399 H 0.54558 -0.14688 -0.27210
 H400 H 0.53942 -0.10366 -0.33542
 H401 H 0.45898 -0.14756 -0.30009
 H402 H 0.49443 -0.14197 -0.42878
 C403 C 0.35097 0.50474 -0.21351
 C404 C 0.35517 0.52408 -0.28491
 C405 C 0.33249 0.49998 -0.33150
 C406 C 0.32795 0.48066 -0.26081
 C407 C 0.37178 0.49820 -0.25176
 C408 C 0.34909 0.47409 -0.29837
 C409 C 0.37630 0.51751 -0.32250
 C410 C 0.35329 0.49342 -0.36976
 C411 C 0.31064 0.50103 -0.37604
 C412 C 0.29272 0.50182 -0.41313
 C413 C 0.39378 0.49732 -0.20754
 C414 C 0.41197 0.49671 -0.17146
 H415 H 0.35021 0.50937 -0.14878
 H416 H 0.35744 0.54465 -0.27981
 H417 H 0.30782 0.46551 -0.23600
 H418 H 0.34681 0.45352 -0.30346
 H419 H 0.39643 0.53266 -0.34737
 H420 H 0.35396 0.48870 -0.43443
 C421 C 1.14619 0.62377 -0.30524
 C422 C 1.14297 0.64126 -0.37136
 C423 C 1.16648 0.66691 -0.33296
 C424 C 1.17005 0.64975 -0.26744
 C425 C 1.12615 0.62756 -0.25174
 C426 C 1.14966 0.65322 -0.21321
 C427 C 1.12261 0.64474 -0.31722
 C428 C 1.14646 0.67072 -0.27944
 C429 C 1.18890 0.68880 -0.37856
 C430 C 1.20726 0.70680 -0.41619
 C431 C 1.10350 0.60548 -0.20744
 C432 C 1.08476 0.58720 -0.17170
 H433 H 1.14589 0.60424 -0.31535
 H434 H 1.14029 0.63650 -0.43671
 H435 H 1.18980 0.65205 -0.24748
 H436 H 1.15221 0.65795 -0.14771
 H437 H 1.10287 0.64246 -0.33730
 H438 H 1.14678 0.69025 -0.26942
 C439 C 0.84906 0.50442 -0.20529
 C440 C 0.85229 0.52598 -0.26843
 C441 C 0.83368 0.50294 -0.32626
 C442 C 0.83007 0.48136 -0.26386
 C443 C 0.87366 0.50397 -0.24270
 C444 C 0.85503 0.48093 -0.30049
 C445 C 0.87724 0.52554 -0.30506
 C446 C 0.85828 0.50249 -0.36353
 C447 C 0.81152 0.50239 -0.37319
 C448 C 0.79325 0.50200 -0.41155
 C449 C 0.89617 0.50449 -0.19781
 C450 C 0.91489 0.50473 -0.16254
 H451 H 0.84552 0.50521 -0.13971
 H452 H 0.85090 0.54450 -0.25583
 H453 H 0.81041 0.46318 -0.24753
 H454 H 0.85638 0.46238 -0.31299
 H455 H 0.89689 0.54372 -0.32135
 H456 H 0.86188 0.50172 -0.42899
 C457 C 0.49195 0.34251 -0.20529
 C458 C 0.47306 0.32705 -0.27737
 C459 C 0.49801 0.33092 -0.32506
 C460 C 0.51691 0.34601 -0.25373
 C461 C 0.49626 0.36938 -0.24094
 C462 C 0.52121 0.37323 -0.28859
 C463 C 0.47737 0.35427 -0.31227
 C464 C 0.50233 0.35780 -0.36058
 C465 C 0.49888 0.30952 -0.37225
 C466 C 0.49952 0.29182 -0.41081
 C467 C 0.49539 0.39113 -0.19569
 C468 C 0.49492 0.40944 -0.16019
 H469 H 0.48768 0.33648 -0.14092
 H470 H 0.45328 0.30780 -0.27335
 H471 H 0.53320 0.34238 -0.23033
 H472 H 0.54100 0.39247 -0.29260
 H473 H 0.46108 0.35789 -0.33572
 H474 H 0.50670 0.36391 -0.42479
 C475 C 0.65351 0.14886 -0.21040
 C476 C 0.67052 0.14589 -0.27884
 C477 C 0.66684 0.16658 -0.32924
 C478 C 0.65021 0.16993 -0.26152
 C479 C 0.62752 0.12598 -0.24933
 C480 C 0.62386 0.14668 -0.29966
 C481 C 0.64418 0.12266 -0.31699
 C482 C 0.64084 0.14369 -0.36797
 C483 C 0.68868 0.18902 -0.37442
 C484 C 0.70668 0.20737 -0.41185
 C485 C 0.60546 0.10319 -0.20594
 C486 C 0.58721 0.08437 -0.17074
 H487 H 0.65847 0.15073 -0.14508
 H488 H 0.68995 0.14582 -0.27083
 H489 H 0.65294 0.18963 -0.23933
 H490 H 0.60444 0.14677 -0.30778
 H491 H 0.64146 0.10298 -0.33934
 H492 H 0.63574 0.14170 -0.43298
 C493 C 1.14596 0.49017 -0.21871
 C494 C 1.14359 0.47502 -0.29878
 C495 C 1.16760 0.50120 -0.33259
 C496 C 1.17034 0.51639 -0.25324
 C497 C 1.12649 0.49916 -0.25314
 C498 C 1.15051 0.52537 -0.28692
 C499 C 1.12378 0.48401 -0.33254
 C500 C 1.14816 0.51022 -0.36701
 C501 C 1.19026 0.50197 -0.37699
 C502 C 1.20872 0.50235 -0.41401
 C503 C 1.10351 0.49783 -0.20905
 C504 C 1.08461 0.49679 -0.17283
 H505 H 1.14481 0.48195 -0.15721
 H506 H 1.14103 0.45434 -0.30412
 H507 H 1.18978 0.52973 -0.22135
 H508 H 1.15305 0.54605 -0.28167
 H509 H 1.10439 0.47069 -0.36465
 H510 H 1.14944 0.51865 -0.42824
 C511 C 0.50719 0.65456 -0.21288
 C512 C 0.52463 0.66893 -0.28822
 C513 C 0.49912 0.66612 -0.32993
 C514 C 0.48166 0.65210 -0.25531
 C515 C 0.50065 0.62700 -0.24930
 C516 C 0.47512 0.62418 -0.29091
 C517 C 0.51808 0.64104 -0.32391
 C518 C 0.49255 0.63855 -0.36620
 C519 C 0.49865 0.68797 -0.37542
 C520 C 0.49857 0.70606 -0.41316
 C521 C 0.50165 0.60518 -0.20532
 C522 C 0.50247 0.58712 -0.16964
 H523 H 0.51320 0.66086 -0.14929
 H524 H 0.54496 0.68761 -0.28756
 H525 H 0.46665 0.65688 -0.22784
 H526 H 0.45478 0.60550 -0.29168
 H527 H 0.53307 0.63628 -0.35161
 H528 H 0.48626 0.63202 -0.42933
 C529 C 0.36257 -0.15575 -0.23760
 C530 C 0.33209 -0.16384 -0.23810
 C531 C 0.33204 -0.16580 -0.33054
 C532 C 0.36218 -0.15807 -0.33078
 C533 C 0.37025 -0.12576 -0.24577
 C534 C 0.37019 -0.12774 -0.33824
 C535 C 0.34011 -0.13349 -0.24556
 C536 C 0.33973 -0.13582 -0.33875
 C537 C 0.31071 -0.18807 -0.37749
 C538 C 0.29305 -0.20641 -0.41588
 C539 C 0.39176 -0.10335 -0.19957
 C540 C 0.40987 -0.08478 -0.16310
 H541 H 0.37220 -0.16368 -0.19541
 H542 H 0.31615 -0.17898 -0.19759
 H543 H 0.37100 -0.16842 -0.36639
 H544 H 0.38612 -0.11262 -0.37884
 H545 H 0.33127 -0.12315 -0.20997
 H546 H 0.33011 -0.12790 -0.38103
 C547 C 0.47991 -0.14591 0.29177
 C548 C 0.48230 -0.16997 0.25650
 C549 C 0.50234 -0.16627 0.32440
 C550 C 0.49992 -0.14256 0.36030
 C551 C 0.50422 -0.12621 0.23965
 C552 C 0.52424 -0.12254 0.30750
 C553 C 0.50662 -0.14991 0.20356
 C554 C 0.52665 -0.14660 0.27222
 C555 C 0.50136 -0.18841 0.37215
 C556 C 0.50062 -0.20666 0.41120
 C557 C 0.50509 -0.10365 0.19448
 C558 C 0.50549 -0.08491 0.15922
 H559 H 0.46069 -0.14537 0.29910
 H560 H 0.46502 -0.18974 0.23622
 H561 H 0.49712 -0.13976 0.42511
 H562 H 0.54152 -0.10278 0.32780
 H563 H 0.50938 -0.15267 0.13859
 H564 H 0.54584 -0.14718 0.26482
 C565 C 0.34586 0.49342 0.21570
 C566 C 0.33149 0.47630 0.29147
 C567 C 0.33440 0.50197 0.33223
 C568 C 0.34843 0.51912 0.25718
 C569 C 0.37342 0.50003 0.25216
 C570 C 0.37636 0.52573 0.29291
 C571 C 0.35939 0.48290 0.32725
 C572 C 0.36197 0.50860 0.36871
 C573 C 0.31252 0.50265 0.37687
 C574 C 0.29439 0.50290 0.41395
 C575 C 0.39503 0.49874 0.20772
 C576 C 0.41284 0.49767 0.17127
 H577 H 0.33949 0.48718 0.15228
 H578 H 0.31277 0.45600 0.29139
 H579 H 0.34365 0.53403 0.22905
 H580 H 0.39508 0.54603 0.29295
 H581 H 0.36415 0.46800 0.35550
 H582 H 0.36835 0.51495 0.43205
 C583 C 1.14686 0.65474 0.21005
 C584 C 1.14405 0.66874 0.28690
 C585 C 1.16737 0.66632 0.32589
 C586 C 1.17056 0.65268 0.24976
 C587 C 1.12662 0.62696 0.24639
 C588 C 1.14994 0.62454 0.28529
 C589 C 1.12347 0.64063 0.32252
 C590 C 1.14714 0.63854 0.36209
 C591 C 1.18972 0.68827 0.37091
 C592 C 1.20789 0.70641 0.40842
 C593 C 1.10371 0.60500 0.20308
 C594 C 1.08480 0.58686 0.16783
 H595 H 1.14650 0.66113 0.14700
 H596 H 1.14193 0.68719 0.28799
 H597 H 1.19022 0.65790 0.22058
 H598 H 1.15209 0.60610 0.28420
 H599 H 1.10386 0.63546 0.35189
 H600 H 1.14762 0.63200 0.42474
 C601 C 0.48497 0.12317 0.33354
 C602 C 0.51112 0.14812 0.36631
 C603 C 0.50088 0.16678 0.33356
 C604 C 0.47475 0.14218 0.30146
 C605 C 0.49948 0.12615 0.25273
 C606 C 0.48926 0.14484 0.21999
 C607 C 0.52563 0.15076 0.28481
 C608 C 0.51541 0.16980 0.25280
 C609 C 0.50130 0.18917 0.37869
 C610 C 0.50135 0.20742 0.41612
 C611 C 0.49846 0.10337 0.20803
 C612 C 0.49756 0.08456 0.17149
 H613 H 0.47244 0.10376 0.36624
 H614 H 0.52022 0.14981 0.42681
 H615 H 0.45385 0.13893 0.30880
 H616 H 0.48029 0.14327 0.15932
 H617 H 0.54654 0.15403 0.27751
 H618 H 0.52794 0.18926 0.22030
 C619 C 0.65655 0.50763 0.20863
 C620 C 0.67213 0.52695 0.27979
 C621 C 0.66828 0.50233 0.32902
 C622 C 0.65306 0.48299 0.25862
 C623 C 0.62971 0.50360 0.24404
 C624 C 0.62588 0.47897 0.29321
 C625 C 0.64495 0.52293 0.31442
 C626 C 0.64143 0.49829 0.36427
 C627 C 0.68973 0.50177 0.37681
 C628 C 0.70753 0.50147 0.41580
 C629 C 0.60791 0.50426 0.19844
 C630 C 0.58958 0.50461 0.16264
 H631 H 0.66251 0.51146 0.14412
 H632 H 0.69140 0.54668 0.27484
 H633 H 0.65664 0.46655 0.23632
 H634 H 0.60662 0.45923 0.29813
 H635 H 0.64139 0.53938 0.33674
 H636 H 0.63538 0.49438 0.42861
 C637 C 0.85004 0.34388 0.20491
 C638 C 0.85335 0.32685 0.27250
 C639 C 0.83400 0.33168 0.32610
 C640 C 0.83031 0.34834 0.25926
 C641 C 0.87406 0.36967 0.24096
 C642 C 0.85468 0.37446 0.29450
 C643 C 0.87772 0.35299 0.30774
 C644 C 0.85802 0.35747 0.36196
 C645 C 0.81181 0.31058 0.37395
 C646 C 0.79355 0.29309 0.41300
 C647 C 0.89660 0.39129 0.19548
 C648 C 0.91529 0.40957 0.15993
 H649 H 0.84700 0.33850 0.13985
 H650 H 0.85254 0.30702 0.26409
 H651 H 0.81056 0.34621 0.23995
 H652 H 0.85545 0.39428 0.30282
 H653 H 0.89745 0.35508 0.32701
 H654 H 0.86113 0.36291 0.42689
   
