data_POSCAR
  _audit_creation_date              2014-09-24
  _audit_creation_method            'ToBaCCo'
  _symmetry_space_group_name_H-M    'P1'
  _symmetry_Int_Tables_number       1
  _symmetry_cell_setting            triclinic
  loop_
  _symmetry_equiv_pos_as_xyz
 x,y,z
_cell_length_a 44.1672
_cell_length_b 44.0385
_cell_length_c 44.0354
_cell_angle_alpha 90.005100
_cell_angle_beta 89.948400
_cell_angle_gamma 89.944500
loop_
  _atom_site_label
  _atom_site_type_symbol
  _atom_site_fract_x
  _atom_site_fract_y
  _atom_site_fract_z
C1 C 0.17625 1.21692 0.21638
 C2 C 0.16335 1.24269 0.20283
 C3 C 0.17638 1.25534 0.17669
 C4 C 0.20258 1.24247 0.16409
 C5 C 0.21576 1.21669 0.17736
 C6 C 0.20256 1.20381 0.20361
 C7 C 0.16298 1.20366 0.24212
 C8 C 0.17564 1.17749 0.25507
 C9 C 0.20184 1.16455 0.24253
 C10 C 0.21539 1.17753 0.21679
 C11 C 0.24119 1.16435 0.20365
 C12 C 0.25414 1.17707 0.17754
 C13 C 0.24156 1.20321 0.16452
 H14 H 0.14297 1.25265 0.21237
 H15 H 0.21246 1.25225 0.14375
 H16 H 0.14260 1.21346 0.25182
 H17 H 0.21143 1.14419 0.25254
 H18 H 0.25099 1.14399 0.21344
 H19 H 0.25164 1.21277 0.14419
 C20 C 0.82416 0.78339 0.21641
 C21 C 0.83732 0.75764 0.20303
 C22 C 0.82452 0.74475 0.17692
 C23 C 0.79830 0.75737 0.16416
 C24 C 0.78486 0.78312 0.17725
 C25 C 0.79783 0.79624 0.20348
 C26 C 0.83720 0.79688 0.24212
 C27 C 0.82428 0.82302 0.25490
 C28 C 0.79807 0.83571 0.24220
 C29 C 0.78474 0.82250 0.21649
 C30 C 0.75891 0.83542 0.20319
 C31 C 0.74619 0.82246 0.17710
 C32 C 0.75903 0.79634 0.16426
 H33 H 0.85772 0.74788 0.21270
 H34 H 0.78860 0.74740 0.14384
 H35 H 0.85760 0.78727 0.25195
 H36 H 0.78828 0.85605 0.25208
 H37 H 0.74891 0.85576 0.21284
 H38 H 0.74912 0.78660 0.14394
 C39 C 0.82283 1.21590 -0.21664
 C40 C 0.83594 1.24165 -0.20329
 C41 C 0.82318 1.25444 -0.17710
 C42 C 0.79709 1.24177 -0.16421
 C43 C 0.78368 1.21602 -0.17726
 C44 C 0.79660 1.20298 -0.20359
 C45 C 0.83582 1.20249 -0.24246
 C46 C 0.82295 1.17635 -0.25521
 C47 C 0.79683 1.16359 -0.24238
 C48 C 0.78356 1.17672 -0.21657
 C49 C 0.75783 1.16373 -0.20313
 C50 C 0.74517 1.17661 -0.17694
 C51 C 0.75796 1.20273 -0.16413
 H52 H 0.85625 1.25152 -0.21298
 H53 H 0.78750 1.25173 -0.14382
 H54 H 0.85615 1.21215 -0.25238
 H55 H 0.78707 1.14324 -0.25224
 H56 H 0.74787 1.14339 -0.21276
 H57 H 0.74811 1.21242 -0.14374
 C58 C 0.17680 0.78355 -0.21642
 C59 C 0.16369 0.75778 -0.20309
 C60 C 0.17644 0.74493 -0.17692
 C61 C 0.20256 0.75761 -0.16406
 C62 C 0.21595 0.78338 -0.17711
 C63 C 0.20303 0.79646 -0.20339
 C64 C 0.16381 0.79700 -0.24219
 C65 C 0.17669 0.82314 -0.25490
 C66 C 0.20278 0.83589 -0.24213
 C67 C 0.21607 0.82273 -0.21636
 C68 C 0.24179 0.83572 -0.20297
 C69 C 0.25446 0.82280 -0.17683
 C70 C 0.24168 0.79666 -0.16402
 H71 H 0.14336 0.74797 -0.21283
 H72 H 0.21222 0.74768 -0.14370
 H73 H 0.14350 0.78742 -0.25214
 H74 H 0.21246 0.85624 -0.25203
 H75 H 0.25174 0.85607 -0.21260
 H76 H 0.25155 0.78696 -0.14366
 C77 C 0.54618 1.04148 -0.00878
 H78 H 0.54689 1.04143 0.01578
 C79 C 0.56677 1.05904 -0.02521
 H80 H 0.58336 1.07267 -0.01330
 C81 C 0.52430 1.02306 -0.05438
 H82 H 0.50816 1.00854 -0.06567
 C83 C 0.54452 1.04029 -0.07169
 H84 H 0.54370 1.03918 -0.09625
 N85 N 0.52540 1.02408 -0.02350
 C86 C 0.45370 1.00883 0.04289
 H87 H 0.45303 0.98427 0.04285
 C88 C 0.43308 1.02523 0.06048
 H89 H 0.41651 1.01331 0.07416
 C90 C 0.47549 1.05445 0.02438
 H91 H 0.49160 1.06575 0.00981
 C92 C 0.45524 1.07173 0.04164
 H93 H 0.45600 1.09629 0.04051
 Zn94 Zn 0.49993 0.99942 0.00069
 N95 N 0.47444 1.02357 0.02542
 C96 C 0.52447 0.97574 0.05565
 N97 N 0.52548 0.97472 0.02476
 C98 C 0.54623 0.95730 0.00994
 C99 C 0.56690 0.93973 0.02627
 C100 C 0.54476 0.95851 0.07285
 C101 C 0.45361 0.99009 -0.04132
 C102 C 0.43298 0.97372 -0.05886
 C103 C 0.45522 0.92718 -0.04016
 C104 C 0.47547 0.94442 -0.02295
 N105 N 0.47439 0.97531 -0.02395
 H106 H 0.50834 0.99028 0.06700
 H107 H 0.54688 0.95735 -0.01462
 H108 H 0.58348 0.92609 0.01429
 H109 H 0.54402 0.95962 0.09742
 H110 H 0.45292 1.01464 -0.04125
 H111 H 0.41639 0.98568 -0.07247
 H112 H 0.45602 0.90262 -0.03908
 H113 H 0.49163 0.93309 -0.00845
 C114 C 0.43381 1.05696 0.05977
 C115 C 0.56598 1.05836 -0.05694
 C116 C 0.43375 0.94199 -0.05821
 C117 C 0.56620 0.94042 0.05801
 C118 C -0.00869 0.54658 1.04190
 H119 H 0.01580 0.54727 1.04181
 C120 C -0.02503 0.56725 1.05951
 H121 H -0.01314 0.58388 1.07314
 C122 C -0.05419 0.52467 1.02355
 H123 H -0.06547 0.50849 1.00904
 C124 C -0.07141 0.54497 1.04083
 H125 H -0.09590 0.54417 1.03978
 N126 N -0.02340 0.52575 1.02451
 C127 C 0.04268 0.45372 1.00913
 H128 H 0.04263 0.45303 0.98457
 C129 C 0.06020 0.43304 1.02551
 H130 H 0.07381 0.41639 1.01356
 C131 C 0.02429 0.47564 1.05479
 H132 H 0.00978 0.49183 1.06611
 C133 C 0.04148 0.45533 1.07204
 H134 H 0.04037 0.45613 1.09661
 Zn135 Zn 0.00067 0.50015 0.99980
 N136 N 0.02530 0.47456 1.02390
 C137 C 0.05550 0.52464 0.97605
 N138 N 0.02470 0.52573 0.97508
 C139 C 0.00996 0.54656 0.95769
 C140 C 0.02628 0.56724 0.94010
 C141 C 0.07268 0.54495 0.95879
 C142 C -0.04128 0.45376 0.99048
 C143 C -0.05882 0.43310 0.97412
 C144 C -0.04016 0.45537 0.92757
 C145 C -0.02296 0.47565 0.94481
 N146 N -0.02394 0.47457 0.97570
 H147 H 0.06680 0.50845 0.99056
 H148 H -0.01452 0.54726 0.95778
 H149 H 0.01436 0.58388 0.92648
 H150 H 0.09718 0.54414 0.95985
 H151 H -0.04121 0.45306 1.01504
 H152 H -0.07241 0.41648 0.98608
 H153 H -0.03910 0.45618 0.90301
 H154 H -0.00848 0.49183 0.93347
 C155 C 0.05952 0.43381 1.05724
 C156 C -0.05667 0.56648 1.05890
 C157 C -0.05818 0.43387 0.94239
 C158 C 0.05792 0.56647 0.94073
 C159 C 1.04135 -0.00879 0.54584
 H160 H 1.04121 0.01576 0.54658
 C161 C 1.05892 -0.02518 0.56647
 H162 H 1.07247 -0.01324 0.58313
 C163 C 1.02316 -0.05444 0.52384
 H164 H 1.00872 -0.06576 0.50763
 C165 C 1.04040 -0.07170 0.54409
 H166 H 1.03939 -0.09626 0.54324
 N167 N 1.02405 -0.02355 0.52498
 C168 C 1.00862 0.04277 0.45311
 H169 H 0.98414 0.04267 0.45242
 C170 C 1.02492 0.06042 0.43246
 H171 H 1.01299 0.07407 0.41585
 C172 C 1.05417 0.02441 0.47498
 H173 H 1.06549 0.00987 0.49113
 C174 C 1.07135 0.04172 0.45471
 H175 H 1.09584 0.04068 0.45550
 Zn176 Zn 0.99938 0.00056 0.49944
 N177 N 1.02338 0.02535 0.47390
 C178 C 0.97558 0.05547 0.52408
 N179 N 0.97467 0.02458 0.52509
 C180 C 0.95735 0.00974 0.54589
 C181 C 0.93977 0.02604 0.56662
 C182 C 0.95833 0.07265 0.54443
 C183 C 0.99022 -0.04147 0.45295
 C184 C 0.97397 -0.05908 0.43226
 C185 C 0.92750 -0.04051 0.45460
 C186 C 0.94463 -0.02323 0.47491
 N187 N 0.97543 -0.02414 0.47381
 H188 H 0.99004 0.06685 0.50791
 H189 H 0.95748 -0.01482 0.54653
 H190 H 0.92620 0.01404 0.58324
 H191 H 0.95935 0.09722 0.54369
 H192 H 1.01471 -0.04133 0.45224
 H193 H 0.98593 -0.07266 0.41560
 H194 H 0.90300 -0.03950 0.45542
 H195 H 0.93328 -0.00876 0.49112
 C196 C 1.05656 0.05982 0.43323
 C197 C 1.05837 -0.05691 0.56564
 C198 C 0.94233 -0.05852 0.43305
 C199 C 0.94034 0.05778 0.56592
 C200 C 0.13588 0.32522 1.13511
 N201 N 0.11002 0.33726 1.14659
 N202 N 0.09557 0.35936 1.13182
 C203 C 0.10656 0.37007 1.10512
 N204 N 0.13244 0.35806 1.09367
 N205 N 0.14689 0.33597 1.10844
 C206 C 0.15076 0.30061 1.15038
 C207 C 0.16295 0.27954 1.16289
 C208 C 0.09036 0.39300 1.08862
 C209 C 0.07646 0.41184 1.07447
 C210 C -0.13422 0.67494 1.13590
 N211 N -0.10796 0.66364 1.14718
 N212 N -0.09328 0.64157 1.13260
 C213 C -0.10440 0.63013 1.10628
 N214 N -0.13068 0.64140 1.09502
 N215 N -0.14537 0.66347 1.10961
 C216 C -0.14939 0.69953 1.15096
 C217 C -0.16180 0.72058 1.16330
 C218 C -0.08797 0.60723 1.08995
 C219 C -0.07386 0.58842 1.07595
 C220 C -0.13499 0.32554 0.86480
 N221 N -0.10852 0.33663 0.85380
 N222 N -0.09395 0.35867 0.86849
 C223 C -0.10541 0.37029 0.89461
 N224 N -0.13190 0.35923 0.90559
 N225 N -0.14647 0.33719 0.89090
 C226 C -0.15006 0.30099 0.84965
 C227 C -0.16242 0.27998 0.83727
 C228 C -0.08913 0.39316 0.91106
 C229 C -0.07517 0.41196 0.92518
 C230 C 0.13529 0.67505 0.86396
 N231 N 0.10904 0.66381 0.85267
 N232 N 0.09439 0.64171 0.86721
 C233 C 0.10555 0.63019 0.89348
 N234 N 0.13183 0.64140 0.90475
 N235 N 0.14648 0.66350 0.89021
 C236 C 0.15042 0.69967 0.84896
 C237 C 0.16280 0.72074 0.83666
 C238 C 0.08915 0.60726 0.90976
 C239 C 0.07507 0.58843 0.92372
 C240 C 1.13413 0.13674 0.32483
 N241 N 1.14577 0.11098 0.33704
 N242 N 1.13105 0.09643 0.35910
 C243 C 1.10424 0.10721 0.36961
 N244 N 1.09262 0.13299 0.35744
 N245 N 1.10734 0.14754 0.33538
 C246 C 1.14936 0.15172 0.30027
 C247 C 1.16185 0.16398 0.27923
 C248 C 1.08781 0.09089 0.39250
 C249 C 1.07372 0.07689 0.41130
 C250 C 1.13511 -0.13470 0.67395
 N251 N 1.14628 -0.10828 0.66280
 N252 N 1.13175 -0.09354 0.64076
 C253 C 1.10561 -0.10478 0.62920
 N254 N 1.09446 -0.13123 0.64031
 N255 N 1.10900 -0.14597 0.66236
 C256 C 1.15011 -0.14993 0.69851
 C257 C 1.16240 -0.16239 0.71954
 C258 C 1.08933 -0.08829 0.60633
 C259 C 1.07537 -0.07414 0.58754
 C260 C 0.86524 -0.13571 0.32463
 N261 N 0.89138 -0.14706 0.33612
 N262 N 0.90598 -0.13242 0.35817
 C263 C 0.89486 -0.10598 0.36941
 N264 N 0.86869 -0.09465 0.35795
 N265 N 0.85410 -0.10929 0.33589
 C266 C 0.85017 -0.15084 0.30007
 C267 C 0.83785 -0.16326 0.27905
 C268 C 0.91120 -0.08961 0.39230
 C269 C 0.92523 -0.07558 0.41111
 C270 C 0.86368 0.13515 0.67476
 N271 N 0.88963 0.14661 0.66294
 N272 N 0.90414 0.13195 0.64079
 C273 C 0.89313 0.10539 0.62980
 N274 N 0.86715 0.09396 0.64159
 N275 N 0.85265 0.10862 0.66374
 C276 C 0.84872 0.15029 0.69943
 C277 C 0.83647 0.16268 0.72054
 C278 C 0.90939 0.08900 0.60681
 C279 C 0.92334 0.07493 0.58793
 C280 C 0.32537 1.13484 0.13628
 N281 N 0.33623 1.10826 0.14740
 N282 N 0.35831 1.09350 0.13294
 C283 C 0.37019 1.10488 0.10691
 N284 N 0.35937 1.13148 0.09581
 N285 N 0.33729 1.14624 0.11028
 C286 C 0.30078 1.15008 0.15118
 C287 C 0.27973 1.16256 0.16337
 C288 C 0.39309 1.08838 0.09069
 C289 C 0.41189 1.07421 0.07675
 C290 C 0.67414 1.13502 -0.13483
 N291 N 0.66275 1.14648 -0.10861
 N292 N 0.64073 1.13196 -0.09386
 C293 C 0.62945 1.10554 -0.10490
 N294 N 0.64081 1.09411 -0.13115
 N295 N 0.66282 1.10863 -0.14589
 C296 C 0.69866 1.15002 -0.15005
 C297 C 0.71966 1.16231 -0.16249
 C298 C 0.60661 1.08928 -0.08839
 C299 C 0.58785 1.07534 -0.07421
 C300 C 0.32551 0.86454 -0.13501
 N301 N 0.33727 0.89049 -0.14665
 N302 N 0.35930 0.90513 -0.13208
 C303 C 0.37023 0.89427 -0.10543
 N304 N 0.35850 0.86829 -0.09382
 N305 N 0.33647 0.85364 -0.10839
 C306 C 0.30098 0.84944 -0.15007
 C307 C 0.27998 0.83711 -0.16243
 C308 C 0.39309 0.91068 -0.08915
 C309 C 0.41186 0.92479 -0.07519
 C310 C 0.67484 0.86387 0.13535
 N311 N 0.66332 0.89014 0.14658
 N312 N 0.64121 0.90463 0.13195
 C313 C 0.62994 0.89328 0.10565
 N314 N 0.64142 0.86699 0.09445
 N315 N 0.66354 0.85250 0.10908
 C316 C 0.69948 0.84893 0.15044
 C317 C 0.72056 0.83669 0.16278
 C318 C 0.60700 0.90952 0.08926
 C319 C 0.58816 0.92345 0.07518
   
