data_POSCAR
  _audit_creation_date              2014-09-24
  _audit_creation_method            'ToBaCCo'
  _symmetry_space_group_name_H-M    'P1'
  _symmetry_Int_Tables_number       1
  _symmetry_cell_setting            triclinic
  loop_
  _symmetry_equiv_pos_as_xyz
 x,y,z
_cell_length_a 39.9268
_cell_length_b 40.8834
_cell_length_c 12.6017
_cell_angle_alpha 89.774500
_cell_angle_beta 90.873300
_cell_angle_gamma 120.494000
loop_
  _atom_site_label
  _atom_site_type_symbol
  _atom_site_fract_x
  _atom_site_fract_y
  _atom_site_fract_z
C1 C 0.22017 0.48833 0.44972
 C2 C 0.20646 0.47829 0.55524
 C3 C 0.22251 0.46277 0.62297
 C4 C 0.25245 0.45730 0.59166
 C5 C 0.27052 0.47103 0.49151
 C6 C 0.25183 0.48399 0.41925
 H7 H 0.26303 0.49239 0.33987
 H8 H 0.20961 0.45260 0.70027
 C9 C 0.51284 -0.27305 0.44426
 C10 C 0.50403 -0.27599 0.55356
 C11 C 0.49968 -0.24784 0.60384
 C12 C 0.50135 -0.21743 0.54686
 C13 C 0.50833 -0.21549 0.43572
 C14 C 0.51479 -0.24265 0.38717
 H15 H 0.52117 -0.24015 0.30314
 H16 H 0.49441 -0.25004 0.68849
 C17 C 1.26837 0.80345 0.45605
 C18 C 1.26183 0.80452 0.56599
 C19 C 1.22805 0.77545 0.61245
 C20 C 1.20011 0.74490 0.55188
 C21 C 1.20625 0.74377 0.44225
 C22 C 1.23998 0.77290 0.39544
 H23 H 1.24379 0.77198 0.31066
 H24 H 1.22417 0.77591 0.69732
 C25 C 0.79240 0.51996 0.49415
 C26 C 0.77556 0.50783 0.59642
 C27 C 0.74389 0.51093 0.62610
 C28 C 0.72392 0.52052 0.55255
 C29 C 0.73744 0.52949 0.44743
 C30 C 0.77197 0.53015 0.42021
 H31 H 0.78153 0.53638 0.33885
 H32 H 0.73270 0.50293 0.70590
 C33 C 0.49211 0.27764 0.45236
 C34 C 0.48848 0.27654 0.56420
 C35 C 0.49094 0.24822 0.62111
 C36 C 0.49535 0.22024 0.56925
 C37 C 0.49773 0.22097 0.45671
 C38 C 0.49670 0.25003 0.40021
 H39 H 0.49848 0.25060 0.31437
 H40 H 0.48807 0.24723 0.70675
 C41 C 0.75271 0.20208 0.43862
 C42 C 0.74717 0.20241 0.54875
 C43 C 0.77529 0.23235 0.61078
 C44 C 0.80870 0.26241 0.56506
 C45 C 0.81497 0.26125 0.45473
 C46 C 0.78667 0.23112 0.39296
 H47 H 0.79028 0.23114 0.30784
 H48 H 0.77084 0.23245 0.69548
 N49 N 0.95384 0.53582 0.11886
 N50 N 0.92216 0.53764 0.13376
 N51 N 1.03891 0.56414 0.18782
 N52 N 1.06951 0.58542 0.24847
 N53 N 1.03460 0.58474 0.11458
 N54 N 1.06186 0.62081 0.12456
 N55 N 0.95735 0.51435 0.19094
 N56 N 0.92767 0.50068 0.25620
 C57 C 0.90571 0.51510 0.21867
 C58 C 1.08337 0.62053 0.20815
 N59 N 1.05520 0.48078 0.11470
 N60 N 1.08771 0.47998 0.12761
 N61 N 0.97077 0.45051 0.19542
 N62 N 0.94744 0.42875 0.27087
 N63 N 0.97434 0.42974 0.12243
 N64 N 0.95315 0.39332 0.14558
 N65 N 1.05171 0.50079 0.19030
 N66 N 1.08176 0.51378 0.25692
 Mn67 Mn 1.00450 0.50748 0.19268
 C68 C 1.10456 0.50116 0.21628
 C69 C 0.93666 0.39302 0.23891
 N70 N 1.03147 0.58335 -0.11549
 N71 N 1.05614 0.61948 -0.13655
 N72 N 0.95212 0.51131 -0.17712
 N73 N 0.92071 0.49521 -0.23758
 N74 N 0.95029 0.53412 -0.10796
 N75 N 0.91756 0.53451 -0.12109
 N76 N 1.03293 0.56147 -0.18892
 N77 N 1.05866 0.58202 -0.26146
 Mn78 Mn 0.99267 0.56003 0.00274
 C79 C 1.07278 0.61826 -0.22854
 C80 C 0.89955 0.51027 -0.20378
 N81 N 0.97000 0.42806 -0.10538
 N82 N 0.94543 0.39141 -0.11900
 N83 N 1.04396 0.49770 -0.18812
 N84 N 1.06801 0.50576 -0.26734
 N85 N 1.05011 0.47859 -0.11405
 N86 N 1.07868 0.47318 -0.14065
 N87 N 0.96390 0.44792 -0.17712
 N88 N 0.93484 0.42545 -0.24113
 Mn89 Mn 1.01257 0.45407 0.00441
 Mn90 Mn 0.99812 0.50458 -0.18371
 Cl91 Cl 1.00204 0.50651 0.00433
 C92 C 0.92362 0.39043 -0.20343
 C93 C 1.08960 0.49064 -0.23555
 N94 N 0.46506 0.42349 0.11671
 N95 N 0.45774 0.38883 0.13709
 N96 N 0.44557 0.48415 0.19426
 N97 N 0.42706 0.49465 0.25913
 N98 N 0.42110 0.45934 0.12490
 N99 N 0.38549 0.45235 0.14016
 N100 N 0.48965 0.44772 0.18691
 N101 N 0.50015 0.43026 0.25651
 C102 C 0.47998 0.39360 0.22416
 C103 C 0.38964 0.47460 0.22388
 N104 N 0.53739 0.57985 0.11000
 N105 N 0.54451 0.61463 0.12866
 N106 N 0.56006 0.52018 0.17565
 N107 N 0.58148 0.51167 0.23752
 N108 N 0.58102 0.54301 0.09905
 N109 N 0.61756 0.55110 0.10802
 N110 N 0.51659 0.55694 0.18639
 N111 N 0.50934 0.57555 0.25928
 Mn112 Mn 0.50294 0.50226 0.18715
 C113 C 0.52711 0.61167 0.22278
 C114 C 0.61724 0.53104 0.19450
 N115 N 0.41370 0.45644 -0.09879
 N116 N 0.37630 0.44418 -0.10974
 N117 N 0.47750 0.44388 -0.18985
 N118 N 0.48512 0.42552 -0.26263
 N119 N 0.45840 0.42120 -0.11128
 N120 N 0.45265 0.38688 -0.12823
 N121 N 0.43340 0.47976 -0.17551
 N122 N 0.40980 0.48377 -0.24178
 Mn123 Mn 0.43941 0.43975 0.00807
 C124 C 0.37434 0.46159 -0.19878
 C125 C 0.46912 0.38979 -0.22365
 N126 N 0.57286 0.54064 -0.13203
 N127 N 0.60812 0.54826 -0.15701
 N128 N 0.50368 0.55275 -0.18591
 N129 N 0.49004 0.56951 -0.24778
 N130 N 0.52965 0.57713 -0.11820
 N131 N 0.53453 0.61124 -0.13260
 N132 N 0.54709 0.51674 -0.20101
 N133 N 0.56384 0.50717 -0.27386
 Mn134 Mn 0.55580 0.56061 -0.01047
 Mn135 Mn 0.49039 0.49840 -0.18921
 Cl136 Cl 0.49733 0.50031 -0.00108
 C137 C 0.60175 0.52701 -0.24550
 C138 C 0.50926 0.60583 -0.21275
 N139 N 0.42861 -0.03026 0.13125
 N140 N 0.39242 -0.05648 0.15331
 N141 N 0.49978 0.04757 0.19712
 N142 N 0.51330 0.07598 0.26572
 N143 N 0.47581 0.04963 0.12890
 N144 N 0.47275 0.07969 0.14849
 N145 N 0.45304 -0.03231 0.19806
 N146 N 0.43431 -0.06013 0.26644
 C147 C 0.39655 -0.07498 0.23755
 C148 C 0.49667 0.09626 0.23359
 N149 N 0.58820 0.03804 0.10078
 N150 N 0.62528 0.06445 0.11105
 N151 N 0.52135 -0.03835 0.18014
 N152 N 0.51178 -0.06605 0.24851
 N153 N 0.54060 -0.04132 0.10071
 N154 N 0.54457 -0.07127 0.11263
 N155 N 0.56794 0.04083 0.17789
 N156 N 0.59045 0.06924 0.24194
 Mn157 Mn 0.51063 0.00449 0.18940
 C158 C 0.62598 0.08364 0.19925
 C159 C 0.52633 -0.08626 0.20499
 N160 N 0.46970 0.04957 -0.09854
 N161 N 0.46568 0.07954 -0.11014
 N162 N 0.44325 -0.03171 -0.17660
 N163 N 0.42162 -0.06106 -0.23843
 N164 N 0.42278 -0.03001 -0.09844
 N165 N 0.38634 -0.05810 -0.10577
 N166 N 0.48995 0.04744 -0.17659
 N167 N 0.50003 0.07557 -0.24378
 Mn168 Mn 0.44874 0.00971 0.01582
 C169 C 0.48497 0.09540 -0.20078
 C170 C 0.38637 -0.07719 -0.19328
 N171 N 0.53395 -0.04196 -0.12867
 N172 N 0.53571 -0.07267 -0.15129
 N173 N 0.55797 0.04095 -0.19443
 N174 N 0.57711 0.06899 -0.26177
 N175 N 0.58205 0.03807 -0.12829
 N176 N 0.61837 0.06406 -0.14918
 N177 N 0.51063 -0.03858 -0.19619
 N178 N 0.49625 -0.06652 -0.26601
 Mn179 Mn 0.56162 -0.00193 -0.01390
 Mn180 Mn 0.50043 0.00462 -0.18685
 Cl181 Cl 0.50537 0.00421 0.00124
 C182 C 0.51168 -0.08805 -0.23763
 C183 C 0.61474 0.08335 -0.23201
 C184 C 1.15533 0.48272 0.22984
 C185 C 1.18541 0.48082 0.28273
 C186 C 1.20216 0.50165 0.37627
 C187 C 1.19358 0.53038 0.40304
 C188 C 1.16285 0.53239 0.34994
 C189 C 1.14150 0.50625 0.26623
 C190 C 1.15539 0.56100 0.38261
 N191 N 1.17730 0.58577 0.46057
 N192 N 1.20648 0.58429 0.50807
 C193 C 1.21559 0.55774 0.48118
 H194 H 1.14104 0.46352 0.16370
 H195 H 1.19209 0.45948 0.25754
 H196 H 1.13361 0.56532 0.34521
 H197 H 1.24000 0.55811 0.52097
 C198 C 0.49304 0.63397 0.33781
 C199 C 0.48942 0.66157 0.39228
 C200 C 0.51893 0.69989 0.39090
 C201 C 0.55352 0.71006 0.33437
 C202 C 0.55736 0.68172 0.27922
 C203 C 0.52629 0.64329 0.27926
 C204 C 0.59308 0.69279 0.23041
 N205 N 0.62236 0.72943 0.23497
 N206 N 0.61880 0.75581 0.28649
 C207 C 0.58570 0.74736 0.33709
 H208 H 0.46901 0.60495 0.33982
 H209 H 0.46243 0.65295 0.43239
 H210 H 0.59882 0.67284 0.19121
 H211 H 0.58537 0.76981 0.38108
 C212 C 0.33896 -0.10074 0.35269
 C213 C 0.30871 -0.13000 0.40924
 C214 C 0.30178 -0.16732 0.40539
 C215 C 0.32736 -0.17451 0.34531
 C216 C 0.35846 -0.14449 0.28894
 C217 C 0.36397 -0.10745 0.29218
 C218 C 0.38308 -0.15265 0.23039
 N219 N 0.37756 -0.18821 0.23086
 N220 N 0.34927 -0.21606 0.28621
 C221 C 0.32423 -0.21041 0.34383
 H222 H 0.34300 -0.07248 0.35666
 H223 H 0.28945 -0.12367 0.45261
 H224 H 0.40668 -0.13114 0.18433
 H225 H 0.30263 -0.23385 0.38941
 C226 C 0.87543 0.54764 0.30673
 C227 C 0.85295 0.55062 0.38729
 C228 C 0.83021 0.52144 0.45978
 C229 C 0.83812 0.49029 0.46352
 C230 C 0.84852 0.48083 0.33326
 C231 C 0.87325 0.51341 0.27787
 C232 C 0.84048 0.43458 0.29732
 N233 N 0.82525 0.39718 0.37544
 N234 N 0.81394 0.38937 0.49343
 C235 C 0.81350 0.41881 0.58058
 H236 H 0.89471 0.57318 0.26339
 H237 H 0.85215 0.57670 0.39037
 H238 H 0.84854 0.43185 0.21772
 H239 H 0.80130 0.40948 0.65921
 C240 C 0.51706 0.36516 0.29497
 C241 C 0.51999 0.33660 0.34688
 C242 C 0.48689 0.30497 0.38714
 C243 C 0.44993 0.30125 0.37121
 C244 C 0.44693 0.33030 0.31822
 C245 C 0.48095 0.36243 0.27987
 C246 C 0.40999 0.32661 0.30853
 N247 N 0.37830 0.29531 0.34663
 N248 N 0.38104 0.26756 0.39396
 C249 C 0.41572 0.26943 0.40742
 H250 H 0.54312 0.38960 0.26596
 H251 H 0.54841 0.33974 0.35884
 H252 H 0.40594 0.34836 0.27222
 H253 H 0.41624 0.24603 0.44612
 C254 C 0.68797 0.10930 0.29817
 C255 C 0.71812 0.13775 0.35869
 C256 C 0.72178 0.17353 0.36842
 C257 C 0.69573 0.18145 0.31221
 C258 C 0.66528 0.15261 0.25018
 C259 C 0.66093 0.11608 0.24585
 C260 C 0.64020 0.16139 0.19378
 N261 N 0.64529 0.19674 0.20051
 N262 N 0.67357 0.22372 0.26020
 C263 C 0.69885 0.21728 0.31660
 H264 H 0.68479 0.08137 0.29562
 H265 H 0.73821 0.13159 0.40032
 H266 H 0.61681 0.14058 0.14393
 H267 H 0.72123 0.24025 0.36368
 C268 C 0.46278 0.12268 -0.33828
 C269 C 0.46584 0.15305 -0.39593
 C270 C 0.49422 0.19061 -0.37007
 C271 C 0.51982 0.19729 -0.28201
 C272 C 0.51607 0.16613 -0.22232
 C273 C 0.48744 0.12879 -0.25162
 C274 C 0.54200 0.17327 -0.13690
 N275 N 0.57043 0.20933 -0.11446
 N276 N 0.57479 0.23856 -0.17211
 C277 C 0.55076 0.23381 -0.25533
 H278 H 0.44095 0.09407 -0.36166
 H279 H 0.44513 0.14706 -0.46008
 H280 H 0.54012 0.15052 -0.08841
 H281 H 0.55665 0.25856 -0.30086
 C282 C 0.66086 0.55540 -0.35301
 C283 C 0.68943 0.55321 -0.40917
 C284 C 0.68986 0.51914 -0.41351
 C285 C 0.65928 0.48603 -0.36574
 C286 C 0.63038 0.48836 -0.30850
 C287 C 0.63172 0.52352 -0.30130
 C288 C 0.60154 0.45543 -0.25804
 N289 N 0.60103 0.42219 -0.26852
 N290 N 0.62735 0.41963 -0.32576
 C291 C 0.65633 0.45029 -0.37491
 H292 H 0.66171 0.58228 -0.34891
 H293 H 0.71281 0.57895 -0.44308
 H294 H 0.57948 0.45572 -0.21007
 H295 H 0.67665 0.44642 -0.42119
 C296 C 0.90222 0.33258 -0.30840
 C297 C 0.87429 0.30184 -0.36717
 C298 C 0.83534 0.29290 -0.37018
 C299 C 0.82451 0.31564 -0.31080
 C300 C 0.85317 0.34690 -0.25089
 C301 C 0.89220 0.35556 -0.25179
 C302 C 0.84190 0.36891 -0.19247
 N303 N 0.80449 0.36069 -0.19655
 N304 N 0.77783 0.33240 -0.25632
 C305 C 0.78660 0.30997 -0.31443
 H306 H 0.93216 0.33920 -0.30984
 H307 H 0.88320 0.28481 -0.41087
 H308 H 0.86245 0.39249 -0.14346
 H309 H 0.76394 0.28843 -0.36390
 C310 C 0.52628 -0.13976 -0.25948
 C311 C 0.52347 -0.17148 -0.30902
 C312 C 0.49861 -0.18872 -0.39681
 C313 C 0.47328 -0.17534 -0.42779
 C314 C 0.47690 -0.14197 -0.38018
 C315 C 0.50443 -0.12348 -0.29460
 C316 C 0.45199 -0.12943 -0.41996
 N317 N 0.42467 -0.14974 -0.49534
 N318 N 0.41992 -0.18204 -0.53396
 C319 C 0.44284 -0.19576 -0.50158
 H320 H 0.54690 -0.12719 -0.19416
 H321 H 0.54272 -0.18130 -0.28165
 H322 H 0.45248 -0.10452 -0.39222
 H323 H 0.43695 -0.22272 -0.53339
 C324 C 0.31145 0.45915 -0.19008
 C325 C 0.27704 0.45429 -0.23545
 C326 C 0.26478 0.43925 -0.33846
 C327 C 0.27951 0.41904 -0.38448
 C328 C 0.32574 0.43531 -0.34800
 C329 C 0.33732 0.45305 -0.24849
 C330 C 0.35632 0.42949 -0.42087
 N331 N 0.33976 0.40678 -0.52689
 N332 N 0.28749 0.38728 -0.57166
 C333 C 0.25873 0.39369 -0.49853
 H334 H 0.32001 0.47183 -0.11171
 H335 H 0.26309 0.46735 -0.19464
 H336 H 0.38608 0.43954 -0.39736
 H337 H 0.22950 0.38530 -0.52453
 C338 C 1.13284 0.64777 -0.33433
 C339 C 1.16337 0.67795 -0.38724
 C340 C 1.16594 0.71334 -0.39385
 C341 C 1.13643 0.71802 -0.34793
 C342 C 1.10508 0.68719 -0.29426
 C343 C 1.10378 0.65184 -0.28541
 C344 C 1.07545 0.69268 -0.25503
 N345 N 1.07775 0.72676 -0.26622
 N346 N 1.10738 0.75567 -0.31496
 C347 C 1.13666 0.75243 -0.35655
 H348 H 1.13235 0.62105 -0.33000
 H349 H 1.18556 0.67378 -0.42228
 H350 H 1.04999 0.67022 -0.21772
 H351 H 1.15953 0.77664 -0.39720
 C352 C 0.83825 0.51145 -0.19294
 C353 C 0.80405 0.50800 -0.23498
 C354 C 0.78885 0.49075 -0.33372
 C355 C 0.80085 0.46822 -0.37979
 C356 C 0.84713 0.48206 -0.34914
 C357 C 0.86139 0.50118 -0.25061
 C358 C 0.87464 0.47329 -0.42757
 N359 N 0.85498 0.44988 -0.53065
 N360 N 0.80259 0.43308 -0.56798
 C361 C 0.77687 0.44235 -0.49089
 H362 H 0.84861 0.52578 -0.11713
 H363 H 0.79230 0.52342 -0.19553
 H364 H 0.90511 0.48381 -0.41516
 H365 H 0.74769 0.43546 -0.51283
 C366 C 0.50356 0.36889 -0.34119
 C367 C 0.50883 0.34166 -0.39138
 C368 C 0.48181 0.30282 -0.38101
 C369 C 0.44807 0.29148 -0.31924
 C370 C 0.44247 0.31946 -0.26872
 C371 C 0.47121 0.35859 -0.27773
 C372 C 0.40721 0.30715 -0.21572
 N373 N 0.38021 0.26970 -0.21130
 N374 N 0.38555 0.24360 -0.25778
 C375 C 0.41821 0.25315 -0.31226
 H376 H 0.52551 0.39846 -0.35091
 H377 H 0.53500 0.35113 -0.43670
 H378 H 0.39986 0.32659 -0.18060
 H379 H 0.41987 0.23064 -0.35168
 C380 C 0.67856 0.11000 -0.31756
 C381 C 0.70999 0.13823 -0.37290
 C382 C 0.71175 0.17239 -0.39879
 C383 C 0.68139 0.17839 -0.36709
 C384 C 0.64944 0.14975 -0.31023
 C385 C 0.64790 0.11504 -0.28673
 C386 C 0.62086 0.15757 -0.27547
 N387 N 0.62399 0.19148 -0.29789
 N388 N 0.65356 0.21798 -0.35309
 C389 C 0.68217 0.21249 -0.38912
 H390 H 0.67798 0.08377 -0.29966
 H391 H 0.73337 0.13356 -0.39484
 H392 H 0.59651 0.13754 -0.22884
 H393 H 0.70528 0.23486 -0.43430
 C394 C 1.15659 0.50795 -0.26026
 C395 C 1.18498 0.50432 -0.31066
 C396 C 1.17621 0.48183 -0.40244
 C397 C 1.13740 0.46182 -0.44248
 C398 C 1.10873 0.46677 -0.39294
 C399 C 1.11871 0.48953 -0.30041
 C400 C 1.07048 0.44699 -0.43418
 N401 N 1.06160 0.42293 -0.51749
 N402 N 1.08817 0.41687 -0.56091
 C403 C 1.12555 0.43498 -0.52517
 H404 H 1.16412 0.52487 -0.18837
 H405 H 1.21429 0.51928 -0.27772
 H406 H 1.04746 0.44995 -0.40028
 H407 H 1.14546 0.42782 -0.56070
 C408 C 0.54033 0.66887 -0.29441
 C409 C 0.53910 0.69714 -0.35278
 C410 C 0.50349 0.69401 -0.37980
 C411 C 0.46841 0.66241 -0.34492
 C412 C 0.46960 0.63331 -0.28673
 C413 C 0.50596 0.63649 -0.26328
 C414 C 0.43425 0.60228 -0.25284
 N415 N 0.40018 0.60046 -0.27785
 N416 N 0.39907 0.62758 -0.33396
 C417 C 0.43199 0.65849 -0.36828
 H418 H 0.56831 0.67163 -0.27690
 H419 H 0.56608 0.72140 -0.37867
 H420 H 0.43331 0.57970 -0.20567
 H421 H 0.42940 0.67963 -0.41370
 C422 C 0.31956 -0.10860 -0.26469
 C423 C 0.28977 -0.13687 -0.32621
 C424 C 0.29252 -0.16771 -0.36248
 C425 C 0.32403 -0.17204 -0.32910
 C426 C 0.35403 -0.14359 -0.26554
 C427 C 0.35238 -0.11095 -0.23757
 C428 C 0.38444 -0.14910 -0.23046
 N429 N 0.38459 -0.18102 -0.25861
 N430 N 0.35659 -0.20757 -0.31989
 C431 C 0.32639 -0.20415 -0.35638
 H432 H 0.31795 -0.08383 -0.24294
 H433 H 0.26517 -0.13395 -0.34936
 H434 H 0.40769 -0.12873 -0.17946
 H435 H 0.30424 -0.22680 -0.40483
 C436 C 0.54695 -0.11545 0.34112
 C437 C 0.54252 -0.14670 0.39707
 C438 C 0.51301 -0.18345 0.36930
 C439 C 0.48863 -0.18890 0.27970
 C440 C 0.49389 -0.15703 0.22128
 C441 C 0.52283 -0.12025 0.25397
 C442 C 0.46924 -0.16297 0.13345
 N443 N 0.44096 -0.19868 0.10688
 N444 N 0.43548 -0.22866 0.16282
 C445 C 0.45811 -0.22502 0.24851
 H446 H 0.56909 -0.08725 0.36670
 H447 H 0.56173 -0.14214 0.46415
 H448 H 0.47212 -0.13960 0.08595
 H449 H 0.45165 -0.25035 0.29187
 C450 C 0.35835 0.50467 0.31816
 C451 C 0.33349 0.50528 0.39521
 C452 C 0.30957 0.47431 0.46102
 C453 C 0.31939 0.44445 0.46451
 C454 C 0.33311 0.43744 0.33604
 C455 C 0.35706 0.47135 0.28421
 C456 C 0.32901 0.39267 0.29947
 N457 N 0.31485 0.35496 0.37563
 N458 N 0.30143 0.34547 0.49166
 C459 C 0.29698 0.37279 0.57816
 H460 H 0.37796 0.53112 0.27899
 H461 H 0.33186 0.53087 0.40076
 H462 H 0.33812 0.39064 0.22085
 H463 H 0.28384 0.36223 0.65535
 C464 C 1.11173 0.68223 0.29788
 C465 C 1.14120 0.71141 0.35770
 C466 C 1.17682 0.71309 0.37411
 C467 C 1.18353 0.68575 0.32591
 C468 C 1.15376 0.65647 0.26356
 C469 C 1.11730 0.65417 0.25305
 C470 C 1.16157 0.63049 0.21308
 N471 N 1.19668 0.63328 0.22723
 N472 N 1.22423 0.66003 0.28909
 C473 C 1.21877 0.68616 0.33954
 H474 H 1.08386 0.68062 0.29034
 H475 H 1.13594 0.73240 0.39358
 H476 H 1.14022 0.60816 0.16211
 H477 H 1.24194 0.70688 0.38983
 C478 C 0.46990 0.13731 0.27694
 C479 C 0.47009 0.16732 0.32919
 C480 C 0.50120 0.19168 0.39557
 C481 C 0.53384 0.18686 0.40466
 C482 C 0.53386 0.15620 0.35130
 C483 C 0.50088 0.13047 0.28850
 C484 C 0.56752 0.15340 0.36089
 N485 N 0.59830 0.17901 0.42021
 N486 N 0.59808 0.20755 0.46985
 C487 C 0.56702 0.21243 0.46385
 H488 H 0.44456 0.11860 0.22899
 H489 H 0.44505 0.17082 0.32054
 H490 H 0.57058 0.13205 0.32007
 H491 H 0.56879 0.23655 0.50421
 C492 C 0.68403 0.56436 0.27334
 C493 C 0.71352 0.56416 0.33449
 C494 C 0.71120 0.52985 0.36255
 C495 C 0.68021 0.49539 0.32091
 C496 C 0.65027 0.49557 0.25930
 C497 C 0.65143 0.53026 0.23919
 C498 C 0.62003 0.46076 0.21946
 N499 N 0.61989 0.42815 0.24079
 N500 N 0.64776 0.42794 0.29959
 C501 C 0.67783 0.46037 0.34054
 H502 H 0.68549 0.59116 0.25831
 H503 H 0.73709 0.59075 0.36536
 H504 H 0.59682 0.45919 0.17025
 H505 H 0.69984 0.45853 0.38685
 C506 C 0.88057 0.36087 0.35658
 C507 C 0.85054 0.32923 0.40531
 C508 C 0.84787 0.29384 0.39959
 C509 C 0.87670 0.29059 0.34419
 C510 C 0.90723 0.32290 0.29290
 C511 C 0.90830 0.35824 0.29660
 C512 C 0.93635 0.31876 0.24397
 N513 N 0.93429 0.28461 0.24397
 N514 N 0.90542 0.25437 0.29059
 C515 C 0.87673 0.25623 0.34116
 H516 H 0.88188 0.38778 0.36406
 H517 H 0.82902 0.33233 0.44820
 H518 H 0.96141 0.34228 0.20847
 H519 H 0.85456 0.23095 0.37975
   
