data_POSCAR
  _audit_creation_date              2014-09-24
  _audit_creation_method            'ToBaCCo'
  _symmetry_space_group_name_H-M    'P1'
  _symmetry_Int_Tables_number       1
  _symmetry_cell_setting            triclinic
  loop_
  _symmetry_equiv_pos_as_xyz
 x,y,z
_cell_length_a 33.9626
_cell_length_b 34.0069
_cell_length_c 33.9025
_cell_angle_alpha 89.990400
_cell_angle_beta 89.988700
_cell_angle_gamma 89.913600
loop_
  _atom_site_label
  _atom_site_type_symbol
  _atom_site_fract_x
  _atom_site_fract_y
  _atom_site_fract_z
C1 C 0.16582 0.16713 0.21344
 N2 N 0.19856 0.15074 0.19712
 C3 C 0.21511 0.16607 0.16397
 N4 N 0.19838 0.19832 0.14714
 C5 C 0.16571 0.21515 0.16297
 N6 N 0.14966 0.19937 0.19606
 C7 C -0.16256 0.83589 0.21635
 N8 N -0.19563 0.85195 0.20038
 C9 C -0.21305 0.83573 0.16814
 N10 N -0.19687 0.80291 0.15188
 C11 C -0.16387 0.78641 0.16737
 N12 N -0.14693 0.80309 0.19955
 C13 C -0.16794 0.16337 -0.21527
 N14 N -0.20019 0.14657 -0.19851
 C15 C -0.21720 0.16235 -0.16580
 N16 N -0.20143 0.19548 -0.14985
 C17 C -0.16925 0.21273 -0.16613
 N18 N -0.15273 0.19648 -0.19878
 C19 C 0.16753 0.83543 -0.21390
 N20 N 0.15070 0.80274 -0.19828
 C21 C 0.16605 0.78533 -0.16566
 N22 N 0.19863 0.80104 -0.14860
 C23 C 0.21595 0.83377 -0.16376
 N24 N 0.20009 0.85073 -0.19646
 C25 C 0.16668 1.16569 0.78671
 N26 N 0.15032 1.19838 0.80307
 C27 C 0.16573 1.21489 0.83618
 N28 N 0.19805 1.19817 0.85295
 C29 C 0.21486 1.16554 0.83707
 N30 N 0.19899 1.14952 0.80401
 C31 C 0.83596 0.83678 0.78329
 N32 N 0.85191 0.80365 0.79919
 C33 C 0.83564 0.78631 0.83147
 N34 N 0.80292 0.80263 0.84783
 C35 C 0.78653 0.83569 0.83241
 N36 N 0.80325 0.85254 0.80020
 C37 C 0.16342 0.83295 1.21541
 N38 N 0.14668 0.80069 1.19870
 C39 C 0.16268 0.78371 1.16613
 N40 N 0.19583 0.79937 1.15016
 C41 C 0.21301 0.83157 1.16640
 N42 N 0.19661 0.84814 1.19897
 C43 C 0.83620 1.16712 1.21489
 N44 N 0.85136 1.19978 1.19743
 C45 C 0.83434 1.21560 1.16473
 N46 N 0.80166 1.19821 1.14953
 C47 C 0.78605 1.16560 1.16652
 N48 N 0.80350 1.15028 1.19913
 O49 O 0.44503 0.92530 0.93438
 O50 O 0.40179 0.96305 0.97026
 C51 C 0.40979 0.93582 0.94478
 O52 O 0.55600 0.92930 1.07506
 O53 O 0.59897 0.96501 1.03693
 C54 C 0.59117 0.93971 1.06438
 O55 O 0.44527 0.92543 1.07164
 O56 O 0.40189 0.96314 1.03586
 C57 C 0.40999 0.93590 1.06129
 O58 O 0.55569 0.92906 0.93066
 O59 O 0.59883 0.96486 0.96849
 C60 C 0.59090 0.93951 0.94115
 Zr61 Zr 0.50033 0.94752 0.95306
 O62 O 0.50496 0.88543 0.95364
 O63 O 0.49585 0.94736 0.89078
 Zr64 Zr 0.50052 0.94773 1.05286
 O65 O 0.50517 0.88564 1.05282
 O66 O 0.49620 0.94806 1.11516
 O67 O 0.46535 0.93987 1.00304
 O68 O 0.53464 0.94054 1.00290
 O69 O 0.55520 1.06572 0.93042
 O70 O 0.59860 1.03021 0.96834
 C71 C 0.59049 1.05547 0.94094
 O72 O 0.44475 1.06939 1.07134
 O73 O 0.40164 1.03136 1.03574
 C74 C 0.40954 1.05875 1.06104
 O75 O 0.55545 1.06618 1.07462
 O76 O 0.59869 1.03044 1.03673
 C77 C 0.59069 1.05592 1.06395
 O78 O 0.44453 1.06909 0.93425
 O79 O 0.40152 1.03123 0.97019
 C80 C 0.40936 1.05849 0.94472
 Zr81 Zr 0.49997 1.04704 0.95283
 O82 O 0.50418 1.10915 0.95286
 O83 O 0.49543 1.04670 0.89055
 Zr84 Zr 0.50015 1.04722 1.05266
 O85 O 0.50427 1.10933 1.05256
 O86 O 0.49587 1.04687 1.11497
 Zr87 Zr 0.44174 0.99727 1.00296
 Zr88 Zr 0.55875 0.99752 1.00272
 O89 O 0.53419 1.05438 1.00265
 O90 O 0.46495 1.05475 1.00280
 O91 O 0.53522 0.99734 0.94516
 O92 O 0.46615 0.99741 1.06001
 O93 O 0.46598 0.99720 0.94582
 O94 O 0.53546 0.99757 1.06039
 H95 H 0.55260 0.91755 1.00291
 H96 H 0.44832 0.99742 1.08314
 H97 H 0.55193 1.07748 1.00253
 H98 H 0.44810 0.99715 0.92273
 H99 H 0.51819 0.96415 1.12537
 H100 H 0.51834 1.03140 1.12522
 H101 H 0.48239 1.11953 1.03623
 H102 H 0.48211 1.11941 0.96889
 H103 H 0.51757 1.03083 0.88023
 H104 H 0.51757 0.96370 0.88039
 H105 H 0.48265 0.87517 0.96930
 H106 H 0.48322 0.87530 1.03673
 O107 O -0.07138 0.55521 0.06939
 O108 O -0.03574 0.59825 0.03129
 C109 C -0.06100 0.59036 0.05877
 O110 O 0.06886 0.44423 0.06550
 O111 O 0.03086 0.40121 0.02977
 C112 C 0.05824 0.40908 0.05512
 O113 O 0.06536 0.55480 0.06918
 O114 O 0.02962 0.59807 0.03132
 C115 C 0.05501 0.59001 0.05865
 O116 O -0.07507 0.44468 0.06594
 O117 O -0.03741 0.40147 0.02996
 C118 C -0.06455 0.40948 0.05557
 Zr119 Zr -0.05292 0.49988 0.04704
 O120 O -0.05286 0.49552 0.10933
 O121 O -0.11510 0.50443 0.04668
 Zr122 Zr 0.04665 0.49956 0.04696
 O123 O 0.04636 0.49509 0.10925
 O124 O 0.10884 0.50380 0.04692
 O125 O -0.00307 0.53478 0.05469
 O126 O -0.00317 0.46558 0.05417
 O127 O -0.07536 0.44472 -0.07142
 O128 O -0.03750 0.40146 -0.03566
 C129 C -0.06484 0.40950 -0.06104
 O130 O 0.06585 0.55475 -0.07479
 O131 O 0.03047 0.59795 -0.03656
 C132 C 0.05585 0.58995 -0.06392
 O133 O 0.06884 0.44425 -0.07144
 O134 O 0.03082 0.40123 -0.03571
 C135 C 0.05822 0.40910 -0.06106
 O136 O -0.07146 0.55533 -0.07513
 O137 O -0.03561 0.59831 -0.03719
 C138 C -0.06098 0.59047 -0.06457
 Zr139 Zr -0.05301 0.49995 -0.05282
 O140 O -0.05291 0.49553 -0.11510
 O141 O -0.11518 0.50459 -0.05256
 Zr142 Zr 0.04658 0.49959 -0.05291
 O143 O 0.04569 0.49527 -0.11521
 O144 O 0.10877 0.50362 -0.05332
 Zr145 Zr -0.00308 0.55818 -0.00293
 Zr146 Zr -0.00326 0.44132 -0.00294
 O147 O -0.00328 0.46561 -0.06004
 O148 O -0.00313 0.53488 -0.06057
 O149 O -0.06073 0.46489 -0.00288
 O150 O 0.05385 0.53361 -0.00294
 O151 O -0.06011 0.53407 -0.00288
 O152 O 0.05428 0.46454 -0.00298
 H153 H -0.00314 0.44776 0.07729
 H154 H 0.07706 0.55123 -0.00282
 H155 H -0.00331 0.44774 -0.08312
 H156 H -0.08312 0.55202 -0.00287
 H157 H 0.11912 0.48188 0.03074
 H158 H 0.11905 0.48218 -0.03650
 H159 H 0.03087 0.51817 -0.12541
 H160 H -0.03655 0.51727 -0.12540
 H161 H -0.12548 0.48266 -0.03642
 H162 H -0.12540 0.48216 0.03105
 H163 H -0.03654 0.51728 0.11962
 H164 H 0.03069 0.51735 0.11958
 O165 O 1.07472 -0.06525 0.55531
 O166 O 1.03619 -0.03023 0.59856
 C167 C 1.06378 -0.05531 0.59059
 O168 O 1.07084 0.07533 0.44458
 O169 O 1.03529 0.03743 0.40129
 C170 C 1.06060 0.06472 0.40928
 O171 O 1.07412 0.07178 0.55555
 O172 O 1.03649 0.03577 0.59876
 C173 C 1.06360 0.06131 0.59083
 O174 O 1.07117 -0.06865 0.44448
 O175 O 1.03542 -0.03080 0.40118
 C176 C 1.06075 -0.05816 0.40918
 Zr177 Zr 1.05274 -0.04625 0.49991
 O178 O 1.11492 -0.04500 0.49548
 O179 O 1.05372 -0.10834 0.50420
 Zr180 Zr 1.05214 0.05311 0.50001
 O181 O 1.11433 0.05310 0.49573
 O182 O 1.05164 0.11522 0.50439
 O183 O 1.06006 0.00341 0.53522
 O184 O 1.05962 0.00346 0.46568
 O185 O 0.93452 -0.06895 0.44441
 O186 O 0.97009 -0.03097 0.40118
 C187 C 0.94483 -0.05832 0.40913
 O188 O 0.93004 0.07130 0.55523
 O189 O 0.96865 0.03641 0.59852
 C190 C 0.94089 0.06130 0.59053
 O191 O 0.93383 0.07489 0.44440
 O192 O 0.96983 0.03723 0.40116
 C193 C 0.94430 0.06441 0.40912
 O194 O 0.93100 -0.06563 0.55529
 O195 O 0.96842 -0.02963 0.59864
 C196 C 0.94141 -0.05524 0.59060
 Zr197 Zr 0.95298 -0.04672 0.49986
 O198 O 0.89080 -0.04648 0.49544
 O199 O 0.95323 -0.10883 0.50415
 Zr200 Zr 0.95243 0.05268 0.49987
 O201 O 0.89026 0.05203 0.49535
 O202 O 0.95209 0.11477 0.50428
 Zr203 Zr 1.00249 0.00313 0.55857
 Zr204 Zr 1.00263 0.00322 0.44132
 O205 O 0.94559 0.00297 0.46559
 O206 O 0.94499 0.00293 0.53509
 O207 O 1.00293 -0.05420 0.46480
 O208 O 1.00221 0.06005 0.53414
 O209 O 1.00285 -0.05372 0.53402
 O210 O 1.00230 0.06063 0.46481
 H211 H 1.08268 0.00349 0.44776
 H212 H 1.00212 0.08314 0.55195
 H213 H 0.92255 0.00291 0.44767
 H214 H 1.00288 -0.07690 0.55173
 H215 H 1.03567 0.12541 0.48223
 H216 H 0.96840 0.12512 0.48246
 H217 H 0.88006 0.03619 0.51757
 H218 H 0.88045 -0.03107 0.51791
 H219 H 0.96946 -0.11904 0.48219
 H220 H 1.03654 -0.11874 0.48311
 H221 H 1.12504 -0.03023 0.51846
 H222 H 1.12463 0.03712 0.51783
 C223 C 1.11336 0.11721 0.31496
 C224 C 1.14742 0.10048 0.29891
 C225 C 1.16497 0.11705 0.26552
 C226 C 1.14863 0.15076 0.24751
 C227 C 1.11439 0.16745 0.26426
 C228 C 1.09697 0.15075 0.29764
 C229 C 1.09479 0.09941 0.34868
 C230 C 1.07918 0.08396 0.37658
 H231 H 1.16031 0.07443 0.31207
 H232 H 1.19121 0.10319 0.25382
 H233 H 1.10076 0.19333 0.25156
 H234 H 1.07054 0.16390 0.30980
 C235 C 0.89188 -0.11175 0.31551
 C236 C 0.85763 -0.09530 0.29961
 C237 C 0.83949 -0.11262 0.26696
 C238 C 0.85541 -0.14683 0.24954
 C239 C 0.88993 -0.16317 0.26604
 C240 C 0.90795 -0.14572 0.29871
 C241 C 0.91072 -0.09347 0.34878
 C242 C 0.92639 -0.07771 0.37647
 H243 H 0.84497 -0.06895 0.31240
 H244 H 0.81306 -0.09899 0.25540
 H245 H 0.90327 -0.18940 0.25376
 H246 H 0.93451 -0.15866 0.31078
 C247 C 0.88582 0.11229 0.68442
 C248 C 0.85236 0.09500 0.70102
 C249 C 0.83439 0.11192 0.73403
 C250 C 0.84971 0.14654 0.75110
 C251 C 0.88338 0.16373 0.73383
 C252 C 0.90122 0.14669 0.70083
 C253 C 0.90480 0.09442 0.65095
 C254 C 0.92107 0.07937 0.62318
 H255 H 0.84025 0.06829 0.68855
 H256 H 0.80862 0.09764 0.74618
 H257 H 0.89623 0.19030 0.74581
 H258 H 0.92717 0.16029 0.68823
 C259 C 1.11640 -0.10887 0.68439
 C260 C 1.15016 -0.09302 0.70185
 C261 C 1.16699 -0.11121 0.73479
 C262 C 1.15018 -0.14555 0.75076
 C263 C 1.11632 -0.16132 0.73281
 C264 C 1.09959 -0.14308 0.69989
 C265 C 1.09855 -0.08981 0.65099
 C266 C 1.08300 -0.07399 0.62324
 H267 H 1.16337 -0.06650 0.69011
 H268 H 1.19302 -0.09825 0.74783
 H269 H 1.10259 -0.18767 0.74425
 H270 H 1.07341 -0.15556 0.68663
 C271 C 0.31556 1.11300 1.11261
 C272 C 0.29918 1.09733 1.14703
 C273 C 0.26612 1.11492 1.16418
 C274 C 0.24878 1.14861 1.14709
 C275 C 0.26582 1.16419 1.11247
 C276 C 0.29887 1.14648 1.09544
 C277 C 0.34908 1.09432 1.09456
 C278 C 0.37688 1.07832 1.07932
 H279 H 0.31186 1.07135 1.16053
 H280 H 0.25417 1.10188 1.19075
 H281 H 0.25362 1.19000 1.09825
 H282 H 0.31130 1.15881 1.06873
 C283 C 0.31605 0.88352 0.89115
 C284 C 0.29885 0.84957 0.90674
 C285 C 0.26590 0.83293 0.88854
 C286 C 0.24950 0.85010 0.85434
 C287 C 0.26737 0.88424 0.83888
 C288 C 0.30030 0.90074 0.85719
 C289 C 0.34947 0.90117 0.91028
 C290 C 0.37720 0.91659 0.92614
 H291 H 0.31080 0.83603 0.93309
 H292 H 0.25327 0.80671 0.90151
 H293 H 0.25592 0.89850 0.81271
 H294 H 0.31338 0.92709 0.84491
 C295 C 0.68560 0.88785 1.11758
 C296 C 0.70165 0.85371 1.10113
 C297 C 0.73498 0.83631 1.11792
 C298 C 0.75295 0.85287 1.15158
 C299 C 0.73622 0.88720 1.16800
 C300 C 0.70287 0.90450 1.15107
 C301 C 0.65187 0.90616 1.09954
 C302 C 0.62394 0.92148 1.08384
 H303 H 0.68853 0.84062 1.07514
 H304 H 0.74667 0.80998 1.10425
 H305 H 0.74890 0.90100 1.19382
 H306 H 0.69069 0.93100 1.16399
 C307 C 0.68374 1.10824 0.88684
 C308 C 0.69945 1.14259 0.90307
 C309 C 0.73205 1.16061 0.88563
 C310 C 0.74962 1.14448 0.85152
 C311 C 0.73329 1.10988 0.83538
 C312 C 0.70066 1.09196 0.85296
 C313 C 0.65056 1.08949 0.90533
 C314 C 0.62298 1.07389 0.92130
 H315 H 0.68657 1.15540 0.92935
 H316 H 0.74347 1.18712 0.89912
 H317 H 0.74570 1.09638 0.80924
 H318 H 0.68874 1.06532 0.84018
 C319 C 0.11216 0.31570 0.10782
 C320 C 0.14599 0.29880 0.09143
 C321 C 0.16357 0.26620 0.10942
 C322 C 0.14747 0.25005 0.14409
 C323 C 0.11349 0.26741 0.16038
 C324 C 0.09600 0.29999 0.14233
 C325 C 0.09369 0.34888 0.08906
 C326 C 0.07777 0.37650 0.07349
 H327 H 0.15871 0.31072 0.06467
 H328 H 0.18966 0.25361 0.09606
 H329 H 0.10028 0.25580 0.18701
 H330 H 0.06978 0.31284 0.15523
 C331 C -0.11814 0.31558 -0.11320
 C332 C -0.10171 0.29957 -0.14747
 C333 C -0.11847 0.26630 -0.16486
 C334 C -0.15197 0.24852 -0.14814
 C335 C -0.16843 0.26505 -0.11379
 C336 C -0.15158 0.29833 -0.09646
 C337 C -0.10010 0.34916 -0.09481
 C338 C -0.08437 0.37695 -0.07941
 H339 H -0.07576 0.31264 -0.16063
 H340 H -0.10501 0.25443 -0.19126
 H341 H -0.19417 0.25217 -0.10011
 H342 H -0.16448 0.31045 -0.06987
 C343 C 0.11029 0.68352 -0.11550
 C344 C 0.14425 0.69903 -0.09812
 C345 C 0.16256 0.73199 -0.11453
 C346 C 0.14708 0.74994 -0.14860
 C347 C 0.11301 0.73393 -0.16596
 C348 C 0.09476 0.70097 -0.14948
 C349 C 0.09102 0.65015 -0.09800
 C350 C 0.07490 0.62247 -0.08281
 H351 H 0.15646 0.68578 -0.07175
 H352 H 0.18870 0.74348 -0.10037
 H353 H 0.10027 0.74695 -0.19217
 H354 H 0.06843 0.68924 -0.16312
 C355 C -0.11208 0.68426 0.11342
 C356 C -0.09471 0.70100 0.14684
 C357 C -0.11165 0.73407 0.16457
 C358 C -0.14624 0.75091 0.14903
 C359 C -0.16357 0.73368 0.11550
 C360 C -0.14657 0.70061 0.09785
 C361 C -0.09418 0.65076 0.09465
 C362 C -0.07909 0.62299 0.07852
 H363 H -0.06796 0.68861 0.15908
 H364 H -0.09750 0.74652 0.19030
 H365 H -0.19016 0.74581 0.10274
 H366 H -0.16021 0.68791 0.07194
 C367 C 1.11634 0.11360 0.68524
 C368 C 1.14993 0.09711 0.70244
 C369 C 1.16678 0.11441 0.73582
 C370 C 1.15017 0.14860 0.75267
 C371 C 1.11641 0.16502 0.73477
 C372 C 1.09970 0.14761 0.70140
 C373 C 1.09841 0.09522 0.65151
 C374 C 1.08286 0.07976 0.62358
 H375 H 1.16301 0.07072 0.69019
 H376 H 1.19269 0.10072 0.74843
 H377 H 1.10261 0.19124 0.74656
 H378 H 1.07362 0.16058 0.68834
 C379 C 0.88827 -0.10874 0.68410
 C380 C 0.90469 -0.14306 0.69984
 C381 C 0.88739 -0.16123 0.73250
 C382 C 0.85323 -0.14527 0.75008
 C383 C 0.83693 -0.11070 0.73371
 C384 C 0.85436 -0.09265 0.70105
 C385 C 0.90652 -0.08980 0.65086
 C386 C 0.92218 -0.07395 0.62321
 H387 H 0.93100 -0.15572 0.68693
 H388 H 0.90098 -0.18770 0.74395
 H389 H 0.81075 -0.09732 0.74611
 H390 H 0.84144 -0.06604 0.68910
 C391 C 1.11190 -0.11320 0.31540
 C392 C 1.09467 -0.14667 0.29885
 C393 C 1.11174 -0.16466 0.26593
 C394 C 1.14644 -0.14936 0.24893
 C395 C 1.16356 -0.11568 0.26615
 C396 C 1.14638 -0.09782 0.29905
 C397 C 1.09392 -0.09424 0.34880
 C398 C 1.07882 -0.07797 0.37654
 H399 H 1.06791 -0.15878 0.31128
 H400 H 1.09751 -0.19045 0.25381
 H401 H 1.19019 -0.10284 0.25422
 H402 H 1.15993 -0.07186 0.31164
 C403 C 0.89097 0.11705 0.31516
 C404 C 0.85698 0.10003 0.29945
 C405 C 0.83874 0.11664 0.26646
 C406 C 0.85428 0.15071 0.24850
 C407 C 0.88850 0.16769 0.26485
 C408 C 0.90664 0.15093 0.29787
 C409 C 0.91000 0.09927 0.34864
 C410 C 0.92575 0.08372 0.37643
 H411 H 0.84464 0.07375 0.31259
 H412 H 0.81254 0.10252 0.25506
 H413 H 0.90152 0.19384 0.25214
 H414 H 0.93301 0.16431 0.30979
 C415 C 0.11262 0.31521 -0.11246
 C416 C 0.09691 0.29884 -0.14684
 C417 C 0.11452 0.26583 -0.16399
 C418 C 0.14827 0.24851 -0.14692
 C419 C 0.16389 0.26554 -0.11233
 C420 C 0.14616 0.29856 -0.09530
 C421 C 0.09391 0.34869 -0.09444
 C422 C 0.07786 0.37646 -0.07925
 H423 H 0.07089 0.31149 -0.16033
 H424 H 0.10144 0.25388 -0.19053
 H425 H 0.18975 0.25337 -0.09813
 H426 H 0.15852 0.31099 -0.06862
 C427 C -0.11636 0.31581 0.10973
 C428 C -0.09900 0.30017 0.14368
 C429 C -0.11534 0.26720 0.16204
 C430 C -0.14946 0.24920 0.14664
 C431 C -0.16677 0.26551 0.11246
 C432 C -0.15029 0.29849 0.09422
 C433 C -0.09887 0.34922 0.09048
 C434 C -0.08361 0.37693 0.07445
 H435 H -0.07265 0.31335 0.15590
 H436 H -0.10099 0.25583 0.18820
 H437 H -0.19298 0.25279 0.09953
 H438 H -0.16393 0.31035 0.06788
 C439 C -0.11263 0.68481 -0.11801
 C440 C -0.09592 0.70196 -0.15155
 C441 C -0.11309 0.73535 -0.16848
 C442 C -0.14735 0.75225 -0.15201
 C443 C -0.16398 0.73440 -0.11831
 C444 C -0.14672 0.70103 -0.10153
 C445 C -0.09442 0.65108 -0.09992
 C446 C -0.07918 0.62317 -0.08414
 H447 H -0.06946 0.68966 -0.16451
 H448 H -0.09924 0.74794 -0.19434
 H449 H -0.19027 0.74621 -0.10460
 H450 H -0.15985 0.68801 -0.07550
 C451 C 0.10777 0.68317 0.11264
 C452 C 0.09126 0.70021 0.14638
 C453 C 0.10919 0.73280 0.16394
 C454 C 0.14390 0.74881 0.14791
 C455 C 0.16031 0.73130 0.11404
 C456 C 0.14233 0.69873 0.09656
 C457 C 0.08903 0.65004 0.09415
 C458 C 0.07344 0.62249 0.07821
 H459 H 0.06446 0.68842 0.15902
 H460 H 0.09573 0.74550 0.18994
 H461 H 0.18697 0.74280 0.10089
 H462 H 0.15532 0.68578 0.07041
 C463 C 0.31571 1.11214 0.89203
 C464 C 0.29880 1.14593 0.90841
 C465 C 0.26611 1.16345 0.89048
 C466 C 0.24985 1.14732 0.85587
 C467 C 0.26722 1.11339 0.83959
 C468 C 0.29990 1.09595 0.85758
 C469 C 0.34899 1.09374 0.91074
 C470 C 0.37668 1.07790 0.92632
 H471 H 0.31079 1.15866 0.93512
 H472 H 0.25352 1.18951 0.90385
 H473 H 0.25553 1.10016 0.81301
 H474 H 0.31274 1.06975 0.84468
 C475 C 0.31603 0.88265 1.11357
 C476 C 0.29888 0.84917 1.09689
 C477 C 0.26554 0.83233 1.11420
 C478 C 0.24887 0.84884 1.14846
 C479 C 0.26657 0.88237 1.16512
 C480 C 0.29989 0.89912 1.14775
 C481 C 0.34964 0.90069 1.09518
 C482 C 0.37744 0.91641 1.07973
 H483 H 0.31110 0.83624 1.07036
 H484 H 0.25273 0.80656 1.10057
 H485 H 0.25459 0.89586 1.19145
 H486 H 0.31290 0.92510 1.16085
 C487 C 0.68434 1.10985 1.11601
 C488 C 0.69977 1.14392 1.09885
 C489 C 0.73270 1.16221 1.11537
 C490 C 0.75070 1.14660 1.14936
 C491 C 0.73478 1.11241 1.16651
 C492 C 0.70185 1.09418 1.14990
 C493 C 0.65097 1.09068 1.09838
 C494 C 0.62327 1.07473 1.08303
 H495 H 0.68647 1.15625 1.07255
 H496 H 0.74411 1.18845 1.10138
 H497 H 0.74785 1.09957 1.19265
 H498 H 0.69017 1.06776 1.16338
 C499 C 0.68470 0.88804 0.88657
 C500 C 0.70092 0.85354 0.90216
 C501 C 0.73389 0.83635 0.88445
 C502 C 0.75114 0.85351 0.85084
 C503 C 0.73444 0.88813 0.83529
 C504 C 0.70147 0.90525 0.85307
 C505 C 0.65128 0.90611 0.90535
 C506 C 0.62353 0.92133 0.92145
 H507 H 0.68819 0.84002 0.92814
 H508 H 0.74592 0.80974 0.89723
 H509 H 0.74692 0.90215 0.80949
 H510 H 0.68918 0.93201 0.84081
   
