data_POSCAR
  _audit_creation_date              2014-09-24
  _audit_creation_method            'ToBaCCo'
  _symmetry_space_group_name_H-M    'P1'
  _symmetry_Int_Tables_number       1
  _symmetry_cell_setting            triclinic
  loop_
  _symmetry_equiv_pos_as_xyz
 x,y,z
_cell_length_a 50.6000
_cell_length_b 50.5872
_cell_length_c 50.6349
_cell_angle_alpha 90.014800
_cell_angle_beta 90.011700
_cell_angle_gamma 89.956000
loop_
  _atom_site_label
  _atom_site_type_symbol
  _atom_site_fract_x
  _atom_site_fract_y
  _atom_site_fract_z
O1 O 0.22782 1.02587 0.47450
 O2 O 0.22811 0.97326 0.52471
 O3 O 0.22740 1.02492 0.52632
 O4 O 0.22856 0.97475 0.47345
 O5 O 0.27218 0.97408 0.47522
 O6 O 0.27098 1.02691 0.52542
 O7 O 0.27166 0.97557 0.52686
 O8 O 0.27149 1.02590 0.47438
 Cu9 Cu 0.22358 0.99970 0.49977
 Cu10 Cu 0.27597 1.00060 0.50046
 C11 C 0.24962 1.03463 0.46570
 C12 C 0.24993 0.96567 0.53450
 C13 C 0.24898 1.03473 0.53466
 C14 C 0.25058 0.96567 0.46555
 O15 O 0.72801 -0.02712 0.47592
 O16 O 0.72709 0.02519 0.52639
 O17 O 0.72751 0.02414 0.47475
 O18 O 0.72761 -0.02646 0.52713
 O19 O 0.77125 -0.02649 0.52705
 O20 O 0.77111 0.02585 0.47640
 O21 O 0.77074 0.02477 0.52761
 O22 O 0.77166 -0.02583 0.47545
 Cu23 Cu 0.72316 -0.00105 0.50105
 Cu24 Cu 0.77558 -0.00042 0.50161
 C25 C 0.74999 -0.03523 0.46697
 C26 C 0.74876 0.03372 0.53574
 C27 C 0.74929 0.03374 0.46682
 C28 C 0.74945 -0.03526 0.53589
 O29 O 0.22884 0.47255 0.97486
 O30 O 0.22772 0.52484 1.02539
 O31 O 0.22835 0.52380 0.97376
 O32 O 0.22823 0.47318 1.02607
 O33 O 0.27187 0.47313 1.02615
 O34 O 0.27195 0.52554 0.97562
 O35 O 0.27136 0.52439 1.02684
 O36 O 0.27249 0.47385 0.97455
 Cu37 Cu 0.22389 0.49860 1.00001
 Cu38 Cu 0.27631 0.49923 1.00079
 C39 C 0.25085 0.46445 0.96597
 C40 C 0.24935 0.53335 1.03487
 C41 C 0.25016 0.53342 0.96596
 C42 C 0.25004 0.46436 1.03489
 O43 O 0.47401 0.22961 1.02609
 O44 O 0.52583 0.22961 0.97516
 O45 O 0.52566 0.22979 1.02652
 O46 O 0.47422 0.22960 0.97495
 O47 O 0.47452 0.27327 0.97451
 O48 O 0.52538 0.27344 1.02676
 O49 O 0.52589 0.27328 0.97520
 O50 O 0.47411 0.27329 1.02626
 Cu51 Cu 0.49997 0.22527 1.00069
 Cu52 Cu 0.49995 0.27771 1.00066
 C53 C 0.46527 0.25144 1.03484
 C54 C 0.53466 0.25143 0.96651
 C55 C 0.53424 0.25162 1.03552
 C56 C 0.46566 0.25140 0.96591
 O57 O 0.47458 0.72568 -0.02559
 O58 O 0.52564 0.72633 0.02616
 O59 O 0.47431 0.72595 0.02609
 O60 O 0.52595 0.72628 -0.02538
 O61 O 0.52571 0.76993 -0.02525
 O62 O 0.47348 0.76961 0.02553
 O63 O 0.52511 0.77000 0.02612
 O64 O 0.47417 0.76936 -0.02568
 Cu65 Cu 0.50015 0.72167 0.00033
 Cu66 Cu 0.49959 0.77410 0.00017
 C67 C 0.46571 0.74743 -0.03444
 C68 C 0.53403 0.74827 0.03495
 C69 C 0.46506 0.74774 0.03450
 C70 C 0.53468 0.74817 -0.03407
 O71 O 1.02572 0.47418 0.22662
 O72 O 0.97401 0.52541 0.22703
 O73 O 1.02536 0.52599 0.22683
 O74 O 0.97442 0.47383 0.22670
 O75 O 0.97441 0.47389 0.27033
 O76 O 1.02597 0.52535 0.27043
 O77 O 0.97433 0.52531 0.27067
 O78 O 1.02605 0.47418 0.27026
 Cu79 Cu 0.99989 0.49988 0.22241
 Cu80 Cu 1.00018 0.49967 0.27480
 C81 C 1.03466 0.46548 0.24838
 C82 C 0.96538 0.53406 0.24894
 C83 C 1.03442 0.53451 0.24865
 C84 C 0.96570 0.46504 0.24852
 O85 O -0.02540 0.47438 0.72990
 O86 O 0.02568 0.52605 0.73053
 O87 O 0.02623 0.47479 0.73015
 O88 O -0.02587 0.52581 0.73009
 O89 O -0.02595 0.52584 0.77370
 O90 O 0.02554 0.47412 0.77377
 O91 O 0.02543 0.52586 0.77416
 O92 O -0.02578 0.47426 0.77353
 Cu93 Cu 0.00017 0.50027 0.72579
 Cu94 Cu -0.00020 0.50000 0.77817
 C95 C -0.03427 0.46553 0.75162
 C96 C 0.03425 0.53473 0.75244
 C97 C 0.03469 0.46572 0.75196
 C98 C -0.03474 0.53461 0.75187
 O99 O 0.47374 0.97397 0.23006
 O100 O 0.52485 1.02567 0.23077
 O101 O 0.52535 0.97445 0.23055
 O102 O 0.47332 1.02537 0.23012
 O103 O 0.47305 1.02552 0.27373
 O104 O 0.52447 0.97390 0.27418
 O105 O 0.52440 1.02561 0.27441
 O106 O 0.47318 0.97396 0.27370
 Cu107 Cu 0.49934 0.99987 0.22600
 Cu108 Cu 0.49874 0.99974 0.27839
 C109 C 0.46477 0.96517 0.25176
 C110 C 0.53332 1.03442 0.25269
 C111 C 0.53370 0.96546 0.25243
 C112 C 0.46437 1.03421 0.25184
 O113 O 1.02539 0.22644 0.52603
 O114 O 0.97408 0.22573 0.47447
 O115 O 1.02544 0.22628 0.47453
 O116 O 0.97410 0.22608 0.52614
 O117 O 0.97330 0.26975 0.52551
 O118 O 1.02517 0.26996 0.47453
 O119 O 0.97366 0.26940 0.47433
 O120 O 1.02492 0.27012 0.52588
 Cu121 Cu 0.99978 0.22174 0.50031
 Cu122 Cu 0.99924 0.27420 0.50006
 C123 C 1.03387 0.24840 0.53473
 C124 C 0.96516 0.24746 0.46564
 C125 C 1.03406 0.24817 0.46579
 C126 C 0.96493 0.24789 0.53454
 O127 O -0.02630 0.77356 0.52646
 O128 O 0.02519 0.77337 0.47504
 O129 O -0.02615 0.77344 0.47474
 O130 O 0.02497 0.77363 0.52657
 O131 O 0.02508 0.72995 0.52650
 O132 O -0.02647 0.72976 0.47520
 O133 O 0.02512 0.72969 0.47517
 O134 O -0.02654 0.72987 0.52631
 Cu135 Cu -0.00060 0.77789 0.50068
 Cu136 Cu -0.00067 0.72543 0.50081
 C137 C -0.03518 0.75173 0.53510
 C138 C 0.03392 0.75148 0.46638
 C139 C -0.03504 0.75157 0.46622
 C140 C 0.03374 0.75179 0.53531
 O141 O 0.77155 0.47544 1.02742
 O142 O 0.77167 0.52587 0.97507
 O143 O 0.77075 0.52672 1.02606
 O144 O 0.77248 0.47409 0.97583
 O145 O 0.72886 0.47464 0.97375
 O146 O 0.72713 0.52473 1.02652
 O147 O 0.72800 0.52567 0.97479
 O148 O 0.72801 0.47308 1.02497
 Cu149 Cu 0.77602 0.50052 1.00113
 Cu150 Cu 0.72359 0.49951 1.00001
 C151 C 0.74977 0.46551 1.03489
 C152 C 0.74984 0.53452 0.96621
 C153 C 0.74864 0.53449 1.03501
 C154 C 0.75096 0.46567 0.96600
 O155 O 0.47412 1.02567 0.77071
 O156 O 0.52596 0.97461 0.77070
 O157 O 0.52573 1.02577 0.77075
 O158 O 0.47435 0.97429 0.77049
 O159 O 0.47451 0.97422 0.72685
 O160 O 0.52548 1.02618 0.72711
 O161 O 0.52577 0.97441 0.72706
 O162 O 0.47416 1.02580 0.72710
 Cu163 Cu 0.50000 1.00008 0.77504
 Cu164 Cu 0.50001 1.00017 0.72264
 C165 C 0.46531 1.03448 0.74893
 C166 C 0.53464 0.96580 0.74888
 C167 C 0.53431 1.03475 0.74898
 C168 C 0.46574 0.96545 0.74864
 C169 C 0.24956 0.22972 0.26946
 C170 C 0.22969 0.24939 0.26939
 C171 C 0.22980 0.26910 0.24959
 C172 C 0.24962 0.26921 0.22990
 C173 C 0.26942 0.24946 0.23012
 C174 C 0.26947 0.22967 0.24986
 C175 C 0.74927 0.76913 0.27094
 C176 C 0.72931 0.76915 0.25140
 C177 C 0.72900 0.74941 0.23164
 C178 C 0.74873 0.72960 0.23148
 C179 C 0.76874 0.72948 0.25098
 C180 C 0.76896 0.74929 0.27069
 C181 C 0.74988 0.23006 0.73106
 C182 C 0.73027 0.23033 0.75094
 C183 C 0.73058 0.25004 0.77074
 C184 C 0.75059 0.26953 0.77058
 C185 C 0.77025 0.26936 0.75073
 C186 C 0.76985 0.24959 0.73100
 C187 C 0.25015 0.76961 0.73035
 C188 C 0.23075 0.74942 0.73012
 C189 C 0.23076 0.72963 0.74990
 C190 C 0.25018 0.72980 0.77008
 C191 C 0.26957 0.75000 0.77029
 C192 C 0.26955 0.76983 0.75055
 C193 C 0.23014 0.24921 0.73029
 C194 C 0.24991 0.22940 0.73007
 C195 C 0.26996 0.22934 0.74959
 C196 C 0.27017 0.24916 0.76932
 C197 C 0.25043 0.26899 0.76957
 C198 C 0.23044 0.26899 0.75004
 C199 C 0.76971 0.74995 0.73131
 C200 C 0.74988 0.76969 0.73119
 C201 C 0.73009 0.76954 0.75094
 C202 C 0.73003 0.74980 0.77074
 C203 C 0.74996 0.73014 0.77069
 C204 C 0.76985 0.73012 0.75102
 C205 C 0.22959 0.74938 0.27022
 C206 C 0.22931 0.72968 0.25036
 C207 C 0.24897 0.72954 0.23049
 C208 C 0.26893 0.74911 0.23048
 C209 C 0.26925 0.76885 0.25028
 C210 C 0.24957 0.76894 0.27013
 C211 C 0.76862 0.24992 0.27056
 C212 C 0.76867 0.26972 0.25078
 C213 C 0.74924 0.26948 0.23058
 C214 C 0.72976 0.24933 0.23033
 C215 C 0.72978 0.22954 0.25014
 C216 C 0.74918 0.22973 0.27036
 C217 C 0.24944 0.09291 0.40728
 N218 N 0.22743 0.07835 0.41205
 N219 N 0.22744 0.05987 0.43079
 C220 C 0.24954 0.05510 0.44523
 N221 N 0.27159 0.06957 0.44037
 N222 N 0.27150 0.08825 0.42183
 C223 C 0.24941 0.11335 0.38674
 N224 N 0.26835 0.13234 0.38639
 N225 N 0.26826 0.15097 0.36780
 C226 C 0.24942 0.15109 0.34872
 N227 N 0.23056 0.13201 0.34898
 N228 N 0.23048 0.11356 0.36775
 C229 C 0.24944 0.17149 0.32815
 N230 N 0.23552 0.16800 0.30549
 N231 N 0.23568 0.18647 0.28674
 C232 C 0.24953 0.20917 0.29015
 N233 N 0.26332 0.21275 0.31285
 N234 N 0.26339 0.19416 0.33147
 C235 C 0.75041 0.90631 0.40872
 N236 N 0.72750 0.91362 0.42058
 N237 N 0.72741 0.93229 0.43912
 C238 C 0.75024 0.94423 0.44655
 N239 N 0.77318 0.93689 0.43474
 N240 N 0.77326 0.91828 0.41611
 C241 C 0.75040 0.88582 0.38823
 N242 N 0.77273 0.88019 0.37447
 N243 N 0.77259 0.86166 0.35577
 C244 C 0.75016 0.84803 0.35026
 N245 N 0.72786 0.85361 0.36407
 N246 N 0.72796 0.87222 0.38268
 C247 C 0.74997 0.82760 0.32971
 N248 N 0.72828 0.81228 0.32598
 N249 N 0.72809 0.79369 0.30736
 C250 C 0.74951 0.78984 0.29169
 N251 N 0.77117 0.80523 0.29539
 N252 N 0.77142 0.82373 0.31410
 C253 C 0.74840 0.09209 0.59408
 N254 N 0.72553 0.08467 0.58216
 N255 N 0.72559 0.06600 0.56359
 C256 C 0.74853 0.05418 0.55622
 N257 N 0.77138 0.06164 0.56811
 N258 N 0.77131 0.08021 0.58674
 C259 C 0.74845 0.11261 0.61453
 N260 N 0.77092 0.11816 0.62809
 N261 N 0.77106 0.13680 0.64666
 C262 C 0.74877 0.15063 0.65227
 N263 N 0.72630 0.14512 0.63869
 N264 N 0.72613 0.12639 0.62018
 C265 C 0.74901 0.17121 0.67267
 N266 N 0.72757 0.18685 0.67656
 N267 N 0.72788 0.20559 0.69504
 C268 C 0.74957 0.20928 0.71038
 N269 N 0.77098 0.19357 0.70650
 N270 N 0.77074 0.17492 0.68794
 C271 C 0.25011 0.90726 0.59276
 N272 N 0.27037 0.92475 0.59095
 N273 N 0.27041 0.94326 0.57224
 C274 C 0.25000 0.94517 0.55493
 N275 N 0.22966 0.92781 0.55686
 N276 N 0.22981 0.90906 0.57533
 C277 C 0.25015 0.88678 0.61322
 N278 N 0.23622 0.86411 0.60983
 N279 N 0.23639 0.84541 0.62835
 C280 C 0.25018 0.84890 0.65108
 N281 N 0.26396 0.87164 0.65455
 N282 N 0.26410 0.89018 0.63586
 C283 C 0.25018 0.82843 0.67155
 N284 N 0.25505 0.83477 0.69712
 N285 N 0.25483 0.81619 0.71574
 C286 C 0.25016 0.79048 0.70949
 N287 N 0.24549 0.78421 0.68381
 N288 N 0.24529 0.80283 0.66523
 C289 C 0.40673 0.25104 0.09295
 N290 N 0.42125 0.27314 0.08844
 N291 N 0.43980 0.27334 0.06977
 C292 C 0.44468 0.25136 0.05518
 N293 N 0.43025 0.22923 0.05978
 N294 N 0.41150 0.22912 0.07824
 C295 C 0.38625 0.25081 0.11343
 N296 N 0.36737 0.23177 0.11356
 N297 N 0.34872 0.23158 0.13211
 C298 C 0.34846 0.25026 0.15136
 N299 N 0.36742 0.26922 0.15131
 N300 N 0.38591 0.26958 0.13259
 C301 C 0.32801 0.24996 0.17185
 N302 N 0.33132 0.26377 0.19460
 N303 N 0.31276 0.26344 0.21325
 C304 C 0.29015 0.24951 0.20964
 N305 N 0.28674 0.23581 0.18686
 N306 N 0.30543 0.23590 0.16835
 C307 C 0.40771 0.74729 0.90687
 N308 N 0.41431 0.77002 0.91950
 N309 N 0.43287 0.77004 0.93814
 C310 C 0.44537 0.74730 0.94496
 N311 N 0.43873 0.72454 0.93239
 N312 N 0.42028 0.72455 0.91361
 C313 C 0.38724 0.74741 0.88637
 N314 N 0.38321 0.72588 0.87087
 N315 N 0.36463 0.72615 0.85221
 C316 C 0.34933 0.74790 0.84853
 N317 N 0.35332 0.76937 0.86409
 N318 N 0.37200 0.76917 0.88261
 C319 C 0.32875 0.74832 0.82816
 N320 N 0.31095 0.76838 0.82738
 N321 N 0.29222 0.76892 0.80894
 C322 C 0.29081 0.74963 0.79039
 N323 N 0.30849 0.72944 0.79124
 N324 N 0.32714 0.72880 0.80982
 C325 C 0.59176 0.74889 0.09392
 N326 N 0.58057 0.72582 0.08604
 N327 N 0.56221 0.72562 0.06719
 C328 C 0.55430 0.74850 0.05563
 N329 N 0.56544 0.77158 0.06355
 N330 N 0.58389 0.77177 0.08232
 C331 C 0.61204 0.74908 0.11461
 N332 N 0.62515 0.77168 0.12066
 N333 N 0.64366 0.77180 0.13936
 C334 C 0.64964 0.74935 0.15277
 N335 N 0.63648 0.72676 0.14678
 N336 N 0.61805 0.72661 0.12799
 C337 C 0.67006 0.74944 0.17332
 N338 N 0.67425 0.72771 0.18845
 N339 N 0.69286 0.72776 0.20705
 C340 C 0.70806 0.74948 0.21111
 N341 N 0.70387 0.77120 0.19593
 N342 N 0.68517 0.77121 0.17742
 C343 C 0.59335 0.25122 0.90849
 N344 N 0.58538 0.22829 0.91988
 N345 N 0.56665 0.22835 0.93836
 C346 C 0.55528 0.25137 0.94618
 N347 N 0.56329 0.27432 0.93483
 N348 N 0.58195 0.27424 0.91628
 C349 C 0.61390 0.25112 0.88806
 N350 N 0.62010 0.27363 0.87486
 N351 N 0.63868 0.27349 0.85622
 C352 C 0.65179 0.25085 0.85019
 N353 N 0.64564 0.22836 0.86344
 N354 N 0.62698 0.22848 0.88200
 C355 C 0.67224 0.25068 0.82967
 N356 N 0.68705 0.22872 0.82536
 N357 N 0.70561 0.22856 0.80671
 C358 C 0.70996 0.25028 0.79160
 N359 N 0.69510 0.27222 0.79590
 N360 N 0.67662 0.27244 0.81463
 C361 C 0.09306 0.40712 0.24839
 N362 N 0.07852 0.41181 0.22635
 N363 N 0.06001 0.43056 0.22627
 C364 C 0.05521 0.44507 0.24831
 N365 N 0.06967 0.44028 0.27038
 N366 N 0.08837 0.42174 0.27037
 C367 C 0.11348 0.38654 0.24850
 N368 N 0.13232 0.38618 0.26759
 N369 N 0.15090 0.36752 0.26770
 C370 C 0.15112 0.34838 0.24891
 N371 N 0.13221 0.34866 0.22990
 N372 N 0.11379 0.36749 0.22962
 C373 C 0.17149 0.32777 0.24914
 N374 N 0.16816 0.30513 0.23512
 N375 N 0.18663 0.28636 0.23542
 C376 C 0.20918 0.28973 0.24953
 N377 N 0.21259 0.31238 0.26345
 N378 N 0.19399 0.33102 0.26338
 C379 C 0.90782 0.40674 0.75105
 N380 N 0.91911 0.41455 0.77408
 N381 N 0.93753 0.43334 0.77426
 C382 C 0.94540 0.44492 0.75140
 N383 N 0.93416 0.43707 0.72835
 N384 N 0.91565 0.41835 0.72819
 C385 C 0.88748 0.38611 0.75089
 N386 N 0.87428 0.38012 0.72832
 N387 N 0.85571 0.36147 0.72823
 C388 C 0.84977 0.34806 0.75067
 N389 N 0.86302 0.35399 0.77321
 N390 N 0.88150 0.37272 0.77333
 C391 C 0.82929 0.32757 0.75061
 N392 N 0.82513 0.31243 0.77233
 N393 N 0.80648 0.29387 0.77231
 C394 C 0.79121 0.28986 0.75063
 N395 N 0.79538 0.30504 0.72893
 N396 N 0.81412 0.32351 0.72888
 C397 C 0.09240 0.59327 0.75257
 N398 N 0.07988 0.58652 0.77530
 N399 N 0.06138 0.56779 0.77531
 C400 C 0.05464 0.55528 0.75256
 N401 N 0.06710 0.56210 0.72983
 N402 N 0.08571 0.58070 0.72986
 C403 C 0.11292 0.61372 0.75246
 N404 N 0.12812 0.61747 0.73071
 N405 N 0.14683 0.63595 0.73051
 C406 C 0.15091 0.65148 0.75198
 N407 N 0.13565 0.64781 0.77373
 N408 N 0.11703 0.62919 0.77399
 C409 C 0.17152 0.67182 0.75157
 N410 N 0.17319 0.69015 0.77110
 N411 N 0.19186 0.70871 0.77046
 C412 C 0.20951 0.70955 0.75027
 N413 N 0.20804 0.69100 0.73098
 N414 N 0.18928 0.67259 0.73152
 C415 C 0.90665 0.59215 0.24949
 N416 N 0.91474 0.58071 0.27235
 N417 N 0.93350 0.56222 0.27219
 C418 C 0.94477 0.55444 0.24913
 N419 N 0.93665 0.56584 0.22626
 N420 N 0.91796 0.58440 0.22644
 C421 C 0.88604 0.61256 0.24968
 N422 N 0.87971 0.62577 0.22722
 N423 N 0.86105 0.64436 0.22742
 C424 C 0.84798 0.65033 0.25006
 N425 N 0.85427 0.63707 0.27251
 N426 N 0.87300 0.61856 0.27234
 C427 C 0.82742 0.67078 0.25028
 N428 N 0.81264 0.67502 0.27223
 N429 N 0.79396 0.69359 0.27242
 C430 C 0.78947 0.70870 0.25072
 N431 N 0.80432 0.70447 0.22879
 N432 N 0.82290 0.68581 0.22854
 C433 C 0.09203 0.24901 0.59332
 N434 N 0.08056 0.22598 0.58573
 N435 N 0.06206 0.22579 0.56701
 C436 C 0.05428 0.24864 0.55529
 N437 N 0.06570 0.27168 0.56292
 N438 N 0.08429 0.27186 0.58156
 C439 C 0.11248 0.24918 0.61388
 N440 N 0.12604 0.27164 0.61948
 N441 N 0.14470 0.27172 0.63805
 C442 C 0.15037 0.24937 0.65177
 N443 N 0.13676 0.22694 0.64622
 N444 N 0.11819 0.22682 0.62757
 C445 C 0.17094 0.24941 0.67220
 N446 N 0.17467 0.22793 0.68781
 N447 N 0.19338 0.22792 0.70631
 C448 C 0.20917 0.24931 0.70978
 N449 N 0.20544 0.27079 0.69415
 N450 N 0.18663 0.27088 0.67574
 C451 C 0.90649 0.75149 0.59348
 N452 N 0.92107 0.77355 0.58891
 N453 N 0.93955 0.77370 0.57017
 C454 C 0.94430 0.75172 0.55554
 N455 N 0.92982 0.72963 0.56020
 N456 N 0.91115 0.72957 0.57874
 C457 C 0.88608 0.75131 0.61405
 N458 N 0.86715 0.73231 0.61424
 N459 N 0.84856 0.73215 0.63287
 C460 C 0.84843 0.75080 0.65215
 N461 N 0.86745 0.76971 0.65205
 N462 N 0.88586 0.77005 0.63324
 C463 C 0.82805 0.75051 0.67274
 N464 N 0.83149 0.76425 0.69552
 N465 N 0.81302 0.76390 0.71426
 C466 C 0.79035 0.75003 0.71072
 N467 N 0.78682 0.73640 0.68791
 N468 N 0.80542 0.73652 0.66931
 C469 C 0.09240 0.75106 0.40810
 N470 N 0.08080 0.77407 0.41563
 N471 N 0.06221 0.77422 0.43426
 C472 C 0.05446 0.75135 0.44594
 N473 N 0.06602 0.72833 0.43837
 N474 N 0.08469 0.72820 0.41983
 C475 C 0.11291 0.75088 0.38760
 N476 N 0.12642 0.72836 0.38202
 N477 N 0.14505 0.72818 0.36343
 C478 C 0.15076 0.75048 0.34966
 N479 N 0.13721 0.77299 0.35520
 N480 N 0.11867 0.77320 0.37388
 C481 C 0.17120 0.75023 0.32910
 N482 N 0.17497 0.77161 0.31337
 N483 N 0.19345 0.77130 0.29463
 C484 C 0.20891 0.74966 0.29101
 N485 N 0.20520 0.72834 0.30685
 N486 N 0.18664 0.72858 0.32549
 C487 C 0.90691 0.24725 0.40714
 N488 N 0.91353 0.26998 0.41974
 N489 N 0.93216 0.27003 0.43832
 C490 C 0.94471 0.24731 0.44511
 N491 N 0.93804 0.22454 0.43257
 N492 N 0.91952 0.22452 0.41385
 C493 C 0.88638 0.24734 0.38667
 N494 N 0.88233 0.22581 0.37117
 N495 N 0.86373 0.22607 0.35253
 C496 C 0.84840 0.24781 0.34887
 N497 N 0.85240 0.26928 0.36444
 N498 N 0.87110 0.26908 0.38293
 C499 C 0.82779 0.24822 0.32849
 N500 N 0.80998 0.26826 0.32771
 N501 N 0.79125 0.26881 0.30926
 C502 C 0.78986 0.24954 0.29069
 N503 N 0.80755 0.22936 0.29154
 N504 N 0.82620 0.22871 0.31013
 C505 C 0.25143 0.40605 0.90760
 N506 N 0.22850 0.41333 0.91945
 N507 N 0.22836 0.43197 0.93803
 C508 C 0.25116 0.44393 0.94551
 N509 N 0.27413 0.43662 0.93372
 N510 N 0.27425 0.41804 0.91505
 C511 C 0.25146 0.38558 0.88707
 N512 N 0.27379 0.38001 0.87328
 N513 N 0.27368 0.36151 0.85455
 C514 C 0.25127 0.34783 0.84902
 N515 N 0.22897 0.35336 0.86286
 N516 N 0.22905 0.37193 0.88150
 C517 C 0.25110 0.32742 0.82844
 N518 N 0.22945 0.31203 0.82473
 N519 N 0.22927 0.29347 0.80608
 C520 C 0.25066 0.28970 0.79035
 N521 N 0.27228 0.30515 0.79403
 N522 N 0.27252 0.32363 0.81277
 C523 C 0.74971 0.40704 0.09304
 N524 N 0.76993 0.42459 0.09140
 N525 N 0.77004 0.44312 0.07272
 C526 C 0.74975 0.44500 0.05528
 N527 N 0.72945 0.42758 0.05704
 N528 N 0.72952 0.40880 0.07548
 C529 C 0.74968 0.38655 0.11347
 N530 N 0.73586 0.36383 0.10995
 N531 N 0.73597 0.34512 0.12846
 C532 C 0.74957 0.34866 0.15129
 N533 N 0.76323 0.37146 0.15489
 N534 N 0.76344 0.39000 0.13622
 C535 C 0.74949 0.32820 0.17176
 N536 N 0.75410 0.33460 0.19736
 N537 N 0.75381 0.31603 0.21600
 C538 C 0.74932 0.29031 0.20971
 N539 N 0.74492 0.28397 0.18400
 N540 N 0.74479 0.30258 0.16541
 C541 C 0.74991 0.59288 0.90792
 N542 N 0.72795 0.57815 0.91241
 N543 N 0.72788 0.55964 0.93111
 C544 C 0.74986 0.55500 0.94577
 N545 N 0.77186 0.56963 0.94119
 N546 N 0.77184 0.58835 0.92268
 C547 C 0.74993 0.61335 0.88744
 N548 N 0.76866 0.63255 0.88739
 N549 N 0.76860 0.65124 0.86886
 C550 C 0.74998 0.65121 0.84956
 N551 N 0.73134 0.63193 0.84952
 N552 N 0.73123 0.61341 0.86822
 C553 C 0.75000 0.67168 0.82908
 N554 N 0.73644 0.66808 0.80623
 N555 N 0.73655 0.68662 0.78757
 C556 C 0.74999 0.70952 0.79127
 N557 N 0.76344 0.71322 0.81415
 N558 N 0.76356 0.69454 0.83268
 C559 C 0.24866 0.59169 0.09329
 N560 N 0.22592 0.58451 0.08099
 N561 N 0.22608 0.56585 0.06241
 C562 C 0.24902 0.55380 0.05539
 N563 N 0.27175 0.56102 0.06765
 N564 N 0.27156 0.57958 0.08631
 C565 C 0.24858 0.61221 0.11377
 N566 N 0.27077 0.61732 0.12794
 N567 N 0.27077 0.63594 0.14655
 C568 C 0.24860 0.65021 0.15157
 N569 N 0.22642 0.64514 0.13736
 N570 N 0.22638 0.62643 0.11884
 C571 C 0.24867 0.67077 0.17200
 N572 N 0.22756 0.68704 0.17510
 N573 N 0.22768 0.70574 0.19362
 C574 C 0.24884 0.70876 0.20982
 N575 N 0.26994 0.69246 0.20673
 N576 N 0.26989 0.67385 0.18812
 C577 C 0.40767 0.09165 0.74907
 N578 N 0.41655 0.08117 0.77210
 N579 N 0.43530 0.06267 0.77206
 C580 C 0.44577 0.05385 0.74897
 N581 N 0.43680 0.06430 0.72593
 N582 N 0.41816 0.08291 0.72599
 C583 C 0.38709 0.11212 0.74913
 N584 N 0.38047 0.12488 0.72649
 N585 N 0.36186 0.14353 0.72656
 C586 C 0.34910 0.14999 0.74925
 N587 N 0.35567 0.13718 0.77188
 N588 N 0.37438 0.11863 0.77183
 C589 C 0.32857 0.17051 0.74932
 N590 N 0.31361 0.17476 0.77115
 N591 N 0.29495 0.19335 0.77119
 C592 C 0.29065 0.20848 0.74946
 N593 N 0.30571 0.20426 0.72767
 N594 N 0.32426 0.18557 0.72756
 C595 C 0.40681 0.90638 0.25106
 N596 N 0.41808 0.91416 0.27412
 N597 N 0.43651 0.93295 0.27434
 C598 C 0.44442 0.94455 0.25150
 N599 N 0.43320 0.93673 0.22843
 N600 N 0.41468 0.91802 0.22822
 C601 C 0.38645 0.88574 0.25084
 N602 N 0.37320 0.87986 0.22827
 N603 N 0.35463 0.86120 0.22813
 C604 C 0.34873 0.84767 0.25051
 N605 N 0.36202 0.85351 0.27306
 N606 N 0.38050 0.87224 0.27323
 C607 C 0.32825 0.82716 0.25037
 N608 N 0.32420 0.81182 0.27198
 N609 N 0.30557 0.79324 0.27189
 C610 C 0.29020 0.78939 0.25026
 N611 N 0.29424 0.80477 0.22867
 N612 N 0.31296 0.82327 0.22869
 C613 C 0.59153 0.09296 0.25289
 N614 N 0.57877 0.08642 0.27555
 N615 N 0.56026 0.06769 0.27554
 C616 C 0.55373 0.05498 0.25284
 N617 N 0.56643 0.06160 0.23018
 N618 N 0.58505 0.08018 0.23022
 C619 C 0.61206 0.11342 0.25279
 N620 N 0.62759 0.11686 0.23122
 N621 N 0.64630 0.13535 0.23102
 C622 C 0.65005 0.15121 0.25232
 N623 N 0.63445 0.14786 0.27388
 N624 N 0.61585 0.12922 0.27414
 C625 C 0.67065 0.17159 0.25189
 N626 N 0.67190 0.19034 0.27106
 N627 N 0.69053 0.20894 0.27038
 C628 C 0.70855 0.20942 0.25051
 N629 N 0.70752 0.19044 0.23161
 N630 N 0.68881 0.17198 0.23218
 C631 C 0.59307 0.90740 0.74928
 N632 N 0.57850 0.91195 0.72722
 N633 N 0.56000 0.93071 0.72701
 C634 C 0.55520 0.94536 0.74896
 N635 N 0.56967 0.94072 0.77105
 N636 N 0.58837 0.92217 0.77116
 C637 C 0.61350 0.88682 0.74951
 N638 N 0.63243 0.88664 0.76852
 N639 N 0.65104 0.86800 0.76872
 C640 C 0.65121 0.84869 0.75009
 N641 N 0.63220 0.84879 0.73116
 N642 N 0.61376 0.86760 0.73080
 C643 C 0.67162 0.82810 0.75040
 N644 N 0.66822 0.80530 0.73666
 N645 N 0.68673 0.78657 0.73700
 C646 C 0.70940 0.79013 0.75088
 N647 N 0.71288 0.81294 0.76452
 N648 N 0.69424 0.83155 0.76441
 C649 C 0.74958 0.90738 0.59336
 N650 N 0.77263 0.91775 0.58439
 N651 N 0.77260 0.93630 0.56571
 C652 C 0.74949 0.94529 0.55537
 N653 N 0.72643 0.93494 0.56441
 N654 N 0.72648 0.91629 0.58300
 C655 C 0.74962 0.88686 0.61391
 N656 N 0.72689 0.87437 0.62077
 N657 N 0.72694 0.85572 0.63936
 C658 C 0.74970 0.84896 0.65187
 N659 N 0.77242 0.86150 0.64506
 N660 N 0.77239 0.88005 0.62638
 C661 C 0.74975 0.82844 0.67242
 N662 N 0.77176 0.82379 0.68704
 N663 N 0.77176 0.80524 0.70571
 C664 C 0.74983 0.79051 0.71039
 N665 N 0.72785 0.79514 0.69569
 N666 N 0.72778 0.81380 0.67712
 C667 C 0.24992 0.40693 0.09224
 N668 N 0.27302 0.41731 0.08339
 N669 N 0.27306 0.43589 0.06474
 C670 C 0.25000 0.44489 0.05433
 N671 N 0.22690 0.43454 0.06325
 N672 N 0.22687 0.41586 0.08181
 C673 C 0.24988 0.38640 0.11276
 N674 N 0.22713 0.37388 0.11947
 N675 N 0.22710 0.35521 0.13804
 C676 C 0.24980 0.34847 0.15066
 N677 N 0.27255 0.36103 0.14398
 N678 N 0.27260 0.37961 0.12533
 C679 C 0.24976 0.32794 0.17117
 N680 N 0.27169 0.32334 0.18592
 N681 N 0.27161 0.30478 0.20458
 C682 C 0.24967 0.29001 0.20911
 N683 N 0.22778 0.29459 0.19428
 N684 N 0.22779 0.31326 0.17572
 C685 C 0.24834 0.09225 0.59201
 N686 N 0.22560 0.07992 0.58486
 N687 N 0.22573 0.06138 0.56614
 C688 C 0.24866 0.05424 0.55410
 N689 N 0.27140 0.06650 0.56141
 N690 N 0.27122 0.08525 0.57988
 C691 C 0.24831 0.11283 0.61252
 N692 N 0.26873 0.13011 0.61445
 N693 N 0.26881 0.14878 0.63303
 C694 C 0.24862 0.15064 0.65058
 N695 N 0.22825 0.13327 0.64875
 N696 N 0.22802 0.11480 0.62996
 C697 C 0.24889 0.17108 0.67121
 N698 N 0.23355 0.16864 0.69308
 N699 N 0.23402 0.18708 0.71189
 C700 C 0.24962 0.20875 0.70935
 N701 N 0.26482 0.21129 0.68742
 N702 N 0.26459 0.19270 0.66877
 C703 C 0.25116 0.90726 0.40702
 N704 N 0.22921 0.92207 0.41141
 N705 N 0.22905 0.94060 0.43011
 C706 C 0.25092 0.94522 0.44494
 N707 N 0.27295 0.93052 0.44046
 N708 N 0.27302 0.91179 0.42193
 C709 C 0.25114 0.88666 0.38652
 N710 N 0.27007 0.86762 0.38615
 N711 N 0.26979 0.84880 0.36772
 C712 C 0.25073 0.84848 0.34884
 N713 N 0.23190 0.86760 0.34912
 N714 N 0.23202 0.88626 0.36771
 C715 C 0.25044 0.82779 0.32843
 N716 N 0.23573 0.83083 0.30620
 N717 N 0.23552 0.81216 0.28763
 C718 C 0.24979 0.78966 0.29077
 N719 N 0.26438 0.78651 0.31305
 N720 N 0.26480 0.80531 0.33149
 C721 C 0.74916 0.09211 0.40838
 N722 N 0.72873 0.07485 0.41047
 N723 N 0.72867 0.05637 0.42922
 C724 C 0.74924 0.05423 0.44631
 N725 N 0.76977 0.07135 0.44411
 N726 N 0.76964 0.09008 0.42560
 C727 C 0.74912 0.11260 0.38785
 N728 N 0.76333 0.13513 0.39104
 N729 N 0.76315 0.15382 0.37249
 C730 C 0.74907 0.15046 0.34991
 N731 N 0.73502 0.12784 0.34663
 N732 N 0.73489 0.10933 0.36536
 C733 C 0.74907 0.17094 0.32937
 N734 N 0.74388 0.16462 0.30385
 N735 N 0.74412 0.18318 0.28518
 C736 C 0.74912 0.20885 0.29132
 N737 N 0.75408 0.21510 0.31696
 N738 N 0.75427 0.19650 0.33558
 C739 C 0.59223 0.74866 0.90861
 N740 N 0.58202 0.72550 0.91748
 N741 N 0.56342 0.72532 0.93613
 C742 C 0.55424 0.74833 0.94654
 N743 N 0.56445 0.77150 0.93760
 N744 N 0.58313 0.77166 0.91905
 C745 C 0.61277 0.74885 0.88804
 N746 N 0.62495 0.77174 0.88113
 N747 N 0.64358 0.77191 0.86251
 C748 C 0.65063 0.74922 0.85002
 N749 N 0.63840 0.72634 0.85689
 N750 N 0.61986 0.72615 0.87559
 C751 C 0.67115 0.74940 0.82944
 N752 N 0.67621 0.72736 0.81500
 N753 N 0.69478 0.72753 0.79634
 C754 C 0.70913 0.74969 0.79149
 N755 N 0.70407 0.77171 0.80600
 N756 N 0.68540 0.77160 0.82456
 C757 C 0.09232 0.24857 0.40725
 N758 N 0.08108 0.22552 0.41513
 N759 N 0.06258 0.22538 0.43384
 C760 C 0.05456 0.24830 0.44528
 N761 N 0.06575 0.27135 0.43737
 N762 N 0.08434 0.27148 0.41873
 C763 C 0.11273 0.24873 0.38663
 N764 N 0.12571 0.27139 0.38048
 N765 N 0.14427 0.27153 0.36182
 C766 C 0.15044 0.24903 0.34854
 N767 N 0.13742 0.22639 0.35465
 N768 N 0.11894 0.22623 0.37340
 C769 C 0.17089 0.24918 0.32796
 N770 N 0.17533 0.22736 0.31301
 N771 N 0.19390 0.22748 0.29436
 C772 C 0.20881 0.24936 0.29005
 N773 N 0.20436 0.27116 0.30506
 N774 N 0.18571 0.27110 0.32362
 C775 C 0.59124 0.25156 0.09340
 N776 N 0.58289 0.22854 0.08241
 N777 N 0.56434 0.22856 0.06373
 C778 C 0.55355 0.25162 0.05516
 N779 N 0.56198 0.27465 0.06611
 N780 N 0.58040 0.27461 0.08494
 C781 C 0.61174 0.25145 0.11399
 N782 N 0.61707 0.27360 0.12819
 N783 N 0.63565 0.27340 0.14687
 C784 C 0.64972 0.25108 0.15189
 N785 N 0.64444 0.22898 0.13763
 N786 N 0.62574 0.22912 0.11911
 C787 C 0.67039 0.25076 0.17231
 N788 N 0.68740 0.23008 0.17400
 N789 N 0.70618 0.22964 0.19243
 C790 C 0.70846 0.24968 0.21011
 N791 N 0.69153 0.27047 0.20834
 N792 N 0.67286 0.27101 0.18976
 C793 C 0.40756 0.25083 0.90710
 N794 N 0.42192 0.27299 0.91185
 N795 N 0.44033 0.27325 0.93069
 C796 C 0.44524 0.25126 0.94528
 N797 N 0.43097 0.22906 0.94043
 N798 N 0.41237 0.22889 0.92179
 C799 C 0.38713 0.25054 0.88644
 N800 N 0.36854 0.23120 0.88593
 N801 N 0.34994 0.23098 0.86729
 C802 C 0.34941 0.24992 0.84830
 N803 N 0.36809 0.26918 0.84872
 N804 N 0.38652 0.26957 0.86753
 C805 C 0.32893 0.24960 0.82770
 N806 N 0.33186 0.26406 0.80530
 N807 N 0.31329 0.26373 0.78662
 C808 C 0.29102 0.24915 0.78982
 N809 N 0.28800 0.23480 0.81226
 N810 N 0.30670 0.23490 0.83080
 C811 C 0.40629 0.74773 0.09265
 N812 N 0.42079 0.72564 0.08788
 N813 N 0.43940 0.72558 0.06924
 C814 C 0.44438 0.74769 0.05488
 N815 N 0.42997 0.76981 0.05974
 N816 N 0.41118 0.76979 0.07818
 C817 C 0.38570 0.74781 0.11315
 N818 N 0.36723 0.76729 0.11389
 N819 N 0.34854 0.76736 0.13243
 C820 C 0.34779 0.74812 0.15111
 N821 N 0.36633 0.72870 0.15045
 N822 N 0.38486 0.72848 0.13174
 C823 C 0.32730 0.74833 0.17170
 N824 N 0.32998 0.73332 0.19377
 N825 N 0.31150 0.73367 0.21252
 C826 C 0.28955 0.74885 0.20974
 N827 N 0.28676 0.76375 0.18762
 N828 N 0.30537 0.76360 0.16900
 C829 C 0.90775 0.59208 0.75164
 N830 N 0.91804 0.58314 0.77474
 N831 N 0.93663 0.56445 0.77483
 C832 C 0.94573 0.55407 0.75180
 N833 N 0.93545 0.56307 0.72869
 N834 N 0.91677 0.58167 0.72862
 C835 C 0.88721 0.61269 0.75154
 N836 N 0.87495 0.61966 0.72871
 N837 N 0.85631 0.63830 0.72863
 C838 C 0.84932 0.65075 0.75134
 N839 N 0.86162 0.64382 0.77415
 N840 N 0.88017 0.62510 0.77426
 C841 C 0.82877 0.67135 0.75124
 N842 N 0.82375 0.68576 0.77329
 N843 N 0.80516 0.70443 0.77318
 C844 C 0.79076 0.70934 0.75108
 N845 N 0.79578 0.69486 0.72904
 N846 N 0.81447 0.67628 0.72909
 C847 C 0.40699 0.09168 0.25122
 N848 N 0.41720 0.08282 0.27439
 N849 N 0.43575 0.06412 0.27460
 C850 C 0.44489 0.05365 0.25164
 N851 N 0.43470 0.06257 0.22846
 N852 N 0.41606 0.08118 0.22826
 C853 C 0.38653 0.11228 0.25099
 N854 N 0.37426 0.11908 0.22813
 N855 N 0.35566 0.13773 0.22793
 C856 C 0.34874 0.15036 0.25056
 N857 N 0.36106 0.14361 0.27341
 N858 N 0.37957 0.12486 0.27363
 C859 C 0.32827 0.17095 0.25034
 N860 N 0.32343 0.18561 0.27227
 N861 N 0.30487 0.20429 0.27207
 C862 C 0.29033 0.20893 0.25001
 N863 N 0.29518 0.19422 0.22810
 N864 N 0.31384 0.17563 0.22823
 C865 C 0.09163 0.59217 0.24905
 N866 N 0.08404 0.58030 0.27185
 N867 N 0.06538 0.56172 0.27173
 C868 C 0.05381 0.55407 0.24874
 N869 N 0.06154 0.56586 0.22590
 N870 N 0.07998 0.58467 0.22607
 C871 C 0.11212 0.61276 0.24925
 N872 N 0.11467 0.62972 0.22863
 N873 N 0.13315 0.64849 0.22893
 C874 C 0.14995 0.65079 0.24973
 N875 N 0.14749 0.63373 0.27027
 N876 N 0.12882 0.61516 0.27011
 C877 C 0.17047 0.67133 0.24997
 N878 N 0.19165 0.66926 0.26633
 N879 N 0.21038 0.68776 0.26639
 C880 C 0.20844 0.70917 0.25035
 N881 N 0.18720 0.71134 0.23412
 N882 N 0.16863 0.69268 0.23382
 C883 C 0.90746 0.40634 0.24863
 N884 N 0.91430 0.41888 0.27134
 N885 N 0.93292 0.43749 0.27131
 C886 C 0.94527 0.44440 0.24854
 N887 N 0.93839 0.43192 0.22581
 N888 N 0.91988 0.41317 0.22586
 C889 C 0.88688 0.38582 0.24873
 N890 N 0.88257 0.37054 0.22709
 N891 N 0.86393 0.35193 0.22728
 C892 C 0.84878 0.34803 0.24908
 N893 N 0.85305 0.36336 0.27068
 N894 N 0.87180 0.38184 0.27054
 C895 C 0.82808 0.32765 0.24940
 N896 N 0.81048 0.32658 0.26959
 N897 N 0.79169 0.30816 0.27003
 C898 C 0.78997 0.28991 0.25046
 N899 N 0.80746 0.29106 0.23014
 N900 N 0.82616 0.30961 0.22961
 C901 C 0.09325 0.40724 0.75168
 N902 N 0.07879 0.41199 0.77377
 N903 N 0.06025 0.43073 0.77393
 C904 C 0.05530 0.44523 0.75191
 N905 N 0.06967 0.44040 0.72978
 N906 N 0.08839 0.42185 0.72971
 C907 C 0.11376 0.38663 0.75150
 N908 N 0.13226 0.38595 0.73208
 N909 N 0.15090 0.36731 0.73193
 C910 C 0.15157 0.34850 0.75104
 N911 N 0.13299 0.34910 0.77039
 N912 N 0.11452 0.36790 0.77069
 C913 C 0.17203 0.32784 0.75077
 N914 N 0.16925 0.30565 0.76560
 N915 N 0.18774 0.28687 0.76525
 C916 C 0.20979 0.28974 0.75027
 N917 N 0.21266 0.31197 0.73554
 N918 N 0.19404 0.33062 0.73568
 C919 C 0.90664 0.75099 0.40777
 N920 N 0.92106 0.77314 0.41239
 N921 N 0.93955 0.77340 0.43113
 C922 C 0.94447 0.75142 0.44572
 N923 N 0.93015 0.72924 0.44100
 N924 N 0.91147 0.72907 0.42246
 C925 C 0.88617 0.75070 0.38724
 N926 N 0.86753 0.73141 0.38688
 N927 N 0.84886 0.73118 0.36832
 C928 C 0.84833 0.75006 0.34929
 N929 N 0.86705 0.76928 0.34956
 N930 N 0.88556 0.76967 0.36829
 C931 C 0.82782 0.74975 0.32881
 N932 N 0.83075 0.76409 0.30634
 N933 N 0.81213 0.76377 0.28774
 C934 C 0.78982 0.74929 0.29110
 N935 N 0.78680 0.73504 0.31359
 N936 N 0.80555 0.73515 0.33206
 C937 C 0.90650 0.24801 0.59287
 N938 N 0.91117 0.26998 0.57822
 N939 N 0.92987 0.26996 0.55970
 C940 C 0.94438 0.24788 0.55498
 N941 N 0.93962 0.22586 0.56952
 N942 N 0.92110 0.22596 0.58823
 C943 C 0.88604 0.24813 0.61342
 N944 N 0.88555 0.22907 0.63229
 N945 N 0.86711 0.22934 0.65107
 C946 C 0.84833 0.24851 0.65150
 N947 N 0.84873 0.26748 0.63255
 N948 N 0.86733 0.26737 0.61393
 C949 C 0.82796 0.24876 0.67212
 N950 N 0.80572 0.26351 0.66916
 N951 N 0.78717 0.26367 0.68783
 C952 C 0.79037 0.24932 0.71024
 N953 N 0.81263 0.23467 0.71329
 N954 N 0.83105 0.23429 0.69449
 C955 C 0.09203 0.75171 0.59382
 N956 N 0.08526 0.72899 0.58126
 N957 N 0.06661 0.72901 0.56269
 C958 C 0.05418 0.75179 0.55587
 N959 N 0.06100 0.77454 0.56836
 N960 N 0.07953 0.77449 0.58706
 C961 C 0.11261 0.75160 0.61426
 N962 N 0.11682 0.77323 0.62960
 N963 N 0.13549 0.77301 0.64818
 C964 C 0.15072 0.75123 0.65196
 N965 N 0.14655 0.72966 0.63657
 N966 N 0.12778 0.72981 0.61812
 C967 C 0.17141 0.75089 0.67228
 N968 N 0.18910 0.73074 0.67323
 N969 N 0.20789 0.73028 0.69162
 C970 C 0.20948 0.74976 0.70997
 N971 N 0.19191 0.77004 0.70895
 N972 N 0.17321 0.77060 0.69041
 C973 C 0.74755 0.59301 0.09326
 N974 N 0.72585 0.57786 0.08882
 N975 N 0.72608 0.55931 0.07012
 C976 C 0.74811 0.55507 0.05541
 N977 N 0.76982 0.57015 0.05994
 N978 N 0.76950 0.58887 0.07843
 C979 C 0.74741 0.61350 0.11379
 N980 N 0.76621 0.63262 0.11399
 N981 N 0.76623 0.65120 0.13263
 C982 C 0.74762 0.65116 0.15193
 N983 N 0.72887 0.63197 0.15181
 N984 N 0.72869 0.61354 0.13299
 C985 C 0.74785 0.67150 0.17259
 N986 N 0.73400 0.66807 0.19529
 N987 N 0.73442 0.68647 0.21412
 C988 C 0.74850 0.70904 0.21076
 N989 N 0.76224 0.71256 0.18804
 N990 N 0.76204 0.69403 0.16934
 C991 C 0.25023 0.59185 0.90763
 N992 N 0.22981 0.57457 0.90959
 N993 N 0.22970 0.55606 0.92831
 C994 C 0.25019 0.55392 0.94549
 N995 N 0.27071 0.57107 0.94341
 N996 N 0.27063 0.58983 0.92493
 C997 C 0.25024 0.61237 0.88716
 N998 N 0.26438 0.63493 0.89046
 N999 N 0.26422 0.65365 0.87196
 C1000 C 0.25024 0.65031 0.84932
 N1001 N 0.23626 0.62767 0.84593
 N1002 N 0.23611 0.60911 0.86460
 C1003 C 0.25023 0.67084 0.82886
 N1004 N 0.24514 0.66458 0.80331
 N1005 N 0.24534 0.68319 0.78470
 C1006 C 0.25019 0.70887 0.79095
 N1007 N 0.25507 0.71506 0.81661
 N1008 N 0.25530 0.69640 0.83517
 C1009 C 0.75204 0.40758 0.90732
 N1010 N 0.73010 0.42244 0.91149
 N1011 N 0.72978 0.44088 0.93026
 C1012 C 0.75150 0.44534 0.94536
 N1013 N 0.77352 0.43059 0.94110
 N1014 N 0.77374 0.41194 0.92250
 C1015 C 0.75217 0.38710 0.88679
 N1016 N 0.77089 0.36786 0.88669
 N1017 N 0.77069 0.34908 0.86823
 C1018 C 0.75192 0.34902 0.84906
 N1019 N 0.73331 0.36836 0.84908
 N1020 N 0.73335 0.38697 0.86769
 C1021 C 0.75165 0.32839 0.82870
 N1022 N 0.73740 0.33170 0.80622
 N1023 N 0.73715 0.31301 0.78768
 C1024 C 0.75090 0.29024 0.79113
 N1025 N 0.76505 0.28684 0.81364
 N1026 N 0.76552 0.30565 0.83206
 C1027 C 0.59230 0.90718 0.25255
 N1028 N 0.58762 0.92180 0.23057
 N1029 N 0.56887 0.94030 0.23051
 C1030 C 0.55431 0.94504 0.25252
 N1031 N 0.55908 0.93052 0.27456
 N1032 N 0.57765 0.91183 0.27454
 C1033 C 0.61281 0.88664 0.25251
 N1034 N 0.61333 0.86779 0.27158
 N1035 N 0.63182 0.84902 0.27138
 C1036 C 0.65063 0.84860 0.25227
 N1037 N 0.65020 0.86754 0.23329
 N1038 N 0.63155 0.88615 0.23333
 C1039 C 0.67106 0.82799 0.25208
 N1040 N 0.69330 0.83097 0.23738
 N1041 N 0.71189 0.81231 0.23727
 C1042 C 0.70875 0.78990 0.25162
 N1043 N 0.68648 0.78682 0.26623
 N1044 N 0.66802 0.80561 0.26655
 C1045 C 0.59253 0.09330 0.74956
 N1046 N 0.58770 0.07863 0.77148
 N1047 N 0.56905 0.06007 0.77131
 C1048 C 0.55475 0.05530 0.74913
 N1049 N 0.55966 0.06986 0.72716
 N1050 N 0.57813 0.08863 0.72742
 C1051 C 0.61300 0.11384 0.74982
 N1052 N 0.61359 0.13277 0.73084
 N1053 N 0.63210 0.15149 0.73119
 C1054 C 0.65084 0.15178 0.75038
 N1055 N 0.65033 0.13277 0.76928
 N1056 N 0.63165 0.11422 0.76909
 C1057 C 0.67137 0.17224 0.75064
 N1058 N 0.69367 0.16898 0.76520
 N1059 N 0.71244 0.18743 0.76525
 C1060 C 0.70940 0.20993 0.75099
 N1061 N 0.68706 0.21330 0.73655
 N1062 N 0.66843 0.19471 0.73627
 C1063 C 0.40771 0.90668 0.74861
 N1064 N 0.41440 0.91928 0.77133
 N1065 N 0.43296 0.93794 0.77134
 C1066 C 0.44538 0.94481 0.74861
 N1067 N 0.43865 0.93228 0.72587
 N1068 N 0.42021 0.91349 0.72588
 C1069 C 0.38724 0.88613 0.74868
 N1070 N 0.38313 0.87077 0.72707
 N1071 N 0.36455 0.85210 0.72724
 C1072 C 0.34932 0.84825 0.74897
 N1073 N 0.35339 0.86367 0.77053
 N1074 N 0.37207 0.88221 0.77042
 C1075 C 0.32872 0.82784 0.74926
 N1076 N 0.31100 0.82685 0.76934
 N1077 N 0.29227 0.80838 0.76975
 C1078 C 0.29077 0.79002 0.75027
 N1079 N 0.30838 0.79109 0.73006
 N1080 N 0.32702 0.80970 0.72956
   
