data_POSCAR
  _audit_creation_date              2014-09-24
  _audit_creation_method            'ToBaCCo'
  _symmetry_space_group_name_H-M    'P1'
  _symmetry_Int_Tables_number       1
  _symmetry_cell_setting            triclinic
  loop_
  _symmetry_equiv_pos_as_xyz
 x,y,z
_cell_length_a 26.1689
_cell_length_b 26.2591
_cell_length_c 26.2911
_cell_angle_alpha 89.952700
_cell_angle_beta 89.678500
_cell_angle_gamma 89.776000
loop_
  _atom_site_label
  _atom_site_type_symbol
  _atom_site_fract_x
  _atom_site_fract_y
  _atom_site_fract_z
C1 C 0.29279 1.14625 -0.02388
 C2 C 0.29528 1.14669 0.02797
 C3 C 0.26776 1.10513 0.04514
 N4 N 0.24941 1.07855 0.00519
 C5 C 0.26358 1.10465 -0.03702
 C6 C 0.26239 1.09112 0.09693
 C7 C 0.26627 1.03905 0.11103
 C8 C 0.29057 1.02231 0.15456
 C9 C 0.29010 0.97053 0.15355
 C10 C 0.26543 0.95599 0.10953
 N11 N 0.25229 0.99818 0.08270
 C12 C 0.25970 0.90458 0.09405
 C13 C 0.26524 0.89121 0.04230
 C14 C 0.29205 0.84899 0.02548
 C15 C 0.29212 0.85114 -0.02638
 C16 C 0.26406 0.89378 -0.04013
 N17 N 0.24903 0.91935 0.00224
 C18 C 0.25020 0.90756 -0.09065
 C19 C 0.23523 0.95862 -0.10119
 C20 C 0.20476 0.97479 -0.14125
 C21 C 0.20376 1.02720 -0.13977
 C22 C 0.23342 1.04183 -0.09882
 N23 N 0.25134 0.99979 -0.07477
 C24 C 0.24781 1.09240 -0.08680
 H25 H 0.31292 1.17187 -0.04885
 H26 H 0.31827 1.17234 0.05002
 H27 H 0.27789 0.99939 -0.04527
 H28 H 0.31146 1.04450 0.18180
 H29 H 0.31064 0.94693 0.17991
 H30 H 0.31318 0.82174 0.04795
 H31 H 0.31321 0.82566 -0.05072
 H32 H 0.18309 1.05152 -0.16573
 H33 H 0.23175 0.99890 0.04892
 H34 H 0.18451 0.95162 -0.16843
 C35 C 0.79339 0.47741 0.64915
 C36 C 0.79301 0.52936 0.64765
 C37 C 0.76616 0.54347 0.60471
 N38 N 0.75182 0.50134 0.57865
 C39 C 0.76753 0.46082 0.60658
 C40 C 0.75213 0.59413 0.59183
 C41 C 0.73564 0.60647 0.54185
 C42 C 0.70767 0.64941 0.52849
 C43 C 0.70441 0.64982 0.47643
 C44 C 0.72980 0.60680 0.45900
 N45 N 0.74782 0.57990 0.49919
 C46 C 0.73361 0.59257 0.40708
 C47 C 0.72975 0.54075 0.39282
 C48 C 0.70623 0.52346 0.34907
 C49 C 0.70937 0.47149 0.34993
 C50 C 0.73534 0.45836 0.39389
 N51 N 0.74649 0.50081 0.42081
 C52 C 0.75175 0.40863 0.40724
 C53 C 0.76637 0.39682 0.45785
 C54 C 0.79550 0.35506 0.47202
 C55 C 0.79590 0.35361 0.52408
 C56 C 0.76786 0.39516 0.54076
 N57 N 0.75080 0.42213 0.50020
 C58 C 0.76252 0.40902 0.59245
 H59 H 0.81428 0.45493 0.67635
 H60 H 0.81278 0.55354 0.67397
 H61 H 0.72599 0.45328 0.50148
 H62 H 0.68976 0.67703 0.55332
 H63 H 0.68307 0.67729 0.45439
 H64 H 0.68584 0.54543 0.32091
 H65 H 0.69252 0.44665 0.32202
 H66 H 0.81765 0.32702 0.54675
 H67 H 0.77149 0.54793 0.49737
 H68 H 0.81635 0.32936 0.44767
 C69 C 0.70586 1.02246 1.15112
 C70 C 0.70561 0.97060 1.14845
 C71 C 0.73483 0.95696 1.10652
 N72 N 0.75075 0.99942 1.08177
 C73 C 0.73398 1.03944 1.10987
 C74 C 0.74886 0.90638 1.09273
 C75 C 0.76440 0.89590 1.04197
 C76 C 0.79507 0.85558 1.02601
 C77 C 0.79588 0.85678 0.97368
 C78 C 0.76596 0.89785 0.95903
 N79 N 0.74809 0.92227 1.00087
 C80 C 0.75145 0.90984 0.90864
 C81 C 0.73677 0.96024 0.89614
 C82 C 0.70953 0.97454 0.85359
 C83 C 0.70760 1.02644 0.85344
 C84 C 0.73334 1.04265 0.89621
 N85 N 0.75024 1.00203 0.92310
 C86 C 0.73841 1.09422 0.91071
 C87 C 0.73407 1.10841 0.96246
 C88 C 0.70962 1.15226 0.97870
 C89 C 0.70923 1.15108 1.03049
 C90 C 0.73420 1.10692 1.04537
 N91 N 0.74780 1.07998 1.00339
 C92 C 0.73983 1.09138 1.09691
 H93 H 0.68401 1.04490 1.17793
 H94 H 0.68358 0.94620 1.17291
 H95 H 0.76852 1.04606 1.00274
 H96 H 0.81541 0.82834 1.04927
 H97 H 0.81661 0.83057 0.94945
 H98 H 0.69031 0.95050 0.82687
 H99 H 0.68598 1.04912 0.82699
 H100 H 0.68815 1.17747 1.05399
 H101 H 0.72132 0.95186 1.00128
 H102 H 0.68922 1.17985 0.95612
 C103 C 0.29136 0.52738 0.65283
 C104 C 0.29286 0.47534 0.65349
 C105 C 0.26864 0.45892 0.60976
 N106 N 0.25314 0.49948 0.58197
 C107 C 0.26577 0.54148 0.60903
 C108 C 0.26331 0.40727 0.59523
 C109 C 0.26852 0.39312 0.54356
 C110 C 0.29477 0.35039 0.52660
 C111 C 0.29240 0.35083 0.47452
 C112 C 0.26420 0.39344 0.46079
 N113 N 0.25096 0.41987 0.50321
 C114 C 0.24835 0.40551 0.41068
 C115 C 0.23353 0.45582 0.39797
 C116 C 0.20641 0.46966 0.35514
 C117 C 0.20453 0.52157 0.35442
 C118 C 0.23000 0.53821 0.39719
 N119 N 0.24680 0.49790 0.42458
 C120 C 0.23453 0.58986 0.41147
 C121 C 0.23036 0.60405 0.46318
 C122 C 0.20352 0.64621 0.48036
 C123 C 0.20621 0.64576 0.53236
 C124 C 0.23528 0.60375 0.54586
 N125 N 0.24880 0.57757 0.50336
 C126 C 0.25091 0.59181 0.59603
 H127 H 0.30896 0.55163 0.68071
 H128 H 0.31271 0.45271 0.68150
 H129 H 0.27324 0.54617 0.50153
 H130 H 0.31602 0.32308 0.54898
 H131 H 0.31090 0.32352 0.44990
 H132 H 0.18741 0.44528 0.32849
 H133 H 0.18308 0.54396 0.32758
 H134 H 0.18677 0.67218 0.55719
 H135 H 0.22685 0.45154 0.50490
 H136 H 0.18120 0.67273 0.45820
 C137 C 1.14821 0.29265 -0.02139
 C138 C 1.14772 0.29065 0.03040
 C139 C 1.10703 0.26012 0.04431
 N140 N 1.08131 0.24482 0.00234
 C141 C 1.10765 0.26359 -0.03795
 C142 C 1.09460 0.24570 0.09487
 C143 C 1.04399 0.22998 0.10700
 C144 C 1.02979 0.20089 0.14888
 C145 C 0.97748 0.19894 0.14944
 C146 C 0.96082 0.22594 0.10740
 N147 N 1.00154 0.24369 0.08088
 C148 C 0.90896 0.23148 0.09371
 C149 C 0.89420 0.22770 0.04223
 C150 C 0.85047 0.20346 0.02564
 C151 C 0.85056 0.20682 -0.02617
 C152 C 0.89401 0.23379 -0.03992
 N153 N 0.92155 0.24513 0.00205
 C154 C 0.90710 0.24969 -0.08996
 C155 C 0.95845 0.26327 -0.10187
 C156 C 0.97323 0.29381 -0.14232
 C157 C 1.02546 0.29397 -0.14363
 C158 C 1.04183 0.26435 -0.10333
 N159 N 1.00078 0.24676 -0.07701
 C160 C 1.09379 0.25851 -0.08964
 H161 H 1.17276 0.31669 -0.04387
 H162 H 1.17244 0.31225 0.05476
 H163 H 1.00178 0.22147 -0.04641
 H164 H 1.05421 0.18142 0.17560
 H165 H 0.95465 0.17748 0.17624
 H166 H 0.82297 0.18236 0.04798
 H167 H 0.82272 0.18913 -0.05053
 H168 H 1.04848 0.31674 -0.16904
 H169 H 1.00019 0.26801 0.04953
 H170 H 0.94922 0.31612 -0.16690
 C171 C 0.47136 0.79026 0.64990
 C172 C 0.52341 0.79324 0.64964
 C173 C 0.54044 0.76705 0.60715
 N174 N 0.50018 0.74880 0.58085
 C175 C 0.45786 0.76197 0.60781
 C176 C 0.59235 0.76245 0.59245
 C177 C 0.60677 0.76569 0.54065
 C178 C 0.65091 0.78923 0.52389
 C179 C 0.64999 0.78851 0.47216
 C180 C 0.60552 0.76413 0.45784
 N181 N 0.57838 0.75152 0.50006
 C182 C 0.58976 0.75831 0.40665
 C183 C 0.53768 0.76345 0.39396
 C184 C 0.52019 0.79002 0.35216
 C185 C 0.46815 0.78970 0.35509
 C186 C 0.45502 0.76192 0.39781
 N187 N 0.49783 0.74710 0.42262
 C188 C 0.40472 0.74744 0.41183
 C189 C 0.39413 0.73213 0.46238
 C190 C 0.35326 0.70258 0.47833
 C191 C 0.35453 0.70181 0.53071
 C192 C 0.39592 0.73115 0.54533
 N193 N 0.42055 0.74833 0.50336
 C194 C 0.40770 0.74637 0.59563
 H195 H 0.44663 0.80941 0.67657
 H196 H 0.54554 0.81567 0.67573
 H197 H 0.45011 0.77491 0.50280
 H198 H 0.67854 0.80986 0.54593
 H199 H 0.67671 0.80878 0.44852
 H200 H 0.54225 0.81135 0.32482
 H201 H 0.44327 0.81041 0.33026
 H202 H 0.32794 0.68173 0.55497
 H203 H 0.54433 0.73121 0.50112
 H204 H 0.32551 0.68325 0.45500
 C205 C 0.14790 0.79366 0.02924
 C206 C 0.14853 0.79572 -0.02271
 C207 C 0.10503 0.77086 -0.03931
 N208 N 0.07728 0.75460 0.00103
 C209 C 0.10426 0.76722 0.04302
 C210 C 0.09067 0.76548 -0.09096
 C211 C 0.03874 0.77150 -0.10468
 C212 C 0.02204 0.79942 -0.14619
 C213 C -0.03026 0.79754 -0.14563
 C214 C -0.04449 0.76778 -0.10427
 N215 N -0.00204 0.75346 -0.07843
 C216 C -0.09520 0.75223 -0.09238
 C217 C -0.10774 0.73689 -0.04214
 C218 C -0.14892 0.70678 -0.02869
 C219 C -0.14965 0.70415 0.02306
 C220 C -0.10843 0.73205 0.03997
 N221 N -0.08178 0.75104 0.00001
 C222 C -0.09445 0.73627 0.09162
 C223 C -0.04238 0.73134 0.10531
 C224 C -0.02517 0.70287 0.14614
 C225 C 0.02707 0.70519 0.14536
 C226 C 0.04083 0.73556 0.10452
 N227 N -0.00186 0.75022 0.07920
 C228 C 0.09136 0.75137 0.09292
 H229 H 0.17573 0.81133 0.05364
 H230 H 0.17642 0.81604 -0.04526
 H231 H -0.00356 0.77553 0.04866
 H232 H 0.04488 0.82131 -0.17269
 H233 H -0.05471 0.81752 -0.17189
 H234 H -0.17390 0.68590 -0.05337
 H235 H -0.17503 0.68064 0.04526
 H236 H 0.05185 0.68461 0.17066
 H237 H -0.00067 0.72865 -0.04745
 H238 H -0.04756 0.67983 0.17189
 C239 C 0.65147 0.29446 0.52852
 C240 C 0.65124 0.29543 0.47655
 C241 C 0.60725 0.27065 0.46135
 N242 N 0.58011 0.25530 0.50236
 C243 C 0.60786 0.26858 0.54354
 C244 C 0.59215 0.26401 0.41032
 C245 C 0.54015 0.26935 0.39679
 C246 C 0.52294 0.29487 0.35399
 C247 C 0.47056 0.29321 0.35543
 C248 C 0.45687 0.26604 0.39863
 N249 N 0.49968 0.25286 0.42448
 C250 C 0.40648 0.25060 0.41163
 C251 C 0.39441 0.23621 0.46210
 C252 C 0.35214 0.20833 0.47667
 C253 C 0.35241 0.20636 0.52851
 C254 C 0.39506 0.23280 0.54432
 N255 N 0.42156 0.25012 0.50356
 C256 C 0.41009 0.23789 0.59562
 C257 C 0.46214 0.23393 0.60878
 C258 C 0.47979 0.20677 0.65019
 C259 C 0.53200 0.20872 0.64828
 C260 C 0.54525 0.23802 0.60647
 N261 N 0.50220 0.25209 0.58150
 C262 C 0.59565 0.25361 0.59378
 H263 H 0.67989 0.31240 0.55205
 H264 H 0.67889 0.31498 0.45306
 H265 H 0.49999 0.27659 0.55035
 H266 H 0.54537 0.31520 0.32597
 H267 H 0.44574 0.31147 0.32832
 H268 H 0.32546 0.18868 0.45278
 H269 H 0.32644 0.18418 0.55133
 H270 H 0.55702 0.18849 0.67351
 H271 H 0.50151 0.22938 0.45642
 H272 H 0.45772 0.18461 0.67697
 C273 C 1.15219 -0.02592 0.20594
 C274 C 1.15115 0.02607 0.20809
 C275 C 1.10751 0.03963 0.23522
 N276 N 1.08078 -0.00276 0.24769
 C277 C 1.10874 -0.04290 0.23089
 C278 C 1.09358 0.08976 0.25074
 C279 C 1.04210 0.10013 0.26462
 C280 C 1.02572 0.13834 0.29725
 C281 C 0.97320 0.13768 0.29704
 C282 C 0.95871 0.09901 0.26447
 N283 N 1.00095 0.07539 0.24584
 C284 C 0.90798 0.08817 0.24945
 C285 C 0.89496 0.03863 0.23344
 C286 C 0.85126 0.02520 0.20722
 C287 C 0.85044 -0.02683 0.20574
 C288 C 0.89394 -0.04360 0.23062
 N289 N 0.92175 -0.00350 0.24643
 C290 C 0.90819 -0.09512 0.23698
 C291 C 0.95980 -0.10989 0.23101
 C292 C 0.97531 -0.15397 0.20645
 C293 C 1.02736 -0.15342 0.20534
 C294 C 1.04288 -0.10933 0.22975
 N295 N 1.00123 -0.08194 0.24385
 C296 C 1.09466 -0.09475 0.23578
 H297 H 1.18011 -0.04829 0.18528
 H298 H 1.17855 0.05062 0.18963
 H299 H 1.00115 -0.04833 0.26482
 H300 H 1.04899 0.16303 0.32027
 H301 H 0.94868 0.16190 0.31961
 H302 H 0.82350 0.04985 0.18945
 H303 H 0.82245 -0.04922 0.18575
 H304 H 1.05065 -0.18066 0.18505
 H305 H 1.00162 0.04732 0.21772
 H306 H 0.95199 -0.18173 0.18718
 C307 C 0.46935 0.64977 0.70858
 C308 C 0.52154 0.65205 0.70815
 C309 C 0.53880 0.60875 0.73286
 N310 N 0.49877 0.57990 0.74795
 C311 C 0.45606 0.60574 0.73446
 C312 C 0.59077 0.59542 0.73893
 C313 C 0.60689 0.54412 0.73269
 C314 C 0.65225 0.52958 0.70923
 C315 C 0.65358 0.47764 0.70892
 C316 C 0.60882 0.46116 0.73184
 N317 N 0.57976 0.50201 0.74507
 C318 C 0.59482 0.40934 0.73648
 C319 C 0.54311 0.39444 0.73201
 C320 C 0.52657 0.35033 0.70845
 C321 C 0.47442 0.35017 0.71191
 C322 C 0.46054 0.39404 0.73789
 N323 N 0.50256 0.42169 0.74898
 C324 C 0.41058 0.40699 0.75430
 C325 C 0.39850 0.45797 0.76767
 C326 C 0.35792 0.47331 0.79812
 C327 C 0.35611 0.52564 0.79625
 C328 C 0.39584 0.54102 0.76493
 N329 N 0.42217 0.49960 0.74848
 C330 C 0.40593 0.59169 0.74959
 H331 H 0.44450 0.67676 0.69017
 H332 H 0.54384 0.68070 0.68869
 H333 H 0.45127 0.49955 0.72115
 H334 H 0.67986 0.55332 0.69009
 H335 H 0.68243 0.45519 0.68967
 H336 H 0.54915 0.32249 0.68804
 H337 H 0.44996 0.32172 0.69533
 H338 H 0.32936 0.54942 0.81677
 H339 H 0.54543 0.50130 0.76519
 H340 H 0.33282 0.44955 0.82034
 C341 C 1.02941 1.14990 0.79855
 C342 C 0.97724 1.15038 0.79857
 C343 C 0.96197 1.10717 0.77278
 N344 N 1.00315 1.07982 0.75750
 C345 C 1.04466 1.10684 0.77179
 C346 C 0.91059 1.09260 0.76609
 C347 C 0.89653 1.04114 0.77218
 C348 C 0.85378 1.02460 0.79869
 C349 C 0.85448 0.97241 0.79696
 C350 C 0.89725 0.95837 0.76883
 N351 N 0.92356 1.00061 0.75513
 C352 C 0.90933 0.90831 0.75266
 C353 C 0.95953 0.89599 0.73694
 C354 C 0.97309 0.85479 0.70706
 C355 C 1.02519 0.85438 0.70431
 C356 C 1.04198 0.89535 0.73267
 N357 N 1.00173 0.92173 0.75157
 C358 C 1.09376 0.90894 0.73862
 C359 C 1.10797 0.96079 0.73585
 C360 C 1.14932 0.97817 0.70801
 C361 C 1.14881 1.03008 0.71144
 C362 C 1.10777 1.04359 0.74217
 N363 N 1.08181 1.00091 0.75562
 C364 C 1.09561 1.09415 0.75779
 H365 H 1.05292 1.17738 0.81790
 H366 H 0.95356 1.17774 0.81843
 H367 H 1.05052 0.99892 0.78029
 H368 H 0.82624 1.04738 0.81951
 H369 H 0.82711 0.94796 0.81557
 H370 H 0.94826 0.82937 0.68683
 H371 H 1.04778 0.82921 0.68073
 H372 H 1.17403 1.05484 0.69073
 H373 H 0.95525 1.00208 0.73094
 H374 H 1.17488 0.95613 0.68427
 C375 C 0.52050 0.64563 0.20625
 C376 C 0.46834 0.64261 0.20635
 C377 C 0.45545 0.60090 0.23584
 N378 N 0.49824 0.57668 0.25165
 C379 C 0.53797 0.60471 0.23440
 C380 C 0.40542 0.58760 0.25151
 C381 C 0.39493 0.53739 0.26796
 C382 C 0.35410 0.52216 0.29818
 C383 C 0.35503 0.46971 0.29924
 C384 C 0.39635 0.45438 0.26964
 N385 N 0.42113 0.49590 0.25186
 C386 C 0.40812 0.40383 0.25489
 C387 C 0.45846 0.39116 0.23923
 C388 C 0.47232 0.34901 0.21084
 C389 C 0.52442 0.34903 0.20747
 C390 C 0.54108 0.39140 0.23371
 N391 N 0.50063 0.41787 0.25222
 C392 C 0.59286 0.40582 0.23820
 C393 C 0.60722 0.45752 0.23464
 C394 C 0.65173 0.47370 0.21135
 C395 C 0.65081 0.52547 0.21164
 C396 C 0.60592 0.54045 0.23546
 N397 N 0.57855 0.49852 0.24820
 C398 C 0.58992 0.59189 0.24036
 H399 H 0.54283 0.67233 0.18431
 H400 H 0.44308 0.66656 0.18461
 H401 H 0.54412 0.49790 0.26815
 H402 H 0.32649 0.54598 0.31770
 H403 H 0.32830 0.44587 0.31964
 H404 H 0.44778 0.32263 0.19172
 H405 H 0.54691 0.32307 0.18466
 H406 H 0.67782 0.54864 0.19135
 H407 H 0.45063 0.49586 0.22496
 H408 H 0.67966 0.45118 0.19113
 O409 O 0.25436 0.11608 0.18223
 O410 O 0.30707 0.10235 0.25926
 O411 O 0.11669 0.17602 0.25347
 O412 O 0.09756 0.24501 0.30400
 O413 O 0.18042 0.24626 0.11994
 O414 O 0.25242 0.30456 0.10786
 O415 O 0.24526 0.31806 0.38467
 O416 O 0.18960 0.25116 0.39886
 O417 O 0.38026 0.24608 0.32480
 O418 O 0.39885 0.19205 0.25444
 O419 O 0.32026 0.37839 0.25329
 O420 O 0.24949 0.39603 0.19840
 O421 O 0.25156 0.37838 0.32340
 O422 O 0.19227 0.39289 0.24731
 O423 O 0.38092 0.31683 0.25669
 O424 O 0.39602 0.24025 0.19799
 O425 O 0.31835 0.25171 0.38499
 O426 O 0.24614 0.19140 0.40017
 O427 O 0.25508 0.17653 0.12097
 O428 O 0.30778 0.25013 0.10672
 O429 O 0.11834 0.24631 0.18018
 O430 O 0.10396 0.30595 0.24898
 O431 O 0.17848 0.11555 0.25219
 O432 O 0.24556 0.09832 0.30755
 Zr433 Zr 0.24747 0.15620 0.25164
 O434 O 0.29409 0.19960 0.29988
 Zr435 Zr 0.15764 0.24535 0.24985
 O436 O 0.20067 0.29316 0.29798
 Zr437 Zr 0.24910 0.24516 0.16190
 O438 O 0.29626 0.29241 0.20604
 Zr439 Zr 0.24902 0.24920 0.34402
 O440 O 0.20142 0.20089 0.30039
 Zr441 Zr 0.34018 0.24782 0.25583
 O442 O 0.29778 0.19997 0.20710
 Zr443 Zr 0.25092 0.33781 0.25413
 O444 O 0.20324 0.29455 0.20552
 O445 O 0.20097 0.19786 0.20326
 O446 O 0.29796 0.29642 0.30282
 C447 C 0.25801 0.12974 0.13522
 C448 C 0.13122 0.12901 0.25271
 C449 C 0.13295 0.24649 0.13340
 C450 C 0.24838 0.36474 0.37035
 C451 C 0.36569 0.24941 0.37134
 C452 C 0.36715 0.36385 0.25513
 H453 H 0.31497 0.17662 0.32116
 H454 H 0.31785 0.31328 0.18324
 H455 H 0.18023 0.17560 0.18118
 H456 H 0.17740 0.31438 0.31886
 H457 H 0.16258 0.22795 0.38666
 H458 H 0.10835 0.26578 0.33335
 H459 H 0.38782 0.26571 0.17158
 H460 H 0.33503 0.22650 0.11790
 H461 H 0.26775 0.16280 0.38839
 H462 H 0.22245 0.11056 0.33492
 H463 H 0.27471 0.38697 0.17170
 H464 H 0.22925 0.33159 0.12061
 H465 H 0.33440 0.11325 0.23551
 H466 H 0.38963 0.16513 0.27914
 H467 H 0.11441 0.32953 0.22145
 H468 H 0.16474 0.38316 0.27122
 O469 O 0.74804 0.88027 0.17727
 O470 O 0.69413 0.89545 0.25297
 O471 O 0.88144 0.81778 0.24547
 O472 O 0.90046 0.75425 0.29857
 O473 O 0.81986 0.74371 0.11609
 O474 O 0.74341 0.69281 0.10126
 O475 O 0.74030 0.67992 0.38032
 O476 O 0.80014 0.73967 0.39730
 O477 O 0.61525 0.75136 0.31835
 O478 O 0.60100 0.80740 0.24342
 O479 O 0.67649 0.61955 0.24649
 O480 O 0.75755 0.60534 0.19142
 O481 O 0.74070 0.61895 0.31974
 O482 O 0.79869 0.59762 0.25347
 O483 O 0.61493 0.68018 0.24646
 O484 O 0.60049 0.75408 0.19158
 O485 O 0.67663 0.75257 0.37853
 O486 O 0.75457 0.80919 0.39014
 O487 O 0.75052 0.82014 0.11576
 O488 O 0.69263 0.75185 0.10050
 O489 O 0.88084 0.74245 0.17678
 O490 O 0.89040 0.68597 0.25101
 O491 O 0.82089 0.87946 0.24355
 O492 O 0.75396 0.89573 0.30331
 Zr493 Zr 0.75173 0.83944 0.24586
 O494 O 0.70241 0.79723 0.29303
 Zr495 Zr 0.84007 0.74902 0.24575
 O496 O 0.79543 0.70308 0.29444
 Zr497 Zr 0.75026 0.75064 0.15655
 O498 O 0.70202 0.70385 0.20056
 Zr499 Zr 0.74597 0.74802 0.33849
 O500 O 0.79613 0.79455 0.29543
 Zr501 Zr 0.65657 0.74901 0.24894
 O502 O 0.70128 0.79652 0.20096
 Zr503 Zr 0.74594 0.65887 0.25029
 O504 O 0.79468 0.70074 0.20121
 O505 O 0.79851 0.79648 0.19815
 O506 O 0.69735 0.70100 0.29720
 C507 C 0.74883 0.86701 0.13022
 C508 C 0.86769 0.86482 0.24224
 C509 C 0.86688 0.73994 0.13001
 C510 C 0.73763 0.63309 0.36649
 C511 C 0.62961 0.75442 0.36504
 C512 C 0.62947 0.63333 0.24412
 H513 H 0.68162 0.82120 0.31349
 H514 H 0.68135 0.68304 0.17712
 H515 H 0.82056 0.81697 0.17536
 H516 H 0.81743 0.68197 0.31656
 H517 H 0.83137 0.75752 0.38584
 H518 H 0.88963 0.73563 0.32946
 H519 H 0.61144 0.73136 0.16358
 H520 H 0.66684 0.77720 0.11174
 H521 H 0.72880 0.83534 0.38149
 H522 H 0.78067 0.88520 0.32773
 H523 H 0.73055 0.61157 0.16602
 H524 H 0.76758 0.66559 0.11123
 H525 H 0.66593 0.88409 0.23089
 H526 H 0.60877 0.83295 0.26982
 H527 H 0.87806 0.66027 0.22651
 H528 H 0.82609 0.60714 0.27736
 O529 O 0.74600 0.12041 0.82362
 O530 O 0.69534 0.10609 0.74677
 O531 O 0.88441 0.17933 0.75609
 O532 O 0.90419 0.24225 0.70164
 O533 O 0.82141 0.25225 0.88480
 O534 O 0.75262 0.30806 0.89985
 O535 O 0.75691 0.32108 0.61919
 O536 O 0.81476 0.24757 0.60852
 O537 O 0.62216 0.25389 0.68061
 O538 O 0.60694 0.19624 0.75696
 O539 O 0.68273 0.38294 0.74417
 O540 O 0.74909 0.40334 0.80139
 O541 O 0.75731 0.38229 0.67965
 O542 O 0.81209 0.39515 0.75873
 O543 O 0.62151 0.32264 0.74513
 O544 O 0.60341 0.25433 0.80502
 O545 O 0.68371 0.25150 0.61986
 O546 O 0.74775 0.19732 0.60180
 O547 O 0.74597 0.18183 0.88398
 O548 O 0.69164 0.25815 0.89580
 O549 O 0.88349 0.25115 0.82460
 O550 O 0.89717 0.30864 0.75042
 O551 O 0.82305 0.11888 0.75948
 O552 O 0.75753 0.10323 0.69811
 Zr553 Zr 0.75411 0.16036 0.75471
 O554 O 0.70772 0.20404 0.70602
 Zr555 Zr 0.84384 0.24854 0.75514
 O556 O 0.80179 0.29604 0.70572
 Zr557 Zr 0.75258 0.25098 0.84324
 O558 O 0.70656 0.29888 0.79821
 Zr559 Zr 0.75298 0.25201 0.66060
 O560 O 0.80023 0.20354 0.70518
 Zr561 Zr 0.66234 0.25405 0.74944
 O562 O 0.70402 0.20575 0.79863
 Zr563 Zr 0.75223 0.34233 0.74894
 O564 O 0.79890 0.29916 0.79886
 O565 O 0.80015 0.20265 0.80262
 O566 O 0.70498 0.30083 0.70106
 C567 C 0.74268 0.13486 0.87020
 C568 C 0.87011 0.13275 0.76041
 C569 C 0.86886 0.25164 0.87141
 C570 C 0.75943 0.36811 0.63294
 C571 C 0.63651 0.25294 0.63388
 C572 C 0.63570 0.36914 0.74155
 H573 H 0.68684 0.18102 0.68493
 H574 H 0.68505 0.32082 0.82016
 H575 H 0.82042 0.18104 0.82591
 H576 H 0.82586 0.31605 0.68466
 H577 H 0.83625 0.21821 0.61882
 H578 H 0.89269 0.25919 0.67010
 H579 H 0.61033 0.28214 0.82934
 H580 H 0.66468 0.23466 0.88407
 H581 H 0.74275 0.16400 0.61849
 H582 H 0.78556 0.11263 0.67448
 H583 H 0.73098 0.39099 0.83206
 H584 H 0.77428 0.33595 0.88658
 H585 H 0.66837 0.11576 0.77148
 H586 H 0.61576 0.16962 0.73188
 H587 H 0.88660 0.33391 0.77631
 H588 H 0.83688 0.38934 0.73079
 O589 O 0.24804 0.88389 0.82331
 O590 O 0.30605 0.89790 0.75462
 O591 O 0.11760 0.82348 0.74403
 O592 O 0.09588 0.75005 0.70210
 O593 O 0.17577 0.75607 0.88457
 O594 O 0.24164 0.69695 0.90110
 O595 O 0.25322 0.67951 0.62212
 O596 O 0.18996 0.75103 0.60969
 O597 O 0.37984 0.74605 0.68292
 O598 O 0.39478 0.80513 0.75909
 O599 O 0.31734 0.61786 0.75042
 O600 O 0.24446 0.60283 0.80839
 O601 O 0.24556 0.61896 0.68298
 O602 O 0.18892 0.60541 0.75679
 O603 O 0.37861 0.67824 0.75465
 O604 O 0.39738 0.74903 0.80767
 O605 O 0.31998 0.74903 0.62119
 O606 O 0.25379 0.80381 0.60274
 O607 O 0.24960 0.82258 0.88381
 O608 O 0.30395 0.74577 0.89768
 O609 O 0.11533 0.75874 0.82356
 O610 O 0.10344 0.69374 0.75588
 O611 O 0.17894 0.88393 0.74772
 O612 O 0.25477 0.89649 0.69518
 Zr613 Zr 0.24772 0.84239 0.75426
 O614 O 0.29542 0.79751 0.70744
 Zr615 Zr 0.15677 0.75416 0.75433
 O616 O 0.20044 0.70585 0.70663
 Zr617 Zr 0.24495 0.75339 0.84380
 O618 O 0.29235 0.70437 0.80100
 Zr619 Zr 0.25094 0.74914 0.66212
 O620 O 0.20268 0.79825 0.70485
 Zr621 Zr 0.33886 0.74773 0.75239
 O622 O 0.29587 0.79719 0.79993
 Zr623 Zr 0.24811 0.65990 0.75172
 O624 O 0.19998 0.70430 0.79976
 O625 O 0.19891 0.80156 0.80105
 O626 O 0.29745 0.70043 0.70429
 C627 C 0.24955 0.86970 0.87024
 C628 C 0.13201 0.87030 0.74262
 C629 C 0.12895 0.76007 0.87058
 C630 C 0.24988 0.63269 0.63626
 C631 C 0.36660 0.74703 0.63582
 C632 C 0.36451 0.63161 0.75184
 H633 H 0.31738 0.82001 0.68667
 H634 H 0.31290 0.68302 0.82421
 H635 H 0.17728 0.82508 0.82129
 H636 H 0.17746 0.68545 0.68504
 H637 H 0.16687 0.77927 0.61992
 H638 H 0.11020 0.73811 0.66937
 H639 H 0.38822 0.72439 0.83467
 H640 H 0.33195 0.76795 0.88555
 H641 H 0.27524 0.83245 0.61419
 H642 H 0.23148 0.88522 0.66792
 H643 H 0.26497 0.61467 0.83748
 H644 H 0.21772 0.67056 0.88893
 H645 H 0.33140 0.88684 0.78022
 H646 H 0.38509 0.83288 0.73563
 H647 H 0.11193 0.67208 0.78553
 H648 H 0.16286 0.61452 0.73121
 O649 O 0.25533 0.38093 0.68210
 O650 O 0.19615 0.39693 0.75055
 O651 O 0.38368 0.31977 0.75881
 O652 O 0.40505 0.25322 0.80471
 O653 O 0.32304 0.24350 0.62290
 O654 O 0.24654 0.19243 0.60882
 O655 O 0.24552 0.18006 0.88641
 O656 O 0.30874 0.24923 0.89923
 O657 O 0.11921 0.25363 0.82489
 O658 O 0.10677 0.30826 0.74587
 O659 O 0.18135 0.11854 0.75699
 O660 O 0.25846 0.10375 0.69971
 O661 O 0.25048 0.11857 0.82618
 O662 O 0.30672 0.10105 0.75622
 O663 O 0.12030 0.17960 0.75683
 O664 O 0.10111 0.24640 0.70171
 O665 O 0.17959 0.25257 0.88608
 O666 O 0.25092 0.30656 0.90197
 O667 O 0.25754 0.31966 0.62170
 O668 O 0.19619 0.25321 0.60760
 O669 O 0.38421 0.24541 0.68344
 O670 O 0.39438 0.18784 0.75782
 O671 O 0.32308 0.38140 0.75276
 O672 O 0.25007 0.39590 0.80938
 Zr673 Zr 0.25413 0.34060 0.75125
 O674 O 0.20564 0.29815 0.79925
 Zr675 Zr 0.34344 0.25047 0.75307
 O676 O 0.29906 0.20433 0.80179
 Zr677 Zr 0.25409 0.25089 0.66335
 O678 O 0.20622 0.20385 0.70758
 Zr679 Zr 0.24905 0.24930 0.84542
 O680 O 0.29825 0.29631 0.80160
 Zr681 Zr 0.16060 0.24887 0.75575
 O682 O 0.20431 0.29644 0.70688
 Zr683 Zr 0.25047 0.15924 0.75732
 O684 O 0.29882 0.20157 0.70830
 O685 O 0.30216 0.29740 0.70502
 O686 O 0.20149 0.20122 0.80436
 C687 C 0.25871 0.36669 0.63547
 C688 C 0.36986 0.36685 0.75605
 C689 C 0.36996 0.24135 0.63676
 C690 C 0.24767 0.13295 0.87274
 C691 C 0.13266 0.25540 0.87194
 C692 C 0.13421 0.13255 0.75725
 H693 H 0.18453 0.32209 0.81944
 H694 H 0.18517 0.18264 0.68486
 H695 H 0.32542 0.31798 0.68355
 H696 H 0.32161 0.18376 0.82388
 H697 H 0.33507 0.27327 0.88679
 H698 H 0.39321 0.23727 0.83674
 H699 H 0.11577 0.23184 0.67017
 H700 H 0.17128 0.27953 0.61858
 H701 H 0.22989 0.33536 0.88979
 H702 H 0.27465 0.38487 0.83568
 H703 H 0.23380 0.11268 0.67283
 H704 H 0.27135 0.16562 0.61836
 H705 H 0.17118 0.38661 0.72439
 H706 H 0.11474 0.33486 0.77117
 H707 H 0.38417 0.16343 0.73111
 H708 H 0.33295 0.10974 0.78169
 O709 O 0.74952 0.62087 0.67929
 O710 O 0.80613 0.60694 0.75399
 O711 O 0.61630 0.68338 0.74562
 O712 O 0.59946 0.74533 0.80301
 O713 O 0.68028 0.75578 0.61891
 O714 O 0.75621 0.81098 0.60620
 O715 O 0.74927 0.82231 0.88277
 O716 O 0.69105 0.75758 0.89677
 O717 O 0.88092 0.75191 0.82237
 O718 O 0.89838 0.69507 0.75150
 O719 O 0.82184 0.88272 0.75014
 O720 O 0.75125 0.90169 0.69712
 O721 O 0.75360 0.88282 0.82148
 O722 O 0.69427 0.89818 0.74521
 O723 O 0.88235 0.82106 0.75379
 O724 O 0.89775 0.74553 0.69594
 O725 O 0.81905 0.75259 0.88273
 O726 O 0.74562 0.69515 0.89689
 O727 O 0.75379 0.68175 0.61837
 O728 O 0.80645 0.75131 0.60154
 O729 O 0.61839 0.75715 0.67934
 O730 O 0.60661 0.81365 0.75208
 O731 O 0.67730 0.62223 0.74827
 O732 O 0.74530 0.60381 0.80456
 Zr733 Zr 0.74701 0.66155 0.74846
 O734 O 0.79449 0.70406 0.79679
 Zr735 Zr 0.65845 0.75169 0.74800
 O736 O 0.70205 0.79856 0.79623
 Zr737 Zr 0.74985 0.75083 0.65924
 O738 O 0.79752 0.79732 0.70350
 Zr739 Zr 0.75007 0.75361 0.84158
 O740 O 0.70170 0.70613 0.79791
 Zr741 Zr 0.84109 0.75225 0.75312
 O742 O 0.79804 0.70499 0.70418
 Zr743 Zr 0.75250 0.84270 0.75202
 O744 O 0.70444 0.80032 0.70334
 O745 O 0.70115 0.70456 0.70056
 O746 O 0.79927 0.80074 0.80050
 C747 C 0.75230 0.63482 0.63240
 C748 C 0.63045 0.63638 0.74452
 C749 C 0.63305 0.75935 0.63275
 C750 C 0.75157 0.86905 0.86844
 C751 C 0.86644 0.75225 0.86914
 C752 C 0.86863 0.86812 0.75220
 H753 H 0.81509 0.68064 0.81786
 H754 H 0.81924 0.81804 0.68068
 H755 H 0.67976 0.68376 0.67771
 H756 H 0.67910 0.81973 0.81753
 H757 H 0.66365 0.73441 0.88536
 H758 H 0.60810 0.76812 0.83161
 H759 H 0.88774 0.76852 0.66794
 H760 H 0.83428 0.72856 0.61321
 H761 H 0.76535 0.66574 0.88394
 H762 H 0.71988 0.61457 0.83049
 H763 H 0.77486 0.89181 0.66929
 H764 H 0.73078 0.83699 0.61665
 H765 H 0.83374 0.61887 0.73111
 H766 H 0.89002 0.66965 0.77802
 H767 H 0.61693 0.83807 0.72527
 H768 H 0.66810 0.89024 0.77121
 O769 O 0.24219 0.61600 0.32436
 O770 O 0.18830 0.60268 0.24914
 O771 O 0.37870 0.67447 0.25321
 O772 O 0.40072 0.74646 0.20478
 O773 O 0.31631 0.74791 0.38617
 O774 O 0.24677 0.80348 0.40023
 O775 O 0.25282 0.81644 0.11984
 O776 O 0.30993 0.74217 0.10934
 O777 O 0.11728 0.75021 0.18040
 O778 O 0.10024 0.69393 0.25625
 O779 O 0.17996 0.88011 0.24441
 O780 O 0.24486 0.89857 0.30254
 O781 O 0.25305 0.87711 0.18074
 O782 O 0.30845 0.88935 0.26049
 O783 O 0.11841 0.82032 0.24594
 O784 O 0.09821 0.75052 0.30516
 O785 O 0.17903 0.74829 0.11986
 O786 O 0.24150 0.69342 0.10174
 O787 O 0.24102 0.67721 0.38505
 O788 O 0.18654 0.75210 0.39663
 O789 O 0.37785 0.74382 0.32533
 O790 O 0.39168 0.80360 0.25155
 O791 O 0.31741 0.61381 0.25344
 O792 O 0.24794 0.59763 0.19932
 Zr793 Zr 0.24842 0.65575 0.25494
 O794 O 0.20227 0.69987 0.20639
 Zr795 Zr 0.33838 0.74362 0.25586
 O796 O 0.29673 0.79114 0.20647
 Zr797 Zr 0.24761 0.74594 0.34408
 O798 O 0.20176 0.79428 0.29904
 Zr799 Zr 0.24788 0.74749 0.16106
 O800 O 0.29491 0.69879 0.20547
 Zr801 Zr 0.15725 0.75031 0.24973
 O802 O 0.19873 0.70154 0.29887
 Zr803 Zr 0.24785 0.83758 0.25005
 O804 O 0.29410 0.79415 0.30000
 O805 O 0.29505 0.69722 0.30312
 O806 O 0.20036 0.79674 0.20171
 C807 C 0.23835 0.63036 0.37102
 C808 C 0.36448 0.62772 0.25255
 C809 C 0.36354 0.74658 0.37209
 C810 C 0.25554 0.86329 0.13397
 C811 C 0.13181 0.74982 0.13362
 C812 C 0.13289 0.86684 0.24173
 H813 H 0.18106 0.67709 0.18539
 H814 H 0.18037 0.81631 0.32102
 H815 H 0.31587 0.67491 0.32531
 H816 H 0.32113 0.81090 0.18553
 H817 H 0.32965 0.71112 0.11816
 H818 H 0.38620 0.74770 0.17023
 H819 H 0.10511 0.77834 0.32949
 H820 H 0.15934 0.72930 0.38412
 H821 H 0.23300 0.66049 0.11775
 H822 H 0.27273 0.60776 0.17261
 H823 H 0.22574 0.88666 0.33278
 H824 H 0.26875 0.83123 0.38715
 H825 H 0.16222 0.61309 0.27451
 H826 H 0.10953 0.66645 0.23226
 H827 H 0.38099 0.82857 0.27764
 H828 H 0.33307 0.88344 0.23245
 O829 O 0.75541 0.38052 0.32028
 O830 O 0.80664 0.39634 0.25038
 O831 O 0.61951 0.31864 0.24291
 O832 O 0.59894 0.24353 0.20215
 O833 O 0.67916 0.25330 0.38373
 O834 O 0.74762 0.19486 0.40029
 O835 O 0.74791 0.17580 0.12212
 O836 O 0.69152 0.25296 0.10965
 O837 O 0.88293 0.23963 0.18110
 O838 O 0.89857 0.30182 0.25215
 O839 O 0.82051 0.11569 0.25294
 O840 O 0.75302 0.09657 0.30546
 O841 O 0.74655 0.11511 0.18296
 O842 O 0.68995 0.10512 0.26274
 O843 O 0.88256 0.17554 0.25078
 O844 O 0.89835 0.24889 0.30712
 O845 O 0.82176 0.23850 0.12079
 O846 O 0.76137 0.29603 0.09938
 O847 O 0.75017 0.32089 0.38242
 O848 O 0.80782 0.24698 0.39681
 O849 O 0.61835 0.25675 0.32303
 O850 O 0.60614 0.19021 0.25708
 O851 O 0.68058 0.37926 0.24740
 O852 O 0.75653 0.39104 0.19103
 Zr853 Zr 0.75046 0.33882 0.25187
 O854 O 0.79797 0.29374 0.20518
 Zr855 Zr 0.65965 0.25039 0.25421
 O856 O 0.70277 0.20188 0.20669
 Zr857 Zr 0.74853 0.25127 0.34287
 O858 O 0.79563 0.20190 0.30001
 Zr859 Zr 0.75276 0.24499 0.16134
 O860 O 0.70477 0.29430 0.20381
 Zr861 Zr 0.84186 0.24452 0.25016
 O862 O 0.79909 0.29435 0.29755
 Zr863 Zr 0.75096 0.15660 0.25189
 O864 O 0.70330 0.20127 0.30016
 O865 O 0.70215 0.29867 0.29972
 O866 O 0.79948 0.19651 0.20336
 C867 C 0.75308 0.36742 0.36744
 C868 C 0.63371 0.36536 0.24205
 C869 C 0.63235 0.25786 0.36978
 C870 C 0.74448 0.12905 0.13596
 C871 C 0.86869 0.23602 0.13453
 C872 C 0.86778 0.12904 0.25140
 H873 H 0.81982 0.31563 0.18366
 H874 H 0.81622 0.18071 0.32336
 H875 H 0.68076 0.32244 0.31992
 H876 H 0.67876 0.18168 0.18603
 H877 H 0.67230 0.28435 0.11861
 H878 H 0.61443 0.24209 0.16787
 H879 H 0.88838 0.22498 0.33443
 H880 H 0.83440 0.27095 0.38494
 H881 H 0.77661 0.32771 0.11251
 H882 H 0.73120 0.38018 0.16544
 H883 H 0.76542 0.11127 0.33770
 H884 H 0.72248 0.16894 0.38963
 H885 H 0.83734 0.38138 0.26646
 H886 H 0.89476 0.32335 0.22151
 H887 H 0.61363 0.16999 0.28798
 H888 H 0.66479 0.11199 0.23565
   
