data_POSCAR
  _audit_creation_date              2014-09-24
  _audit_creation_method            'ToBaCCo'
  _symmetry_space_group_name_H-M    'P1'
  _symmetry_Int_Tables_number       1
  _symmetry_cell_setting            triclinic
  loop_
  _symmetry_equiv_pos_as_xyz
 x,y,z
_cell_length_a 35.1859
_cell_length_b 23.9281
_cell_length_c 15.5440
_cell_angle_alpha 90.044600
_cell_angle_beta 89.576600
_cell_angle_gamma 90.518700
loop_
  _atom_site_label
  _atom_site_type_symbol
  _atom_site_fract_x
  _atom_site_fract_y
  _atom_site_fract_z
O1 O 0.73748 0.31569 0.58646
 O2 O 0.79653 0.25816 0.41103
 O3 O 0.73353 0.31564 0.42056
 O4 O 0.80095 0.26024 0.57806
 O5 O 0.76853 0.18083 0.58317
 O6 O 0.70088 0.23645 0.42557
 O7 O 0.76389 0.17904 0.41743
 O8 O 0.70493 0.23643 0.59289
 Cu9 Cu 0.77045 0.29530 0.49831
 Cu10 Cu 0.73121 0.20032 0.50529
 C11 C 0.71091 0.28608 0.61892
 C12 C 0.79067 0.20835 0.38524
 C13 C 0.70535 0.28589 0.39734
 C14 C 0.79655 0.21092 0.60656
 O15 O 0.23847 0.82111 0.58031
 O16 O 0.30043 0.75978 0.41421
 O17 O 0.23929 0.81989 0.41352
 O18 O 0.29945 0.75961 0.58254
 O19 O 0.26409 0.68289 0.58169
 O20 O 0.20408 0.74300 0.41268
 O21 O 0.26522 0.68287 0.41498
 O22 O 0.20327 0.74428 0.58110
 Cu23 Cu 0.27303 0.79774 0.49779
 Cu24 Cu 0.23053 0.70565 0.49774
 C25 C 0.21020 0.79333 0.60883
 C26 C 0.29334 0.71091 0.38628
 C27 C 0.21152 0.79169 0.38423
 C28 C 0.29207 0.71076 0.61057
 O29 O 0.29792 0.23365 -0.41879
 O30 O 0.23008 0.18443 -0.58143
 O31 O 0.29626 0.23622 -0.58683
 O32 O 0.23073 0.18609 -0.41597
 O33 O 0.20283 0.26834 -0.41348
 O34 O 0.26781 0.31808 -0.58380
 O35 O 0.20183 0.26640 -0.57999
 O36 O 0.26979 0.31574 -0.41676
 Cu37 Cu 0.26673 0.20197 -0.50114
 Cu38 Cu 0.23289 0.30042 -0.49850
 C39 C 0.29553 0.28315 -0.39024
 C40 C 0.20372 0.21630 -0.60671
 C41 C 0.29329 0.28617 -0.61375
 C42 C 0.20510 0.21839 -0.38681
 O43 O -0.19781 0.73758 -0.39943
 O44 O -0.25546 0.67545 -0.56846
 O45 O -0.19908 0.74859 -0.56547
 O46 O -0.26161 0.68009 -0.40300
 O47 O -0.29606 0.75681 -0.39893
 O48 O -0.23781 0.82069 -0.56659
 O49 O -0.29425 0.74752 -0.56526
 O50 O -0.23231 0.81424 -0.40117
 Cu51 Cu -0.22486 0.70320 -0.48432
 Cu52 Cu -0.26870 0.79203 -0.48299
 C53 C -0.20418 0.78662 -0.37302
 C54 C -0.28537 0.69918 -0.59337
 C55 C -0.20776 0.79725 -0.59228
 C56 C -0.28985 0.70748 -0.37403
 N57 N 0.04490 0.94995 -0.15506
 N58 N 0.07111 0.94393 -0.21540
 N59 N -0.03275 0.90064 -0.09626
 N60 N -0.06222 0.86637 -0.10320
 N61 N -0.03504 0.94136 -0.15256
 N62 N -0.06607 0.93601 -0.19907
 N63 N 0.04710 0.90979 -0.09792
 N64 N 0.07456 0.87484 -0.11852
 C65 C 0.08951 0.89718 -0.19148
 C66 C -0.08262 0.88891 -0.16780
 N67 N -0.03540 0.93325 0.14875
 N68 N -0.06036 0.91651 0.20748
 N69 N 0.04715 0.90576 0.08894
 N70 N 0.07527 0.87110 0.10546
 N71 N 0.04437 0.94362 0.14991
 N72 N 0.07072 0.93642 0.20849
 N73 N -0.03203 0.89534 0.08808
 N74 N -0.05414 0.85177 0.10414
 Mn75 Mn 0.00756 0.90232 -0.00453
 C76 C -0.07205 0.86589 0.17788
 C77 C 0.08988 0.89139 0.17994
 N78 N -0.04024 1.06100 -0.14667
 N79 N -0.06873 1.06681 -0.20052
 N80 N 0.03829 1.10714 -0.08702
 N81 N 0.06690 1.14302 -0.09551
 N82 N 0.03968 1.06909 -0.14786
 N83 N 0.06933 1.07750 -0.19857
 N84 N -0.04166 1.09916 -0.08608
 N85 N -0.07107 1.13222 -0.09726
 Mn86 Mn 0.00226 1.00538 -0.15144
 C87 C -0.08779 1.11122 -0.16860
 C88 C 0.08600 1.12378 -0.16542
 N89 N 0.03882 1.06294 0.15606
 N90 N 0.06783 1.07052 0.20820
 N91 N -0.04210 1.09520 0.09929
 N92 N -0.06989 1.13001 0.11830
 N93 N -0.04119 1.05410 0.15522
 N94 N -0.06839 1.05967 0.21341
 N95 N 0.03757 1.10322 0.09887
 N96 N 0.06540 1.13970 0.11118
 Mn97 Mn 0.00149 0.99852 0.15338
 Mn98 Mn -0.00196 1.10192 0.00626
 Cl99 Cl 0.00234 1.00201 0.00109
 C100 C 0.08406 1.11860 0.17949
 C101 C -0.08620 1.10693 0.18928
 N102 N 0.46568 0.43855 0.15766
 N103 N 0.43927 0.43047 0.21701
 N104 N 0.54464 0.40319 0.09066
 N105 N 0.57265 0.36801 0.10426
 N106 N 0.54552 0.44416 0.14700
 N107 N 0.57418 0.43795 0.20036
 N108 N 0.46485 0.39825 0.10025
 N109 N 0.43798 0.36121 0.11977
 C110 C 0.42223 0.38222 0.19278
 C111 C 0.59099 0.39049 0.17240
 N112 N 0.54001 0.43831 -0.15398
 N113 N 0.56686 0.43101 -0.21237
 N114 N 0.46148 0.39492 -0.08651
 N115 N 0.43292 0.35898 -0.09477
 N116 N 0.46022 0.43315 -0.14698
 N117 N 0.43073 0.42487 -0.19713
 N118 N 0.54149 0.39945 -0.09458
 N119 N 0.56947 0.36440 -0.11125
 Mn120 Mn 0.50301 0.39816 0.00250
 C121 C 0.58510 0.38501 -0.18486
 C122 C 0.41394 0.37858 -0.16397
 N123 N 0.54176 0.56539 0.14241
 N124 N 0.56755 0.58131 0.19903
 N125 N 0.45870 0.59573 0.09144
 N126 N 0.43084 0.63058 0.10971
 N127 N 0.46193 0.55805 0.15236
 N128 N 0.43608 0.56563 0.21288
 N129 N 0.53796 0.60374 0.08276
 N130 N 0.56074 0.64674 0.09741
 Mn131 Mn 0.50392 0.50150 0.15070
 C132 C 0.57944 0.63183 0.16918
 C133 C 0.41687 0.61074 0.18541
 N134 N 0.45688 0.55225 -0.15275
 N135 N 0.43024 0.55910 -0.21088
 N136 N 0.53583 0.59887 -0.10114
 N137 N 0.56635 0.63104 -0.10811
 N138 N 0.53696 0.55820 -0.15790
 N139 N 0.56828 0.56161 -0.20492
 N140 N 0.45588 0.59248 -0.09539
 N141 N 0.42876 0.62840 -0.11387
 Mn142 Mn 0.49859 0.49548 -0.15370
 Mn143 Mn 0.49686 0.59825 -0.00579
 Cl144 Cl 0.50057 0.49831 -0.00139
 C145 C 0.41277 0.60643 -0.18564
 C146 C 0.58613 0.60749 -0.17338
 C147 C 0.32023 0.30932 0.32227
 C148 C 0.34781 0.27931 0.28483
 C149 C 0.37756 0.30492 0.22903
 C150 C 0.39075 0.35688 0.24235
 H151 H 0.34885 0.23458 0.29499
 H152 H 0.39091 0.27879 0.18080
 H153 H 0.31776 0.35338 0.30765
 H154 H 0.37954 0.38150 0.29504
 C155 C -0.18381 0.82763 0.35315
 C156 C -0.15080 0.80870 0.32267
 C157 C -0.12498 0.84707 0.27633
 C158 C -0.09828 0.82795 0.22329
 H159 H -0.14235 0.76580 0.33336
 H160 H -0.12831 0.89179 0.28469
 H161 H -0.19192 0.87016 0.33802
 H162 H -0.09645 0.78354 0.21030
 C163 C 0.68956 0.66732 0.34898
 C164 C 0.65799 0.68762 0.31449
 C165 C 0.63196 0.64976 0.26815
 C166 C 0.60637 0.66918 0.21332
 H167 H 0.65091 0.73135 0.32203
 H168 H 0.63405 0.60506 0.27856
 H169 H 0.69661 0.62384 0.33792
 H170 H 0.60564 0.71346 0.19882
 C171 C 0.17549 1.19600 0.33852
 C172 C 0.17282 1.14171 0.31711
 C173 C 0.13987 1.11706 0.27224
 C174 C 0.11771 1.14515 0.21801
 H175 H 0.19346 1.11236 0.34119
 H176 H 0.13418 1.07314 0.28403
 H177 H 0.15354 1.22467 0.31897
 H178 H 0.12445 1.18785 0.20027
 C179 C 0.68599 0.31129 -0.31543
 C180 C 0.65871 0.28228 -0.27394
 C181 C 0.62999 0.30894 -0.21766
 C182 C 0.61689 0.36031 -0.23303
 H183 H 0.65686 0.23735 -0.28174
 H184 H 0.61671 0.28351 -0.16805
 H185 H 0.68949 0.35562 -0.30337
 H186 H 0.62791 0.38417 -0.28701
 C187 C 0.18645 0.81809 -0.33013
 C188 C 0.15705 0.79101 -0.29312
 C189 C 0.13001 0.81857 -0.23409
 C190 C 0.11983 0.87198 -0.24355
 H191 H 0.15259 0.74681 -0.30496
 H192 H 0.11545 0.79256 -0.18707
 H193 H 0.19231 0.86115 -0.31266
 H194 H 0.13182 0.89695 -0.29527
 C195 C 0.31653 0.68460 -0.32465
 C196 C 0.34432 0.71247 -0.28392
 C197 C 0.37150 0.68511 -0.22548
 C198 C 0.38226 0.63198 -0.23590
 H199 H 0.34747 0.75714 -0.29317
 H200 H 0.38558 0.71106 -0.17808
 H201 H 0.31156 0.64074 -0.31111
 H202 H 0.37061 0.60710 -0.28773
 C203 C -0.17482 1.18846 -0.33463
 C204 C -0.17203 1.13358 -0.31916
 C205 C -0.14024 1.10900 -0.27122
 C206 C -0.12129 1.13589 -0.20909
 H207 H -0.19151 1.10466 -0.34997
 H208 H -0.13256 1.06656 -0.28779
 H209 H -0.15370 1.21730 -0.30981
 H210 H -0.13027 1.17670 -0.18732
 C211 C 0.68258 0.68243 -0.31407
 C212 C 0.67740 0.62716 -0.30672
 C213 C 0.64355 0.60247 -0.26389
 C214 C 0.62263 0.62957 -0.20505
 H215 H 0.69572 0.59913 -0.34235
 H216 H 0.63500 0.56093 -0.28422
 H217 H 0.66260 0.71093 -0.28482
 H218 H 0.63189 0.66944 -0.17953
 C219 C 0.17798 1.19895 -0.32766
 C220 C 0.17566 1.14516 -0.30374
 C221 C 0.14289 1.12127 -0.25620
 C222 C 0.12051 1.14993 -0.20204
 H223 H 0.19602 1.11544 -0.32876
 H224 H 0.13700 1.07734 -0.26741
 H225 H 0.15638 1.22795 -0.30641
 H226 H 0.12731 1.19263 -0.18451
 C227 C 0.32394 0.30304 -0.32797
 C228 C 0.32634 0.35691 -0.30517
 C229 C 0.35842 0.38080 -0.25657
 C230 C 0.37987 0.35230 -0.20113
 H231 H 0.30639 0.38648 -0.33140
 H232 H 0.36455 0.42463 -0.26806
 H233 H 0.34507 0.27365 -0.30654
 H234 H 0.37280 0.30968 -0.18356
 C235 C -0.17696 0.81118 -0.31225
 C236 C -0.17308 0.86637 -0.30076
 C237 C -0.13999 0.89173 -0.25672
 C238 C -0.11820 0.86451 -0.20032
 H239 H -0.19205 0.89447 -0.33368
 H240 H -0.13287 0.93447 -0.27386
 H241 H -0.15644 0.78288 -0.28527
 H242 H -0.12603 0.82322 -0.17776
 C243 C 0.31833 0.68509 0.32173
 C244 C 0.34514 0.71406 0.27879
 C245 C 0.37305 0.68721 0.22100
 C246 C 0.38607 0.63579 0.23590
 H247 H 0.34689 0.75906 0.28572
 H248 H 0.38567 0.71235 0.17019
 H249 H 0.31463 0.64075 0.31005
 H250 H 0.37587 0.61228 0.29104
 C251 C -0.18567 1.18411 0.32329
 C252 C -0.15675 1.21177 0.28518
 C253 C -0.12879 1.18444 0.22779
 C254 C -0.11759 1.13158 0.23912
 H255 H -0.15304 1.25624 0.29585
 H256 H -0.11432 1.21048 0.18068
 H257 H -0.19065 1.14056 0.30746
 H258 H -0.12970 1.10663 0.29070
 C259 C 0.67669 0.30908 0.33912
 C260 C 0.67453 0.36413 0.32396
 C261 C 0.64328 0.39010 0.27582
 C262 C 0.62348 0.36391 0.21438
 H263 H 0.69449 0.39238 0.35463
 H264 H 0.63691 0.43319 0.29128
 H265 H 0.65522 0.28079 0.31433
 H266 H 0.63103 0.32217 0.19403
 C267 C 0.18734 0.81715 0.31840
 C268 C 0.16080 0.78814 0.27529
 C269 C 0.13342 0.81469 0.21651
 C270 C 0.12091 0.86669 0.22932
 H271 H 0.15871 0.74325 0.28323
 H272 H 0.12051 0.78885 0.16730
 H273 H 0.19143 0.86133 0.30597
 H274 H 0.13135 0.89102 0.28307
   
