data_POSCAR
  _audit_creation_date              2014-09-24
  _audit_creation_method            'ToBaCCo'
  _symmetry_space_group_name_H-M    'P1'
  _symmetry_Int_Tables_number       1
  _symmetry_cell_setting            triclinic
  loop_
  _symmetry_equiv_pos_as_xyz
 x,y,z
_cell_length_a 66.2326
_cell_length_b 65.7243
_cell_length_c 27.6463
_cell_angle_alpha 89.839200
_cell_angle_beta 90.016300
_cell_angle_gamma 120.953100
loop_
  _atom_site_label
  _atom_site_type_symbol
  _atom_site_fract_x
  _atom_site_fract_y
  _atom_site_fract_z
C1 C 0.15668 0.44159 0.52946
 C2 C 0.15792 0.44319 0.47994
 C3 C 0.17520 0.43843 0.46586
 N4 N 0.18426 0.43367 0.50514
 C5 C 0.17315 0.43582 0.54409
 C6 C 0.18157 0.43755 0.41738
 C7 C 0.20109 0.43550 0.40398
 C8 C 0.20577 0.43122 0.35733
 C9 C 0.22715 0.43245 0.35877
 C10 C 0.23493 0.43737 0.40623
 N11 N 0.21903 0.43933 0.43340
 C12 C 0.25692 0.44144 0.42254
 C13 C 0.26278 0.44179 0.47175
 C14 C 0.28476 0.44729 0.48848
 C15 C 0.28285 0.44437 0.53769
 C16 C 0.25976 0.43723 0.54954
 N17 N 0.24750 0.43545 0.50907
 C18 C 0.25018 0.43148 0.59676
 C19 C 0.22749 0.42696 0.60898
 C20 C 0.21647 0.41823 0.65330
 C21 C 0.19578 0.41837 0.65214
 C22 C 0.19463 0.42707 0.60709
 N23 N 0.21404 0.43234 0.58119
 C24 C 0.17684 0.43155 0.59247
 H25 H 0.14486 0.44421 0.55205
 H26 H 0.14730 0.44735 0.45692
 H27 H 0.21918 0.44188 0.54907
 H28 H 0.19508 0.42794 0.32538
 H29 H 0.23606 0.43023 0.32824
 H30 H 0.30051 0.45265 0.46743
 H31 H 0.29686 0.44710 0.56196
 H32 H 0.18316 0.41298 0.68138
 H33 H 0.22170 0.44581 0.46843
 H34 H 0.22291 0.41276 0.68367
 C35 C 0.56884 -0.27842 0.44917
 C36 C 0.56449 -0.28098 0.49800
 C37 C 0.55781 -0.26486 0.51073
 N38 N 0.55790 -0.25263 0.47122
 C39 C 0.56476 -0.26075 0.43356
 C40 C 0.55010 -0.26294 0.55728
 C41 C 0.54445 -0.24559 0.56994
 C42 C 0.53245 -0.24616 0.61161
 C43 C 0.53147 -0.22578 0.61171
 C44 C 0.54291 -0.21325 0.57017
 N45 N 0.55093 -0.22536 0.54515
 C46 C 0.54666 -0.19067 0.55792
 C47 C 0.55459 -0.17986 0.51219
 C48 C 0.56000 -0.15706 0.50061
 C49 C 0.56514 -0.15405 0.45211
 C50 C 0.56268 -0.17513 0.43565
 N51 N 0.55612 -0.19089 0.47239
 C52 C 0.56452 -0.18015 0.38679
 C53 C 0.56319 -0.20123 0.37094
 C54 C 0.56026 -0.20860 0.32316
 C55 C 0.56047 -0.22940 0.32258
 C56 C 0.56360 -0.23422 0.37006
 N57 N 0.56550 -0.21679 0.39917
 C58 C 0.56566 -0.25374 0.38479
 H59 H 0.57408 -0.28862 0.42748
 H60 H 0.56568 -0.29358 0.52133
 H61 H 0.57044 -0.21438 0.43529
 H62 H 0.52524 -0.25980 0.63925
 H63 H 0.52339 -0.22070 0.63945
 H64 H 0.55988 -0.14407 0.52443
 H65 H 0.56972 -0.13829 0.43120
 H66 H 0.55863 -0.23976 0.29073
 H67 H 0.56236 -0.21899 0.51586
 H68 H 0.55818 -0.19989 0.29189
 C69 C 1.27555 0.85666 0.53039
 C70 C 1.27664 0.85414 0.48140
 C71 C 1.25867 0.83136 0.47008
 N72 N 1.24680 0.81988 0.51060
 C73 C 1.25701 0.83529 0.54755
 C74 C 1.25473 0.82094 0.42375
 C75 C 1.23481 0.79873 0.41169
 C76 C 1.23224 0.78657 0.36892
 C77 C 1.21023 0.76649 0.37001
 C78 C 1.19993 0.76681 0.41347
 N79 N 1.21491 0.78664 0.43837
 C80 C 1.17693 0.74944 0.42804
 C81 C 1.16856 0.74680 0.47594
 C82 C 1.14588 0.73027 0.49073
 C83 C 1.14560 0.73176 0.54019
 C84 C 1.16810 0.74925 0.55401
 N85 N 1.18208 0.75830 0.51466
 C86 C 1.17587 0.75505 0.60235
 C87 C 1.19807 0.77460 0.61573
 C88 C 1.20748 0.77856 0.66204
 C89 C 1.22863 0.79965 0.66060
 C90 C 1.23173 0.80802 0.61340
 N91 N 1.21287 0.79279 0.58648
 C92 C 1.25125 0.82962 0.59692
 H93 H 1.28740 0.87224 0.55120
 H94 H 1.28943 0.86743 0.45698
 H95 H 1.20931 0.79585 0.55152
 H96 H 1.24486 0.79172 0.33974
 H97 H 1.20269 0.75315 0.34198
 H98 H 1.13123 0.71801 0.46836
 H99 H 1.13065 0.72093 0.56343
 H100 H 1.24044 0.80786 0.69089
 H101 H 1.21082 0.79272 0.46931
 H102 H 1.19983 0.76746 0.69372
 C103 C 0.84543 0.56047 0.48858
 C104 C 0.84667 0.56259 0.53799
 C105 C 0.82985 0.56805 0.55183
 N106 N 0.81857 0.56951 0.51240
 C107 C 0.82784 0.56460 0.47376
 C108 C 0.82596 0.57266 0.59984
 C109 C 0.80781 0.57683 0.61338
 C110 C 0.80635 0.58594 0.65763
 C111 C 0.78535 0.58549 0.65796
 C112 C 0.77446 0.57604 0.61397
 N113 N 0.78827 0.57079 0.58716
 C114 C 0.75157 0.57078 0.60128
 C115 C 0.74209 0.56441 0.55413
 C116 C 0.71889 0.55662 0.54193
 C117 C 0.71713 0.55328 0.49285
 C118 C 0.73930 0.55917 0.47655
 N119 N 0.75455 0.56617 0.51399
 C120 C 0.74532 0.55921 0.42754
 C121 C 0.76749 0.56359 0.41180
 C122 C 0.77531 0.56804 0.36426
 C123 C 0.79690 0.56972 0.36362
 C124 C 0.80166 0.56619 0.41079
 N125 N 0.78358 0.56236 0.43979
 C126 C 0.82139 0.56477 0.42511
 H127 H 0.85626 0.55636 0.46615
 H128 H 0.85870 0.56052 0.56107
 H129 H 0.78101 0.55632 0.47523
 H130 H 0.81897 0.59197 0.68692
 H131 H 0.77864 0.59104 0.68761
 H132 H 0.70472 0.55373 0.56588
 H133 H 0.70135 0.54736 0.47159
 H134 H 0.80768 0.57279 0.33188
 H135 H 0.78332 0.56084 0.55568
 H136 H 0.76627 0.56962 0.33317
 C137 C 0.43262 0.28034 0.52433
 C138 C 0.42961 0.28013 0.47517
 C139 C 0.43328 0.26268 0.45686
 N140 N 0.43854 0.25233 0.49312
 C141 C 0.43804 0.26298 0.53449
 C142 C 0.43362 0.25792 0.40720
 C143 C 0.43601 0.23914 0.38934
 C144 C 0.44112 0.23695 0.34163
 C145 C 0.44112 0.21608 0.33857
 C146 C 0.43598 0.20605 0.38446
 N147 N 0.43265 0.22010 0.41505
 C148 C 0.43352 0.18396 0.39628
 C149 C 0.43247 0.17584 0.44403
 C150 C 0.42815 0.15347 0.45627
 C151 C 0.43078 0.15340 0.50546
 C152 C 0.43668 0.17577 0.52170
 N153 N 0.43776 0.18944 0.48401
 C154 C 0.44295 0.18384 0.56976
 C155 C 0.44743 0.20621 0.58602
 C156 C 0.45789 0.21645 0.62988
 C157 C 0.45829 0.23753 0.63290
 C158 C 0.44805 0.23967 0.59082
 N159 N 0.44129 0.22038 0.56271
 C160 C 0.44424 0.25857 0.58065
 H161 H 0.43136 0.29219 0.54962
 H162 H 0.42559 0.29179 0.45511
 H163 H 0.43092 0.21599 0.53191
 H164 H 0.44448 0.24911 0.31202
 H165 H 0.44445 0.20907 0.30615
 H166 H 0.42396 0.13887 0.43218
 H167 H 0.42903 0.13872 0.52674
 H168 H 0.46526 0.24985 0.66282
 H169 H 0.42611 0.21577 0.45007
 H170 H 0.46450 0.20944 0.65701
 C171 C 0.84550 0.27828 0.47458
 C172 C 0.84660 0.27896 0.52414
 C173 C 0.82993 0.25647 0.54039
 N174 N 0.81885 0.24208 0.50240
 C175 C 0.82811 0.25542 0.46213
 C176 C 0.82602 0.24934 0.58940
 C177 C 0.80799 0.22680 0.60547
 C178 C 0.80651 0.21781 0.65163
 C179 C 0.78571 0.19633 0.65382
 C180 C 0.77496 0.19280 0.60896
 N181 N 0.78866 0.21151 0.57986
 C182 C 0.75224 0.17367 0.59734
 C183 C 0.74290 0.16846 0.54992
 C184 C 0.71982 0.15153 0.53836
 C185 C 0.71812 0.15153 0.48893
 C186 C 0.74021 0.16838 0.47178
 N187 N 0.75536 0.17850 0.50907
 C188 C 0.74623 0.17336 0.42237
 C189 C 0.76837 0.19164 0.40556
 C190 C 0.77625 0.19407 0.35822
 C191 C 0.79771 0.21489 0.35599
 C192 C 0.80232 0.22466 0.40199
 N193 N 0.78430 0.21040 0.43185
 C194 C 0.82183 0.24706 0.41425
 H195 H 0.85628 0.29295 0.45049
 H196 H 0.85845 0.29423 0.54571
 H197 H 0.78160 0.21471 0.46632
 H198 H 0.81898 0.22602 0.68090
 H199 H 0.77903 0.18482 0.68519
 H200 H 0.70567 0.14033 0.56300
 H201 H 0.70243 0.14029 0.46803
 H202 H 0.80849 0.22220 0.32392
 H203 H 0.78372 0.21510 0.54683
 H204 H 0.76733 0.18223 0.32826
 O205 O 0.98989 0.52181 -0.07521
 O206 O 1.01161 0.53066 0.09164
 O207 O 0.96016 0.50485 0.03276
 O208 O 1.04124 0.54689 -0.01684
 O209 O 0.97192 0.49810 0.09875
 O210 O 1.02925 0.52972 -0.08430
 O211 O 1.04450 0.53719 0.06419
 O212 O 0.95673 0.49391 -0.04966
 C213 C 0.96858 0.51355 -0.07018
 C214 C 1.03298 0.54429 0.08679
 C215 C 0.96197 0.50710 0.07697
 C216 C 1.03931 0.54844 -0.06072
 O217 O 1.01283 0.48258 -0.07770
 O218 O 0.98743 0.46743 0.08701
 O219 O 0.96029 0.45538 -0.02365
 O220 O 1.04020 0.49546 0.03297
 O221 O 1.02689 0.49964 0.09945
 O222 O 0.97369 0.47499 -0.08847
 O223 O 1.04540 0.50939 -0.04779
 O224 O 0.95517 0.46201 0.05831
 Co225 Co 1.00131 0.50212 -0.07272
 Co226 Co 0.99955 0.49912 0.08545
 Co227 Co 0.96215 0.48111 0.00460
 Co228 Co 1.03876 0.52016 0.00793
 O229 O 1.00045 0.50063 0.00632
 C230 C 1.03400 0.49059 -0.07116
 C231 C 0.96619 0.45402 0.07989
 C232 C 0.96320 0.45545 -0.06758
 C233 C 1.03754 0.49168 0.07677
 O234 O 0.48856 0.46760 -0.08937
 O235 O 0.48496 0.50955 0.10286
 O236 O 0.50604 0.46332 0.03952
 O237 O 0.45264 0.48849 -0.03310
 O238 O 0.48191 0.47184 0.07205
 O239 O 0.47071 0.49272 -0.10026
 O240 O 0.46019 0.49280 0.04848
 O241 O 0.51678 0.46896 -0.04638
 C242 C 0.49982 0.45831 -0.07535
 C243 C 0.46412 0.49981 0.09071
 C244 C 0.48782 0.45709 0.06386
 C245 C 0.45210 0.48522 -0.07711
 O246 O 0.51184 0.53074 -0.09887
 O247 O 0.51835 0.50161 0.11832
 O248 O 0.54855 0.51529 -0.02807
 O249 O 0.49643 0.53980 0.03496
 O250 O 0.52448 0.53486 0.06243
 O251 O 0.53069 0.50583 -0.09658
 O252 O 0.48663 0.53391 -0.05234
 O253 O 0.54083 0.50930 0.05603
 Co254 Co 0.50050 0.49933 -0.08780
 Co255 Co 0.50355 0.50301 0.06459
 Co256 Co 0.52552 0.49013 0.00424
 Co257 Co 0.47621 0.51291 -0.00065
 O258 O 0.50026 0.50118 -0.00836
 C259 C 0.50173 0.54155 -0.08609
 C260 C 0.53781 0.50477 0.10082
 C261 C 0.54929 0.51655 -0.07275
 C262 C 0.51653 0.54817 0.05419
 O263 O 0.53577 0.01061 -0.07446
 O264 O 0.50345 -0.02204 0.08210
 O265 O 0.54294 0.04419 0.03560
 O266 O 0.47483 -0.06046 -0.04523
 O267 O 0.51911 0.02090 0.09292
 O268 O 0.50641 -0.03031 -0.07378
 O269 O 0.50791 -0.03508 0.01284
 O270 O 0.54080 0.04462 -0.05531
 C271 C 0.54874 0.03242 -0.07167
 C272 C 0.51228 -0.03170 0.05712
 C273 C 0.53924 0.03701 0.07854
 C274 C 0.49073 -0.05193 -0.07855
 O275 O 0.47291 -0.01932 -0.09676
 O276 O 0.47645 0.01401 0.06842
 O277 O 0.50038 0.04310 -0.04820
 O278 O 0.46584 -0.05364 0.04105
 O279 O 0.46039 -0.02619 0.05908
 O280 O 0.50411 0.02234 -0.10482
 O281 O 0.45560 -0.03616 -0.03017
 O282 O 0.50541 0.04679 0.04138
 Co283 Co 0.50420 -0.00375 -0.08032
 Co284 Co 0.49063 -0.00319 0.06927
 Co285 Co 0.52020 0.04055 -0.00675
 Co286 Co 0.48248 -0.03433 -0.00999
 O287 O 0.49964 0.00153 -0.00471
 C288 C 0.45434 -0.03089 -0.07273
 C289 C 0.48642 0.03575 0.06362
 C290 C 0.49807 0.03670 -0.09114
 C291 C 0.45437 -0.04720 0.06478
 C292 C 1.16812 0.43898 0.38130
 C293 C 1.15628 0.44060 0.35012
 C294 C 1.14215 0.44307 0.31372
 C295 C 1.11794 0.42672 0.31127
 C296 C 1.10398 0.42997 0.27785
 C297 C 1.11408 0.44970 0.24650
 C298 C 1.13852 0.46578 0.24864
 C299 C 1.15243 0.46248 0.28206
 C300 C 1.09910 0.45417 0.21333
 C301 C 1.10698 0.46325 0.16648
 C302 C 1.09361 0.46910 0.13672
 C303 C 1.07219 0.46589 0.15331
 C304 C 1.06394 0.45633 0.19937
 C305 C 1.07727 0.45047 0.22917
 C306 C 1.05951 0.47398 0.12467
 C307 C 1.04925 0.48159 0.10201
 H308 H 1.10980 0.41164 0.33564
 H309 H 1.08528 0.41714 0.27670
 H310 H 1.14678 0.48132 0.22555
 H311 H 1.17113 0.47533 0.28386
 H312 H 1.12357 0.46603 0.15302
 H313 H 1.10020 0.47657 0.10118
 H314 H 1.04749 0.45397 0.21275
 H315 H 1.07087 0.44385 0.26526
 C316 C 0.56717 0.73244 0.34954
 C317 C 0.56790 0.71987 0.31872
 C318 C 0.56789 0.70423 0.28235
 C319 C 0.56505 0.70788 0.23353
 C320 C 0.56304 0.69153 0.19869
 C321 C 0.56379 0.67128 0.21231
 C322 C 0.56729 0.66814 0.26136
 C323 C 0.56929 0.68450 0.29609
 C324 C 0.55928 0.65262 0.17637
 C325 C 0.57145 0.64029 0.17885
 C326 C 0.56513 0.62082 0.14879
 C327 C 0.54667 0.61351 0.11569
 C328 C 0.53515 0.62628 0.11153
 C329 C 0.54142 0.64572 0.14155
 C330 C 0.53758 0.59133 0.09058
 C331 C 0.52867 0.57199 0.07225
 H332 H 0.56390 0.72309 0.22251
 H333 H 0.56061 0.69458 0.16120
 H334 H 0.56755 0.65257 0.27320
 H335 H 0.57133 0.68142 0.33382
 H336 H 0.58547 0.64535 0.20483
 H337 H 0.57406 0.61097 0.15259
 H338 H 0.52063 0.62059 0.08651
 H339 H 0.53148 0.65459 0.13914
 C340 C 0.27186 -0.16758 0.38928
 C341 C 0.28716 -0.15772 0.35933
 C342 C 0.30569 -0.14615 0.32410
 C343 C 0.30281 -0.15557 0.27754
 C344 C 0.32109 -0.14464 0.24374
 C345 C 0.34252 -0.12419 0.25622
 C346 C 0.34517 -0.11482 0.30307
 C347 C 0.32687 -0.12574 0.33674
 C348 C 0.36205 -0.11258 0.22061
 C349 C 0.38549 -0.10356 0.23527
 C350 C 0.40398 -0.09178 0.20228
 C351 C 0.39933 -0.08888 0.15419
 C352 C 0.37605 -0.09813 0.13902
 C353 C 0.35751 -0.10997 0.17196
 C354 C 0.41853 -0.07518 0.12136
 C355 C 0.43481 -0.06289 0.09487
 H356 H 0.28652 -0.17145 0.26748
 H357 H 0.31861 -0.15240 0.20814
 H358 H 0.36131 -0.09889 0.31352
 H359 H 0.32928 -0.11830 0.37268
 H360 H 0.38953 -0.10561 0.27228
 H361 H 0.42194 -0.08463 0.21445
 H362 H 0.37226 -0.09582 0.10196
 H363 H 0.33969 -0.11649 0.15970
 C364 C 0.83576 0.56306 0.38766
 C365 C 0.84775 0.56122 0.35721
 C366 C 0.86206 0.55847 0.32176
 C367 C 0.85557 0.55523 0.27295
 C368 C 0.86887 0.55130 0.23904
 C369 C 0.88885 0.55055 0.25359
 C370 C 0.89541 0.55420 0.30266
 C371 C 0.88209 0.55811 0.33646
 C372 C 0.90228 0.54505 0.21829
 C373 C 0.92700 0.55666 0.22078
 C374 C 0.93946 0.55027 0.18970
 C375 C 0.92742 0.53225 0.15566
 C376 C 0.90290 0.52098 0.15215
 C377 C 0.89040 0.52734 0.18317
 C378 C 0.93999 0.52426 0.12648
 C379 C 0.95021 0.51683 0.10319
 H380 H 0.84009 0.55547 0.26120
 H381 H 0.86351 0.54880 0.20147
 H382 H 0.91045 0.55335 0.31517
 H383 H 0.88719 0.56045 0.37421
 H384 H 0.93667 0.57057 0.24701
 H385 H 0.95844 0.55908 0.19282
 H386 H 0.89339 0.50687 0.12618
 H387 H 0.87139 0.51784 0.18074
 C388 C 0.43306 0.27413 0.37228
 C389 C 0.43313 0.28767 0.34265
 C390 C 0.43394 0.30401 0.30683
 C391 C 0.43709 0.32588 0.32099
 C392 C 0.43957 0.34246 0.28611
 C393 C 0.43898 0.33741 0.23649
 C394 C 0.43528 0.31515 0.22264
 C395 C 0.43279 0.29859 0.25760
 C396 C 0.44363 0.35584 0.19963
 C397 C 0.45832 0.35938 0.15977
 C398 C 0.46476 0.37829 0.12784
 C399 C 0.45653 0.39385 0.13512
 C400 C 0.44121 0.38997 0.17358
 C401 C 0.43474 0.37107 0.20558
 C402 C 0.46603 0.41527 0.10684
 C403 C 0.47526 0.43398 0.08560
 H404 H 0.43815 0.33032 0.35898
 H405 H 0.44277 0.35956 0.29800
 H406 H 0.43450 0.31064 0.18478
 H407 H 0.43037 0.28171 0.24624
 H408 H 0.46572 0.34820 0.15451
 H409 H 0.47688 0.38130 0.09858
 H410 H 0.43487 0.40201 0.17980
 H411 H 0.42317 0.36863 0.23554
 C412 C 0.72840 0.15912 0.38686
 C413 C 0.71302 0.14755 0.35812
 C414 C 0.69411 0.13412 0.32466
 C415 C 0.68127 0.10930 0.32672
 C416 C 0.66197 0.09638 0.29609
 C417 C 0.65522 0.10818 0.26319
 C418 C 0.66847 0.13312 0.26094
 C419 C 0.68776 0.14597 0.29150
 C420 C 0.63418 0.09463 0.23198
 C421 C 0.61861 0.10290 0.22424
 C422 C 0.59896 0.09040 0.19441
 C423 C 0.59456 0.06946 0.17192
 C424 C 0.60981 0.06095 0.17968
 C425 C 0.62948 0.07342 0.20960
 C426 C 0.57479 0.05725 0.13976
 C427 C 0.55841 0.04765 0.11220
 H428 H 0.68593 0.09995 0.35253
 H429 H 0.65198 0.07723 0.29902
 H430 H 0.66393 0.14269 0.23551
 H431 H 0.69754 0.16518 0.28966
 H432 H 0.62152 0.11895 0.24154
 H433 H 0.58727 0.09714 0.18868
 H434 H 0.60663 0.04482 0.16224
 H435 H 0.64126 0.06673 0.21450
 C436 C 0.44637 0.16980 -0.39851
 C437 C 0.44970 0.15739 -0.37142
 C438 C 0.45411 0.14261 -0.33998
 C439 C 0.43538 0.12256 -0.31800
 C440 C 0.43976 0.10798 -0.28829
 C441 C 0.46295 0.11326 -0.28031
 C442 C 0.48164 0.13351 -0.30249
 C443 C 0.47723 0.14806 -0.33210
 C444 C 0.46774 0.09788 -0.24876
 C445 C 0.48522 0.09272 -0.26141
 C446 C 0.49039 0.07905 -0.23079
 C447 C 0.47817 0.07030 -0.18718
 C448 C 0.46049 0.07500 -0.17461
 C449 C 0.45527 0.08866 -0.20521
 C450 C 0.48460 0.05759 -0.15421
 C451 C 0.49049 0.04763 -0.12587
 H452 H 0.41740 0.11812 -0.32405
 H453 H 0.42499 0.09240 -0.27213
 H454 H 0.49971 0.13827 -0.29648
 H455 H 0.49186 0.16355 -0.34890
 H456 H 0.49488 0.09926 -0.29501
 H457 H 0.50414 0.07556 -0.24085
 H458 H 0.45103 0.06846 -0.14077
 H459 H 0.44191 0.09253 -0.19419
 C460 C 0.73750 0.57161 -0.36337
 C461 C 0.72424 0.57166 -0.33355
 C462 C 0.70729 0.57073 -0.29974
 C463 C 0.68710 0.57003 -0.31709
 C464 C 0.66946 0.56699 -0.28504
 C465 C 0.67174 0.56455 -0.23509
 C466 C 0.69241 0.56592 -0.21783
 C467 C 0.71007 0.56897 -0.25002
 C468 C 0.65197 0.55909 -0.20179
 C469 C 0.64557 0.54195 -0.16511
 C470 C 0.62564 0.53510 -0.13667
 C471 C 0.61184 0.54530 -0.14437
 C472 C 0.61842 0.56286 -0.17978
 C473 C 0.63838 0.56976 -0.20828
 C474 C 0.59010 0.53641 -0.11827
 C475 C 0.57157 0.52791 -0.09714
 H476 H 0.68470 0.57119 -0.35556
 H477 H 0.65363 0.56563 -0.29960
 H478 H 0.69479 0.56436 -0.17953
 H479 H 0.72562 0.56945 -0.23623
 H480 H 0.65542 0.53313 -0.15966
 H481 H 0.62060 0.52136 -0.10959
 H482 H 0.60783 0.57084 -0.18610
 H483 H 0.64300 0.58320 -0.23584
 C484 C 0.84123 0.26636 -0.37465
 C485 C 0.85371 0.28115 -0.34552
 C486 C 0.86836 0.29952 -0.31179
 C487 C 0.88291 0.32277 -0.32842
 C488 C 0.89619 0.34105 -0.29574
 C489 C 0.89510 0.33632 -0.24583
 C490 C 0.88068 0.31281 -0.22950
 C491 C 0.86739 0.29453 -0.26231
 C492 C 0.90826 0.35603 -0.21106
 C493 C 0.89767 0.35684 -0.16754
 C494 C 0.90940 0.37627 -0.13651
 C495 C 0.93187 0.39509 -0.14843
 C496 C 0.94280 0.39419 -0.19101
 C497 C 0.93110 0.37479 -0.22211
 C498 C 0.94316 0.41595 -0.11857
 C499 C 0.95241 0.43380 -0.09466
 H500 H 0.88367 0.32686 -0.36661
 H501 H 0.90680 0.35899 -0.30942
 H502 H 0.87965 0.30857 -0.19137
 H503 H 0.85616 0.27658 -0.24905
 H504 H 0.88000 0.34284 -0.15829
 H505 H 0.90072 0.37686 -0.10380
 H506 H 0.96018 0.40867 -0.20062
 H507 H 0.93984 0.37455 -0.25499
 C508 C 0.54091 -0.17834 -0.40630
 C509 C 0.53595 -0.16811 -0.37686
 C510 C 0.52987 -0.15588 -0.34210
 C511 C 0.52719 -0.16238 -0.29322
 C512 C 0.52128 -0.15046 -0.25951
 C513 C 0.51792 -0.13190 -0.27432
 C514 C 0.52061 -0.12555 -0.32357
 C515 C 0.52655 -0.13747 -0.35719
 C516 C 0.51191 -0.11900 -0.23855
 C517 C 0.49541 -0.11231 -0.24995
 C518 C 0.49029 -0.09955 -0.21679
 C519 C 0.50156 -0.09335 -0.17182
 C520 C 0.51781 -0.10014 -0.15993
 C521 C 0.52294 -0.11291 -0.19301
 C522 C 0.49711 -0.07929 -0.13858
 C523 C 0.49388 -0.06707 -0.11101
 H524 H 0.52963 -0.17667 -0.28120
 H525 H 0.51906 -0.15593 -0.22195
 H526 H 0.51849 -0.11113 -0.33600
 H527 H 0.52863 -0.13227 -0.39494
 H528 H 0.48641 -0.11701 -0.28444
 H529 H 0.47770 -0.09437 -0.22639
 H530 H 0.52674 -0.09529 -0.12533
 H531 H 0.53594 -0.11753 -0.18340
 C532 C 0.26398 0.43057 -0.36736
 C533 C 0.27707 0.43046 -0.33721
 C534 C 0.29392 0.43134 -0.30321
 C535 C 0.31359 0.43092 -0.32026
 C536 C 0.33128 0.43405 -0.28828
 C537 C 0.32956 0.43769 -0.23870
 C538 C 0.30937 0.43739 -0.22166
 C539 C 0.29168 0.43427 -0.25378
 C540 C 0.34948 0.44334 -0.20575
 C541 C 0.35666 0.46137 -0.17103
 C542 C 0.37671 0.46829 -0.14302
 C543 C 0.38984 0.45729 -0.14922
 C544 C 0.38251 0.43888 -0.18270
 C545 C 0.36243 0.43191 -0.21077
 C546 C 0.41157 0.46599 -0.12328
 C547 C 0.43001 0.47425 -0.10203
 H548 H 0.31558 0.42885 -0.35852
 H549 H 0.34674 0.43457 -0.30269
 H550 H 0.30743 0.43988 -0.18361
 H551 H 0.27654 0.43468 -0.24025
 H552 H 0.34732 0.47078 -0.16679
 H553 H 0.38233 0.48267 -0.11742
 H554 H 0.39257 0.43026 -0.18780
 H555 H 0.35719 0.41779 -0.23681
 C556 C 1.16179 0.73977 -0.36200
 C557 C 1.14962 0.72575 -0.33123
 C558 C 1.13541 0.70829 -0.29536
 C559 C 1.11397 0.68835 -0.30866
 C560 C 1.10109 0.67028 -0.27505
 C561 C 1.10953 0.67188 -0.22765
 C562 C 1.13083 0.69230 -0.21429
 C563 C 1.14368 0.71036 -0.24798
 C564 C 1.09683 0.65175 -0.19331
 C565 C 1.10941 0.64461 -0.16377
 C566 C 1.09750 0.62456 -0.13418
 C567 C 1.07288 0.61139 -0.13358
 C568 C 1.06018 0.61865 -0.16193
 C569 C 1.07206 0.63871 -0.19157
 C570 C 1.06074 0.58964 -0.10632
 C571 C 1.05083 0.57102 -0.08476
 H572 H 1.10750 0.68648 -0.34535
 H573 H 1.08495 0.65466 -0.28670
 H574 H 1.13765 0.69419 -0.17794
 H575 H 1.16030 0.72571 -0.23736
 H576 H 1.12846 0.65402 -0.16481
 H577 H 1.10750 0.61899 -0.11268
 H578 H 1.04111 0.60855 -0.16182
 H579 H 1.06189 0.64391 -0.21346
 C580 C 0.84034 0.57259 -0.36455
 C581 C 0.85270 0.57169 -0.33364
 C582 C 0.86712 0.56951 -0.29751
 C583 C 0.89166 0.58373 -0.29990
 C584 C 0.90567 0.58008 -0.26731
 C585 C 0.89526 0.56208 -0.23201
 C586 C 0.87055 0.54832 -0.22915
 C587 C 0.85660 0.55201 -0.26173
 C588 C 0.90999 0.55661 -0.20033
 C589 C 0.90374 0.54996 -0.15168
 C590 C 0.91649 0.54282 -0.12325
 C591 C 0.93568 0.54231 -0.14302
 C592 C 0.94241 0.54949 -0.19094
 C593 C 0.92969 0.55662 -0.21941
 C594 C 0.94755 0.53297 -0.11546
 C595 C 0.95727 0.52445 -0.09390
 H596 H 0.89999 0.59729 -0.32756
 H597 H 0.92463 0.59115 -0.27007
 H598 H 0.86199 0.53409 -0.20293
 H599 H 0.83761 0.54077 -0.25981
 H600 H 0.88884 0.55004 -0.13579
 H601 H 0.91110 0.53724 -0.08621
 H602 H 0.95712 0.54899 -0.20671
 H603 H 0.93475 0.56127 -0.25689
 C604 C 0.44797 0.27424 -0.38287
 C605 C 0.45155 0.28820 -0.35098
 C606 C 0.45617 0.30513 -0.31336
 C607 C 0.47471 0.31153 -0.28093
 C608 C 0.47985 0.32873 -0.24564
 C609 C 0.46647 0.33976 -0.24231
 C610 C 0.44764 0.33294 -0.27466
 C611 C 0.44256 0.31576 -0.30995
 C612 C 0.47263 0.35894 -0.20662
 C613 C 0.45488 0.36059 -0.18222
 C614 C 0.46068 0.37967 -0.15143
 C615 C 0.48426 0.39731 -0.14448
 C616 C 0.50207 0.39550 -0.16757
 C617 C 0.49632 0.37642 -0.19835
 C618 C 0.49004 0.41825 -0.11725
 C619 C 0.49467 0.43629 -0.09670
 H620 H 0.48534 0.30339 -0.28323
 H621 H 0.49429 0.33342 -0.22096
 H622 H 0.43724 0.34134 -0.27353
 H623 H 0.42824 0.31103 -0.33501
 H624 H 0.43651 0.34727 -0.18737
 H625 H 0.44674 0.38096 -0.13395
 H626 H 0.52037 0.40919 -0.16289
 H627 H 0.51037 0.37584 -0.21705
 C628 C 0.73814 0.15956 -0.36572
 C629 C 0.72501 0.14709 -0.33417
 C630 C 0.70836 0.13214 -0.29793
 C631 C 0.68849 0.11070 -0.31159
 C632 C 0.67104 0.09708 -0.27763
 C633 C 0.67321 0.10478 -0.22944
 C634 C 0.69358 0.12606 -0.21572
 C635 C 0.71103 0.13967 -0.24982
 C636 C 0.65351 0.09147 -0.19484
 C637 C 0.64655 0.10369 -0.16377
 C638 C 0.62643 0.09125 -0.13501
 C639 C 0.61306 0.06646 -0.13676
 C640 C 0.62028 0.05409 -0.16623
 C641 C 0.64041 0.06650 -0.19503
 C642 C 0.59089 0.05396 -0.11169
 C643 C 0.57185 0.04388 -0.09245
 H644 H 0.68616 0.10482 -0.34884
 H645 H 0.65542 0.08101 -0.28956
 H646 H 0.69585 0.13233 -0.17881
 H647 H 0.72633 0.15629 -0.23892
 H648 H 0.65603 0.12289 -0.16328
 H649 H 0.62086 0.10100 -0.11265
 H650 H 0.61000 0.03489 -0.16798
 H651 H 0.64548 0.05659 -0.21813
 C652 C 1.16174 0.43226 -0.37049
 C653 C 1.14953 0.43370 -0.33998
 C654 C 1.13535 0.43640 -0.30414
 C655 C 1.11077 0.42261 -0.30637
 C656 C 1.09704 0.42656 -0.27367
 C657 C 1.10775 0.44443 -0.23839
 C658 C 1.13248 0.45782 -0.23582
 C659 C 1.14616 0.45383 -0.26851
 C660 C 1.09330 0.44999 -0.20611
 C661 C 1.09967 0.45620 -0.15742
 C662 C 1.08699 0.46309 -0.12818
 C663 C 1.06778 0.46379 -0.14718
 C664 C 1.06100 0.45715 -0.19522
 C665 C 1.07364 0.45028 -0.22450
 C666 C 1.05575 0.47257 -0.11853
 C667 C 1.04578 0.48051 -0.09603
 H668 H 1.10223 0.40910 -0.33387
 H669 H 1.07805 0.41577 -0.27621
 H670 H 1.14128 0.47193 -0.20961
 H671 H 1.16518 0.46471 -0.26669
 H672 H 1.11456 0.45590 -0.14207
 H673 H 1.09241 0.46823 -0.09104
 H674 H 1.04625 0.45781 -0.21038
 H675 H 1.06849 0.44597 -0.26198
 C676 C 0.54691 0.72059 -0.40828
 C677 C 0.54390 0.70620 -0.37759
 C678 C 0.54005 0.68907 -0.34070
 C679 C 0.54989 0.67477 -0.34538
 C680 C 0.54583 0.65787 -0.30990
 C681 C 0.53182 0.65504 -0.26921
 C682 C 0.52213 0.66962 -0.26470
 C683 C 0.52624 0.68653 -0.30023
 C684 C 0.52695 0.63659 -0.23227
 C685 C 0.50425 0.62267 -0.21237
 C686 C 0.49937 0.60447 -0.17953
 C687 C 0.51709 0.60000 -0.16598
 C688 C 0.53982 0.61405 -0.18481
 C689 C 0.54475 0.63224 -0.21768
 C690 C 0.51162 0.58000 -0.13550
 C691 C 0.50706 0.56273 -0.11178
 H692 H 0.56056 0.67655 -0.37664
 H693 H 0.55325 0.64669 -0.31478
 H694 H 0.51151 0.66807 -0.23356
 H695 H 0.51859 0.69757 -0.29619
 H696 H 0.49010 0.62538 -0.22331
 H697 H 0.48165 0.59355 -0.16554
 H698 H 0.55366 0.61068 -0.17472
 H699 H 0.56245 0.64284 -0.23185
 C700 C 0.26656 -0.15487 -0.36928
 C701 C 0.28046 -0.14136 -0.34000
 C702 C 0.29767 -0.12547 -0.30574
 C703 C 0.31986 -0.10771 -0.32200
 C704 C 0.33734 -0.09340 -0.28879
 C705 C 0.33287 -0.09668 -0.23875
 C706 C 0.31029 -0.11418 -0.22278
 C707 C 0.29282 -0.12850 -0.25611
 C708 C 0.35218 -0.08299 -0.20364
 C709 C 0.35485 -0.09438 -0.16308
 C710 C 0.37446 -0.08232 -0.13298
 C711 C 0.39164 -0.05872 -0.14284
 C712 C 0.38872 -0.04693 -0.18199
 C713 C 0.36908 -0.05896 -0.21215
 C714 C 0.41336 -0.04763 -0.11611
 C715 C 0.43193 -0.03937 -0.09532
 H716 H 0.32384 -0.10532 -0.36034
 H717 H 0.35462 -0.08039 -0.30229
 H718 H 0.30623 -0.11697 -0.18453
 H719 H 0.27571 -0.14223 -0.24314
 H720 H 0.34237 -0.11294 -0.15589
 H721 H 0.37669 -0.09171 -0.10311
 H722 H 0.40198 -0.02870 -0.19015
 H723 H 0.36737 -0.04962 -0.24272
 C724 C 0.56599 -0.16342 0.35064
 C725 C 0.56655 -0.14945 0.32150
 C726 C 0.56633 -0.13283 0.28786
 C727 C 0.56834 -0.13527 0.23811
 C728 C 0.56623 -0.12016 0.20545
 C729 C 0.56202 -0.10246 0.22221
 C730 C 0.56066 -0.09979 0.27239
 C731 C 0.56278 -0.11489 0.30491
 C732 C 0.55742 -0.08791 0.18778
 C733 C 0.56557 -0.06387 0.19741
 C734 C 0.55891 -0.05101 0.16783
 C735 C 0.54413 -0.06197 0.12816
 C736 C 0.53668 -0.08558 0.11723
 C737 C 0.54329 -0.09846 0.14674
 C738 C 0.53456 -0.04998 0.10165
 C739 C 0.52515 -0.04099 0.08062
 H740 H 0.57109 -0.14911 0.22453
 H741 H 0.56761 -0.12250 0.16708
 H742 H 0.55705 -0.08663 0.28648
 H743 H 0.56105 -0.11295 0.34335
 H744 H 0.57671 -0.05516 0.22837
 H745 H 0.56469 -0.03277 0.17677
 H746 H 0.52503 -0.09431 0.08690
 H747 H 0.53642 -0.11700 0.13870
 C748 C 0.27464 0.44536 0.38697
 C749 C 0.29025 0.44912 0.35927
 C750 C 0.30971 0.45410 0.32829
 C751 C 0.30980 0.46011 0.27967
 C752 C 0.32924 0.46580 0.25036
 C753 C 0.34886 0.46562 0.26945
 C754 C 0.34849 0.45939 0.31829
 C755 C 0.32905 0.45369 0.34746
 C756 C 0.36968 0.47201 0.23868
 C757 C 0.39263 0.48606 0.25718
 C758 C 0.41222 0.49202 0.22819
 C759 C 0.40913 0.48400 0.18042
 C760 C 0.38640 0.47004 0.16169
 C761 C 0.36679 0.46408 0.19057
 C762 C 0.42917 0.49005 0.15032
 C763 C 0.44548 0.49476 0.12390
 H764 H 0.29498 0.46064 0.26456
 H765 H 0.32911 0.47079 0.21305
 H766 H 0.36317 0.45876 0.33384
 H767 H 0.32916 0.44908 0.38509
 H768 H 0.39543 0.49270 0.29386
 H769 H 0.42975 0.50292 0.24298
 H770 H 0.38382 0.46370 0.12477
 H771 H 0.34937 0.45301 0.17548
 C772 C 1.16165 0.73219 0.39251
 C773 C 1.14912 0.71760 0.36312
 C774 C 1.13442 0.69987 0.32835
 C775 C 1.11438 0.67891 0.34375
 C776 C 1.10076 0.66109 0.31042
 C777 C 1.10704 0.66399 0.26116
 C778 C 1.12701 0.68531 0.24592
 C779 C 1.14060 0.70312 0.27933
 C780 C 1.09337 0.64444 0.22635
 C781 C 1.10504 0.63885 0.19103
 C782 C 1.09235 0.61947 0.16035
 C783 C 1.06784 0.60545 0.16443
 C784 C 1.05600 0.61116 0.19870
 C785 C 1.06867 0.63055 0.22944
 C786 C 1.05510 0.58436 0.13564
 C787 C 1.04479 0.56628 0.11265
 H788 H 1.10951 0.67616 0.38166
 H789 H 1.08571 0.64476 0.32343
 H790 H 1.13214 0.68819 0.20819
 H791 H 1.15609 0.71930 0.26704
 H792 H 1.12405 0.64897 0.18817
 H793 H 1.10171 0.61508 0.13423
 H794 H 1.03703 0.60038 0.20225
 H795 H 1.05916 0.63457 0.25585
 C796 C 0.43395 0.16951 0.35730
 C797 C 0.43503 0.15756 0.32559
 C798 C 0.43719 0.14337 0.28880
 C799 C 0.42048 0.11915 0.28537
 C800 C 0.42372 0.10499 0.25237
 C801 C 0.44381 0.11491 0.22250
 C802 C 0.46018 0.13941 0.22540
 C803 C 0.45689 0.15352 0.25837
 C804 C 0.44847 0.09962 0.19065
 C805 C 0.45858 0.10757 0.14456
 C806 C 0.46481 0.09397 0.11647
 C807 C 0.46096 0.07226 0.13401
 C808 C 0.45035 0.06392 0.17921
 C809 C 0.44412 0.07747 0.20735
 C810 C 0.46927 0.05924 0.10733
 C811 C 0.47682 0.04845 0.08651
 H812 H 0.40519 0.11111 0.30885
 H813 H 0.41067 0.08624 0.25058
 H814 H 0.47599 0.14752 0.20349
 H815 H 0.47002 0.17223 0.26101
 H816 H 0.46189 0.12441 0.13048
 H817 H 0.47307 0.10061 0.08154
 H818 H 0.44745 0.04721 0.19328
 H819 H 0.43671 0.07101 0.24293
 C820 C 0.72753 0.55447 0.39156
 C821 C 0.71189 0.55001 0.36342
 C822 C 0.69237 0.54417 0.33192
 C823 C 0.66962 0.52676 0.34613
 C824 C 0.65037 0.52143 0.31675
 C825 C 0.65361 0.53349 0.27268
 C826 C 0.67657 0.55087 0.25852
 C827 C 0.69584 0.55617 0.28800
 C828 C 0.63303 0.52816 0.24212
 C829 C 0.63170 0.54660 0.21928
 C830 C 0.61212 0.54161 0.19128
 C831 C 0.59362 0.51816 0.18571
 C832 C 0.59480 0.49969 0.20809
 C833 C 0.61437 0.50464 0.23615
 C834 C 0.57359 0.51310 0.15655
 C835 C 0.55705 0.50912 0.13155
 H836 H 0.66674 0.51748 0.38022
 H837 H 0.63290 0.50822 0.32899
 H838 H 0.67965 0.56026 0.22453
 H839 H 0.71338 0.56968 0.27668
 H840 H 0.64563 0.56490 0.22372
 H841 H 0.61137 0.55604 0.17407
 H842 H 0.58064 0.48146 0.20377
 H843 H 0.61501 0.49004 0.25277
 C844 C 0.83618 0.26268 0.37543
 C845 C 0.84831 0.27641 0.34425
 C846 C 0.86298 0.29367 0.30851
 C847 C 0.88478 0.31300 0.32215
 C848 C 0.89842 0.33084 0.28870
 C849 C 0.89040 0.32961 0.24105
 C850 C 0.86868 0.30983 0.22736
 C851 C 0.85505 0.29198 0.26093
 C852 C 0.90406 0.34958 0.20687
 C853 C 0.89247 0.35775 0.17703
 C854 C 0.90537 0.37790 0.14811
 C855 C 0.92999 0.39010 0.14848
 C856 C 0.94169 0.38173 0.17693
 C857 C 0.92882 0.36157 0.20590
 C858 C 0.94315 0.41215 0.12254
 C859 C 0.95387 0.43106 0.10226
 H860 H 0.89100 0.31457 0.35900
 H861 H 0.91486 0.34599 0.30062
 H862 H 0.86215 0.30827 0.19082
 H863 H 0.83817 0.27710 0.25003
 H864 H 0.87346 0.34915 0.17746
 H865 H 0.89614 0.38435 0.12652
 H866 H 0.96075 0.39108 0.17758
 H867 H 0.93824 0.35555 0.22803
   
