data_POSCAR
  _audit_creation_date              2014-09-24
  _audit_creation_method            'ToBaCCo'
  _symmetry_space_group_name_H-M    'P1'
  _symmetry_Int_Tables_number       1
  _symmetry_cell_setting            triclinic
  loop_
  _symmetry_equiv_pos_as_xyz
 x,y,z
_cell_length_a 60.2960
_cell_length_b 60.3545
_cell_length_c 23.7241
_cell_angle_alpha 89.678400
_cell_angle_beta 90.354900
_cell_angle_gamma 120.282600
loop_
  _atom_site_label
  _atom_site_type_symbol
  _atom_site_fract_x
  _atom_site_fract_y
  _atom_site_fract_z
C1 C 0.19352 0.50362 0.47984
 C2 C 0.20672 0.50509 0.43002
 C3 C 0.22968 0.50451 0.43445
 C4 C 0.23879 0.50090 0.48664
 C5 C 0.22451 0.49863 0.53552
 C6 C 0.20206 0.50036 0.53305
 C7 C 0.26311 0.49960 0.48970
 C8 C 0.27678 0.50381 0.54095
 C9 C 0.29965 0.50306 0.54330
 C10 C 0.30992 0.49958 0.49370
 C11 C 0.29693 0.49544 0.44237
 C12 C 0.27320 0.49445 0.44100
 H13 H 0.17623 0.50473 0.47706
 H14 H 0.24097 0.50815 0.39682
 H15 H 0.22993 0.49409 0.57545
 H16 H 0.27026 0.50811 0.57943
 H17 H 0.32768 0.49917 0.49533
 H18 H 0.26306 0.48992 0.40125
 C19 C 0.48937 -0.31541 0.50161
 C20 C 0.49343 -0.30197 0.45059
 C21 C 0.49412 -0.27832 0.45164
 C22 C 0.48817 -0.26946 0.50109
 C23 C 0.48328 -0.28406 0.55107
 C24 C 0.48567 -0.30611 0.55284
 C25 C 0.48790 -0.24466 0.50090
 C26 C 0.49264 -0.23029 0.55091
 C27 C 0.49265 -0.20704 0.55109
 C28 C 0.48945 -0.19717 0.50012
 C29 C 0.48552 -0.21053 0.44958
 C30 C 0.48367 -0.23465 0.45052
 H31 H 0.48970 -0.33315 0.50165
 H32 H 0.49839 -0.26730 0.41323
 H33 H 0.47897 -0.27751 0.58937
 H34 H 0.49707 -0.23652 0.58998
 H35 H 0.48969 -0.17909 0.49971
 H36 H 0.47949 -0.24510 0.41138
 C37 C 1.31174 0.80397 0.49627
 C38 C 1.30024 0.79453 0.44326
 C39 C 1.27956 0.76901 0.44044
 C40 C 1.27120 0.75287 0.48844
 C41 C 1.28429 0.76271 0.53993
 C42 C 1.30379 0.78836 0.54425
 C43 C 1.24801 0.72644 0.48548
 C44 C 1.23259 0.71518 0.53352
 C45 C 1.21017 0.69074 0.53160
 C46 C 1.20294 0.67802 0.47922
 C47 C 1.21756 0.68908 0.43058
 C48 C 1.24030 0.71285 0.43424
 H49 H 1.32784 0.82328 0.50078
 H50 H 1.26891 0.76229 0.40147
 H51 H 1.27902 0.75086 0.57741
 H52 H 1.23711 0.72627 0.57176
 H53 H 1.18600 0.65923 0.47558
 H54 H 1.25181 0.72057 0.39667
 C55 C 0.79551 0.47045 0.52275
 C56 C 0.78897 0.47690 0.47097
 C57 C 0.76809 0.48102 0.46795
 C58 C 0.75319 0.47820 0.51607
 C59 C 0.75983 0.47100 0.56743
 C60 C 0.78132 0.46784 0.57136
 C61 C 0.73179 0.48409 0.51334
 C62 C 0.72438 0.49222 0.56190
 C63 C 0.70512 0.49894 0.55959
 C64 C 0.69349 0.49767 0.50721
 C65 C 0.70047 0.48970 0.45871
 C66 C 0.71929 0.48267 0.46185
 H67 H 0.81225 0.46824 0.52548
 H68 H 0.76446 0.48759 0.42834
 H69 H 0.74856 0.46796 0.60498
 H70 H 0.73471 0.49500 0.60101
 H71 H 0.67826 0.50216 0.50376
 H72 H 0.72374 0.47585 0.42393
 C73 C 0.50272 0.30928 0.49301
 C74 C 0.49831 0.29505 0.44371
 C75 C 0.49579 0.27071 0.44659
 C76 C 0.49957 0.26112 0.49794
 C77 C 0.50385 0.27584 0.54724
 C78 C 0.50475 0.29966 0.54574
 C79 C 0.50046 0.23666 0.49957
 C80 C 0.49594 0.22249 0.55014
 C81 C 0.49997 0.20141 0.55365
 C82 C 0.50632 0.19324 0.50397
 C83 C 0.50920 0.20587 0.45266
 C84 C 0.50703 0.22787 0.45095
 H85 H 0.50287 0.32726 0.48993
 H86 H 0.49140 0.25973 0.40816
 H87 H 0.50800 0.26965 0.58667
 H88 H 0.49042 0.22856 0.58755
 H89 H 0.50746 0.17590 0.50401
 H90 H 0.51109 0.23818 0.41148
 C91 C 0.68190 0.20401 0.51195
 C92 C 0.69077 0.21723 0.46089
 C93 C 0.71172 0.24241 0.46089
 C94 C 0.72515 0.25383 0.51140
 C95 C 0.71641 0.23956 0.56201
 C96 C 0.69441 0.21512 0.56264
 C97 C 0.74864 0.28005 0.51143
 C98 C 0.75595 0.29538 0.56039
 C99 C 0.77904 0.31922 0.56309
 C100 C 0.79390 0.32831 0.51361
 C101 C 0.78677 0.31377 0.46398
 C102 C 0.76440 0.28959 0.46341
 H103 H 0.66548 0.18469 0.51203
 H104 H 0.71772 0.25262 0.42120
 H105 H 0.72658 0.24721 0.60129
 H106 H 0.74317 0.28904 0.59611
 H107 H 0.81187 0.34632 0.51362
 H108 H 0.75993 0.27802 0.42583
 O109 O 0.97170 0.44707 0.10709
 O110 O 0.94019 0.45143 0.06283
 C111 C 0.94788 0.44093 0.10016
 O112 O 1.04220 0.56106 0.09114
 O113 O 1.06774 0.55412 0.03110
 C114 C 1.06447 0.56680 0.07105
 O115 O 0.97157 0.52204 0.11617
 O116 O 0.94002 0.48779 0.06760
 C117 C 0.94778 0.50442 0.10824
 O118 O 1.04265 0.48132 0.08210
 O119 O 1.06780 0.51613 0.02605
 C120 C 1.06483 0.49904 0.06331
 Zr121 Zr 1.00520 0.47447 0.06436
 O122 O 1.01291 0.47435 0.15143
 O123 O 1.00208 0.43810 0.05546
 Zr124 Zr 1.00502 0.53051 0.07116
 O125 O 1.01296 0.53465 0.15869
 O126 O 1.00139 0.56365 0.07167
 O127 O 0.98323 0.49105 0.08501
 O128 O 1.02767 0.51386 0.07255
 O129 O 1.03109 0.48027 -0.11601
 O130 O 1.06249 0.51536 -0.06928
 C131 C 1.05487 0.49787 -0.10802
 O132 O 0.95950 0.52083 -0.09147
 O133 O 0.93431 0.48708 -0.03295
 C134 C 0.93731 0.50321 -0.07271
 O135 O 1.03099 0.55928 -0.10539
 O136 O 1.06217 0.55324 -0.06480
 C137 C 1.05475 0.56513 -0.09896
 O138 O 0.96012 0.44684 -0.10367
 O139 O 0.93434 0.45100 -0.03914
 C140 C 0.93773 0.44074 -0.08390
 Zr141 Zr 0.99726 0.47340 -0.07493
 O142 O 0.99387 0.46921 -0.16345
 O143 O 0.99491 0.43721 -0.06960
 Zr144 Zr 0.99699 0.52944 -0.06860
 O145 O 0.99427 0.53133 -0.15729
 O146 O 0.99426 0.56287 -0.05926
 Zr147 Zr 0.96277 0.48233 0.00808
 Zr148 Zr 1.03930 0.52159 -0.01228
 O149 O 1.01842 0.51258 -0.08835
 O150 O 0.97407 0.48986 -0.07713
 O151 O 1.02442 0.48155 -0.01206
 O152 O 0.97840 0.52235 0.00784
 O153 O 0.97848 0.45831 0.00010
 O154 O 1.02406 0.54612 -0.00435
 H155 H 1.04070 0.51989 0.10307
 H156 H 0.96650 0.52901 0.01270
 H157 H 1.02754 0.51807 -0.12484
 H158 H 0.96642 0.43953 0.00139
 H159 H 1.01631 0.57743 0.05140
 H160 H 1.01119 0.57685 -0.04625
 H161 H 0.98125 0.51399 -0.17034
 H162 H 0.99332 0.48425 -0.17827
 H163 H 1.01258 0.44030 -0.06529
 H164 H 1.01738 0.44062 0.03473
 H165 H 1.00293 0.48076 0.17139
 H166 H 1.00249 0.51752 0.17604
 O167 O 0.55732 0.51947 0.10872
 O168 O 0.55279 0.48723 0.05043
 C169 C 0.56309 0.50234 0.09324
 O170 O 0.44319 0.47729 0.08821
 O171 O 0.45172 0.51408 0.04142
 C172 C 0.43813 0.49526 0.07573
 O173 O 0.48100 0.44342 0.09297
 O174 O 0.51648 0.45095 0.04258
 C175 C 0.49873 0.43820 0.07966
 O176 O 0.52385 0.55813 0.10349
 O177 O 0.49003 0.55238 0.04821
 C178 C 0.50670 0.56399 0.08801
 Zr179 Zr 0.53039 0.52872 0.07406
 O180 O 0.52719 0.52814 0.16291
 O181 O 0.56704 0.56228 0.07883
 Zr182 Zr 0.47402 0.47240 0.06251
 O183 O 0.46903 0.46976 0.15099
 O184 O 0.44049 0.43603 0.05258
 O185 O 0.51317 0.48889 0.07945
 O186 O 0.49085 0.51123 0.07876
 O187 O 0.52952 0.56419 -0.09275
 O188 O 0.49267 0.55533 -0.04653
 C189 C 0.51153 0.56917 -0.08039
 O190 O 0.48720 0.45011 -0.11341
 O191 O 0.51996 0.45473 -0.05567
 C192 C 0.50453 0.44445 -0.09816
 O193 O 0.44885 0.48386 -0.10892
 O194 O 0.45470 0.51746 -0.05360
 C195 C 0.44313 0.50105 -0.09372
 O196 O 0.56331 0.52641 -0.09809
 O197 O 0.55619 0.49092 -0.04767
 C198 C 0.56873 0.50876 -0.08482
 Zr199 Zr 0.53449 0.53329 -0.06744
 O200 O 0.53683 0.53864 -0.15590
 O201 O 0.57095 0.56674 -0.05764
 Zr202 Zr 0.47814 0.47699 -0.07895
 O203 O 0.47840 0.48023 -0.16784
 O204 O 0.44446 0.44043 -0.08330
 Zr205 Zr 0.52326 0.48395 -0.00250
 Zr206 Zr 0.48519 0.52184 -0.00240
 O207 O 0.49560 0.51648 -0.08360
 O208 O 0.51799 0.49425 -0.08442
 O209 O 0.52523 0.54675 0.00414
 O210 O 0.48328 0.45953 -0.00905
 O211 O 0.54766 0.52388 0.00410
 O212 O 0.46026 0.48186 -0.00902
 H213 H 0.48423 0.51589 0.11205
 H214 H 0.47638 0.44080 -0.01174
 H215 H 0.49094 0.52323 -0.11698
 H216 H 0.56643 0.53079 0.00676
 H217 H 0.42763 0.43867 0.03222
 H218 H 0.43046 0.44179 -0.06520
 H219 H 0.49568 0.48453 -0.18079
 H220 H 0.53317 0.52225 -0.17312
 H221 H 0.56840 0.57956 -0.03735
 H222 H 0.56582 0.57625 0.05975
 H223 H 0.52315 0.51092 0.17595
 H224 H 0.48550 0.47334 0.16811
 O225 O 0.47473 0.03038 0.10716
 O226 O 0.51018 0.06076 0.05969
 C227 C 0.49225 0.05401 0.09694
 O228 O 0.52029 -0.03884 0.10097
 O229 O 0.48670 -0.06642 0.04447
 C230 C 0.50375 -0.06169 0.08338
 O231 O 0.55180 0.03222 0.11743
 O232 O 0.54747 0.06186 0.06511
 C233 C 0.55756 0.05560 0.10624
 O234 O 0.43801 -0.04100 0.09029
 O235 O 0.44777 -0.06738 0.04023
 C236 C 0.43344 -0.06352 0.07479
 Zr237 Zr 0.46891 -0.00415 0.07037
 O238 O 0.46346 -0.00965 0.15850
 O239 O 0.43442 -0.00350 0.05982
 Zr240 Zr 0.52568 -0.00263 0.07758
 O241 O 0.52216 -0.00845 0.16589
 O242 O 0.56276 0.00165 0.08033
 O243 O 0.50789 0.01901 0.08838
 O244 O 0.48626 -0.02594 0.08140
 O245 O 0.44437 -0.03508 -0.10360
 O246 O 0.45067 -0.06454 -0.05542
 C247 C 0.43882 -0.05845 -0.09284
 O248 O 0.55861 0.03879 -0.09105
 O249 O 0.55066 0.06487 -0.03524
 C250 C 0.56334 0.06126 -0.07460
 O251 O 0.52655 -0.03273 -0.09415
 O252 O 0.48971 -0.06336 -0.05104
 C253 C 0.50904 -0.05641 -0.08468
 O254 O 0.48076 0.03654 -0.09861
 O255 O 0.51329 0.06389 -0.03954
 C256 C 0.49741 0.05936 -0.08099
 Zr257 Zr 0.47352 0.00017 -0.07052
 O258 O 0.47502 0.00013 -0.15968
 O259 O 0.43911 0.00149 -0.07382
 Zr260 Zr 0.53032 0.00180 -0.06337
 O261 O 0.53289 0.00163 -0.15226
 O262 O 0.56722 0.00590 -0.05542
 Zr263 Zr 0.51811 0.03719 0.00889
 Zr264 Zr 0.48116 -0.03958 -0.00185
 O265 O 0.49156 -0.02091 -0.08060
 O266 O 0.51320 0.02411 -0.07502
 O267 O 0.45581 -0.02515 -0.00380
 O268 O 0.54295 0.02224 0.01081
 O269 O 0.47799 0.02042 0.00263
 O270 O 0.52133 -0.02333 0.00441
 H271 H 0.47968 -0.03837 0.11307
 H272 H 0.56166 0.03442 0.01411
 H273 H 0.48710 -0.03129 -0.11546
 H274 H 0.47042 0.03167 0.00276
 H275 H 0.56210 -0.01262 0.05863
 H276 H 0.56507 -0.01000 -0.03803
 H277 H 0.52800 0.01392 -0.16713
 H278 H 0.49125 0.01547 -0.17140
 H279 H 0.42674 -0.01197 -0.04805
 H280 H 0.42742 -0.00485 0.09817
 H281 H 0.47969 0.00305 0.17688
 H282 H 0.51739 0.00371 0.18162
 C283 C 1.19951 0.49359 0.32946
 C284 C 1.18666 0.49160 0.27877
 C285 C 1.17145 0.50294 0.27295
 C286 C 1.16955 0.51667 0.31841
 C287 C 1.18175 0.51807 0.36958
 C288 C 1.19655 0.50610 0.37656
 C289 C 1.15545 0.49791 0.22194
 C290 C 1.15034 0.51538 0.20024
 C291 C 1.13012 0.50902 0.15740
 C292 C 1.13251 0.52809 0.11979
 C293 C 1.11186 0.52396 0.08541
 C294 C 1.08811 0.50103 0.08957
 C295 C 1.08619 0.48142 0.12511
 C296 C 1.10702 0.48531 0.15847
 H297 H 1.21016 0.48359 0.33265
 H298 H 1.18814 0.48068 0.24440
 H299 H 1.15768 0.52538 0.31534
 H300 H 1.17968 0.52884 0.40341
 H301 H 1.14705 0.47907 0.20297
 H302 H 1.16063 0.53489 0.21593
 H303 H 1.15010 0.54652 0.11839
 H304 H 1.11409 0.53930 0.05796
 H305 H 1.06820 0.46349 0.12916
 H306 H 1.10442 0.47038 0.18779
 C307 C 0.51380 0.70386 0.35726
 C308 C 0.51848 0.69330 0.30947
 C309 C 0.50581 0.66665 0.30214
 C310 C 0.48856 0.65067 0.34352
 C311 C 0.48432 0.66106 0.39167
 C312 C 0.49706 0.68786 0.39999
 C313 C 0.51186 0.65547 0.25347
 C314 C 0.49376 0.63398 0.22863
 C315 C 0.49933 0.61925 0.18726
 C316 C 0.48004 0.60348 0.14899
 C317 C 0.48304 0.58644 0.11483
 C318 C 0.50519 0.58435 0.11918
 C319 C 0.52489 0.60072 0.15631
 C320 C 0.52205 0.61811 0.18990
 H321 H 0.52455 0.72450 0.36196
 H322 H 0.53212 0.70595 0.27832
 H323 H 0.47879 0.62999 0.33950
 H324 H 0.47044 0.64787 0.42172
 H325 H 0.53151 0.66481 0.23873
 H326 H 0.47383 0.62633 0.24017
 H327 H 0.46229 0.60387 0.14661
 H328 H 0.46749 0.57415 0.08668
 H329 H 0.54219 0.59959 0.16057
 H330 H 0.53704 0.62960 0.21994
 C331 C 0.32160 -0.16270 0.39858
 C332 C 0.33249 -0.14703 0.35155
 C333 C 0.33188 -0.15759 0.29879
 C334 C 0.31879 -0.18442 0.29325
 C335 C 0.30758 -0.20026 0.34033
 C336 C 0.30943 -0.18967 0.39439
 C337 C 0.34549 -0.13973 0.25154
 C338 C 0.35480 -0.14571 0.20647
 C339 C 0.37239 -0.12593 0.16574
 C340 C 0.39081 -0.12948 0.13768
 C341 C 0.40994 -0.10969 0.10523
 C342 C 0.41102 -0.08595 0.10052
 C343 C 0.39147 -0.08311 0.12512
 C344 C 0.37221 -0.10294 0.15684
 H345 H 0.32236 -0.15339 0.43796
 H346 H 0.34193 -0.12641 0.35679
 H347 H 0.31730 -0.19330 0.25285
 H348 H 0.29878 -0.22075 0.33438
 H349 H 0.35040 -0.12002 0.25764
 H350 H 0.35205 -0.16480 0.20270
 H351 H 0.39115 -0.14714 0.14307
 H352 H 0.42459 -0.11253 0.08626
 H353 H 0.39141 -0.06525 0.12104
 H354 H 0.35760 -0.09991 0.17532
 C355 C 0.79396 0.46856 0.36962
 C356 C 0.80954 0.47126 0.32349
 C357 C 0.83642 0.48632 0.32765
 C358 C 0.84729 0.49951 0.37842
 C359 C 0.83178 0.49652 0.42454
 C360 C 0.80504 0.48079 0.42084
 C361 C 0.85239 0.48803 0.27840
 C362 C 0.87744 0.49573 0.28289
 C363 C 0.89414 0.49848 0.23479
 C364 C 0.92036 0.51648 0.23960
 C365 C 0.93744 0.51888 0.19757
 C366 C 0.92882 0.50298 0.14978
 C367 C 0.90243 0.48505 0.14443
 C368 C 0.88518 0.48286 0.18653
 H369 H 0.77333 0.45643 0.36578
 H370 H 0.80059 0.46120 0.28476
 H371 H 0.86771 0.51240 0.38308
 H372 H 0.84069 0.50666 0.46322
 H373 H 0.84311 0.48258 0.23754
 H374 H 0.88680 0.50097 0.32357
 H375 H 0.92774 0.52866 0.27643
 H376 H 0.95760 0.53285 0.20343
 H377 H 0.89519 0.47240 0.10835
 H378 H 0.86512 0.46838 0.18215
 C379 C 0.47526 0.29271 0.35354
 C380 C 0.47266 0.30457 0.30505
 C381 C 0.49159 0.32974 0.29090
 C382 C 0.51332 0.34278 0.32591
 C383 C 0.51572 0.33108 0.37456
 C384 C 0.49657 0.30612 0.38924
 C385 C 0.48702 0.34297 0.24341
 C386 C 0.50615 0.36254 0.21525
 C387 C 0.50206 0.37929 0.17593
 C388 C 0.52063 0.39321 0.13479
 C389 C 0.51896 0.41153 0.10159
 C390 C 0.49897 0.41675 0.10986
 C391 C 0.47998 0.40227 0.15002
 C392 C 0.48148 0.38375 0.18266
 H393 H 0.46015 0.27352 0.36439
 H394 H 0.45561 0.29427 0.27913
 H395 H 0.52793 0.36244 0.31739
 H396 H 0.53233 0.34175 0.40156
 H397 H 0.46727 0.33675 0.23251
 H398 H 0.52576 0.36704 0.22224
 H399 H 0.53677 0.39024 0.12908
 H400 H 0.53372 0.42208 0.07057
 H401 H 0.46430 0.40576 0.15757
 H402 H 0.46718 0.37393 0.21498
 C403 C 0.66759 0.21245 0.36918
 C404 C 0.65432 0.19756 0.32210
 C405 C 0.65244 0.17366 0.31300
 C406 C 0.66548 0.16574 0.34999
 C407 C 0.67834 0.18036 0.39711
 C408 C 0.67907 0.20353 0.40776
 C409 C 0.63662 0.15721 0.26549
 C410 C 0.62540 0.13153 0.26761
 C411 C 0.60938 0.11353 0.22251
 C412 C 0.60442 0.08823 0.22605
 C413 C 0.58824 0.06977 0.18736
 C414 C 0.57639 0.07605 0.14398
 C415 C 0.58174 0.10155 0.13939
 C416 C 0.59804 0.12014 0.17837
 H417 H 0.66810 0.23039 0.37659
 H418 H 0.64484 0.20432 0.29375
 H419 H 0.66577 0.14819 0.34302
 H420 H 0.68759 0.17344 0.42577
 H421 H 0.63370 0.16648 0.22942
 H422 H 0.62788 0.12270 0.30510
 H423 H 0.61289 0.08257 0.25947
 H424 H 0.58471 0.05041 0.19224
 H425 H 0.57289 0.10701 0.10649
 H426 H 0.60102 0.13931 0.17457
 C427 C 0.48073 0.18659 -0.35190
 C428 C 0.47805 0.17267 -0.30245
 C429 C 0.49311 0.16131 -0.29341
 C430 C 0.51079 0.16392 -0.33479
 C431 C 0.51311 0.17726 -0.38453
 C432 C 0.49794 0.18865 -0.39455
 C433 C 0.48862 0.14482 -0.24349
 C434 C 0.50754 0.14259 -0.21922
 C435 C 0.50294 0.12225 -0.17803
 C436 C 0.52264 0.12615 -0.14046
 C437 C 0.52032 0.10604 -0.10666
 C438 C 0.49852 0.08144 -0.11100
 C439 C 0.47846 0.07776 -0.14737
 C440 C 0.48059 0.09796 -0.18041
 H441 H 0.46814 0.19434 -0.35772
 H442 H 0.46399 0.17051 -0.27143
 H443 H 0.52234 0.15495 -0.32967
 H444 H 0.52739 0.17907 -0.41453
 H445 H 0.46919 0.13374 -0.22769
 H446 H 0.52725 0.15556 -0.23159
 H447 H 0.54014 0.14464 -0.13829
 H448 H 0.53603 0.10951 -0.07888
 H449 H 0.46136 0.05906 -0.15154
 H450 H 0.46530 0.09408 -0.20992
 C451 C 0.68858 0.52430 -0.39561
 C452 C 0.67888 0.53033 -0.34871
 C453 C 0.67697 0.51845 -0.29675
 C454 C 0.68661 0.50167 -0.29131
 C455 C 0.69708 0.49613 -0.33801
 C456 C 0.69735 0.50663 -0.39158
 C457 C 0.66387 0.52342 -0.25035
 C458 C 0.64748 0.50490 -0.21538
 C459 C 0.62918 0.50779 -0.17881
 C460 C 0.61721 0.49045 -0.13416
 C461 C 0.59804 0.49109 -0.10236
 C462 C 0.59027 0.50897 -0.11505
 C463 C 0.60256 0.52655 -0.15914
 C464 C 0.62162 0.52591 -0.19078
 H465 H 0.68957 0.53396 -0.43489
 H466 H 0.67196 0.54368 -0.35359
 H467 H 0.68581 0.49263 -0.25124
 H468 H 0.70336 0.48232 -0.33259
 H469 H 0.66560 0.54213 -0.24979
 H470 H 0.64602 0.48627 -0.21625
 H471 H 0.62241 0.47610 -0.12442
 H472 H 0.58902 0.47731 -0.06855
 H473 H 0.59696 0.54045 -0.17051
 H474 H 0.62943 0.53900 -0.22600
 C475 C 0.78153 0.32008 -0.33261
 C476 C 0.79403 0.33287 -0.28297
 C477 C 0.81332 0.35872 -0.28462
 C478 C 0.81805 0.37230 -0.33549
 C479 C 0.80560 0.35968 -0.38499
 C480 C 0.78807 0.33296 -0.38529
 C481 C 0.83014 0.37061 -0.23496
 C482 C 0.85563 0.38445 -0.24179
 C483 C 0.87474 0.39531 -0.19569
 C484 C 0.89941 0.39968 -0.20670
 C485 C 0.91929 0.41283 -0.16831
 C486 C 0.91518 0.42238 -0.11792
 C487 C 0.89007 0.41665 -0.10505
 C488 C 0.86995 0.40326 -0.14378
 H489 H 0.76844 0.29963 -0.32961
 H490 H 0.78991 0.32209 -0.24398
 H491 H 0.83211 0.39260 -0.33735
 H492 H 0.81003 0.37109 -0.42299
 H493 H 0.82196 0.36564 -0.19310
 H494 H 0.86326 0.38673 -0.28406
 H495 H 0.90355 0.39356 -0.24617
 H496 H 0.93823 0.41653 -0.17967
 H497 H 0.88619 0.42339 -0.06625
 H498 H 0.85110 0.40028 -0.13427
 C499 C 0.48192 -0.20629 -0.34717
 C500 C 0.48294 -0.19284 -0.29845
 C501 C 0.49800 -0.16598 -0.29677
 C502 C 0.51222 -0.15282 -0.34489
 C503 C 0.51116 -0.16624 -0.39352
 C504 C 0.49571 -0.19307 -0.39550
 C505 C 0.49679 -0.15215 -0.24641
 C506 C 0.51551 -0.12839 -0.23301
 C507 C 0.51366 -0.11207 -0.18875
 C508 C 0.53539 -0.08794 -0.17881
 C509 C 0.53410 -0.07031 -0.14325
 C510 C 0.51101 -0.07640 -0.11636
 C511 C 0.48953 -0.10098 -0.12385
 C512 C 0.49074 -0.11863 -0.15994
 H513 H 0.46960 -0.22695 -0.34774
 H514 H 0.47158 -0.20342 -0.26227
 H515 H 0.52343 -0.13210 -0.34618
 H516 H 0.52210 -0.15556 -0.43003
 H517 H 0.47981 -0.16198 -0.22058
 H518 H 0.53317 -0.11985 -0.25693
 H519 H 0.55331 -0.08231 -0.20017
 H520 H 0.55110 -0.05161 -0.13799
 H521 H 0.47145 -0.10621 -0.10379
 H522 H 0.47339 -0.13683 -0.16639
 C523 C 0.29832 0.48725 -0.35859
 C524 C 0.31097 0.48536 -0.31079
 C525 C 0.33769 0.50097 -0.30525
 C526 C 0.35151 0.51896 -0.34786
 C527 C 0.33892 0.52054 -0.39598
 C528 C 0.31231 0.50437 -0.40222
 C529 C 0.35100 0.49626 -0.25818
 C530 C 0.37324 0.51470 -0.23659
 C531 C 0.38862 0.50943 -0.19571
 C532 C 0.40455 0.52864 -0.15759
 C533 C 0.42135 0.52534 -0.12253
 C534 C 0.42307 0.50299 -0.12595
 C535 C 0.40673 0.48350 -0.16336
 C536 C 0.38957 0.48663 -0.19775
 H537 H 0.27781 0.47436 -0.36288
 H538 H 0.29998 0.47122 -0.27876
 H539 H 0.37221 0.53084 -0.34562
 H540 H 0.35009 0.53380 -0.42928
 H541 H 0.34231 0.47695 -0.24137
 H542 H 0.38063 0.53446 -0.24939
 H543 H 0.40430 0.54644 -0.15562
 H544 H 0.43366 0.54073 -0.09421
 H545 H 0.40761 0.46609 -0.16705
 H546 H 0.37797 0.47169 -0.22769
 C547 C 1.20632 0.68545 -0.36483
 C548 C 1.19163 0.67383 -0.31671
 C549 C 1.16525 0.65635 -0.32112
 C550 C 1.15385 0.65036 -0.37487
 C551 C 1.16849 0.66175 -0.42304
 C552 C 1.19511 0.67951 -0.41924
 C553 C 1.15041 0.64354 -0.26957
 C554 C 1.12515 0.63480 -0.26529
 C555 C 1.10905 0.61950 -0.21707
 C556 C 1.08459 0.61663 -0.21127
 C557 C 1.06741 0.59993 -0.17101
 C558 C 1.07425 0.58555 -0.13564
 C559 C 1.09912 0.58917 -0.13980
 C560 C 1.11632 0.60587 -0.18022
 H561 H 1.22675 0.69814 -0.35900
 H562 H 1.20096 0.67843 -0.27581
 H563 H 1.13366 0.63647 -0.38017
 H564 H 1.15844 0.65701 -0.46300
 H565 H 1.16083 0.64176 -0.23421
 H566 H 1.11555 0.63896 -0.29891
 H567 H 1.07845 0.62681 -0.23914
 H568 H 1.04844 0.59769 -0.16894
 H569 H 1.10495 0.57823 -0.11358
 H570 H 1.13472 0.60701 -0.18399
 C571 C 0.79982 0.44727 -0.36661
 C572 C 0.81259 0.44725 -0.31720
 C573 C 0.81694 0.46477 -0.27394
 C574 C 0.80638 0.48084 -0.27892
 C575 C 0.79338 0.48066 -0.32804
 C576 C 0.79075 0.46450 -0.37313
 C577 C 0.83398 0.46708 -0.22635
 C578 C 0.85042 0.48985 -0.20323
 C579 C 0.87148 0.49364 -0.16485
 C580 C 0.89499 0.51673 -0.16820
 C581 C 0.91616 0.52021 -0.13678
 C582 C 0.91409 0.50084 -0.10027
 C583 C 0.89005 0.47839 -0.09410
 C584 C 0.86897 0.47468 -0.12651
 H585 H 0.79777 0.43441 -0.40049
 H586 H 0.82028 0.43448 -0.31403
 H587 H 0.80878 0.49404 -0.24557
 H588 H 0.78661 0.49416 -0.33195
 H589 H 0.83552 0.45043 -0.21566
 H590 H 0.85071 0.50694 -0.21856
 H591 H 0.89729 0.53174 -0.19701
 H592 H 0.93430 0.53786 -0.14209
 H593 H 0.88771 0.46334 -0.06556
 H594 H 0.85086 0.45694 -0.12186
 C595 C 0.49562 0.30022 -0.35332
 C596 C 0.49462 0.31349 -0.30613
 C597 C 0.50562 0.34021 -0.30770
 C598 C 0.51805 0.35355 -0.35698
 C599 C 0.51855 0.34033 -0.40452
 C600 C 0.50682 0.31332 -0.40416
 C601 C 0.50191 0.35359 -0.25989
 C602 C 0.51948 0.37760 -0.24551
 C603 C 0.51451 0.39258 -0.20367
 C604 C 0.53492 0.41081 -0.17083
 C605 C 0.53132 0.42695 -0.13481
 C606 C 0.50743 0.42568 -0.13226
 C607 C 0.48692 0.40729 -0.16482
 C608 C 0.49036 0.39072 -0.19990
 H609 H 0.48590 0.27949 -0.35082
 H610 H 0.48474 0.30281 -0.26865
 H611 H 0.52648 0.37416 -0.35974
 H612 H 0.52842 0.35151 -0.44142
 H613 H 0.48413 0.34348 -0.23646
 H614 H 0.53823 0.38675 -0.26516
 H615 H 0.55375 0.41276 -0.17359
 H616 H 0.54752 0.44106 -0.11050
 H617 H 0.46831 0.40593 -0.16370
 H618 H 0.47442 0.37725 -0.22579
 C619 C 0.70015 0.19582 -0.34851
 C620 C 0.68978 0.18007 -0.30102
 C621 C 0.66371 0.16955 -0.28764
 C622 C 0.64818 0.17509 -0.32257
 C623 C 0.65842 0.19042 -0.37042
 C624 C 0.68440 0.20070 -0.38410
 C625 C 0.65250 0.15093 -0.24067
 C626 C 0.63234 0.14799 -0.21098
 C627 C 0.61787 0.12653 -0.17111
 C628 C 0.60381 0.12948 -0.12790
 C629 C 0.58719 0.10859 -0.09430
 C630 C 0.58376 0.08410 -0.10425
 C631 C 0.59857 0.08137 -0.14623
 C632 C 0.61548 0.10235 -0.17924
 H633 H 0.72020 0.20339 -0.35865
 H634 H 0.70202 0.17581 -0.27511
 H635 H 0.62786 0.16671 -0.31442
 H636 H 0.64595 0.19392 -0.39741
 H637 H 0.66087 0.13913 -0.23111
 H638 H 0.62569 0.16151 -0.21690
 H639 H 0.60522 0.14788 -0.12101
 H640 H 0.57634 0.11147 -0.06192
 H641 H 0.59645 0.06281 -0.15504
 H642 H 0.62556 0.09922 -0.21302
 C643 C 1.20062 0.50797 -0.36491
 C644 C 1.18697 0.50845 -0.31769
 C645 C 1.16058 0.49960 -0.32148
 C646 C 1.14781 0.48870 -0.37247
 C647 C 1.16134 0.48852 -0.41962
 C648 C 1.18816 0.49878 -0.41744
 C649 C 1.14656 0.50138 -0.27197
 C650 C 1.12519 0.50278 -0.27824
 C651 C 1.10828 0.50110 -0.23167
 C652 C 1.08193 0.48895 -0.24304
 C653 C 1.06485 0.48745 -0.20209
 C654 C 1.07369 0.49860 -0.14882
 C655 C 1.10019 0.51102 -0.13714
 C656 C 1.11741 0.51203 -0.17819
 H657 H 1.22118 0.51624 -0.36069
 H658 H 1.19721 0.51647 -0.27856
 H659 H 1.12719 0.47995 -0.37626
 H660 H 1.15038 0.47947 -0.45736
 H661 H 1.15377 0.50123 -0.23013
 H662 H 1.11848 0.50354 -0.32023
 H663 H 1.07448 0.48053 -0.28401
 H664 H 1.04464 0.47806 -0.21292
 H665 H 1.10754 0.51994 -0.09655
 H666 H 1.13776 0.52193 -0.16873
 C667 C 0.47217 0.68241 -0.34741
 C668 C 0.47297 0.67073 -0.29671
 C669 C 0.48795 0.65906 -0.29204
 C670 C 0.50146 0.65850 -0.33938
 C671 C 0.50046 0.66976 -0.38992
 C672 C 0.48577 0.68196 -0.39534
 C673 C 0.48831 0.64613 -0.23906
 C674 C 0.50950 0.64584 -0.22249
 C675 C 0.51035 0.62859 -0.17878
 C676 C 0.53255 0.62661 -0.17583
 C677 C 0.53335 0.60811 -0.14184
 C678 C 0.51199 0.59120 -0.10939
 C679 C 0.49038 0.59430 -0.10910
 C680 C 0.48948 0.61273 -0.14363
 H681 H 0.46000 0.69079 -0.34924
 H682 H 0.46196 0.67092 -0.26099
 H683 H 0.51267 0.64905 -0.33779
 H684 H 0.51229 0.66970 -0.42393
 H685 H 0.47059 0.63593 -0.21574
 H686 H 0.52708 0.65750 -0.24581
 H687 H 0.54903 0.63868 -0.20195
 H688 H 0.55045 0.60651 -0.14256
 H689 H 0.47374 0.58181 -0.08393
 H690 H 0.47218 0.61390 -0.14346
 C691 C 0.32994 -0.20808 -0.36986
 C692 C 0.34306 -0.19478 -0.32109
 C693 C 0.34154 -0.17350 -0.30247
 C694 C 0.32524 -0.16689 -0.33158
 C695 C 0.31254 -0.17986 -0.38053
 C696 C 0.31519 -0.20018 -0.40065
 C697 C 0.35761 -0.15815 -0.25397
 C698 C 0.36533 -0.13315 -0.24827
 C699 C 0.38252 -0.11594 -0.20331
 C700 C 0.38489 -0.09168 -0.19856
 C701 C 0.40245 -0.07351 -0.16116
 C702 C 0.41824 -0.07905 -0.12733
 C703 C 0.41529 -0.10368 -0.13022
 C704 C 0.39765 -0.12197 -0.16802
 H705 H 0.33209 -0.22382 -0.38476
 H706 H 0.35513 -0.20054 -0.29902
 H707 H 0.32235 -0.15157 -0.31721
 H708 H 0.30085 -0.17382 -0.40330
 H709 H 0.36408 -0.16744 -0.22448
 H710 H 0.35934 -0.12410 -0.27951
 H711 H 0.37347 -0.08649 -0.22494
 H712 H 0.40401 -0.05483 -0.15978
 H713 H 0.42725 -0.10850 -0.10483
 H714 H 0.39671 -0.14029 -0.17065
 C715 C 0.46560 -0.21154 0.35516
 C716 C 0.46508 -0.19916 0.30537
 C717 C 0.48418 -0.17363 0.29475
 C718 C 0.50358 -0.16057 0.33530
 C719 C 0.50394 -0.17279 0.38501
 C720 C 0.48493 -0.19831 0.39567
 C721 C 0.48260 -0.16015 0.24377
 C722 C 0.50370 -0.14115 0.21933
 C723 C 0.50359 -0.12265 0.17810
 C724 C 0.52586 -0.09847 0.17416
 C725 C 0.52611 -0.07905 0.14165
 C726 C 0.50417 -0.08344 0.11143
 C727 C 0.48235 -0.10816 0.11211
 C728 C 0.48197 -0.12761 0.14546
 H729 H 0.45063 -0.23118 0.36265
 H730 H 0.44972 -0.20947 0.27518
 H731 H 0.51811 -0.14062 0.32966
 H732 H 0.51911 -0.16220 0.41544
 H733 H 0.46368 -0.16509 0.22881
 H734 H 0.52234 -0.13719 0.23447
 H735 H 0.54286 -0.09417 0.19836
 H736 H 0.54337 -0.06033 0.14135
 H737 H 0.46528 -0.11218 0.08866
 H738 H 0.46468 -0.14624 0.14607
 C739 C 0.29436 0.47232 0.35261
 C740 C 0.30600 0.46939 0.30457
 C741 C 0.33185 0.48702 0.29259
 C742 C 0.34595 0.50751 0.32992
 C743 C 0.33443 0.51024 0.37813
 C744 C 0.30859 0.49263 0.39011
 C745 C 0.34431 0.48256 0.24384
 C746 C 0.36426 0.50177 0.21675
 C747 C 0.38000 0.49786 0.17463
 C748 C 0.39539 0.51802 0.13769
 C749 C 0.41327 0.51658 0.10301
 C750 C 0.41645 0.49506 0.10526
 C751 C 0.40027 0.47440 0.14051
 C752 C 0.38226 0.47576 0.17485
 H753 H 0.27446 0.45837 0.36125
 H754 H 0.29487 0.45326 0.27685
 H755 H 0.36612 0.52100 0.32304
 H756 H 0.34577 0.52610 0.40635
 H757 H 0.33689 0.46293 0.23052
 H758 H 0.36985 0.52141 0.22671
 H759 H 0.39414 0.53532 0.13696
 H760 H 0.42536 0.53282 0.07631
 H761 H 0.40220 0.45753 0.14332
 H762 H 0.37122 0.46006 0.20363
 C763 C 1.19849 0.64999 0.36916
 C764 C 1.18605 0.63738 0.31947
 C765 C 1.18224 0.65079 0.27553
 C766 C 1.19284 0.67747 0.28044
 C767 C 1.20560 0.69015 0.32985
 C768 C 1.20785 0.67638 0.37530
 C769 C 1.16592 0.63617 0.22698
 C770 C 1.14987 0.64245 0.20171
 C771 C 1.12933 0.62494 0.16256
 C772 C 1.10557 0.62385 0.16441
 C773 C 1.08475 0.60560 0.13295
 C774 C 1.08741 0.58838 0.09791
 C775 C 1.11173 0.59073 0.09291
 C776 C 1.13247 0.60867 0.12537
 H777 H 1.20023 0.63901 0.40341
 H778 H 1.17828 0.61686 0.31645
 H779 H 1.19081 0.68847 0.24666
 H780 H 1.21263 0.71052 0.33358
 H781 H 1.16452 0.61799 0.21716
 H782 H 1.14934 0.65920 0.21593
 H783 H 1.10276 0.63638 0.19228
 H784 H 1.06637 0.60455 0.13723
 H785 H 1.11452 0.57809 0.06552
 H786 H 1.15081 0.60958 0.12187
 C787 C 0.53149 0.18715 0.39915
 C788 C 0.53284 0.17369 0.35285
 C789 C 0.51556 0.16735 0.30773
 C790 C 0.49807 0.17630 0.30780
 C791 C 0.49699 0.19012 0.35377
 C792 C 0.51319 0.19500 0.40052
 C793 C 0.51564 0.15063 0.26255
 C794 C 0.49396 0.13268 0.23774
 C795 C 0.49339 0.11328 0.19898
 C796 C 0.47167 0.08858 0.19827
 C797 C 0.47110 0.06934 0.16471
 C798 C 0.49211 0.07459 0.13032
 C799 C 0.51343 0.09965 0.12936
 C800 C 0.51411 0.11878 0.16344
 H801 H 0.54431 0.19088 0.43460
 H802 H 0.54664 0.16721 0.35340
 H803 H 0.48497 0.17228 0.27282
 H804 H 0.48271 0.19598 0.35394
 H805 H 0.53354 0.15112 0.25442
 H806 H 0.47571 0.13039 0.25058
 H807 H 0.45537 0.08398 0.22495
 H808 H 0.45430 0.05031 0.16605
 H809 H 0.52983 0.10442 0.10296
 H810 H 0.53084 0.13783 0.16182
 C811 C 0.70289 0.50664 0.36143
 C812 C 0.69076 0.50996 0.31435
 C813 C 0.66390 0.49588 0.30918
 C814 C 0.64938 0.47804 0.35145
 C815 C 0.66147 0.47509 0.39891
 C816 C 0.68825 0.48964 0.40461
 C817 C 0.65127 0.50186 0.26273
 C818 C 0.62888 0.48418 0.24022
 C819 C 0.61440 0.49054 0.19911
 C820 C 0.59913 0.47229 0.15865
 C821 C 0.58336 0.47671 0.12263
 C822 C 0.58193 0.49917 0.12748
 C823 C 0.59753 0.51765 0.16755
 C824 C 0.61375 0.51346 0.20281
 H825 H 0.72357 0.51830 0.36560
 H826 H 0.70228 0.52397 0.28256
 H827 H 0.62861 0.46736 0.34947
 H828 H 0.64987 0.46213 0.43222
 H829 H 0.66065 0.52139 0.24695
 H830 H 0.62079 0.46421 0.25201
 H831 H 0.59918 0.45441 0.15535
 H832 H 0.57167 0.46212 0.09216
 H833 H 0.59686 0.53514 0.17236
 H834 H 0.62491 0.52766 0.23452
 C835 C 0.79233 0.32315 0.36010
 C836 C 0.80806 0.33496 0.31333
 C837 C 0.83495 0.34760 0.31832
 C838 C 0.84575 0.34773 0.37128
 C839 C 0.83003 0.33592 0.41788
 C840 C 0.80320 0.32394 0.41310
 C841 C 0.85090 0.36187 0.26874
 C842 C 0.87613 0.37019 0.26475
 C843 C 0.89304 0.38677 0.21854
 C844 C 0.91799 0.39064 0.21524
 C845 C 0.93550 0.40763 0.17583
 C846 C 0.92853 0.42127 0.13850
 C847 C 0.90338 0.41704 0.14077
 C848 C 0.88585 0.40009 0.18048
 H849 H 0.77171 0.31422 0.35530
 H850 H 0.79918 0.33468 0.27330
 H851 H 0.86627 0.35763 0.37792
 H852 H 0.83893 0.33654 0.45810
 H853 H 0.84122 0.36553 0.23459
 H854 H 0.88524 0.36471 0.29689
 H855 H 0.92419 0.38084 0.24411
 H856 H 0.95470 0.41041 0.17538
 H857 H 0.89743 0.42741 0.11302
 H858 H 0.86711 0.39829 0.18206
   
