data_POSCAR
  _audit_creation_date              2014-09-24
  _audit_creation_method            'ToBaCCo'
  _symmetry_space_group_name_H-M    'P1'
  _symmetry_Int_Tables_number       1
  _symmetry_cell_setting            triclinic
  loop_
  _symmetry_equiv_pos_as_xyz
 x,y,z
_cell_length_a 19.7235
_cell_length_b 20.3046
_cell_length_c 19.2845
_cell_angle_alpha 90.353900
_cell_angle_beta 90.599200
_cell_angle_gamma 83.457800
loop_
  _atom_site_label
  _atom_site_type_symbol
  _atom_site_fract_x
  _atom_site_fract_y
  _atom_site_fract_z
C1 C 0.01973 0.42770 0.11334
 H2 H 0.05381 0.46550 0.11680
 C3 C 0.04440 0.36544 0.08754
 H4 H 0.09646 0.35776 0.06943
 C5 C -0.08754 0.39135 0.13591
 H6 H -0.13751 0.40020 0.15895
 C7 C -0.06569 0.32870 0.10814
 H8 H -0.10033 0.29106 0.10923
 N9 N -0.04317 0.43777 0.14223
 C10 C -0.07340 0.62943 0.25040
 H11 H -0.06753 0.60792 0.30160
 C12 C -0.07172 0.69714 0.24267
 H13 H -0.06497 0.72734 0.28820
 C14 C -0.08110 0.61446 0.12865
 H15 H -0.08111 0.58138 0.08445
 C16 C -0.07933 0.68280 0.11853
 H17 H -0.07789 0.70184 0.06640
 Zn18 Zn -0.05259 0.49844 0.21796
 N19 N -0.07569 0.58917 0.19399
 C20 C 0.07558 0.53763 0.22735
 N21 N 0.03585 0.49625 0.25883
 C22 C 0.05993 0.45819 0.31363
 C23 C 0.12584 0.46306 0.33998
 C24 C 0.14079 0.54416 0.25199
 C25 C -0.17549 0.51629 0.29163
 C26 C -0.23126 0.49736 0.32665
 C27 C -0.17209 0.38720 0.33846
 C28 C -0.11607 0.40882 0.30444
 N29 N -0.11946 0.47211 0.28013
 H30 H 0.05603 0.56701 0.18349
 H31 H 0.02773 0.42562 0.33799
 H32 H 0.14353 0.43575 0.38603
 H33 H 0.17006 0.58006 0.22854
 H34 H -0.17947 0.56527 0.26974
 H35 H -0.27685 0.53220 0.33106
 H36 H -0.17110 0.33568 0.35306
 H37 H -0.07199 0.37384 0.29308
 C38 C -0.07119 0.72408 0.17620
 C39 C 0.00316 0.31342 0.08930
 C40 C -0.23064 0.43191 0.34898
 C41 C 0.16614 0.50738 0.30927
 C42 C 0.00914 0.54845 0.89812
 H43 H 0.04439 0.50414 0.90553
 C44 C 0.01653 0.60481 0.93829
 H45 H 0.05708 0.60285 0.97681
 C46 C -0.07887 0.60818 0.83187
 H47 H -0.11293 0.61075 0.78751
 C48 C -0.07340 0.66572 0.87127
 H49 H -0.10319 0.71172 0.85651
 N50 N -0.03524 0.55211 0.84346
 C51 C 0.07449 0.36997 0.78036
 H52 H 0.10723 0.39329 0.74602
 C53 C 0.09142 0.30340 0.79777
 H54 H 0.13749 0.27714 0.77677
 C55 C -0.02435 0.37640 0.84969
 H56 H -0.06989 0.40507 0.86907
 C57 C -0.00945 0.31001 0.86843
 H58 H -0.04426 0.28885 0.90249
 Zn59 Zn -0.01522 0.48966 0.76934
 N60 N 0.01611 0.40432 0.80440
 C61 C 0.07889 0.49152 0.65572
 N62 N 0.05444 0.52306 0.71438
 C63 C 0.07974 0.57924 0.73669
 C64 C 0.13389 0.60331 0.70272
 C65 C 0.13395 0.51353 0.62042
 C66 C -0.13788 0.43552 0.71982
 C67 C -0.20045 0.44083 0.68319
 C68 C -0.16913 0.54070 0.63119
 C69 C -0.10812 0.53346 0.66806
 N70 N -0.09478 0.48340 0.71387
 H71 H 0.05723 0.44784 0.63762
 H72 H 0.05917 0.60530 0.78202
 H73 H 0.15293 0.64729 0.72338
 H74 H 0.15396 0.48568 0.57574
 H75 H -0.12573 0.39476 0.75509
 H76 H -0.23615 0.40506 0.69201
 H77 H -0.17789 0.58202 0.59576
 H78 H -0.07240 0.56968 0.66242
 C79 C 0.04817 0.27186 0.84079
 C80 C -0.02197 0.66534 0.92201
 C81 C -0.21854 0.49673 0.64178
 C82 C 0.16357 0.56940 0.64491
 C83 C 0.23365 -0.02911 0.43210
 H84 H 0.24828 -0.07430 0.45993
 C85 C 0.19795 -0.03211 0.36986
 H86 H 0.18200 -0.07904 0.35302
 C87 C 0.23905 0.08579 0.41736
 H88 H 0.25704 0.13143 0.43478
 C89 C 0.20283 0.08496 0.35422
 H90 H 0.18990 0.13044 0.32557
 N91 N 0.25279 0.02930 0.45569
 C92 C 0.27821 0.02351 0.67804
 H93 H 0.29897 0.07038 0.68037
 C94 C 0.25411 -0.00208 0.73890
 H95 H 0.25364 0.02729 0.78590
 C96 C 0.25520 -0.07183 0.61503
 H97 H 0.25812 -0.10052 0.56788
 C98 C 0.23158 -0.09963 0.67472
 H99 H 0.21472 -0.14844 0.67134
 Zn100 Zn 0.31265 0.02615 0.53554
 N101 N 0.27593 -0.01018 0.61680
 C102 C 0.27076 0.15181 0.57453
 N103 N 0.32867 0.11279 0.55694
 C104 C 0.38986 0.13716 0.55293
 C105 C 0.39306 0.20508 0.56251
 C106 C 0.27175 0.21922 0.58493
 C107 C 0.39426 -0.04136 0.44080
 C108 C 0.39629 -0.10578 0.41468
 C109 C 0.40719 -0.14660 0.53200
 C110 C 0.40543 -0.08142 0.55554
 N111 N 0.39048 -0.03074 0.51034
 H112 H 0.22301 0.13056 0.57751
 H113 H 0.43507 0.10474 0.53891
 H114 H 0.44068 0.22524 0.55397
 H115 H 0.22440 0.25015 0.59511
 H116 H 0.38276 -0.00013 0.40571
 H117 H 0.39088 -0.11251 0.35936
 H118 H 0.41135 -0.18584 0.56983
 H119 H 0.40369 -0.07175 0.61075
 C120 C 0.22827 -0.06359 0.73716
 C121 C 0.18167 0.02529 0.33040
 C122 C 0.39760 -0.15913 0.46097
 C123 C 0.33271 0.24686 0.57594
 C124 C 0.78661 0.03878 0.60759
 H125 H 0.77364 0.08374 0.57842
 C126 C 0.82690 0.04062 0.66755
 H127 H 0.84714 0.08625 0.68197
 C128 C 0.77623 -0.07477 0.62496
 H129 H 0.75661 -0.11992 0.60848
 C130 C 0.81566 -0.07477 0.68628
 H131 H 0.82775 -0.12034 0.71500
 N132 N 0.76448 -0.01899 0.58534
 C133 C 0.76759 -0.03856 0.36125
 H134 H 0.73374 -0.07668 0.35795
 C135 C 0.80293 -0.02335 0.30197
 H136 H 0.79639 -0.05147 0.25503
 C137 C 0.81243 0.04680 0.42467
 H138 H 0.81517 0.07523 0.47170
 C139 C 0.84774 0.06429 0.36669
 H140 H 0.87840 0.10469 0.37288
 Zn141 Zn 0.71475 -0.01713 0.49752
 N142 N 0.77285 -0.00359 0.42129
 C143 C 0.64342 0.10151 0.44462
 N144 N 0.64754 0.05868 0.49917
 C145 C 0.61927 0.07755 0.56114
 C146 C 0.59091 0.14310 0.57181
 C147 C 0.61536 0.16769 0.45308
 C148 C 0.73060 -0.15145 0.47271
 C149 C 0.71548 -0.21422 0.45275
 C150 C 0.59611 -0.17234 0.44983
 C151 C 0.61378 -0.10941 0.46904
 N152 N 0.68038 -0.10033 0.48026
 H153 H 0.66655 0.08598 0.39576
 H154 H 0.62391 0.04327 0.60410
 H155 H 0.57128 0.15745 0.62254
 H156 H 0.61654 0.20189 0.41038
 H157 H 0.78329 -0.14276 0.48030
 H158 H 0.75763 -0.25254 0.44663
 H159 H 0.54291 -0.17843 0.44188
 H160 H 0.57451 -0.06793 0.47410
 C161 C 0.84296 0.02971 0.30345
 C162 C 0.84291 -0.01683 0.70706
 C163 C 0.64742 -0.22617 0.44134
 C164 C 0.59194 0.18999 0.51844
 C165 C 0.61206 0.18088 0.92725
 H166 H 0.57513 0.17212 0.88738
 C167 C 0.68127 0.16248 0.91597
 H168 H 0.69676 0.13773 0.86788
 C169 C 0.63614 0.22434 1.03802
 H170 H 0.61843 0.25083 1.08437
 C171 C 0.70612 0.20592 1.02919
 H172 H 0.74171 0.21686 1.06964
 N173 N 0.59088 0.21182 0.98710
 C174 C 0.37353 0.20342 0.94883
 H175 H 0.36091 0.25351 0.93028
 C176 C 0.32184 0.16199 0.95474
 H177 H 0.27049 0.18087 0.93905
 C178 C 0.45446 0.12178 0.99866
 H179 H 0.50570 0.10727 1.01779
 C180 C 0.40409 0.07969 1.00763
 H181 H 0.41876 0.03188 1.03110
 Zn182 Zn 0.49832 0.24773 0.98966
 N183 N 0.43805 0.18319 0.97177
 C184 C 0.47406 0.29228 0.85558
 N185 N 0.48879 0.31399 0.92021
 C186 C 0.50347 0.37733 0.93110
 C187 C 0.49697 0.42322 0.87666
 C188 C 0.46822 0.33580 0.79996
 C189 C 0.48762 0.23394 1.13175
 C190 C 0.46821 0.25030 1.19965
 C191 C 0.41916 0.35770 1.15874
 C192 C 0.43898 0.33906 1.09153
 N193 N 0.47441 0.27873 1.07967
 H194 H 0.46611 0.24103 0.84726
 H195 H 0.51934 0.39256 0.98199
 H196 H 0.50436 0.47453 0.88635
 H197 H 0.45319 0.31844 0.74942
 H198 H 0.51403 0.18549 1.12057
 H199 H 0.48177 0.21507 1.24081
 H200 H 0.39247 0.40659 1.16766
 H201 H 0.42516 0.37243 1.04904
 C202 C 0.33586 0.10062 0.98840
 C203 C 0.72936 0.17592 0.96681
 C204 C 0.43471 0.31333 1.21385
 C205 C 0.47819 0.40224 0.81062
 C206 C 0.42952 0.81335 0.98102
 H207 H 0.45592 0.83511 0.93959
 C208 C 0.35980 0.83152 0.98979
 H209 H 0.33480 0.86869 0.95540
 C210 C 0.43067 0.73480 1.07127
 H211 H 0.45805 0.69622 1.10222
 C212 C 0.36055 0.75023 1.08075
 H213 H 0.33635 0.72433 1.12074
 N214 N 0.46348 0.76555 1.02125
 C215 C 0.68316 0.76380 0.99296
 H216 H 0.69604 0.71065 0.98980
 C217 C 0.73398 0.80549 0.98694
 H218 H 0.78674 0.78441 0.98269
 C219 C 0.59801 0.85595 1.00291
 H220 H 0.54499 0.87513 1.00816
 C221 C 0.64706 0.89940 0.99678
 H222 H 0.63136 0.95224 0.99862
 Zn223 Zn 0.55241 0.73019 0.99415
 N224 N 0.61693 0.78967 1.00081
 C225 C 0.58316 0.73700 0.85365
 N226 N 0.54433 0.70943 0.90106
 C227 C 0.49033 0.67744 0.88184
 C228 C 0.47434 0.67102 0.81217
 C229 C 0.56859 0.73223 0.78341
 C230 C 0.60563 0.67132 1.11296
 C231 C 0.59492 0.63199 1.16969
 C232 C 0.54037 0.55897 1.09284
 C233 C 0.55333 0.59897 1.03734
 N234 N 0.58028 0.65664 1.04956
 H235 H 0.62418 0.76454 0.86978
 H236 H 0.45794 0.65955 0.92073
 H237 H 0.43099 0.64559 0.79732
 H238 H 0.60032 0.75343 0.74596
 H239 H 0.62528 0.71831 1.12151
 H240 H 0.60735 0.64877 1.22124
 H241 H 0.51081 0.51777 1.08426
 H242 H 0.53360 0.58840 0.98660
 C243 C 0.71587 0.87408 0.98938
 C244 C 0.32353 0.79878 1.03922
 C245 C 0.55624 0.57899 1.16014
 C246 C 0.51378 0.69888 0.76252
 B247 B 1.03522 1.06247 0.04052
 B248 B 1.04486 1.04151 -0.04467
 B249 B 1.10337 1.00883 0.01573
 B250 B 1.06012 0.99410 0.08983
 B251 B 0.97582 1.01715 0.07473
 B252 B 0.96616 1.04629 -0.00848
 B253 B 1.01737 0.91294 -0.01521
 B254 B 1.00699 0.93487 0.06966
 B255 B 0.94826 0.96793 0.00966
 B256 B 0.99149 0.98243 -0.06413
 B257 B 1.07624 0.95940 -0.04916
 B258 B 1.08609 0.93014 0.03346
 B259 B 0.53402 0.48217 0.44438
 B260 B 0.53815 0.51218 0.52823
 B261 B 0.52075 0.56599 0.46032
 B262 B 0.47032 0.53117 0.40232
 B263 B 0.45515 0.45531 0.43189
 B264 B 0.49932 0.44256 0.50904
 B265 B 0.39840 0.54930 0.52401
 B266 B 0.39469 0.52202 0.44126
 B267 B 0.41266 0.46594 0.50703
 B268 B 0.46204 0.50055 0.56652
 B269 B 0.47556 0.57735 0.53651
 B270 B 0.43501 0.58979 0.45892
 N271 N 1.10758 1.15797 0.07931
 N272 N 1.09893 1.22664 0.08680
 C273 C 1.03206 1.24745 0.07884
 C274 C 0.99771 1.19266 0.06547
 C275 C 1.04665 1.13721 0.06363
 H276 H 0.94377 1.19358 0.05717
 H277 H 1.15354 1.12949 0.08968
 H278 H 1.13784 1.25455 0.10211
 N279 N 1.03290 0.85574 0.17553
 N280 N 1.01122 0.80300 0.20321
 C281 C 0.95516 0.78886 0.16878
 C282 C 0.93913 0.83665 0.11826
 C283 C 0.99044 0.87852 0.12338
 H284 H 0.89803 0.83796 0.08104
 H285 H 1.08010 0.87118 0.18838
 H286 H 1.03853 0.77367 0.24069
 N287 N 1.10781 1.09752 -0.14752
 N288 N 1.10923 1.15679 -0.17513
 C289 C 1.06244 1.19991 -0.14371
 C290 C 1.03006 1.16560 -0.09502
 C291 C 1.06040 1.10038 -0.09722
 H292 H 0.98911 1.18626 -0.06286
 H293 H 1.14012 1.05689 -0.16347
 H294 H 1.14194 1.16652 -0.21503
 N295 N 1.08052 0.79734 -0.05545
 N296 N 1.07134 0.73520 -0.06740
 C297 C 1.00567 0.72778 -0.05839
 C298 C 0.97152 0.78884 -0.03892
 C299 C 1.02092 0.83375 -0.03790
 H300 H 0.91913 0.79564 -0.02445
 H301 H 1.12833 0.81317 -0.06104
 H302 H 1.10965 0.69903 -0.08426
 N303 N 1.04537 0.98482 0.22462
 N304 N 1.07388 0.99593 0.28454
 C305 C 1.13155 1.02239 0.27363
 C306 C 1.13919 1.03015 0.20225
 C307 C 1.08368 1.00268 0.17139
 H308 H 1.18043 1.05151 0.17810
 H309 H 1.00061 0.96298 0.22241
 H310 H 1.05507 0.98262 0.33231
 N311 N 1.09430 0.88804 -0.16164
 N312 N 1.13496 0.87993 -0.21527
 C313 C 1.18812 0.91466 -0.20452
 C314 C 1.18260 0.94268 -0.13837
 C315 C 1.12025 0.92757 -0.11376
 H316 H 1.21509 0.97637 -0.11555
 H317 H 1.04645 0.87089 -0.16171
 H318 H 1.12149 0.85724 -0.26133
 N319 N 0.94577 1.09985 0.17844
 N320 N 0.91081 1.10208 0.24060
 C321 C 0.87729 1.04817 0.24388
 C322 C 0.88820 1.01240 0.18203
 C323 C 0.93177 1.04615 0.14153
 H324 H 0.87292 0.96400 0.17073
 H325 H 0.98644 1.12716 0.17242
 H326 H 0.91488 1.13872 0.27801
 N327 N 0.99784 0.99602 -0.19886
 N328 N 0.96046 0.99670 -0.25584
 C329 C 0.89818 0.98173 -0.24001
 C330 C 0.89594 0.97118 -0.16862
 C331 C 0.96151 0.98009 -0.14344
 H332 H 0.85095 0.96418 -0.14002
 H333 H 1.04765 1.00765 -0.19912
 H334 H 0.97742 1.00851 -0.30488
 N335 N 1.22566 0.99804 0.07032
 N336 N 1.28915 1.01954 0.06022
 C337 C 1.28296 1.06352 0.00805
 C338 C 1.21558 1.06945 -0.01661
 C339 C 1.18131 1.02583 0.02221
 H340 H 1.19454 1.10243 -0.05658
 H341 H 1.21639 0.96462 0.10893
 H342 H 1.33124 1.00685 0.09263
 N343 N 0.89164 1.11474 -0.10211
 N344 N 0.83008 1.14695 -0.10861
 C345 C 0.80276 1.15618 -0.04536
 C346 C 0.85077 1.13139 0.00353
 C347 C 0.90527 1.10088 -0.03454
 H348 H 0.84481 1.13291 0.05909
 H349 H 0.92289 1.10230 -0.14442
 H350 H 0.80687 1.16031 -0.15617
 N351 N 1.14604 0.81540 0.08311
 N352 N 1.21143 0.78086 0.08506
 C353 C 1.25262 0.81526 0.04774
 C354 C 1.21384 0.87049 0.02113
 C355 C 1.14873 0.87284 0.04886
 H356 H 1.23141 0.90573 -0.01373
 H357 H 1.10261 0.79326 0.09469
 H358 H 1.22335 0.73479 0.10855
 N359 N 0.82009 0.99453 0.04475
 N360 N 0.76082 0.97194 0.03770
 C361 C 0.76854 0.91889 -0.00374
 C362 C 0.83580 0.90853 -0.02538
 C363 C 0.86856 0.95645 0.00895
 H364 H 0.85570 0.87362 -0.06414
 H365 H 0.82482 1.03540 0.07510
 H366 H 0.71709 0.99110 0.06439
 N367 N 0.59635 0.41862 0.33938
 N368 N 0.65851 0.39895 0.31763
 C369 C 0.70353 0.40979 0.36776
 C370 C 0.66698 0.43346 0.42553
 C371 C 0.59880 0.44304 0.40446
 H372 H 0.68941 0.44956 0.47266
 H373 H 0.55467 0.42112 0.30637
 H374 H 0.67014 0.38751 0.26589
 N375 N 0.27987 0.59249 0.41012
 N376 N 0.22247 0.58850 0.37603
 C377 C 0.22526 0.52884 0.34578
 C378 C 0.28828 0.49339 0.35944
 C379 C 0.32181 0.53535 0.40235
 H380 H 0.30489 0.44303 0.34389
 H381 H 0.28730 0.63323 0.44105
 H382 H 0.18087 0.62530 0.37615
 N383 N 0.62746 0.58327 0.58015
 N384 N 0.69214 0.57932 0.60804
 C385 C 0.71446 0.51534 0.61755
 C386 C 0.66178 0.47683 0.59838
 C387 C 0.60807 0.52192 0.57179
 H388 H 0.66520 0.42335 0.59724
 H389 H 0.60498 0.62790 0.56101
 H390 H 0.71665 0.62094 0.62012
 N391 N 0.32510 0.62975 0.61193
 N392 N 0.26515 0.63418 0.64257
 C393 C 0.22789 0.58898 0.61471
 C394 C 0.26606 0.55650 0.56233
 C395 C 0.32925 0.58118 0.56341
 H396 H 0.25050 0.51762 0.53086
 H397 H 0.36190 0.65961 0.62663
 H398 H 0.25228 0.66616 0.68409
 N399 N 0.42387 0.55216 0.27597
 N400 N 0.44775 0.55946 0.21336
 C401 C 0.51574 0.55925 0.21780
 C402 C 0.53605 0.55232 0.28629
 C403 C 0.47644 0.54554 0.32188
 H404 H 0.58723 0.55236 0.30688
 H405 H 0.37222 0.55253 0.28564
 H406 H 0.41722 0.56785 0.16899
 N407 N 0.50117 0.69743 0.57845
 N408 N 0.51246 0.72808 0.63725
 C409 C 0.50133 0.68751 0.68922
 C410 C 0.48327 0.62957 0.66282
 C411 C 0.48406 0.63597 0.59164
 H412 H 0.47115 0.58976 0.69402
 H413 H 0.50719 0.71904 0.53109
 H414 H 0.52802 0.77545 0.64105
 N415 N 0.42378 0.33518 0.39819
 N416 N 0.41752 0.29866 0.34186
 C417 C 0.42443 0.33644 0.28604
 C418 C 0.43512 0.39859 0.30810
 C419 C 0.43781 0.39645 0.37984
 H420 H 0.44666 0.43648 0.27380
 H421 H 0.42160 0.31643 0.44803
 H422 H 0.41084 0.24838 0.34223
 N423 N 0.38518 0.47635 0.67092
 N424 N 0.38943 0.45613 0.73555
 C425 C 0.45494 0.44933 0.75575
 C426 C 0.49416 0.46847 0.70155
 C427 C 0.44809 0.48320 0.64669
 H428 H 0.54898 0.46850 0.70147
 H429 H 0.33949 0.47970 0.64344
 H430 H 0.34863 0.44061 0.76281
 N431 N 0.64407 0.59763 0.43510
 N432 N 0.67672 0.65056 0.43064
 C433 C 0.63098 0.70477 0.42635
 C434 C 0.56661 0.68331 0.42344
 C435 C 0.57598 0.61487 0.43422
 H436 H 0.52003 0.71535 0.42157
 H437 H 0.66938 0.55198 0.44720
 H438 H 0.72947 0.64853 0.43691
 N439 N 0.55715 0.35184 0.59487
 N440 N 0.57833 0.28800 0.59733
 C441 C 0.57374 0.26180 0.53370
 C442 C 0.55012 0.31281 0.48847
 C443 C 0.53604 0.36939 0.53023
 H444 H 0.54456 0.30870 0.43299
 H445 H 0.55969 0.38215 0.63735
 H446 H 0.59720 0.26361 0.64223
 N447 N 0.41082 0.68735 0.36834
 N448 N 0.40131 0.75270 0.36972
 C449 C 0.39016 0.77290 0.43546
 C450 C 0.38722 0.71733 0.47621
 C451 C 0.40599 0.66345 0.43327
 H452 H 0.38029 0.71680 0.53129
 H453 H 0.42717 0.66202 0.32388
 H454 H 0.40969 0.78194 0.32705
 N455 N 0.30159 0.40532 0.50130
 N456 N 0.28070 0.34972 0.52252
 C457 C 0.32892 0.31835 0.56378
 C458 C 0.38136 0.35743 0.57158
 C459 C 0.36316 0.41236 0.52963
 H460 H 0.42853 0.34413 0.59929
 H461 H 0.27432 0.43468 0.46495
 H462 H 0.23727 0.33078 0.50288
   
