data_POSCAR
  _audit_creation_date              2014-09-24
  _audit_creation_method            'ToBaCCo'
  _symmetry_space_group_name_H-M    'P1'
  _symmetry_Int_Tables_number       1
  _symmetry_cell_setting            triclinic
  loop_
  _symmetry_equiv_pos_as_xyz
 x,y,z
_cell_length_a 17.2719
_cell_length_b 17.1663
_cell_length_c 29.4648
_cell_angle_alpha 86.576300
_cell_angle_beta 83.520500
_cell_angle_gamma 118.786000
loop_
  _atom_site_label
  _atom_site_type_symbol
  _atom_site_fract_x
  _atom_site_fract_y
  _atom_site_fract_z
C1 C -0.05550 0.71384 1.01590
 C2 C -0.08585 0.68736 0.97539
 C3 C -0.07289 0.61554 0.96715
 N4 N -0.03638 0.59687 1.00147
 C5 C -0.02457 0.65747 1.03115
 C6 C -0.10204 0.56445 0.93059
 C7 C -0.08886 0.49087 0.92238
 C8 C -0.13387 0.42864 0.89362
 C9 C -0.10350 0.36778 0.89473
 C10 C -0.03972 0.39495 0.92369
 N11 N -0.03068 0.47063 0.94007
 C12 C 0.00809 0.34986 0.93412
 C13 C 0.05697 0.36602 0.97090
 C14 C 0.10961 0.32788 0.97927
 C15 C 0.14213 0.35617 1.01912
 C16 C 0.10773 0.41014 1.03375
 N17 N 0.05517 0.41556 1.00445
 C18 C 0.12013 0.44794 1.07521
 C19 C 0.08435 0.50228 1.08952
 C20 C 0.07820 0.52301 1.13404
 C21 C 0.04509 0.58138 1.13360
 C22 C 0.03216 0.59467 1.08880
 N23 N 0.05675 0.54660 1.06202
 C24 C 0.00604 0.65653 1.07372
 H25 H -0.05982 0.76628 1.03254
 H26 H -0.11692 0.71582 0.95520
 H27 H 0.06563 0.55289 1.02631
 H28 H -0.18468 0.42640 0.87447
 H29 H -0.12752 0.30926 0.87687
 H30 H 0.12261 0.28371 0.95894
 H31 H 0.18472 0.33783 1.03593
 H32 H 0.03337 0.61187 1.16281
 H33 H 0.01773 0.51054 0.95895
 H34 H 0.09662 0.49923 1.16361
 C35 C 0.73438 -0.02337 0.50408
 C36 C 0.72818 -0.03110 0.45837
 C37 C 0.65078 -0.02995 0.45129
 N38 N 0.60864 -0.02333 0.49123
 C39 C 0.65992 -0.01901 0.52350
 C40 C 0.61558 -0.04474 0.40980
 C41 C 0.53941 -0.03816 0.40243
 C42 C 0.49105 -0.07307 0.36724
 C43 C 0.42270 -0.05308 0.37132
 C44 C 0.43175 -0.00526 0.40856
 N45 N 0.50357 0.00396 0.42720
 C46 C 0.37462 0.02855 0.42457
 C47 C 0.36932 0.05254 0.46912
 C48 C 0.31730 0.08949 0.48504
 C49 C 0.32159 0.09347 0.53107
 C50 C 0.37611 0.05891 0.54151
 N51 N 0.40523 0.03368 0.50369
 C52 C 0.38894 0.04142 0.58642
 C53 C 0.44917 0.01218 0.59630
 C54 C 0.44647 -0.02721 0.63915
 C55 C 0.51527 -0.04644 0.63500
 C56 C 0.55931 -0.01661 0.58974
 N57 N 0.51811 0.01892 0.56634
 C58 C 0.63671 -0.02024 0.57107
 H59 H 0.78604 -0.02421 0.52142
 H60 H 0.77395 -0.03934 0.43354
 H61 H 0.54071 0.05338 0.53310
 H62 H 0.50276 -0.11072 0.34176
 H63 H 0.37108 -0.07434 0.34990
 H64 H 0.27832 0.10912 0.46574
 H65 H 0.28660 0.11670 0.55452
 H66 H 0.52810 -0.08154 0.66223
 H67 H 0.53109 0.04310 0.45284
 H68 H 0.39851 -0.04249 0.66997
 C69 C 0.21183 0.05422 0.25511
 H70 H 0.22564 0.06488 0.21785
 C71 C 0.27584 0.05425 0.28012
 H72 H 0.33907 0.06478 0.26220
 C73 C 0.11222 0.02661 0.32405
 H74 H 0.04818 0.01526 0.34099
 C75 C 0.17461 0.02651 0.35042
 H76 H 0.15796 0.01512 0.38763
 N77 N 0.13219 0.04126 0.27727
 C78 C 0.02644 -0.11622 0.20776
 H79 H 0.01514 -0.13882 0.24419
 C80 C 0.02013 -0.17465 0.17568
 H81 H 0.00427 -0.24231 0.18768
 C82 C 0.06230 0.00010 0.14792
 H83 H 0.08002 0.06854 0.13707
 C84 C 0.05708 -0.05610 0.11463
 H85 H 0.07023 -0.03097 0.07841
 Zn86 Zn 0.05055 0.04268 0.23975
 N87 N 0.04553 -0.03116 0.19355
 C88 C 0.04138 0.17589 0.18463
 N89 N 0.09323 0.16057 0.21130
 C90 C 0.17682 0.22654 0.21486
 C91 C 0.21346 0.31033 0.18869
 C92 C 0.07550 0.25876 0.15784
 C93 C -0.13400 -0.07962 0.26482
 C94 C -0.22002 -0.11572 0.28958
 C95 C -0.16747 0.01142 0.33201
 C96 C -0.08142 0.04477 0.30677
 N97 N -0.06608 -0.00162 0.27427
 H98 H -0.02506 0.12232 0.18269
 H99 H 0.21643 0.21368 0.23684
 H100 H 0.28102 0.36172 0.19061
 H101 H 0.03453 0.26904 0.13562
 H102 H -0.12211 -0.11449 0.23806
 H103 H -0.27311 -0.17853 0.28213
 H104 H -0.17890 0.04899 0.35759
 H105 H -0.02686 0.10761 0.31306
 C106 C 0.03510 -0.14450 0.12845
 C107 C 0.25769 0.04073 0.32821
 C108 C -0.23743 -0.07073 0.32369
 C109 C 0.16348 0.32628 0.15911
 C110 C -0.00379 0.14050 0.77270
 H111 H 0.00308 0.14610 0.73552
 C112 C 0.00791 0.21407 0.79508
 H113 H 0.02483 0.27679 0.77514
 C114 C -0.03836 0.05078 0.84429
 H115 H -0.05875 -0.01360 0.86336
 C116 C -0.02637 0.12294 0.86801
 H117 H -0.03665 0.11359 0.90530
 N118 N -0.02722 0.06071 0.79746
 C119 C 0.03004 -0.10125 0.70587
 H120 H -0.03573 -0.16012 0.71219
 C121 C 0.09776 -0.09913 0.67452
 H122 H 0.08451 -0.15638 0.65651
 C123 C 0.12690 0.04661 0.72051
 H124 H 0.13728 0.10333 0.73828
 C125 C 0.19722 0.05115 0.68962
 H126 H 0.26169 0.11176 0.68347
 Zn127 Zn -0.05641 -0.03894 0.76467
 N128 N 0.04487 -0.02830 0.72715
 C129 C -0.11964 -0.03733 0.68007
 N130 N -0.13888 -0.04171 0.72658
 C131 C -0.21314 -0.04014 0.74631
 C132 C -0.27141 -0.03386 0.71892
 C133 C -0.17667 -0.03225 0.65156
 C134 C -0.04813 -0.15977 0.82912
 C135 C -0.07590 -0.24245 0.85484
 C136 C -0.22063 -0.29853 0.83090
 C137 C -0.18995 -0.21495 0.80535
 N138 N -0.10492 -0.14766 0.80488
 H139 H -0.05910 -0.03564 0.66467
 H140 H -0.22594 -0.04182 0.78325
 H141 H -0.32987 -0.03157 0.73473
 H142 H -0.16000 -0.02815 0.61463
 H143 H 0.01980 -0.10581 0.82727
 H144 H -0.02914 -0.25137 0.87305
 H145 H -0.28809 -0.35206 0.83075
 H146 H -0.23332 -0.20475 0.78499
 C147 C 0.18177 -0.02222 0.66580
 C148 C -0.00403 0.20550 0.84319
 C149 C -0.16325 -0.31313 0.85567
 C150 C -0.25317 -0.02979 0.67110
 N151 N 0.00730 -0.28343 0.10583
 N152 N 0.03122 -0.20156 0.09426
 N153 N 0.16368 0.42828 0.10326
 N154 N 0.20424 0.41039 0.13012
 N155 N 0.32925 0.04207 0.62403
 N156 N 0.24770 -0.01922 0.63073
 N157 N -0.30605 -0.02933 0.60045
 N158 N -0.31185 -0.02114 0.64315
 N159 N -0.14948 -0.41715 0.90449
 N160 N -0.19489 -0.40024 0.88046
 N161 N 0.00169 0.27775 0.90945
 N162 N 0.00432 0.28006 0.86604
 N163 N -0.35183 -0.07686 0.37833
 N164 N -0.32660 -0.11127 0.34882
 N165 N 0.31167 0.03141 0.39735
 N166 N 0.32367 0.04040 0.35355
   
