data_POSCAR
  _audit_creation_date              2014-09-24
  _audit_creation_method            'ToBaCCo'
  _symmetry_space_group_name_H-M    'P1'
  _symmetry_Int_Tables_number       1
  _symmetry_cell_setting            triclinic
  loop_
  _symmetry_equiv_pos_as_xyz
 x,y,z
_cell_length_a 40.1830
_cell_length_b 42.6196
_cell_length_c 38.4848
_cell_angle_alpha 90.744400
_cell_angle_beta 89.375100
_cell_angle_gamma 92.135900
loop_
  _atom_site_label
  _atom_site_type_symbol
  _atom_site_fract_x
  _atom_site_fract_y
  _atom_site_fract_z
C1 C 0.22018 0.18369 0.19250
 C2 C 0.20375 0.16764 0.21963
 C3 C 0.17456 0.17920 0.23441
 C4 C 0.16170 0.20716 0.22224
 C5 C 0.17793 0.22357 0.19505
 C6 C 0.20730 0.21176 0.18009
 C7 C 0.24901 0.17184 0.17720
 C8 C 0.26501 0.18763 0.14963
 C9 C 0.25241 0.21559 0.13733
 C10 C 0.22357 0.22779 0.15240
 C11 C 0.21039 0.25543 0.13990
 C12 C 0.18124 0.26710 0.15462
 C13 C 0.16510 0.25130 0.18217
 H14 H 0.21351 0.14595 0.22904
 H15 H 0.13903 0.21597 0.23368
 H16 H 0.25878 0.15010 0.18648
 H17 H 0.26480 0.22762 0.11584
 H18 H 0.22255 0.26770 0.11846
 H19 H 0.14243 0.26041 0.19324
 C20 C -0.23068 0.81238 0.20227
 C21 C -0.21552 0.82863 0.23015
 C22 C -0.18660 0.81756 0.24501
 C23 C -0.17281 0.78983 0.23228
 C24 C -0.18775 0.77321 0.20438
 C25 C -0.21680 0.78457 0.18926
 C26 C -0.25902 0.82391 0.18664
 C27 C -0.27349 0.80811 0.15810
 C28 C -0.25997 0.78035 0.14528
 C29 C -0.23162 0.76846 0.16068
 C30 C -0.21736 0.74118 0.14749
 C31 C -0.18850 0.72998 0.16234
 C32 C -0.17380 0.74585 0.19077
 H33 H -0.22593 0.85021 0.23991
 H34 H -0.15028 0.78146 0.24371
 H35 H -0.26946 0.84552 0.19628
 H36 H -0.27113 0.76834 0.12301
 H37 H -0.22837 0.72889 0.12533
 H38 H -0.15131 0.73714 0.20191
 C39 C -0.24462 0.19813 -0.23217
 C40 C -0.22730 0.18025 -0.25673
 C41 C -0.19630 0.19107 -0.26965
 C42 C -0.18254 0.22017 -0.25843
 C43 C -0.19961 0.23846 -0.23389
 C44 C -0.23081 0.22738 -0.22071
 C45 C -0.27488 0.18670 -0.21784
 C46 C -0.29126 0.20408 -0.19212
 C47 C -0.27795 0.23334 -0.18118
 C48 C -0.24773 0.24507 -0.19523
 C49 C -0.23345 0.27355 -0.18310
 C50 C -0.20240 0.28437 -0.19578
 C51 C -0.18559 0.26706 -0.22130
 H52 H -0.23755 0.15757 -0.26526
 H53 H -0.15836 0.22821 -0.26829
 H54 H -0.28511 0.16385 -0.22587
 H55 H -0.29053 0.24648 -0.16092
 H56 H -0.24601 0.28689 -0.16301
 H57 H -0.16135 0.27546 -0.23063
 C58 C 0.23255 0.81072 -0.23541
 C59 C 0.21444 0.82918 -0.25779
 C60 C 0.18277 0.81889 -0.26905
 C61 C 0.16910 0.78978 -0.25822
 C62 C 0.18695 0.77093 -0.23583
 C63 C 0.21885 0.78144 -0.22443
 C64 C 0.26363 0.82150 -0.22286
 C65 C 0.28095 0.80341 -0.19945
 C66 C 0.26773 0.77417 -0.18900
 C67 C 0.23670 0.76309 -0.20125
 C68 C 0.22265 0.73453 -0.18960
 C69 C 0.19095 0.72425 -0.20051
 C70 C 0.17318 0.74223 -0.22374
 H71 H 0.22478 0.85181 -0.26602
 H72 H 0.14447 0.78203 -0.26680
 H73 H 0.27392 0.84432 -0.23045
 H74 H 0.28114 0.76055 -0.17049
 H75 H 0.23599 0.72064 -0.17128
 H76 H 0.14846 0.73423 -0.23173
 C77 C 0.17707 1.22348 0.78980
 C78 C 0.16334 1.21383 0.75794
 C79 C 0.17480 1.18717 0.74067
 C80 C 0.20051 1.17021 0.75490
 C81 C 0.21457 1.17963 0.78680
 C82 C 0.20271 1.20633 0.80446
 C83 C 0.16494 1.24953 0.80766
 C84 C 0.17789 1.25853 0.84006
 C85 C 0.20350 1.24173 0.85471
 C86 C 0.21604 1.21555 0.83705
 C87 C 0.24118 1.19806 0.85162
 C88 C 0.25289 1.17157 0.83407
 C89 C 0.23970 1.16245 0.80176
 H90 H 0.14321 1.22666 0.74696
 H91 H 0.20909 1.14939 0.74154
 H92 H 0.14498 1.26254 0.79658
 H93 H 0.21330 1.24873 0.87992
 H94 H 0.25140 1.20480 0.87671
 H95 H 0.24878 1.14179 0.78851
 C96 C 0.83196 0.77649 0.78371
 C97 C 0.84629 0.78618 0.75209
 C98 C 0.83506 0.81282 0.73558
 C99 C 0.80902 0.82971 0.75035
 C100 C 0.79438 0.82026 0.78200
 C101 C 0.80597 0.79358 0.79887
 C102 C 0.84382 0.75046 0.80087
 C103 C 0.83020 0.74144 0.83302
 C104 C 0.80425 0.75819 0.84813
 C105 C 0.79201 0.78433 0.83121
 C106 C 0.76655 0.80178 0.84633
 C107 C 0.75514 0.82827 0.82958
 C108 C 0.76892 0.83741 0.79750
 H109 H 0.86666 0.77340 0.74070
 H110 H 0.80063 0.85050 0.73759
 H111 H 0.86405 0.73750 0.78944
 H112 H 0.79394 0.75118 0.87314
 H113 H 0.75585 0.79500 0.87124
 H114 H 0.76005 0.85806 0.78486
 C115 C 0.19266 0.75487 1.24652
 C116 C 0.17574 0.76773 1.27503
 C117 C 0.18660 0.79656 1.28941
 C118 C 0.21499 0.81240 1.27602
 C119 C 0.23226 0.79981 1.24750
 C120 C 0.22095 0.77098 1.23246
 C121 C 0.18084 0.72687 1.23093
 C122 C 0.19659 0.71494 1.20123
 C123 C 0.22490 0.73068 1.18725
 C124 C 0.23725 0.75879 1.20274
 C125 C 0.26479 0.77556 1.18841
 C126 C 0.27589 0.80422 1.20340
 C127 C 0.25979 0.81614 1.23292
 H128 H 0.15347 0.75586 1.28533
 H129 H 0.22297 0.83493 1.28711
 H130 H 0.15870 0.71480 1.24133
 H131 H 0.23676 0.72153 1.16397
 H132 H 0.27714 0.76671 1.16529
 H133 H 0.26829 0.83851 1.24404
 C134 C 0.81464 1.23798 1.24790
 C135 C 0.83188 1.22620 1.27604
 C136 C 0.82161 1.19757 1.29082
 C137 C 0.79351 1.18085 1.27805
 C138 C 0.77594 1.19239 1.24990
 C139 C 0.78663 1.22102 1.23456
 C140 C 0.82578 1.26584 1.23204
 C141 C 0.80960 1.27680 1.20285
 C142 C 0.78159 1.26024 1.18958
 C143 C 0.76993 1.23227 1.20532
 C144 C 0.74259 1.21478 1.19178
 C145 C 0.73205 1.18633 1.20704
 C146 C 0.74857 1.17530 1.23607
 H147 H 0.85385 1.23886 1.28581
 H148 H 0.78588 1.15850 1.28941
 H149 H 0.84764 1.27864 1.24184
 H150 H 0.76944 1.26875 1.16671
 H151 H 0.72987 1.22297 1.16909
 H152 H 0.74047 1.15311 1.24745
 O153 O 0.53338 0.96845 0.93659
 O154 O 0.46768 0.98569 1.07778
 O155 O 0.56500 0.98042 1.02911
 O156 O 0.45574 0.94527 0.97841
 O157 O 0.52031 0.96217 1.05372
 O158 O 0.47127 0.96712 0.93082
 O159 O 0.45994 0.95353 1.03746
 O160 O 0.57002 0.99479 0.96800
 C161 C 0.56255 0.97289 0.94681
 C162 C 0.45430 0.96062 1.06809
 C163 C 0.55009 0.95924 1.04603
 C164 C 0.45827 0.94444 0.94646
 O165 O 0.47065 1.02740 0.93539
 O166 O 0.52531 1.01306 1.08887
 O167 O 0.54425 1.05131 0.98421
 O168 O 0.43765 1.01454 1.03104
 O169 O 0.48274 1.03825 1.05098
 O170 O 0.53351 1.02985 0.93457
 O171 O 0.43260 1.00369 0.96840
 O172 O 0.54301 1.03913 1.04421
 Co173 Co 0.50219 0.99811 0.94042
 Co174 Co 0.50253 1.00043 1.05045
 Co175 Co 0.55088 1.01464 1.00578
 Co176 Co 0.45065 0.98080 1.00369
 O177 O 0.50023 0.99733 0.99768
 C178 C 0.44109 1.02389 0.94583
 C179 C 0.54682 1.03309 1.07597
 C180 C 0.54316 1.05313 0.95218
 C181 C 0.45216 1.03836 1.04495
 O182 O 0.03779 0.48065 0.05081
 O183 O 0.03226 0.53001 -0.07183
 O184 O 0.00406 0.43618 -0.03556
 O185 O 0.04804 0.53835 0.03466
 O186 O 0.03246 0.47122 -0.06596
 O187 O 0.01437 0.53048 0.07536
 O188 O 0.05614 0.54333 -0.02441
 O189 O 0.01695 0.43934 0.02596
 C190 C 0.03970 0.45240 0.04334
 C191 C 0.05613 0.54274 -0.05640
 C192 C 0.02828 0.44377 -0.05531
 C193 C 0.04100 0.54293 0.06555
 O194 O -0.04210 0.51797 0.04887
 O195 O -0.03230 0.46980 -0.06947
 O196 O -0.04476 0.46133 0.03970
 O197 O -0.00635 0.56513 -0.03320
 O198 O -0.03125 0.52928 -0.06697
 O199 O -0.01685 0.47627 0.08523
 O200 O -0.01622 0.56025 0.02975
 O201 O -0.05649 0.46089 -0.02071
 Co202 Co -0.00244 0.49832 0.04770
 Co203 Co 0.00036 0.49999 -0.06241
 Co204 Co -0.01820 0.45378 0.00179
 Co205 Co 0.01875 0.54787 0.00148
 O206 O 0.00090 0.50131 -0.00503
 C207 C -0.04143 0.54699 0.04404
 C208 C -0.05729 0.46035 -0.05278
 C209 C -0.03887 0.45709 0.07150
 C210 C -0.02787 0.55708 -0.05587
 O211 O 1.06116 0.03492 0.46349
 O212 O 0.94518 0.02776 0.53594
 O213 O 0.98722 0.03767 0.43864
 O214 O 1.01178 0.04875 0.54991
 O215 O 0.94534 0.03574 0.47335
 O216 O 1.06150 0.03718 0.52916
 O217 O 0.97185 0.01684 0.58515
 O218 O 1.03584 0.00898 0.42234
 C219 C 1.05595 0.03049 0.43182
 C220 C 0.94665 0.02887 0.56932
 C221 C 0.96159 0.04940 0.45008
 C222 C 1.04253 0.05542 0.54607
 O223 O 1.06157 -0.02599 0.52965
 O224 O 0.94578 -0.02773 0.45965
 O225 O 1.01118 -0.04347 0.44510
 O226 O 0.98651 -0.03369 0.55699
 O227 O 0.94529 -0.03569 0.52229
 O228 O 1.06116 -0.02858 0.46424
 O229 O 1.03563 -0.00265 0.57175
 O230 O 0.97201 -0.01362 0.41023
 Co231 Co 1.05686 0.00425 0.49664
 Co232 Co 0.95063 0.00022 0.49775
 Co233 Co 0.99764 -0.00287 0.44577
 Co234 Co 0.99753 0.00736 0.54930
 O235 O 1.00429 0.00233 0.49743
 C236 C 1.05591 -0.02253 0.56145
 C237 C 0.94665 -0.02750 0.42623
 C238 C 1.04178 -0.04848 0.44873
 C239 C 0.96111 -0.04751 0.54601
 C240 C 1.15858 0.16261 0.26014
 C241 C 1.14522 0.14696 0.28259
 C242 C 1.13011 0.12727 0.30902
 C243 C 1.09938 0.13461 0.32403
 C244 C 1.08465 0.11499 0.34922
 C245 C 1.10056 0.08794 0.35952
 C246 C 1.13132 0.08069 0.34459
 C247 C 1.14604 0.10029 0.31943
 C248 C 1.08521 0.06752 0.38514
 C249 C 1.07211 0.05048 0.40649
 H250 H 1.08679 0.15536 0.31616
 H251 H 1.06083 0.12083 0.36056
 H252 H 1.14385 0.05985 0.35230
 H253 H 1.16977 0.09433 0.30797
 C254 C 0.82867 -0.16532 0.27089
 C255 C 0.84187 -0.14923 0.29323
 C256 C 0.85754 -0.12908 0.31912
 C257 C 0.88580 -0.13866 0.33651
 C258 C 0.90207 -0.11827 0.36014
 C259 C 0.89015 -0.08820 0.36653
 C260 C 0.86158 -0.07881 0.34954
 C261 C 0.84531 -0.09921 0.32592
 C262 C 0.90849 -0.06647 0.38880
 C263 C 0.92508 -0.04844 0.40649
 H264 H 0.89558 -0.16163 0.33137
 H265 H 0.92428 -0.12571 0.37292
 H266 H 0.85226 -0.05557 0.35406
 H267 H 0.82355 -0.09149 0.31252
 C268 C 0.82197 0.17127 0.70688
 C269 C 0.83688 0.15380 0.68788
 C270 C 0.85444 0.13219 0.66588
 C271 C 0.88388 0.14200 0.64874
 C272 C 0.90147 0.12064 0.62838
 C273 C 0.88974 0.08936 0.62506
 C274 C 0.86015 0.07961 0.64198
 C275 C 0.84256 0.10097 0.66233
 C276 C 0.90863 0.06724 0.60509
 C277 C 0.92536 0.04926 0.58863
 H278 H 0.89338 0.16603 0.65136
 H279 H 0.92437 0.12844 0.61551
 H280 H 0.85088 0.05548 0.63970
 H281 H 0.81987 0.09309 0.67554
 C282 C 1.16514 -0.16216 0.71024
 C283 C 1.15025 -0.14459 0.69218
 C284 C 1.13329 -0.12289 0.67078
 C285 C 1.10354 -0.13215 0.65427
 C286 C 1.08749 -0.11107 0.63310
 C287 C 1.10111 -0.08063 0.62835
 C288 C 1.13074 -0.07133 0.64504
 C289 C 1.14677 -0.09239 0.66620
 C290 C 1.08520 -0.05935 0.60556
 C291 C 1.07190 -0.04208 0.58584
 H292 H 1.09287 -0.15565 0.65759
 H293 H 1.06464 -0.11856 0.62023
 H294 H 1.14157 -0.04791 0.64148
 H295 H 1.16977 -0.08497 0.67882
 C296 C 0.29215 1.17495 1.13417
 C297 C 0.31569 1.16259 1.12088
 C298 C 0.34304 1.14624 1.10563
 C299 C 0.36978 1.13810 1.12633
 C300 C 0.39439 1.11896 1.11270
 C301 C 0.39238 1.10791 1.07832
 C302 C 0.36620 1.11686 1.05728
 C303 C 0.34158 1.13599 1.07091
 C304 C 0.41507 1.08489 1.06583
 C305 C 0.43280 1.06431 1.05599
 H306 H 0.37100 1.14565 1.15329
 H307 H 0.41432 1.11192 1.12931
 H308 H 0.36421 1.10818 1.03077
 H309 H 0.32086 1.14192 1.05476
 C310 C 0.31075 0.81616 0.81649
 C311 C 0.33468 0.82756 0.83117
 C312 C 0.36182 0.84233 0.84997
 C313 C 0.38280 0.86478 0.83374
 C314 C 0.40605 0.88243 0.85330
 C315 C 0.40839 0.87767 0.88914
 C316 C 0.38829 0.85438 0.90512
 C317 C 0.36506 0.83672 0.88555
 C318 C 0.42809 0.89934 0.90998
 C319 C 0.44285 0.91910 0.92705
 H320 H 0.38026 0.86952 0.80632
 H321 H 0.42118 0.90067 0.84078
 H322 H 0.38960 0.85080 0.93288
 H323 H 0.34871 0.81962 0.89841
 C324 C 0.70029 0.82078 1.14192
 C325 C 0.67769 0.83318 1.12782
 C326 C 0.65159 0.84964 1.11145
 C327 C 0.65465 0.85788 1.07640
 C328 C 0.63145 0.87727 1.06161
 C329 C 0.60512 0.88847 1.08183
 C330 C 0.60145 0.87939 1.11656
 C331 C 0.62464 0.86000 1.13134
 C332 C 0.58412 0.91188 1.06819
 C333 C 0.56782 0.93283 1.05759
 H334 H 0.67555 0.85023 1.06087
 H335 H 0.63473 0.88442 1.03484
 H336 H 0.58140 0.88820 1.13254
 H337 H 0.62221 0.85401 1.15855
 C338 C 0.68163 1.19119 0.82459
 C339 C 0.65870 1.17894 0.84036
 C340 C 0.63288 1.16294 0.86013
 C341 C 0.63302 1.16508 0.89649
 C342 C 0.61117 1.14594 0.91611
 C343 C 0.58909 1.12466 0.89940
 C344 C 0.58801 1.12346 0.86302
 C345 C 0.60988 1.14257 0.84340
 C346 C 0.57086 1.10129 0.91920
 C347 C 0.55729 1.08011 0.93494
 H348 H 0.65094 1.18054 0.90967
 H349 H 0.61250 1.14677 0.94421
 H350 H 0.57131 1.10679 0.84985
 H351 H 0.60980 1.14052 0.81531
 C352 C 0.16728 0.29481 0.14046
 C353 C 0.15537 0.31763 0.12800
 C354 C 0.14051 0.34434 0.11265
 C355 C 0.12781 0.36816 0.13383
 C356 C 0.11100 0.39277 0.11901
 C357 C 0.10688 0.39373 0.08292
 C358 C 0.12032 0.37034 0.06167
 C359 C 0.13713 0.34574 0.07649
 C360 C 0.08563 0.41647 0.06820
 C361 C 0.06585 0.43397 0.05642
 H362 H 0.13014 0.36727 0.16182
 H363 H 0.10031 0.41047 0.13574
 H364 H 0.11689 0.37058 0.03378
 H365 H 0.14672 0.32739 0.05985
 C366 C -0.18695 0.31208 -0.18025
 C367 C -0.17434 0.33460 -0.16556
 C368 C -0.15914 0.36053 -0.14649
 C369 C -0.16520 0.36355 -0.11068
 C370 C -0.14809 0.38683 -0.09127
 C371 C -0.12493 0.40726 -0.10761
 C372 C -0.11962 0.40484 -0.14360
 C373 C -0.13670 0.38153 -0.16302
 C374 C -0.10367 0.42799 -0.08715
 C375 C -0.08376 0.44378 -0.07074
 H376 H -0.18238 0.34732 -0.09761
 H377 H -0.15206 0.38819 -0.06340
 H378 H -0.10142 0.42023 -0.15644
 H379 H -0.13169 0.37930 -0.19064
 C380 C 0.17606 0.69625 -0.18555
 C381 C 0.16416 0.67336 -0.17132
 C382 C 0.15008 0.64690 -0.15270
 C383 C 0.15918 0.64222 -0.11814
 C384 C 0.14347 0.61826 -0.09880
 C385 C 0.11867 0.59881 -0.11400
 C386 C 0.11023 0.60294 -0.14886
 C387 C 0.12592 0.62692 -0.16819
 C388 C 0.09919 0.57715 -0.09300
 C389 C 0.08081 0.56047 -0.07579
 H390 H 0.17772 0.65764 -0.10585
 H391 H 0.14987 0.61557 -0.07176
 H392 H 0.09077 0.58829 -0.16074
 H393 H 0.11857 0.63043 -0.19482
 C394 C -0.17323 0.70286 0.14727
 C395 C -0.16024 0.68057 0.13396
 C396 C -0.14418 0.65451 0.11752
 C397 C -0.13202 0.63038 0.13764
 C398 C -0.11435 0.60627 0.12182
 C399 C -0.10880 0.60616 0.08580
 C400 C -0.12162 0.62991 0.06558
 C401 C -0.13930 0.65400 0.08139
 C402 C -0.08717 0.58362 0.07019
 C403 C -0.06732 0.56602 0.05775
 H404 H -0.13553 0.63058 0.16560
 H405 H -0.10424 0.58824 0.13777
 H406 H -0.11716 0.63028 0.03776
 H407 H -0.14849 0.67259 0.06558
 C408 C 1.15930 0.17666 0.71125
 C409 C 1.14456 0.16698 0.68598
 C410 C 1.12598 0.15438 0.65695
 C411 C 1.09110 0.15330 0.65837
 C412 C 1.07286 0.13749 0.63236
 C413 C 1.08947 0.12281 0.60480
 C414 C 1.12432 0.12497 0.60267
 C415 C 1.14256 0.14074 0.62870
 C416 C 1.07138 0.10167 0.58185
 C417 C 1.05733 0.08174 0.56440
 H418 H 1.07805 0.16358 0.68026
 H419 H 1.04596 0.13554 0.63456
 H420 H 1.13743 0.11326 0.58176
 H421 H 1.16953 0.14125 0.62750
 C422 C 0.85098 -0.17659 0.70636
 C423 C 0.86585 -0.16660 0.68124
 C424 C 0.88424 -0.15333 0.65237
 C425 C 0.91892 -0.14906 0.65437
 C426 C 0.93644 -0.13214 0.62874
 C427 C 0.91934 -0.11952 0.60097
 C428 C 0.88486 -0.12500 0.59818
 C429 C 0.86733 -0.14190 0.62382
 C430 C 0.93593 -0.09678 0.57890
 C431 C 0.94844 -0.07545 0.56253
 H432 H 0.93219 -0.15761 0.67649
 H433 H 0.96300 -0.12758 0.63148
 H434 H 0.87131 -0.11488 0.57714
 H435 H 0.84050 -0.14487 0.62217
 C436 C 1.16672 -0.18877 0.31580
 C437 C 1.14924 -0.17582 0.33669
 C438 C 1.12787 -0.15924 0.36015
 C439 C 1.09462 -0.15507 0.35126
 C440 C 1.07478 -0.13577 0.37177
 C441 C 1.08813 -0.12066 0.40126
 C442 C 1.12103 -0.12573 0.41083
 C443 C 1.14089 -0.14500 0.39030
 C444 C 1.06971 -0.09707 0.41920
 C445 C 1.05586 -0.07570 0.43321
 H446 H 1.08441 -0.16582 0.32784
 H447 H 1.04950 -0.13170 0.36391
 H448 H 1.13171 -0.11383 0.43337
 H449 H 1.16664 -0.14790 0.39726
 C450 C 0.84053 0.18494 0.31579
 C451 C 0.85804 0.17327 0.33688
 C452 C 0.87942 0.15823 0.36072
 C453 C 0.91231 0.15238 0.35088
 C454 C 0.93197 0.13426 0.37195
 C455 C 0.91880 0.12202 0.40299
 C456 C 0.88635 0.12892 0.41350
 C457 C 0.86668 0.14702 0.39240
 C458 C 0.93643 0.09872 0.42125
 C459 C 0.94925 0.07721 0.43521
 H460 H 0.92231 0.16077 0.32629
 H461 H 0.95683 0.12866 0.36332
 H462 H 0.87576 0.11915 0.43719
 H463 H 0.84121 0.15122 0.40012
 C464 C 0.16437 0.28306 -0.14260
 C465 C 0.15079 0.30466 -0.12866
 C466 C 0.13278 0.33017 -0.11386
 C467 C 0.11746 0.32719 -0.08113
 C468 C 0.09704 0.35075 -0.06850
 C469 C 0.09183 0.37724 -0.08864
 C470 C 0.10771 0.38049 -0.12102
 C471 C 0.12812 0.35699 -0.13362
 C472 C 0.06939 0.40063 -0.07670
 C473 C 0.05048 0.42026 -0.06699
 H474 H 0.12065 0.30640 -0.06579
 H475 H 0.08485 0.34803 -0.04341
 H476 H 0.10380 0.40088 -0.13680
 H477 H 0.13960 0.35937 -0.15910
 C478 C -0.17626 0.30396 0.18554
 C479 C -0.16226 0.32611 0.17186
 C480 C -0.14348 0.35169 0.15616
 C481 C -0.14609 0.35719 0.12052
 C482 C -0.12541 0.38008 0.10474
 C483 C -0.10199 0.39751 0.12450
 C484 C -0.09982 0.39245 0.16027
 C485 C -0.12052 0.36957 0.17606
 C486 C -0.07930 0.41945 0.10756
 C487 C -0.06049 0.43706 0.09203
 H488 H -0.16352 0.34331 0.10483
 H489 H -0.12719 0.38373 0.07702
 H490 H -0.08171 0.40571 0.17576
 H491 H -0.11809 0.36530 0.20359
 C492 C -0.15664 0.71700 -0.15015
 C493 C -0.14360 0.69554 -0.13625
 C494 C -0.12647 0.67023 -0.12096
 C495 C -0.11556 0.67266 -0.08655
 C496 C -0.09641 0.64916 -0.07278
 C497 C -0.08806 0.62324 -0.09344
 C498 C -0.09946 0.62057 -0.12764
 C499 C -0.11861 0.64403 -0.14138
 C500 C -0.06698 0.59986 -0.07999
 C501 C -0.04909 0.58032 -0.06898
 H502 H -0.12130 0.69294 -0.07064
 H503 H -0.08766 0.65144 -0.04630
 H504 H -0.09309 0.60064 -0.14383
 H505 H -0.12672 0.64207 -0.16811
 C506 C 0.18242 0.68930 0.18494
 C507 C 0.16780 0.66729 0.17129
 C508 C 0.14820 0.64209 0.15557
 C509 C 0.15481 0.63241 0.12136
 C510 C 0.13356 0.61022 0.10503
 C511 C 0.10558 0.59765 0.12279
 C512 C 0.09940 0.60678 0.15727
 C513 C 0.12068 0.62896 0.17362
 C514 C 0.08222 0.57712 0.10467
 C515 C 0.06296 0.56092 0.08789
 H516 H 0.17583 0.64261 0.10706
 H517 H 0.13844 0.60347 0.07826
 H518 H 0.07773 0.59739 0.17117
 H519 H 0.11517 0.63650 0.19999
 C520 C 0.27801 1.15314 0.84952
 C521 C 0.29884 1.13728 0.86217
 C522 C 0.32354 1.11791 0.87687
 C523 C 0.32944 1.11886 0.91271
 C524 C 0.35320 1.09969 0.92691
 C525 C 0.37112 1.07949 0.90533
 C526 C 0.36523 1.07858 0.86951
 C527 C 0.34150 1.09773 0.85532
 C528 C 0.39561 1.05977 0.91982
 C529 C 0.41627 1.04330 0.93175
 H530 H 0.31564 1.13432 0.92963
 H531 H 0.35756 1.10059 0.95465
 H532 H 0.37895 1.06306 0.85258
 H533 H 0.33709 1.09676 0.82760
 C534 C 0.30263 0.82264 1.18755
 C535 C 0.32429 0.83915 1.17456
 C536 C 0.34929 0.85984 1.15907
 C537 C 0.37066 0.84869 1.13307
 C538 C 0.39359 0.86932 1.11673
 C539 C 0.39529 0.90120 1.12629
 C540 C 0.37428 0.91224 1.15266
 C541 C 0.35136 0.89161 1.16901
 C542 C 0.41707 0.92277 1.10750
 C543 C 0.43454 0.94043 1.09041
 H544 H 0.36920 0.82422 1.12505
 H545 H 0.40953 0.86055 1.09619
 H546 H 0.37518 0.93686 1.16011
 H547 H 0.33487 0.90053 1.18898
 C548 C 0.70523 1.16747 1.19204
 C549 C 0.68333 1.15095 1.17949
 C550 C 0.65781 1.13061 1.16431
 C551 C 0.65713 1.09831 1.17090
 C552 C 0.63337 1.07825 1.15491
 C553 C 0.61014 1.09039 1.13228
 C554 C 0.61054 1.12274 1.12607
 C555 C 0.63430 1.14280 1.14205
 C556 C 0.58709 1.06959 1.11395
 C557 C 0.56836 1.05258 1.09740
 H558 H 0.67524 1.08859 1.18799
 H559 H 0.63345 1.05327 1.15976
 H560 H 0.59283 1.13238 1.10845
 H561 H 0.63463 1.16770 1.13667
 C562 C 0.72972 0.84664 0.84568
 C563 C 0.70864 0.86238 0.85902
 C564 C 0.68364 0.88152 0.87467
 C565 C 0.66859 0.87287 0.90633
 C566 C 0.64428 0.89155 0.92143
 C567 C 0.63495 0.91895 0.90494
 C568 C 0.65006 0.92762 0.87334
 C569 C 0.67435 0.90896 0.85825
 C570 C 0.60963 0.93801 0.92013
 C571 C 0.58825 0.95398 0.93249
 H572 H 0.67561 0.85172 0.91928
 H573 H 0.63274 0.88461 0.94586
 H574 H 0.64301 0.94873 0.86034
 H575 H 0.68585 0.91589 0.83380
   
