data_POSCAR
  _audit_creation_date              2014-09-24
  _audit_creation_method            'ToBaCCo'
  _symmetry_space_group_name_H-M    'P1'
  _symmetry_Int_Tables_number       1
  _symmetry_cell_setting            triclinic
  loop_
  _symmetry_equiv_pos_as_xyz
 x,y,z
_cell_length_a 35.2895
_cell_length_b 35.1221
_cell_length_c 42.2120
_cell_angle_alpha 90.011100
_cell_angle_beta 91.882100
_cell_angle_gamma 89.998000
loop_
  _atom_site_label
  _atom_site_type_symbol
  _atom_site_fract_x
  _atom_site_fract_y
  _atom_site_fract_z
C1 C 1.20575 0.27424 0.30316
 H2 H 1.20700 0.24346 0.30360
 C3 C 1.18424 0.29362 0.32510
 H4 H 1.16854 0.27748 0.34215
 C5 C 1.22466 0.33246 0.28012
 H6 H 1.24097 0.34747 0.26287
 C7 C 1.20346 0.35304 0.30166
 H8 H 1.20374 0.38385 0.30080
 N9 N 1.22515 0.29376 0.28111
 C10 C 1.23915 0.21281 0.20463
 H11 H 1.26963 0.21399 0.20270
 C12 C 1.21758 0.18970 0.18416
 H13 H 1.23166 0.17337 0.16624
 C14 C 1.18382 0.23384 0.22977
 H15 H 1.17075 0.25146 0.24731
 C16 C 1.16111 0.21116 0.20969
 H17 H 1.13070 0.21105 0.21236
 Zn18 Zn 1.25410 0.26455 0.25317
 N19 N 1.22213 0.23391 0.22710
 C20 C 1.28396 0.19484 0.27684
 N21 N 1.28686 0.23333 0.27836
 C22 C 1.31119 0.25030 0.29950
 C23 C 1.33394 0.22844 0.32020
 C24 C 1.30611 0.17179 0.29699
 C25 C 1.26118 0.31768 0.20462
 C26 C 1.27942 0.33856 0.18146
 C27 C 1.33943 0.31463 0.20223
 C28 C 1.32003 0.29423 0.22502
 N29 N 1.28158 0.29598 0.22571
 H30 H 1.26349 0.18177 0.26068
 H31 H 1.31280 0.28105 0.30038
 H32 H 1.35381 0.24382 0.33539
 H33 H 1.30066 0.14159 0.29560
 H34 H 1.23056 0.31790 0.20529
 H35 H 1.26258 0.35477 0.16433
 H36 H 1.37003 0.31272 0.20194
 H37 H 1.33569 0.27622 0.24154
 C38 C 1.17802 0.18860 0.18660
 C39 C 1.18292 0.33357 0.32457
 C40 C 1.31905 0.33677 0.17978
 C41 C 1.33172 0.18808 0.31979
 C42 C 0.69791 -0.22678 0.29100
 H43 H 0.69768 -0.25752 0.28937
 C44 C 0.67522 -0.20844 0.31277
 H45 H 0.65772 -0.22537 0.32796
 C46 C 0.72256 -0.16766 0.27415
 H47 H 0.74158 -0.15191 0.25951
 C48 C 0.70036 -0.14815 0.29563
 H49 H 0.70198 -0.11740 0.29678
 N50 N 0.72083 -0.20629 0.27214
 C51 C 0.74253 -0.28170 0.19258
 H52 H 0.77320 -0.28208 0.19372
 C53 C 0.72286 -0.30109 0.16830
 H54 H 0.73870 -0.31632 0.15078
 C55 C 0.68488 -0.25988 0.21337
 H56 H 0.67019 -0.24323 0.23063
 C57 C 0.66407 -0.27888 0.18948
 H58 H 0.63341 -0.27739 0.18915
 Zn59 Zn 0.75258 -0.23400 0.24515
 N60 N 0.72340 -0.26182 0.21461
 C61 C 0.78136 -0.30535 0.26800
 N62 N 0.78227 -0.26684 0.27141
 C63 C 0.80301 -0.25010 0.29527
 C64 C 0.82407 -0.27222 0.31690
 C65 C 0.80206 -0.32862 0.28917
 C66 C 0.76657 -0.17624 0.20185
 C67 C 0.78792 -0.15313 0.18236
 C68 C 0.84495 -0.18099 0.20557
 C69 C 0.82246 -0.20351 0.22474
 N70 N 0.78400 -0.20083 0.22246
 H71 H 0.76403 -0.31815 0.24931
 H72 H 0.80289 -0.21942 0.29761
 H73 H 0.84057 -0.25823 0.33558
 H74 H 0.80039 -0.35924 0.28653
 H75 H 0.73593 -0.17510 0.20022
 H76 H 0.77343 -0.13376 0.16611
 H77 H 0.87545 -0.18442 0.20697
 H78 H 0.83578 -0.22393 0.24066
 C79 C 0.68305 -0.29983 0.16648
 C80 C 0.67638 -0.16859 0.31540
 C81 C 0.82768 -0.15573 0.18371
 C82 C 0.82353 -0.31207 0.31420
 C83 C 0.70235 0.26986 -0.20180
 H84 H 0.70245 0.23906 -0.20223
 C85 C 0.68286 0.28911 -0.17845
 H86 H 0.66805 0.27282 -0.16095
 C87 C 0.72327 0.32823 -0.22327
 H88 H 0.73967 0.34332 -0.24041
 C89 C 0.70419 0.34868 -0.20024
 H90 H 0.70540 0.37948 -0.20037
 N91 N 0.72186 0.28951 -0.22370
 C92 C 0.73489 0.20848 -0.30102
 H93 H 0.76535 0.20969 -0.30306
 C94 C 0.71328 0.18511 -0.32132
 H95 H 0.72735 0.16870 -0.33919
 C96 C 0.67967 0.22947 -0.27576
 H97 H 0.66666 0.24706 -0.25817
 C98 C 0.65691 0.20650 -0.29565
 H99 H 0.62654 0.20625 -0.29279
 Zn100 Zn 0.75012 0.26025 -0.25230
 N101 N 0.71796 0.22970 -0.27857
 C102 C 0.78117 0.19048 -0.22887
 N103 N 0.78288 0.22913 -0.22723
 C104 C 0.80662 0.24699 -0.20602
 C105 C 0.83012 0.22586 -0.18546
 C106 C 0.80416 0.16822 -0.20868
 C107 C 0.75940 0.31533 -0.29943
 C108 C 0.77885 0.33744 -0.32108
 C109 C 0.83754 0.31041 -0.30061
 C110 C 0.81684 0.28887 -0.27944
 N111 N 0.77851 0.29174 -0.27913
 H112 H 0.76139 0.17679 -0.24526
 H113 H 0.80701 0.27776 -0.20496
 H114 H 0.84898 0.24065 -0.16888
 H115 H 0.80175 0.13751 -0.20980
 H116 H 0.72881 0.31693 -0.29882
 H117 H 0.76196 0.35684 -0.33547
 H118 H 0.86765 0.30506 -0.30065
 H119 H 0.83152 0.26895 -0.26391
 C120 C 0.67373 0.18377 -0.31872
 C121 C 0.68367 0.32908 -0.17738
 C122 C 0.81894 0.33537 -0.32250
 C123 C 0.82885 0.18591 -0.18645
 C124 C 1.19146 -0.21813 -0.20112
 H125 H 1.19194 -0.24870 -0.19803
 C126 C 1.16824 -0.19575 -0.18260
 H127 H 1.15111 -0.20935 -0.16504
 C128 C 1.21460 -0.16332 -0.22693
 H129 H 1.23314 -0.15079 -0.24391
 C130 C 1.19188 -0.13979 -0.20876
 H131 H 1.19271 -0.10927 -0.21229
 N132 N 1.21377 -0.20175 -0.22293
 C133 C 1.23330 -0.29287 -0.29046
 H134 H 1.26397 -0.29361 -0.28986
 C135 C 1.21273 -0.31648 -0.31134
 H136 H 1.22786 -0.33524 -0.32689
 C137 C 1.17655 -0.26592 -0.27203
 H138 H 1.16251 -0.24563 -0.25721
 C139 C 1.15487 -0.28900 -0.29256
 H140 H 1.12427 -0.28674 -0.29274
 Zn141 Zn 1.24506 -0.23483 -0.24576
 N142 N 1.21505 -0.26830 -0.27128
 C143 C 1.27348 -0.30073 -0.21372
 N144 N 1.27508 -0.26210 -0.21548
 C145 C 1.29655 -0.24150 -0.19434
 C146 C 1.31803 -0.25977 -0.17048
 C147 C 1.29454 -0.32015 -0.19026
 C148 C 1.25785 -0.18775 -0.29740
 C149 C 1.27866 -0.16852 -0.31992
 C150 C 1.33630 -0.18954 -0.29284
 C151 C 1.31434 -0.20841 -0.27079
 N152 N 1.27584 -0.20710 -0.27342
 H153 H 1.25545 -0.31654 -0.23016
 H154 H 1.29684 -0.21077 -0.19600
 H155 H 1.33533 -0.24287 -0.15415
 H156 H 1.29250 -0.35087 -0.18899
 H157 H 1.22719 -0.18762 -0.29915
 H158 H 1.26374 -0.15308 -0.33870
 H159 H 1.36690 -0.19156 -0.29077
 H160 H 1.32813 -0.22473 -0.25204
 C161 C 1.17295 -0.31454 -0.31274
 C162 C 1.16826 -0.15602 -0.18628
 C163 C 1.31846 -0.16948 -0.31796
 C164 C 1.31721 -0.29965 -0.16821
 C165 C 0.25816 0.18424 0.70130
 H166 H 0.22756 0.18304 0.70183
 C167 C 0.27744 0.16196 0.67966
 H168 H 0.26146 0.14315 0.66390
 C169 C 0.31605 0.21070 0.72098
 H170 H 0.33096 0.23049 0.73648
 C171 C 0.33644 0.18893 0.69975
 H172 H 0.36692 0.19224 0.69926
 N173 N 0.27762 0.20793 0.72146
 C174 C 0.20237 0.23140 0.79899
 H175 H 0.20306 0.26220 0.79840
 C176 C 0.18301 0.21277 0.82273
 H177 H 0.16989 0.23029 0.84034
 C178 C 0.22216 0.17263 0.77782
 H179 H 0.23792 0.15711 0.76051
 C180 C 0.20322 0.15270 0.80123
 H181 H 0.20375 0.12196 0.80022
 Zn182 Zn 0.24961 0.23992 0.74816
 N183 N 0.22128 0.21128 0.77708
 C184 C 0.17932 0.27113 0.72487
 N185 N 0.21757 0.27045 0.72183
 C186 C 0.23453 0.29125 0.69913
 C187 C 0.21299 0.31465 0.67882
 C188 C 0.15664 0.29414 0.70498
 C189 C 0.30630 0.25316 0.79421
 C190 C 0.32988 0.27428 0.81470
 C191 C 0.30433 0.33192 0.79115
 C192 C 0.28125 0.30965 0.77105
 N193 N 0.28270 0.27101 0.77290
 H194 H 0.16629 0.25387 0.74268
 H195 H 0.26495 0.28969 0.69693
 H196 H 0.22707 0.33072 0.66075
 H197 H 0.12631 0.29477 0.70803
 H198 H 0.30647 0.22239 0.79545
 H199 H 0.34860 0.25950 0.83140
 H200 H 0.30211 0.36263 0.78990
 H201 H 0.26157 0.32334 0.75457
 C202 C 0.18311 0.17258 0.82449
 C203 C 0.31713 0.16432 0.67857
 C204 C 0.32883 0.31423 0.81353
 C205 C 0.17349 0.31645 0.68166
 C206 C 0.75766 0.68671 0.70347
 H207 H 0.72699 0.68663 0.70188
 C208 C 0.77827 0.66716 0.68099
 H209 H 0.76319 0.65151 0.66242
 C210 C 0.81438 0.70768 0.72954
 H211 H 0.82834 0.72428 0.74804
 C212 C 0.83614 0.68850 0.70753
 H213 H 0.86674 0.69057 0.70938
 N214 N 0.77587 0.70641 0.72714
 C215 C 0.69163 0.71994 0.79926
 H216 H 0.69269 0.75056 0.80193
 C217 C 0.66789 0.69846 0.81800
 H218 H 0.65191 0.71350 0.83549
 C219 C 0.71407 0.66427 0.77453
 H220 H 0.73235 0.65107 0.75768
 C221 C 0.69095 0.64152 0.79300
 H222 H 0.69121 0.61114 0.78888
 Zn223 Zn 0.74548 0.73495 0.75458
 N224 N 0.71378 0.70274 0.77784
 C225 C 0.67727 0.76634 0.72805
 N226 N 0.71579 0.76843 0.72878
 C227 C 0.73420 0.79268 0.70945
 C228 C 0.71378 0.81630 0.68845
 C229 C 0.65575 0.78942 0.70742
 C230 C 0.79716 0.74160 0.80582
 C231 C 0.81890 0.75982 0.82954
 C232 C 0.79622 0.82031 0.80934
 C233 C 0.77487 0.80091 0.78602
 N234 N 0.77593 0.76225 0.78455
 H235 H 0.66308 0.74627 0.74296
 H236 H 0.76487 0.79320 0.71002
 H237 H 0.72902 0.83481 0.67280
 H238 H 0.62513 0.78741 0.70730
 H239 H 0.79702 0.71084 0.80439
 H240 H 0.83597 0.74287 0.84598
 H241 H 0.79460 0.85106 0.81039
 H242 H 0.75703 0.81679 0.76948
 C243 C 0.66707 0.65837 0.81530
 C244 C 0.81808 0.66815 0.68267
 C245 C 0.81861 0.79973 0.83153
 C246 C 0.67398 0.81467 0.68711
 C247 C 0.75834 0.18251 0.20307
 H248 H 0.72773 0.18341 0.20374
 C249 C 0.77580 0.16080 0.18002
 H250 H 0.75842 0.14452 0.16331
 C251 C 0.81802 0.20330 0.22384
 H252 H 0.83431 0.22068 0.24042
 C253 C 0.83668 0.18193 0.20118
 H254 H 0.86731 0.18310 0.20063
 N255 N 0.77951 0.20319 0.22436
 C256 C 0.70438 0.22475 0.30231
 H257 H 0.70606 0.25548 0.30337
 C258 C 0.68261 0.20501 0.32388
 H259 H 0.66783 0.22080 0.34171
 C260 C 0.72286 0.16692 0.27833
 H261 H 0.73892 0.15217 0.26078
 C262 C 0.70145 0.14602 0.29948
 H263 H 0.70076 0.11528 0.29760
 Zn264 Zn 0.75283 0.23485 0.25219
 N265 N 0.72363 0.20559 0.27993
 C266 C 0.68287 0.26682 0.22932
 N267 N 0.72115 0.26620 0.22648
 C268 C 0.73834 0.28712 0.20399
 C269 C 0.71697 0.31053 0.18362
 C270 C 0.66036 0.28982 0.20935
 C271 C 0.81045 0.24779 0.29848
 C272 C 0.83343 0.26927 0.31929
 C273 C 0.80606 0.32651 0.29657
 C274 C 0.78362 0.30396 0.27623
 N275 N 0.78619 0.26534 0.27748
 H276 H 0.66967 0.24935 0.24688
 H277 H 0.76877 0.28549 0.20191
 H278 H 0.73117 0.32666 0.16564
 H279 H 0.62998 0.29033 0.21212
 H280 H 0.81148 0.21702 0.29935
 H281 H 0.85259 0.25478 0.33582
 H282 H 0.80280 0.35715 0.29574
 H283 H 0.76339 0.31746 0.26011
 C284 C 0.68089 0.16509 0.32261
 C285 C 0.81550 0.16057 0.17869
 C286 C 0.83117 0.30922 0.31867
 C287 C 0.67744 0.31214 0.18619
 C288 C 0.26628 0.67702 0.20234
 H289 H 0.23564 0.67598 0.20072
 C290 C 0.28754 0.65386 0.18278
 H291 H 0.27296 0.63458 0.16650
 C292 C 0.32229 0.70400 0.22525
 H293 H 0.33571 0.72433 0.24120
 C294 C 0.34468 0.68144 0.20602
 H295 H 0.37519 0.68475 0.20742
 N296 N 0.28382 0.70147 0.22301
 C297 C 0.19777 0.72735 0.29172
 H298 H 0.19764 0.75810 0.29023
 C299 C 0.17498 0.70895 0.31338
 H300 H 0.15752 0.72585 0.32863
 C301 C 0.22222 0.66826 0.27461
 H302 H 0.24120 0.65253 0.25991
 C303 C 0.19992 0.64869 0.29598
 H304 H 0.20142 0.61792 0.29698
 Zn305 Zn 0.25257 0.73466 0.24592
 N306 N 0.22064 0.70690 0.27278
 C307 C 0.18501 0.76101 0.21417
 N308 N 0.22353 0.76290 0.21552
 C309 C 0.24276 0.78291 0.19365
 C310 C 0.22320 0.80246 0.16938
 C311 C 0.16430 0.78016 0.19029
 C312 C 0.30332 0.75008 0.29593
 C313 C 0.32490 0.77173 0.31754
 C314 C 0.30316 0.82850 0.29039
 C315 C 0.28201 0.80555 0.26928
 N316 N 0.28253 0.76710 0.27238
 H317 H 0.17023 0.74426 0.23130
 H318 H 0.27343 0.78325 0.19486
 H319 H 0.23912 0.81775 0.15197
 H320 H 0.13365 0.77866 0.18985
 H321 H 0.30321 0.71936 0.29786
 H322 H 0.34217 0.75603 0.33458
 H323 H 0.29992 0.85887 0.28750
 H324 H 0.26445 0.81865 0.25087
 C325 C 0.17598 0.66908 0.31583
 C326 C 0.32731 0.65628 0.18412
 C327 C 0.32517 0.81208 0.31564
 C328 C 0.18339 0.80120 0.16741
 O329 O 1.06225 0.02667 0.04746
 O330 O 0.93236 -0.02958 0.02499
 O331 O 0.97141 0.07151 0.03544
 O332 O 1.04054 -0.08146 0.00879
 O333 O 0.92569 0.03802 0.01314
 O334 O 1.05566 -0.03760 0.03979
 O335 O 0.98521 -0.05570 0.03874
 O336 O 1.04116 0.07919 0.02821
 C337 C 1.05854 0.06144 0.04950
 C338 C 0.95186 -0.04832 0.04469
 C339 C 0.93803 0.05985 0.03492
 C340 C 1.05935 -0.07138 0.03249
 O341 O 1.07097 -0.02984 -0.02438
 O342 O 0.94638 0.02292 -0.04762
 O343 O 1.03148 0.07593 -0.03225
 O344 O 0.97175 -0.09274 -0.01258
 O345 O 0.94830 -0.04331 -0.03698
 O346 O 1.07834 0.03919 -0.01460
 O347 O 1.01633 -0.05105 -0.04228
 O348 O 0.96057 0.07633 -0.02592
 Co349 Co 1.06184 -0.00020 0.01100
 Co350 Co 0.94379 -0.00225 -0.01036
 Co351 Co 1.00115 0.06907 0.00136
 Co352 Co 0.99961 -0.05118 -0.00188
 O353 O 1.00338 0.00634 0.00108
 C354 C 1.05078 -0.04504 -0.04626
 C355 C 0.94756 0.05803 -0.04906
 C356 C 1.06517 0.06468 -0.03325
 C357 C 0.94592 -0.07870 -0.03162
 O358 O 1.06188 0.52621 0.54238
 O359 O 0.93232 0.48525 0.53619
 O360 O 0.97721 0.57073 0.53806
 O361 O 1.01772 0.44067 0.54093
 O362 O 0.92553 0.54899 0.51821
 O363 O 1.07044 0.46209 0.52583
 O364 O 0.95447 0.43263 0.52037
 O365 O 1.04135 0.57846 0.52331
 C366 C 1.05754 0.56076 0.54545
 C367 C 0.93672 0.45085 0.54040
 C368 C 0.94287 0.56564 0.54034
 C369 C 1.05201 0.44480 0.54600
 O370 O 1.06469 0.48539 0.46409
 O371 O 0.93469 0.52465 0.45732
 O372 O 1.01887 0.57011 0.46109
 O373 O 0.98030 0.43932 0.46041
 O374 O 0.92719 0.46055 0.47485
 O375 O 1.07085 0.54958 0.48121
 O376 O 1.04356 0.43283 0.48097
 O377 O 0.95472 0.57744 0.47579
 Co378 Co 1.06029 0.50579 0.50307
 Co379 Co 0.93662 0.50491 0.49694
 Co380 Co 0.99810 0.56746 0.49961
 Co381 Co 0.99897 0.44314 0.50062
 O382 O 0.99849 0.50531 0.50006
 C383 C 1.06086 0.45082 0.46053
 C384 C 0.93853 0.55925 0.45393
 C385 C 1.05326 0.56548 0.45883
 C386 C 0.94596 0.44271 0.45522
 O387 O 0.57056 0.03797 0.52558
 O388 O 0.42607 -0.04980 0.51809
 O389 O 0.45443 0.06673 0.52010
 O390 O 0.54206 -0.07857 0.52339
 O391 O 0.43248 0.01403 0.53596
 O392 O 0.56230 -0.02614 0.54234
 O393 O 0.47786 -0.07115 0.53805
 O394 O 0.51774 0.05914 0.54067
 C395 C 0.55206 0.05522 0.54573
 C396 C 0.44349 -0.06632 0.54026
 C397 C 0.43670 0.04846 0.54011
 C398 C 0.55817 -0.06071 0.54548
 O399 O 0.57145 -0.04972 0.48126
 O400 O 0.42728 0.03853 0.47460
 O401 O 0.54350 0.06688 0.48065
 O402 O 0.45549 -0.07819 0.47576
 O403 O 0.43515 -0.02560 0.45717
 O404 O 0.56491 0.01435 0.46395
 O405 O 0.51960 -0.07053 0.46112
 O406 O 0.48028 0.06003 0.46016
 Co407 Co 0.56063 -0.00589 0.50297
 Co408 Co 0.43694 -0.00572 0.49676
 Co409 Co 0.49898 0.05643 0.50037
 Co410 Co 0.49878 -0.06789 0.49961
 O411 O 0.49883 -0.00575 0.49993
 C412 C 0.55395 -0.06571 0.45887
 C413 C 0.44597 0.05638 0.45493
 C414 C 0.56076 0.04884 0.46019
 C415 C 0.43924 -0.06017 0.45383
 O416 O 0.55496 0.53869 0.03949
 O417 O 0.42581 0.46178 0.01361
 O418 O 0.48446 0.55613 0.03890
 O419 O 0.54203 0.42185 0.02725
 O420 O 0.43178 0.52949 0.02550
 O421 O 0.56210 0.47447 0.04695
 O422 O 0.47224 0.42843 0.03512
 O423 O 0.53926 0.58253 0.00867
 C424 C 0.55834 0.57252 0.03223
 C425 C 0.43868 0.43955 0.03493
 C426 C 0.45125 0.54846 0.04506
 C427 C 0.55886 0.43964 0.04881
 O428 O 0.57809 0.46244 -0.01530
 O429 O 0.44690 0.54357 -0.03658
 O430 O 0.51492 0.55210 -0.04235
 O431 O 0.46070 0.42404 -0.02610
 O432 O 0.44542 0.47739 -0.04738
 O433 O 0.56990 0.53138 -0.02478
 O434 O 0.53148 0.42554 -0.03313
 O435 O 0.47019 0.59319 -0.01227
 Co436 Co 0.56132 0.50149 0.01056
 Co437 Co 0.44312 0.50238 -0.01001
 Co438 Co 0.49855 0.55189 -0.00184
 Co439 Co 0.50154 0.43163 0.00082
 O440 O 0.50292 0.49441 0.00091
 C441 C 0.56504 0.43714 -0.03420
 C442 C 0.44433 0.57896 -0.03119
 C443 C 0.54941 0.54649 -0.04651
 C444 C 0.44711 0.44232 -0.04901
 C445 C 1.11249 0.12058 0.12053
 C446 C 1.09954 0.15667 0.12913
 C447 C 1.12044 0.17856 0.15113
 C448 C 1.15465 0.16461 0.16468
 C449 C 1.16701 0.12798 0.15633
 C450 C 1.14605 0.10614 0.13436
 C451 C 1.09252 0.09921 0.09625
 C452 C 1.07658 0.08170 0.07524
 H453 H 1.07370 0.16818 0.11837
 H454 H 1.11045 0.20682 0.15682
 H455 H 1.19296 0.11629 0.16671
 H456 H 1.15632 0.07824 0.12782
 C457 C 1.11005 0.61901 0.61799
 C458 C 1.14090 0.60287 0.63479
 C459 C 1.16104 0.62423 0.65768
 C460 C 1.15058 0.66207 0.66404
 C461 C 1.11916 0.67781 0.64733
 C462 C 1.09909 0.65642 0.62445
 C463 C 1.09074 0.59788 0.59311
 C464 C 1.07518 0.58067 0.57166
 H465 H 1.14967 0.57394 0.62994
 H466 H 1.18480 0.61116 0.67040
 H467 H 1.11071 0.70701 0.65131
 H468 H 1.07542 0.66928 0.61142
 C469 C 0.60773 0.11423 0.61624
 C470 C 0.64188 0.10049 0.62956
 C471 C 0.66301 0.12281 0.65114
 C472 C 0.65029 0.15928 0.65964
 C473 C 0.61554 0.17254 0.64658
 C474 C 0.59446 0.15017 0.62498
 C475 C 0.58741 0.09243 0.59231
 C476 C 0.57096 0.07492 0.57149
 H477 H 0.65246 0.07274 0.62294
 H478 H 0.68936 0.11156 0.66112
 H479 H 0.60518 0.20064 0.65234
 H480 H 0.56819 0.16122 0.61464
 C481 C 0.62008 0.63998 0.09314
 C482 C 0.65266 0.62375 0.10729
 C483 C 0.67326 0.64342 0.13093
 C484 C 0.66153 0.67969 0.14083
 C485 C 0.62892 0.69596 0.12623
 C486 C 0.60832 0.67619 0.10257
 C487 C 0.59789 0.61835 0.07024
 C488 C 0.57961 0.59850 0.05212
 H489 H 0.66183 0.59558 0.10040
 H490 H 0.69788 0.62985 0.14195
 H491 H 0.61943 0.72404 0.13300
 H492 H 0.58307 0.68899 0.09187
 C493 C 0.89509 -0.09554 0.11706
 C494 C 0.90808 -0.09905 0.14862
 C495 C 0.88601 -0.11819 0.17055
 C496 C 0.85073 -0.13399 0.16110
 C497 C 0.83796 -0.12997 0.12936
 C498 C 0.85996 -0.11088 0.10759
 C499 C 0.91770 -0.07740 0.09368
 C500 C 0.93461 -0.06338 0.07226
 H501 H 0.93528 -0.08730 0.15618
 H502 H 0.89647 -0.12055 0.19487
 H503 H 0.81135 -0.14242 0.12112
 H504 H 0.84975 -0.10855 0.08316
 C505 C 0.87989 0.39613 0.60956
 C506 C 0.89857 0.38178 0.63661
 C507 C 0.87843 0.36201 0.65937
 C508 C 0.83869 0.35584 0.65569
 C509 C 0.82048 0.37138 0.62807
 C510 C 0.84086 0.39108 0.60545
 C511 C 0.90073 0.41558 0.58569
 C512 C 0.91758 0.43172 0.56525
 H513 H 0.92883 0.38598 0.64023
 H514 H 0.89450 0.35325 0.68031
 H515 H 0.79079 0.36688 0.62233
 H516 H 0.82612 0.40185 0.58438
 C517 C 0.38404 -0.11548 0.61064
 C518 C 0.39607 -0.11353 0.64253
 C519 C 0.37477 -0.13101 0.66583
 C520 C 0.34111 -0.15061 0.65749
 C521 C 0.32932 -0.15237 0.62535
 C522 C 0.35064 -0.13493 0.60214
 C523 C 0.40580 -0.09774 0.58647
 C524 C 0.42337 -0.08322 0.56565
 H525 H 0.42186 -0.09848 0.64937
 H526 H 0.38438 -0.12882 0.69039
 H527 H 0.30390 -0.16775 0.61809
 H528 H 0.34114 -0.13674 0.57751
 C529 C 0.37583 0.39234 0.10393
 C530 C 0.34621 0.41090 0.11889
 C531 C 0.32773 0.39298 0.14368
 C532 C 0.33883 0.35633 0.15386
 C533 C 0.36862 0.33801 0.13860
 C534 C 0.38695 0.35590 0.11386
 C535 C 0.39583 0.41063 0.07895
 C536 C 0.41432 0.42461 0.05844
 H537 H 0.33754 0.43922 0.11152
 H538 H 0.30511 0.40793 0.15513
 H539 H 0.37740 0.30956 0.14548
 H540 H 0.40987 0.34129 0.10247
 C541 C 0.89367 0.11862 -0.11918
 C542 C 0.87677 0.15262 -0.10975
 C543 C 0.85603 0.17462 -0.13170
 C544 C 0.85191 0.16291 -0.16349
 C545 C 0.86922 0.12877 -0.17285
 C546 C 0.89000 0.10675 -0.15078
 C547 C 0.91380 0.09581 -0.09592
 C548 C 0.92977 0.07783 -0.07519
 H549 H 0.87925 0.16193 -0.08529
 H550 H 0.84253 0.20037 -0.12361
 H551 H 0.86685 0.11922 -0.19722
 H552 H 0.90298 0.08045 -0.15831
 C553 C 0.88380 0.61905 0.38346
 C554 C 0.88359 0.60874 0.35141
 C555 C 0.86393 0.63101 0.32878
 C556 C 0.84434 0.66393 0.33798
 C557 C 0.84464 0.67386 0.37028
 C558 C 0.86423 0.65160 0.39279
 C559 C 0.90386 0.59656 0.40708
 C560 C 0.92007 0.57887 0.42792
 H561 H 0.89867 0.58361 0.34391
 H562 H 0.86449 0.62281 0.30407
 H563 H 0.82932 0.69861 0.37823
 H564 H 0.86404 0.65976 0.41755
 C565 C 0.39273 0.11945 0.38575
 C566 C 0.38837 0.15830 0.39136
 C567 C 0.36872 0.18126 0.36936
 C568 C 0.35250 0.16590 0.34086
 C569 C 0.35816 0.12632 0.33557
 C570 C 0.37788 0.10359 0.35774
 C571 C 0.41174 0.09595 0.40924
 C572 C 0.42743 0.07720 0.42967
 H573 H 0.39955 0.17085 0.41319
 H574 H 0.36473 0.21053 0.37627
 H575 H 0.34891 0.11241 0.31386
 H576 H 0.38155 0.07352 0.35295
 C577 C 0.38193 0.64152 -0.09524
 C578 C 0.37933 0.62678 -0.12604
 C579 C 0.35840 0.64594 -0.14974
 C580 C 0.33970 0.68022 -0.14298
 C581 C 0.34257 0.69493 -0.11195
 C582 C 0.36355 0.67566 -0.08823
 C583 C 0.40346 0.62120 -0.07112
 C584 C 0.42189 0.60277 -0.05208
 H585 H 0.39356 0.60044 -0.13177
 H586 H 0.35720 0.63416 -0.17346
 H587 H 0.32813 0.72101 -0.10590
 H588 H 0.36529 0.68728 -0.06445
 C589 C 1.10298 -0.09016 -0.12208
 C590 C 1.13909 -0.07777 -0.13019
 C591 C 1.15987 -0.09842 -0.15201
 C592 C 1.14481 -0.13186 -0.16579
 C593 C 1.10796 -0.14328 -0.15832
 C594 C 1.08723 -0.12258 -0.13657
 C595 C 1.08369 -0.07209 -0.09666
 C596 C 1.06821 -0.05873 -0.07422
 H597 H 1.15169 -0.05292 -0.11887
 H598 H 1.18831 -0.08915 -0.15704
 H599 H 1.09544 -0.16861 -0.16889
 H600 H 1.05937 -0.13252 -0.13034
 C601 C 1.11836 0.39431 0.39285
 C602 C 1.13944 0.36220 0.40203
 C603 C 1.16045 0.34252 0.37984
 C604 C 1.16066 0.35470 0.34809
 C605 C 1.13942 0.38708 0.33908
 C606 C 1.11839 0.40674 0.36135
 C607 C 1.09725 0.41463 0.41601
 C608 C 1.08021 0.43131 0.43602
 H609 H 1.13980 0.35248 0.42640
 H610 H 1.17696 0.31807 0.38763
 H611 H 1.13869 0.39689 0.31475
 H612 H 1.10216 0.43159 0.35401
 C613 C 0.61163 -0.11299 0.38653
 C614 C 0.64832 -0.10046 0.38043
 C615 C 0.66917 -0.11814 0.35697
 C616 C 0.65360 -0.14869 0.33932
 C617 C 0.61648 -0.16073 0.34536
 C618 C 0.59568 -0.14299 0.36882
 C619 C 0.59087 -0.09588 0.41163
 C620 C 0.57383 -0.08192 0.43303
 H621 H 0.66102 -0.07738 0.39410
 H622 H 0.69783 -0.10854 0.35322
 H623 H 0.60353 -0.18383 0.33191
 H624 H 0.56728 -0.15289 0.37333
 C625 C 0.62625 0.38772 -0.10336
 C626 C 0.66167 0.40061 -0.11283
 C627 C 0.68025 0.38186 -0.13715
 C628 C 0.66362 0.34992 -0.15226
 C629 C 0.62786 0.33749 -0.14271
 C630 C 0.60937 0.35625 -0.11846
 C631 C 0.60672 0.40654 -0.07833
 C632 C 0.58872 0.42116 -0.05779
 H633 H 0.67499 0.42497 -0.10133
 H634 H 0.70793 0.39186 -0.14371
 H635 H 0.61403 0.31339 -0.15415
 H636 H 0.58185 0.34617 -0.11148
 C637 C 1.12682 0.11516 -0.10159
 C638 C 1.11546 0.15164 -0.11094
 C639 C 1.13374 0.17040 -0.13527
 C640 C 1.16411 0.15310 -0.15101
 C641 C 1.17497 0.11594 -0.14127
 C642 C 1.15653 0.09730 -0.11683
 C643 C 1.10701 0.09604 -0.07689
 C644 C 1.08887 0.08113 -0.05659
 H645 H 1.09206 0.16553 -0.09961
 H646 H 1.12268 0.19793 -0.14230
 H647 H 1.19869 0.10142 -0.15142
 H648 H 1.16560 0.06900 -0.10974
 C649 C 1.11096 0.61317 0.38665
 C650 C 1.14759 0.60054 0.38046
 C651 C 1.16853 0.61833 0.35712
 C652 C 1.15310 0.64909 0.33965
 C653 C 1.11604 0.66125 0.34578
 C654 C 1.09515 0.64340 0.36913
 C655 C 1.09012 0.59593 0.41166
 C656 C 1.07307 0.58185 0.43300
 H657 H 1.16018 0.57729 0.39399
 H658 H 1.19714 0.60862 0.35331
 H659 H 1.10319 0.68452 0.33248
 H660 H 1.06680 0.65340 0.37370
 C661 C 0.61659 0.10394 0.39075
 C662 C 0.65175 0.09000 0.38165
 C663 C 0.67249 0.10963 0.35923
 C664 C 0.65832 0.14355 0.34564
 C665 C 0.62274 0.15711 0.35471
 C666 C 0.60203 0.13741 0.37713
 C667 C 0.59607 0.08446 0.41476
 C668 C 0.57953 0.06820 0.43530
 H669 H 0.66335 0.06420 0.39218
 H670 H 0.69999 0.09873 0.35307
 H671 H 0.61085 0.18285 0.34437
 H672 H 0.57483 0.14842 0.38401
 C673 C 0.60091 0.59395 -0.12168
 C674 C 0.63231 0.57732 -0.13549
 C675 C 0.65346 0.59796 -0.15708
 C676 C 0.64388 0.63603 -0.16497
 C677 C 0.61105 0.65162 -0.15160
 C678 C 0.58998 0.63082 -0.13020
 C679 C 0.58186 0.57487 -0.09662
 C680 C 0.56657 0.56081 -0.07437
 H681 H 0.64126 0.54886 -0.12876
 H682 H 0.67865 0.58453 -0.16576
 H683 H 0.60091 0.67977 -0.15784
 H684 H 0.56553 0.64390 -0.11975
 C685 C 0.88381 -0.14153 -0.09572
 C686 C 0.88155 -0.12709 -0.12663
 C687 C 0.86047 -0.14623 -0.15027
 C688 C 0.84131 -0.18019 -0.14333
 C689 C 0.84389 -0.19461 -0.11220
 C690 C 0.86499 -0.17536 -0.08855
 C691 C 0.90534 -0.12114 -0.07163
 C692 C 0.92368 -0.10264 -0.05257
 H693 H 0.89610 -0.10097 -0.13247
 H694 H 0.85951 -0.13467 -0.17406
 H695 H 0.82909 -0.22043 -0.10602
 H696 H 0.86646 -0.18673 -0.06469
 C697 C 0.89262 0.37889 0.38656
 C698 C 0.87718 0.34408 0.39581
 C699 C 0.85776 0.32116 0.37364
 C700 C 0.85347 0.33276 0.34182
 C701 C 0.86947 0.36763 0.33266
 C702 C 0.88892 0.39053 0.35491
 C703 C 0.91176 0.40262 0.40981
 C704 C 0.92748 0.42159 0.43009
 H705 H 0.87980 0.33484 0.42027
 H706 H 0.84529 0.29480 0.38157
 H707 H 0.86702 0.37714 0.30828
 H708 H 0.90087 0.41737 0.34747
 C709 C 0.38577 -0.12067 0.38304
 C710 C 0.37413 -0.10502 0.35395
 C711 C 0.35421 -0.12722 0.33143
 C712 C 0.34528 -0.16601 0.33740
 C713 C 0.35780 -0.18100 0.36723
 C714 C 0.37764 -0.15864 0.38952
 C715 C 0.40526 -0.09788 0.40683
 C716 C 0.42109 -0.07999 0.42775
 H717 H 0.38055 -0.07560 0.34856
 H718 H 0.34757 -0.11368 0.30897
 H719 H 0.35083 -0.20941 0.37482
 H720 H 0.38610 -0.17096 0.41222
 C721 C 0.39340 0.38161 -0.11913
 C722 C 0.39009 0.39329 -0.15080
 C723 C 0.36940 0.37122 -0.17290
 C724 C 0.35184 0.33724 -0.16350
 C725 C 0.35561 0.32573 -0.13164
 C726 C 0.37625 0.34777 -0.10966
 C727 C 0.41344 0.40446 -0.09586
 C728 C 0.42934 0.42247 -0.07512
 H729 H 0.40327 0.41947 -0.15835
 H730 H 0.36728 0.38062 -0.19732
 H731 H 0.34190 0.30010 -0.12353
 H732 H 0.37847 0.33861 -0.08516
 C733 C 1.12083 -0.13865 0.09378
 C734 C 1.15332 -0.12240 0.10808
 C735 C 1.17377 -0.14204 0.13182
 C736 C 1.16199 -0.17830 0.14169
 C737 C 1.12946 -0.19458 0.12696
 C738 C 1.10901 -0.17485 0.10319
 C739 C 1.09878 -0.11707 0.07073
 C740 C 1.08058 -0.09728 0.05249
 H741 H 1.16254 -0.09424 0.10121
 H742 H 1.19833 -0.12846 0.14294
 H743 H 1.11992 -0.22265 0.13369
 H744 H 1.08383 -0.18766 0.09238
 C745 C 1.10770 0.38606 0.61660
 C746 C 1.09414 0.35035 0.62563
 C747 C 1.11515 0.32796 0.64724
 C748 C 1.15013 0.34098 0.66002
 C749 C 1.16316 0.37724 0.65123
 C750 C 1.14209 0.39958 0.62965
 C751 C 1.08742 0.40783 0.59264
 C752 C 1.07098 0.42526 0.57179
 H753 H 1.06768 0.33949 0.61550
 H754 H 1.10457 0.30003 0.65322
 H755 H 1.18970 0.38829 0.66100
 H756 H 1.15288 0.42715 0.62279
 C757 C 0.61114 -0.11878 0.61788
 C758 C 0.64224 -0.10280 0.63446
 C759 C 0.66241 -0.12420 0.65730
 C760 C 0.65171 -0.16193 0.66384
 C761 C 0.62008 -0.17752 0.64731
 C762 C 0.59998 -0.15609 0.62449
 C763 C 0.59172 -0.09762 0.59307
 C764 C 0.57602 -0.08047 0.57168
 H765 H 0.65116 -0.07396 0.62948
 H766 H 0.68635 -0.11125 0.66987
 H767 H 0.61145 -0.20664 0.65142
 H768 H 0.57612 -0.16884 0.61163
 C769 C 0.61253 0.38051 0.11997
 C770 C 0.64628 0.39465 0.13371
 C771 C 0.66702 0.37273 0.15574
 C772 C 0.65427 0.33630 0.16426
 C773 C 0.61988 0.32266 0.15082
 C774 C 0.59918 0.34464 0.12875
 C775 C 0.59274 0.40192 0.09563
 C776 C 0.57690 0.41943 0.07458
 H777 H 0.65685 0.42238 0.12703
 H778 H 0.69313 0.38417 0.16603
 H779 H 0.60958 0.29456 0.15664
 H780 H 0.57319 0.33336 0.11808
 C781 C 0.87284 0.10257 0.10441
 C782 C 0.88765 0.10145 0.13557
 C783 C 0.86871 0.11972 0.15986
 C784 C 0.83464 0.13942 0.15327
 C785 C 0.81961 0.13978 0.12196
 C786 C 0.83865 0.12153 0.09769
 C787 C 0.89404 0.08629 0.07920
 C788 C 0.91322 0.07365 0.05856
 H789 H 0.91417 0.08696 0.14102
 H790 H 0.88075 0.11855 0.18376
 H791 H 0.79373 0.15513 0.11604
 H792 H 0.82710 0.12286 0.07362
 C793 C 0.88332 0.61422 0.61097
 C794 C 0.89564 0.61246 0.64280
 C795 C 0.87441 0.62984 0.66621
 C796 C 0.84052 0.64916 0.65804
 C797 C 0.82841 0.65067 0.62596
 C798 C 0.84967 0.63332 0.60264
 C799 C 0.90509 0.59670 0.58669
 C800 C 0.92270 0.58236 0.56580
 H801 H 0.92163 0.59768 0.64952
 H802 H 0.88427 0.62785 0.69071
 H803 H 0.80282 0.66583 0.61881
 H804 H 0.83994 0.63498 0.57806
 C805 C 0.37924 0.10315 0.60890
 C806 C 0.39394 0.10636 0.63998
 C807 C 0.37358 0.12586 0.66278
 C808 C 0.33820 0.14238 0.65475
 C809 C 0.32356 0.13868 0.62349
 C810 C 0.34396 0.11921 0.60076
 C811 C 0.40031 0.08369 0.58519
 C812 C 0.41735 0.06756 0.56486
 H813 H 0.42117 0.09392 0.64656
 H814 H 0.38540 0.12785 0.68671
 H815 H 0.29671 0.15155 0.61643
 H816 H 0.33236 0.11696 0.57674
 C817 C 0.39457 0.59576 0.11749
 C818 C 0.40756 0.59929 0.14905
 C819 C 0.38554 0.61852 0.17097
 C820 C 0.35029 0.63442 0.16151
 C821 C 0.33751 0.63037 0.12978
 C822 C 0.35946 0.61118 0.10801
 C823 C 0.41716 0.57755 0.09411
 C824 C 0.43405 0.56350 0.07268
 H825 H 0.43473 0.58748 0.15663
 H826 H 0.39600 0.62089 0.19529
 H827 H 0.31093 0.64287 0.12153
 H828 H 0.34925 0.60884 0.08360
   
