data_POSCAR
  _audit_creation_date              2014-09-24
  _audit_creation_method            'ToBaCCo'
  _symmetry_space_group_name_H-M    'P1'
  _symmetry_Int_Tables_number       1
  _symmetry_cell_setting            triclinic
  loop_
  _symmetry_equiv_pos_as_xyz
 x,y,z
_cell_length_a 47.4411
_cell_length_b 44.4704
_cell_length_c 45.6842
_cell_angle_alpha 87.923100
_cell_angle_beta 91.349100
_cell_angle_gamma 88.397900
loop_
  _atom_site_label
  _atom_site_type_symbol
  _atom_site_fract_x
  _atom_site_fract_y
  _atom_site_fract_z
C1 C 0.26831 0.24863 0.20990
 C2 C 0.24612 0.27024 0.20945
 C3 C 0.22454 0.26852 0.22990
 C4 C 0.22545 0.24493 0.25123
 C5 C 0.24752 0.22314 0.25219
 C6 C 0.26876 0.22510 0.23131
 H7 H 0.24606 0.28901 0.19366
 H8 H 0.20899 0.24363 0.26722
 H9 H 0.28538 0.20790 0.23137
 C10 C 0.73032 -0.23349 0.23426
 C11 C 0.75167 -0.25627 0.23454
 C12 C 0.77484 -0.25686 0.25457
 C13 C 0.77631 -0.23358 0.27469
 C14 C 0.75570 -0.21036 0.27447
 C15 C 0.73305 -0.21027 0.25423
 H16 H 0.75141 -0.27226 0.21730
 H17 H 0.79302 -0.23357 0.29120
 H18 H 0.71679 -0.19286 0.25554
 C19 C 0.72205 0.26855 0.77392
 C20 C 0.74357 0.28953 0.77549
 C21 C 0.76722 0.28777 0.75740
 C22 C 0.76856 0.26444 0.73728
 C23 C 0.74691 0.24367 0.73495
 C24 C 0.72383 0.24582 0.75348
 H25 H 0.74255 0.30613 0.79221
 H26 H 0.78560 0.26338 0.72199
 H27 H 0.70720 0.22970 0.75202
 C28 C 0.28384 -0.27368 0.77279
 C29 C 0.28298 -0.25118 0.75049
 C30 C 0.26027 -0.24854 0.73025
 C31 C 0.23834 -0.26912 0.73233
 C32 C 0.23871 -0.29230 0.75440
 C33 C 0.26179 -0.29398 0.77458
 H34 H 0.30034 -0.23598 0.74862
 H35 H 0.22137 -0.26720 0.71612
 H36 H 0.26210 -0.30993 0.79302
 C37 C 0.73506 -0.24740 0.78247
 C38 C 0.75433 -0.27200 0.78179
 C39 C 0.77707 -0.27191 0.76233
 C40 C 0.77945 -0.24675 0.74289
 C41 C 0.76013 -0.22235 0.74303
 C42 C 0.73833 -0.22259 0.76312
 H43 H 0.75190 -0.29076 0.79718
 H44 H 0.79572 -0.24632 0.72668
 H45 H 0.72367 -0.20348 0.76339
 C46 C 0.27067 0.23123 0.76797
 C47 C 0.27098 0.20947 0.74643
 C48 C 0.25007 0.20978 0.72413
 C49 C 0.22862 0.23223 0.72355
 C50 C 0.22791 0.25422 0.74486
 C51 C 0.24903 0.25353 0.76700
 H52 H 0.28760 0.19225 0.74698
 H53 H 0.21241 0.23259 0.70643
 H54 H 0.24865 0.27041 0.78350
 C55 C 0.27915 -0.25971 0.21422
 C56 C 0.27970 -0.23822 0.23625
 C57 C 0.25873 -0.23697 0.25743
 C58 C 0.23723 -0.25796 0.25701
 C59 C 0.23660 -0.28006 0.23596
 C60 C 0.25732 -0.28067 0.21454
 H61 H 0.29587 -0.22157 0.23650
 H62 H 0.22094 -0.25726 0.27321
 H63 H 0.25670 -0.29823 0.19875
 C64 C 0.71947 0.27621 0.22768
 C65 C 0.74080 0.29738 0.22536
 C66 C 0.76267 0.29783 0.24664
 C67 C 0.76323 0.27637 0.27001
 C68 C 0.74227 0.25480 0.27245
 C69 C 0.72028 0.25511 0.25131
 H70 H 0.73988 0.31400 0.20741
 H71 H 0.78015 0.27640 0.28635
 H72 H 0.70420 0.23832 0.25266
 O73 O 0.25920 0.01647 0.46184
 O74 O 0.26128 -0.04360 0.51964
 O75 O 0.26141 -0.04207 0.46259
 O76 O 0.25932 0.01500 0.51887
 O77 O 0.21284 0.01450 0.51781
 O78 O 0.21491 -0.04275 0.46159
 O79 O 0.21479 -0.04417 0.51836
 O80 O 0.21272 0.01590 0.46062
 Cu81 Cu 0.26496 -0.01348 0.49086
 Cu82 Cu 0.20915 -0.01410 0.48948
 C83 C 0.23559 0.02643 0.45128
 C84 C 0.23839 -0.05427 0.52880
 C85 C 0.23853 -0.05227 0.45253
 C86 C 0.23574 0.02452 0.52801
 O87 O 0.71473 0.04080 0.53438
 O88 O 0.71761 -0.01634 0.47805
 O89 O 0.71833 -0.01780 0.53465
 O90 O 0.71374 0.04239 0.47717
 O91 O 0.76015 0.04439 0.47764
 O92 O 0.76476 -0.01565 0.53530
 O93 O 0.76403 -0.01408 0.47818
 O94 O 0.76114 0.04272 0.53480
 Cu95 Cu 0.71144 0.01218 0.50600
 Cu96 Cu 0.76717 0.01460 0.50650
 C97 C 0.73747 0.05139 0.54440
 C98 C 0.74133 -0.02512 0.46862
 C99 C 0.74232 -0.02709 0.54472
 C100 C 0.73617 0.05363 0.46748
 O101 O 0.47078 0.27534 0.02430
 O102 O 0.52268 0.27760 -0.03463
 O103 O 0.46791 0.27616 -0.03256
 O104 O 0.52547 0.27841 0.02251
 O105 O 0.52950 0.22883 0.02349
 O106 O 0.47042 0.22653 -0.03040
 O107 O 0.52508 0.22797 -0.03327
 O108 O 0.47482 0.22577 0.02661
 Cu109 Cu 0.49644 0.28185 -0.00526
 Cu110 Cu 0.50026 0.22231 -0.00320
 C111 C 0.46399 0.25008 0.03557
 C112 C 0.53263 0.25306 -0.04415
 C113 C 0.45914 0.25103 -0.04080
 C114 C 0.53747 0.25409 0.03231
 O115 O 0.53787 0.71437 0.03355
 O116 O 0.48401 0.71293 -0.02596
 O117 O 0.53904 0.71294 -0.02302
 O118 O 0.48332 0.71237 0.03142
 O119 O 0.48021 0.76202 0.02849
 O120 O 0.53730 0.76260 -0.02507
 O121 O 0.48249 0.76257 -0.02838
 O122 O 0.53509 0.76401 0.03169
 Cu123 Cu 0.51115 0.70816 0.00415
 Cu124 Cu 0.50850 0.76777 0.00146
 C125 C 0.54569 0.73953 0.04278
 C126 C 0.47420 0.73761 -0.03750
 C127 C 0.54800 0.73778 -0.03310
 C128 C 0.47233 0.73701 0.03938
 O129 O 0.02924 0.47537 0.27341
 O130 O -0.02155 0.53873 0.27704
 O131 O -0.02546 0.48045 0.27666
 O132 O 0.03276 0.53373 0.27107
 O133 O 0.02682 0.53579 0.22297
 O134 O -0.02960 0.48125 0.22845
 O135 O -0.02741 0.53959 0.22897
 O136 O 0.02517 0.47704 0.22519
 Cu137 Cu 0.00426 0.50689 0.27935
 Cu138 Cu -0.00170 0.50850 0.22157
 C139 C 0.03607 0.46540 0.24881
 C140 C -0.03330 0.54997 0.25375
 C141 C -0.03745 0.47171 0.25338
 C142 C 0.03943 0.54416 0.24595
 O143 O 0.02940 0.52355 0.73568
 O144 O -0.02491 0.46652 0.74104
 O145 O -0.02524 0.52466 0.74018
 O146 O 0.03012 0.46481 0.73808
 O147 O 0.03406 0.46434 0.78630
 O148 O -0.02040 0.52453 0.78836
 O149 O -0.02069 0.46567 0.78929
 O150 O 0.03408 0.52280 0.78386
 Cu151 Cu 0.00198 0.49487 0.73391
 Cu152 Cu 0.00715 0.49424 0.79179
 C153 C 0.04102 0.53301 0.75877
 C154 C -0.03226 0.45651 0.76599
 C155 C -0.03215 0.53488 0.76470
 C156 C 0.04159 0.45437 0.76191
 C157 C 0.28485 0.26039 0.15900
 C158 C 0.30631 0.26315 0.13874
 C159 C 0.33443 0.25605 0.14702
 C160 C 0.34079 0.24664 0.17622
 C161 C 0.31934 0.24408 0.19656
 C162 C 0.29110 0.25089 0.18818
 C163 C 0.35655 0.25955 0.12491
 C164 C 0.38070 0.24312 0.12582
 C165 C 0.40215 0.24573 0.10291
 C166 C 0.41895 0.22035 0.09696
 C167 C 0.43905 0.22178 0.07513
 C168 C 0.44313 0.24885 0.05914
 C169 C 0.42684 0.27452 0.06564
 C170 C 0.40651 0.27299 0.08728
 H171 H 0.26330 0.26546 0.15171
 H172 H 0.30089 0.27056 0.11641
 H173 H 0.36234 0.24190 0.18362
 H174 H 0.32496 0.23738 0.21901
 H175 H 0.35189 0.27484 0.10632
 H176 H 0.38413 0.22563 0.14275
 H177 H 0.41618 0.19919 0.10891
 H178 H 0.45142 0.20166 0.07080
 H179 H 0.42961 0.29574 0.05382
 H180 H 0.39450 0.29323 0.09193
 C181 C 0.69213 0.79249 0.20443
 C182 C 0.66957 0.79156 0.18424
 C183 C 0.66099 0.76414 0.17330
 C184 C 0.67486 0.73743 0.18377
 C185 C 0.69747 0.73828 0.20377
 C186 C 0.70688 0.76585 0.21432
 C187 C 0.63733 0.76432 0.15145
 C188 C 0.63323 0.74199 0.13294
 C189 C 0.61003 0.74217 0.11062
 C190 C 0.60172 0.71460 0.09969
 C191 C 0.58059 0.71367 0.07795
 C192 C 0.56749 0.74039 0.06642
 C193 C 0.57586 0.76803 0.07727
 C194 C 0.59694 0.76896 0.09907
 H195 H 0.69861 0.81440 0.21106
 H196 H 0.65913 0.81249 0.17668
 H197 H 0.66806 0.71564 0.17714
 H198 H 0.70673 0.71694 0.21176
 H199 H 0.62329 0.78394 0.15039
 H200 H 0.64730 0.72241 0.13394
 H201 H 0.61162 0.69367 0.10802
 H202 H 0.57472 0.69202 0.06998
 H203 H 0.56633 0.78904 0.06868
 H204 H 0.60331 0.79073 0.10616
 C205 C 0.68556 0.29767 -0.19883
 C206 C 0.66382 0.29893 -0.17874
 C207 C 0.65401 0.27251 -0.16524
 C208 C 0.66668 0.24469 -0.17204
 C209 C 0.68842 0.24343 -0.19210
 C210 C 0.69817 0.26990 -0.20566
 C211 C 0.63168 0.27499 -0.14317
 C212 C 0.61461 0.25243 -0.13612
 C213 C 0.59332 0.25378 -0.11288
 C214 C 0.58354 0.22656 -0.10105
 C215 C 0.56386 0.22638 -0.07883
 C216 C 0.55325 0.25351 -0.06800
 C217 C 0.56259 0.28085 -0.08015
 C218 C 0.58238 0.28103 -0.10241
 H219 H 0.69249 0.31843 -0.20907
 H220 H 0.65459 0.32065 -0.17375
 H221 H 0.66057 0.22388 -0.16132
 H222 H 0.69817 0.22177 -0.19638
 H223 H 0.62960 0.29621 -0.13249
 H224 H 0.61667 0.23142 -0.14722
 H225 H 0.59143 0.20526 -0.10882
 H226 H 0.55701 0.20491 -0.07008
 H227 H 0.55462 0.30214 -0.07247
 H228 H 0.58862 0.30255 -0.11148
 C229 C 0.31922 0.69641 -0.19546
 C230 C 0.34074 0.69466 -0.17399
 C231 C 0.35111 0.72087 -0.16194
 C232 C 0.33920 0.74897 -0.17159
 C233 C 0.31768 0.75070 -0.19304
 C234 C 0.30740 0.72445 -0.20517
 C235 C 0.37331 0.71792 -0.13851
 C236 C 0.39097 0.74000 -0.13238
 C237 C 0.41232 0.73818 -0.10808
 C238 C 0.42277 0.76516 -0.09786
 C239 C 0.44275 0.76490 -0.07494
 C240 C 0.45298 0.73757 -0.06179
 C241 C 0.44286 0.71045 -0.07223
 C242 C 0.42278 0.71070 -0.09519
 H243 H 0.31186 0.67580 -0.20454
 H244 H 0.34939 0.67275 -0.16681
 H245 H 0.34575 0.76965 -0.16210
 H246 H 0.30854 0.77257 -0.19959
 H247 H 0.37486 0.69675 -0.12609
 H248 H 0.38944 0.76095 -0.14519
 H249 H 0.41525 0.78661 -0.10748
 H250 H 0.45018 0.78621 -0.06755
 H251 H 0.45053 0.68901 -0.06273
 H252 H 0.41597 0.68935 -0.10294
 C253 C 0.18914 0.30249 0.20237
 C254 C 0.16778 0.32481 0.20165
 C255 C 0.15797 0.33670 0.22769
 C256 C 0.17034 0.32605 0.25457
 C257 C 0.19170 0.30373 0.25527
 C258 C 0.20137 0.29172 0.22919
 C259 C 0.13582 0.36097 0.22582
 C260 C 0.11867 0.36707 0.24791
 C261 C 0.09735 0.39216 0.24698
 C262 C 0.08782 0.40275 0.27365
 C263 C 0.06798 0.42648 0.27417
 C264 C 0.05694 0.44007 0.24794
 C265 C 0.06607 0.42919 0.22115
 C266 C 0.08604 0.40544 0.22063
 H267 H 0.19598 0.29351 0.18191
 H268 H 0.15878 0.33275 0.18067
 H269 H 0.16424 0.33538 0.27508
 H270 H 0.20117 0.29639 0.27622
 H271 H 0.13383 0.37406 0.20543
 H272 H 0.12063 0.35368 0.26814
 H273 H 0.09599 0.39283 0.29425
 H274 H 0.06132 0.43418 0.29520
 H275 H 0.05777 0.43901 0.20058
 H276 H 0.09212 0.39739 0.19959
 C277 C 0.22118 0.65797 0.77012
 C278 C 0.19935 0.63772 0.77282
 C279 C 0.17223 0.64530 0.76178
 C280 C 0.16718 0.67386 0.74824
 C281 C 0.18896 0.69427 0.74559
 C282 C 0.21651 0.68685 0.75657
 C283 C 0.14967 0.62322 0.76569
 C284 C 0.12683 0.62244 0.74791
 C285 C 0.10492 0.59958 0.75142
 C286 C 0.08933 0.59140 0.72664
 C287 C 0.06865 0.56974 0.72901
 C288 C 0.06284 0.55608 0.75635
 C289 C 0.07803 0.56473 0.78130
 C290 C 0.09885 0.58626 0.77889
 H291 H 0.24192 0.65018 0.77786
 H292 H 0.20382 0.61579 0.78327
 H293 H 0.14626 0.68094 0.74040
 H294 H 0.18349 0.71636 0.73615
 H295 H 0.15297 0.60595 0.78284
 H296 H 0.12487 0.63777 0.72897
 H297 H 0.09341 0.60154 0.70529
 H298 H 0.05719 0.56375 0.70939
 H299 H 0.07388 0.55482 0.80272
 H300 H 0.10980 0.59272 0.79863
 C301 C -0.20970 0.69155 0.24273
 C302 C -0.18856 0.66933 0.24075
 C303 C -0.16092 0.67442 0.25027
 C304 C -0.15474 0.70240 0.26185
 C305 C -0.17587 0.72478 0.26380
 C306 C -0.20381 0.72001 0.25393
 C307 C -0.13908 0.65045 0.24669
 C308 C -0.11535 0.64763 0.26318
 C309 C -0.09428 0.62284 0.25996
 C310 C -0.07787 0.61283 0.28451
 C311 C -0.05810 0.58917 0.28247
 C312 C -0.05401 0.57529 0.25567
 C313 C -0.06995 0.58580 0.23088
 C314 C -0.08988 0.60934 0.23298
 H315 H -0.23085 0.68573 0.23615
 H316 H -0.19392 0.64787 0.23193
 H317 H -0.13345 0.70753 0.26856
 H318 H -0.16960 0.74632 0.27160
 H319 H -0.14362 0.63354 0.23090
 H320 H -0.11199 0.66267 0.28096
 H321 H -0.08065 0.62306 0.30545
 H322 H -0.04600 0.58177 0.30194
 H323 H -0.06712 0.57575 0.20987
 H324 H -0.10152 0.61713 0.21337
 C325 C -0.21692 0.33883 0.76727
 C326 C -0.19564 0.35990 0.76819
 C327 C -0.16778 0.35155 0.76216
 C328 C -0.16152 0.32185 0.75461
 C329 C -0.18286 0.30091 0.75291
 C330 C -0.21103 0.30894 0.75927
 C331 C -0.14597 0.37459 0.76214
 C332 C -0.11939 0.36861 0.77157
 C333 C -0.09754 0.39162 0.77033
 C334 C -0.07717 0.39256 0.79301
 C335 C -0.05614 0.41400 0.79196
 C336 C -0.05468 0.43421 0.76771
 C337 C -0.07480 0.43286 0.74478
 C338 C -0.09616 0.41193 0.74617
 H339 H -0.23822 0.34662 0.77141
 H340 H -0.20097 0.38285 0.77361
 H341 H -0.14021 0.31494 0.74940
 H342 H -0.17689 0.27815 0.74752
 H343 H -0.15229 0.39739 0.75516
 H344 H -0.11371 0.34669 0.78146
 H345 H -0.07773 0.37689 0.81170
 H346 H -0.04075 0.41446 0.80981
 H347 H -0.07416 0.44817 0.72584
 H348 H -0.11124 0.41124 0.72805
 C349 C 0.27426 0.18923 0.28893
 C350 C 0.27521 0.16627 0.31067
 C351 C 0.25047 0.15222 0.31935
 C352 C 0.22472 0.16117 0.30525
 C353 C 0.22379 0.18410 0.28344
 C354 C 0.24852 0.19849 0.27511
 C355 C 0.25263 0.12791 0.34250
 C356 C 0.23111 0.12010 0.35950
 C357 C 0.23316 0.09599 0.38290
 C358 C 0.20815 0.08362 0.39310
 C359 C 0.20890 0.06106 0.41525
 C360 C 0.23475 0.05044 0.42788
 C361 C 0.25980 0.06303 0.41797
 C362 C 0.25905 0.08563 0.39584
 H363 H 0.29365 0.20005 0.28324
 H364 H 0.29534 0.15970 0.32102
 H365 H 0.20533 0.15019 0.31047
 H366 H 0.20373 0.19024 0.27274
 H367 H 0.27300 0.11662 0.34573
 H368 H 0.21083 0.13160 0.35621
 H369 H 0.18790 0.09133 0.38376
 H370 H 0.18920 0.05193 0.42244
 H371 H 0.28005 0.05557 0.42744
 H372 H 0.27880 0.09514 0.38947
 C373 C 0.77382 0.20512 0.70699
 C374 C 0.77519 0.18374 0.68535
 C375 C 0.75097 0.17667 0.66906
 C376 C 0.72528 0.19176 0.67465
 C377 C 0.72393 0.21320 0.69626
 C378 C 0.74819 0.22018 0.71263
 C379 C 0.75371 0.15449 0.64572
 C380 C 0.73215 0.13849 0.63572
 C381 C 0.73447 0.11635 0.61219
 C382 C 0.70952 0.10629 0.59912
 C383 C 0.71044 0.08533 0.57706
 C384 C 0.73641 0.07385 0.56755
 C385 C 0.76141 0.08371 0.58070
 C386 C 0.76051 0.10458 0.60284
 H387 H 0.79282 0.20979 0.71940
 H388 H 0.79526 0.17259 0.68140
 H389 H 0.70634 0.18779 0.66191
 H390 H 0.70401 0.22491 0.69962
 H391 H 0.77450 0.15130 0.63699
 H392 H 0.71154 0.14167 0.64498
 H393 H 0.68917 0.11476 0.60595
 H394 H 0.69078 0.07814 0.56745
 H395 H 0.78176 0.07505 0.57409
 H396 H 0.78030 0.11083 0.61271
 C397 C 0.26858 -0.19523 0.71322
 C398 C 0.26823 -0.17240 0.69137
 C399 C 0.25841 -0.17781 0.66291
 C400 C 0.24945 -0.20680 0.65652
 C401 C 0.25001 -0.22973 0.67833
 C402 C 0.25952 -0.22421 0.70697
 C403 C 0.25875 -0.15307 0.64031
 C404 C 0.24068 -0.15094 0.61726
 C405 C 0.24066 -0.12580 0.59505
 C406 C 0.21536 -0.11743 0.58003
 C407 C 0.21456 -0.09401 0.55876
 C408 C 0.23919 -0.07876 0.55169
 C409 C 0.26464 -0.08744 0.56642
 C410 C 0.26538 -0.11069 0.58790
 H411 H 0.27570 -0.19008 0.73512
 H412 H 0.27538 -0.15032 0.69681
 H413 H 0.24262 -0.21205 0.63457
 H414 H 0.24353 -0.25195 0.67259
 H415 H 0.27335 -0.13519 0.64381
 H416 H 0.22420 -0.16717 0.61536
 H417 H 0.19610 -0.12890 0.58495
 H418 H 0.19466 -0.08802 0.54766
 H419 H 0.28402 -0.07628 0.56134
 H420 H 0.28544 -0.11714 0.59840
 C421 C 0.75548 -0.15601 0.28683
 C422 C 0.75638 -0.13341 0.30730
 C423 C 0.75829 -0.14087 0.33739
 C424 C 0.76033 -0.17138 0.34668
 C425 C 0.75998 -0.19396 0.32618
 C426 C 0.75725 -0.18646 0.29611
 C427 C 0.75853 -0.11650 0.35856
 C428 C 0.74585 -0.11890 0.38440
 C429 C 0.74494 -0.09423 0.40525
 C430 C 0.72121 -0.09070 0.42266
 C431 C 0.71982 -0.06788 0.44286
 C432 C 0.74250 -0.04861 0.44656
 C433 C 0.76646 -0.05241 0.42942
 C434 C 0.76762 -0.07489 0.40881
 H435 H 0.75356 -0.14975 0.26372
 H436 H 0.75503 -0.11005 0.29966
 H437 H 0.76247 -0.17778 0.36973
 H438 H 0.76135 -0.21732 0.33380
 H439 H 0.76763 -0.09536 0.35179
 H440 H 0.73414 -0.13887 0.38972
 H441 H 0.70360 -0.10551 0.42045
 H442 H 0.70119 -0.06566 0.45595
 H443 H 0.78429 -0.03794 0.43188
 H444 H 0.78648 -0.07752 0.39616
 C445 C 0.68460 0.76409 -0.20547
 C446 C 0.66261 0.76481 -0.18570
 C447 C 0.66681 0.75360 -0.15680
 C448 C 0.69369 0.74204 -0.14786
 C449 C 0.71577 0.74150 -0.16760
 C450 C 0.71149 0.75253 -0.19665
 C451 C 0.64303 0.75525 -0.13642
 C452 C 0.64041 0.73592 -0.11352
 C453 C 0.61630 0.73711 -0.09353
 C454 C 0.60837 0.71046 -0.07901
 C455 C 0.58598 0.71065 -0.05969
 C456 C 0.57129 0.73765 -0.05411
 C457 C 0.57943 0.76444 -0.06838
 C458 C 0.60170 0.76420 -0.08792
 H459 H 0.68049 0.77242 -0.22777
 H460 H 0.64214 0.77393 -0.19308
 H461 H 0.69796 0.73410 -0.12549
 H462 H 0.73637 0.73308 -0.15993
 H463 H 0.62639 0.77191 -0.14155
 H464 H 0.65556 0.71738 -0.11013
 H465 H 0.61944 0.68936 -0.08276
 H466 H 0.58039 0.68965 -0.04890
 H467 H 0.56866 0.78564 -0.06438
 H468 H 0.60776 0.78533 -0.09807
 C469 C 0.30292 0.20341 -0.19529
 C470 C 0.32449 0.20292 -0.17389
 C471 C 0.33659 0.22973 -0.16522
 C472 C 0.32685 0.25715 -0.17878
 C473 C 0.30529 0.25763 -0.20020
 C474 C 0.29310 0.23077 -0.20874
 C475 C 0.35995 0.22797 -0.14297
 C476 C 0.36684 0.25098 -0.12624
 C477 C 0.39059 0.24986 -0.10441
 C478 C 0.40095 0.27718 -0.09485
 C479 C 0.42320 0.27752 -0.07432
 C480 C 0.43557 0.25048 -0.06264
 C481 C 0.42505 0.22307 -0.07189
 C482 C 0.40275 0.22271 -0.09247
 H483 H 0.29378 0.18235 -0.20118
 H484 H 0.33168 0.18148 -0.16396
 H485 H 0.33626 0.27823 -0.17359
 H486 H 0.29861 0.27899 -0.21063
 H487 H 0.37156 0.20673 -0.14042
 H488 H 0.35491 0.27205 -0.12877
 H489 H 0.39190 0.29842 -0.10347
 H490 H 0.43071 0.29905 -0.06760
 H491 H 0.43394 0.20184 -0.06309
 H492 H 0.39493 0.20113 -0.09844
 C493 C 0.29321 0.73069 0.16368
 C494 C 0.31322 0.73171 0.14171
 C495 C 0.34060 0.74105 0.14780
 C496 C 0.34758 0.74998 0.17613
 C497 C 0.32745 0.74972 0.19796
 C498 C 0.29981 0.74004 0.19222
 C499 C 0.36128 0.74226 0.12412
 C500 C 0.38851 0.73449 0.12884
 C501 C 0.40923 0.73520 0.10523
 C502 C 0.43023 0.71243 0.10480
 C503 C 0.45039 0.71277 0.08301
 C504 C 0.45045 0.73644 0.06180
 C505 C 0.42973 0.75956 0.06252
 C506 C 0.40908 0.75880 0.08389
 H507 H 0.27217 0.72399 0.15767
 H508 H 0.30733 0.72505 0.11987
 H509 H 0.36851 0.75765 0.18134
 H510 H 0.33409 0.75619 0.21960
 H511 H 0.35359 0.74803 0.10205
 H512 H 0.39556 0.72560 0.15026
 H513 H 0.43084 0.69420 0.12121
 H514 H 0.46630 0.69481 0.08308
 H515 H 0.42937 0.77807 0.04643
 H516 H 0.39340 0.77696 0.08412
 C517 C 0.66811 0.27560 0.21411
 C518 C 0.64618 0.27515 0.19317
 C519 C 0.65204 0.27430 0.16326
 C520 C 0.68027 0.27483 0.15453
 C521 C 0.70219 0.27587 0.17546
 C522 C 0.69630 0.27599 0.20543
 C523 C 0.62832 0.27383 0.14169
 C524 C 0.62984 0.25894 0.11676
 C525 C 0.60582 0.25797 0.09558
 C526 C 0.60215 0.23206 0.07943
 C527 C 0.57971 0.23058 0.05915
 C528 C 0.56091 0.25531 0.05414
 C529 C 0.56489 0.28145 0.06996
 C530 C 0.58703 0.28273 0.09057
 H531 H 0.66307 0.27596 0.23710
 H532 H 0.62459 0.27506 0.20036
 H533 H 0.68540 0.27492 0.13156
 H534 H 0.72379 0.27616 0.16829
 H535 H 0.60851 0.28451 0.14745
 H536 H 0.64865 0.24559 0.11249
 H537 H 0.61652 0.21281 0.08275
 H538 H 0.57730 0.21023 0.04712
 H539 H 0.55081 0.30090 0.06649
 H540 H 0.58972 0.30331 0.10214
 C541 C -0.21072 0.67392 0.76967
 C542 C -0.19112 0.64989 0.76878
 C543 C -0.16315 0.65493 0.76131
 C544 C -0.15518 0.68434 0.75399
 C545 C -0.17483 0.70828 0.75419
 C546 C -0.20303 0.70363 0.76213
 C547 C -0.14283 0.62920 0.76034
 C548 C -0.11579 0.63129 0.76892
 C549 C -0.09520 0.60584 0.76789
 C550 C -0.07419 0.60225 0.78993
 C551 C -0.05399 0.57883 0.78914
 C552 C -0.05394 0.55914 0.76579
 C553 C -0.07472 0.56302 0.74345
 C554 C -0.09535 0.58601 0.74461
 H555 H -0.23220 0.66874 0.77496
 H556 H -0.19779 0.62728 0.77411
 H557 H -0.13380 0.68882 0.74770
 H558 H -0.16737 0.73060 0.74913
 H559 H -0.15065 0.60773 0.75379
 H560 H -0.10876 0.65185 0.77842
 H561 H -0.07356 0.61746 0.80791
 H562 H -0.03807 0.57647 0.80652
 H563 H -0.07512 0.54814 0.72520
 H564 H -0.11097 0.58871 0.72697
 C565 C -0.20329 0.32846 0.21757
 C566 C -0.18171 0.34919 0.21596
 C567 C -0.17118 0.36228 0.24134
 C568 C -0.18339 0.35495 0.26836
 C569 C -0.20501 0.33430 0.26996
 C570 C -0.21503 0.32058 0.24464
 C571 C -0.14803 0.38386 0.23861
 C572 C -0.12975 0.38926 0.26059
 C573 C -0.10618 0.41042 0.25796
 C574 C -0.09374 0.42105 0.28366
 C575 C -0.07138 0.44087 0.28230
 C576 C -0.06085 0.45038 0.25512
 C577 C -0.07299 0.43941 0.22940
 C578 C -0.09527 0.41957 0.23076
 H579 H -0.21041 0.31815 0.19770
 H580 H -0.17286 0.35464 0.19484
 H581 H -0.17671 0.36543 0.28826
 H582 H -0.21413 0.32930 0.29103
 H583 H -0.14587 0.39502 0.21740
 H584 H -0.13200 0.37786 0.28170
 H585 H -0.10151 0.41417 0.30492
 H586 H -0.06244 0.44883 0.30253
 H587 H -0.06517 0.44602 0.20811
 H588 H -0.10340 0.41119 0.21042
 C589 C 0.19575 0.29167 0.71720
 C590 C 0.17399 0.31356 0.71635
 C591 C 0.16122 0.32233 0.74221
 C592 C 0.17035 0.30825 0.76902
 C593 C 0.19210 0.28634 0.76987
 C594 C 0.20506 0.27781 0.74398
 C595 C 0.13796 0.34539 0.74018
 C596 C 0.13101 0.36280 0.76245
 C597 C 0.10768 0.38585 0.76114
 C598 C 0.09793 0.39672 0.78764
 C599 C 0.07638 0.41873 0.78784
 C600 C 0.06407 0.43059 0.76146
 C601 C 0.07382 0.41985 0.73486
 C602 C 0.09545 0.39779 0.73464
 H603 H 0.20548 0.28579 0.69690
 H604 H 0.16727 0.32388 0.69541
 H605 H 0.16038 0.31347 0.78934
 H606 H 0.19836 0.27557 0.79074
 H607 H 0.12668 0.34812 0.71938
 H608 H 0.14277 0.36009 0.78300
 H609 H 0.10702 0.38811 0.80836
 H610 H 0.06945 0.42653 0.80874
 H611 H 0.06493 0.42873 0.71415
 H612 H 0.10273 0.39078 0.71366
 C613 C 0.22209 0.66624 0.23673
 C614 C 0.20148 0.64451 0.23944
 C615 C 0.17297 0.65314 0.24175
 C616 C 0.16544 0.68396 0.24172
 C617 C 0.18609 0.70566 0.23946
 C618 C 0.21459 0.69700 0.23695
 C619 C 0.15173 0.62963 0.24535
 C620 C 0.12529 0.63315 0.23458
 C621 C 0.10404 0.60965 0.23782
 C622 C 0.08371 0.60683 0.21541
 C623 C 0.06301 0.58522 0.21792
 C624 C 0.06181 0.56650 0.24328
 C625 C 0.08189 0.56962 0.26598
 C626 C 0.10295 0.59089 0.26321
 H627 H 0.24399 0.65903 0.23521
 H628 H 0.20779 0.62090 0.23968
 H629 H 0.14371 0.69134 0.24418
 H630 H 0.17984 0.72926 0.23977
 H631 H 0.15852 0.60831 0.25580
 H632 H 0.11937 0.65321 0.22145
 H633 H 0.08399 0.62123 0.19578
 H634 H 0.04766 0.58351 0.20018
 H635 H 0.08139 0.55555 0.28580
 H636 H 0.11797 0.59306 0.28117
 C637 C 0.76127 -0.16719 0.73008
 C638 C 0.76208 -0.14341 0.70926
 C639 C 0.76284 -0.14916 0.67929
 C640 C 0.76396 -0.17914 0.67051
 C641 C 0.76364 -0.20289 0.69133
 C642 C 0.76196 -0.19711 0.72125
 C643 C 0.76261 -0.12366 0.65764
 C644 C 0.74883 -0.12457 0.63177
 C645 C 0.74747 -0.09897 0.61022
 C646 C 0.72318 -0.09446 0.59234
 C647 C 0.72134 -0.07079 0.57139
 C648 C 0.74408 -0.05161 0.56743
 C649 C 0.76859 -0.05638 0.58505
 C650 C 0.77023 -0.07975 0.60639
 H651 H 0.76019 -0.16226 0.75308
 H652 H 0.76146 -0.12047 0.71649
 H653 H 0.76525 -0.18425 0.64758
 H654 H 0.76413 -0.22580 0.68404
 H655 H 0.77231 -0.10303 0.66399
 H656 H 0.73660 -0.14408 0.62689
 H657 H 0.70550 -0.10917 0.59476
 H658 H 0.70229 -0.06779 0.55795
 H659 H 0.78646 -0.04198 0.58239
 H660 H 0.78950 -0.08314 0.61940
 C661 C 0.26652 -0.18392 0.27242
 C662 C 0.26661 -0.16191 0.29350
 C663 C 0.25881 -0.16891 0.32231
 C664 C 0.25170 -0.19861 0.32993
 C665 C 0.25188 -0.22069 0.30894
 C666 C 0.25910 -0.21357 0.27988
 C667 C 0.25901 -0.14501 0.34402
 C668 C 0.24145 -0.14452 0.36657
 C669 C 0.24119 -0.12039 0.38804
 C670 C 0.21597 -0.11339 0.40204
 C671 C 0.21501 -0.09102 0.42273
 C672 C 0.23942 -0.07555 0.43021
 C673 C 0.26478 -0.08284 0.41647
 C674 C 0.26567 -0.10500 0.39556
 H675 H 0.27184 -0.17756 0.25017
 H676 H 0.27232 -0.13922 0.28716
 H677 H 0.24650 -0.20500 0.35220
 H678 H 0.24672 -0.24346 0.31558
 H679 H 0.27289 -0.12641 0.34021
 H680 H 0.22558 -0.16146 0.36856
 H681 H 0.19690 -0.12514 0.39681
 H682 H 0.19519 -0.08607 0.43309
 H683 H 0.28399 -0.07144 0.42189
 H684 H 0.28566 -0.11044 0.38581
 C685 C 0.76963 0.21809 0.30592
 C686 C 0.77104 0.19644 0.32886
 C687 C 0.74652 0.18759 0.34299
 C688 C 0.72048 0.20135 0.33407
 C689 C 0.71909 0.22312 0.31117
 C690 C 0.74365 0.23170 0.29681
 C691 C 0.74923 0.16464 0.36731
 C692 C 0.72827 0.14669 0.37534
 C693 C 0.73112 0.12315 0.39921
 C694 C 0.70653 0.11194 0.41155
 C695 C 0.70811 0.08947 0.43378
 C696 C 0.73440 0.07759 0.44409
 C697 C 0.75903 0.08857 0.43160
 C698 C 0.75746 0.11096 0.40931
 H699 H 0.78889 0.22389 0.29507
 H700 H 0.79136 0.18630 0.33538
 H701 H 0.70124 0.19592 0.34506
 H702 H 0.69885 0.23364 0.30505
 H703 H 0.76961 0.16228 0.37836
 H704 H 0.70795 0.14916 0.36412
 H705 H 0.68597 0.12069 0.40403
 H706 H 0.68871 0.08143 0.44287
 H707 H 0.77960 0.07963 0.43881
 H708 H 0.77694 0.11803 0.39982
 C709 C 0.27629 0.17779 0.68904
 C710 C 0.27686 0.15614 0.66764
 C711 C 0.25187 0.14317 0.65786
 C712 C 0.22624 0.15187 0.67045
 C713 C 0.22568 0.17349 0.69191
 C714 C 0.25068 0.18675 0.70138
 C715 C 0.25365 0.12014 0.63524
 C716 C 0.23201 0.11371 0.61728
 C717 C 0.23379 0.09081 0.59449
 C718 C 0.20868 0.07893 0.58361
 C719 C 0.20926 0.05742 0.56206
 C720 C 0.23502 0.04743 0.55074
 C721 C 0.26014 0.05961 0.56129
 C722 C 0.25957 0.08114 0.58281
 H723 H 0.29587 0.18780 0.69566
 H724 H 0.29690 0.14972 0.65844
 H725 H 0.20665 0.14164 0.66436
 H726 H 0.20572 0.17944 0.70149
 H727 H 0.27383 0.10858 0.63328
 H728 H 0.21188 0.12538 0.61930
 H729 H 0.18852 0.08616 0.59199
 H730 H 0.18951 0.04858 0.55431
 H731 H 0.28032 0.05264 0.55279
 H732 H 0.27935 0.09043 0.58970
   
