data_POSCAR
  _audit_creation_date              2014-09-24
  _audit_creation_method            'ToBaCCo'
  _symmetry_space_group_name_H-M    'P1'
  _symmetry_Int_Tables_number       1
  _symmetry_cell_setting            triclinic
  loop_
  _symmetry_equiv_pos_as_xyz
 x,y,z
_cell_length_a 45.2448
_cell_length_b 45.7738
_cell_length_c 43.2689
_cell_angle_alpha 89.656700
_cell_angle_beta 90.172300
_cell_angle_gamma 86.908300
loop_
  _atom_site_label
  _atom_site_type_symbol
  _atom_site_fract_x
  _atom_site_fract_y
  _atom_site_fract_z
C1 C 0.38468 0.33118 0.33341
 C2 C 0.36348 0.33383 0.35681
 C3 C 0.34312 0.35752 0.35702
 C4 C 0.34405 0.37905 0.33385
 C5 C 0.36514 0.37649 0.31062
 C6 C 0.38556 0.35227 0.31034
 C7 C 0.40491 0.30890 0.32607
 N8 N 0.41800 0.31601 0.29913
 C9 C 0.40653 0.34237 0.28919
 C10 C 0.35916 0.39913 0.28995
 N11 N 0.33517 0.41512 0.30026
 C12 C 0.32564 0.40312 0.32695
 C13 C 0.32325 0.35264 0.38039
 N14 N 0.33147 0.32668 0.39408
 C15 C 0.35592 0.31501 0.38001
 H16 H 0.40892 0.28854 0.33863
 H17 H 0.41213 0.35284 0.26765
 H18 H 0.37056 0.40303 0.26848
 H19 H 0.30616 0.41065 0.33968
 H20 H 0.30365 0.36615 0.38602
 H21 H 0.36640 0.29372 0.38524
 C22 C 0.35039 0.80933 -0.18692
 C23 C 0.32378 0.80895 -0.17077
 C24 C 0.30419 0.83327 -0.17085
 C25 C 0.31050 0.85787 -0.18855
 C26 C 0.33723 0.85853 -0.20435
 C27 C 0.35776 0.83428 -0.20284
 C28 C 0.37565 0.79173 -0.18327
 N29 N 0.39830 0.80533 -0.19610
 C30 C 0.38801 0.83144 -0.20806
 C31 C 0.33943 0.88680 -0.21503
 N32 N 0.31457 0.90257 -0.20663
 C33 C 0.29703 0.88554 -0.18994
 C34 C 0.28492 0.82991 -0.14652
 N35 N 0.29279 0.80421 -0.13224
 C36 C 0.31603 0.79110 -0.14697
 H37 H 0.37814 0.77243 -0.16867
 H38 H 0.40181 0.84837 -0.21643
 H39 H 0.35837 0.89566 -0.22628
 H40 H 0.27706 0.89318 -0.17807
 H41 H 0.26869 0.84611 -0.13797
 H42 H 0.32846 0.77175 -0.13862
 C43 C 0.85161 0.29765 -0.17454
 C44 C 0.82641 0.29977 -0.15592
 C45 C 0.80808 0.32494 -0.15637
 C46 C 0.81492 0.34842 -0.17528
 C47 C 0.84061 0.34696 -0.19294
 C48 C 0.85928 0.32128 -0.19250
 C49 C 0.87513 0.27750 -0.17439
 N50 N 0.89700 0.28816 -0.19155
 C51 C 0.88801 0.31507 -0.20249
 C52 C 0.84382 0.37471 -0.20478
 N53 N 0.82056 0.39206 -0.19492
 C54 C 0.80295 0.37658 -0.17672
 C55 C 0.78817 0.32287 -0.13257
 N56 N 0.79455 0.29731 -0.11764
 C57 C 0.81767 0.28282 -0.13166
 H58 H 0.87747 0.25808 -0.15997
 H59 H 0.90212 0.33001 -0.21409
 H60 H 0.86234 0.38207 -0.21796
 H61 H 0.78407 0.38560 -0.16396
 H62 H 0.77167 0.33942 -0.12534
 H63 H 0.82826 0.26235 -0.12374
 C64 C 0.85038 0.80234 0.33882
 C65 C 0.82410 0.80725 0.35535
 C66 C 0.80806 0.83387 0.35311
 C67 C 0.81828 0.85592 0.33377
 C68 C 0.84451 0.85093 0.31743
 C69 C 0.86075 0.82415 0.32015
 C70 C 0.87258 0.78081 0.34150
 N71 N 0.89601 0.78916 0.32500
 C72 C 0.88937 0.81563 0.31193
 C73 C 0.85089 0.87665 0.30316
 N74 N 0.82916 0.89680 0.31028
 C75 C 0.80911 0.88489 0.32906
 C76 C 0.78583 0.83353 0.37497
 N77 N 0.78847 0.80748 0.39007
 C78 C 0.81168 0.79129 0.37832
 H79 H 0.87289 0.76213 0.35701
 H80 H 0.90504 0.82889 0.30021
 H81 H 0.87025 0.88073 0.28948
 H82 H 0.79011 0.89657 0.33919
 H83 H 0.77004 0.85130 0.38059
 H84 H 0.81978 0.77006 0.38688
 C85 C 0.62136 0.67579 0.34024
 C86 C 0.64131 0.67137 0.36494
 C87 C 0.65858 0.64548 0.36710
 C88 C 0.65600 0.62372 0.34476
 C89 C 0.63616 0.62799 0.32049
 C90 C 0.61882 0.65419 0.31818
 C91 C 0.60308 0.69935 0.33120
 N92 N 0.58975 0.69227 0.30433
 C93 C 0.59909 0.66489 0.29608
 C94 C 0.64029 0.60457 0.30085
 N95 N 0.66218 0.58652 0.31268
 C96 C 0.67202 0.59786 0.33947
 C97 C 0.67768 0.64806 0.39164
 N98 N 0.67220 0.67473 0.40432
 C99 C 0.65010 0.68931 0.38834
 H100 H 0.59987 0.72004 0.34304
 H101 H 0.59217 0.65378 0.27548
 H102 H 0.62957 0.60173 0.27875
 H103 H 0.69046 0.58882 0.35310
 H104 H 0.69499 0.63229 0.39901
 H105 H 0.64201 0.71161 0.39256
 C106 C 0.64521 0.18427 -0.18365
 C107 C 0.67294 0.18264 -0.16931
 C108 C 0.69094 0.15730 -0.17101
 C109 C 0.68127 0.13327 -0.18707
 C110 C 0.65319 0.13426 -0.20042
 C111 C 0.63485 0.16005 -0.19856
 C112 C 0.62173 0.20407 -0.17969
 N113 N 0.59743 0.19267 -0.19172
 C114 C 0.60471 0.16566 -0.20304
 C115 C 0.64780 0.10597 -0.20886
 N116 N 0.67200 0.08875 -0.20110
 C117 C 0.69241 0.10482 -0.18760
 C118 C 0.71221 0.15863 -0.14830
 N119 N 0.70684 0.18376 -0.13267
 C120 C 0.68332 0.19888 -0.14550
 H121 H 0.62164 0.22385 -0.16606
 H122 H 0.58901 0.15030 -0.21098
 H123 H 0.62743 0.09828 -0.21822
 H124 H 0.71293 0.09614 -0.17732
 H125 H 0.72761 0.14101 -0.14094
 H126 H 0.67238 0.21832 -0.13576
 C127 C 0.13613 0.68736 -0.18116
 C128 C 0.15756 0.69394 -0.15932
 C129 C 0.18198 0.67487 -0.15464
 C130 C 0.18527 0.64900 -0.17159
 C131 C 0.16372 0.64190 -0.19269
 C132 C 0.13901 0.66138 -0.19765
 C133 C 0.10858 0.70023 -0.18750
 N134 N 0.09508 0.68279 -0.20756
 C135 C 0.11298 0.65890 -0.21377
 C136 C 0.16999 0.61312 -0.20118
 N137 N 0.19497 0.60341 -0.18609
 C138 C 0.20437 0.62491 -0.16788
 C139 C 0.19713 0.68469 -0.12956
 N140 N 0.18233 0.70917 -0.11913
 C141 C 0.15823 0.71524 -0.13703
 H142 H 0.09840 0.71961 -0.17687
 H143 H 0.10681 0.64040 -0.22738
 H144 H 0.15614 0.59965 -0.21495
 H145 H 0.22198 0.62223 -0.15092
 H146 H 0.21674 0.67428 -0.11901
 H147 H 0.14194 0.73305 -0.13329
 C148 C 0.15372 0.21172 0.31511
 C149 C 0.17877 0.20741 0.33385
 C150 C 0.19376 0.18022 0.33581
 C151 C 0.18396 0.15697 0.31795
 C152 C 0.15871 0.16131 0.29957
 C153 C 0.14306 0.18868 0.29873
 C154 C 0.13197 0.23375 0.31546
 N155 N 0.10805 0.22461 0.30035
 C156 C 0.11429 0.19702 0.29003
 C157 C 0.15220 0.13456 0.28782
 N158 N 0.17296 0.11445 0.29813
 C159 C 0.19222 0.12741 0.31701
 C160 C 0.21343 0.18149 0.36039
 N161 N 0.21003 0.20854 0.37303
 C162 C 0.18913 0.22449 0.35691
 H163 H 0.13192 0.25316 0.32967
 H164 H 0.09812 0.18285 0.28067
 H165 H 0.13314 0.12982 0.27389
 H166 H 0.20992 0.11610 0.32996
 H167 H 0.22729 0.16357 0.36982
 H168 H 0.18057 0.24626 0.36293
 C169 C 0.63997 0.31411 0.66731
 C170 C 0.66011 0.31349 0.64278
 C171 C 0.68198 0.33342 0.64177
 C172 C 0.68422 0.35401 0.66530
 C173 C 0.66447 0.35469 0.68982
 C174 C 0.64191 0.33455 0.69077
 C175 C 0.61666 0.29714 0.67395
 N176 N 0.60428 0.30673 0.70065
 C177 C 0.61934 0.32953 0.71141
 C178 C 0.67280 0.37669 0.70935
 N179 N 0.69685 0.38888 0.69687
 C180 C 0.70395 0.37532 0.67008
 C181 C 0.69916 0.32707 0.61630
 N182 N 0.68814 0.30369 0.60201
 C183 C 0.66432 0.29511 0.61784
 H184 H 0.60911 0.27919 0.66037
 H185 H 0.61429 0.34145 0.73244
 H186 H 0.66227 0.38327 0.73082
 H187 H 0.72223 0.38054 0.65531
 H188 H 0.71883 0.33784 0.60937
 H189 H 0.65178 0.27636 0.61223
 C190 C 0.64642 0.81577 1.17057
 C191 C 0.66998 0.81237 1.14951
 C192 C 0.69472 0.82884 1.15282
 C193 C 0.69625 0.84883 1.17723
 C194 C 0.67321 0.85164 1.19820
 C195 C 0.64830 0.83515 1.19488
 C196 C 0.61798 0.80612 1.17073
 N197 N 0.60323 0.81911 1.19466
 C198 C 0.62134 0.83694 1.20948
 C199 C 0.67922 0.87384 1.21805
 N200 N 0.70516 0.88466 1.20954
 C201 C 0.71602 0.86973 1.18464
 C202 C 0.71359 0.82167 1.12876
 N203 N 0.70091 0.80121 1.11125
 C204 C 0.67431 0.79541 1.12347
 H205 H 0.60808 0.79283 1.15330
 H206 H 0.61457 0.85204 1.22762
 H207 H 0.66520 0.88243 1.23647
 H208 H 0.73602 0.87441 1.17232
 H209 H 0.73501 0.83033 1.12454
 H210 H 0.65947 0.77982 1.11429
 C211 C 0.12925 0.33453 1.17307
 C212 C 0.15078 0.33305 1.14965
 C213 C 0.17345 0.35241 1.14968
 C214 C 0.17474 0.37361 1.17294
 C215 C 0.15362 0.37476 1.19606
 C216 C 0.13107 0.35510 1.19627
 C217 C 0.10289 0.32104 1.17734
 N218 N 0.08950 0.33288 1.20272
 C219 C 0.10634 0.35369 1.21435
 C220 C 0.15916 0.39793 1.21483
 N221 N 0.18306 0.41085 1.20366
 C222 C 0.19304 0.39633 1.17812
 C223 C 0.19108 0.34590 1.12447
 N224 N 0.17967 0.32311 1.10942
 C225 C 0.15507 0.31513 1.12435
 H226 H 0.09317 0.30567 1.16190
 H227 H 0.09977 0.36845 1.23287
 H228 H 0.14662 0.40513 1.23491
 H229 H 0.21181 0.40205 1.16431
 H230 H 0.21100 0.35646 1.11796
 H231 H 0.14180 0.29719 1.11771
 C232 C 0.14838 0.81962 0.67637
 C233 C 0.17199 0.81515 0.65575
 C234 C 0.19488 0.83395 0.65593
 C235 C 0.19460 0.85736 0.67652
 C236 C 0.17091 0.86267 0.69635
 C237 C 0.14759 0.84323 0.69654
 C238 C 0.12312 0.80473 0.68089
 N239 N 0.10713 0.81843 0.70350
 C240 C 0.12158 0.84200 0.71319
 C241 C 0.17477 0.88991 0.70946
 N242 N 0.20043 0.90016 0.69841
 C243 C 0.21251 0.88049 0.67835
 C244 C 0.21329 0.82643 0.63176
 N245 N 0.20207 0.80342 0.61704
 C246 C 0.17699 0.79607 0.63147
 H247 H 0.11710 0.78512 0.66909
 H248 H 0.11398 0.85676 0.73130
 H249 H 0.15889 0.90233 0.72352
 H250 H 0.23121 0.88427 0.66354
 H251 H 0.23277 0.83745 0.62473
 H252 H 0.16288 0.77907 0.62402
 C253 C 0.37135 0.67336 0.66777
 C254 C 0.35249 0.67210 0.64224
 C255 C 0.33113 0.65163 0.64142
 C256 C 0.32843 0.63213 0.66616
 C257 C 0.34716 0.63318 0.69157
 C258 C 0.36886 0.65408 0.69241
 C259 C 0.39304 0.69203 0.67493
 N260 N 0.40381 0.68457 0.70316
 C261 C 0.38940 0.66147 0.71434
 C262 C 0.33850 0.61226 0.71237
 N263 N 0.31515 0.59904 0.69983
 C264 C 0.30876 0.61095 0.67181
 C265 C 0.31430 0.65713 0.61527
 N266 N 0.32507 0.68042 0.60055
 C267 C 0.34843 0.68983 0.61666
 H268 H 0.40035 0.70987 0.66085
 H269 H 0.39334 0.65114 0.73664
 H270 H 0.34813 0.60730 0.73485
 H271 H 0.29098 0.60471 0.65684
 H272 H 0.29465 0.64628 0.60844
 H273 H 0.36031 0.70909 0.61120
 C274 C 0.34902 0.17124 1.17320
 C275 C 0.32603 0.18013 1.15274
 C276 C 0.29969 0.16621 1.15375
 C277 C 0.29593 0.14339 1.17459
 C278 C 0.31878 0.13363 1.19405
 C279 C 0.34557 0.14807 1.19368
 C280 C 0.37670 0.18139 1.17817
 N281 N 0.38993 0.16526 1.20128
 C282 C 0.37138 0.14473 1.21083
 C283 C 0.30997 0.10797 1.20769
 N284 N 0.28233 0.10304 1.19718
 C285 C 0.27368 0.12449 1.17710
 C286 C 0.28194 0.17729 1.13030
 N287 N 0.29676 0.19766 1.11507
 C288 C 0.32376 0.19999 1.12843
 H289 H 0.38603 0.19985 1.16674
 H290 H 0.37587 0.12940 1.22962
 H291 H 0.32355 0.09284 1.22172
 H292 H 0.25401 0.12448 1.16276
 H293 H 0.26015 0.17052 1.12412
 H294 H 0.34060 0.21415 1.12048
 C295 C 0.87081 0.65808 1.17832
 C296 C 0.85035 0.65939 1.15367
 C297 C 0.82846 0.63922 1.15218
 C298 C 0.82681 0.61753 1.17524
 C299 C 0.84734 0.61620 1.19909
 C300 C 0.86928 0.63639 1.20064
 C301 C 0.89330 0.67553 1.18723
 N302 N 0.90502 0.66451 1.21414
 C303 C 0.89067 0.64065 1.22248
 C304 C 0.84016 0.59424 1.21892
 N305 N 0.81575 0.58223 1.20784
 C306 C 0.80713 0.59606 1.18114
 C307 C 0.81112 0.64637 1.12668
 N308 N 0.82204 0.67006 1.11274
 C309 C 0.84590 0.67840 1.12895
 H310 H 0.90016 0.69498 1.17550
 H311 H 0.89496 0.62795 1.24336
 H312 H 0.85132 0.58790 1.24029
 H313 H 0.78783 0.59133 1.16760
 H314 H 0.79171 0.63553 1.11911
 H315 H 0.85860 0.69713 1.12355
 C316 C 0.85905 0.17830 0.68014
 C317 C 0.83818 0.17824 0.65598
 C318 C 0.81498 0.15959 0.65739
 C319 C 0.81231 0.14073 0.68279
 C320 C 0.83276 0.14100 0.70666
 C321 C 0.85612 0.15992 0.70541
 C322 C 0.88610 0.19073 0.68305
 N323 N 0.89911 0.18051 0.70955
 C324 C 0.88114 0.16164 0.72328
 C325 C 0.82635 0.11896 0.72695
 N326 N 0.80264 0.10550 0.71592
 C327 C 0.79368 0.11847 0.68895
 C328 C 0.79863 0.16364 0.63070
 N329 N 0.81122 0.18428 0.61341
 C330 C 0.83548 0.19338 0.62834
 H331 H 0.89671 0.20378 0.66578
 H332 H 0.88723 0.14788 0.74299
 H333 H 0.83867 0.11241 0.74756
 H334 H 0.77587 0.11153 0.67444
 H335 H 0.77876 0.15285 0.62452
 H336 H 0.84963 0.21004 0.62003
 C337 C 0.32899 0.37780 0.64791
 C338 C 0.32985 0.35579 0.62543
 C339 C 0.35282 0.33446 0.62548
 C340 C 0.37514 0.33484 0.64796
 C341 C 0.37424 0.35646 0.67029
 C342 C 0.35104 0.37806 0.67024
 C343 C 0.30820 0.39987 0.65494
 N344 N 0.31723 0.41324 0.68086
 C345 C 0.34330 0.40018 0.69055
 C346 C 0.39699 0.34976 0.69082
 N347 N 0.41145 0.32473 0.68121
 C348 C 0.39843 0.31538 0.65516
 C349 C 0.34699 0.31482 0.60257
 N350 N 0.32118 0.32382 0.58882
 C351 C 0.31035 0.34877 0.60245
 H352 H 0.28752 0.40504 0.64297
 H353 H 0.35508 0.40563 0.71136
 H354 H 0.40171 0.36130 0.71188
 H355 H 0.40450 0.29515 0.64338
 H356 H 0.36008 0.29513 0.59677
 H357 H 0.28964 0.36046 0.59657
 C358 C 0.31059 0.88020 0.14636
 C359 C 0.31464 0.86095 0.12146
 C360 C 0.34002 0.84279 0.11991
 C361 C 0.36139 0.84337 0.14321
 C362 C 0.35748 0.86225 0.16800
 C363 C 0.33187 0.88102 0.16953
 C364 C 0.28748 0.89929 0.15440
 N365 N 0.29429 0.91174 0.18156
 C366 C 0.32125 0.90087 0.19132
 C367 C 0.38062 0.85592 0.18828
 N368 N 0.39793 0.83377 0.17600
 C369 C 0.38651 0.82596 0.14863
 C370 C 0.33720 0.82470 0.09501
 N371 N 0.31072 0.83145 0.08157
 C372 C 0.29653 0.85354 0.09734
 H373 H 0.26710 0.90370 0.14163
 H374 H 0.33200 0.90664 0.21264
 H375 H 0.38387 0.86566 0.21068
 H376 H 0.39520 0.80809 0.13447
 H377 H 0.35246 0.80692 0.08810
 H378 H 0.27432 0.86243 0.09258
 C379 C 0.80660 0.36006 0.14415
 C380 C 0.80657 0.33717 0.12297
 C381 C 0.82911 0.31535 0.12332
 C382 C 0.85221 0.31647 0.14492
 C383 C 0.85211 0.33925 0.16594
 C384 C 0.82920 0.36107 0.16562
 C385 C 0.78613 0.38248 0.15061
 N386 N 0.79591 0.39682 0.17551
 C387 C 0.82219 0.38411 0.18500
 C388 C 0.87585 0.33407 0.18532
 N389 N 0.89038 0.30883 0.17645
 C390 C 0.87631 0.29775 0.15184
 C391 C 0.82207 0.29506 0.10146
 N392 N 0.79601 0.30447 0.08827
 C393 C 0.78634 0.33002 0.10104
 H394 H 0.76510 0.38717 0.13913
 H395 H 0.83449 0.39032 0.20520
 H396 H 0.88181 0.34734 0.20477
 H397 H 0.88269 0.27737 0.14050
 H398 H 0.83455 0.27493 0.09593
 H399 H 0.76583 0.34207 0.09517
 C400 C 0.82209 0.87763 0.63813
 C401 C 0.81929 0.85492 0.61705
 C402 C 0.83973 0.83136 0.61697
 C403 C 0.86359 0.83066 0.63785
 C404 C 0.86623 0.85303 0.65918
 C405 C 0.84504 0.87667 0.65952
 C406 C 0.80317 0.90088 0.64535
 N407 N 0.81368 0.91391 0.67069
 C408 C 0.83928 0.89952 0.67988
 C409 C 0.89017 0.84522 0.67797
 N410 N 0.90189 0.81902 0.66808
 C411 C 0.88588 0.80986 0.64391
 C412 C 0.82943 0.81108 0.59654
 N413 N 0.80335 0.82219 0.58460
 C414 C 0.79699 0.84888 0.59679
 H415 H 0.78201 0.90657 0.63454
 H416 H 0.85148 0.90402 0.70072
 H417 H 0.89798 0.85720 0.69760
 H418 H 0.88976 0.78917 0.63222
 H419 H 0.83938 0.78955 0.59177
 H420 H 0.77692 0.86220 0.59233
 C421 C 0.66856 0.61729 0.65571
 C422 C 0.66923 0.64028 0.63430
 C423 C 0.64896 0.66393 0.63629
 C424 C 0.62757 0.66459 0.65969
 C425 C 0.62704 0.64193 0.68118
 C426 C 0.64784 0.61812 0.67928
 C427 C 0.68747 0.59331 0.66071
 N428 N 0.67892 0.57974 0.68674
 C429 C 0.65475 0.59451 0.69856
 C430 C 0.60525 0.64947 0.70234
 N431 N 0.59274 0.67590 0.69380
 C432 C 0.60611 0.68541 0.66802
 C433 C 0.65649 0.68406 0.61415
 N434 N 0.68078 0.67282 0.59913
 C435 C 0.68874 0.64620 0.61108
 H436 H 0.70712 0.58714 0.64756
 H437 H 0.64416 0.58944 0.72019
 H438 H 0.59939 0.63710 0.72261
 H439 H 0.60104 0.70626 0.65672
 H440 H 0.64577 0.70543 0.60992
 H441 H 0.70786 0.63266 0.60402
 C442 C 0.67060 0.09931 0.13337
 C443 C 0.66952 0.12017 0.10967
 C444 C 0.64811 0.14289 0.10986
 C445 C 0.62707 0.14453 0.13355
 C446 C 0.62810 0.12388 0.15731
 C447 C 0.65040 0.10118 0.15744
 C448 C 0.69188 0.07803 0.14079
 N449 N 0.68543 0.06699 0.16877
 C450 C 0.66015 0.08075 0.17949
 C451 C 0.60653 0.13269 0.17834
 N452 N 0.59275 0.15782 0.16750
 C453 C 0.60518 0.16538 0.14048
 C454 C 0.65543 0.16242 0.08708
 N455 N 0.68067 0.15170 0.07343
 C456 C 0.68940 0.12595 0.08680
 H457 H 0.71190 0.07249 0.12796
 H458 H 0.65090 0.07765 0.20224
 H459 H 0.60184 0.12221 0.20014
 H460 H 0.59919 0.18503 0.12734
 H461 H 0.64453 0.18361 0.08233
 H462 H 0.70993 0.11363 0.08188
 C463 C 0.17569 0.64572 0.14137
 C464 C 0.17208 0.66902 0.12020
 C465 C 0.14758 0.68844 0.12223
 C466 C 0.12671 0.68520 0.14548
 C467 C 0.13028 0.66244 0.16662
 C468 C 0.15485 0.64245 0.16445
 C469 C 0.19801 0.62439 0.14602
 N470 N 0.19102 0.60843 0.17115
 C471 C 0.16483 0.61922 0.18275
 C472 C 0.10817 0.66653 0.18825
 N473 N 0.09169 0.69117 0.18039
 C474 C 0.10267 0.70274 0.15437
 C475 C 0.15044 0.70989 0.10035
 N476 N 0.17610 0.70403 0.08529
 C477 C 0.18972 0.67919 0.09699
 H478 H 0.21812 0.62113 0.13269
 H479 H 0.15425 0.61125 0.20332
 H480 H 0.10516 0.65347 0.20883
 H481 H 0.09463 0.72311 0.14370
 H482 H 0.13558 0.72888 0.09632
 H483 H 0.21103 0.66979 0.08975
 C484 C 0.18219 0.13934 0.63423
 C485 C 0.18223 0.16227 0.61261
 C486 C 0.15990 0.18430 0.61291
 C487 C 0.13717 0.18352 0.63496
 C488 C 0.13728 0.16073 0.65628
 C489 C 0.15985 0.13856 0.65597
 C490 C 0.20234 0.11656 0.64091
 N491 N 0.19264 0.10221 0.66603
 C492 C 0.16672 0.11532 0.67562
 C493 C 0.11424 0.16646 0.67625
 N494 N 0.10012 0.19210 0.66756
 C495 C 0.11377 0.20284 0.64242
 C496 C 0.16692 0.20466 0.59082
 N497 N 0.19280 0.19524 0.57741
 C498 C 0.20238 0.16952 0.59047
 H499 H 0.22311 0.11150 0.62925
 H500 H 0.15458 0.10922 0.69597
 H501 H 0.10873 0.15348 0.69621
 H502 H 0.10779 0.22354 0.63123
 H503 H 0.15474 0.22511 0.58561
 H504 H 0.22295 0.15755 0.58490
 C505 C 0.33208 0.64289 0.33379
 C506 C 0.33130 0.66344 0.35770
 C507 C 0.35144 0.68522 0.35809
 C508 C 0.37255 0.68673 0.33460
 C509 C 0.37331 0.66643 0.31091
 C510 C 0.35297 0.64435 0.31052
 C511 C 0.31437 0.62029 0.32680
 N512 N 0.32419 0.60818 0.29994
 C513 C 0.34766 0.62257 0.28970
 C514 C 0.39496 0.67411 0.29055
 N515 N 0.40713 0.69838 0.30147
 C516 C 0.39374 0.70644 0.32833
 C517 C 0.34464 0.70288 0.38297
 N518 N 0.32094 0.69218 0.39746
 C519 C 0.31251 0.66818 0.38238
 H520 H 0.29547 0.61357 0.33982
 H521 H 0.35945 0.61790 0.26841
 H522 H 0.40095 0.66336 0.26907
 H523 H 0.39853 0.72550 0.34176
 H524 H 0.35559 0.72235 0.38959
 H525 H 0.29376 0.65565 0.38853
 C526 C 0.31727 0.14316 0.83994
 C527 C 0.31590 0.16404 0.86378
 C528 C 0.33650 0.18548 0.86476
 C529 C 0.35850 0.18649 0.84204
 C530 C 0.35981 0.16595 0.81867
 C531 C 0.33919 0.14425 0.81765
 C532 C 0.30007 0.12011 0.83228
 N533 N 0.31139 0.10768 0.80610
 C534 C 0.33511 0.12217 0.79698
 C535 C 0.38286 0.17238 0.79952
 N536 N 0.39538 0.19629 0.81078
 C537 C 0.38083 0.20525 0.83674
 C538 C 0.32956 0.20322 0.88955
 N539 N 0.30532 0.19310 0.90357
 C540 C 0.29666 0.16928 0.88815
 H541 H 0.28076 0.11321 0.84446
 H542 H 0.34816 0.11716 0.77657
 H543 H 0.38991 0.16075 0.77889
 H544 H 0.38600 0.22397 0.85052
 H545 H 0.34085 0.22241 0.89645
 H546 H 0.27753 0.15712 0.89388
 C547 C 0.82441 0.63222 0.83164
 C548 C 0.82650 0.65202 0.85610
 C549 C 0.84632 0.67409 0.85446
 C550 C 0.86421 0.67664 0.82810
 C551 C 0.86199 0.65703 0.80396
 C552 C 0.84208 0.63471 0.80577
 C553 C 0.80721 0.60869 0.82696
 N554 N 0.81427 0.59708 0.79895
 C555 C 0.83544 0.61270 0.78573
 C556 C 0.88172 0.66443 0.78148
 N557 N 0.89580 0.68795 0.79139
 C558 C 0.88545 0.69577 0.81979
 C559 C 0.84286 0.69043 0.88109
 N560 N 0.82146 0.67867 0.89847
 C561 C 0.81128 0.65532 0.88352
 H562 H 0.79095 0.60058 0.84269
 H563 H 0.84524 0.60827 0.76334
 H564 H 0.88582 0.65343 0.75972
 H565 H 0.89298 0.71371 0.83338
 H566 H 0.85426 0.70986 0.88689
 H567 H 0.79358 0.64229 0.89162
 C568 C 0.83460 0.12921 0.33615
 C569 C 0.83405 0.14832 0.36135
 C570 C 0.85485 0.16937 0.36348
 C571 C 0.87648 0.17145 0.34056
 C572 C 0.87714 0.15247 0.31570
 C573 C 0.85598 0.13129 0.31342
 C574 C 0.81641 0.10755 0.32745
 N575 N 0.82638 0.09667 0.30009
 C576 C 0.85041 0.11088 0.29119
 C577 C 0.89917 0.16078 0.29607
 N578 N 0.91156 0.18429 0.30852
 C579 C 0.89796 0.19111 0.33564
 C580 C 0.84770 0.18628 0.38884
 N581 N 0.82317 0.17582 0.40198
 C582 C 0.81457 0.15269 0.38553
 H583 H 0.79740 0.10032 0.33993
 H584 H 0.86279 0.10665 0.27017
 H585 H 0.90487 0.15138 0.27384
 H586 H 0.90258 0.20959 0.35003
 H587 H 0.85872 0.20541 0.39641
 H588 H 0.79493 0.14087 0.39004
 C589 C 0.66920 0.34862 0.33824
 C590 C 0.67220 0.32591 0.36008
 C591 C 0.65401 0.30248 0.35862
 C592 C 0.63261 0.30147 0.33506
 C593 C 0.62981 0.32395 0.31341
 C594 C 0.64811 0.34766 0.31505
 C595 C 0.68472 0.37331 0.33334
 N596 N 0.67333 0.38715 0.30780
 C597 C 0.65105 0.37181 0.29638
 C598 C 0.60820 0.31697 0.29272
 N599 N 0.59784 0.29100 0.30136
 C600 C 0.61243 0.28112 0.32717
 C601 C 0.66267 0.28337 0.38213
 N602 N 0.68551 0.29476 0.39742
 C603 C 0.69163 0.32069 0.38426
 H604 H 0.70333 0.38021 0.34671
 H605 H 0.63860 0.37738 0.27556
 H606 H 0.60062 0.32968 0.27278
 H607 H 0.60883 0.26072 0.33901
 H608 H 0.65354 0.26254 0.38737
 H609 H 0.70912 0.33441 0.39143
 C610 C 0.68730 0.85110 0.84150
 C611 C 0.68853 0.83083 0.86620
 C612 C 0.66705 0.81033 0.86857
 C613 C 0.64425 0.80982 0.84655
 C614 C 0.64322 0.82971 0.82234
 C615 C 0.66476 0.85025 0.81975
 C616 C 0.70460 0.87377 0.83284
 N617 N 0.69276 0.88605 0.80657
 C618 C 0.66861 0.87190 0.79835
 C619 C 0.61920 0.82419 0.80420
 N620 N 0.60573 0.80145 0.81692
 C621 C 0.62067 0.79228 0.84278
 C622 C 0.67398 0.79289 0.89382
 N623 N 0.69899 0.80220 0.90680
 C624 C 0.70827 0.82536 0.89033
 H625 H 0.72396 0.88092 0.84477
 H626 H 0.65467 0.87737 0.77854
 H627 H 0.61214 0.83559 0.78324
 H628 H 0.61497 0.77421 0.85745
 H629 H 0.66219 0.77433 0.90179
 H630 H 0.72813 0.83676 0.89502
 C631 C 0.16995 0.37000 0.83926
 C632 C 0.16920 0.34939 0.86317
 C633 C 0.14842 0.32834 0.86272
 C634 C 0.12807 0.32778 0.83825
 C635 C 0.12863 0.34828 0.81448
 C636 C 0.14987 0.36964 0.81498
 C637 C 0.18889 0.39171 0.83339
 N638 N 0.18081 0.40462 0.80618
 C639 C 0.15703 0.39152 0.79457
 C640 C 0.10724 0.34132 0.79324
 N641 N 0.09415 0.31725 0.80376
 C642 C 0.10664 0.30877 0.83115
 C643 C 0.15416 0.31010 0.88777
 N644 N 0.17782 0.31983 0.90307
 C645 C 0.18729 0.34380 0.88835
 H646 H 0.20743 0.39743 0.84758
 H647 H 0.14625 0.39711 0.77281
 H648 H 0.10217 0.35231 0.77150
 H649 H 0.10100 0.28981 0.84452
 H650 H 0.14275 0.29069 0.89382
 H651 H 0.20645 0.35558 0.89485
 C652 C 0.16449 0.87083 0.35539
 C653 C 0.16879 0.84842 0.37754
 C654 C 0.15025 0.82519 0.37786
 C655 C 0.12745 0.82385 0.35605
 C656 C 0.12318 0.84597 0.33429
 C657 C 0.14169 0.86954 0.33401
 C658 C 0.18028 0.89490 0.34781
 N659 N 0.16728 0.90783 0.32254
 C660 C 0.14387 0.89263 0.31390
 C661 C 0.10082 0.83822 0.31488
 N662 N 0.09168 0.81200 0.32440
 C663 C 0.10765 0.80282 0.34953
 C664 C 0.16045 0.80585 0.40032
 N665 N 0.18460 0.81673 0.41347
 C666 C 0.19016 0.84266 0.39988
 H667 H 0.20027 0.90167 0.35886
 H668 H 0.13029 0.89735 0.29365
 H669 H 0.09232 0.85027 0.29487
 H670 H 0.10549 0.78226 0.36158
 H671 H 0.15168 0.78495 0.40602
 H672 H 0.20872 0.85575 0.40520
 O673 O 0.22428 1.02330 0.21093
 O674 O 0.19732 0.97052 0.26619
 O675 O 0.18320 1.02494 0.25452
 O676 O 0.23620 0.96964 0.22317
 O677 O 0.27005 0.98239 0.25669
 O678 O 0.21658 1.03937 0.28764
 O679 O 0.23027 0.98351 0.30052
 O680 O 0.25763 1.03747 0.24426
 Cu681 Cu 0.20666 0.99622 0.23542
 Cu682 Cu 0.24684 1.01219 0.27586
 C683 C 0.24606 1.03844 0.21745
 C684 C 0.20946 0.96751 0.29256
 C685 C 0.19051 1.04129 0.27648
 C686 C 0.26216 0.96660 0.23435
 O687 O 0.26714 0.53397 0.73674
 O688 O 0.22478 0.47368 0.76749
 O689 O 0.22304 0.53015 0.77556
 O690 O 0.26807 0.47731 0.72860
 O691 O 0.30105 0.47275 0.76632
 O692 O 0.25425 0.52201 0.81444
 O693 O 0.25809 0.46687 0.80468
 O694 O 0.29839 0.52919 0.77598
 Cu695 Cu 0.24261 0.50458 0.74814
 Cu696 Cu 0.28133 0.49737 0.79410
 C697 C 0.28989 0.54187 0.75112
 C698 C 0.23449 0.45992 0.79136
 C699 C 0.23059 0.53410 0.80346
 C700 C 0.29212 0.46593 0.73966
 O701 O 0.79135 0.02948 0.25144
 O702 O 0.76782 -0.03755 0.21380
 O703 O 0.74862 0.01742 0.21392
 O704 O 0.80989 -0.02404 0.25203
 O705 O 0.78033 -0.03439 0.29071
 O706 O 0.71944 0.01066 0.25386
 O707 O 0.73736 -0.04458 0.25262
 O708 O 0.76291 0.02064 0.29150
 Cu709 Cu 0.78214 -0.00292 0.22859
 Cu710 Cu 0.74699 -0.01283 0.27610
 C711 C 0.78176 0.03594 0.27825
 C712 C 0.74837 -0.05234 0.22677
 C713 C 0.72384 0.02163 0.22738
 C714 C 0.80563 -0.03605 0.27795
 O715 O 0.76685 0.46571 0.80102
 O716 O 0.70652 0.51411 0.76691
 O717 O 0.71548 0.45671 0.77337
 O718 O 0.75109 0.52072 0.80327
 O719 O 0.77697 0.52444 0.76029
 O720 O 0.74135 0.45903 0.73040
 O721 O 0.73369 0.51717 0.72479
 O722 O 0.79303 0.47079 0.75846
 Cu723 Cu 0.73227 0.48854 0.79017
 Cu724 Cu 0.76317 0.49201 0.73899
 C725 C 0.79074 0.46126 0.78574
 C726 C 0.71068 0.52464 0.74003
 C727 C 0.72192 0.44709 0.74679
 C728 C 0.76981 0.53360 0.78719
 O729 O 0.21009 0.53849 0.24767
 O730 O 0.25637 0.48328 0.28968
 O731 O 0.25212 0.54007 0.28873
 O732 O 0.21747 0.48136 0.24612
 O733 O 0.25111 0.48372 0.20942
 O734 O 0.28648 0.54153 0.25267
 O735 O 0.29041 0.48413 0.25322
 O736 O 0.24419 0.54117 0.21150
 Cu737 Cu 0.23053 0.51071 0.27156
 Cu738 Cu 0.27145 0.51292 0.22803
 C739 C 0.21923 0.54956 0.22282
 C740 C 0.28090 0.47391 0.27854
 C741 C 0.27531 0.55071 0.27793
 C742 C 0.22870 0.47220 0.22081
 O743 O 0.72053 0.95748 0.75826
 O744 O 0.74192 1.02558 0.71932
 O745 O 0.75724 0.96851 0.71573
 O746 O 0.69687 1.00849 0.75414
 O747 O 0.72697 1.01930 0.79226
 O748 O 0.78848 0.97638 0.75372
 O749 O 0.77265 1.03276 0.75786
 O750 O 0.75062 0.96645 0.79699
 Cu751 Cu 0.72672 0.99005 0.73270
 Cu752 Cu 0.76271 0.99995 0.77880
 C753 C 0.73188 0.95067 0.78455
 C754 C 0.76133 1.04064 0.73214
 C755 C 0.78259 0.96452 0.72801
 C756 C 0.70122 1.02015 0.77998
 O757 O 0.74035 0.51747 0.22059
 O758 O 0.70608 0.45903 0.26445
 O759 O 0.70314 0.51668 0.26618
 O760 O 0.74657 0.46075 0.22207
 O761 O 0.78220 0.46127 0.25711
 O762 O 0.73872 0.51623 0.30129
 O763 O 0.74188 0.45906 0.29927
 O764 O 0.77596 0.51781 0.25563
 Cu765 Cu 0.72028 0.48840 0.23996
 Cu766 Cu 0.76315 0.48872 0.28191
 C767 C 0.76411 0.52747 0.23060
 C768 C 0.71840 0.44869 0.28886
 C769 C 0.71392 0.52622 0.29111
 C770 C 0.77186 0.45161 0.23219
 O771 O 0.25041 -0.01640 0.70619
 O772 O 0.28056 0.04061 0.75489
 O773 O 0.29423 -0.01506 0.74798
 O774 O 0.24417 0.03907 0.70960
 O775 O 0.20931 0.03145 0.74395
 O776 O 0.26090 -0.02228 0.78401
 O777 O 0.24627 0.03310 0.78987
 O778 O 0.21769 -0.02612 0.74203
 Cu779 Cu 0.27102 0.01218 0.72635
 Cu780 Cu 0.23013 0.00282 0.76833
 C781 C 0.22826 -0.03009 0.71518
 C782 C 0.26800 0.04707 0.78043
 C783 C 0.28686 -0.02676 0.77316
 C784 C 0.21844 0.04482 0.72019
 O785 O 0.25397 0.30941 0.97551
 O786 O 0.29569 0.26881 1.03704
 O787 O 0.29485 0.26721 0.97638
 O788 O 0.25410 0.31003 1.03595
 O789 O 0.21965 0.27762 1.03663
 O790 O 0.26069 0.23452 0.97687
 O791 O 0.26106 0.23660 1.03780
 O792 O 0.21984 0.27666 0.97616
 Cu793 Cu 0.27809 0.29210 1.00604
 Cu794 Cu 0.23697 0.25299 1.00690
 C795 C 0.23005 0.29985 0.96522
 C796 C 0.28490 0.24615 1.04846
 C797 C 0.28457 0.24388 0.96613
 C798 C 0.23020 0.30093 1.04675
 O799 O 0.26727 0.80440 0.47794
 O800 O 0.31310 0.75924 0.53252
 O801 O 0.30975 0.76400 0.47254
 O802 O 0.27112 0.79933 0.53807
 O803 O 0.23814 0.76544 0.53775
 O804 O 0.27683 0.73006 0.47182
 O805 O 0.27994 0.72550 0.53173
 O806 O 0.23444 0.77038 0.47755
 Cu807 Cu 0.29361 0.78520 0.50523
 Cu808 Cu 0.25395 0.74447 0.50448
 C809 C 0.24309 0.79489 0.46836
 C810 C 0.30399 0.73496 0.54179
 C811 C 0.29991 0.74102 0.46106
 C812 C 0.24853 0.78813 0.54947
 O813 O 0.27388 0.77636 -0.04631
 O814 O 0.24948 0.73171 0.01803
 O815 O 0.24791 0.72926 -0.04116
 O816 O 0.27756 0.78021 0.01441
 O817 O 0.23497 0.80614 0.01511
 O818 O 0.20596 0.75642 -0.04287
 O819 O 0.20670 0.75739 0.01741
 O820 O 0.23232 0.80404 -0.04562
 Cu821 Cu 0.26678 0.75215 -0.01327
 Cu822 Cu 0.21566 0.78375 -0.01346
 C823 C 0.25688 0.79653 -0.05801
 C824 C 0.22342 0.73645 0.02804
 C825 C 0.22233 0.73489 -0.05240
 C826 C 0.26139 0.80156 0.02452
 O827 O 0.28522 0.28187 0.45905
 O828 O 0.24144 0.23991 0.51381
 O829 O 0.24793 0.24123 0.45339
 O830 O 0.28146 0.27893 0.51892
 O831 O 0.24555 0.31357 0.51722
 O832 O 0.21251 0.27637 0.45158
 O833 O 0.20568 0.27468 0.51179
 O834 O 0.24961 0.31687 0.45761
 Cu835 Cu 0.26754 0.25689 0.48667
 Cu836 Cu 0.22460 0.29868 0.48449
 C837 C 0.27474 0.30647 0.44893
 C838 C 0.21610 0.25030 0.52222
 C839 C 0.22482 0.25302 0.44084
 C840 C 0.26947 0.30277 0.52891
 O841 O 0.77617 0.78950 0.97884
 O842 O 0.81676 0.74503 1.03870
 O843 O 0.81689 0.74745 0.97762
 O844 O 0.77677 0.78794 1.03938
 O845 O 0.74181 0.75610 1.03861
 O846 O 0.78217 0.71537 0.97661
 O847 O 0.78186 0.71314 1.03797
 O848 O 0.74150 0.75734 0.97811
 Cu849 Cu 0.80018 0.77055 1.00877
 Cu850 Cu 0.75849 0.73217 1.00778
 C851 C 0.75208 0.78072 0.96802
 C852 C 0.80583 0.72194 1.04906
 C853 C 0.80595 0.72507 0.96595
 C854 C 0.75266 0.77889 1.04966
 O855 O 0.73053 0.25797 0.53077
 O856 O 0.77517 0.21607 0.47303
 O857 O 0.77295 0.21798 0.53382
 O858 O 0.73068 0.25446 0.47045
 O859 O 0.76262 0.28928 0.46926
 O860 O 0.80510 0.25262 0.53290
 O861 O 0.80718 0.25085 0.47241
 O862 O 0.76270 0.29260 0.52930
 Cu863 Cu 0.74919 0.23304 0.50204
 Cu864 Cu 0.78766 0.27475 0.50072
 C865 C 0.73943 0.28229 0.54012
 C866 C 0.79865 0.22665 0.46270
 C867 C 0.79569 0.22943 0.54470
 C868 C 0.73946 0.27808 0.45905
 O869 O 0.78382 0.23064 -0.03859
 O870 O 0.73442 0.19418 0.01438
 O871 O 0.73996 0.20018 -0.04595
 O872 O 0.78006 0.22769 0.02092
 O873 O 0.74958 0.26703 0.02032
 O874 O 0.70775 0.23824 -0.04376
 O875 O 0.70411 0.23361 0.01583
 O876 O 0.75198 0.26907 -0.03999
 Cu877 Cu 0.76242 0.20888 -0.01160
 Cu878 Cu 0.72529 0.25605 -0.01116
 C879 C 0.77527 0.25533 -0.04973
 C880 C 0.71085 0.20744 0.02393
 C881 C 0.71800 0.21533 -0.05702
 C882 C 0.77208 0.25273 0.03123
 O883 O 0.77021 0.74048 0.46696
 O884 O 0.72875 0.71033 0.53119
 O885 O 0.72488 0.70906 0.47130
 O886 O 0.77504 0.74235 0.52676
 O887 O 0.74566 0.78247 0.52684
 O888 O 0.69528 0.74906 0.47187
 O889 O 0.69918 0.75030 0.53208
 O890 O 0.74070 0.78057 0.46675
 Cu891 Cu 0.75268 0.72155 0.49925
 Cu892 Cu 0.71724 0.76967 0.49975
 C893 C 0.76233 0.76526 0.45556
 C894 C 0.70665 0.72490 0.54231
 C895 C 0.70184 0.72357 0.46180
 C896 C 0.76912 0.76832 0.53580
 O897 O 0.96389 0.26821 0.30097
 O898 O 1.00982 0.31868 0.25897
 O899 O 0.95548 0.30692 0.25857
 O900 O 1.01918 0.27936 0.30390
 O901 O 1.03063 0.24571 0.26892
 O902 O 0.96557 0.27353 0.22285
 O903 O 1.02136 0.28480 0.22423
 O904 O 0.97405 0.23427 0.26589
 Cu905 Cu 0.98662 0.29666 0.28432
 Cu906 Cu 0.99927 0.25604 0.24205
 C907 C 0.96044 0.24297 0.29011
 C908 C 1.02239 0.31083 0.23397
 C909 C 0.94954 0.29501 0.23315
 C910 C 1.03535 0.25771 0.29476
 O911 O 0.53077 0.30068 0.77596
 O912 O 0.46455 0.26789 0.80766
 O913 O 0.52029 0.25717 0.81446
 O914 O 0.47308 0.30773 0.76668
 O915 O 0.47411 0.27474 0.72959
 O916 O 0.52436 0.22595 0.77575
 O917 O 0.46717 0.23438 0.77105
 O918 O 0.53166 0.26919 0.73749
 Cu919 Cu 0.49741 0.28682 0.79479
 Cu920 Cu 0.49959 0.24796 0.74958
 C921 C 0.54237 0.29073 0.75127
 C922 C 0.45488 0.24534 0.79509
 C923 C 0.52998 0.23288 0.80339
 C924 C 0.46472 0.29925 0.74033
 O925 O -0.02912 0.26477 0.76801
 O926 O 0.02959 0.23138 0.71761
 O927 O -0.02705 0.22365 0.72484
 O928 O 0.02787 0.27083 0.76073
 O929 O 0.03813 0.23626 0.79562
 O930 O -0.01594 0.18991 0.76031
 O931 O 0.03955 0.19744 0.75325
 O932 O -0.01727 0.23123 0.80348
 Cu933 Cu -0.00107 0.25108 0.73924
 Cu934 Cu 0.01162 0.21021 0.78172
 C935 C -0.03212 0.25414 0.79493
 C936 C 0.04466 0.20883 0.72719
 C937 C -0.02984 0.19822 0.73608
 C938 C 0.04249 0.26119 0.78419
 O939 O 0.47709 0.26125 0.25097
 O940 O 0.52988 0.21086 0.21062
 O941 O 0.47211 0.22126 0.20947
 O942 O 0.53376 0.25170 0.25193
 O943 O 0.52997 0.21831 0.28857
 O944 O 0.46711 0.18823 0.24623
 O945 O 0.52523 0.17748 0.24708
 O946 O 0.47299 0.22816 0.28789
 Cu947 Cu 0.50375 0.23935 0.22684
 Cu948 Cu 0.49843 0.19951 0.27097
 C949 C 0.46625 0.25325 0.27650
 C950 C 0.53687 0.18582 0.22214
 C951 C 0.45852 0.20026 0.22094
 C952 C 0.54211 0.24053 0.27766
 O953 O 0.97009 0.75389 0.78306
 O954 O 1.03359 0.78539 0.74514
 O955 O 0.97501 0.79549 0.74291
 O956 O 1.02516 0.73659 0.77720
 O957 O 1.01531 0.70837 0.73761
 O958 O 0.96837 0.76643 0.70324
 O959 O 1.02807 0.75655 0.70515
 O960 O 0.96269 0.72594 0.74256
 Cu961 Cu 1.00209 0.77081 0.76571
 Cu962 Cu 0.99403 0.73742 0.71743
 C963 C 0.95575 0.73455 0.76972
 C964 C 1.04200 0.77616 0.71893
 C965 C 0.96222 0.79006 0.71745
 C966 C 1.02722 0.71185 0.76364
 O967 O 0.47164 0.77430 0.29226
 O968 O 0.52396 0.81586 0.24606
 O969 O 0.46738 0.81887 0.25497
 O970 O 0.52955 0.77698 0.29162
 O971 O 0.52780 0.74331 0.25548
 O972 O 0.46663 0.78627 0.21753
 O973 O 0.52231 0.78285 0.20908
 O974 O 0.46920 0.74271 0.25399
 Cu975 Cu 0.49862 0.79961 0.27506
 Cu976 Cu 0.49734 0.76023 0.23102
 C977 C 0.46104 0.75167 0.28047
 C978 C 0.53130 0.80668 0.21928
 C979 C 0.45642 0.80982 0.23007
 C980 C 0.53874 0.75273 0.28038
 O981 O -0.02953 0.76683 0.28713
 O982 O 0.02662 0.73223 0.23468
 O983 O -0.03116 0.73780 0.23513
 O984 O 0.02718 0.77076 0.27889
 O985 O 0.03305 0.73190 0.30928
 O986 O -0.02800 0.69924 0.26610
 O987 O 0.03107 0.69415 0.26632
 O988 O -0.02174 0.72927 0.31901
 Cu989 Cu -0.00221 0.75561 0.25591
 Cu990 Cu 0.00313 0.70954 0.29254
 C991 C -0.03427 0.75390 0.31270
 C992 C 0.03846 0.70718 0.24197
 C993 C -0.03961 0.71301 0.24294
 C994 C 0.04016 0.75740 0.30126
 O995 O 0.46952 0.69866 0.78422
 O996 O 0.53301 0.73367 0.81772
 O997 O 0.47681 0.74664 0.81705
 O998 O 0.52748 0.69403 0.77604
 O999 O 0.52898 0.72594 0.73758
 O1000 O 0.47668 0.77645 0.77663
 O1001 O 0.53292 0.76489 0.77855
 O1002 O 0.47059 0.72802 0.74368
 Cu1003 Cu 0.50125 0.71508 0.80256
 Cu1004 Cu 0.50153 0.75123 0.75516
 C1005 C 0.45955 0.70689 0.75808
 C1006 C 0.54384 0.75507 0.80400
 C1007 C 0.46857 0.77069 0.80384
 C1008 C 0.53759 0.70178 0.74997
 N1009 N 0.43825 0.29784 0.28262
 N1010 N 0.44604 0.27245 0.29281
 N1011 N 0.42528 0.79879 0.81155
 N1012 N 0.45061 0.79177 0.82026
 N1013 N -0.07596 0.27867 0.81172
 N1014 N -0.05060 0.26888 0.81715
 N1015 N -0.07764 0.77828 0.32959
 N1016 N -0.05283 0.76742 0.33553
 N1017 N 0.56885 0.70984 0.28767
 N1018 N 0.56092 0.73546 0.29666
 N1019 N 0.57120 0.20257 0.81500
 N1020 N 0.54669 0.21289 0.82278
 N1021 N 1.06756 0.68538 0.78531
 N1022 N 1.04114 0.68687 0.77845
 N1023 N 1.08198 0.23531 0.30666
 N1024 N 1.05797 0.24633 0.31512
 N1025 N 0.57950 0.29441 0.71397
 N1026 N 0.56771 0.30403 0.73882
 N1027 N 0.57495 0.82131 0.19725
 N1028 N 0.54786 0.82457 0.19949
 N1029 N 1.06192 0.33172 0.20911
 N1030 N 1.03540 0.33248 0.21545
 N1031 N 1.08096 0.80861 0.71658
 N1032 N 1.06777 0.78732 0.70490
 N1033 N 0.42651 0.69909 0.71769
 N1034 N 0.43601 0.69185 0.74447
 N1035 N 0.41666 0.17140 0.21600
 N1036 N 0.43247 0.19142 0.20558
 N1037 N -0.07260 0.67627 0.23200
 N1038 N -0.06235 0.70073 0.22507
 N1039 N -0.07291 0.17989 0.71481
 N1040 N -0.04609 0.17727 0.71982
 N1041 N 0.32076 0.43847 0.28400
 N1042 N 0.29719 0.45098 0.29464
 N1043 N 0.31136 -0.06944 0.79182
 N1044 N 0.30906 -0.04255 0.79092
 N1045 N 0.81817 0.41997 0.80223
 N1046 N 0.81599 0.44677 0.79984
 N1047 N 0.82909 -0.07632 0.30185
 N1048 N 0.83009 -0.05081 0.29308
 N1049 N 0.29937 0.57653 0.71297
 N1050 N 0.30643 0.56500 0.73895
 N1051 N 0.27055 1.07817 0.19657
 N1052 N 0.25828 1.05505 0.19314
 N1053 N 0.80153 0.55999 0.22337
 N1054 N 0.77763 0.54994 0.21354
 N1055 N 0.79151 1.08045 0.72957
 N1056 N 0.77099 1.06644 0.71727
 N1057 N 0.67558 0.56268 0.29685
 N1058 N 0.69878 0.54931 0.30757
 N1059 N 0.67419 1.06081 0.79713
 N1060 N 0.67661 1.03401 0.79543
 N1061 N 0.20333 0.57643 0.81798
 N1062 N 0.21167 0.55091 0.82362
 N1063 N 0.17142 1.08681 0.29406
 N1064 N 0.16821 1.06060 0.28966
 N1065 N 0.71230 0.41219 0.70874
 N1066 N 0.70656 0.42290 0.73523
 N1067 N 0.71670 -0.09075 0.22335
 N1068 N 0.73825 -0.07770 0.21184
 N1069 N 0.19507 0.43527 0.21738
 N1070 N 0.21658 0.44803 0.20543
 N1071 N 0.20677 -0.07281 0.69722
 N1072 N 0.21343 -0.04731 0.69315
 N1073 N 0.31561 0.31191 0.41659
 N1074 N 0.29103 0.32241 0.42692
 N1075 N 0.28337 0.79457 -0.10336
 N1076 N 0.26464 0.80903 -0.08687
 N1077 N 0.78029 0.28820 -0.09087
 N1078 N 0.79086 0.26642 -0.07532
 N1079 N 0.77166 0.79944 0.41569
 N1080 N 0.77821 0.77539 0.42961
 N1081 N 0.70135 0.28845 0.57713
 N1082 N 0.72408 0.29797 0.56405
 N1083 N 0.71384 0.78667 1.08569
 N1084 N 0.73835 0.79423 1.07464
 N1085 N 0.19250 0.30814 1.08408
 N1086 N 0.21588 0.31674 1.07140
 N1087 N 0.21360 0.79034 0.59007
 N1088 N 0.23542 0.80106 0.57637
 N1089 N 0.31062 0.69536 0.57599
 N1090 N 0.32030 0.71882 0.56499
 N1091 N 0.28522 0.21247 1.08887
 N1092 N 0.29894 0.23185 1.07448
 N1093 N 0.80890 0.68450 1.08692
 N1094 N 0.82021 0.70651 1.07435
 N1095 N 0.79882 0.19592 0.58590
 N1096 N 0.81005 0.21695 0.57151
 N1097 N 0.68935 0.68617 0.42799
 N1098 N 0.68340 0.71156 0.43884
 N1099 N 0.71883 0.18941 -0.10361
 N1100 N 0.70575 0.20796 -0.08593
 N1101 N 0.19027 0.72556 -0.09346
 N1102 N 0.21285 0.71765 -0.07736
 N1103 N 0.22298 0.21767 0.40069
 N1104 N 0.21265 0.24096 0.41362
 N1105 N 0.30043 0.43501 0.69673
 N1106 N 0.30927 0.44464 0.72248
 N1107 N 0.27541 0.93243 0.19653
 N1108 N 0.28278 0.94559 0.22097
 N1109 N 0.77937 0.41900 0.19091
 N1110 N 0.78890 0.42980 0.21578
 N1111 N 0.79644 0.93478 0.68719
 N1112 N 0.80396 0.94541 0.71296
 N1113 N 0.69617 0.55706 0.70089
 N1114 N 0.69013 0.54617 0.72710
 N1115 N 0.70552 0.04831 0.18514
 N1116 N 0.70097 0.03931 0.21247
 N1117 N 0.20922 0.58565 0.18411
 N1118 N 0.20115 0.57220 0.20821
 N1119 N 0.20913 0.07953 0.68118
 N1120 N 0.19985 0.06692 0.70532
 N1121 N 0.31141 0.58538 0.28399
 N1122 N 0.28862 0.57355 0.29438
 N1123 N 0.30043 0.08426 0.78953
 N1124 N 0.27838 0.07044 0.79864
 N1125 N 0.80204 0.57258 0.78555
 N1126 N 0.78274 0.55862 0.79992
 N1127 N 0.81462 0.07359 0.28372
 N1128 N 0.79296 0.06009 0.29434
 N1129 N 0.68433 0.41187 0.29337
 N1130 N 0.70642 0.42442 0.30440
 N1131 N 0.70231 0.91055 0.79059
 N1132 N 0.72314 0.92535 0.80078
 N1133 N 0.19531 0.42751 0.79199
 N1134 N 0.21883 0.43650 0.80403
 N1135 N 0.17777 0.93089 0.30490
 N1136 N 0.19968 0.94541 0.31305
 N1137 N 0.43354 0.30836 0.69757
 N1138 N 0.44360 0.31711 0.72318
 N1139 N 0.42217 0.81864 0.19013
 N1140 N 0.43223 0.82628 0.21612
 N1141 N 0.91524 0.29559 0.19144
 N1142 N 0.92448 0.30661 0.21632
 N1143 N 0.92534 0.80203 0.68146
 N1144 N 0.93964 0.80991 0.70512
 N1145 N 0.57548 0.27719 0.28534
 N1146 N 0.56513 0.25342 0.29476
 N1147 N 0.58076 0.78916 0.80419
 N1148 N 0.56885 0.76789 0.81733
 N1149 N 0.07240 0.30233 0.78793
 N1150 N 0.06423 0.27808 0.79854
 N1151 N 0.06973 0.79689 0.30929
 N1152 N 0.06287 0.77141 0.31762
 N1153 N 0.57066 0.69236 0.70964
 N1154 N 0.55943 0.68349 0.73469
 N1155 N 0.57061 0.17513 0.18235
 N1156 N 0.55860 0.16702 0.20729
 N1157 N 0.06900 0.70482 0.19799
 N1158 N 0.06075 0.69339 0.22310
 N1159 N 0.07669 0.20643 0.68368
 N1160 N 0.06791 0.19567 0.70900
 N1161 N 0.42888 0.71347 0.28592
 N1162 N 0.43941 0.73638 0.29713
 N1163 N 0.41963 0.20931 0.79720
 N1164 N 0.43003 0.23219 0.80856
 N1165 N 0.91849 0.70081 0.77490
 N1166 N 0.93205 0.72201 0.78599
 N1167 N 0.93257 0.20088 0.29361
 N1168 N 0.94024 0.22480 0.30520
 N1169 N 0.30771 0.30871 0.56490
 N1170 N 0.28303 0.31798 0.55341
 N1171 N 0.29891 0.81488 0.05785
 N1172 N 0.27281 0.82010 0.04753
 N1173 N 0.78046 0.29044 0.06520
 N1174 N 0.78877 0.26530 0.05518
 N1175 N 0.78415 0.80810 0.56472
 N1176 N 0.78927 0.78180 0.55608
 N1177 N 0.30612 0.70470 0.42299
 N1178 N 0.31502 0.72773 0.43548
 N1179 N 0.29016 0.20633 0.92864
 N1180 N 0.29987 0.22887 0.94154
 N1181 N 0.80898 0.69033 0.92579
 N1182 N 0.81991 0.71182 0.93948
 N1183 N 0.80693 0.18886 0.42633
 N1184 N 0.81540 0.21196 0.43904
 N1185 N 0.70102 0.28095 0.42212
 N1186 N 0.72342 0.29220 0.43418
 N1187 N 0.71363 0.78786 0.93177
 N1188 N 0.73729 0.79686 0.94352
 N1189 N 0.19183 0.30542 0.92829
 N1190 N 0.21502 0.31506 0.94041
 N1191 N 0.20206 0.80161 0.43579
 N1192 N 0.22568 0.81165 0.44640
 N1193 N 0.69665 0.68646 0.57580
 N1194 N 0.68978 0.71232 0.56635
 N1195 N 0.69825 0.16656 0.05258
 N1196 N 0.69180 0.19284 0.04437
 N1197 N 0.18701 0.72224 0.06236
 N1198 N 0.21287 0.71777 0.05147
 N1199 N 0.20887 0.21033 0.55528
 N1200 N 0.19917 0.23477 0.54408
   
