data_POSCAR
  _audit_creation_date              2014-09-24
  _audit_creation_method            'ToBaCCo'
  _symmetry_space_group_name_H-M    'P1'
  _symmetry_Int_Tables_number       1
  _symmetry_cell_setting            triclinic
  loop_
  _symmetry_equiv_pos_as_xyz
 x,y,z
_cell_length_a 45.0918
_cell_length_b 45.0486
_cell_length_c 44.9219
_cell_angle_alpha 89.997200
_cell_angle_beta 90.024200
_cell_angle_gamma 89.912500
loop_
  _atom_site_label
  _atom_site_type_symbol
  _atom_site_fract_x
  _atom_site_fract_y
  _atom_site_fract_z
C1 C 0.16073 0.18365 0.20249
 C2 C 0.16067 0.20511 0.17987
 C3 C 0.18247 0.20468 0.15815
 C4 C 0.20460 0.18278 0.15877
 C5 C 0.20467 0.16156 0.18111
 C6 C 0.18260 0.16199 0.20311
 C7 C 0.14200 0.17835 0.22612
 N8 N 0.15212 0.15412 0.24084
 C9 C 0.17683 0.14385 0.22710
 C10 C 0.22828 0.14284 0.17581
 N11 N 0.24231 0.15236 0.15093
 C12 C 0.22816 0.17666 0.14023
 C13 C 0.17662 0.22770 0.13883
 N14 N 0.15191 0.24189 0.14843
 C15 C 0.14190 0.22839 0.17342
 H16 H 0.12238 0.19096 0.23199
 H17 H 0.18945 0.12452 0.23389
 H18 H 0.23461 0.12363 0.18888
 H19 H 0.23437 0.18877 0.12036
 H20 H 0.18919 0.23357 0.11916
 H21 H 0.12233 0.23492 0.18577
 C22 C -0.15874 0.81845 0.20629
 C23 C -0.15926 0.79641 0.18425
 C24 C -0.18159 0.79632 0.16305
 C25 C -0.20368 0.81826 0.16364
 C26 C -0.20317 0.84005 0.18543
 C27 C -0.18056 0.84015 0.20688
 C28 C -0.13943 0.82431 0.22932
 N29 N -0.14916 0.84891 0.24366
 C30 C -0.17419 0.85888 0.23026
 C31 C -0.22687 0.85869 0.18022
 N32 N -0.24152 0.84859 0.15592
 C33 C -0.22767 0.82398 0.14552
 C34 C -0.17619 0.77283 0.14418
 N35 N -0.15126 0.75887 0.15355
 C36 C -0.14064 0.77298 0.17794
 H37 H -0.11970 0.81180 0.23507
 H38 H -0.18664 0.87837 0.23689
 H39 H -0.23283 0.87825 0.19292
 H40 H -0.23437 0.81142 0.12610
 H41 H -0.18922 0.76649 0.12495
 H42 H -0.12076 0.76678 0.18996
 C43 C -0.16353 0.18004 -0.20453
 C44 C -0.16416 0.20225 -0.18265
 C45 C -0.18590 0.20189 -0.16086
 C46 C -0.20728 0.17931 -0.16068
 C47 C -0.20667 0.15736 -0.18230
 C48 C -0.18467 0.15773 -0.20435
 C49 C -0.14468 0.17451 -0.22802
 N50 N -0.15403 0.14951 -0.24188
 C51 C -0.17837 0.13898 -0.22774
 C52 C -0.22965 0.13813 -0.17635
 N53 N -0.24396 0.14802 -0.15177
 C54 C -0.23061 0.17309 -0.14191
 C55 C -0.18074 0.22567 -0.14230
 N56 N -0.15651 0.24025 -0.15243
 C57 C -0.14612 0.22625 -0.17699
 H58 H -0.12551 0.18750 -0.23439
 H59 H -0.19037 0.11908 -0.23384
 H60 H -0.23537 0.11834 -0.18878
 H61 H -0.23723 0.18566 -0.12245
 H62 H -0.19340 0.23176 -0.12276
 H63 H -0.12674 0.23288 -0.18956
 C64 C 0.16217 0.81910 -0.20488
 C65 C 0.16135 0.79659 -0.18334
 C66 C 0.18266 0.79563 -0.16112
 C67 C 0.20505 0.81718 -0.16017
 C68 C 0.20587 0.83944 -0.18146
 C69 C 0.18430 0.84041 -0.20395
 C70 C 0.14404 0.82582 -0.22864
 N71 N 0.15477 0.85056 -0.24194
 C72 C 0.17929 0.85977 -0.22717
 C73 C 0.22957 0.85752 -0.17474
 N74 N 0.24292 0.84662 -0.15003
 C75 C 0.22826 0.82206 -0.14083
 C76 C 0.17605 0.77184 -0.14305
 N77 N 0.15139 0.75855 -0.15388
 C78 C 0.14213 0.77336 -0.17843
 H79 H 0.12442 0.81381 -0.23556
 H80 H 0.19229 0.87919 -0.23274
 H81 H 0.23641 0.87721 -0.18673
 H82 H 0.23389 0.80893 -0.12142
 H83 H 0.18806 0.76487 -0.12337
 H84 H 0.12274 0.76780 -0.19150
 C85 C 0.18477 1.16197 0.79646
 C86 C 0.20629 1.16185 0.81899
 C87 C 0.20586 1.18353 0.84087
 C88 C 0.18390 1.20559 0.84048
 C89 C 0.16261 1.20572 0.81821
 C90 C 0.16305 1.18378 0.79607
 C91 C 0.17941 1.14329 0.77280
 N92 N 0.15507 1.15338 0.75828
 C93 C 0.14479 1.17802 0.77217
 C94 C 0.14379 1.22918 0.82376
 N95 N 0.15331 1.24306 0.84874
 C96 C 0.17771 1.22897 0.85924
 C97 C 0.22888 1.17758 0.86013
 N98 N 0.24305 1.15293 0.85033
 C99 C 0.22956 1.14305 0.82529
 H100 H 0.19200 1.12369 0.76681
 H101 H 0.12535 1.19057 0.76558
 H102 H 0.12450 1.23549 0.81083
 H103 H 0.18983 1.23509 0.87913
 H104 H 0.23473 1.19000 0.87990
 H105 H 0.23605 1.12352 0.81282
 C106 C 0.81820 0.84151 0.79371
 C107 C 0.79604 0.84092 0.81557
 C108 C 0.79582 0.81853 0.83672
 C109 C 0.81776 0.79644 0.83624
 C110 C 0.83968 0.79702 0.81461
 C111 C 0.83990 0.81969 0.79323
 C112 C 0.82422 0.86092 0.77082
 N113 N 0.84892 0.85125 0.75667
 C114 C 0.85880 0.82616 0.77004
 C115 C 0.85831 0.77335 0.81991
 N116 N 0.84809 0.75864 0.84411
 C117 C 0.82340 0.77242 0.85436
 C118 C 0.77225 0.82391 0.85546
 N119 N 0.75839 0.84890 0.84605
 C120 C 0.77262 0.85956 0.82177
 H121 H 0.81175 0.88068 0.76504
 H122 H 0.87834 0.81375 0.76354
 H123 H 0.87797 0.76746 0.80736
 H124 H 0.81075 0.76568 0.87370
 H125 H 0.76581 0.81087 0.87464
 H126 H 0.76654 0.87951 0.80978
 C127 C 0.18136 0.83707 1.20546
 C128 C 0.20337 0.83642 1.18344
 C129 C 0.20283 0.81464 1.16166
 C130 C 0.18027 0.79325 1.16165
 C131 C 0.15852 0.79389 1.18342
 C132 C 0.15906 0.81592 1.20545
 C133 C 0.17596 0.85600 1.22893
 N134 N 0.15106 0.84669 1.24292
 C135 C 0.14045 0.82230 1.22890
 C136 C 0.13921 0.77097 1.17757
 N137 N 0.14885 0.75665 1.15290
 C138 C 0.17385 0.76996 1.14290
 C139 C 0.22640 0.81982 1.14289
 N140 N 0.24101 0.84409 1.15288
 C141 C 0.22726 0.85450 1.17756
 H142 H 0.18896 0.87523 1.23516
 H143 H 0.12057 0.81033 1.23511
 H144 H 0.11950 0.76529 1.19009
 H145 H 0.18620 0.76332 1.12332
 H146 H 0.23231 0.80715 1.12328
 H147 H 0.23396 0.87393 1.19005
 C148 C 0.81828 1.16158 1.20604
 C149 C 0.79575 1.16066 1.18455
 C150 C 0.79471 1.18193 1.16229
 C151 C 0.81619 1.20437 1.16125
 C152 C 0.83846 1.20529 1.18250
 C153 C 0.83952 1.18377 1.20502
 C154 C 0.82513 1.14347 1.22977
 N155 N 0.84988 1.15427 1.24295
 C156 C 0.85897 1.17882 1.22815
 C157 C 0.85649 1.22896 1.17565
 N158 N 0.84558 1.24222 1.15090
 C159 C 0.82103 1.22751 1.14182
 C160 C 0.77097 1.17519 1.14423
 N161 N 0.75780 1.15048 1.15512
 C162 C 0.77263 1.14132 1.17968
 H163 H 0.81322 1.12379 1.23674
 H164 H 0.87839 1.19185 1.23362
 H165 H 0.87621 1.23586 1.18753
 H166 H 0.80792 1.23307 1.12240
 H167 H 0.76397 1.18712 1.12451
 H168 H 0.76716 1.12190 1.19277
 O169 O 0.45827 0.94299 0.95128
 O170 O 0.42584 0.97161 0.97819
 C171 C 0.43161 0.95088 0.95901
 O172 O 0.54175 0.94586 1.05732
 O173 O 0.57410 0.97221 1.02820
 C174 C 0.56840 0.95333 1.04921
 O175 O 0.45822 0.94321 1.05436
 O176 O 0.42580 0.97176 1.02732
 C177 C 0.43157 0.95106 1.04653
 O178 O 0.54184 0.94590 0.94841
 O179 O 0.57421 0.97292 0.97693
 C180 C 0.56847 0.95374 0.95620
 Zr181 Zr 0.50005 0.95962 0.96529
 O182 O 0.50351 0.91274 0.96586
 O183 O 0.49672 0.95909 0.91829
 Zr184 Zr 0.50001 0.95987 1.04051
 O185 O 0.50337 0.91300 1.04060
 O186 O 0.49663 0.96007 1.08751
 O187 O 0.47359 0.95402 1.00289
 O188 O 0.52579 0.95433 1.00291
 O189 O 0.54168 1.04881 0.94836
 O190 O 0.57408 1.02246 0.97752
 C191 C 0.56833 1.04136 0.95652
 O192 O 0.45818 1.05173 1.05437
 O193 O 0.42584 1.02278 1.02783
 C194 C 0.43155 1.04368 1.04682
 O195 O 0.54168 1.04881 1.05714
 O196 O 0.57413 1.02173 1.02871
 C197 C 0.56834 1.04096 1.04938
 O198 O 0.45830 1.05148 0.95085
 O199 O 0.42589 1.02262 0.97737
 C200 C 0.43166 1.04346 0.95834
 Zr201 Zr 0.49996 1.03474 0.96497
 O202 O 0.50320 1.08161 0.96470
 O203 O 0.49669 1.03427 0.91796
 Zr204 Zr 0.49992 1.03499 1.04034
 O205 O 0.50325 1.08186 1.04009
 O206 O 0.49657 1.03513 1.08735
 Zr207 Zr 0.45597 0.99743 1.00273
 Zr208 Zr 0.54398 0.99732 1.00281
 O209 O 0.52563 1.04030 1.00269
 O210 O 0.47349 1.04077 1.00261
 O211 O 0.52643 0.99717 0.95931
 O212 O 0.47425 0.99745 1.04584
 O213 O 0.47431 0.99718 0.95965
 O214 O 0.52639 0.99742 1.04629
 H215 H 0.53928 0.93694 1.00288
 H216 H 0.46080 0.99744 1.06329
 H217 H 0.53904 1.05769 1.00275
 H218 H 0.46090 0.99708 0.94217
 H219 H 0.51328 0.97206 1.09529
 H220 H 0.51300 1.02284 1.09518
 H221 H 0.48655 1.08961 1.02809
 H222 H 0.48687 1.08942 0.97713
 H223 H 0.51367 1.02266 0.91025
 H224 H 0.51268 0.97190 0.91042
 H225 H 0.48651 0.90503 0.97741
 H226 H 0.48689 0.90521 1.02836
 O227 O 0.05147 0.45818 -0.05462
 O228 O 0.02273 0.42577 -0.02792
 C229 C 0.04357 0.43151 -0.04693
 O230 O 0.04834 0.54162 0.05138
 O231 O 0.02157 0.57421 0.02276
 C232 C 0.04065 0.56833 0.04356
 O233 O 0.05120 0.45801 0.04831
 O234 O 0.02276 0.42567 0.02117
 C235 C 0.04342 0.43136 0.04042
 O236 O 0.04895 0.54172 -0.05734
 O237 O 0.02241 0.57418 -0.02844
 C238 C 0.04149 0.56841 -0.04924
 Zr239 Zr 0.03465 0.49998 -0.04084
 O240 O 0.08148 0.50312 -0.04108
 O241 O 0.03425 0.49668 -0.08785
 Zr242 Zr 0.03443 0.49988 0.03458
 O243 O 0.08126 0.50311 0.03506
 O244 O 0.03396 0.49638 0.08158
 O245 O 0.04033 0.47353 -0.00315
 O246 O 0.04006 0.52561 -0.00306
 O247 O -0.05432 0.54198 -0.05769
 O248 O -0.02783 0.57429 -0.02862
 C249 C -0.04679 0.56862 -0.04956
 O250 O -0.05723 0.45840 0.04830
 O251 O -0.02826 0.42592 0.02186
 C252 C -0.04916 0.43171 0.04081
 O253 O -0.05451 0.54191 0.05098
 O254 O -0.02798 0.57428 0.02203
 C255 C -0.04697 0.56857 0.04292
 O256 O -0.05720 0.45839 -0.05491
 O257 O -0.02879 0.42588 -0.02786
 C258 C -0.04946 0.43168 -0.04707
 Zr259 Zr -0.04031 0.50015 -0.04106
 O260 O -0.08713 0.50360 -0.04152
 O261 O -0.03975 0.49679 -0.08807
 Zr262 Zr -0.04043 0.50009 0.03436
 O263 O -0.08726 0.50350 0.03447
 O264 O -0.04013 0.49673 0.08138
 Zr265 Zr -0.00299 0.45600 -0.00333
 Zr266 Zr -0.00281 0.54410 -0.00323
 O267 O -0.04576 0.52581 -0.00335
 O268 O -0.04628 0.47373 -0.00338
 O269 O -0.00278 0.52661 -0.04676
 O270 O -0.00303 0.47418 0.03983
 O271 O -0.00285 0.47426 -0.04642
 O272 O -0.00298 0.52650 0.04028
 H273 H 0.05750 0.53897 -0.00291
 H274 H -0.00298 0.46069 0.05725
 H275 H -0.06322 0.53919 -0.00338
 H276 H -0.00285 0.46070 -0.06379
 H277 H 0.02224 0.51326 0.08935
 H278 H -0.02858 0.51368 0.08917
 H279 H -0.09504 0.48715 0.02204
 H280 H -0.09498 0.48750 -0.02881
 H281 H -0.02811 0.51372 -0.09577
 H282 H 0.02282 0.51377 -0.09561
 H283 H 0.08922 0.48697 -0.02833
 H284 H 0.08910 0.48691 0.02245
 O285 O 1.05733 -0.04868 0.54211
 O286 O 1.02835 -0.02230 0.57464
 C287 C 1.04927 -0.04121 0.56887
 O288 O 1.05408 0.05698 0.45818
 O289 O 1.02769 0.02790 0.42577
 C290 C 1.04659 0.04881 0.43145
 O291 O 1.05685 0.05458 0.54196
 O292 O 1.02811 0.02809 0.57454
 C293 C 1.04887 0.04710 0.56872
 O294 O 1.05455 -0.05136 0.45840
 O295 O 1.02794 -0.02255 0.42587
 C296 C 1.04698 -0.04336 0.43165
 Zr297 Zr 1.04053 -0.03470 0.50026
 O298 O 1.08736 -0.03447 0.49688
 O299 O 1.04065 -0.08157 0.50362
 Zr300 Zr 1.04008 0.04049 0.50016
 O301 O 1.08690 0.04099 0.49684
 O302 O 1.03931 0.08738 0.50339
 O303 O 1.04625 0.00295 0.52674
 O304 O 1.04566 0.00287 0.47445
 O305 O 0.95140 -0.05167 0.45852
 O306 O 0.97764 -0.02273 0.42591
 C307 C 0.95877 -0.04362 0.43174
 O308 O 0.94836 0.05386 0.54223
 O309 O 0.97711 0.02714 0.57476
 C310 C 0.95624 0.04613 0.56899
 O311 O 0.95118 0.05680 0.45833
 O312 O 0.97815 0.02836 0.42576
 C313 C 0.95893 0.04900 0.43157
 O314 O 0.94896 -0.04875 0.54229
 O315 O 0.97742 -0.02178 0.57480
 C316 C 0.95679 -0.04096 0.56903
 Zr317 Zr 0.96552 -0.03493 0.50033
 O318 O 0.91868 -0.03519 0.49711
 O319 O 0.96595 -0.08181 0.50373
 Zr320 Zr 0.96516 0.04016 0.50026
 O321 O 0.91833 0.04011 0.49694
 O322 O 0.96504 0.08703 0.50364
 Zr323 Zr 1.00298 0.00278 0.54443
 Zr324 Zr 1.00271 0.00265 0.45605
 O325 O 0.95982 0.00258 0.47450
 O326 O 0.95962 0.00261 0.52681
 O327 O 1.00300 -0.04070 0.47372
 O328 O 1.00263 0.04576 0.52606
 O329 O 1.00309 -0.04022 0.52611
 O330 O 1.00254 0.04607 0.47362
 H331 H 1.06312 0.00290 0.46106
 H332 H 1.00247 0.06316 0.53955
 H333 H 0.94240 0.00259 0.46105
 H334 H 1.00313 -0.05761 0.53961
 H335 H 1.02789 0.09502 0.48621
 H336 H 0.97708 0.09483 0.48700
 H337 H 0.91062 0.02777 0.51340
 H338 H 0.91089 -0.02292 0.51361
 H339 H 0.97779 -0.08954 0.48690
 H340 H 1.02860 -0.08937 0.48698
 H341 H 1.09507 -0.02239 0.51355
 H342 H 1.09477 0.02839 0.51305
 C343 C 1.09573 0.10007 0.38603
 C344 C 1.08804 0.09198 0.35696
 C345 C 1.06664 0.07003 0.35224
 C346 C 1.05307 0.05610 0.37645
 C347 C 1.13939 0.14192 0.26447
 C348 C 1.08218 0.08617 0.41032
 C349 C 1.10222 0.10600 0.33192
 C350 C 1.11402 0.11750 0.31079
 C351 C 1.12775 0.13075 0.28588
 C352 C 1.06073 0.06394 0.40582
 H353 H 1.11228 0.11705 0.38994
 H354 H 1.06051 0.06360 0.32983
 H355 H 1.03663 0.03913 0.37212
 H356 H 1.08861 0.09277 0.43258
 C357 C 0.93813 -0.06528 0.35277
 C358 C 0.91682 -0.08726 0.35779
 C359 C 0.90941 -0.09521 0.38696
 C360 C 0.92314 -0.08116 0.41105
 C361 C 0.86407 -0.13841 0.26676
 C362 C 0.95189 -0.05119 0.37680
 C363 C 0.90240 -0.10145 0.33299
 C364 C 0.89030 -0.11321 0.31217
 C365 C 0.87614 -0.12685 0.28771
 C366 C 0.94450 -0.05890 0.40627
 H367 H 0.94404 -0.05895 0.33028
 H368 H 0.89294 -0.11220 0.39109
 H369 H 0.91691 -0.08767 0.43339
 H370 H 0.96825 -0.03420 0.37226
 C371 C 0.90405 0.09471 0.61407
 C372 C 0.91159 0.08663 0.64319
 C373 C 0.93354 0.06519 0.64806
 C374 C 0.94799 0.05194 0.62394
 C375 C 0.85897 0.13695 0.73482
 C376 C 0.91846 0.08149 0.58989
 C377 C 0.89698 0.10045 0.66810
 C378 C 0.88488 0.11200 0.68905
 C379 C 0.87085 0.12549 0.71369
 C380 C 0.94067 0.05998 0.59453
 H381 H 0.88709 0.11130 0.61005
 H382 H 0.93955 0.05875 0.67051
 H383 H 0.96492 0.03544 0.62838
 H384 H 0.91226 0.08821 0.56759
 C385 C 1.10083 -0.09053 0.61393
 C386 C 1.09285 -0.08294 0.64306
 C387 C 1.07090 -0.06151 0.64794
 C388 C 1.05685 -0.04781 0.62383
 C389 C 1.14272 -0.13599 0.73473
 C390 C 1.08681 -0.07685 0.58975
 C391 C 1.10690 -0.09738 0.66796
 C392 C 1.11841 -0.10952 0.68892
 C393 C 1.13164 -0.12378 0.71357
 C394 C 1.06456 -0.05539 0.59441
 H395 H 1.11779 -0.10711 0.60989
 H396 H 1.06454 -0.05547 0.67040
 H397 H 1.03987 -0.03137 0.62828
 H398 H 1.09332 -0.08322 0.56744
 C399 C 0.38648 1.09547 1.09590
 C400 C 0.35749 1.08760 1.08809
 C401 C 0.35271 1.06556 1.06669
 C402 C 0.37678 1.05135 1.05320
 C403 C 0.26572 1.13949 1.13853
 C404 C 0.41062 1.08129 1.08243
 C405 C 0.33261 1.10202 1.10207
 C406 C 0.31164 1.11394 1.11369
 C407 C 0.28694 1.12776 1.12716
 C408 C 0.40606 1.05900 1.06095
 H409 H 0.39044 1.11251 1.11244
 H410 H 0.33036 1.05930 1.06046
 H411 H 0.37240 1.03434 1.03674
 H412 H 0.43282 1.08775 1.08893
 C413 C 0.35283 0.92917 0.93890
 C414 C 0.35767 0.90763 0.91700
 C415 C 0.38669 0.89987 0.90911
 C416 C 0.41079 0.91373 0.92291
 C417 C 0.26622 0.85855 0.86345
 C418 C 0.37686 0.94307 0.95273
 C419 C 0.33285 0.89381 0.90238
 C420 C 0.31194 0.88249 0.89011
 C421 C 0.28734 0.86948 0.87572
 C422 C 0.40616 0.93561 0.94481
 H423 H 0.33046 0.93535 0.94518
 H424 H 0.39069 0.88322 0.89217
 H425 H 0.43300 0.90743 0.91627
 H426 H 0.37243 0.95976 0.96950
 C427 C 0.61359 0.90432 1.10102
 C428 C 0.64256 0.91219 1.09315
 C429 C 0.64728 0.93363 1.07114
 C430 C 0.62317 0.94709 1.05694
 C431 C 0.73485 0.86127 1.14371
 C432 C 0.58941 0.91776 1.08686
 C433 C 0.66751 0.89814 1.10742
 C434 C 0.68858 0.88645 1.11910
 C435 C 0.71346 0.87284 1.13249
 C436 C 0.59391 0.93926 1.06457
 H437 H 0.60969 0.88774 1.11804
 H438 H 0.66961 0.93990 1.06487
 H439 H 0.62750 0.96357 1.03995
 H440 H 0.56722 0.91120 1.09330
 C441 C 0.61311 1.09050 0.90470
 C442 C 0.64215 1.08287 0.91264
 C443 C 0.64707 1.06152 0.93473
 C444 C 0.62308 1.04793 0.94893
 C445 C 0.73299 1.13492 0.86099
 C446 C 0.58906 1.07694 0.91885
 C447 C 0.66690 1.09708 0.89830
 C448 C 0.68768 1.10900 0.88642
 C449 C 0.71209 1.12299 0.87265
 C450 C 0.59376 1.05554 0.94121
 H451 H 0.60905 1.10701 0.88762
 H452 H 0.66946 1.05544 0.94105
 H453 H 0.62755 1.03153 0.96598
 H454 H 0.56683 1.08333 0.91234
 C455 C 0.06569 0.35247 0.06004
 C456 C 0.08732 0.35730 0.08184
 C457 C 0.09487 0.38633 0.08988
 C458 C 0.08075 0.41046 0.07631
 C459 C 0.13852 0.26627 0.13442
 C460 C 0.05153 0.37653 0.04643
 C461 C 0.10154 0.33248 0.09615
 C462 C 0.11331 0.31164 0.10820
 C463 C 0.12696 0.28720 0.12235
 C464 C 0.05882 0.40585 0.05448
 H465 H 0.05967 0.33008 0.05363
 H466 H 0.11159 0.39033 0.10674
 H467 H 0.08693 0.43269 0.08304
 H468 H 0.03480 0.37213 0.02970
 C469 C -0.07192 0.35282 -0.06621
 C470 C -0.09346 0.35760 -0.08812
 C471 C -0.10089 0.38662 -0.09644
 C472 C -0.08674 0.41078 -0.08301
 C473 C -0.14369 0.26527 -0.13909
 C474 C -0.05774 0.37690 -0.05276
 C475 C -0.10765 0.33267 -0.10221
 C476 C -0.11924 0.31158 -0.11393
 C477 C -0.13254 0.28668 -0.12755
 C478 C -0.06491 0.40621 -0.06106
 H479 H -0.06599 0.33046 -0.05959
 H480 H -0.11753 0.39057 -0.11339
 H481 H -0.09281 0.43300 -0.08993
 H482 H -0.04110 0.37252 -0.03592
 C483 C 0.06227 0.64724 -0.07032
 C484 C 0.08390 0.64236 -0.09210
 C485 C 0.09146 0.61331 -0.10016
 C486 C 0.07756 0.58921 -0.08639
 C487 C 0.13726 0.73388 -0.14125
 C488 C 0.04835 0.62321 -0.05651
 C489 C 0.09852 0.66719 -0.10591
 C490 C 0.11076 0.68811 -0.11725
 C491 C 0.12507 0.71274 -0.13029
 C492 C 0.05590 0.59387 -0.06431
 H493 H 0.05625 0.66964 -0.06391
 H494 H 0.10818 0.60928 -0.11700
 H495 H 0.08391 0.56696 -0.09294
 H496 H 0.03176 0.62766 -0.03965
 C497 C -0.09577 0.61364 0.09495
 C498 C -0.08796 0.64266 0.08714
 C499 C -0.06670 0.64747 0.06499
 C500 C -0.05333 0.62340 0.05065
 C501 C -0.13812 0.73423 0.13978
 C502 C -0.08243 0.58949 0.08065
 C503 C -0.10180 0.66753 0.10174
 C504 C -0.11333 0.68846 0.11384
 C505 C -0.12674 0.71309 0.12788
 C506 C -0.06107 0.59408 0.05827
 H507 H -0.11221 0.60966 0.11207
 H508 H -0.06048 0.66985 0.05877
 H509 H -0.03696 0.62779 0.03358
 H510 H -0.08891 0.56727 0.08709
 C511 C 1.07050 0.06739 0.64774
 C512 C 1.09229 0.08891 0.64282
 C513 C 1.10012 0.09661 0.61370
 C514 C 1.08613 0.08294 0.58953
 C515 C 1.14272 0.14061 0.73477
 C516 C 1.05648 0.05369 0.62365
 C517 C 1.10641 0.10319 0.66771
 C518 C 1.11802 0.11508 0.68872
 C519 C 1.13142 0.12891 0.71348
 C520 C 1.06407 0.06136 0.59423
 H521 H 1.06428 0.06125 0.67020
 H522 H 1.11696 0.11326 0.60965
 H523 H 1.09252 0.08938 0.56722
 H524 H 1.03964 0.03716 0.62812
 C525 C 0.90551 -0.09043 0.61391
 C526 C 0.91312 -0.08256 0.64305
 C527 C 0.93475 -0.06089 0.64803
 C528 C 0.94885 -0.04721 0.62397
 C529 C 0.86174 -0.13542 0.73374
 C530 C 0.91956 -0.07679 0.58980
 C531 C 0.89893 -0.09692 0.66784
 C532 C 0.88714 -0.10904 0.68860
 C533 C 0.87341 -0.12327 0.71292
 C534 C 0.94149 -0.05508 0.59454
 H535 H 0.88879 -0.10719 0.60982
 H536 H 0.94080 -0.05463 0.67052
 H537 H 0.96558 -0.03058 0.62847
 H538 H 0.91334 -0.08338 0.56748
 C539 C 1.09589 -0.09529 0.38671
 C540 C 1.08817 -0.08745 0.35757
 C541 C 1.06693 -0.06533 0.35264
 C542 C 1.05348 -0.05102 0.37672
 C543 C 1.13858 -0.14019 0.26618
 C544 C 1.08247 -0.08102 0.41085
 C545 C 1.10208 -0.10203 0.33273
 C546 C 1.11367 -0.11414 0.31183
 C547 C 1.12716 -0.12822 0.28726
 C548 C 1.06112 -0.05867 0.40614
 H549 H 1.11231 -0.11240 0.39076
 H550 H 1.06078 -0.05910 0.33017
 H551 H 1.03712 -0.03396 0.37224
 H552 H 1.08888 -0.08748 0.43317
 C553 C 0.93886 0.07099 0.35257
 C554 C 0.91709 0.09258 0.35752
 C555 C 0.90923 0.10024 0.38666
 C556 C 0.92296 0.08624 0.41079
 C557 C 0.86348 0.14225 0.26619
 C558 C 0.95263 0.05695 0.37664
 C559 C 0.90253 0.10655 0.33269
 C560 C 0.89026 0.11802 0.31180
 C561 C 0.87583 0.13119 0.28725
 C562 C 0.94475 0.06433 0.40607
 H563 H 0.94511 0.06489 0.33010
 H564 H 0.89238 0.11692 0.39073
 H565 H 0.91637 0.09247 0.43311
 H566 H 0.96933 0.04024 0.37216
 C567 C 0.06618 0.35269 -0.06623
 C568 C 0.08801 0.35757 -0.08780
 C569 C 0.09551 0.38660 -0.09587
 C570 C 0.08118 0.41070 -0.08251
 C571 C 0.14034 0.26629 -0.13863
 C572 C 0.05181 0.37673 -0.05284
 C573 C 0.10253 0.33276 -0.10177
 C574 C 0.11456 0.31189 -0.11345
 C575 C 0.12851 0.28735 -0.12707
 C576 C 0.05908 0.40605 -0.06089
 H577 H 0.06021 0.33030 -0.05981
 H578 H 0.11239 0.39060 -0.11255
 H579 H 0.08735 0.43293 -0.08923
 H580 H 0.03496 0.37230 -0.03625
 C581 C -0.07068 0.35294 0.06122
 C582 C -0.09247 0.35788 0.08283
 C583 C -0.10041 0.38694 0.09046
 C584 C -0.08650 0.41100 0.07667
 C585 C -0.14181 0.26675 0.13654
 C586 C -0.05673 0.37694 0.04740
 C587 C -0.10636 0.33311 0.09743
 C588 C -0.11776 0.31227 0.10973
 C589 C -0.13084 0.28777 0.12417
 C590 C -0.06439 0.40629 0.05505
 H591 H -0.06437 0.33053 0.05515
 H592 H -0.11725 0.39099 0.10717
 H593 H -0.09295 0.43326 0.08309
 H594 H -0.03986 0.37247 0.03084
 C595 C -0.06675 0.64757 -0.07109
 C596 C -0.08811 0.64285 -0.09317
 C597 C -0.09583 0.61386 -0.10122
 C598 C -0.08233 0.58966 -0.08717
 C599 C -0.13924 0.73505 -0.14362
 C600 C -0.05322 0.62344 -0.05700
 C601 C -0.10223 0.66779 -0.10735
 C602 C -0.11398 0.68885 -0.11898
 C603 C -0.12765 0.71369 -0.13236
 C604 C -0.06090 0.59416 -0.06482
 H605 H -0.06061 0.66992 -0.06469
 H606 H -0.11236 0.60997 -0.11829
 H607 H -0.08876 0.56746 -0.09374
 H608 H -0.03681 0.62777 -0.03994
 C609 C 0.06057 0.64699 0.06601
 C610 C 0.08212 0.64192 0.08785
 C611 C 0.08990 0.61282 0.09548
 C612 C 0.07630 0.58885 0.08123
 C613 C 0.13481 0.73239 0.13945
 C614 C 0.04694 0.62307 0.05171
 C615 C 0.09645 0.66658 0.10219
 C616 C 0.10853 0.68728 0.11407
 C617 C 0.12271 0.71157 0.12782
 C618 C 0.05473 0.59369 0.05908
 H619 H 0.05439 0.66944 0.05993
 H620 H 0.10656 0.60866 0.11236
 H621 H 0.08282 0.56655 0.08747
 H622 H 0.03041 0.62764 0.03482
 C623 C 0.38699 1.09526 0.90898
 C624 C 0.35795 1.08745 0.91660
 C625 C 0.35298 1.06544 0.93799
 C626 C 0.37693 1.05119 0.95165
 C627 C 0.26736 1.13939 0.86426
 C628 C 0.41101 1.08105 0.92261
 C629 C 0.33326 1.10185 0.90233
 C630 C 0.31253 1.11380 0.89034
 C631 C 0.28820 1.12766 0.87627
 C632 C 0.40626 1.05878 0.94407
 H633 H 0.39108 1.11227 0.89244
 H634 H 0.33057 1.05923 0.94405
 H635 H 0.37244 1.03420 0.96809
 H636 H 0.43325 1.08746 0.91625
 C637 C 0.35280 0.92890 1.06594
 C638 C 0.35761 0.90725 1.08774
 C639 C 0.38660 0.89965 1.09590
 C640 C 0.41072 0.91375 1.08241
 C641 C 0.26583 0.85697 1.13930
 C642 C 0.37684 0.94303 1.05243
 C643 C 0.33276 0.89309 1.10192
 C644 C 0.31180 0.88149 1.11376
 C645 C 0.28708 0.86816 1.12757
 C646 C 0.40612 0.93570 1.06057
 H647 H 0.33044 0.93494 1.05946
 H648 H 0.39057 0.88292 1.11277
 H649 H 0.43292 0.90755 1.08921
 H650 H 0.37245 0.95977 1.03568
 C651 C 0.64704 1.06081 1.07149
 C652 C 0.64212 1.08270 1.09302
 C653 C 0.61310 1.09067 1.10064
 C654 C 0.58905 1.07696 1.08664
 C655 C 0.73325 1.13620 1.14248
 C656 C 0.62305 1.04706 1.05745
 C657 C 0.66688 1.09725 1.10696
 C658 C 0.68771 1.10951 1.11838
 C659 C 0.71222 1.12390 1.13148
 C660 C 0.59374 1.05507 1.06477
 H661 H 0.66942 1.05447 1.06543
 H662 H 0.60906 1.10761 1.11728
 H663 H 0.56681 1.08366 1.09283
 H664 H 0.62751 1.03029 1.04077
 C665 C 0.64723 0.93448 0.93362
 C666 C 0.64239 0.91281 0.91186
 C667 C 0.61340 0.90467 0.90436
 C668 C 0.58930 0.91806 0.91865
 C669 C 0.73377 0.86211 0.85972
 C670 C 0.62320 0.94790 0.94795
 C671 C 0.66720 0.89882 0.89738
 C672 C 0.68809 0.88715 0.88540
 C673 C 0.71267 0.87359 0.87151
 C674 C 0.59392 0.93979 0.94069
 H675 H 0.66959 0.94096 0.93957
 H676 H 0.60942 0.88791 0.88754
 H677 H 0.56710 0.91128 0.91251
 H678 H 0.62760 0.96456 0.96475
   
