data_POSCAR
  _audit_creation_date              2014-09-24
  _audit_creation_method            'ToBaCCo'
  _symmetry_space_group_name_H-M    'P1'
  _symmetry_Int_Tables_number       1
  _symmetry_cell_setting            triclinic
  loop_
  _symmetry_equiv_pos_as_xyz
 x,y,z
_cell_length_a 27.4307
_cell_length_b 27.4271
_cell_length_c 47.5760
_cell_angle_alpha 90.751100
_cell_angle_beta 93.153200
_cell_angle_gamma 93.042000
loop_
  _atom_site_label
  _atom_site_type_symbol
  _atom_site_fract_x
  _atom_site_fract_y
  _atom_site_fract_z
C1 C -0.02264 0.34968 0.98358
 C2 C -0.02864 0.34993 1.01196
 C3 C -0.01445 0.39664 1.02194
 N4 N -0.00068 0.42508 1.00047
 C5 C -0.00579 0.39639 0.97701
 C6 C -0.01219 0.41155 1.05066
 C7 C -0.00724 0.46149 1.05921
 C8 C 0.00860 0.47786 1.08606
 C9 C 0.00847 0.52785 1.08601
 C10 C -0.00749 0.54107 1.05912
 N11 N -0.01684 0.50033 1.04283
 C12 C -0.01284 0.58998 1.05045
 C13 C -0.01457 0.60305 1.02167
 C14 C -0.02931 0.64738 1.01135
 C15 C -0.02244 0.64683 0.98307
 C16 C -0.00457 0.60190 0.97688
 N17 N 0.00028 0.57512 1.00048
 C18 C 0.00934 0.58750 0.95003
 C19 C 0.01931 0.53910 0.94298
 C20 C 0.04026 0.52491 0.91850
 C21 C 0.03970 0.47473 0.91846
 C22 C 0.01860 0.45980 0.94297
 N23 N 0.00610 0.49923 0.95770
 C24 C 0.00767 0.41082 0.95002
 H25 H -0.02977 0.31858 0.96944
 H26 H -0.04186 0.31911 1.02389
 H27 H -0.01558 0.49870 0.97493
 H28 H 0.02019 0.45612 1.10378
 H29 H 0.01998 0.55179 1.10367
 H30 H -0.04357 0.67714 1.02299
 H31 H -0.02998 0.67606 0.96866
 H32 H 0.05255 0.45188 0.90200
 H33 H -0.03268 0.49895 1.02243
 H34 H 0.05365 0.54822 0.90211
 C35 C 0.34790 -0.01895 0.48720
 C36 C 0.35158 -0.02167 0.51601
 C37 C 0.39983 -0.00878 0.52430
 N38 N 0.42552 0.00237 0.50162
 C39 C 0.39388 -0.00387 0.47890
 C40 C 0.41837 -0.00295 0.55246
 C41 C 0.46869 0.00518 0.56011
 C42 C 0.48737 0.02258 0.58621
 C43 C 0.53741 0.02278 0.58574
 C44 C 0.54810 0.00436 0.55958
 N45 N 0.50588 -0.00593 0.54401
 C46 C 0.59581 -0.00378 0.55091
 C47 C 0.60503 -0.00995 0.52205
 C48 C 0.64635 -0.02977 0.51198
 C49 C 0.64249 -0.02638 0.48326
 C50 C 0.59864 -0.00531 0.47666
 N51 N 0.57564 0.00460 0.50035
 C52 C 0.58192 0.00719 0.44925
 C53 C 0.53297 0.01801 0.44252
 C54 C 0.51642 0.03966 0.41787
 C55 C 0.46631 0.03934 0.41832
 C56 C 0.45374 0.01759 0.44326
 N57 N 0.49460 0.00480 0.45791
 C58 C 0.40535 0.00716 0.45102
 H59 H 0.31494 -0.02650 0.47396
 H60 H 0.32192 -0.03137 0.52930
 H61 H 0.49589 -0.01706 0.47561
 H62 H 0.46716 0.03408 0.60381
 H63 H 0.56294 0.03519 0.60281
 H64 H 0.67616 -0.04529 0.52405
 H65 H 0.66878 -0.03839 0.46886
 H66 H 0.44188 0.05310 0.40200
 H67 H 0.50246 -0.02431 0.52466
 H68 H 0.53811 0.05359 0.40112
 C69 C 0.07054 0.04060 0.26974
 H70 H 0.06665 0.06787 0.25378
 C71 C 0.11322 0.04192 0.28726
 H72 H 0.14119 0.07062 0.28469
 C73 C 0.04106 -0.03165 0.29116
 H74 H 0.01379 -0.06118 0.29213
 C75 C 0.08297 -0.03165 0.30915
 H76 H 0.08622 -0.06037 0.32442
 N77 N 0.03474 0.00488 0.27245
 C78 C -0.06437 -0.08828 0.22583
 H79 H -0.09530 -0.08339 0.23848
 C80 C -0.06408 -0.12927 0.20804
 H81 H -0.09477 -0.15587 0.20719
 C82 C 0.01262 -0.05913 0.21066
 H83 H 0.04231 -0.03147 0.21182
 C84 C 0.01396 -0.09895 0.19225
 H85 H 0.04498 -0.10204 0.17933
 Zn86 Zn -0.02469 0.00309 0.24941
 N87 N -0.02634 -0.05422 0.22674
 C88 C -0.03819 0.05048 0.19750
 N89 N -0.02612 0.05811 0.22537
 C90 C -0.01633 0.10406 0.23606
 C91 C -0.01547 0.14420 0.21826
 C92 C -0.03895 0.08960 0.17907
 C93 C -0.08882 -0.03476 0.28991
 C94 C -0.12801 -0.03441 0.30740
 C95 C -0.14958 0.04264 0.28769
 C96 C -0.10981 0.04092 0.27065
 N97 N -0.07983 0.00292 0.27226
 H98 H -0.04774 0.01400 0.18948
 H99 H -0.00824 0.10947 0.25843
 H100 H -0.00530 0.18000 0.22720
 H101 H -0.04953 0.08234 0.15711
 H102 H -0.06610 -0.06563 0.29028
 H103 H -0.13356 -0.06430 0.32172
 H104 H -0.17300 0.07313 0.28590
 H105 H -0.10306 0.07013 0.25616
 C106 C -0.02480 -0.13450 0.19075
 C107 C 0.11960 0.00577 0.30757
 C108 C -0.15887 0.00484 0.30660
 C109 C -0.02643 0.13730 0.18919
 C110 C 0.02076 0.09528 0.76439
 H111 H 0.01805 0.09927 0.74178
 C112 C 0.02047 0.13656 0.78189
 H113 H 0.01882 0.17221 0.77250
 C114 C 0.02555 0.04392 0.80395
 H115 H 0.02656 0.00780 0.81260
 C116 C 0.02508 0.08411 0.82219
 H117 H 0.02562 0.07812 0.84465
 N118 N 0.02404 0.05007 0.77559
 C119 C 0.09270 -0.04579 0.71742
 H120 H 0.07201 -0.07943 0.72136
 C121 C 0.13208 -0.04640 0.70004
 H122 H 0.14098 -0.08050 0.69034
 C123 C 0.10626 0.03944 0.72520
 H124 H 0.09675 0.07280 0.73521
 C125 C 0.14554 0.04057 0.70770
 H126 H 0.16566 0.07490 0.70444
 Zn127 Zn 0.02413 -0.00575 0.75130
 N128 N 0.08002 -0.00317 0.72926
 C129 C -0.03693 -0.04073 0.70490
 N130 N -0.03341 -0.00875 0.72710
 C131 C -0.07034 0.02085 0.73214
 C132 C -0.11227 0.01989 0.71407
 C133 C -0.07817 -0.04286 0.68628
 C134 C 0.06689 -0.07014 0.78945
 C135 C 0.06862 -0.11007 0.80730
 C136 C -0.01367 -0.13535 0.79039
 C137 C -0.01402 -0.09463 0.77307
 N138 N 0.02569 -0.06274 0.77319
 H139 H -0.00764 -0.06455 0.70151
 H140 H -0.06743 0.04532 0.75019
 H141 H -0.14072 0.04453 0.71810
 H142 H -0.08024 -0.06859 0.66875
 H143 H 0.09803 -0.04430 0.78898
 H144 H 0.10142 -0.11508 0.82043
 H145 H -0.04602 -0.15973 0.79060
 H146 H -0.04640 -0.08796 0.76001
 C147 C 0.15856 -0.00266 0.69468
 C148 C 0.02286 0.13130 0.81126
 C149 C 0.02777 -0.14300 0.80810
 C150 C -0.11637 -0.01196 0.69061
 C151 C -0.01798 -0.29601 0.11155
 C152 C 0.01490 -0.29239 0.08992
 C153 C 0.01663 -0.32986 0.06996
 C154 C -0.01394 -0.37257 0.07123
 C155 C -0.04560 -0.37703 0.09348
 C156 C -0.04795 -0.33903 0.11321
 C157 C -0.02114 -0.25473 0.13195
 C158 C -0.03096 -0.26323 0.16028
 C159 C -0.03307 -0.22417 0.17934
 C160 C -0.02461 -0.17596 0.17057
 C161 C -0.01521 -0.16732 0.14235
 C162 C -0.01396 -0.20616 0.12321
 H163 H 0.04266 -0.32582 0.05371
 H164 H -0.06994 -0.40920 0.09499
 H165 H -0.04010 -0.23164 0.20109
 H166 H -0.00932 -0.13035 0.13503
 H167 H -0.07415 -0.34297 0.12933
 H168 H -0.03604 -0.30005 0.16791
 H169 H 0.03974 -0.26064 0.08845
 H170 H -0.00770 -0.19797 0.10147
 C171 C -0.01537 0.29962 0.11164
 C172 C -0.04664 0.33858 0.11304
 C173 C -0.04471 0.37620 0.09347
 C174 C -0.01240 0.37513 0.07152
 C175 C 0.01949 0.33671 0.07050
 C176 C 0.01842 0.29989 0.09043
 C177 C -0.01848 0.25830 0.13169
 C178 C -0.00844 0.21082 0.12300
 C179 C -0.01055 0.17205 0.14166
 C180 C -0.02407 0.17914 0.16945
 C181 C -0.03481 0.22649 0.17810
 C182 C -0.03162 0.26559 0.15956
 H183 H -0.06999 0.40509 0.09476
 H184 H 0.04594 0.33560 0.05443
 H185 H -0.00099 0.13655 0.13422
 H186 H -0.04609 0.23348 0.19914
 H187 H 0.04437 0.27168 0.08917
 H188 H 0.00076 0.20324 0.10161
 H189 H -0.07364 0.33948 0.12875
 H190 H -0.03904 0.30161 0.16724
 C191 C 0.31227 -0.00197 0.61573
 C192 C 0.32785 -0.04639 0.60513
 C193 C 0.36305 -0.04667 0.58498
 C194 C 0.38296 -0.00264 0.57488
 C195 C 0.36790 0.04172 0.58541
 C196 C 0.33315 0.04209 0.60580
 C197 C 0.27362 -0.00159 0.63651
 C198 C 0.23861 0.03412 0.63529
 C199 C 0.20178 0.03410 0.65444
 C200 C 0.19871 -0.00191 0.67505
 C201 C 0.23359 -0.03760 0.67638
 C202 C 0.27080 -0.03729 0.65743
 H203 H 0.37413 -0.08120 0.57684
 H204 H 0.38304 0.07601 0.57777
 H205 H 0.17491 0.06161 0.65269
 H206 H 0.23233 -0.06547 0.69229
 H207 H 0.32274 0.07693 0.61381
 H208 H 0.23895 0.06155 0.61914
 H209 H 0.31204 -0.08098 0.61190
 H210 H 0.29760 -0.06482 0.65933
 C211 C -0.28415 -0.00751 0.61130
 C212 C -0.32892 -0.03245 0.61610
 C213 C -0.36860 -0.03094 0.59641
 C214 C -0.36449 -0.00445 0.57138
 C215 C -0.31969 0.02113 0.56697
 C216 C -0.28015 0.01957 0.58662
 C217 C -0.24151 -0.00988 0.63176
 C218 C -0.19436 -0.01458 0.62223
 C219 C -0.15395 -0.01572 0.64133
 C220 C -0.15968 -0.01217 0.67044
 C221 C -0.20689 -0.00794 0.68002
 C222 C -0.24739 -0.00691 0.66089
 H223 H -0.40205 -0.05191 0.60036
 H224 H -0.31545 0.04321 0.54846
 H225 H -0.11803 -0.01849 0.63327
 H226 H -0.21254 -0.00564 0.70233
 H227 H -0.24648 0.04009 0.58263
 H228 H -0.18872 -0.01756 0.59994
 H229 H -0.33293 -0.05411 0.63478
 H230 H -0.28320 -0.00292 0.66886
 C231 C 0.02136 -0.30100 0.88773
 C232 C 0.05814 -0.30473 0.90932
 C233 C 0.05431 -0.34114 0.92946
 C234 C 0.01397 -0.37475 0.92822
 C235 C -0.02240 -0.37187 0.90656
 C236 C -0.01888 -0.33520 0.88654
 C237 C 0.02437 -0.26097 0.86698
 C238 C 0.00762 -0.26897 0.83872
 C239 C 0.00901 -0.23081 0.81953
 C240 C 0.02765 -0.18397 0.82809
 C241 C 0.04503 -0.17606 0.85618
 C242 C 0.04320 -0.21403 0.87543
 H243 H 0.08277 -0.34315 0.94606
 H244 H -0.05387 -0.39755 0.90547
 H245 H -0.00414 -0.23799 0.79791
 H246 H 0.05887 -0.14010 0.86344
 H247 H -0.04823 -0.33299 0.87052
 H248 H -0.00630 -0.30482 0.83136
 H249 H 0.09002 -0.27962 0.91060
 H250 H 0.05550 -0.20624 0.89711
 C251 C 0.01710 0.29659 0.88819
 C252 C -0.02770 0.31779 0.89216
 C253 C -0.03054 0.35551 0.91193
 C254 C 0.01122 0.37245 0.92817
 C255 C 0.05605 0.35195 0.92416
 C256 C 0.05904 0.31447 0.90426
 C257 C 0.01974 0.25512 0.86797
 C258 C 0.04937 0.21613 0.87457
 C259 C 0.05085 0.17642 0.85603
 C260 C 0.02249 0.17448 0.83047
 C261 C -0.00678 0.21369 0.82370
 C262 C -0.00806 0.25358 0.84221
 H263 H -0.06544 0.37095 0.91497
 H264 H 0.08859 0.36487 0.93656
 H265 H 0.07435 0.14721 0.86172
 H266 H -0.02947 0.21318 0.80434
 H267 H 0.09423 0.29955 0.90142
 H268 H 0.07079 0.21579 0.89437
 H269 H -0.06082 0.30444 0.88048
 H270 H -0.03081 0.28327 0.83630
 C271 C -0.31296 0.01029 0.38517
 C272 C -0.35603 -0.01996 0.38191
 C273 C -0.39043 -0.02056 0.40253
 C274 C -0.38258 0.00926 0.42671
 C275 C -0.34015 0.04018 0.42979
 C276 C -0.30561 0.04057 0.40929
 C277 C -0.27515 0.00931 0.36397
 C278 C -0.24872 0.05235 0.35697
 C279 C -0.21148 0.05099 0.33811
 C280 C -0.19992 0.00658 0.32568
 C281 C -0.22707 -0.03630 0.33222
 C282 C -0.26412 -0.03498 0.35119
 H283 H -0.42297 -0.04468 0.39981
 H284 H -0.33350 0.06349 0.44831
 H285 H -0.19102 0.08464 0.33378
 H286 H -0.21964 -0.07102 0.32272
 H287 H -0.27257 0.06376 0.41269
 H288 H -0.25671 0.08718 0.36612
 H289 H -0.36318 -0.04318 0.36341
 H290 H -0.28336 -0.06891 0.35632
 C291 C 0.28747 0.00985 0.38745
 C292 C 0.32509 -0.02264 0.38504
 C293 C 0.36338 -0.02326 0.40562
 C294 C 0.36498 0.00871 0.42894
 C295 C 0.32809 0.04184 0.43119
 C296 C 0.28958 0.04228 0.41071
 C297 C 0.24564 0.00910 0.36616
 C298 C 0.22475 0.05266 0.35771
 C299 C 0.18432 0.05165 0.33844
 C300 C 0.16390 0.00707 0.32710
 C301 C 0.18536 -0.03640 0.33517
 C302 C 0.22560 -0.03540 0.35452
 H303 H 0.39171 -0.04889 0.40348
 H304 H 0.32889 0.06696 0.44899
 H305 H 0.16842 0.08576 0.33289
 H306 H 0.17103 -0.07131 0.32655
 H307 H 0.26094 0.06732 0.41341
 H308 H 0.23967 0.08762 0.36598
 H309 H 0.32506 -0.04750 0.36717
 H310 H 0.24040 -0.06968 0.36077
   
