data_POSCAR
  _audit_creation_date              2014-09-24
  _audit_creation_method            'ToBaCCo'
  _symmetry_space_group_name_H-M    'P1'
  _symmetry_Int_Tables_number       1
  _symmetry_cell_setting            triclinic
  loop_
  _symmetry_equiv_pos_as_xyz
 x,y,z
_cell_length_a 46.9267
_cell_length_b 45.6746
_cell_length_c 45.0976
_cell_angle_alpha 91.634200
_cell_angle_beta 89.627600
_cell_angle_gamma 93.263600
loop_
  _atom_site_label
  _atom_site_type_symbol
  _atom_site_fract_x
  _atom_site_fract_y
  _atom_site_fract_z
C1 C 0.26915 0.45153 0.99433
 C2 C 0.24786 0.44802 1.01977
 C3 C 0.23212 0.47311 1.02578
 C4 C 0.23976 0.49843 1.00474
 C5 C 0.25147 0.45976 0.96792
 C6 C 0.23548 0.48498 0.97333
 C7 C 0.28766 0.47904 1.00222
 C8 C 0.27210 0.50434 1.00800
 H9 H 0.24518 0.42817 1.03233
 H10 H 0.22774 0.51838 1.00864
 H11 H 0.25085 0.44676 0.94752
 H12 H 0.31070 0.47931 1.00107
 C13 C 0.74738 0.54204 -0.01195
 C14 C 0.76429 0.54117 0.01666
 C15 C 0.78049 0.51616 0.01892
 C16 C 0.77764 0.49519 -0.00839
 C17 C 0.76955 0.53965 -0.03660
 C18 C 0.78607 0.51449 -0.03483
 C19 C 0.72951 0.51330 -0.01379
 C20 C 0.74549 0.48794 -0.01230
 H21 H 0.76540 0.55907 0.03299
 H22 H 0.79014 0.47536 -0.00733
 H23 H 0.77270 0.55640 -0.05291
 H24 H 0.70646 0.51282 -0.01468
 C25 C 0.04733 0.22832 0.49772
 C26 C 0.04320 0.24696 0.47284
 C27 C 0.01629 0.26025 0.47264
 C28 C -0.00277 0.25156 0.49927
 C29 C 0.04270 0.24748 0.52545
 C30 C 0.01574 0.26031 0.52639
 C31 C 0.02222 0.20570 0.49701
 C32 C -0.00479 0.21782 0.49808
 H33 H 0.05993 0.25113 0.45666
 H34 H -0.02364 0.26182 0.49951
 H35 H 0.05927 0.25155 0.54181
 H36 H 0.02485 0.18227 0.49551
 C37 C 0.93251 0.77559 0.49250
 C38 C 0.93723 0.75203 0.46859
 C39 C 0.96387 0.73874 0.47099
 C40 C 0.98202 0.75120 0.49722
 C41 C 0.93607 0.76032 0.52175
 C42 C 0.96245 0.74705 0.52453
 C43 C 0.95822 0.79717 0.49005
 C44 C 0.98482 0.78450 0.49260
 H45 H 0.92136 0.74609 0.45191
 H46 H 1.00265 0.74082 0.49862
 H47 H 0.91922 0.75832 0.53824
 H48 H 0.95630 0.82026 0.48599
 C49 C 0.48843 0.04559 0.23379
 C50 C 0.46111 0.04049 0.25204
 C51 C 0.46029 0.01430 0.26840
 C52 C 0.48711 -0.00291 0.26389
 C53 C 0.51261 0.04492 0.25626
 C54 C 0.51209 0.01867 0.27253
 C55 C 0.49044 0.01963 0.21489
 C56 C 0.48991 -0.00733 0.23019
 H57 H 0.44413 0.05550 0.25190
 H58 H 0.48661 -0.02366 0.27627
 H59 H 0.52815 0.06312 0.25935
 H60 H 0.49107 0.02101 0.19099
 C61 C 0.48473 -0.05344 0.77561
 C62 C 0.46143 -0.05140 0.75256
 C63 C 0.46449 -0.02583 0.73530
 C64 C 0.49076 -0.00586 0.74376
 C65 C 0.51262 -0.05119 0.75810
 C66 C 0.51611 -0.02576 0.74091
 C67 C 0.48419 -0.02507 0.79406
 C68 C 0.48752 0.00068 0.77713
 H69 H 0.44364 -0.06745 0.75088
 H70 H 0.49270 0.01434 0.73070
 H71 H 0.52805 -0.06797 0.75807
 H72 H 0.48310 -0.02512 0.81801
 C73 C 0.28083 0.01167 0.46811
 H74 H 0.28113 0.02685 0.48698
 C75 C 0.29794 0.01784 0.44350
 H76 H 0.31142 0.03790 0.44344
 C77 C 0.26279 -0.03298 0.44534
 H78 H 0.24909 -0.05278 0.44631
 C79 C 0.28016 -0.02797 0.42043
 H80 H 0.27936 -0.04378 0.40207
 N81 N 0.26330 -0.01305 0.46837
 C82 C 0.20417 0.01777 0.53538
 H83 H 0.20558 0.00138 0.55208
 C84 C 0.18729 0.04167 0.54050
 H85 H 0.17578 0.04359 0.56130
 C86 C 0.21689 0.03479 0.48772
 H87 H 0.22770 0.03159 0.46677
 C88 C 0.20021 0.05891 0.49184
 H89 H 0.19867 0.07371 0.47374
 Zn90 Zn 0.24122 -0.01793 0.50317
 N91 N 0.21896 0.01506 0.50952
 C92 C 0.27226 0.00031 0.55532
 N93 N 0.26765 -0.02119 0.53414
 C94 C 0.28360 -0.04510 0.53288
 C95 C 0.30447 -0.04866 0.55409
 C96 C 0.29341 -0.00202 0.57669
 C97 C 0.19641 -0.05265 0.47790
 C98 C 0.17586 -0.07592 0.47530
 C99 C 0.19572 -0.09690 0.51861
 C100 C 0.21578 -0.07313 0.52042
 N101 N 0.21582 -0.05164 0.50016
 H102 H 0.25994 0.01958 0.55539
 H103 H 0.28003 -0.06146 0.51528
 H104 H 0.31666 -0.06812 0.55274
 H105 H 0.29618 0.01535 0.59336
 H106 H 0.19675 -0.03511 0.46226
 H107 H 0.16109 -0.07568 0.45710
 H108 H 0.19596 -0.11356 0.53523
 H109 H 0.23081 -0.07160 0.53850
 C110 C 0.18533 0.06279 0.51870
 C111 C 0.29786 -0.00215 0.41941
 C112 C 0.17500 -0.09845 0.49614
 C113 C 0.30994 -0.02688 0.57626
 C114 C 0.69124 0.04499 0.53843
 H115 H 0.69311 0.06164 0.52184
 C116 C 0.67039 0.04648 0.56058
 H117 H 0.65637 0.06452 0.56103
 C118 C 0.70659 0.00066 0.55726
 H119 H 0.72015 -0.01763 0.55538
 C120 C 0.68600 0.00124 0.57971
 H121 H 0.68423 -0.01689 0.59460
 N122 N 0.70893 0.02241 0.53728
 C123 C 0.78199 0.05348 0.48449
 H124 H 0.78225 0.03561 0.46823
 C125 C 0.80270 0.07655 0.48342
 H126 H 0.81843 0.07635 0.46580
 C127 C 0.76036 0.07541 0.52655
 H128 H 0.74403 0.07470 0.54354
 C129 C 0.78075 0.09898 0.52632
 H130 H 0.77988 0.11633 0.54312
 Zn131 Zn 0.73486 0.02043 0.50509
 N132 N 0.76130 0.05334 0.50571
 C133 C 0.71664 0.04145 0.45025
 N134 N 0.71289 0.01967 0.47004
 C135 C 0.69175 -0.00173 0.46654
 C136 C 0.67321 -0.00173 0.44242
 C137 C 0.69870 0.04230 0.42580
 C138 C 0.75516 -0.03489 0.48566
 C139 C 0.77219 -0.05897 0.48754
 C140 C 0.79119 -0.03823 0.53367
 C141 C 0.77393 -0.01462 0.53082
 N142 N 0.75625 -0.01342 0.50722
 H143 H 0.73304 0.05873 0.45374
 H144 H 0.68895 -0.01852 0.48293
 H145 H 0.65657 -0.01900 0.44079
 H146 H 0.70195 0.06015 0.41059
 H147 H 0.74136 -0.03325 0.46678
 H148 H 0.77066 -0.07545 0.46991
 H149 H 0.80508 -0.03855 0.55275
 H150 H 0.77467 0.00297 0.54744
 C151 C 0.80248 0.09954 0.50481
 C152 C 0.66754 0.02447 0.58163
 C153 C 0.79071 -0.06087 0.51186
 C154 C 0.67631 0.02081 0.42169
 C155 C 0.50379 0.23966 1.04893
 H156 H 0.48776 0.25569 1.04882
 C157 C 0.50671 0.22280 1.07396
 H158 H 0.49331 0.22685 1.09305
 C159 C 0.54042 0.21492 1.02406
 H160 H 0.55315 0.21171 1.00426
 C161 C 0.54408 0.19761 1.04859
 H162 H 0.55978 0.18112 1.04760
 N163 N 0.52051 0.23541 1.02461
 C164 C 0.46024 0.27515 0.97641
 H165 H 0.45901 0.25729 0.96018
 C166 C 0.43712 0.29290 0.98003
 H167 H 0.41822 0.28783 0.96687
 C168 C 0.48623 0.30283 1.01348
 H169 H 0.50551 0.30651 1.02641
 C170 C 0.46359 0.32107 1.01789
 H171 H 0.46556 0.33882 1.03432
 Zn172 Zn 0.51513 0.25555 0.98918
 N173 N 0.48402 0.28011 0.99333
 C174 C 0.48603 0.20603 0.96603
 N175 N 0.50716 0.22637 0.95940
 C176 C 0.52242 0.22435 0.93375
 C177 C 0.51650 0.20105 0.91347
 C178 C 0.47948 0.18243 0.94659
 C179 C 0.54720 0.29686 0.95628
 C180 C 0.57009 0.31661 0.94998
 C181 C 0.59492 0.29956 0.99238
 C182 C 0.57144 0.28026 0.99792
 N183 N 0.54819 0.27931 0.98000
 H184 H 0.47449 0.20800 0.98677
 H185 H 0.53951 0.24049 0.92920
 H186 H 0.52937 0.19996 0.89358
 H187 H 0.46270 0.16639 0.95266
 H188 H 0.52828 0.29597 0.94262
 H189 H 0.56853 0.33076 0.93124
 H190 H 0.61258 0.30001 1.00763
 H191 H 0.57160 0.26663 1.01708
 C192 C 0.43863 0.31624 1.00107
 C193 C 0.52676 0.20104 1.07375
 C194 C 0.59434 0.31850 0.96828
 C195 C 0.49482 0.17943 0.91993
 C196 C 0.48150 0.77365 -0.01968
 H197 H 0.46427 0.77489 -0.00373
 C198 C 0.48171 0.79075 -0.04488
 H199 H 0.46449 0.80510 -0.04800
 C200 C 0.52610 0.75531 -0.03337
 H201 H 0.54396 0.74250 -0.02829
 C202 C 0.52727 0.77218 -0.05865
 H203 H 0.54580 0.77168 -0.07308
 N204 N 0.50344 0.75630 -0.01446
 C205 C 0.47137 0.69563 0.05272
 H206 H 0.48871 0.69859 0.06840
 C207 C 0.44911 0.67479 0.05771
 H208 H 0.44941 0.66172 0.07736
 C209 C 0.45064 0.70820 0.00736
 H210 H 0.45178 0.72062 -0.01267
 C211 C 0.42782 0.68768 0.01157
 H212 H 0.41178 0.68455 -0.00551
 Zn213 Zn 0.50434 0.73735 0.02226
 N214 N 0.47178 0.71180 0.02787
 C215 C 0.52776 0.78861 0.04799
 N216 N 0.50667 0.76743 0.05177
 C217 C 0.48744 0.76928 0.07432
 C218 C 0.48898 0.79336 0.09422
 C219 C 0.52993 0.81315 0.06705
 C220 C 0.53953 0.69343 0.00250
 C221 C 0.56371 0.67701 0.00154
 C222 C 0.58062 0.70312 0.04597
 C223 C 0.55642 0.71952 0.04561
 N224 N 0.53674 0.71475 0.02377
 H225 H 0.54257 0.78669 0.02964
 H226 H 0.47046 0.75248 0.07653
 H227 H 0.47290 0.79435 0.11139
 H228 H 0.54667 0.82997 0.06319
 H229 H 0.52313 0.68962 -0.01415
 H230 H 0.56504 0.66027 -0.01574
 H231 H 0.59612 0.70740 0.06349
 H232 H 0.55340 0.73606 0.06278
 C233 C 0.42701 0.67055 0.03701
 C234 C 0.50500 0.79025 -0.06461
 C235 C 0.58497 0.68202 0.02334
 C236 C 0.51034 0.81600 0.09050
 C237 C 1.03860 0.47806 0.20603
 H238 H 1.02462 0.45839 0.20532
 C239 C 1.06132 0.48095 0.18609
 H240 H 1.06432 0.46339 0.16997
 C241 C 1.05003 0.52547 0.22682
 H242 H 1.04511 0.54299 0.24229
 C243 C 1.07300 0.52937 0.20705
 H244 H 1.08588 0.54982 0.20769
 N245 N 1.03352 0.49998 0.22604
 C246 C 0.98155 0.45127 0.29091
 H247 H 0.96195 0.46263 0.29051
 C248 C 0.98379 0.42736 0.30933
 H249 H 0.96552 0.42041 0.32259
 C250 C 1.02894 0.44680 0.27371
 H251 H 1.04672 0.45473 0.26029
 C252 C 1.03208 0.42287 0.29169
 H253 H 1.05225 0.41243 0.29160
 Zn254 Zn 1.00035 0.49351 0.24962
 N255 N 1.00389 0.46035 0.27343
 C256 C 0.95396 0.46176 0.21919
 N257 N 0.97007 0.48737 0.22222
 C258 C 0.96673 0.50987 0.20377
 C259 C 0.94591 0.50769 0.18184
 C260 C 0.93301 0.45843 0.19718
 C261 C 1.01389 0.53551 0.29547
 C262 C 1.00921 0.55914 0.31504
 C263 C 0.96302 0.56307 0.29268
 C264 C 0.96858 0.53943 0.27369
 N265 N 0.99381 0.52634 0.27513
 H266 H 0.95759 0.44377 0.23349
 H267 H 0.98051 0.52961 0.20606
 H268 H 0.94466 0.52603 0.16741
 H269 H 0.92038 0.43787 0.19510
 H270 H 1.03359 0.52438 0.29653
 H271 H 1.02580 0.56573 0.33072
 H272 H 0.94270 0.57305 0.29096
 H273 H 0.95244 0.53135 0.25810
 C274 C 1.00947 0.41290 0.30995
 C275 C 1.07901 0.50683 0.18655
 C276 C 0.98335 0.57339 0.31381
 C277 C 0.92834 0.48173 0.17836
 C278 C -0.01703 0.49538 0.78213
 H279 H -0.00331 0.47712 0.78175
 C280 C -0.04034 0.49562 0.80166
 H281 H -0.04444 0.47714 0.81579
 C282 C -0.02799 0.54150 0.76390
 H283 H -0.02284 0.55973 0.74974
 C284 C -0.05143 0.54263 0.78295
 H285 H -0.06429 0.56159 0.78281
 N286 N -0.01153 0.51794 0.76348
 C287 C 0.03983 0.48269 0.69133
 H288 H 0.05640 0.50015 0.69084
 C289 C 0.04139 0.45835 0.67220
 H290 H 0.05928 0.45714 0.65699
 C291 C -0.00322 0.46284 0.71233
 H292 H -0.02050 0.46467 0.72809
 C293 C -0.00272 0.43817 0.69319
 H294 H -0.01943 0.42096 0.69484
 Zn295 Zn 0.02067 0.51731 0.73779
 N296 N 0.01828 0.48412 0.71150
 C297 C 0.07025 0.49263 0.75891
 N298 N 0.05373 0.51605 0.76182
 C299 C 0.05919 0.53718 0.78324
 C300 C 0.08187 0.53502 0.80301
 C301 C 0.09326 0.48982 0.77775
 C302 C -0.00065 0.55213 0.69514
 C303 C -0.00213 0.57533 0.67593
 C304 C 0.04409 0.59420 0.69336
 C305 C 0.04439 0.57078 0.71277
 N306 N 0.02202 0.55053 0.71348
 H307 H 0.06526 0.47551 0.74250
 H308 H 0.04550 0.55541 0.78539
 H309 H 0.08537 0.55213 0.81983
 H310 H 0.10582 0.47072 0.77497
 H311 H -0.01774 0.53521 0.69555
 H312 H -0.02040 0.57520 0.66148
 H313 H 0.06210 0.61013 0.69310
 H314 H 0.06256 0.56867 0.72702
 C315 C 0.02012 0.43562 0.67314
 C316 C -0.05791 0.51959 0.80219
 C317 C 0.02035 0.59713 0.67495
 C318 C 0.09919 0.51078 0.80059
 C319 C 0.07547 0.21386 0.49732
 C320 C 0.08229 0.19529 0.51996
 C321 C 0.10549 0.17508 0.51732
 N322 N 0.10763 0.15398 0.53764
 N323 N 0.12729 0.13418 0.53462
 C324 C 0.14560 0.13479 0.51118
 N325 N 0.14371 0.15614 0.49107
 N326 N 0.12397 0.17589 0.49402
 C327 C 0.16646 0.11221 0.50665
 C328 C 0.16668 0.08755 0.52429
 H329 H 0.06833 0.19353 0.53914
 H330 H 0.18127 0.11497 0.48838
 H331 H 0.08875 0.21495 0.47758
 H332 H 0.15224 0.08612 0.54311
 C333 C 0.72919 0.56803 -0.01412
 C334 C 0.71244 0.57696 0.00979
 C335 C 0.68958 0.59727 0.00686
 N336 N 0.67703 0.60835 0.03159
 N337 N 0.65508 0.62538 0.02947
 C338 C 0.64470 0.63174 0.00252
 N339 N 0.65720 0.62061 -0.02223
 N340 N 0.67932 0.60375 -0.02012
 C341 C 0.61953 0.64920 -0.00005
 C342 C 0.60994 0.66644 0.02371
 H343 H 0.71527 0.56768 0.03133
 H344 H 0.60927 0.64901 -0.02144
 H345 H 0.72592 0.57694 -0.03577
 H346 H 0.62326 0.66878 0.04329
 C347 C 0.90478 -0.20951 0.48998
 C348 C 0.89719 -0.18861 0.51135
 C349 C 0.87394 -0.16880 0.50742
 N350 N 0.86955 -0.14768 0.52844
 N351 N 0.84969 -0.12843 0.52480
 C352 C 0.83341 -0.12953 0.49996
 N353 N 0.83761 -0.15083 0.47902
 N354 N 0.85754 -0.17010 0.48264
 C355 C 0.81213 -0.10755 0.49522
 C356 C 0.80905 -0.08392 0.51528
 H357 H 0.91016 -0.18530 0.53108
 H358 H 0.79971 -0.10992 0.47514
 H359 H 0.89254 -0.21246 0.46972
 H360 H 0.82238 -0.08297 0.53488
 C361 C 0.28664 0.42524 0.98865
 C362 C 0.30452 0.41569 1.01055
 C363 C 0.32641 0.39449 1.00447
 N364 N 0.34556 0.38929 1.02582
 N365 N 0.36646 0.37131 1.02038
 C366 C 0.36899 0.35783 0.99333
 N367 N 0.34967 0.36281 0.97204
 N368 N 0.32880 0.38087 0.97747
 C369 C 0.39234 0.33837 0.98680
 C370 C 0.41457 0.33534 1.00675
 H371 H 0.30393 0.42593 1.03250
 H372 H 0.39237 0.32720 0.96535
 H373 H 0.28752 0.41567 0.96643
 H374 H 0.41495 0.34839 1.02720
 C375 C 0.97052 0.19923 0.49712
 C376 C 0.94254 0.20796 0.49941
 C377 C 0.91848 0.18573 0.49751
 N378 N 0.89165 0.19246 0.50564
 N379 N 0.87019 0.17197 0.50453
 C380 C 0.87485 0.14408 0.49511
 N381 N 0.90154 0.13752 0.48670
 N382 N 0.92291 0.15790 0.48792
 C383 C 0.85196 0.12075 0.49386
 C384 C 0.82459 0.12404 0.50526
 H385 H 0.93806 0.23068 0.50353
 H386 H 0.85762 0.09965 0.48485
 H387 H 0.97361 0.17593 0.49482
 H388 H 0.81983 0.14448 0.51651
 C389 C 0.28483 0.53221 0.01484
 C390 C 0.31339 0.53629 0.02338
 C391 C 0.32873 0.56510 0.02646
 N392 N 0.35495 0.56689 0.03900
 N393 N 0.37055 0.59213 0.03993
 C394 C 0.36061 0.61657 0.02816
 N395 N 0.33426 0.61487 0.01570
 N396 N 0.31854 0.58957 0.01491
 C397 C 0.37887 0.64382 0.02702
 C398 C 0.40519 0.64639 0.04141
 H399 H 0.32549 0.51760 0.02836
 H400 H 0.37186 0.66152 0.01393
 H401 H 0.27188 0.55105 0.01418
 H402 H 0.41048 0.62937 0.05636
 C403 C 0.01005 -0.19807 0.48933
 C404 C 0.03761 -0.20717 0.49333
 C405 C 0.06238 -0.18655 0.48826
 N406 N 0.08782 -0.19020 0.50143
 N407 N 0.10974 -0.17065 0.49785
 C408 C 0.10702 -0.14693 0.48075
 N409 N 0.08178 -0.14367 0.46715
 N410 N 0.05988 -0.16303 0.47090
 C411 C 0.13028 -0.12425 0.47735
 C412 C 0.15402 -0.12184 0.49606
 H413 H 0.04125 -0.22858 0.50169
 H414 H 0.12686 -0.10789 0.46116
 H415 H 0.00784 -0.17537 0.48372
 H416 H 0.15550 -0.13837 0.51269
 C417 C 0.73337 0.45916 0.98519
 C418 C 0.70573 0.45304 0.97438
 C419 C 0.69089 0.42387 0.97382
 N420 N 0.66594 0.41991 0.95886
 N421 N 0.65063 0.39454 0.95969
 C422 C 0.65961 0.37211 0.97566
 N423 N 0.68471 0.37595 0.99052
 N424 N 0.70014 0.40138 0.98959
 C425 C 0.64140 0.34498 0.97873
 C426 C 0.61598 0.34030 0.96269
 H427 H 0.69407 0.47027 0.96501
 H428 H 0.64780 0.32954 0.99476
 H429 H 0.74629 0.44114 0.99052
 H430 H 0.61220 0.35539 0.94519
 C431 C 0.48885 0.07347 1.21667
 C432 C 0.51250 0.08284 1.19982
 C433 C 0.51182 0.10783 1.18006
 N434 N 0.53459 0.11472 1.16240
 N435 N 0.53377 0.13646 1.14341
 C436 C 0.51014 0.15213 1.14141
 N437 N 0.48748 0.14541 1.15927
 N438 N 0.48829 0.12366 1.17824
 C439 C 0.50820 0.17514 1.11948
 C440 C 0.52981 0.18115 1.09874
 H441 H 0.53158 0.07057 1.20013
 H442 H 0.48836 0.18599 1.11856
 H443 H 0.46955 0.08535 1.21583
 H444 H 0.54886 0.16885 1.09931
 C445 C -0.03263 0.72978 0.54897
 C446 C -0.00764 0.71545 0.55396
 C447 C -0.00634 0.69408 0.57780
 N448 N 0.01897 0.68365 0.58580
 N449 N 0.01993 0.66344 0.60653
 C450 C -0.00444 0.65281 0.61984
 N451 N -0.02966 0.66319 0.61176
 N452 N -0.03059 0.68348 0.59125
 C453 C -0.00448 0.62923 0.64141
 C454 C 0.02006 0.62105 0.65584
 H455 H 0.01113 0.71935 0.54032
 H456 H -0.02514 0.61904 0.64676
 H457 H -0.04990 0.72690 0.56490
 H458 H 0.03957 0.63458 0.65300
 C459 C 0.48087 0.91971 -0.20589
 C460 C 0.50216 0.91172 -0.18685
 C461 C 0.49763 0.88779 -0.16600
 N462 N 0.52002 0.87876 -0.15051
 N463 N 0.51619 0.85767 -0.13085
 C464 C 0.48979 0.84493 -0.12587
 N465 N 0.46737 0.85401 -0.14132
 N466 N 0.47123 0.87501 -0.16111
 C467 C 0.48520 0.82257 -0.10327
 C468 C 0.50808 0.81005 -0.08989
 H469 H 0.52275 0.92372 -0.18695
 H470 H 0.46349 0.81604 -0.09713
 H471 H 0.46012 0.90802 -0.20539
 H472 H 0.52944 0.81499 -0.09833
 C473 C 1.00814 0.27944 0.45259
 C474 C 1.02460 0.28822 0.42803
 C475 C 1.01622 0.31113 0.40803
 N476 N 1.03328 0.31833 0.38465
 N477 N 1.02675 0.33963 0.36676
 C478 C 1.00289 0.35461 0.37157
 N479 N 0.98573 0.34734 0.39489
 N480 N 0.99226 0.32599 0.41281
 C481 C 0.99597 0.37883 0.35239
 C482 C 1.01384 0.38756 0.32895
 H483 H 1.04462 0.27861 0.42298
 H484 H 0.97708 0.39042 0.35774
 H485 H 0.98766 0.28888 0.45589
 H486 H 1.03301 0.37584 0.32497
 C487 C 0.49127 0.96581 0.21737
 C488 C 0.49617 0.96071 0.18710
 C489 C 0.49658 0.93100 0.17384
 N490 N 0.50750 0.92720 0.14620
 N491 N 0.50758 0.90056 0.13346
 C492 C 0.49657 0.87672 0.14783
 N493 N 0.48543 0.88053 0.17543
 N494 N 0.48554 0.90719 0.18827
 C495 C 0.49570 0.84741 0.13337
 C496 C 0.51221 0.84191 0.10812
 H497 H 0.50106 0.97862 0.17243
 H498 H 0.48210 0.83036 0.14312
 H499 H 0.48906 0.94703 0.23151
 H500 H 0.52760 0.85915 0.10151
 C501 C 0.00732 0.28097 0.54789
 C502 C 0.02489 0.29176 0.57111
 C503 C 0.01777 0.31656 0.59075
 N504 N 0.03850 0.32985 0.60803
 N505 N 0.03314 0.35309 0.62518
 C506 C 0.00679 0.36390 0.62585
 N507 N -0.01415 0.35035 0.60892
 N508 N -0.00872 0.32716 0.59154
 C509 C 0.00117 0.39010 0.64430
 C510 C 0.02366 0.40901 0.65438
 H511 H 0.04574 0.28350 0.57415
 H512 H -0.02072 0.39525 0.64869
 H513 H -0.01333 0.29003 0.54538
 H514 H 0.04515 0.40481 0.64713
 C515 C 0.48894 0.02938 0.78915
 C516 C 0.48298 0.03600 0.81891
 C517 C 0.48675 0.06569 0.83219
 N518 N 0.47695 0.07075 0.86009
 N519 N 0.48110 0.09705 0.87328
 C520 C 0.49534 0.11933 0.85913
 N521 N 0.50520 0.11430 0.83117
 N522 N 0.50093 0.08795 0.81789
 C523 C 0.50107 0.14807 0.87429
 C524 C 0.48843 0.15441 0.90176
 H525 H 0.47472 0.01908 0.83343
 H526 H 0.51555 0.16376 0.86364
 H527 H 0.49453 0.04722 0.77450
 H528 H 0.47259 0.13837 0.90998
 C529 C 0.97324 0.71615 0.45220
 C530 C 0.95750 0.70377 0.42828
 C531 C 0.96750 0.67954 0.40939
 N532 N 0.95073 0.66830 0.38699
 N533 N 0.95911 0.64622 0.36974
 C534 C 0.98464 0.63449 0.37419
 N535 N 1.00149 0.64578 0.39658
 N536 N 0.99308 0.66788 0.41388
 C537 C 0.99399 0.60985 0.35532
 C538 C 0.97663 0.59718 0.33269
 H539 H 0.93691 0.71159 0.42292
 H540 H 1.01465 0.60179 0.35990
 H541 H 0.99384 0.70775 0.45675
 H542 H 0.95609 0.60636 0.32956
 C543 C 1.21229 0.47320 0.04912
 C544 C 1.19697 0.49724 0.05830
 C545 C 1.17643 0.49505 0.08317
 N546 N 1.16303 0.51904 0.09315
 N547 N 1.14422 0.51704 0.11543
 C548 C 1.13816 0.49096 0.12851
 N549 N 1.15155 0.46705 0.11851
 N550 N 1.17035 0.46905 0.09634
 C551 C 1.11668 0.48768 0.15226
 C552 C 1.10274 0.51117 0.16498
 H553 H 1.20003 0.51811 0.04774
 H554 H 1.11168 0.46571 0.15984
 H555 H 1.20904 0.45310 0.06121
 H556 H 1.10960 0.53337 0.15931
 C557 C 0.54044 -0.02115 0.72316
 C558 C 0.54498 0.00194 0.70373
 C559 C 0.57072 0.00430 0.68487
 N560 N 0.57279 0.02415 0.66302
 N561 N 0.59562 0.02577 0.64526
 C562 C 0.61727 0.00767 0.64882
 N563 N 0.61532 -0.01194 0.67084
 N564 N 0.59248 -0.01363 0.68851
 C565 C 0.64218 0.00820 0.62883
 C566 C 0.64425 0.02572 0.60396
 H567 H 0.52923 0.01798 0.70103
 H568 H 0.65885 -0.00625 0.63377
 H569 H 0.55654 -0.03719 0.72415
 H570 H 0.62781 0.04097 0.60044
 C571 C -0.19164 0.50772 0.94568
 C572 C -0.18400 0.52423 0.92093
 C573 C -0.15974 0.51795 0.90139
 N574 N -0.15421 0.53500 0.87768
 N575 N -0.13208 0.53034 0.85991
 C576 C -0.11455 0.50844 0.86514
 N577 N -0.12011 0.49126 0.88883
 N578 N -0.14231 0.49592 0.90666
 C579 C -0.08966 0.50363 0.84583
 C580 C -0.08313 0.52175 0.82196
 H581 H -0.19594 0.54275 0.91515
 H582 H -0.07611 0.48620 0.85120
 H583 H -0.17981 0.48866 0.95017
 H584 H -0.09693 0.53944 0.81797
 C585 C 0.43787 0.00442 0.28689
 C586 C 0.41373 0.02015 0.29294
 C587 C 0.39138 0.00994 0.31380
 N588 N 0.37166 0.02868 0.32332
 N589 N 0.35182 0.02033 0.34303
 C590 C 0.35081 -0.00717 0.35381
 N591 N 0.37024 -0.02612 0.34391
 N592 N 0.39024 -0.01769 0.32431
 C593 C 0.32989 -0.01596 0.37677
 C594 C 0.31601 0.00505 0.39355
 H595 H 0.41144 0.04139 0.28360
 H596 H 0.32731 -0.03889 0.38226
 H597 H 0.43985 -0.01628 0.29761
 H598 H 0.32100 0.02807 0.38956
 C599 C 0.21675 0.49649 0.95306
 C600 C 0.21225 0.48500 0.92428
 C601 C 0.19110 0.49589 0.90393
 N602 N 0.18719 0.48239 0.87699
 N603 N 0.16763 0.49106 0.85842
 C604 C 0.15118 0.51364 0.86601
 N605 N 0.15524 0.52738 0.89290
 N606 N 0.17483 0.51865 0.91155
 C607 C 0.12869 0.52253 0.84591
 C608 C 0.12166 0.50595 0.82009
 H609 H 0.22403 0.46683 0.91600
 H610 H 0.11690 0.54125 0.85263
 H611 H 0.20498 0.51512 0.96036
 H612 H 0.13388 0.48691 0.81535
 C613 C 0.53193 0.01217 0.29413
 C614 C 0.55577 0.03051 0.30171
 C615 C 0.57612 0.02318 0.32464
 N616 N 0.59926 0.04160 0.33030
 N617 N 0.61778 0.03567 0.35123
 C618 C 0.61388 0.01106 0.36732
 N619 N 0.59076 -0.00742 0.36163
 N620 N 0.57222 -0.00149 0.34065
 C621 C 0.63376 0.00475 0.39116
 C622 C 0.65768 0.02350 0.39770
 H623 H 0.56022 0.05094 0.29064
 H624 H 0.62863 -0.01455 0.40384
 H625 H 0.52861 -0.00845 0.30526
 H626 H 0.66176 0.04210 0.38356
 C627 C 0.79865 0.51393 0.04312
 C628 C 0.81593 0.49067 0.04809
 C629 C 0.83669 0.49285 0.07260
 N630 N 0.84928 0.46875 0.08206
 N631 N 0.86830 0.47108 0.10402
 C632 C 0.87549 0.49764 0.11712
 N633 N 0.86308 0.52165 0.10747
 N634 N 0.84401 0.51930 0.08574
 C635 C 0.89709 0.50141 0.14057
 C636 C 0.90692 0.47820 0.15654
 H637 H 0.81446 0.47089 0.03433
 H638 H 0.90405 0.52381 0.14620
 H639 H 0.79952 0.53210 0.05917
 H640 H 0.89664 0.45658 0.15268
 C641 C 0.44552 -0.01873 0.71310
 C642 C 0.42378 -0.03826 0.70229
 C643 C 0.40325 -0.03039 0.67986
 N644 N 0.38707 -0.05194 0.66574
 N645 N 0.36784 -0.04546 0.64576
 C646 C 0.36389 -0.01713 0.63932
 N647 N 0.37990 0.00451 0.65365
 N648 N 0.39933 -0.00200 0.67351
 C649 C 0.34234 -0.00992 0.61755
 C650 C 0.33136 -0.03114 0.59707
 H651 H 0.42208 -0.06071 0.70932
 H652 H 0.33630 0.01254 0.61714
 H653 H 0.44844 0.00263 0.70332
 H654 H 0.34077 -0.05230 0.59663
   
