data_POSCAR
  _audit_creation_date              2014-09-24
  _audit_creation_method            'ToBaCCo'
  _symmetry_space_group_name_H-M    'P1'
  _symmetry_Int_Tables_number       1
  _symmetry_cell_setting            triclinic
  loop_
  _symmetry_equiv_pos_as_xyz
 x,y,z
_cell_length_a 20.2553
_cell_length_b 20.2553
_cell_length_c 29.6579
_cell_angle_alpha 88.969200
_cell_angle_beta 88.969200
_cell_angle_gamma 89.687700
loop_
  _atom_site_label
  _atom_site_type_symbol
  _atom_site_fract_x
  _atom_site_fract_y
  _atom_site_fract_z
C1 C -0.00176 0.67723 0.99992
 C2 C -0.01190 0.64214 1.04089
 C3 C -0.01438 0.57274 1.04016
 C4 C -0.00267 0.53814 1.00012
 C5 C 0.00933 0.57434 0.95996
 C6 C 0.00777 0.64382 0.95902
 C7 C -0.00275 0.46433 1.00027
 C8 C -0.02459 0.42976 0.96255
 C9 C -0.02252 0.36053 0.96190
 C10 C -0.00225 0.32538 1.00042
 C11 C 0.01771 0.35859 1.03889
 C12 C 0.01925 0.42785 1.03809
 H13 H -0.00141 0.73049 0.99985
 H14 H -0.02516 0.54539 1.07108
 H15 H 0.01982 0.54819 0.92912
 H16 H -0.04273 0.45651 0.93335
 H17 H -0.00202 0.27199 1.00043
 H18 H 0.03730 0.45314 1.06721
 C19 C 0.32536 -0.00224 0.50042
 C20 C 0.35857 0.01773 0.53889
 C21 C 0.42783 0.01927 0.53809
 C22 C 0.46431 -0.00273 0.50027
 C23 C 0.42974 -0.02457 0.46255
 C24 C 0.36051 -0.02250 0.46190
 C25 C 0.53812 -0.00265 0.50012
 C26 C 0.57432 0.00935 0.45996
 C27 C 0.64381 0.00779 0.45902
 C28 C 0.67721 -0.00175 0.49992
 C29 C 0.64212 -0.01189 0.54089
 C30 C 0.57273 -0.01436 0.54016
 H31 H 0.27197 -0.00200 0.50043
 H32 H 0.45312 0.03732 0.56721
 H33 H 0.45649 -0.04271 0.43335
 H34 H 0.54817 0.01983 0.42912
 H35 H 0.73047 -0.00139 0.49985
 H36 H 0.54537 -0.02514 0.57108
 C37 C 0.12510 -0.07094 0.27967
 H38 H 0.11513 -0.10485 0.25294
 C39 C 0.18089 -0.08055 0.30608
 H40 H 0.21330 -0.12213 0.29966
 C41 C 0.09591 0.02494 0.32023
 H42 H 0.06284 0.06641 0.32520
 C43 C 0.15068 0.01682 0.34767
 H44 H 0.15950 0.05273 0.37340
 N45 N 0.08392 -0.01880 0.28711
 C46 C -0.02569 -0.13560 0.23229
 H47 H -0.04036 -0.13579 0.26754
 C48 C -0.03296 -0.19248 0.20703
 H49 H -0.05347 -0.23634 0.22313
 C50 C 0.01971 -0.07819 0.16880
 H51 H 0.04147 -0.03387 0.15433
 C52 C 0.01313 -0.13397 0.14222
 H53 H 0.02999 -0.13153 0.10745
 Zn54 Zn 0.00930 -0.00569 0.24998
 N55 N 0.00007 -0.07994 0.21290
 C56 C -0.02138 0.08387 0.17917
 N57 N 0.02109 0.07203 0.21345
 C58 C 0.07142 0.11439 0.22132
 C59 C 0.07927 0.17188 0.19508
 C60 C -0.01493 0.14036 0.15185
 C61 C -0.06694 -0.00821 0.33181
 C62 C -0.12434 -0.00310 0.35841
 C63 C -0.18554 0.02114 0.29102
 C64 C -0.12704 0.01558 0.26577
 N65 N -0.06894 0.00203 0.28635
 H66 H -0.05970 0.04880 0.17232
 H67 H 0.10571 0.10400 0.24794
 H68 H 0.11930 0.20518 0.20202
 H69 H -0.04989 0.14880 0.12522
 H70 H -0.02112 -0.02157 0.34766
 H71 H -0.12098 -0.01169 0.39435
 H72 H -0.23109 0.03205 0.27380
 H73 H -0.12845 0.02146 0.22962
 C74 C -0.01353 -0.19224 0.16133
 C75 C 0.19404 -0.03654 0.34074
 C76 C -0.18484 0.01197 0.33804
 C77 C 0.03580 0.18543 0.15980
 C78 C -0.07096 0.12512 0.77967
 H79 H -0.10487 0.11515 0.75294
 C80 C -0.08057 0.18091 0.80608
 H81 H -0.12215 0.21332 0.79966
 C82 C 0.02493 0.09593 0.82023
 H83 H 0.06639 0.06286 0.82520
 C84 C 0.01681 0.15070 0.84767
 H85 H 0.05271 0.15952 0.87340
 N86 N -0.01882 0.08394 0.78711
 C87 C 0.08385 -0.02136 0.67917
 H88 H 0.04878 -0.05968 0.67232
 C89 C 0.14034 -0.01491 0.65185
 H90 H 0.14879 -0.04988 0.62522
 C91 C 0.11437 0.07144 0.72132
 H92 H 0.10399 0.10573 0.74794
 C93 C 0.17186 0.07929 0.69508
 H94 H 0.20516 0.11932 0.70202
 Zn95 Zn -0.00571 0.00931 0.74998
 N96 N 0.07201 0.02111 0.71345
 C97 C -0.07821 0.01973 0.66880
 N98 N -0.07996 0.00009 0.71290
 C99 C -0.13562 -0.02567 0.73229
 C100 C -0.19250 -0.03294 0.70703
 C101 C -0.13399 0.01315 0.64222
 C102 C 0.01557 -0.12702 0.76577
 C103 C 0.02112 -0.18552 0.79102
 C104 C -0.00312 -0.12432 0.85841
 C105 C -0.00823 -0.06692 0.83181
 N106 N 0.00201 -0.06892 0.78635
 H107 H -0.03389 0.04149 0.65433
 H108 H -0.13581 -0.04034 0.76754
 H109 H -0.23636 -0.05345 0.72313
 H110 H -0.13155 0.03001 0.60745
 H111 H 0.02144 -0.12843 0.72962
 H112 H 0.03203 -0.23107 0.77380
 H113 H -0.01171 -0.12096 0.89435
 H114 H -0.02158 -0.02111 0.84766
 C115 C 0.18541 0.03582 0.65980
 C116 C -0.03656 0.19406 0.84074
 C117 C 0.01195 -0.18482 0.83804
 C118 C -0.19226 -0.01351 0.66133
 N119 N -0.03073 -0.31064 0.15370
 N120 N -0.03054 -0.35622 0.12227
 C121 C -0.01857 -0.32522 0.08230
 C122 C -0.01151 -0.25849 0.09060
 N123 N -0.01912 -0.25155 0.13554
 H124 H -0.00087 -0.21911 0.06655
 N125 N 0.07482 0.29811 0.14551
 N126 N 0.07108 0.34549 0.11422
 C127 C 0.03592 0.32111 0.08014
 C128 C 0.01798 0.25732 0.09176
 N129 N 0.04299 0.24480 0.13278
 H130 H -0.01113 0.22372 0.07245
 N131 N 0.29810 0.07484 0.64551
 N132 N 0.34547 0.07109 0.61422
 C133 C 0.32109 0.03594 0.58014
 C134 C 0.25730 0.01800 0.59175
 N135 N 0.24478 0.04301 0.63278
 H136 H 0.22370 -0.01111 0.57245
 N137 N -0.31066 -0.03071 0.65370
 N138 N -0.35624 -0.03052 0.62227
 C139 C -0.32523 -0.01855 0.58230
 C140 C -0.25851 -0.01149 0.59060
 N141 N -0.25157 -0.01910 0.63554
 H142 H -0.21913 -0.00085 0.56655
 N143 N 0.02616 -0.30420 0.84599
 N144 N 0.02535 -0.35126 0.87754
 C145 C 0.01477 -0.32177 0.91750
 C146 C 0.00923 -0.25442 0.90907
 N147 N 0.01636 -0.24555 0.86405
 H148 H -0.00052 -0.21601 0.93310
 N149 N -0.07912 0.30504 0.85547
 N150 N -0.07647 0.35071 0.88685
 C151 C -0.04018 0.32509 0.92069
 C152 C -0.02041 0.26235 0.90885
 N153 N -0.04549 0.25168 0.86793
 H154 H 0.01000 0.22825 0.92790
 N155 N -0.30422 0.02618 0.34599
 N156 N -0.35128 0.02537 0.37754
 C157 C -0.32178 0.01478 0.41750
 C158 C -0.25444 0.00925 0.40907
 N159 N -0.24557 0.01638 0.36405
 H160 H -0.21602 -0.00051 0.43310
 N161 N 0.30502 -0.07910 0.35547
 N162 N 0.35069 -0.07645 0.38685
 C163 C 0.32507 -0.04016 0.42069
 C164 C 0.26233 -0.02039 0.40885
 N165 N 0.25166 -0.04547 0.36793
 H166 H 0.22823 0.01002 0.42790
   
