data_POSCAR
  _audit_creation_date              2014-09-24
  _audit_creation_method            'ToBaCCo'
  _symmetry_space_group_name_H-M    'P1'
  _symmetry_Int_Tables_number       1
  _symmetry_cell_setting            triclinic
  loop_
  _symmetry_equiv_pos_as_xyz
 x,y,z
_cell_length_a 39.4761
_cell_length_b 39.4037
_cell_length_c 39.5442
_cell_angle_alpha 89.989400
_cell_angle_beta 90.089100
_cell_angle_gamma 90.008300
loop_
  _atom_site_label
  _atom_site_type_symbol
  _atom_site_fract_x
  _atom_site_fract_y
  _atom_site_fract_z
C1 C 0.16718 0.16613 0.20952
 N2 N 0.15162 0.19227 0.19323
 C3 C 0.16540 0.20608 0.16493
 N4 N 0.19469 0.19308 0.15250
 C5 C 0.21056 0.16681 0.16819
 N6 N 0.19677 0.15380 0.19690
 C7 C -0.16725 0.83360 0.20985
 N8 N -0.15146 0.80744 0.19397
 C9 C -0.16382 0.79457 0.16460
 N10 N -0.19215 0.80840 0.15076
 C11 C -0.20853 0.83444 0.16631
 N12 N -0.19599 0.84665 0.19599
 C13 C -0.16684 0.16523 -0.20793
 N14 N -0.15140 0.19160 -0.19201
 C15 C -0.16515 0.20542 -0.16372
 N16 N -0.19430 0.19227 -0.15111
 C17 C -0.21005 0.16579 -0.16656
 N18 N -0.19624 0.15263 -0.19520
 C19 C 0.16665 0.83361 -0.20971
 N20 N 0.15094 0.80760 -0.19341
 C21 C 0.16471 0.79369 -0.16511
 N22 N 0.19414 0.80648 -0.15270
 C23 C 0.21016 0.83262 -0.16839
 N24 N 0.19638 0.84573 -0.19710
 C25 C 0.16574 1.16647 0.79101
 N26 N 0.15350 1.19619 0.80357
 C27 C 0.16649 1.21002 0.83232
 N28 N 0.19263 1.19407 0.84808
 C29 C 0.20553 1.16466 0.83571
 N30 N 0.19175 1.15084 0.80739
 C31 C 0.83319 0.83410 0.78949
 N32 N 0.84622 0.80532 0.80335
 C33 C 0.83369 0.79263 0.83274
 N34 N 0.80748 0.80873 0.84813
 C35 C 0.79376 0.83717 0.83436
 N36 N 0.80685 0.84976 0.80519
 C37 C 0.16721 0.83241 1.21040
 N38 N 0.15400 0.80371 1.19653
 C39 C 0.16607 0.79113 1.16685
 N40 N 0.19214 0.80743 1.15131
 C41 C 0.20614 0.83570 1.16515
 N42 N 0.19341 0.84811 1.19453
 C43 C 0.83262 1.16776 1.21056
 N44 N 0.80645 1.15198 1.19465
 C45 C 0.79363 1.16437 1.16524
 N46 N 0.80754 1.19269 1.15141
 C47 C 0.83358 1.20905 1.16702
 N48 N 0.84571 1.19649 1.19671
 N49 N 0.53573 1.03589 1.05962
 N50 N 0.56279 1.03877 1.07906
 N51 N 0.46425 1.05963 1.03693
 N52 N 0.43858 1.08058 1.04154
 N53 N 0.46422 1.03568 1.05999
 N54 N 0.43832 1.03945 1.08072
 N55 N 0.53542 1.05977 1.03647
 N56 N 0.56212 1.07970 1.03969
 C57 C 0.57892 1.06634 1.06645
 C58 C 0.42260 1.06763 1.06894
 N59 N 0.46381 1.03636 0.94038
 N60 N 0.43703 1.03948 0.92060
 N61 N 0.53488 1.06024 0.96357
 N62 N 0.56068 1.08114 0.95937
 N63 N 0.53513 1.03644 0.94036
 N64 N 0.56125 1.04026 0.91995
 N65 N 0.46355 1.05965 0.96413
 N66 N 0.43646 1.07908 0.96128
 Mn67 Mn 0.49952 1.06026 1.00026
 C68 C 0.42025 1.06631 0.93388
 C69 C 0.57690 1.06832 0.93204
 N70 N 0.46432 0.96278 1.05950
 N71 N 0.43739 0.95987 1.07902
 N72 N 0.53556 0.93917 1.03612
 N73 N 0.56170 0.91862 1.03998
 N74 N 0.53581 0.96294 1.05936
 N75 N 0.56229 0.95942 1.07947
 N76 N 0.46432 0.93914 1.03611
 N77 N 0.43752 0.91934 1.03925
 Mn78 Mn 0.50003 0.99931 1.06005
 C79 C 0.42101 0.93253 1.06623
 C80 C 0.57814 0.93159 1.06715
 N81 N 0.53545 0.96356 0.94012
 N82 N 0.56236 0.96088 0.92056
 N83 N 0.46429 0.93939 0.96315
 N84 N 0.43869 0.91831 0.95859
 N85 N 0.46400 0.96337 0.94010
 N86 N 0.43800 0.95949 0.91944
 N87 N 0.53546 0.93966 0.96326
 N88 N 0.56225 0.91992 0.95989
 Mn89 Mn 0.49960 0.99993 0.93982
 Mn90 Mn 0.49989 0.93890 0.99966
 Cl91 Cl 0.49975 0.99960 0.99996
 C92 C 0.57875 0.93341 0.93306
 C93 C 0.42250 0.93122 0.93123
 N94 N -0.06022 0.46438 0.03690
 N95 N -0.08083 0.43833 0.04100
 N96 N -0.03644 0.53585 0.05983
 N97 N -0.03921 0.56295 0.07924
 N98 N -0.06025 0.53567 0.03662
 N99 N -0.08002 0.56249 0.03978
 N100 N -0.03633 0.46419 0.06001
 N101 N -0.03983 0.43780 0.08029
 C102 C -0.06780 0.42198 0.06818
 C103 C -0.06665 0.57922 0.06657
 N104 N 0.06001 0.53560 0.03639
 N105 N 0.08061 0.56172 0.04027
 N106 N 0.03657 0.46437 0.05980
 N107 N 0.03988 0.43767 0.07968
 N108 N 0.05976 0.46411 0.03602
 N109 N 0.07931 0.43709 0.03896
 N110 N 0.03633 0.53587 0.05964
 N111 N 0.03996 0.56233 0.07979
 Mn112 Mn 0.00003 0.50007 0.06026
 C113 C 0.06778 0.57816 0.06747
 C114 C 0.06672 0.42092 0.06644
 N115 N -0.06068 0.53549 -0.03623
 N116 N -0.08122 0.56166 -0.04008
 N117 N -0.03717 0.46427 -0.05963
 N118 N -0.04039 0.43751 -0.07944
 N119 N -0.06036 0.46400 -0.03587
 N120 N -0.07984 0.43693 -0.03874
 N121 N -0.03707 0.53569 -0.05957
 N122 N -0.04077 0.56206 -0.07980
 Mn123 Mn -0.06081 0.49988 0.00034
 C124 C -0.06849 0.57799 -0.06741
 C125 C -0.06720 0.42074 -0.06617
 N126 N 0.05960 0.46452 -0.03683
 N127 N 0.08060 0.43885 -0.04134
 N128 N 0.03582 0.53572 -0.05994
 N129 N 0.03886 0.56249 -0.07977
 N130 N 0.05929 0.53595 -0.03638
 N131 N 0.07877 0.56300 -0.03940
 N132 N 0.03567 0.46425 -0.05991
 N133 N 0.03951 0.43822 -0.08054
 Mn134 Mn 0.06011 0.50003 -0.00020
 Mn135 Mn -0.00070 0.49998 -0.06019
 Cl136 Cl -0.00034 0.49999 0.00006
 C137 C 0.06771 0.42266 -0.06869
 C138 C 0.06584 0.57923 -0.06671
 N139 N 0.96393 -0.05978 0.53533
 N140 N 0.96005 -0.08032 0.56141
 N141 N 0.94033 -0.03582 0.46390
 N142 N 0.91969 -0.03962 0.43788
 N143 N 0.96344 -0.05977 0.46417
 N144 N 0.95897 -0.08072 0.43850
 N145 N 0.94018 -0.03646 0.53504
 N146 N 0.91930 -0.04069 0.56073
 C147 C 0.93203 -0.06815 0.57695
 C148 C 0.93159 -0.06780 0.42232
 N149 N 0.96425 0.06044 0.46422
 N150 N 0.96033 0.08117 0.43829
 N151 N 0.94060 0.03660 0.53554
 N152 N 0.92040 0.04010 0.56187
 N153 N 0.96397 0.06030 0.53547
 N154 N 0.96018 0.08070 0.56167
 N155 N 0.94038 0.03724 0.46443
 N156 N 0.91937 0.04174 0.43884
 Mn157 Mn 0.93996 0.00039 0.49972
 C158 C 0.93214 0.06923 0.42274
 C159 C 0.93284 0.06781 0.57789
 N160 N 1.03640 -0.05986 0.46393
 N161 N 1.04025 -0.08047 0.43791
 N162 N 1.06017 -0.03642 0.53548
 N163 N 1.08034 -0.04008 0.56187
 N164 N 1.03686 -0.06018 0.53513
 N165 N 1.04072 -0.08085 0.56113
 N166 N 1.06030 -0.03669 0.46430
 N167 N 1.08127 -0.04111 0.43870
 Mn168 Mn 1.00016 -0.06032 0.49964
 C169 C 1.06841 -0.06851 0.42245
 C170 C 1.06798 -0.06799 0.57757
 N171 N 1.03687 0.05996 0.53571
 N172 N 1.04044 0.08005 0.56216
 N173 N 1.06034 0.03642 0.46414
 N174 N 1.08048 0.03998 0.43777
 N175 N 1.03720 0.06035 0.46450
 N176 N 1.04116 0.08102 0.43853
 N177 N 1.06061 0.03663 0.53538
 N178 N 1.08118 0.04042 0.56147
 Mn179 Mn 1.00058 0.06069 0.49997
 Mn180 Mn 1.06078 -0.00001 0.49981
 Cl181 Cl 1.00037 0.00019 0.49978
 C182 C 1.06828 0.06764 0.57793
 C183 C 1.06829 0.06801 0.42209
 C184 C 1.12465 0.12419 0.29892
 C185 C 1.15683 0.11398 0.28757
 C186 C 1.17065 0.12747 0.25796
 C187 C 1.15301 0.15217 0.23912
 C188 C 1.12090 0.16257 0.25066
 C189 C 1.10682 0.14854 0.27991
 C190 C 1.10988 0.10964 0.33048
 C191 C 1.08897 0.12941 0.35153
 C192 C 1.07515 0.11575 0.38108
 C193 C 1.08247 0.08226 0.39063
 C194 C 1.10342 0.06246 0.36989
 C195 C 1.11670 0.07587 0.33999
 H196 H 1.19552 0.11883 0.25027
 H197 H 1.10623 0.18127 0.23690
 H198 H 1.05920 0.13160 0.39677
 H199 H 1.10916 0.03642 0.37654
 H200 H 1.08169 0.15656 0.28734
 H201 H 1.08364 0.15567 0.34554
 H202 H 1.17172 0.09588 0.30181
 H203 H 1.13200 0.05955 0.32417
 C204 C 0.87369 -0.12524 0.30039
 C205 C 0.84187 -0.11459 0.28831
 C206 C 0.82843 -0.12797 0.25842
 C207 C 0.84611 -0.15295 0.24006
 C208 C 0.87774 -0.16394 0.25249
 C209 C 0.89145 -0.15002 0.28196
 C210 C 0.88838 -0.11050 0.33191
 C211 C 0.90898 -0.13026 0.35334
 C212 C 0.92329 -0.11627 0.38252
 C213 C 0.91672 -0.08245 0.39136
 C214 C 0.89590 -0.06271 0.37038
 C215 C 0.88216 -0.07646 0.34080
 H216 H 0.80391 -0.11891 0.25003
 H217 H 0.89242 -0.18289 0.23915
 H218 H 0.93907 -0.13209 0.39847
 H219 H 0.89071 -0.03643 0.37652
 H220 H 0.91632 -0.15838 0.28993
 H221 H 0.91381 -0.15673 0.34787
 H222 H 0.82705 -0.09613 0.30210
 H223 H 0.86709 -0.06016 0.32468
 C224 C 0.87637 0.12304 0.70128
 C225 C 0.89609 0.14313 0.72317
 C226 C 0.88204 0.15691 0.75254
 C227 C 0.84806 0.15059 0.76097
 C228 C 0.82840 0.13029 0.73932
 C229 C 0.84231 0.11687 0.70973
 C230 C 0.89117 0.10871 0.66973
 C231 C 0.88129 0.07649 0.65797
 C232 C 0.89473 0.06329 0.62807
 C233 C 0.91868 0.08182 0.60947
 C234 C 0.92895 0.11378 0.62128
 C235 C 0.91519 0.12720 0.65097
 H236 H 0.89795 0.17222 0.76884
 H237 H 0.80205 0.12517 0.74496
 H238 H 0.88660 0.03842 0.61968
 H239 H 0.94730 0.12865 0.60734
 H240 H 0.82615 0.10208 0.69322
 H241 H 0.86340 0.06122 0.67206
 H242 H 0.92255 0.14790 0.71786
 H243 H 0.92300 0.15230 0.65888
 C244 C 1.12417 -0.12426 0.70088
 C245 C 1.15645 -0.11426 0.71221
 C246 C 1.17026 -0.12780 0.74183
 C247 C 1.15249 -0.15235 0.76071
 C248 C 1.12026 -0.16253 0.74918
 C249 C 1.10620 -0.14844 0.71992
 C250 C 1.10943 -0.10968 0.66930
 C251 C 1.08838 -0.12938 0.64825
 C252 C 1.07460 -0.11569 0.61866
 C253 C 1.08210 -0.08226 0.60907
 C254 C 1.10317 -0.06254 0.62982
 C255 C 1.11642 -0.07596 0.65976
 H256 H 1.19522 -0.11933 0.74951
 H257 H 1.10549 -0.18110 0.76297
 H258 H 1.05855 -0.13149 0.60295
 H259 H 1.10904 -0.03653 0.62314
 H260 H 1.08099 -0.15630 0.71249
 H261 H 1.08292 -0.15560 0.65427
 H262 H 1.17143 -0.09628 0.69794
 H263 H 1.13183 -0.05970 0.67559
 C264 C 0.30079 1.12517 1.12702
 C265 C 0.28237 1.15009 1.10938
 C266 C 0.25300 1.16416 1.12316
 C267 C 0.24066 1.15319 1.15474
 C268 C 0.25899 1.12804 1.17229
 C269 C 0.28878 1.11451 1.15877
 C270 C 0.33228 1.11036 1.11230
 C271 C 0.34114 1.07628 1.11842
 C272 C 0.37069 1.06250 1.10465
 C273 C 0.39168 1.08226 1.08390
 C274 C 0.38287 1.11612 1.07745
 C275 C 0.35372 1.13014 1.09178
 H276 H 0.23968 1.18323 1.10856
 H277 H 0.25066 1.11897 1.19676
 H278 H 0.37681 1.03619 1.10974
 H279 H 0.39881 1.13196 1.06173
 H280 H 0.30257 1.09592 1.17351
 H281 H 0.32501 1.05998 1.13343
 H282 H 0.29028 1.15847 1.08455
 H283 H 0.34829 1.15663 1.08704
 C284 C 0.30071 0.87366 0.87286
 C285 C 0.28873 0.88439 0.84109
 C286 C 0.25885 0.87103 0.82753
 C287 C 0.24040 0.84600 0.84506
 C288 C 0.25275 0.83490 0.87663
 C289 C 0.28223 0.84880 0.89045
 C290 C 0.33219 0.88842 0.88770
 C291 C 0.35366 0.86862 0.90823
 C292 C 0.38281 0.88264 0.92266
 C293 C 0.39156 0.91653 0.91629
 C294 C 0.37053 0.93631 0.89556
 C295 C 0.34099 0.92253 0.88169
 H296 H 0.25052 0.88016 0.80305
 H297 H 0.23935 0.81590 0.89120
 H298 H 0.39880 0.86680 0.93837
 H299 H 0.37660 0.96264 0.89053
 H300 H 0.29014 0.84036 0.91528
 H301 H 0.34825 0.84211 0.91290
 H302 H 0.30259 0.90292 0.82639
 H303 H 0.32483 0.93884 0.86668
 C304 C 0.70189 0.87616 1.12354
 C305 C 0.72103 0.85193 1.10576
 C306 C 0.75036 0.83800 1.11992
 C307 C 0.76184 0.84838 1.15206
 C308 C 0.74287 0.87298 1.16962
 C309 C 0.71318 0.88638 1.15571
 C310 C 0.67021 0.89053 1.10871
 C311 C 0.66057 0.92427 1.11542
 C312 C 0.63053 0.93750 1.10211
 C313 C 0.60978 0.91754 1.08126
 C314 C 0.61948 0.88409 1.07402
 C315 C 0.64917 0.87061 1.08786
 H316 H 0.76423 0.81938 1.10530
 H317 H 0.75051 0.88161 1.19450
 H318 H 0.62377 0.96352 1.10777
 H319 H 0.60377 0.86812 1.05815
 H320 H 0.69883 0.90442 1.17054
 H321 H 0.67639 0.94070 1.13067
 H322 H 0.71364 0.84392 1.08064
 H323 H 0.65528 0.84436 1.08262
 C324 C 0.69952 1.12477 0.87473
 C325 C 0.71158 1.11379 0.84310
 C326 C 0.74148 1.12706 0.82958
 C327 C 0.75986 1.15226 0.84698
 C328 C 0.74750 1.16351 0.87845
 C329 C 0.71802 1.14970 0.89225
 C330 C 0.66791 1.11026 0.88943
 C331 C 0.64644 1.13030 0.90967
 C332 C 0.61708 1.11655 0.92386
 C333 C 0.60812 1.08272 0.91751
 C334 C 0.62918 1.06269 0.89711
 C335 C 0.65893 1.07618 0.88351
 H336 H 0.74983 1.11779 0.80518
 H337 H 0.76087 1.18263 0.89294
 H338 H 0.60107 1.13257 0.93932
 H339 H 0.62296 1.03639 0.89213
 H340 H 0.71007 1.15831 0.91698
 H341 H 0.65200 1.15679 0.91426
 H342 H 0.69773 1.09518 0.82845
 H343 H 0.67508 1.05969 0.86876
 C344 C 0.12063 0.29505 0.11980
 C345 C 0.15428 0.28584 0.11261
 C346 C 0.16846 0.25657 0.12663
 C347 C 0.14954 0.23597 0.14861
 C348 C 0.11583 0.24491 0.15566
 C349 C 0.10147 0.27396 0.14123
 C350 C 0.10597 0.32689 0.10565
 C351 C 0.08318 0.34655 0.12473
 C352 C 0.07015 0.37690 0.11183
 C353 C 0.07999 0.38854 0.07977
 C354 C 0.10257 0.36898 0.06056
 C355 C 0.11523 0.33838 0.07324
 H356 H 0.19461 0.25058 0.12091
 H357 H 0.10051 0.22941 0.17230
 H358 H 0.05281 0.39155 0.12720
 H359 H 0.11027 0.37720 0.03559
 H360 H 0.07528 0.27982 0.14683
 H361 H 0.07590 0.33891 0.14999
 H362 H 0.17007 0.30171 0.09679
 H363 H 0.13213 0.32364 0.05749
 C364 C -0.12067 0.29462 -0.11900
 C365 C -0.10143 0.27351 -0.14031
 C366 C -0.11571 0.24438 -0.15463
 C367 C -0.14941 0.23543 -0.14758
 C368 C -0.16842 0.25605 -0.12572
 C369 C -0.15432 0.28540 -0.11181
 C370 C -0.10610 0.32652 -0.10498
 C371 C -0.11533 0.33802 -0.07257
 C372 C -0.10278 0.36869 -0.06002
 C373 C -0.08034 0.38830 -0.07936
 C374 C -0.07053 0.37665 -0.11141
 C375 C -0.08346 0.34622 -0.12419
 H376 H -0.10034 0.22884 -0.17116
 H377 H -0.19456 0.25002 -0.12001
 H378 H -0.11044 0.37693 -0.03504
 H379 H -0.05331 0.39136 -0.12687
 H380 H -0.17015 0.30130 -0.09607
 H381 H -0.13212 0.32323 -0.05675
 H382 H -0.07524 0.27941 -0.14589
 H383 H -0.07622 0.33855 -0.14945
 C384 C 0.11958 0.70505 -0.11998
 C385 C 0.10045 0.72623 -0.14139
 C386 C 0.11493 0.75520 -0.15583
 C387 C 0.14872 0.76392 -0.14880
 C388 C 0.16761 0.74323 -0.12683
 C389 C 0.15331 0.71404 -0.11281
 C390 C 0.10482 0.67330 -0.10581
 C391 C 0.11415 0.66182 -0.07339
 C392 C 0.10154 0.63122 -0.06075
 C393 C 0.07893 0.61166 -0.07999
 C394 C 0.06895 0.62332 -0.11202
 C395 C 0.08194 0.65368 -0.12491
 H396 H 0.09964 0.77078 -0.17246
 H397 H 0.19382 0.74906 -0.12114
 H398 H 0.10932 0.62299 -0.03578
 H399 H 0.05158 0.60865 -0.12740
 H400 H 0.16907 0.69809 -0.09701
 H401 H 0.13110 0.67656 -0.05764
 H402 H 0.07421 0.72050 -0.14698
 H403 H 0.07460 0.66133 -0.15016
 C404 C -0.11890 0.70562 0.11990
 C405 C -0.11143 0.71487 0.15345
 C406 C -0.12535 0.74418 0.16760
 C407 C -0.14747 0.76475 0.14874
 C408 C -0.15471 0.75581 0.11511
 C409 C -0.14040 0.72671 0.10078
 C410 C -0.10500 0.67367 0.10534
 C411 C -0.12448 0.65394 0.08289
 C412 C -0.11185 0.62345 0.07000
 C413 C -0.07969 0.61175 0.07965
 C414 C -0.06008 0.63138 0.10189
 C415 C -0.07249 0.66212 0.11440
 H416 H -0.11947 0.75019 0.19368
 H417 H -0.17145 0.77129 0.09983
 H418 H -0.12752 0.60872 0.05295
 H419 H -0.03502 0.62311 0.10942
 H420 H -0.14619 0.72080 0.07467
 H421 H -0.14983 0.66165 0.07579
 H422 H -0.09552 0.69900 0.16919
 H423 H -0.05647 0.67692 0.13104
 C424 C 1.12402 0.12383 0.70148
 C425 C 1.14820 0.10592 0.72060
 C426 C 1.16215 0.12003 0.74991
 C427 C 1.15183 0.15226 0.76139
 C428 C 1.12728 0.16997 0.74243
 C429 C 1.11388 0.15611 0.71277
 C430 C 1.10957 0.10904 0.66987
 C431 C 1.07591 0.11593 0.66022
 C432 C 1.06262 0.10268 0.63022
 C433 C 1.08241 0.08169 0.60952
 C434 C 1.11578 0.07426 0.61923
 C435 C 1.12934 0.08804 0.64888
 H436 H 1.18073 0.10531 0.76376
 H437 H 1.11870 0.19493 0.75007
 H438 H 1.03665 0.10849 0.62346
 H439 H 1.13163 0.05826 0.60358
 H440 H 1.09589 0.17106 0.69844
 H441 H 1.05959 0.13127 0.67599
 H442 H 1.15616 0.08071 0.71322
 H443 H 1.15552 0.08265 0.65499
 C444 C 0.87466 -0.12502 0.69921
 C445 C 0.84987 -0.10716 0.71750
 C446 C 0.83586 -0.12082 0.74693
 C447 C 0.84678 -0.15248 0.75942
 C448 C 0.87180 -0.17022 0.74122
 C449 C 0.88524 -0.15685 0.71139
 C450 C 0.88942 -0.11048 0.66767
 C451 C 0.92338 -0.11687 0.65885
 C452 C 0.93710 -0.10343 0.62917
 C453 C 0.91742 -0.08273 0.60801
 C454 C 0.88370 -0.07596 0.61680
 C455 C 0.86972 -0.08997 0.64609
 H456 H 0.81689 -0.10609 0.76016
 H457 H 0.88080 -0.19478 0.74965
 H458 H 0.96331 -0.10874 0.62307
 H459 H 0.86793 -0.06024 0.60073
 H460 H 0.90369 -0.17177 0.69769
 H461 H 0.93963 -0.13185 0.67509
 H462 H 0.84155 -0.08227 0.70944
 H463 H 0.84332 -0.08503 0.65151
 C464 C 1.12609 -0.12646 0.30078
 C465 C 1.11540 -0.15830 0.28870
 C466 C 1.12878 -0.17180 0.25888
 C467 C 1.15383 -0.15418 0.24059
 C468 C 1.16491 -0.12255 0.25304
 C469 C 1.15097 -0.10877 0.28244
 C470 C 1.11128 -0.11169 0.33220
 C471 C 1.13094 -0.09104 0.35369
 C472 C 1.11689 -0.07674 0.38281
 C473 C 1.08311 -0.08333 0.39153
 C474 C 1.06347 -0.10417 0.37047
 C475 C 1.07727 -0.11791 0.34096
 H476 H 1.11966 -0.19633 0.25049
 H477 H 1.18392 -0.10791 0.23975
 H478 H 1.13264 -0.06093 0.39880
 H479 H 1.03722 -0.10938 0.37651
 H480 H 1.15940 -0.08389 0.29041
 H481 H 1.15738 -0.08621 0.34833
 H482 H 1.09688 -0.17310 0.30243
 H483 H 1.06104 -0.13299 0.32479
 C484 C 0.87406 0.12693 0.30102
 C485 C 0.84922 0.10909 0.28269
 C486 C 0.83517 0.12277 0.25325
 C487 C 0.84609 0.15443 0.24077
 C488 C 0.87109 0.17219 0.25907
 C489 C 0.88459 0.15879 0.28891
 C490 C 0.88898 0.11229 0.33248
 C491 C 0.92300 0.11860 0.34124
 C492 C 0.93691 0.10495 0.37079
 C493 C 0.91735 0.08411 0.39186
 C494 C 0.88355 0.07745 0.38315
 C495 C 0.86940 0.09167 0.35401
 H496 H 0.81619 0.10804 0.23996
 H497 H 0.88009 0.19675 0.25066
 H498 H 0.96316 0.11019 0.37683
 H499 H 0.86787 0.06164 0.39917
 H500 H 0.90308 0.17369 0.30264
 H501 H 0.93916 0.13368 0.32504
 H502 H 0.84092 0.08419 0.29070
 H503 H 0.84296 0.08678 0.34864
 C504 C 0.12522 0.30060 -0.12665
 C505 C 0.11459 0.28858 -0.15844
 C506 C 0.12801 0.25868 -0.17192
 C507 C 0.15301 0.24025 -0.15429
 C508 C 0.16397 0.25262 -0.12269
 C509 C 0.15002 0.28211 -0.10894
 C510 C 0.11045 0.33215 -0.11192
 C511 C 0.13017 0.35364 -0.09133
 C512 C 0.11616 0.38285 -0.07701
 C513 C 0.08237 0.39166 -0.08355
 C514 C 0.06267 0.37061 -0.10435
 C515 C 0.07643 0.34100 -0.11811
 H516 H 0.11896 0.25033 -0.19642
 H517 H 0.18294 0.23923 -0.10804
 H518 H 0.13194 0.39884 -0.06124
 H519 H 0.03641 0.37672 -0.10951
 H520 H 0.15837 0.29003 -0.08409
 H521 H 0.15661 0.34820 -0.08653
 H522 H 0.09610 0.30244 -0.17322
 H523 H 0.06018 0.32483 -0.13316
 C524 C -0.12406 0.29849 0.12448
 C525 C -0.14832 0.27944 0.10657
 C526 C -0.16249 0.25016 0.12065
 C527 C -0.15232 0.23864 0.15283
 C528 C -0.12769 0.25752 0.17053
 C529 C -0.11406 0.28715 0.15670
 C530 C -0.10945 0.33012 0.10977
 C531 C -0.07575 0.33964 0.11671
 C532 C -0.06232 0.36965 0.10346
 C533 C -0.08203 0.39047 0.08244
 C534 C -0.11545 0.38091 0.07504
 C535 C -0.12913 0.35127 0.08881
 H536 H -0.18112 0.23636 0.10594
 H537 H -0.11921 0.24985 0.19545
 H538 H -0.03632 0.37630 0.10925
 H539 H -0.13124 0.39666 0.05903
 H540 H -0.09602 0.30143 0.17164
 H541 H -0.05952 0.32374 0.13207
 H542 H -0.15617 0.28686 0.08141
 H543 H -0.15534 0.34528 0.08340
 C544 C -0.12416 0.70154 -0.12398
 C545 C -0.11799 0.71006 -0.15797
 C546 C -0.13144 0.73973 -0.17191
 C547 C -0.15176 0.76140 -0.15235
 C548 C -0.15811 0.75288 -0.11844
 C549 C -0.14430 0.72342 -0.10437
 C550 C -0.10974 0.66996 -0.10914
 C551 C -0.12817 0.65095 -0.08530
 C552 C -0.11466 0.62121 -0.07152
 C553 C -0.08263 0.60960 -0.08159
 C554 C -0.06415 0.62845 -0.10536
 C555 C -0.07745 0.65840 -0.11883
 H556 H -0.12630 0.74542 -0.19820
 H557 H -0.17344 0.76919 -0.10261
 H558 H -0.12948 0.60706 -0.05331
 H559 H -0.03922 0.62023 -0.11333
 H560 H -0.14909 0.71803 -0.07796
 H561 H -0.15332 0.65872 -0.07765
 H562 H -0.10316 0.69354 -0.17404
 H563 H -0.06223 0.67269 -0.13658
 C564 C 0.12381 0.70175 0.12397
 C565 C 0.11374 0.71302 0.15617
 C566 C 0.12732 0.74264 0.17012
 C567 C 0.15195 0.76157 0.15256
 C568 C 0.16216 0.75013 0.12040
 C569 C 0.14805 0.72087 0.10620
 C570 C 0.10926 0.67013 0.10911
 C571 C 0.12898 0.64906 0.08815
 C572 C 0.11535 0.61941 0.07428
 C573 C 0.08196 0.60977 0.08160
 C574 C 0.06221 0.63054 0.10256
 C575 C 0.07558 0.66055 0.11589
 H576 H 0.11881 0.75027 0.19501
 H577 H 0.18079 0.76397 0.10578
 H578 H 0.13116 0.60369 0.05832
 H579 H 0.03623 0.62383 0.10828
 H580 H 0.15595 0.71351 0.08106
 H581 H 0.15518 0.65511 0.08284
 H582 H 0.09570 0.69869 0.17100
 H583 H 0.05930 0.67639 0.13122
 C584 C 0.29427 1.11981 0.88090
 C585 C 0.27319 1.10058 0.85949
 C586 C 0.24418 1.11496 0.84506
 C587 C 0.23532 1.14875 0.85209
 C588 C 0.25590 1.16774 0.87408
 C589 C 0.28512 1.15354 0.88810
 C590 C 0.32610 1.10517 0.89499
 C591 C 0.33763 1.11448 0.92740
 C592 C 0.36826 1.10193 0.93998
 C593 C 0.38781 1.07940 0.92067
 C594 C 0.37611 1.06949 0.88864
 C595 C 0.34573 1.08241 0.87582
 H596 H 0.22868 1.09960 0.82842
 H597 H 0.24995 1.19395 0.87978
 H598 H 0.37653 1.10968 0.96494
 H599 H 0.39077 1.05219 0.87320
 H600 H 0.30100 1.16937 0.90391
 H601 H 0.32290 1.13135 0.94320
 H602 H 0.27903 1.07433 0.85389
 H603 H 0.33804 1.07510 0.85057
 C604 C 0.29505 0.88027 1.12021
 C605 C 0.27379 0.85887 1.10116
 C606 C 0.24472 0.84469 1.11558
 C607 C 0.23597 0.85193 1.14923
 C608 C 0.25673 0.87392 1.16804
 C609 C 0.28602 0.88772 1.15380
 C610 C 0.32691 0.89413 1.10549
 C611 C 0.33860 0.92664 1.11454
 C612 C 0.36921 0.93904 1.10184
 C613 C 0.38858 0.91945 1.07943
 C614 C 0.37675 0.88730 1.06979
 C615 C 0.34638 0.87466 1.08286
 H616 H 0.22909 0.82804 1.10034
 H617 H 0.25088 0.87979 1.19414
 H618 H 0.37758 0.96411 1.10938
 H619 H 0.39128 0.87164 1.05261
 H620 H 0.30202 0.90354 1.16948
 H621 H 0.32401 0.94267 1.13130
 H622 H 0.27953 0.85310 1.07503
 H623 H 0.33856 0.84931 1.07575
 C624 C 0.70482 1.11929 1.12030
 C625 C 0.71409 1.11179 1.15384
 C626 C 0.74333 1.12577 1.16807
 C627 C 0.76382 1.14801 1.14931
 C628 C 0.75484 1.15532 1.11570
 C629 C 0.72581 1.14095 1.10129
 C630 C 0.67299 1.10524 1.10561
 C631 C 0.65323 1.12466 1.08313
 C632 C 0.62287 1.11186 1.07011
 C633 C 0.61133 1.07957 1.07964
 C634 C 0.63099 1.06002 1.10191
 C635 C 0.66159 1.07260 1.11456
 H636 H 0.74936 1.11984 1.19414
 H637 H 0.77025 1.17216 1.10049
 H638 H 0.60812 1.12749 1.05304
 H639 H 0.62284 1.03486 1.10937
 H640 H 0.71988 1.14679 1.07519
 H641 H 0.66082 1.15010 1.07610
 H642 H 0.69830 1.09577 1.16950
 H643 H 0.67641 1.05661 1.13122
 C644 C 0.70478 0.88168 0.87903
 C645 C 0.71390 0.88918 0.84547
 C646 C 0.74322 0.87541 0.83129
 C647 C 0.76392 0.85341 0.85015
 C648 C 0.75511 0.84616 0.88379
 C649 C 0.72602 0.86032 0.89814
 C650 C 0.67286 0.89539 0.89366
 C651 C 0.65339 0.87575 0.91614
 C652 C 0.62299 0.88827 0.92922
 C653 C 0.61115 0.92046 0.91975
 C654 C 0.63051 0.94021 0.89744
 C655 C 0.66115 0.92792 0.88472
 H656 H 0.74915 0.88129 0.80521
 H657 H 0.77071 0.82953 0.89908
 H658 H 0.60847 0.87249 0.94631
 H659 H 0.62211 0.96530 0.89002
 H660 H 0.72023 0.85453 0.92426
 H661 H 0.66123 0.85038 0.92313
 H662 H 0.69792 0.90500 0.82976
 H663 H 0.67574 0.94405 0.86805
   
