data_POSCAR
  _audit_creation_date              2014-09-24
  _audit_creation_method            'ToBaCCo'
  _symmetry_space_group_name_H-M    'P1'
  _symmetry_Int_Tables_number       1
  _symmetry_cell_setting            triclinic
  loop_
  _symmetry_equiv_pos_as_xyz
 x,y,z
_cell_length_a 19.3581
_cell_length_b 24.5108
_cell_length_c 16.8263
_cell_angle_alpha 90.243600
_cell_angle_beta 90.453600
_cell_angle_gamma 90.359500
loop_
  _atom_site_label
  _atom_site_type_symbol
  _atom_site_fract_x
  _atom_site_fract_y
  _atom_site_fract_z
C1 C 0.30051 0.30801 0.19379
 C2 C 0.25116 0.27873 0.23708
 C3 C 0.20135 0.30665 0.28129
 C4 C 0.20196 0.36382 0.28424
 C5 C 0.25111 0.39281 0.24016
 C6 C 0.30000 0.36528 0.19385
 C7 C 0.25268 0.21881 0.23775
 C8 C 0.30310 0.19173 0.28261
 C9 C 0.30384 0.13448 0.28574
 C10 C 0.25373 0.10473 0.24256
 C11 C 0.20364 0.13151 0.19658
 C12 C 0.20325 0.18873 0.19467
 H13 H 0.33815 0.28613 0.15879
 H14 H 0.16388 0.28388 0.31559
 H15 H 0.34148 0.21539 0.31520
 H16 H 0.16426 0.20990 0.16024
 H17 H 0.25141 0.43702 0.24226
 H18 H 0.25342 0.06056 0.24488
 C19 C 0.79938 0.80897 0.21860
 C20 C 0.75011 0.78147 0.26416
 C21 C 0.70025 0.81079 0.30602
 C22 C 0.69875 0.86822 0.30317
 C23 C 0.74682 0.89483 0.25339
 C24 C 0.79846 0.86630 0.21147
 C25 C 0.74950 0.72139 0.26547
 C26 C 0.80002 0.69268 0.30808
 C27 C 0.80152 0.63545 0.30494
 C28 C 0.75214 0.60726 0.25870
 C29 C 0.70082 0.63559 0.21644
 C30 C 0.69979 0.69282 0.22055
 H31 H 0.83856 0.78477 0.18996
 H32 H 0.66493 0.78815 0.34309
 H33 H 0.83859 0.71484 0.34257
 H34 H 0.66071 0.71538 0.18826
 H35 H 0.74012 0.93777 0.24238
 H36 H 0.75405 0.56313 0.25542
 C37 C 0.80383 0.30747 0.71535
 C38 C 0.75209 0.28082 0.75831
 C39 C 0.70210 0.31116 0.79851
 C40 C 0.70201 0.36866 0.79551
 C41 C 0.75188 0.39429 0.74701
 C42 C 0.80388 0.36459 0.70835
 C43 C 0.74865 0.22077 0.75983
 C44 C 0.79791 0.19069 0.80226
 C45 C 0.79405 0.13302 0.80569
 C46 C 0.73954 0.10702 0.76320
 C47 C 0.69110 0.13683 0.71882
 C48 C 0.69554 0.19384 0.71846
 H49 H 0.84322 0.28332 0.68678
 H50 H 0.66556 0.28899 0.83454
 H51 H 0.83970 0.21307 0.83055
 H52 H 0.65787 0.21747 0.68558
 H53 H 0.74864 0.43753 0.73583
 H54 H 0.73310 0.06330 0.76474
 C55 C 0.29831 0.81104 0.70538
 C56 C 0.24981 0.78105 0.74881
 C57 C 0.19825 0.80800 0.79110
 C58 C 0.19438 0.86503 0.78980
 C59 C 0.24172 0.89477 0.74398
 C60 C 0.29450 0.86843 0.70104
 C61 C 0.25237 0.72113 0.74841
 C62 C 0.30492 0.69427 0.78990
 C63 C 0.30832 0.63712 0.78911
 C64 C 0.25930 0.60722 0.74441
 C65 C 0.20611 0.63371 0.70235
 C66 C 0.20278 0.69096 0.70560
 H67 H 0.33630 0.78879 0.67151
 H68 H 0.16123 0.78451 0.82502
 H69 H 0.34302 0.71798 0.82285
 H70 H 0.16180 0.71235 0.67480
 H71 H 0.23951 0.93886 0.74618
 H72 H 0.26249 0.56316 0.74283
 C73 C 0.09235 0.07931 0.02698
 H74 H 0.08352 0.08737 -0.03543
 C75 C 0.13944 0.11126 0.07017
 H76 H 0.16694 0.14397 0.04076
 C77 C 0.06903 0.02558 0.14060
 H78 H 0.04261 -0.00860 0.16733
 C79 C 0.11640 0.05599 0.18570
 H80 H 0.12508 0.04568 0.24748
 N81 N 0.05740 0.03805 0.06295
 C82 C 0.08752 -0.08962 -0.03513
 H83 H 0.08176 -0.09894 0.02726
 C84 C 0.13295 -0.11994 -0.08155
 H85 H 0.16204 -0.15271 -0.05456
 C86 C 0.05966 -0.03348 -0.14502
 H87 H 0.03270 0.00132 -0.16891
 C88 C 0.10512 -0.06231 -0.19332
 H89 H 0.11152 -0.05022 -0.25467
 Zn90 Zn -0.00387 -0.00460 0.00013
 N91 N 0.05141 -0.04771 -0.06757
 C92 C -0.10054 0.01591 -0.11901
 N93 N -0.06332 0.04038 -0.06015
 C94 C -0.07157 0.09411 -0.04290
 C95 C -0.11804 0.12567 -0.08672
 C96 C -0.14646 0.04593 -0.16531
 C97 C -0.07226 -0.10201 0.05216
 C98 C -0.11795 -0.13146 0.09999
 C99 C -0.13926 -0.04906 0.17465
 C100 C -0.09434 -0.02125 0.12456
 N101 N -0.06117 -0.04796 0.06548
 H102 H -0.09365 -0.02713 -0.13084
 H103 H -0.04358 0.11233 0.00641
 H104 H -0.12493 0.16748 -0.06805
 H105 H -0.17120 0.02476 -0.21429
 H106 H -0.04733 -0.12211 0.00292
 H107 H -0.12739 -0.17367 0.08448
 H108 H -0.16087 -0.02617 0.22340
 H109 H -0.08512 0.02195 0.13339
 C110 C 0.14261 -0.10601 -0.16153
 C111 C 0.15201 0.09954 0.15047
 C112 C -0.15319 -0.10525 0.16279
 C113 C -0.15707 0.10203 -0.14962
 C114 C 0.08329 0.58978 0.53669
 H115 H 0.06508 0.60441 0.47975
 C116 C 0.12959 0.62138 0.58170
 H117 H 0.14689 0.66019 0.55843
 C118 C 0.08612 0.51974 0.63324
 H119 H 0.07001 0.47955 0.65216
 C120 C 0.13172 0.55024 0.68059
 H121 H 0.14876 0.53357 0.73682
 N122 N 0.06263 0.53996 0.56300
 C123 C 0.03758 0.41564 0.37748
 H124 H -0.01767 0.41062 0.37066
 C125 C 0.08196 0.38516 0.32960
 H126 H 0.06070 0.35634 0.28686
 C127 C 0.13300 0.46052 0.43858
 H128 H 0.15322 0.48980 0.48096
 C129 C 0.17891 0.43181 0.39095
 H130 H 0.23392 0.43913 0.39741
 Zn131 Zn 0.00533 0.49549 0.49729
 N132 N 0.06360 0.45231 0.43120
 C133 C -0.05735 0.53522 0.35480
 N134 N -0.05292 0.54112 0.43517
 C135 C -0.09161 0.57887 0.47394
 C136 C -0.13806 0.61161 0.43201
 C137 C -0.10424 0.56625 0.31085
 C138 C -0.06800 0.39870 0.54502
 C139 C -0.11454 0.36932 0.59175
 C140 C -0.12299 0.44746 0.67866
 C141 C -0.07819 0.47582 0.62896
 N142 N -0.05173 0.45141 0.56331
 H143 H -0.02549 0.50593 0.32454
 H144 H -0.08677 0.58329 0.53768
 H145 H -0.16934 0.64085 0.46376
 H146 H -0.10840 0.56027 0.24717
 H147 H -0.04640 0.37942 0.49336
 H148 H -0.12891 0.32841 0.57344
 H149 H -0.14158 0.46780 0.73145
 H150 H -0.06429 0.51756 0.64303
 C151 C 0.15348 0.39362 0.33579
 C152 C 0.15477 0.60164 0.65470
 C153 C -0.14344 0.39376 0.65946
 C154 C -0.14558 0.60465 0.34968
 C155 C 0.57891 0.09391 0.54420
 H156 H 0.56940 0.10607 0.48339
 C157 C 0.62364 0.12480 0.59208
 H158 H 0.64894 0.16029 0.56722
 C159 C 0.56009 0.03133 0.64887
 H160 H 0.53583 -0.00550 0.67042
 C161 C 0.60428 0.06112 0.69892
 H162 H 0.61289 0.04719 0.75915
 N163 N 0.54929 0.04753 0.57262
 C164 C 0.54000 -0.09628 0.41973
 H165 H 0.49100 -0.11377 0.43715
 C166 C 0.58383 -0.12582 0.37595
 H167 H 0.56820 -0.16654 0.35824
 C168 C 0.61354 -0.01813 0.41743
 H169 H 0.62502 0.02370 0.43285
 C170 C 0.66341 -0.04893 0.36975
 H171 H 0.71158 -0.02852 0.35633
 Zn172 Zn 0.49614 0.00286 0.50286
 N173 N 0.55671 -0.04093 0.44151
 C174 C 0.42982 0.02819 0.35902
 N175 N 0.44383 0.04706 0.43352
 C176 C 0.41678 0.09471 0.46041
 C177 C 0.37227 0.12483 0.41213
 C178 C 0.38566 0.05703 0.30876
 C179 C 0.45542 -0.08842 0.59580
 C180 C 0.40970 -0.11975 0.64087
 C181 C 0.32265 -0.05100 0.62042
 C182 C 0.36953 -0.02175 0.57453
 N183 N 0.43449 -0.04068 0.56297
 H184 H 0.45157 -0.01001 0.33928
 H185 H 0.42790 0.10836 0.52039
 H186 H 0.34930 0.16165 0.43554
 H187 H 0.37468 0.04115 0.24983
 H188 H 0.50795 -0.10200 0.58764
 H189 H 0.42888 -0.15684 0.66752
 H190 H 0.27092 -0.03505 0.62592
 H191 H 0.35376 0.01635 0.54837
 C192 C 0.65041 -0.10132 0.34860
 C193 C 0.63791 0.10790 0.67010
 C194 C 0.34189 -0.10114 0.65462
 C195 C 0.35536 0.10558 0.33563
 C196 C 0.58596 0.59408 0.04302
 H197 H 0.57333 0.60806 -0.01618
 C198 C 0.63143 0.62453 0.09065
 H199 H 0.65371 0.66174 0.06739
 C200 C 0.57472 0.52736 0.14359
 H201 H 0.55305 0.48932 0.16396
 C202 C 0.62004 0.55647 0.19315
 H203 H 0.63200 0.54071 0.25165
 N204 N 0.55912 0.54616 0.06968
 C205 C 0.54566 0.40482 -0.08430
 H206 H 0.49751 0.38722 -0.06427
 C207 C 0.58804 0.37538 -0.12989
 H208 H 0.57173 0.33467 -0.14671
 C209 C 0.61816 0.48346 -0.09117
 H210 H 0.62947 0.52553 -0.07669
 C211 C 0.66699 0.45252 -0.14004
 H212 H 0.71465 0.47310 -0.15496
 Zn213 Zn 0.50380 0.50346 -0.00095
 N214 N 0.56258 0.46035 -0.06424
 C215 C 0.44038 0.53332 -0.14477
 N216 N 0.45191 0.54941 -0.06835
 C217 C 0.42161 0.59477 -0.03801
 C218 C 0.37613 0.62519 -0.08465
 C219 C 0.39515 0.56244 -0.19340
 C220 C 0.46529 0.41472 0.09801
 C221 C 0.41972 0.38290 0.14261
 C222 C 0.32653 0.44146 0.10066
 C223 C 0.37359 0.47180 0.05659
 N224 N 0.44175 0.45862 0.05682
 H225 H 0.46450 0.49678 -0.16727
 H226 H 0.43079 0.60610 0.02339
 H227 H 0.35050 0.66003 -0.05866
 H228 H 0.38577 0.54860 -0.25375
 H229 H 0.51957 0.40459 0.09657
 H230 H 0.43937 0.34866 0.17617
 H231 H 0.27254 0.45277 0.09983
 H232 H 0.35542 0.50628 0.02291
 C233 C 0.65395 0.39982 -0.15964
 C234 C 0.64966 0.60544 0.16650
 C235 C 0.34948 0.39669 0.14499
 C236 C 0.36142 0.60847 -0.16298
   
