data_POSCAR
  _audit_creation_date              2014-09-24
  _audit_creation_method            'ToBaCCo'
  _symmetry_space_group_name_H-M    'P1'
  _symmetry_Int_Tables_number       1
  _symmetry_cell_setting            triclinic
  loop_
  _symmetry_equiv_pos_as_xyz
 x,y,z
_cell_length_a 50.5035
_cell_length_b 50.5421
_cell_length_c 14.3569
_cell_angle_alpha 90.093400
_cell_angle_beta 90.000800
_cell_angle_gamma 119.876500
loop_
  _atom_site_label
  _atom_site_type_symbol
  _atom_site_fract_x
  _atom_site_fract_y
  _atom_site_fract_z
C1 C 0.21904 0.48733 0.45330
 C2 C 0.21933 0.48753 0.55180
 C3 C 0.24353 0.48758 0.59995
 C4 C 0.26748 0.48743 0.55108
 C5 C 0.26720 0.48734 0.45279
 C6 C 0.24306 0.48730 0.40463
 H7 H 0.24297 0.48712 0.32902
 H8 H 0.24366 0.48762 0.67560
 C9 C 0.51250 -0.26796 0.45113
 C10 C 0.51230 -0.26776 0.54944
 C11 C 0.51228 -0.24360 0.59747
 C12 C 0.51247 -0.21955 0.54850
 C13 C 0.51257 -0.21982 0.45019
 C14 C 0.51257 -0.24397 0.40218
 H15 H 0.51275 -0.24398 0.32658
 H16 H 0.51224 -0.24352 0.67307
 C17 C 1.26819 0.78112 0.44745
 C18 C 1.26794 0.78085 0.54578
 C19 C 1.24385 0.75674 0.59365
 C20 C 1.21992 0.73284 0.54456
 C21 C 1.22019 0.73305 0.44641
 C22 C 1.24427 0.75713 0.39839
 H23 H 1.24428 0.75719 0.32279
 H24 H 1.24367 0.75664 0.66921
 C25 C 0.78023 0.51250 0.45520
 C26 C 0.78011 0.51217 0.55351
 C27 C 0.75596 0.51199 0.60225
 C28 C 0.73194 0.51218 0.55387
 C29 C 0.73208 0.51246 0.45556
 C30 C 0.75618 0.51259 0.40696
 H31 H 0.75630 0.51290 0.33140
 H32 H 0.75592 0.51183 0.67789
 C33 C 0.48720 0.26770 0.45599
 C34 C 0.48738 0.26780 0.55431
 C35 C 0.48750 0.24380 0.60279
 C36 C 0.48741 0.21968 0.55416
 C37 C 0.48728 0.21965 0.45584
 C38 C 0.48720 0.24365 0.40749
 H39 H 0.48701 0.24354 0.33193
 H40 H 0.48755 0.24383 0.67843
 C41 C 0.73304 0.21993 0.45225
 C42 C 0.73309 0.22001 0.55041
 C43 C 0.75711 0.24404 0.59901
 C44 C 0.78116 0.26802 0.55054
 C45 C 0.78106 0.26795 0.45220
 C46 C 0.75700 0.24392 0.40374
 H47 H 0.75698 0.24382 0.32818
 H48 H 0.75709 0.24395 0.67461
 N49 N 0.96791 0.53085 0.09852
 N50 N 0.94471 0.53562 0.11101
 N51 N 1.03232 0.54476 0.16240
 N52 N 1.05565 0.55969 0.21939
 N53 N 1.03217 0.56303 0.09781
 N54 N 1.05540 0.59092 0.10911
 N55 N 0.96812 0.51259 0.16305
 N56 N 0.94510 0.50441 0.22110
 C57 C 0.93066 0.51894 0.18782
 C58 C 1.06985 0.58848 0.18530
 N59 N 1.03269 0.46952 0.09883
 N60 N 1.05580 0.46462 0.11156
 N61 N 0.96839 0.45581 0.16352
 N62 N 0.94528 0.44102 0.22125
 N63 N 0.96837 0.43733 0.09917
 N64 N 0.94525 0.40944 0.11139
 N65 N 1.03265 0.48801 0.16308
 N66 N 1.05570 0.49619 0.22118
 Mn67 Mn 1.00037 0.50030 0.16411
 C68 C 1.06999 0.48145 0.18821
 C69 C 0.93104 0.41209 0.18790
 N70 N 1.03204 0.56284 -0.10280
 N71 N 1.05507 0.59078 -0.11541
 N72 N 0.96772 0.51214 -0.16653
 N73 N 0.94438 0.50365 -0.22365
 N74 N 0.96773 0.53060 -0.10210
 N75 N 0.94441 0.53519 -0.11364
 N76 N 1.03203 0.54435 -0.16716
 N77 N 1.05504 0.55920 -0.22524
 Mn78 Mn 0.99996 0.54716 -0.00214
 C79 C 1.06926 0.58817 -0.19214
 C80 C 0.93003 0.51823 -0.18981
 N81 N 0.96808 0.43701 -0.10146
 N82 N 0.94495 0.40907 -0.11327
 N83 N 1.03220 0.48748 -0.16646
 N84 N 1.05550 0.49593 -0.22357
 N85 N 1.03234 0.46921 -0.10181
 N86 N 1.05573 0.46472 -0.11319
 N87 N 0.96795 0.45530 -0.16606
 N88 N 0.94474 0.44032 -0.22349
 Mn89 Mn 1.00037 0.45293 -0.00134
 Mn90 Mn 0.99997 0.49981 -0.16769
 Cl91 Cl 1.00017 0.50005 -0.00178
 C92 C 0.93056 0.41148 -0.18975
 C93 C 1.06997 0.48153 -0.18950
 N94 N 0.46893 0.43705 0.10041
 N95 N 0.46415 0.40913 0.11287
 N96 N 0.45514 0.48766 0.16430
 N97 N 0.44027 0.49606 0.22163
 N98 N 0.43676 0.46923 0.09980
 N99 N 0.40884 0.46457 0.11152
 N100 N 0.48729 0.45551 0.16493
 N101 N 0.49551 0.44068 0.22295
 C102 C 0.48091 0.41174 0.18965
 C103 C 0.41140 0.48147 0.18786
 N104 N 0.53037 0.56288 0.10050
 N105 N 0.53524 0.59086 0.11295
 N106 N 0.54411 0.51234 0.16532
 N107 N 0.55895 0.50408 0.22322
 N108 N 0.56255 0.53066 0.10097
 N109 N 0.59048 0.53539 0.11337
 N110 N 0.51194 0.54452 0.16484
 N111 N 0.50376 0.55948 0.22273
 Mn112 Mn 0.49961 0.50000 0.16593
 C113 C 0.51846 0.58839 0.18954
 C114 C 0.58787 0.51863 0.18997
 N115 N 0.43673 0.46909 -0.10082
 N116 N 0.40878 0.46436 -0.11310
 N117 N 0.48737 0.45522 -0.16465
 N118 N 0.49579 0.44030 -0.22180
 N119 N 0.46896 0.43691 -0.10022
 N120 N 0.46433 0.40901 -0.11179
 N121 N 0.45515 0.48741 -0.16525
 N122 N 0.44024 0.49565 -0.22307
 Mn123 Mn 0.45251 0.45274 -0.00021
 C124 C 0.41130 0.48110 -0.18972
 C125 C 0.48123 0.41146 -0.18799
 N126 N 0.56266 0.53046 -0.09965
 N127 N 0.59060 0.53512 -0.11128
 N128 N 0.51212 0.54421 -0.16472
 N129 N 0.50366 0.55903 -0.22198
 N130 N 0.53047 0.56261 -0.10011
 N131 N 0.53502 0.59047 -0.11167
 N132 N 0.54430 0.51205 -0.16426
 N133 N 0.55925 0.50367 -0.22154
 Mn134 Mn 0.54685 0.54699 0.00040
 Mn135 Mn 0.49974 0.49973 -0.16587
 Cl136 Cl 0.49968 0.49986 0.00005
 C137 C 0.58813 0.51825 -0.18767
 C138 C 0.51815 0.58788 -0.18805
 N139 N 0.43714 -0.03206 0.09944
 N140 N 0.40917 -0.05513 0.11160
 N141 N 0.48772 0.03209 0.16457
 N142 N 0.49601 0.05517 0.22256
 N143 N 0.46932 0.03220 0.10025
 N144 N 0.46456 0.05538 0.11275
 N145 N 0.45556 -0.03213 0.16381
 N146 N 0.44065 -0.05524 0.22143
 C147 C 0.41171 -0.06943 0.18805
 C148 C 0.48138 0.06952 0.18939
 N149 N 0.56306 0.03201 0.09955
 N150 N 0.59100 0.05513 0.11183
 N151 N 0.51251 -0.03216 0.16322
 N152 N 0.50411 -0.05540 0.22032
 N153 N 0.53090 -0.03220 0.09867
 N154 N 0.53554 -0.05548 0.11014
 N155 N 0.54465 0.03200 0.16412
 N156 N 0.55954 0.05509 0.22201
 Mn157 Mn 0.50012 -0.00005 0.16503
 C158 C 0.58845 0.06935 0.18857
 C159 C 0.51866 -0.06975 0.18638
 N160 N 0.46938 0.03244 -0.10036
 N161 N 0.46466 0.05568 -0.11190
 N162 N 0.45566 -0.03174 -0.16579
 N163 N 0.44083 -0.05493 -0.22331
 N164 N 0.43726 -0.03176 -0.10119
 N165 N 0.40938 -0.05498 -0.11304
 N166 N 0.48778 0.03244 -0.16496
 N167 N 0.49609 0.05568 -0.22214
 Mn168 Mn 0.45294 0.00020 -0.00048
 C169 C 0.48149 0.07000 -0.18822
 C170 C 0.41197 -0.06923 -0.18957
 N171 N 0.53088 -0.03217 -0.10196
 N172 N 0.53565 -0.05536 -0.11448
 N173 N 0.54466 0.03221 -0.16543
 N174 N 0.55954 0.05542 -0.22263
 N175 N 0.56305 0.03210 -0.10106
 N176 N 0.59098 0.05524 -0.11272
 N177 N 0.51250 -0.03204 -0.16637
 N178 N 0.50425 -0.05514 -0.22441
 Mn179 Mn 0.54731 -0.00007 -0.00119
 Mn180 Mn 0.50014 0.00022 -0.16677
 Cl181 Cl 0.50013 0.00008 -0.00086
 C182 C 0.51886 -0.06952 -0.19122
 C183 C 0.58843 0.06960 -0.18891
 C184 C 1.14885 0.48589 0.31707
 C185 C 1.13628 0.50298 0.35290
 C186 C 1.11074 0.50169 0.31052
 C187 C 1.19556 0.48692 0.40427
 C188 C 1.11038 0.46641 0.19526
 C189 C 1.13592 0.46769 0.23793
 C190 C 1.17447 0.48648 0.36330
 C191 C 1.09743 0.48327 0.23154
 H192 H 1.14610 0.51716 0.41400
 H193 H 1.10133 0.51499 0.33989
 H194 H 1.10063 0.45207 0.13444
 H195 H 1.14542 0.45432 0.20966
 C196 C 0.51395 0.66301 0.31683
 C197 C 0.53201 0.66801 0.23759
 C198 C 0.53331 0.64368 0.19548
 C199 C 0.51289 0.70886 0.40280
 C200 C 0.49834 0.60921 0.31153
 C201 C 0.49703 0.63353 0.35337
 C202 C 0.51333 0.68812 0.36242
 C203 C 0.51662 0.61406 0.23242
 H204 H 0.54524 0.69074 0.20878
 H205 H 0.54755 0.64809 0.13455
 H206 H 0.48518 0.58664 0.34141
 H207 H 0.48296 0.62937 0.41457
 C208 C 0.33716 -0.14851 0.31401
 C209 C 0.33212 -0.13544 0.23491
 C210 C 0.35643 -0.10982 0.19326
 C211 C 0.29133 -0.19538 0.39929
 C212 C 0.39097 -0.11035 0.30947
 C213 C 0.36667 -0.13598 0.35086
 C214 C 0.31206 -0.17422 0.35917
 C215 C 0.38607 -0.09692 0.23051
 H216 H 0.30938 -0.14491 0.20586
 H217 H 0.35198 -0.09998 0.13243
 H218 H 0.41355 -0.10098 0.33959
 H219 H 0.37086 -0.14590 0.41196
 C220 C 0.85167 0.51418 0.31591
 C221 C 0.86442 0.53220 0.23658
 C222 C 0.89002 0.53358 0.19412
 C223 C 0.80496 0.51302 0.40300
 C224 C 0.89003 0.49875 0.31001
 C225 C 0.86444 0.49736 0.35219
 C226 C 0.82604 0.51352 0.36200
 C227 C 0.90318 0.51700 0.23086
 H228 H 0.85474 0.54536 0.20803
 H229 H 0.89965 0.54779 0.13314
 H230 H 0.89962 0.48567 0.33970
 H231 H 0.85474 0.48333 0.41347
 C232 C 0.48566 0.33754 0.31736
 C233 C 0.46758 0.33233 0.23801
 C234 C 0.46621 0.35655 0.19570
 C235 C 0.48676 0.29197 0.40405
 C236 C 0.50116 0.39127 0.31179
 C237 C 0.50254 0.36707 0.35382
 C238 C 0.48629 0.31257 0.36328
 C239 C 0.48285 0.38622 0.23260
 H240 H 0.45437 0.30955 0.20932
 H241 H 0.45195 0.35201 0.13470
 H242 H 0.51429 0.41389 0.34160
 H243 H 0.51662 0.37136 0.41512
 C244 C 0.66287 0.14844 0.31501
 C245 C 0.66792 0.13547 0.23556
 C246 C 0.64363 0.10984 0.19372
 C247 C 0.70866 0.19521 0.40078
 C248 C 0.60913 0.11019 0.31047
 C249 C 0.63341 0.13583 0.35205
 C250 C 0.68794 0.17410 0.36043
 C251 C 0.61404 0.09685 0.23117
 H252 H 0.69064 0.14501 0.20642
 H253 H 0.64806 0.10005 0.13261
 H254 H 0.58658 0.10073 0.34072
 H255 H 0.62925 0.14569 0.41347
 C256 C 0.48633 0.14949 -0.31223
 C257 C 0.46823 0.13637 -0.23323
 C258 C 0.46685 0.11063 -0.19215
 C259 C 0.48719 0.19630 -0.39730
 C260 C 0.50184 0.11116 -0.30873
 C261 C 0.50323 0.13692 -0.34953
 C262 C 0.48686 0.17520 -0.35713
 C263 C 0.48349 0.09766 -0.22994
 H264 H 0.45499 0.14587 -0.20391
 H265 H 0.45257 0.10072 -0.13142
 H266 H 0.51496 0.10172 -0.33920
 H267 H 0.51731 0.14689 -0.41061
 C268 C 0.66279 0.51325 -0.31197
 C269 C 0.66773 0.53140 -0.23294
 C270 C 0.64335 0.53283 -0.19176
 C271 C 0.70878 0.51238 -0.39736
 C272 C 0.60899 0.49777 -0.30829
 C273 C 0.63336 0.49633 -0.34920
 C274 C 0.68798 0.51269 -0.35703
 C275 C 0.61378 0.51618 -0.22948
 H276 H 0.69043 0.54464 -0.20368
 H277 H 0.64770 0.54715 -0.13101
 H278 H 0.58645 0.48464 -0.33871
 H279 H 0.62928 0.48221 -0.41030
 C280 C 0.85130 0.33691 -0.31501
 C281 C 0.86447 0.33195 -0.23594
 C282 C 0.89015 0.35629 -0.19443
 C283 C 0.80455 0.29109 -0.40073
 C284 C 0.88944 0.39065 -0.31074
 C285 C 0.86376 0.36633 -0.35197
 C286 C 0.82564 0.31180 -0.36027
 C287 C 0.90299 0.38584 -0.23186
 H288 H 0.85505 0.30926 -0.20688
 H289 H 0.90009 0.35193 -0.13365
 H290 H 0.89879 0.41317 -0.34095
 H291 H 0.85375 0.37042 -0.41308
 C292 C 0.51399 -0.14891 -0.31783
 C293 C 0.53200 -0.13596 -0.23839
 C294 C 0.53343 -0.11024 -0.19658
 C295 C 0.51284 -0.19597 -0.40327
 C296 C 0.49866 -0.11042 -0.31330
 C297 C 0.49724 -0.13614 -0.35486
 C298 C 0.51329 -0.17473 -0.36311
 C299 C 0.51690 -0.09711 -0.23398
 H300 H 0.54512 -0.14560 -0.20919
 H301 H 0.54762 -0.10051 -0.13548
 H302 H 0.48563 -0.10086 -0.34354
 H303 H 0.48321 -0.14597 -0.41624
 C304 C 0.33666 0.48599 -0.31546
 C305 C 0.33172 0.46804 -0.23613
 C306 C 0.35606 0.46661 -0.19460
 C307 C 0.29069 0.48709 -0.40063
 C308 C 0.39045 0.50126 -0.31139
 C309 C 0.36611 0.50269 -0.35267
 C310 C 0.31149 0.48666 -0.36054
 C311 C 0.38564 0.48308 -0.23219
 H312 H 0.30903 0.45496 -0.20681
 H313 H 0.35169 0.45246 -0.13358
 H314 H 0.41298 0.51425 -0.34176
 H315 H 0.37022 0.51667 -0.41397
 C316 C 1.14820 0.66258 -0.31924
 C317 C 1.13526 0.66765 -0.23976
 C318 C 1.10968 0.64339 -0.19778
 C319 C 1.19508 0.70837 -0.40458
 C320 C 1.10998 0.60883 -0.31445
 C321 C 1.13556 0.63309 -0.35618
 C322 C 1.17391 0.68764 -0.36455
 C323 C 1.09668 0.61376 -0.23507
 H324 H 1.14480 0.69038 -0.21062
 H325 H 1.09995 0.64786 -0.13663
 H326 H 1.10052 0.58625 -0.34461
 H327 H 1.14537 0.62887 -0.41758
 C328 C 0.85027 0.51307 -0.31315
 C329 C 0.86280 0.49615 -0.35058
 C330 C 0.88865 0.49763 -0.30998
 C331 C 0.80346 0.51230 -0.39802
 C332 C 0.88932 0.53272 -0.19338
 C333 C 0.86349 0.53125 -0.23425
 C334 C 0.82455 0.51255 -0.35794
 C335 C 0.90227 0.51608 -0.23131
 H336 H 0.85274 0.48201 -0.41162
 H337 H 0.89809 0.48450 -0.34051
 H338 H 0.89932 0.54707 -0.13272
 H339 H 0.85401 0.54450 -0.20488
 C340 C 0.48633 0.33688 -0.31171
 C341 C 0.46817 0.33199 -0.23286
 C342 C 0.46672 0.35635 -0.19184
 C343 C 0.48717 0.29093 -0.39697
 C344 C 0.50178 0.39061 -0.30821
 C345 C 0.50324 0.36625 -0.34895
 C346 C 0.48686 0.31171 -0.35667
 C347 C 0.48335 0.38585 -0.22958
 H348 H 0.45493 0.30932 -0.20364
 H349 H 0.45238 0.35205 -0.13122
 H350 H 0.51489 0.41311 -0.33860
 H351 H 0.51736 0.37028 -0.40994
 C352 C 0.66289 0.14880 -0.31312
 C353 C 0.63345 0.13638 -0.35026
 C354 C 0.60913 0.11071 -0.30935
 C355 C 0.70873 0.19542 -0.39821
 C356 C 0.64359 0.10999 -0.19305
 C357 C 0.66791 0.13565 -0.23422
 C358 C 0.68800 0.17440 -0.35807
 C359 C 0.61401 0.09716 -0.23067
 H360 H 0.62933 0.14639 -0.41127
 H361 H 0.58658 0.10136 -0.33965
 H362 H 0.64797 0.10004 -0.13239
 H363 H 0.69063 0.14506 -0.20508
 C364 C 1.14965 0.48678 -0.31285
 C365 C 1.13657 0.46869 -0.23395
 C366 C 1.11076 0.46721 -0.19298
 C367 C 1.19617 0.48743 -0.39875
 C368 C 1.11124 0.50214 -0.30950
 C369 C 1.13706 0.50363 -0.35018
 C370 C 1.17523 0.48722 -0.35803
 C371 C 1.09773 0.48375 -0.23089
 H372 H 1.14611 0.45550 -0.20474
 H373 H 1.10083 0.45291 -0.13235
 H374 H 1.10173 0.51519 -0.33996
 H375 H 1.14704 0.51770 -0.41124
 C376 C 0.51301 0.66216 -0.31218
 C377 C 0.49607 0.63275 -0.34935
 C378 C 0.49753 0.60846 -0.30840
 C379 C 0.51237 0.70795 -0.39821
 C380 C 0.53260 0.64292 -0.19195
 C381 C 0.53116 0.66721 -0.23318
 C382 C 0.51257 0.68724 -0.35751
 C383 C 0.51598 0.61338 -0.22969
 H384 H 0.48196 0.62863 -0.41048
 H385 H 0.48442 0.58592 -0.33874
 H386 H 0.54695 0.64732 -0.13124
 H387 H 0.54441 0.68993 -0.20408
 C388 C 0.33778 -0.14837 -0.31499
 C389 C 0.33265 -0.13533 -0.23593
 C390 C 0.35690 -0.10968 -0.19426
 C391 C 0.29214 -0.19474 -0.40167
 C392 C 0.39148 -0.11027 -0.31041
 C393 C 0.36724 -0.13592 -0.35179
 C394 C 0.31277 -0.17384 -0.36069
 C395 C 0.38649 -0.09680 -0.23162
 H396 H 0.30989 -0.14479 -0.20711
 H397 H 0.35245 -0.09977 -0.13351
 H398 H 0.41406 -0.10086 -0.34047
 H399 H 0.37142 -0.14587 -0.41295
 C400 C 0.51368 -0.14896 0.31117
 C401 C 0.49661 -0.13649 0.34777
 C402 C 0.49803 -0.11082 0.30656
 C403 C 0.51287 -0.19536 0.39772
 C404 C 0.53332 -0.11026 0.19093
 C405 C 0.53192 -0.13593 0.23245
 C406 C 0.51320 -0.17445 0.35678
 C407 C 0.51656 -0.09736 0.22812
 H408 H 0.48242 -0.14645 0.40866
 H409 H 0.48481 -0.10141 0.33648
 H410 H 0.54774 -0.10035 0.13045
 H411 H 0.54527 -0.14540 0.20379
 C412 C 0.33709 0.48634 0.31358
 C413 C 0.36659 0.50345 0.35003
 C414 C 0.39087 0.50207 0.30851
 C415 C 0.29143 0.48708 0.40042
 C416 C 0.35623 0.46672 0.19289
 C417 C 0.33194 0.46809 0.23472
 C418 C 0.31206 0.48679 0.35941
 C419 C 0.38586 0.48354 0.22992
 H420 H 0.37078 0.51765 0.41101
 H421 H 0.41348 0.51533 0.33830
 H422 H 0.35177 0.45230 0.13231
 H423 H 0.30915 0.45471 0.20617
 C424 C 1.14924 0.66293 0.30882
 C425 C 1.13687 0.63358 0.34609
 C426 C 1.11114 0.60925 0.30533
 C427 C 1.19574 0.70876 0.39442
 C428 C 1.11029 0.64353 0.18888
 C429 C 1.13602 0.66787 0.22992
 C430 C 1.17478 0.68805 0.35391
 C431 C 1.09750 0.61405 0.22671
 H432 H 1.14696 0.62955 0.40714
 H433 H 1.10181 0.58675 0.33574
 H434 H 1.10025 0.64784 0.12824
 H435 H 1.14540 0.69054 0.20075
 C436 C 0.48610 0.14850 0.31684
 C437 C 0.46798 0.13560 0.23764
 C438 C 0.46663 0.11000 0.19537
 C439 C 0.48698 0.19504 0.40372
 C440 C 0.50173 0.11031 0.31123
 C441 C 0.50308 0.13591 0.35321
 C442 C 0.48663 0.17404 0.36282
 C443 C 0.48335 0.09701 0.23222
 H444 H 0.45470 0.14515 0.20907
 H445 H 0.45233 0.10024 0.13449
 H446 H 0.51491 0.10083 0.34095
 H447 H 0.51719 0.14573 0.41443
 C448 C 0.66214 0.51385 0.31711
 C449 C 0.66730 0.53190 0.23793
 C450 C 0.64305 0.53327 0.19578
 C451 C 0.70778 0.51285 0.40367
 C452 C 0.60839 0.49836 0.31170
 C453 C 0.63263 0.49698 0.35358
 C454 C 0.68714 0.51326 0.36293
 C455 C 0.61341 0.51666 0.23271
 H456 H 0.69008 0.54509 0.20929
 H457 H 0.64754 0.54751 0.13490
 H458 H 0.58578 0.48526 0.34149
 H459 H 0.62840 0.48292 0.41478
 C460 C 0.85208 0.33789 0.31406
 C461 C 0.86510 0.33273 0.23497
 C462 C 0.89068 0.35697 0.19315
 C463 C 0.80560 0.29223 0.40025
 C464 C 0.89015 0.39161 0.30921
 C465 C 0.86455 0.36738 0.35075
 C466 C 0.82656 0.31288 0.35963
 C467 C 0.90356 0.38659 0.23033
 H468 H 0.85565 0.30997 0.20616
 H469 H 0.90053 0.35248 0.13235
 H470 H 0.89953 0.41420 0.33917
 H471 H 0.85464 0.37161 0.41190
   
