data_POSCAR
  _audit_creation_date              2014-09-24
  _audit_creation_method            'ToBaCCo'
  _symmetry_space_group_name_H-M    'P1'
  _symmetry_Int_Tables_number       1
  _symmetry_cell_setting            triclinic
  loop_
  _symmetry_equiv_pos_as_xyz
 x,y,z
_cell_length_a 35.6782
_cell_length_b 34.7580
_cell_length_c 35.0110
_cell_angle_alpha 89.919500
_cell_angle_beta 89.694000
_cell_angle_gamma 90.122500
loop_
  _atom_site_label
  _atom_site_type_symbol
  _atom_site_fract_x
  _atom_site_fract_y
  _atom_site_fract_z
C1 C 0.74143 0.66100 1.00057
 C2 C 0.74382 0.38993 0.49642
 C3 C 0.25303 -0.11163 0.00500
 C4 C 0.25881 0.11826 0.51205
 C5 C 0.09600 0.48278 0.24251
 C6 C -0.09050 0.01779 0.25679
 C7 C 0.36527 0.49983 0.73955
 C8 C 0.65381 0.99602 0.74302
 C9 C -0.00155 0.24776 -0.13970
 C10 C 0.50580 0.25484 0.09510
 C11 C 0.99531 0.73682 0.61097
 C12 C 0.49671 0.74897 0.37447
 C13 C 0.46001 -0.01984 0.28475
 H14 H 0.47339 0.00706 0.27717
 C15 C 0.48044 -0.04855 0.30347
 H16 H 0.50965 -0.04367 0.31022
 C17 C 0.40559 -0.05911 0.28575
 H18 H 0.37618 -0.06268 0.27924
 C19 C 0.42477 -0.08833 0.30431
 H20 H 0.40945 -0.11397 0.31246
 N21 N 0.42317 -0.02561 0.27668
 C22 C 0.41688 0.06184 0.19628
 H23 H 0.40261 0.04246 0.17712
 C24 C 0.43195 0.09605 0.18201
 H25 H 0.42866 0.10220 0.15196
 C26 C 0.43520 0.07832 0.25912
 H27 H 0.43532 0.07161 0.28930
 C28 C 0.45069 0.11292 0.24605
 H29 H 0.46320 0.13256 0.26634
 Zn30 Zn 0.39165 0.01098 0.25350
 N31 N 0.41848 0.05377 0.23425
 C32 C 0.33420 0.05893 0.28265
 N33 N 0.35779 0.02951 0.29116
 C34 C 0.36157 0.01677 0.32773
 C35 C 0.34194 0.03418 0.35752
 C36 C 0.31402 0.07732 0.31172
 C37 C 0.39088 -0.03791 0.19190
 C38 C 0.37686 -0.06009 0.16214
 C39 C 0.31556 -0.03302 0.17396
 C40 C 0.33065 -0.01194 0.20437
 N41 N 0.36778 -0.01477 0.21260
 H42 H 0.33246 0.06933 0.25358
 H43 H 0.38135 -0.00561 0.33444
 H44 H 0.34721 0.02444 0.38631
 H45 H 0.29631 0.10155 0.30466
 H46 H 0.42030 -0.03956 0.19901
 H47 H 0.39556 -0.07890 0.14644
 H48 H 0.28591 -0.03096 0.16788
 H49 H 0.31275 0.00639 0.22139
 C50 C 0.44897 0.12233 0.20710
 C51 C 0.46283 -0.08341 0.31319
 C52 C 0.33891 -0.05764 0.15271
 C53 C 0.31815 0.06534 0.34981
 C54 C 0.07221 1.01497 0.80723
 H55 H 0.07030 0.98593 0.81822
 C56 C 0.05640 1.04541 0.82775
 H57 H 0.04196 1.03949 0.85442
 C58 C 0.09442 1.05808 0.75977
 H59 H 0.11007 1.06309 0.73375
 C60 C 0.07918 1.08934 0.77938
 H61 H 0.08374 1.11780 0.76782
 N62 N 0.09055 1.02176 0.77376
 C63 C 0.09382 0.91674 0.70695
 H64 H 0.12301 0.91845 0.69858
 C65 C 0.07143 0.88731 0.69283
 H66 H 0.08363 0.86713 0.67285
 C67 C 0.04258 0.94266 0.74167
 H68 H 0.03147 0.96457 0.76040
 C69 C 0.01897 0.91358 0.72801
 H70 H -0.01030 0.91320 0.73638
 Zn71 Zn 0.11434 0.98045 0.74818
 N72 N 0.07943 0.94322 0.73144
 C73 C 0.14605 0.91814 0.78832
 N74 N 0.14821 0.95684 0.78270
 C75 C 0.17143 0.97906 0.80415
 C76 C 0.19282 0.96250 0.83331
 C77 C 0.16735 0.90042 0.81649
 C78 C 0.11459 1.00898 0.67487
 C79 C 0.12855 1.02084 0.63955
 C80 C 0.19140 1.01250 0.66357
 C81 C 0.17613 1.00020 0.69851
 N82 N 0.13831 0.99893 0.70344
 H83 H 0.12702 0.90083 0.77181
 H84 H 0.17239 1.00982 0.79944
 H85 H 0.21081 0.98067 0.85037
 H86 H 0.16476 0.86965 0.82083
 H87 H 0.08463 1.00728 0.67950
 H88 H 0.10916 1.02854 0.61711
 H89 H 0.22153 1.01288 0.65991
 H90 H 0.19440 0.99141 0.72146
 C91 C 0.03359 0.88502 0.70391
 C92 C 0.05964 1.08321 0.81388
 C93 C 0.16731 1.02301 0.63358
 C94 C 0.19033 0.92266 0.84005
 C95 C 0.57254 0.56150 0.25497
 H96 H 0.57040 0.56249 0.22423
 C97 C 0.55342 0.58877 0.27703
 H98 H 0.53564 0.60943 0.26285
 C99 C 0.59957 0.53466 0.31051
 H100 H 0.61868 0.51494 0.32383
 C101 C 0.58079 0.56101 0.33355
 H102 H 0.58520 0.56043 0.36414
 N103 N 0.59498 0.53490 0.27190
 C104 C 0.56387 0.47754 0.19264
 H105 H 0.55662 0.50763 0.19212
 C106 C 0.54345 0.45157 0.17042
 H107 H 0.52039 0.46194 0.15327
 C108 C 0.60378 0.42754 0.21360
 H109 H 0.62828 0.41834 0.22906
 C110 C 0.58407 0.40065 0.19202
 H111 H 0.59396 0.37126 0.19146
 Zn112 Zn 0.62404 0.50067 0.24109
 N113 N 0.59340 0.46520 0.21381
 C114 C 0.63874 0.44893 0.29955
 N115 N 0.65611 0.47235 0.27376
 C116 C 0.69409 0.47608 0.27299
 C117 C 0.71596 0.45697 0.30017
 C118 C 0.65930 0.43022 0.32762
 C119 C 0.66801 0.56384 0.21804
 C120 C 0.68376 0.58975 0.19191
 C121 C 0.66671 0.54667 0.14076
 C122 C 0.65107 0.52170 0.16785
 N123 N 0.65152 0.53090 0.20560
 H124 H 0.60853 0.44611 0.29918
 H125 H 0.70731 0.49449 0.25194
 H126 H 0.74611 0.46061 0.29995
 H127 H 0.64488 0.41257 0.34858
 H128 H 0.66757 0.57070 0.24817
 H129 H 0.69573 0.61644 0.20219
 H130 H 0.66446 0.53934 0.11085
 H131 H 0.63750 0.49554 0.15854
 C132 C 0.55335 0.41255 0.17006
 C133 C 0.55788 0.58890 0.31694
 C134 C 0.68291 0.58154 0.15268
 C135 C 0.69829 0.43481 0.32856
 C136 C 0.89595 0.47047 0.81987
 H137 H 0.89084 0.49774 0.83379
 C138 C 0.91552 0.44157 0.83891
 H139 H 0.92537 0.44669 0.86768
 C140 C 0.88848 0.43032 0.76575
 H141 H 0.87759 0.42607 0.73731
 C142 C 0.90814 0.40070 0.78365
 H143 H 0.91137 0.37360 0.76887
 N144 N 0.88256 0.46422 0.78414
 C145 C 0.87285 0.57105 0.72005
 H146 H 0.84285 0.57315 0.71619
 C147 C 0.89650 0.59838 0.70331
 H148 H 0.88391 0.62086 0.68641
 C149 C 0.92490 0.53735 0.74499
 H150 H 0.93592 0.51326 0.76087
 C151 C 0.94960 0.56413 0.72887
 H152 H 0.97949 0.56041 0.73263
 Zn153 Zn 0.85418 0.50332 0.76061
 N154 N 0.88727 0.54119 0.74030
 C155 C 0.82149 0.56403 0.80407
 N156 N 0.82221 0.52530 0.79846
 C157 C 0.80212 0.50119 0.82145
 C158 C 0.78027 0.51578 0.85130
 C159 C 0.80000 0.57983 0.83355
 C160 C 0.83335 0.49031 0.68350
 C161 C 0.81444 0.47222 0.65367
 C162 C 0.78001 0.43477 0.70021
 C163 C 0.79938 0.45380 0.72917
 N164 N 0.82556 0.48100 0.72049
 H165 H 0.83799 0.58288 0.78618
 H166 H 0.80411 0.47045 0.81759
 H167 H 0.76501 0.49607 0.86969
 H168 H 0.79964 0.61075 0.83689
 H169 H 0.85523 0.51073 0.67682
 H170 H 0.82230 0.47922 0.62460
 H171 H 0.75987 0.41259 0.70765
 H172 H 0.79426 0.44587 0.75852
 C173 C 0.93559 0.59519 0.70771
 C174 C 0.92183 0.40616 0.82085
 C175 C 0.78739 0.44391 0.66191
 C176 C 0.77954 0.55548 0.85812
 C177 C 0.27214 0.39047 -0.07814
 H178 H 0.27333 0.35941 -0.07984
 C179 C 0.28643 0.41284 -0.10797
 H180 H 0.29916 0.39849 -0.13214
 C181 C 0.25567 0.44637 -0.04328
 H182 H 0.24343 0.45936 -0.01818
 C183 C 0.26983 0.46987 -0.07237
 H184 H 0.26877 0.50085 -0.06917
 N185 N 0.25786 0.40742 -0.04629
 C186 C 0.18465 0.39719 0.04555
 H187 H 0.16739 0.37622 0.03123
 C188 C 0.16965 0.41803 0.07599
 H189 H 0.14058 0.41349 0.08372
 C190 C 0.24327 0.42843 0.05275
 H191 H 0.27209 0.43200 0.04363
 C192 C 0.22934 0.45004 0.08328
 H193 H 0.24755 0.47032 0.09760
 Zn194 Zn 0.24166 0.37430 -0.00656
 N195 N 0.22076 0.40297 0.03427
 C196 C 0.31855 0.35442 0.00068
 N197 N 0.28316 0.34700 0.01344
 C198 C 0.27690 0.32273 0.04328
 C199 C 0.30691 0.30494 0.06165
 C200 C 0.34938 0.33718 0.01817
 C201 C 0.17424 0.35709 -0.04269
 C202 C 0.14659 0.33444 -0.05958
 C203 C 0.18425 0.27823 -0.04687
 C204 C 0.21092 0.30194 -0.02949
 N205 N 0.20537 0.34061 -0.02759
 H206 H 0.32314 0.37476 -0.02220
 H207 H 0.24856 0.31796 0.05340
 H208 H 0.30141 0.28618 0.08577
 H209 H 0.37715 0.34477 0.00821
 H210 H 0.17102 0.38802 -0.04171
 H211 H 0.12237 0.34831 -0.07195
 H212 H 0.18923 0.24757 -0.04880
 H213 H 0.23632 0.28951 -0.01825
 C214 C 0.19223 0.44467 0.09550
 C215 C 0.28558 0.45320 -0.10515
 C216 C 0.15144 0.29442 -0.06177
 C217 C 0.34375 0.31213 0.04928
 C218 C 0.80984 0.05627 1.03644
 H219 H 0.81604 0.05056 1.00671
 C220 C 0.82796 0.03534 1.06499
 H221 H 0.84788 0.01320 1.05716
 C222 C 0.77740 0.09302 1.08298
 H223 H 0.75842 0.11617 1.08994
 C224 C 0.79527 0.07326 1.11236
 H225 H 0.78884 0.08064 1.14169
 N226 N 0.78473 0.08414 1.04586
 C227 C 0.73207 0.10300 0.93513
 H228 H 0.73470 0.13399 0.93370
 C229 C 0.71621 0.08292 0.90476
 H230 H 0.70636 0.09880 0.88018
 C231 C 0.73982 0.04518 0.97016
 H232 H 0.74810 0.03076 0.99611
 C233 C 0.72348 0.02401 0.94067
 H234 H 0.71977 -0.00676 0.94392
 Zn235 Zn 0.76326 0.11452 1.00681
 N236 N 0.74410 0.08394 0.96671
 C237 C 0.81811 0.13952 0.95421
 N238 N 0.80209 0.14698 0.98872
 C239 C 0.81705 0.17348 1.01281
 C240 C 0.84940 0.19384 1.00237
 C241 C 0.85036 0.15914 0.94266
 C242 C 0.69607 0.11919 1.04465
 C243 C 0.66480 0.13538 1.06217
 C244 C 0.68536 0.19799 1.04025
 C245 C 0.71710 0.18060 1.02399
 N246 N 0.72194 0.14186 1.02695
 H247 H 0.80709 0.11694 0.93632
 H248 H 0.80451 0.17790 1.04066
 H249 H 0.86134 0.21440 1.02211
 H250 H 0.86325 0.15119 0.91580
 H251 H 0.70037 0.08842 1.04599
 H252 H 0.64509 0.11700 1.07722
 H253 H 0.68192 0.22888 1.03842
 H254 H 0.73776 0.19795 1.00918
 C255 C 0.71187 0.04284 0.90734
 C256 C 0.82122 0.04427 1.10343
 C257 C 0.65915 0.17512 1.06005
 C258 C 0.86652 0.18676 0.96692
 C259 C 0.28659 0.55482 0.51210
 H260 H 0.29555 0.55144 0.48279
 C261 C 0.30317 0.53263 0.54061
 H262 H 0.32502 0.51242 0.53296
 C263 C 0.24742 0.58528 0.55768
 H264 H 0.22537 0.60550 0.56419
 C265 C 0.26330 0.56370 0.58714
 H266 H 0.25279 0.56755 0.61590
 N267 N 0.25980 0.58110 0.52110
 C268 C 0.21296 0.59564 0.40892
 H269 H 0.22593 0.62275 0.40130
 C270 C 0.19116 0.57623 0.38225
 H271 H 0.18761 0.58864 0.35413
 C272 C 0.19923 0.54851 0.45606
 H273 H 0.20177 0.53856 0.48522
 C274 C 0.17647 0.52855 0.43045
 H275 H 0.16175 0.50292 0.43986
 Zn276 Zn 0.24119 0.61258 0.48123
 N277 N 0.21664 0.58154 0.44496
 C278 C 0.30081 0.61507 0.42990
 N279 N 0.28265 0.63683 0.45643
 C280 C 0.29428 0.67329 0.46438
 C281 C 0.32544 0.68897 0.44534
 C282 C 0.33132 0.62986 0.40969
 C283 C 0.16933 0.64497 0.48741
 C284 C 0.14065 0.66751 0.50261
 C285 C 0.18591 0.69788 0.54380
 C286 C 0.21380 0.67435 0.52807
 N287 N 0.20508 0.64826 0.50052
 H288 H 0.29126 0.58617 0.42398
 H289 H 0.27954 0.69031 0.48534
 H290 H 0.33413 0.71813 0.45163
 H291 H 0.34501 0.61223 0.38829
 H292 H 0.16256 0.62426 0.46559
 H293 H 0.11253 0.66425 0.49160
 H294 H 0.19313 0.71811 0.56609
 H295 H 0.24212 0.67605 0.53877
 C296 C 0.17227 0.54246 0.39312
 C297 C 0.29228 0.53756 0.57881
 C298 C 0.14867 0.69392 0.53167
 C299 C 0.34420 0.66702 0.41753
 C300 C 0.78337 0.94213 0.45663
 H301 H 0.76887 0.95262 0.48170
 C302 C 0.80429 0.96758 0.43406
 H303 H 0.80559 0.99775 0.44167
 C304 C 0.80116 0.88982 0.41711
 H305 H 0.80056 0.85924 0.41140
 C306 C 0.82179 0.91427 0.39347
 H307 H 0.83728 0.90221 0.36968
 N308 N 0.78212 0.90408 0.44766
 C309 C 0.70461 0.91509 0.51430
 H310 H 0.69500 0.91862 0.48525
 C311 C 0.68525 0.93264 0.54429
 H312 H 0.66063 0.94973 0.53823
 C313 C 0.74755 0.88724 0.55769
 H314 H 0.77118 0.86867 0.56294
 C315 C 0.72941 0.90485 0.58849
 H316 H 0.73927 0.89935 0.61716
 Zn317 Zn 0.75756 0.86791 0.47918
 N318 N 0.73503 0.89278 0.52145
 C319 C 0.79289 0.79478 0.48978
 N320 N 0.79504 0.83340 0.49551
 C321 C 0.82573 0.84973 0.51165
 C322 C 0.85562 0.82704 0.52360
 C323 C 0.82227 0.77090 0.50131
 C324 C 0.71276 0.85197 0.41454
 C325 C 0.68314 0.83527 0.39470
 C326 C 0.66636 0.79980 0.45166
 C327 C 0.69668 0.81690 0.47036
 N328 N 0.71913 0.84250 0.45166
 H329 H 0.76853 0.78246 0.47622
 H330 H 0.82683 0.88060 0.51544
 H331 H 0.87887 0.84107 0.53751
 H332 H 0.82003 0.74013 0.49699
 H333 H 0.73008 0.87311 0.40033
 H334 H 0.67842 0.84334 0.36522
 H335 H 0.64908 0.77931 0.46702
 H336 H 0.70208 0.81019 0.50001
 C337 C 0.69772 0.92778 0.58187
 C338 C 0.82345 0.95372 0.40188
 C339 C 0.65914 0.80933 0.41335
 C340 C 0.85425 0.78694 0.51833
 C341 C -0.04502 0.31401 0.46550
 H342 H -0.02769 0.33338 0.44890
 C343 C -0.07755 0.32784 0.48280
 H344 H -0.08430 0.35806 0.48012
 C345 C -0.05784 0.25099 0.48813
 H346 H -0.05051 0.22081 0.48885
 C347 C -0.09072 0.26366 0.50595
 H348 H -0.10853 0.24316 0.52075
 N349 N -0.03641 0.27600 0.46753
 C350 C 0.07281 0.22811 0.44086
 H351 H 0.07184 0.23211 0.41023
 C352 C 0.10566 0.21541 0.45790
 H353 H 0.12983 0.21034 0.43985
 C354 C 0.04277 0.23306 0.50118
 H355 H 0.01831 0.24073 0.51783
 C356 C 0.07517 0.22001 0.51952
 H357 H 0.07534 0.21719 0.55033
 Zn358 Zn 0.00124 0.25647 0.43506
 N359 N 0.04217 0.23639 0.46246
 C360 C 0.04598 0.32033 0.41987
 N361 N 0.02041 0.29634 0.40379
 C362 C 0.01113 0.29940 0.36625
 C363 C 0.02799 0.32746 0.34329
 C364 C 0.06412 0.34815 0.39777
 C365 C -0.00516 0.18265 0.40030
 C366 C -0.02225 0.15482 0.37744
 C367 C -0.07211 0.19983 0.36447
 C368 C -0.05402 0.22678 0.38740
 N369 N -0.02095 0.21800 0.40440
 H370 H 0.05305 0.31705 0.44971
 H371 H -0.00875 0.27969 0.35381
 H372 H 0.02101 0.32893 0.31327
 H373 H 0.08519 0.36639 0.41068
 H374 H 0.02061 0.17585 0.41486
 H375 H -0.00940 0.12677 0.37517
 H376 H -0.09839 0.20738 0.35106
 H377 H -0.06632 0.25488 0.39170
 C378 C 0.10700 0.21052 0.49777
 C379 C -0.10167 0.30214 0.50190
 C380 C -0.05605 0.16350 0.35883
 C381 C 0.05514 0.35192 0.35908
 C382 C 1.03041 0.80849 0.06692
 H383 H 1.00187 0.81884 0.06846
 C384 C 1.05663 0.82746 0.04382
 H385 H 1.04810 0.85241 0.02748
 C386 C 1.07645 0.76402 0.08719
 H387 H 1.08406 0.73909 0.10381
 C388 C 1.10355 0.78211 0.06452
 H389 H 1.13160 0.77038 0.06380
 N390 N 1.04103 0.77830 0.08911
 C391 C 0.92748 0.75425 0.10591
 H392 H 0.92334 0.77558 0.12789
 C393 C 0.89630 0.73785 0.08816
 H394 H 0.86865 0.74651 0.09746
 C395 C 0.96854 0.71627 0.06836
 H396 H 0.99683 0.70754 0.06132
 C397 C 0.93826 0.69907 0.04999
 H398 H 0.94347 0.67725 0.02856
 Zn399 Zn 1.00549 0.75820 0.12440
 N400 N 0.96267 0.74228 0.09669
 C401 C 0.96756 0.78845 0.18852
 N402 N 0.99306 0.79667 0.16068
 C403 C 1.00993 0.83178 0.15879
 C404 C 0.99942 0.86108 0.18382
 C405 C 0.95606 0.81699 0.21406
 C406 C 1.00919 0.68006 0.14780
 C407 C 1.02499 0.64797 0.16543
 C408 C 1.07309 0.68923 0.19126
 C409 C 1.05632 0.72056 0.17311
 N410 N 1.02551 0.71532 0.15103
 H411 H 0.95539 0.75995 0.19020
 H412 H 1.03150 0.83734 0.13778
 H413 H 1.01335 0.88863 0.18148
 H414 H 0.93474 0.81034 0.23521
 H415 H 0.98407 0.67646 0.13117
 H416 H 1.01197 0.62029 0.16093
 H417 H 1.09820 0.69381 0.20793
 H418 H 1.06840 0.74899 0.17583
 C419 C 0.90156 0.70920 0.06030
 C420 C 1.09403 0.81519 0.04354
 C421 C 1.05771 0.65225 0.18726
 C422 C 0.97121 0.85418 0.21117
 C423 C 0.58146 0.26653 0.60706
 H424 H 0.59157 0.24815 0.62961
 C425 C 0.60727 0.28772 0.58547
 H426 H 0.63678 0.28502 0.59188
 C427 C 0.53085 0.29531 0.57427
 H428 H 0.50109 0.29919 0.57079
 C429 C 0.55569 0.31738 0.55234
 H430 H 0.54471 0.33775 0.53182
 N431 N 0.54395 0.27074 0.60137
 C432 C 0.46916 0.18001 0.61257
 H433 H 0.48861 0.16482 0.63042
 C434 C 0.44121 0.15909 0.59436
 H435 H 0.44029 0.12813 0.59799
 C436 C 0.44524 0.23830 0.58776
 H437 H 0.44626 0.26931 0.58614
 C438 C 0.41634 0.21838 0.56925
 H439 H 0.39623 0.23439 0.55261
 Zn440 Zn 0.50960 0.24609 0.63556
 N441 N 0.47129 0.21891 0.60858
 C442 C 0.45588 0.27448 0.68754
 N443 N 0.48613 0.28437 0.66587
 C444 C 0.49840 0.32144 0.66406
 C445 C 0.47935 0.35050 0.68365
 C446 C 0.43614 0.30261 0.70779
 C447 C 0.55601 0.18243 0.64849
 C448 C 0.57425 0.15387 0.66924
 C449 C 0.55372 0.18462 0.72749
 C450 C 0.53535 0.21245 0.70553
 N451 N 0.53635 0.21054 0.66671
 H452 H 0.44667 0.24482 0.68846
 H453 H 0.52285 0.32867 0.64718
 H454 H 0.48986 0.37966 0.68187
 H455 H 0.41177 0.29434 0.72450
 H456 H 0.55688 0.18186 0.61760
 H457 H 0.58978 0.13198 0.65398
 H458 H 0.55257 0.18630 0.75837
 H459 H 0.52004 0.23529 0.71951
 C460 C 0.41421 0.17810 0.57254
 C461 C 0.59440 0.31393 0.55796
 C462 C 0.57271 0.15438 0.70932
 C463 C 0.44730 0.34129 0.70534
 C464 C 0.46718 0.81785 0.90693
 H465 H 0.49566 0.82771 0.90280
 C466 C 0.44195 0.84066 0.92739
 H467 H 0.45154 0.86750 0.93967
 C468 C 0.41931 0.77275 0.89316
 H469 H 0.41012 0.74712 0.87856
 C470 C 0.39316 0.79463 0.91349
 H471 H 0.36428 0.78518 0.91395
 N472 N 0.45558 0.78460 0.89021
 C473 C 0.53945 0.69881 0.87412
 H474 H 0.52620 0.68514 0.85003
 C475 C 0.56780 0.67938 0.89340
 H476 H 0.57561 0.65072 0.88424
 C477 C 0.54649 0.75292 0.91446
 H478 H 0.53815 0.78158 0.92262
 C479 C 0.57534 0.73460 0.93438
 H480 H 0.58833 0.74936 0.95806
 Zn481 Zn 0.49002 0.75942 0.85705
 N482 N 0.52900 0.73480 0.88503
 C483 C 0.54845 0.80212 0.82182
 N484 N 0.51070 0.79821 0.82543
 C485 C 0.48686 0.82396 0.80935
 C486 C 0.50083 0.85609 0.78992
 C487 C 0.56365 0.83369 0.80238
 C488 C 0.45036 0.69044 0.84532
 C489 C 0.43382 0.66071 0.82454
 C490 C 0.44673 0.69616 0.76656
 C491 C 0.46336 0.72510 0.78844
 N492 N 0.46496 0.72173 0.82712
 H493 H 0.56685 0.78115 0.83466
 H494 H 0.45692 0.82020 0.81282
 H495 H 0.48141 0.87687 0.77825
 H496 H 0.59377 0.83571 0.79993
 H497 H 0.45212 0.68835 0.87609
 H498 H 0.42203 0.63644 0.83984
 H499 H 0.44568 0.69924 0.73579
 H500 H 0.47533 0.75002 0.77445
 C501 C 0.58634 0.69727 0.92374
 C502 C 0.40438 0.82930 0.93079
 C503 C 0.43227 0.66317 0.78450
 C504 C 0.53967 0.86190 0.78707
 C505 C 0.48224 -0.21730 0.35110
 C506 C 0.49273 -0.18044 0.35483
 C507 C 0.47473 -0.15080 0.33128
 C508 C 0.48378 -0.11354 0.33398
 H509 H 0.51332 -0.17178 0.37572
 H510 H 0.45313 -0.15984 0.31158
 H511 H 0.46091 -0.22408 0.33014
 H512 H 0.50699 -0.10490 0.35191
 C513 C 0.98845 0.28240 0.83579
 C514 C 0.97125 0.31324 0.85068
 C515 C 0.95715 0.34472 0.82661
 C516 C 0.94015 0.37498 0.84268
 H517 H 0.96574 0.31432 0.88114
 H518 H 0.96004 0.34258 0.79590
 H519 H 0.99308 0.28141 0.80516
 H520 H 0.93939 0.37702 0.87359
 C521 C 0.01593 1.21659 0.83534
 C522 C 0.02219 1.18093 0.84848
 C523 C 0.03850 1.15099 0.82379
 C524 C 0.04354 1.11512 0.83687
 H525 H 0.01483 1.17384 0.87775
 H526 H 0.04551 1.15853 0.79466
 H527 H 0.02426 1.22348 0.80628
 H528 H 0.03479 1.10855 0.86587
 C529 C 0.50854 0.71746 0.34678
 C530 C 0.51707 0.68184 0.35819
 C531 C 0.53070 0.65308 0.33064
 C532 C 0.54024 0.61783 0.34225
 H533 H 0.51456 0.67425 0.38814
 H534 H 0.53457 0.66159 0.30112
 H535 H 0.51212 0.72479 0.31682
 H536 H 0.53762 0.61082 0.37235
 C537 C 0.51591 0.28355 0.12640
 C538 C 0.51586 0.32177 0.12116
 C539 C 0.53226 0.34765 0.14987
 C540 C 0.53329 0.38575 0.14435
 H541 H 0.50552 0.33398 0.09476
 H542 H 0.54443 0.33511 0.17526
 H543 H 0.52888 0.27247 0.15209
 H544 H 0.51922 0.39784 0.11973
 C545 C 0.01541 0.76264 0.63937
 C546 C -0.00090 0.79282 0.65641
 C547 C 0.02196 0.82004 0.67839
 C548 C 0.00879 0.85452 0.68873
 H549 H -0.03014 0.79925 0.65114
 H550 H 0.05094 0.81268 0.68379
 H551 H 0.04440 0.75631 0.64613
 H552 H -0.02064 0.86105 0.68483
 C553 C 0.96913 0.71095 0.63397
 C554 C 0.98050 0.68000 0.65347
 C555 C 0.95298 0.65599 0.67409
 C556 C 0.96262 0.62212 0.68931
 H557 H 1.00976 0.67170 0.65304
 H558 H 0.92442 0.66617 0.67588
 H559 H 0.93988 0.71925 0.63621
 H560 H 0.99178 0.61343 0.68789
 C561 C 0.49218 0.21598 0.11032
 C562 C 0.48269 0.20828 0.14665
 C563 C 0.47056 0.16929 0.15781
 C564 C 0.46286 0.16056 0.19428
 H565 H 0.48328 0.23049 0.16824
 H566 H 0.46847 0.14762 0.13578
 H567 H 0.49002 0.19295 0.08951
 H568 H 0.46706 0.18244 0.21591
 C569 C 0.33843 0.48018 -0.23243
 C570 C 0.33124 0.49196 -0.19669
 C571 C 0.30892 0.46783 -0.17049
 C572 C 0.30330 0.47844 -0.13422
 H573 H 0.34316 0.51842 -0.18585
 H574 H 0.29830 0.44055 -0.18074
 H575 H 0.32443 0.45439 -0.24251
 H576 H 0.31267 0.50668 -0.12514
 C577 C 0.87939 0.99871 0.28168
 C578 C 0.87854 0.99945 0.31995
 C579 C 0.85144 0.97583 0.34131
 C580 C 0.84703 0.98006 0.37899
 H581 H 0.89891 1.01578 0.33599
 H582 H 0.83555 0.95410 0.32617
 H583 H 0.85879 0.98113 0.26707
 H584 H 0.86108 1.00350 0.39352
 C585 C 0.88974 0.03826 1.22414
 C586 C 0.87306 0.01942 1.19548
 C587 C 0.85266 0.04058 1.16576
 C588 C 0.84154 0.02331 1.13364
 H589 H 0.87449 -0.01169 1.19401
 H590 H 0.84746 0.07101 1.16988
 H591 H 0.88764 0.06938 1.22469
 H592 H 0.84924 -0.00640 1.12848
 C593 C 0.34006 0.51739 0.70907
 C594 C 0.33713 0.50515 0.67290
 C595 C 0.31363 0.52612 0.64538
 C596 C 0.31209 0.51535 0.60873
 H597 H 0.35255 0.48024 0.66306
 H598 H 0.29925 0.55174 0.65499
 H599 H 0.32280 0.54149 0.71796
 H600 H 0.32826 0.49055 0.59970
 C601 C 0.12727 0.49664 0.26890
 C602 C 0.12032 0.50757 0.30489
 C603 C 0.14998 0.52292 0.32942
 C604 C 0.14534 0.52369 0.36730
 H605 H 0.09220 0.50508 0.31654
 H606 H 0.17555 0.53377 0.31643
 H607 H 0.15552 0.49957 0.25770
 H608 H 0.12083 0.51012 0.37994
 C609 C 0.67815 0.01428 0.77398
 C610 C 0.67289 0.00875 0.81159
 C611 C 0.69470 0.03021 0.84007
 C612 C 0.69294 0.02060 0.87706
 H613 H 0.65151 -0.01092 0.82185
 H614 H 0.71206 0.05408 0.83073
 H615 H 0.69914 0.03504 0.76485
 H616 H 0.67737 -0.00489 0.88553
 C617 C 0.67917 0.98497 0.70972
 C618 C 0.66562 0.96873 0.67791
 C619 C 0.69021 0.95516 0.64689
 C620 C 0.67546 0.94434 0.61352
 H621 H 0.63568 0.96433 0.67508
 H622 H 0.72019 0.95387 0.65145
 H623 H 0.70928 0.98857 0.71233
 H624 H 0.64567 0.94822 0.60889
 C625 C 0.11203 0.46154 0.20830
 C626 C 0.13707 0.47686 0.18407
 C627 C 0.15062 0.45428 0.15128
 C628 C 0.17787 0.46727 0.12827
 H629 H 0.14753 0.50579 0.18850
 H630 H 0.13864 0.42602 0.14668
 H631 H 0.10194 0.43261 0.20259
 H632 H 0.19122 0.49455 0.13464
 C633 C -0.21738 0.37513 0.48582
 C634 C -0.19772 0.35056 0.50736
 C635 C -0.15930 0.34017 0.49606
 C636 C -0.13919 0.31427 0.51538
 H637 H -0.20980 0.33838 0.53313
 H638 H -0.14778 0.35312 0.47038
 H639 H -0.20332 0.38807 0.46141
 H640 H -0.15171 0.29944 0.53956
 C641 C 0.28370 0.86072 0.99212
 C642 C 0.31708 0.87248 0.97895
 C643 C 0.34404 0.84446 0.96332
 C644 C 0.37741 0.85569 0.94971
 H645 H 0.32386 0.90289 0.97863
 H646 H 0.33607 0.81441 0.96268
 H647 H 0.27725 0.83019 0.99134
 H648 H 0.38537 0.88569 0.95239
 C649 C 1.22163 0.86451 0.02291
 C650 C 1.18570 0.86392 0.01185
 C651 C 1.15847 0.83913 0.03201
 C652 C 1.12235 0.83788 0.02199
 H653 H 1.17607 0.88157 -0.01159
 H654 H 1.16815 0.82267 0.05630
 H655 H 1.22958 0.84626 0.04671
 H656 H 1.11275 0.85611 -0.00112
 C657 C 0.71709 0.35739 0.50743
 C658 C 0.68119 0.36420 0.51653
 C659 C 0.65649 0.33381 0.53181
 C660 C 0.62007 0.34085 0.53792
 H661 H 0.67031 0.39321 0.51424
 H662 H 0.66843 0.30615 0.53903
 H663 H 0.72768 0.32828 0.50982
 H664 H 0.60853 0.36806 0.52842
 C665 C 0.28820 0.14906 0.52005
 C666 C 0.32327 0.13922 0.52945
 C667 C 0.35143 0.16724 0.54261
 C668 C 0.38480 0.15435 0.55433
 H669 H 0.33083 0.10900 0.52924
 H670 H 0.34408 0.19735 0.54473
 H671 H 0.28000 0.17906 0.52121
 H672 H 0.39013 0.12365 0.55276
 C673 C 0.77051 0.68643 0.02000
 C674 C 0.80538 0.67388 0.02652
 C675 C 0.83428 0.69861 0.04364
 C676 C 0.87013 0.68731 0.04327
 H677 H 0.81301 0.64498 0.01782
 H678 H 0.82620 0.72612 0.05547
 H679 H 0.76287 0.71518 0.02917
 H680 H 0.87706 0.66038 0.02930
 C681 C 0.70719 0.68486 0.99037
 C682 C 0.67549 0.66888 0.97749
 C683 C 0.64478 0.69249 0.96210
 C684 C 0.61647 0.67579 0.94341
 H685 H 0.67292 0.63783 0.97657
 H686 H 0.64665 0.72351 0.96411
 H687 H 0.70973 0.71597 0.98972
 H688 H 0.61667 0.64475 0.94014
 C689 C 0.22301 0.13627 0.49681
 C690 C 0.20063 0.15971 0.51682
 C691 C 0.16603 0.17381 0.49887
 C692 C 0.14130 0.19629 0.51697
 H693 H 0.20760 0.16781 0.54580
 H694 H 0.16042 0.16459 0.46994
 H695 H 0.21441 0.12870 0.46808
 H696 H 0.14572 0.20347 0.54673
 C697 C 0.62462 0.02482 0.72839
 C698 C 0.61978 0.06081 0.74153
 C699 C 0.59629 0.08844 0.72050
 C700 C 0.59212 0.12481 0.73241
 H701 H 0.63485 0.07107 0.76626
 H702 H 0.58344 0.07924 0.69406
 H703 H 0.60819 0.01627 0.70386
 H704 H 0.60330 0.13324 0.75989
 C705 C 1.07268 0.51646 0.22807
 C706 C 1.08629 0.55227 0.22390
 C707 C 1.06338 0.58361 0.20811
 C708 C 1.07765 0.61916 0.20464
 H709 H 1.11502 0.55863 0.23155
 H710 H 1.03501 0.57720 0.19948
 H711 H 1.04432 0.51060 0.21864
 H712 H 1.10581 0.62439 0.21498
 C713 C 0.93606 0.98792 0.23972
 C714 C 0.93780 0.95097 0.25080
 C715 C 0.95879 0.92248 0.22820
 C716 C 0.95615 0.88488 0.23629
 H717 H 0.92180 0.94087 0.27520
 H718 H 0.97372 0.93233 0.20304
 H719 H 0.95318 0.99708 0.21563
 H720 H 0.93938 0.87602 0.26071
 C721 C 0.39317 0.47103 0.72255
 C722 C 0.39843 0.43495 0.73534
 C723 C 0.42372 0.40799 0.71545
 C724 C 0.42499 0.37085 0.72579
 H725 H 0.38341 0.42444 0.76018
 H726 H 0.43971 0.41827 0.69112
 H727 H 0.40987 0.48082 0.69842
 H728 H 0.40702 0.36110 0.74895
 C729 C 0.38902 0.53056 0.75931
 C730 C 0.39222 0.56742 0.74809
 C731 C 0.41226 0.59584 0.77168
 C732 C 0.41460 0.63279 0.76091
 H733 H 0.37909 0.57735 0.72210
 H734 H 0.42461 0.58644 0.79827
 H735 H 0.40394 0.52162 0.78474
 H736 H 0.40360 0.64112 0.73330
 C737 C -0.06705 0.04700 0.27871
 C738 C -0.08230 0.07816 0.29503
 C739 C -0.05989 0.10496 0.31808
 C740 C -0.07618 0.13531 0.33473
 H741 H -0.11216 0.08318 0.29228
 H742 H -0.03016 0.09979 0.32111
 H743 H -0.03730 0.04178 0.28234
 H744 H -0.10574 0.14038 0.32967
 C745 C 0.07068 0.45460 0.26399
 C746 C 0.08508 0.42528 0.28394
 C747 C 0.06152 0.39885 0.30631
 C748 C 0.07651 0.37942 0.33539
 H749 H 0.11526 0.42179 0.28515
 H750 H 0.03195 0.39621 0.29985
 H751 H 0.04049 0.45810 0.26309
 H752 H 0.10543 0.38491 0.34315
 C753 C 0.63685 0.95846 0.75779
 C754 C 0.60067 0.94823 0.75627
 C755 C 0.58867 0.91114 0.77282
 C756 C 0.55365 0.89791 0.76886
 H757 H 0.58005 0.96678 0.74321
 H758 H 0.60892 0.89523 0.78934
 H759 H 0.65650 0.93826 0.77025
 H760 H 0.53378 0.91520 0.75302
 C761 C 0.73104 0.62850 0.02807
 C762 C 0.71674 0.63543 0.06286
 C763 C 0.70633 0.60385 0.08906
 C764 C 0.69624 0.61124 0.12522
 H765 H 0.71256 0.66492 0.07198
 H766 H 0.70705 0.57459 0.07854
 H767 H 0.73599 0.59892 0.01977
 H768 H 0.69782 0.64066 0.13538
 C769 C 0.25051 1.09693 0.54919
 C770 C 0.22312 1.07082 0.55268
 C771 C 0.21351 1.05440 0.59034
 C772 C 0.18108 1.03583 0.59565
 H773 H 0.20628 1.06347 0.52804
 H774 H 0.23174 1.06011 0.61432
 H775 H 0.26656 1.10426 0.57442
 H776 H 0.16226 1.03272 0.57161
 C777 C 0.23977 0.91224 0.97095
 C778 C 0.23384 0.89692 0.93639
 C779 C 0.21841 0.91989 0.90476
 C780 C 0.21032 0.90308 0.87147
 H781 H 0.23937 0.86663 0.93172
 H782 H 0.21181 0.94991 0.90951
 H783 H 0.23249 0.94219 0.97542
 H784 H 0.21554 0.87251 0.86833
 C785 C 0.72677 0.41146 0.46278
 C786 C 0.72988 0.39974 0.42641
 C787 C 0.70941 0.41936 0.39577
 C788 C 0.72032 0.41680 0.35926
 H789 H 0.74712 0.37519 0.41909
 H790 H 0.68501 0.43639 0.40323
 H791 H 0.70863 0.43572 0.46901
 H792 H 0.74635 0.40251 0.35195
 C793 C 0.74931 0.41806 0.52921
 C794 C 0.75194 0.40679 0.56573
 C795 C 0.76531 0.43321 0.59554
 C796 C 0.76920 0.42098 0.63156
 H797 H 0.74664 0.37705 0.57336
 H798 H 0.77334 0.46219 0.58755
 H799 H 0.75622 0.44765 0.52210
 H800 H 0.75925 0.39244 0.63910
 C801 C 0.26738 -0.08471 0.03602
 C802 C 0.28703 -0.09734 0.06600
 C803 C 0.29871 -0.07128 0.09691
 C804 C 0.32457 -0.08259 0.12195
 H805 H 0.29487 -0.12742 0.06763
 H806 H 0.28712 -0.04252 0.09844
 H807 H 0.25936 -0.05463 0.03530
 H808 H 0.33768 -0.11048 0.11828
 C809 C 0.27390 0.09049 0.48198
 C810 C 0.28188 0.10238 0.44636
 C811 C 0.29646 0.07614 0.41692
 C812 C 0.30035 0.08821 0.38070
 H813 H 0.27739 0.13230 0.43883
 H814 H 0.30399 0.04720 0.42518
 H815 H 0.27863 0.06065 0.48961
 H816 H 0.29063 0.11681 0.37335
 C817 C 0.75859 0.64635 0.96331
 C818 C 0.74687 0.61523 0.94419
 C819 C 0.76655 0.60315 0.90910
 C820 C 0.75802 0.57021 0.89139
 H821 H 0.72366 0.59813 0.95481
 H822 H 0.78971 0.62064 0.89900
 H823 H 0.78102 0.66336 0.95066
 H824 H 0.73612 0.55206 0.90331
 C825 C 0.02361 0.71343 0.58794
 C826 C 0.05547 0.72872 0.57402
 C827 C 0.08358 0.70498 0.55417
 C828 C 0.11889 0.71755 0.54958
 H829 H 0.06172 0.75885 0.57890
 H830 H 0.07579 0.67628 0.54511
 H831 H 0.01736 0.68349 0.58196
 H832 H 0.12681 0.74517 0.56146
 C833 C 0.54144 0.24737 1.07218
 C834 C 0.57093 0.23001 1.08831
 C835 C 0.60454 0.21867 1.06652
 C836 C 0.62697 0.19157 1.08087
 H837 H 0.56917 0.22174 1.11816
 H838 H 0.60966 0.23042 1.03828
 H839 H 0.54286 0.25507 1.04218
 H840 H 0.61950 0.17819 1.10789
 C841 C 0.96143 0.23165 0.87527
 C842 C 0.95125 0.22774 0.91194
 C843 C 0.91443 0.21068 0.92119
 C844 C 0.90232 0.20640 0.95717
 H845 H 0.96974 0.23620 0.93484
 H846 H 0.89695 0.20147 0.89773
 H847 H 0.94175 0.22247 0.85352
 H848 H 0.91914 0.21773 0.98029
 C849 C 0.46424 0.73536 0.39960
 C850 C 0.43395 0.71800 0.38502
 C851 C 0.40211 0.70581 0.40915
 C852 C 0.37606 0.68221 0.39495
 H853 H 0.43291 0.71212 0.35464
 H854 H 0.40071 0.71495 0.43870
 H855 H 0.46465 0.74153 0.42995
 H856 H 0.37950 0.67146 0.36607
 C857 C 0.53019 0.75973 0.39926
 C858 C 0.56370 0.76853 0.38410
 C859 C 0.59524 0.78116 0.40801
 C860 C 0.62722 0.79316 0.39175
 H861 H 0.56747 0.76747 0.35336
 H862 H 0.59155 0.78223 0.43870
 H863 H 0.52651 0.76199 0.42994
 H864 H 0.62921 0.79356 0.36082
 C865 C 0.02534 0.26160 -0.10855
 C866 C 0.06252 0.25558 -0.10888
 C867 C 0.08755 0.27707 -0.08318
 C868 C 0.12437 0.26974 -0.08232
 H869 H 0.07529 0.23703 -0.13004
 H870 H 0.07602 0.30027 -0.06617
 H871 H 0.01417 0.28106 -0.08718
 H872 H 0.13524 0.24507 -0.09769
 C873 C 0.47504 0.27055 0.06942
 C874 C 0.44013 0.27632 0.08251
 C875 C 0.41046 0.29226 0.05803
 C876 C 0.37521 0.29512 0.07112
 H877 H 0.43344 0.26921 0.11194
 H878 H 0.41767 0.30124 0.02932
 H879 H 0.48163 0.27819 0.04010
 H880 H 0.36889 0.28412 0.09945
 C881 C 0.97283 0.76100 0.58293
 C882 C 0.94405 0.74684 0.56285
 C883 C 0.91838 0.77286 0.54264
 C884 C 0.88415 0.76092 0.53238
 H885 H 0.93711 0.71652 0.56477
 H886 H 0.92684 0.80250 0.53878
 H887 H 0.97971 0.79129 0.57997
 H888 H 0.87707 0.73075 0.53588
   
