data_POSCAR
  _audit_creation_date              2014-09-24
  _audit_creation_method            'ToBaCCo'
  _symmetry_space_group_name_H-M    'P1'
  _symmetry_Int_Tables_number       1
  _symmetry_cell_setting            triclinic
  loop_
  _symmetry_equiv_pos_as_xyz
 x,y,z
_cell_length_a 44.5799
_cell_length_b 44.3760
_cell_length_c 44.4076
_cell_angle_alpha 90.066500
_cell_angle_beta 89.926600
_cell_angle_gamma 89.941400
loop_
  _atom_site_label
  _atom_site_type_symbol
  _atom_site_fract_x
  _atom_site_fract_y
  _atom_site_fract_z
C1 C 0.17763 1.21786 0.21694
 C2 C 0.16507 1.24339 0.20324
 C3 C 0.17807 1.25549 0.17717
 C4 C 0.20387 1.24231 0.16475
 C5 C 0.21671 1.21678 0.17818
 C6 C 0.20355 1.20445 0.20438
 C7 C 0.16442 1.20518 0.24266
 C8 C 0.17678 1.17929 0.25580
 C9 C 0.20258 1.16604 0.24347
 C10 C 0.21606 1.17843 0.21775
 C11 C 0.24150 1.16497 0.20485
 C12 C 0.25440 1.17716 0.17880
 C13 C 0.24215 1.20303 0.16558
 H14 H 0.14500 1.25361 0.21264
 H15 H 0.21371 1.25169 0.14446
 H16 H 0.14434 1.21522 0.25222
 H17 H 0.21193 1.14589 0.25365
 H18 H 0.25107 1.14482 0.21479
 H19 H 0.25222 1.21217 0.14530
 C20 C 0.82513 0.78443 0.21542
 C21 C 0.83827 0.75873 0.20251
 C22 C 0.82529 0.74516 0.17716
 C23 C 0.79894 0.75702 0.16470
 C24 C 0.78552 0.78270 0.17733
 C25 C 0.79865 0.79652 0.20279
 C26 C 0.83832 0.79859 0.24036
 C27 C 0.82540 0.82466 0.25266
 C28 C 0.79904 0.83660 0.24027
 C29 C 0.78556 0.82271 0.21533
 C30 C 0.75957 0.83487 0.20233
 C31 C 0.74671 0.82122 0.17701
 C32 C 0.75953 0.79518 0.16462
 H33 H 0.85878 0.74954 0.21193
 H34 H 0.78911 0.74650 0.14496
 H35 H 0.85883 0.78957 0.24994
 H36 H 0.78925 0.85690 0.24978
 H37 H 0.74956 0.85514 0.21162
 H38 H 0.74949 0.78491 0.14488
 C39 C 0.82131 1.21513 -0.21516
 C40 C 0.83434 1.24066 -0.20191
 C41 C 0.82185 1.25325 -0.17580
 C42 C 0.79612 1.24059 -0.16287
 C43 C 0.78279 1.21506 -0.17582
 C44 C 0.79543 1.20222 -0.20208
 C45 C 0.83401 1.20195 -0.24093
 C46 C 0.82118 1.17605 -0.25361
 C47 C 0.79541 1.16330 -0.24076
 C48 C 0.78244 1.17621 -0.21500
 C49 C 0.75702 1.16327 -0.20159
 C50 C 0.74463 1.17598 -0.17550
 C51 C 0.75738 1.20183 -0.16272
 H52 H 0.85437 1.25055 -0.21163
 H53 H 0.78674 1.25041 -0.14255
 H54 H 0.85405 1.21161 -0.25090
 H55 H 0.78570 1.14315 -0.25059
 H56 H 0.74707 1.14315 -0.21120
 H57 H 0.74771 1.21137 -0.14240
 C58 C 0.17640 0.78339 -0.21767
 C59 C 0.16340 0.75775 -0.20462
 C60 C 0.17608 0.74483 -0.17880
 C61 C 0.20198 0.75729 -0.16598
 C62 C 0.21525 0.78294 -0.17875
 C63 C 0.20242 0.79610 -0.20469
 C64 C 0.16355 0.79689 -0.24313
 C65 C 0.17635 0.82286 -0.25558
 C66 C 0.20221 0.83543 -0.24285
 C67 C 0.21536 0.82223 -0.21739
 C68 C 0.24088 0.83499 -0.20408
 C69 C 0.25346 0.82198 -0.17829
 C70 C 0.24079 0.79599 -0.16573
 H71 H 0.14325 0.74809 -0.21432
 H72 H 0.21157 0.74727 -0.14590
 H73 H 0.14342 0.78745 -0.25307
 H74 H 0.21182 0.85566 -0.25257
 H75 H 0.25077 0.85522 -0.21351
 H76 H 0.25061 0.78621 -0.14565
 C77 C 0.54498 1.03905 -0.00778
 H78 H 0.54557 1.03897 0.01657
 C79 C 0.56538 1.05661 -0.02393
 H80 H 0.58168 1.07021 -0.01202
 C81 C 0.52358 1.02079 -0.05315
 H82 H 0.50768 1.00634 -0.06445
 C83 C 0.54361 1.03800 -0.07017
 H84 H 0.54291 1.03697 -0.09454
 N85 N 0.52451 1.02176 -0.02252
 C86 C 0.45345 1.00671 0.04333
 H87 H 0.45277 0.98234 0.04331
 C88 C 0.43316 1.02303 0.06092
 H89 H 0.41683 1.01125 0.07462
 C90 C 0.47499 1.05193 0.02485
 H91 H 0.49088 1.06311 0.01029
 C92 C 0.45506 1.06913 0.04208
 H93 H 0.45584 1.09350 0.04097
 Zn94 Zn 0.49913 0.99729 0.00130
 N95 N 0.47393 1.02129 0.02590
 C96 C 0.52340 0.97367 0.05573
 N97 N 0.52431 0.97261 0.02509
 C98 C 0.54469 0.95513 0.01034
 C99 C 0.56504 0.93752 0.02647
 C100 C 0.54340 0.95641 0.07273
 C101 C 0.45344 0.98838 -0.04064
 C102 C 0.43308 0.97230 -0.05827
 C103 C 0.45461 0.92594 -0.03961
 C104 C 0.47463 0.94290 -0.02232
 N105 N 0.47379 0.97356 -0.02328
 H106 H 0.50759 0.98826 0.06704
 H107 H 0.54526 0.95515 -0.01402
 H108 H 0.58131 0.92381 0.01455
 H109 H 0.54276 0.95755 0.09709
 H110 H 0.45293 1.01276 -0.04055
 H111 H 0.41687 0.98428 -0.07193
 H112 H 0.45523 0.90156 -0.03859
 H113 H 0.49042 0.93153 -0.00782
 C114 C 0.43395 1.05452 0.06022
 C115 C 0.56471 1.05601 -0.05539
 C116 C 0.43364 0.94081 -0.05769
 C117 C 0.56443 0.93825 0.05794
 C118 C -0.00770 0.54581 1.04137
 H119 H 0.01656 0.54646 1.04119
 C120 C -0.02381 0.56627 1.05899
 H121 H -0.01197 0.58270 1.07256
 C122 C -0.05287 0.52417 1.02326
 H123 H -0.06411 0.50816 1.00885
 C124 C -0.06985 0.54427 1.04054
 H125 H -0.09412 0.54350 1.03961
 N126 N -0.02236 0.52519 1.02411
 C127 C 0.04330 0.45390 1.00865
 H128 H 0.04320 0.45317 0.98430
 C129 C 0.06090 0.43356 1.02485
 H130 H 0.07452 0.41715 1.01298
 C131 C 0.02502 0.47557 1.05398
 H132 H 0.01055 0.49153 1.06525
 C133 C 0.04227 0.45559 1.07104
 H134 H 0.04124 0.45641 1.09540
 Zn135 Zn 0.00137 0.49972 0.99952
 N136 N 0.02597 0.47447 1.02335
 C137 C 0.05550 0.52412 0.97565
 N138 N 0.02498 0.52503 0.97476
 C139 C 0.01023 0.54545 0.95738
 C140 C 0.02624 0.56584 0.93967
 C141 C 0.07238 0.54416 0.95829
 C142 C -0.04035 0.45372 0.99076
 C143 C -0.05795 0.43324 0.97476
 C144 C -0.03954 0.45490 0.92837
 C145 C -0.02228 0.47503 0.94525
 N146 N -0.02313 0.47419 0.97589
 H147 H 0.06681 0.50827 0.99017
 H148 H -0.01404 0.54602 0.95753
 H149 H 0.01432 0.58214 0.92601
 H150 H 0.09665 0.54350 0.95927
 H151 H -0.04017 0.45321 1.01512
 H152 H -0.07149 0.41693 0.98677
 H153 H -0.03862 0.45552 0.90400
 H154 H -0.00791 0.49092 0.93384
 C155 C 0.06031 0.43438 1.05631
 C156 C -0.05516 0.56551 1.05852
 C157 C -0.05748 0.43381 0.94329
 C158 C 0.05759 0.56522 0.94020
 C159 C 1.04053 -0.00729 0.54576
 H160 H 1.04036 0.01707 0.54678
 C161 C 1.05792 -0.02375 0.56604
 H162 H 1.07132 -0.01208 0.58271
 C163 C 1.02263 -0.05236 0.52333
 H164 H 1.00840 -0.06343 0.50707
 C165 C 1.03968 -0.06969 0.54324
 H166 H 1.03875 -0.09406 0.54209
 N167 N 1.02349 -0.02172 0.52484
 C168 C 1.00871 0.04506 0.45446
 H169 H 0.98445 0.04503 0.45366
 C170 C 1.02500 0.06282 0.43433
 H171 H 1.01330 0.07664 0.41802
 C172 C 1.05368 0.02637 0.47604
 H173 H 1.06478 0.01166 0.49186
 C174 C 1.07084 0.04378 0.45627
 H175 H 1.09510 0.04263 0.45711
 Zn176 Zn 0.99922 0.00248 0.49964
 N177 N 1.02318 0.02743 0.47487
 C178 C 0.97542 0.05661 0.52467
 N179 N 0.97444 0.02594 0.52516
 C180 C 0.95695 0.01094 0.54529
 C181 C 0.93923 0.02684 0.56582
 C182 C 0.95805 0.07338 0.54486
 C183 C 0.99078 -0.03858 0.45285
 C184 C 0.97497 -0.05569 0.43179
 C185 C 0.92861 -0.03768 0.45366
 C186 C 0.94529 -0.02089 0.47434
 N187 N 0.97582 -0.02174 0.47364
 H188 H 0.99002 0.06812 0.50905
 H189 H 0.95703 -0.01344 0.54553
 H190 H 0.92549 0.01472 0.58189
 H191 H 0.95910 0.09777 0.54454
 H192 H 1.01504 -0.03841 0.45246
 H193 H 0.98706 -0.06884 0.41516
 H194 H 0.90434 -0.03670 0.45414
 H195 H 0.93382 -0.00679 0.49051
 C196 C 1.05634 0.06208 0.43519
 C197 C 1.05743 -0.05522 0.56480
 C198 C 0.94362 -0.05515 0.43215
 C199 C 0.93985 0.05833 0.56563
 C200 C 0.10805 0.37170 1.10403
 C201 C 0.09926 0.36407 1.13371
 C202 C 0.11456 0.34079 1.14941
 C203 C 0.13857 0.32528 1.13535
 C204 C 0.14780 0.33336 1.10593
 C205 C 0.13248 0.35663 1.09022
 C206 C 0.14199 0.36419 1.06075
 C207 C 0.16596 0.34920 1.04721
 C208 C 0.18094 0.32645 1.06257
 C209 C 0.17205 0.31852 1.09160
 C210 C 0.10525 0.33343 1.17899
 C211 C 0.08151 0.34867 1.19267
 C212 C 0.06656 0.37145 1.17732
 C213 C 0.07523 0.37915 1.14817
 C214 C 0.15320 0.30047 1.15078
 C215 C 0.16503 0.27951 1.16331
 C216 C 0.09145 0.39440 1.08741
 C217 C 0.07740 0.41285 1.07336
 H218 H 0.13107 0.38175 1.04790
 H219 H 0.17295 0.35527 1.02467
 H220 H 0.19955 0.31488 1.05196
 H221 H 0.18443 0.30070 1.10265
 H222 H 0.11621 0.31590 1.19185
 H223 H 0.07470 0.34277 1.21531
 H224 H 0.04815 0.38322 1.18806
 H225 H 0.06294 0.39705 1.13716
 C226 C -0.10250 0.62845 1.10657
 C227 C -0.13212 0.63611 1.09799
 C228 C -0.14767 0.65948 1.11342
 C229 C -0.13350 0.67505 1.13734
 C230 C -0.10413 0.66693 1.14635
 C231 C -0.08858 0.64357 1.13091
 C232 C -0.05916 0.63599 1.14021
 C233 C -0.04551 0.65104 1.16409
 C234 C -0.06072 0.67387 1.17919
 C235 C -0.08969 0.68183 1.17052
 C236 C -0.17719 0.66687 1.10432
 C237 C -0.19098 0.65158 1.08068
 C238 C -0.17579 0.62871 1.06560
 C239 C -0.14669 0.62097 1.07406
 C240 C -0.14875 0.69996 1.15207
 C241 C -0.16110 0.72101 1.16400
 C242 C -0.08604 0.60566 1.08983
 C243 C -0.07211 0.58714 1.07568
 H244 H -0.04644 0.61836 1.12919
 H245 H -0.02301 0.64493 1.17092
 H246 H -0.05002 0.68548 1.19774
 H247 H -0.10062 0.69972 1.18298
 H248 H -0.18993 0.68447 1.11539
 H249 H -0.21358 0.65750 1.07403
 H250 H -0.18661 0.61689 1.04726
 H251 H -0.13580 0.60300 1.06168
 C252 C -0.10569 0.37089 0.89634
 C253 C -0.13023 0.35632 0.91041
 C254 C -0.14582 0.33302 0.89502
 C255 C -0.13677 0.32439 0.86568
 C256 C -0.11262 0.33938 0.85137
 C257 C -0.09704 0.36270 0.86675
 C258 C -0.07289 0.37726 0.85204
 C259 C -0.06437 0.36901 0.82297
 C260 C -0.07960 0.34620 0.80794
 C261 C -0.10346 0.33146 0.82187
 C262 C -0.17019 0.31869 0.90960
 C263 C -0.17891 0.32715 0.93855
 C264 C -0.16366 0.34993 0.95360
 C265 C -0.13957 0.36442 0.93980
 C266 C -0.15174 0.29958 0.85058
 C267 C -0.16392 0.27864 0.83837
 C268 C -0.08886 0.39366 0.91263
 C269 C -0.07466 0.41218 0.92645
 H270 H -0.06038 0.39516 0.86280
 H271 H -0.04586 0.38039 0.81205
 H272 H -0.07290 0.33988 0.78536
 H273 H -0.11464 0.31389 0.80925
 H274 H -0.18278 0.30087 0.89881
 H275 H -0.19761 0.31597 0.94936
 H276 H -0.17052 0.35642 0.97608
 H277 H -0.12844 0.38204 0.95241
 C278 C 0.10462 0.62812 0.89205
 C279 C 0.13400 0.63628 0.90094
 C280 C 0.14940 0.65966 0.88549
 C281 C 0.13532 0.67473 0.86122
 C282 C 0.10620 0.66612 0.85190
 C283 C 0.09080 0.64275 0.86737
 C284 C 0.06162 0.63467 0.85776
 C285 C 0.04807 0.64923 0.83354
 C286 C 0.06314 0.67207 0.81841
 C287 C 0.09186 0.68053 0.82739
 C288 C 0.17868 0.66756 0.89491
 C289 C 0.19238 0.65274 0.91889
 C290 C 0.17733 0.62986 0.93399
 C291 C 0.14847 0.62164 0.92523
 C292 C 0.15040 0.69965 0.84643
 C293 C 0.16261 0.72070 0.83444
 C294 C 0.08828 0.60534 0.90881
 C295 C 0.07443 0.58682 0.92299
 H296 H 0.04902 0.61701 0.86879
 H297 H 0.02576 0.64275 0.82648
 H298 H 0.05251 0.68331 0.79961
 H299 H 0.10269 0.69839 0.81489
 H300 H 0.19130 0.68518 0.88383
 H301 H 0.21480 0.65904 0.92578
 H302 H 0.18808 0.61842 0.95260
 H303 H 0.13769 0.60368 0.93765
 C304 C 1.10418 0.10988 0.37266
 C305 C 1.13360 0.10074 0.36474
 C306 C 1.14925 0.11595 0.34136
 C307 C 1.13539 0.14022 0.32605
 C308 C 1.10625 0.14981 0.33445
 C309 C 1.09060 0.13459 0.35782
 C310 C 1.06141 0.14446 0.36568
 C311 C 1.04809 0.16871 0.35091
 C312 C 1.06340 0.18360 0.32807
 C313 C 1.09215 0.17435 0.31983
 C314 C 1.17855 0.10628 0.33370
 C315 C 1.19203 0.08229 0.34875
 C316 C 1.17674 0.06743 0.37162
 C317 C 1.14785 0.07644 0.37961
 C318 C 1.15070 0.15469 0.30109
 C319 C 1.16310 0.16640 0.27999
 C320 C 1.08755 0.09329 0.39535
 C321 C 1.07347 0.07922 0.41376
 H322 H 1.04862 0.13363 0.38333
 H323 H 1.02576 0.17598 0.35722
 H324 H 1.05295 0.20242 0.31667
 H325 H 1.10317 0.18668 0.30196
 H326 H 1.19136 0.11717 0.31610
 H327 H 1.21447 0.07521 0.34262
 H328 H 1.18731 0.04881 0.38324
 H329 H 1.13687 0.06421 0.39758
 C330 C 1.10498 -0.10342 0.62722
 C331 C 1.09571 -0.13280 0.63542
 C332 C 1.11105 -0.14854 0.65863
 C333 C 1.13559 -0.13481 0.67349
 C334 C 1.14527 -0.10570 0.66484
 C335 C 1.12991 -0.08995 0.64164
 C336 C 1.13988 -0.06079 0.63352
 C337 C 1.16435 -0.04758 0.64787
 C338 C 1.17937 -0.06298 0.67054
 C339 C 1.17003 -0.09170 0.67903
 C340 C 1.10127 -0.17781 0.66657
 C341 C 1.07703 -0.19117 0.65196
 C342 C 1.06203 -0.17578 0.62925
 C343 C 1.07116 -0.14692 0.62099
 C344 C 1.15032 -0.15024 0.69822
 C345 C 1.16231 -0.16270 0.71910
 C346 C 1.08838 -0.08671 0.60460
 C347 C 1.07438 -0.07252 0.58623
 H348 H 1.12895 -0.04793 0.61598
 H349 H 1.17169 -0.02527 0.64136
 H350 H 1.19837 -0.05263 0.68162
 H351 H 1.18246 -0.10280 0.69677
 H352 H 1.11224 -0.19069 0.68406
 H353 H 1.06985 -0.21358 0.65829
 H354 H 1.04322 -0.18626 0.61797
 H355 H 1.05881 -0.13587 0.60317
 C356 C 0.89748 -0.10077 0.36676
 C357 C 0.87873 -0.12550 0.37387
 C358 C 0.86339 -0.14110 0.35053
 C359 C 0.86690 -0.13186 0.32022
 C360 C 0.88554 -0.10703 0.31313
 C361 C 0.90087 -0.09145 0.33646
 C362 C 0.91942 -0.06673 0.32879
 C363 C 0.92271 -0.05766 0.29894
 C364 C 0.90771 -0.07289 0.27613
 C365 C 0.88931 -0.09730 0.28300
 C366 C 0.84481 -0.16578 0.35818
 C367 C 0.84146 -0.17479 0.38805
 C368 C 0.85645 -0.15954 0.41087
 C369 C 0.87490 -0.13516 0.40399
 C370 C 0.85153 -0.14791 0.29627
 C371 C 0.83909 -0.16095 0.27599
 C372 C 0.91344 -0.08497 0.39048
 C373 C 0.92702 -0.07155 0.40975
 H374 H 0.93156 -0.05415 0.34572
 H375 H 0.93698 -0.03871 0.29348
 H376 H 0.91033 -0.06575 0.25297
 H377 H 0.87811 -0.10841 0.26446
 H378 H 0.83270 -0.17833 0.34121
 H379 H 0.82716 -0.19371 0.39351
 H380 H 0.85376 -0.16663 0.43403
 H381 H 0.88608 -0.12399 0.42251
 C382 C 0.89177 0.10506 0.62898
 C383 C 0.90055 0.13457 0.63731
 C384 C 0.88513 0.14987 0.66085
 C385 C 0.86102 0.13557 0.67589
 C386 C 0.85181 0.10633 0.66711
 C387 C 0.86723 0.09103 0.64359
 C388 C 0.85774 0.06173 0.63533
 C389 C 0.83367 0.04797 0.64987
 C390 C 0.81858 0.06294 0.67286
 C391 C 0.82745 0.09178 0.68148
 C392 C 0.89443 0.17928 0.66891
 C393 C 0.91827 0.19319 0.65412
 C394 C 0.93333 0.17824 0.63110
 C395 C 0.92468 0.14926 0.62270
 C396 C 0.84628 0.15055 0.70096
 C397 C 0.83435 0.16268 0.72213
 C398 C 0.90849 0.08881 0.60604
 C399 C 0.92265 0.07506 0.58740
 H400 H 0.86874 0.04919 0.61755
 H401 H 0.82669 0.02556 0.64325
 H402 H 0.79989 0.05215 0.68408
 H403 H 0.81499 0.10253 0.69946
 H404 H 0.88339 0.19183 0.68665
 H405 H 0.92507 0.21570 0.66055
 H406 H 0.95182 0.18915 0.61967
 H407 H 0.93705 0.13856 0.60463
 C408 C 0.37146 1.10263 0.10794
 C409 C 0.35644 1.08897 0.13249
 C410 C 0.33326 1.10482 0.14781
 C411 C 0.32524 1.13424 0.13847
 C412 C 0.34069 1.14815 0.11434
 C413 C 0.36388 1.13230 0.09903
 C414 C 0.37891 1.14662 0.07488
 C415 C 0.37126 1.17576 0.06610
 C416 C 0.34857 1.19125 0.08105
 C417 C 0.33338 1.17772 0.10490
 C418 C 0.31847 1.09064 0.17219
 C419 C 0.32635 1.06162 0.18118
 C420 C 0.34900 1.04611 0.16620
 C421 C 0.36394 1.05951 0.14211
 C422 C 0.30054 1.14982 0.15312
 C423 C 0.27969 1.16245 0.16498
 C424 C 0.39408 1.08586 0.09135
 C425 C 0.41247 1.07170 0.07730
 H426 H 0.39674 1.13549 0.06258
 H427 H 0.38299 1.18638 0.04759
 H428 H 0.34271 1.21389 0.07414
 H429 H 0.31592 1.19069 0.11586
 H430 H 0.30072 1.10181 0.18457
 H431 H 0.31481 1.05112 0.19989
 H432 H 0.35504 1.02358 0.17328
 H433 H 0.38143 1.04656 0.13119
 C434 C 0.62740 1.10400 -0.10273
 C435 C 0.64199 1.12869 -0.08883
 C436 C 0.66522 1.14419 -0.10434
 C437 C 0.67374 1.13489 -0.13365
 C438 C 0.65873 1.11060 -0.14778
 C439 C 0.63548 1.09511 -0.13228
 C440 C 0.62089 1.07081 -0.14682
 C441 C 0.62904 1.06206 -0.17585
 C442 C 0.65178 1.07719 -0.19100
 C443 C 0.66654 1.10119 -0.17724
 C444 C 0.67958 1.16871 -0.08993
 C445 C 0.67122 1.17767 -0.06103
 C446 C 0.64851 1.16251 -0.04586
 C447 C 0.63399 1.13828 -0.05948
 C448 C 0.69847 1.14976 -0.14887
 C449 C 0.71934 1.16185 -0.16119
 C450 C 0.60470 1.08726 -0.08630
 C451 C 0.58625 1.07312 -0.07237
 H452 H 0.60304 1.05837 -0.13596
 H453 H 0.61763 1.04343 -0.18664
 H454 H 0.65802 1.07030 -0.21355
 H455 H 0.68406 1.11229 -0.18995
 H456 H 0.69735 1.18123 -0.10083
 H457 H 0.68242 1.19649 -0.05035
 H458 H 0.64209 1.16957 -0.02341
 H459 H 0.61644 1.12723 -0.04679
 C460 C 0.37097 0.89374 -0.10591
 C461 C 0.35673 0.90761 -0.13079
 C462 C 0.33347 0.89225 -0.14636
 C463 C 0.32457 0.86312 -0.13695
 C464 C 0.33925 0.84899 -0.11248
 C465 C 0.36253 0.86434 -0.09692
 C466 C 0.37677 0.84982 -0.07243
 C467 C 0.36826 0.82094 -0.06358
 C468 C 0.34549 0.80594 -0.07879
 C469 C 0.33106 0.81969 -0.10297
 C470 C 0.31946 0.90664 -0.17107
 C471 C 0.32819 0.93538 -0.18014
 C472 C 0.35093 0.95040 -0.16490
 C473 C 0.36511 0.93680 -0.14049
 C474 C 0.29978 0.84810 -0.15189
 C475 C 0.27885 0.83598 -0.16406
 C476 C 0.39367 0.91005 -0.08908
 C477 C 0.41212 0.92391 -0.07488
 H478 H 0.39463 0.86057 -0.05993
 H479 H 0.37941 0.81016 -0.04481
 H480 H 0.33897 0.78351 -0.07182
 H481 H 0.31351 0.80710 -0.11412
 H482 H 0.30168 0.89585 -0.18366
 H483 H 0.31725 0.94605 -0.19909
 H484 H 0.35763 0.97272 -0.17204
 H485 H 0.38270 0.94937 -0.12939
 C486 C 0.62750 0.89073 0.10520
 C487 C 0.63572 0.89997 0.13458
 C488 C 0.65929 0.88485 0.14996
 C489 C 0.67447 0.86059 0.13587
 C490 C 0.66575 0.85088 0.10679
 C491 C 0.64221 0.86601 0.09140
 C492 C 0.63403 0.85603 0.06226
 C493 C 0.64868 0.83178 0.04872
 C494 C 0.67169 0.81698 0.06377
 C495 C 0.68023 0.82633 0.09247
 C496 C 0.66725 0.89462 0.17923
 C497 C 0.65233 0.91861 0.19294
 C498 C 0.62929 0.93338 0.17790
 C499 C 0.62099 0.92427 0.14905
 C500 C 0.69963 0.84624 0.15086
 C501 C 0.72090 0.83466 0.16297
 C502 C 0.60462 0.90724 0.08880
 C503 C 0.58606 0.92123 0.07489
 H504 H 0.61624 0.86679 0.04966
 H505 H 0.64212 0.82443 0.02643
 H506 H 0.68299 0.79815 0.05316
 H507 H 0.69823 0.81408 0.10329
 H508 H 0.68500 0.88381 0.19185
 H509 H 0.65869 0.92577 0.21535
 H510 H 0.61777 0.95200 0.18865
 H511 H 0.60290 0.93643 0.13828
   
