data_POSCAR
  _audit_creation_date              2014-09-24
  _audit_creation_method            'ToBaCCo'
  _symmetry_space_group_name_H-M    'P1'
  _symmetry_Int_Tables_number       1
  _symmetry_cell_setting            triclinic
  loop_
  _symmetry_equiv_pos_as_xyz
 x,y,z
_cell_length_a 33.0038
_cell_length_b 33.7986
_cell_length_c 33.2208
_cell_angle_alpha 89.783500
_cell_angle_beta 90.060500
_cell_angle_gamma 90.041200
loop_
  _atom_site_label
  _atom_site_type_symbol
  _atom_site_fract_x
  _atom_site_fract_y
  _atom_site_fract_z
N1 N 0.12707 0.13946 0.22357
 N2 N 0.15352 0.11201 0.21390
 C3 C 0.15560 0.08521 0.24389
 C4 C 0.12866 0.09630 0.27367
 C5 C 0.11079 0.13069 0.25971
 H6 H 0.17558 0.05985 0.24427
 H7 H 0.08870 0.14865 0.27522
 Cu8 Cu 0.18420 0.11450 0.16394
 Cu9 Cu 0.11811 0.18597 0.19008
 Cu10 Cu 0.17327 0.19188 0.10157
 N11 N 0.22497 0.12708 0.12351
 N12 N 0.22164 0.15897 0.10097
 C13 C 0.25498 0.16275 0.07803
 C14 C 0.28031 0.13116 0.08617
 C15 C 0.26026 0.10884 0.11499
 H16 H 0.26018 0.18652 0.05674
 H17 H 0.27112 0.08227 0.12972
 N18 N 0.13245 0.23139 0.11686
 N19 N 0.11332 0.23035 0.15174
 C20 C 0.09208 0.26404 0.15605
 C21 C 0.09754 0.28685 0.12199
 C22 C 0.12311 0.26535 0.09760
 H23 H 0.07473 0.27200 0.18239
 H24 H 0.13626 0.27501 0.06942
 H25 H 0.13212 0.15947 0.13660
 H26 H 0.17438 0.18564 0.16263
 N27 N -0.10607 0.84758 0.22602
 N28 N -0.12480 0.88190 0.22629
 C29 C -0.11723 0.90035 0.26133
 C30 C -0.09319 0.87577 0.28446
 C31 C -0.08672 0.84253 0.26134
 H32 H -0.13093 0.92790 0.27064
 H33 H -0.07032 0.81617 0.27009
 Cu34 Cu -0.16398 0.89498 0.18504
 Cu35 Cu -0.11036 0.81117 0.18088
 Cu36 Cu -0.18014 0.83575 0.10615
 N37 N -0.21407 0.89732 0.15466
 N38 N -0.21946 0.87591 0.12213
 C39 C -0.25601 0.88438 0.10616
 C40 C -0.27494 0.91143 0.13109
 C41 C -0.24752 0.91896 0.16155
 H42 H -0.26866 0.87027 0.07979
 H43 H -0.25151 0.93870 0.18680
 N44 N -0.14677 0.78717 0.10507
 N45 N -0.11910 0.77865 0.13254
 C46 C -0.10319 0.74286 0.12448
 C47 C -0.12250 0.72780 0.09108
 C48 C -0.15013 0.75638 0.07964
 H49 H -0.08173 0.72732 0.14339
 H50 H -0.17234 0.75410 0.05579
 H51 H -0.12785 0.85142 0.13785
 H52 H -0.16945 0.82617 0.16573
 N53 N -0.11282 0.15316 -0.22537
 N54 N -0.13066 0.11838 -0.22524
 C55 C -0.12355 0.10023 -0.26057
 C56 C -0.10077 0.12554 -0.28417
 C57 C -0.09459 0.15883 -0.26111
 H58 H -0.13670 0.07231 -0.26962
 H59 H -0.07918 0.18566 -0.27019
 Cu60 Cu -0.16804 0.10419 -0.18264
 Cu61 Cu -0.11702 0.18968 -0.18049
 Cu62 Cu -0.18636 0.16548 -0.10558
 N63 N -0.21700 0.09969 -0.15074
 N64 N -0.22337 0.12232 -0.11926
 C65 C -0.25889 0.11199 -0.10211
 C66 C -0.27606 0.08217 -0.12505
 C67 C -0.24873 0.07519 -0.15566
 H68 H -0.27203 0.12635 -0.07617
 H69 H -0.25166 0.05390 -0.17974
 N70 N -0.15370 0.21471 -0.10535
 N71 N -0.12569 0.22262 -0.13262
 C72 C -0.10934 0.25828 -0.12488
 C73 C -0.12871 0.27402 -0.09194
 C74 C -0.15685 0.24589 -0.08036
 H75 H -0.08731 0.27320 -0.14362
 H76 H -0.17890 0.24857 -0.05646
 H77 H -0.13382 0.15000 -0.13632
 H78 H -0.17579 0.17338 -0.16541
 N79 N 0.12315 0.86961 -0.21959
 N80 N 0.15087 0.89572 -0.20943
 C81 C 0.15404 0.92296 -0.23900
 C82 C 0.12613 0.91373 -0.26860
 C83 C 0.10690 0.87992 -0.25526
 H84 H 0.17579 0.94691 -0.23954
 H85 H 0.08477 0.86268 -0.27161
 Cu86 Cu 0.18189 0.89027 -0.15977
 Cu87 Cu 0.11414 0.82129 -0.18906
 Cu88 Cu 0.16742 0.81154 -0.09981
 N89 N 0.22151 0.87537 -0.11882
 N90 N 0.21647 0.84325 -0.09695
 C91 C 0.24916 0.83778 -0.07339
 C92 C 0.27598 0.86839 -0.08053
 C93 C 0.25740 0.89203 -0.10930
 H94 H 0.25302 0.81337 -0.05257
 H95 H 0.26972 0.91830 -0.12341
 N96 N 0.12715 0.77266 -0.11797
 N97 N 0.10915 0.77493 -0.15340
 C98 C 0.08895 0.74098 -0.16017
 C99 C 0.09391 0.71671 -0.12711
 C100 C 0.11801 0.73764 -0.10074
 H101 H 0.07260 0.73396 -0.18746
 H102 H 0.13043 0.72698 -0.07258
 H103 H 0.12800 0.84585 -0.13506
 H104 H 0.17015 0.81943 -0.16090
 N105 N 0.14234 1.11112 0.78363
 N106 N 0.11333 1.13773 0.78203
 C107 C 0.09821 1.13890 0.74430
 C108 C 0.11956 1.11203 0.72128
 C109 C 0.14723 1.09493 0.74705
 H110 H 0.07508 1.15919 0.73393
 H111 H 0.16981 1.07295 0.73961
 Cu112 Cu 0.10191 1.17130 0.82835
 Cu113 Cu 0.17265 1.10080 0.83264
 Cu114 Cu 0.17610 1.18055 0.89754
 N115 N 0.10243 1.21464 0.86686
 N116 N 0.13111 1.21776 0.89420
 C117 C 0.12692 1.25242 0.91358
 C118 C 0.09400 1.27213 0.89752
 C119 C 0.07952 1.24760 0.86753
 H120 H 0.14854 1.26424 0.93488
 H121 H 0.05634 1.25472 0.84562
 N122 N 0.21794 1.13885 0.89619
 N123 N 0.21452 1.10670 0.87399
 C124 C 0.24854 1.08505 0.87754
 C125 C 0.27489 1.10498 0.90243
 C126 C 0.25482 1.13903 0.91355
 H127 H 0.25556 1.05937 0.85950
 H128 H 0.26724 1.16325 0.93083
 H129 H 0.14314 1.13395 0.87743
 H130 H 0.17365 1.16100 0.83893
 N131 N 0.85455 0.89887 0.78626
 N132 N 0.88643 0.87589 0.78215
 C133 C 0.90604 0.88584 0.74798
 C134 C 0.88478 0.91620 0.72961
 C135 C 0.85233 0.92363 0.75459
 H136 H 0.93171 0.87008 0.73572
 H137 H 0.82792 0.94429 0.74910
 Cu138 Cu 0.89496 0.83102 0.81805
 Cu139 Cu 0.81601 0.89302 0.83023
 Cu140 Cu 0.83694 0.81906 0.89968
 N141 N 0.89226 0.78047 0.84657
 N142 N 0.87203 0.77737 0.88051
 C143 C 0.87631 0.74066 0.89548
 C144 C 0.89932 0.71913 0.86883
 C145 C 0.90904 0.74511 0.83799
 H146 H 0.86170 0.72980 0.92249
 H147 H 0.92691 0.73883 0.81150
 N148 N 0.78922 0.85336 0.90321
 N149 N 0.78136 0.88203 0.87727
 C150 C 0.74443 0.89697 0.88535
 C151 C 0.72808 0.87580 0.91702
 C152 C 0.75710 0.84843 0.92763
 H153 H 0.72907 0.91914 0.86743
 H154 H 0.75412 0.82514 0.94985
 H155 H 0.85730 0.86973 0.86843
 H156 H 0.82541 0.83342 0.84041
 N157 N 0.13748 0.88747 1.22003
 N158 N 0.10683 0.86260 1.22057
 C159 C 0.09095 0.86151 1.25790
 C160 C 0.11344 0.88659 1.28187
 C161 C 0.14265 0.90262 1.25706
 H162 H 0.06645 0.84234 1.26737
 H163 H 0.16638 0.92311 1.26544
 Cu164 Cu 0.09451 0.83034 1.17381
 Cu165 Cu 0.16910 0.89665 1.17154
 Cu166 Cu 0.16946 0.81653 1.10661
 N167 N 0.09354 0.78654 1.13632
 N168 N 0.12235 0.78144 1.10950
 C169 C 0.11627 0.74667 1.09065
 C170 C 0.08232 0.72895 1.10713
 C171 C 0.06885 0.75487 1.13618
 H172 H 0.13716 0.73344 1.06956
 H173 H 0.04476 0.74970 1.15763
 N174 N 0.21335 0.85652 1.10859
 N175 N 0.21107 0.88885 1.13068
 C176 C 0.24581 0.90942 1.12719
 C177 C 0.27154 0.88860 1.10252
 C178 C 0.25030 0.85511 1.09142
 H179 H 0.25359 0.93506 1.14501
 H180 H 0.26183 0.83056 1.07409
 H181 H 0.13905 0.86520 1.12574
 H182 H 0.16693 0.83662 1.16501
 N183 N 0.87063 1.10126 1.20597
 N184 N 0.90006 1.12749 1.20721
 C185 C 0.92044 1.12342 1.24211
 C186 C 0.90296 1.09293 1.26379
 C187 C 0.87112 1.07989 1.24024
 H188 H 0.94330 1.14380 1.25283
 H189 H 0.84815 1.05863 1.24881
 Cu190 Cu 0.90321 1.16990 1.16773
 Cu191 Cu 0.83116 1.09995 1.16209
 Cu192 Cu 0.83804 1.17549 1.09124
 N193 N 0.89475 1.21923 1.13840
 N194 N 0.87157 1.22008 1.10622
 C195 C 0.87154 1.25677 1.09051
 C196 C 0.89476 1.28046 1.11505
 C197 C 0.90907 1.25594 1.14529
 H198 H 0.85368 1.26605 1.06483
 H199 H 0.92817 1.26416 1.17039
 N200 N 0.79323 1.13732 1.09272
 N201 N 0.79016 1.10845 1.11947
 C202 C 0.75319 1.09173 1.11600
 C203 C 0.73208 1.11179 1.08634
 C204 C 0.75819 1.14041 1.07234
 H205 H 0.74112 1.06937 1.13605
 H206 H 0.75113 1.16368 1.05101
 H207 H 0.86568 1.12755 1.11984
 H208 H 0.83305 1.16008 1.15126
 O209 O 0.44521 1.08481 1.04920
 O210 O 0.39967 1.03789 1.02831
 C211 C 0.40853 1.07222 1.04323
 O212 O 0.55839 1.04166 0.91481
 O213 O 0.60251 1.01816 0.96260
 C214 C 0.59466 1.03464 0.92821
 O215 O 0.44535 1.05400 0.92132
 O216 O 0.39984 1.02391 0.96359
 C217 C 0.40876 1.04753 0.93407
 O218 O 0.55824 1.07970 1.05701
 O219 O 0.60215 1.03422 1.03051
 C220 C 0.59445 1.06639 1.05009
 Zr221 Zr 0.50123 1.05531 1.04128
 O222 O 0.50311 1.11737 1.03287
 O223 O 0.49876 1.06322 1.10425
 Zr224 Zr 0.50130 1.03115 0.94223
 O225 O 0.50805 1.09095 0.92440
 O226 O 0.49436 1.01452 0.88122
 O227 O 0.46588 1.05127 0.98973
 O228 O 0.53655 1.04999 0.98993
 O229 O 0.55656 0.94746 1.09394
 O230 O 0.60148 0.96946 1.04623
 C231 C 0.59307 0.95345 1.08067
 O232 O 0.44275 0.90675 0.95943
 O233 O 0.39859 0.95531 0.97906
 C234 C 0.40644 0.92065 0.96451
 O235 O 0.55630 0.90817 0.95329
 O236 O 0.60119 0.95336 0.97879
 C237 C 0.59279 0.92089 0.96007
 O238 O 0.44318 0.93718 1.08604
 O239 O 0.39873 0.96872 1.04373
 C240 C 0.40685 0.94450 1.07298
 Zr241 Zr 0.49987 0.95915 1.06602
 O242 O 0.50513 0.89948 1.08475
 O243 O 0.49316 0.97650 1.12682
 Zr244 Zr 0.49971 0.93489 0.96689
 O245 O 0.50054 0.87273 0.97399
 O246 O 0.49496 0.92622 0.90394
 Zr247 Zr 0.43993 0.99590 1.00390
 Zr248 Zr 0.56109 0.99433 1.00429
 O249 O 0.53473 0.93933 1.01861
 O250 O 0.46425 0.93983 1.01821
 O251 O 0.53701 1.00870 1.06120
 O252 O 0.46455 0.98184 0.94732
 O253 O 0.46452 1.00938 1.06066
 O254 O 0.53698 0.98056 0.94713
 H255 H 0.55529 1.07209 0.98375
 H256 H 0.44527 0.97699 0.92498
 H257 H 0.55252 0.91662 1.02522
 H258 H 0.44526 1.01474 1.08286
 H259 H 0.51716 0.99676 0.87447
 H260 H 0.52251 0.92860 0.89243
 H261 H 0.50722 0.86739 1.00248
 H262 H 0.48905 0.88345 1.06568
 H263 H 0.51594 0.99448 1.13323
 H264 H 0.49864 1.09219 1.10859
 H265 H 0.51487 1.12237 1.00600
 H266 H 0.49185 1.10700 0.94331
 O267 O 0.06241 0.44151 -0.07082
 O268 O 0.02490 0.39981 -0.03101
 C269 C 0.05194 0.40645 -0.05857
 O270 O 0.05199 0.56056 0.07183
 O271 O 0.02071 0.60197 0.02681
 C272 C 0.04272 0.59553 0.05852
 O273 O 0.05867 0.45055 0.07399
 O274 O 0.02372 0.40429 0.03742
 C275 C 0.04902 0.41431 0.06550
 O276 O 0.05608 0.55146 -0.08317
 O277 O 0.02331 0.59760 -0.04465
 C278 C 0.04688 0.58771 -0.07411
 Zr279 Zr 0.04156 0.49801 -0.05293
 O280 O 0.10505 0.50342 -0.04533
 O281 O 0.05137 0.49219 -0.11546
 Zr282 Zr 0.03879 0.50427 0.04764
 O283 O 0.10262 0.50917 0.04331
 O284 O 0.04435 0.50514 0.11100
 O285 O 0.04829 0.46539 -0.00003
 O286 O 0.04749 0.53627 -0.00471
 O287 O -0.07626 0.55119 -0.08574
 O288 O -0.04374 0.59718 -0.04680
 C289 C -0.06638 0.58737 -0.07698
 O290 O -0.08434 0.44909 0.07010
 O291 O -0.04626 0.40370 0.03548
 C292 C -0.07316 0.41305 0.06218
 O293 O -0.08669 0.56005 0.06108
 O294 O -0.04706 0.60165 0.02312
 C295 C -0.07596 0.59500 0.04866
 O296 O -0.08801 0.44151 -0.06672
 O297 O -0.04636 0.39985 -0.03122
 C298 C -0.07709 0.40654 -0.05457
 Zr299 Zr -0.06083 0.49739 -0.05606
 O300 O -0.12433 0.50382 -0.06135
 O301 O -0.05811 0.48637 -0.11871
 Zr302 Zr -0.06383 0.50360 0.04518
 O303 O -0.12793 0.50511 0.04236
 O304 O -0.06543 0.50589 0.10884
 Zr305 Zr -0.01090 0.44171 -0.00015
 Zr306 Zr -0.01139 0.55992 -0.00770
 O307 O -0.06984 0.53490 -0.00821
 O308 O -0.07006 0.46530 -0.00308
 O309 O -0.00957 0.53210 -0.06453
 O310 O -0.01253 0.47032 0.05606
 O311 O -0.00963 0.46277 -0.05981
 O312 O -0.01308 0.53939 0.05222
 H313 H 0.07037 0.55529 -0.00518
 H314 H -0.01303 0.45476 0.08138
 H315 H -0.09372 0.55243 -0.01114
 H316 H -0.01019 0.44321 -0.08194
 H317 H 0.01654 0.50741 0.12176
 H318 H -0.04997 0.52957 0.11723
 H319 H -0.13724 0.47969 0.03090
 H320 H -0.13632 0.49217 -0.03677
 H321 H -0.04068 0.50706 -0.13081
 H322 H 0.02479 0.48605 -0.12763
 H323 H 0.11536 0.47751 -0.03588
 H324 H 0.11339 0.48251 0.03736
 O325 O 0.93914 0.07061 0.43642
 O326 O 0.97551 0.02861 0.39623
 C327 C 0.94911 0.05660 0.40152
 O328 O 1.08543 0.07386 0.55041
 O329 O 1.04348 0.04575 0.59751
 C330 C 1.07365 0.06814 0.58731
 O331 O 1.08437 0.06561 0.43756
 O332 O 1.04504 0.02627 0.39723
 C333 C 1.07417 0.05130 0.40275
 O334 O 0.93728 0.08076 0.54818
 O335 O 0.97297 0.04699 0.59656
 C336 C 0.94676 0.07337 0.58538
 Zr337 Zr 0.95895 0.05438 0.49460
 O338 O 0.96128 0.11691 0.49128
 O339 O 0.89490 0.05522 0.49064
 Zr340 Zr 1.06078 0.05222 0.49561
 O341 O 1.05827 0.11480 0.49280
 O342 O 1.12478 0.05416 0.49299
 O343 O 1.01035 0.05753 0.45814
 O344 O 1.00990 0.06376 0.52946
 O345 O 0.92860 -0.05334 0.56199
 O346 O 0.97096 -0.01874 0.60376
 C347 C 0.93970 -0.04111 0.59727
 O348 O 1.07916 -0.07355 0.45198
 O349 O 1.04179 -0.04105 0.40390
 C350 C 1.06860 -0.06690 0.41484
 O351 O 1.08619 -0.05460 0.56339
 O352 O 1.04355 -0.01966 0.60442
 C353 C 1.07472 -0.04218 0.59851
 O354 O 0.93903 -0.07443 0.45172
 O355 O 0.97438 -0.03986 0.40376
 C356 C 0.94951 -0.06753 0.41470
 Zr357 Zr 0.95662 -0.04528 0.50538
 O358 O 0.95753 -0.10651 0.51911
 O359 O 0.89297 -0.04840 0.49890
 Zr360 Zr 1.05809 -0.04763 0.50641
 O361 O 1.05026 -0.10866 0.51885
 O362 O 1.12111 -0.05832 0.50435
 Zr363 Zr 1.00899 -0.00233 0.44064
 Zr364 Zr 1.00810 0.00927 0.56045
 O365 O 1.00697 -0.05025 0.54225
 O366 O 1.00754 -0.05755 0.47065
 O367 O 0.94940 0.00841 0.53535
 O368 O 1.06724 -0.00140 0.46668
 O369 O 0.95038 0.00114 0.46518
 O370 O 1.06714 0.00575 0.53628
 H371 H 1.01074 0.08865 0.54511
 H372 H 1.09177 -0.00397 0.44975
 H373 H 1.00639 -0.07054 0.56386
 H374 H 0.92664 -0.00067 0.44700
 H375 H 1.13496 0.03388 0.51200
 H376 H 1.13425 -0.03224 0.50104
 H377 H 1.04483 -0.12206 0.49296
 H378 H 0.97292 -0.11990 0.49757
 H379 H 0.88204 -0.02290 0.50841
 H380 H 0.88404 0.04382 0.51591
 H381 H 0.97855 0.12404 0.46803
 H382 H 1.04962 0.12226 0.46527
 N383 N 1.12964 0.03558 0.35862
 N384 N 1.14432 0.04596 0.32306
 C385 C 1.12245 0.07730 0.31042
 C386 C 1.09376 0.08595 0.33949
 N387 N 1.09971 0.05940 0.36915
 H388 H 1.07004 0.10805 0.33854
 N389 N 0.92807 -0.13145 0.38920
 N390 N 0.91805 -0.14805 0.35450
 C391 C 0.91767 -0.11882 0.32678
 C392 C 0.92774 -0.08382 0.34533
 N393 N 0.93394 -0.09300 0.38423
 H394 H 0.93095 -0.05476 0.33185
 N395 N 0.91839 0.13460 0.61091
 N396 N 0.90659 0.14999 0.64559
 C397 C 0.90936 0.12086 0.67328
 C398 C 0.92326 0.08716 0.65476
 N399 N 0.92854 0.09702 0.61588
 H400 H 0.92993 0.05870 0.66830
 N401 N 1.13860 -0.04261 0.63463
 N402 N 1.15319 -0.05249 0.67046
 C403 C 1.12211 -0.06820 0.69142
 C404 C 1.08792 -0.06761 0.66746
 N405 N 1.09964 -0.05158 0.63231
 H406 H 1.05775 -0.07805 0.67465
 N407 N 0.37345 1.13488 1.03670
 N408 N 0.33851 1.15130 1.04683
 C409 C 0.31835 1.12447 1.06936
 C410 C 0.34193 1.09079 1.07250
 N411 N 0.37599 1.09867 1.05177
 H412 H 0.33494 1.06324 1.08772
 N413 N 0.36854 0.85932 0.96952
 N414 N 0.33283 0.84476 0.95889
 C415 C 0.31417 0.87293 0.93675
 C416 C 0.33944 0.90544 0.93434
 N417 N 0.37298 0.89558 0.95507
 H418 H 0.33388 0.93359 0.91968
 N419 N 0.63064 0.95608 1.14334
 N420 N 0.66694 0.94653 1.15739
 C421 C 0.68602 0.92665 1.12781
 C422 C 0.66040 0.92442 1.09505
 N423 N 0.62621 0.94301 1.10611
 H424 H 0.66634 0.91180 1.06572
 N425 N 0.63356 1.02921 0.86667
 N426 N 0.66900 1.04053 0.85190
 C427 C 0.68640 1.06393 0.87986
 C428 C 0.66063 1.06640 0.91250
 N429 N 0.62806 1.04444 0.90287
 H430 H 0.66525 1.08190 0.94061
 N431 N 0.07055 0.38822 0.12998
 N432 N 0.08226 0.35439 0.14645
 C433 C 0.08445 0.32785 0.11637
 C434 C 0.07355 0.34628 0.08084
 N435 N 0.06517 0.38393 0.09076
 H436 H 0.07145 0.33362 0.05102
 N437 N -0.14220 0.37405 -0.06211
 N438 N -0.15714 0.33847 -0.06988
 C439 C -0.12524 0.31492 -0.07789
 C440 C -0.09023 0.33706 -0.07491
 N441 N -0.10221 0.37377 -0.06515
 H442 H -0.05926 0.32753 -0.07942
 N443 N 0.06713 0.61542 -0.13861
 N444 N 0.07848 0.64985 -0.15414
 C445 C 0.08093 0.67546 -0.12322
 C446 C 0.07066 0.65590 -0.08827
 N447 N 0.06231 0.61855 -0.09921
 H448 H 0.06897 0.66766 -0.05803
 N449 N -0.13964 0.62817 0.06175
 N450 N -0.15335 0.66380 0.07112
 C451 C -0.12055 0.68684 0.07703
 C452 C -0.08622 0.66434 0.07108
 N453 N -0.09954 0.62794 0.06168
 H454 H -0.05484 0.67346 0.07323
 N455 N 1.13487 0.09591 0.61669
 N456 N 1.14847 0.10727 0.65238
 C457 C 1.11673 0.10549 0.67785
 C458 C 1.08336 0.09237 0.65697
 N459 N 1.09594 0.08676 0.61891
 H460 H 1.05353 0.08557 0.66869
 N461 N 0.87441 -0.04745 0.62964
 N462 N 0.85873 -0.05761 0.66484
 C463 C 0.88996 -0.06827 0.68869
 C464 C 0.92550 -0.06411 0.66716
 N465 N 0.91430 -0.05108 0.63050
 H466 H 0.95619 -0.07024 0.67690
 N467 N 1.12625 -0.10253 0.38745
 N468 N 1.13972 -0.11469 0.35202
 C469 C 1.10980 -0.10769 0.32527
 C470 C 1.07775 -0.09067 0.34506
 N471 N 1.08921 -0.08796 0.38380
 H472 H 1.04984 -0.07941 0.33226
 N473 N 0.89427 0.09305 0.37019
 N474 N 0.88051 0.10260 0.33402
 C475 C 0.90669 0.08719 0.30729
 C476 C 0.93716 0.06791 0.32804
 N477 N 0.92811 0.07226 0.36730
 H478 H 0.96313 0.05244 0.31597
 N479 N 0.08973 0.37662 -0.11317
 N480 N 0.10051 0.34128 -0.12645
 C481 C 0.08675 0.31474 -0.09939
 C482 C 0.06734 0.33479 -0.06884
 N483 N 0.06988 0.37341 -0.07870
 H484 H 0.05268 0.32262 -0.04241
 N485 N -0.09643 0.38483 0.12541
 N486 N -0.10324 0.34940 0.14133
 C487 C -0.09994 0.32322 0.11102
 C488 C -0.09115 0.34342 0.07612
 N489 N -0.08923 0.38177 0.08634
 H490 H -0.08498 0.33131 0.04662
 N491 N -0.08150 0.61604 -0.14271
 N492 N -0.08871 0.65140 -0.15868
 C493 C -0.09130 0.67691 -0.12768
 C494 C -0.08565 0.65631 -0.09236
 N495 N -0.07975 0.61848 -0.10297
 H496 H -0.08490 0.66781 -0.06198
 N497 N 0.05806 0.62752 0.12176
 N498 N 0.06735 0.66291 0.13599
 C499 C 0.07084 0.68721 0.10394
 C500 C 0.06328 0.66574 0.06945
 N501 N 0.05544 0.62861 0.08202
 H502 H 0.06312 0.67603 0.03854
 N503 N 0.38239 1.10554 0.89998
 N504 N 0.34712 1.12284 0.89280
 C505 C 0.31833 1.09758 0.90576
 C506 C 0.33677 1.06415 0.92081
 N507 N 0.37680 1.07032 0.91665
 H508 H 0.32264 1.03859 0.93467
 N509 N 0.37909 0.88574 1.10456
 N510 N 0.34344 0.86881 1.11091
 C511 C 0.31519 0.89509 1.09896
 C512 C 0.33439 0.92880 1.08543
 N513 N 0.37430 0.92174 1.08944
 H514 H 0.32083 0.95522 1.07275
 N515 N 0.62776 1.12849 1.06579
 N516 N 0.66448 1.14181 1.07448
 C517 C 0.68862 1.10980 1.07795
 C518 C 0.66583 1.07643 1.07102
 N519 N 0.62805 1.08943 1.06349
 H520 H 0.67586 1.04593 1.07024
 N521 N 0.62745 0.85810 0.95095
 N522 N 0.66396 0.84502 0.94110
 C523 C 0.68613 0.87712 0.93110
 C524 C 0.66234 0.91023 0.93505
 N525 N 0.62601 0.89708 0.94744
 H526 H 0.67070 0.94085 0.93009
   
