data_POSCAR
  _audit_creation_date              2014-09-24
  _audit_creation_method            'ToBaCCo'
  _symmetry_space_group_name_H-M    'P1'
  _symmetry_Int_Tables_number       1
  _symmetry_cell_setting            triclinic
  loop_
  _symmetry_equiv_pos_as_xyz
 x,y,z
_cell_length_a 27.7582
_cell_length_b 27.4929
_cell_length_c 50.0762
_cell_angle_alpha 87.741200
_cell_angle_beta 91.114000
_cell_angle_gamma 120.143900
loop_
  _atom_site_label
  _atom_site_type_symbol
  _atom_site_fract_x
  _atom_site_fract_y
  _atom_site_fract_z
C1 C 0.01362 0.09043 0.53372
 H2 H 0.05108 0.08768 0.53274
 C3 C 0.01341 0.13216 0.54845
 H4 H 0.05072 0.16122 0.55904
 C5 C -0.07994 0.05687 0.52026
 H6 H -0.11555 0.02851 0.50857
 C7 C -0.08221 0.09779 0.53514
 H8 H -0.11979 0.10053 0.53499
 N9 N -0.03229 0.05422 0.51980
 C10 C -0.00030 -0.08270 0.50714
 H11 H 0.00313 -0.08067 0.48559
 C12 C 0.00131 -0.12600 0.52192
 H13 H 0.00619 -0.15712 0.51159
 C14 C -0.01479 -0.04675 0.54656
 H15 H -0.02265 -0.01678 0.55601
 C16 C -0.01364 -0.08943 0.56209
 H17 H -0.01930 -0.09102 0.58350
 Zn18 Zn -0.02040 0.00659 0.49806
 N19 N -0.00858 -0.04442 0.51958
 C20 C 0.08979 0.05199 0.47634
 N21 N 0.04252 0.05521 0.47698
 C22 C 0.03887 0.09715 0.46357
 C23 C 0.08411 0.13871 0.44908
 C24 C 0.13599 0.09239 0.46168
 C25 C -0.13227 -0.07272 0.48635
 C26 C -0.17486 -0.11331 0.47082
 C27 C -0.11134 -0.08097 0.43343
 C28 C -0.07070 -0.04019 0.44950
 N29 N -0.08130 -0.03758 0.47558
 H30 H 0.09205 0.01869 0.48745
 H31 H 0.00099 0.09906 0.46479
 H32 H 0.08058 0.17278 0.43951
 H33 H 0.17309 0.08887 0.46120
 H34 H -0.13907 -0.07120 0.50743
 H35 H -0.21342 -0.14220 0.48092
 H36 H -0.10065 -0.08049 0.41274
 H37 H -0.02966 -0.01237 0.44136
 C38 C -0.00636 -0.13026 0.54973
 C39 C -0.03464 0.13665 0.54900
 C40 C -0.16454 -0.12005 0.44397
 C41 C 0.13375 0.13694 0.44798
 C42 C 1.09825 0.03888 0.12896
 H43 H 1.09592 0.07685 0.13014
 C44 C 1.14067 0.03954 0.11428
 H45 H 1.17041 0.07803 0.10380
 C46 C 1.06299 -0.05694 0.14198
 H47 H 1.03361 -0.09381 0.15351
 C48 C 1.10482 -0.05821 0.12737
 H49 H 1.10717 -0.09637 0.12763
 N50 N 1.06092 -0.00860 0.14265
 C51 C 0.92904 0.02862 0.15790
 H52 H 0.93058 0.03014 0.17947
 C53 C 0.88769 0.03360 0.14384
 H54 H 0.85772 0.03943 0.15472
 C55 C 0.96365 0.01483 0.11770
 H56 H 0.99216 0.00567 0.10768
 C57 C 0.92261 0.01893 0.10291
 H58 H 0.92069 0.01419 0.08148
 Zn59 Zn 1.01282 0.00099 0.16519
 N60 N 0.96574 0.01911 0.14472
 C61 C 1.05975 0.10774 0.19051
 N62 N 1.06014 0.05882 0.18818
 C63 C 1.09844 0.04973 0.20120
 C64 C 1.13885 0.09078 0.21718
 C65 C 1.09924 0.14993 0.20662
 C66 C 0.92873 -0.11171 0.17233
 C67 C 0.88657 -0.15815 0.18633
 C68 C 0.92103 -0.10772 0.22720
 C69 C 0.96280 -0.06250 0.21247
 N70 N 0.96538 -0.06496 0.18550
 H71 H 1.02952 0.11450 0.17962
 H72 H 1.09827 0.01076 0.19861
 H73 H 1.16996 0.08304 0.22654
 H74 H 1.09805 0.18841 0.20843
 H75 H 0.93084 -0.11194 0.15079
 H76 H 0.85650 -0.19429 0.17546
 H77 H 0.91867 -0.10457 0.24857
 H78 H 0.99140 -0.02447 0.22248
 C79 C 0.88347 0.02756 0.11605
 C80 C 1.14498 -0.00910 0.11375
 C81 C 0.88162 -0.15585 0.21404
 C82 C 1.13989 0.14191 0.22006
 C83 C 0.04680 0.95543 0.87377
 H84 H 0.00672 0.91728 0.87271
 C85 C 0.08976 0.95538 0.88856
 H86 H 0.08221 0.91719 0.89927
 C87 C 0.10552 1.05104 0.86025
 H88 H 0.11170 1.08758 0.84851
 C89 C 0.14981 1.05293 0.87497
 H90 H 0.18999 1.09121 0.87455
 N91 N 0.05553 1.00244 0.85971
 C92 C -0.11555 0.96115 0.84410
 H93 H -0.11832 0.95624 0.82270
 C94 C -0.16080 0.95655 0.85809
 H95 H -0.19776 0.94809 0.84687
 C96 C -0.06138 0.98392 0.88358
 H97 H -0.02210 0.99588 0.89333
 C98 C -0.10489 0.98137 0.89821
 H99 H -0.09867 0.98901 0.91937
 Zn100 Zn -0.00321 0.99222 0.83672
 N101 N -0.06711 0.97462 0.85696
 C102 C -0.06341 0.88478 0.81172
 N103 N -0.01432 0.93382 0.81415
 C104 C 0.03261 0.94243 0.80181
 C105 C 0.03158 0.90104 0.78626
 C106 C -0.06652 0.84229 0.79600
 C107 C 0.01862 1.10247 0.82970
 C108 C 0.02276 1.14930 0.81565
 C109 C 0.02105 1.10587 0.77435
 C110 C 0.01626 1.05953 0.78918
 N111 N 0.01454 1.05844 0.81634
 H112 H -0.09997 0.87808 0.82223
 H113 H 0.07137 0.98133 0.80457
 H114 H 0.07007 0.90853 0.77739
 H115 H -0.10610 0.80387 0.79402
 H116 H 0.01635 1.10011 0.85129
 H117 H 0.02454 1.18341 0.82655
 H118 H 0.02044 1.10530 0.75273
 H119 H 0.01163 1.02360 0.77891
 C120 C -0.15559 0.96842 0.88552
 C121 C 0.14240 1.00418 0.88885
 C122 C 0.02306 1.15091 0.78760
 C123 C -0.01842 0.85000 0.78311
 C124 C 0.46143 -0.00275 -0.01340
 C125 C 0.46450 0.00146 0.01469
 C126 C 0.51064 0.00487 0.02829
 C127 C 0.55303 0.00229 0.01470
 C128 C 0.54904 -0.00392 -0.01342
 C129 C 0.50323 -0.00616 -0.02701
 H130 H 0.50075 -0.00921 -0.04857
 H131 H 0.51284 0.00806 0.04985
 C132 C -0.01815 0.45192 0.65332
 C133 C -0.01379 0.45178 0.68154
 C134 C -0.01394 0.49515 0.69542
 C135 C -0.01637 0.53951 0.68179
 C136 C -0.01983 0.53987 0.65353
 C137 C -0.02076 0.49608 0.63973
 H138 H -0.02425 0.49600 0.61812
 H139 H -0.00971 0.49570 0.71700
 C140 C 0.54956 0.54240 0.31778
 C141 C 0.54753 0.54589 0.34590
 C142 C 0.50218 0.50285 0.36026
 C143 C 0.45876 0.45683 0.34742
 C144 C 0.46069 0.45368 0.31931
 C145 C 0.50603 0.49646 0.30495
 H146 H 0.50752 0.49387 0.28346
 H147 H 0.50066 0.50514 0.38177
 C148 C -0.02603 0.27468 0.59081
 C149 C -0.07044 0.21914 0.59594
 C150 C -0.07425 0.17425 0.58167
 C151 C -0.03335 0.18378 0.56289
 C152 C 0.01065 0.23869 0.55797
 C153 C 0.01427 0.28361 0.57160
 C154 C -0.02325 0.32142 0.60644
 C155 C 0.01797 0.37828 0.60200
 C156 C 0.01917 0.42022 0.61723
 C157 C -0.02029 0.40666 0.63735
 C158 C -0.06197 0.35040 0.64181
 C159 C -0.06395 0.30780 0.62641
 C160 C -0.11001 0.20865 0.61562
 C161 C -0.10653 0.25193 0.63070
 H162 H -0.14386 0.16617 0.61967
 H163 H -0.13785 0.24152 0.64589
 H164 H -0.10798 0.13169 0.58574
 H165 H 0.04250 0.24689 0.54343
 H166 H 0.05145 0.46355 0.61348
 H167 H -0.09306 0.34003 0.65713
 H168 H 0.04936 0.32470 0.56700
 H169 H 0.04952 0.39146 0.58683
 C170 C 0.73975 0.71093 0.25620
 C171 C 0.75648 0.76799 0.26010
 C172 C 0.80333 0.81101 0.24666
 C173 C 0.83355 0.79827 0.22886
 C174 C 0.81649 0.74179 0.22468
 C175 C 0.77037 0.69860 0.23822
 C176 C 0.68985 0.66629 0.27123
 C177 C 0.67137 0.60844 0.26978
 C178 C 0.62543 0.56864 0.28462
 C179 C 0.59656 0.58531 0.30117
 C180 C 0.61359 0.64261 0.30224
 C181 C 0.66054 0.68315 0.28789
 C182 C 0.72603 0.78185 0.27711
 C183 C 0.67882 0.74035 0.29051
 H184 H 0.73872 0.82555 0.27999
 H185 H 0.65662 0.75327 0.30339
 H186 H 0.81557 0.85461 0.24956
 H187 H 0.83918 0.73102 0.21101
 H188 H 0.61298 0.52457 0.28359
 H189 H 0.59097 0.65563 0.31479
 H190 H 0.75927 0.65600 0.23415
 H191 H 0.69224 0.59302 0.25771
 C192 C 0.27895 -0.00204 -0.07182
 C193 C 0.27103 0.04441 -0.06845
 C194 C 0.22689 0.04671 -0.08153
 C195 C 0.18973 0.00279 -0.09766
 C196 C 0.19765 -0.04316 -0.10088
 C197 C 0.24157 -0.04564 -0.08822
 C198 C 0.32649 -0.00298 -0.05753
 C199 C 0.33858 -0.04672 -0.05999
 C200 C 0.38279 -0.04606 -0.04592
 C201 C 0.41585 -0.00207 -0.02902
 C202 C 0.40505 0.04227 -0.02681
 C203 C 0.36071 0.04210 -0.04085
 C204 C 0.30681 0.08794 -0.05186
 C205 C 0.35050 0.08668 -0.03826
 H206 H 0.30072 0.12343 -0.04920
 H207 H 0.37677 0.12122 -0.02552
 H208 H 0.22074 0.08214 -0.07875
 H209 H 0.16997 -0.07723 -0.11352
 H210 H 0.39071 -0.08053 -0.04789
 H211 H 0.43121 0.07683 -0.01404
 H212 H 0.24523 -0.08215 -0.09152
 H213 H 0.31444 -0.08189 -0.07256
 C214 C -0.01847 0.72703 0.59488
 C215 C 0.02346 0.75544 0.57520
 C216 C 0.02739 0.80202 0.56066
 C217 C -0.00957 0.82144 0.56557
 C218 C -0.05056 0.79372 0.58532
 C219 C -0.05506 0.74719 0.59979
 C220 C -0.02158 0.67710 0.60978
 C221 C -0.06272 0.64488 0.62918
 C222 C -0.06294 0.59957 0.64290
 C223 C -0.02204 0.58555 0.63780
 C224 C 0.01805 0.61616 0.61803
 C225 C 0.01859 0.66164 0.60402
 C226 C 0.06142 0.73744 0.57024
 C227 C 0.05925 0.69178 0.58445
 H228 H 0.09360 0.75924 0.55523
 H229 H 0.08988 0.67981 0.58001
 H230 H 0.05968 0.82364 0.54568
 H231 H -0.08002 0.80746 0.58929
 H232 H -0.09475 0.57574 0.65783
 H233 H 0.04961 0.60519 0.61399
 H234 H -0.08747 0.72773 0.61467
 H235 H -0.09497 0.65393 0.63411
 C236 C 0.27566 0.27119 0.26467
 C237 C 0.25298 0.28596 0.24235
 C238 C 0.20831 0.24388 0.22812
 C239 C 0.18456 0.18690 0.23618
 C240 C 0.20526 0.17289 0.25924
 C241 C 0.25021 0.21427 0.27325
 C242 C 0.32522 0.31702 0.27843
 C243 C 0.35442 0.30624 0.29898
 C244 C 0.39962 0.35051 0.31156
 C245 C 0.41610 0.40650 0.30434
 C246 C 0.38896 0.41768 0.28314
 C247 C 0.34422 0.37349 0.26996
 C248 C 0.27484 0.34262 0.23445
 C249 C 0.31876 0.38550 0.24829
 H250 H 0.25721 0.35406 0.21752
 H251 H 0.33360 0.42872 0.24166
 H252 H 0.19295 0.25557 0.21039
 H253 H 0.18669 0.12961 0.26654
 H254 H 0.42115 0.34108 0.32738
 H255 H 0.40221 0.46096 0.27720
 H256 H 0.26412 0.20084 0.29081
 H257 H 0.34328 0.26403 0.30551
 C258 C 0.71503 -0.02462 -0.07330
 C259 C 0.77146 0.01117 -0.06646
 C260 C 0.81365 0.00719 -0.07946
 C261 C 0.80122 -0.03015 -0.10045
 C262 C 0.74491 -0.06419 -0.10769
 C263 C 0.70255 -0.06192 -0.09421
 C264 C 0.67119 -0.01998 -0.05845
 C265 C 0.61376 -0.05766 -0.06164
 C266 C 0.57462 -0.05191 -0.04710
 C267 C 0.59153 -0.00812 -0.02927
 C268 C 0.64860 0.03036 -0.02640
 C269 C 0.68840 0.02350 -0.04003
 C270 C 0.78568 0.05204 -0.04729
 C271 C 0.74512 0.05889 -0.03480
 H272 H 0.82897 0.07995 -0.04222
 H273 H 0.75833 0.09167 -0.02041
 H274 H 0.85656 0.03609 -0.07419
 H275 H 0.73288 -0.09436 -0.12327
 H276 H 0.53083 -0.08239 -0.04949
 H277 H 0.66209 0.06486 -0.01298
 H278 H 0.66036 -0.08920 -0.10074
 H279 H 0.59824 -0.09259 -0.07476
 C280 C 0.28518 -0.00125 0.07384
 C281 C 0.23092 -0.04786 0.07045
 C282 C 0.18537 -0.05072 0.08375
 C283 C 0.19288 -0.00723 0.10014
 C284 C 0.24664 0.03882 0.10344
 C285 C 0.29218 0.04187 0.09055
 C286 C 0.33269 0.00034 0.05927
 C287 C 0.38834 0.04438 0.06165
 C288 C 0.43096 0.04424 0.04738
 C289 C 0.41923 0.00048 0.03035
 C290 C 0.36428 -0.04408 0.02817
 C291 C 0.32105 -0.04442 0.04240
 C292 C 0.22238 -0.09101 0.05363
 C293 C 0.26642 -0.08921 0.03983
 H294 H 0.18089 -0.12663 0.05096
 H295 H 0.25755 -0.12349 0.02693
 H296 H 0.14386 -0.08624 0.08092
 H297 H 0.25361 0.07256 0.11628
 H298 H 0.47322 0.07888 0.04932
 H299 H 0.35530 -0.07846 0.01530
 H300 H 0.33232 0.07843 0.09391
 H301 H 0.39995 0.07939 0.07431
 C302 C 0.71791 0.73999 0.40102
 C303 C 0.70002 0.76242 0.42089
 C304 C 0.73919 0.80887 0.43524
 C305 C 0.79684 0.83613 0.42932
 C306 C 0.81318 0.81526 0.40797
 C307 C 0.77467 0.76795 0.39434
 C308 C 0.67527 0.68837 0.38731
 C309 C 0.68950 0.65802 0.37020
 C310 C 0.64812 0.61076 0.35751
 C311 C 0.59169 0.59361 0.36090
 C312 C 0.57711 0.62208 0.37883
 C313 C 0.61832 0.66839 0.39245
 C314 C 0.64296 0.73920 0.42589
 C315 C 0.60296 0.69417 0.41145
 H316 H 0.62894 0.75681 0.44083
 H317 H 0.55934 0.67850 0.41566
 H318 H 0.72365 0.82531 0.45001
 H319 H 0.85640 0.83250 0.40258
 H320 H 0.66029 0.58795 0.34469
 H321 H 0.53352 0.60828 0.38207
 H322 H 0.79024 0.75394 0.37855
 H323 H 0.73225 0.66960 0.36671
 C324 C 0.01508 0.28268 0.74160
 C325 C -0.01969 0.25672 0.76416
 C326 C -0.01566 0.21496 0.77942
 C327 C 0.02168 0.19739 0.77224
 C328 C 0.05560 0.22257 0.74970
 C329 C 0.05264 0.26485 0.73462
 C330 C 0.00940 0.32715 0.72586
 C331 C 0.04381 0.35753 0.70390
 C332 C 0.03644 0.39809 0.68976
 C333 C -0.00585 0.40889 0.69683
 C334 C -0.03956 0.37982 0.71899
 C335 C -0.03204 0.33946 0.73361
 C336 C -0.05907 0.27169 0.77108
 C337 C -0.06549 0.31174 0.75598
 H338 H -0.08587 0.25161 0.78827
 H339 H -0.09699 0.32137 0.76201
 H340 H -0.04290 0.19480 0.79648
 H341 H 0.08465 0.20956 0.74378
 H342 H 0.06414 0.42138 0.67325
 H343 H -0.07188 0.38852 0.72475
 H344 H 0.07956 0.28240 0.71743
 H345 H 0.07697 0.35109 0.69746
 C346 C 0.74379 0.02220 0.07413
 C347 C 0.75930 -0.01866 0.06974
 C348 C 0.80566 -0.01574 0.08300
 C349 C 0.83644 0.02672 0.10114
 C350 C 0.82070 0.06676 0.10571
 C351 C 0.77518 0.06482 0.09233
 C352 C 0.69410 0.01765 0.05947
 C353 C 0.67677 0.05758 0.06144
 C354 C 0.63066 0.05182 0.04713
 C355 C 0.60046 0.00611 0.03061
 C356 C 0.61646 -0.03461 0.02895
 C357 C 0.66361 -0.02854 0.04274
 C358 C 0.72794 -0.06274 0.05254
 C359 C 0.68083 -0.06788 0.03954
 H360 H 0.73971 -0.09413 0.04926
 H361 H 0.65780 -0.10296 0.02656
 H362 H 0.81691 -0.04755 0.07978
 H363 H 0.84388 0.09988 0.11964
 H364 H 0.61904 0.08380 0.04859
 H365 H 0.59283 -0.07039 0.01643
 H366 H 0.76502 0.09668 0.09676
 H367 H 0.69865 0.09399 0.07355
 C368 C 0.27667 0.27363 0.40743
 C369 C 0.22222 0.25467 0.39754
 C370 C 0.17628 0.20892 0.41023
 C371 C 0.18312 0.18251 0.43343
 C372 C 0.23719 0.20181 0.44332
 C373 C 0.28333 0.24647 0.43049
 C374 C 0.32463 0.32230 0.39309
 C375 C 0.38070 0.34201 0.40017
 C376 C 0.42386 0.38641 0.38566
 C377 C 0.41234 0.41264 0.36392
 C378 C 0.35670 0.39477 0.35732
 C379 C 0.31301 0.34891 0.37115
 C380 C 0.21370 0.28209 0.37534
 C381 C 0.25804 0.32869 0.36267
 H382 H 0.17196 0.26775 0.36784
 H383 H 0.24921 0.34868 0.34570
 H384 H 0.13500 0.19415 0.40203
 H385 H 0.24393 0.18334 0.46148
 H386 H 0.46656 0.39946 0.39101
 H387 H 0.34752 0.41545 0.34076
 H388 H 0.32365 0.25974 0.43927
 H389 H 0.39220 0.32295 0.41641
 C390 C -0.01445 0.72083 0.73830
 C391 C -0.05112 0.70583 0.76026
 C392 C -0.05272 0.74787 0.77467
 C393 C -0.01936 0.80503 0.76705
 C394 C 0.01458 0.81926 0.74432
 C395 C 0.01724 0.77796 0.73020
 C396 C -0.01191 0.67506 0.72424
 C397 C 0.02739 0.68606 0.70410
 C398 C 0.02705 0.64199 0.69107
 C399 C -0.01303 0.58596 0.69739
 C400 C -0.05054 0.57438 0.71831
 C401 C -0.04983 0.61843 0.73197
 C402 C -0.08625 0.64899 0.76754
 C403 C -0.08643 0.60622 0.75335
 H404 H -0.11473 0.63735 0.78421
 H405 H -0.11512 0.56290 0.75947
 H406 H -0.07926 0.73595 0.79212
 H407 H 0.03928 0.86267 0.73731
 H408 H 0.05771 0.65172 0.67565
 H409 H -0.08085 0.53104 0.72366
 H410 H 0.04394 0.79162 0.71287
 H411 H 0.05894 0.72830 0.69825
   
