data_POSCAR
  _audit_creation_date              2014-09-24
  _audit_creation_method            'ToBaCCo'
  _symmetry_space_group_name_H-M    'P1'
  _symmetry_Int_Tables_number       1
  _symmetry_cell_setting            triclinic
  loop_
  _symmetry_equiv_pos_as_xyz
 x,y,z
_cell_length_a 41.3893
_cell_length_b 41.3612
_cell_length_c 41.3887
_cell_angle_alpha 89.970200
_cell_angle_beta 89.979900
_cell_angle_gamma 89.949000
loop_
  _atom_site_label
  _atom_site_type_symbol
  _atom_site_fract_x
  _atom_site_fract_y
  _atom_site_fract_z
C1 C 0.27298 0.25017 0.22676
 N2 N 0.24980 0.27339 0.22676
 C3 C 0.22655 0.27334 0.24988
 N4 N 0.22647 0.25007 0.27300
 C5 C 0.24965 0.22685 0.27300
 N6 N 0.27290 0.22690 0.24988
 C7 C 0.72615 -0.25060 0.22600
 N8 N 0.74946 -0.27369 0.22591
 C9 C 0.77272 -0.27361 0.24902
 N10 N 0.77265 -0.25043 0.27221
 C11 C 0.74935 -0.22734 0.27231
 N12 N 0.72609 -0.22742 0.24920
 C13 C 0.72778 0.25072 0.77264
 N14 N 0.75089 0.27396 0.77262
 C15 C 0.77410 0.27398 0.74946
 N16 N 0.77419 0.25075 0.72631
 C17 C 0.75107 0.22750 0.72634
 N18 N 0.72787 0.22749 0.74951
 C19 C 0.27410 -0.25048 0.77462
 N20 N 0.27420 -0.22737 0.75132
 C21 C 0.25097 -0.22729 0.72819
 N22 N 0.22764 -0.25031 0.72836
 C23 C 0.22753 -0.27341 0.75164
 N24 N 0.25076 -0.27350 0.77477
 C25 C 0.72606 -0.25042 0.77439
 N26 N 0.74933 -0.27357 0.77446
 C27 C 0.77254 -0.27358 0.75130
 N28 N 0.77249 -0.25043 0.72805
 C29 C 0.74923 -0.22728 0.72795
 N30 N 0.72602 -0.22728 0.75113
 C31 C 0.27307 0.25005 0.77288
 N32 N 0.27306 0.22685 0.74971
 C33 C 0.24982 0.22680 0.72659
 N34 N 0.22658 0.24996 0.72664
 C35 C 0.22658 0.27317 0.74980
 N36 N 0.24982 0.27322 0.77292
 C37 C 0.27326 -0.25123 0.22574
 N38 N 0.27333 -0.22811 0.24899
 C39 C 0.25007 -0.22801 0.27211
 N40 N 0.22674 -0.25104 0.27198
 C41 C 0.22665 -0.27417 0.24874
 N42 N 0.24992 -0.27426 0.22562
 C43 C 0.72801 0.25106 0.22694
 N44 N 0.75112 0.27431 0.22698
 C45 C 0.77432 0.27431 0.25015
 N46 N 0.77440 0.25103 0.27328
 C47 C 0.75128 0.22777 0.27324
 N48 N 0.72809 0.22780 0.25007
 O49 O 0.27674 0.03050 0.46823
 O50 O 0.27711 -0.03239 0.53124
 O51 O 0.27697 -0.03247 0.46829
 O52 O 0.27685 0.03057 0.53114
 O53 O 0.22342 0.03041 0.53127
 O54 O 0.22353 -0.03262 0.46842
 O55 O 0.22368 -0.03255 0.53136
 O56 O 0.22331 0.03035 0.46836
 Cu57 Cu 0.28231 -0.00094 0.49971
 Cu58 Cu 0.21809 -0.00112 0.49986
 C59 C 0.24997 0.04105 0.45768
 C60 C 0.25046 -0.04306 0.54195
 C61 C 0.25027 -0.04317 0.45774
 C62 C 0.25011 0.04114 0.54181
 O63 O 0.72374 0.03124 0.53131
 O64 O 0.72330 -0.03171 0.46843
 O65 O 0.72328 -0.03172 0.53138
 O66 O 0.72377 0.03126 0.46840
 O67 O 0.77720 0.03082 0.46840
 O68 O 0.77671 -0.03216 0.53138
 O69 O 0.77673 -0.03215 0.46843
 O70 O 0.77718 0.03081 0.53131
 Cu71 Cu 0.71813 -0.00020 0.49988
 Cu72 Cu 0.78234 -0.00073 0.49988
 C73 C 0.75053 0.04166 0.54190
 C74 C 0.74994 -0.04254 0.45781
 C75 C 0.74991 -0.04256 0.54202
 C76 C 0.75056 0.04168 0.45779
 O77 O 0.46902 0.27735 0.03131
 O78 O 0.53195 0.27740 -0.03162
 O79 O 0.46902 0.27729 -0.03162
 O80 O 0.53195 0.27747 0.03131
 O81 O 0.53210 0.22400 0.03138
 O82 O 0.46917 0.22382 -0.03154
 O83 O 0.53209 0.22393 -0.03154
 O84 O 0.46917 0.22387 0.03138
 Cu85 Cu 0.50047 0.28277 -0.00016
 Cu86 Cu 0.50065 0.21851 -0.00007
 C87 C 0.45848 0.25060 0.04196
 C88 C 0.54263 0.25068 -0.04220
 C89 C 0.45848 0.25052 -0.04220
 C90 C 0.54265 0.25076 0.04196
 O91 O 0.53151 0.72227 0.03186
 O92 O 0.46865 0.72228 -0.03110
 O93 O 0.53157 0.72236 -0.03107
 O94 O 0.46857 0.72215 0.03183
 O95 O 0.46844 0.77562 0.03189
 O96 O 0.53145 0.77583 -0.03101
 O97 O 0.46852 0.77575 -0.03103
 O98 O 0.53137 0.77574 0.03192
 Cu99 Cu 0.50009 0.71687 0.00038
 Cu100 Cu 0.49993 0.78113 0.00045
 C101 C 0.54205 0.74900 0.04251
 C102 C 0.45798 0.74902 -0.04169
 C103 C 0.54214 0.74913 -0.04166
 C104 C 0.45786 0.74885 0.04247
 O105 O 0.03100 0.46966 0.27610
 O106 O -0.03195 0.53264 0.27588
 O107 O -0.03191 0.46967 0.27618
 O108 O 0.03100 0.53262 0.27580
 O109 O 0.03095 0.53240 0.22236
 O110 O -0.03196 0.46945 0.22274
 O111 O -0.03200 0.53242 0.22244
 O112 O 0.03095 0.46944 0.22266
 Cu113 Cu -0.00046 0.50118 0.28138
 Cu114 Cu -0.00052 0.50091 0.21716
 C115 C 0.04159 0.45892 0.24941
 C116 C -0.04260 0.54315 0.24912
 C117 C -0.04254 0.45892 0.24952
 C118 C 0.04162 0.54311 0.24902
 O119 O 0.03063 0.53231 0.72447
 O120 O -0.03225 0.46939 0.72391
 O121 O -0.03232 0.53236 0.72437
 O122 O 0.03065 0.46936 0.72401
 O123 O 0.03055 0.46895 0.77744
 O124 O -0.03242 0.53196 0.77780
 O125 O -0.03235 0.46898 0.77735
 O126 O 0.03053 0.53191 0.77790
 Cu127 Cu -0.00082 0.50091 0.71880
 Cu128 Cu -0.00094 0.50042 0.78302
 C129 C 0.04121 0.54271 0.75128
 C130 C -0.04290 0.45855 0.75054
 C131 C -0.04300 0.54279 0.75114
 C132 C 0.04123 0.45852 0.75066
 C133 C 0.35186 0.24855 0.10515
 C134 C 0.34858 0.22297 0.13232
 C135 C 0.34327 0.25035 0.15682
 C136 C 0.34616 0.27592 0.13005
 C137 C 0.38829 0.25048 0.11198
 C138 C 0.38298 0.27786 0.13648
 C139 C 0.38540 0.22490 0.13875
 C140 C 0.37970 0.25228 0.16365
 C141 C 0.31819 0.25027 0.18179
 C142 C 0.29755 0.25022 0.20232
 C143 C 0.41336 0.25053 0.08700
 C144 C 0.43396 0.25057 0.06644
 H145 H 0.34070 0.24701 0.08082
 H146 H 0.33416 0.20040 0.13089
 H147 H 0.32974 0.29690 0.12675
 H148 H 0.39740 0.30042 0.13792
 H149 H 0.40182 0.20392 0.14205
 H150 H 0.39086 0.25381 0.18798
 C151 C 0.60564 0.74512 0.14887
 C152 C 0.63411 0.72086 0.15092
 C153 C 0.65719 0.74919 0.15739
 C154 C 0.62912 0.77346 0.15573
 C155 C 0.61219 0.74908 0.11254
 C156 C 0.63528 0.77741 0.11901
 C157 C 0.64027 0.72481 0.11421
 C158 C 0.66374 0.75314 0.12106
 C159 C 0.68226 0.74926 0.18235
 C160 C 0.70289 0.74932 0.20288
 C161 C 0.58714 0.74903 0.08756
 C162 C 0.56655 0.74901 0.06700
 H163 H 0.58148 0.74182 0.16003
 H164 H 0.63391 0.69760 0.16432
 H165 H 0.62482 0.79346 0.17308
 H166 H 0.63548 0.80067 0.10561
 H167 H 0.64457 0.70481 0.09685
 H168 H 0.68791 0.75644 0.10991
 C169 C 0.60724 0.26132 -0.14748
 C170 C 0.63910 0.28090 -0.14610
 C171 C 0.65764 0.25071 -0.15727
 C172 C 0.62617 0.23113 -0.15904
 C173 C 0.61271 0.25072 -0.11232
 C174 C 0.63125 0.22053 -0.12349
 C175 C 0.64418 0.27030 -0.11055
 C176 C 0.66311 0.24011 -0.12211
 C177 C 0.68266 0.25070 -0.18229
 C178 C 0.70325 0.25070 -0.20287
 C179 C 0.58769 0.25070 -0.08730
 C180 C 0.56712 0.25069 -0.06670
 H181 H 0.58399 0.27004 -0.15763
 H182 H 0.64262 0.30573 -0.15567
 H183 H 0.61904 0.21502 -0.17926
 H184 H 0.62773 0.19570 -0.11392
 H185 H 0.65131 0.28641 -0.09033
 H186 H 0.68636 0.23139 -0.11196
 C187 C 0.36011 0.77370 -0.11362
 C188 C 0.36636 0.77739 -0.15035
 C189 C 0.34298 0.74928 -0.15670
 C190 C 0.33634 0.74559 -0.12036
 C191 C 0.38792 0.74913 -0.11179
 C192 C 0.36453 0.72102 -0.11814
 C193 C 0.39456 0.75282 -0.14813
 C194 C 0.37078 0.72471 -0.15487
 C195 C 0.31794 0.74937 -0.18169
 C196 C 0.29733 0.74944 -0.20225
 C197 C 0.41293 0.74907 -0.08678
 C198 C 0.43351 0.74903 -0.06619
 H199 H 0.35601 0.79384 -0.09639
 H200 H 0.36684 0.80057 -0.16388
 H201 H 0.31212 0.74262 -0.10922
 H202 H 0.36406 0.69784 -0.10461
 H203 H 0.41878 0.75579 -0.15927
 H204 H 0.37488 0.70457 -0.17211
 C205 C 0.13056 0.37778 0.21963
 C206 C 0.16215 0.37889 0.23966
 C207 C 0.15650 0.34361 0.24979
 C208 C 0.12529 0.34211 0.22976
 C209 C 0.11163 0.38866 0.24965
 C210 C 0.10597 0.35338 0.25978
 C211 C 0.14283 0.39016 0.26969
 C212 C 0.13757 0.35449 0.27982
 C213 C 0.18149 0.31852 0.24985
 C214 C 0.20205 0.29789 0.24987
 C215 C 0.08664 0.41375 0.24956
 C216 C 0.06608 0.43438 0.24949
 H217 H 0.12740 0.38764 0.19488
 H218 H 0.18553 0.38910 0.23139
 H219 H 0.11836 0.32206 0.21334
 H220 H 0.08259 0.34317 0.26806
 H221 H 0.14976 0.41020 0.28610
 H222 H 0.14073 0.34462 0.30457
 C223 C 0.14124 0.61221 0.77413
 C224 C 0.16290 0.62101 0.74489
 C225 C 0.15692 0.65701 0.75184
 C226 C 0.13566 0.64859 0.78109
 C227 C 0.11165 0.61243 0.75173
 C228 C 0.10567 0.64843 0.75868
 C229 C 0.13292 0.62085 0.72248
 C230 C 0.12733 0.65723 0.72944
 C231 C 0.18213 0.68183 0.75184
 C232 C 0.20286 0.70225 0.75179
 C233 C 0.08647 0.58759 0.75161
 C234 C 0.06578 0.56712 0.75148
 H235 H 0.14667 0.59342 0.79251
 H236 H 0.18671 0.61002 0.73922
 H237 H 0.13707 0.66028 0.80518
 H238 H 0.08186 0.65942 0.76435
 H239 H 0.13151 0.60917 0.69839
 H240 H 0.12190 0.67602 0.71106
 C241 C -0.11792 0.63793 0.22177
 C242 C -0.15475 0.63137 0.22311
 C243 C -0.15812 0.65786 0.24891
 C244 C -0.12168 0.66480 0.24757
 C245 C -0.11295 0.61310 0.24895
 C246 C -0.11632 0.63959 0.27474
 C247 C -0.14939 0.60616 0.25029
 C248 C -0.15314 0.63303 0.27608
 C249 C -0.18327 0.68278 0.24891
 C250 C -0.20397 0.70329 0.24895
 C251 C -0.08781 0.58816 0.24899
 C252 C -0.06716 0.56762 0.24904
 H253 H -0.10316 0.63966 0.19944
 H254 H -0.17084 0.62828 0.20189
 H255 H -0.11058 0.68920 0.24645
 H256 H -0.10023 0.64269 0.29597
 H257 H -0.16049 0.58176 0.25141
 H258 H -0.16791 0.63130 0.29841
 C259 C -0.11080 0.35660 0.76940
 C260 C -0.14640 0.36147 0.77992
 C261 C -0.15738 0.34303 0.74964
 C262 C -0.12217 0.33777 0.73912
 C263 C -0.11270 0.38819 0.74995
 C264 C -0.12368 0.36975 0.71968
 C265 C -0.14791 0.39345 0.76047
 C266 C -0.15929 0.37462 0.73019
 C267 C -0.18228 0.31790 0.74951
 C268 C -0.20278 0.29723 0.74946
 C269 C -0.08781 0.41333 0.75015
 C270 C -0.06731 0.43399 0.75032
 H271 H -0.09058 0.34947 0.78553
 H272 H -0.15602 0.35777 0.80468
 H273 H -0.11187 0.31459 0.73034
 H274 H -0.11406 0.37345 0.69491
 H275 H -0.15822 0.41662 0.76925
 H276 H -0.17951 0.38175 0.71407
 C277 C 0.22111 0.13406 0.38079
 C278 C 0.24495 0.16288 0.37916
 C279 C 0.24959 0.15646 0.34290
 C280 C 0.22575 0.12803 0.34414
 C281 C 0.24967 0.11134 0.38769
 C282 C 0.25431 0.10492 0.35143
 C283 C 0.27351 0.13976 0.38645
 C284 C 0.27815 0.13373 0.34980
 C285 C 0.24957 0.18158 0.31796
 C286 C 0.24959 0.20225 0.29744
 C287 C 0.24975 0.08623 0.41265
 C288 C 0.24984 0.06559 0.43320
 H289 H 0.19766 0.13391 0.39382
 H290 H 0.24110 0.18699 0.39029
 H291 H 0.20611 0.12349 0.32646
 H292 H 0.25816 0.08080 0.34031
 H293 H 0.29315 0.14430 0.40413
 H294 H 0.30160 0.13388 0.33678
 C295 C 0.75576 0.10562 0.64799
 C296 C 0.77963 0.13442 0.64944
 C297 C 0.75111 0.15716 0.65646
 C298 C 0.72725 0.12875 0.65540
 C299 C 0.75095 0.11202 0.61174
 C300 C 0.72244 0.13477 0.61877
 C301 C 0.77481 0.14043 0.61280
 C302 C 0.74630 0.16357 0.62022
 C303 C 0.75116 0.18229 0.68138
 C304 C 0.75115 0.20294 0.70189
 C305 C 0.75082 0.08689 0.58683
 C306 C 0.75070 0.06623 0.56633
 H307 H 0.75965 0.08150 0.65913
 H308 H 0.80314 0.13456 0.66232
 H309 H 0.70770 0.12423 0.67320
 H310 H 0.69892 0.13463 0.60588
 H311 H 0.79436 0.14495 0.59500
 H312 H 0.74241 0.18768 0.60908
 C313 C 0.24733 -0.10596 0.64873
 C314 C 0.22284 -0.13416 0.65129
 C315 C 0.25101 -0.15751 0.65768
 C316 C 0.27550 -0.12971 0.65551
 C317 C 0.25084 -0.11285 0.61243
 C318 C 0.27901 -0.13621 0.61881
 C319 C 0.22635 -0.14066 0.61460
 C320 C 0.25452 -0.16441 0.62137
 C321 C 0.25107 -0.18239 0.68287
 C322 C 0.25106 -0.20288 0.70357
 C323 C 0.25071 -0.08797 0.58724
 C324 C 0.25060 -0.06748 0.56654
 H325 H 0.24437 -0.08165 0.65970
 H326 H 0.19975 -0.13360 0.66493
 H327 H 0.29571 -0.12548 0.67262
 H328 H 0.30210 -0.13677 0.60517
 H329 H 0.20614 -0.14489 0.59749
 H330 H 0.25748 -0.18872 0.61041
 C331 C 0.73087 -0.11002 0.35559
 C332 C 0.76116 -0.12249 0.33745
 C333 C 0.74936 -0.15733 0.34253
 C334 C 0.71906 -0.14526 0.36027
 C335 C 0.74953 -0.11252 0.38758
 C336 C 0.73773 -0.14736 0.39265
 C337 C 0.77982 -0.12460 0.36983
 C338 C 0.76802 -0.15983 0.37451
 C339 C 0.74931 -0.18230 0.31745
 C340 C 0.74930 -0.20285 0.29683
 C341 C 0.74965 -0.08756 0.41266
 C342 C 0.74977 -0.06701 0.43328
 H343 H 0.71559 -0.08926 0.34809
 H344 H 0.77079 -0.11255 0.31447
 H345 H 0.69408 -0.15403 0.35606
 H346 H 0.72810 -0.15730 0.41563
 H347 H 0.80481 -0.11582 0.37404
 H348 H 0.78330 -0.18058 0.38201
 C349 C 0.60678 0.76001 -0.14696
 C350 C 0.63862 0.77964 -0.14557
 C351 C 0.65720 0.74949 -0.15679
 C352 C 0.62575 0.72987 -0.15858
 C353 C 0.61227 0.74937 -0.11182
 C354 C 0.63085 0.71922 -0.12304
 C355 C 0.64372 0.76899 -0.11003
 C356 C 0.66269 0.73885 -0.12165
 C357 C 0.68223 0.74955 -0.18184
 C358 C 0.70284 0.74957 -0.20243
 C359 C 0.58725 0.74928 -0.08676
 C360 C 0.56666 0.74921 -0.06616
 H361 H 0.58351 0.76871 -0.15710
 H362 H 0.64208 0.80448 -0.15510
 H363 H 0.61863 0.71377 -0.17881
 H364 H 0.62739 0.69437 -0.11351
 H365 H 0.65083 0.78508 -0.08980
 H366 H 0.68595 0.73015 -0.11151
 C367 C 0.36045 0.27481 -0.11415
 C368 C 0.36665 0.27841 -0.15089
 C369 C 0.34333 0.25022 -0.15714
 C370 C 0.33674 0.24662 -0.12078
 C371 C 0.38832 0.25034 -0.11227
 C372 C 0.36501 0.22214 -0.11851
 C373 C 0.39492 0.25394 -0.14862
 C374 C 0.37121 0.22574 -0.15526
 C375 C 0.31827 0.25015 -0.18213
 C376 C 0.29764 0.25010 -0.20267
 C377 C 0.41338 0.25039 -0.08727
 C378 C 0.43398 0.25045 -0.06669
 H379 H 0.35629 0.29500 -0.09697
 H380 H 0.36704 0.30156 -0.16448
 H381 H 0.31255 0.24361 -0.10961
 H382 H 0.36461 0.19900 -0.10492
 H383 H 0.41911 0.25695 -0.15980
 H384 H 0.37537 0.20556 -0.17244
 C385 C 0.35107 0.74677 0.10549
 C386 C 0.34770 0.72122 0.13267
 C387 C 0.34235 0.74863 0.15714
 C388 C 0.34533 0.77417 0.13035
 C389 C 0.38749 0.74867 0.11238
 C390 C 0.38214 0.77607 0.13686
 C391 C 0.38451 0.72312 0.13918
 C392 C 0.37877 0.75053 0.16404
 C393 C 0.31721 0.74864 0.18208
 C394 C 0.29654 0.74868 0.20260
 C395 C 0.41262 0.74872 0.08744
 C396 C 0.43329 0.74877 0.06692
 H397 H 0.33995 0.74522 0.08113
 H398 H 0.33326 0.69866 0.13122
 H399 H 0.32894 0.79516 0.12699
 H400 H 0.39657 0.79863 0.13831
 H401 H 0.40090 0.70213 0.14254
 H402 H 0.38989 0.75207 0.18840
 C403 C 0.60627 0.24698 0.14834
 C404 C 0.63473 0.22271 0.15040
 C405 C 0.65782 0.25103 0.15688
 C406 C 0.62975 0.27531 0.15521
 C407 C 0.61282 0.25094 0.11201
 C408 C 0.63592 0.27927 0.11850
 C409 C 0.64090 0.22667 0.11368
 C410 C 0.66438 0.25500 0.12055
 C411 C 0.68288 0.25107 0.18188
 C412 C 0.70348 0.25107 0.20244
 C413 C 0.58776 0.25088 0.08702
 C414 C 0.56716 0.25082 0.06646
 H415 H 0.58210 0.24368 0.15949
 H416 H 0.63452 0.19945 0.16379
 H417 H 0.62544 0.29531 0.17256
 H418 H 0.63613 0.30253 0.10510
 H419 H 0.64520 0.20667 0.09633
 H420 H 0.68855 0.25829 0.10940
 C421 C -0.11826 0.63772 0.72424
 C422 C -0.15510 0.63124 0.72561
 C423 C -0.15840 0.65772 0.75142
 C424 C -0.12195 0.66458 0.75006
 C425 C -0.11331 0.61286 0.75139
 C426 C -0.11661 0.63933 0.77721
 C427 C -0.14976 0.60599 0.75276
 C428 C -0.15345 0.63285 0.77857
 C429 C -0.18352 0.68270 0.75141
 C430 C -0.20418 0.70326 0.75137
 C431 C -0.08820 0.58786 0.75134
 C432 C -0.06755 0.56729 0.75127
 H433 H -0.10352 0.63945 0.70190
 H434 H -0.17120 0.62818 0.70439
 H435 H -0.11079 0.68896 0.74895
 H436 H -0.10050 0.64239 0.79843
 H437 H -0.16092 0.58162 0.75386
 H438 H -0.16820 0.63113 0.80091
 C439 C -0.11042 0.35706 0.26952
 C440 C -0.14597 0.36199 0.28020
 C441 C -0.15713 0.34339 0.25009
 C442 C -0.12197 0.33807 0.23941
 C443 C -0.11241 0.38855 0.24991
 C444 C -0.12358 0.36995 0.21979
 C445 C -0.14757 0.39387 0.26059
 C446 C -0.15912 0.37488 0.23048
 C447 C -0.18205 0.31825 0.25016
 C448 C -0.20256 0.29758 0.25018
 C449 C -0.08749 0.41369 0.24978
 C450 C -0.06698 0.43435 0.24967
 H451 H -0.09012 0.35000 0.28557
 H452 H -0.15545 0.35845 0.30504
 H453 H -0.11172 0.31484 0.23070
 H454 H -0.11410 0.37349 0.19495
 H455 H -0.15782 0.41710 0.26930
 H456 H -0.17942 0.38194 0.21442
 C457 C 0.13020 0.37757 0.72014
 C458 C 0.16187 0.37865 0.74005
 C459 C 0.15633 0.34331 0.75006
 C460 C 0.12504 0.34184 0.73015
 C461 C 0.11136 0.38830 0.75029
 C462 C 0.10582 0.35296 0.76029
 C463 C 0.14265 0.38977 0.77020
 C464 C 0.13749 0.35404 0.78020
 C465 C 0.18138 0.31826 0.74994
 C466 C 0.20201 0.29767 0.74987
 C467 C 0.08632 0.41336 0.75041
 C468 C 0.06574 0.43398 0.75052
 H469 H 0.12692 0.38752 0.69544
 H470 H 0.18520 0.38894 0.73173
 H471 H 0.11808 0.32185 0.71367
 H472 H 0.08249 0.34267 0.76862
 H473 H 0.14962 0.40975 0.78667
 H474 H 0.14077 0.34409 0.80490
 C475 C 0.14173 0.61274 0.27103
 C476 C 0.16332 0.62148 0.24172
 C477 C 0.15735 0.65750 0.24860
 C478 C 0.13615 0.64913 0.27791
 C479 C 0.11208 0.61289 0.24869
 C480 C 0.10611 0.64890 0.25558
 C481 C 0.13328 0.62125 0.21938
 C482 C 0.12771 0.65765 0.22627
 C483 C 0.18257 0.68234 0.24859
 C484 C 0.20330 0.70278 0.24864
 C485 C 0.08689 0.58802 0.24878
 C486 C 0.06620 0.56754 0.24888
 H487 H 0.14722 0.59400 0.28944
 H488 H 0.18712 0.61048 0.23602
 H489 H 0.13760 0.66087 0.30198
 H490 H 0.08231 0.65991 0.26128
 H491 H 0.13183 0.60951 0.19531
 H492 H 0.12222 0.67639 0.20786
 C493 C 0.74583 -0.10572 0.64871
 C494 C 0.72123 -0.13383 0.65111
 C495 C 0.74927 -0.15732 0.65755
 C496 C 0.77388 -0.12959 0.65554
 C497 C 0.74946 -0.11253 0.61240
 C498 C 0.77751 -0.13602 0.61884
 C499 C 0.72485 -0.14025 0.61440
 C500 C 0.75290 -0.16412 0.62124
 C501 C 0.74921 -0.18227 0.68269
 C502 C 0.74919 -0.20281 0.70336
 C503 C 0.74960 -0.08757 0.58726
 C504 C 0.74973 -0.06703 0.56659
 H505 H 0.74293 -0.08143 0.65973
 H506 H 0.69808 -0.13320 0.66465
 H507 H 0.79404 -0.12548 0.67274
 H508 H 0.80066 -0.13664 0.60530
 H509 H 0.70470 -0.14435 0.59721
 H510 H 0.75581 -0.18841 0.61021
 C511 C 0.23167 -0.11076 0.35550
 C512 C 0.26201 -0.12319 0.33740
 C513 C 0.25024 -0.15805 0.34245
 C514 C 0.21991 -0.14600 0.36017
 C515 C 0.25030 -0.11322 0.38751
 C516 C 0.23853 -0.14808 0.39257
 C517 C 0.28063 -0.12527 0.36980
 C518 C 0.26887 -0.16052 0.37447
 C519 C 0.25020 -0.18302 0.31735
 C520 C 0.25014 -0.20355 0.29669
 C521 C 0.25031 -0.08824 0.41260
 C522 C 0.25030 -0.06767 0.43322
 H523 H 0.21638 -0.09002 0.34798
 H524 H 0.27166 -0.11323 0.31443
 H525 H 0.19494 -0.15480 0.35593
 H526 H 0.22888 -0.15804 0.41553
 H527 H 0.30560 -0.11647 0.37404
 H528 H 0.28416 -0.18125 0.38199
 C529 C 0.72258 0.13495 0.38091
 C530 C 0.74652 0.16368 0.37940
 C531 C 0.75126 0.15731 0.34314
 C532 C 0.72732 0.12896 0.34426
 C533 C 0.75104 0.11211 0.38788
 C534 C 0.75578 0.10573 0.35161
 C535 C 0.77498 0.14046 0.38675
 C536 C 0.77972 0.13447 0.35011
 C537 C 0.75134 0.18248 0.31821
 C538 C 0.75134 0.20317 0.29770
 C539 C 0.75089 0.08694 0.41281
 C540 C 0.75075 0.06626 0.43333
 H541 H 0.69909 0.13486 0.39385
 H542 H 0.74272 0.18779 0.39055
 H543 H 0.70772 0.12450 0.32651
 H544 H 0.75958 0.08162 0.34046
 H545 H 0.79458 0.14491 0.40450
 H546 H 0.80321 0.13455 0.33717
 C547 C 0.25470 0.10500 0.64801
 C548 C 0.27848 0.13386 0.64958
 C549 C 0.24988 0.15652 0.65658
 C550 C 0.22611 0.12804 0.65539
 C551 C 0.24997 0.11145 0.61176
 C552 C 0.22137 0.13411 0.61876
 C553 C 0.27375 0.13993 0.61294
 C554 C 0.24515 0.16298 0.62032
 C555 C 0.24984 0.18162 0.68155
 C556 C 0.24982 0.20225 0.70210
 C557 C 0.25001 0.08634 0.58680
 C558 C 0.25006 0.06570 0.56626
 H559 H 0.25863 0.08088 0.65912
 H560 H 0.30196 0.13404 0.66253
 H561 H 0.20651 0.12343 0.67313
 H562 H 0.19789 0.13393 0.60581
 H563 H 0.29334 0.14454 0.59521
 H564 H 0.24122 0.18709 0.60921
   
