data_POSCAR
  _audit_creation_date              2014-09-24
  _audit_creation_method            'ToBaCCo'
  _symmetry_space_group_name_H-M    'P1'
  _symmetry_Int_Tables_number       1
  _symmetry_cell_setting            triclinic
  loop_
  _symmetry_equiv_pos_as_xyz
 x,y,z
_cell_length_a 25.6027
_cell_length_b 25.7599
_cell_length_c 25.8144
_cell_angle_alpha 89.290100
_cell_angle_beta 94.349700
_cell_angle_gamma 89.047700
loop_
  _atom_site_label
  _atom_site_type_symbol
  _atom_site_fract_x
  _atom_site_fract_y
  _atom_site_fract_z
Si1 Si -0.02068 0.49404 0.24640
 Si2 Si 0.02013 0.50218 0.75831
 Si3 Si 0.24923 0.00836 0.51883
 Si4 Si 0.75291 0.00053 0.48478
 Si5 Si 0.49648 0.25057 0.99678
 Si6 Si 0.50227 0.74362 0.99687
 B7 B 1.00356 1.04984 0.03782
 B8 B 0.99988 1.05442 -0.02906
 B9 B 1.05593 1.02875 0.00407
 B10 B 1.03662 0.99309 0.05639
 B11 B 0.96941 0.99592 0.05514
 B12 B 0.94664 1.03389 0.00197
 B13 B 0.99708 0.94609 -0.03478
 B14 B 1.00022 0.94145 0.03184
 B15 B 0.94426 0.96714 -0.00152
 B16 B 0.96344 1.00266 -0.05329
 B17 B 1.03057 1.00019 -0.05250
 B18 B 1.05371 0.96238 0.00106
 B19 B 0.55304 0.50569 0.46665
 B20 B 0.55543 0.49850 0.53325
 B21 B 0.53142 0.55693 0.50306
 B22 B 0.49660 0.53996 0.44578
 B23 B 0.49837 0.47309 0.44033
 B24 B 0.53424 0.44807 0.49453
 B25 B 0.44528 0.49838 0.52773
 B26 B 0.44351 0.50449 0.46119
 B27 B 0.46722 0.44719 0.49119
 B28 B 0.50132 0.46348 0.54874
 B29 B 0.50067 0.52992 0.55453
 B30 B 0.46415 0.55615 0.49960
 C31 C 0.92344 1.40733 0.20437
 C32 C 0.91996 1.35795 0.18272
 C33 C 0.96323 1.33538 0.16129
 C34 C 1.00879 1.36481 0.15779
 C35 C 1.01204 1.41446 0.17918
 C36 C 0.97068 1.43454 0.20580
 N37 N 0.96072 1.28237 0.14495
 N38 N 1.00110 1.25890 0.13054
 C39 C 1.00163 1.20607 0.11401
 C40 C 1.04614 1.18766 0.09256
 C41 C 1.04777 1.13802 0.07230
 C42 C 1.00553 1.10359 0.07287
 C43 C 0.96189 1.12203 0.09843
 C44 C 0.95951 1.17262 0.11815
 H45 H 0.88942 1.42337 0.22118
 H46 H 0.88407 1.33652 0.18425
 H47 H 1.04231 1.34899 0.13981
 H48 H 1.04773 1.43605 0.17694
 H49 H 1.07948 1.21267 0.08992
 H50 H 1.08288 1.12861 0.05589
 H51 H 0.92853 1.09856 0.10225
 H52 H 0.92466 1.18562 0.13580
 C53 C 0.92731 0.57234 0.18170
 C54 C 0.92364 0.62163 0.15802
 C55 C 0.96864 0.65115 0.15389
 C56 C 1.01765 0.63008 0.17225
 C57 C 1.02108 0.58161 0.19719
 C58 C 0.97573 0.55320 0.20373
 N59 N 0.96392 0.70294 0.13289
 N60 N 1.00279 0.72482 0.11448
 C61 C 1.00052 0.77722 0.09546
 C62 C 1.02935 0.79013 0.05395
 C63 C 1.02900 0.84090 0.03488
 C64 C 1.00130 0.88188 0.05748
 C65 C 0.97417 0.86786 0.10131
 C66 C 0.97283 0.81633 0.11936
 H67 H 0.89198 0.55049 0.18536
 H68 H 0.88569 0.63711 0.14348
 H69 H 1.05303 0.65198 0.16917
 H70 H 1.05914 0.56717 0.21250
 H71 H 1.05179 0.76044 0.03565
 H72 H 1.05207 0.84703 0.00251
 H73 H 0.95415 0.89603 0.12261
 H74 H 0.95143 0.80730 0.15284
 C75 C 1.07201 1.40669 -0.21184
 C76 C 1.07429 1.35665 -0.19025
 C77 C 1.03524 1.33997 -0.15925
 C78 C 0.99480 1.37480 -0.14818
 C79 C 0.99222 1.42467 -0.17024
 C80 C 1.02999 1.44051 -0.20342
 N81 N 1.03612 1.28708 -0.14143
 N82 N 1.00458 1.27128 -0.10917
 C83 C 1.00330 1.21833 -0.09216
 C84 C 0.97704 1.20669 -0.04856
 C85 C 0.97493 1.15573 -0.03055
 C86 C 0.99887 1.11368 -0.05519
 C87 C 1.02255 1.12646 -0.10147
 C88 C 1.02557 1.17786 -0.11921
 H89 H 1.10241 1.41793 -0.23628
 H90 H 1.10594 1.33039 -0.19864
 H91 H 0.96426 1.36293 -0.12401
 H92 H 0.95973 1.45006 -0.16264
 H93 H 0.95810 1.23738 -0.02816
 H94 H 0.95229 1.15020 0.00214
 H95 H 1.03808 1.09753 -0.12528
 H96 H 1.04452 1.18578 -0.15448
 C97 C 1.02021 0.56087 -0.14783
 C98 C 1.01458 0.60730 -0.12081
 C99 C 1.00824 0.65474 -0.14803
 C100 C 1.00636 0.65530 -0.20245
 C101 C 1.01046 0.60917 -0.22927
 C102 C 1.01804 0.56182 -0.20226
 N103 N 1.00317 0.70217 -0.12054
 N104 N 1.01765 0.74461 -0.14021
 C105 C 1.01072 0.79345 -0.11607
 C106 C 1.04765 0.83159 -0.12121
 C107 C 1.04221 0.87936 -0.09736
 C108 C 0.99839 0.89240 -0.06957
 C109 C 0.96040 0.85342 -0.06748
 C110 C 0.96663 0.80459 -0.08941
 H111 H 1.02534 0.52454 -0.12643
 H112 H 1.01579 0.60643 -0.07879
 H113 H 1.00069 0.69140 -0.22425
 H114 H 1.00779 0.61046 -0.27136
 H115 H 1.08177 0.82374 -0.14244
 H116 H 1.07326 0.90541 -0.10145
 H117 H 0.92575 0.85911 -0.04871
 H118 H 0.93667 0.77579 -0.08613
 C119 C 1.17088 0.96261 0.44993
 C120 C 1.14490 0.95454 0.40085
 C121 C 1.15443 0.98683 0.35854
 C122 C 1.18920 1.02809 0.36635
 C123 C 1.21514 1.03589 0.41491
 C124 C 1.20649 1.00324 0.45719
 N125 N 1.13015 0.97668 0.30773
 N126 N 1.13927 1.00571 0.26927
 C127 C 1.11723 0.99872 0.21726
 C128 C 1.12505 1.03706 0.18048
 C129 C 1.10223 1.03357 0.12996
 C130 C 1.07125 0.99125 0.11328
 C131 C 1.06592 0.95171 0.15102
 C132 C 1.08813 0.95531 0.20217
 H133 H 1.16463 0.93607 0.48163
 H134 H 1.11836 0.92244 0.39551
 H135 H 1.19762 1.05361 0.33452
 H136 H 1.24352 1.06639 0.41817
 H137 H 1.14798 1.07073 0.19137
 H138 H 1.10921 1.06512 0.10483
 H139 H 1.04372 0.91820 0.14252
 H140 H 1.08194 0.92456 0.22990
 C141 C 1.24791 1.03511 -0.37647
 C142 C 1.22683 1.03977 -0.32849
 C143 C 1.17429 1.02864 -0.32336
 C144 C 1.14218 1.01470 -0.36763
 C145 C 1.16320 1.01083 -0.41612
 C146 C 1.21645 1.02020 -0.42047
 N147 N 1.15563 1.02923 -0.27242
 N148 N 1.11102 1.01189 -0.26318
 C149 C 1.09311 1.01053 -0.21193
 C150 C 1.04688 0.98526 -0.20424
 C151 C 1.02935 0.98065 -0.15467
 C152 C 1.05593 1.00269 -0.11021
 C153 C 1.10385 1.02691 -0.11918
 C154 C 1.12207 1.03095 -0.16892
 H155 H 1.28927 1.04200 -0.37888
 H156 H 1.25197 1.05035 -0.29478
 H157 H 1.10130 1.00602 -0.36457
 H158 H 1.13838 0.99909 -0.44955
 H159 H 1.02491 0.96754 -0.23671
 H160 H 0.99582 0.95687 -0.15200
 H161 H 1.12941 1.04068 -0.08823
 H162 H 1.15915 1.04941 -0.17348
 C163 C 0.84871 1.01031 0.43505
 C164 C 0.87854 1.01177 0.39172
 C165 C 0.85436 1.00665 0.34156
 C166 C 0.79967 1.00127 0.33514
 C167 C 0.76994 1.00054 0.37820
 C168 C 0.79418 1.00468 0.42844
 N169 N 0.88549 1.00649 0.29763
 N170 N 0.86600 0.99157 0.25361
 C171 C 0.89354 0.99142 0.20744
 C172 C 0.86953 0.96902 0.16340
 C173 C 0.89295 0.97033 0.11652
 C174 C 0.94170 0.99411 0.11116
 C175 C 0.96503 1.01718 0.15670
 C176 C 0.94175 1.01551 0.20413
 H177 H 0.86837 1.01319 0.47344
 H178 H 0.92060 1.01596 0.39728
 H179 H 0.77985 0.99763 0.29684
 H180 H 0.72791 0.99606 0.37234
 H181 H 0.83152 0.95146 0.16504
 H182 H 0.86980 0.95579 0.08447
 H183 H 1.00044 1.03888 0.15614
 H184 H 0.96068 1.03432 0.23762
 C185 C 0.81925 1.04839 -0.43851
 C186 C 0.84346 1.05349 -0.38854
 C187 C 0.84159 1.01311 -0.35204
 C188 C 0.81720 0.96647 -0.36674
 C189 C 0.79327 0.96127 -0.41677
 C190 C 0.79325 1.00261 -0.45256
 N191 N 0.86325 1.02084 -0.30005
 N192 N 0.85819 0.98739 -0.26421
 C193 C 0.87960 0.99443 -0.21207
 C194 C 0.87616 0.95429 -0.17613
 C195 C 0.89986 0.95840 -0.12598
 C196 C 0.92729 1.00318 -0.10913
 C197 C 0.92854 1.04387 -0.14619
 C198 C 0.90516 1.03983 -0.19660
 H199 H 0.81928 1.08083 -0.46561
 H200 H 0.86230 1.08951 -0.37773
 H201 H 0.81570 0.93450 -0.33932
 H202 H 0.77361 0.92551 -0.42669
 H203 H 0.85644 0.91886 -0.18747
 H204 H 0.89729 0.92513 -0.10143
 H205 H 0.94871 1.07869 -0.13802
 H206 H 0.90828 1.07178 -0.22377
 C207 C 1.38749 1.25203 -0.00639
 C208 C 1.33762 1.23126 -0.00880
 C209 C 1.33134 1.17765 -0.01101
 C210 C 1.37563 1.14464 -0.01218
 C211 C 1.42581 1.16565 -0.01113
 C212 C 1.43174 1.21948 -0.00796
 N213 N 1.27957 1.15808 -0.01081
 N214 N 1.27072 1.11120 0.00094
 C215 C 1.21844 1.09286 0.00164
 C216 C 1.20990 1.04672 0.02769
 C217 C 1.15920 1.02893 0.03086
 C218 C 1.11483 1.05478 0.00569
 C219 C 1.12477 1.10283 -0.01863
 C220 C 1.17544 1.12154 -0.02073
 H221 H 1.39153 1.29372 -0.00353
 H222 H 1.30378 1.25690 -0.00771
 H223 H 1.37137 1.10296 -0.01404
 H224 H 1.45966 1.14006 -0.01208
 H225 H 1.24259 1.02514 0.04706
 H226 H 1.15569 0.99544 0.05517
 H227 H 1.09402 1.12800 -0.03394
 H228 H 1.18085 1.15855 -0.03975
 C229 C 0.56643 1.16832 0.03283
 C230 C 0.61459 1.14167 0.03562
 C231 C 0.65076 1.15136 -0.00115
 C232 C 0.63688 1.18557 -0.04286
 C233 C 0.58873 1.21213 -0.04569
 C234 C 0.55396 1.20536 -0.00668
 N235 N 0.70207 1.12830 0.00631
 N236 N 0.73768 1.13757 -0.02421
 C237 C 0.78943 1.11579 -0.01533
 C238 C 0.80578 1.08986 0.03103
 C239 C 0.85594 1.06767 0.03801
 C240 C 0.89182 1.06947 -0.00087
 C241 C 0.87463 1.09813 -0.04636
 C242 C 0.82469 1.12099 -0.05339
 H243 H 0.54013 1.16108 0.06269
 H244 H 0.62456 1.11483 0.06760
 H245 H 0.66383 1.19307 -0.07231
 H246 H 0.57991 1.23912 -0.07759
 H247 H 0.77973 1.08641 0.06199
 H248 H 0.86501 1.04947 0.07441
 H249 H 0.89898 1.10300 -0.07756
 H250 H 0.81310 1.14183 -0.08923
 C251 C 1.42466 0.81348 -0.04946
 C252 C 1.37624 0.83966 -0.05164
 C253 C 1.34759 0.84212 -0.00762
 C254 C 1.36961 0.82136 0.03975
 C255 C 1.41833 0.79582 0.04209
 C256 C 1.44515 0.78964 -0.00302
 N257 N 1.29568 0.86406 -0.01271
 N258 N 1.26396 0.86037 0.02282
 C259 C 1.21194 0.88216 0.01594
 C260 C 1.17794 0.87746 0.05542
 C261 C 1.12767 0.90016 0.04968
 C262 C 1.10918 0.92807 0.00404
 C263 C 1.14456 0.93122 -0.03512
 C264 C 1.19446 0.90866 -0.02975
 H265 H 1.44477 0.81015 -0.08460
 H266 H 1.35996 0.85618 -0.08826
 H267 H 1.34872 0.82386 0.07458
 H268 H 1.43396 0.77967 0.07898
 H269 H 1.19066 0.85693 0.09114
 H270 H 1.10398 0.89608 0.08185
 H271 H 1.13563 0.95211 -0.07008
 H272 H 1.21980 0.91309 -0.06118
 C273 C 0.60984 0.74263 -0.01595
 C274 C 0.65976 0.76328 -0.01549
 C275 C 0.66676 0.81658 -0.00996
 C276 C 0.62284 0.84953 -0.00572
 C277 C 0.57266 0.82864 -0.00527
 C278 C 0.56623 0.77495 -0.00955
 N279 N 0.71895 0.83573 -0.00754
 N280 N 0.72852 0.88369 -0.01244
 C281 C 0.78101 0.90215 -0.00934
 C282 C 0.79062 0.94997 -0.03154
 C283 C 0.84148 0.96827 -0.03096
 C284 C 0.88513 0.94099 -0.00595
 C285 C 0.87394 0.89212 0.01602
 C286 C 0.82307 0.87280 0.01404
 H287 H 0.60549 0.70103 -0.01938
 H288 H 0.69322 0.73763 -0.01897
 H289 H 0.62751 0.89097 -0.00140
 H290 H 0.53935 0.85405 -0.00038
 H291 H 0.75871 0.97255 -0.05105
 H292 H 0.84565 1.00317 -0.05291
 H293 H 0.90402 0.86710 0.03316
 H294 H 0.81668 0.83502 0.03104
 C295 C 0.91496 0.44935 0.31850
 C296 C 0.86887 0.44621 0.34392
 C297 C 0.83565 0.48965 0.34580
 C298 C 0.85043 0.53719 0.32453
 C299 C 0.89581 0.53993 0.29795
 C300 C 0.92673 0.49526 0.29234
 N301 N 0.78615 0.48425 0.36723
 N302 N 0.76061 0.52358 0.38144
 C303 C 0.71034 0.51838 0.40081
 C304 C 0.70059 0.54192 0.44710
 C305 C 0.65196 0.53720 0.46698
 C306 C 0.61002 0.51041 0.44063
 C307 C 0.62051 0.48934 0.39212
 C308 C 0.67022 0.49200 0.37312
 H309 H 0.93942 0.41489 0.31610
 H310 H 0.85836 0.40962 0.36106
 H311 H 0.82580 0.57158 0.32644
 H312 H 0.90564 0.57660 0.28075
 H313 H 0.73112 0.56321 0.46851
 H314 H 0.64749 0.55601 0.50350
 H315 H 0.59083 0.47178 0.36743
 H316 H 0.67691 0.47497 0.33600
 C317 C 0.05077 0.53974 0.31999
 C318 C 0.09961 0.54683 0.34678
 C319 C 0.14063 0.51125 0.34143
 C320 C 0.13120 0.46651 0.31172
 C321 C 0.08194 0.45879 0.28595
 C322 C 0.04204 0.49647 0.28814
 N323 N 0.19149 0.52139 0.36590
 N324 N 0.23257 0.50073 0.34962
 C325 C 0.28392 0.50841 0.37407
 C326 C 0.32696 0.48850 0.35068
 C327 C 0.37701 0.48986 0.37610
 C328 C 0.38590 0.50885 0.42712
 C329 C 0.34233 0.53398 0.44722
 C330 C 0.29209 0.53305 0.42185
 H331 H 0.02029 0.56904 0.32274
 H332 H 0.10610 0.58110 0.37011
 H333 H 0.16198 0.43770 0.30830
 H334 H 0.07582 0.42389 0.26384
 H335 H 0.32153 0.47020 0.31314
 H336 H 0.40673 0.47165 0.35624
 H337 H 0.34547 0.55221 0.48411
 H338 H 0.25954 0.55004 0.44051
 C339 C 0.91116 0.51554 0.75840
 C340 C 0.85915 0.51557 0.73850
 C341 C 0.84631 0.50081 0.68746
 C342 C 0.88664 0.48665 0.65582
 C343 C 0.93931 0.48741 0.67568
 C344 C 0.95180 0.50159 0.72736
 N345 N 0.79208 0.50102 0.66922
 N346 N 0.77577 0.48081 0.62648
 C347 C 0.72145 0.48190 0.60839
 C348 C 0.70614 0.45582 0.56338
 C349 C 0.65431 0.45855 0.54274
 C350 C 0.61504 0.48932 0.56473
 C351 C 0.63106 0.51066 0.61353
 C352 C 0.68320 0.50808 0.63457
 H353 H 0.91936 0.52673 0.79841
 H354 H 0.82856 0.52667 0.76317
 H355 H 0.87751 0.47540 0.61594
 H356 H 0.96981 0.47671 0.65092
 H357 H 0.73493 0.43452 0.54299
 H358 H 0.64818 0.44053 0.50581
 H359 H 0.60356 0.52370 0.63933
 H360 H 0.69325 0.52571 0.67177
 C361 C 0.11423 0.54713 0.72997
 C362 C 0.16071 0.54874 0.70540
 C363 C 0.17088 0.51292 0.66724
 C364 C 0.13257 0.47643 0.65197
 C365 C 0.08532 0.47516 0.67634
 C366 C 0.07615 0.51008 0.71621
 N367 N 0.22142 0.51359 0.64701
 N368 N 0.23662 0.48117 0.61431
 C369 C 0.28822 0.48372 0.59632
 C370 C 0.30105 0.45331 0.55490
 C371 C 0.34980 0.45798 0.53450
 C372 C 0.38864 0.49229 0.55498
 C373 C 0.37439 0.52194 0.59744
 C374 C 0.32558 0.51788 0.61787
 H375 H 0.10980 0.57357 0.76154
 H376 H 0.19001 0.57682 0.71765
 H377 H 0.13975 0.44816 0.62255
 H378 H 0.05744 0.44519 0.66610
 H379 H 0.27241 0.42736 0.53688
 H380 H 0.35460 0.43696 0.50015
 H381 H 0.39823 0.55269 0.61260
 H382 H 0.31658 0.54290 0.64951
 C383 C 0.55368 0.71050 0.09300
 C384 C 0.55572 0.68972 0.14304
 C385 C 0.51188 0.66631 0.16127
 C386 C 0.46655 0.66057 0.12775
 C387 C 0.46503 0.67999 0.07672
 C388 C 0.50809 0.70656 0.05956
 N389 N 0.51485 0.64959 0.21424
 N390 N 0.47481 0.64149 0.23925
 C391 C 0.48103 0.62398 0.29222
 C392 C 0.43716 0.61670 0.31996
 C393 C 0.44255 0.59446 0.36977
 C394 C 0.49192 0.57707 0.39308
 C395 C 0.53581 0.58892 0.36533
 C396 C 0.53063 0.61204 0.31621
 H397 H 0.58738 0.73129 0.08188
 H398 H 0.59088 0.69398 0.16863
 H399 H 0.43242 0.64186 0.14118
 H400 H 0.42933 0.67689 0.05171
 H401 H 0.39858 0.62757 0.30275
 H402 H 0.40750 0.59240 0.38986
 H403 H 0.57414 0.57555 0.37706
 H404 H 0.56556 0.61745 0.29574
 C405 C 0.47987 0.65002 0.94079
 C406 C 0.47787 0.61987 0.89578
 C407 C 0.49126 0.64144 0.84850
 C408 C 0.50513 0.69389 0.84642
 C409 C 0.50640 0.72391 0.89087
 C410 C 0.49415 0.70229 0.93841
 N411 N 0.49099 0.61012 0.80296
 N412 N 0.51378 0.62571 0.76362
 C413 C 0.51342 0.59832 0.71579
 C414 C 0.54473 0.61587 0.67783
 C415 C 0.54268 0.59245 0.62936
 C416 C 0.50621 0.55376 0.61465
 C417 C 0.48067 0.53222 0.65663
 C418 C 0.48274 0.55482 0.70576
 H419 H 0.47084 0.63238 0.97720
 H420 H 0.46702 0.57950 0.89794
 H421 H 0.51528 0.71171 0.81042
 H422 H 0.51842 0.76390 0.88819
 H423 H 0.57205 0.64684 0.68628
 H424 H 0.57406 0.60146 0.60564
 H425 H 0.45670 0.49882 0.65223
 H426 H 0.45980 0.53868 0.73542
 C427 C 0.48520 0.24270 0.10428
 C428 C 0.48536 0.25942 0.15546
 C429 C 0.49782 0.31049 0.16776
 C430 C 0.51064 0.34485 0.12771
 C431 C 0.51097 0.32783 0.07624
 C432 C 0.49860 0.27641 0.06428
 N433 N 0.49559 0.32692 0.22054
 N434 N 0.50032 0.37449 0.23197
 C435 C 0.49798 0.39493 0.28308
 C436 C 0.49902 0.44815 0.28739
 C437 C 0.49743 0.47138 0.33528
 C438 C 0.49656 0.44325 0.38269
 C439 C 0.49305 0.38845 0.37697
 C440 C 0.49416 0.36453 0.32809
 H441 H 0.47328 0.20341 0.09599
 H442 H 0.47470 0.23274 0.18549
 H443 H 0.52017 0.38481 0.13611
 H444 H 0.52050 0.35480 0.04608
 H445 H 0.50022 0.47230 0.25281
 H446 H 0.49446 0.51163 0.33206
 H447 H 0.49250 0.36295 0.41019
 H448 H 0.49291 0.32264 0.32574
 C449 C 0.53540 0.33308 0.93505
 C450 C 0.53964 0.35955 0.88764
 C451 C 0.50379 0.35073 0.84487
 C452 C 0.46237 0.31674 0.85085
 C453 C 0.45851 0.29004 0.89765
 C454 C 0.49534 0.29719 0.94008
 N455 N 0.51177 0.37360 0.79506
 N456 N 0.47940 0.36693 0.75576
 C457 C 0.48698 0.38712 0.70488
 C458 C 0.44591 0.38544 0.66629
 C459 C 0.45165 0.40587 0.61662
 C460 C 0.49887 0.42879 0.60322
 C461 C 0.54089 0.42596 0.64209
 C462 C 0.53507 0.40640 0.69208
 H463 H 0.56511 0.33827 0.96658
 H464 H 0.57199 0.38548 0.88364
 H465 H 0.43422 0.30890 0.81858
 H466 H 0.42806 0.26165 0.89908
 H467 H 0.40884 0.36901 0.67494
 H468 H 0.41842 0.40320 0.58905
 H469 H 0.57931 0.43655 0.63439
 H470 H 0.56845 0.40580 0.72048
 C471 C 0.73407 0.89825 0.44941
 C472 C 0.71037 0.84988 0.44892
 C473 C 0.66929 0.84004 0.48013
 C474 C 0.65120 0.87983 0.51138
 C475 C 0.67475 0.92864 0.51157
 C476 C 0.71652 0.93815 0.48067
 N477 N 0.64806 0.78893 0.47986
 N478 N 0.61299 0.77449 0.50911
 C479 C 0.59386 0.72240 0.50730
 C480 C 0.55571 0.70729 0.53964
 C481 C 0.53678 0.65659 0.53793
 C482 C 0.55693 0.61718 0.50611
 C483 C 0.59216 0.63603 0.47096
 C484 C 0.61140 0.68641 0.47228
 H485 H 0.76708 0.90364 0.42629
 H486 H 0.72487 0.81945 0.42493
 H487 H 0.61950 0.87304 0.53595
 H488 H 0.66098 0.95837 0.53662
 H489 H 0.53947 0.73515 0.56537
 H490 H 0.50403 0.64951 0.56069
 H491 H 0.60508 0.61382 0.44039
 H492 H 0.63926 0.69743 0.44476
 C493 C 0.68374 0.06999 0.53089
 C494 C 0.65952 0.11838 0.53694
 C495 C 0.66114 0.15700 0.49854
 C496 C 0.68555 0.14589 0.45285
 C497 C 0.70985 0.09760 0.44686
 C498 C 0.70978 0.05947 0.48614
 N499 N 0.63956 0.20755 0.50745
 N500 N 0.64104 0.24416 0.47406
 C501 C 0.61994 0.29502 0.48184
 C502 C 0.61442 0.32954 0.43995
 C503 C 0.59002 0.37781 0.44491
 C504 C 0.56849 0.39314 0.49117
 C505 C 0.58130 0.36031 0.53477
 C506 C 0.60484 0.31129 0.53007
 H507 H 0.68459 0.04197 0.56253
 H508 H 0.64099 0.12643 0.57239
 H509 H 0.68731 0.17503 0.42248
 H510 H 0.73040 0.09126 0.41241
 H511 H 0.62783 0.31852 0.40277
 H512 H 0.58689 0.40159 0.41105
 H513 H 0.57200 0.37079 0.57270
 H514 H 0.61109 0.28625 0.56404
 C515 C 0.27563 0.91123 0.56821
 C516 C 0.29531 0.86026 0.56971
 C517 C 0.32396 0.84178 0.52957
 C518 C 0.33406 0.87561 0.48834
 C519 C 0.31416 0.92658 0.48673
 C520 C 0.28437 0.94456 0.52638
 N521 N 0.34149 0.78856 0.53102
 N522 N 0.36944 0.77059 0.49649
 C523 C 0.38812 0.71791 0.49640
 C524 C 0.42687 0.70543 0.46403
 C525 C 0.44888 0.65572 0.46492
 C526 C 0.43245 0.61443 0.49688
 C527 C 0.39114 0.62842 0.52769
 C528 C 0.36972 0.67899 0.52815
 H529 H 0.25207 0.92363 0.59896
 H530 H 0.28730 0.83474 0.60169
 H531 H 0.35618 0.86233 0.45679
 H532 H 0.32061 0.95143 0.45376
 H533 H 0.44226 0.73525 0.43974
 H534 H 0.48268 0.65296 0.44322
 H535 H 0.37283 0.60135 0.55054
 H536 H 0.33850 0.68740 0.55299
 C537 C 0.34652 0.06159 0.51528
 C538 C 0.37650 0.10628 0.51059
 C539 C 0.35192 0.15511 0.50234
 C540 C 0.29708 0.15901 0.50044
 C541 C 0.26738 0.11480 0.50652
 C542 C 0.29173 0.06574 0.51288
 N543 N 0.38289 0.20065 0.49873
 N544 N 0.36405 0.24215 0.47675
 C545 C 0.39252 0.28956 0.47699
 C546 C 0.37576 0.32989 0.44294
 C547 C 0.39999 0.37819 0.44604
 C548 C 0.43985 0.38926 0.48511
 C549 C 0.45760 0.34647 0.51696
 C550 C 0.43461 0.29783 0.51327
 H551 H 0.36604 0.02417 0.52109
 H552 H 0.41882 0.10287 0.51295
 H553 H 0.27727 0.19638 0.49527
 H554 H 0.22512 0.11879 0.50541
 H555 H 0.34356 0.32407 0.41403
 H556 H 0.38583 0.40664 0.41835
 H557 H 0.48825 0.34969 0.54675
 H558 H 0.44863 0.26724 0.54022
   
