data_POSCAR
  _audit_creation_date              2014-09-24
  _audit_creation_method            'ToBaCCo'
  _symmetry_space_group_name_H-M    'P1'
  _symmetry_Int_Tables_number       1
  _symmetry_cell_setting            triclinic
  loop_
  _symmetry_equiv_pos_as_xyz
 x,y,z
_cell_length_a 60.7789
_cell_length_b 60.7885
_cell_length_c 31.7704
_cell_angle_alpha 89.956500
_cell_angle_beta 89.993500
_cell_angle_gamma 90.051100
loop_
  _atom_site_label
  _atom_site_type_symbol
  _atom_site_fract_x
  _atom_site_fract_y
  _atom_site_fract_z
O1 O 0.01952 0.27494 -0.10919
 O2 O -0.02264 0.28039 -0.02577
 O3 O 0.02054 0.28063 -0.02809
 O4 O -0.02391 0.27480 -0.10689
 O5 O -0.02334 0.23878 -0.09770
 O6 O 0.02053 0.24458 -0.01929
 O7 O -0.02215 0.24435 -0.01702
 O8 O 0.01942 0.23891 -0.09997
 Cu9 Cu -0.00165 0.28134 -0.06853
 Cu10 Cu -0.00136 0.23808 -0.05765
 C11 C 0.02685 0.25594 -0.11821
 C12 C -0.02969 0.26317 -0.00744
 C13 C 0.02817 0.26346 -0.01054
 C14 C -0.03139 0.25575 -0.11511
 O15 O 0.47914 0.78179 0.49396
 O16 O 0.52365 0.77849 0.41479
 O17 O 0.48022 0.77875 0.41236
 O18 O 0.52228 0.78150 0.49639
 O19 O 0.52171 0.74523 0.50093
 O20 O 0.48026 0.74249 0.41730
 O21 O 0.52300 0.74224 0.41974
 O22 O 0.47906 0.74552 0.49849
 Cu23 Cu 0.50136 0.78381 0.45374
 Cu24 Cu 0.50098 0.74027 0.45952
 C25 C 0.47146 0.76410 0.50944
 C26 C 0.53110 0.75974 0.40439
 C27 C 0.47286 0.76008 0.40111
 C28 C 0.52921 0.76371 0.51272
 O29 O 1.02287 0.72008 -0.00548
 O30 O 0.97838 0.72282 -0.08476
 O31 O 1.02183 0.72331 -0.08699
 O32 O 0.97973 0.71969 -0.00311
 O33 O 0.97974 0.75595 0.00161
 O34 O 1.02118 0.75953 -0.08192
 O35 O 0.97843 0.75906 -0.07961
 O36 O 1.02240 0.75632 -0.00082
 Cu37 Cu 1.00071 0.71780 -0.04574
 Cu38 Cu 1.00039 0.76131 -0.03976
 C39 C 1.03033 0.73785 0.01006
 C40 C 0.97064 0.74147 -0.09510
 C41 C 1.02896 0.74211 -0.09811
 C42 C 0.97252 0.73733 0.01332
 O43 O 0.52087 0.21843 0.47281
 O44 O 0.47900 0.22453 0.38907
 O45 O 0.52243 0.22430 0.39175
 O46 O 0.47772 0.21862 0.47007
 O47 O 0.47800 0.25465 0.47914
 O48 O 0.52217 0.26029 0.40126
 O49 O 0.47939 0.26053 0.39855
 O50 O 0.52065 0.25446 0.48191
 Cu51 Cu 0.50001 0.21783 0.42983
 Cu52 Cu 0.50007 0.26106 0.44107
 C53 C 0.52795 0.23554 0.49140
 C54 C 0.47183 0.24362 0.38016
 C55 C 0.53011 0.24330 0.38378
 C56 C 0.47018 0.23580 0.48767
 O57 O 0.71944 0.02057 0.02768
 O58 O 0.72606 -0.02169 0.11066
 O59 O 0.72569 0.02176 0.10866
 O60 O 0.71972 -0.02259 0.02977
 O61 O 0.75571 -0.02218 0.01999
 O62 O 0.76164 0.02164 0.09842
 O63 O 0.76200 -0.02114 0.10047
 O64 O 0.75542 0.02046 0.01787
 Cu65 Cu 0.71909 -0.00049 0.07037
 Cu66 Cu 0.76227 -0.00028 0.05827
 C67 C 0.73644 0.02775 0.00885
 C68 C 0.74521 -0.02890 0.11906
 C69 C 0.74472 0.02946 0.11635
 C70 C 0.73683 -0.03001 0.01171
 O71 O 0.22186 0.47755 0.58492
 O72 O 0.21884 0.52209 0.50573
 O73 O 0.21870 0.47894 0.50332
 O74 O 0.22206 0.52096 0.58727
 O75 O 0.25831 0.52058 0.58206
 O76 O 0.25496 0.47914 0.49854
 O77 O 0.25510 0.52181 0.50092
 O78 O 0.25811 0.47784 0.57974
 Cu79 Cu 0.21669 0.49988 0.54595
 Cu80 Cu 0.26022 0.49983 0.53987
 C81 C 0.24056 0.46993 0.59524
 C82 C 0.23657 0.52960 0.49014
 C83 C 0.23638 0.47182 0.48689
 C84 C 0.24083 0.52814 0.59837
 O85 O 0.27693 1.02436 0.08415
 O86 O 0.28058 0.97974 0.00532
 O87 O 0.28015 1.02288 0.00260
 O88 O 0.27732 0.98094 0.08692
 O89 O 0.24108 0.98085 0.08168
 O90 O 0.24391 1.02219 -0.00218
 O91 O 0.24432 0.97954 0.00050
 O92 O 0.24071 1.02357 0.07893
 Cu93 Cu 0.28242 1.00202 0.04540
 Cu94 Cu 0.23891 1.00149 0.03929
 C95 C 0.25813 1.03181 0.09435
 C96 C 0.26294 0.97199 -0.01025
 C97 C 0.26239 1.02979 -0.01389
 C98 C 0.25864 0.97355 0.09810
 O99 O 0.77548 0.51961 0.60964
 O100 O 0.78117 0.47763 0.52605
 O101 O 0.78139 0.52080 0.52862
 O102 O 0.77528 0.47619 0.60710
 O103 O 0.73929 0.47680 0.59756
 O104 O 0.74535 0.52082 0.51947
 O105 O 0.74514 0.47816 0.51693
 O106 O 0.73947 0.51956 0.60009
 Cu107 Cu 0.78197 0.49852 0.56894
 Cu108 Cu 0.73873 0.49886 0.55765
 C109 C 0.75646 0.52695 0.61850
 C110 C 0.76399 0.47068 0.50751
 C111 C 0.76427 0.52847 0.51096
 C112 C 0.75620 0.46871 0.61509
 C113 C 0.20324 0.22248 0.20229
 C114 C 0.22383 0.21588 0.21766
 C115 C 0.23909 0.23201 0.22967
 C116 C 0.23439 0.25457 0.22471
 C117 C 0.21383 0.26077 0.20792
 C118 C 0.19808 0.24482 0.19700
 C119 C 0.25110 0.27151 0.23649
 C120 C 0.24458 0.29190 0.25353
 C121 C 0.26030 0.30772 0.26526
 C122 C 0.28273 0.30284 0.26044
 C123 C 0.28965 0.28240 0.24483
 C124 C 0.27374 0.26708 0.23195
 H125 H 0.19147 0.21008 0.19269
 H126 H 0.25465 0.22687 0.24298
 H127 H 0.21017 0.27799 0.20275
 H128 H 0.22730 0.29531 0.25849
 H129 H 0.29494 0.31465 0.27074
 H130 H 0.27910 0.25163 0.21855
 C131 C 0.80384 0.78335 0.24066
 C132 C 0.78338 0.79028 0.25614
 C133 C 0.76805 0.77440 0.26907
 C134 C 0.77248 0.75175 0.26472
 C135 C 0.79289 0.74522 0.24777
 C136 C 0.80873 0.76091 0.23598
 C137 C 0.75554 0.73506 0.27657
 C138 C 0.76174 0.71452 0.29349
 C139 C 0.74578 0.69877 0.30445
 C140 C 0.72343 0.70393 0.29915
 C141 C 0.71684 0.72449 0.28365
 C142 C 0.73298 0.73974 0.27155
 H143 H 0.81567 0.79554 0.23029
 H144 H 0.75257 0.77978 0.28237
 H145 H 0.79631 0.72793 0.24292
 H146 H 0.77895 0.71087 0.29868
 H147 H 0.71103 0.69216 0.30878
 H148 H 0.72786 0.75527 0.25810
 C149 C 0.80267 0.22185 0.22131
 C150 C 0.80754 0.24424 0.21560
 C151 C 0.79174 0.26004 0.22691
 C152 C 0.77136 0.25363 0.24427
 C153 C 0.76691 0.23103 0.24955
 C154 C 0.78225 0.21504 0.23730
 C155 C 0.75451 0.27038 0.25594
 C156 C 0.73193 0.26580 0.25080
 C157 C 0.71586 0.28105 0.26309
 C158 C 0.72257 0.30150 0.27901
 C159 C 0.74494 0.30650 0.28459
 C160 C 0.76082 0.29079 0.27321
 H161 H 0.81448 0.20958 0.21142
 H162 H 0.79516 0.27729 0.22149
 H163 H 0.75145 0.22579 0.26317
 H164 H 0.72677 0.25030 0.23725
 H165 H 0.71023 0.31324 0.28893
 H166 H 0.77806 0.29431 0.27852
 C167 C 0.20360 0.78466 0.22144
 C168 C 0.19855 0.76225 0.21687
 C169 C 0.21439 0.74649 0.22823
 C170 C 0.23493 0.75294 0.24484
 C171 C 0.23950 0.77558 0.24915
 C172 C 0.22417 0.79151 0.23654
 C173 C 0.25176 0.73616 0.25680
 C174 C 0.27439 0.74081 0.25247
 C175 C 0.29037 0.72553 0.26502
 C176 C 0.28359 0.70494 0.28016
 C177 C 0.26119 0.69981 0.28474
 C178 C 0.24538 0.71560 0.27341
 H179 H 0.19177 0.79690 0.21142
 H180 H 0.21083 0.72923 0.22342
 H181 H 0.25502 0.78093 0.26229
 H182 H 0.27969 0.75636 0.23930
 H183 H 0.29587 0.69315 0.29014
 H184 H 0.22813 0.71198 0.27820
 C185 C 0.69672 0.27650 0.72063
 C186 C 0.69172 0.25411 0.71531
 C187 C 0.70744 0.23827 0.72692
 C188 C 0.72783 0.24464 0.74422
 C189 C 0.73237 0.26723 0.74919
 C190 C 0.71715 0.28326 0.73658
 C191 C 0.74462 0.22786 0.75607
 C192 C 0.76721 0.23239 0.75089
 C193 C 0.78325 0.21717 0.76345
 C194 C 0.77651 0.19676 0.77958
 C195 C 0.75413 0.19179 0.78511
 C196 C 0.73828 0.20749 0.77355
 H197 H 0.68498 0.28880 0.71048
 H198 H 0.70393 0.22102 0.72177
 H199 H 0.74784 0.27244 0.76280
 H200 H 0.77241 0.24784 0.73714
 H201 H 0.78883 0.18504 0.78969
 H202 H 0.72103 0.20400 0.77885
 C203 C 0.29671 0.71726 0.72038
 C204 C 0.30179 0.73968 0.71597
 C205 C 0.28596 0.75541 0.72741
 C206 C 0.26542 0.74895 0.74401
 C207 C 0.26083 0.72631 0.74817
 C208 C 0.27613 0.71039 0.73545
 C209 C 0.24862 0.76573 0.75611
 C210 C 0.22598 0.76112 0.75192
 C211 C 0.21004 0.77643 0.76450
 C212 C 0.21687 0.79702 0.77949
 C213 C 0.23929 0.80210 0.78397
 C214 C 0.25505 0.78627 0.77267
 H215 H 0.30854 0.70503 0.71030
 H216 H 0.28954 0.77268 0.72269
 H217 H 0.24530 0.72094 0.76131
 H218 H 0.22062 0.74558 0.73883
 H219 H 0.20463 0.80884 0.78947
 H220 H 0.27231 0.78987 0.77742
 C221 C 0.29518 0.27749 0.70057
 C222 C 0.27468 0.28414 0.71627
 C223 C 0.25939 0.26805 0.72839
 C224 C 0.26398 0.24548 0.72326
 C225 C 0.28445 0.23922 0.70616
 C226 C 0.30023 0.25513 0.69510
 C227 C 0.24725 0.22858 0.73521
 C228 C 0.25376 0.20817 0.75218
 C229 C 0.23804 0.19238 0.76412
 C230 C 0.21560 0.19734 0.75955
 C231 C 0.20870 0.21781 0.74403
 C232 C 0.22461 0.23309 0.73096
 H233 H 0.30697 0.28986 0.69090
 H234 H 0.24390 0.27321 0.74196
 H235 H 0.28802 0.22200 0.70088
 H236 H 0.27105 0.20470 0.75693
 H237 H 0.20340 0.18556 0.77003
 H238 H 0.21926 0.24857 0.71765
 C239 C 0.69806 0.71584 0.73942
 C240 C 0.71849 0.70892 0.75512
 C241 C 0.73378 0.72481 0.76818
 C242 C 0.72932 0.74746 0.76380
 C243 C 0.70894 0.75398 0.74669
 C244 C 0.69315 0.73828 0.73472
 C245 C 0.74620 0.76417 0.77580
 C246 C 0.73991 0.78467 0.79270
 C247 C 0.75579 0.80047 0.80369
 C248 C 0.77816 0.79543 0.79838
 C249 C 0.78485 0.77489 0.78292
 C250 C 0.76878 0.75957 0.77086
 H251 H 0.68628 0.70365 0.72897
 H252 H 0.74923 0.71945 0.78161
 H253 H 0.70551 0.77126 0.74185
 H254 H 0.72268 0.78825 0.79786
 H255 H 0.79050 0.80724 0.80802
 H256 H 0.77398 0.74406 0.75748
 N257 N 0.23425 0.07637 0.15325
 C258 C 0.25235 0.08733 0.16659
 N259 N 0.27255 0.07913 0.15746
 N260 N 0.27453 0.06059 0.13531
 C261 C 0.25636 0.04979 0.12123
 N262 N 0.23621 0.05793 0.13106
 C263 C 0.24986 0.10871 0.18505
 C264 C 0.24641 0.12710 0.19758
 C265 C 0.24078 0.14924 0.20879
 N266 N 0.21943 0.15556 0.20774
 N267 N 0.21403 0.17663 0.21229
 C268 C 0.22977 0.19223 0.21796
 N269 N 0.25118 0.18576 0.21973
 N270 N 0.25660 0.16464 0.21506
 N271 N 0.73076 0.57016 0.68229
 C272 C 0.74844 0.58150 0.69657
 N273 N 0.76893 0.57420 0.68701
 N274 N 0.77161 0.55620 0.66358
 C275 C 0.75387 0.54500 0.64876
 N276 N 0.73342 0.55223 0.65884
 C277 C 0.74522 0.60246 0.71638
 C278 C 0.74136 0.62054 0.73004
 C279 C 0.73551 0.64244 0.74257
 N280 N 0.75121 0.65768 0.75099
 N281 N 0.74573 0.67869 0.75688
 C282 C 0.72437 0.68524 0.75425
 N283 N 0.70873 0.66980 0.74645
 N284 N 0.71419 0.64882 0.74067
 N285 N 0.77122 0.92805 0.17892
 C286 C 0.75366 0.91753 0.19579
 N287 N 0.73318 0.92558 0.18868
 N288 N 0.73038 0.94352 0.16505
 C289 C 0.74798 0.95387 0.14745
 N290 N 0.76845 0.94590 0.15526
 C291 C 0.75681 0.89666 0.21606
 C292 C 0.76061 0.87862 0.23007
 C293 C 0.76642 0.85676 0.24297
 N294 N 0.75068 0.84153 0.25123
 N295 N 0.75614 0.82052 0.25735
 C296 C 0.77751 0.81397 0.25511
 N297 N 0.79319 0.82941 0.24747
 N298 N 0.78775 0.85038 0.24146
 N299 N 0.22601 0.42067 0.65682
 C300 C 0.24617 0.41314 0.66816
 N301 N 0.26424 0.42492 0.65740
 N302 N 0.26230 0.44352 0.63561
 C303 C 0.24220 0.45100 0.62376
 N304 N 0.22404 0.43935 0.63508
 C305 C 0.24883 0.39161 0.68595
 C306 C 0.25235 0.37313 0.69795
 C307 C 0.25798 0.35090 0.70857
 N308 N 0.27928 0.34447 0.70667
 N309 N 0.28462 0.32336 0.71081
 C310 C 0.26885 0.30782 0.71690
 N311 N 0.24750 0.31440 0.71951
 N312 N 0.24215 0.33556 0.71526
 N313 N 0.92765 0.28508 0.06006
 C314 C 0.92006 0.26643 0.07859
 N315 N 0.92964 0.24695 0.06907
 N316 N 0.94619 0.24605 0.04172
 C317 C 0.95378 0.26460 0.02279
 N318 N 0.94428 0.28418 0.03266
 C319 C 0.90131 0.26671 0.10605
 C320 C 0.88534 0.26508 0.12838
 C321 C 0.86628 0.26086 0.15383
 N322 N 0.85015 0.27610 0.15838
 N323 N 0.83168 0.27111 0.17904
 C324 C 0.82866 0.25067 0.19559
 N325 N 0.84502 0.23563 0.19123
 N326 N 0.86344 0.24061 0.17073
 N327 N 0.42539 0.78403 0.57467
 C328 C 0.41775 0.76494 0.59137
 N329 N 0.42812 0.74585 0.58199
 N330 N 0.44551 0.74575 0.55655
 C331 C 0.45316 0.76476 0.53956
 N332 N 0.44285 0.78394 0.54919
 C333 C 0.39816 0.76436 0.61656
 C334 C 0.38155 0.76208 0.63684
 C335 C 0.36180 0.75720 0.65976
 N336 N 0.35818 0.73638 0.67320
 N337 N 0.33929 0.73103 0.69174
 C338 C 0.32324 0.74627 0.69751
 N339 N 0.32703 0.76725 0.68434
 N340 N 0.34596 0.77261 0.66567
 N341 N 0.07499 0.71811 0.07522
 C342 C 0.08302 0.73730 0.09071
 N343 N 0.07310 0.75644 0.08002
 N344 N 0.05578 0.75649 0.05443
 C345 C 0.04773 0.73739 0.03854
 N346 N 0.05758 0.71815 0.04960
 C347 C 0.10249 0.73786 0.11623
 C348 C 0.11902 0.74009 0.13679
 C349 C 0.13868 0.74487 0.16003
 N350 N 0.14220 0.76561 0.17398
 N351 N 0.16103 0.77090 0.19275
 C352 C 0.17713 0.75568 0.19826
 N353 N 0.17345 0.73479 0.18460
 N354 N 0.15457 0.72948 0.16569
 N355 N 0.56867 0.25121 0.57129
 C356 C 0.57892 0.23187 0.57927
 N357 N 0.57202 0.21342 0.55916
 N358 N 0.55539 0.21438 0.53176
 C359 C 0.54522 0.23382 0.52353
 N360 N 0.55213 0.25217 0.54392
 C361 C 0.59774 0.23163 0.60656
 C362 C 0.61375 0.23329 0.62872
 C363 C 0.63287 0.23754 0.65398
 N364 N 0.64889 0.22222 0.65889
 N365 N 0.66740 0.22720 0.67940
 C366 C 0.67057 0.24772 0.69543
 N367 N 0.65432 0.26285 0.69070
 N368 N 0.63585 0.25787 0.67036
 N369 N 0.75169 0.06876 0.92911
 C370 C 0.73229 0.07898 0.92153
 N371 N 0.71394 0.07198 0.94189
 N372 N 0.71504 0.05529 0.96914
 C373 C 0.73454 0.04514 0.97695
 N374 N 0.75280 0.05215 0.95632
 C375 C 0.73190 0.09784 0.89433
 C376 C 0.73348 0.11387 0.87217
 C377 C 0.73767 0.13298 0.84684
 N378 N 0.72234 0.14901 0.84204
 N379 N 0.72729 0.16751 0.82141
 C380 C 0.74777 0.17066 0.80515
 N381 N 0.76290 0.15440 0.80977
 N382 N 0.75796 0.13595 0.83023
 N383 N 0.21693 0.57603 0.42546
 C384 C 0.23605 0.58355 0.40873
 N385 N 0.25507 0.57299 0.41787
 N386 N 0.25506 0.55551 0.44312
 C387 C 0.23602 0.54797 0.46014
 N388 N 0.21691 0.55848 0.45075
 C389 C 0.23674 0.60322 0.38376
 C390 C 0.23905 0.61989 0.36366
 C391 C 0.24390 0.63971 0.34091
 N392 N 0.22840 0.65544 0.33478
 N393 N 0.23370 0.67441 0.31615
 C394 C 0.25469 0.67833 0.30325
 N395 N 0.27002 0.66239 0.30925
 N396 N 0.26474 0.64347 0.32775
 N397 N 0.24499 0.92849 0.91738
 C398 C 0.26414 0.91817 0.90820
 N399 N 0.28317 0.92589 0.92497
 N400 N 0.28298 0.94339 0.95032
 C401 C 0.26373 0.95365 0.95976
 N402 N 0.24479 0.94591 0.94270
 C403 C 0.26367 0.89856 0.88311
 C404 C 0.26147 0.88193 0.86289
 C405 C 0.25667 0.86216 0.84000
 N406 N 0.27209 0.84629 0.83441
 N407 N 0.26677 0.82735 0.81578
 C408 C 0.24584 0.82357 0.80236
 N409 N 0.23060 0.83965 0.80782
 N410 N 0.23590 0.85855 0.82630
 N411 N 0.74797 0.42983 0.42812
 C412 C 0.76725 0.41948 0.42015
 N413 N 0.78577 0.42634 0.44008
 N414 N 0.78494 0.44303 0.46731
 C415 C 0.76556 0.45332 0.47553
 N416 N 0.74713 0.44645 0.45531
 C417 C 0.76737 0.40060 0.39303
 C418 C 0.76566 0.38454 0.37100
 C419 C 0.76140 0.36539 0.34589
 N420 N 0.77678 0.34944 0.34084
 N421 N 0.77182 0.33092 0.32038
 C422 C 0.75128 0.32766 0.30450
 N423 N 0.73608 0.34384 0.30937
 N424 N 0.74104 0.36231 0.32968
 N425 N 0.07002 0.23032 0.81772
 C426 C 0.08142 0.24801 0.80362
 N427 N 0.07419 0.26850 0.81341
 N428 N 0.05618 0.27116 0.83689
 C429 C 0.04492 0.25340 0.85153
 N430 N 0.05209 0.23297 0.84123
 C431 C 0.10235 0.24478 0.78369
 C432 C 0.12042 0.24090 0.76990
 C433 C 0.14228 0.23499 0.75719
 N434 N 0.14861 0.21366 0.75902
 N435 N 0.16956 0.20814 0.75305
 C436 C 0.18503 0.22375 0.74512
 N437 N 0.17853 0.24512 0.74257
 N438 N 0.15754 0.25066 0.74865
 N439 N 0.58058 0.77394 0.34319
 C440 C 0.58795 0.75374 0.33182
 N441 N 0.57599 0.73576 0.34242
 N442 N 0.55737 0.73784 0.36407
 C443 C 0.55004 0.75798 0.37596
 N444 N 0.56188 0.77604 0.36481
 C445 C 0.60949 0.75092 0.31418
 C446 C 0.62795 0.74727 0.30226
 C447 C 0.65016 0.74152 0.29170
 N448 N 0.65649 0.72019 0.29379
 N449 N 0.67758 0.71475 0.28957
 C450 C 0.69317 0.73043 0.28320
 N451 N 0.68669 0.75180 0.28043
 N452 N 0.66556 0.75726 0.28476
 N453 N 0.92552 0.76488 0.84268
 C454 C 0.91385 0.74674 0.83193
 N455 N 0.92149 0.72663 0.84331
 N456 N 0.94017 0.72477 0.86507
 C457 C 0.95172 0.74299 0.87637
 N458 N 0.94412 0.76304 0.86447
 C459 C 0.89232 0.74928 0.81408
 C460 C 0.87385 0.75273 0.80197
 C461 C 0.85163 0.75829 0.79119
 N462 N 0.83631 0.74242 0.78466
 N463 N 0.81514 0.74774 0.78023
 C464 C 0.80855 0.76909 0.78249
 N465 N 0.82406 0.78489 0.78842
 N466 N 0.84518 0.77959 0.79273
 N467 N 0.42872 0.26971 0.31661
 C468 C 0.41720 0.25213 0.30242
 N469 N 0.42435 0.23157 0.31191
 N470 N 0.44239 0.22873 0.33521
 C471 C 0.45377 0.24637 0.34995
 N472 N 0.44669 0.26688 0.33993
 C473 C 0.39621 0.25552 0.28281
 C474 C 0.37810 0.25947 0.26932
 C475 C 0.35617 0.26538 0.25699
 N476 N 0.34093 0.24970 0.24838
 N477 N 0.31991 0.25520 0.24264
 C478 C 0.31334 0.27653 0.24559
 N479 N 0.32878 0.29215 0.25359
 N480 N 0.34978 0.28668 0.25923
 N481 N 0.71489 0.92365 0.94957
 C482 C 0.73333 0.91631 0.93004
 N483 N 0.75261 0.92698 0.93652
 N484 N 0.75352 0.94436 0.96188
 C485 C 0.73517 0.95172 0.98169
 N486 N 0.71579 0.94111 0.97496
 C487 C 0.73315 0.89670 0.90490
 C488 C 0.73489 0.88010 0.88445
 C489 C 0.73925 0.86038 0.86108
 N490 N 0.75972 0.85694 0.84567
 N491 N 0.76471 0.83810 0.82674
 C492 C 0.74947 0.82190 0.82249
 N493 N 0.72883 0.82550 0.83759
 N494 N 0.72382 0.84440 0.85668
 N495 N 0.21636 0.42772 0.41692
 C496 C 0.23543 0.42064 0.39931
 N497 N 0.25453 0.43077 0.40966
 N498 N 0.25466 0.44737 0.43692
 C499 C 0.23568 0.45446 0.45482
 N500 N 0.21648 0.44440 0.44421
 C501 C 0.23596 0.40179 0.37216
 C502 C 0.23815 0.38575 0.35026
 C503 C 0.24286 0.36660 0.32549
 N504 N 0.26348 0.36356 0.31053
 N505 N 0.26877 0.34508 0.29057
 C506 C 0.25367 0.32886 0.28485
 N507 N 0.23288 0.33208 0.29949
 N508 N 0.22758 0.35061 0.31959
 N509 N 0.28217 0.07234 0.91589
 C510 C 0.26299 0.07980 0.89935
 N511 N 0.24384 0.07018 0.91107
 N512 N 0.24378 0.05370 0.93865
 C513 C 0.26288 0.04623 0.95559
 N514 N 0.28212 0.05578 0.94350
 C515 C 0.26243 0.09851 0.87180
 C516 C 0.26022 0.11446 0.84964
 C517 C 0.25550 0.13355 0.82464
 N518 N 0.23483 0.13664 0.80997
 N519 N 0.22952 0.15510 0.78989
 C520 C 0.24467 0.17124 0.78376
 N521 N 0.26550 0.16796 0.79810
 N522 N 0.27082 0.14946 0.81832
 N523 N 0.74855 0.57193 0.43655
 C524 C 0.76788 0.58246 0.42987
 N525 N 0.78636 0.57488 0.44899
 N526 N 0.78542 0.55732 0.47418
 C527 C 0.76597 0.54685 0.48112
 N528 N 0.74760 0.55445 0.46171
 C529 C 0.76811 0.60216 0.40495
 C530 C 0.76641 0.61885 0.38469
 C531 C 0.76208 0.63867 0.36154
 N532 N 0.77763 0.65452 0.35687
 N533 N 0.77269 0.67349 0.33790
 C534 C 0.75200 0.67729 0.32320
 N535 N 0.73664 0.66122 0.32773
 N536 N 0.74157 0.64230 0.34655
 N537 N 0.07458 0.72772 0.83433
 C538 C 0.08253 0.74793 0.82431
 N539 N 0.07188 0.76602 0.83852
 N540 N 0.05401 0.76404 0.86242
 C541 C 0.04616 0.74388 0.87316
 N542 N 0.05662 0.72572 0.85820
 C543 C 0.10348 0.75045 0.80406
 C544 C 0.12159 0.75391 0.79006
 C545 C 0.14351 0.75951 0.77721
 N546 N 0.14987 0.78087 0.77753
 N547 N 0.17088 0.78626 0.77168
 C548 C 0.18636 0.77050 0.76539
 N549 N 0.17984 0.74909 0.76432
 N550 N 0.15880 0.74368 0.77029
 N551 N 0.57541 0.26894 0.32516
 C552 C 0.58704 0.25124 0.31196
 N553 N 0.57934 0.23076 0.32054
 N554 N 0.56064 0.22812 0.34197
 C555 C 0.54913 0.24587 0.35571
 N556 N 0.55679 0.26631 0.34662
 C557 C 0.60852 0.25442 0.29420
 C558 C 0.62694 0.25824 0.28217
 C559 C 0.64913 0.26407 0.27145
 N560 N 0.66447 0.24836 0.26394
 N561 N 0.68560 0.25382 0.25948
 C562 C 0.69216 0.27516 0.26268
 N563 N 0.67663 0.29081 0.26958
 N564 N 0.65554 0.28537 0.27394
 N565 N 0.91938 0.26800 0.82147
 C566 C 0.91193 0.24747 0.81257
 N567 N 0.92374 0.22985 0.82559
 N568 N 0.94229 0.23260 0.84720
 C569 C 0.94970 0.25309 0.85661
 N570 N 0.93801 0.27077 0.84304
 C571 C 0.89049 0.24414 0.79473
 C572 C 0.87210 0.24020 0.78267
 C573 C 0.84995 0.23426 0.77194
 N574 N 0.84355 0.21298 0.77510
 N575 N 0.82247 0.20748 0.77071
 C576 C 0.80695 0.22306 0.76310
 N577 N 0.81352 0.24437 0.75925
 N578 N 0.83463 0.24989 0.76374
 N579 N 0.42529 0.77471 0.33501
 C580 C 0.41810 0.75457 0.32272
 N581 N 0.42964 0.73650 0.33433
 N582 N 0.44766 0.73843 0.35785
 C583 C 0.45477 0.75851 0.37066
 N584 N 0.44338 0.77666 0.35850
 C585 C 0.39703 0.75188 0.30305
 C586 C 0.37886 0.74831 0.28947
 C587 C 0.35690 0.74260 0.27702
 N588 N 0.35057 0.72124 0.27782
 N589 N 0.32956 0.71580 0.27221
 C590 C 0.31404 0.73150 0.26570
 N591 N 0.32053 0.75291 0.26416
 N592 N 0.34158 0.75838 0.26988
 N593 N 0.27323 0.92624 0.16496
 C594 C 0.25307 0.91906 0.17722
 N595 N 0.23500 0.93050 0.16530
 N596 N 0.23695 0.94843 0.14152
 C597 C 0.25704 0.95555 0.12874
 N598 N 0.27519 0.94425 0.14121
 C599 C 0.25038 0.89806 0.19722
 C600 C 0.24682 0.87994 0.21107
 C601 C 0.24114 0.85802 0.22383
 N602 N 0.21978 0.85165 0.22307
 N603 N 0.21437 0.83065 0.22893
 C604 C 0.23010 0.81518 0.23566
 N605 N 0.25150 0.82172 0.23717
 N606 N 0.25693 0.84275 0.23120
 N607 N 0.73008 0.42373 0.67385
 C608 C 0.74765 0.41190 0.68703
 N609 N 0.76822 0.41936 0.67841
 N610 N 0.77107 0.43803 0.65695
 C611 C 0.75343 0.44974 0.64323
 N612 N 0.73291 0.44232 0.65236
 C613 C 0.74425 0.39045 0.70481
 C614 C 0.74026 0.37207 0.71686
 C615 C 0.73430 0.34993 0.72763
 N616 N 0.74991 0.33461 0.73599
 N617 N 0.74437 0.31351 0.74060
 C618 C 0.72306 0.30695 0.73673
 N619 N 0.70750 0.32247 0.72895
 N620 N 0.71301 0.34353 0.72444
 N621 N 0.73235 0.07843 0.18035
 C622 C 0.75285 0.08617 0.18858
 N623 N 0.77052 0.07464 0.17492
 N624 N 0.76784 0.05608 0.15335
 C625 C 0.74738 0.04837 0.14460
 N626 N 0.72965 0.05979 0.15880
 C627 C 0.75603 0.10762 0.20640
 C628 C 0.75983 0.12604 0.21845
 C629 C 0.76558 0.14824 0.22915
 N630 N 0.78685 0.15475 0.22646
 N631 N 0.79220 0.17587 0.23076
 C632 C 0.77649 0.19132 0.23780
 N633 N 0.75519 0.18465 0.24119
 N634 N 0.74981 0.16350 0.23679
 N635 N 0.22668 0.57572 0.66476
 C636 C 0.24691 0.58281 0.67677
 N637 N 0.26488 0.57122 0.66484
 N638 N 0.26278 0.55325 0.64130
 C639 C 0.24262 0.54622 0.62877
 N640 N 0.22456 0.55766 0.64125
 C641 C 0.24974 0.60383 0.69652
 C642 C 0.25338 0.62197 0.71018
 C643 C 0.25911 0.64390 0.72275
 N644 N 0.28046 0.65026 0.72169
 N645 N 0.28590 0.67125 0.72750
 C646 C 0.27020 0.68672 0.73449
 N647 N 0.24880 0.68018 0.73628
 N648 N 0.24334 0.65916 0.73035
 N649 N 0.93151 0.75530 0.09082
 C650 C 0.92149 0.73615 0.10131
 N651 N 0.92862 0.71712 0.08368
 N652 N 0.94525 0.71731 0.05623
 C653 C 0.95520 0.73655 0.04549
 N654 N 0.94806 0.75550 0.06342
 C655 C 0.90270 0.73661 0.12865
 C656 C 0.88670 0.73876 0.15069
 C657 C 0.86758 0.74344 0.17561
 N658 N 0.85156 0.72819 0.18149
 N659 N 0.83305 0.73349 0.20167
 C660 C 0.82988 0.75426 0.21640
 N661 N 0.84612 0.76934 0.21071
 N662 N 0.86459 0.76405 0.19068
 N663 N 0.42678 0.25186 0.56190
 C664 C 0.41616 0.23258 0.56871
 N665 N 0.42365 0.21405 0.54971
 N666 N 0.44121 0.21487 0.52451
 C667 C 0.45177 0.23425 0.51746
 N668 N 0.44426 0.25268 0.53673
 C669 C 0.39649 0.23247 0.59372
 C670 C 0.37985 0.23425 0.61408
 C671 C 0.36010 0.23865 0.63737
 N672 N 0.34424 0.22314 0.64231
 N673 N 0.32534 0.22815 0.66147
 C674 C 0.32164 0.24885 0.67610
 N675 N 0.33772 0.26418 0.67129
 N676 N 0.35656 0.25919 0.65228
 N677 N 0.07439 0.28541 0.05202
 C678 C 0.08197 0.26688 0.07096
 N679 N 0.07151 0.24755 0.06395
 N680 N 0.05409 0.24666 0.03865
 C681 C 0.04649 0.26508 0.01943
 N682 N 0.05689 0.28453 0.02669
 C683 C 0.10161 0.26708 0.09605
 C684 C 0.11825 0.26538 0.11645
 C685 C 0.13802 0.26108 0.13974
 N686 N 0.15386 0.27663 0.14440
 N687 N 0.17281 0.27171 0.16345
 C688 C 0.17659 0.25104 0.17824
 N689 N 0.16053 0.23567 0.17373
 N690 N 0.14164 0.24058 0.15483
 N691 N 0.57348 0.78312 0.58299
 C692 C 0.58035 0.76394 0.60047
 N693 N 0.57004 0.74497 0.58994
 N694 N 0.55345 0.74507 0.56263
 C695 C 0.54656 0.76416 0.54485
 N696 N 0.55681 0.78323 0.55563
 C697 C 0.59919 0.76316 0.62767
 C698 C 0.61521 0.76079 0.64956
 C699 C 0.63435 0.75592 0.67429
 N700 N 0.65019 0.77125 0.68106
 N701 N 0.66869 0.76586 0.70120
 C702 C 0.67204 0.74494 0.71501
 N703 N 0.65597 0.72978 0.70841
 N704 N 0.63751 0.73515 0.68841
   
