data_POSCAR
  _audit_creation_date              2014-09-24
  _audit_creation_method            'ToBaCCo'
  _symmetry_space_group_name_H-M    'P1'
  _symmetry_Int_Tables_number       1
  _symmetry_cell_setting            triclinic
  loop_
  _symmetry_equiv_pos_as_xyz
 x,y,z
_cell_length_a 23.5568
_cell_length_b 24.1711
_cell_length_c 25.0735
_cell_angle_alpha 90.261000
_cell_angle_beta 88.126400
_cell_angle_gamma 91.897000
loop_
  _atom_site_label
  _atom_site_type_symbol
  _atom_site_fract_x
  _atom_site_fract_y
  _atom_site_fract_z
C1 C 0.28692 0.24965 0.25671
 C2 C 0.74839 0.72816 0.24806
 C3 C 0.74807 0.24334 0.77246
 C4 C 0.21802 0.75448 0.74187
 C5 C 0.11451 0.04726 0.05625
 H6 H 0.13170 0.02041 0.02569
 C7 C 0.15137 0.07525 0.09033
 H8 H 0.19680 0.07063 0.08510
 C9 C 0.03479 0.08562 0.10115
 H10 H -0.01083 0.08889 0.10532
 C11 C 0.07022 0.11439 0.13619
 H12 H 0.05189 0.14027 0.16717
 N13 N 0.05737 0.05312 0.06194
 C14 C 0.04219 -0.08851 -0.02949
 H15 H 0.01422 -0.10793 0.00036
 C16 C 0.06954 -0.12125 -0.06765
 H17 H 0.06285 -0.16579 -0.06674
 C18 C 0.08335 -0.00705 -0.06902
 H19 H 0.08760 0.03765 -0.06965
 C20 C 0.11173 -0.03835 -0.10794
 H21 H 0.13797 -0.01786 -0.13866
 Zn22 Zn 0.00751 0.01210 0.01757
 N23 N 0.04937 -0.03246 -0.03088
 C24 C -0.06947 0.03461 -0.06124
 N25 N -0.03576 0.05918 -0.02430
 C26 C -0.03171 0.11524 -0.01932
 C27 C -0.06424 0.14875 -0.05083
 C28 C -0.10288 0.06652 -0.09335
 C29 C -0.01549 -0.06514 0.09886
 C30 C -0.04791 -0.10243 0.13062
 C31 C -0.13221 -0.07258 0.08821
 C32 C -0.09825 -0.03536 0.05765
 N33 N -0.04079 -0.03348 0.06234
 H34 H -0.07081 -0.00999 -0.06529
 H35 H -0.00345 0.13408 0.00910
 H36 H -0.06137 0.19331 -0.04615
 H37 H -0.13054 0.04646 -0.12177
 H38 H 0.03016 -0.06228 0.10237
 H39 H -0.02715 -0.12823 0.15877
 H40 H -0.17766 -0.07508 0.08284
 H41 H -0.11786 -0.00899 0.02944
 C42 C 0.10407 -0.09603 -0.10777
 C43 C 0.12921 0.10879 0.13119
 C44 C -0.10677 -0.10764 0.12416
 C45 C -0.10115 0.12417 -0.08753
 C46 C 0.08016 0.56099 0.51236
 H47 H 0.09095 0.55578 0.47041
 C48 C 0.11081 0.59932 0.54286
 H49 H 0.14577 0.62341 0.52461
 C50 C 0.02139 0.53594 0.58766
 H51 H -0.01411 0.51187 0.60470
 C52 C 0.05038 0.57420 0.61936
 H53 H 0.03762 0.57895 0.66099
 N54 N 0.03684 0.52990 0.53528
 C55 C 0.02971 0.41142 0.40532
 H56 H -0.01318 0.41502 0.39199
 C57 C 0.06890 0.38186 0.37450
 H58 H 0.05645 0.36441 0.33662
 C59 C 0.09771 0.42839 0.47143
 H60 H 0.10851 0.44607 0.50960
 C61 C 0.13717 0.39687 0.44326
 H62 H 0.17816 0.39030 0.46009
 Zn63 Zn -0.00495 0.48058 0.49201
 N64 N 0.04575 0.43664 0.45132
 C65 C -0.04184 0.53019 0.39572
 N66 N -0.05008 0.52566 0.44954
 C67 C -0.08862 0.55711 0.47632
 C68 C -0.12290 0.59246 0.44866
 C69 C -0.07585 0.56430 0.36644
 C70 C -0.02096 0.40132 0.57093
 C71 C -0.05028 0.36808 0.60860
 C72 C -0.13864 0.39651 0.57251
 C73 C -0.10757 0.42928 0.53537
 N74 N -0.04981 0.43217 0.53626
 H75 H -0.00838 0.50835 0.37529
 H76 H -0.09270 0.55463 0.51935
 H77 H -0.15367 0.61699 0.47037
 H78 H -0.06968 0.56669 0.32349
 H79 H 0.02496 0.40414 0.57049
 H80 H -0.02701 0.34510 0.63721
 H81 H -0.18465 0.39566 0.57282
 H82 H -0.12963 0.45317 0.50674
 C83 C 0.12408 0.37580 0.39272
 C84 C 0.09532 0.60659 0.59681
 C85 C -0.10973 0.36664 0.61029
 C86 C -0.11770 0.59499 0.39289
 C87 C 0.59961 0.06977 0.53493
 H88 H 0.60528 0.07614 0.49252
 C89 C 0.63324 0.10069 0.56996
 H90 H 0.66541 0.12983 0.55426
 C91 C 0.54872 0.02726 0.60762
 H92 H 0.51463 0.00029 0.62266
 C93 C 0.58134 0.05720 0.64391
 H94 H 0.57249 0.05235 0.68633
 N95 N 0.55887 0.03306 0.55410
 C96 C 0.54198 -0.11046 0.45885
 H97 H 0.50668 -0.12698 0.48293
 C98 C 0.57112 -0.14586 0.42428
 H99 H 0.55875 -0.18940 0.42298
 C100 C 0.59993 -0.03405 0.42915
 H101 H 0.61010 0.00974 0.42991
 C102 C 0.63005 -0.06805 0.39373
 H103 H 0.66376 -0.05030 0.36814
 Zn104 Zn 0.51236 -0.00756 0.50551
 N105 N 0.55662 -0.05551 0.46088
 C106 C 0.47398 0.03472 0.40865
 N107 N 0.47621 0.04346 0.46220
 C108 C 0.45192 0.08801 0.48583
 C109 C 0.42421 0.12627 0.45517
 C110 C 0.44678 0.07196 0.37654
 C111 C 0.47318 -0.08968 0.57851
 C112 C 0.43344 -0.12178 0.60816
 C113 C 0.35833 -0.07291 0.56740
 C114 C 0.39962 -0.04146 0.53857
 N115 N 0.45587 -0.05028 0.54459
 H116 H 0.49275 -0.00143 0.39085
 H117 H 0.45400 0.09365 0.52856
 H118 H 0.40502 0.16169 0.47421
 H119 H 0.44500 0.06465 0.33397
 H120 H 0.51808 -0.09599 0.58257
 H121 H 0.44783 -0.15278 0.63522
 H122 H 0.31370 -0.06583 0.56215
 H123 H 0.38660 -0.01023 0.51125
 C124 C 0.61503 -0.12449 0.39053
 C125 C 0.62463 0.09385 0.62512
 C126 C 0.37528 -0.11396 0.60222
 C127 C 0.42199 0.11849 0.39986
 C128 C 0.59125 0.57356 0.00153
 H129 H 0.60724 0.55400 -0.03452
 C130 C 0.62883 0.60199 0.03466
 H131 H 0.67389 0.60378 0.02446
 C132 C 0.51359 0.59306 0.06056
 H133 H 0.46875 0.58822 0.07081
 C134 C 0.54969 0.62188 0.09480
 H135 H 0.53279 0.63913 0.13174
 N136 N 0.53504 0.56863 0.01559
 C137 C 0.56508 0.44146 -0.04584
 H138 H 0.57072 0.44420 -0.00344
 C139 C 0.59455 0.40225 -0.07540
 H140 H 0.62255 0.37495 -0.05545
 C141 C 0.52371 0.47461 -0.12391
 H142 H 0.49650 0.50319 -0.14280
 C143 C 0.55251 0.43570 -0.15517
 H144 H 0.54707 0.43427 -0.19788
 Zn145 Zn 0.48583 0.52237 -0.02424
 N146 N 0.52936 0.47586 -0.06999
 C147 C 0.39934 0.54049 -0.09700
 N148 N 0.43669 0.56584 -0.06374
 C149 C 0.43884 0.62185 -0.05774
 C150 C 0.40165 0.65454 -0.08497
 C151 C 0.36152 0.57160 -0.12506
 C152 C 0.47238 0.45223 0.06389
 C153 C 0.44542 0.41357 0.09799
 C154 C 0.35778 0.42706 0.05313
 C155 C 0.38655 0.46531 0.01954
 N156 N 0.44327 0.47607 0.02452
 H157 H 0.39881 0.49596 -0.10158
 H158 H 0.46914 0.64131 -0.03159
 H159 H 0.40344 0.69905 -0.07967
 H160 H 0.33208 0.55104 -0.15154
 H161 H 0.51668 0.46321 0.06895
 H162 H 0.46922 0.39431 0.12873
 H163 H 0.31288 0.41803 0.04838
 H164 H 0.36346 0.48557 -0.01076
 C165 C 0.58722 0.39811 -0.13045
 C166 C 0.60804 0.62535 0.08232
 C167 C 0.38782 0.39992 0.09192
 C168 C 0.36203 0.62921 -0.11852
 C169 C 0.18768 -0.13784 -0.15080
 C170 C 0.21293 -0.17489 -0.18575
 C171 C 0.18202 -0.20845 -0.22269
 C172 C 0.11998 -0.20339 -0.21937
 C173 C 0.09595 -0.16097 -0.18647
 C174 C 0.12967 -0.13050 -0.15057
 C175 C 0.03756 -0.15063 -0.18882
 N176 N 0.00325 -0.18410 -0.21757
 N177 N 0.02336 -0.22776 -0.24320
 C178 C 0.07928 -0.23924 -0.24401
 H179 H 0.21395 -0.11490 -0.12310
 H180 H 0.25871 -0.17641 -0.18443
 H181 H 0.01872 -0.11643 -0.16753
 H182 H 0.08877 -0.27830 -0.26147
 C183 C 0.15206 0.29446 0.33896
 C184 C 0.19020 0.26458 0.30789
 C185 C 0.24643 0.28456 0.29546
 C186 C 0.26405 0.33490 0.32219
 C187 C 0.22341 0.36749 0.35021
 C188 C 0.16722 0.34630 0.35962
 C189 C 0.24029 0.42113 0.36702
 N190 N 0.29531 0.43857 0.36159
 N191 N 0.33434 0.40639 0.33963
 C192 C 0.32054 0.35554 0.32012
 H193 H 0.10998 0.27642 0.34727
 H194 H 0.17483 0.22430 0.29495
 H195 H 0.21039 0.44978 0.38391
 H196 H 0.35379 0.33254 0.30260
 C197 C 0.70222 -0.16915 0.35790
 C198 C 0.73151 -0.20563 0.32520
 C199 C 0.70521 -0.23762 0.28456
 C200 C 0.64397 -0.23293 0.28112
 C201 C 0.61564 -0.19166 0.31223
 C202 C 0.64468 -0.16132 0.35187
 C203 C 0.55810 -0.18193 0.30330
 N204 N 0.52846 -0.21511 0.27002
 N205 N 0.55242 -0.25768 0.24564
 C206 C 0.60809 -0.26828 0.25081
 H207 H 0.72505 -0.14647 0.38832
 H208 H 0.77680 -0.20718 0.33065
 H209 H 0.53620 -0.14838 0.32275
 H210 H 0.62134 -0.30624 0.23327
 C211 C 0.65671 0.37263 -0.20136
 C212 C 0.69486 0.33596 -0.22386
 C213 C 0.69921 0.28102 -0.20485
 C214 C 0.65335 0.26124 -0.16954
 C215 C 0.61304 0.29877 -0.14825
 C216 C 0.61791 0.35548 -0.16140
 C217 C 0.56875 0.27853 -0.11389
 N218 N 0.56582 0.22443 -0.10019
 N219 N 0.60439 0.18948 -0.11831
 C220 C 0.64778 0.20608 -0.15196
 H221 H 0.65888 0.41543 -0.21416
 H222 H 0.72120 0.35238 -0.25630
 H223 H 0.53605 0.30511 -0.09830
 H224 H 0.67796 0.17617 -0.16309
 C225 C -0.12993 0.16014 -0.17419
 C226 C -0.16502 0.19000 -0.20599
 C227 C -0.21109 0.22048 -0.18462
 C228 C -0.21492 0.22542 -0.12678
 C229 C -0.18169 0.19058 -0.09504
 C230 C -0.13875 0.15851 -0.11911
 C231 C -0.19208 0.18893 -0.03941
 N232 N -0.22824 0.22445 -0.01584
 N233 N -0.25416 0.26175 -0.04417
 C234 C -0.24793 0.26421 -0.09802
 H235 H -0.09655 0.13643 -0.19311
 H236 H -0.15823 0.18572 -0.24865
 H237 H -0.17140 0.16011 -0.01422
 H238 H -0.26687 0.29869 -0.11609
 C239 C -0.12928 0.67267 0.33138
 C240 C -0.16065 0.70415 0.29761
 C241 C -0.21933 0.69312 0.28994
 C242 C -0.24708 0.65330 0.32580
 C243 C -0.21441 0.62104 0.36029
 C244 C -0.15490 0.63015 0.36175
 C245 C -0.24224 0.57894 0.39094
 N246 N -0.29918 0.57074 0.38882
 N247 N -0.33000 0.60106 0.35737
 C248 C -0.30596 0.64139 0.32591
 H249 H -0.08403 0.68160 0.33371
 H250 H -0.13731 0.73749 0.27757
 H251 H -0.21950 0.55196 0.41627
 H252 H -0.33308 0.66184 0.30008
 C253 C 0.33449 0.16205 0.37321
 C254 C 0.30400 0.19392 0.33918
 C255 C 0.33009 0.22455 0.29620
 C256 C 0.39192 0.22793 0.29458
 C257 C 0.42233 0.19216 0.32805
 C258 C 0.39294 0.15835 0.36633
 C259 C 0.48212 0.19251 0.32392
 N260 N 0.51056 0.22813 0.29055
 N261 N 0.48326 0.26411 0.26185
 C262 C 0.42581 0.26593 0.26340
 H263 H 0.31161 0.13731 0.40334
 H264 H 0.25832 0.19041 0.34418
 H265 H 0.50680 0.16578 0.34790
 H266 H 0.40907 0.29947 0.24208
 C267 C 0.34617 0.70232 -0.18352
 C268 C 0.31221 0.73211 -0.21615
 C269 C 0.25217 0.72198 -0.21911
 C270 C 0.22752 0.68573 -0.17769
 C271 C 0.26315 0.65652 -0.14321
 C272 C 0.32275 0.66297 -0.14856
 C273 C 0.23804 0.62236 -0.10301
 N274 N 0.18088 0.61656 -0.09788
 N275 N 0.14726 0.64254 -0.13032
 C276 C 0.16848 0.67645 -0.16952
 H277 H 0.39179 0.70998 -0.18598
 H278 H 0.33518 0.76368 -0.23913
 H279 H 0.26326 0.60088 -0.07494
 H280 H 0.13866 0.69416 -0.19449
 C281 C -0.18601 -0.13382 0.18717
 C282 C -0.21969 -0.17200 0.21627
 C283 C -0.20936 -0.22968 0.21598
 C284 C -0.16444 -0.24718 0.17961
 C285 C -0.13162 -0.20773 0.14839
 C286 C -0.14142 -0.15061 0.15384
 C287 C -0.09071 -0.22687 0.11100
 N288 N -0.08131 -0.28159 0.10658
 N289 N -0.11022 -0.31843 0.13680
 C290 C -0.15098 -0.30307 0.17271
 H291 H -0.19551 -0.09032 0.19025
 H292 H -0.25544 -0.15469 0.23753
 H293 H -0.06659 -0.19910 0.08458
 H294 H -0.17142 -0.33484 0.19588
 C295 C -0.16861 0.28616 0.64064
 C296 C -0.20042 0.25647 0.67905
 C297 C -0.20992 0.27667 0.73187
 C298 C -0.17675 0.32555 0.74609
 C299 C -0.14416 0.35566 0.70634
 C300 C -0.14161 0.33621 0.65321
 C301 C -0.11529 0.40517 0.72085
 N302 N -0.11727 0.42268 0.77215
 N303 N -0.14652 0.39427 0.80970
 C304 C -0.17598 0.34679 0.79838
 H305 H -0.16462 0.26949 0.60054
 H306 H -0.21694 0.21668 0.66604
 H307 H -0.09109 0.43019 0.69198
 H308 H -0.19885 0.32700 0.83041
 C309 C 0.29686 -0.12313 0.66965
 C310 C 0.26043 -0.15384 0.70364
 C311 C 0.25851 -0.21293 0.70441
 C312 C 0.29668 -0.23940 0.66579
 C313 C 0.33086 -0.20695 0.62892
 C314 C 0.33277 -0.14876 0.63288
 C315 C 0.36301 -0.23379 0.58875
 N316 N 0.36490 -0.28958 0.58785
 N317 N 0.33716 -0.32021 0.62468
 C318 C 0.30414 -0.29728 0.66353
 H319 H 0.29728 -0.07835 0.67247
 H320 H 0.23256 -0.12919 0.72814
 H321 H 0.38669 -0.21092 0.55793
 H322 H 0.28655 -0.32499 0.69320
 C323 C 0.31730 0.37616 0.16321
 C324 C 0.29386 0.34079 0.20194
 C325 C 0.31347 0.28650 0.20957
 C326 C 0.35096 0.26597 0.16781
 C327 C 0.37405 0.30241 0.12753
 C328 C 0.35914 0.35844 0.12747
 C329 C 0.41130 0.28155 0.08787
 N330 N 0.42540 0.22778 0.08871
 N331 N 0.40498 0.19374 0.12669
 C332 C 0.36871 0.21103 0.16592
 H333 H 0.30301 0.41827 0.16162
 H334 H 0.25916 0.35733 0.22527
 H335 H 0.42882 0.30733 0.05582
 H336 H 0.35587 0.18200 0.19589
 C337 C 0.16862 0.19688 0.16540
 C338 C 0.20732 0.22824 0.19401
 C339 C 0.24920 0.20478 0.22579
 C340 C 0.25042 0.14456 0.22600
 C341 C 0.20743 0.11304 0.19888
 C342 C 0.16813 0.13957 0.16703
 C343 C 0.20474 0.05501 0.20397
 N344 N 0.24506 0.02900 0.23039
 N345 N 0.28818 0.05714 0.25149
 C346 C 0.29273 0.11313 0.24952
 H347 H 0.13879 0.21790 0.14118
 H348 H 0.20337 0.27261 0.19195
 H349 H 0.17087 0.02998 0.18710
 H350 H 0.33140 0.13055 0.26406
 C351 C 0.15489 0.62553 0.67331
 C352 C 0.18311 0.66001 0.70854
 C353 C 0.18394 0.71882 0.70465
 C354 C 0.15382 0.74090 0.65992
 C355 C 0.12631 0.70443 0.62312
 C356 C 0.12666 0.64663 0.63064
 C357 C 0.09674 0.72704 0.58086
 N358 N 0.09391 0.78250 0.57576
 N359 N 0.11750 0.81686 0.61073
 C360 C 0.14632 0.79818 0.65253
 H361 H 0.15594 0.58114 0.67907
 H362 H 0.20646 0.63825 0.73746
 H363 H 0.07494 0.70131 0.55220
 H364 H 0.15968 0.82861 0.68092
 C365 C 0.65196 0.18418 0.66357
 C366 C 0.67916 0.21764 0.70042
 C367 C 0.71439 0.19664 0.74008
 C368 C 0.71689 0.13671 0.74314
 C369 C 0.69161 0.10325 0.70239
 C370 C 0.65817 0.12730 0.66343
 C371 C 0.69997 0.04584 0.70177
 N372 N 0.72693 0.02198 0.74196
 N373 N 0.74540 0.05165 0.78295
 C374 C 0.74045 0.10730 0.78540
 H375 H 0.62579 0.20318 0.63446
 H376 H 0.67456 0.26174 0.69592
 H377 H 0.68500 0.01956 0.66980
 H378 H 0.75230 0.12610 0.82218
 C379 C 0.65908 0.70386 0.12426
 C380 C 0.69366 0.72650 0.16301
 C381 C 0.71925 0.69376 0.20206
 C382 C 0.71455 0.63405 0.19448
 C383 C 0.67558 0.61185 0.15675
 C384 C 0.64789 0.64721 0.12210
 C385 C 0.66570 0.55410 0.15379
 N386 N 0.69626 0.51989 0.18307
 N387 N 0.73646 0.53957 0.21450
 C388 C 0.74728 0.59462 0.22038
 H389 H 0.63890 0.73118 0.09702
 H390 H 0.69666 0.77121 0.16487
 H391 H 0.63453 0.53563 0.12781
 H392 H 0.78337 0.60508 0.24337
   
