data_POSCAR
  _audit_creation_date              2014-09-24
  _audit_creation_method            'ToBaCCo'
  _symmetry_space_group_name_H-M    'P1'
  _symmetry_Int_Tables_number       1
  _symmetry_cell_setting            triclinic
  loop_
  _symmetry_equiv_pos_as_xyz
 x,y,z
_cell_length_a 33.4181
_cell_length_b 33.4184
_cell_length_c 33.4188
_cell_angle_alpha 89.935700
_cell_angle_beta 90.451800
_cell_angle_gamma 89.781200
loop_
  _atom_site_label
  _atom_site_type_symbol
  _atom_site_fract_x
  _atom_site_fract_y
  _atom_site_fract_z
O1 O 0.55470 0.49941 0.03293
 O2 O 0.44439 0.50035 0.03315
 O3 O 0.49927 0.44482 0.03312
 O4 O 0.49982 0.55493 0.03294
 O5 O 0.49916 0.55490 -0.03325
 O6 O 0.49861 0.44480 -0.03307
 O7 O 0.44373 0.50033 -0.03301
 O8 O 0.55404 0.49938 -0.03324
 Cu9 Cu 0.49961 0.49988 0.03972
 Cu10 Cu 0.49882 0.49985 -0.03982
 C11 C 0.57299 0.49925 -0.00019
 C12 C 0.42542 0.50049 0.00011
 C13 C 0.49884 0.42623 0.00005
 C14 C 0.49960 0.57349 -0.00019
 O15 O -0.03302 0.55613 0.49945
 O16 O -0.03299 0.44582 0.49957
 O17 O -0.03310 0.50099 0.55456
 O18 O -0.03290 0.50096 0.44445
 O19 O 0.03329 0.50072 0.44509
 O20 O 0.03309 0.50076 0.55520
 O21 O 0.03319 0.44559 0.50021
 O22 O 0.03315 0.55590 0.50009
 Cu23 Cu -0.03968 0.50100 0.49944
 Cu24 Cu 0.03986 0.50072 0.50021
 C25 C 0.00006 0.57465 0.49978
 C26 C 0.00010 0.42708 0.49990
 C27 C -0.00004 0.50089 0.57346
 C28 C 0.00023 0.50081 0.42620
 O29 O 0.50006 0.03299 0.55593
 O30 O 0.49977 0.03302 0.44561
 O31 O 0.44486 0.03295 0.50047
 O32 O 0.55498 0.03304 0.50106
 O33 O 0.55528 -0.03314 0.50112
 O34 O 0.44517 -0.03323 0.50054
 O35 O 0.50008 -0.03315 0.44568
 O36 O 0.50037 -0.03318 0.55599
 Cu37 Cu 0.49989 0.03968 0.50077
 Cu38 Cu 0.50026 -0.03986 0.50084
 C39 C 0.50026 -0.00010 0.57459
 C40 C 0.49987 -0.00006 0.42702
 C41 C 0.42644 -0.00016 0.50040
 C42 C 0.57371 -0.00004 0.50119
 C43 C 0.49827 0.10349 -0.07489
 C44 C 0.50034 0.07462 -0.10393
 C45 C 0.50089 0.03801 -0.08432
 N46 N 0.49929 0.04372 -0.04434
 C47 C 0.49772 0.08366 -0.03839
 C48 C 0.50154 0.00042 -0.10365
 C49 C 0.50068 -0.03705 -0.08377
 C50 C 0.49529 -0.07343 -0.10301
 C51 C 0.49542 -0.10247 -0.07392
 C52 C 0.50092 -0.08324 -0.03751
 N53 N 0.50478 -0.04341 -0.04388
 C54 C 0.50214 -0.10308 -0.00002
 C55 C 0.50174 -0.08394 0.03769
 C56 C 0.50151 -0.10376 0.07420
 C57 C 0.49949 -0.07490 0.10324
 C58 C 0.49865 -0.03830 0.08362
 N59 N 0.50002 -0.04401 0.04363
 C60 C 0.49785 -0.00070 0.10295
 C61 C 0.49850 0.03678 0.08308
 C62 C 0.50359 0.07319 0.10234
 C63 C 0.50340 0.10224 0.07326
 C64 C 0.49818 0.08297 0.03682
 N65 N 0.49453 0.04312 0.04318
 C66 C 0.49709 0.10280 -0.00069
 H67 H 0.49753 0.13546 -0.08011
 H68 H 0.50111 0.08001 -0.13586
 H69 H 0.48684 0.02197 0.02191
 H70 H 0.49113 -0.07858 -0.13474
 H71 H 0.49139 -0.13418 -0.07907
 H72 H 0.50242 -0.13573 0.07942
 H73 H 0.49894 -0.08029 0.13517
 H74 H 0.50724 0.13397 0.07842
 H75 H 0.51276 -0.02231 -0.02265
 H76 H 0.50761 0.07836 0.13409
 C77 C -0.07461 0.50132 0.89600
 C78 C -0.10354 0.49923 0.92480
 C79 C -0.08377 0.49865 0.96144
 N80 N -0.04381 0.50024 0.95584
 C81 C -0.03803 0.50184 0.91592
 C82 C -0.10294 0.49793 0.99899
 C83 C -0.08292 0.49891 1.03652
 C84 C -0.10203 0.50415 1.07287
 C85 C -0.07283 0.50430 1.10198
 C86 C -0.03646 0.49914 1.08283
 N87 N -0.04298 0.49519 1.04298
 C88 C 0.00112 0.49834 1.10277
 C89 C 0.03875 0.49893 1.08374
 C90 C 0.07534 0.49956 1.10366
 C91 C 0.10426 0.50154 1.07486
 C92 C 0.08450 0.50197 1.03821
 N93 N 0.04454 0.50037 1.04381
 C94 C 0.10367 0.50253 1.00065
 C95 C 0.08363 0.50149 0.96314
 C96 C 0.10271 0.49605 0.92681
 C97 C 0.07351 0.49600 0.89769
 C98 C 0.03717 0.50141 0.91683
 N99 N 0.04371 0.50541 0.95667
 C100 C -0.00040 0.50242 0.89688
 H101 H -0.07997 0.50208 0.86402
 H102 H -0.13549 0.49847 0.91932
 H103 H 0.02257 0.51337 0.97771
 H104 H -0.13376 0.50803 1.07794
 H105 H -0.07787 0.50830 1.13369
 H106 H 0.08069 0.49891 1.13564
 H107 H 0.13622 0.50233 1.08033
 H108 H 0.07852 0.49189 0.86600
 H109 H -0.02179 0.48746 1.02192
 H110 H 0.13442 0.49198 0.92174
 C111 C 0.10361 -0.07520 0.49857
 C112 C 0.07474 -0.10416 0.50048
 C113 C 0.03817 -0.08441 0.50130
 N114 N 0.04390 -0.04443 0.50000
 C115 C 0.08382 -0.03862 0.49837
 C116 C 0.00055 -0.10361 0.50198
 C117 C -0.03691 -0.08359 0.50127
 C118 C -0.07339 -0.10266 0.49601
 C119 C -0.10240 -0.07347 0.49622
 C120 C -0.08305 -0.03716 0.50161
 N121 N -0.04318 -0.04372 0.50535
 C122 C -0.10284 0.00040 0.50279
 C123 C -0.08367 0.03804 0.50226
 C124 C -0.10347 0.07461 0.50181
 C125 C -0.07460 0.10357 0.49979
 C126 C -0.03802 0.08383 0.49916
 N127 N -0.04375 0.04385 0.50067
 C128 C -0.00041 0.10302 0.49851
 C129 C 0.03705 0.08301 0.49941
 C130 C 0.07350 0.10207 0.50484
 C131 C 0.10252 0.07288 0.50474
 C132 C 0.08319 0.03658 0.49924
 N133 N 0.04333 0.04313 0.49533
 C134 C 0.10299 -0.00097 0.49804
 H135 H 0.13557 -0.08052 0.49769
 H136 H 0.08011 -0.13612 0.50098
 H137 H 0.02212 0.02205 0.48734
 H138 H -0.07862 -0.13434 0.49187
 H139 H -0.13418 -0.07847 0.49228
 H140 H -0.13543 0.07994 0.50259
 H141 H -0.07997 0.13553 0.49910
 H142 H 0.13427 0.07788 0.50880
 H143 H -0.02194 -0.02262 0.51318
 H144 H 0.07872 0.13374 0.50902
 C145 C -0.30400 0.49860 0.99951
 C146 C -0.28513 0.49926 1.04154
 C147 C -0.24434 0.49910 1.04142
 C148 C -0.22640 0.49830 0.99928
 C149 C -0.24503 0.53445 0.97762
 C150 C -0.28582 0.53461 0.97774
 C151 C -0.28581 0.46172 0.97909
 C152 C -0.24502 0.46156 0.97897
 C153 C -0.34795 0.49878 0.99963
 C154 C -0.38405 0.49897 0.99972
 C155 C -0.18248 0.49814 0.99916
 C156 C -0.14638 0.49804 0.99908
 H157 H -0.30229 0.49980 1.06899
 H158 H -0.22657 0.49952 1.06875
 H159 H -0.22772 0.55785 0.96341
 H160 H -0.30343 0.55815 0.96364
 H161 H -0.30341 0.43783 0.96588
 H162 H -0.22770 0.43755 0.96564
 C163 C 0.30473 0.50135 1.00032
 C164 C 0.28598 0.46877 0.97389
 C165 C 0.24519 0.46904 0.97394
 C166 C 0.22712 0.50186 1.00042
 C167 C 0.24549 0.54103 0.98526
 C168 C 0.28628 0.54077 0.98521
 C169 C 0.28668 0.49489 1.04192
 C170 C 0.24589 0.49516 1.04197
 C171 C 0.34868 0.50106 1.00026
 C172 C 0.38478 0.50080 1.00020
 C173 C 0.18320 0.50213 1.00048
 C174 C 0.14710 0.50231 1.00055
 H175 H 0.30323 0.44737 0.95664
 H176 H 0.22751 0.44788 0.95673
 H177 H 0.22801 0.56672 0.97542
 H178 H 0.30372 0.56623 0.97533
 H179 H 0.30437 0.49050 1.06897
 H180 H 0.22865 0.49100 1.06906
 C181 C 0.00007 -0.30466 0.50035
 C182 C -0.03316 -0.28586 0.47441
 C183 C -0.03313 -0.24507 0.47474
 C184 C 0.00013 -0.22706 0.50096
 C185 C 0.03910 -0.24550 0.48525
 C186 C 0.03907 -0.28628 0.48493
 C187 C -0.00566 -0.28659 0.54214
 C188 C -0.00563 -0.24581 0.54246
 C189 C 0.00005 -0.34861 0.50004
 C190 C 0.00005 -0.38471 0.49988
 C191 C 0.00019 -0.18314 0.50131
 C192 C 0.00032 -0.14705 0.50160
 H193 H -0.05482 -0.30307 0.45731
 H194 H -0.05477 -0.22735 0.45793
 H195 H 0.06449 -0.22805 0.47528
 H196 H 0.06443 -0.30377 0.47467
 H197 H -0.00941 -0.30428 0.56912
 H198 H -0.00936 -0.22857 0.56971
 C199 C 0.00009 0.30408 0.49957
 C200 C 0.01648 0.28582 0.46085
 C201 C 0.01645 0.24503 0.46065
 C202 C 0.00003 0.22647 0.49919
 C203 C -0.04173 0.24503 0.50412
 C204 C -0.04170 0.28582 0.50432
 C205 C 0.02544 0.28535 0.53327
 C206 C 0.02541 0.24456 0.53307
 C207 C 0.00011 0.34802 0.49976
 C208 C 0.00011 0.38412 0.49985
 C209 C -0.00004 0.18256 0.49897
 C210 C -0.00017 0.14646 0.49877
 H211 H 0.02719 0.30338 0.43579
 H212 H 0.02714 0.22767 0.43543
 H213 H -0.06893 0.22766 0.50718
 H214 H -0.06888 0.30338 0.50755
 H215 H 0.04197 0.30260 0.55534
 H216 H 0.04193 0.22688 0.55495
 C217 C 0.50061 -0.00006 -0.30471
 C218 C 0.52290 -0.03587 -0.28612
 C219 C 0.52304 -0.03582 -0.24533
 C220 C 0.50089 0.00003 -0.22710
 C221 C 0.45875 -0.00120 -0.24569
 C222 C 0.45861 -0.00125 -0.28648
 C223 C 0.52052 0.03701 -0.28629
 C224 C 0.52066 0.03705 -0.24551
 C225 C 0.50047 -0.00009 -0.34866
 C226 C 0.50036 -0.00011 -0.38477
 C227 C 0.50107 0.00010 -0.18319
 C228 C 0.50127 0.00022 -0.14709
 H229 H 0.53728 -0.05922 -0.30346
 H230 H 0.53753 -0.05914 -0.22774
 H231 H 0.43144 -0.00197 -0.22834
 H232 H 0.43116 -0.00205 -0.30406
 H233 H 0.53336 0.06111 -0.30375
 H234 H 0.53361 0.06120 -0.22803
 C235 C 0.49925 -0.00014 0.30402
 C236 C 0.50275 0.04174 0.28547
 C237 C 0.50248 0.04166 0.24468
 C238 C 0.49874 -0.00030 0.22641
 C239 C 0.46073 -0.01795 0.24482
 C240 C 0.46100 -0.01786 0.28560
 C241 C 0.53363 -0.02441 0.28572
 C242 C 0.53336 -0.02450 0.24493
 C243 C 0.49952 -0.00007 0.34796
 C244 C 0.49970 -0.00005 0.38406
 C245 C 0.49844 -0.00040 0.18249
 C246 C 0.49818 -0.00051 0.14639
 H247 H 0.50522 0.06907 0.30285
 H248 H 0.50472 0.06890 0.22712
 H249 H 0.43581 -0.02951 0.22736
 H250 H 0.43630 -0.02935 0.30307
 H251 H 0.55621 -0.04016 0.30326
 H252 H 0.55569 -0.04032 0.22754
 C253 C 0.50059 -0.30377 -0.00037
 C254 C 0.46779 -0.28497 -0.02682
 C255 C 0.46816 -0.24420 -0.02685
 C256 C 0.50130 -0.22628 -0.00044
 C257 C 0.54029 -0.24514 -0.01559
 C258 C 0.53992 -0.28590 -0.01555
 C259 C 0.49459 -0.28533 0.04121
 C260 C 0.49496 -0.24456 0.04117
 C261 C 0.50020 -0.34761 -0.00032
 C262 C 0.49990 -0.38365 -0.00026
 C263 C 0.50168 -0.18247 -0.00042
 C264 C 0.50192 -0.14643 -0.00030
 H265 H 0.44618 -0.30215 -0.04401
 H266 H 0.44689 -0.22644 -0.04409
 H267 H 0.56591 -0.22799 -0.02548
 H268 H 0.56523 -0.30370 -0.02541
 H269 H 0.49042 -0.30275 0.06829
 H270 H 0.49112 -0.22704 0.06822
 C271 C 0.49809 0.30350 0.00004
 C272 C 0.51477 0.28506 -0.03846
 C273 C 0.51450 0.24430 -0.03854
 C274 C 0.49758 0.22600 -0.00011
 C275 C 0.45587 0.24477 0.00434
 C276 C 0.45614 0.28554 0.00442
 C277 C 0.52299 0.28476 0.03406
 C278 C 0.52272 0.24399 0.03398
 C279 C 0.49837 0.34734 0.00010
 C280 C 0.49860 0.38338 0.00010
 C281 C 0.49733 0.18219 -0.00023
 C282 C 0.49720 0.14615 -0.00040
 H283 H 0.52580 0.30249 -0.06346
 H284 H 0.52529 0.22678 -0.06361
 H285 H 0.42855 0.22757 0.00719
 H286 H 0.42903 0.30328 0.00734
 H287 H 0.53937 0.30200 0.05626
 H288 H 0.53886 0.22628 0.05612
 C289 C -0.30355 0.00005 0.50187
 C290 C -0.28510 0.00027 0.54408
 C291 C -0.24432 0.00031 0.54432
 C292 C -0.22604 0.00013 0.50233
 C293 C -0.24462 0.03647 0.48096
 C294 C -0.28539 0.03643 0.48071
 C295 C -0.28504 -0.03649 0.48114
 C296 C -0.24426 -0.03645 0.48139
 C297 C -0.34739 0.00001 0.50160
 C298 C -0.38343 -0.00001 0.50140
 C299 C -0.18223 0.00018 0.50256
 C300 C -0.14619 0.00026 0.50269
 H301 H -0.30251 0.00038 0.57136
 H302 H -0.22679 0.00046 0.57181
 H303 H -0.22728 0.06016 0.46726
 H304 H -0.30300 0.06008 0.46679
 H305 H -0.30241 -0.06030 0.46750
 H306 H -0.22669 -0.06023 0.46797
 C307 C 0.30370 -0.00038 0.49955
 C308 C 0.28553 -0.03328 0.47312
 C309 C 0.24476 -0.03339 0.47281
 C310 C 0.22619 -0.00059 0.49896
 C311 C 0.24429 0.03869 0.48377
 C312 C 0.28506 0.03880 0.48408
 C313 C 0.28538 -0.00680 0.54103
 C314 C 0.24461 -0.00692 0.54072
 C315 C 0.34754 -0.00027 0.49987
 C316 C 0.38358 -0.00020 0.50012
 C317 C 0.18238 -0.00072 0.49861
 C318 C 0.14634 -0.00083 0.49834
 H319 H 0.30314 -0.05462 0.45616
 H320 H 0.22742 -0.05484 0.45561
 H321 H 0.22663 0.06417 0.47370
 H322 H 0.30236 0.06438 0.47425
 H323 H 0.30288 -0.01090 0.56824
 H324 H 0.22716 -0.01111 0.56766
 C325 C 0.00053 0.50012 1.30346
 C326 C 0.00383 0.54193 1.28473
 C327 C 0.00395 0.54159 1.24397
 C328 C 0.00077 0.49948 1.22597
 C329 C -0.03726 0.48160 1.24408
 C330 C -0.03738 0.48194 1.28484
 C331 C 0.03532 0.47605 1.28569
 C332 C 0.03545 0.47571 1.24492
 C333 C 0.00041 0.50045 1.34730
 C334 C 0.00032 0.50066 1.38334
 C335 C 0.00090 0.49909 1.18216
 C336 C 0.00099 0.49874 1.14612
 H337 H 0.00589 0.56938 1.30197
 H338 H 0.00612 0.56875 1.22626
 H339 H -0.06193 0.46976 1.22644
 H340 H -0.06216 0.47037 1.30215
 H341 H 0.05788 0.46064 1.30355
 H342 H 0.05812 0.46004 1.22784
 C343 C -0.00016 0.50134 0.69619
 C344 C 0.02230 0.46575 0.71498
 C345 C 0.02230 0.46598 0.75575
 C346 C -0.00017 0.50177 0.77369
 C347 C -0.04224 0.50018 0.75500
 C348 C -0.04223 0.49995 0.71423
 C349 C 0.01944 0.53863 0.71448
 C350 C 0.01944 0.53885 0.75525
 C351 C -0.00014 0.50113 0.65235
 C352 C -0.00011 0.50099 0.61631
 C353 C -0.00020 0.50201 0.81750
 C354 C -0.00027 0.50220 0.85354
 H355 H 0.03693 0.44244 0.69778
 H356 H 0.03693 0.44287 0.77350
 H357 H -0.06961 0.49930 0.77227
 H358 H -0.06960 0.49889 0.69655
 H359 H 0.03221 0.56272 0.69696
 H360 H 0.03220 0.56312 0.77267
   
