data_POSCAR
  _audit_creation_date              2014-09-24
  _audit_creation_method            'ToBaCCo'
  _symmetry_space_group_name_H-M    'P1'
  _symmetry_Int_Tables_number       1
  _symmetry_cell_setting            triclinic
  loop_
  _symmetry_equiv_pos_as_xyz
 x,y,z
_cell_length_a 44.5329
_cell_length_b 44.6765
_cell_length_c 25.3243
_cell_angle_alpha 89.602200
_cell_angle_beta 89.918000
_cell_angle_gamma 90.760300
loop_
  _atom_site_label
  _atom_site_type_symbol
  _atom_site_fract_x
  _atom_site_fract_y
  _atom_site_fract_z
C1 C 0.00167 0.26612 -0.03004
 C2 C 0.00345 0.26635 0.02388
 C3 C -0.02348 0.27008 0.05801
 C4 C 0.03260 0.26209 0.05145
 C5 C 0.02934 0.26595 -0.06306
 C6 C -0.02765 0.26514 -0.05835
 C7 C -0.04385 0.29314 0.04878
 C8 C -0.06974 0.29547 0.07956
 C9 C -0.07585 0.27522 0.12172
 C10 C -0.05421 0.25296 0.13200
 C11 C -0.02863 0.25042 0.10047
 C12 C 0.04180 0.28213 0.09092
 C13 C 0.06932 0.27843 0.11649
 C14 C 0.08815 0.25481 0.10251
 C15 C 0.07874 0.23452 0.06366
 C16 C 0.05097 0.23778 0.03911
 C17 C 0.03418 0.24247 -0.09832
 C18 C 0.06146 0.24035 -0.12532
 C19 C 0.08449 0.26184 -0.11806
 C20 C 0.07886 0.28614 -0.08443
 C21 C 0.05161 0.28818 -0.05730
 C22 C -0.05045 0.24467 -0.04343
 C23 C -0.07826 0.24482 -0.06886
 C24 C -0.08347 0.26470 -0.11091
 C25 C -0.06033 0.28428 -0.12734
 C26 C -0.03272 0.28459 -0.10113
 H27 H -0.03982 0.30929 0.01739
 H28 H -0.08438 0.31399 0.07095
 H29 H -0.05740 0.23603 0.16221
 H30 H -0.01314 0.23245 0.10845
 H31 H 0.02782 0.30083 0.10146
 H32 H 0.07617 0.29431 0.14640
 H33 H 0.04388 0.22143 0.01019
 H34 H 0.01724 0.22510 -0.10333
 H35 H 0.06451 0.22125 -0.15033
 H36 H 0.09551 0.30371 -0.07900
 H37 H 0.04810 0.30680 -0.03092
 H38 H -0.04678 0.22869 -0.01182
 H39 H -0.09555 0.22904 -0.05630
 H40 H -0.06385 0.29975 -0.15979
 H41 H -0.01542 0.30035 -0.11376
 H42 H 0.09273 0.21586 0.05291
 C43 C 0.49567 0.76898 0.48842
 C44 C 0.49512 0.77198 0.54204
 C45 C 0.46653 0.77213 0.57213
 C46 C 0.52318 0.77307 0.57358
 C47 C 0.52444 0.77011 0.45870
 C48 C 0.46787 0.76306 0.45726
 C49 C 0.44350 0.79199 0.55902
 C50 C 0.41534 0.78911 0.58304
 C51 C 0.40985 0.76650 0.62093
 C52 C 0.43364 0.74800 0.63636
 C53 C 0.46170 0.75084 0.61227
 C54 C 0.52912 0.79760 0.60643
 C55 C 0.55571 0.79902 0.63560
 C56 C 0.57639 0.77571 0.63290
 C57 C 0.57029 0.75093 0.60083
 C58 C 0.54378 0.74955 0.57149
 C59 C 0.53197 0.74630 0.42567
 C60 C 0.55990 0.74583 0.40076
 C61 C 0.58090 0.76918 0.40841
 C62 C 0.57286 0.79361 0.43986
 C63 C 0.54476 0.79418 0.46444
 C64 C 0.44769 0.73992 0.47166
 C65 C 0.42103 0.73555 0.44361
 C66 C 0.41459 0.75345 0.39940
 C67 C 0.43541 0.77557 0.38334
 C68 C 0.46177 0.78042 0.41219
 H69 H 0.44705 0.80900 0.52889
 H70 H 0.39775 0.80425 0.57128
 H71 H 0.43020 0.73035 0.66535
 H72 H 0.47924 0.73541 0.62313
 H73 H 0.51339 0.81582 0.60875
 H74 H 0.56022 0.81830 0.66019
 H75 H 0.53933 0.73023 0.54695
 H76 H 0.51656 0.72758 0.42055
 H77 H 0.56546 0.72667 0.37686
 H78 H 0.58828 0.81225 0.44553
 H79 H 0.53907 0.81312 0.48880
 H80 H 0.45242 0.72545 0.50500
 H81 H 0.40554 0.71800 0.45611
 H82 H 0.43089 0.78963 0.34935
 H83 H 0.47718 0.79809 0.39989
 H84 H 0.58618 0.73287 0.59811
 C85 C 0.99489 0.73400 -0.02116
 C86 C 0.99616 0.73823 0.03220
 C87 C 1.02507 0.74046 0.06147
 C88 C 0.96814 0.73994 0.06391
 C89 C 0.96580 0.73530 -0.04973
 C90 C 1.02203 0.72867 -0.05411
 C91 C 1.02933 0.72283 0.10689
 C92 C 1.05715 0.72255 0.13221
 C93 C 1.08134 0.73966 0.11223
 C94 C 1.07675 0.75837 0.06829
 C95 C 1.04867 0.75922 0.04373
 C96 C 0.94665 0.71670 0.06225
 C97 C 0.91926 0.71948 0.08843
 C98 C 0.91301 0.74536 0.11744
 C99 C 0.93513 0.76799 0.12111
 C100 C 0.96252 0.76526 0.09460
 C101 C 0.94837 0.76127 -0.04850
 C102 C 0.92103 0.76227 -0.07543
 C103 C 0.91089 0.73739 -0.10414
 C104 C 0.92833 0.71150 -0.10555
 C105 C 0.95575 0.71056 -0.07891
 C106 C 1.02569 0.74427 -0.10184
 C107 C 1.05129 0.74049 -0.13263
 C108 C 1.07476 0.72158 -0.11611
 C109 C 1.07020 0.70499 -0.06884
 C110 C 1.04396 0.70805 -0.03905
 H111 H 1.01141 0.70845 0.12171
 H112 H 1.06014 0.70803 0.16616
 H113 H 1.09493 0.77219 0.05283
 H114 H 1.04564 0.77375 0.00981
 H115 H 0.95090 0.69666 0.03974
 H116 H 0.90289 0.70142 0.08580
 H117 H 0.97892 0.78334 0.09655
 H118 H 0.95594 0.78067 -0.02658
 H119 H 0.90762 0.78224 -0.07318
 H120 H 0.92072 0.69210 -0.12744
 H121 H 0.96897 0.69041 -0.08042
 H122 H 1.00876 0.75975 -0.11528
 H123 H 1.05221 0.75246 -0.16977
 H124 H 1.08689 0.69013 -0.05308
 H125 H 1.04117 0.69479 -0.00338
 H126 H 0.93085 0.78827 0.14283
 C127 C 0.50302 0.23080 0.46229
 C128 C 0.50101 0.23065 0.51614
 C129 C 0.52869 0.23086 0.54884
 C130 C 0.47160 0.22931 0.54457
 C131 C 0.47640 0.22608 0.42811
 C132 C 0.53229 0.23589 0.43522
 C133 C 0.55036 0.20869 0.54213
 C134 C 0.57728 0.20998 0.57012
 C135 C 0.58290 0.23320 0.60610
 C136 C 0.56070 0.25484 0.61410
 C137 C 0.53378 0.25361 0.58575
 C138 C 0.46752 0.20930 0.58711
 C139 C 0.43975 0.20684 0.61271
 C140 C 0.41537 0.22404 0.59580
 C141 C 0.41958 0.24463 0.55424
 C142 C 0.44759 0.24769 0.52960
 C143 C 0.46962 0.24718 0.38878
 C144 C 0.44335 0.24427 0.35914
 C145 C 0.42346 0.22006 0.36810
 C146 C 0.43091 0.19833 0.40616
 C147 C 0.45728 0.20117 0.43556
 C148 C 0.54883 0.26241 0.44355
 C149 C 0.57711 0.26640 0.42040
 C150 C 0.58927 0.24391 0.38884
 C151 C 0.57250 0.21769 0.37946
 C152 C 0.54405 0.21381 0.40219
 H153 H 0.54656 0.19059 0.51459
 H154 H 0.59371 0.19272 0.56371
 H155 H 0.56444 0.27315 0.64117
 H156 H 0.51724 0.27085 0.59152
 H157 H 0.48567 0.19509 0.59988
 H158 H 0.43706 0.19092 0.64487
 H159 H 0.45037 0.26414 0.49834
 H160 H 0.48416 0.26650 0.38235
 H161 H 0.43810 0.26154 0.33055
 H162 H 0.41621 0.17923 0.41340
 H163 H 0.46244 0.18432 0.46500
 H164 H 0.53997 0.27980 0.46850
 H165 H 0.58977 0.28680 0.42786
 H166 H 0.58143 0.20028 0.35468
 H167 H 0.53152 0.19328 0.39520
 H168 H 0.40126 0.25857 0.54122
 C169 C 0.74656 0.01005 -0.01572
 C170 C 0.74630 0.01151 0.03831
 C171 C 0.74200 -0.01585 0.07156
 C172 C 0.75011 0.04044 0.06677
 C173 C 0.74458 0.03758 -0.04912
 C174 C 0.74747 -0.01924 -0.04385
 C175 C 0.71816 -0.03591 0.06208
 C176 C 0.71573 -0.06271 0.09054
 C177 C 0.73655 -0.06981 0.13061
 C178 C 0.75955 -0.04865 0.14161
 C179 C 0.76224 -0.02213 0.11233
 C180 C 0.73085 0.04742 0.10882
 C181 C 0.73384 0.07470 0.13513
 C182 C 0.75595 0.09564 0.11951
 C183 C 0.77548 0.08854 0.07799
 C184 C 0.77295 0.06100 0.05252
 C185 C 0.76413 0.04192 -0.09193
 C186 C 0.76254 0.06777 -0.12317
 C187 C 0.74146 0.09035 -0.11231
 C188 C 0.72162 0.08537 -0.06930
 C189 C 0.72284 0.05921 -0.03899
 C190 C 0.76732 -0.04182 -0.02825
 C191 C 0.76563 -0.07022 -0.05089
 C192 C 0.74507 -0.07641 -0.09186
 C193 C 0.72696 -0.05282 -0.11023
 C194 C 0.72786 -0.02482 -0.08604
 H195 H 0.70172 -0.03108 0.03183
 H196 H 0.69703 -0.07752 0.08165
 H197 H 0.77664 -0.05298 0.17083
 H198 H 0.78076 -0.00689 0.12042
 H199 H 0.71318 0.03191 0.12079
 H200 H 0.71848 0.07972 0.16695
 H201 H 0.78867 0.05582 0.02135
 H202 H 0.78077 0.02528 -0.10115
 H203 H 0.77761 0.06948 -0.15653
 H204 H 0.70543 0.10172 -0.05723
 H205 H 0.70699 0.05607 -0.00690
 H206 H 0.78369 -0.03770 0.00252
 H207 H 0.78112 -0.08696 -0.03699
 H208 H 0.71068 -0.05634 -0.14134
 H209 H 0.71252 -0.00774 -0.09933
 H210 H 0.79298 0.10419 0.06577
 C211 C 0.23829 0.48798 0.46276
 C212 C 0.23728 0.48831 0.51664
 C213 C 0.23668 0.46027 0.54838
 C214 C 0.23877 0.51694 0.54586
 C215 C 0.23544 0.51614 0.43169
 C216 C 0.24285 0.45985 0.43272
 C217 C 0.21534 0.43761 0.53831
 C218 C 0.21756 0.40972 0.56315
 C219 C 0.24100 0.40409 0.59890
 C220 C 0.26114 0.42750 0.61137
 C221 C 0.25893 0.45535 0.58645
 C222 C 0.21510 0.52525 0.57908
 C223 C 0.21572 0.55316 0.60382
 C224 C 0.24025 0.57274 0.59623
 C225 C 0.26432 0.56402 0.56440
 C226 C 0.26358 0.53633 0.53928
 C227 C 0.25759 0.52434 0.39472
 C228 C 0.25596 0.55166 0.36774
 C229 C 0.23208 0.57120 0.37721
 C230 C 0.20955 0.56257 0.41333
 C231 C 0.21105 0.53517 0.43989
 C232 C 0.26594 0.44006 0.44633
 C233 C 0.26889 0.41292 0.41995
 C234 C 0.24960 0.40561 0.37810
 C235 C 0.22754 0.42601 0.36263
 C236 C 0.22409 0.45285 0.38991
 H237 H 0.19762 0.44122 0.50981
 H238 H 0.20117 0.39247 0.55376
 H239 H 0.27942 0.42392 0.63873
 H240 H 0.27554 0.47258 0.59493
 H241 H 0.19589 0.51045 0.58471
 H242 H 0.19715 0.55944 0.62888
 H243 H 0.28217 0.53010 0.51420
 H244 H 0.27655 0.50994 0.38782
 H245 H 0.27382 0.55782 0.34057
 H246 H 0.19069 0.57699 0.42088
 H247 H 0.19339 0.52895 0.46744
 H248 H 0.28145 0.44544 0.47784
 H249 H 0.28642 0.39773 0.43186
 H250 H 0.21245 0.42080 0.33037
 H251 H 0.20638 0.46791 0.37827
 H252 H 0.28347 0.57887 0.55844
 C253 C 0.25351 0.98707 -0.03609
 C254 C 0.25353 0.98824 0.01781
 C255 C 0.25456 1.01742 0.04554
 C256 C 0.25277 0.96089 0.05169
 C257 C 0.25399 0.95843 -0.06554
 C258 C 0.25190 1.01494 -0.06788
 C259 C 0.27854 1.03754 0.03755
 C260 C 0.27848 1.06569 0.06108
 C261 C 0.25469 1.07421 0.09451
 C262 C 0.23160 1.05294 0.10482
 C263 C 0.23149 1.02500 0.08035
 C264 C 0.27357 0.95802 0.09304
 C265 C 0.27479 0.93161 0.12271
 C266 C 0.25551 0.90754 0.11097
 C267 C 0.23378 0.91078 0.07140
 C268 C 0.23195 0.93754 0.04278
 C269 C 0.23185 0.95243 -0.10336
 C270 C 0.23001 0.92447 -0.12749
 C271 C 0.25020 0.90149 -0.11416
 C272 C 0.27351 0.90842 -0.07821
 C273 C 0.27554 0.93661 -0.05477
 C274 C 0.22497 1.03059 -0.07154
 C275 C 0.22419 1.05836 -0.09720
 C276 C 0.25069 1.07163 -0.11802
 C277 C 0.27745 1.05504 -0.11560
 C278 C 0.27786 1.02680 -0.09162
 H279 H 0.29732 1.03149 0.01281
 H280 H 0.29766 1.08024 0.05390
 H281 H 0.21268 1.05825 0.12974
 H282 H 0.21297 1.00954 0.08757
 H283 H 0.28956 0.97587 0.10119
 H284 H 0.29166 0.92944 0.15322
 H285 H 0.21494 0.93963 0.01253
 H286 H 0.21507 0.96898 -0.11264
 H287 H 0.21152 0.92055 -0.15431
 H288 H 0.29064 0.89240 -0.06840
 H289 H 0.29348 0.94114 -0.02699
 H290 H 0.20470 1.02159 -0.05341
 H291 H 0.20312 1.07016 -0.09764
 H292 H 0.29812 1.06349 -0.13293
 H293 H 0.29876 1.01472 -0.08955
 H294 H 0.21849 0.89248 0.06232
 C295 C 0.76316 0.51129 0.48357
 C296 C 0.76197 0.51109 0.53723
 C297 C 0.76055 0.53928 0.56766
 C298 C 0.76017 0.48262 0.56726
 C299 C 0.76577 0.48323 0.45314
 C300 C 0.76047 0.53953 0.45310
 C301 C 0.78316 0.56127 0.56250
 C302 C 0.78047 0.58879 0.58788
 C303 C 0.75514 0.59480 0.61909
 C304 C 0.73301 0.57228 0.62543
 C305 C 0.73575 0.54476 0.60014
 C306 C 0.78513 0.47251 0.59557
 C307 C 0.78401 0.44476 0.62141
 C308 C 0.75761 0.42722 0.62052
 C309 C 0.73239 0.43779 0.59332
 C310 C 0.73376 0.46518 0.56640
 C311 C 0.74343 0.47525 0.41673
 C312 C 0.74519 0.44837 0.38910
 C313 C 0.76952 0.42908 0.39706
 C314 C 0.79210 0.43743 0.43308
 C315 C 0.79030 0.46430 0.46066
 C316 C 0.73404 0.55620 0.45583
 C317 C 0.73215 0.58367 0.42953
 C318 C 0.75670 0.59488 0.40048
 C319 C 0.78291 0.57795 0.39674
 C320 C 0.78468 0.55026 0.42258
 H321 H 0.80272 0.55723 0.53825
 H322 H 0.79839 0.60504 0.58325
 H323 H 0.71310 0.57625 0.64880
 H324 H 0.71801 0.52810 0.60451
 H325 H 0.80566 0.48577 0.59648
 H326 H 0.80365 0.43704 0.64238
 H327 H 0.71434 0.47277 0.54464
 H328 H 0.72431 0.48958 0.41052
 H329 H 0.72717 0.44246 0.36235
 H330 H 0.81131 0.42328 0.43961
 H331 H 0.80806 0.47038 0.48787
 H332 H 0.71509 0.54808 0.47891
 H333 H 0.71177 0.59651 0.43269
 H334 H 0.80194 0.58619 0.37403
 H335 H 0.80518 0.53756 0.42000
 H336 H 0.71189 0.42451 0.59187
 O337 O 0.22831 0.25381 0.17179
 O338 O 0.30382 0.24326 0.22739
 O339 O 0.26755 0.21244 0.16846
 O340 O 0.26461 0.28676 0.22927
 O341 O 0.24681 0.26648 0.30283
 O342 O 0.24533 0.19266 0.23870
 O343 O 0.28359 0.22166 0.29777
 O344 O 0.20821 0.23639 0.24581
 Cu345 Cu 0.26821 0.25139 0.19229
 Cu346 Cu 0.24406 0.22741 0.27871
 C347 C 0.20540 0.24647 0.19913
 C348 C 0.30660 0.22992 0.27156
 C349 C 0.25615 0.19000 0.19249
 C350 C 0.25551 0.28931 0.27653
 O351 O 0.75419 0.81015 0.27127
 O352 O 0.76235 0.73450 0.32703
 O353 O 0.79499 0.76881 0.26516
 O354 O 0.72157 0.77505 0.33144
 O355 O 0.69938 0.75589 0.26123
 O356 O 0.77240 0.74975 0.19532
 O357 O 0.73963 0.71538 0.25731
 O358 O 0.73152 0.79123 0.20142
 Cu359 Cu 0.76067 0.77413 0.30556
 Cu360 Cu 0.73370 0.75124 0.22148
 C361 C 0.74119 0.81369 0.22713
 C362 C 0.75172 0.71209 0.30237
 C363 C 0.79618 0.75810 0.21888
 C364 C 0.69799 0.76603 0.30786
 O365 O 0.73105 0.24766 0.32540
 O366 O 0.80695 0.25658 0.26891
 O367 O 0.77238 0.28974 0.32527
 O368 O 0.76625 0.21440 0.26821
 O369 O 0.74829 0.23398 0.19470
 O370 O 0.75222 0.30911 0.25340
 O371 O 0.78757 0.27722 0.19747
 O372 O 0.71164 0.26678 0.25268
 Cu373 Cu 0.77088 0.25004 0.30430
 Cu374 Cu 0.74766 0.27346 0.21725
 C375 C 0.70843 0.25609 0.29899
 C376 C 0.81024 0.26884 0.22380
 C377 C 0.76372 0.31233 0.29890
 C378 C 0.75713 0.21147 0.22104
 O379 O 0.27635 0.75184 0.31689
 O380 O 0.20211 0.74833 0.25381
 O381 O 0.23336 0.71212 0.31107
 O382 O 0.24558 0.78809 0.25639
 O383 O 0.26521 0.76852 0.18463
 O384 O 0.25422 0.69312 0.23987
 O385 O 0.22242 0.72917 0.18224
 O386 O 0.29707 0.73367 0.24486
 Cu387 Cu 0.23742 0.75214 0.29175
 Cu388 Cu 0.26190 0.72916 0.20588
 C389 C 0.29937 0.74335 0.29178
 C390 C 0.19951 0.73802 0.20742
 C391 C 0.24156 0.68963 0.28448
 C392 C 0.25704 0.79117 0.21062
 O393 O 0.70116 0.25949 0.75255
 O394 O 0.77601 0.26767 0.81322
 O395 O 0.74058 0.30274 0.75773
 O396 O 0.73477 0.22579 0.80915
 O397 O 0.75762 0.20914 0.73784
 O398 O 0.76209 0.28624 0.68510
 O399 O 0.79723 0.25212 0.73969
 O400 O 0.72254 0.24225 0.68041
 Cu401 Cu 0.73619 0.26582 0.79055
 Cu402 Cu 0.76193 0.24587 0.70331
 C403 C 0.69910 0.24881 0.70633
 C404 C 0.79935 0.26110 0.78693
 C405 C 0.75205 0.30761 0.71255
 C406 C 0.74504 0.20436 0.78225
 O407 O 0.28772 0.73391 0.75266
 O408 O 0.21205 0.71766 0.80552
 O409 O 0.25029 0.68958 0.74599
 O410 O 0.25075 0.76206 0.81384
 O411 O 0.23130 0.78349 0.74322
 O412 O 0.22909 0.71049 0.67638
 O413 O 0.19237 0.74022 0.73611
 O414 O 0.26756 0.75438 0.68171
 Cu415 Cu 0.25211 0.72370 0.78676
 Cu416 Cu 0.22802 0.74928 0.70235
 C417 C 0.29050 0.74640 0.70764
 C418 C 0.18930 0.72656 0.77990
 C419 C 0.23994 0.68770 0.69943
 C420 C 0.24131 0.78521 0.79008
 O421 O 0.26119 0.28388 0.74086
 O422 O 0.26297 0.21032 0.80641
 O423 O 0.29839 0.23946 0.74244
 O424 O 0.22522 0.25458 0.80470
 O425 O 0.20203 0.23539 0.73559
 O426 O 0.27504 0.21925 0.67438
 O427 O 0.23827 0.19038 0.73944
 O428 O 0.23839 0.26375 0.67212
 Cu429 Cu 0.26424 0.24906 0.78049
 Cu430 Cu 0.23616 0.22502 0.69857
 C431 C 0.24974 0.28638 0.69516
 C432 C 0.25063 0.18791 0.78440
 C433 C 0.29919 0.22698 0.69755
 C434 C 0.20109 0.24770 0.78059
 O435 O 0.71506 0.77687 0.70510
 O436 O 0.79081 0.76341 0.75731
 O437 O 0.75324 0.73364 0.69737
 O438 O 0.75164 0.80643 0.76471
 O439 O 0.73357 0.78419 0.83637
 O440 O 0.73337 0.71182 0.76785
 O441 O 0.77119 0.74052 0.82702
 O442 O 0.69542 0.75535 0.77613
 Cu443 Cu 0.75482 0.77225 0.72409
 Cu444 Cu 0.73138 0.74583 0.80896
 C445 C 0.69228 0.76852 0.73186
 C446 C 0.79396 0.74946 0.80082
 C447 C 0.74340 0.71031 0.72099
 C448 C 0.74225 0.80769 0.81198
 C449 C 0.23614 0.10944 0.16118
 C450 C 0.25356 0.10335 0.11622
 C451 C 0.26891 0.12813 0.09280
 C452 C 0.26920 0.15642 0.11689
 C453 C 0.25456 0.16085 0.16548
 C454 C 0.23685 0.13728 0.18528
 C455 C 0.23557 0.12404 0.23943
 C456 C 0.23482 0.09354 0.21336
 H457 H 0.28072 0.12608 0.05571
 H458 H 0.28181 0.17450 0.09825
 H459 H 0.21432 0.12943 0.26015
 H460 H 0.25642 0.12838 0.26243
 H461 H 0.21315 0.08136 0.21948
 H462 H 0.25521 0.08012 0.22126
 C463 C 0.75490 0.65139 0.61640
 C464 C 0.75105 0.62438 0.64440
 C465 C 0.73966 0.62633 0.69637
 C466 C 0.73600 0.65431 0.72081
 C467 C 0.74344 0.68114 0.69379
 C468 C 0.75092 0.67887 0.64030
 C469 C 0.77488 0.69380 0.60815
 C470 C 0.77966 0.66364 0.58215
 H471 H 0.73492 0.60621 0.71912
 H472 H 0.72876 0.65477 0.76163
 H473 H 0.79431 0.70142 0.63237
 H474 H 0.76569 0.71090 0.58071
 H475 H 0.80208 0.65448 0.59169
 H476 H 0.77355 0.66351 0.53962
 C477 C 0.71952 0.87756 0.13635
 C478 C 0.73447 0.90250 0.15825
 C479 C 0.74746 0.89819 0.20880
 C480 C 0.74854 0.86955 0.23231
 C481 C 0.73697 0.84426 0.20593
 C482 C 0.72096 0.84928 0.15932
 C483 C 0.72302 0.83405 0.10726
 C484 C 0.72150 0.86489 0.08189
 H485 H 0.75723 0.91666 0.23047
 H486 H 0.75972 0.86713 0.27001
 H487 H 0.70291 0.81984 0.09911
 H488 H 0.74496 0.82297 0.10122
 H489 H 0.70057 0.86824 0.05887
 H490 H 0.74254 0.87170 0.06108
 C491 C 0.25812 0.36964 0.67136
 C492 C 0.24545 0.37366 0.62128
 C493 C 0.23855 0.34763 0.59210
 C494 C 0.24078 0.31902 0.61539
 C495 C 0.25010 0.31579 0.66832
 C496 C 0.26034 0.34149 0.69429
 C497 C 0.25278 0.35298 0.74783
 C498 C 0.25036 0.38385 0.72268
 H499 H 0.23062 0.34930 0.55185
 H500 H 0.23413 0.29963 0.59259
 H501 H 0.27195 0.35114 0.77568
 H502 H 0.23099 0.34396 0.76296
 H503 H 0.26814 0.39974 0.73608
 H504 H 0.22717 0.39278 0.72318
 C505 C 0.87313 0.29274 0.13151
 C506 C 0.89821 0.27700 0.15056
 C507 C 0.89443 0.26289 0.20078
 C508 C 0.86621 0.26148 0.22602
 C509 C 0.84069 0.27371 0.20186
 C510 C 0.84524 0.29078 0.15607
 C511 C 0.82857 0.29010 0.10513
 C512 C 0.85886 0.29206 0.07795
 H513 H 0.91294 0.25267 0.22132
 H514 H 0.86419 0.24944 0.26314
 H515 H 0.81480 0.31041 0.09920
 H516 H 0.81660 0.26845 0.09843
 H517 H 0.86223 0.31339 0.05576
 H518 H 0.86457 0.27149 0.05584
 C519 C 0.37486 0.74840 0.69244
 C520 C 0.37919 0.76074 0.64197
 C521 C 0.35341 0.76497 0.61051
 C522 C 0.32447 0.76007 0.63154
 C523 C 0.32063 0.75067 0.68444
 C524 C 0.34637 0.74349 0.71312
 C525 C 0.35583 0.75303 0.76703
 C526 C 0.38708 0.75839 0.74435
 H527 H 0.35547 0.77244 0.56993
 H528 H 0.30519 0.76428 0.60670
 H529 H 0.35480 0.73422 0.79597
 H530 H 0.34469 0.77389 0.77991
 H531 H 0.40401 0.74267 0.76027
 H532 H 0.39412 0.78237 0.74403
 C533 C 0.11511 0.73633 0.19094
 C534 C 0.11146 0.73688 0.13611
 C535 C 0.13732 0.73324 0.10466
 C536 C 0.16606 0.73242 0.12788
 C537 C 0.16953 0.73581 0.18291
 C538 C 0.14340 0.73619 0.21370
 C539 C 0.13414 0.75684 0.25669
 C540 C 0.10309 0.75691 0.23177
 H541 H 0.13539 0.73186 0.06212
 H542 H 0.18555 0.73072 0.10252
 H543 H 0.14585 0.77895 0.25443
 H544 H 0.13453 0.74578 0.29613
 H545 H 0.09677 0.77904 0.21513
 H546 H 0.08564 0.74583 0.25682
 C547 C 0.63852 0.22560 0.61001
 C548 C 0.61200 0.23475 0.63450
 C549 C 0.61422 0.24508 0.68693
 C550 C 0.64251 0.24912 0.71102
 C551 C 0.66920 0.24305 0.68311
 C552 C 0.66632 0.22969 0.63355
 C553 C 0.68104 0.23751 0.58217
 C554 C 0.65054 0.23292 0.55636
 H555 H 0.59426 0.25087 0.70883
 H556 H 0.64346 0.25802 0.75064
 H557 H 0.69773 0.22056 0.57018
 H558 H 0.68924 0.26112 0.58055
 H559 H 0.64967 0.21325 0.52985
 H560 H 0.64102 0.25381 0.53956
 C561 C 0.76364 0.12505 0.82099
 C562 C 0.74027 0.11691 0.85623
 C563 C 0.71556 0.13671 0.85801
 C564 C 0.71663 0.16472 0.83231
 C565 C 0.74195 0.17360 0.80271
 C566 C 0.76427 0.15252 0.79467
 C567 C 0.79740 0.15615 0.80038
 C568 C 0.79695 0.12633 0.82942
 H569 H 0.69533 0.13138 0.87980
 H570 H 0.69802 0.17984 0.83706
 H571 H 0.80384 0.17537 0.82586
 H572 H 0.80914 0.15537 0.76167
 H573 H 0.80311 0.12820 0.87183
 H574 H 0.80889 0.10862 0.80743
 C575 C 0.22020 0.62591 0.37668
 C576 C 0.23076 0.60070 0.35026
 C577 C 0.24047 0.60470 0.29758
 C578 C 0.24297 0.63359 0.27523
 C579 C 0.23590 0.65910 0.30514
 C580 C 0.22277 0.65437 0.35478
 C581 C 0.23004 0.66813 0.40687
 C582 C 0.22714 0.63694 0.43087
 H583 H 0.24729 0.58570 0.27436
 H584 H 0.25179 0.63595 0.23553
 H585 H 0.21222 0.68352 0.42030
 H586 H 0.25329 0.67750 0.40844
 H587 H 0.20759 0.63438 0.45786
 H588 H 0.24866 0.62818 0.44651
 C589 C 0.22925 0.86717 0.81906
 C590 C 0.24639 0.87227 0.86486
 C591 C 0.25826 0.84650 0.88997
 C592 C 0.25569 0.81799 0.86677
 C593 C 0.24154 0.81430 0.81749
 C594 C 0.22713 0.83914 0.79595
 C595 C 0.22834 0.85172 0.74131
 C596 C 0.23072 0.88245 0.76630
 H597 H 0.26956 0.84792 0.92763
 H598 H 0.26589 0.79912 0.88652
 H599 H 0.20693 0.84801 0.71968
 H600 H 0.24896 0.84527 0.71958
 H601 H 0.21071 0.89641 0.75853
 H602 H 0.25271 0.89386 0.75906
 C603 C 0.78447 0.37515 0.39175
 C604 C 0.77136 0.40027 0.36834
 C605 C 0.75986 0.39683 0.31673
 C606 C 0.75814 0.36835 0.29318
 C607 C 0.76778 0.34266 0.32077
 C608 C 0.78261 0.34714 0.36877
 C609 C 0.77879 0.33175 0.42090
 C610 C 0.78107 0.36248 0.44613
 H611 H 0.75118 0.41585 0.29523
 H612 H 0.74801 0.36635 0.25450
 H613 H 0.79810 0.31719 0.43056
 H614 H 0.75627 0.32098 0.42556
 H615 H 0.80188 0.36562 0.46967
 H616 H 0.76001 0.36953 0.46583
 C617 C 0.11702 0.24983 0.80255
 C618 C 0.11425 0.25943 0.85505
 C619 C 0.14096 0.26922 0.88029
 C620 C 0.16921 0.26657 0.85557
 C621 C 0.17161 0.25416 0.80472
 C622 C 0.14483 0.24772 0.77804
 C623 C 0.13581 0.22086 0.74713
 C624 C 0.10557 0.22251 0.77458
 H625 H 0.14034 0.27754 0.92031
 H626 H 0.18918 0.27293 0.87733
 H627 H 0.14876 0.20063 0.75813
 H628 H 0.13464 0.22573 0.70409
 H629 H 0.10170 0.20299 0.80129
 H630 H 0.08684 0.22762 0.74713
 C631 C 0.61551 0.75352 0.33600
 C632 C 0.61129 0.76733 0.38479
 C633 C 0.63717 0.77776 0.41154
 C634 C 0.66562 0.77707 0.38709
 C635 C 0.66875 0.76609 0.33530
 C636 C 0.64341 0.75302 0.31185
 C637 C 0.63027 0.75781 0.25829
 C638 C 0.59965 0.75832 0.28484
 H639 H 0.63541 0.78694 0.45086
 H640 H 0.68490 0.78597 0.40809
 H641 H 0.63330 0.73811 0.23236
 H642 H 0.63708 0.77970 0.24050
 H643 H 0.58508 0.73889 0.27422
 H644 H 0.58864 0.78049 0.28247
 C645 C 0.87775 0.75512 0.82254
 C646 C 0.88185 0.73793 0.86827
 C647 C 0.85754 0.72008 0.88610
 C648 C 0.82895 0.72294 0.86296
 C649 C 0.82435 0.74332 0.82095
 C650 C 0.84973 0.75755 0.79922
 C651 C 0.85515 0.78956 0.78438
 C652 C 0.88590 0.78690 0.80998
 H653 H 0.86024 0.70532 0.91982
 H654 H 0.81028 0.71023 0.87951
 H655 H 0.83995 0.80502 0.80547
 H656 H 0.85629 0.79284 0.74087
 H657 H 0.88843 0.80106 0.84562
 H658 H 0.90470 0.78866 0.78117
 C659 C 0.36850 0.20744 0.36502
 C660 C 0.39450 0.21799 0.33948
 C661 C 0.39160 0.22779 0.28662
 C662 C 0.36302 0.23054 0.26336
 C663 C 0.33678 0.22362 0.29253
 C664 C 0.34040 0.21023 0.34222
 C665 C 0.32600 0.21722 0.39392
 C666 C 0.35683 0.21409 0.41892
 H667 H 0.41120 0.23467 0.26408
 H668 H 0.36148 0.23956 0.22367
 H669 H 0.30983 0.19942 0.40667
 H670 H 0.31726 0.24041 0.39541
 H671 H 0.35839 0.19446 0.44595
 H672 H 0.36600 0.23543 0.43499
 C673 C 0.73092 0.89014 0.83528
 C674 C 0.74212 0.89453 0.88656
 C675 C 0.74921 0.86834 0.91584
 C676 C 0.74800 0.83982 0.89233
 C677 C 0.74075 0.83679 0.83856
 C678 C 0.73079 0.86220 0.81176
 C679 C 0.73932 0.87462 0.75900
 C680 C 0.73952 0.90532 0.78449
 H681 H 0.75568 0.86959 0.95693
 H682 H 0.75432 0.82041 0.91543
 H683 H 0.72109 0.87164 0.72949
 H684 H 0.76194 0.86746 0.74588
 H685 H 0.72147 0.92001 0.76932
 H686 H 0.76222 0.91595 0.78607
 C687 C 0.25355 0.34978 0.37926
 C688 C 0.25227 0.37660 0.35116
 C689 C 0.25306 0.37426 0.29541
 C690 C 0.25478 0.34586 0.27066
 C691 C 0.25502 0.31909 0.30106
 C692 C 0.25441 0.32261 0.35561
 C693 C 0.25271 0.30587 0.40661
 C694 C 0.25146 0.33671 0.43339
 H695 H 0.25239 0.39426 0.27106
 H696 H 0.25523 0.34490 0.22796
 H697 H 0.27365 0.29345 0.41507
 H698 H 0.23153 0.29261 0.41060
 H699 H 0.27156 0.34202 0.45772
 H700 H 0.22947 0.34122 0.45233
 C701 C 0.22403 0.11380 0.84113
 C702 C 0.25047 0.10113 0.86113
 C703 C 0.27640 0.11994 0.86164
 C704 C 0.27616 0.14864 0.83827
 C705 C 0.25042 0.15893 0.81211
 C706 C 0.22417 0.14167 0.81656
 C707 C 0.20212 0.13212 0.77563
 C708 C 0.20186 0.10152 0.80228
 H709 H 0.29698 0.11282 0.88028
 H710 H 0.29654 0.16214 0.83841
 H711 H 0.21192 0.13197 0.73523
 H712 H 0.18045 0.14399 0.77936
 H713 H 0.21146 0.08362 0.77732
 H714 H 0.17993 0.09576 0.82104
 C715 C 0.76961 0.64931 0.39768
 C716 C 0.75491 0.62460 0.37553
 C717 C 0.73583 0.62966 0.33220
 C718 C 0.73472 0.65815 0.30805
 C719 C 0.75226 0.68221 0.32753
 C720 C 0.76817 0.67745 0.37443
 C721 C 0.80009 0.68464 0.38774
 C722 C 0.80169 0.65374 0.41309
 H723 H 0.72268 0.61137 0.31592
 H724 H 0.72062 0.66115 0.27368
 H725 H 0.80199 0.70312 0.41677
 H726 H 0.81453 0.68726 0.35209
 H727 H 0.80462 0.65445 0.45663
 H728 H 0.81712 0.63851 0.39206
 C729 C 0.10831 0.74035 0.81276
 C730 C 0.10179 0.71973 0.85381
 C731 C 0.12381 0.69749 0.86304
 C732 C 0.15202 0.69878 0.83764
 C733 C 0.15886 0.72179 0.80129
 C734 C 0.13587 0.74111 0.78711
 C735 C 0.13672 0.77439 0.78332
 C736 C 0.10675 0.77391 0.81172
 H737 H 0.12016 0.67928 0.89057
 H738 H 0.16880 0.68241 0.84789
 H739 H 0.13522 0.78241 0.74178
 H740 H 0.15520 0.78463 0.80686
 H741 H 0.08825 0.78225 0.78638
 H742 H 0.10779 0.78381 0.85187
 C743 C 0.64401 0.23257 0.38815
 C744 C 0.61966 0.24790 0.36674
 C745 C 0.62556 0.26925 0.32678
 C746 C 0.65454 0.27217 0.30470
 C747 C 0.67828 0.25428 0.32315
 C748 C 0.67270 0.23593 0.36721
 C749 C 0.67958 0.20365 0.37561
 C750 C 0.64808 0.19991 0.39815
 H751 H 0.60754 0.28273 0.31122
 H752 H 0.65819 0.28791 0.27254
 H753 H 0.69748 0.20043 0.40559
 H754 H 0.68295 0.19148 0.33794
 H755 H 0.64788 0.19426 0.44090
 H756 H 0.63325 0.18560 0.37333
 C757 C 0.86017 0.26512 0.88985
 C758 C 0.88715 0.26474 0.86205
 C759 C 0.88469 0.26405 0.80629
 C760 C 0.85611 0.26309 0.78136
 C761 C 0.82924 0.26342 0.81153
 C762 C 0.83286 0.26490 0.86597
 C763 C 0.81608 0.26524 0.91682
 C764 C 0.84704 0.26589 0.94388
 H765 H 0.90473 0.26357 0.78206
 H766 H 0.85512 0.26201 0.73870
 H767 H 0.80320 0.24410 0.92386
 H768 H 0.80323 0.28618 0.92199
 H769 H 0.85177 0.24529 0.96709
 H770 H 0.85215 0.28739 0.96393
 C771 C 0.35862 0.74771 0.39744
 C772 C 0.38594 0.74945 0.37084
 C773 C 0.38441 0.74791 0.31499
 C774 C 0.35628 0.74518 0.28873
 C775 C 0.32898 0.74468 0.31764
 C776 C 0.33173 0.74591 0.37232
 C777 C 0.31417 0.74810 0.42221
 C778 C 0.34468 0.75042 0.45065
 H779 H 0.40482 0.74883 0.29172
 H780 H 0.35593 0.74423 0.24602
 H781 H 0.30143 0.72713 0.43135
 H782 H 0.30098 0.76902 0.42406
 H783 H 0.34948 0.73090 0.47660
 H784 H 0.34906 0.77274 0.46840
 C785 C 0.25778 0.87542 0.19226
 C786 C 0.25957 0.87843 0.13736
 C787 C 0.26597 0.85277 0.10770
 C788 C 0.26689 0.82446 0.13218
 C789 C 0.26081 0.82119 0.18667
 C790 C 0.25797 0.84738 0.21631
 C791 C 0.23479 0.85603 0.25581
 C792 C 0.23466 0.88675 0.22955
 H793 H 0.26897 0.85447 0.06531
 H794 H 0.27040 0.80501 0.10776
 H795 H 0.24388 0.85641 0.29666
 H796 H 0.21329 0.84339 0.25104
 H797 H 0.24373 0.90478 0.25525
 H798 H 0.21308 0.89195 0.20964
 C799 C 0.77818 0.37620 0.63772
 C800 C 0.75651 0.39769 0.64691
 C801 C 0.73282 0.38908 0.68146
 C802 C 0.73163 0.35991 0.70427
 C803 C 0.75357 0.33839 0.69171
 C804 C 0.77644 0.34798 0.65793
 C805 C 0.80354 0.33788 0.62893
 C806 C 0.80538 0.36985 0.60574
 H807 H 0.71528 0.40477 0.69073
 H808 H 0.71315 0.35400 0.73034
 H809 H 0.79804 0.32054 0.59907
 H810 H 0.82235 0.33246 0.65600
 H811 H 0.80076 0.37091 0.56275
 H812 H 0.82536 0.38286 0.61915
 C813 C 0.76282 0.15132 0.11736
 C814 C 0.75883 0.12481 0.14639
 C815 C 0.75796 0.12699 0.20192
 C816 C 0.75801 0.15521 0.22656
 C817 C 0.75815 0.18177 0.19608
 C818 C 0.76218 0.17907 0.14150
 C819 C 0.74560 0.19286 0.09650
 C820 C 0.74638 0.16243 0.06996
 H821 H 0.75640 0.10696 0.22615
 H822 H 0.75653 0.15619 0.26920
 H823 H 0.75934 0.21020 0.07558
 H824 H 0.72258 0.19983 0.10761
 H825 H 0.76061 0.16225 0.03386
 H826 H 0.72382 0.15176 0.06559
 C827 C 0.22403 0.62591 0.60167
 C828 C 0.24113 0.60230 0.62129
 C829 C 0.26133 0.60839 0.66262
 C830 C 0.26129 0.63638 0.68781
 C831 C 0.24147 0.65899 0.67128
 C832 C 0.22438 0.65371 0.62585
 C833 C 0.19163 0.65798 0.61653
 C834 C 0.19121 0.62747 0.59028
 H835 H 0.27618 0.59111 0.67686
 H836 H 0.27617 0.64002 0.72100
 H837 H 0.18734 0.67669 0.58849
 H838 H 0.17845 0.65859 0.65383
 H839 H 0.18650 0.62862 0.54727
 H840 H 0.17777 0.61043 0.61249
 C841 C 0.87943 0.76192 0.19156
 C842 C 0.88313 0.74909 0.14202
 C843 C 0.85634 0.73980 0.11628
 C844 C 0.82790 0.74295 0.14083
 C845 C 0.82538 0.75535 0.19200
 C846 C 0.85219 0.76464 0.21528
 C847 C 0.86522 0.77647 0.26516
 C848 C 0.89611 0.77330 0.23843
 H849 H 0.85727 0.73022 0.07716
 H850 H 0.80804 0.73543 0.11989
 H851 H 0.86168 0.76082 0.29899
 H852 H 0.85883 0.80006 0.27235
 H853 H 0.91027 0.75581 0.25689
 H854 H 0.90759 0.79512 0.23058
 C855 C 0.38296 0.21953 0.67651
 C856 C 0.38566 0.22034 0.62148
 C857 C 0.35903 0.21774 0.59163
 C858 C 0.33069 0.21800 0.61663
 C859 C 0.32843 0.22159 0.67185
 C860 C 0.35511 0.22058 0.70101
 C861 C 0.36673 0.24030 0.74396
 C862 C 0.39727 0.23905 0.71715
 H863 H 0.36009 0.21683 0.54894
 H864 H 0.31068 0.21753 0.59239
 H865 H 0.36618 0.22891 0.78311
 H866 H 0.35678 0.26300 0.74300
 H867 H 0.41426 0.22686 0.74082
 H868 H 0.40501 0.26098 0.70074
 C869 C 0.14314 0.24510 0.09833
 C870 C 0.11754 0.25100 0.12831
 C871 C 0.12069 0.25221 0.18365
 C872 C 0.14929 0.25034 0.20714
 C873 C 0.17527 0.24809 0.17556
 C874 C 0.17131 0.24400 0.12128
 C875 C 0.18585 0.25942 0.07523
 C876 C 0.15492 0.26051 0.04995
 H877 H 0.10119 0.25521 0.20856
 H878 H 0.15115 0.25191 0.24966
 H879 H 0.20161 0.24459 0.05404
 H880 H 0.19510 0.28190 0.08534
 H881 H 0.15284 0.24621 0.01435
 H882 H 0.14623 0.28359 0.04525
 C883 C 0.60859 0.76199 0.70989
 C884 C 0.60468 0.77769 0.66253
 C885 C 0.62890 0.79519 0.64344
 C886 C 0.65735 0.79340 0.66748
 C887 C 0.66189 0.77428 0.71132
 C888 C 0.63650 0.76046 0.73389
 C889 C 0.63128 0.72875 0.75094
 C890 C 0.60065 0.73047 0.72465
 H891 H 0.62634 0.80863 0.60801
 H892 H 0.67603 0.80568 0.65000
 H893 H 0.62993 0.72646 0.79461
 H894 H 0.64674 0.71294 0.73128
 H895 H 0.58170 0.72923 0.75323
 H896 H 0.59837 0.71555 0.68992
   
