data_POSCAR
  _audit_creation_date              2014-09-24
  _audit_creation_method            'ToBaCCo'
  _symmetry_space_group_name_H-M    'P1'
  _symmetry_Int_Tables_number       1
  _symmetry_cell_setting            triclinic
  loop_
  _symmetry_equiv_pos_as_xyz
 x,y,z
_cell_length_a 47.5292
_cell_length_b 46.9607
_cell_length_c 21.3011
_cell_angle_alpha 89.848700
_cell_angle_beta 89.848400
_cell_angle_gamma 121.195200
loop_
  _atom_site_label
  _atom_site_type_symbol
  _atom_site_fract_x
  _atom_site_fract_y
  _atom_site_fract_z
C1 C 0.14816 0.45020 0.52623
 C2 C 0.16505 0.45843 0.46843
 C3 C 0.19306 0.45558 0.46300
 C4 C 0.20398 0.44440 0.51369
 C5 C 0.18574 0.43556 0.57027
 C6 C 0.15851 0.43941 0.57811
 C7 C 0.23507 0.44337 0.50911
 C8 C 0.25241 0.44493 0.56414
 C9 C 0.28082 0.44311 0.56130
 C10 C 0.29382 0.44235 0.50298
 C11 C 0.27874 0.44339 0.44724
 C12 C 0.24861 0.44223 0.45042
 H13 H 0.12700 0.45282 0.53109
 H14 H 0.20751 0.46428 0.42043
 H15 H 0.19199 0.42462 0.60828
 H16 H 0.24435 0.44781 0.60990
 H17 H 0.31658 0.44226 0.50101
 H18 H 0.23662 0.44146 0.40690
 C19 C 0.57400 -0.29907 0.50394
 C20 C 0.57220 -0.28632 0.44514
 C21 C 0.56503 -0.26077 0.44379
 C22 C 0.55609 -0.25037 0.49844
 C23 C 0.55542 -0.26590 0.55584
 C24 C 0.56536 -0.28943 0.55998
 C25 C 0.54716 -0.22380 0.49538
 C26 C 0.54634 -0.20728 0.55016
 C27 C 0.53695 -0.18347 0.54813
 C28 C 0.53022 -0.17425 0.49008
 C29 C 0.53204 -0.18913 0.43456
 C30 C 0.53942 -0.21443 0.43767
 H31 H 0.57827 -0.31954 0.50544
 H32 H 0.56741 -0.24859 0.39947
 H33 H 0.54799 -0.25913 0.59816
 H34 H 0.55367 -0.21188 0.59510
 H35 H 0.52385 -0.15520 0.48803
 H36 H 0.53848 -0.22672 0.39435
 C37 C 1.29207 0.88319 0.52155
 C38 C 1.28503 0.86826 0.46229
 C39 C 1.25493 0.83818 0.45425
 C40 C 1.23230 0.82288 0.50423
 C41 C 1.24054 0.83849 0.56356
 C42 C 1.27066 0.86831 0.57253
 C43 C 1.20214 0.78914 0.49505
 C44 C 1.18887 0.76583 0.54492
 C45 C 1.16352 0.73245 0.53477
 C46 C 1.15218 0.72280 0.47300
 C47 C 1.16484 0.74551 0.42330
 C48 C 1.18861 0.77873 0.43461
 H49 H 1.31495 0.90641 0.52895
 H50 H 1.25058 0.82510 0.41038
 H51 H 1.22413 0.82738 0.60331
 H52 H 1.20007 0.77288 0.59071
 H53 H 1.13277 0.69761 0.46257
 H54 H 1.19749 0.79586 0.39526
 C55 C 0.85055 0.54604 0.50649
 C56 C 0.83711 0.54871 0.45029
 C57 C 0.81028 0.55332 0.45189
 C58 C 0.79435 0.55194 0.50922
 C59 C 0.80819 0.54830 0.56547
 C60 C 0.83658 0.54609 0.56432
 C61 C 0.76282 0.55259 0.50978
 C62 C 0.74999 0.55755 0.56604
 C63 C 0.71950 0.55605 0.56781
 C64 C 0.70322 0.55227 0.51041
 C65 C 0.71572 0.54832 0.45367
 C66 C 0.74465 0.54735 0.45409
 H67 H 0.87221 0.54395 0.50492
 H68 H 0.80179 0.55698 0.40747
 H69 H 0.79678 0.54595 0.61055
 H70 H 0.76409 0.56374 0.60862
 H71 H 0.67934 0.54988 0.50942
 H72 H 0.75242 0.54240 0.41006
 C73 C 0.40853 0.27054 0.50315
 C74 C 0.40719 0.25521 0.44605
 C75 C 0.41020 0.22716 0.44575
 C76 C 0.41837 0.21623 0.50056
 C77 C 0.42064 0.23272 0.55749
 C78 C 0.41509 0.25958 0.56014
 C79 C 0.42734 0.18983 0.49679
 C80 C 0.42667 0.17152 0.55056
 C81 C 0.43957 0.15036 0.54810
 C82 C 0.44974 0.14504 0.48967
 C83 C 0.44902 0.16129 0.43573
 C84 C 0.43873 0.18416 0.43936
 H85 H 0.40749 0.29302 0.50159
 H86 H 0.40717 0.21485 0.40136
 H87 H 0.42665 0.22456 0.59991
 H88 H 0.41772 0.17482 0.59490
 H89 H 0.45703 0.12675 0.48493
 H90 H 0.44079 0.19792 0.39717
 C91 C 0.69596 0.16427 0.47513
 C92 C 0.71215 0.18173 0.42022
 C93 C 0.74375 0.21016 0.42438
 C94 C 0.76043 0.22042 0.48228
 C95 C 0.74421 0.20105 0.53605
 C96 C 0.71168 0.17408 0.53351
 C97 C 0.79399 0.25152 0.48717
 C98 C 0.80557 0.26786 0.54554
 C99 C 0.83712 0.29651 0.55176
 C100 C 0.85601 0.31022 0.49701
 C101 C 0.84434 0.29610 0.43802
 C102 C 0.81426 0.26597 0.43361
 H103 H 0.67109 0.14307 0.47231
 H104 H 0.75451 0.22437 0.38194
 H105 H 0.75657 0.20638 0.58070
 H106 H 0.79038 0.25796 0.58678
 H107 H 0.87930 0.33353 0.49897
 H108 H 0.80667 0.25480 0.38784
 O109 O 0.98476 0.51385 -0.12153
 O110 O 1.03263 0.57355 0.07885
 O111 O 0.93952 0.48709 0.06191
 O112 O 1.07255 0.57242 -0.06229
 O113 O 0.97689 0.53618 0.07233
 O114 O 1.04313 0.53286 -0.12903
 O115 O 1.07815 0.57757 0.05447
 O116 O 0.96112 0.51900 -0.04042
 C117 C 0.96737 0.52385 -0.09746
 C118 C 1.06294 0.59029 0.07675
 C119 C 0.94825 0.51444 0.08525
 C120 C 1.06333 0.56322 -0.11722
 O121 O 1.02950 0.47457 -0.07307
 O122 O 0.98481 0.48577 0.12219
 O123 O 0.92948 0.45586 -0.04366
 O124 O 1.07507 0.52123 0.06157
 O125 O 1.04389 0.52711 0.13028
 O126 O 0.97265 0.45504 -0.07174
 O127 O 1.07607 0.51869 -0.05692
 O128 O 0.96573 0.45334 0.04069
 Co129 Co 1.00813 0.49603 -0.09048
 Co130 Co 1.00973 0.52932 0.09344
 Co131 Co 0.96544 0.48700 -0.00182
 Co132 Co 1.06966 0.54447 -0.00081
 O133 O 1.01542 0.51648 0.00242
 C134 C 1.05983 0.48908 -0.07459
 C135 C 0.97122 0.45685 0.09856
 C136 C 0.94250 0.44425 -0.08132
 C137 C 1.06583 0.52027 0.11717
 O138 O 0.50112 0.45258 -0.11682
 O139 O 0.46352 0.49532 0.12680
 O140 O 0.49220 0.42634 0.07023
 O141 O 0.44776 0.49962 -0.06241
 O142 O 0.46093 0.44224 0.11043
 O143 O 0.45545 0.46248 -0.10513
 O144 O 0.43714 0.48714 0.04434
 O145 O 0.48353 0.42239 -0.03743
 C146 C 0.48375 0.42434 -0.09500
 C147 C 0.43651 0.48412 0.10175
 C148 C 0.46705 0.41983 0.10205
 C149 C 0.43768 0.47444 -0.09726
 O150 O 0.49826 0.52608 -0.11499
 O151 O 0.52451 0.47381 0.12920
 O152 O 0.54875 0.47688 -0.05746
 O153 O 0.49832 0.54520 0.07420
 O154 O 0.52742 0.52743 0.11798
 O155 O 0.54335 0.51606 -0.09684
 O156 O 0.51132 0.55355 -0.03242
 O157 O 0.55427 0.48586 0.05017
 Co158 Co 0.49931 0.48904 -0.09649
 Co159 Co 0.49436 0.48487 0.10940
 Co160 Co 0.51767 0.45586 0.00640
 Co161 Co 0.47568 0.51829 0.00598
 O162 O 0.49674 0.48699 0.00634
 C163 C 0.51400 0.55351 -0.08981
 C164 C 0.55256 0.48677 0.10763
 C165 C 0.56078 0.50390 -0.08778
 C166 C 0.52190 0.55031 0.10934
 O167 O 0.55623 0.02274 -0.09197
 O168 O 0.53281 -0.03245 0.08918
 O169 O 0.55300 0.06696 0.03368
 O170 O 0.47883 -0.07522 -0.06926
 O171 O 0.56514 0.03066 0.06408
 O172 O 0.52702 -0.03623 -0.09059
 O173 O 0.48755 -0.07275 0.04699
 O174 O 0.54628 0.06146 -0.07972
 C175 C 0.56529 0.05237 -0.09899
 C176 C 0.51294 -0.06285 0.08019
 C177 C 0.57336 0.06032 0.05696
 C178 C 0.50651 -0.06617 -0.09171
 O179 O 0.47117 -0.03800 -0.13269
 O180 O 0.51565 0.03375 0.11637
 O181 O 0.47972 0.03165 -0.06340
 O182 O 0.44292 -0.05737 0.06384
 O183 O 0.48334 -0.02706 0.12861
 O184 O 0.50224 0.02149 -0.13915
 O185 O 0.43892 -0.05176 -0.05226
 O186 O 0.48745 0.04072 0.04695
 Co187 Co 0.51333 -0.00734 -0.10506
 Co188 Co 0.52264 0.00086 0.08862
 Co189 Co 0.51567 0.04549 -0.01540
 Co190 Co 0.46613 -0.05851 -0.00398
 O191 O 0.50401 -0.00520 -0.00810
 C192 C 0.44303 -0.04773 -0.10981
 C193 C 0.49572 0.04258 0.10240
 C194 C 0.48233 0.02949 -0.12054
 C195 C 0.45318 -0.04682 0.11779
 C196 C 1.12723 0.48791 0.31710
 C197 C 1.12563 0.49716 0.37898
 C198 C 1.13859 0.48806 0.42835
 C199 C 1.15412 0.46976 0.41756
 C200 C 1.15736 0.46218 0.35489
 C201 C 1.14371 0.47074 0.30552
 C202 C 1.11134 0.49586 0.26537
 C203 C 1.08201 0.49571 0.27629
 C204 C 1.06738 0.50386 0.22838
 C205 C 1.08127 0.51164 0.16799
 C206 C 1.11028 0.51137 0.15662
 C207 C 1.12527 0.50380 0.20485
 H208 H 1.13717 0.49642 0.47491
 H209 H 1.16857 0.44774 0.34396
 H210 H 1.04506 0.50386 0.23857
 H211 H 1.12173 0.51752 0.11061
 H212 H 1.14516 0.46287 0.25853
 H213 H 1.07011 0.48900 0.32183
 H214 H 1.11443 0.51165 0.38952
 H215 H 1.14807 0.50474 0.19484
 C216 C 0.56995 0.65989 0.28278
 C217 C 0.59175 0.66524 0.33221
 C218 C 0.59358 0.68397 0.38468
 C219 C 0.57448 0.69896 0.38860
 C220 C 0.55512 0.69622 0.33617
 C221 C 0.55248 0.67657 0.28475
 C222 C 0.56276 0.63445 0.23324
 C223 C 0.55093 0.63631 0.17359
 C224 C 0.53886 0.60955 0.13175
 C225 C 0.53926 0.58077 0.14783
 C226 C 0.55330 0.57988 0.20512
 C227 C 0.56451 0.60611 0.24752
 H228 H 0.61017 0.68672 0.42209
 H229 H 0.53942 0.70660 0.33677
 H230 H 0.52845 0.61101 0.08755
 H231 H 0.55372 0.55793 0.21913
 H232 H 0.53503 0.67292 0.24852
 H233 H 0.55003 0.65800 0.15972
 H234 H 0.60687 0.65421 0.33144
 H235 H 0.57274 0.60305 0.29295
 C236 C 0.35624 -0.09158 0.31578
 C237 C 0.36601 -0.08733 0.37873
 C238 C 0.34266 -0.10009 0.42674
 C239 C 0.30865 -0.11790 0.41331
 C240 C 0.29902 -0.12198 0.34985
 C241 C 0.32250 -0.10872 0.30187
 C242 C 0.38119 -0.07945 0.26489
 C243 C 0.37505 -0.09846 0.21033
 C244 C 0.39856 -0.08768 0.16282
 C245 C 0.42896 -0.05789 0.16910
 C246 C 0.43542 -0.03889 0.22369
 C247 C 0.41161 -0.04946 0.27103
 H248 H 0.35167 -0.09749 0.47423
 H249 H 0.27333 -0.13444 0.33689
 H250 H 0.39310 -0.10297 0.12137
 H251 H 0.45858 -0.01566 0.22925
 H252 H 0.31415 -0.11176 0.25375
 H253 H 0.35226 -0.12203 0.20470
 H254 H 0.39178 -0.07508 0.39105
 H255 H 0.41692 -0.03401 0.31215
 C256 C 0.87559 0.53444 0.27814
 C257 C 0.87134 0.56181 0.28439
 C258 C 0.85823 0.56635 0.33985
 C259 C 0.84976 0.54392 0.39014
 C260 C 0.85363 0.51640 0.38339
 C261 C 0.86629 0.51166 0.32802
 C262 C 0.89148 0.53033 0.22179
 C263 C 0.87929 0.49865 0.19546
 C264 C 0.89694 0.49378 0.14853
 C265 C 0.92720 0.52046 0.12735
 C266 C 0.93856 0.55247 0.15126
 C267 C 0.92079 0.55738 0.19793
 H268 H 0.85544 0.58774 0.34406
 H269 H 0.84692 0.49856 0.42129
 H270 H 0.88761 0.46888 0.13078
 H271 H 0.96184 0.57348 0.13569
 H272 H 0.86972 0.49063 0.32491
 H273 H 0.85656 0.47745 0.21257
 H274 H 0.87828 0.57968 0.24651
 H275 H 0.93087 0.58199 0.21774
 C276 C 0.41642 0.31040 0.27745
 C277 C 0.38990 0.30109 0.31923
 C278 C 0.38611 0.28233 0.37331
 C279 C 0.40818 0.27166 0.38583
 C280 C 0.43350 0.27930 0.34261
 C281 C 0.43776 0.29862 0.28950
 C282 C 0.42401 0.33493 0.22553
 C283 C 0.44122 0.33528 0.17116
 C284 C 0.45373 0.36195 0.12860
 C285 C 0.44862 0.38847 0.13861
 C286 C 0.42899 0.38668 0.18970
 C287 C 0.41717 0.36052 0.23291
 H288 H 0.36629 0.27656 0.40585
 H289 H 0.45115 0.27178 0.35170
 H290 H 0.46845 0.36244 0.08923
 H291 H 0.42455 0.40667 0.19884
 H292 H 0.45891 0.30569 0.25982
 H293 H 0.44611 0.31555 0.16248
 H294 H 0.37243 0.30890 0.31107
 H295 H 0.40444 0.36167 0.27410
 C296 C 0.66483 0.14416 0.24211
 C297 C 0.64806 0.14897 0.29153
 C298 C 0.66352 0.16160 0.34913
 C299 C 0.69621 0.17010 0.35817
 C300 C 0.71335 0.16633 0.30813
 C301 C 0.69771 0.15318 0.25080
 C302 C 0.64695 0.12718 0.18400
 C303 C 0.64776 0.09952 0.16152
 C304 C 0.62579 0.07922 0.11509
 C305 C 0.60287 0.08645 0.08985
 C306 C 0.60438 0.11599 0.10796
 C307 C 0.62601 0.13599 0.15502
 H308 H 0.64986 0.16447 0.38683
 H309 H 0.73854 0.17256 0.31410
 H310 H 0.62517 0.05661 0.10218
 H311 H 0.58697 0.12221 0.08967
 H312 H 0.71114 0.14969 0.21348
 H313 H 0.66364 0.09214 0.18315
 H314 H 0.62256 0.14180 0.28635
 H315 H 0.62522 0.15744 0.17104
 C316 C 0.44706 0.09581 -0.30072
 C317 C 0.47122 0.10983 -0.34763
 C318 C 0.46922 0.12877 -0.39537
 C319 C 0.44294 0.13457 -0.39817
 C320 C 0.42018 0.12297 -0.34789
 C321 C 0.42208 0.10345 -0.29982
 C322 C 0.44897 0.07357 -0.25372
 C323 C 0.44543 0.07715 -0.18926
 C324 C 0.45404 0.06077 -0.14524
 C325 C 0.46659 0.04093 -0.16526
 C326 C 0.46764 0.03543 -0.22959
 C327 C 0.45846 0.05117 -0.27327
 H328 H 0.48878 0.13919 -0.43009
 H329 H 0.39965 0.12687 -0.34764
 H330 H 0.45297 0.06540 -0.09577
 H331 H 0.47712 0.02025 -0.24637
 H332 H 0.40341 0.09333 -0.26340
 H333 H 0.43814 0.09422 -0.17295
 H334 H 0.49179 0.10596 -0.34773
 H335 H 0.46057 0.04725 -0.32273
 C336 C 0.66773 0.54854 -0.26302
 C337 C 0.69222 0.54029 -0.26348
 C338 C 0.71052 0.54436 -0.31804
 C339 C 0.70454 0.55644 -0.37430
 C340 C 0.68133 0.56664 -0.37188
 C341 C 0.66321 0.56262 -0.31742
 C342 C 0.64494 0.54002 -0.20853
 C343 C 0.63278 0.56068 -0.19225
 C344 C 0.60682 0.54981 -0.14949
 C345 C 0.59257 0.51813 -0.12154
 C346 C 0.60647 0.49860 -0.13365
 C347 C 0.63232 0.50938 -0.17690
 H348 H 0.72757 0.53565 -0.31663
 H349 H 0.67688 0.57790 -0.41202
 H350 H 0.59690 0.56562 -0.14045
 H351 H 0.59597 0.47405 -0.11295
 H352 H 0.64459 0.56932 -0.31899
 H353 H 0.64245 0.58476 -0.21450
 H354 H 0.69664 0.52976 -0.22207
 H355 H 0.64091 0.49271 -0.18852
 C356 C 0.87567 0.34793 -0.27596
 C357 C 0.84152 0.32842 -0.28474
 C358 C 0.82856 0.31063 -0.34047
 C359 C 0.84953 0.31219 -0.38934
 C360 C 0.88378 0.33088 -0.37861
 C361 C 0.89654 0.34855 -0.32325
 C362 C 0.89000 0.36909 -0.21956
 C363 C 0.91923 0.37373 -0.19352
 C364 C 0.93570 0.39748 -0.14707
 C365 C 0.92296 0.41663 -0.12473
 C366 C 0.89274 0.41068 -0.14761
 C367 C 0.87644 0.38718 -0.19494
 H368 H 0.80216 0.29739 -0.34596
 H369 H 0.90117 0.33166 -0.41247
 H370 H 0.95881 0.40136 -0.12959
 H371 H 0.88257 0.42530 -0.13111
 H372 H 0.92301 0.36347 -0.31836
 H373 H 0.92991 0.35963 -0.21032
 H374 H 0.82477 0.32727 -0.24886
 H375 H 0.85414 0.38442 -0.21437
 C376 C 0.52771 -0.13917 -0.28226
 C377 C 0.54468 -0.11927 -0.33465
 C378 C 0.54784 -0.13361 -0.38953
 C379 C 0.53433 -0.16813 -0.39307
 C380 C 0.51772 -0.18804 -0.34045
 C381 C 0.51424 -0.17371 -0.28568
 C382 C 0.52329 -0.12367 -0.22543
 C383 C 0.49225 -0.13724 -0.19662
 C384 C 0.48710 -0.11970 -0.14935
 C385 C 0.51297 -0.08839 -0.13012
 C386 C 0.54452 -0.07617 -0.15564
 C387 C 0.54960 -0.09357 -0.20285
 H388 H 0.56094 -0.11768 -0.42921
 H389 H 0.50687 -0.21477 -0.34217
 H390 H 0.46252 -0.12968 -0.13066
 H391 H 0.56502 -0.05222 -0.14147
 H392 H 0.50111 -0.18959 -0.24596
 H393 H 0.47152 -0.16041 -0.21322
 H394 H 0.55493 -0.09262 -0.33365
 H395 H 0.57391 -0.08288 -0.22337
 C396 C 0.33529 0.44616 -0.27551
 C397 C 0.32955 0.47219 -0.28824
 C398 C 0.31079 0.47065 -0.34004
 C399 C 0.29793 0.44339 -0.38077
 C400 C 0.30276 0.41699 -0.36754
 C401 C 0.32087 0.41813 -0.31503
 C402 C 0.35830 0.44945 -0.22459
 C403 C 0.37889 0.43644 -0.23275
 C404 C 0.40319 0.44272 -0.18894
 C405 C 0.40802 0.46270 -0.13635
 C406 C 0.38653 0.47441 -0.12627
 C407 C 0.36175 0.46762 -0.16966
 H408 H 0.30743 0.49135 -0.34980
 H409 H 0.29269 0.39558 -0.39823
 H410 H 0.41942 0.43345 -0.19828
 H411 H 0.38952 0.48967 -0.08587
 H412 H 0.32395 0.39721 -0.30606
 H413 H 0.37754 0.42282 -0.27465
 H414 H 0.34063 0.49444 -0.25982
 H415 H 0.34586 0.47734 -0.16085
 C416 C 1.12143 0.66117 -0.31684
 C417 C 1.12323 0.65126 -0.37800
 C418 C 1.13730 0.67462 -0.42643
 C419 C 1.15034 0.70888 -0.41533
 C420 C 1.14924 0.71876 -0.35329
 C421 C 1.13474 0.69522 -0.30500
 C422 C 1.10608 0.63605 -0.26560
 C423 C 1.11926 0.64347 -0.20478
 C424 C 1.10518 0.61984 -0.15678
 C425 C 1.07776 0.58806 -0.16849
 C426 C 1.06453 0.58050 -0.22919
 C427 C 1.07842 0.60431 -0.27718
 H428 H 1.13899 0.66556 -0.47207
 H429 H 1.15800 0.74449 -0.34211
 H430 H 1.11610 0.62638 -0.11053
 H431 H 1.04329 0.55629 -0.23949
 H432 H 1.13331 0.70371 -0.25855
 H433 H 1.14086 0.66737 -0.19440
 H434 H 1.11425 0.62539 -0.38842
 H435 H 1.06729 0.59793 -0.32322
 C436 C 0.89037 0.54440 -0.27554
 C437 C 0.87699 0.56495 -0.27517
 C438 C 0.85795 0.56448 -0.32590
 C439 C 0.85191 0.54324 -0.37719
 C440 C 0.86352 0.52118 -0.37499
 C441 C 0.88268 0.52191 -0.32500
 C442 C 0.91341 0.54666 -0.22650
 C443 C 0.94328 0.54978 -0.24463
 C444 C 0.96250 0.54543 -0.20092
 C445 C 0.95215 0.53768 -0.13813
 C446 C 0.92373 0.53750 -0.11873
 C447 C 0.90447 0.54204 -0.16275
 H448 H 0.84931 0.58176 -0.32647
 H449 H 0.85858 0.50395 -0.41301
 H450 H 0.98440 0.54601 -0.21719
 H451 H 0.91512 0.53144 -0.07065
 H452 H 0.89208 0.50525 -0.32549
 H453 H 0.95089 0.55387 -0.29345
 H454 H 0.88247 0.58232 -0.23717
 H455 H 0.88152 0.53962 -0.14783
 C456 C 0.42976 0.31735 -0.27534
 C457 C 0.44440 0.29809 -0.28053
 C458 C 0.43872 0.27805 -0.33327
 C459 C 0.41824 0.27681 -0.38273
 C460 C 0.40195 0.29461 -0.37458
 C461 C 0.40767 0.31452 -0.32194
 C462 C 0.44041 0.34326 -0.22604
 C463 C 0.44805 0.37535 -0.24332
 C464 C 0.46115 0.40107 -0.19981
 C465 C 0.46665 0.39546 -0.13748
 C466 C 0.45790 0.36313 -0.11903
 C467 C 0.44517 0.33724 -0.16324
 H468 H 0.45261 0.26579 -0.33661
 H469 H 0.38444 0.29320 -0.40866
 H470 H 0.46766 0.42569 -0.21554
 H471 H 0.46204 0.35820 -0.07130
 H472 H 0.39534 0.32844 -0.31839
 H473 H 0.44519 0.38097 -0.29138
 H474 H 0.46186 0.30007 -0.24565
 H475 H 0.43941 0.31268 -0.14865
 C476 C 0.65848 0.12559 -0.29637
 C477 C 0.65581 0.10674 -0.34972
 C478 C 0.67327 0.12231 -0.40474
 C479 C 0.69394 0.15709 -0.40756
 C480 C 0.69699 0.17588 -0.35389
 C481 C 0.67943 0.16033 -0.29901
 C482 C 0.63828 0.10911 -0.23939
 C483 C 0.62215 0.12293 -0.20770
 C484 C 0.60001 0.10548 -0.15884
 C485 C 0.59356 0.07386 -0.14060
 C486 C 0.61125 0.06101 -0.16962
 C487 C 0.63330 0.07841 -0.21855
 H488 H 0.67059 0.10714 -0.44508
 H489 H 0.71243 0.20277 -0.35477
 H490 H 0.58667 0.11598 -0.13760
 H491 H 0.60690 0.03674 -0.15660
 H492 H 0.68217 0.17552 -0.25864
 H493 H 0.62531 0.14645 -0.22284
 H494 H 0.63953 0.07996 -0.34948
 H495 H 0.64583 0.06741 -0.24122
 C496 C 1.11600 0.43911 -0.24654
 C497 C 1.09652 0.42768 -0.30064
 C498 C 1.10985 0.42565 -0.35760
 C499 C 1.14320 0.43503 -0.36237
 C500 C 1.16169 0.44326 -0.30641
 C501 C 1.14835 0.44569 -0.24942
 C502 C 1.10368 0.44821 -0.19062
 C503 C 1.12348 0.47937 -0.16210
 C504 C 1.10976 0.49174 -0.12011
 C505 C 1.07599 0.47317 -0.10596
 C506 C 1.05692 0.44074 -0.12992
 C507 C 1.07064 0.42840 -0.17185
 H508 H 1.09389 0.41714 -0.39810
 H509 H 1.18743 0.45087 -0.30705
 H510 H 1.12511 0.51675 -0.10220
 H511 H 1.03088 0.42565 -0.11937
 H512 H 1.16381 0.45421 -0.20816
 H513 H 1.14898 0.49531 -0.17592
 H514 H 1.07142 0.42223 -0.30002
 H515 H 1.05494 0.40408 -0.19231
 C516 C 0.56069 0.65961 -0.27049
 C517 C 0.54043 0.67291 -0.27862
 C518 C 0.54269 0.69074 -0.33310
 C519 C 0.56511 0.69551 -0.38168
 C520 C 0.58666 0.68369 -0.37120
 C521 C 0.58458 0.66625 -0.31646
 C522 C 0.55414 0.63548 -0.21882
 C523 C 0.55485 0.60656 -0.23191
 C524 C 0.54379 0.58105 -0.18775
 C525 C 0.53183 0.58370 -0.12912
 C526 C 0.53312 0.61340 -0.11379
 C527 C 0.54401 0.63907 -0.15856
 H528 H 0.52488 0.69832 -0.33852
 H529 H 0.60557 0.68813 -0.40500
 H530 H 0.54320 0.55846 -0.20065
 H531 H 0.52388 0.61593 -0.06891
 H532 H 0.60126 0.65720 -0.31085
 H533 H 0.56203 0.60262 -0.27783
 H534 H 0.52138 0.66783 -0.24464
 H535 H 0.54352 0.66122 -0.14682
 C536 C 0.32906 -0.09139 -0.26580
 C537 C 0.32550 -0.07025 -0.30719
 C538 C 0.30245 -0.08360 -0.35540
 C539 C 0.28347 -0.11828 -0.36418
 C540 C 0.28449 -0.13932 -0.31842
 C541 C 0.30711 -0.12590 -0.26929
 C542 C 0.35819 -0.07802 -0.22511
 C543 C 0.38984 -0.06107 -0.25195
 C544 C 0.41757 -0.05122 -0.21477
 C545 C 0.41412 -0.05739 -0.14991
 C546 C 0.38237 -0.07369 -0.12307
 C547 C 0.35465 -0.08427 -0.16047
 H548 H 0.30176 -0.06684 -0.38957
 H549 H 0.27036 -0.16609 -0.32421
 H550 H 0.44160 -0.03918 -0.23679
 H551 H 0.37883 -0.07894 -0.07319
 H552 H 0.30949 -0.14257 -0.23750
 H553 H 0.39296 -0.05651 -0.30209
 H554 H 0.34196 -0.04353 -0.30457
 H555 H 0.33042 -0.09750 -0.13911
 C556 C 0.52272 -0.14802 0.26050
 C557 C 0.49834 -0.15851 0.30727
 C558 C 0.50086 -0.17269 0.36317
 C559 C 0.52753 -0.17716 0.37303
 C560 C 0.55119 -0.16796 0.32523
 C561 C 0.54897 -0.15323 0.26971
 C562 C 0.52198 -0.12915 0.20515
 C563 C 0.54987 -0.09835 0.18912
 C564 C 0.54769 -0.07762 0.14462
 C565 C 0.51770 -0.08749 0.11462
 C566 C 0.49055 -0.11947 0.12701
 C567 C 0.49260 -0.13997 0.17225
 H568 H 0.48227 -0.17968 0.39922
 H569 H 0.57211 -0.17093 0.33193
 H570 H 0.56902 -0.05312 0.13620
 H571 H 0.46703 -0.12776 0.10505
 H572 H 0.56804 -0.14538 0.23438
 H573 H 0.57279 -0.08935 0.21399
 H574 H 0.47805 -0.15443 0.30169
 H575 H 0.47084 -0.16374 0.18339
 C576 C 0.33436 0.45619 0.27899
 C577 C 0.30043 0.43263 0.27989
 C578 C 0.28157 0.42898 0.33371
 C579 C 0.29659 0.44880 0.38692
 C580 C 0.33003 0.47364 0.38387
 C581 C 0.34865 0.47724 0.33070
 C582 C 0.35633 0.45717 0.22855
 C583 C 0.38303 0.45405 0.24570
 C584 C 0.40786 0.46103 0.20280
 C585 C 0.40664 0.47110 0.14125
 C586 C 0.37869 0.47182 0.12219
 C587 C 0.35359 0.46493 0.16586
 H588 H 0.25576 0.40979 0.33486
 H589 H 0.34204 0.48981 0.42355
 H590 H 0.42887 0.45998 0.21888
 H591 H 0.37719 0.47954 0.07499
 H592 H 0.37468 0.49585 0.33071
 H593 H 0.38547 0.44774 0.29354
 H594 H 0.28898 0.41611 0.24045
 H595 H 0.33313 0.46749 0.15176
 C596 C 1.13169 0.69973 0.24385
 C597 C 1.12271 0.72227 0.26547
 C598 C 1.13488 0.73889 0.32261
 C599 C 1.15587 0.73288 0.35882
 C600 C 1.16600 0.71165 0.33598
 C601 C 1.15417 0.69535 0.27902
 C602 C 1.11489 0.67749 0.18978
 C603 C 1.08052 0.66125 0.18440
 C604 C 1.06365 0.63436 0.14362
 C605 C 1.08084 0.62315 0.10763
 C606 C 1.11539 0.64135 0.10868
 C607 C 1.13224 0.66830 0.14929
 H608 H 1.12677 0.75516 0.33988
 H609 H 1.18209 0.70668 0.36366
 H610 H 1.03701 0.62095 0.14362
 H611 H 1.12934 0.63356 0.08094
 H612 H 1.16111 0.67773 0.26446
 H613 H 1.06642 0.66758 0.21517
 H614 H 1.10552 0.72619 0.23921
 H615 H 1.15880 0.68078 0.15161
 C616 C 0.47038 0.11990 0.27872
 C617 C 0.49517 0.13954 0.32205
 C618 C 0.48912 0.15564 0.37038
 C619 C 0.45834 0.15275 0.37583
 C620 C 0.43444 0.13548 0.32978
 C621 C 0.44039 0.11909 0.28152
 C622 C 0.47518 0.09865 0.23386
 C623 C 0.46382 0.09466 0.17185
 C624 C 0.46932 0.07529 0.12964
 C625 C 0.48633 0.05959 0.14864
 C626 C 0.49671 0.06268 0.21115
 C627 C 0.49111 0.08192 0.25332
 H628 H 0.50779 0.16880 0.40572
 H629 H 0.41037 0.13259 0.33390
 H630 H 0.46112 0.07344 0.08162
 H631 H 0.50971 0.05074 0.22723
 H632 H 0.42081 0.10411 0.24888
 H633 H 0.45150 0.10725 0.15549
 H634 H 0.51882 0.14138 0.32009
 H635 H 0.49936 0.08375 0.30129
 C636 C 0.65805 0.53283 0.28741
 C637 C 0.66454 0.55845 0.32961
 C638 C 0.68410 0.56407 0.38230
 C639 C 0.69761 0.54415 0.39420
 C640 C 0.69255 0.51961 0.35023
 C641 C 0.67299 0.51406 0.29721
 C642 C 0.63257 0.52320 0.23845
 C643 C 0.63710 0.51597 0.17642
 C644 C 0.61163 0.50517 0.13231
 C645 C 0.58113 0.50075 0.15030
 C646 C 0.57699 0.50830 0.21213
 C647 C 0.60236 0.51957 0.25539
 H648 H 0.68815 0.58362 0.41456
 H649 H 0.70246 0.50372 0.35826
 H650 H 0.61539 0.49939 0.08499
 H651 H 0.55381 0.50506 0.22761
 H652 H 0.66808 0.49392 0.26576
 H653 H 0.66023 0.51858 0.16229
 H654 H 0.65363 0.57355 0.32274
 H655 H 0.59793 0.52441 0.30298
 C656 C 0.90236 0.35497 0.28080
 C657 C 0.88968 0.32047 0.28098
 C658 C 0.86998 0.30068 0.33128
 C659 C 0.86269 0.31528 0.38142
 C660 C 0.87406 0.34945 0.37897
 C661 C 0.89375 0.36903 0.32959
 C662 C 0.92446 0.37717 0.23064
 C663 C 0.95286 0.40722 0.24729
 C664 C 0.96971 0.43224 0.20276
 C665 C 0.95864 0.42767 0.14055
 C666 C 0.93218 0.39640 0.12239
 C667 C 0.91512 0.37126 0.16732
 H668 H 0.86132 0.27434 0.33195
 H669 H 0.86796 0.36119 0.41591
 H670 H 0.99020 0.45593 0.21791
 H671 H 0.92313 0.39226 0.07466
 H672 H 0.90238 0.39539 0.32954
 H673 H 0.96079 0.41211 0.29575
 H674 H 0.89576 0.30910 0.24333
 H675 H 0.89325 0.34827 0.15351
   
