data_POSCAR
  _audit_creation_date              2014-09-24
  _audit_creation_method            'ToBaCCo'
  _symmetry_space_group_name_H-M    'P1'
  _symmetry_Int_Tables_number       1
  _symmetry_cell_setting            triclinic
  loop_
  _symmetry_equiv_pos_as_xyz
 x,y,z
_cell_length_a 55.6270
_cell_length_b 55.5805
_cell_length_c 19.6703
_cell_angle_alpha 89.822200
_cell_angle_beta 90.130600
_cell_angle_gamma 120.014800
loop_
  _atom_site_label
  _atom_site_type_symbol
  _atom_site_fract_x
  _atom_site_fract_y
  _atom_site_fract_z
O1 O 0.20706 0.46061 0.43261
 O2 O 0.25351 0.46091 0.56737
 O3 O 0.20662 0.46108 0.56518
 O4 O 0.25411 0.46088 0.43472
 O5 O 0.27701 0.50680 0.43466
 O6 O 0.22957 0.50699 0.56384
 O7 O 0.27664 0.50679 0.56556
 O8 O 0.22989 0.50652 0.43273
 Cu9 Cu 0.22802 0.45624 0.50011
 Cu10 Cu 0.25556 0.51136 0.49922
 C11 C 0.21039 0.48357 0.41047
 C12 C 0.27334 0.48393 0.58847
 C13 C 0.20981 0.48414 0.58582
 C14 C 0.27386 0.48389 0.41322
 O15 O 0.53964 -0.20503 0.56632
 O16 O 0.53989 -0.25288 0.43686
 O17 O 0.53980 -0.20598 0.43365
 O18 O 0.53972 -0.25197 0.56947
 O19 O 0.49388 -0.27503 0.56839
 O20 O 0.49393 -0.22912 0.43370
 O21 O 0.49402 -0.27605 0.43748
 O22 O 0.49380 -0.22780 0.56468
 Cu23 Cu 0.54438 -0.22664 0.50168
 Cu24 Cu 0.48932 -0.25430 0.50116
 C25 C 0.51664 -0.20797 0.58661
 C26 C 0.51694 -0.27283 0.41589
 C27 C 0.51680 -0.20960 0.41120
 C28 C 0.51673 -0.27169 0.59114
 O29 O 1.20602 0.74650 0.56478
 O30 O 1.25317 0.79351 0.43227
 O31 O 1.20637 0.74632 0.43221
 O32 O 1.25293 0.79352 0.56496
 O33 O 1.27593 0.77063 0.56558
 O34 O 1.22955 0.72362 0.43373
 O35 O 1.27651 0.77100 0.43463
 O36 O 1.22894 0.72353 0.56481
 Cu37 Cu 1.22730 0.77226 0.49840
 Cu38 Cu 1.25504 0.74492 0.49974
 C39 C 1.20926 0.72676 0.58653
 C40 C 1.27320 0.79056 0.41178
 C41 C 1.20985 0.72668 0.41121
 C42 C 1.27258 0.79025 0.58714
 O43 O 0.79277 0.53895 0.43626
 O44 O 0.74522 0.53976 0.56567
 O45 O 0.79181 0.53919 0.56876
 O46 O 0.74603 0.53943 0.43301
 O47 O 0.72288 0.49351 0.43398
 O48 O 0.76831 0.49328 0.56931
 O49 O 0.72155 0.49389 0.56491
 O50 O 0.76971 0.49305 0.43834
 Cu51 Cu 0.77130 0.54396 0.50079
 Cu52 Cu 0.74328 0.48884 0.50171
 C53 C 0.78959 0.51582 0.41625
 C54 C 0.72498 0.51692 0.58650
 C55 C 0.78801 0.51612 0.59141
 C56 C 0.72642 0.51644 0.41115
 O57 O 0.46014 0.20761 0.56836
 O58 O 0.46076 0.25426 0.43349
 O59 O 0.46064 0.20717 0.43571
 O60 O 0.46073 0.25484 0.56603
 O61 O 0.50661 0.27753 0.56600
 O62 O 0.50651 0.22990 0.43695
 O63 O 0.50663 0.27708 0.43496
 O64 O 0.50599 0.23009 0.56790
 Cu65 Cu 0.45595 0.22867 0.50080
 Cu66 Cu 0.51102 0.25592 0.50152
 C67 C 0.48300 0.21064 0.59031
 C68 C 0.48385 0.27389 0.41217
 C69 C 0.48363 0.21023 0.41500
 C70 C 0.48376 0.27454 0.58739
 O71 O 0.74989 0.20088 0.44451
 O72 O 0.79463 0.25137 0.57374
 O73 O 0.74773 0.20549 0.57477
 O74 O 0.79820 0.24829 0.44334
 O75 O 0.77542 0.27087 0.42590
 O76 O 0.72530 0.22848 0.55848
 O77 O 0.77333 0.27539 0.55676
 O78 O 0.72847 0.22482 0.42750
 Cu79 Cu 0.77486 0.22411 0.50997
 Cu80 Cu 0.74840 0.25225 0.49095
 C81 C 0.73129 0.20399 0.41498
 C82 C 0.79183 0.27219 0.58672
 C83 C 0.72778 0.20957 0.58853
 C84 C 0.79565 0.26713 0.41316
 N85 N 0.97034 0.52717 0.07600
 N86 N 0.95005 0.53236 0.08864
 N87 N 1.02908 0.53945 0.11918
 N88 N 1.04993 0.55284 0.16185
 N89 N 1.02858 0.55661 0.07392
 N90 N 1.04889 0.58225 0.08510
 N91 N 0.97052 0.50983 0.12128
 N92 N 0.95017 0.50247 0.16540
 C93 C 0.93760 0.51666 0.14434
 C94 C 1.06207 0.57946 0.13990
 N95 N 1.02883 0.47086 0.06967
 N96 N 1.04936 0.46569 0.07933
 N97 N 0.97112 0.45818 0.11940
 N98 N 0.95259 0.44380 0.16666
 N99 N 0.97032 0.44174 0.07055
 N100 N 0.95083 0.41581 0.08251
 N101 N 1.02933 0.48794 0.11635
 N102 N 1.05030 0.49515 0.15842
 Mn103 Mn 1.00001 0.49887 0.11976
 C104 C 1.06259 0.48116 0.13474
 C105 C 0.93989 0.41753 0.14241
 N106 N 1.02786 0.55737 -0.07296
 N107 N 1.04833 0.58303 -0.08363
 N108 N 0.96932 0.51116 -0.11812
 N109 N 0.94833 0.50389 -0.16018
 N110 N 0.96956 0.52799 -0.07108
 N111 N 0.94892 0.53299 -0.08050
 N112 N 1.02783 0.54055 -0.11974
 N113 N 1.04840 0.55414 -0.16293
 Mn114 Mn 0.99907 0.54259 0.00150
 C115 C 1.06098 0.58056 -0.13982
 C116 C 0.93584 0.51764 -0.13611
 N117 N 0.96970 0.44241 -0.07586
 N118 N 0.94920 0.41685 -0.08696
 N119 N 1.02794 0.48894 -0.12257
 N120 N 1.04845 0.49639 -0.16622
 N121 N 1.02799 0.47158 -0.07724
 N122 N 1.04835 0.46645 -0.08929
 N123 N 0.96936 0.45963 -0.12113
 N124 N 0.94845 0.44640 -0.16374
 Mn125 Mn 0.99920 0.45634 -0.00322
 Mn126 Mn 0.99862 0.50009 -0.12111
 Cl127 Cl 0.99921 0.49946 -0.00075
 C128 C 0.93607 0.41978 -0.14174
 C129 C 1.06097 0.48221 -0.14476
 N130 N 0.47215 0.44350 0.07107
 N131 N 0.46693 0.41784 0.08183
 N132 N 0.46008 0.48962 0.11885
 N133 N 0.44677 0.49672 0.16249
 N134 N 0.44294 0.47258 0.07282
 N135 N 0.41736 0.46731 0.08442
 N136 N 0.48943 0.46043 0.11706
 N137 N 0.49675 0.44690 0.15974
 C138 C 0.48261 0.42041 0.13713
 C139 C 0.42020 0.48266 0.14035
 N140 N 0.52874 0.55860 0.07296
 N141 N 0.53402 0.58418 0.08493
 N142 N 0.54098 0.51212 0.11699
 N143 N 0.55449 0.50465 0.15932
 N144 N 0.55788 0.52946 0.07097
 N145 N 0.58351 0.53458 0.08134
 N146 N 0.51169 0.54135 0.11891
 N147 N 0.50461 0.55459 0.16282
 Mn148 Mn 0.50054 0.50088 0.11866
 C149 C 0.51866 0.58124 0.14098
 C150 C 0.58092 0.51879 0.13645
 N151 N 0.44245 0.47310 -0.07410
 N152 N 0.41675 0.46769 -0.08480
 N153 N 0.48864 0.46129 -0.12205
 N154 N 0.49587 0.44804 -0.16556
 N155 N 0.47169 0.44409 -0.07588
 N156 N 0.46661 0.41855 -0.08726
 N157 N 0.45932 0.49055 -0.12001
 N158 N 0.44570 0.49782 -0.16254
 Mn159 Mn 0.45701 0.45801 -0.00153
 C160 C 0.41923 0.48344 -0.13992
 C161 C 0.48199 0.42145 -0.14320
 N162 N 0.55745 0.53002 -0.07604
 N163 N 0.58301 0.53523 -0.08772
 N164 N 0.51096 0.54227 -0.11995
 N165 N 0.50353 0.55589 -0.16213
 N166 N 0.52832 0.55913 -0.07397
 N167 N 0.53353 0.58480 -0.08424
 N168 N 0.54028 0.51299 -0.12205
 N169 N 0.55354 0.50579 -0.16562
 Mn170 Mn 0.54341 0.54460 -0.00152
 Mn171 Mn 0.49980 0.50178 -0.12176
 Cl172 Cl 0.50019 0.50132 -0.00155
 C173 C 0.58013 0.51981 -0.14359
 C174 C 0.51776 0.58234 -0.13919
 N175 N 0.44181 -0.02934 0.07369
 N176 N 0.41615 -0.04959 0.08516
 N177 N 0.48829 0.02870 0.12129
 N178 N 0.49569 0.04914 0.16513
 N179 N 0.47106 0.02892 0.07581
 N180 N 0.46596 0.04930 0.08806
 N181 N 0.45894 -0.02991 0.11885
 N182 N 0.44552 -0.05077 0.16163
 C183 C 0.41891 -0.06284 0.13993
 C184 C 0.48160 0.06176 0.14372
 N185 N 0.55665 0.02951 0.07118
 N186 N 0.58249 0.04912 0.08352
 N187 N 0.51062 -0.02979 0.11631
 N188 N 0.50346 -0.05085 0.15815
 N189 N 0.52787 -0.02904 0.06975
 N190 N 0.53320 -0.04947 0.07925
 N191 N 0.54005 0.02847 0.11990
 N192 N 0.55421 0.04695 0.16739
 Mn193 Mn 0.49944 -0.00064 0.11979
 C194 C 0.58054 0.05989 0.14349
 C195 C 0.51766 -0.06292 0.13442
 N196 N 0.47048 0.02993 -0.07136
 N197 N 0.46528 0.05044 -0.08122
 N198 N 0.45823 -0.02829 -0.11983
 N199 N 0.44474 -0.04889 -0.16296
 N200 N 0.44135 -0.02840 -0.07314
 N201 N 0.41575 -0.04891 -0.08378
 N202 N 0.48742 0.03028 -0.11823
 N203 N 0.49461 0.05125 -0.16047
 Mn204 Mn 0.45588 0.00030 0.00128
 C205 C 0.48067 0.06360 -0.13681
 C206 C 0.41833 -0.06153 -0.13986
 N207 N 0.52740 -0.02806 -0.07712
 N208 N 0.53287 -0.04820 -0.08944
 N209 N 0.53900 0.03045 -0.12085
 N210 N 0.55217 0.05159 -0.16301
 N211 N 0.55616 0.03027 -0.07522
 N212 N 0.58159 0.05112 -0.08551
 N213 N 0.50995 -0.02818 -0.12237
 N214 N 0.50274 -0.04862 -0.16614
 Mn215 Mn 0.54232 0.00069 -0.00286
 Mn216 Mn 0.49863 0.00104 -0.12105
 Cl217 Cl 0.49908 0.00036 -0.00069
 C218 C 0.51718 -0.06090 -0.14490
 C219 C 0.57866 0.06426 -0.14027
 C220 C 1.15219 0.48386 0.27629
 N221 N 1.15329 0.46024 0.28642
 N222 N 1.17221 0.46018 0.32810
 C223 C 1.19084 0.48379 0.36057
 N224 N 1.18998 0.50746 0.34952
 N225 N 1.17094 0.50745 0.30844
 C226 C 1.12992 0.48365 0.23564
 N227 N 1.12381 0.50424 0.24363
 N228 N 1.10258 0.50351 0.21050
 C229 C 1.08685 0.48235 0.16747
 N230 N 1.09313 0.46189 0.15855
 N231 N 1.11422 0.46244 0.19241
 C232 C 0.51659 0.66761 0.28606
 N233 N 0.54003 0.69263 0.29405
 N234 N 0.54013 0.71187 0.33459
 C235 C 0.51671 0.70687 0.36796
 N236 N 0.49322 0.68200 0.35917
 N237 N 0.49320 0.66269 0.31926
 C238 C 0.51674 0.64554 0.24555
 N239 N 0.49649 0.61873 0.25460
 N240 N 0.49706 0.59834 0.22065
 C241 C 0.51772 0.60403 0.17578
 N242 N 0.53785 0.63087 0.16598
 N243 N 0.53745 0.65127 0.20060
 C244 C 0.33160 -0.15163 0.28279
 N245 N 0.33504 -0.17218 0.31001
 N246 N 0.31568 -0.19139 0.35022
 C247 C 0.29230 -0.19057 0.36555
 N248 N 0.28877 -0.17011 0.33788
 N249 N 0.30800 -0.15108 0.29694
 C250 C 0.35388 -0.12944 0.24247
 N251 N 0.34873 -0.11297 0.20088
 N252 N 0.36936 -0.09209 0.16680
 C253 C 0.39587 -0.08673 0.17392
 N254 N 0.40099 -0.10318 0.21547
 N255 N 0.38035 -0.12426 0.24878
 C256 C 0.84909 0.51480 0.28876
 N257 N 0.84743 0.53825 0.29518
 N258 N 0.82817 0.53853 0.33491
 C259 C 0.80970 0.51527 0.36898
 N260 N 0.81114 0.49175 0.36178
 N261 N 0.83056 0.49155 0.32267
 C262 C 0.87138 0.51483 0.24879
 N263 N 0.87802 0.49467 0.25869
 N264 N 0.89901 0.49520 0.22495
 C265 C 0.91394 0.51574 0.17951
 N266 N 0.90714 0.53576 0.16896
 N267 N 0.88632 0.53541 0.20331
 C268 C 0.48480 0.33326 0.27961
 N269 N 0.46120 0.30842 0.28827
 N270 N 0.46095 0.28917 0.32939
 C271 C 0.48436 0.29398 0.36272
 N272 N 0.50802 0.31865 0.35317
 N273 N 0.50820 0.33797 0.31265
 C274 C 0.48475 0.35549 0.23918
 N275 N 0.50520 0.38222 0.24801
 N276 N 0.50459 0.40279 0.21472
 C277 C 0.48367 0.39739 0.17074
 N278 N 0.46336 0.37063 0.16109
 N279 N 0.46380 0.35004 0.19507
 C280 C 0.67151 0.14251 0.29024
 N281 N 0.68174 0.13563 0.34498
 N282 N 0.70170 0.15530 0.38302
 C283 C 0.71178 0.18257 0.36837
 N284 N 0.70150 0.18947 0.31369
 N285 N 0.68193 0.16977 0.27482
 C286 C 0.64827 0.12089 0.25142
 N287 N 0.64733 0.12236 0.18262
 N288 N 0.62586 0.10274 0.14791
 C289 C 0.60434 0.08138 0.18101
 N290 N 0.60518 0.08008 0.24978
 N291 N 0.62688 0.09936 0.28433
 C292 C 0.48294 0.15321 -0.27784
 N293 N 0.50705 0.17373 -0.30436
 N294 N 0.50711 0.19285 -0.34542
 C295 C 0.48299 0.19195 -0.36236
 N296 N 0.45886 0.17154 -0.33530
 N297 N 0.45885 0.15260 -0.29351
 C298 C 0.48284 0.13093 -0.23735
 N299 N 0.46111 0.11439 -0.19629
 N300 N 0.46066 0.09331 -0.16256
 C301 C 0.48174 0.08783 -0.16956
 N302 N 0.50342 0.10438 -0.21051
 N303 N 0.50406 0.12565 -0.24341
 C304 C 0.66672 0.51732 -0.28639
 N305 N 0.69050 0.54132 -0.30087
 N306 N 0.70964 0.54120 -0.34132
 C307 C 0.70585 0.51703 -0.36813
 N308 N 0.68228 0.49300 -0.35252
 N309 N 0.66301 0.49317 -0.31283
 C310 C 0.64460 0.51756 -0.24636
 N311 N 0.61798 0.49659 -0.25297
 N312 N 0.59752 0.49728 -0.21967
 C313 C 0.60297 0.51877 -0.17780
 N314 N 0.62963 0.53961 -0.17041
 N315 N 0.65008 0.53911 -0.20450
 C316 C 0.84762 0.33226 -0.28441
 N317 N 0.84724 0.30781 -0.29177
 N318 N 0.82880 0.28815 -0.33268
 C319 C 0.80985 0.29206 -0.36725
 N320 N 0.80990 0.31634 -0.35882
 N321 N 0.82856 0.33614 -0.31849
 C322 C 0.86942 0.35475 -0.24380
 N323 N 0.88479 0.34945 -0.19887
 N324 N 0.90565 0.37011 -0.16500
 C325 C 0.91208 0.39682 -0.17553
 N326 N 0.89668 0.40211 -0.22028
 N327 N 0.87564 0.38144 -0.25355
 C328 C 0.51595 -0.14946 -0.28769
 N329 N 0.49198 -0.17015 -0.31435
 N330 N 0.49216 -0.18956 -0.35354
 C331 C 0.51636 -0.18881 -0.36837
 N332 N 0.54034 -0.16818 -0.34132
 N333 N 0.54011 -0.14896 -0.30138
 C334 C 0.51584 -0.12718 -0.24795
 N335 N 0.53728 -0.11092 -0.20590
 N336 N 0.53749 -0.09010 -0.17189
 C337 C 0.51646 -0.08457 -0.17954
 N338 N 0.49507 -0.10079 -0.22163
 N339 N 0.49468 -0.12183 -0.25487
 C340 C 0.33152 0.48473 -0.28132
 N341 N 0.33488 0.50872 -0.30833
 N342 N 0.31555 0.50850 -0.34882
 C343 C 0.29230 0.48423 -0.36466
 N344 N 0.28883 0.46024 -0.33713
 N345 N 0.30802 0.46050 -0.29591
 C346 C 0.35388 0.48490 -0.24112
 N347 N 0.34885 0.46328 -0.19964
 N348 N 0.36957 0.46306 -0.16590
 C349 C 0.39606 0.48426 -0.17329
 N350 N 0.40106 0.50583 -0.21471
 N351 N 0.38033 0.50623 -0.24766
 C352 C 1.15034 0.66746 -0.28209
 N353 N 1.16897 0.66262 -0.31472
 N354 N 1.18822 0.68189 -0.35496
 C355 C 1.18941 0.70664 -0.36466
 N356 N 1.17087 0.71159 -0.33177
 N357 N 1.15176 0.69239 -0.29091
 C358 C 1.12799 0.64530 -0.24185
 N359 N 1.11272 0.65088 -0.19749
 N360 N 1.09169 0.63034 -0.16352
 C361 C 1.08502 0.60354 -0.17345
 N362 N 1.10030 0.59802 -0.21769
 N363 N 1.12148 0.61853 -0.25095
 C364 C 0.84592 0.51515 -0.27499
 N365 N 0.84502 0.53889 -0.28475
 N366 N 0.82613 0.53916 -0.32611
 C367 C 0.80732 0.51563 -0.35854
 N368 N 0.80796 0.49183 -0.34779
 N369 N 0.82699 0.49163 -0.30705
 C370 C 0.86824 0.51520 -0.23506
 N371 N 0.87445 0.49474 -0.24422
 N372 N 0.89580 0.49543 -0.21181
 C373 C 0.91154 0.51644 -0.16843
 N374 N 0.90515 0.53676 -0.15836
 N375 N 0.88395 0.53624 -0.19150
 C376 C 0.48443 0.33453 -0.28413
 N377 N 0.46093 0.30953 -0.29173
 N378 N 0.46075 0.29011 -0.33168
 C379 C 0.48416 0.29490 -0.36475
 N380 N 0.50772 0.31973 -0.35627
 N381 N 0.50782 0.33923 -0.31697
 C382 C 0.48428 0.35680 -0.24466
 N383 N 0.50441 0.38359 -0.25473
 N384 N 0.50373 0.40413 -0.22185
 C385 C 0.48307 0.39861 -0.17712
 N386 N 0.46308 0.37180 -0.16632
 N387 N 0.46358 0.35124 -0.19987
 C388 C 0.66625 0.15381 -0.27971
 N389 N 0.66158 0.17097 -0.31991
 N390 N 0.68153 0.18948 -0.36020
 C391 C 0.70679 0.19133 -0.36214
 N392 N 0.71153 0.17433 -0.32154
 N393 N 0.69167 0.15600 -0.28080
 C394 C 0.64366 0.13186 -0.23975
 N395 N 0.64901 0.11737 -0.19225
 N396 N 0.62830 0.09618 -0.15925
 C397 C 0.60153 0.08858 -0.17320
 N398 N 0.59618 0.10314 -0.22041
 N399 N 0.61688 0.12447 -0.25292
 C400 C 1.15027 0.48476 -0.28639
 N401 N 1.15187 0.46130 -0.29339
 N402 N 1.17120 0.46115 -0.33309
 C403 C 1.18977 0.48454 -0.36652
 N404 N 1.18839 0.50807 -0.35867
 N405 N 1.16892 0.50814 -0.31960
 C406 C 1.12782 0.48457 -0.24694
 N407 N 1.12120 0.50474 -0.25692
 N408 N 1.09999 0.50404 -0.22388
 C409 C 1.08483 0.48331 -0.17911
 N410 N 1.09160 0.46328 -0.16844
 N411 N 1.11264 0.46380 -0.20211
 C412 C 0.51601 0.67025 -0.27832
 N413 N 0.54022 0.69373 -0.29322
 N414 N 0.54046 0.71293 -0.33445
 C415 C 0.51646 0.70948 -0.36166
 N416 N 0.49221 0.68626 -0.34543
 N417 N 0.49202 0.66693 -0.30492
 C418 C 0.51590 0.64784 -0.23854
 N419 N 0.53754 0.65283 -0.19737
 N420 N 0.53788 0.63204 -0.16422
 C421 C 0.51678 0.60552 -0.17195
 N422 N 0.49518 0.60055 -0.21305
 N423 N 0.49466 0.62136 -0.24540
 C424 C 0.33155 -0.15099 -0.28121
 N425 N 0.33636 -0.16971 -0.31344
 N426 N 0.31716 -0.18894 -0.35371
 C427 C 0.29252 -0.18999 -0.36384
 N428 N 0.28758 -0.17137 -0.33132
 N429 N 0.30672 -0.15228 -0.29041
 C430 C 0.35368 -0.12863 -0.24118
 N431 N 0.34812 -0.11329 -0.19703
 N432 N 0.36865 -0.09222 -0.16330
 C433 C 0.39542 -0.08558 -0.17331
 N434 N 0.40092 -0.10093 -0.21734
 N435 N 0.38042 -0.12216 -0.25036
 C436 C 0.51586 -0.15215 0.27558
 N437 N 0.49232 -0.17113 0.30752
 N438 N 0.49255 -0.18997 0.34902
 C439 C 0.51639 -0.19035 0.36071
 N440 N 0.53996 -0.17150 0.32841
 N441 N 0.53967 -0.15279 0.28631
 C442 C 0.51580 -0.13004 0.23483
 N443 N 0.53704 -0.11405 0.19193
 N444 N 0.53738 -0.09303 0.15817
 C445 C 0.51667 -0.08712 0.16690
 N446 N 0.49547 -0.10315 0.20958
 N447 N 0.49496 -0.12432 0.24261
 C448 C 0.33344 0.48455 0.28330
 N449 N 0.30855 0.46097 0.29159
 N450 N 0.28925 0.46077 0.33207
 C451 C 0.29408 0.48422 0.36502
 N452 N 0.31880 0.50784 0.35586
 N453 N 0.33817 0.50797 0.31603
 C454 C 0.35562 0.48449 0.24325
 N455 N 0.38235 0.50482 0.25258
 N456 N 0.40285 0.50428 0.21917
 C457 C 0.39735 0.48358 0.17461
 N458 N 0.37059 0.46338 0.16452
 N459 N 0.35007 0.46374 0.19861
 C460 C 1.15124 0.66682 0.28087
 N461 N 1.17008 0.66229 0.31379
 N462 N 1.18928 0.68178 0.35362
 C463 C 1.19019 0.70642 0.36253
 N464 N 1.17145 0.71105 0.32932
 N465 N 1.15239 0.69164 0.28888
 C466 C 1.12895 0.64448 0.24109
 N467 N 1.11335 0.64983 0.19703
 N468 N 1.09235 0.62917 0.16347
 C469 C 1.08603 0.60245 0.17352
 N470 N 1.10163 0.59714 0.21747
 N471 N 1.12280 0.61779 0.25037
 C472 C 0.48408 0.15079 0.28655
 N473 N 0.50745 0.16936 0.31979
 N474 N 0.50742 0.18878 0.35912
 C475 C 0.48394 0.19020 0.36722
 N476 N 0.46055 0.17170 0.33377
 N477 N 0.46067 0.15243 0.29380
 C478 C 0.48389 0.12840 0.24681
 N479 N 0.46318 0.11335 0.20185
 N480 N 0.46268 0.09238 0.16786
 C481 C 0.48267 0.08556 0.17835
 N482 N 0.50333 0.10060 0.22326
 N483 N 0.50401 0.12173 0.25660
 C484 C 0.66781 0.51600 0.27743
 N485 N 0.66303 0.49243 0.30986
 N486 N 0.68216 0.49247 0.35068
 C487 C 0.70670 0.51615 0.36114
 N488 N 0.71161 0.53973 0.32836
 N489 N 0.69255 0.53962 0.28693
 C490 C 0.64569 0.51619 0.23717
 N491 N 0.65117 0.53736 0.19365
 N492 N 0.63062 0.53795 0.16003
 C493 C 0.60389 0.51756 0.16951
 N494 N 0.59846 0.49643 0.21287
 N495 N 0.61899 0.49567 0.24578
 C496 C 0.85738 0.32587 0.28733
 N497 N 0.86408 0.31550 0.34211
 N498 N 0.84428 0.29571 0.38032
 C499 C 0.81710 0.28597 0.36576
 N500 N 0.81039 0.29635 0.31098
 N501 N 0.83020 0.31575 0.27195
 C502 C 0.87908 0.34918 0.24895
 N503 N 0.87770 0.35039 0.18020
 N504 N 0.89728 0.37207 0.14593
 C505 C 0.91847 0.39354 0.17946
 N506 N 0.91968 0.39243 0.24819
 N507 N 0.90044 0.37052 0.28229
   
