data_POSCAR
  _audit_creation_date              2014-09-24
  _audit_creation_method            'ToBaCCo'
  _symmetry_space_group_name_H-M    'P1'
  _symmetry_Int_Tables_number       1
  _symmetry_cell_setting            triclinic
  loop_
  _symmetry_equiv_pos_as_xyz
 x,y,z
_cell_length_a 31.3222
_cell_length_b 31.0049
_cell_length_c 31.2049
_cell_angle_alpha 88.092300
_cell_angle_beta 89.328900
_cell_angle_gamma 91.652900
loop_
  _atom_site_label
  _atom_site_type_symbol
  _atom_site_fract_x
  _atom_site_fract_y
  _atom_site_fract_z
C1 C 0.23930 0.27438 0.21029
 C2 C 0.27042 0.27184 0.17786
 C3 C 0.30103 0.23972 0.18016
 C4 C 0.29915 0.20848 0.21369
 C5 C 0.26809 0.21049 0.24625
 C6 C 0.23870 0.24422 0.24516
 C7 C 0.20973 0.30744 0.20916
 C8 C 0.18173 0.31302 0.24402
 C9 C 0.18127 0.28276 0.27868
 C10 C 0.20907 0.24807 0.27918
 C11 C 0.20810 0.21738 0.31330
 C12 C 0.23632 0.18309 0.31359
 C13 C 0.26649 0.17995 0.28038
 H14 H 0.27215 0.29587 0.15180
 H15 H 0.32286 0.18370 0.21517
 H16 H 0.20923 0.32964 0.18160
 H17 H 0.15947 0.28646 0.30546
 H18 H 0.18514 0.21971 0.33934
 H19 H 0.28853 0.15361 0.28120
 C20 C 0.77157 -0.26486 0.20947
 C21 C 0.74119 -0.26178 0.17681
 C22 C 0.70679 -0.23340 0.17967
 C23 C 0.70338 -0.20867 0.21667
 C24 C 0.73438 -0.21016 0.24857
 C25 C 0.76823 -0.23889 0.24539
 C26 C 0.80552 -0.29320 0.20642
 C27 C 0.83599 -0.29705 0.23937
 C28 C 0.83129 -0.27145 0.27567
 C29 C 0.79874 -0.24154 0.27817
 C30 C 0.79651 -0.21376 0.31269
 C31 C 0.76413 -0.18355 0.31454
 C32 C 0.73242 -0.18277 0.28329
 H33 H 0.74507 -0.28089 0.14865
 H34 H 0.67597 -0.18873 0.22135
 H35 H 0.80857 -0.31159 0.17767
 H36 H 0.85228 -0.27545 0.30278
 H37 H 0.82071 -0.21440 0.33726
 H38 H 0.70731 -0.15951 0.28518
 C39 C 0.74232 0.28203 0.77263
 C40 C 0.70938 0.28430 0.80316
 C41 C 0.67172 0.25836 0.80076
 C42 C 0.66927 0.22774 0.76822
 C43 C 0.70278 0.22402 0.73835
 C44 C 0.73926 0.25163 0.74031
 C45 C 0.77844 0.30966 0.77428
 C46 C 0.81194 0.30781 0.74378
 C47 C 0.80829 0.27726 0.71140
 C48 C 0.77277 0.24868 0.71006
 C49 C 0.77036 0.21700 0.67908
 C50 C 0.73490 0.18830 0.67793
 C51 C 0.70057 0.19293 0.70669
 H52 H 0.71373 0.30581 0.82953
 H53 H 0.64086 0.20732 0.76533
 H54 H 0.78071 0.33232 0.79995
 H55 H 0.83247 0.27648 0.68632
 H56 H 0.79653 0.21391 0.65643
 H57 H 0.67268 0.17155 0.70498
 C58 C 0.25876 -0.29235 0.79460
 C59 C 0.29311 -0.29439 0.82303
 C60 C 0.32569 -0.26231 0.82121
 C61 C 0.32453 -0.22857 0.79021
 C62 C 0.29077 -0.22638 0.76122
 C63 C 0.25729 -0.25789 0.76394
 C64 C 0.22562 -0.32386 0.79657
 C65 C 0.18969 -0.31988 0.77016
 C66 C 0.18858 -0.28544 0.73969
 C67 C 0.22244 -0.25500 0.73585
 C68 C 0.22232 -0.22208 0.70394
 C69 C 0.25659 -0.19203 0.69980
 C70 C 0.29007 -0.19348 0.72930
 H71 H 0.29426 -0.32038 0.84708
 H72 H 0.35001 -0.20411 0.78877
 H73 H 0.22684 -0.35046 0.81996
 H74 H 0.16182 -0.28315 0.71806
 H75 H 0.19618 -0.22043 0.68152
 H76 H 0.31603 -0.16960 0.72655
 C77 C 0.75867 -0.28764 0.77918
 C78 C 0.72931 -0.28712 0.81348
 C79 C 0.69805 -0.25570 0.81431
 C80 C 0.69586 -0.22470 0.78076
 C81 C 0.72481 -0.22491 0.74624
 C82 C 0.75614 -0.25674 0.74519
 C83 C 0.79121 -0.31775 0.77900
 C84 C 0.82136 -0.31815 0.74493
 C85 C 0.81648 -0.28878 0.70983
 C86 C 0.78530 -0.25724 0.71047
 C87 C 0.78356 -0.22538 0.67753
 C88 C 0.75339 -0.19293 0.67944
 C89 C 0.72369 -0.19315 0.71334
 H90 H 0.73106 -0.31063 0.83986
 H91 H 0.67183 -0.20025 0.78191
 H92 H 0.79403 -0.33958 0.80660
 H93 H 0.83699 -0.29034 0.68175
 H94 H 0.80654 -0.22478 0.65124
 H95 H 0.70053 -0.16787 0.71455
 C96 C 0.23775 0.26738 0.79018
 C97 C 0.27008 0.26624 0.82079
 C98 C 0.30006 0.23353 0.82072
 C99 C 0.29801 0.20189 0.78966
 C100 C 0.26595 0.20271 0.75865
 C101 C 0.23557 0.23551 0.75892
 C102 C 0.20795 0.30021 0.78990
 C103 C 0.17616 0.30161 0.75873
 C104 C 0.17370 0.26985 0.72782
 C105 C 0.20332 0.23677 0.72762
 C106 C 0.20177 0.20533 0.69632
 C107 C 0.23208 0.17293 0.69598
 C108 C 0.26398 0.17162 0.72710
 H109 H 0.27206 0.29072 0.84477
 H110 H 0.32155 0.17693 0.78961
 H111 H 0.20976 0.32515 0.81343
 H112 H 0.14919 0.27146 0.70361
 H113 H 0.17731 0.20611 0.67203
 H114 H 0.28729 0.14644 0.72649
 C115 C 0.26269 -0.27722 0.22185
 C116 C 0.29720 -0.27829 0.19298
 C117 C 0.32919 -0.24522 0.19135
 C118 C 0.32524 -0.21042 0.21905
 C119 C 0.29147 -0.20953 0.24889
 C120 C 0.25960 -0.24262 0.24976
 C121 C 0.23153 -0.31064 0.22370
 C122 C 0.19629 -0.30884 0.25178
 C123 C 0.19263 -0.27367 0.27867
 C124 C 0.22489 -0.24137 0.27895
 C125 C 0.22390 -0.20878 0.30899
 C126 C 0.25711 -0.17749 0.31012
 C127 C 0.28966 -0.17674 0.27872
 H128 H 0.29973 -0.30575 0.17256
 H129 H 0.34814 -0.18351 0.21703
 H130 H 0.23410 -0.33767 0.20271
 H131 H 0.16569 -0.27260 0.30073
 H132 H 0.19837 -0.20881 0.33276
 H133 H 0.31469 -0.15185 0.27907
 C134 C 0.74781 0.29319 0.20903
 C135 C 0.71483 0.29556 0.17911
 C136 C 0.68152 0.26426 0.17994
 C137 C 0.68155 0.23004 0.21056
 C138 C 0.71459 0.22695 0.24035
 C139 C 0.74807 0.25845 0.23938
 C140 C 0.78023 0.32528 0.20939
 C141 C 0.81295 0.32353 0.23997
 C142 C 0.81422 0.28739 0.26851
 C143 C 0.78167 0.25535 0.26891
 C144 C 0.78172 0.22071 0.29899
 C145 C 0.74834 0.18942 0.30033
 C146 C 0.71457 0.19307 0.27128
 H147 H 0.71477 0.32183 0.15529
 H148 H 0.65577 0.20591 0.21107
 H149 H 0.78012 0.35167 0.18569
 H150 H 0.83937 0.28532 0.29203
 H151 H 0.80755 0.21817 0.32169
 H152 H 0.68831 0.16949 0.27289
 O153 O 0.27571 0.04439 0.46446
 O154 O 0.28566 -0.04219 0.54721
 O155 O 0.28641 -0.03798 0.46304
 O156 O 0.27514 0.04046 0.54815
 O157 O 0.20521 0.02954 0.54812
 O158 O 0.21680 -0.05027 0.46419
 O159 O 0.21580 -0.05328 0.54764
 O160 O 0.20587 0.03242 0.46412
 Cu161 Cu 0.28773 0.00231 0.50574
 Cu162 Cu 0.20389 -0.01139 0.50607
 C163 C 0.23916 0.05240 0.44949
 C164 C 0.25248 -0.06265 0.56152
 C165 C 0.25363 -0.05784 0.44918
 C166 C 0.23831 0.04793 0.56307
 O167 O 0.77675 0.04923 0.53666
 O168 O 0.78901 -0.03365 0.45617
 O169 O 0.78120 0.04957 0.45319
 O170 O 0.78531 -0.03412 0.53915
 O171 O 0.71525 -0.04338 0.53682
 O172 O 0.71101 0.04039 0.45051
 O173 O 0.71893 -0.04261 0.45367
 O174 O 0.70655 0.03997 0.53470
 Cu175 Cu 0.79009 0.00879 0.49659
 Cu176 Cu 0.70583 -0.00216 0.49378
 C177 C 0.73965 0.05835 0.54962
 C178 C 0.75606 -0.05189 0.44078
 C179 C 0.74554 0.05873 0.43687
 C180 C 0.75103 -0.05294 0.55277
 O181 O 0.45023 0.28381 0.03896
 O182 O 0.52829 0.29107 -0.04999
 O183 O 0.44588 0.28096 -0.04363
 O184 O 0.53297 0.29498 0.03336
 O185 O 0.53704 0.22445 0.04084
 O186 O 0.45489 0.21061 -0.04130
 O187 O 0.53851 0.22144 -0.04276
 O188 O 0.45474 0.21283 0.04170
 Cu189 Cu 0.48881 0.29478 -0.00584
 Cu190 Cu 0.49719 0.21023 -0.00017
 C191 C 0.43882 0.24713 0.05525
 C192 C 0.54778 0.25786 -0.06102
 C193 C 0.43528 0.24336 -0.05532
 C194 C 0.54902 0.26209 0.05146
 O195 O 0.55556 0.79334 0.03893
 O196 O 0.47173 0.78210 -0.04155
 O197 O 0.47257 0.78987 0.04208
 O198 O 0.55486 0.78539 -0.04258
 O199 O 0.55712 0.71468 -0.03235
 O200 O 0.47166 0.71865 0.04912
 O201 O 0.47370 0.71121 -0.03395
 O202 O 0.55440 0.72298 0.05030
 Cu203 Cu 0.51321 0.79479 -0.00175
 Cu204 Cu 0.51415 0.70971 0.00905
 C205 C 0.56909 0.76033 0.05897
 C206 C 0.45912 0.74475 -0.05233
 C207 C 0.45840 0.75497 0.06015
 C208 C 0.57101 0.74948 -0.05087
 O209 O 0.04310 0.46018 0.27591
 O210 O -0.03244 0.54947 0.27702
 O211 O -0.03998 0.46474 0.27767
 O212 O 0.04955 0.54320 0.28282
 O213 O 0.05076 0.55023 0.21206
 O214 O -0.03638 0.46782 0.20683
 O215 O -0.03168 0.55209 0.20614
 O216 O 0.04718 0.46670 0.20520
 Cu217 Cu 0.00452 0.50370 0.28542
 Cu218 Cu 0.00765 0.50953 0.20047
 C219 C 0.05873 0.44909 0.24027
 C220 C -0.04444 0.56626 0.24156
 C221 C -0.05309 0.45259 0.24165
 C222 C 0.06517 0.56031 0.24845
 O223 O 0.03842 0.53399 0.79553
 O224 O -0.04512 0.45029 0.78272
 O225 O 0.03773 0.45043 0.78875
 O226 O -0.04337 0.53431 0.78209
 O227 O -0.03439 0.53907 0.71175
 O228 O 0.04649 0.45601 0.71841
 O229 O -0.03609 0.45428 0.71230
 O230 O 0.04774 0.53909 0.72516
 Cu231 Cu -0.00408 0.49170 0.79428
 Cu232 Cu 0.00666 0.49766 0.70985
 C233 C 0.05725 0.55079 0.76263
 C234 C -0.05457 0.43775 0.74570
 C235 C 0.05630 0.43940 0.75450
 C236 C -0.05218 0.55138 0.74575
 C237 C 0.37174 0.21467 0.08626
 C238 C 0.33804 0.21324 0.11596
 C239 C 0.33771 0.24155 0.14994
 C240 C 0.37267 0.27081 0.15511
 C241 C 0.40715 0.27198 0.12522
 C242 C 0.40600 0.24443 0.08980
 C243 C 0.44226 0.29993 0.13263
 N244 N 0.44206 0.32575 0.16685
 N245 N 0.40928 0.32527 0.19441
 C246 C 0.37466 0.29865 0.18982
 H247 H 0.37047 0.19314 0.05963
 H248 H 0.31168 0.19038 0.11202
 H249 H 0.47022 0.30085 0.11216
 H250 H 0.34927 0.29922 0.21356
 C251 C 0.62692 0.72794 0.10143
 C252 C 0.66132 0.72943 0.12910
 C253 C 0.67492 0.76819 0.14752
 C254 C 0.65355 0.80671 0.13532
 C255 C 0.61597 0.80448 0.11012
 C256 C 0.60350 0.76475 0.09144
 C257 C 0.59252 0.84246 0.10490
 N258 N 0.60877 0.88060 0.11832
 N259 N 0.64664 0.88346 0.13697
 C260 C 0.66975 0.84801 0.14544
 H261 H 0.61847 0.69718 0.08787
 H262 H 0.67602 0.69917 0.13747
 H263 H 0.56111 0.84264 0.09130
 H264 H 0.70081 0.85257 0.15958
 C265 C 0.58952 0.22284 -0.11740
 C266 C 0.61810 0.22280 -0.15187
 C267 C 0.63850 0.26113 -0.16791
 C268 C 0.62711 0.30072 -0.14926
 C269 C 0.60088 0.30032 -0.11163
 C270 C 0.58051 0.26090 -0.09638
 C271 C 0.59650 0.33972 -0.09083
 N272 N 0.61175 0.37714 -0.10967
 N273 N 0.63148 0.37799 -0.14765
 C274 C 0.63923 0.34122 -0.16826
 H275 H 0.57461 0.19230 -0.10684
 H276 H 0.62564 0.19179 -0.16453
 H277 H 0.58213 0.34162 -0.05949
 H278 H 0.65442 0.34409 -0.19954
 C279 C 0.39271 0.76975 -0.08538
 C280 C 0.36043 0.76798 -0.11556
 C281 C 0.36051 0.73709 -0.14720
 C282 C 0.39424 0.70774 -0.14892
 C283 C 0.42763 0.70985 -0.11851
 C284 C 0.42631 0.74082 -0.08592
 C285 C 0.46192 0.68188 -0.12306
 N286 N 0.46179 0.65310 -0.15485
 N287 N 0.43003 0.65061 -0.18272
 C288 C 0.39637 0.67702 -0.18096
 H289 H 0.39119 0.79380 -0.06103
 H290 H 0.33497 0.79084 -0.11413
 H291 H 0.48931 0.68300 -0.10244
 H292 H 0.37185 0.67404 -0.20488
 C293 C 0.07912 0.37361 0.25330
 C294 C 0.10880 0.34099 0.25434
 C295 C 0.15199 0.34978 0.24377
 C296 C 0.16523 0.39296 0.23223
 C297 C 0.13433 0.42542 0.22816
 C298 C 0.09121 0.41568 0.23979
 C299 C 0.14799 0.46708 0.21376
 N300 N 0.19009 0.47618 0.20653
 N301 N 0.21940 0.44647 0.21285
 C302 C 0.20851 0.40541 0.22581
 H303 H 0.04622 0.36578 0.26232
 H304 H 0.09777 0.30845 0.26324
 H305 H 0.12576 0.49272 0.20876
 H306 H 0.23394 0.38328 0.23167
 C307 C 0.13316 0.57401 0.76470
 C308 C 0.16559 0.60540 0.76806
 C309 C 0.15598 0.64903 0.77275
 C310 C 0.11251 0.66026 0.77811
 C311 C 0.07973 0.62782 0.77648
 C312 C 0.09027 0.58486 0.76799
 C313 C 0.03728 0.63941 0.78384
 N314 N 0.02831 0.68081 0.79224
 N315 N 0.05899 0.71126 0.79419
 C316 C 0.10068 0.70242 0.78775
 H317 H 0.14162 0.54100 0.75922
 H318 H 0.19840 0.59585 0.76432
 H319 H 0.01119 0.61586 0.78352
 H320 H 0.12414 0.72825 0.79131
 C321 C -0.11220 0.59863 0.22024
 C322 C -0.14100 0.63190 0.21911
 C323 C -0.13129 0.67205 0.23723
 C324 C -0.08943 0.67863 0.25426
 C325 C -0.06131 0.64348 0.25791
 C326 C -0.07327 0.60308 0.24116
 C327 C -0.02091 0.65065 0.27607
 N328 N -0.00851 0.69086 0.28741
 N329 N -0.03357 0.72439 0.28138
 C330 C -0.07313 0.71982 0.26466
 H331 H -0.12107 0.56866 0.20546
 H332 H -0.17202 0.62487 0.20566
 H333 H 0.00138 0.62499 0.28046
 H334 H -0.09076 0.74873 0.25841
 C335 C -0.12957 0.41319 0.75186
 C336 C -0.16174 0.38135 0.75276
 C337 C -0.15308 0.33800 0.74443
 C338 C -0.10970 0.32711 0.73634
 C339 C -0.07721 0.36020 0.73406
 C340 C -0.08750 0.40333 0.74206
 C341 C -0.03482 0.34871 0.72591
 N342 N -0.02529 0.30666 0.72215
 N343 N -0.05516 0.27538 0.72655
 C344 C -0.09673 0.28404 0.73406
 H345 H -0.13765 0.44603 0.75876
 H346 H -0.19408 0.39134 0.75865
 H347 H -0.00909 0.37268 0.72309
 H348 H -0.11875 0.25696 0.73958
 C349 C 0.25669 0.12526 0.41880
 C350 C 0.25565 0.15709 0.38627
 C351 C 0.23389 0.14954 0.34825
 C352 C 0.21230 0.10939 0.34294
 C353 C 0.21339 0.07686 0.37594
 C354 C 0.23568 0.08514 0.41433
 C355 C 0.19333 0.03661 0.36850
 N356 N 0.17262 0.03022 0.33121
 N357 N 0.17085 0.06114 0.30070
 C358 C 0.19000 0.10045 0.30524
 H359 H 0.27409 0.13199 0.44775
 H360 H 0.27253 0.18762 0.39049
 H361 H 0.19421 0.00995 0.39153
 H362 H 0.18772 0.12429 0.27932
 C363 C 0.74036 0.13394 0.57169
 C364 C 0.73939 0.16517 0.60275
 C365 C 0.73408 0.15345 0.64636
 C366 C 0.72955 0.10900 0.65874
 C367 C 0.72925 0.07737 0.62689
 C368 C 0.73527 0.09013 0.58323
 C369 C 0.72408 0.03366 0.63996
 N370 N 0.72072 0.02245 0.68224
 N371 N 0.72231 0.05196 0.71225
 C372 C 0.72684 0.09472 0.70203
 H373 H 0.74535 0.14402 0.53837
 H374 H 0.74319 0.19887 0.59270
 H375 H 0.72287 0.00833 0.61701
 H376 H 0.72888 0.11689 0.72793
 C377 C 0.22429 -0.09886 0.62807
 C378 C 0.22524 -0.12963 0.66153
 C379 C 0.25769 -0.15964 0.66377
 C380 C 0.28949 -0.15914 0.63101
 C381 C 0.28879 -0.12754 0.59697
 C382 C 0.25588 -0.09682 0.59574
 C383 C 0.32026 -0.12908 0.56452
 N384 N 0.35021 -0.15976 0.56631
 N385 N 0.35073 -0.18937 0.59812
 C386 C 0.32134 -0.19028 0.63035
 H387 H 0.19875 -0.07602 0.62777
 H388 H 0.20046 -0.12992 0.68608
 H389 H 0.32121 -0.10685 0.53741
 H390 H 0.32289 -0.21575 0.65471
 C391 C 0.73394 -0.12184 0.41139
 C392 C 0.73611 -0.15400 0.38143
 C393 C 0.76512 -0.15008 0.34707
 C394 C 0.79226 -0.11284 0.34243
 C395 C 0.78984 -0.07975 0.37265
 C396 C 0.76060 -0.08470 0.40780
 C397 C 0.81564 -0.04215 0.36539
 N398 N 0.84258 -0.03880 0.33104
 N399 N 0.84532 -0.07021 0.30318
 C400 C 0.82102 -0.10699 0.30759
 H401 H 0.71124 -0.12607 0.43778
 H402 H 0.71480 -0.18208 0.38490
 H403 H 0.81422 -0.01488 0.38586
 H404 H 0.82420 -0.13111 0.28359
 C405 C 0.60384 0.71610 -0.11347
 C406 C 0.63441 0.71485 -0.14612
 C407 C 0.66799 0.74558 -0.14905
 C408 C 0.67188 0.77724 -0.11758
 C409 C 0.64109 0.77827 -0.08397
 C410 C 0.60605 0.74810 -0.08282
 C411 C 0.64730 0.80880 -0.05202
 N412 N 0.68123 0.83698 -0.05461
 N413 N 0.70960 0.83651 -0.08667
 C414 C 0.70619 0.80757 -0.11815
 H415 H 0.57756 0.69256 -0.11282
 H416 H 0.63135 0.69029 -0.16990
 H417 H 0.62619 0.81014 -0.02453
 H418 H 0.73057 0.80824 -0.14300
 C419 C 0.39849 0.26824 -0.12056
 C420 C 0.36611 0.26587 -0.15057
 C421 C 0.33431 0.23330 -0.14715
 C422 C 0.33480 0.20272 -0.11246
 C423 C 0.36755 0.20533 -0.08146
 C424 C 0.40006 0.23820 -0.08607
 C425 C 0.36539 0.17590 -0.04606
 N426 N 0.33345 0.14545 -0.04290
 N427 N 0.30323 0.14263 -0.07239
 C428 C 0.30269 0.17028 -0.10693
 H429 H 0.42275 0.29375 -0.12447
 H430 H 0.36583 0.28967 -0.17678
 H431 H 0.38809 0.17707 -0.02037
 H432 H 0.27693 0.16691 -0.12944
 C433 C 0.38499 0.74181 0.08697
 C434 C 0.35387 0.74079 0.11914
 C435 C 0.36325 0.75378 0.16099
 C436 C 0.40643 0.76620 0.17025
 C437 C 0.43766 0.76870 0.13675
 C438 C 0.42655 0.75639 0.09501
 C439 C 0.47975 0.78166 0.14654
 N440 N 0.49034 0.78954 0.18756
 N441 N 0.46184 0.78481 0.21944
 C442 C 0.42061 0.77286 0.21235
 H443 H 0.37637 0.73172 0.05521
 H444 H 0.32164 0.73137 0.11042
 H445 H 0.50448 0.78491 0.12212
 H446 H 0.39986 0.76739 0.23998
 C447 C 0.61160 0.23292 0.08845
 C448 C 0.64313 0.23290 0.11936
 C449 C 0.64706 0.26650 0.14789
 C450 C 0.61828 0.30090 0.14533
 C451 C 0.58604 0.30135 0.11347
 C452 C 0.58262 0.26656 0.08464
 C453 C 0.55789 0.33609 0.11295
 N454 N 0.56183 0.36746 0.14201
 N455 N 0.59174 0.36663 0.17189
 C456 C 0.61992 0.33441 0.17467
 H457 H 0.61004 0.20612 0.06704
 H458 H 0.66490 0.20637 0.12094
 H459 H 0.53244 0.33910 0.09041
 H460 H 0.64295 0.33510 0.20017
 C461 C -0.12358 0.57786 0.76222
 C462 C -0.15407 0.60956 0.76262
 C463 C -0.14519 0.65165 0.74562
 C464 C -0.10301 0.66139 0.72911
 C465 C -0.07308 0.62793 0.72587
 C466 C -0.08342 0.58611 0.74339
 C467 C -0.03274 0.63817 0.70722
 N468 N -0.02195 0.67959 0.69569
 N469 N -0.04854 0.71150 0.70198
 C470 C -0.08819 0.70399 0.71893
 H471 H -0.13184 0.54606 0.77588
 H472 H -0.18550 0.60014 0.77505
 H473 H -0.00905 0.61407 0.70278
 H474 H -0.10702 0.73168 0.72545
 C475 C -0.07956 0.37701 0.24285
 C476 C -0.11228 0.34561 0.24374
 C477 C -0.15545 0.35694 0.24155
 C478 C -0.16536 0.40164 0.24101
 C479 C -0.13176 0.43341 0.24017
 C480 C -0.08878 0.42079 0.24050
 C481 C -0.14221 0.47716 0.24047
 N482 N -0.18362 0.48843 0.24253
 N483 N -0.21522 0.45880 0.24487
 C484 C -0.20758 0.41598 0.24472
 H485 H -0.04669 0.36705 0.24398
 H486 H -0.10353 0.31203 0.24442
 H487 H -0.11772 0.50236 0.23997
 H488 H -0.23461 0.39380 0.24884
 C489 C 0.07966 0.36757 0.77951
 C490 C 0.10812 0.33384 0.77978
 C491 C 0.14689 0.33800 0.75710
 C492 C 0.15766 0.37705 0.73427
 C493 C 0.12886 0.41149 0.73409
 C494 C 0.08915 0.40624 0.75636
 C495 C 0.14144 0.45043 0.71237
 N496 N 0.17966 0.45386 0.69149
 N497 N 0.20628 0.42117 0.69100
 C498 C 0.19664 0.38293 0.71168
 H499 H 0.04949 0.36305 0.79666
 H500 H 0.09977 0.30415 0.79762
 H501 H 0.12172 0.47843 0.71223
 H502 H 0.21959 0.35757 0.71043
 C503 C 0.09244 0.63500 0.23619
 C504 C 0.12397 0.66740 0.23839
 C505 C 0.16495 0.65798 0.25298
 C506 C 0.17347 0.61539 0.26808
 C507 C 0.14053 0.58301 0.26807
 C508 C 0.10014 0.59284 0.25088
 C509 C 0.14929 0.54170 0.28517
 N510 N 0.18853 0.53347 0.30080
 N511 N 0.21948 0.56380 0.30081
 C512 C 0.21330 0.60444 0.28519
 H513 H 0.06155 0.64302 0.22339
 H514 H 0.11682 0.69977 0.22697
 H515 H 0.12540 0.51584 0.28631
 H516 H 0.23938 0.62790 0.28690
 C517 C 0.72748 -0.12479 0.58189
 C518 C 0.72851 -0.15902 0.61187
 C519 C 0.75472 -0.15659 0.64769
 C520 C 0.78002 -0.11880 0.65386
 C521 C 0.77881 -0.08370 0.62357
 C522 C 0.75267 -0.08716 0.58684
 C523 C 0.80285 -0.04590 0.63207
 N524 N 0.82715 -0.04419 0.66768
 N525 N 0.82892 -0.07751 0.69556
 C526 C 0.80617 -0.11469 0.68994
 H527 H 0.70722 -0.12798 0.55420
 H528 H 0.70868 -0.18764 0.60714
 H529 H 0.80209 -0.01731 0.61144
 H530 H 0.80855 -0.14057 0.71383
 C531 C 0.22423 -0.09097 0.38454
 C532 C 0.22497 -0.11924 0.35087
 C533 C 0.25883 -0.14709 0.34579
 C534 C 0.29251 -0.14684 0.37583
 C535 C 0.29231 -0.11737 0.40984
 C536 C 0.25755 -0.08906 0.41422
 C537 C 0.32628 -0.11874 0.43904
 N538 N 0.35762 -0.14755 0.43461
 N539 N 0.35735 -0.17548 0.40319
 C540 C 0.32583 -0.17631 0.37388
 H541 H 0.19730 -0.07005 0.38717
 H542 H 0.19875 -0.11945 0.32852
 H543 H 0.32848 -0.09781 0.46564
 H544 H 0.32697 -0.20050 0.34982
 C545 C 0.74956 0.13429 0.40988
 C546 C 0.75070 0.16565 0.37684
 C547 C 0.74776 0.15417 0.33381
 C548 C 0.74393 0.10981 0.32407
 C549 C 0.74141 0.07802 0.35788
 C550 C 0.74458 0.09058 0.40095
 C551 C 0.73679 0.03440 0.34733
 N552 N 0.73603 0.02343 0.30566
 N553 N 0.73969 0.05310 0.27389
 C554 C 0.74381 0.09580 0.28162
 H555 H 0.75239 0.14422 0.44272
 H556 H 0.75373 0.19930 0.38497
 H557 H 0.73396 0.00896 0.37179
 H558 H 0.74759 0.11819 0.25448
 C559 C 0.25891 0.11730 0.59451
 C560 C 0.25726 0.14766 0.62630
 C561 C 0.23100 0.14044 0.66251
 C562 C 0.20596 0.10182 0.66698
 C563 C 0.20787 0.07054 0.63484
 C564 C 0.23433 0.07878 0.59796
 C565 C 0.18435 0.03147 0.64177
 N566 N 0.15974 0.02515 0.67760
 N567 N 0.15728 0.05495 0.70720
 C568 C 0.17962 0.09300 0.70319
 H569 H 0.27950 0.12405 0.56681
 H570 H 0.27681 0.17700 0.62276
 H571 H 0.18565 0.00554 0.61965
 H572 H 0.17678 0.11587 0.72843
   
