data_POSCAR
  _audit_creation_date              2014-09-24
  _audit_creation_method            'ToBaCCo'
  _symmetry_space_group_name_H-M    'P1'
  _symmetry_Int_Tables_number       1
  _symmetry_cell_setting            triclinic
  loop_
  _symmetry_equiv_pos_as_xyz
 x,y,z
_cell_length_a 39.1154
_cell_length_b 40.4742
_cell_length_c 6.9955
_cell_angle_alpha 89.700600
_cell_angle_beta 89.671300
_cell_angle_gamma 90.007800
loop_
  _atom_site_label
  _atom_site_type_symbol
  _atom_site_fract_x
  _atom_site_fract_y
  _atom_site_fract_z
O1 O 0.27005 0.28132 0.46914
 O2 O 0.20837 0.21745 0.32612
 O3 O 0.26972 0.21664 0.46698
 O4 O 0.20894 0.28175 0.32626
 O5 O 0.22981 0.28244 0.03199
 O6 O 0.29049 0.21735 0.17256
 O7 O 0.22921 0.21765 0.03184
 O8 O 0.29093 0.28145 0.17500
 Cu9 Cu 0.23697 0.24925 0.42629
 Cu10 Cu 0.26234 0.24974 0.07367
 C11 C 0.29098 0.29218 0.34477
 C12 C 0.20835 0.20669 0.15642
 C13 C 0.29047 0.20597 0.34157
 C14 C 0.20913 0.29321 0.15738
 O15 O 0.79163 0.28154 0.32292
 O16 O 0.72951 0.21796 0.47222
 O17 O 0.79093 0.21730 0.32889
 O18 O 0.73030 0.28261 0.46837
 O19 O 0.70970 0.28211 0.17487
 O20 O 0.77034 0.21688 0.03538
 O21 O 0.70895 0.21803 0.17865
 O22 O 0.77094 0.28160 0.02963
 Cu23 Cu 0.76287 0.24988 0.42717
 Cu24 Cu 0.73776 0.24965 0.07553
 C25 C 0.79182 0.29234 0.15260
 C26 C 0.70864 0.20724 0.34896
 C27 C 0.79092 0.20600 0.16037
 C28 C 0.70964 0.29337 0.34348
 O29 O 0.70817 0.71765 0.82706
 O30 O 0.77020 0.78121 0.97023
 O31 O 0.70905 0.78193 0.82758
 O32 O 0.76944 0.71651 0.96845
 O33 O 0.79027 0.71709 0.67412
 O34 O 0.72993 0.78250 0.53330
 O35 O 0.79108 0.78122 0.67610
 O36 O 0.72906 0.71773 0.53286
 Cu37 Cu 0.73693 0.74931 0.92752
 Cu38 Cu 0.76232 0.74965 0.57498
 C39 C 0.70812 0.70688 0.65735
 C40 C 0.79120 0.79196 0.84582
 C41 C 0.70928 0.79336 0.65861
 C42 C 0.79012 0.70569 0.84312
 O43 O 0.29160 0.78295 0.82194
 O44 O 0.22965 0.71934 0.97244
 O45 O 0.29095 0.71869 0.82808
 O46 O 0.23022 0.78397 0.96700
 O47 O 0.20962 0.78333 0.67355
 O48 O 0.27028 0.71811 0.53470
 O49 O 0.20899 0.71924 0.67906
 O50 O 0.27089 0.78283 0.52870
 Cu51 Cu 0.26289 0.75129 0.92647
 Cu52 Cu 0.23772 0.75086 0.57497
 C53 C 0.29177 0.79365 0.65144
 C54 C 0.20878 0.70853 0.84952
 C55 C 0.29087 0.70729 0.65977
 C56 C 0.20952 0.79465 0.84201
 C57 C 1.01850 -0.10297 0.06994
 C58 C 0.98344 -0.10323 0.07088
 C59 C 0.97309 -0.07145 0.02452
 N60 N 1.00058 -0.05184 -0.00530
 C61 C 1.02837 -0.07103 0.02304
 C62 C 0.93882 -0.06166 -0.00296
 C63 C 0.92873 -0.02839 -0.02860
 C64 C 0.89683 -0.01837 -0.09230
 C65 C 0.89654 0.01560 -0.08713
 C66 C 0.92831 0.02540 -0.02114
 N67 N 0.94771 -0.00155 0.01495
 C68 C 0.93779 0.05847 0.01530
 C69 C 0.97199 0.06866 0.04131
 C70 C 0.98193 0.09986 0.10005
 C71 C 1.01701 0.10014 0.09804
 C72 C 1.02733 0.06908 0.03840
 N73 N 0.99979 0.04995 0.00268
 C74 C 1.06164 0.05937 0.00947
 C75 C 1.07157 0.02643 -0.02699
 C76 C 1.10342 0.01708 -0.09598
 C77 C 1.10369 -0.01688 -0.10021
 C78 C 1.07202 -0.02734 -0.03324
 N79 N 1.05264 -0.00077 0.01179
 C80 C 1.06247 -0.06074 -0.00671
 H81 H 1.03487 -0.12395 0.09891
 H82 H 0.96741 -0.12447 0.10053
 H83 H 1.02947 -0.00121 0.08514
 H84 H 0.87582 -0.03391 -0.13648
 H85 H 0.87527 0.03129 -0.12639
 H86 H 0.96562 0.12028 0.14057
 H87 H 1.03306 0.12081 0.13658
 H88 H 1.12490 -0.03212 -0.14607
 H89 H 0.97099 -0.00166 0.08567
 H90 H 1.12436 0.03308 -0.13809
 C91 C 0.48143 0.60045 0.60186
 C92 C 0.51651 0.60067 0.59964
 C93 C 0.52677 0.56963 0.53951
 N94 N 0.49919 0.55054 0.50378
 C95 C 0.47144 0.56929 0.54281
 C96 C 0.56106 0.55988 0.51026
 C97 C 0.57093 0.52692 0.47382
 C98 C 0.60278 0.51750 0.40521
 C99 C 0.60299 0.48354 0.40137
 C100 C 0.57129 0.47314 0.46807
 N101 N 0.55195 0.49975 0.51271
 C102 C 0.56168 0.43976 0.49475
 C103 C 0.52756 0.42951 0.52441
 C104 C 0.51765 0.39755 0.57055
 C105 C 0.48260 0.39734 0.57163
 C106 C 0.47228 0.42918 0.52622
 N107 N 0.49980 0.44876 0.49680
 C108 C 0.43803 0.43903 0.49892
 C109 C 0.42797 0.47232 0.47339
 C110 C 0.39607 0.48237 0.40994
 C111 C 0.39583 0.51635 0.41502
 C112 C 0.42764 0.52612 0.48065
 N113 N 0.44701 0.49914 0.51667
 C114 C 0.43721 0.55917 0.51694
 H115 H 0.46517 0.62088 0.64287
 H116 H 0.53260 0.62130 0.63833
 H117 H 0.47030 0.49900 0.58723
 H118 H 0.62376 0.53345 0.36316
 H119 H 0.62419 0.46825 0.35576
 H120 H 0.53399 0.37651 0.59863
 H121 H 0.46654 0.37609 0.60057
 H122 H 0.37457 0.53207 0.37586
 H123 H 0.52878 0.49936 0.58604
 H124 H 0.37503 0.46685 0.36580
 C125 C 0.01954 0.39742 0.02776
 C126 C -0.01533 0.39662 0.01271
 C127 C -0.02616 0.42917 -0.00113
 N128 N 0.00103 0.44972 0.00341
 C129 C 0.02902 0.43042 0.02114
 C130 C -0.06081 0.43905 -0.01098
 C131 C -0.07220 0.47230 -0.01942
 C132 C -0.10617 0.48169 -0.00029
 C133 C -0.10694 0.51555 -0.00704
 C134 C -0.07344 0.52619 -0.02911
 N135 N -0.05247 0.49960 -0.04115
 C136 C -0.06357 0.55989 -0.03319
 C137 C -0.02944 0.57131 -0.02321
 C138 C -0.01999 0.60433 -0.02479
 C139 C 0.01487 0.60511 -0.00790
 C140 C 0.02573 0.57254 0.00147
 N141 N -0.00142 0.55197 -0.00727
 C142 C 0.06039 0.56264 0.00847
 C143 C 0.07175 0.52938 0.01154
 C144 C 0.10557 0.51998 -0.01474
 C145 C 0.10633 0.48611 -0.00988
 C146 C 0.07297 0.47551 0.01882
 N147 N 0.05209 0.50207 0.03548
 C148 C 0.06317 0.44182 0.02687
 H149 H 0.03598 0.37605 0.04154
 H150 H -0.03090 0.37452 0.01309
 H151 H 0.02648 0.50164 0.07429
 H152 H -0.12816 0.46584 0.02123
 H153 H -0.12964 0.53063 0.00803
 H154 H -0.03644 0.62572 -0.03707
 H155 H 0.03043 0.62721 -0.00528
 H156 H 0.12889 0.47100 -0.02970
 H157 H -0.02660 0.50005 -0.07365
 H158 H 0.12746 0.53585 -0.03914
 C159 C 0.51599 1.10567 0.49430
 C160 C 0.48110 1.10503 0.47863
 C161 C 0.47153 1.07205 0.47838
 N162 N 0.49950 1.05260 0.49251
 C163 C 0.52673 1.07304 0.50171
 C164 C 0.43737 1.06074 0.46707
 C165 C 0.42736 1.02707 0.46954
 C166 C 0.39374 1.01652 0.48704
 C167 C 0.39437 0.98265 0.49294
 C168 C 0.42836 0.97316 0.47799
 N169 N 0.44826 1.00041 0.45974
 C170 C 0.43964 0.93987 0.48766
 C171 C 0.47423 0.92984 0.49892
 C172 C 0.48490 0.89727 0.51564
 C173 C 0.51980 0.89794 0.52997
 C174 C 0.52944 0.93087 0.52032
 N175 N 0.50154 0.95025 0.50117
 C176 C 0.56364 0.94216 0.52425
 C177 C 0.57356 0.97580 0.51436
 C178 C 0.60690 0.98627 0.48364
 C179 C 0.60627 1.02015 0.47918
 C180 C 0.57255 1.02967 0.50766
 N181 N 0.55282 1.00244 0.53246
 C182 C 0.56135 1.06299 0.50672
 H183 H 0.53166 1.12769 0.49721
 H184 H 0.46471 1.12649 0.46787
 H185 H 0.52733 1.00210 0.57365
 H186 H 0.37103 1.03167 0.49894
 H187 H 0.37224 0.96686 0.51087
 H188 H 0.46921 0.87525 0.51848
 H189 H 0.53616 0.87654 0.54521
 H190 H 0.62819 1.03594 0.45404
 H191 H 0.47426 1.00079 0.43171
 H192 H 0.62936 0.97107 0.46260
 C193 C 1.13921 0.13387 0.05103
 C194 C 1.11657 0.13438 -0.10359
 C195 C 1.09141 0.10993 -0.11909
 C196 C 1.18434 0.18139 0.10750
 C197 C 1.11197 0.08417 0.17226
 C198 C 1.13698 0.10858 0.18774
 C199 C 1.16386 0.15985 0.07644
 C200 C 1.08880 0.08487 0.02011
 H201 H 1.11807 0.15383 -0.21035
 H202 H 1.07383 0.11063 -0.23816
 H203 H 1.11029 0.06498 0.28045
 H204 H 1.15429 0.10802 0.30815
 C205 C 0.63876 0.63426 0.55206
 C206 C 0.61602 0.63490 0.39792
 C207 C 0.59083 0.61048 0.38233
 C208 C 0.68402 0.68166 0.60835
 C209 C 0.61151 0.58453 0.67285
 C210 C 0.63656 0.60890 0.68839
 C211 C 0.66347 0.66019 0.57736
 C212 C 0.58827 0.58534 0.52106
 H213 H 0.61750 0.65441 0.29153
 H214 H 0.57319 0.61127 0.26355
 H215 H 0.60987 0.56527 0.78062
 H216 H 0.65394 0.60825 0.80846
 C217 C -0.13708 0.36356 0.04586
 C218 C -0.11853 0.37387 0.20568
 C219 C -0.09372 0.39844 0.18657
 C220 C -0.18379 0.31732 0.10119
 C221 C -0.10577 0.40255 -0.15314
 C222 C -0.13070 0.37792 -0.13375
 C223 C -0.16271 0.33840 0.06997
 C224 C -0.08716 0.41286 0.00717
 H225 H -0.12328 0.36293 0.34526
 H226 H -0.07953 0.40621 0.31107
 H227 H -0.10098 0.41356 -0.29234
 H228 H -0.14497 0.37017 -0.25810
 C229 C 0.36302 0.86468 0.54352
 C230 C 0.38074 0.87575 0.70425
 C231 C 0.40564 0.90024 0.68553
 C232 C 0.31618 0.81857 0.59941
 C233 C 0.39542 0.90270 0.34400
 C234 C 0.37038 0.87815 0.36300
 C235 C 0.33731 0.83959 0.56782
 C236 C 0.41315 0.91381 0.50545
 H237 H 0.37526 0.86542 0.84423
 H238 H 0.41917 0.90865 0.81060
 H239 H 0.40099 0.91305 0.20418
 H240 H 0.35677 0.86974 0.23796
 C241 C -0.14214 0.63356 -0.06666
 C242 C -0.12599 0.62737 0.10806
 C243 C -0.10056 0.60312 0.11995
 C244 C -0.18750 0.68127 -0.11265
 C245 C -0.10769 0.59106 -0.21662
 C246 C -0.13307 0.61521 -0.22835
 C247 C -0.16707 0.65949 -0.08511
 C248 C -0.09112 0.58504 -0.04288
 H249 H -0.13277 0.64146 0.23397
 H250 H -0.08800 0.59862 0.25514
 H251 H -0.10068 0.57725 -0.34294
 H252 H -0.14539 0.61987 -0.36401
 C253 C 0.35886 1.13442 0.43147
 C254 C 0.37413 1.12752 0.60783
 C255 C 0.39957 1.10328 0.62035
 C256 C 0.31308 1.18175 0.38567
 C257 C 0.39434 1.09279 0.28080
 C258 C 0.36892 1.11690 0.26850
 C259 C 0.33371 1.16016 0.41312
 C260 C 0.40993 1.08598 0.45643
 H261 H 0.36660 1.14099 0.73469
 H262 H 0.41139 1.09815 0.75683
 H263 H 0.40210 1.07960 0.15354
 H264 H 0.35732 1.12214 0.13142
 C265 C 1.13967 -0.13537 -0.06107
 C266 C 1.13981 -0.11427 0.09694
 C267 C 1.11467 -0.08987 0.11532
 C268 C 1.18663 -0.18141 -0.11336
 C269 C 1.08930 -0.10766 -0.18259
 C270 C 1.11442 -0.13195 -0.20093
 C271 C 1.16557 -0.16028 -0.08389
 C272 C 1.08923 -0.08652 -0.02424
 H273 H 1.15935 -0.11663 0.20521
 H274 H 1.11495 -0.07365 0.23798
 H275 H 1.06994 -0.10523 -0.29188
 H276 H 1.11421 -0.14800 -0.32448
 C277 C 0.63870 0.36495 0.44147
 C278 C 0.63876 0.38598 0.59986
 C279 C 0.61368 0.41045 0.61786
 C280 C 0.68553 0.31874 0.39063
 C281 C 0.58854 0.39287 0.31893
 C282 C 0.61359 0.36851 0.30096
 C283 C 0.66451 0.33994 0.41926
 C284 C 0.58840 0.41394 0.47754
 H285 H 0.65817 0.38349 0.70874
 H286 H 0.61388 0.42660 0.74083
 H287 H 0.56929 0.39542 0.20912
 H288 H 0.61343 0.35251 0.17723
 C289 C 0.86265 -0.13731 -0.05205
 C290 C 0.88797 -0.13370 -0.19286
 C291 C 0.91279 -0.10912 -0.17617
 C292 C 0.81563 -0.18315 -0.10522
 C293 C 0.88712 -0.09157 0.12306
 C294 C 0.86228 -0.11627 0.10631
 C295 C 0.83678 -0.16220 -0.07514
 C296 C 0.91248 -0.08786 -0.01842
 H297 H 0.88840 -0.14978 -0.31624
 H298 H 0.93216 -0.10652 -0.28654
 H299 H 0.88666 -0.07537 0.24579
 H300 H 0.84276 -0.11885 0.21584
 C301 C 0.36202 0.36327 0.44792
 C302 C 0.38724 0.36716 0.30680
 C303 C 0.41197 0.39179 0.32414
 C304 C 0.31526 0.31721 0.39385
 C305 C 0.38642 0.40889 0.62454
 C306 C 0.36166 0.38412 0.60719
 C307 C 0.33629 0.33827 0.42429
 C308 C 0.41169 0.41285 0.48278
 H309 H 0.38767 0.35124 0.18281
 H310 H 0.43129 0.39458 0.21361
 H311 H 0.38600 0.42491 0.74806
 H312 H 0.34221 0.38132 0.71699
 C313 C 0.13728 0.63766 -0.04511
 C314 C 0.11872 0.62760 -0.20522
 C315 C 0.09358 0.60333 -0.18687
 C316 C 0.18433 0.68361 -0.09904
 C317 C 0.10537 0.59892 0.15249
 C318 C 0.13058 0.62332 0.13404
 C319 C 0.16314 0.66264 -0.06801
 C320 C 0.08676 0.58885 -0.00815
 H321 H 0.12376 0.63845 -0.34481
 H322 H 0.07951 0.59572 -0.31226
 H323 H 0.10035 0.58794 0.29158
 H324 H 0.14475 0.63094 0.25907
 C325 C 0.63839 1.13777 0.45209
 C326 C 0.62036 1.12714 0.29121
 C327 C 0.59517 1.10292 0.30987
 C328 C 0.68546 1.18369 0.39721
 C329 C 0.60581 1.09977 0.65117
 C330 C 0.63108 1.12410 0.63244
 C331 C 0.66426 1.16272 0.42871
 C332 C 0.58779 1.08909 0.48970
 H333 H 0.62581 1.13754 0.15105
 H334 H 0.58150 1.09487 0.18401
 H335 H 0.60029 1.08927 0.79081
 H336 H 0.64486 1.13217 0.75787
 C337 C 0.14094 0.36745 0.06379
 C338 C 0.13266 0.38665 0.22343
 C339 C 0.10768 0.41118 0.21024
 C340 C 0.18561 0.31917 0.11107
 C341 C 0.09941 0.39779 -0.12385
 C342 C 0.12444 0.37319 -0.11046
 C343 C 0.16544 0.34116 0.08355
 C344 C 0.09071 0.41668 0.03709
 H345 H 0.14524 0.38234 0.35873
 H346 H 0.10120 0.42558 0.33531
 H347 H 0.08648 0.40185 -0.25827
 H348 H 0.13062 0.35845 -0.23476
 C349 C 0.64117 0.86763 0.56366
 C350 C 0.62494 0.87346 0.38870
 C351 C 0.59998 0.89812 0.37451
 C352 C 0.68581 0.81934 0.61206
 C353 C 0.60778 0.91135 0.70920
 C354 C 0.63268 0.88677 0.72327
 C355 C 0.66565 0.84134 0.58413
 C356 C 0.59110 0.91697 0.53531
 H357 H 0.63126 0.85877 0.26443
 H358 H 0.58726 0.90230 0.23951
 H359 H 0.60116 0.92573 0.83418
 H360 H 0.64506 0.88239 0.85909
 C361 C 0.85978 0.13257 0.05886
 C362 C 0.88237 0.13290 -0.09739
 C363 C 0.90761 0.10854 -0.11337
 C364 C 0.81466 0.18028 0.11334
 C365 C 0.88732 0.08321 0.18117
 C366 C 0.86220 0.10757 0.19721
 C367 C 0.83506 0.15855 0.08364
 C368 C 0.91037 0.08371 0.02683
 H369 H 0.88077 0.15217 -0.20504
 H370 H 0.92522 0.10918 -0.23340
 H371 H 0.88920 0.06427 0.29065
 H372 H 0.84496 0.10717 0.31896
 C373 C 0.35950 0.63359 0.56013
 C374 C 0.38205 0.63374 0.40372
 C375 C 0.40718 0.60928 0.38793
 C376 C 0.31454 0.68147 0.61310
 C377 C 0.38691 0.58420 0.68323
 C378 C 0.36189 0.60867 0.69908
 C379 C 0.33486 0.65966 0.58416
 C380 C 0.40987 0.58450 0.52849
 H381 H 0.38049 0.65296 0.29568
 H382 H 0.42477 0.60981 0.26785
 H383 H 0.38878 0.56535 0.79321
 H384 H 0.34470 0.60844 0.82109
   
