data_POSCAR
  _audit_creation_date              2014-09-24
  _audit_creation_method            'ToBaCCo'
  _symmetry_space_group_name_H-M    'P1'
  _symmetry_Int_Tables_number       1
  _symmetry_cell_setting            triclinic
  loop_
  _symmetry_equiv_pos_as_xyz
 x,y,z
_cell_length_a 26.3025
_cell_length_b 25.2637
_cell_length_c 60.2868
_cell_angle_alpha 85.108500
_cell_angle_beta 91.126000
_cell_angle_gamma 119.119900
loop_
  _atom_site_label
  _atom_site_type_symbol
  _atom_site_fract_x
  _atom_site_fract_y
  _atom_site_fract_z
C1 C 0.02195 0.08896 0.52422
 H2 H 0.06208 0.09883 0.51603
 C3 C 0.02366 0.12272 0.54162
 H4 H 0.06523 0.15840 0.54661
 C5 C -0.08052 0.02860 0.52841
 H6 H -0.12083 -0.00891 0.52351
 C7 C -0.08071 0.06086 0.54612
 H8 H -0.12153 0.04862 0.55445
 N9 N -0.02954 0.04303 0.51789
 C10 C 0.02996 -0.07501 0.49446
 H11 H 0.03646 -0.06143 0.47679
 C12 C 0.04202 -0.12045 0.50358
 H13 H 0.05848 -0.14120 0.49283
 C14 C -0.00397 -0.06808 0.52966
 H15 H -0.02369 -0.04905 0.53965
 C16 C 0.00758 -0.11293 0.53942
 H17 H -0.00170 -0.12649 0.55704
 Zn18 Zn -0.02605 -0.00273 0.49516
 N19 N 0.00619 -0.05087 0.50751
 C20 C 0.08031 0.08129 0.47314
 N21 N 0.02144 0.05288 0.47134
 C22 C -0.00383 0.06881 0.45405
 C23 C 0.03013 0.11685 0.43836
 C24 C 0.11595 0.12983 0.45787
 C25 C -0.11533 -0.11491 0.48279
 C26 C -0.16734 -0.15472 0.47326
 C27 C -0.19254 -0.07458 0.46934
 C28 C -0.13953 -0.03615 0.47879
 N29 N -0.10150 -0.05633 0.48484
 H30 H 0.09956 0.06781 0.48697
 H31 H -0.05050 0.04576 0.45272
 H32 H 0.00896 0.12928 0.42494
 H33 H 0.16249 0.15359 0.46024
 H34 H -0.08562 -0.13110 0.48819
 H35 H -0.17614 -0.20104 0.47271
 H36 H -0.21894 -0.05440 0.46365
 H37 H -0.12795 0.01057 0.48069
 C38 C 0.02916 -0.14113 0.52624
 C39 C -0.02802 0.10845 0.55294
 C40 C -0.20719 -0.13510 0.46565
 C41 C 0.09078 0.14914 0.44047
 C42 C 1.11563 0.07665 0.13230
 H43 H 1.10451 0.11275 0.13129
 C44 C 1.15982 0.08146 0.11862
 H45 H 1.18121 0.12070 0.10664
 C46 C 1.10148 -0.01749 0.14967
 H47 H 1.07965 -0.05482 0.16234
 C48 C 1.14640 -0.01405 0.13640
 H49 H 1.15868 -0.04924 0.13890
 N50 N 1.08792 0.02822 0.14758
 C51 C 0.94925 0.06782 0.16247
 H52 H 0.95648 0.07688 0.17980
 C53 C 0.90506 0.07372 0.15121
 H54 H 0.87877 0.08818 0.15982
 C55 C 0.97296 0.03557 0.13033
 H56 H 0.99850 0.01923 0.12239
 C57 C 0.92854 0.03959 0.11863
 H58 H 0.92121 0.02785 0.10156
 Zn59 Zn 1.03956 0.03760 0.16770
 N60 N 0.98291 0.05019 0.15179
 C61 C 1.08917 0.15856 0.18170
 N62 N 1.09147 0.10577 0.18279
 C63 C 1.13576 0.10104 0.19309
 C64 C 1.17956 0.15012 0.20314
 C65 C 1.13237 0.20903 0.19146
 C66 C 0.95276 -0.08101 0.18018
 C67 C 0.91408 -0.12929 0.19490
 C68 C 0.97221 -0.07644 0.22547
 C69 C 1.00889 -0.02857 0.21025
 N70 N 0.99844 -0.03148 0.18807
 H71 H 1.05493 0.16232 0.17277
 H72 H 1.13757 0.05916 0.19309
 H73 H 1.21494 0.14566 0.21088
 H74 H 1.13000 0.25078 0.19044
 H75 H 0.94482 -0.08167 0.16251
 H76 H 0.87677 -0.16764 0.18853
 H77 H 0.98020 -0.07292 0.24312
 H78 H 1.04417 0.01172 0.21634
 C79 C 0.89422 0.05913 0.12906
 C80 C 1.17721 0.03689 0.12103
 C81 C 0.92349 -0.12680 0.21784
 C82 C 1.17848 0.20518 0.20226
 C83 C 0.03025 0.89253 0.86419
 H84 H -0.00991 0.85394 0.85992
 C85 C 0.07030 0.88266 0.87673
 H86 H 0.05819 0.83659 0.88305
 C87 C 0.09494 0.99853 0.86015
 H88 H 0.10494 1.04344 0.85315
 C89 C 0.13715 0.99054 0.87222
 H90 H 0.17918 1.02980 0.87431
 N91 N 0.04250 0.94970 0.85645
 C92 C -0.10846 0.96855 0.85199
 H93 H -0.09001 1.00817 0.84018
 C94 C -0.15670 0.95669 0.86503
 H95 H -0.17419 0.98753 0.86240
 C96 C -0.11018 0.87906 0.86794
 H97 H -0.09231 0.84864 0.86919
 C98 C -0.15870 0.86517 0.88126
 H99 H -0.17483 0.82516 0.89290
 Zn100 Zn -0.01407 0.95509 0.83774
 N101 N -0.08488 0.93099 0.85407
 C102 C -0.07964 0.85927 0.80986
 N103 N -0.02597 0.90343 0.81510
 C104 C 0.02289 0.91252 0.80430
 C105 C 0.01902 0.87693 0.78723
 C106 C -0.08555 0.82259 0.79280
 C107 C 0.02573 1.08141 0.83760
 C108 C 0.03372 1.13762 0.82827
 C109 C 0.01767 1.09923 0.79198
 C110 C 0.00970 1.04381 0.80197
 N111 N 0.01253 1.03539 0.82445
 H112 H -0.11776 0.85275 0.81882
 H113 H 0.06499 0.94799 0.80889
 H114 H 0.05839 0.88575 0.77856
 H115 H -0.12853 0.78742 0.78885
 H116 H 0.02644 1.07321 0.85548
 H117 H 0.04125 1.17263 0.83912
 H118 H 0.01422 1.10450 0.77409
 H119 H -0.00165 1.00666 0.79178
 C120 C -0.18235 0.90494 0.88047
 C121 C 0.12521 0.93176 0.88064
 C122 C 0.02809 1.14645 0.80522
 C123 C -0.03573 0.83143 0.78119
 O124 O 0.54392 -0.04671 0.03232
 O125 O 0.42573 -0.09277 -0.00823
 O126 O 0.52240 -0.09660 -0.00533
 O127 O 0.44358 -0.04849 0.03035
 O128 O 0.48963 0.04426 0.01345
 O129 O 0.56707 -0.00491 -0.02303
 O130 O 0.46968 0.00035 -0.02494
 O131 O 0.58792 0.04542 0.01481
 Cu132 Cu 0.47954 -0.08036 0.01403
 Cu133 Cu 0.53327 0.03041 -0.00680
 C134 C 0.58573 0.00769 0.03056
 C135 C 0.42738 -0.05355 -0.02331
 C136 C 0.55782 -0.05943 -0.02037
 C137 C 0.45321 0.00606 0.02809
 O138 O -0.03666 0.42942 0.69280
 O139 O -0.02979 0.50778 0.63695
 O140 O -0.04256 0.39981 0.65301
 O141 O -0.05303 0.51959 0.67782
 O142 O 0.04267 0.57467 0.67898
 O143 O 0.05349 0.45059 0.65378
 O144 O 0.06594 0.55853 0.63906
 O145 O 0.05888 0.48590 0.69433
 Cu146 Cu -0.04919 0.45991 0.66460
 Cu147 Cu 0.06390 0.52148 0.66641
 C148 C 0.01091 0.44486 0.70300
 C149 C 0.02004 0.54712 0.62863
 C150 C 0.00625 0.40328 0.64961
 C151 C -0.00810 0.56746 0.68261
 O152 O 0.53961 0.55514 0.36139
 O153 O 0.47593 0.46880 0.31181
 O154 O 0.57959 0.55359 0.32246
 O155 O 0.44128 0.46089 0.35245
 O156 O 0.41007 0.52431 0.33988
 O157 O 0.55304 0.62133 0.31050
 O158 O 0.45120 0.53787 0.29960
 O159 O 0.50768 0.61835 0.34927
 Cu160 Cu 0.51209 0.50323 0.33818
 Cu161 Cu 0.47778 0.58205 0.32366
 C162 C 0.53355 0.60145 0.36374
 C163 C 0.45271 0.48937 0.29723
 C164 C 0.59070 0.60330 0.31158
 C165 C 0.40162 0.47562 0.35123
 C166 C 0.00851 0.23525 0.59001
 C167 C -0.02335 0.20242 0.60892
 C168 C -0.05773 0.13947 0.61058
 C169 C -0.05910 0.10896 0.59201
 C170 C -0.02644 0.14161 0.57230
 C171 C 0.00809 0.20577 0.57140
 O172 O 0.03524 0.29501 0.59141
 C173 C 0.01987 0.30002 0.61165
 C174 C -0.01582 0.24456 0.62305
 C175 C -0.04053 0.23887 0.64387
 C176 C -0.02945 0.29246 0.65304
 C177 C 0.00612 0.35012 0.64147
 C178 C 0.03234 0.35417 0.62070
 H179 H -0.08305 0.11476 0.62556
 H180 H -0.08522 0.05989 0.59303
 H181 H 0.03268 0.23203 0.55646
 H182 H -0.06923 0.19475 0.65233
 H183 H -0.05037 0.28916 0.66880
 H184 H 0.05788 0.39760 0.61122
 C185 C 0.78448 0.76870 0.25051
 C186 C 0.80441 0.74093 0.26624
 C187 C 0.86199 0.75309 0.26672
 C188 C 0.90084 0.79619 0.25043
 C189 C 0.88134 0.82526 0.23398
 C190 C 0.82217 0.81089 0.23392
 O191 O 0.72851 0.75188 0.25344
 C192 C 0.71275 0.71247 0.27138
 C193 C 0.75762 0.70405 0.27974
 C194 C 0.75098 0.66465 0.29833
 C195 C 0.69571 0.63212 0.30866
 C196 C 0.64853 0.63993 0.30049
 C197 C 0.65740 0.68118 0.28163
 H198 H 0.87664 0.73089 0.27938
 H199 H 0.94611 0.80720 0.25063
 H200 H 0.80653 0.83332 0.22175
 H201 H 0.78697 0.65884 0.30459
 H202 H 0.68977 0.60098 0.32313
 H203 H 0.62220 0.68777 0.27493
 C204 C 0.25005 -0.04822 -0.08184
 C205 C 0.24821 -0.10330 -0.08283
 C206 C 0.20935 -0.14751 -0.09594
 C207 C 0.17031 -0.13479 -0.10834
 C208 C 0.16955 -0.07912 -0.10706
 C209 C 0.21081 -0.03504 -0.09366
 O210 O 0.29092 -0.01216 -0.06858
 C211 C 0.31511 -0.04538 -0.06096
 C212 C 0.29018 -0.10180 -0.06899
 C213 C 0.30739 -0.14481 -0.06247
 C214 C 0.35229 -0.12886 -0.04710
 C215 C 0.37958 -0.07039 -0.03905
 C216 C 0.36075 -0.02806 -0.04615
 H217 H 0.20931 -0.19018 -0.09672
 H218 H 0.14097 -0.16851 -0.11902
 H219 H 0.21164 0.00767 -0.09199
 H220 H 0.28665 -0.18919 -0.06883
 H221 H 0.36645 -0.16152 -0.04173
 H222 H 0.38037 0.01658 -0.04000
 C223 C 0.00249 0.71697 0.56195
 C224 C 0.05121 0.71317 0.55678
 C225 C 0.09341 0.75417 0.54124
 C226 C 0.08523 0.80126 0.53074
 C227 C 0.03579 0.80676 0.53611
 C228 C -0.00654 0.76311 0.55170
 O229 O -0.03019 0.67652 0.57830
 C230 C -0.00136 0.64662 0.58373
 C231 C 0.04877 0.66724 0.57105
 C232 C 0.08825 0.64615 0.57525
 C233 C 0.07642 0.60345 0.59362
 C234 C 0.02563 0.58247 0.60721
 C235 C -0.01461 0.60317 0.60179
 H236 H 0.13198 0.75097 0.53774
 H237 H 0.11832 0.83454 0.51905
 H238 H -0.04489 0.76572 0.55616
 H239 H 0.12798 0.66389 0.56537
 H240 H 0.10785 0.58837 0.59776
 H241 H -0.05254 0.58965 0.61234
 C242 C 0.29512 0.30396 0.24090
 C243 C 0.31730 0.35972 0.22892
 C244 C 0.29602 0.36822 0.20841
 C245 C 0.25016 0.31704 0.19980
 C246 C 0.22651 0.25884 0.21175
 C247 C 0.24968 0.25240 0.23261
 O248 O 0.31940 0.30639 0.26060
 C249 C 0.35773 0.36502 0.26106
 C250 C 0.35819 0.39949 0.24203
 C251 C 0.39223 0.46236 0.23944
 C252 C 0.42594 0.49113 0.25745
 C253 C 0.42532 0.45689 0.27748
 C254 C 0.39181 0.39271 0.27910
 H255 H 0.31378 0.41275 0.19943
 H256 H 0.23347 0.32266 0.18373
 H257 H 0.23199 0.20884 0.24231
 H258 H 0.39129 0.48853 0.22441
 H259 H 0.45113 0.54032 0.25609
 H260 H 0.38917 0.36569 0.29442
 C261 C 0.71777 -0.06880 -0.08429
 C262 C 0.68163 -0.12686 -0.07521
 C263 C 0.68693 -0.17645 -0.08039
 C264 C 0.73169 -0.16579 -0.09542
 C265 C 0.77078 -0.10592 -0.10506
 C266 C 0.76246 -0.05700 -0.09930
 O267 O 0.70633 -0.02772 -0.07674
 C268 C 0.66184 -0.06071 -0.06258
 C269 C 0.64506 -0.12168 -0.06104
 C270 C 0.60030 -0.16430 -0.04681
 C271 C 0.57175 -0.14322 -0.03359
 C272 C 0.58816 -0.08045 -0.03480
 C273 C 0.63385 -0.03871 -0.04966
 H274 H 0.65764 -0.22190 -0.07310
 H275 H 0.73416 -0.20504 -0.09984
 H276 H 0.79146 -0.01020 -0.10521
 H277 H 0.58806 -0.21203 -0.04580
 H278 H 0.53688 -0.17595 -0.02238
 H279 H 0.64779 0.00946 -0.05091
 C280 C 0.28015 0.00900 0.08682
 C281 C 0.32553 0.06740 0.08310
 C282 C 0.32615 0.11677 0.09183
 C283 C 0.27768 0.10572 0.10470
 C284 C 0.22924 0.04615 0.10836
 C285 C 0.23111 -0.00307 0.09948
 O286 O 0.28828 -0.03123 0.07680
 C287 C 0.33976 0.00267 0.06650
 C288 C 0.36418 0.06336 0.06975
 C289 C 0.41696 0.10732 0.05990
 C290 C 0.44587 0.08793 0.04609
 C291 C 0.42202 0.02547 0.04265
 C292 C 0.36822 -0.01777 0.05312
 H293 H 0.36260 0.16225 0.08879
 H294 H 0.27802 0.14379 0.11182
 H295 H 0.19497 -0.04895 0.10181
 H296 H 0.43499 0.15491 0.06257
 H297 H 0.48701 0.12148 0.03824
 H298 H 0.34860 -0.06563 0.05060
 C299 C 0.69025 0.74263 0.43186
 C300 C 0.64581 0.75625 0.43004
 C301 C 0.64659 0.80386 0.44019
 C302 C 0.69548 0.83948 0.45255
 C303 C 0.74351 0.82770 0.45469
 C304 C 0.73909 0.77690 0.44419
 O305 O 0.68307 0.69828 0.41960
 C306 C 0.63282 0.68359 0.40981
 C307 C 0.60820 0.71772 0.41571
 C308 C 0.55776 0.71313 0.40628
 C309 C 0.53228 0.67258 0.38980
 C310 C 0.55729 0.63752 0.38310
 C311 C 0.60768 0.64221 0.39364
 H312 H 0.61098 0.81379 0.43845
 H313 H 0.69399 0.87489 0.46089
 H314 H 0.77416 0.76630 0.44378
 H315 H 0.53969 0.74113 0.41093
 H316 H 0.49376 0.66956 0.38186
 H317 H 0.62856 0.61726 0.38850
 C318 C -0.00346 0.25476 0.76796
 C319 C 0.03681 0.30973 0.77511
 C320 C 0.07487 0.31461 0.79219
 C321 C 0.07128 0.26062 0.80227
 C322 C 0.03040 0.20328 0.79506
 C323 C -0.00789 0.20068 0.77777
 O324 O -0.03275 0.26005 0.75051
 C325 C -0.01029 0.31976 0.74643
 C326 C 0.03239 0.35223 0.76104
 C327 C 0.06520 0.41530 0.75867
 C328 C 0.05487 0.44595 0.74012
 C329 C 0.01208 0.41336 0.72454
 C330 C -0.02213 0.34946 0.72812
 H331 H 0.10700 0.35848 0.79724
 H332 H 0.10141 0.26364 0.81524
 H333 H -0.03979 0.15783 0.77188
 H334 H 0.09931 0.43982 0.77011
 H335 H 0.08180 0.49484 0.73737
 H336 H -0.05346 0.32334 0.71605
 C337 C 0.76480 0.02284 0.09276
 C338 C 0.76434 0.07722 0.09152
 C339 C 0.80356 0.12643 0.10277
 C340 C 0.84529 0.11943 0.11567
 C341 C 0.84754 0.06433 0.11673
 C342 C 0.80641 0.01525 0.10520
 O343 O 0.72422 -0.01795 0.08063
 C344 C 0.69777 0.01144 0.07140
 C345 C 0.72098 0.06998 0.07740
 C346 C 0.70185 0.10988 0.06880
 C347 C 0.65716 0.08864 0.05332
 C348 C 0.63199 0.02822 0.04709
 C349 C 0.65228 -0.01112 0.05644
 H350 H 0.80241 0.16882 0.10149
 H351 H 0.87685 0.15736 0.12432
 H352 H 0.80716 -0.02732 0.10577
 H353 H 0.72123 0.15596 0.07357
 H354 H 0.64186 0.11910 0.04628
 H355 H 0.63444 -0.05711 0.05169
 C356 C 0.21714 0.27006 0.40465
 C357 C 0.19669 0.30970 0.39819
 C358 C 0.14180 0.29907 0.40463
 C359 C 0.10692 0.24572 0.41832
 C360 C 0.12721 0.20414 0.42526
 C361 C 0.18324 0.21679 0.41813
 O362 O 0.27064 0.28868 0.39707
 C363 C 0.28436 0.34123 0.38561
 C364 C 0.24079 0.35641 0.38569
 C365 C 0.24682 0.41013 0.37475
 C366 C 0.29989 0.44959 0.36331
 C367 C 0.34546 0.43476 0.36311
 C368 C 0.33708 0.37955 0.37447
 H369 H 0.12664 0.33102 0.39952
 H370 H 0.06469 0.23760 0.42393
 H371 H 0.20010 0.18611 0.42292
 H372 H 0.21201 0.42130 0.37505
 H373 H 0.30548 0.49156 0.35470
 H374 H 0.37068 0.36649 0.37472
 C375 C -0.00599 0.73910 0.74223
 C376 C -0.05039 0.72585 0.72755
 C377 C -0.09126 0.74520 0.72944
 C378 C -0.08608 0.77990 0.74717
 C379 C -0.04069 0.79434 0.76262
 C380 C 0.00001 0.77359 0.75998
 O381 O 0.02672 0.71415 0.73795
 C382 C 0.00233 0.68441 0.72018
 C383 C -0.04499 0.69026 0.71320
 C384 C -0.07906 0.66050 0.69568
 C385 C -0.06462 0.62203 0.68522
 C386 C -0.01660 0.61434 0.69224
 C387 C 0.01819 0.64702 0.70970
 H388 H -0.12606 0.73376 0.71773
 H389 H -0.11707 0.79603 0.74872
 H390 H 0.03457 0.78291 0.77166
 H391 H -0.11642 0.66535 0.69066
 H392 H -0.09163 0.59713 0.67191
 H393 H 0.05419 0.64087 0.71571
   
