data_POSCAR
  _audit_creation_date              2014-09-24
  _audit_creation_method            'ToBaCCo'
  _symmetry_space_group_name_H-M    'P1'
  _symmetry_Int_Tables_number       1
  _symmetry_cell_setting            triclinic
  loop_
  _symmetry_equiv_pos_as_xyz
 x,y,z
_cell_length_a 12.0266
_cell_length_b 12.0266
_cell_length_c 21.9924
_cell_angle_alpha 89.802300
_cell_angle_beta 89.802300
_cell_angle_gamma 89.998000
loop_
  _atom_site_label
  _atom_site_type_symbol
  _atom_site_fract_x
  _atom_site_fract_y
  _atom_site_fract_z
O1 O 0.09097 0.60970 1.05834
 O2 O 0.09117 0.39332 0.94030
 O3 O 0.09114 0.61028 0.94008
 O4 O 0.09098 0.39309 1.05849
 O5 O -0.09274 0.39303 1.05873
 O6 O -0.09248 0.61035 0.94034
 O7 O -0.09254 0.39335 0.94051
 O8 O -0.09274 0.60969 1.05863
 Cu9 Cu 0.10951 0.50163 0.99924
 Cu10 Cu -0.11108 0.50164 0.99954
 C11 C -0.00090 0.64668 1.07846
 C12 C -0.00064 0.35606 0.92059
 C13 C -0.00062 0.64783 0.92023
 C14 C -0.00090 0.35584 1.07859
 O15 O 0.61028 0.09114 0.44008
 O16 O 0.39309 0.09098 0.55849
 O17 O 0.60970 0.09097 0.55834
 O18 O 0.39332 0.09117 0.44030
 O19 O 0.39335 -0.09254 0.44051
 O20 O 0.60969 -0.09274 0.55863
 O21 O 0.39303 -0.09274 0.55873
 O22 O 0.61035 -0.09248 0.44034
 Cu23 Cu 0.50163 0.10951 0.49924
 Cu24 Cu 0.50164 -0.11108 0.49954
 C25 C 0.64783 -0.00062 0.42023
 C26 C 0.35584 -0.00090 0.57859
 C27 C 0.64668 -0.00090 0.57846
 C28 C 0.35606 -0.00064 0.42059
 C29 C -0.00077 0.00006 0.25055
 C30 C 0.00007 -0.00077 0.75055
 N31 N 0.09625 -0.22316 0.14549
 C32 C -0.00091 -0.26566 0.12470
 N33 N -0.09804 -0.22340 0.14604
 N34 N -0.09800 -0.14182 0.18685
 C35 C -0.00084 -0.10023 0.20860
 N36 N 0.09627 -0.14158 0.18629
 N37 N 0.09625 0.22498 0.14570
 C38 C -0.00091 0.26758 0.12481
 N39 N -0.09805 0.22474 0.14596
 N40 N -0.09800 0.14254 0.18671
 C41 C -0.00085 0.10086 0.20858
 N42 N 0.09627 0.14279 0.18644
 N43 N 0.22498 0.09625 0.64570
 C44 C 0.26758 -0.00091 0.62481
 N45 N 0.22474 -0.09805 0.64596
 N46 N 0.14254 -0.09800 0.68671
 C47 C 0.10086 -0.00085 0.70858
 N48 N 0.14279 0.09627 0.68644
 N49 N -0.22340 -0.09804 0.64604
 C50 C -0.26566 -0.00091 0.62470
 N51 N -0.22316 0.09625 0.64549
 N52 N -0.14158 0.09627 0.68629
 C53 C -0.10023 -0.00084 0.70860
 N54 N -0.14182 -0.09800 0.68685
 N55 N -0.09755 -0.22530 0.85554
 C56 C -0.00048 -0.26818 0.87653
 N57 N 0.09674 -0.22548 0.85529
 N58 N 0.09689 -0.14327 0.81456
 C59 C -0.00015 -0.10132 0.79271
 N60 N -0.09736 -0.14307 0.81480
 N61 N 0.09674 0.22443 0.85414
 C62 C -0.00049 0.26752 0.87484
 N63 N -0.09755 0.22471 0.85410
 N64 N -0.09737 0.14215 0.81388
 C65 C -0.00014 0.09999 0.79218
 N66 N 0.09690 0.14186 0.81393
 N67 N -0.22530 -0.09755 0.35554
 C68 C -0.26818 -0.00048 0.37653
 N69 N -0.22548 0.09674 0.35529
 N70 N -0.14327 0.09689 0.31456
 C71 C -0.10132 -0.00015 0.29271
 N72 N -0.14307 -0.09736 0.31480
 N73 N 0.22443 0.09674 0.35414
 C74 C 0.26752 -0.00049 0.37484
 N75 N 0.22471 -0.09755 0.35410
 N76 N 0.14215 -0.09737 0.31388
 C77 C 0.09999 -0.00014 0.29218
 N78 N 0.14186 0.09690 0.31393
   
