data_POSCAR
  _audit_creation_date              2014-09-24
  _audit_creation_method            'ToBaCCo'
  _symmetry_space_group_name_H-M    'P1'
  _symmetry_Int_Tables_number       1
  _symmetry_cell_setting            triclinic
  loop_
  _symmetry_equiv_pos_as_xyz
 x,y,z
_cell_length_a 28.5075
_cell_length_b 28.7752
_cell_length_c 75.0334
_cell_angle_alpha 90.309800
_cell_angle_beta 90.376600
_cell_angle_gamma 118.880200
loop_
  _atom_site_label
  _atom_site_type_symbol
  _atom_site_fract_x
  _atom_site_fract_y
  _atom_site_fract_z
C1 C 0.01183 0.03256 0.51219
 C2 C -0.03179 -0.00414 0.49873
 C3 C -0.01711 -0.03384 0.48808
 C4 C 0.04015 -0.02405 0.49223
 C5 C 0.02517 -0.00517 0.52258
 C6 C 0.03983 -0.03487 0.51232
 C7 C 0.06096 0.06524 0.50080
 C8 C 0.07606 0.03621 0.49039
 H9 H -0.07191 -0.00953 0.49861
 H10 H 0.05451 -0.04670 0.48407
 H11 H 0.01877 -0.01126 0.53679
 H12 H 0.08010 0.10816 0.50025
 C13 C 0.96155 -0.03603 0.18165
 C14 C 0.99930 -0.04215 0.16832
 C15 C 1.03194 0.00353 0.15948
 C16 C 1.02330 0.05083 0.16468
 C17 C 0.99686 0.00797 0.19309
 C18 C 1.03119 0.05646 0.18409
 C19 C 0.93122 -0.01504 0.17032
 C20 C 0.96302 0.03022 0.16142
 H21 H 1.00187 -0.07802 0.16633
 H22 H 1.04757 0.08687 0.15682
 H23 H 1.00127 0.00140 0.20702
 H24 H 0.88811 -0.03668 0.16846
 C25 C 0.02238 0.99676 0.84618
 C26 C 0.02865 1.04039 0.83299
 C27 C -0.01543 1.02694 0.82232
 C28 C -0.06196 0.97090 0.82612
 C29 C -0.02810 0.98496 0.85653
 C30 C -0.07211 0.97160 0.84622
 C31 C 0.00642 0.94777 0.83445
 C32 C -0.03742 0.93395 0.82398
 H33 H 0.06298 1.07950 0.83290
 H34 H -0.09863 0.95777 0.81788
 H35 H -0.02778 0.99115 0.87081
 H36 H 0.03030 0.92781 0.83370
 O37 O 0.57254 0.07746 -0.01638
 O38 O 0.48930 0.08380 0.02036
 O39 O 0.58401 0.08946 0.01826
 O40 O 0.48336 0.08038 -0.01419
 O41 O 0.44160 -0.00695 -0.01242
 O42 O 0.54381 0.00224 0.02017
 O43 O 0.44955 -0.00342 0.02221
 O44 O 0.53079 -0.00977 -0.01420
 Cu45 Cu 0.53659 0.09151 0.00194
 Cu46 Cu 0.48739 -0.01311 0.00423
 C47 C 0.56507 0.03225 -0.02170
 C48 C 0.45450 0.04076 0.02737
 C49 C 0.58176 0.04774 0.02465
 C50 C 0.44548 0.03546 -0.01898
 O51 O -0.08157 0.41365 0.68299
 O52 O -0.07134 0.50430 0.64646
 O53 O -0.07630 0.41212 0.64850
 O54 O -0.08506 0.50311 0.68092
 O55 O 0.00289 0.54608 0.68392
 O56 O 0.01172 0.45351 0.65142
 O57 O 0.01658 0.54559 0.64969
 O58 O 0.00639 0.45706 0.68597
 Cu59 Cu -0.08737 0.45425 0.66452
 Cu60 Cu 0.01810 0.50475 0.66814
 C61 C -0.03882 0.41967 0.69055
 C62 C -0.02515 0.54015 0.64172
 C63 C -0.03109 0.41710 0.64432
 C64 C -0.04291 0.54047 0.68786
 O65 O 0.59323 0.50686 0.35180
 O66 O 0.50107 0.42332 0.31570
 O67 O 0.59216 0.50986 0.31724
 O68 O 0.50505 0.41457 0.35028
 O69 O 0.45856 0.45719 0.35255
 O70 O 0.54735 0.55423 0.31949
 O71 O 0.45642 0.46776 0.31823
 O72 O 0.54637 0.54910 0.35414
 Cu73 Cu 0.55228 0.45914 0.33365
 Cu74 Cu 0.49769 0.51141 0.33645
 C75 C 0.58573 0.54296 0.35894
 C76 C 0.46330 0.43205 0.31067
 C77 C 0.58472 0.54811 0.31258
 C78 C 0.46648 0.41882 0.35691
 C79 C -0.05199 0.10917 0.53483
 C80 C -0.01269 0.13844 0.54769
 C81 C 0.03323 0.13293 0.54898
 C82 C 0.04000 0.09844 0.53752
 C83 C 0.00081 0.06832 0.52455
 C84 C -0.04533 0.07440 0.52328
 C85 C -0.01849 0.17469 0.55956
 C86 C -0.02134 0.20555 0.56982
 C87 C -0.02311 0.24191 0.58211
 C88 C -0.02409 0.27288 0.59277
 C89 C -0.02544 0.30946 0.60563
 C90 C 0.02214 0.34912 0.61331
 C91 C 0.02055 0.38428 0.62594
 C92 C -0.02875 0.38008 0.63103
 C93 C -0.07629 0.34005 0.62320
 C94 C -0.07458 0.30503 0.61060
 H95 H -0.08759 0.11348 0.53366
 H96 H 0.06405 0.15556 0.55882
 H97 H 0.07631 0.09538 0.53871
 H98 H -0.07608 0.05337 0.51336
 H99 H 0.06042 0.35281 0.60956
 H100 H 0.05781 0.41466 0.63171
 H101 H -0.11492 0.33570 0.62680
 H102 H -0.11163 0.27444 0.60476
 C103 C 0.85215 0.88122 0.21473
 C104 C 0.85171 0.83253 0.21434
 C105 C 0.88648 0.82517 0.20302
 C106 C 0.92195 0.86667 0.19218
 C107 C 0.92300 0.91620 0.19256
 C108 C 0.88736 0.92255 0.20400
 C109 C 0.81627 0.79117 0.22603
 C110 C 0.78631 0.75834 0.23628
 C111 C 0.75124 0.72159 0.24870
 C112 C 0.72155 0.69107 0.25956
 C113 C 0.68669 0.65508 0.27274
 C114 C 0.64600 0.66271 0.28021
 C115 C 0.61272 0.62805 0.29324
 C116 C 0.61987 0.58537 0.29893
 C117 C 0.66092 0.57813 0.29131
 C118 C 0.69405 0.61276 0.27832
 H119 H 0.82557 0.88746 0.22348
 H120 H 0.88652 0.78755 0.20270
 H121 H 0.94843 0.85948 0.18381
 H122 H 0.88724 0.96010 0.20472
 H123 H 0.64008 0.69548 0.27601
 H124 H 0.58147 0.63465 0.29883
 H125 H 0.66750 0.54566 0.29537
 H126 H 0.72550 0.60658 0.27266
 C127 C 0.16046 0.05782 -0.13013
 C128 C 0.15125 0.01806 -0.11778
 C129 C 0.10123 -0.02744 -0.11724
 C130 C 0.06052 -0.03327 -0.12891
 C131 C 0.06875 0.00641 -0.14137
 C132 C 0.11958 0.05209 -0.14190
 C133 C 0.19261 0.02321 -0.10557
 C134 C 0.22580 0.02568 -0.09502
 C135 C 0.26340 0.02719 -0.08240
 C136 C 0.29497 0.02810 -0.07147
 C137 C 0.33253 0.02952 -0.05830
 C138 C 0.32737 -0.01765 -0.05122
 C139 C 0.36392 -0.01597 -0.03835
 C140 C 0.40605 0.03301 -0.03241
 C141 C 0.41072 0.08015 -0.03959
 C142 C 0.37421 0.07835 -0.05244
 H143 H 0.19925 0.09316 -0.13069
 H144 H 0.09366 -0.05856 -0.10778
 H145 H 0.02218 -0.06914 -0.12826
 H146 H 0.12860 0.08335 -0.15133
 H147 H 0.29513 -0.05569 -0.05566
 H148 H 0.35927 -0.05292 -0.03309
 H149 H 0.44268 0.11853 -0.03533
 H150 H 0.37852 0.11509 -0.05780
 C151 C 0.07220 0.88636 0.54536
 C152 C 0.03839 0.83445 0.53936
 C153 C 0.00997 0.82581 0.52330
 C154 C 0.01341 0.86890 0.51371
 C155 C 0.04517 0.92093 0.52013
 C156 C 0.07553 0.92937 0.53581
 C157 C 0.02876 0.79055 0.55067
 C158 C 0.01994 0.75501 0.56082
 C159 C 0.00963 0.71498 0.57339
 C160 C 0.00169 0.68226 0.58462
 C161 C -0.00588 0.64510 0.59852
 C162 C -0.05742 0.60708 0.60366
 C163 C -0.06407 0.57260 0.61771
 C164 C -0.01915 0.57599 0.62679
 C165 C 0.03239 0.61421 0.62141
 C166 C 0.03889 0.64843 0.60741
 H167 H 0.09414 0.89352 0.55782
 H168 H -0.01682 0.78580 0.51864
 H169 H -0.01172 0.86124 0.50205
 H170 H 0.09991 0.96917 0.54108
 H171 H -0.09239 0.60435 0.59691
 H172 H -0.10422 0.54358 0.62152
 H173 H 0.06786 0.61788 0.62806
 H174 H 0.07893 0.67784 0.60360
 C175 C 0.11425 0.14502 0.22157
 C176 C 0.15798 0.18392 0.21251
 C177 C 0.15730 0.18440 0.19390
 C178 C 0.11416 0.14429 0.18436
 C179 C 0.07150 0.10182 0.19332
 C180 C 0.07141 0.10488 0.21216
 C181 C 0.20388 0.22162 0.22261
 C182 C 0.24112 0.25100 0.23197
 C183 C 0.28303 0.28348 0.24381
 C184 C 0.31720 0.31032 0.25456
 C185 C 0.35584 0.34200 0.26802
 C186 C 0.39563 0.32989 0.27365
 C187 C 0.43106 0.35927 0.28748
 C188 C 0.42681 0.40092 0.29586
 C189 C 0.38692 0.41292 0.28996
 C190 C 0.35177 0.38366 0.27617
 H191 H 0.11365 0.14506 0.23601
 H192 H 0.19063 0.21509 0.18673
 H193 H 0.11635 0.14657 0.17006
 H194 H 0.03846 0.07659 0.22000
 H195 H 0.39890 0.29744 0.26749
 H196 H 0.46136 0.34912 0.29170
 H197 H 0.38258 0.44480 0.29607
 H198 H 0.32096 0.39319 0.27200
 C199 C 0.81898 0.00464 -0.14191
 C200 C 0.79924 -0.02473 -0.12631
 C201 C 0.81733 -0.05996 -0.12099
 C202 C 0.85690 -0.06386 -0.13072
 C203 C 0.87866 -0.03272 -0.14592
 C204 C 0.85851 0.00061 -0.15169
 C205 C 0.76488 -0.01493 -0.11472
 C206 C 0.73799 -0.00627 -0.10429
 C207 C 0.70798 0.00350 -0.09138
 C208 C 0.68288 0.01070 -0.07985
 C209 C 0.65282 0.01703 -0.06560
 C210 C 0.66320 0.06757 -0.05987
 C211 C 0.63478 0.07292 -0.04555
 C212 C 0.59581 0.02769 -0.03681
 C213 C 0.58574 -0.02282 -0.04276
 C214 C 0.61403 -0.02802 -0.05702
 H215 H 0.80575 0.03250 -0.14602
 H216 H 0.80260 -0.08263 -0.10888
 H217 H 0.87231 -0.08940 -0.12595
 H218 H 0.87593 0.02635 -0.16294
 H219 H 0.69339 0.10275 -0.06638
 H220 H 0.64338 0.11230 -0.04130
 H221 H 0.55597 -0.05850 -0.03638
 H222 H 0.60585 -0.06730 -0.06129
 C223 C 0.16235 0.05909 0.13422
 C224 C 0.15245 0.01742 0.12247
 C225 C 0.10296 -0.02921 0.12280
 C226 C 0.06357 -0.03401 0.13485
 C227 C 0.07324 0.00790 0.14666
 C228 C 0.12309 0.05435 0.14622
 C229 C 0.19343 0.02263 0.11024
 C230 C 0.22823 0.02749 0.10014
 C231 C 0.26905 0.03294 0.08838
 C232 C 0.30348 0.03662 0.07832
 C233 C 0.34356 0.03900 0.06621
 C234 C 0.34511 -0.00756 0.06192
 C235 C 0.38207 -0.00654 0.04961
 C236 C 0.41821 0.04120 0.04135
 C237 C 0.41718 0.08814 0.04599
 C238 C 0.37995 0.08698 0.05834
 H239 H 0.20060 0.09520 0.13419
 H240 H 0.09483 -0.06178 0.11376
 H241 H 0.02540 -0.07015 0.13478
 H242 H 0.13233 0.08665 0.15540
 H243 H 0.31721 -0.04490 0.06792
 H244 H 0.38177 -0.04341 0.04637
 H245 H 0.44435 0.12545 0.03984
 H246 H 0.37909 0.12330 0.06157
 C247 C 0.86465 0.88842 0.45630
 C248 C 0.87438 0.84751 0.45062
 C249 C 0.92039 0.84648 0.45654
 C250 C 0.95600 0.88541 0.46835
 C251 C 0.94611 0.92612 0.47468
 C252 C 0.90025 0.92752 0.46815
 C253 C 0.83699 0.80606 0.43893
 C254 C 0.80577 0.77091 0.42927
 C255 C 0.76899 0.72970 0.41801
 C256 C 0.73713 0.69497 0.40835
 C257 C 0.69825 0.65458 0.39670
 C258 C 0.70877 0.61650 0.38870
 C259 C 0.67161 0.57903 0.37673
 C260 C 0.62358 0.57943 0.37261
 C261 C 0.61305 0.61724 0.38102
 C262 C 0.65009 0.65445 0.39296
 H263 H 0.82938 0.88998 0.45164
 H264 H 0.92855 0.81517 0.45215
 H265 H 0.99051 0.88227 0.47260
 H266 H 0.89161 0.95880 0.47203
 H267 H 0.74598 0.61626 0.39151
 H268 H 0.68096 0.55057 0.37045
 H269 H 0.57648 0.61868 0.37818
 H270 H 0.64147 0.68367 0.39907
 C271 C -0.07262 0.09138 0.79097
 C272 C -0.02618 0.13460 0.78464
 C273 C 0.02398 0.14199 0.79012
 C274 C 0.02763 0.10675 0.80212
 C275 C -0.01896 0.06361 0.80897
 C276 C -0.06913 0.05613 0.80293
 C277 C -0.03029 0.17148 0.77267
 C278 C -0.03410 0.20234 0.76274
 C279 C -0.03823 0.23872 0.75114
 C280 C -0.04072 0.27026 0.74119
 C281 C -0.04163 0.30873 0.72919
 C282 C 0.00608 0.35498 0.72560
 C283 C 0.00653 0.39152 0.71335
 C284 C -0.04085 0.38242 0.70447
 C285 C -0.08898 0.33635 0.70843
 C286 C -0.08930 0.29966 0.72071
 H287 H -0.11171 0.08509 0.78675
 H288 H 0.06030 0.17508 0.78517
 H289 H 0.06710 0.11336 0.80584
 H290 H -0.10622 0.02377 0.80751
 H291 H 0.04319 0.36245 0.73208
 H292 H 0.04427 0.42658 0.71066
 H293 H -0.12606 0.32814 0.70178
 H294 H -0.12649 0.26394 0.72339
 C295 C 0.93273 0.07485 0.11761
 C296 C 0.88393 0.07325 0.12150
 C297 C 0.86482 0.06390 0.13895
 C298 C 0.89266 0.05329 0.15225
 C299 C 0.94008 0.05192 0.14827
 C300 C 0.96093 0.06454 0.13099
 C301 C 0.85035 0.07562 0.10751
 C302 C 0.81955 0.07486 0.09627
 C303 C 0.78124 0.07166 0.08360
 C304 C 0.74729 0.06777 0.07310
 C305 C 0.70592 0.06256 0.06083
 C306 C 0.66420 0.01221 0.05613
 C307 C 0.62355 0.00718 0.04442
 C308 C 0.62413 0.05256 0.03727
 C309 C 0.66625 0.10297 0.04211
 C310 C 0.70678 0.10787 0.05381
 H311 H 0.94775 0.08177 0.10412
 H312 H 0.82712 0.06248 0.14212
 H313 H 0.87599 0.04397 0.16551
 H314 H 0.99706 0.06309 0.12757
 H315 H 0.66305 -0.02316 0.06153
 H316 H 0.59179 -0.03215 0.04095
 H317 H 0.66798 0.13873 0.03685
 H318 H 0.73876 0.14703 0.05739
 C319 C 0.20351 0.13867 0.46903
 C320 C 0.19535 0.12092 0.45132
 C321 C 0.15067 0.07228 0.44674
 C322 C 0.11309 0.04267 0.45974
 C323 C 0.11971 0.06189 0.47735
 C324 C 0.16601 0.10940 0.48196
 C325 C 0.23067 0.15516 0.43784
 C326 C 0.26021 0.18617 0.42703
 C327 C 0.29480 0.22440 0.41483
 C328 C 0.32443 0.25799 0.40469
 C329 C 0.36010 0.29862 0.39278
 C330 C 0.40421 0.29620 0.38578
 C331 C 0.43903 0.33560 0.37426
 C332 C 0.43024 0.37812 0.36956
 C333 C 0.38593 0.38041 0.37675
 C334 C 0.35111 0.34088 0.38828
 H335 H 0.23791 0.17616 0.47274
 H336 H 0.14386 0.05826 0.43305
 H337 H 0.07751 0.00644 0.45583
 H338 H 0.17231 0.12476 0.49548
 H339 H 0.41167 0.26379 0.38920
 H340 H 0.47271 0.33256 0.36896
 H341 H 0.37799 0.41252 0.37338
 H342 H 0.31713 0.34322 0.39367
 C343 C -0.06088 0.80674 0.80151
 C344 C -0.07092 0.81536 0.78391
 C345 C -0.07552 0.86045 0.77976
 C346 C -0.06781 0.89790 0.79308
 C347 C -0.05486 0.89072 0.81059
 C348 C -0.05292 0.84410 0.81476
 C349 C -0.07187 0.77995 0.77010
 C350 C -0.07031 0.75026 0.75901
 C351 C -0.06654 0.71540 0.74650
 C352 C -0.06246 0.68547 0.73611
 C353 C -0.05731 0.64937 0.72393
 C354 C -0.00662 0.65588 0.71985
 C355 C -0.00173 0.62037 0.70818
 C356 C -0.04759 0.57783 0.70046
 C357 C -0.09834 0.57165 0.70469
 C358 C -0.10310 0.60715 0.71634
 H359 H -0.05728 0.77202 0.80489
 H360 H -0.08308 0.86761 0.76616
 H361 H -0.06902 0.93372 0.78950
 H362 H -0.04356 0.83738 0.82820
 H363 H 0.02912 0.68836 0.72569
 H364 H 0.03788 0.62628 0.70518
 H365 H -0.13447 0.53939 0.69897
 H366 H -0.14253 0.60163 0.71944
   
