data_POSCAR
  _audit_creation_date              2014-09-24
  _audit_creation_method            'ToBaCCo'
  _symmetry_space_group_name_H-M    'P1'
  _symmetry_Int_Tables_number       1
  _symmetry_cell_setting            triclinic
  loop_
  _symmetry_equiv_pos_as_xyz
 x,y,z
_cell_length_a 23.0577
_cell_length_b 23.0591
_cell_length_c 23.0612
_cell_angle_alpha 90.588300
_cell_angle_beta 89.581200
_cell_angle_gamma 80.380000
loop_
  _atom_site_label
  _atom_site_type_symbol
  _atom_site_fract_x
  _atom_site_fract_y
  _atom_site_fract_z
O1 O 0.57895 0.49507 0.04165
 O2 O 0.41756 0.50875 0.04448
 O3 O 0.50581 0.41992 0.04479
 O4 O 0.49326 0.58109 0.04071
 O5 O 0.48871 0.57792 -0.05498
 O6 O 0.50440 0.41647 -0.05098
 O7 O 0.41688 0.50135 -0.05105
 O8 O 0.57826 0.49044 -0.05415
 Cu9 Cu 0.49868 0.50128 0.05260
 Cu10 Cu 0.49713 0.49646 -0.06247
 C11 C 0.60585 0.49117 -0.00674
 C12 C 0.38971 0.50670 -0.00268
 C13 C 0.50715 0.39082 -0.00244
 C14 C 0.48919 0.60675 -0.00782
 O15 O -0.04265 0.59447 0.50137
 O16 O -0.05209 0.43675 0.50649
 O17 O -0.04531 0.51930 0.58201
 O18 O -0.04923 0.51340 0.42274
 O19 O 0.04745 0.48705 0.41936
 O20 O 0.05176 0.49840 0.57865
 O21 O 0.04494 0.41505 0.50253
 O22 O 0.05396 0.57258 0.49225
 Cu23 Cu -0.05715 0.51804 0.50310
 Cu24 Cu 0.05940 0.49140 0.49826
 C25 C 0.00716 0.61045 0.49570
 C26 C -0.00507 0.39914 0.50558
 C27 C 0.00392 0.51018 0.60740
 C28 C -0.00171 0.49853 0.39410
 O29 O 0.49585 0.04893 0.58081
 O30 O 0.48779 0.04817 0.42123
 O31 O 0.41434 0.04371 0.50410
 O32 O 0.57171 0.05384 0.49543
 O33 O 0.59394 -0.04311 0.49773
 O34 O 0.43648 -0.05332 0.50550
 O35 O 0.51281 -0.04865 0.42068
 O36 O 0.51914 -0.04794 0.58026
 Cu37 Cu 0.49054 0.05850 0.50076
 Cu38 Cu 0.51772 -0.05804 0.50070
 C39 C 0.50843 0.00068 0.60780
 C40 C 0.49878 -0.00051 0.39392
 C41 C 0.39870 -0.00643 0.50597
 C42 C 0.60957 0.00702 0.49532
 C43 C 0.55619 0.12855 -0.09678
 C44 C 0.55485 0.08729 -0.13978
 C45 C 0.52335 0.04617 -0.11772
 N46 N 0.50575 0.06066 -0.06266
 C47 C 0.52547 0.11123 -0.04992
 C48 C 0.50729 -0.00135 -0.14930
 C49 C 0.48682 -0.04860 -0.12133
 C50 C 0.45886 -0.08996 -0.14860
 C51 C 0.45201 -0.13147 -0.10802
 C52 C 0.47461 -0.11382 -0.05633
 N53 N 0.49564 -0.06312 -0.06492
 C54 C 0.47990 -0.14630 -0.00424
 C55 C 0.48561 -0.11995 0.05087
 C56 C 0.48813 -0.14942 0.10316
 C57 C 0.48988 -0.10837 0.14602
 C58 C 0.48837 -0.05470 0.11900
 N59 N 0.48449 -0.06176 0.06082
 C60 C 0.48569 0.00004 0.14839
 C61 C 0.48126 0.05416 0.11863
 C62 C 0.46057 0.10944 0.14231
 C63 C 0.46678 0.14989 0.10046
 C64 C 0.49258 0.11875 0.05261
 N65 N 0.50072 0.06039 0.06383
 C66 C 0.51139 0.14427 0.00164
 H67 H 0.57745 0.16686 -0.09976
 H68 H 0.57495 0.08759 -0.18229
 H69 H 0.52455 0.02726 0.03810
 H70 H 0.44491 -0.09071 -0.19324
 H71 H 0.43205 -0.16975 -0.11658
 H72 H 0.48625 -0.19529 0.11052
 H73 H 0.48959 -0.11732 0.19193
 H74 H 0.45358 0.19694 0.10530
 H75 H 0.52121 -0.04368 -0.03595
 H76 H 0.44201 0.12072 0.18481
 C77 C -0.09363 0.46745 0.85038
 C78 C -0.13615 0.46227 0.89090
 C79 C -0.11569 0.47934 0.94377
 N80 N -0.06265 0.49606 0.93636
 C81 C -0.04915 0.48910 0.87931
 C82 C -0.14760 0.48428 0.99675
 C83 C -0.12134 0.49210 1.05123
 C84 C -0.15182 0.50211 1.10346
 C85 C -0.11085 0.50303 1.14610
 C86 C -0.05593 0.49350 1.11929
 N87 N -0.06281 0.48589 1.06156
 C88 C -0.00142 0.48665 1.14887
 C89 C 0.05371 0.48087 1.11988
 C90 C 0.10806 0.46163 1.14473
 C91 C 0.14980 0.46600 1.10319
 C92 C 0.12007 0.48967 1.05465
 N93 N 0.06134 0.49832 1.06490
 C94 C 0.14647 0.50684 1.00330
 C95 C 0.11294 0.52217 0.95289
 C96 C 0.12932 0.55529 0.90756
 C97 C 0.08828 0.55464 0.86474
 C98 C 0.04768 0.52158 0.88522
 N99 N 0.06260 0.50245 0.93922
 C100 C 0.00055 0.50656 0.85275
 H101 H -0.09587 0.45678 0.80477
 H102 H -0.17725 0.44764 0.88163
 H103 H 0.04376 0.47157 0.96221
 H104 H -0.19860 0.50608 1.11117
 H105 H -0.12107 0.50771 1.19187
 H106 H 0.11769 0.44541 1.18792
 H107 H 0.19660 0.45266 1.10875
 H108 H 0.08840 0.57609 0.82323
 H109 H -0.02933 0.47117 1.03199
 H110 H 0.16696 0.57763 0.90533
 C111 C 0.16278 -0.12054 0.51706
 C112 C 0.12358 -0.15892 0.51400
 C113 C 0.06888 -0.12568 0.50344
 N114 N 0.07348 -0.06793 0.50266
 C115 C 0.13074 -0.06446 0.51124
 C116 C 0.01655 -0.14799 0.49091
 C117 C -0.03618 -0.11038 0.47596
 C118 C -0.08050 -0.12801 0.44320
 C119 C -0.12637 -0.08193 0.44317
 C120 C -0.10891 -0.03696 0.47547
 N121 N -0.05325 -0.05404 0.49449
 C122 C -0.14628 0.01659 0.48924
 C123 C -0.12435 0.06936 0.50034
 C124 C -0.15801 0.12467 0.50765
 C125 C -0.11959 0.16388 0.51071
 C126 C -0.06332 0.13128 0.50803
 N127 N -0.06658 0.07362 0.50131
 C128 C -0.01026 0.15427 0.51304
 C129 C 0.04543 0.11848 0.52123
 C130 C 0.09359 0.13962 0.54372
 C131 C 0.13927 0.09352 0.54426
 C132 C 0.11836 0.04486 0.52214
 N133 N 0.06062 0.06018 0.50880
 C134 C 0.15389 -0.01133 0.51506
 H135 H 0.20924 -0.13378 0.52418
 H136 H 0.13561 -0.20582 0.51889
 H137 H 0.03510 0.03403 0.48704
 H138 H -0.08000 -0.16993 0.42149
 H139 H -0.16801 -0.08155 0.42169
 H140 H -0.20524 0.13684 0.50981
 H141 H -0.13289 0.21082 0.51532
 H142 H 0.18282 0.09548 0.56054
 H143 H -0.03144 -0.03148 0.52446
 H144 H 0.09549 0.18361 0.55953
 N145 N -0.29366 0.44238 0.96985
 C146 C -0.33050 0.48929 0.99259
 N147 N -0.30742 0.53426 1.01640
 N148 N -0.24947 0.53273 1.01699
 C149 C -0.21230 0.48563 0.99493
 N150 N -0.23555 0.44040 0.97142
 N151 N 0.29765 0.52244 1.04840
 C152 C 0.32896 0.50920 0.99855
 N153 N 0.30012 0.49667 0.95010
 N154 N 0.24247 0.49610 0.95176
 C155 C 0.21095 0.50910 1.00161
 N156 N 0.23975 0.52305 1.04967
 N157 N 0.06027 -0.31074 0.47727
 C158 C 0.01009 -0.32982 0.49376
 N159 N -0.03750 -0.28941 0.50883
 N160 N -0.03474 -0.23224 0.50841
 C161 C 0.01522 -0.21276 0.49163
 N162 N 0.06243 -0.25336 0.47547
 N163 N -0.04952 0.31563 0.53935
 C164 C -0.00799 0.33624 0.50716
 N165 N 0.03186 0.29747 0.47683
 N166 N 0.02997 0.24015 0.47813
 C167 C -0.01122 0.21910 0.51053
 N168 N -0.05065 0.25804 0.54151
 N169 N 0.52739 -0.05010 -0.30284
 C170 C 0.50997 0.00073 -0.33184
 N171 N 0.49296 0.05114 -0.30080
 N172 N 0.49251 0.05050 -0.24301
 C173 C 0.50967 -0.00039 -0.21392
 N174 N 0.52758 -0.05057 -0.24509
 N175 N 0.53526 -0.03687 0.29796
 C176 C 0.49495 -0.00086 0.33058
 N177 N 0.45132 0.03549 0.30357
 N178 N 0.44781 0.03545 0.24592
 C179 C 0.48851 0.00008 0.21300
 N180 N 0.53238 -0.03598 0.24028
 N181 N 0.52896 -0.30524 0.01834
 C182 C 0.48688 -0.32960 -0.00890
 N183 N 0.44238 -0.29398 -0.03547
 N184 N 0.43978 -0.23576 -0.03410
 C185 C 0.48210 -0.21119 -0.00710
 N186 N 0.52693 -0.24724 0.01868
 N187 N 0.49308 0.29821 -0.04817
 C188 C 0.51044 0.32680 -0.00140
 N189 N 0.52927 0.29539 0.04633
 N190 N 0.53069 0.23736 0.04709
 C191 C 0.51253 0.20871 0.00053
 N192 N 0.49376 0.24041 -0.04709
 N193 N -0.28805 -0.03370 0.51555
 C194 C -0.32759 0.01035 0.49321
 N195 N -0.30787 0.05693 0.46906
 N196 N -0.25046 0.05916 0.46720
 C197 C -0.21079 0.01554 0.49047
 N198 N -0.23088 -0.03096 0.51450
 N199 N 0.29771 0.02903 0.47695
 C200 C 0.33592 -0.00959 0.50778
 N201 N 0.31479 -0.04977 0.54097
 N202 N 0.25716 -0.05078 0.54359
 C203 C 0.21877 -0.01261 0.51211
 N204 N 0.24037 0.02720 0.47871
 N205 N 0.02808 0.44759 1.30247
 C206 C -0.00325 0.49453 1.33090
 N207 N -0.03443 0.53844 1.29975
 N208 N -0.03360 0.53582 1.24202
 C209 C -0.00253 0.48874 1.21335
 N210 N 0.02787 0.44445 1.24477
 N211 N 0.05370 0.48985 0.70069
 C212 C 0.00473 0.51259 0.67091
 N213 N -0.04481 0.53538 0.70092
 N214 N -0.04567 0.53485 0.75861
 C215 C 0.00276 0.51084 0.78855
 N216 N 0.05267 0.48887 0.75847
   
