data_POSCAR
  _audit_creation_date              2014-09-24
  _audit_creation_method            'ToBaCCo'
  _symmetry_space_group_name_H-M    'P1'
  _symmetry_Int_Tables_number       1
  _symmetry_cell_setting            triclinic
  loop_
  _symmetry_equiv_pos_as_xyz
 x,y,z
_cell_length_a 46.5043
_cell_length_b 46.6704
_cell_length_c 46.3267
_cell_angle_alpha 93.414100
_cell_angle_beta 93.730900
_cell_angle_gamma 94.101100
loop_
  _atom_site_label
  _atom_site_type_symbol
  _atom_site_fract_x
  _atom_site_fract_y
  _atom_site_fract_z
C1 C 0.71382 0.67221 0.96026
 H2 H 0.73442 0.67133 0.95079
 C3 C 0.69257 0.68837 0.94791
 H4 H 0.69687 0.70016 0.92901
 C5 C 0.68230 0.65663 0.99540
 H6 H 0.67797 0.64358 1.01332
 C7 C 0.66053 0.67250 0.98376
 H8 H 0.63969 0.67183 0.99299
 N9 N 0.70830 0.65665 0.98349
 C10 C 0.79013 0.63532 1.02513
 H11 H 0.78454 0.61263 1.02693
 C12 C 0.81739 0.64738 1.03549
 H13 H 0.83283 0.63399 1.04544
 C14 C 0.77703 0.68034 1.00931
 H15 H 0.76125 0.69300 0.99896
 C16 C 0.80420 0.69330 1.01939
 H17 H 0.80935 0.71596 1.01676
 Zn18 Zn 0.73593 0.63149 0.99645
 N19 N 0.77080 0.65169 1.01187
 C20 C 0.77132 0.60937 0.95499
 N21 N 0.74392 0.60774 0.96378
 C22 C 0.72202 0.59202 0.94776
 C23 C 0.72739 0.57722 0.92168
 C24 C 0.77757 0.59496 0.92925
 C25 C 0.71913 0.62589 1.05184
 C26 C 0.70889 0.61280 1.07579
 C27 C 0.70406 0.56714 1.04764
 C28 C 0.71454 0.58121 1.02409
 N29 N 0.72148 0.61014 1.02657
 H30 H 0.78831 0.62258 0.96737
 H31 H 0.70029 0.59162 0.95486
 H32 H 0.70987 0.56501 0.90882
 H33 H 0.79942 0.59673 0.92235
 H34 H 0.72510 0.64879 1.05326
 H35 H 0.70685 0.62581 1.09564
 H36 H 0.69822 0.54418 1.04541
 H37 H 0.71699 0.56907 1.00390
 C38 C 0.82463 0.67652 1.03228
 C39 C 0.66559 0.68824 0.95962
 C40 C 0.70113 0.58319 1.07373
 C41 C 0.75543 0.57898 0.91230
 C42 C 0.73010 0.35423 0.50333
 H43 H 0.75138 0.35552 0.51446
 C44 C 0.70764 0.33692 0.51334
 H45 H 0.71161 0.32474 0.53220
 C46 C 0.69852 0.36959 0.46599
 H47 H 0.69488 0.38292 0.44803
 C48 C 0.67542 0.35255 0.47533
 H49 H 0.65410 0.35265 0.46443
 N50 N 0.72521 0.37011 0.48006
 C51 C 0.81010 0.38973 0.44846
 H52 H 0.81039 0.41294 0.44862
 C53 C 0.83348 0.37564 0.43880
 H54 H 0.85193 0.38799 0.43147
 C55 C 0.78552 0.34516 0.45745
 H56 H 0.76663 0.33334 0.46433
 C57 C 0.80847 0.33022 0.44794
 H58 H 0.80729 0.30693 0.44770
 Zn59 Zn 0.75619 0.39533 0.47031
 N60 N 0.78691 0.37442 0.45786
 C61 C 0.79563 0.41839 0.51648
 N62 N 0.76823 0.41877 0.50431
 C63 C 0.74791 0.43303 0.51797
 C64 C 0.75468 0.44715 0.54529
 C65 C 0.80331 0.43229 0.54367
 C66 C 0.73686 0.40288 0.41346
 C67 C 0.72660 0.41741 0.38989
 C68 C 0.73260 0.46179 0.42009
 C69 C 0.74278 0.44641 0.44314
 N70 N 0.74412 0.41739 0.43955
 H71 H 0.81126 0.40631 0.50577
 H72 H 0.72611 0.43242 0.50811
 H73 H 0.73814 0.45759 0.55648
 H74 H 0.82490 0.43107 0.55360
 H75 H 0.73845 0.37985 0.41120
 H76 H 0.72001 0.40555 0.36943
 H77 H 0.73074 0.48475 0.42327
 H78 H 0.74912 0.45756 0.46393
 C79 C 0.83267 0.34564 0.43864
 C80 C 0.68003 0.33625 0.49934
 C81 C 0.72416 0.44707 0.39334
 C82 C 0.78255 0.44640 0.55840
 C83 C 0.22910 -0.14122 0.00676
 H84 H 0.25015 -0.13917 0.01840
 C85 C 0.20693 -0.15927 0.01627
 H86 H 0.21089 -0.17125 0.03528
 C87 C 0.19779 -0.12719 -0.03151
 H88 H 0.19412 -0.11413 -0.04968
 C89 C 0.17499 -0.14499 -0.02269
 H90 H 0.15388 -0.14575 -0.03419
 N91 N 0.22422 -0.12568 -0.01676
 C92 C 0.30949 -0.10461 -0.04697
 H93 H 0.30953 -0.08142 -0.04695
 C94 C 0.33318 -0.11847 -0.05625
 H95 H 0.35161 -0.10597 -0.06342
 C96 C 0.28521 -0.14938 -0.03818
 H97 H 0.26630 -0.16139 -0.03159
 C98 C 0.30845 -0.16408 -0.04731
 H99 H 0.30746 -0.18736 -0.04753
 Zn100 Zn 0.25482 -0.09980 -0.02618
 N101 N 0.28627 -0.12013 -0.03789
 C102 C 0.29306 -0.07536 0.02042
 N103 N 0.26574 -0.07589 0.00783
 C104 C 0.24472 -0.06232 0.02109
 C105 C 0.25067 -0.04804 0.04846
 C106 C 0.29993 -0.06125 0.04766
 C107 C 0.23615 -0.09317 -0.08345
 C108 C 0.22538 -0.07924 -0.10723
 C109 C 0.22921 -0.03469 -0.07725
 C110 C 0.23993 -0.04951 -0.05401
 N111 N 0.24254 -0.07835 -0.05737
 H112 H 0.30926 -0.08689 0.01002
 H113 H 0.22301 -0.06365 0.01091
 H114 H 0.23359 -0.03819 0.05934
 H115 H 0.32148 -0.06179 0.05794
 H116 H 0.23872 -0.11604 -0.08551
 H117 H 0.21948 -0.09153 -0.12762
 H118 H 0.22634 -0.01189 -0.07410
 H119 H 0.24556 -0.03809 -0.03321
 C120 C 0.33265 -0.14846 -0.05635
 C121 C 0.17961 -0.16104 0.00150
 C122 C 0.22152 -0.04979 -0.10401
 C123 C 0.27845 -0.04789 0.06202
 C124 C 0.21489 0.17194 0.46178
 H125 H 0.23585 0.17145 0.45299
 C126 C 0.19362 0.18752 0.44861
 H127 H 0.19825 0.19927 0.42977
 C128 C 0.18255 0.15593 0.49602
 H129 H 0.17795 0.14293 0.51391
 C130 C 0.16074 0.17121 0.48356
 H131 H 0.13959 0.17016 0.49212
 N132 N 0.20899 0.15646 0.48497
 C133 C 0.29015 0.13756 0.52967
 H134 H 0.28477 0.11491 0.53193
 C135 C 0.31714 0.15012 0.54027
 H136 H 0.33256 0.13715 0.55089
 C137 C 0.27693 0.18190 0.51219
 H138 H 0.26126 0.19407 0.50102
 C139 C 0.30384 0.19534 0.52247
 H140 H 0.30888 0.21788 0.51920
 Zn141 Zn 0.23688 0.13219 0.49918
 N142 N 0.27093 0.15333 0.51543
 C143 C 0.27428 0.11118 0.45928
 N144 N 0.24658 0.10846 0.46716
 C145 C 0.22578 0.09159 0.45075
 C146 C 0.23267 0.07659 0.42530
 C147 C 0.28202 0.09665 0.43421
 C148 C 0.21839 0.12679 0.55398
 C149 C 0.20786 0.11372 0.57780
 C150 C 0.20528 0.06775 0.55045
 C151 C 0.21599 0.08176 0.52697
 N152 N 0.22198 0.11085 0.52912
 H153 H 0.29039 0.12527 0.47191
 H154 H 0.20376 0.09032 0.45709
 H155 H 0.21608 0.06331 0.41221
 H156 H 0.30413 0.09918 0.42813
 H157 H 0.22363 0.14981 0.55516
 H158 H 0.20483 0.12674 0.59738
 H159 H 0.20023 0.04467 0.54863
 H160 H 0.21943 0.06947 0.50714
 C161 C 0.32423 0.17913 0.53628
 C162 C 0.16622 0.18689 0.45947
 C163 C 0.20113 0.08399 0.57607
 C164 C 0.26108 0.07939 0.41694
 C165 C 0.18296 0.46691 0.21931
 H166 H 0.18208 0.45816 0.24037
 C167 C 0.19885 0.45391 0.19820
 H168 H 0.21050 0.43531 0.20310
 C169 C 0.16721 0.50050 0.18638
 H170 H 0.15404 0.51794 0.18142
 C171 C 0.18283 0.48822 0.16474
 H172 H 0.18190 0.49653 0.14338
 N173 N 0.16730 0.48957 0.21298
 C174 C 0.14296 0.53173 0.29354
 H175 H 0.12020 0.53255 0.28738
 C176 C 0.15416 0.54301 0.32082
 H177 H 0.14003 0.55264 0.33572
 C178 C 0.18900 0.51746 0.28189
 H179 H 0.20237 0.50731 0.26667
 C180 C 0.20112 0.52849 0.30912
 H181 H 0.22385 0.52678 0.31488
 Zn182 Zn 0.14119 0.50216 0.23994
 N183 N 0.16025 0.51883 0.27492
 C184 C 0.11821 0.46089 0.27586
 N185 N 0.11788 0.46912 0.24814
 C186 C 0.10353 0.45244 0.22588
 C187 C 0.08874 0.42629 0.23117
 C188 C 0.10375 0.43505 0.28205
 C189 C 0.13346 0.55629 0.22046
 C190 C 0.11908 0.57857 0.20871
 C191 C 0.07470 0.54789 0.20516
 C192 C 0.08995 0.52609 0.21708
 N193 N 0.11890 0.53056 0.22405
 H194 H 0.13035 0.47390 0.29316
 H195 H 0.10417 0.45914 0.20396
 H196 H 0.07760 0.41295 0.21337
 H197 H 0.10440 0.42859 0.30415
 H198 H 0.15639 0.55934 0.22649
 H199 H 0.13100 0.59881 0.20551
 H200 H 0.05178 0.54410 0.19919
 H201 H 0.07872 0.50565 0.22055
 C202 C 0.18340 0.54108 0.32884
 C203 C 0.19839 0.46443 0.17053
 C204 C 0.08950 0.57431 0.20082
 C205 C 0.08909 0.41749 0.25953
 C206 C -0.13535 0.00789 0.22972
 H207 H -0.13289 0.01895 0.25103
 C208 C -0.15286 0.01846 0.20781
 H209 H -0.16399 0.03768 0.21232
 C210 C -0.12287 -0.02998 0.19753
 H211 H -0.11062 -0.04843 0.19346
 C212 C -0.14016 -0.02010 0.17494
 H213 H -0.14130 -0.03113 0.15359
 N214 N -0.12083 -0.01593 0.22429
 C215 C -0.10121 -0.04821 0.30911
 H216 H -0.07803 -0.04894 0.30880
 C217 C -0.11535 -0.05738 0.33296
 H218 H -0.10307 -0.06521 0.35115
 C219 C -0.14568 -0.03752 0.28560
 H220 H -0.15747 -0.03019 0.26693
 C221 C -0.16067 -0.04651 0.30902
 H222 H -0.18394 -0.04588 0.30844
 Zn223 Zn -0.09548 -0.02662 0.25472
 N224 N -0.11643 -0.03822 0.28621
 C225 C -0.06974 0.01848 0.29364
 N226 N -0.07031 0.00635 0.26613
 C227 C -0.05602 0.01958 0.24526
 C228 C -0.04117 0.04659 0.25149
 C229 C -0.05507 0.04534 0.30079
 C230 C -0.09100 -0.08350 0.23563
 C231 C -0.07769 -0.10790 0.22627
 C232 C -0.03171 -0.07979 0.23131
 C233 C -0.04590 -0.05585 0.24063
 N234 N -0.07510 -0.05808 0.24221
 H235 H -0.08183 0.00811 0.30973
 H236 H -0.05737 0.00976 0.22341
 H237 H -0.03097 0.05758 0.23445
 H238 H -0.05577 0.05536 0.32242
 H239 H -0.11413 -0.08469 0.23744
 H240 H -0.09060 -0.12794 0.22058
 H241 H -0.00854 -0.07783 0.22960
 H242 H -0.03365 -0.03555 0.24644
 C243 C -0.14533 -0.05643 0.33292
 C244 C -0.15516 0.00445 0.18012
 C245 C -0.04781 -0.10600 0.22395
 C246 C -0.04117 0.05978 0.27940
 C247 C 0.36195 0.51070 0.73158
 H248 H 0.36443 0.52159 0.75298
 C249 C 0.34375 0.52093 0.71003
 H250 H 0.33207 0.53973 0.71482
 C251 C 0.37497 0.47354 0.69885
 H252 H 0.38765 0.45548 0.69442
 C253 C 0.35698 0.48311 0.67663
 H254 H 0.35570 0.47228 0.65519
 N255 N 0.37704 0.48737 0.72572
 C256 C 0.39818 0.45412 0.80972
 H257 H 0.42139 0.45396 0.80920
 C258 C 0.38445 0.44408 0.83346
 H259 H 0.39709 0.43618 0.85137
 C260 C 0.35321 0.46417 0.78681
 H261 H 0.34107 0.47158 0.76841
 C262 C 0.33862 0.45430 0.81014
 H263 H 0.31531 0.45435 0.80976
 Zn264 Zn 0.40295 0.47683 0.75575
 N265 N 0.38251 0.46419 0.78717
 C266 C 0.42791 0.52178 0.79525
 N267 N 0.42750 0.51014 0.76756
 C268 C 0.44150 0.52403 0.74691
 C269 C 0.45590 0.55120 0.75359
 C270 C 0.44213 0.54876 0.80284
 C271 C 0.40841 0.42037 0.73599
 C272 C 0.42210 0.39629 0.72646
 C273 C 0.46766 0.42514 0.73139
 C274 C 0.45308 0.44877 0.74089
 N275 N 0.42391 0.44601 0.74264
 H276 H 0.41604 0.51088 0.81117
 H277 H 0.44029 0.51459 0.72492
 H278 H 0.46592 0.56268 0.73676
 H279 H 0.44134 0.55834 0.82464
 H280 H 0.38530 0.41876 0.73796
 H281 H 0.40950 0.37607 0.72080
 H282 H 0.49080 0.42750 0.72961
 H283 H 0.46502 0.46922 0.74677
 C284 C 0.35442 0.44425 0.83368
 C285 C 0.34134 0.50709 0.68229
 C286 C 0.45195 0.39871 0.72403
 C287 C 0.45576 0.56385 0.78172
 C288 C 0.68038 0.96835 0.71935
 H289 H 0.67943 0.95923 0.74023
 C290 C 0.69635 0.95573 0.69810
 H291 H 0.70796 0.93702 0.70268
 C292 C 0.66490 1.00265 0.68707
 H293 H 0.65186 1.02027 0.68244
 C294 C 0.68060 0.99074 0.66528
 H295 H 0.67984 0.99948 0.64412
 N296 N 0.66487 0.99122 0.71343
 C297 C 0.64221 1.03258 0.79499
 H298 H 0.61943 1.03387 0.78930
 C299 C 0.65401 1.04312 0.82231
 H300 H 0.64027 1.05267 0.83766
 C301 C 0.68771 1.01783 0.78209
 H302 H 0.70064 1.00780 0.76638
 C303 C 0.70044 1.02810 0.80931
 H304 H 0.72320 1.02592 0.81450
 Zn305 Zn 0.63920 1.00375 0.74085
 N306 N 0.65894 1.01976 0.77575
 C307 C 0.61649 0.96232 0.77666
 N308 N 0.61569 0.97080 0.74903
 C309 C 0.60077 0.95444 0.72689
 C310 C 0.58585 0.92837 0.73222
 C311 C 0.60191 0.93655 0.78289
 C312 C 0.63192 1.05831 0.72228
 C313 C 0.61775 1.08091 0.71090
 C314 C 0.57306 1.05070 0.70730
 C315 C 0.58811 1.02858 0.71885
 N316 N 0.61711 1.03266 0.72565
 H317 H 0.62908 0.97503 0.79386
 H318 H 0.60105 0.96133 0.70501
 H319 H 0.57423 0.91529 0.71451
 H320 H 0.60294 0.92990 0.80493
 H321 H 0.65489 1.06104 0.72816
 H322 H 0.62988 1.10107 0.70783
 H323 H 0.55010 1.04721 0.70142
 H324 H 0.57668 1.00818 0.72213
 C325 C 0.68330 1.04053 0.82972
 C326 C 0.69612 0.96683 0.67069
 C327 C 0.58812 1.07704 0.70315
 C328 C 0.58666 0.91932 0.76050
 C329 C 0.01033 0.23448 -0.13594
 H330 H 0.02260 0.25517 -0.13387
 C331 C 0.01889 0.21234 -0.15428
 H332 H 0.03782 0.21595 -0.16641
 C333 C -0.02881 0.20415 -0.12198
 H334 H -0.04706 0.20088 -0.10896
 C335 C -0.02095 0.18138 -0.14008
 H336 H -0.03324 0.16069 -0.14105
 N337 N -0.01324 0.23012 -0.12038
 C338 C -0.04221 0.31557 -0.10163
 H339 H -0.04238 0.31597 -0.07827
 C340 C -0.05119 0.33895 -0.11638
 H341 H -0.05834 0.35747 -0.10440
 C342 C -0.03333 0.29070 -0.14596
 H343 H -0.02687 0.27169 -0.15748
 C344 C -0.04216 0.31361 -0.16154
 H345 H -0.04229 0.31224 -0.18498
 Zn346 Zn -0.02211 0.26107 -0.09502
 N347 N -0.03325 0.29219 -0.11651
 C348 C 0.02457 0.29932 -0.07109
 N349 N 0.01184 0.27216 -0.07089
 C350 C 0.02485 0.25154 -0.05634
 C351 C 0.05214 0.25773 -0.04184
 C352 C 0.05171 0.30643 -0.05681
 C353 C -0.07953 0.24381 -0.08850
 C354 C -0.10379 0.23441 -0.07448
 C355 C -0.07431 0.23800 -0.02923
 C356 C -0.05055 0.24739 -0.04416
 N357 N -0.05351 0.24960 -0.07335
 H358 H 0.01437 0.31522 -0.08337
 H359 H 0.01457 0.22995 -0.05706
 H360 H 0.06285 0.24093 -0.03127
 H361 H 0.06210 0.32782 -0.05799
 H362 H -0.08126 0.24605 -0.11164
 H363 H -0.12423 0.22923 -0.08699
 H364 H -0.07160 0.23565 -0.00608
 H365 H -0.02976 0.25253 -0.03251
 C366 C -0.05111 0.33795 -0.14660
 C367 C 0.00314 0.18555 -0.15633
 C368 C -0.10114 0.23121 -0.04460
 C369 C 0.06584 0.28535 -0.04248
 C370 C 0.46825 0.21614 0.18345
 H371 H 0.45883 0.23661 0.18231
 C372 C 0.45537 0.19457 0.19914
 H373 H 0.43616 0.19852 0.21033
 C374 C 0.50345 0.18508 0.16855
 H375 H 0.52152 0.18101 0.15581
 C376 C 0.49131 0.16302 0.18399
 H377 H 0.50031 0.14222 0.18329
 N378 N 0.49167 0.21096 0.16830
 C379 C 0.53456 0.29196 0.14548
 H380 H 0.53715 0.28566 0.12300
 C381 C 0.54445 0.31952 0.15670
 H382 H 0.55487 0.33444 0.14290
 C383 C 0.51673 0.28055 0.19058
 H384 H 0.50557 0.26539 0.20352
 C385 C 0.52628 0.30808 0.20269
 H386 H 0.52251 0.31408 0.22500
 Zn387 Zn 0.50458 0.23849 0.14256
 N388 N 0.52051 0.27332 0.16224
 C389 C 0.46383 0.27415 0.11946
 N390 N 0.47178 0.24662 0.11878
 C391 C 0.45498 0.22478 0.10391
 C392 C 0.42897 0.23034 0.08902
 C393 C 0.43818 0.28060 0.10491
 C394 C 0.55958 0.22105 0.13575
 C395 C 0.58252 0.21002 0.12188
 C396 C 0.55261 0.20526 0.07694
 C397 C 0.53013 0.21649 0.09170
 N398 N 0.53391 0.22372 0.12069
 H399 H 0.47688 0.29116 0.13193
 H400 H 0.46143 0.20298 0.10424
 H401 H 0.41552 0.21287 0.07748
 H402 H 0.43197 0.30256 0.10590
 H403 H 0.56206 0.22723 0.15871
 H404 H 0.60269 0.20755 0.13423
 H405 H 0.54938 0.19905 0.05399
 H406 H 0.50968 0.21914 0.08008
 C407 C 0.53987 0.32784 0.18540
 C408 C 0.46679 0.16762 0.19904
 C409 C 0.57899 0.20187 0.09228
 C410 C 0.42045 0.25853 0.08979
 C411 C 0.96064 0.72122 0.68166
 H412 H 0.95113 0.74162 0.68016
 C413 C 0.94801 0.70000 0.69794
 H414 H 0.92888 0.70414 0.70920
 C415 C 0.99589 0.69002 0.66719
 H416 H 1.01389 0.68575 0.65442
 C417 C 0.98399 0.66830 0.68323
 H418 H 0.99310 0.64756 0.68293
 N419 N 0.98396 0.71580 0.66646
 C420 C 1.02526 0.79717 0.64243
 H421 H 1.02706 0.79124 0.61972
 C422 C 1.03538 0.82463 0.65384
 H423 H 1.04515 0.83987 0.63993
 C424 C 1.00958 0.78478 0.68810
 H425 H 0.99931 0.76923 0.70126
 C426 C 1.01942 0.81214 0.70042
 H427 H 1.01672 0.81764 0.72308
 Zn428 Zn 0.99655 0.74291 0.64016
 N429 N 1.01217 0.77809 0.65942
 C430 C 0.95494 0.77744 0.61647
 N431 N 0.96351 0.75015 0.61623
 C432 C 0.94710 0.72780 0.60175
 C433 C 0.92087 0.73255 0.58682
 C434 C 0.92903 0.78310 0.60186
 C435 C 1.05174 0.72570 0.63364
 C436 C 1.07465 0.71432 0.62001
 C437 C 1.04464 0.70850 0.57516
 C438 C 1.02219 0.72010 0.58968
 N439 N 1.02602 0.72799 0.61853
 H440 H 0.96767 0.79484 0.62868
 H441 H 0.95403 0.70619 0.60246
 H442 H 0.90773 0.71467 0.57563
 H443 H 0.92232 0.80488 0.60251
 H444 H 1.05426 0.73237 0.65649
 H445 H 1.09485 0.71211 0.63242
 H446 H 1.04134 0.70172 0.55234
 H447 H 1.00170 0.72245 0.57799
 C448 C 1.03210 0.83234 0.68298
 C449 C 0.95958 0.67316 0.69838
 C450 C 1.07105 0.70543 0.59057
 C451 C 0.91170 0.76049 0.58714
 C452 C 0.50786 0.72831 0.36117
 H453 H 0.51974 0.74921 0.36305
 C454 C 0.51698 0.70616 0.34326
 H455 H 0.53600 0.70994 0.33128
 C456 C 0.46886 0.69764 0.37491
 H457 H 0.45037 0.69431 0.38759
 C458 C 0.47729 0.67484 0.35723
 H459 H 0.46522 0.65404 0.35624
 N460 N 0.48402 0.72382 0.37632
 C461 C 0.45176 0.80832 0.39088
 H462 H 0.45067 0.80930 0.41417
 C463 C 0.44305 0.83113 0.37509
 H464 H 0.43517 0.84976 0.38627
 C465 C 0.46310 0.78272 0.34782
 H466 H 0.47054 0.76369 0.33720
 C467 C 0.45459 0.80504 0.33119
 H468 H 0.45570 0.80314 0.30786
 Zn469 Zn 0.47381 0.75519 0.40027
 N470 N 0.46195 0.78493 0.37716
 C471 C 0.51858 0.79598 0.42313
 N472 N 0.50720 0.76845 0.42446
 C473 C 0.52117 0.74930 0.44028
 C474 C 0.54803 0.75749 0.45502
 C475 C 0.54517 0.80505 0.43762
 C476 C 0.41660 0.73675 0.40656
 C477 C 0.39228 0.72767 0.42065
 C478 C 0.42112 0.73381 0.46623
 C479 C 0.44498 0.74283 0.45125
 N480 N 0.44236 0.74371 0.42188
 H481 H 0.50772 0.81071 0.40989
 H482 H 0.51198 0.72736 0.44047
 H483 H 0.55949 0.74190 0.46673
 H484 H 0.55440 0.82678 0.43565
 H485 H 0.41510 0.73796 0.38326
 H486 H 0.37199 0.72166 0.40819
 H487 H 0.42342 0.73262 0.48954
 H488 H 0.46556 0.74885 0.46302
 C489 C 0.44465 0.82953 0.34499
 C490 C 0.50154 0.67921 0.34123
 C491 C 0.39459 0.72601 0.45072
 C492 C 0.56026 0.78557 0.45332
 C493 C 0.37792 -0.03273 0.26539
 C494 C 0.35730 -0.03805 0.23819
 C495 C 0.34209 -0.01521 0.23163
 C496 C 0.34897 0.01135 0.25302
 C497 C 0.39701 -0.00575 0.25927
 C498 C 0.38208 0.01765 0.25314
 C499 C 0.35912 -0.02267 0.28919
 C500 C 0.34416 0.00042 0.28316
 H501 H 0.35691 -0.05714 0.22363
 H502 H 0.33602 0.02966 0.24802
 H503 H 0.42011 -0.00597 0.25796
 H504 H 0.35816 -0.03303 0.30946
 C505 C 0.08211 1.05309 0.75662
 C506 C 0.10015 1.06145 0.73151
 C507 C 0.11853 1.04160 0.72325
 C508 C 0.11694 1.01457 0.74071
 C509 C 0.06657 1.02374 0.74577
 C510 C 0.08485 1.00348 0.73775
 C511 C 0.10416 1.04599 0.78060
 C512 C 0.12214 1.02565 0.77266
 H513 H 0.09737 1.08080 0.72016
 H514 H 0.13186 0.99841 0.73375
 H515 H 0.04344 1.01907 0.74488
 H516 H 0.10454 1.05567 0.80248
 C517 C 0.58358 0.55088 0.25187
 C518 C 0.60108 0.55940 0.22643
 C519 C 0.62013 0.54013 0.21844
 C520 C 0.61961 0.51341 0.23637
 C521 C 0.56893 0.52103 0.24161
 C522 C 0.58782 0.50128 0.23387
 C523 C 0.60614 0.54495 0.27585
 C524 C 0.62474 0.52509 0.26815
 H525 H 0.59733 0.57812 0.21439
 H526 H 0.63502 0.49768 0.22954
 H527 H 0.54589 0.51572 0.24130
 H528 H 0.60635 0.55490 0.29760
 C529 C 0.87649 0.47303 0.76911
 C530 C 0.86056 0.46505 0.73947
 C531 C 0.84429 0.48582 0.72926
 C532 C 0.84567 0.51326 0.74967
 C533 C 0.89423 0.50135 0.76462
 C534 C 0.87825 0.52276 0.75476
 C535 C 0.85307 0.48174 0.78878
 C536 C 0.83692 0.50267 0.77887
 H537 H 0.86315 0.44516 0.72695
 H538 H 0.83173 0.52974 0.74160
 H539 H 0.91755 0.50335 0.76631
 H540 H 0.85081 0.47320 0.80983
 C541 C 0.27711 0.37530 -0.02391
 C542 C 0.24799 0.35799 -0.03105
 C543 C 0.23802 0.34332 -0.00874
 C544 C 0.25815 0.34741 0.01913
 C545 C 0.27186 0.39477 0.00294
 C546 C 0.26175 0.38035 0.02549
 C547 C 0.29734 0.35356 -0.01261
 C548 C 0.28771 0.33883 0.00972
 H549 H 0.23532 0.35913 -0.05136
 H550 H 0.25001 0.33509 0.03705
 H551 H 0.27413 0.41797 0.00354
 H552 H 0.31826 0.35096 -0.02104
 C553 C 0.76156 0.08967 1.04947
 C554 C 0.73400 0.10263 1.05861
 C555 C 0.72282 0.12089 1.03983
 C556 C 0.74035 0.12460 1.01309
 C557 C 0.75317 0.07557 1.01885
 C558 C 0.74166 0.09361 0.99965
 C559 C 0.78226 0.11547 1.04417
 C560 C 0.77153 0.13379 1.02521
 H561 H 0.72428 0.09771 1.07853
 H562 H 0.73120 0.14000 0.99845
 H563 H 0.75710 0.05374 1.01246
 H564 H 0.80460 0.11746 1.05276
 C565 C 0.25266 0.59053 0.55172
 C566 C 0.22477 0.60352 0.55995
 C567 C 0.21418 0.62172 0.54070
 C568 C 0.23253 0.62517 0.51446
 C569 C 0.24482 0.57611 0.52113
 C570 C 0.23446 0.59426 0.50157
 C571 C 0.27354 0.61638 0.54682
 C572 C 0.26339 0.63437 0.52716
 H573 H 0.21438 0.59867 0.57952
 H574 H 0.22403 0.64011 0.49882
 H575 H 0.24571 0.55342 0.51550
 H576 H 0.29581 0.61816 0.55562
 C577 C 0.77323 0.87879 0.47506
 C578 C 0.74251 0.86513 0.46763
 C579 C 0.73091 0.85075 0.48935
 C580 C 0.75130 0.85123 0.51693
 C581 C 0.77049 0.89786 0.50292
 C582 C 0.75868 0.88365 0.52482
 C583 C 0.79057 0.85421 0.48497
 C584 C 0.77947 0.83972 0.50677
 H585 H 0.73062 0.86761 0.44715
 H586 H 0.74179 0.83916 0.53435
 H587 H 0.77554 0.92082 0.50472
 H588 H 0.81127 0.85011 0.47672
 C589 C -0.02666 0.26829 0.37025
 C590 C -0.03326 0.23983 0.35192
 C591 C -0.01062 0.23092 0.33744
 C592 C 0.01694 0.25132 0.34272
 C593 C -0.00020 0.26262 0.39023
 C594 C 0.02267 0.25357 0.37598
 C595 C -0.01517 0.28958 0.34929
 C596 C 0.00748 0.28099 0.33478
 H597 H -0.05321 0.22650 0.35264
 H598 H 0.03508 0.24402 0.33048
 H599 H -0.00024 0.26391 0.41359
 H600 H -0.02369 0.31042 0.34713
 C601 C 1.04581 0.75370 0.08401
 C602 C 1.05428 0.72603 0.09730
 C603 C 1.03522 0.71501 0.11550
 C604 C 1.00884 0.73273 0.11874
 C605 C 1.01532 0.74572 0.06939
 C606 C 0.99579 0.73436 0.08735
 C607 C 1.04064 0.77422 0.10980
 C608 C 1.02137 0.76361 0.12798
 H609 H 1.07405 0.71619 0.09277
 H610 H 0.99398 0.72366 0.13412
 H611 H 1.00934 0.74961 0.04723
 H612 H 1.04956 0.79641 0.11181
 C613 C 0.54570 0.25640 0.58565
 C614 C 0.55415 0.22896 0.59939
 C615 C 0.53518 0.21836 0.61790
 C616 C 0.50894 0.23628 0.62103
 C617 C 0.51508 0.24839 0.57136
 C618 C 0.49565 0.23745 0.58966
 C619 C 0.54081 0.27742 0.61114
 C620 C 0.52163 0.26726 0.62966
 H621 H 0.57378 0.21889 0.59483
 H622 H 0.49420 0.22757 0.63670
 H623 H 0.50888 0.25224 0.54924
 H624 H 0.54973 0.29959 0.61263
 C625 C 0.47241 0.77269 0.87489
 C626 C 0.46514 0.74405 0.85702
 C627 C 0.48731 0.73465 0.84211
 C628 C 0.51511 0.75480 0.84653
 C629 C 0.49922 0.76700 0.89440
 C630 C 0.52160 0.75746 0.87970
 C631 C 0.48361 0.79353 0.85337
 C632 C 0.50578 0.78445 0.83841
 H633 H 0.44501 0.73112 0.85818
 H634 H 0.53286 0.74713 0.83395
 H635 H 0.49976 0.76849 0.91778
 H636 H 0.47529 0.81444 0.85113
 C637 C 0.41754 -0.10557 0.30026
 C638 C 0.43188 -0.07812 0.30426
 C639 C 0.41994 -0.05476 0.29169
 C640 C 0.43607 -0.14850 0.32925
 C641 C 0.37954 -0.08649 0.27060
 C642 C 0.39155 -0.10976 0.28313
 C643 C 0.42803 -0.12896 0.31571
 C644 C 0.39363 -0.05860 0.27450
 H645 H 0.45175 -0.07455 0.31798
 H646 H 0.43071 -0.03356 0.29662
 H647 H 0.35855 -0.09024 0.25898
 H648 H 0.37997 -0.13084 0.28039
 C649 C 0.91774 0.40347 0.80922
 C650 C 0.93220 0.43090 0.81069
 C651 C 0.91961 0.45339 0.79710
 C652 C 0.93876 0.36134 0.83770
 C653 C 0.87817 0.42084 0.78037
 C654 C 0.89079 0.39847 0.79391
 C655 C 0.92963 0.38070 0.82462
 C656 C 0.89245 0.44861 0.78147
 H657 H 0.95288 0.43509 0.82294
 H658 H 0.93085 0.47453 0.79992
 H659 H 0.85679 0.41658 0.76959
 H660 H 0.87921 0.37741 0.79299
 C661 C 0.03520 1.12090 0.79530
 C662 C 0.06251 1.12699 0.78530
 C663 C 0.07683 1.10520 0.77182
 C664 C 0.01276 1.16217 0.82604
 C665 C 0.03622 1.07101 0.77756
 C666 C 0.02194 1.09295 0.79119
 C667 C 0.02216 1.14304 0.81170
 C668 C 0.06394 1.07684 0.76757
 H669 H 0.07320 1.14844 0.78878
 H670 H 0.09854 1.11036 0.76560
 H671 H 0.02592 1.04945 0.77616
 H672 H 0.00098 1.08790 0.79934
 C673 C 0.53408 0.61571 0.29179
 C674 C 0.55828 0.62380 0.27700
 C675 C 0.57335 0.60294 0.26295
 C676 C 0.51137 0.65606 0.32349
 C677 C 0.53956 0.56561 0.27776
 C678 C 0.52455 0.58661 0.29194
 C679 C 0.52091 0.63727 0.30882
 C680 C 0.56412 0.57347 0.26282
 H681 H 0.56623 0.64623 0.27730
 H682 H 0.59302 0.60997 0.25334
 H683 H 0.53263 0.54325 0.27973
 H684 H 0.50618 0.58007 0.30389
 C685 C 0.56246 0.41183 0.21221
 C686 C 0.58873 0.42000 0.22799
 C687 C 0.59692 0.44912 0.23500
 C688 C 0.54793 0.35706 0.19621
 C689 C 0.55248 0.46206 0.21056
 C690 C 0.54434 0.43291 0.20354
 C691 C 0.55455 0.38192 0.20400
 C692 C 0.57894 0.47048 0.22625
 H693 H 0.60293 0.40389 0.23481
 H694 H 0.61714 0.45483 0.24764
 H695 H 0.53830 0.47800 0.20331
 H696 H 0.52403 0.42683 0.19115
 C697 C 0.05694 0.91529 0.71226
 C698 C 0.03973 0.93732 0.70421
 C699 C 0.04867 0.96607 0.71252
 C700 C 0.04089 0.86125 0.69436
 C701 C 0.09206 0.95080 0.73705
 C702 C 0.08308 0.92210 0.72875
 C703 C 0.04817 0.88579 0.70290
 C704 C 0.07502 0.97311 0.72892
 H705 H 0.01953 0.93231 0.69131
 H706 H 0.03522 0.98277 0.70570
 H707 H 0.11216 0.95545 0.75017
 H708 H 0.09656 0.90524 0.73513
 C709 C 0.91827 0.60413 0.73244
 C710 C 0.93240 0.58789 0.75260
 C711 C 0.91909 0.56196 0.76054
 C712 C 0.94513 0.64974 0.71198
 C713 C 0.87708 0.56888 0.72882
 C714 C 0.89042 0.59478 0.72095
 C715 C 0.93292 0.62933 0.72202
 C716 C 0.89149 0.55159 0.74813
 H717 H 0.95392 0.59499 0.76181
 H718 H 0.93065 0.55010 0.77631
 H719 H 0.85580 0.56240 0.71900
 H720 H 0.87923 0.60721 0.70534
 C721 C 0.42477 0.09805 0.23152
 C722 C 0.39556 0.09135 0.22302
 C723 C 0.38152 0.06565 0.23057
 C724 C 0.45210 0.14392 0.21201
 C725 C 0.42576 0.05349 0.25583
 C726 C 0.43975 0.07923 0.24824
 C727 C 0.43969 0.12334 0.22156
 C728 C 0.39654 0.04594 0.24653
 H729 H 0.38372 0.10575 0.21005
 H730 H 0.35909 0.06125 0.22315
 H731 H 0.43800 0.03962 0.26898
 H732 H 0.46236 0.08424 0.25508
 C733 C 0.31423 0.41307 -0.09778
 C734 C 0.30072 0.38524 -0.10041
 C735 C 0.28842 0.37356 -0.07662
 C736 C 0.33990 0.43367 -0.14220
 C737 C 0.30306 0.41759 -0.04739
 C738 C 0.31537 0.42922 -0.07127
 C739 C 0.32802 0.42449 -0.12195
 C740 C 0.28898 0.38966 -0.04981
 H741 H 0.30011 0.37237 -0.12072
 H742 H 0.27881 0.35165 -0.07904
 H743 H 0.30556 0.43035 -0.02706
 H744 H 0.32629 0.45061 -0.06889
 C745 C 0.81295 0.91467 0.40156
 C746 C 0.81405 0.93121 0.42784
 C747 C 0.80101 0.92028 0.45167
 C748 C 0.83970 0.93385 0.35713
 C749 C 0.78564 0.87620 0.42280
 C750 C 0.79867 0.88718 0.39908
 C751 C 0.82737 0.92535 0.37741
 C752 C 0.78636 0.89260 0.44944
 H753 H 0.82542 0.95240 0.43007
 H754 H 0.80331 0.93346 0.47171
 H755 H 0.77525 0.85459 0.42048
 H756 H 0.79795 0.87405 0.37891
 C757 C 0.80109 0.04130 1.11683
 C758 C 0.79267 0.02726 1.08977
 C759 C 0.77937 0.04215 1.06783
 C760 C 0.82937 0.01571 1.15813
 C761 C 0.78258 0.08507 1.10032
 C762 C 0.79578 0.07015 1.12211
 C763 C 0.81616 0.02674 1.13904
 C764 C 0.77445 0.07151 1.07268
 H765 H 0.79668 0.00487 1.08549
 H766 H 0.77344 0.03040 1.04734
 H767 H 0.77907 0.10754 1.10488
 H768 H 0.80222 0.08128 1.14298
 C769 C 0.29384 0.54293 0.61862
 C770 C 0.28310 0.56952 0.62540
 C771 C 0.26922 0.58416 0.60377
 C772 C 0.32402 0.51853 0.65946
 C773 C 0.27639 0.54543 0.56839
 C774 C 0.29032 0.53083 0.59014
 C775 C 0.30997 0.52910 0.64066
 C776 C 0.26550 0.57237 0.57491
 H777 H 0.28603 0.57929 0.64730
 H778 H 0.26193 0.60515 0.60947
 H779 H 0.27526 0.53582 0.54656
 H780 H 0.29898 0.51043 0.58460
 C781 C 0.21117 0.56839 0.41202
 C782 C 0.23412 0.55633 0.42674
 C783 C 0.24167 0.56467 0.45590
 C784 C 0.19451 0.55099 0.35772
 C785 C 0.20337 0.59725 0.45573
 C786 C 0.19583 0.58887 0.42658
 C787 C 0.20260 0.55904 0.38233
 C788 C 0.22631 0.58517 0.47074
 H789 H 0.24611 0.54043 0.41571
 H790 H 0.25975 0.55531 0.46672
 H791 H 0.19086 0.61276 0.46662
 H792 H 0.17787 0.59816 0.41546
 C793 C 0.71341 0.06598 0.91087
 C794 C 0.71660 0.04568 0.93160
 C795 C 0.72546 0.05458 0.96036
 C796 C 0.69452 0.04926 0.85698
 C797 C 0.72760 0.10422 0.94780
 C798 C 0.71876 0.09524 0.91907
 C799 C 0.70352 0.05688 0.88144
 C800 C 0.73156 0.08406 0.96895
 H801 H 0.71198 0.02294 0.92561
 H802 H 0.72694 0.03816 0.97576
 H803 H 0.73124 0.12703 0.95292
 H804 H 0.71595 0.11120 0.90327
 C805 C 0.73138 0.92683 0.60214
 C806 C 0.73906 0.89841 0.60259
 C807 C 0.74828 0.88447 0.57762
 C808 C 0.70981 0.95259 0.64742
 C809 C 0.74230 0.92745 0.55173
 C810 C 0.73312 0.94131 0.57668
 C811 C 0.72017 0.94074 0.62716
 C812 C 0.75007 0.89879 0.55181
 H813 H 0.73757 0.88689 0.62212
 H814 H 0.75386 0.86251 0.57869
 H815 H 0.74239 0.93905 0.53221
 H816 H 0.72683 0.96318 0.57594
 C817 C 0.23284 0.42342 0.10203
 C818 C 0.23137 0.43641 0.07561
 C819 C 0.24083 0.42250 0.05082
 C820 C 0.21181 0.44970 0.14736
 C821 C 0.25330 0.38237 0.07873
 C822 C 0.24381 0.39636 0.10356
 C823 C 0.22192 0.43754 0.12711
 C824 C 0.25208 0.39531 0.05205
 H825 H 0.22255 0.45718 0.07406
 H826 H 0.23861 0.43286 0.03061
 H827 H 0.26170 0.36155 0.08062
 H828 H 0.24484 0.38598 0.12386
 C829 C -0.09979 0.30463 0.40834
 C830 C -0.07257 0.30799 0.42335
 C831 C -0.04902 0.29571 0.41161
 C832 C -0.14358 0.33078 0.42844
 C833 C -0.07999 0.27662 0.36979
 C834 C -0.10346 0.28890 0.38159
 C835 C -0.12362 0.31865 0.41953
 C836 C -0.05248 0.27935 0.38484
 H837 H -0.06939 0.32069 0.44381
 H838 H -0.02807 0.29994 0.42316
 H839 H -0.08328 0.26556 0.34850
 H840 H -0.12433 0.28666 0.36951
 C841 C 0.40007 0.81025 0.91335
 C842 C 0.42704 0.81218 0.92884
 C843 C 0.45036 0.79950 0.91704
 C844 C 0.35654 0.83680 0.93357
 C845 C 0.41963 0.78282 0.87424
 C846 C 0.39640 0.79549 0.88608
 C847 C 0.37646 0.82457 0.92467
 C848 C 0.44690 0.78421 0.88968
 H849 H 0.43022 0.82407 0.94975
 H850 H 0.47114 0.80266 0.92907
 H851 H 0.41640 0.77246 0.85262
 H852 H 0.37572 0.79428 0.87369
 C853 C 1.11421 0.79327 0.03678
 C854 C 1.11916 0.78683 0.06563
 C855 C 1.09703 0.77359 0.08014
 C856 C 1.15609 0.82214 0.01243
 C857 C 1.06482 0.77258 0.03678
 C858 C 1.08711 0.78593 0.02228
 C859 C 1.13673 0.80863 0.02281
 C860 C 1.06939 0.76649 0.06614
 H861 H 1.14004 0.79249 0.07711
 H862 H 1.10133 0.76929 0.10268
 H863 H 1.04426 0.76765 0.02478
 H864 H 1.08307 0.79092 -0.00010
 C865 C 0.61409 0.29355 0.53674
 C866 C 0.61895 0.28874 0.56605
 C867 C 0.59679 0.27637 0.58116
 C868 C 0.65625 0.32044 0.51099
 C869 C 0.56473 0.27298 0.53752
 C870 C 0.58705 0.28546 0.52243
 C871 C 0.63674 0.30782 0.52201
 C872 C 0.56920 0.26857 0.56732
 H873 H 0.63979 0.29494 0.57738
 H874 H 0.60105 0.27321 0.60397
 H875 H 0.54428 0.26722 0.52558
 H876 H 0.58311 0.28911 0.49968
 C877 C 0.40667 0.21046 0.56193
 C878 C 0.41503 0.21567 0.59137
 C879 C 0.44379 0.22414 0.60038
 C880 C 0.35285 0.19149 0.54533
 C881 C 0.45610 0.22197 0.55040
 C882 C 0.42729 0.21347 0.54148
 C883 C 0.37726 0.20063 0.55286
 C884 C 0.46487 0.22786 0.58007
 H885 H 0.39931 0.21297 0.60746
 H886 H 0.44901 0.22764 0.62334
 H887 H 0.47138 0.22328 0.53385
 H888 H 0.42117 0.20893 0.51860
 C889 C 0.90711 0.70723 0.05861
 C890 C 0.91516 0.71227 0.08813
 C891 C 0.94384 0.72077 0.09746
 C892 C 0.85333 0.68856 0.04148
 C893 C 0.95668 0.71894 0.04764
 C894 C 0.92795 0.71042 0.03840
 C895 C 0.87775 0.69752 0.04921
 C896 C 0.96513 0.72468 0.07740
 H897 H 0.89927 0.70946 0.10403
 H898 H 0.94883 0.72417 0.12047
 H899 H 0.97214 0.72042 0.03128
 H900 H 0.92206 0.70604 0.01546
 C901 C 0.59749 0.72576 0.92136
 C902 C 0.59897 0.73786 0.89454
 C903 C 0.57441 0.74844 0.88114
 C904 C 0.64241 0.70256 0.94597
 C905 C 0.54685 0.73493 0.92144
 C906 C 0.57140 0.72439 0.93478
 C907 C 0.62227 0.71359 0.93465
 C908 C 0.54801 0.74716 0.89441
 H909 H 0.61902 0.73889 0.88385
 H910 H 0.57627 0.75762 0.86045
 H911 H 0.52684 0.73271 0.93205
 H912 H 0.56990 0.71474 0.95539
 C913 C 0.09826 0.22291 0.41920
 C914 C 0.10016 0.23512 0.39248
 C915 C 0.07567 0.24530 0.37854
 C916 C 0.14311 0.20066 0.44504
 C917 C 0.04735 0.23113 0.41808
 C918 C 0.07182 0.22098 0.43196
 C919 C 0.12301 0.21125 0.43313
 C920 C 0.04894 0.24353 0.39117
 H921 H 0.12049 0.23656 0.38231
 H922 H 0.07786 0.25459 0.35795
 H923 H 0.02709 0.22851 0.42819
 H924 H 0.07001 0.21124 0.45249
 C925 C 0.55335 0.14288 0.66231
 C926 C 0.55836 0.14432 0.63298
 C927 C 0.55157 0.16849 0.61835
 C928 C 0.57392 0.09978 0.68974
 C929 C 0.53362 0.18970 0.66205
 C930 C 0.54059 0.16544 0.67676
 C931 C 0.56362 0.11929 0.67773
 C932 C 0.53968 0.19170 0.63287
 H933 H 0.56824 0.12704 0.62157
 H934 H 0.55600 0.16922 0.59574
 H935 H 0.52467 0.20734 0.67379
 H936 H 0.53680 0.16465 0.69953
 C937 C 1.05401 0.63957 0.15965
 C938 C 1.05924 0.64123 0.13039
 C939 C 1.05223 0.66538 0.11582
 C940 C 1.07506 0.59678 0.18720
 C941 C 1.03362 0.68605 0.15942
 C942 C 1.04081 0.66183 0.17407
 C943 C 1.06455 0.61611 0.17508
 C944 C 1.03989 0.68831 0.13033
 H945 H 1.06948 0.62418 0.11902
 H946 H 1.05686 0.66631 0.09327
 H947 H 1.02435 0.70349 0.17116
 H948 H 1.03685 0.66086 0.19679
 C949 C 0.98834 0.82491 0.18720
 C950 C 0.96974 0.80298 0.17281
 C951 C 0.98073 0.78185 0.15491
 C952 C 0.96582 0.86948 0.21252
 C953 C 1.02918 0.80365 0.16690
 C954 C 1.01816 0.82481 0.18478
 C955 C 0.97647 0.84898 0.20175
 C956 C 1.01046 0.78243 0.15108
 H957 H 0.94658 0.80299 0.17433
 H958 H 0.96574 0.76632 0.14267
 H959 H 1.05224 0.80451 0.16453
 H960 H 1.03277 0.84173 0.19576
 C961 C 0.48873 0.32973 0.68778
 C962 C 0.51852 0.32976 0.68507
 C963 C 0.52952 0.30828 0.66756
 C964 C 0.46596 0.37438 0.71269
 C965 C 0.48114 0.28596 0.65652
 C966 C 0.47016 0.30740 0.67404
 C967 C 0.47680 0.35392 0.70207
 C968 C 0.51081 0.28660 0.65240
 H969 H 0.53310 0.34697 0.69556
 H970 H 0.55255 0.30920 0.66500
 H971 H 0.46614 0.27008 0.64479
 H972 H 0.44703 0.30728 0.67580
 C973 C 0.47847 0.64870 0.80309
 C974 C 0.45608 0.66690 0.79930
 C975 C 0.45946 0.69531 0.81090
 C976 C 0.46626 0.59342 0.78830
 C977 C 0.50829 0.68799 0.82906
 C978 C 0.50479 0.65941 0.81754
 C979 C 0.47297 0.61855 0.79459
 C980 C 0.48534 0.70593 0.82648
 H981 H 0.43559 0.65882 0.78824
 H982 H 0.44156 0.70878 0.80836
 H983 H 0.52833 0.69555 0.84125
 H984 H 0.52218 0.64544 0.82081
 C985 C -0.01810 0.14481 0.29907
 C986 C -0.04033 0.16298 0.29416
 C987 C -0.03728 0.19149 0.30545
 C988 C -0.03040 0.08935 0.28541
 C989 C 0.01099 0.18437 0.32542
 C990 C 0.00781 0.15568 0.31422
 C991 C -0.02356 0.11454 0.29118
 C992 C -0.01190 0.20225 0.32182
 H993 H -0.06051 0.15478 0.28256
 H994 H -0.05512 0.20492 0.30217
 H995 H 0.03064 0.19206 0.33822
 H996 H 0.02506 0.14173 0.31837
 C997 C 0.04960 0.34307 0.28430
 C998 C 0.01946 0.33882 0.28216
 C999 C 0.00576 0.31731 0.29722
 C1000 C 0.07492 0.39047 0.26603
 C1001 C 0.05233 0.30313 0.31533
 C1002 C 0.06604 0.32472 0.30029
 C1003 C 0.06337 0.36838 0.27335
 C1004 C 0.02205 0.29990 0.31476
 H1005 H 0.00652 0.35294 0.26994
 H1006 H -0.01763 0.31501 0.29603
 H1007 H 0.06539 0.29029 0.32879
 H1008 H 0.08940 0.32800 0.30229
 C1009 C 0.54712 0.84531 0.78605
 C1010 C 0.51697 0.84135 0.78467
 C1011 C 0.50348 0.82021 0.80033
 C1012 C 0.57237 0.89239 0.76710
 C1013 C 0.55023 0.80574 0.81753
 C1014 C 0.56373 0.82697 0.80188
 C1015 C 0.56081 0.87042 0.77466
 C1016 C 0.52000 0.80287 0.81774
 H1017 H 0.50389 0.85548 0.77260
 H1018 H 0.48010 0.81817 0.79973
 H1019 H 0.56347 0.79293 0.83086
 H1020 H 0.58711 0.83003 0.80331
 C1021 C 0.66769 0.55557 0.14396
 C1022 C 0.65660 0.52753 0.14830
 C1023 C 0.64210 0.52204 0.17327
 C1024 C 0.69047 0.57135 0.09601
 C1025 C 0.65045 0.57242 0.18968
 C1026 C 0.66500 0.57780 0.16498
 C1027 C 0.68033 0.56265 0.11747
 C1028 C 0.63832 0.54464 0.19381
 H1029 H 0.65849 0.51016 0.13212
 H1030 H 0.63277 0.50050 0.17589
 H1031 H 0.64821 0.59014 0.20537
 H1032 H 0.67353 0.59955 0.16191
 C1033 C 0.16642 1.05596 0.64874
 C1034 C 0.15450 1.02820 0.65297
 C1035 C 0.13989 1.02305 0.67794
 C1036 C 0.18936 1.07103 0.60063
 C1037 C 0.14979 1.07321 0.69463
 C1038 C 0.16445 1.07825 0.66990
 C1039 C 0.17913 1.06272 0.62219
 C1040 C 0.13684 1.04573 0.69864
 H1041 H 0.15581 1.01079 0.63668
 H1042 H 0.12991 1.00174 0.68043
 H1043 H 0.14812 1.09098 0.71043
 H1044 H 0.17362 1.09979 0.66692
 C1045 C 0.17791 0.98778 0.83488
 C1046 C 0.15152 0.99732 0.84265
 C1047 C 0.13356 1.00967 0.82243
 C1048 C 0.20865 0.96294 0.87492
 C1049 C 0.16828 1.00310 0.78623
 C1050 C 0.18632 0.99065 0.80663
 C1051 C 0.19550 0.97438 0.85609
 C1052 C 0.14175 1.01286 0.79401
 H1053 H 0.14465 0.99491 0.86434
 H1054 H 0.11294 1.01617 0.82897
 H1055 H 0.17519 1.00535 0.76456
 H1056 H 0.20669 0.98319 0.80036
 C1057 C 0.68056 0.48762 0.33060
 C1058 C 0.65426 0.49737 0.33838
 C1059 C 0.63637 0.50979 0.31815
 C1060 C 0.71067 0.46179 0.37031
 C1061 C 0.67108 0.50302 0.28197
 C1062 C 0.68903 0.49048 0.30237
 C1063 C 0.69784 0.47374 0.35166
 C1064 C 0.64455 0.51282 0.28970
 H1065 H 0.64734 0.49496 0.36006
 H1066 H 0.61576 0.51629 0.32467
 H1067 H 0.67799 0.50515 0.26029
 H1068 H 0.70933 0.48286 0.29610
 C1069 C 0.80451 0.47183 0.64310
 C1070 C 0.80175 0.45037 0.66279
 C1071 C 0.81360 0.45544 0.69125
 C1072 C 0.78930 0.45739 0.58792
 C1073 C 0.82998 0.50397 0.68092
 C1074 C 0.81820 0.49883 0.65233
 C1075 C 0.79574 0.46490 0.61299
 C1076 C 0.82838 0.48209 0.70042
 H1077 H 0.79132 0.42936 0.65587
 H1078 H 0.81190 0.43827 0.70593
 H1079 H 0.84168 0.52441 0.68721
 H1080 H 0.82072 0.51550 0.63719
 C1081 C 0.29901 -0.02276 0.14704
 C1082 C 0.29232 -0.04304 0.16712
 C1083 C 0.30490 -0.03952 0.19543
 C1084 C 0.28446 -0.03686 0.09165
 C1085 C 0.32964 0.00551 0.18428
 C1086 C 0.31714 0.00190 0.15585
 C1087 C 0.29046 -0.02942 0.11682
 C1088 C 0.32427 -0.01559 0.20402
 H1089 H 0.27855 -0.06234 0.16049
 H1090 H 0.30060 -0.05614 0.21026
 H1091 H 0.34511 0.02363 0.19008
 H1092 H 0.32282 0.01752 0.14040
 C1093 C 0.29490 0.03972 0.34788
 C1094 C 0.28493 0.03903 0.31861
 C1095 C 0.30105 0.02654 0.29724
 C1096 C 0.26966 0.06478 0.39103
 C1097 C 0.33705 0.01593 0.33452
 C1098 C 0.32103 0.02828 0.35566
 C1099 C 0.27970 0.05319 0.37045
 C1100 C 0.32716 0.01463 0.30509
 H1101 H 0.26484 0.04811 0.31233
 H1102 H 0.29289 0.02574 0.27475
 H1103 H 0.35743 0.00767 0.34126
 H1104 H 0.32919 0.02911 0.37818
 C1105 C 0.78209 0.54099 0.83834
 C1106 C 0.79744 0.55826 0.81994
 C1107 C 0.81391 0.54566 0.79908
 C1108 C 0.76214 0.56504 0.88530
 C1109 C 0.79847 0.49842 0.81404
 C1110 C 0.78200 0.51103 0.83478
 C1111 C 0.77005 0.55396 0.86332
 C1112 C 0.81537 0.51567 0.79669
 H1113 H 0.79791 0.58151 0.82273
 H1114 H 0.82692 0.55944 0.78621
 H1115 H 0.79892 0.47521 0.81236
 H1116 H 0.77035 0.49746 0.84898
 C1117 C 0.13789 0.66490 0.55764
 C1118 C 0.16047 0.67919 0.54426
 C1119 C 0.18498 0.66486 0.53777
 C1120 C 0.09414 0.69197 0.57701
 C1121 C 0.16404 0.62181 0.55745
 C1122 C 0.13960 0.63607 0.56378
 C1123 C 0.11394 0.68005 0.56728
 C1124 C 0.18725 0.63621 0.54490
 H1125 H 0.15948 0.70158 0.53958
 H1126 H 0.20260 0.67653 0.52829
 H1127 H 0.16490 0.59958 0.56269
 H1128 H 0.12231 0.62477 0.57414
 C1129 C 0.64624 0.16284 1.05848
 C1130 C 0.64846 0.13398 1.06427
 C1131 C 0.67303 0.12018 1.05749
 C1132 C 0.60219 0.18894 1.07842
 C1133 C 0.69314 0.16378 1.03815
 C1134 C 0.66849 0.17765 1.04509
 C1135 C 0.62211 0.17746 1.06844
 C1136 C 0.69588 0.13506 1.04482
 H1137 H 0.63143 0.12230 1.07465
 H1138 H 0.67428 0.09789 1.06241
 H1139 H 0.71048 0.17582 1.02862
 H1140 H 0.66711 0.20007 1.04070
 C1141 C 0.83263 0.19408 0.99174
 C1142 C 0.81016 0.18017 0.97339
 C1143 C 0.78915 0.16187 0.98459
 C1144 C 0.87683 0.22029 0.96832
 C1145 C 0.81216 0.17245 1.03281
 C1146 C 0.83321 0.19074 1.02158
 C1147 C 0.85653 0.20913 0.97946
 C1148 C 0.79038 0.15714 1.01427
 H1149 H 0.80963 0.18240 0.95022
 H1150 H 0.77317 0.15010 0.96970
 H1151 H 0.81352 0.16946 1.05584
 H1152 H 0.85053 0.20134 1.03600
 C1153 C 0.32575 0.69045 0.48992
 C1154 C 0.32675 0.68849 0.51998
 C1155 C 0.30543 0.67155 0.53239
 C1156 C 0.37014 0.71484 0.46521
 C1157 C 0.28127 0.65954 0.48482
 C1158 C 0.30262 0.67648 0.47245
 C1159 C 0.34972 0.70441 0.47673
 C1160 C 0.28291 0.65626 0.51484
 H1161 H 0.34456 0.69917 0.53371
 H1162 H 0.30708 0.66963 0.55561
 H1163 H 0.26450 0.64772 0.47065
 H1164 H 0.30174 0.67770 0.44913
 C1165 C 0.64280 0.81534 0.47955
 C1166 C 0.66375 0.80041 0.49428
 C1167 C 0.69245 0.81222 0.49827
 C1168 C 0.58926 0.79412 0.46504
 C1169 C 0.67902 0.85393 0.47322
 C1170 C 0.65050 0.84225 0.46943
 C1171 C 0.61373 0.80290 0.47282
 C1172 C 0.70041 0.83883 0.48720
 H1173 H 0.65804 0.77949 0.50210
 H1174 H 0.70855 0.80018 0.50908
 H1175 H 0.68437 0.87477 0.46504
 H1176 H 0.63451 0.85403 0.45805
 C1177 C 0.15108 0.30534 -0.01840
 C1178 C 0.16161 0.31972 0.00801
 C1179 C 0.19051 0.33083 0.01185
 C1180 C 0.09547 0.29144 -0.03153
 C1181 C 0.19849 0.31238 -0.03676
 C1182 C 0.16978 0.30118 -0.04049
 C1183 C 0.12071 0.29732 -0.02439
 C1184 C 0.20895 0.32793 -0.01084
 H1185 H 0.14727 0.32327 0.02517
 H1186 H 0.19796 0.34298 0.03192
 H1187 H 0.21235 0.30959 -0.05447
 H1188 H 0.16187 0.29017 -0.06104
 C1189 C 0.34695 0.28528 0.05071
 C1190 C 0.34292 0.28410 0.02049
 C1191 C 0.32226 0.30017 0.00714
 C1192 C 0.39360 0.26544 0.07562
 C1193 C 0.30833 0.31742 0.05418
 C1194 C 0.32910 0.30136 0.06755
 C1195 C 0.37177 0.27338 0.06422
 C1196 C 0.30546 0.31781 0.02386
 H1197 H 0.35666 0.27184 0.00723
 H1198 H 0.32019 0.29970 -0.01631
 H1199 H 0.29593 0.33090 0.06758
 H1200 H 0.33222 0.30264 0.09098
 C1201 C 0.83720 0.78525 0.54822
 C1202 C 0.83228 0.78292 0.51805
 C1203 C 0.81167 0.79902 0.50457
 C1204 C 0.88453 0.76656 0.57298
 C1205 C 0.79946 0.81841 0.55148
 C1206 C 0.82012 0.80231 0.56495
 C1207 C 0.86240 0.77388 0.56160
 C1208 C 0.79589 0.81782 0.52113
 H1209 H 0.84544 0.76993 0.50485
 H1210 H 0.80914 0.79793 0.48112
 H1211 H 0.78797 0.83288 0.56474
 H1212 H 0.82394 0.80451 0.58833
   
