data_POSCAR
  _audit_creation_date              2014-09-24
  _audit_creation_method            'ToBaCCo'
  _symmetry_space_group_name_H-M    'P1'
  _symmetry_Int_Tables_number       1
  _symmetry_cell_setting            triclinic
  loop_
  _symmetry_equiv_pos_as_xyz
 x,y,z
_cell_length_a 25.8068
_cell_length_b 25.9795
_cell_length_c 25.6435
_cell_angle_alpha 89.876600
_cell_angle_beta 92.714000
_cell_angle_gamma 90.585200
loop_
  _atom_site_label
  _atom_site_type_symbol
  _atom_site_fract_x
  _atom_site_fract_y
  _atom_site_fract_z
C1 C 0.03692 0.43420 0.17326
 H2 H 0.06500 0.46486 0.16911
 C3 C 0.04454 0.38655 0.14913
 H4 H 0.07714 0.38350 0.12446
 C5 C -0.03854 0.40211 0.21099
 H6 H -0.06972 0.40671 0.23702
 C7 C -0.03210 0.35406 0.18855
 H8 H -0.05883 0.32418 0.19952
 N9 N -0.00428 0.44122 0.20355
 C10 C -0.04843 0.60016 0.22782
 H11 H -0.07185 0.59068 0.26032
 C12 C -0.05239 0.64918 0.20599
 H13 H -0.07961 0.67614 0.22117
 C14 C 0.01807 0.57844 0.17158
 H15 H 0.04606 0.55118 0.15883
 C16 C 0.01603 0.62780 0.14916
 H17 H 0.04204 0.63782 0.11873
 Zn18 Zn -0.01163 0.50073 0.24664
 N19 N -0.01447 0.56525 0.20985
 C20 C 0.06650 0.55005 0.31031
 N21 N 0.04706 0.50324 0.29518
 C22 C 0.07376 0.45941 0.30684
 C23 C 0.12242 0.46179 0.33358
 C24 C 0.11490 0.55416 0.33711
 C25 C -0.11926 0.49895 0.24509
 C26 C -0.16938 0.49461 0.26289
 C27 C -0.13211 0.47350 0.34823
 C28 C -0.08243 0.47990 0.32907
 N29 N -0.07696 0.49286 0.27829
 H30 H 0.04540 0.58456 0.29973
 H31 H 0.05816 0.42261 0.29375
 H32 H 0.14306 0.42645 0.34199
 H33 H 0.13015 0.59206 0.34697
 H34 H -0.11389 0.50829 0.20455
 H35 H -0.20177 0.50235 0.23581
 H36 H -0.13513 0.46185 0.38849
 H37 H -0.04835 0.47384 0.35446
 C38 C -0.01995 0.66363 0.16620
 C39 C 0.01009 0.34466 0.15689
 C40 C -0.17680 0.48197 0.31530
 C41 C 0.14416 0.50975 0.34841
 C42 C 0.03069 0.58118 0.82884
 H43 H 0.05572 0.55373 0.84892
 C44 C 0.02639 0.63105 0.84869
 H45 H 0.04738 0.64148 0.88476
 C46 C -0.02509 0.60254 0.75612
 H47 H -0.04369 0.59192 0.71901
 C48 C -0.03110 0.65219 0.77483
 H49 H -0.05472 0.67925 0.75228
 N50 N 0.00377 0.56752 0.78404
 C51 C 0.01099 0.39939 0.77300
 H52 H 0.01089 0.39972 0.73082
 C53 C 0.01090 0.35265 0.79945
 H54 H 0.01153 0.31717 0.77740
 C55 C 0.01034 0.44560 0.85256
 H56 H 0.00841 0.48178 0.87295
 C57 C 0.01091 0.39931 0.88085
 H58 H 0.01037 0.40026 0.92304
 Zn59 Zn 0.00636 0.50144 0.75309
 N60 N 0.01092 0.44466 0.79950
 C61 C 0.10694 0.47556 0.72875
 N62 N 0.06434 0.50157 0.71058
 C63 C 0.06590 0.53214 0.66751
 C64 C 0.11189 0.53732 0.64090
 C65 C 0.15343 0.47968 0.70358
 C66 C -0.09893 0.50485 0.74364
 C67 C -0.14907 0.49886 0.72253
 C68 C -0.11404 0.45723 0.64786
 C69 C -0.06400 0.46687 0.66942
 N70 N -0.05763 0.49072 0.71635
 H71 H 0.10562 0.45320 0.76423
 H72 H 0.03183 0.55342 0.65459
 H73 H 0.11257 0.56178 0.60671
 H74 H 0.18714 0.45986 0.71997
 H75 H -0.09278 0.52116 0.78223
 H76 H -0.18050 0.51024 0.74637
 H77 H -0.11760 0.43921 0.60985
 H78 H -0.03042 0.45469 0.64916
 C79 C 0.01077 0.35212 0.85402
 C80 C -0.00558 0.66681 0.82183
 C81 C -0.15799 0.47447 0.67381
 C82 C 0.15660 0.51108 0.65919
 C83 C 0.20223 0.03614 0.42351
 H84 H 0.20963 0.07236 0.44332
 C85 C 0.18389 0.03610 0.37143
 H86 H 0.17598 0.07246 0.35206
 C87 C 0.20788 -0.05483 0.42311
 H88 H 0.21907 -0.09009 0.44287
 C89 C 0.19028 -0.05658 0.37073
 H90 H 0.18638 -0.09334 0.35103
 N91 N 0.21551 -0.00876 0.44770
 C92 C 0.26741 0.00157 0.61406
 H93 H 0.30853 0.00546 0.60834
 C94 C 0.24964 0.00071 0.66460
 H95 H 0.27729 0.00476 0.69747
 C96 C 0.18177 -0.00811 0.57772
 H97 H 0.15566 -0.01204 0.54366
 C98 C 0.16220 -0.00883 0.62783
 H99 H 0.12085 -0.01347 0.63193
 Zn100 Zn 0.26411 -0.00467 0.50532
 N101 N 0.23368 -0.00324 0.57182
 C102 C 0.29701 0.09676 0.53045
 N103 N 0.30257 0.05739 0.49627
 C104 C 0.32907 0.06440 0.45211
 C105 C 0.35143 0.11212 0.44117
 C106 C 0.31873 0.14506 0.52104
 C107 C 0.30644 -0.09821 0.54239
 C108 C 0.32784 -0.14677 0.53744
 C109 C 0.34846 -0.12545 0.44906
 C110 C 0.32726 -0.07684 0.45594
 N111 N 0.30598 -0.06433 0.50183
 H112 H 0.27407 0.09158 0.56419
 H113 H 0.33112 0.03380 0.42407
 H114 H 0.37146 0.11713 0.40532
 H115 H 0.31406 0.17569 0.54894
 H116 H 0.28766 -0.08916 0.57779
 H117 H 0.32619 -0.17374 0.56960
 H118 H 0.36378 -0.13545 0.41186
 H119 H 0.32440 -0.05081 0.42317
 C120 C 0.19643 -0.00474 0.67214
 C121 C 0.17960 -0.01054 0.34387
 C122 C 0.34816 -0.16119 0.48999
 C123 C 0.34600 0.15332 0.47568
 C124 C 0.79473 0.04417 0.56796
 H125 H 0.78336 0.07943 0.54838
 C126 C 0.81371 0.04622 0.61986
 H127 H 0.81744 0.08307 0.63943
 C128 C 0.80231 -0.04655 0.56728
 H129 H 0.79611 -0.08293 0.54770
 C130 C 0.82241 -0.04612 0.61893
 H131 H 0.83216 -0.08217 0.63808
 N132 N 0.78747 -0.00190 0.54323
 C133 C 0.74228 -0.01099 0.37576
 H134 H 0.70099 -0.01339 0.38113
 C135 C 0.76030 -0.00765 0.32559
 H136 H 0.73230 -0.00959 0.29286
 C137 C 0.82783 -0.00574 0.41323
 H138 H 0.85358 -0.00340 0.44770
 C139 C 0.84786 -0.00414 0.36346
 H140 H 0.88941 -0.00007 0.36073
 Zn141 Zn 0.74234 -0.00311 0.48176
 N142 N 0.77578 -0.00820 0.41822
 C143 C 0.71750 0.09430 0.44103
 N144 N 0.70646 0.06030 0.47958
 C145 C 0.67826 0.07472 0.52044
 C146 C 0.66167 0.12555 0.52442
 C147 C 0.70082 0.14491 0.44290
 C148 C 0.72299 -0.10628 0.47263
 C149 C 0.69683 -0.15324 0.47349
 C150 C 0.61937 -0.10842 0.49579
 C151 C 0.64739 -0.06187 0.49482
 N152 N 0.69857 -0.06192 0.48418
 H153 H 0.74164 0.08346 0.40984
 H154 H 0.67162 0.04769 0.55163
 H155 H 0.64153 0.13682 0.55860
 H156 H 0.71006 0.17090 0.41155
 H157 H 0.76324 -0.10511 0.46264
 H158 H 0.71725 -0.18800 0.46415
 H159 H 0.57889 -0.10824 0.50513
 H160 H 0.62841 -0.02605 0.50287
 C161 C 0.81386 -0.00371 0.31841
 C162 C 0.82648 0.00054 0.64638
 C163 C 0.64454 -0.15490 0.48575
 C164 C 0.67363 0.16161 0.48556
 C165 C 0.56701 0.15790 1.01802
 H166 H 0.53258 0.13862 1.03074
 C167 C 0.61217 0.12958 1.01191
 H168 H 0.61209 0.08906 1.02175
 C169 C 0.60884 0.23390 0.99004
 H170 H 0.60692 0.27450 0.98075
 C171 C 0.65430 0.20696 0.98229
 H172 H 0.68678 0.22747 0.96659
 N173 N 0.56630 0.20923 1.00745
 C174 C 0.40545 0.21816 0.97838
 H175 H 0.41060 0.24559 0.94744
 C176 C 0.35720 0.19496 0.98219
 H177 H 0.32723 0.20672 0.95396
 C178 C 0.43678 0.17741 1.05592
 H179 H 0.46766 0.17212 1.08540
 C180 C 0.38893 0.15246 1.06096
 H181 H 0.38530 0.12625 1.09338
 Zn182 Zn 0.50533 0.24928 1.00951
 N183 N 0.44428 0.20910 1.01469
 C184 C 0.50142 0.25787 0.90240
 N185 N 0.49943 0.28599 0.94680
 C186 C 0.49007 0.33742 0.94565
 C187 C 0.48073 0.36237 0.89804
 C188 C 0.49245 0.28122 0.85411
 C189 C 0.55275 0.30676 1.09311
 C190 C 0.55263 0.34099 1.13493
 C191 C 0.46069 0.35345 1.11746
 C192 C 0.46265 0.31928 1.07583
 N193 N 0.50800 0.29625 1.06502
 H194 H 0.50861 0.21696 0.90481
 H195 H 0.48907 0.35901 0.98151
 H196 H 0.47355 0.40337 0.89734
 H197 H 0.49332 0.25820 0.81900
 H198 H 0.58834 0.28820 1.08352
 H199 H 0.58843 0.34848 1.15749
 H200 H 0.42378 0.36959 1.12690
 H201 H 0.42770 0.31026 1.05255
 C202 C 0.34761 0.16108 1.02377
 C203 C 0.65671 0.15397 0.99344
 C204 C 0.50587 0.36388 1.14825
 C205 C 0.48174 0.33401 0.85170
 C206 C 0.43764 0.83550 0.97287
 H207 H 0.46494 0.83961 0.94236
 C208 C 0.39433 0.86750 0.97311
 H209 H 0.38921 0.89604 0.94253
 C210 C 0.40959 0.79065 1.04700
 H211 H 0.41526 0.76060 1.07577
 C212 C 0.36461 0.81980 1.04708
 H213 H 0.33732 0.81230 1.07705
 N214 N 0.44487 0.79842 1.00997
 C215 C 0.60963 0.75521 1.01512
 H216 H 0.60537 0.71400 1.01967
 C217 C 0.65917 0.77777 1.01788
 H218 H 0.69267 0.75360 1.02507
 C219 C 0.57071 0.83674 1.00314
 H220 H 0.53646 0.86000 0.99867
 C221 C 0.61935 0.86074 1.00483
 H222 H 0.62136 0.90209 0.99991
 Zn223 Zn 0.50047 0.75107 1.00774
 N224 N 0.56658 0.78477 1.00778
 C225 C 0.52873 0.70515 0.91328
 N226 N 0.48912 0.71154 0.94573
 C227 C 0.44015 0.69494 0.93181
 C228 C 0.42957 0.67101 0.88343
 C229 C 0.52007 0.68081 0.86520
 C230 C 0.52338 0.73241 1.11257
 C231 C 0.52020 0.70923 1.16140
 C232 C 0.46818 0.64110 1.12098
 C233 C 0.47300 0.66531 1.07252
 N234 N 0.49991 0.71045 1.06938
 H235 H 0.56703 0.71969 0.92405
 H236 H 0.40901 0.70145 0.95773
 H237 H 0.39046 0.65819 0.87272
 H238 H 0.55212 0.67645 0.83983
 H239 H 0.54338 0.76897 1.10934
 H240 H 0.53818 0.72803 1.19540
 H241 H 0.44596 0.60565 1.12322
 H242 H 0.45386 0.64904 1.03785
 C243 C 0.66456 0.83139 1.01305
 C244 C 0.35608 0.85894 1.00971
 C245 C 0.49168 0.66341 1.16623
 C246 C 0.46998 0.66362 0.84958
 B247 B 1.00079 1.05556 0.02904
 B248 B 1.00113 1.05499 -0.03801
 B249 B 1.05669 1.03923 -0.00160
 B250 B 1.03812 1.00554 0.05251
 B251 B 0.97133 0.99911 0.04905
 B252 B 0.94823 1.03012 -0.00806
 B253 B 1.01005 0.94755 -0.03675
 B254 B 1.00920 0.94834 0.03135
 B255 B 0.95366 0.96296 -0.00583
 B256 B 0.97222 0.99736 -0.06066
 B257 B 1.03890 1.00440 -0.05658
 B258 B 1.06213 0.97312 -0.00025
 B259 B 0.55513 0.49480 0.47892
 B260 B 0.50301 0.53106 0.45557
 B261 B 0.50061 0.46547 0.45041
 B262 B 0.53022 0.43976 0.50689
 B263 B 0.55163 0.49096 0.54627
 B264 B 0.53501 0.54747 0.51365
 B265 B 0.44352 0.49364 0.53605
 B266 B 0.49530 0.45768 0.55920
 B267 B 0.49759 0.52320 0.56495
 B268 B 0.46824 0.54937 0.50885
 B269 B 0.44613 0.49860 0.46911
 B270 B 0.46323 0.44232 0.49905
 C271 C 1.06680 1.27917 0.11849
 C272 C 1.01785 1.29464 0.13537
 C273 C 0.97679 1.25795 0.13115
 C274 C 0.98443 1.20832 0.11183
 C275 C 1.03295 1.19415 0.09467
 C276 C 1.07415 1.22973 0.09855
 C277 C 1.03917 1.14515 0.07260
 C278 C 0.99694 1.11065 0.06273
 C279 C 0.95086 1.12452 0.08639
 C280 C 0.94398 1.17243 0.10923
 H281 H 0.93779 1.26775 0.14069
 H282 H 1.11216 1.21942 0.08590
 H283 H 1.07688 1.13636 0.06151
 H284 H 0.90638 1.18176 0.12358
 H285 H 1.10049 1.30412 0.12201
 H286 H 0.91770 1.10067 0.08363
 C287 C 0.92801 0.73720 0.12903
 C288 C 0.97662 0.71633 0.14389
 C289 C 1.02141 0.74701 0.13984
 C290 C 1.01764 0.79745 0.12024
 C291 C 0.96913 0.81730 0.10366
 C292 C 0.92425 0.78730 0.10922
 C293 C 0.96636 0.86693 0.08177
 C294 C 1.01131 0.89494 0.06865
 C295 C 1.05684 0.87846 0.09643
 C296 C 1.06101 0.82968 0.11923
 H297 H 1.05887 0.73198 0.15287
 H298 H 0.88642 0.80218 0.09732
 H299 H 0.92890 0.88418 0.07872
 H300 H 1.09826 0.81727 0.13575
 H301 H 0.89292 0.71444 0.13229
 H302 H 1.09105 0.90129 0.09854
 C303 C 1.04732 1.29402 -0.07581
 C304 C 1.01168 1.30216 -0.11799
 C305 C 0.97944 1.26115 -0.13582
 C306 C 0.98399 1.21223 -0.11284
 C307 C 1.02116 1.20403 -0.07201
 C308 C 1.05221 1.24528 -0.05313
 C309 C 1.02707 1.15473 -0.05059
 C310 C 0.99658 1.11194 -0.06774
 C311 C 0.95806 1.12254 -0.10716
 C312 C 0.95235 1.17119 -0.13004
 H313 H 0.95127 1.26725 -0.16790
 H314 H 1.08082 1.23965 -0.02138
 H315 H 1.05618 1.15103 -0.02045
 H316 H 0.92273 1.17670 -0.16087
 H317 H 1.07272 1.32490 -0.06167
 H318 H 0.93182 1.09365 -0.12092
 C319 C 0.93917 0.74168 -0.15609
 C320 C 0.98859 0.71968 -0.15838
 C321 C 1.03261 0.74890 -0.14311
 C322 C 1.02725 0.79894 -0.12417
 C323 C 0.97768 0.82014 -0.11996
 C324 C 0.93373 0.79166 -0.13710
 C325 C 0.97303 0.86908 -0.09761
 C326 C 1.01604 0.89479 -0.07277
 C327 C 1.06457 0.87700 -0.08792
 C328 C 1.07064 0.82902 -0.11076
 H329 H 1.07093 0.73280 -0.14632
 H330 H 0.89524 0.80748 -0.13460
 H331 H 0.93537 0.88673 -0.09946
 H332 H 1.10932 0.81554 -0.11771
 H333 H 0.90473 0.71981 -0.16816
 H334 H 1.09909 0.89881 -0.08183
 C335 C 1.19085 0.96003 0.25129
 C336 C 1.16418 0.98932 0.28741
 C337 C 1.12255 1.01953 0.26937
 C338 C 1.10664 1.01963 0.21653
 C339 C 1.13283 0.99010 0.18017
 C340 C 1.17570 0.96092 0.19794
 C341 C 1.11456 0.98910 0.12734
 C342 C 1.06737 1.01306 0.11107
 C343 C 1.04446 1.04424 0.14888
 C344 C 1.06380 1.04796 0.19998
 H345 H 1.10144 1.04190 0.29687
 H346 H 1.19663 0.93790 0.17090
 H347 H 1.13736 0.96958 0.09962
 H348 H 1.04303 1.07075 0.22740
 H349 H 1.22365 0.93688 0.26431
 H350 H 1.00774 1.06206 0.14215
 C351 C 1.20322 0.96681 -0.23362
 C352 C 1.17694 0.99426 -0.27409
 C353 C 1.13200 1.02121 -0.26280
 C354 C 1.11297 1.01989 -0.21245
 C355 C 1.13860 0.99142 -0.17240
 C356 C 1.18430 0.96545 -0.18327
 C357 C 1.11759 0.98846 -0.12261
 C358 C 1.06961 1.01123 -0.11207
 C359 C 1.04737 1.04196 -0.15288
 C360 C 1.06815 1.04614 -0.20175
 H361 H 1.11188 1.04341 -0.29320
 H362 H 1.20489 0.94338 -0.15312
 H363 H 1.13910 0.96754 -0.09358
 H364 H 1.04776 1.06849 -0.23185
 H365 H 1.23793 0.94553 -0.24118
 H366 H 1.01080 1.05963 -0.14977
 C367 C 0.80417 1.02532 0.22657
 C368 C 0.83281 1.00045 0.26761
 C369 C 0.88098 0.97936 0.25661
 C370 C 0.90006 0.98300 0.20661
 C371 C 0.87249 1.00966 0.16658
 C372 C 0.82416 1.03050 0.17693
 C373 C 0.89373 1.01510 0.11713
 C374 C 0.94189 0.99273 0.10566
 C375 C 0.96652 0.96462 0.14731
 C376 C 0.94665 0.96018 0.19631
 H377 H 0.90298 0.95792 0.28627
 H378 H 0.80188 1.05096 0.14674
 H379 H 0.87149 1.03674 0.08822
 H380 H 0.96861 0.93946 0.22657
 H381 H 0.76732 1.04309 0.23317
 H382 H 1.00408 0.94824 0.14492
 C383 C 0.81497 1.02911 -0.26127
 C384 C 0.84312 1.00148 -0.29743
 C385 C 0.88766 0.97509 -0.27977
 C386 C 0.90488 0.97762 -0.22712
 C387 C 0.87671 1.00507 -0.19086
 C388 C 0.83128 1.03044 -0.20835
 C389 C 0.89561 1.00882 -0.13838
 C390 C 0.94415 0.98857 -0.12085
 C391 C 0.97065 0.96150 -0.15970
 C392 C 0.95128 0.95514 -0.21075
 H393 H 0.91002 0.95426 -0.30744
 H394 H 0.80897 1.05212 -0.18135
 H395 H 0.87441 1.03285 -0.11415
 H396 H 0.97413 0.93444 -0.23808
 H397 H 0.78017 1.04942 -0.27398
 H398 H 1.00859 0.94596 -0.15263
 C399 C 1.28033 1.12105 0.07695
 C400 C 1.29761 1.13843 0.02836
 C401 C 1.26267 1.13420 -0.01568
 C402 C 1.21207 1.11577 -0.01107
 C403 C 1.19564 1.09904 0.03753
 C404 C 1.23004 1.10159 0.08135
 C405 C 1.14537 1.07909 0.04148
 C406 C 1.11051 1.07386 -0.00266
 C407 C 1.12759 1.09448 -0.05010
 C408 C 1.17742 1.11444 -0.05445
 H409 H 1.27457 1.14374 -0.05442
 H410 H 1.21794 1.08890 0.11924
 H411 H 1.13405 1.06937 0.07953
 H412 H 1.18880 1.12881 -0.09198
 H413 H 1.30432 1.12429 0.11248
 H414 H 1.10250 1.09661 -0.08450
 C415 C 0.70357 1.07249 -0.02903
 C416 C 0.70533 1.12468 -0.01405
 C417 C 0.75414 1.14896 -0.00652
 C418 C 0.79993 1.12163 -0.01291
 C419 C 0.79778 1.06910 -0.02568
 C420 C 0.74933 1.04501 -0.03483
 C421 C 0.84411 1.04149 -0.02874
 C422 C 0.89327 1.06369 -0.01532
 C423 C 0.89341 1.11810 -0.01126
 C424 C 0.84802 1.14628 -0.00802
 H425 H 0.75685 1.18892 0.00531
 H426 H 0.74679 1.00477 -0.04580
 H427 H 0.84122 1.00317 -0.04430
 H428 H 0.85076 1.18741 -0.00127
 H429 H 0.66685 1.05281 -0.03667
 H430 H 0.92865 1.14029 -0.00804
 C431 C 1.30826 0.93929 -0.00708
 C432 C 1.30936 0.88698 0.00775
 C433 C 1.26217 0.86245 0.01909
 C434 C 1.21521 0.88899 0.01442
 C435 C 1.21493 0.94162 0.00199
 C436 C 1.26176 0.96658 -0.00869
 C437 C 1.16766 0.96801 -0.00205
 C438 C 1.11915 0.94310 0.00401
 C439 C 1.12160 0.88910 0.01100
 C440 C 1.16820 0.86291 0.01843
 H441 H 1.26124 0.82163 0.02792
 H442 H 1.26234 1.00703 -0.01909
 H443 H 1.16995 1.00617 -0.01643
 H444 H 1.16721 0.82170 0.02501
 H445 H 1.34363 0.95983 -0.01549
 H446 H 1.08694 0.86565 0.00905
 C447 C 0.72078 0.90590 0.04221
 C448 C 0.71637 0.85731 0.01819
 C449 C 0.76135 0.83476 -0.00098
 C450 C 0.80894 0.86199 0.00134
 C451 C 0.81141 0.91159 0.02272
 C452 C 0.76769 0.93278 0.04434
 C453 C 0.85745 0.94008 0.02168
 C454 C 0.90161 0.92378 -0.00328
 C455 C 0.90073 0.87029 -0.01463
 C456 C 0.85479 0.84063 -0.01552
 H457 H 0.75915 0.79704 -0.01890
 H458 H 0.76952 0.97064 0.06207
 H459 H 0.85694 0.97674 0.03815
 H460 H 0.85581 0.80058 -0.02705
 H461 H 0.68778 0.92348 0.05936
 H462 H 0.93613 0.84940 -0.01744
 C463 C 0.72505 0.46887 0.30356
 C464 C 0.76965 0.48023 0.33588
 C465 C 0.76254 0.49220 0.38835
 C466 C 0.71297 0.49249 0.40821
 C467 C 0.66853 0.48251 0.37582
 C468 C 0.67506 0.47064 0.32314
 C469 C 0.61872 0.48507 0.39674
 C470 C 0.61232 0.49452 0.45078
 C471 C 0.65868 0.50456 0.48040
 C472 C 0.70744 0.50382 0.46024
 H473 H 0.79544 0.50274 0.41401
 H474 H 0.64166 0.46226 0.29724
 H475 H 0.58585 0.48253 0.36970
 H476 H 0.74111 0.51203 0.48593
 H477 H 0.72849 0.45842 0.26309
 H478 H 0.65979 0.51369 0.51989
 C479 C 0.20791 0.55081 0.41363
 C480 C 0.19728 0.51387 0.37439
 C481 C 0.23798 0.48179 0.35970
 C482 C 0.28811 0.48682 0.38368
 C483 C 0.29799 0.52416 0.42250
 C484 C 0.25762 0.55596 0.43732
 C485 C 0.34773 0.52862 0.44695
 C486 C 0.38951 0.49692 0.43453
 C487 C 0.37735 0.45858 0.39641
 C488 C 0.32833 0.45432 0.37070
 H489 H 0.23088 0.45334 0.32929
 H490 H 0.26440 0.58467 0.46755
 H491 H 0.35238 0.55647 0.47682
 H492 H 0.32138 0.42399 0.34221
 H493 H 0.17754 0.57551 0.42656
 H494 H 0.40392 0.42833 0.38879
 C495 C 0.77950 0.42579 0.62009
 C496 C 0.79277 0.46777 0.65325
 C497 C 0.75314 0.50303 0.66430
 C498 C 0.70306 0.49758 0.64140
 C499 C 0.69043 0.45455 0.61039
 C500 C 0.72865 0.41844 0.60041
 C501 C 0.64075 0.44981 0.58659
 C502 C 0.60424 0.48992 0.58650
 C503 C 0.61879 0.53295 0.61800
 C504 C 0.66621 0.53597 0.64645
 H505 H 0.76192 0.53748 0.68689
 H506 H 0.71961 0.38527 0.57594
 H507 H 0.63384 0.41647 0.56456
 H508 H 0.67531 0.57012 0.66943
 H509 H 0.80743 0.39659 0.61148
 H510 H 0.59439 0.56643 0.61891
 C511 C 0.22367 0.56514 0.61521
 C512 C 0.20688 0.51698 0.63356
 C513 C 0.23968 0.47445 0.62971
 C514 C 0.28869 0.47998 0.60907
 C515 C 0.30557 0.52833 0.59128
 C516 C 0.27260 0.57078 0.59429
 C517 C 0.35484 0.53336 0.57040
 C518 C 0.38752 0.49052 0.56479
 C519 C 0.36946 0.44315 0.58480
 C520 C 0.32124 0.43780 0.60631
 H521 H 0.22705 0.43685 0.64279
 H522 H 0.28475 0.60836 0.58076
 H523 H 0.36635 0.57099 0.55767
 H524 H 0.30931 0.40033 0.62034
 H525 H 0.19952 0.59874 0.61821
 H526 H 0.39263 0.40887 0.58335
 C527 C 0.43563 0.62479 0.23367
 C528 C 0.48498 0.64060 0.21865
 C529 C 0.52758 0.63633 0.25465
 C530 C 0.52111 0.61566 0.30459
 C531 C 0.47144 0.60034 0.31944
 C532 C 0.42881 0.60530 0.28378
 C533 C 0.46536 0.57811 0.36876
 C534 C 0.50844 0.56634 0.40255
 C535 C 0.55725 0.58513 0.38772
 C536 C 0.56354 0.60933 0.33975
 H537 H 0.56590 0.64809 0.24336
 H538 H 0.39034 0.59339 0.29438
 H539 H 0.42721 0.56489 0.37728
 H540 H 0.60194 0.62210 0.32977
 H541 H 0.40214 0.62836 0.20688
 H542 H 0.59137 0.58210 0.41327
 C543 C 0.42131 0.65307 0.76231
 C544 C 0.46114 0.63782 0.79827
 C545 C 0.49535 0.59944 0.78386
 C546 C 0.49196 0.57868 0.73353
 C547 C 0.45386 0.59549 0.69657
 C548 C 0.41764 0.63200 0.71179
 C549 C 0.45343 0.57628 0.64497
 C550 C 0.49319 0.54380 0.62748
 C551 C 0.52531 0.52304 0.66881
 C552 C 0.52610 0.54091 0.71975
 H553 H 0.52544 0.58649 0.81167
 H554 H 0.38755 0.64534 0.68427
 H555 H 0.42273 0.58878 0.61898
 H556 H 0.55348 0.52466 0.74849
 H557 H 0.39433 0.68259 0.77265
 H558 H 0.54990 0.49079 0.66365
 C559 C 0.47127 0.43630 0.20167
 C560 C 0.50288 0.39278 0.19767
 C561 C 0.52855 0.37341 0.24271
 C562 C 0.52173 0.39589 0.29115
 C563 C 0.48958 0.43879 0.29557
 C564 C 0.46486 0.45934 0.25030
 C565 C 0.48177 0.45945 0.34525
 C566 C 0.50491 0.43835 0.39171
 C567 C 0.53683 0.39552 0.38407
 C568 C 0.54520 0.37464 0.33561
 H569 H 0.55194 0.33911 0.24055
 H570 H 0.43993 0.49247 0.25262
 H571 H 0.45471 0.48969 0.34687
 H572 H 0.56995 0.34131 0.33316
 H573 H 0.45111 0.45207 0.16735
 H574 H 0.55577 0.37600 0.41455
 C575 C 0.43458 0.39495 0.79060
 C576 C 0.47464 0.35957 0.80069
 C577 C 0.50934 0.34900 0.76195
 C578 C 0.50437 0.37339 0.71362
 C579 C 0.46389 0.40816 0.70297
 C580 C 0.42911 0.41904 0.74187
 C581 C 0.46039 0.43341 0.65462
 C582 C 0.49558 0.42406 0.61479
 C583 C 0.53794 0.39236 0.63003
 C584 C 0.54132 0.36594 0.67702
 H585 H 0.54131 0.32294 0.77008
 H586 H 0.39802 0.44625 0.73469
 H587 H 0.43394 0.46496 0.65170
 H588 H 0.57425 0.34118 0.68546
 H589 H 0.40742 0.40358 0.82021
 H590 H 0.57020 0.38744 0.60671
 C591 C 0.56793 0.78765 0.46309
 C592 C 0.61726 0.79468 0.48770
 C593 C 0.64213 0.75233 0.51186
 C594 C 0.61843 0.70356 0.51075
 C595 C 0.56970 0.69657 0.48526
 C596 C 0.54447 0.73886 0.46151
 C597 C 0.54676 0.64744 0.48380
 C598 C 0.56809 0.60421 0.51148
 C599 C 0.61918 0.61281 0.53231
 C600 C 0.64339 0.66116 0.53309
 H601 H 0.68007 0.75734 0.53131
 H602 H 0.50667 0.73419 0.44173
 H603 H 0.51156 0.64427 0.46027
 H604 H 0.68218 0.66512 0.55088
 H605 H 0.54822 0.81954 0.44381
 H606 H 0.64317 0.58362 0.54753
 C607 C 0.68914 0.25647 0.47043
 C608 C 0.65787 0.21625 0.48914
 C609 C 0.61052 0.22839 0.51028
 C610 C 0.59409 0.27935 0.51195
 C611 C 0.62454 0.31936 0.49164
 C612 C 0.67249 0.30755 0.47144
 C613 C 0.60600 0.37012 0.49094
 C614 C 0.55671 0.38194 0.50991
 C615 C 0.52921 0.34056 0.53244
 C616 C 0.54709 0.29054 0.53311
 H617 H 0.58551 0.19804 0.52414
 H618 H 0.69687 0.33766 0.45611
 H619 H 0.62932 0.39987 0.47404
 H620 H 0.52351 0.26044 0.54967
 H621 H 0.72653 0.24852 0.45497
 H622 H 0.49230 0.34622 0.54953
 C623 C 0.35112 0.75635 0.43952
 C624 C 0.36699 0.78591 0.48337
 C625 C 0.39893 0.76388 0.52278
 C626 C 0.41403 0.71264 0.51923
 C627 C 0.39716 0.68249 0.47600
 C628 C 0.36602 0.70488 0.43590
 C629 C 0.41265 0.63091 0.47305
 C630 C 0.44416 0.60777 0.51296
 C631 C 0.46370 0.64134 0.55295
 C632 C 0.44752 0.69178 0.55734
 H633 H 0.41215 0.78681 0.55621
 H634 H 0.35292 0.68255 0.40206
 H635 H 0.40148 0.61048 0.43832
 H636 H 0.46344 0.71521 0.58928
 H637 H 0.32610 0.77267 0.40880
 H638 H 0.49553 0.63054 0.57916
 C639 C 0.41956 0.20796 0.44641
 C640 C 0.36935 0.20443 0.46515
 C641 C 0.34275 0.24993 0.47621
 C642 C 0.36767 0.29793 0.47249
 C643 C 0.41889 0.30063 0.45646
 C644 C 0.44397 0.25574 0.44159
 C645 C 0.44555 0.34772 0.45859
 C646 C 0.42575 0.39115 0.48359
 C647 C 0.37123 0.38973 0.48809
 C648 C 0.34288 0.34354 0.48484
 H649 H 0.30343 0.24786 0.48921
 H650 H 0.48342 0.25732 0.42889
 H651 H 0.48376 0.34787 0.44519
 H652 H 0.30202 0.34351 0.49280
 H653 H 0.44089 0.17362 0.43763
 H654 H 0.34947 0.42417 0.49369
   
