data_POSCAR
  _audit_creation_date              2014-09-24
  _audit_creation_method            'ToBaCCo'
  _symmetry_space_group_name_H-M    'P1'
  _symmetry_Int_Tables_number       1
  _symmetry_cell_setting            triclinic
  loop_
  _symmetry_equiv_pos_as_xyz
 x,y,z
_cell_length_a 46.5522
_cell_length_b 46.5522
_cell_length_c 46.5472
_cell_angle_alpha 90.000000
_cell_angle_beta 90.000000
_cell_angle_gamma 89.980500
loop_
  _atom_site_label
  _atom_site_type_symbol
  _atom_site_fract_x
  _atom_site_fract_y
  _atom_site_fract_z
N1 N 0.24961 0.24941 0.24992
 N2 N 0.74955 -0.25052 0.24992
 N3 N 0.74963 0.24950 0.74992
 N4 N 0.24953 -0.25060 0.74992
 N5 N 0.74955 -0.25052 0.74992
 N6 N 0.24962 0.24942 0.74992
 N7 N 0.24953 -0.25060 0.24992
 N8 N 0.74963 0.24950 0.24992
 O9 O 0.22583 0.02741 0.47196
 O10 O 0.22582 -0.02857 0.52787
 O11 O 0.22583 0.02741 0.52787
 O12 O 0.22582 -0.02857 0.47196
 O13 O 0.27328 -0.02856 0.47192
 O14 O 0.27329 0.02734 0.52791
 O15 O 0.27328 -0.02856 0.52791
 O16 O 0.27329 0.02734 0.47192
 Cu17 Cu 0.22106 -0.00058 0.49992
 Cu18 Cu 0.27806 -0.00061 0.49992
 C19 C 0.24957 0.03689 0.46243
 C20 C 0.24955 -0.03808 0.53740
 C21 C 0.24956 0.03689 0.53741
 C22 C 0.24955 -0.03808 0.46243
 O23 O 0.77334 0.02747 0.52787
 O24 O 0.77333 -0.02851 0.47196
 O25 O 0.77334 0.02747 0.47196
 O26 O 0.77333 -0.02851 0.52787
 O27 O 0.72587 -0.02845 0.52791
 O28 O 0.72588 0.02746 0.47192
 O29 O 0.72587 -0.02845 0.47193
 O30 O 0.72588 0.02746 0.52791
 Cu31 Cu 0.77810 -0.00052 0.49992
 Cu32 Cu 0.72111 -0.00049 0.49992
 C33 C 0.74961 0.03698 0.53740
 C34 C 0.74960 -0.03799 0.46243
 C35 C 0.74961 0.03698 0.46243
 C36 C 0.74960 -0.03799 0.53741
 O37 O 0.47168 0.22573 0.02791
 O38 O 0.52759 0.22575 -0.02808
 O39 O 0.52759 0.22575 0.02791
 O40 O 0.47169 0.22574 -0.02808
 O41 O 0.47162 0.27320 -0.02804
 O42 O 0.52760 0.27321 0.02787
 O43 O 0.52760 0.27321 -0.02804
 O44 O 0.47162 0.27320 0.02787
 Cu45 Cu 0.49964 0.22097 -0.00008
 Cu46 Cu 0.49961 0.27797 -0.00008
 C47 C 0.46214 0.24946 0.03741
 C48 C 0.53711 0.24948 -0.03757
 C49 C 0.53711 0.24948 0.03741
 C50 C 0.46214 0.24947 -0.03757
 O51 O 0.52748 0.77316 0.02791
 O52 O 0.47157 0.77315 -0.02807
 O53 O 0.47157 0.77315 0.02791
 O54 O 0.52748 0.77316 -0.02808
 O55 O 0.52754 0.72570 -0.02804
 O56 O 0.47156 0.72569 0.02787
 O57 O 0.47156 0.72569 -0.02804
 O58 O 0.52754 0.72570 0.02787
 Cu59 Cu 0.49952 0.77792 -0.00008
 Cu60 Cu 0.49955 0.72093 -0.00008
 C61 C 0.53702 0.74943 0.03741
 C62 C 0.46205 0.74942 -0.03757
 C63 C 0.46205 0.74942 0.03741
 C64 C 0.53702 0.74943 -0.03757
 O65 O 0.02758 0.47149 0.22618
 O66 O -0.02842 0.52740 0.22618
 O67 O 0.02757 0.52740 0.22618
 O68 O -0.02841 0.47150 0.22618
 O69 O -0.02837 0.47146 0.27365
 O70 O 0.02753 0.52743 0.27365
 O71 O -0.02838 0.52744 0.27365
 O72 O 0.02754 0.47145 0.27365
 Cu73 Cu -0.00042 0.49945 0.22142
 Cu74 Cu -0.00042 0.49945 0.27842
 C75 C 0.03707 0.46196 0.24992
 C76 C -0.03791 0.53694 0.24992
 C77 C 0.03706 0.53693 0.24992
 C78 C -0.03790 0.46197 0.24992
 O79 O 0.02757 0.52740 0.77365
 O80 O -0.02840 0.47150 0.77365
 O81 O 0.02758 0.47149 0.77365
 O82 O -0.02841 0.52741 0.77365
 O83 O -0.02838 0.52744 0.72618
 O84 O 0.02754 0.47145 0.72618
 O85 O -0.02837 0.47146 0.72618
 O86 O 0.02753 0.52743 0.72618
 Cu87 Cu -0.00042 0.49945 0.77842
 Cu88 Cu -0.00042 0.49945 0.72142
 C89 C 0.03706 0.53693 0.74992
 C90 C -0.03790 0.46197 0.74992
 C91 C 0.03707 0.46196 0.74992
 C92 C -0.03791 0.53694 0.74992
 C93 C 0.31279 0.24943 0.18676
 N94 N 0.30463 0.22453 0.19956
 N95 N 0.28440 0.22453 0.21980
 C96 C 0.27153 0.24942 0.22802
 N97 N 0.27973 0.27431 0.21515
 N98 N 0.29998 0.27431 0.19494
 C99 C 0.33511 0.24943 0.16445
 N100 N 0.34402 0.27445 0.15240
 N101 N 0.36428 0.27445 0.13218
 C102 C 0.37632 0.24944 0.12323
 N103 N 0.36739 0.22442 0.13526
 N104 N 0.34717 0.22442 0.15552
 C105 C 0.39863 0.24945 0.10092
 N106 N 0.40992 0.22436 0.09122
 N107 N 0.43014 0.22437 0.07096
 C108 C 0.43985 0.24946 0.05970
 N109 N 0.42858 0.27454 0.06942
 N110 N 0.40832 0.27454 0.08964
 C111 C 0.68637 0.74947 0.18676
 N112 N 0.69453 0.77436 0.19956
 N113 N 0.71476 0.77436 0.21981
 C114 C 0.72763 0.74948 0.22802
 N115 N 0.71943 0.72459 0.21516
 N116 N 0.69918 0.72458 0.19494
 C117 C 0.66405 0.74946 0.16445
 N118 N 0.65514 0.72445 0.15241
 N119 N 0.63488 0.72444 0.13218
 C120 C 0.62284 0.74945 0.12324
 N121 N 0.63177 0.77447 0.13527
 N122 N 0.65199 0.77448 0.15553
 C123 C 0.60053 0.74945 0.10092
 N124 N 0.58924 0.77453 0.09122
 N125 N 0.56902 0.77453 0.07096
 C126 C 0.55932 0.74944 0.05970
 N127 N 0.57059 0.72435 0.06942
 N128 N 0.59084 0.72436 0.08965
 C129 C 0.68647 0.24950 -0.18691
 N130 N 0.69465 0.22461 -0.19971
 N131 N 0.71487 0.22461 -0.21996
 C132 C 0.72773 0.24950 -0.22817
 N133 N 0.71952 0.27439 -0.21530
 N134 N 0.69926 0.27439 -0.19508
 C135 C 0.66416 0.24950 -0.16460
 N136 N 0.65522 0.27451 -0.15255
 N137 N 0.63497 0.27451 -0.13232
 C138 C 0.62294 0.24950 -0.12338
 N139 N 0.63189 0.22448 -0.13542
 N140 N 0.65212 0.22448 -0.15567
 C141 C 0.60063 0.24949 -0.10107
 N142 N 0.58936 0.22440 -0.09138
 N143 N 0.56913 0.22440 -0.07112
 C144 C 0.55941 0.24949 -0.05986
 N145 N 0.57065 0.27458 -0.06958
 N146 N 0.59091 0.27458 -0.08980
 C147 C 0.31269 0.74940 -0.18691
 N148 N 0.29990 0.72451 -0.19508
 N149 N 0.27965 0.72451 -0.21530
 C150 C 0.27143 0.74940 -0.22817
 N151 N 0.28429 0.77428 -0.21996
 N152 N 0.30451 0.77429 -0.19971
 C153 C 0.33500 0.74940 -0.16460
 N154 N 0.34704 0.77441 -0.15567
 N155 N 0.36727 0.77442 -0.13542
 C156 C 0.37622 0.74940 -0.12338
 N157 N 0.36420 0.72439 -0.13232
 N158 N 0.34394 0.72439 -0.15255
 C159 C 0.39854 0.74941 -0.10107
 N160 N 0.40825 0.72432 -0.08980
 N161 N 0.42851 0.72432 -0.06957
 C162 C 0.43975 0.74941 -0.05986
 N163 N 0.43003 0.77450 -0.07112
 N164 N 0.40980 0.77449 -0.09137
 C165 C 0.18644 0.31259 0.24992
 N166 N 0.19461 0.29978 0.27481
 N167 N 0.21483 0.27953 0.27480
 C168 C 0.22770 0.27132 0.24992
 N169 N 0.21950 0.28419 0.22503
 N170 N 0.19924 0.30442 0.22503
 C171 C 0.16413 0.33490 0.24992
 N172 N 0.15520 0.34696 0.22490
 N173 N 0.13494 0.36718 0.22490
 C174 C 0.12290 0.37613 0.24992
 N175 N 0.13184 0.36409 0.27493
 N176 N 0.15207 0.34383 0.27493
 C177 C 0.10059 0.39844 0.24992
 N178 N 0.08931 0.40814 0.27501
 N179 N 0.06908 0.42840 0.27501
 C180 C 0.05937 0.43966 0.24992
 N181 N 0.07063 0.42994 0.22483
 N182 N 0.09089 0.40972 0.22483
 C183 C 0.18638 0.68624 0.74992
 N184 N 0.19918 0.69441 0.77481
 N185 N 0.21942 0.71463 0.77481
 C186 C 0.22763 0.72750 0.74992
 N187 N 0.21476 0.71929 0.72503
 N188 N 0.19455 0.69904 0.72503
 C189 C 0.16407 0.66394 0.74992
 N190 N 0.15202 0.65502 0.72490
 N191 N 0.13180 0.63476 0.72490
 C192 C 0.12286 0.62273 0.74992
 N193 N 0.13490 0.63167 0.77494
 N194 N 0.15515 0.65189 0.77493
 C195 C 0.10056 0.60042 0.74992
 N196 N 0.09086 0.58915 0.77501
 N197 N 0.07061 0.56893 0.77501
 C198 C 0.05935 0.55922 0.74992
 N199 N 0.06906 0.57047 0.72483
 N200 N 0.08928 0.59073 0.72483
 C201 C -0.18728 0.68631 0.24992
 N202 N -0.19545 0.69911 0.27481
 N203 N -0.21567 0.71937 0.27481
 C204 C -0.22855 0.72757 0.24992
 N205 N -0.22034 0.71470 0.22503
 N206 N -0.20008 0.69448 0.22503
 C207 C -0.16497 0.66399 0.24992
 N208 N -0.15604 0.65194 0.22490
 N209 N -0.13578 0.63171 0.22490
 C210 C -0.12374 0.62277 0.24992
 N211 N -0.13268 0.63481 0.27494
 N212 N -0.15291 0.65507 0.27493
 C213 C -0.10143 0.60046 0.24992
 N214 N -0.09015 0.59076 0.27501
 N215 N -0.06992 0.57050 0.27501
 C216 C -0.06021 0.55924 0.24992
 N217 N -0.07147 0.56895 0.22483
 N218 N -0.09173 0.58918 0.22483
 C219 C -0.18721 0.31265 0.74992
 N220 N -0.20001 0.30448 0.77481
 N221 N -0.22026 0.28427 0.77481
 C222 C -0.22847 0.27140 0.74992
 N223 N -0.21560 0.27961 0.72503
 N224 N -0.19538 0.29985 0.72503
 C225 C -0.16491 0.33496 0.74992
 N226 N -0.15286 0.34388 0.72490
 N227 N -0.13264 0.36413 0.72490
 C228 C -0.12370 0.37617 0.74992
 N229 N -0.13573 0.36723 0.77494
 N230 N -0.15599 0.34701 0.77493
 C231 C -0.10139 0.39847 0.74992
 N232 N -0.09170 0.40975 0.77501
 N233 N -0.07144 0.42997 0.77501
 C234 C -0.06019 0.43968 0.74992
 N235 N -0.06990 0.42842 0.72483
 N236 N -0.09012 0.40817 0.72483
 C237 C 0.24960 0.18623 0.31307
 N238 N 0.27449 0.19440 0.30028
 N239 N 0.27449 0.21463 0.28003
 C240 C 0.24961 0.22750 0.27182
 N241 N 0.22472 0.21930 0.28468
 N242 N 0.22471 0.19904 0.30489
 C243 C 0.24960 0.16392 0.33538
 N244 N 0.22458 0.15501 0.34743
 N245 N 0.22457 0.13475 0.36765
 C246 C 0.24959 0.12270 0.37660
 N247 N 0.27461 0.13164 0.36457
 N248 N 0.27461 0.15186 0.34431
 C249 C 0.24958 0.10039 0.39891
 N250 N 0.27467 0.08910 0.40862
 N251 N 0.27466 0.06888 0.42887
 C252 C 0.24957 0.05918 0.44013
 N253 N 0.22449 0.07045 0.43041
 N254 N 0.22449 0.09071 0.41019
 C255 C 0.74963 0.18634 0.68674
 N256 N 0.72474 0.19452 0.69955
 N257 N 0.72475 0.21474 0.71980
 C258 C 0.74963 0.22760 0.72801
 N259 N 0.77452 0.21938 0.71514
 N260 N 0.77452 0.19913 0.69492
 C261 C 0.74963 0.16403 0.66443
 N262 N 0.77464 0.15509 0.65238
 N263 N 0.77464 0.13483 0.63216
 C264 C 0.74963 0.12281 0.62322
 N265 N 0.72461 0.13176 0.63525
 N266 N 0.72462 0.15199 0.65551
 C267 C 0.74962 0.10050 0.60091
 N268 N 0.72454 0.08923 0.59121
 N269 N 0.72453 0.06900 0.57096
 C270 C 0.74962 0.05928 0.55970
 N271 N 0.77471 0.07052 0.56941
 N272 N 0.77471 0.09078 0.58963
 C273 C 0.24953 -0.18744 0.68674
 N274 N 0.22464 -0.20023 0.69492
 N275 N 0.22464 -0.22049 0.71514
 C276 C 0.24953 -0.22870 0.72801
 N277 N 0.27442 -0.21584 0.71980
 N278 N 0.27442 -0.19562 0.69955
 C279 C 0.24953 -0.16513 0.66443
 N280 N 0.27455 -0.15309 0.65551
 N281 N 0.27455 -0.13286 0.63525
 C282 C 0.24954 -0.12391 0.62322
 N283 N 0.22452 -0.13594 0.63216
 N284 N 0.22452 -0.15619 0.65238
 C285 C 0.24954 -0.10160 0.60091
 N286 N 0.22445 -0.09188 0.58963
 N287 N 0.22445 -0.07162 0.56941
 C288 C 0.24954 -0.06038 0.55970
 N289 N 0.27463 -0.07011 0.57095
 N290 N 0.27463 -0.09033 0.59121
 C291 C 0.74956 -0.18734 0.31307
 N292 N 0.77445 -0.20015 0.30490
 N293 N 0.77444 -0.22040 0.28468
 C294 C 0.74955 -0.22861 0.27182
 N295 N 0.72467 -0.21573 0.28003
 N296 N 0.72467 -0.19551 0.30028
 C297 C 0.74956 -0.16503 0.33538
 N298 N 0.72455 -0.15296 0.34431
 N299 N 0.72456 -0.13274 0.36457
 C300 C 0.74957 -0.12381 0.37660
 N301 N 0.77459 -0.13585 0.36766
 N302 N 0.77458 -0.15611 0.34743
 C303 C 0.74958 -0.10150 0.39891
 N304 N 0.77467 -0.09181 0.41019
 N305 N 0.77468 -0.07156 0.43042
 C306 C 0.74959 -0.06029 0.44013
 N307 N 0.72450 -0.06999 0.42888
 N308 N 0.72449 -0.09021 0.40862
 C309 C 0.68636 0.74947 -0.18693
 N310 N 0.69918 0.72458 -0.19511
 N311 N 0.71943 0.72459 -0.21532
 C312 C 0.72764 0.74948 -0.22818
 N313 N 0.71476 0.77436 -0.21997
 N314 N 0.69453 0.77436 -0.19972
 C315 C 0.66405 0.74946 -0.16462
 N316 N 0.65199 0.77447 -0.15569
 N317 N 0.63177 0.77447 -0.13543
 C318 C 0.62283 0.74945 -0.12340
 N319 N 0.63488 0.72444 -0.13235
 N320 N 0.65514 0.72445 -0.15257
 C321 C 0.60052 0.74945 -0.10109
 N322 N 0.59084 0.72436 -0.08981
 N323 N 0.57058 0.72435 -0.06959
 C324 C 0.55931 0.74944 -0.05987
 N325 N 0.56901 0.77453 -0.07113
 N326 N 0.58923 0.77453 -0.09139
 C327 C 0.31280 0.24943 -0.18693
 N328 N 0.30463 0.22454 -0.19973
 N329 N 0.28440 0.22454 -0.21997
 C330 C 0.27153 0.24942 -0.22818
 N331 N 0.27973 0.27431 -0.21533
 N332 N 0.29999 0.27432 -0.19511
 C333 C 0.33511 0.24943 -0.16462
 N334 N 0.34403 0.27445 -0.15258
 N335 N 0.36428 0.27446 -0.13235
 C336 C 0.37633 0.24944 -0.12341
 N337 N 0.36740 0.22443 -0.13544
 N338 N 0.34717 0.22442 -0.15569
 C339 C 0.39864 0.24945 -0.10109
 N340 N 0.40993 0.22437 -0.09139
 N341 N 0.43015 0.22437 -0.07113
 C342 C 0.43985 0.24946 -0.05987
 N343 N 0.42858 0.27455 -0.06959
 N344 N 0.40833 0.27454 -0.08982
 C345 C 0.31269 0.74940 0.18674
 N346 N 0.29989 0.72451 0.19491
 N347 N 0.27964 0.72451 0.21514
 C348 C 0.27143 0.74940 0.22801
 N349 N 0.28429 0.77428 0.21980
 N350 N 0.30451 0.77429 0.19955
 C351 C 0.33500 0.74940 0.16443
 N352 N 0.34704 0.77441 0.15551
 N353 N 0.36727 0.77442 0.13525
 C354 C 0.37622 0.74940 0.12322
 N355 N 0.36419 0.72439 0.13215
 N356 N 0.34393 0.72439 0.15238
 C357 C 0.39853 0.74941 0.10091
 N358 N 0.40825 0.72432 0.08963
 N359 N 0.42851 0.72432 0.06941
 C360 C 0.43976 0.74941 0.05970
 N361 N 0.43003 0.77450 0.07096
 N362 N 0.40980 0.77449 0.09121
 C363 C 0.68647 0.24950 0.18674
 N364 N 0.69927 0.27439 0.19491
 N365 N 0.71952 0.27438 0.21514
 C366 C 0.72773 0.24950 0.22801
 N367 N 0.71487 0.22461 0.21980
 N368 N 0.69465 0.22461 0.19955
 C369 C 0.66416 0.24950 0.16443
 N370 N 0.65212 0.22448 0.15551
 N371 N 0.63189 0.22448 0.13525
 C372 C 0.62294 0.24949 0.12322
 N373 N 0.63497 0.27451 0.13215
 N374 N 0.65523 0.27451 0.15238
 C375 C 0.60063 0.24949 0.10091
 N376 N 0.59091 0.27458 0.08963
 N377 N 0.57065 0.27458 0.06941
 C378 C 0.55940 0.24948 0.05970
 N379 N 0.56913 0.22440 0.07096
 N380 N 0.58936 0.22440 0.09121
 C381 C -0.18728 0.68631 0.74992
 N382 N -0.20008 0.69448 0.77481
 N383 N -0.22034 0.71470 0.77481
 C384 C -0.22854 0.72757 0.74992
 N385 N -0.21567 0.71937 0.72503
 N386 N -0.19545 0.69911 0.72503
 C387 C -0.16496 0.66400 0.74992
 N388 N -0.15291 0.65507 0.72490
 N389 N -0.13268 0.63481 0.72490
 C390 C -0.12374 0.62277 0.74992
 N391 N -0.13578 0.63171 0.77494
 N392 N -0.15604 0.65194 0.77493
 C393 C -0.10143 0.60046 0.74992
 N394 N -0.09173 0.58918 0.77501
 N395 N -0.07147 0.56895 0.77501
 C396 C -0.06021 0.55924 0.74992
 N397 N -0.06992 0.57050 0.72483
 N398 N -0.09015 0.59076 0.72483
 C399 C -0.18722 0.31265 0.24992
 N400 N -0.20001 0.30448 0.22503
 N401 N -0.22026 0.28426 0.22503
 C402 C -0.22847 0.27140 0.24992
 N403 N -0.21560 0.27961 0.27481
 N404 N -0.19539 0.29986 0.27481
 C405 C -0.16491 0.33496 0.24992
 N406 N -0.15286 0.34388 0.27493
 N407 N -0.13264 0.36414 0.27494
 C408 C -0.12370 0.37617 0.24992
 N409 N -0.13573 0.36723 0.22490
 N410 N -0.15598 0.34701 0.22490
 C411 C -0.10139 0.39847 0.24992
 N412 N -0.09012 0.40817 0.27501
 N413 N -0.06990 0.42843 0.27501
 C414 C -0.06019 0.43968 0.24992
 N415 N -0.07144 0.42997 0.22483
 N416 N -0.09169 0.40975 0.22483
 C417 C 0.18644 0.31259 0.74992
 N418 N 0.19925 0.30442 0.77481
 N419 N 0.21950 0.28420 0.77480
 C420 C 0.22771 0.27132 0.74992
 N421 N 0.21483 0.27953 0.72503
 N422 N 0.19461 0.29978 0.72503
 C423 C 0.16413 0.33490 0.74992
 N424 N 0.15207 0.34383 0.72490
 N425 N 0.13184 0.36409 0.72490
 C426 C 0.12290 0.37613 0.74992
 N427 N 0.13494 0.36719 0.77493
 N428 N 0.15520 0.34696 0.77493
 C429 C 0.10059 0.39844 0.74992
 N430 N 0.09089 0.40972 0.77501
 N431 N 0.07063 0.42995 0.77501
 C432 C 0.05937 0.43966 0.74992
 N433 N 0.06908 0.42840 0.72482
 N434 N 0.08931 0.40814 0.72483
 C435 C 0.18638 0.68624 0.24992
 N436 N 0.19455 0.69904 0.27481
 N437 N 0.21476 0.71929 0.27481
 C438 C 0.22763 0.72749 0.24992
 N439 N 0.21942 0.71463 0.22503
 N440 N 0.19917 0.69441 0.22503
 C441 C 0.16407 0.66394 0.24992
 N442 N 0.15514 0.65189 0.22490
 N443 N 0.13489 0.63167 0.22490
 C444 C 0.12286 0.62273 0.24992
 N445 N 0.13180 0.63476 0.27494
 N446 N 0.15202 0.65501 0.27493
 C447 C 0.10055 0.60042 0.24992
 N448 N 0.08928 0.59072 0.27501
 N449 N 0.06906 0.57047 0.27501
 C450 C 0.05935 0.55922 0.24992
 N451 N 0.07060 0.56893 0.22483
 N452 N 0.09085 0.58915 0.22483
 C453 C 0.74956 -0.18733 0.68677
 N454 N 0.72467 -0.19550 0.69956
 N455 N 0.72467 -0.21573 0.71981
 C456 C 0.74955 -0.22860 0.72802
 N457 N 0.77444 -0.22040 0.71516
 N458 N 0.77445 -0.20014 0.69494
 C459 C 0.74957 -0.16502 0.66446
 N460 N 0.77458 -0.15610 0.65241
 N461 N 0.77459 -0.13585 0.63219
 C462 C 0.74958 -0.12380 0.62324
 N463 N 0.72456 -0.13273 0.63527
 N464 N 0.72456 -0.15296 0.65553
 C465 C 0.74958 -0.10149 0.60093
 N466 N 0.72450 -0.09020 0.59122
 N467 N 0.72450 -0.06998 0.57096
 C468 C 0.74959 -0.06028 0.55971
 N469 N 0.77468 -0.07155 0.56943
 N470 N 0.77467 -0.09180 0.58965
 C471 C 0.24953 -0.18745 0.31309
 N472 N 0.27442 -0.19563 0.30029
 N473 N 0.27442 -0.21584 0.28004
 C474 C 0.24953 -0.22870 0.27183
 N475 N 0.22464 -0.22049 0.28470
 N476 N 0.22464 -0.20024 0.30492
 C477 C 0.24953 -0.16514 0.33540
 N478 N 0.22452 -0.15620 0.34746
 N479 N 0.22452 -0.13594 0.36768
 C480 C 0.24954 -0.12391 0.37662
 N481 N 0.27455 -0.13287 0.36458
 N482 N 0.27455 -0.15309 0.34433
 C483 C 0.24954 -0.10160 0.39893
 N484 N 0.27463 -0.09033 0.40862
 N485 N 0.27463 -0.07010 0.42888
 C486 C 0.24954 -0.06038 0.44013
 N487 N 0.22445 -0.07163 0.43042
 N488 N 0.22445 -0.09189 0.41020
 C489 C 0.74963 0.18634 0.31309
 N490 N 0.77452 0.19914 0.30492
 N491 N 0.77452 0.21939 0.28470
 C492 C 0.74963 0.22760 0.27183
 N493 N 0.72474 0.21474 0.28004
 N494 N 0.72474 0.19452 0.30029
 C495 C 0.74963 0.16403 0.33540
 N496 N 0.72461 0.15199 0.34433
 N497 N 0.72461 0.13176 0.36458
 C498 C 0.74962 0.12281 0.37662
 N499 N 0.77464 0.13484 0.36768
 N500 N 0.77464 0.15510 0.34746
 C501 C 0.74962 0.10049 0.39893
 N502 N 0.77471 0.09078 0.41020
 N503 N 0.77471 0.07052 0.43042
 C504 C 0.74962 0.05927 0.44014
 N505 N 0.72453 0.06900 0.42888
 N506 N 0.72453 0.08923 0.40862
 C507 C 0.24960 0.18623 0.68676
 N508 N 0.22471 0.19904 0.69494
 N509 N 0.22472 0.21930 0.71516
 C510 C 0.24961 0.22750 0.72802
 N511 N 0.27449 0.21463 0.71980
 N512 N 0.27449 0.19440 0.69956
 C513 C 0.24960 0.16392 0.66446
 N514 N 0.27461 0.15186 0.65553
 N515 N 0.27460 0.13163 0.63527
 C516 C 0.24959 0.12270 0.62324
 N517 N 0.22457 0.13475 0.63219
 N518 N 0.22458 0.15500 0.65241
 C519 C 0.24958 0.10039 0.60093
 N520 N 0.22449 0.09070 0.58965
 N521 N 0.22448 0.07045 0.56942
 C522 C 0.24957 0.05918 0.55970
 N523 N 0.27466 0.06888 0.57096
 N524 N 0.27466 0.08910 0.59122
   
