data_POSCAR
  _audit_creation_date              2014-09-24
  _audit_creation_method            'ToBaCCo'
  _symmetry_space_group_name_H-M    'P1'
  _symmetry_Int_Tables_number       1
  _symmetry_cell_setting            triclinic
  loop_
  _symmetry_equiv_pos_as_xyz
 x,y,z
_cell_length_a 35.1013
_cell_length_b 34.9250
_cell_length_c 30.9108
_cell_angle_alpha 90.350000
_cell_angle_beta 90.067600
_cell_angle_gamma 91.066700
loop_
  _atom_site_label
  _atom_site_type_symbol
  _atom_site_fract_x
  _atom_site_fract_y
  _atom_site_fract_z
C1 C -0.10777 0.27399 0.01277
 C2 C -0.10829 0.27079 -0.03144
 C3 C -0.07650 0.29080 -0.04651
 N4 N -0.05618 0.30544 -0.01293
 C5 C -0.07551 0.29551 0.02329
 C6 C -0.06675 0.29627 -0.09054
 C7 C -0.02803 0.30083 -0.10319
 C8 C -0.01553 0.31381 -0.14321
 C9 C 0.02353 0.31117 -0.14344
 C10 C 0.03406 0.29669 -0.10355
 N11 N 0.00246 0.29078 -0.07912
 C12 C 0.07176 0.28751 -0.09113
 C13 C 0.08088 0.28125 -0.04711
 C14 C 0.10986 0.25833 -0.03204
 C15 C 0.11035 0.26219 0.01210
 C16 C 0.08135 0.28694 0.02255
 N17 N 0.06311 0.29830 -0.01360
 C18 C 0.07236 0.29963 0.06468
 C19 C 0.03579 0.31300 0.07485
 C20 C 0.02589 0.33123 0.11309
 C21 C -0.01327 0.33324 0.11331
 C22 C -0.02603 0.31621 0.07518
 N23 N 0.00405 0.30456 0.05169
 C24 C -0.06428 0.30650 0.06554
 H25 H -0.12825 0.26097 0.03457
 H26 H -0.12924 0.25479 -0.05024
 H27 H 0.00262 0.28644 0.02486
 H28 H -0.03263 0.32428 -0.16961
 H29 H 0.04196 0.31926 -0.17002
 H30 H 0.12837 0.24021 -0.05082
 H31 H 0.12927 0.24766 0.03394
 H32 H -0.03043 0.34450 0.13936
 H33 H 0.00144 0.27697 -0.04937
 H34 H 0.04475 0.34064 0.13892
 C35 C 0.37918 0.77172 0.47863
 C36 C 0.37950 0.77003 0.52293
 C37 C 0.41238 0.78915 0.53653
 N38 N 0.43227 0.80222 0.50205
 C39 C 0.41197 0.79166 0.46664
 C40 C 0.42333 0.79551 0.58002
 C41 C 0.46129 0.80496 0.59163
 C42 C 0.47295 0.81823 0.63200
 C43 C 0.51218 0.81881 0.63184
 C44 C 0.52335 0.80585 0.59138
 N45 N 0.49218 0.79780 0.56700
 C46 C 0.56117 0.79778 0.57934
 C47 C 0.57153 0.79138 0.53577
 C48 C 0.60425 0.77338 0.52202
 C49 C 0.60398 0.77455 0.47769
 C50 C 0.57109 0.79325 0.46585
 N51 N 0.55124 0.80341 0.50140
 C52 C 0.56037 0.80210 0.42301
 C53 C 0.52241 0.81053 0.41178
 C54 C 0.51093 0.82540 0.37245
 C55 C 0.47167 0.82513 0.37268
 C56 C 0.46030 0.81008 0.41212
 N57 N 0.49139 0.80147 0.43579
 C58 C 0.42228 0.80105 0.42378
 H59 H 0.35765 0.75897 0.45770
 H60 H 0.35826 0.75564 0.54263
 H61 H 0.49138 0.78558 0.46413
 H62 H 0.45507 0.82575 0.65915
 H63 H 0.53036 0.82686 0.65882
 H64 H 0.62577 0.76013 0.54171
 H65 H 0.62526 0.76239 0.45667
 H66 H 0.45360 0.83416 0.34640
 H67 H 0.49195 0.78305 0.53767
 H68 H 0.52892 0.83470 0.34597
 C69 C 1.09577 0.67668 -0.02232
 C70 C 1.09710 0.67699 0.02205
 C71 C 1.07008 0.70275 0.03593
 N72 N 1.05175 0.71763 0.00149
 C73 C 1.06807 0.70237 -0.03422
 C74 C 1.06268 0.71282 0.07964
 C75 C 1.02555 0.72340 0.09276
 C76 C 1.01625 0.73970 0.13242
 C77 C 0.97726 0.74164 0.13394
 C78 C 0.96356 0.72747 0.09480
 N79 N 0.99320 0.71632 0.06995
 C80 C 0.92453 0.72247 0.08414
 C81 C 0.91156 0.71569 0.04153
 C82 C 0.87408 0.70755 0.02996
 C83 C 0.87285 0.70746 -0.01444
 C84 C 0.90961 0.71558 -0.02844
 N85 N 0.93310 0.72082 0.00580
 C86 C 0.92020 0.72227 -0.07175
 C87 C 0.95855 0.72763 -0.08481
 C88 C 0.97008 0.74229 -0.12436
 C89 C 1.00905 0.74037 -0.12556
 C90 C 1.02049 0.72349 -0.08718
 N91 N 0.98947 0.71621 -0.06236
 C92 C 1.05814 0.71218 -0.07723
 H93 H 1.11251 0.65870 -0.04333
 H94 H 1.11515 0.65943 0.04188
 H95 H 0.98915 0.70016 -0.03411
 H96 H 1.03528 0.74901 0.15810
 H97 H 0.96113 0.75202 0.16121
 H98 H 0.84993 0.70320 0.05121
 H99 H 0.84758 0.70306 -0.03408
 H100 H 1.02659 0.75005 -0.15222
 H101 H 0.99135 0.70076 0.04119
 H102 H 0.95256 0.75298 -0.15022
 C103 C 0.61793 0.18847 0.46811
 C104 C 0.61756 0.18842 0.51256
 C105 C 0.58191 0.20078 0.52509
 N106 N 0.56089 0.20914 0.48986
 C107 C 0.58287 0.20190 0.45496
 C108 C 0.57037 0.20723 0.56825
 C109 C 0.53174 0.21134 0.58067
 C110 C 0.51949 0.21970 0.62227
 C111 C 0.48038 0.21773 0.62174
 C112 C 0.46944 0.20828 0.57979
 N113 N 0.50102 0.20388 0.55523
 C114 C 0.43136 0.20057 0.56618
 C115 C 0.42130 0.19306 0.52261
 C116 C 0.38680 0.17737 0.50881
 C117 C 0.38765 0.17729 0.46436
 C118 C 0.42220 0.19397 0.45244
 N119 N 0.44274 0.20331 0.48813
 C120 C 0.43363 0.20305 0.40971
 C121 C 0.47169 0.21345 0.39955
 C122 C 0.48303 0.23159 0.36176
 C123 C 0.52213 0.23350 0.36234
 C124 C 0.53371 0.21651 0.40048
 N125 N 0.50276 0.20453 0.42314
 C126 C 0.57205 0.20995 0.41187
 H127 H 0.64143 0.17964 0.44802
 H128 H 0.64086 0.18006 0.53319
 H129 H 0.50297 0.18705 0.45029
 H130 H 0.53670 0.22516 0.65075
 H131 H 0.46243 0.22138 0.64979
 H132 H 0.36350 0.16686 0.52860
 H133 H 0.36525 0.16626 0.44342
 H134 H 0.53996 0.24583 0.33730
 H135 H 0.50172 0.19237 0.52425
 H136 H 0.46506 0.24216 0.33616
 C137 C 0.73621 -0.10673 -0.01508
 C138 C 0.73469 -0.10580 0.02912
 C139 C 0.71927 -0.07090 0.04059
 N140 N 0.71240 -0.04994 0.00481
 C141 C 0.72236 -0.07205 -0.02930
 C142 C 0.71136 -0.05853 0.08334
 C143 C 0.71180 -0.01899 0.09374
 C144 C 0.69661 -0.00291 0.13094
 C145 C 0.70614 0.03546 0.13036
 C146 C 0.72701 0.04178 0.09293
 N147 N 0.72996 0.00855 0.07056
 C148 C 0.74460 0.07701 0.08131
 C149 C 0.75577 0.08506 0.03842
 C150 C 0.77730 0.11667 0.02571
 C151 C 0.77832 0.11584 -0.01869
 C152 C 0.75741 0.08361 -0.03174
 N153 N 0.74356 0.06507 0.00335
 C154 C 0.74639 0.07465 -0.07482
 C155 C 0.72763 0.03930 -0.08520
 C156 C 0.70878 0.03012 -0.12363
 C157 C 0.70016 -0.00842 -0.12256
 C158 C 0.71539 -0.02233 -0.08455
 N159 N 0.73104 0.00700 -0.06153
 C160 C 0.71829 -0.06144 -0.07312
 H161 H 0.74751 -0.12986 -0.03434
 H162 H 0.74488 -0.12795 0.05027
 H163 H 0.74812 0.00386 -0.03422
 H164 H 0.68038 -0.01725 0.15601
 H165 H 0.69859 0.05623 0.15484
 H166 H 0.79025 0.13853 0.04621
 H167 H 0.79174 0.13743 -0.03879
 H168 H 0.68547 -0.02449 -0.14776
 H169 H 0.74706 0.00404 0.04353
 H170 H 0.70264 0.04829 -0.15074
 C171 C 0.22639 0.37415 0.47872
 C172 C 0.22748 0.37449 0.52302
 C173 C 0.21399 0.40977 0.53622
 N174 N 0.20522 0.43117 0.50147
 C175 C 0.21287 0.40945 0.46634
 C176 C 0.20807 0.42128 0.57957
 C177 C 0.20323 0.46003 0.59138
 C178 C 0.18972 0.47248 0.63106
 C179 C 0.19264 0.51183 0.63108
 C180 C 0.20824 0.52233 0.59158
 N181 N 0.21429 0.49058 0.56744
 C182 C 0.21911 0.56013 0.57982
 C183 C 0.22542 0.57094 0.53634
 C184 C 0.24157 0.60551 0.52327
 C185 C 0.24143 0.60513 0.47883
 C186 C 0.22489 0.57049 0.46618
 N187 N 0.21504 0.54970 0.50138
 C188 C 0.21790 0.55886 0.42289
 C189 C 0.20614 0.52128 0.41169
 C190 C 0.19009 0.51061 0.37231
 C191 C 0.18634 0.47135 0.37253
 C192 C 0.20070 0.45915 0.41181
 N193 N 0.21228 0.48980 0.43569
 C194 C 0.20629 0.42058 0.42330
 H195 H 0.23510 0.35080 0.45801
 H196 H 0.23745 0.35142 0.54302
 H197 H 0.22827 0.48895 0.46401
 H198 H 0.17918 0.45500 0.65742
 H199 H 0.18459 0.53049 0.65747
 H200 H 0.25271 0.62846 0.54357
 H201 H 0.25249 0.62774 0.45835
 H202 H 0.17516 0.45378 0.34632
 H203 H 0.22955 0.48953 0.53863
 H204 H 0.18238 0.52919 0.34592
 C205 C 0.26938 0.87894 -0.02502
 C206 C 0.26763 0.87958 0.01923
 C207 C 0.28361 0.91429 0.03227
 N208 N 0.29538 0.93480 -0.00231
 C209 C 0.28723 0.91295 -0.03744
 C210 C 0.28926 0.92579 0.07548
 C211 C 0.29780 0.96418 0.08662
 C212 C 0.31437 0.97640 0.12507
 C213 C 0.31378 1.01576 0.12491
 C214 C 0.29655 1.02644 0.08640
 N215 N 0.28748 0.99473 0.06299
 C216 C 0.28664 1.06422 0.07511
 C217 C 0.27630 1.07318 0.03191
 C218 C 0.25324 1.10306 0.01968
 C219 C 0.25127 1.10218 -0.02455
 C220 C 0.27275 1.07140 -0.03815
 N221 N 0.28774 1.05344 -0.00353
 C222 C 0.27957 1.06118 -0.08188
 C223 C 0.29317 1.02432 -0.09267
 C224 C 0.31414 1.01510 -0.12919
 C225 C 0.31874 0.97607 -0.12882
 C226 C 0.30095 0.96250 -0.09175
 N227 N 0.28600 0.99221 -0.06954
 C228 C 0.29698 0.92340 -0.08027
 H229 H 0.25822 0.85618 -0.04558
 H230 H 0.25551 0.85729 0.03944
 H231 H 0.26834 0.99032 -0.04250
 H232 H 0.32530 0.95878 0.15078
 H233 H 0.32442 1.03425 0.15058
 H234 H 0.23837 1.12288 0.04040
 H235 H 0.23496 1.12145 -0.04426
 H236 H 0.33375 0.95967 -0.15299
 H237 H 0.27085 0.99369 0.03505
 H238 H 0.32526 1.03442 -0.15352
 C239 C 0.78423 0.39556 0.47048
 C240 C 0.78303 0.39338 0.51470
 C241 C 0.79362 0.42928 0.53033
 N242 N 0.80165 0.45323 0.49723
 C243 C 0.79599 0.43262 0.46055
 C244 C 0.79721 0.43901 0.57450
 C245 C 0.80118 0.47736 0.58900
 C246 C 0.81378 0.48863 0.62974
 C247 C 0.80995 0.52774 0.63212
 C248 C 0.79525 0.53926 0.59271
 N249 N 0.79012 0.50838 0.56659
 C250 C 0.78428 0.57694 0.58293
 C251 C 0.77612 0.58887 0.54029
 C252 C 0.75767 0.62227 0.52952
 C253 C 0.75767 0.62423 0.48523
 C254 C 0.77585 0.59182 0.47037
 N255 N 0.78716 0.57027 0.50406
 C256 C 0.78364 0.58367 0.42650
 C257 C 0.79678 0.54759 0.41255
 C258 C 0.81389 0.54028 0.37301
 C259 C 0.81932 0.50139 0.37077
 C260 C 0.80566 0.48608 0.40914
 N261 N 0.79210 0.51443 0.43447
 C262 C 0.80293 0.44658 0.41837
 H263 H 0.77682 0.37250 0.44834
 H264 H 0.77481 0.36833 0.53318
 H265 H 0.77625 0.51076 0.46261
 H266 H 0.82416 0.47052 0.65529
 H267 H 0.81676 0.54559 0.65992
 H268 H 0.74530 0.64305 0.55120
 H269 H 0.74547 0.64686 0.46621
 H270 H 0.83156 0.48608 0.34376
 H271 H 0.77546 0.50784 0.53733
 H272 H 0.82137 0.56073 0.34812
 O273 O 0.20122 0.26461 0.29695
 O274 O 0.22947 0.18167 0.23048
 O275 O 0.24863 0.21000 0.30711
 O276 O 0.17936 0.23516 0.22360
 O277 O 0.22234 0.27246 0.19189
 O278 O 0.29317 0.24410 0.27365
 O279 O 0.27199 0.21821 0.19707
 O280 O 0.24613 0.29980 0.26561
 Cu281 Cu 0.21041 0.21899 0.26768
 Cu282 Cu 0.26292 0.26202 0.22870
 C283 C 0.21936 0.29621 0.29295
 C284 C 0.25488 0.18617 0.20160
 C285 C 0.28239 0.22334 0.30520
 C286 C 0.18869 0.25843 0.19398
 O287 O 0.74872 0.82300 0.23896
 O288 O 0.77404 0.74179 0.30718
 O289 O 0.80025 0.77135 0.23521
 O290 O 0.71946 0.79181 0.30760
 O291 O 0.68252 0.75334 0.26825
 O292 O 0.76305 0.73235 0.19682
 O293 O 0.73646 0.70326 0.26870
 O294 O 0.71152 0.78499 0.19931
 Cu295 Cu 0.76436 0.78565 0.27636
 Cu296 Cu 0.71967 0.73961 0.22937
 C297 C 0.72620 0.81789 0.20731
 C298 C 0.75957 0.70884 0.29995
 C299 C 0.79513 0.74866 0.20329
 C300 C 0.68713 0.77611 0.29997
 O301 O 0.75919 0.23015 0.31649
 O302 O 0.82953 0.25421 0.23289
 O303 O 0.80571 0.28716 0.30302
 O304 O 0.78086 0.19844 0.24269
 O305 O 0.73748 0.22998 0.20619
 O306 O 0.76083 0.31747 0.26749
 O307 O 0.78625 0.28630 0.19682
 O308 O 0.71464 0.25962 0.27953
 Cu309 Cu 0.79807 0.23917 0.27747
 Cu310 Cu 0.74532 0.27630 0.23385
 C311 C 0.72516 0.24120 0.31271
 C312 C 0.82013 0.27446 0.20086
 C313 C 0.78710 0.31735 0.29565
 C314 C 0.75548 0.19954 0.21331
 O315 O 0.17966 0.76526 0.23874
 O316 O 0.26166 0.78864 0.30994
 O317 O 0.23544 0.81491 0.23776
 O318 O 0.20282 0.74212 0.31501
 O319 O 0.23677 0.69862 0.28114
 O320 O 0.27027 0.77209 0.20390
 O321 O 0.29529 0.74477 0.27620
 O322 O 0.21436 0.72261 0.20449
 Cu323 Cu 0.21633 0.78186 0.27886
 Cu324 Cu 0.25739 0.73000 0.23806
 C325 C 0.18356 0.74071 0.20860
 C326 C 0.29254 0.77059 0.30495
 C327 C 0.25836 0.80609 0.20775
 C328 C 0.21468 0.70819 0.31184
 O329 O 0.78371 0.27443 0.68701
 O330 O 0.75539 0.19527 0.76001
 O331 O 0.73121 0.22051 0.68515
 O332 O 0.81124 0.24476 0.75732
 O333 O 0.77439 0.28302 0.79521
 O334 O 0.69485 0.26143 0.71987
 O335 O 0.71661 0.23431 0.79415
 O336 O 0.74806 0.31367 0.72504
 Cu337 Cu 0.77395 0.22977 0.71868
 Cu338 Cu 0.72982 0.27693 0.76233
 C339 C 0.77069 0.30767 0.69388
 C340 C 0.73095 0.20154 0.78949
 C341 C 0.69970 0.23723 0.68951
 C342 C 0.80653 0.26765 0.78871
 O343 O 0.31416 0.73068 0.73886
 O344 O 0.24419 0.70432 0.82179
 O345 O 0.26343 0.67637 0.74511
 O346 O 0.29099 0.76181 0.81032
 O347 O 0.24688 0.79491 0.77685
 O348 O 0.22014 0.71057 0.71180
 O349 O 0.20031 0.73744 0.78804
 O350 O 0.27142 0.76549 0.70534
 Cu351 Cu 0.28232 0.71471 0.78246
 Cu352 Cu 0.23021 0.75517 0.74203
 C353 C 0.30509 0.75282 0.70839
 C354 C 0.21066 0.71697 0.81975
 C355 C 0.23753 0.67941 0.71652
 C356 C 0.27338 0.79293 0.80455
 O357 O 0.25781 0.29511 0.72782
 O358 O 0.28195 0.21218 0.79374
 O359 O 0.30743 0.24193 0.72111
 O360 O 0.22886 0.26363 0.79598
 O361 O 0.18991 0.22670 0.75727
 O362 O 0.26848 0.20469 0.68281
 O363 O 0.24263 0.17523 0.75556
 O364 O 0.21827 0.25900 0.68883
 Cu365 Cu 0.27304 0.25656 0.76371
 Cu366 Cu 0.22608 0.21259 0.71715
 C367 C 0.23393 0.29138 0.69727
 C368 C 0.26623 0.17981 0.78653
 C369 C 0.30107 0.22018 0.68864
 C370 C 0.19586 0.24917 0.78903
 O371 O 0.79639 0.76542 0.77531
 O372 O 0.71787 0.78480 0.69962
 O373 O 0.74566 0.81736 0.76877
 O374 O 0.77101 0.73347 0.70356
 O375 O 0.73191 0.69699 0.74196
 O376 O 0.70714 0.78111 0.80825
 O377 O 0.67932 0.74836 0.73884
 O378 O 0.75786 0.72811 0.81353
 Cu379 Cu 0.76167 0.77871 0.73270
 Cu380 Cu 0.71519 0.73493 0.77951
 C381 C 0.79024 0.74396 0.80774
 C382 C 0.68509 0.76999 0.70660
 C383 C 0.72249 0.81349 0.79999
 C384 C 0.75562 0.70104 0.71126
 C385 C 0.28485 0.09195 0.10877
 C386 C 0.29037 0.12972 0.10290
 C387 C 0.28567 0.15892 0.13722
 C388 C 0.26334 0.15412 0.17209
 H389 H 0.30008 0.14025 0.07187
 H390 H 0.29856 0.18678 0.13109
 H391 H 0.28094 0.08200 0.14157
 H392 H 0.24840 0.12718 0.17741
 C393 C 0.77992 0.60442 0.61945
 C394 C 0.79559 0.63972 0.61842
 C395 C 0.78929 0.67012 0.65104
 C396 C 0.76419 0.66775 0.68366
 H397 H 0.81324 0.64761 0.59104
 H398 H 0.80478 0.69681 0.64587
 H399 H 0.76433 0.59453 0.64748
 H400 H 0.74797 0.64170 0.68945
 C401 C 0.70599 0.91487 0.11738
 C402 C 0.69311 0.87863 0.11176
 C403 C 0.69511 0.84854 0.14514
 C404 C 0.71881 0.85067 0.17911
 H405 H 0.68122 0.86973 0.08090
 H406 H 0.67948 0.82207 0.13870
 H407 H 0.71182 0.92464 0.15003
 H408 H 0.73576 0.87632 0.18515
 C409 C 0.20940 0.39241 0.61469
 C410 C 0.19180 0.35802 0.61155
 C411 C 0.19772 0.32587 0.64170
 C412 C 0.22565 0.32529 0.67124
 H413 H 0.17333 0.35217 0.58411
 H414 H 0.17982 0.30059 0.63700
 H415 H 0.22532 0.40035 0.64341
 H416 H 0.24430 0.34988 0.67618
 C417 C 0.90860 0.30325 0.10233
 C418 C 0.87189 0.31312 0.09976
 C419 C 0.84360 0.30646 0.13461
 C420 C 0.84934 0.28310 0.16816
 H421 H 0.86164 0.32639 0.07049
 H422 H 0.81622 0.31988 0.13096
 H423 H 0.92011 0.29313 0.13251
 H424 H 0.87597 0.26845 0.17183
 C425 C 0.39557 0.78873 0.61557
 C426 C 0.35929 0.80018 0.61397
 C427 C 0.33027 0.79063 0.64713
 C428 C 0.33449 0.76298 0.67652
 H429 H 0.35005 0.81724 0.58690
 H430 H 0.30379 0.80602 0.64584
 H431 H 0.40626 0.77481 0.64413
 H432 H 0.36023 0.74654 0.67773
 C433 C 0.09166 0.71193 0.11175
 C434 C 0.12917 0.71594 0.10390
 C435 C 0.15829 0.71816 0.13850
 C436 C 0.15228 0.73431 0.17738
 H437 H 0.13974 0.71897 0.07126
 H438 H 0.18678 0.70958 0.12978
 H439 H 0.08311 0.70998 0.14526
 H440 H 0.12484 0.74623 0.18509
 C441 C 0.60064 0.21034 0.60175
 C442 C 0.60723 0.24332 0.62316
 C443 C 0.63738 0.24927 0.65608
 C444 C 0.66899 0.22846 0.65828
 H445 H 0.58884 0.26731 0.61717
 H446 H 0.63420 0.27353 0.67768
 H447 H 0.61823 0.18572 0.60711
 H448 H 0.67379 0.20567 0.63517
 C449 C 0.75636 0.10089 0.89239
 C450 C 0.73099 0.11616 0.86551
 C451 C 0.74308 0.14475 0.83325
 C452 C 0.71886 0.17087 0.81903
 H453 H 0.70083 0.10987 0.86942
 H454 H 0.77257 0.14574 0.82281
 H455 H 0.78496 0.11318 0.89256
 H456 H 0.69029 0.17173 0.83224
 C457 C 0.22525 0.58573 0.38671
 C458 C 0.20941 0.62009 0.38425
 C459 C 0.21820 0.64561 0.34766
 C460 C 0.20328 0.68042 0.34529
 H461 H 0.19040 0.62955 0.40963
 H462 H 0.23824 0.63632 0.32325
 H463 H 0.24271 0.57575 0.36015
 H464 H 0.18364 0.68971 0.37011
 C465 C 0.30078 0.89524 0.88689
 C466 C 0.31181 0.85917 0.89437
 C467 C 0.30834 0.82762 0.86246
 C468 C 0.28225 0.82721 0.83082
 H469 H 0.32333 0.85169 0.92564
 H470 H 0.32456 0.80214 0.86866
 H471 H 0.29564 0.90351 0.85371
 H472 H 0.26447 0.85179 0.82585
 C473 C 0.80455 0.41924 0.38143
 C474 C 0.82487 0.38710 0.38296
 C475 C 0.82156 0.35524 0.35129
 C476 C 0.79437 0.35254 0.32088
 H477 H 0.84321 0.38246 0.41057
 H478 H 0.84036 0.33140 0.35613
 H479 H 0.78833 0.42628 0.35294
 H480 H 0.77477 0.37555 0.31579
 C481 C 0.09987 0.28354 0.87625
 C482 C 0.13736 0.28976 0.88325
 C483 C 0.16755 0.28276 0.85106
 C484 C 0.16387 0.25796 0.81804
 H485 H 0.14699 0.30190 0.91375
 H486 H 0.19491 0.29667 0.85708
 H487 H 0.09060 0.27725 0.84354
 H488 H 0.13718 0.24267 0.81259
 C489 C 0.58904 0.79994 0.38773
 C490 C 0.62445 0.81469 0.39198
 C491 C 0.65552 0.80932 0.36032
 C492 C 0.65434 0.78334 0.32825
 H493 H 0.63168 0.83091 0.42093
 H494 H 0.68141 0.82605 0.36567
 H495 H 0.58004 0.78646 0.35776
 H496 H 0.62919 0.76565 0.32281
 C497 C 0.88945 0.72430 0.89546
 C498 C 0.88085 0.75735 0.87633
 C499 C 0.85107 0.76099 0.84291
 C500 C 0.82049 0.73761 0.83974
 H501 H 0.89761 0.78286 0.88402
 H502 H 0.85355 0.78550 0.82172
 H503 H 0.87350 0.69824 0.88822
 H504 H 0.81601 0.71484 0.86287
 C505 C 0.40580 0.20246 0.37320
 C506 C 0.37050 0.21580 0.37626
 C507 C 0.34606 0.21856 0.33778
 C508 C 0.30827 0.21621 0.34153
 H509 H 0.35966 0.22601 0.40694
 H510 H 0.35907 0.22278 0.30632
 H511 H 0.41586 0.19341 0.34166
 H512 H 0.29570 0.20944 0.37265
 C513 C 0.71740 0.90882 0.89547
 C514 C 0.72945 0.91263 0.85443
 C515 C 0.73268 0.88013 0.82386
 C516 C 0.71412 0.84642 0.82805
 H517 H 0.74200 0.93945 0.84374
 H518 H 0.75215 0.88432 0.79707
 H519 H 0.71015 0.88031 0.90651
 H520 H 0.69343 0.84197 0.85351
 C521 C 0.20520 0.39005 0.38968
 C522 C 0.22555 0.39284 0.35314
 C523 C 0.23035 0.36122 0.32173
 C524 C 0.20980 0.32843 0.32154
 H525 H 0.24218 0.41874 0.34731
 H526 H 0.25300 0.36513 0.29831
 H527 H 0.19083 0.36347 0.39799
 H528 H 0.18638 0.32406 0.34372
 C529 C 0.27407 0.08957 0.88616
 C530 C 0.26558 0.08243 0.84436
 C531 C 0.25869 0.11325 0.81271
 C532 C 0.27529 0.14805 0.81568
 H533 H 0.25983 0.05340 0.83344
 H534 H 0.23975 0.10664 0.78590
 H535 H 0.27389 0.11914 0.89676
 H536 H 0.29582 0.15412 0.84110
 C537 C 0.77967 0.61537 0.39497
 C538 C 0.76096 0.61096 0.35732
 C539 C 0.75321 0.64252 0.32682
 C540 C 0.76981 0.67738 0.32900
 H541 H 0.74874 0.58311 0.34920
 H542 H 0.73254 0.63642 0.30154
 H543 H 0.78956 0.64341 0.40541
 H544 H 0.79124 0.68394 0.35317
 C545 C 0.08476 0.71057 0.88819
 C546 C 0.12279 0.71225 0.89227
 C547 C 0.14719 0.71536 0.85359
 C548 C 0.18452 0.70913 0.85596
 H549 H 0.13637 0.71448 0.92361
 H550 H 0.13464 0.72384 0.82312
 H551 H 0.07396 0.71030 0.85537
 H552 H 0.19663 0.69905 0.88601
 C553 C 0.60073 0.21203 0.37631
 C554 C 0.63526 0.22840 0.38056
 C555 C 0.66079 0.23258 0.34307
 C556 C 0.69850 0.23391 0.34851
 H557 H 0.64471 0.23970 0.41154
 H558 H 0.64867 0.23433 0.31088
 H559 H 0.59199 0.20195 0.34449
 H560 H 0.71038 0.22947 0.38045
 C561 C 0.90475 0.29536 0.87684
 C562 C 0.86814 0.30463 0.88370
 C563 C 0.83733 0.29980 0.85130
 C564 C 0.83899 0.27529 0.81790
 H565 H 0.85986 0.31721 0.91427
 H566 H 0.81119 0.31490 0.85743
 H567 H 0.91325 0.28850 0.84413
 H568 H 0.86431 0.25877 0.81239
 C569 C 0.39306 0.79858 0.38894
 C570 C 0.35798 0.81265 0.39390
 C571 C 0.32643 0.80664 0.36266
 C572 C 0.32574 0.77862 0.33285
 H573 H 0.35153 0.82884 0.42290
 H574 H 0.30168 0.82436 0.36675
 H575 H 0.40123 0.78540 0.35867
 H576 H 0.34960 0.75972 0.32937
 C577 C 0.28664 0.89599 0.10943
 C578 C 0.26634 0.90115 0.14561
 C579 C 0.25809 0.87117 0.17802
 C580 C 0.27083 0.83518 0.17633
 H581 H 0.25300 0.92849 0.15103
 H582 H 0.23924 0.87936 0.20407
 H583 H 0.29863 0.86850 0.10190
 H584 H 0.28987 0.82601 0.15106
 C585 C 0.79692 0.40720 0.60622
 C586 C 0.77344 0.40712 0.64036
 C587 C 0.76755 0.37463 0.67025
 C588 C 0.78137 0.33932 0.66468
 H589 H 0.75620 0.43201 0.64630
 H590 H 0.74891 0.38011 0.69742
 H591 H 0.81370 0.38245 0.59859
 H592 H 0.79951 0.33261 0.63758
 C593 C 0.74851 0.10836 0.11388
 C594 C 0.76286 0.10306 0.15362
 C595 C 0.76839 0.13460 0.18536
 C596 C 0.74715 0.16608 0.18551
 H597 H 0.77316 0.07510 0.16238
 H598 H 0.79072 0.13152 0.20923
 H599 H 0.74178 0.13696 0.10338
 H600 H 0.72374 0.16854 0.16292
 C601 C 0.22264 0.59048 0.61375
 C602 C 0.24224 0.58553 0.65060
 C603 C 0.24899 0.61603 0.68345
 C604 C 0.22773 0.64738 0.68706
 H605 H 0.25622 0.55856 0.65588
 H606 H 0.27276 0.61232 0.70530
 H607 H 0.21153 0.61830 0.60607
 H608 H 0.20321 0.65097 0.66636
 C609 C 0.89544 0.72518 0.11870
 C610 C 0.88788 0.75857 0.13814
 C611 C 0.85782 0.76328 0.17106
 C612 C 0.82620 0.74125 0.17262
 H613 H 0.90507 0.78368 0.13036
 H614 H 0.86077 0.78766 0.19272
 H615 H 0.87897 0.69958 0.12612
 H616 H 0.82153 0.71866 0.14897
 C617 C 0.40018 0.20095 0.59875
 C618 C 0.39228 0.23299 0.62087
 C619 C 0.36245 0.23605 0.65436
 C620 C 0.33137 0.21328 0.65662
 H621 H 0.40980 0.25840 0.61555
 H622 H 0.36536 0.26007 0.67655
 H623 H 0.38334 0.17504 0.60331
 H624 H 0.32654 0.19085 0.63283
 C625 C 0.09993 0.29485 0.10069
 C626 C 0.13737 0.30243 0.09664
 C627 C 0.16577 0.29414 0.13057
 C628 C 0.15965 0.26837 0.16188
 H629 H 0.14798 0.31514 0.06703
 H630 H 0.19345 0.30813 0.12785
 H631 H 0.08849 0.28562 0.13147
 H632 H 0.13275 0.25288 0.16386
 C633 C 0.58978 0.79323 0.61440
 C634 C 0.62534 0.80783 0.61176
 C635 C 0.65580 0.80171 0.64406
 C636 C 0.65312 0.77706 0.67706
 H637 H 0.63308 0.82499 0.58393
 H638 H 0.68234 0.81735 0.63896
 H639 H 0.58034 0.77844 0.64315
 H640 H 0.62724 0.76066 0.68269
   
