data_POSCAR
  _audit_creation_date              2014-09-24
  _audit_creation_method            'ToBaCCo'
  _symmetry_space_group_name_H-M    'P1'
  _symmetry_Int_Tables_number       1
  _symmetry_cell_setting            triclinic
  loop_
  _symmetry_equiv_pos_as_xyz
 x,y,z
_cell_length_a 45.4525
_cell_length_b 45.4432
_cell_length_c 45.5178
_cell_angle_alpha 89.973300
_cell_angle_beta 89.970000
_cell_angle_gamma 89.931000
loop_
  _atom_site_label
  _atom_site_type_symbol
  _atom_site_fract_x
  _atom_site_fract_y
  _atom_site_fract_z
C1 C 0.35674 0.35645 0.31911
 C2 C 0.38159 0.34334 0.30632
 C3 C 0.39383 0.31786 0.31862
 C4 C 0.38153 0.30546 0.34399
 C5 C 0.35667 0.31828 0.35708
 C6 C 0.34417 0.34388 0.34459
 C7 C 0.34377 0.38145 0.30646
 C8 C 0.31843 0.39383 0.31889
 C9 C 0.30604 0.38155 0.34427
 C10 C 0.31872 0.35655 0.35721
 C11 C 0.30598 0.34353 0.38210
 C12 C 0.31830 0.31804 0.39432
 C13 C 0.34364 0.30555 0.38196
 H14 H 0.39113 0.35262 0.28654
 H15 H 0.39102 0.28558 0.35320
 H16 H 0.35304 0.39099 0.28666
 H17 H 0.28627 0.39115 0.35358
 H18 H 0.28621 0.35288 0.39168
 H19 H 0.35286 0.28568 0.39144
 C20 C 0.35699 0.85704 -0.18207
 C21 C 0.38190 0.84400 -0.19485
 C22 C 0.39432 0.81862 -0.18245
 C23 C 0.38211 0.80630 -0.15697
 C24 C 0.35721 0.81906 -0.14392
 C25 C 0.34454 0.84453 -0.15651
 C26 C 0.34387 0.88193 -0.19481
 C27 C 0.31848 0.89427 -0.18236
 C28 C 0.30622 0.88200 -0.15688
 C29 C 0.31906 0.85712 -0.14388
 C30 C 0.30645 0.84416 -0.11890
 C31 C 0.31893 0.81880 -0.10659
 C32 C 0.34430 0.80638 -0.11894
 H33 H 0.39131 0.85330 -0.21471
 H34 H 0.39168 0.78652 -0.14760
 H35 H 0.35312 0.89139 -0.21467
 H36 H 0.28643 0.89152 -0.14748
 H37 H 0.28666 0.85345 -0.10931
 H38 H 0.35364 0.78660 -0.10938
 C39 C 0.85712 0.35723 -0.18182
 C40 C 0.88207 0.34422 -0.19455
 C41 C 0.89447 0.31884 -0.18213
 C42 C 0.88221 0.30649 -0.15669
 C43 C 0.85726 0.31922 -0.14370
 C44 C 0.84461 0.34469 -0.15631
 C45 C 0.84403 0.38212 -0.19458
 C46 C 0.81859 0.39443 -0.18221
 C47 C 0.80625 0.38213 -0.15678
 C48 C 0.81907 0.35724 -0.14374
 C49 C 0.80640 0.34424 -0.11881
 C50 C 0.81888 0.31888 -0.10648
 C51 C 0.84430 0.30652 -0.11877
 H52 H 0.89153 0.35354 -0.21437
 H53 H 0.89176 0.28671 -0.14731
 H54 H 0.85334 0.39160 -0.21440
 H55 H 0.78642 0.39162 -0.14743
 H56 H 0.78657 0.35350 -0.10927
 H57 H 0.85365 0.28674 -0.10920
 C58 C 0.85625 0.85724 0.31887
 C59 C 0.88118 0.84419 0.30616
 C60 C 0.89351 0.81881 0.31857
 C61 C 0.88124 0.80646 0.34397
 C62 C 0.85631 0.81921 0.35697
 C63 C 0.84370 0.84470 0.34437
 C64 C 0.84320 0.88213 0.30610
 C65 C 0.81776 0.89447 0.31845
 C66 C 0.80539 0.88219 0.34388
 C67 C 0.81817 0.85729 0.35692
 C68 C 0.80547 0.84429 0.38185
 C69 C 0.81791 0.81891 0.39417
 C70 C 0.84332 0.80651 0.38189
 H71 H 0.89070 0.85344 0.28635
 H72 H 0.89082 0.78666 0.35327
 H73 H 0.85253 0.89160 0.28629
 H74 H 0.78556 0.89170 0.35320
 H75 H 0.78565 0.85357 0.39137
 H76 H 0.85264 0.78672 0.39145
 C77 C 0.64322 0.64323 0.31874
 C78 C 0.61835 0.65632 0.30599
 C79 C 0.60599 0.68169 0.31840
 C80 C 0.61818 0.69398 0.34385
 C81 C 0.64305 0.68118 0.35690
 C82 C 0.65569 0.65570 0.34430
 C83 C 0.65630 0.61835 0.30599
 C84 C 0.68167 0.60599 0.31839
 C85 C 0.69396 0.61819 0.34384
 C86 C 0.68116 0.64307 0.35689
 C87 C 0.69380 0.65600 0.38185
 C88 C 0.68134 0.68137 0.39418
 C89 C 0.65598 0.69382 0.38186
 H90 H 0.60889 0.64712 0.28614
 H91 H 0.60860 0.71377 0.35314
 H92 H 0.64710 0.60889 0.28614
 H93 H 0.71375 0.60860 0.35312
 H94 H 0.71359 0.64668 0.39141
 H95 H 0.64665 0.71360 0.39141
 C96 C 0.64357 0.14280 -0.18131
 C97 C 0.61864 0.15583 -0.19402
 C98 C 0.60633 0.18126 -0.18167
 C99 C 0.61865 0.19368 -0.15635
 C100 C 0.64358 0.18094 -0.14336
 C101 C 0.65616 0.15540 -0.15589
 C102 C 0.65659 0.11785 -0.19401
 C103 C 0.68203 0.10553 -0.18166
 C104 C 0.69443 0.11788 -0.15631
 C105 C 0.68169 0.14283 -0.14334
 C106 C 0.69442 0.15589 -0.11849
 C107 C 0.68202 0.18131 -0.10624
 C108 C 0.65661 0.19370 -0.11851
 H109 H 0.60908 0.14653 -0.21376
 H110 H 0.60910 0.21351 -0.14711
 H111 H 0.64723 0.10834 -0.21377
 H112 H 0.71426 0.10838 -0.14699
 H113 H 0.71424 0.14661 -0.10897
 H114 H 0.64732 0.21353 -0.10901
 C115 C 0.14381 0.64286 -0.18138
 C116 C 0.11890 0.65592 -0.19410
 C117 C 0.10660 0.68136 -0.18176
 C118 C 0.11890 0.69375 -0.15642
 C119 C 0.14381 0.68098 -0.14341
 C120 C 0.15638 0.65544 -0.15593
 C121 C 0.15681 0.61790 -0.19407
 C122 C 0.18222 0.60554 -0.18169
 C123 C 0.19461 0.61787 -0.15633
 C124 C 0.18188 0.64283 -0.14336
 C125 C 0.19461 0.65587 -0.11850
 C126 C 0.18221 0.68130 -0.10625
 C127 C 0.15683 0.69372 -0.11855
 H128 H 0.10935 0.64664 -0.21387
 H129 H 0.10937 0.71359 -0.14718
 H130 H 0.14746 0.60840 -0.21384
 H131 H 0.21442 0.60835 -0.14699
 H132 H 0.21441 0.64657 -0.10895
 H133 H 0.14755 0.71355 -0.10904
 C134 C 0.14333 0.14325 0.31822
 C135 C 0.11846 0.15634 0.30543
 C136 C 0.10600 0.18167 0.31788
 C137 C 0.11813 0.19390 0.34341
 C138 C 0.14300 0.18108 0.35648
 C139 C 0.15570 0.15567 0.34384
 C140 C 0.15648 0.11842 0.30542
 C141 C 0.18184 0.10603 0.31787
 C142 C 0.19403 0.11819 0.34341
 C143 C 0.18115 0.14302 0.35647
 C144 C 0.19369 0.15589 0.38152
 C145 C 0.18118 0.18120 0.39388
 C146 C 0.15583 0.19366 0.38152
 H147 H 0.10911 0.14711 0.28553
 H148 H 0.10854 0.21364 0.35282
 H149 H 0.14728 0.10904 0.28552
 H150 H 0.21380 0.10865 0.35281
 H151 H 0.21346 0.14656 0.39110
 H152 H 0.14646 0.21341 0.39111
 C153 C 0.64319 0.35683 0.68083
 C154 C 0.61826 0.34383 0.69353
 C155 C 0.60588 0.31854 0.68106
 C156 C 0.61809 0.30624 0.65560
 C157 C 0.64302 0.31896 0.64260
 C158 C 0.65568 0.34436 0.65526
 C159 C 0.65630 0.38162 0.69365
 C160 C 0.68171 0.39389 0.68129
 C161 C 0.69403 0.38169 0.65583
 C162 C 0.68121 0.35690 0.64272
 C163 C 0.69387 0.34396 0.61774
 C164 C 0.68139 0.31867 0.60536
 C165 C 0.65597 0.30631 0.61763
 H166 H 0.60879 0.35302 0.71339
 H167 H 0.60849 0.28651 0.64626
 H168 H 0.64708 0.39108 0.71350
 H169 H 0.71386 0.39121 0.64658
 H170 H 0.71370 0.35321 0.60823
 H171 H 0.64663 0.28659 0.60802
 C172 C 0.64266 0.85641 1.18151
 C173 C 0.61770 0.84349 1.19424
 C174 C 0.60529 0.81814 1.18185
 C175 C 0.61757 0.80573 1.15645
 C176 C 0.64253 0.81837 1.14345
 C177 C 0.65519 0.84381 1.15603
 C178 C 0.65577 0.88126 1.19424
 C179 C 0.68121 0.89346 1.18186
 C180 C 0.69356 0.88113 1.15649
 C181 C 0.68074 0.85629 1.14347
 C182 C 0.69343 0.84324 1.11857
 C183 C 0.68096 0.81791 1.10627
 C184 C 0.65552 0.80561 1.11855
 H185 H 0.60823 0.85286 1.21404
 H186 H 0.60801 0.78596 1.14711
 H187 H 0.64653 0.89083 1.21403
 H188 H 0.71340 0.89060 1.14722
 H189 H 0.71327 0.85244 1.10904
 H190 H 0.64618 0.78586 1.10901
 C191 C 0.14297 0.35639 1.18183
 C192 C 0.11813 0.34328 1.19462
 C193 C 0.10590 0.31782 1.18228
 C194 C 0.11823 0.30548 1.15686
 C195 C 0.14306 0.31832 1.14380
 C196 C 0.15554 0.34387 1.15633
 C197 C 0.15591 0.38136 1.19450
 C198 C 0.18123 0.39375 1.18205
 C199 C 0.19361 0.38150 1.15666
 C200 C 0.18096 0.35654 1.14370
 C201 C 0.19371 0.34357 1.11879
 C202 C 0.18141 0.31813 1.10654
 C203 C 0.15610 0.30564 1.11889
 H204 H 0.10863 0.35259 1.21443
 H205 H 0.10880 0.28564 1.14754
 H206 H 0.14664 0.39087 1.21431
 H207 H 0.21336 0.39111 1.14734
 H208 H 0.21346 0.35292 1.10921
 H209 H 0.14690 0.28580 1.10938
 C210 C 0.14244 0.85645 0.68156
 C211 C 0.11756 0.84339 0.69432
 C212 C 0.10517 0.81807 0.68185
 C213 C 0.11738 0.80583 0.65633
 C214 C 0.14226 0.81862 0.64329
 C215 C 0.15489 0.84402 0.65595
 C216 C 0.15554 0.88127 0.69436
 C217 C 0.18089 0.89360 0.68194
 C218 C 0.19316 0.88145 0.65645
 C219 C 0.18035 0.85664 0.64335
 C220 C 0.19298 0.84377 0.61834
 C221 C 0.18054 0.81847 0.60596
 C222 C 0.15518 0.80603 0.61827
 H223 H 0.10816 0.85263 0.71421
 H224 H 0.10784 0.78608 0.64692
 H225 H 0.14635 0.89070 0.71425
 H226 H 0.21293 0.89102 0.64714
 H227 H 0.21276 0.85308 0.60878
 H228 H 0.14587 0.78629 0.60867
 C229 C 0.35649 0.64342 0.68095
 C230 C 0.38136 0.65648 0.69367
 C231 C 0.39363 0.68188 0.68127
 C232 C 0.38135 0.69423 0.65587
 C233 C 0.35648 0.68146 0.64285
 C234 C 0.34394 0.65595 0.65544
 C235 C 0.34349 0.61852 0.69371
 C236 C 0.31813 0.60619 0.68134
 C237 C 0.30575 0.61844 0.65594
 C238 C 0.31847 0.64334 0.64289
 C239 C 0.30575 0.65633 0.61797
 C240 C 0.31811 0.68172 0.60566
 C241 C 0.34347 0.69415 0.61794
 H242 H 0.39088 0.64724 0.71349
 H243 H 0.39087 0.71404 0.64658
 H244 H 0.35275 0.60902 0.71352
 H245 H 0.28597 0.60888 0.64668
 H246 H 0.28596 0.64703 0.60845
 H247 H 0.35272 0.71396 0.60838
 C248 C 0.35717 0.14302 1.18210
 C249 C 0.38212 0.15599 1.19478
 C250 C 0.39456 0.18129 1.18228
 C251 C 0.38233 0.19361 1.15681
 C252 C 0.35738 0.18092 1.14386
 C253 C 0.34469 0.15553 1.15654
 C254 C 0.34402 0.11822 1.19493
 C255 C 0.31858 0.10596 1.18258
 C256 C 0.30631 0.11822 1.15711
 C257 C 0.31917 0.14302 1.14401
 C258 C 0.30653 0.15598 1.11904
 C259 C 0.31903 0.18126 1.10664
 C260 C 0.34445 0.19359 1.11889
 H261 H 0.39154 0.14669 1.21463
 H262 H 0.39191 0.21333 1.14738
 H263 H 0.35329 0.10877 1.21478
 H264 H 0.28648 0.10877 1.14778
 H265 H 0.28671 0.14674 1.10954
 H266 H 0.35381 0.21332 1.10926
 C267 C 0.85671 0.64242 1.18157
 C268 C 0.88157 0.65553 1.19427
 C269 C 0.89381 0.68092 1.18182
 C270 C 0.88151 0.69322 1.15641
 C271 C 0.85666 0.68040 1.14343
 C272 C 0.84414 0.65490 1.15605
 C273 C 0.84374 0.61750 1.19436
 C274 C 0.81838 0.60510 1.18200
 C275 C 0.80600 0.61734 1.15656
 C276 C 0.81868 0.64226 1.14350
 C277 C 0.80595 0.65521 1.11857
 C278 C 0.81830 0.68060 1.10623
 C279 C 0.84364 0.69306 1.11850
 H280 H 0.89111 0.64632 1.21409
 H281 H 0.89101 0.71302 1.14709
 H282 H 0.85309 0.60807 1.21418
 H283 H 0.78623 0.60779 1.14723
 H284 H 0.78618 0.64588 1.10904
 H285 H 0.85288 0.71287 1.10892
 C286 C 0.85664 0.14357 0.68125
 C287 C 0.88146 0.15666 0.69403
 C288 C 0.89378 0.18202 0.68160
 C289 C 0.88161 0.19431 0.65612
 C290 C 0.85679 0.18151 0.64305
 C291 C 0.84419 0.15604 0.65566
 C292 C 0.84359 0.11870 0.69401
 C293 C 0.81828 0.10634 0.68158
 C294 C 0.80600 0.11852 0.65610
 C295 C 0.81877 0.14340 0.64304
 C296 C 0.80615 0.15632 0.61803
 C297 C 0.81857 0.18168 0.60570
 C298 C 0.84388 0.19413 0.61805
 H299 H 0.89091 0.14747 0.71390
 H300 H 0.89117 0.21409 0.64682
 H301 H 0.85278 0.10924 0.71389
 H302 H 0.78626 0.10893 0.64678
 H303 H 0.78640 0.14699 0.60845
 H304 H 0.85317 0.21392 0.60848
 C305 C 0.35632 0.35675 0.68126
 C306 C 0.34329 0.38167 0.69398
 C307 C 0.31784 0.39396 0.68166
 C308 C 0.30541 0.38164 0.65634
 C309 C 0.31816 0.35671 0.64333
 C310 C 0.34371 0.34416 0.65583
 C311 C 0.38129 0.34374 0.69391
 C312 C 0.39361 0.31834 0.68153
 C313 C 0.38128 0.30593 0.65621
 C314 C 0.35631 0.31865 0.64326
 C315 C 0.34327 0.30590 0.61841
 C316 C 0.31783 0.31828 0.60618
 C317 C 0.30540 0.34367 0.61848
 H318 H 0.35260 0.39123 0.71372
 H319 H 0.28557 0.39118 0.64712
 H320 H 0.39086 0.35304 0.71366
 H321 H 0.39084 0.28613 0.64693
 H322 H 0.35257 0.28610 0.60887
 H323 H 0.28556 0.35294 0.60899
 C324 C 0.35695 0.85796 0.18067
 C325 C 0.34392 0.88287 0.19342
 C326 C 0.31848 0.89518 0.18110
 C327 C 0.30607 0.88290 0.15575
 C328 C 0.31882 0.85798 0.14271
 C329 C 0.34437 0.84540 0.15521
 C330 C 0.38190 0.84492 0.19334
 C331 C 0.39421 0.81953 0.18094
 C332 C 0.38191 0.80716 0.15559
 C333 C 0.35696 0.81991 0.14263
 C334 C 0.34394 0.80719 0.11776
 C335 C 0.31850 0.81958 0.10553
 C336 C 0.30608 0.84497 0.11784
 H337 H 0.35321 0.89239 0.21319
 H338 H 0.28623 0.89245 0.14653
 H339 H 0.39144 0.85418 0.21312
 H340 H 0.39146 0.78735 0.14631
 H341 H 0.35324 0.78739 0.10821
 H342 H 0.28624 0.85425 0.10835
 C343 C 0.85784 0.35673 0.18077
 C344 C 0.84480 0.38168 0.19345
 C345 C 0.81942 0.39401 0.18103
 C346 C 0.80707 0.38171 0.15566
 C347 C 0.81982 0.35677 0.14270
 C348 C 0.84530 0.34415 0.15530
 C349 C 0.88273 0.34367 0.19352
 C350 C 0.89505 0.31824 0.18119
 C351 C 0.88277 0.30584 0.15583
 C352 C 0.85788 0.31861 0.14278
 C353 C 0.84488 0.30588 0.11790
 C354 C 0.81950 0.31832 0.10558
 C355 C 0.80711 0.34375 0.11782
 H356 H 0.85404 0.39122 0.21323
 H357 H 0.78728 0.39128 0.14637
 H358 H 0.89225 0.35295 0.21330
 H359 H 0.89232 0.28601 0.14660
 H360 H 0.85416 0.28604 0.10840
 H361 H 0.78733 0.35306 0.10827
 C362 C 0.85672 0.85713 0.68125
 C363 C 0.84365 0.88202 0.69402
 C364 C 0.81819 0.89429 0.68174
 C365 C 0.80577 0.88200 0.65641
 C366 C 0.81854 0.85712 0.64334
 C367 C 0.84412 0.84457 0.65580
 C368 C 0.88171 0.84414 0.69387
 C369 C 0.89406 0.81877 0.68144
 C370 C 0.88173 0.80639 0.65610
 C371 C 0.85674 0.81910 0.64318
 C372 C 0.84369 0.80638 0.61833
 C373 C 0.81822 0.81874 0.60613
 C374 C 0.80578 0.84411 0.61848
 H375 H 0.85296 0.89155 0.71378
 H376 H 0.78591 0.89152 0.64721
 H377 H 0.89127 0.85341 0.71363
 H378 H 0.89131 0.78661 0.64679
 H379 H 0.85301 0.78660 0.60875
 H380 H 0.78592 0.85336 0.60902
 C381 C 0.64310 0.64308 0.68185
 C382 C 0.65619 0.61818 0.69459
 C383 C 0.68158 0.60585 0.68217
 C384 C 0.69390 0.61811 0.65674
 C385 C 0.68111 0.64301 0.64372
 C386 C 0.65561 0.65560 0.65631
 C387 C 0.61818 0.65612 0.69459
 C388 C 0.60581 0.68149 0.68217
 C389 C 0.61805 0.69383 0.65674
 C390 C 0.64296 0.68108 0.64372
 C391 C 0.65591 0.69376 0.61876
 C392 C 0.68131 0.68135 0.60645
 C393 C 0.69376 0.65598 0.61876
 H394 H 0.64697 0.60866 0.71441
 H395 H 0.71369 0.60855 0.64744
 H396 H 0.60869 0.64688 0.71441
 H397 H 0.60845 0.71361 0.64744
 H398 H 0.64658 0.71355 0.60920
 H399 H 0.71357 0.64668 0.60921
 C400 C 0.64334 0.14256 0.18053
 C401 C 0.65639 0.11768 0.19333
 C402 C 0.68192 0.10545 0.18109
 C403 C 0.69440 0.11779 0.15579
 C404 C 0.68164 0.14267 0.14270
 C405 C 0.65600 0.15517 0.15512
 C406 C 0.61830 0.15551 0.19312
 C407 C 0.60596 0.18088 0.18068
 C408 C 0.61835 0.19331 0.15537
 C409 C 0.64339 0.18065 0.14249
 C410 C 0.65650 0.19342 0.11767
 C411 C 0.68202 0.18110 0.10552
 C412 C 0.69445 0.15573 0.11788
 H413 H 0.64704 0.10810 0.21306
 H414 H 0.71430 0.10830 0.14663
 H415 H 0.60869 0.14620 0.21286
 H416 H 0.60878 0.21311 0.14606
 H417 H 0.64720 0.21320 0.10808
 H418 H 0.71435 0.14651 0.10845
 C419 C 0.14310 0.64335 0.18075
 C420 C 0.15610 0.61841 0.19347
 C421 C 0.18153 0.60610 0.18113
 C422 C 0.19396 0.61840 0.15578
 C423 C 0.18125 0.64335 0.14277
 C424 C 0.15571 0.65594 0.15530
 C425 C 0.11816 0.65639 0.19344
 C426 C 0.10588 0.68182 0.18107
 C427 C 0.11821 0.69423 0.15573
 C428 C 0.14315 0.68148 0.14274
 C429 C 0.15622 0.69422 0.11788
 C430 C 0.18164 0.68181 0.10562
 C431 C 0.19402 0.65638 0.11791
 H432 H 0.14679 0.60886 0.21324
 H433 H 0.21379 0.60885 0.14655
 H434 H 0.10859 0.64710 0.21321
 H435 H 0.10869 0.71406 0.14647
 H436 H 0.14695 0.71405 0.10835
 H437 H 0.21384 0.64709 0.10840
 C438 C 0.14278 0.14294 0.68196
 C439 C 0.15583 0.11803 0.69471
 C440 C 0.18115 0.10562 0.68226
 C441 C 0.19345 0.11780 0.65679
 C442 C 0.18069 0.14271 0.64374
 C443 C 0.15525 0.15539 0.65637
 C444 C 0.11793 0.15607 0.69474
 C445 C 0.10560 0.18145 0.68231
 C446 C 0.11780 0.19372 0.65684
 C447 C 0.14265 0.18088 0.64377
 C448 C 0.15558 0.19350 0.61878
 C449 C 0.18091 0.18101 0.60642
 C450 C 0.19333 0.15562 0.61875
 H451 H 0.14662 0.10857 0.71457
 H452 H 0.21320 0.10817 0.64746
 H453 H 0.10846 0.14688 0.71460
 H454 H 0.10824 0.21352 0.64753
 H455 H 0.14628 0.21330 0.60921
 H456 H 0.21309 0.14626 0.60916
 C457 C 0.35690 0.64358 0.31853
 C458 C 0.34394 0.61863 0.30587
 C459 C 0.31858 0.60630 0.31829
 C460 C 0.30617 0.61861 0.34364
 C461 C 0.31883 0.64356 0.35659
 C462 C 0.34430 0.65617 0.34399
 C463 C 0.38178 0.65664 0.30578
 C464 C 0.39401 0.68207 0.31811
 C465 C 0.38169 0.69447 0.34346
 C466 C 0.35681 0.68172 0.35650
 C467 C 0.34376 0.69446 0.38138
 C468 C 0.31840 0.68203 0.39370
 C469 C 0.30608 0.65660 0.38147
 H470 H 0.35324 0.60908 0.28609
 H471 H 0.28639 0.60904 0.35294
 H472 H 0.39134 0.64735 0.28601
 H473 H 0.39118 0.71431 0.35269
 H474 H 0.35299 0.71429 0.39087
 H475 H 0.28630 0.64729 0.39103
 C476 C 0.35717 0.14249 0.81923
 C477 C 0.34417 0.11757 0.80656
 C478 C 0.31882 0.10524 0.81899
 C479 C 0.30646 0.11752 0.84439
 C480 C 0.31917 0.14245 0.85736
 C481 C 0.34463 0.15505 0.84474
 C482 C 0.38203 0.15555 0.80645
 C483 C 0.39429 0.18097 0.81878
 C484 C 0.38203 0.19334 0.84418
 C485 C 0.35717 0.18057 0.85725
 C486 C 0.34418 0.19329 0.88216
 C487 C 0.31883 0.18088 0.89451
 C488 C 0.30646 0.15547 0.88227
 H489 H 0.35343 0.10804 0.78675
 H490 H 0.28668 0.10796 0.85370
 H491 H 0.39154 0.14629 0.78664
 H492 H 0.39155 0.21316 0.85341
 H493 H 0.35343 0.21312 0.89166
 H494 H 0.28669 0.14617 0.89185
 C495 C 0.85746 0.64287 0.81902
 C496 C 0.84453 0.61789 0.80636
 C497 C 0.81920 0.60552 0.81879
 C498 C 0.80679 0.61780 0.84415
 C499 C 0.81942 0.64277 0.85711
 C500 C 0.84486 0.65542 0.84450
 C501 C 0.88231 0.65596 0.80625
 C502 C 0.89451 0.68142 0.81858
 C503 C 0.88217 0.69380 0.84394
 C504 C 0.85732 0.68099 0.85700
 C505 C 0.84426 0.69370 0.88189
 C506 C 0.81893 0.68122 0.89422
 C507 C 0.80665 0.65577 0.88199
 H508 H 0.85383 0.60837 0.78657
 H509 H 0.78702 0.60820 0.85346
 H510 H 0.89188 0.64670 0.78647
 H511 H 0.89164 0.71365 0.85316
 H512 H 0.85345 0.71356 0.89138
 H513 H 0.78689 0.64642 0.89156
 C514 C 0.85771 0.14257 0.31865
 C515 C 0.84469 0.11765 0.30596
 C516 C 0.81925 0.10542 0.31832
 C517 C 0.80682 0.11779 0.34364
 C518 C 0.81954 0.14270 0.35661
 C519 C 0.84508 0.15521 0.34408
 C520 C 0.88267 0.15553 0.30596
 C521 C 0.89496 0.18093 0.31831
 C522 C 0.88260 0.19339 0.34362
 C523 C 0.85764 0.18072 0.35660
 C524 C 0.84456 0.19352 0.38143
 C525 C 0.81912 0.18119 0.39369
 C526 C 0.80675 0.15579 0.38144
 H527 H 0.85400 0.10806 0.28622
 H528 H 0.78698 0.10830 0.35289
 H529 H 0.89225 0.14620 0.28621
 H530 H 0.89213 0.21320 0.35286
 H531 H 0.85383 0.21334 0.39094
 H532 H 0.78691 0.14656 0.39095
 C533 C 0.64308 0.35657 0.31779
 C534 C 0.65611 0.38149 0.30507
 C535 C 0.68145 0.39382 0.31749
 C536 C 0.69378 0.38155 0.34290
 C537 C 0.68105 0.35664 0.35592
 C538 C 0.65560 0.34404 0.34332
 C539 C 0.61821 0.34352 0.30506
 C540 C 0.60590 0.31814 0.31747
 C541 C 0.61815 0.30579 0.34288
 C542 C 0.64303 0.31854 0.35591
 C543 C 0.65600 0.30585 0.38085
 C544 C 0.68135 0.31828 0.39316
 C545 C 0.69373 0.34366 0.38085
 H546 H 0.64688 0.39101 0.28525
 H547 H 0.71354 0.39112 0.35221
 H548 H 0.60870 0.35277 0.28524
 H549 H 0.60861 0.28600 0.35218
 H550 H 0.64673 0.28605 0.39040
 H551 H 0.71350 0.35297 0.39041
 C552 C 0.64257 0.85725 0.81949
 C553 C 0.65558 0.88220 0.80682
 C554 C 0.68101 0.89442 0.81918
 C555 C 0.69343 0.88202 0.84448
 C556 C 0.68071 0.85707 0.85744
 C557 C 0.65518 0.84457 0.84490
 C558 C 0.61764 0.84430 0.80678
 C559 C 0.60536 0.81887 0.81910
 C560 C 0.61769 0.80637 0.84440
 C561 C 0.64262 0.81903 0.85740
 C562 C 0.65568 0.80619 0.88222
 C563 C 0.68110 0.81851 0.89448
 C564 C 0.69348 0.84394 0.88226
 H565 H 0.64628 0.89182 0.78708
 H566 H 0.71326 0.89150 0.85373
 H567 H 0.60808 0.85366 0.78704
 H568 H 0.60816 0.78653 0.85362
 H569 H 0.64641 0.78636 0.89170
 H570 H 0.71330 0.85316 0.89177
 C571 C 0.14275 0.35726 0.81982
 C572 C 0.15576 0.38220 0.80714
 C573 C 0.18120 0.39440 0.81947
 C574 C 0.19365 0.38199 0.84476
 C575 C 0.18093 0.35705 0.85773
 C576 C 0.15538 0.34457 0.84522
 C577 C 0.11780 0.34433 0.80713
 C578 C 0.10553 0.31889 0.81945
 C579 C 0.11787 0.30638 0.84474
 C580 C 0.14282 0.31903 0.85772
 C581 C 0.15590 0.30618 0.88252
 C582 C 0.18133 0.31848 0.89477
 C583 C 0.19371 0.34391 0.88254
 H584 H 0.14644 0.39183 0.78742
 H585 H 0.21350 0.39146 0.85399
 H586 H 0.10823 0.35369 0.78741
 H587 H 0.10835 0.28654 0.85396
 H588 H 0.14663 0.28634 0.89202
 H589 H 0.21355 0.35312 0.89204
 C590 C 0.14271 0.85788 0.31845
 C591 C 0.15573 0.88282 0.30576
 C592 C 0.18107 0.89513 0.31819
 C593 C 0.19342 0.88282 0.34358
 C594 C 0.18070 0.85789 0.35656
 C595 C 0.15524 0.84531 0.34395
 C596 C 0.11785 0.84484 0.30569
 C597 C 0.10556 0.81943 0.31805
 C598 C 0.11782 0.80704 0.34344
 C599 C 0.14268 0.81978 0.35649
 C600 C 0.15566 0.80704 0.38140
 C601 C 0.18100 0.81943 0.39373
 C602 C 0.19339 0.84485 0.38147
 H603 H 0.14649 0.89236 0.28596
 H604 H 0.21319 0.89237 0.35288
 H605 H 0.10834 0.85412 0.28588
 H606 H 0.10828 0.78722 0.35269
 H607 H 0.14638 0.78722 0.39090
 H608 H 0.21316 0.85413 0.39104
 O609 O 0.25329 1.03018 0.21279
 O610 O 0.21253 0.97272 0.25283
 O611 O 0.21260 1.03016 0.25293
 O612 O 0.25298 0.97274 0.21246
 O613 O 0.28727 0.97243 0.24691
 O614 O 0.24688 1.02990 0.28739
 O615 O 0.24683 0.97245 0.28728
 O616 O 0.28758 1.02987 0.24725
 Cu617 Cu 0.22939 1.00148 0.22928
 Cu618 Cu 0.27060 1.00114 0.27068
 C619 C 0.27722 1.03984 0.22335
 C620 C 0.22291 0.96276 0.27672
 C621 C 0.22301 1.03985 0.27689
 C622 C 0.27684 0.96276 0.22294
 O623 O 0.25248 0.52899 0.71301
 O624 O 0.21221 0.47174 0.75377
 O625 O 0.21229 0.52918 0.75362
 O626 O 0.25236 0.47155 0.71311
 O627 O 0.28697 0.47150 0.74724
 O628 O 0.24690 0.52914 0.78776
 O629 O 0.24682 0.47169 0.78790
 O630 O 0.28709 0.52894 0.74714
 Cu631 Cu 0.22884 0.50037 0.72993
 Cu632 Cu 0.27043 0.50031 0.77096
 C633 C 0.27649 0.53875 0.72329
 C634 C 0.22281 0.46192 0.77761
 C635 C 0.22292 0.53902 0.77743
 C636 C 0.27634 0.46168 0.72343
 O637 O 0.75308 -0.02921 0.28770
 O638 O 0.71298 0.02827 0.24701
 O639 O 0.71274 -0.02915 0.24727
 O640 O 0.75340 0.02823 0.28737
 O641 O 0.78784 0.02788 0.25304
 O642 O 0.74718 -0.02950 0.21293
 O643 O 0.74742 0.02793 0.21268
 O644 O 0.78753 -0.02956 0.25337
 Cu645 Cu 0.72958 -0.00043 0.27081
 Cu646 Cu 0.77097 -0.00085 0.22954
 C647 C 0.77698 -0.03922 0.27731
 C648 C 0.72351 0.03793 0.22307
 C649 C 0.72319 -0.03913 0.22342
 C650 C 0.77739 0.03787 0.27688
 O651 O 0.75362 0.47063 0.78757
 O652 O 0.71307 0.52825 0.74750
 O653 O 0.71317 0.47082 0.74722
 O654 O 0.75366 0.52808 0.78769
 O655 O 0.78799 0.52818 0.75324
 O656 O 0.74751 0.47095 0.71278
 O657 O 0.74741 0.52838 0.71306
 O658 O 0.78796 0.47073 0.75313
 Cu659 Cu 0.72992 0.49943 0.77097
 Cu660 Cu 0.77119 0.49956 0.72958
 C661 C 0.77753 0.46082 0.77702
 C662 C 0.72348 0.53817 0.72361
 C663 C 0.72360 0.46111 0.72325
 C664 C 0.77756 0.53793 0.77719
 O665 O 0.21262 0.52884 0.24696
 O666 O 0.25291 0.47144 0.28760
 O667 O 0.25298 0.52889 0.28737
 O668 O 0.21245 0.47140 0.24729
 O669 O 0.24687 0.47114 0.21293
 O670 O 0.28740 0.52865 0.25301
 O671 O 0.28733 0.47121 0.25324
 O672 O 0.24704 0.52858 0.21260
 Cu673 Cu 0.22927 0.50017 0.27077
 Cu674 Cu 0.27063 0.49987 0.22948
 C675 C 0.22312 0.53852 0.22301
 C676 C 0.27683 0.46151 0.27718
 C677 C 0.27693 0.53860 0.27686
 C678 C 0.22292 0.46144 0.22344
 O679 O 0.74677 1.02920 0.78785
 O680 O 0.78703 0.97166 0.74740
 O681 O 0.78706 1.02908 0.74732
 O682 O 0.74667 0.97175 0.78787
 O683 O 0.71218 0.97183 0.75362
 O684 O 0.75256 1.02915 0.71307
 O685 O 0.75253 0.97172 0.71315
 O686 O 0.71228 1.02927 0.75360
 Cu687 Cu 0.77036 1.00041 0.77107
 Cu688 Cu 0.72890 1.00050 0.72991
 C689 C 0.72283 1.03908 0.77746
 C690 C 0.77649 0.96185 0.72354
 C691 C 0.77653 1.03891 0.72344
 C692 C 0.72270 0.96198 0.77749
 O693 O 0.71297 0.47142 0.25222
 O694 O 0.75358 0.52895 0.21222
 O695 O 0.75367 0.47150 0.21211
 O696 O 0.71311 0.52885 0.25257
 O697 O 0.74739 0.52864 0.28703
 O698 O 0.78795 0.47133 0.24658
 O699 O 0.78787 0.52878 0.24668
 O700 O 0.74725 0.47120 0.28669
 Cu701 Cu 0.72988 0.50020 0.22880
 Cu702 Cu 0.77107 0.49996 0.27022
 C703 C 0.72334 0.46147 0.27611
 C704 C 0.77747 0.53871 0.22278
 C705 C 0.77756 0.46160 0.22262
 C706 C 0.72350 0.53855 0.27654
 O707 O 0.21266 0.02807 0.74771
 O708 O 0.25334 -0.02956 0.78767
 O709 O 0.25320 0.02789 0.78794
 O710 O 0.21258 -0.02937 0.74765
 O711 O 0.24680 -0.02930 0.71309
 O712 O 0.28743 0.02799 0.75339
 O713 O 0.28756 -0.02946 0.75312
 O714 O 0.24689 0.02813 0.71316
 Cu715 Cu 0.22949 -0.00075 0.77123
 Cu716 Cu 0.27062 -0.00065 0.72970
 C717 C 0.22300 0.03795 0.72377
 C718 C 0.27722 -0.03936 0.77704
 C719 C 0.27707 0.03773 0.77737
 C720 C 0.22292 -0.03912 0.72366
 O721 O 0.24714 0.28707 0.97183
 O722 O 0.28772 0.24673 1.02914
 O723 O 0.28759 0.24660 0.97179
 O724 O 0.24712 0.28702 1.02917
 O725 O 0.21280 0.25257 1.02924
 O726 O 0.25326 0.21215 0.97189
 O727 O 0.25340 0.21227 1.02924
 O728 O 0.21281 0.25262 0.97191
 Cu729 Cu 0.27086 0.27033 1.00047
 Cu730 Cu 0.22961 0.22892 1.00058
 C731 C 0.22321 0.27657 0.96208
 C732 C 0.27732 0.22279 1.03901
 C733 C 0.27715 0.22264 0.96203
 C734 C 0.22322 0.27652 1.03901
 O735 O 0.24646 0.78802 0.47113
 O736 O 0.28683 0.74743 0.52842
 O737 O 0.28691 0.74756 0.47108
 O738 O 0.24623 0.78772 0.52849
 O739 O 0.21191 0.75326 0.52829
 O740 O 0.25259 0.71311 0.47091
 O741 O 0.25252 0.71297 0.52826
 O742 O 0.21214 0.75357 0.47094
 Cu743 Cu 0.27007 0.77116 0.49980
 Cu744 Cu 0.22882 0.72975 0.49958
 C745 C 0.22258 0.77756 0.46123
 C746 C 0.27640 0.72345 0.53814
 C747 C 0.27652 0.72364 0.46119
 C748 C 0.22230 0.77716 0.53821
 O749 O 0.21307 0.74717 -0.02913
 O750 O 0.25310 0.78799 0.02816
 O751 O 0.25334 0.78771 -0.02919
 O752 O 0.21289 0.74737 0.02822
 O753 O 0.24745 0.71307 0.02847
 O754 O 0.28790 0.75340 -0.02894
 O755 O 0.28766 0.75369 0.02842
 O756 O 0.24763 0.71287 -0.02888
 Cu757 Cu 0.22961 0.77102 -0.00051
 Cu758 Cu 0.27115 0.72980 -0.00020
 C759 C 0.22369 0.72323 -0.03880
 C760 C 0.27704 0.77763 0.03809
 C761 C 0.27735 0.77726 -0.03889
 C762 C 0.22343 0.72351 0.03815
 O763 O 0.28693 0.25245 0.47162
 O764 O 0.24642 0.21205 0.52893
 O765 O 0.24645 0.21212 0.47156
 O766 O 0.28673 0.25255 0.52896
 O767 O 0.25230 0.28698 0.52888
 O768 O 0.21203 0.24655 0.47150
 O769 O 0.21199 0.24648 0.52887
 O770 O 0.25250 0.28688 0.47154
 Cu771 Cu 0.27010 0.22881 0.50028
 Cu772 Cu 0.22872 0.27019 0.50019
 C773 C 0.27646 0.27639 0.46178
 C774 C 0.22247 0.22255 0.53872
 C775 C 0.22254 0.22262 0.46170
 C776 C 0.27622 0.27650 0.53873
 O777 O 0.74677 0.78697 0.97168
 O778 O 0.78712 0.74634 1.02898
 O779 O 0.78735 0.74663 0.97163
 O780 O 0.74667 0.78680 1.02901
 O781 O 0.71233 0.75236 1.02884
 O782 O 0.75301 0.71219 0.97144
 O783 O 0.75278 0.71190 1.02879
 O784 O 0.71243 0.75253 0.97150
 Cu785 Cu 0.77044 0.77016 1.00034
 Cu786 Cu 0.72918 0.72877 1.00012
 C787 C 0.72287 0.77652 0.96180
 C788 C 0.77666 0.72236 1.03869
 C789 C 0.77696 0.72272 0.96172
 C790 C 0.72274 0.77627 1.03874
 O791 O 0.75326 0.21254 0.47080
 O792 O 0.71265 0.25303 0.52803
 O793 O 0.71264 0.25285 0.47068
 O794 O 0.75312 0.21262 0.52815
 O795 O 0.78743 0.24709 0.52808
 O796 O 0.74695 0.28732 0.47059
 O797 O 0.74696 0.28750 0.52795
 O798 O 0.78756 0.24701 0.47074
 Cu799 Cu 0.72946 0.22928 0.49942
 Cu800 Cu 0.77069 0.27071 0.49933
 C801 C 0.77718 0.22304 0.46099
 C802 C 0.72306 0.27701 0.53778
 C803 C 0.72306 0.27677 0.46081
 C804 C 0.77701 0.22316 0.53795
 O805 O 0.74774 0.21249 0.02825
 O806 O 0.78798 0.25309 -0.02915
 O807 O 0.78821 0.25284 0.02821
 O808 O 0.74771 0.21255 -0.02910
 O809 O 0.71325 0.24695 -0.02895
 O810 O 0.75376 0.28725 0.02839
 O811 O 0.75352 0.28750 -0.02897
 O812 O 0.71328 0.24690 0.02839
 Cu813 Cu 0.77139 0.22928 -0.00046
 Cu814 Cu 0.72998 0.27062 -0.00027
 C815 C 0.72380 0.22294 0.03812
 C816 C 0.77744 0.27705 -0.03887
 C817 C 0.77773 0.27675 0.03810
 C818 C 0.72375 0.22303 -0.03882
 O819 O 0.75254 0.78744 0.52894
 O820 O 0.71223 0.74692 0.47162
 O821 O 0.71222 0.74694 0.52898
 O822 O 0.75243 0.78752 0.47159
 O823 O 0.78698 0.75321 0.47154
 O824 O 0.74676 0.71262 0.52895
 O825 O 0.74678 0.71260 0.47159
 O826 O 0.78708 0.75312 0.52888
 Cu827 Cu 0.72887 0.77067 0.50029
 Cu828 Cu 0.77038 0.72942 0.50023
 C829 C 0.77652 0.77702 0.53871
 C830 C 0.72280 0.72302 0.46179
 C831 C 0.72280 0.72304 0.53879
 C832 C 0.77640 0.77712 0.46175
 O833 O 0.97254 0.25262 0.21251
 O834 O 1.02999 0.21222 0.25297
 O835 O 0.97254 0.21216 0.25288
 O836 O 1.02998 0.25273 0.21265
 O837 O 1.02980 0.28710 0.24702
 O838 O 0.97238 0.24654 0.28726
 O839 O 1.02982 0.24660 0.28735
 O840 O 0.97237 0.28699 0.24688
 Cu841 Cu 1.00128 0.22896 0.22929
 Cu842 Cu 1.00108 0.27027 0.27060
 C843 C 0.96263 0.27653 0.22296
 C844 C 1.03973 0.22268 0.27689
 C845 C 0.96263 0.22261 0.27677
 C846 C 1.03971 0.27667 0.22314
 O847 O 0.47122 0.25277 0.71258
 O848 O 0.52883 0.21243 0.75285
 O849 O 0.47141 0.21234 0.75297
 O850 O 0.52865 0.25282 0.71242
 O851 O 0.52863 0.28726 0.74674
 O852 O 0.47139 0.24677 0.78729
 O853 O 0.52880 0.24686 0.78717
 O854 O 0.47120 0.28720 0.74690
 Cu855 Cu 0.50003 0.22912 0.72924
 Cu856 Cu 0.50000 0.27050 0.77049
 C857 C 0.46136 0.27670 0.72304
 C858 C 0.53866 0.22293 0.77671
 C859 C 0.46162 0.22281 0.77689
 C860 C 0.53843 0.27678 0.72283
 O861 O -0.02926 0.21329 0.74748
 O862 O 0.02803 0.25353 0.78809
 O863 O -0.02940 0.25379 0.78777
 O864 O 0.02815 0.21309 0.74775
 O865 O 0.02841 0.24748 0.71335
 O866 O -0.02912 0.28817 0.75337
 O867 O 0.02831 0.28792 0.75369
 O868 O -0.02899 0.24768 0.71308
 Cu869 Cu -0.00065 0.22996 0.77125
 Cu870 Cu -0.00032 0.27129 0.72991
 C871 C -0.03892 0.22378 0.72352
 C872 C 0.03798 0.27742 0.77765
 C873 C -0.03911 0.27775 0.77723
 C874 C 0.03811 0.22350 0.72388
 O875 O 0.47086 0.28658 0.25263
 O876 O 0.52820 0.24629 0.21191
 O877 O 0.47075 0.24615 0.21227
 O878 O 0.52829 0.28674 0.25223
 O879 O 0.52861 0.25234 0.28661
 O880 O 0.47106 0.21175 0.24665
 O881 O 0.52852 0.21188 0.24628
 O882 O 0.47119 0.25218 0.28701
 Cu883 Cu 0.49949 0.26991 0.22879
 Cu884 Cu 0.49988 0.22856 0.27010
 C885 C 0.46123 0.27610 0.27661
 C886 C 0.53818 0.22238 0.22233
 C887 C 0.46105 0.22220 0.22281
 C888 C 0.53829 0.27630 0.27607
 O889 O 1.02912 0.78756 0.74671
 O890 O 0.97176 0.74715 0.78719
 O891 O 1.02918 0.74710 0.78707
 O892 O 0.97168 0.78757 0.74678
 O893 O 0.97167 0.75316 0.71244
 O894 O 1.02917 0.71270 0.75273
 O895 O 0.97174 0.71274 0.75284
 O896 O 1.02911 0.75315 0.71236
 Cu897 Cu 1.00044 0.77082 0.77040
 Cu898 Cu 1.00042 0.72947 0.72913
 C899 C 1.03893 0.77708 0.72280
 C900 C 0.96195 0.72322 0.77676
 C901 C 1.03901 0.72316 0.77661
 C902 C 0.96183 0.77710 0.72291
 O903 O 0.47155 0.75372 0.21218
 O904 O 0.52884 0.71315 0.25266
 O905 O 0.47142 0.71327 0.25255
 O906 O 0.52898 0.75354 0.21224
 O907 O 0.52896 0.78797 0.24657
 O908 O 0.47140 0.74769 0.28688
 O909 O 0.52881 0.74758 0.28699
 O910 O 0.47153 0.78814 0.24651
 Cu911 Cu 0.50020 0.72995 0.22894
 Cu912 Cu 0.50017 0.77132 0.27020
 C913 C 0.46174 0.77768 0.22261
 C914 C 0.53861 0.72361 0.27657
 C915 C 0.46158 0.72377 0.27643
 C916 C 0.53882 0.77745 0.22269
 O917 O 0.02851 0.75350 0.28709
 O918 O -0.02881 0.71268 0.24711
 O919 O 0.02860 0.71299 0.24681
 O920 O -0.02891 0.75325 0.28731
 O921 O -0.02923 0.78758 0.25285
 O922 O 0.02827 0.74732 0.21235
 O923 O -0.02915 0.74700 0.21264
 O924 O 0.02819 0.78783 0.25263
 Cu925 Cu -0.00012 0.72964 0.27056
 Cu926 Cu -0.00052 0.77089 0.22914
 C927 C 0.03815 0.77746 0.27652
 C928 C -0.03878 0.72304 0.22322
 C929 C 0.03826 0.72345 0.22284
 C930 C -0.03889 0.77712 0.27683
 O931 O 0.52791 0.75344 0.78773
 O932 O 0.47067 0.71312 0.74709
 O933 O 0.52810 0.71294 0.74744
 O934 O 0.47048 0.75360 0.78741
 O935 O 0.47073 0.78797 0.75300
 O936 O 0.52836 0.74732 0.71303
 O937 O 0.47093 0.74750 0.71268
 O938 O 0.52817 0.78781 0.75332
 Cu939 Cu 0.49926 0.72981 0.77089
 Cu940 Cu 0.49958 0.77112 0.72954
 C941 C 0.53784 0.77733 0.77728
 C942 C 0.46101 0.72360 0.72312
 C943 C 0.53808 0.72336 0.72358
 C944 C 0.46075 0.77755 0.77686
 C945 C 0.41820 0.30356 0.30431
 C946 C 0.43813 0.29122 0.29189
 C947 C 0.41747 0.80512 0.80409
 C948 C 0.43751 0.79277 0.79185
 C949 C -0.08237 0.30534 0.80444
 C950 C -0.06233 0.29298 0.79222
 C951 C -0.08204 0.80456 0.30435
 C952 C -0.06206 0.79223 0.29201
 C953 C 0.58162 0.69600 0.30413
 C954 C 0.56170 0.70839 0.29176
 C955 C 0.58187 0.19548 0.80413
 C956 C 0.56186 0.20780 0.79182
 C957 C 1.08216 0.69562 0.80402
 C958 C 1.06218 0.70798 0.79172
 C959 C 1.08290 0.19520 0.30438
 C960 C 1.06291 0.20754 0.29205
 C961 C 0.58147 0.30429 0.69529
 C962 C 0.56153 0.29194 0.70764
 C963 C 0.58211 0.80475 0.19531
 C964 C 0.56206 0.79251 0.20760
 C965 C 1.08283 0.30426 0.19577
 C966 C 1.06286 0.29188 0.20806
 C967 C 1.08208 0.80455 0.69533
 C968 C 1.06209 0.79222 0.70765
 C969 C 0.41801 0.69615 0.69552
 C970 C 0.43793 0.70848 0.70789
 C971 C 0.41774 0.19473 0.19567
 C972 C 0.43781 0.20703 0.20786
 C973 C -0.08181 0.69526 0.19599
 C974 C -0.06189 0.70772 0.20822
 C975 C -0.08188 0.19631 0.69589
 C976 C -0.06199 0.20866 0.70828
 C977 C 0.30422 0.41833 0.30470
 C978 C 0.29193 0.43834 0.29237
 C979 C 0.30490 -0.08260 0.80422
 C980 C 0.29249 -0.06258 0.79201
 C981 C 0.80506 0.41756 0.80433
 C982 C 0.79272 0.43759 0.79206
 C983 C 0.80427 -0.08241 0.30494
 C984 C 0.79201 -0.06241 0.29255
 C985 C 0.30390 0.58179 0.69562
 C986 C 0.29159 0.56185 0.70803
 C987 C 0.30498 1.08292 0.19608
 C988 C 0.29253 1.06297 0.20834
 C989 C 0.80495 0.58196 0.19549
 C990 C 0.79265 0.56193 0.20777
 C991 C 0.80401 1.08195 0.69585
 C992 C 0.79168 1.06202 0.70823
 C993 C 0.69596 0.58160 0.30412
 C994 C 0.70831 0.56166 0.29174
 C995 C 0.69549 1.08236 0.80490
 C996 C 0.70777 1.06231 0.79259
 C997 C 0.19567 0.58235 0.80487
 C998 C 0.20791 0.56228 0.79258
 C999 C 0.19544 1.08297 0.30437
 C1000 C 0.20783 1.06300 0.29205
 C1001 C 0.69603 0.41820 0.69562
 C1002 C 0.70841 0.43807 0.70803
 C1003 C 0.69553 -0.08217 0.19607
 C1004 C 0.70794 -0.06224 0.20836
 C1005 C 0.19541 0.41823 0.19621
 C1006 C 0.20774 0.43824 0.20844
 C1007 C 0.19522 -0.08207 0.69622
 C1008 C 0.20765 -0.06218 0.70854
 C1009 C 0.30403 0.30382 0.41872
 C1010 C 0.29166 0.29152 0.43867
 C1011 C 0.30478 0.80462 -0.08209
 C1012 C 0.29249 0.79234 -0.06208
 C1013 C 0.80473 0.30464 -0.08202
 C1014 C 0.79249 0.29227 -0.06203
 C1015 C 0.80372 0.80469 0.41861
 C1016 C 0.79146 0.79233 0.43859
 C1017 C 0.69558 0.30448 0.58089
 C1018 C 0.70789 0.29216 0.56091
 C1019 C 0.69517 0.80365 1.08185
 C1020 C 0.70751 0.79134 1.06188
 C1021 C 0.19568 0.30394 1.08211
 C1022 C 0.20805 0.29165 1.06215
 C1023 C 0.19473 0.80436 0.58144
 C1024 C 0.20708 0.79216 0.56141
 C1025 C 0.30387 0.69593 0.58123
 C1026 C 0.29153 0.70826 0.56127
 C1027 C 0.30484 0.19544 1.08216
 C1028 C 0.29251 0.20771 1.06217
 C1029 C 0.80406 0.69480 1.08179
 C1030 C 0.79176 0.70715 1.06182
 C1031 C 0.80442 0.19583 0.58119
 C1032 C 0.79214 0.20809 0.56115
 C1033 C 0.69549 0.69555 0.41865
 C1034 C 0.70774 0.70786 0.43864
 C1035 C 0.69625 0.19557 -0.08186
 C1036 C 0.70858 0.20791 -0.06193
 C1037 C 0.19642 0.69556 -0.08185
 C1038 C 0.20867 0.70795 -0.06191
 C1039 C 0.19526 0.19531 0.41843
 C1040 C 0.20749 0.20754 0.43848
 C1041 C 0.30364 0.41844 0.69589
 C1042 C 0.29137 0.43846 0.70824
 C1043 C 0.30426 0.91962 0.19537
 C1044 C 0.29196 0.93960 0.20774
 C1045 C 0.80514 0.41847 0.19521
 C1046 C 0.79276 0.43845 0.20749
 C1047 C 0.80393 0.91871 0.69601
 C1048 C 0.79161 0.93868 0.70836
 C1049 C 0.69587 0.58139 0.69635
 C1050 C 0.70826 0.56138 0.70859
 C1051 C 0.69615 0.08104 0.19540
 C1052 C 0.70845 0.06108 0.20781
 C1053 C 0.19574 0.58165 0.19539
 C1054 C 0.20803 0.56167 0.20777
 C1055 C 0.19540 0.08116 0.69648
 C1056 C 0.20777 0.06115 0.70875
 C1057 C 0.30440 0.58181 0.30413
 C1058 C 0.29209 0.56180 0.29188
 C1059 C 0.30460 0.08081 0.80479
 C1060 C 0.29226 0.06085 0.79248
 C1061 C 0.80502 0.58105 0.80460
 C1062 C 0.79271 0.56107 0.79231
 C1063 C 0.80500 0.08099 0.30415
 C1064 C 0.79262 0.06102 0.29190
 C1065 C 0.69571 0.41827 0.30332
 C1066 C 0.70810 0.43828 0.29110
 C1067 C 0.69525 0.91887 0.80498
 C1068 C 0.70757 0.93884 0.79266
 C1069 C 0.19543 0.41884 0.80524
 C1070 C 0.20772 0.43880 0.79287
 C1071 C 0.19531 0.91959 0.30400
 C1072 C 0.20767 0.93958 0.29174
 C1073 C 0.41811 0.30413 0.69569
 C1074 C 0.43814 0.29182 0.70796
 C1075 C 0.41865 0.80525 0.19514
 C1076 C 0.43862 0.79288 0.20745
 C1077 C 0.91948 0.30399 0.19544
 C1078 C 0.93946 0.29167 0.20779
 C1079 C 0.91858 0.80456 0.69557
 C1080 C 0.93861 0.79224 0.70783
 C1081 C 0.58146 0.30389 0.30329
 C1082 C 0.56147 0.29152 0.29106
 C1083 C 0.58092 0.80470 0.80485
 C1084 C 0.56096 0.79242 0.79249
 C1085 C 0.08108 0.30474 0.80522
 C1086 C 0.06111 0.29248 0.79286
 C1087 C 0.08118 0.80516 0.30381
 C1088 C 0.06126 0.79275 0.29154
 C1089 C 0.58133 0.69575 0.69635
 C1090 C 0.56131 0.70813 0.70859
 C1091 C 0.58142 0.19506 0.19482
 C1092 C 0.56138 0.20733 0.20713
 C1093 C 0.08143 0.69605 0.19529
 C1094 C 0.06144 0.70836 0.20765
 C1095 C 0.08121 0.19579 0.69655
 C1096 C 0.06126 0.20822 0.70884
 C1097 C 0.41843 0.69631 0.30388
 C1098 C 0.43841 0.70864 0.29156
 C1099 C 0.41865 0.19525 0.80448
 C1100 C 0.43855 0.20762 0.79210
 C1101 C 0.91889 0.69571 0.80431
 C1102 C 0.93883 0.70806 0.79195
 C1103 C 0.91944 0.19512 0.30411
 C1104 C 0.93945 0.20743 0.29183
 C1105 C 0.30361 0.30403 0.58179
 C1106 C 0.29132 0.29167 0.56185
 C1107 C 0.30429 0.80532 0.08113
 C1108 C 0.29204 0.79292 0.06120
 C1109 C 0.80527 0.30411 0.08117
 C1110 C 0.79292 0.29183 0.06123
 C1111 C 0.80398 0.80452 0.58175
 C1112 C 0.79165 0.79219 0.56181
 C1113 C 0.30414 0.69626 0.41810
 C1114 C 0.29176 0.70857 0.43806
 C1115 C 0.30461 0.19513 0.91894
 C1116 C 0.29230 0.20748 0.93890
 C1117 C 0.80463 0.69541 0.91863
 C1118 C 0.79221 0.70767 0.93859
 C1119 C 0.80482 0.19549 0.41803
 C1120 C 0.79241 0.20785 0.43793
 C1121 C 0.69555 0.30410 0.41763
 C1122 C 0.70789 0.29184 0.43763
 C1123 C 0.69537 0.80417 0.91882
 C1124 C 0.70772 0.79176 0.93872
 C1125 C 0.19561 0.30414 0.91910
 C1126 C 0.20799 0.29175 0.93900
 C1127 C 0.19520 0.80516 0.41815
 C1128 C 0.20748 0.79278 0.43811
 C1129 C 0.69547 0.69555 0.58197
 C1130 C 0.70774 0.70787 0.56196
 C1131 C 0.69632 0.19536 0.08115
 C1132 C 0.70868 0.20773 0.06123
 C1133 C 0.19590 0.69605 0.08123
 C1134 C 0.20826 0.70837 0.06128
 C1135 C 0.19507 0.19516 0.58191
 C1136 C 0.20735 0.20744 0.56189
   
