data_POSCAR
  _audit_creation_date              2014-09-24
  _audit_creation_method            'ToBaCCo'
  _symmetry_space_group_name_H-M    'P1'
  _symmetry_Int_Tables_number       1
  _symmetry_cell_setting            triclinic
  loop_
  _symmetry_equiv_pos_as_xyz
 x,y,z
_cell_length_a 55.8508
_cell_length_b 55.8432
_cell_length_c 55.8710
_cell_angle_alpha 89.996900
_cell_angle_beta 89.997700
_cell_angle_gamma 90.036700
loop_
  _atom_site_label
  _atom_site_type_symbol
  _atom_site_fract_x
  _atom_site_fract_y
  _atom_site_fract_z
N1 N 0.16923 0.22631 0.23181
 N2 N 0.17554 0.20715 0.24395
 C3 C 0.16015 0.20405 0.26227
 C4 C 0.14342 0.22226 0.26151
 C5 C 0.14970 0.23606 0.24199
 H6 H 0.16098 0.18968 0.27522
 H7 H 0.14068 0.25199 0.23566
 Cu8 Cu 0.20334 0.18836 0.23456
 Cu9 Cu 0.18667 0.23718 0.20366
 Cu10 Cu 0.23650 0.20410 0.18690
 N11 N 0.23152 0.17009 0.22524
 N12 N 0.24432 0.17632 0.20649
 C13 C 0.26260 0.16082 0.20390
 C14 C 0.26119 0.14406 0.22202
 C15 C 0.24129 0.15044 0.23526
 H16 H 0.27596 0.16169 0.18991
 H17 H 0.23447 0.14136 0.25094
 N18 N 0.22567 0.23278 0.16941
 N19 N 0.20664 0.24530 0.17574
 C20 C 0.20383 0.26361 0.16029
 C21 C 0.22195 0.26254 0.14354
 C22 C 0.23548 0.24284 0.14981
 H23 H 0.18967 0.27678 0.16110
 H24 H 0.25126 0.23634 0.14067
 H25 H 0.20020 0.20414 0.19397
 H26 H 0.21943 0.22316 0.21361
 N27 N 0.66964 0.72667 0.73187
 N28 N 0.67612 0.70767 0.74418
 C29 C 0.66072 0.70455 0.76250
 C30 C 0.64382 0.72259 0.76157
 C31 C 0.64999 0.73631 0.74195
 H32 H 0.66166 0.69028 0.77555
 H33 H 0.64082 0.75208 0.73547
 Cu34 Cu 0.70402 0.68904 0.73479
 Cu35 Cu 0.68701 0.73751 0.70365
 Cu36 Cu 0.73683 0.70440 0.68684
 N37 N 0.73206 0.67062 0.72542
 N38 N 0.74468 0.67668 0.70649
 C39 C 0.76282 0.66106 0.70374
 C40 C 0.76150 0.64438 0.72193
 C41 C 0.74181 0.65093 0.73539
 H42 H 0.77601 0.66178 0.68958
 H43 H 0.73511 0.64194 0.75117
 N44 N 0.72596 0.73305 0.66934
 N45 N 0.70694 0.74558 0.67568
 C46 C 0.70416 0.76392 0.66028
 C47 C 0.72231 0.76287 0.64355
 C48 C 0.73581 0.74314 0.64978
 H49 H 0.69005 0.77713 0.66112
 H50 H 0.75160 0.73666 0.64066
 H51 H 0.70054 0.70440 0.69408
 H52 H 0.71985 0.72363 0.71340
 N53 N 0.32998 0.77395 0.73185
 N54 N 0.32372 0.79316 0.74396
 C55 C 0.33912 0.79624 0.76229
 C56 C 0.35581 0.77797 0.76156
 C57 C 0.34949 0.76416 0.74205
 H58 H 0.33828 0.81059 0.77526
 H59 H 0.35844 0.74819 0.73576
 Cu60 Cu 0.29573 0.81173 0.73456
 Cu61 Cu 0.31247 0.76299 0.70373
 Cu62 Cu 0.26269 0.79616 0.68690
 N63 N 0.26773 0.83029 0.72520
 N64 N 0.25494 0.82407 0.70643
 C65 C 0.23669 0.83958 0.70377
 C66 C 0.23805 0.85638 0.72191
 C67 C 0.25795 0.84996 0.73522
 H68 H 0.22336 0.83866 0.68976
 H69 H 0.26472 0.85896 0.75097
 N70 N 0.27344 0.76736 0.66948
 N71 N 0.29245 0.75482 0.67584
 C72 C 0.29523 0.73647 0.66044
 C73 C 0.27710 0.73750 0.64369
 C74 C 0.26360 0.75725 0.64990
 H75 H 0.30936 0.72328 0.66128
 H76 H 0.24784 0.76376 0.64074
 H77 H 0.29895 0.79594 0.69402
 H78 H 0.27968 0.77695 0.71360
 N79 N 0.83102 0.27348 0.23228
 N80 N 0.82478 0.29269 0.24437
 C81 C 0.84013 0.29577 0.26273
 C82 C 0.85680 0.27747 0.26205
 C83 C 0.85048 0.26364 0.24252
 H84 H 0.83929 0.31019 0.27563
 H85 H 0.85943 0.24767 0.23621
 Cu86 Cu 0.79717 0.31173 0.23488
 Cu87 Cu 0.81364 0.26266 0.20410
 Cu88 Cu 0.76394 0.29577 0.18726
 N89 N 0.76887 0.32979 0.22556
 N90 N 0.75608 0.32352 0.20681
 C91 C 0.73778 0.33896 0.20419
 C92 C 0.73915 0.35576 0.22228
 C93 C 0.75905 0.34944 0.23555
 H94 H 0.72443 0.33807 0.19019
 H95 H 0.76585 0.35855 0.25121
 N96 N 0.77477 0.26712 0.16977
 N97 N 0.79376 0.25457 0.17613
 C98 C 0.79657 0.23626 0.16068
 C99 C 0.77846 0.23736 0.14391
 C100 C 0.76496 0.25708 0.15016
 H101 H 0.81069 0.22305 0.16153
 H102 H 0.74920 0.26361 0.14101
 H103 H 0.80026 0.29576 0.19436
 H104 H 0.78099 0.27690 0.21414
 N105 N 0.83049 0.72665 0.26817
 N106 N 0.82409 0.70754 0.25597
 C107 C 0.83943 0.70445 0.23761
 C108 C 0.85623 0.72261 0.23841
 C109 C 0.85005 0.73638 0.25799
 H110 H 0.83848 0.69017 0.22458
 H111 H 0.85913 0.75226 0.26433
 Cu112 Cu 0.79610 0.68899 0.26528
 Cu113 Cu 0.81308 0.73754 0.29634
 Cu114 Cu 0.76328 0.70434 0.31319
 N115 N 0.76820 0.67041 0.27477
 N116 N 0.75549 0.67653 0.29362
 C117 C 0.73729 0.66096 0.29630
 C118 C 0.73865 0.64424 0.27814
 C119 C 0.75844 0.65073 0.26477
 H120 H 0.72400 0.66175 0.31035
 H121 H 0.76515 0.64175 0.24900
 N122 N 0.77412 0.73304 0.33063
 N123 N 0.79313 0.74560 0.32428
 C124 C 0.79592 0.76393 0.33970
 C125 C 0.77780 0.76283 0.35645
 C126 C 0.76429 0.74309 0.35022
 H127 H 0.81005 0.77716 0.33887
 H128 H 0.74853 0.73657 0.35937
 H129 H 0.79951 0.70448 0.30591
 H130 H 0.78018 0.72364 0.28651
 N131 N 0.33055 0.22665 -0.23239
 N132 N 0.32399 0.20772 -0.24478
 C133 C 0.33944 0.20457 -0.26307
 C134 C 0.35648 0.22257 -0.26207
 C135 C 0.35027 0.23626 -0.24239
 H136 H 0.33843 0.19031 -0.27613
 H137 H 0.35949 0.25197 -0.23579
 Cu138 Cu 0.29593 0.18918 -0.23543
 Cu139 Cu 0.31315 0.23741 -0.20407
 Cu140 Cu 0.26328 0.20425 -0.18732
 N141 N 0.26789 0.17063 -0.22609
 N142 N 0.25536 0.17657 -0.20706
 C143 C 0.23725 0.16090 -0.20428
 C144 C 0.23846 0.14429 -0.22255
 C145 C 0.25810 0.15095 -0.23609
 H146 H 0.22414 0.16152 -0.19004
 H147 H 0.26473 0.14203 -0.25193
 N148 N 0.27418 0.23284 -0.16972
 N149 N 0.29321 0.24541 -0.17602
 C150 C 0.29596 0.26372 -0.16055
 C151 C 0.27777 0.26263 -0.14384
 C152 C 0.26430 0.24289 -0.15014
 H153 H 0.31006 0.27697 -0.16136
 H154 H 0.24848 0.23638 -0.14108
 H155 H 0.29954 0.20426 -0.19462
 H156 H 0.28024 0.22364 -0.21376
 N157 N 0.66957 0.27314 -0.23223
 N158 N 0.67610 0.29208 -0.24462
 C159 C 0.66068 0.29519 -0.26293
 C160 C 0.64368 0.27716 -0.26194
 C161 C 0.64988 0.26349 -0.24224
 H162 H 0.66168 0.30944 -0.27600
 H163 H 0.64069 0.24776 -0.23565
 Cu164 Cu 0.70410 0.31069 -0.23526
 Cu165 Cu 0.68696 0.26243 -0.20388
 Cu166 Cu 0.73675 0.29570 -0.18712
 N167 N 0.73209 0.32928 -0.22591
 N168 N 0.74461 0.32337 -0.20686
 C169 C 0.76268 0.33908 -0.20407
 C170 C 0.76145 0.35568 -0.22234
 C171 C 0.74185 0.34898 -0.23590
 H172 H 0.77577 0.33849 -0.18982
 H173 H 0.73521 0.35789 -0.25176
 N174 N 0.72588 0.26710 -0.16950
 N175 N 0.70688 0.25450 -0.17581
 C176 C 0.70416 0.23619 -0.16033
 C177 C 0.72232 0.23733 -0.14361
 C178 C 0.73577 0.25709 -0.14991
 H179 H 0.69008 0.22291 -0.16114
 H180 H 0.75157 0.26363 -0.14084
 H181 H 0.70050 0.29562 -0.19445
 H182 H 0.71986 0.27627 -0.21355
 N183 N 0.16986 0.77368 0.26795
 N184 N 0.17651 0.79254 0.25552
 C185 C 0.16114 0.79565 0.23717
 C186 C 0.14409 0.77773 0.23820
 C187 C 0.15014 0.76411 0.25792
 H188 H 0.16219 0.80984 0.22403
 H189 H 0.14083 0.74845 0.26449
 Cu190 Cu 0.20448 0.81117 0.26486
 Cu191 Cu 0.18710 0.76293 0.29628
 Cu192 Cu 0.23689 0.79611 0.31318
 N193 N 0.23249 0.82968 0.27435
 N194 N 0.24490 0.82381 0.29347
 C195 C 0.26295 0.83955 0.29633
 C196 C 0.26181 0.85614 0.27798
 C197 C 0.24227 0.84936 0.26434
 H198 H 0.27596 0.83896 0.31066
 H199 H 0.23567 0.85820 0.24842
 N200 N 0.22591 0.76748 0.33075
 N201 N 0.20690 0.75493 0.32436
 C202 C 0.20405 0.73659 0.33978
 C203 C 0.22214 0.73765 0.35657
 C204 C 0.23568 0.75739 0.35036
 H205 H 0.18994 0.72336 0.33888
 H206 H 0.25147 0.76386 0.35950
 H207 H 0.20065 0.79605 0.30569
 H208 H 0.22002 0.77666 0.28668
 N209 N 0.47658 0.41923 0.48224
 N210 N 0.45770 0.42581 0.49467
 C211 C 0.45462 0.41043 0.51302
 C212 C 0.47257 0.39342 0.51199
 C213 C 0.48619 0.39953 0.49227
 H214 H 0.44043 0.41144 0.52615
 H215 H 0.50186 0.39027 0.48569
 Cu216 Cu 0.43910 0.45375 0.48528
 Cu217 Cu 0.48729 0.43657 0.45388
 Cu218 Cu 0.45403 0.48632 0.43705
 N219 N 0.42048 0.48166 0.47588
 N220 N 0.42637 0.49417 0.45682
 C221 C 0.41062 0.51218 0.45399
 C222 C 0.39403 0.51092 0.47227
 C223 C 0.40077 0.49137 0.48587
 H224 H 0.41118 0.52525 0.43972
 H225 H 0.39188 0.48473 0.50173
 N226 N 0.48264 0.47545 0.41945
 N227 N 0.49523 0.45646 0.42579
 C228 C 0.51354 0.45372 0.41033
 C229 C 0.51242 0.47185 0.39357
 C230 C 0.49267 0.48531 0.39984
 H231 H 0.52680 0.43965 0.41118
 H232 H 0.48615 0.50109 0.39074
 H233 H 0.47347 0.46951 0.46351
 H234 H 0.45410 0.45009 0.44445
 N235 N -0.02354 -0.08049 0.98186
 N236 N -0.04237 -0.07389 0.99434
 C237 C -0.04546 -0.08928 1.01266
 C238 C -0.02756 -0.10631 1.01157
 C239 C -0.01396 -0.10022 0.99184
 H240 H -0.05957 -0.08821 1.02587
 H241 H 0.00171 -0.10948 0.98525
 Cu242 Cu -0.06081 -0.04569 0.98554
 Cu243 Cu -0.01283 -0.06309 0.95362
 Cu244 Cu -0.04595 -0.01336 0.93692
 N245 N -0.07948 -0.01802 0.97568
 N246 N -0.07358 -0.00552 0.95662
 C247 C -0.08926 0.01254 0.95383
 C248 C -0.10583 0.01128 0.97212
 C249 C -0.09915 -0.00829 0.98568
 H250 H -0.08866 0.02566 0.93960
 H251 H -0.10799 -0.01487 1.00160
 N252 N -0.01740 -0.02418 0.91931
 N253 N -0.00484 -0.04319 0.92561
 C254 C 0.01342 -0.04597 0.91011
 C255 C 0.01229 -0.02783 0.89335
 C256 C -0.00741 -0.01434 0.89968
 H257 H 0.02664 -0.06009 0.91091
 H258 H -0.01395 0.00145 0.89058
 H259 H -0.02648 -0.03011 0.96348
 H260 H -0.04614 -0.04954 0.94464
 N261 N 1.02373 0.58066 0.98178
 N262 N 1.04291 0.57437 0.99390
 C263 C 1.04599 0.58972 1.01226
 C264 C 1.02774 0.60640 1.01155
 C265 C 1.01394 0.60014 0.99202
 H266 H 1.06032 0.58884 1.02526
 H267 H 0.99798 0.60912 0.98574
 Cu268 Cu 1.06160 0.54648 0.98469
 Cu269 Cu 1.01289 0.56317 0.95364
 Cu270 Cu 1.04604 0.51342 0.93686
 N271 N 1.08003 0.51853 0.97516
 N272 N 1.07380 0.50569 0.95643
 C273 C 1.08927 0.48742 0.95385
 C274 C 1.10602 0.48886 0.97196
 C275 C 1.09968 0.50878 0.98519
 H276 H 1.08838 0.47401 0.93992
 H277 H 1.10873 0.51556 1.00090
 N278 N 1.01738 0.52419 0.91939
 N279 N 1.00482 0.54319 0.92571
 C280 C 0.98654 0.54598 0.91023
 C281 C 0.98767 0.52786 0.89347
 C282 C 1.00738 0.51436 0.89976
 H283 H 0.97334 0.56011 0.91102
 H284 H 1.01394 0.49861 0.89062
 H285 H 1.02692 0.53034 0.96360
 H286 H 1.04597 0.54964 0.94407
 N287 N 0.52364 0.08056 0.48206
 N288 N 0.54284 0.07430 0.49415
 C289 C 0.54590 0.08962 0.51254
 C290 C 0.52763 0.10629 0.51188
 C291 C 0.51382 0.10001 0.49234
 H292 H 0.56028 0.08879 0.52547
 H293 H 0.49787 0.10901 0.48605
 Cu294 Cu 0.56192 0.04674 0.48466
 Cu295 Cu 0.51290 0.06311 0.45383
 Cu296 Cu 0.54607 0.01346 0.43698
 N297 N 0.58001 0.01851 0.47531
 N298 N 0.57377 0.00569 0.45658
 C299 C 0.58924 -0.01258 0.45397
 C300 C 0.60602 -0.01114 0.47206
 C301 C 0.59967 0.00875 0.48531
 H302 H 0.58839 -0.02594 0.43999
 H303 H 0.60878 0.01557 0.50097
 N304 N 0.51744 0.02424 0.41946
 N305 N 0.50485 0.04322 0.42581
 C306 C 0.48656 0.04598 0.41034
 C307 C 0.48770 0.02787 0.39356
 C308 C 0.50744 0.01440 0.39984
 H309 H 0.47332 0.06007 0.41117
 H310 H 0.51400 -0.00135 0.39071
 H311 H 0.52723 0.03037 0.46383
 H312 H 0.54607 0.04968 0.44407
 N313 N -0.02387 0.08073 0.51793
 N314 N -0.04274 0.07413 0.50549
 C315 C -0.04586 0.08951 0.48718
 C316 C -0.02793 0.10654 0.48822
 C317 C -0.01429 0.10046 0.50792
 H318 H -0.06000 0.08844 0.47401
 H319 H 0.00140 0.10973 0.51447
 Cu320 Cu -0.06120 0.04595 0.51432
 Cu321 Cu -0.01313 0.06333 0.54615
 Cu322 Cu -0.04630 0.01362 0.56291
 N323 N -0.07988 0.01831 0.52423
 N324 N -0.07397 0.00580 0.54328
 C325 C -0.08970 -0.01223 0.54611
 C326 C -0.10629 -0.01095 0.52786
 C327 C -0.09960 0.00860 0.51428
 H328 H -0.08910 -0.02535 0.56034
 H329 H -0.10847 0.01519 0.49839
 N330 N -0.01770 0.02442 0.58046
 N331 N -0.00511 0.04342 0.57415
 C332 C 0.01318 0.04619 0.58962
 C333 C 0.01203 0.02805 0.60637
 C334 C -0.00770 0.01457 0.60007
 H335 H 0.02643 0.06029 0.58880
 H336 H -0.01426 -0.00122 0.60917
 H337 H -0.02687 0.03033 0.53632
 H338 H -0.04645 0.04977 0.55520
 N339 N 0.47661 0.58044 0.01802
 N340 N 0.45772 0.57383 0.00560
 C341 C 0.45463 0.58920 -0.01275
 C342 C 0.47257 0.60622 -0.01173
 C343 C 0.48621 0.60014 0.00798
 H344 H 0.44043 0.58817 -0.02587
 H345 H 0.50188 0.60943 0.01456
 Cu346 Cu 0.43912 0.54590 0.01497
 Cu347 Cu 0.48733 0.56312 0.04636
 Cu348 Cu 0.45406 0.51333 0.06316
 N349 N 0.42051 0.51798 0.02434
 N350 N 0.42638 0.50547 0.04340
 C351 C 0.41063 0.48745 0.04621
 C352 C 0.39404 0.48873 0.02792
 C353 C 0.40080 0.50828 0.01435
 H354 H 0.41116 0.47437 0.06048
 H355 H 0.39192 0.51493 -0.00151
 N356 N 0.48267 0.52421 0.08075
 N357 N 0.49526 0.54322 0.07442
 C358 C 0.51358 0.54598 0.08987
 C359 C 0.51246 0.52784 0.10662
 C360 C 0.49270 0.51436 0.10035
 H361 H 0.52684 0.56006 0.08903
 H362 H 0.48618 0.49856 0.10944
 H363 H 0.47352 0.53020 0.03670
 H364 H 0.45415 0.54959 0.05578
 N365 N 0.52377 -0.08066 0.01830
 N366 N 0.54299 -0.07440 0.00622
 C367 C 0.54605 -0.08974 -0.01215
 C368 C 0.52775 -0.10640 -0.01148
 C369 C 0.51394 -0.10013 0.00804
 H370 H 0.56040 -0.08887 -0.02512
 H371 H 0.49794 -0.10909 0.01428
 Cu372 Cu 0.56162 -0.04650 0.01564
 Cu373 Cu 0.51287 -0.06317 0.04648
 Cu374 Cu 0.54616 -0.01342 0.06332
 N375 N 0.58024 -0.01858 0.02501
 N376 N 0.57403 -0.00575 0.04375
 C377 C 0.58958 0.01248 0.04635
 C378 C 0.60636 0.01102 0.02826
 C379 C 0.59994 -0.00887 0.01501
 H380 H 0.58873 0.02587 0.06031
 H381 H 0.60898 -0.01566 -0.00070
 N382 N 0.51739 -0.02415 0.08077
 N383 N 0.50479 -0.04315 0.07442
 C384 C 0.48648 -0.04591 0.08988
 C385 C 0.48761 -0.02780 0.10665
 C386 C 0.50737 -0.01432 0.10038
 H387 H 0.47325 -0.06003 0.08906
 H388 H 0.51394 0.00143 0.10954
 H389 H 0.52694 -0.03035 0.03663
 H390 H 0.54588 -0.04966 0.05620
 N391 N 1.02335 0.41948 0.51790
 N392 N 1.04253 0.42574 0.50577
 C393 C 1.04554 0.41042 0.48738
 C394 C 1.02724 0.39377 0.48810
 C395 C 1.01348 0.40003 0.50765
 H396 H 1.05990 0.41124 0.47443
 H397 H 0.99753 0.39103 0.51397
 Cu398 Cu 1.06165 0.45329 0.51523
 Cu399 Cu 1.01264 0.43688 0.54612
 Cu400 Cu 1.04587 0.48655 0.56289
 N401 N 1.07976 0.48154 0.52453
 N402 N 1.07355 0.49435 0.54327
 C403 C 1.08903 0.51264 0.54585
 C404 C 1.10577 0.51122 0.52774
 C405 C 1.09941 0.49132 0.51450
 H406 H 1.08819 0.52600 0.55984
 H407 H 1.10849 0.48451 0.49882
 N408 N 1.01727 0.47576 0.58044
 N409 N 1.00466 0.45677 0.57412
 C410 C 0.98638 0.45401 0.58960
 C411 C 0.98755 0.47213 0.60636
 C412 C 1.00730 0.48560 0.60006
 H413 H 0.97313 0.43991 0.58879
 H414 H 1.01388 0.50137 0.60918
 H415 H 1.02695 0.46956 0.53606
 H416 H 1.04581 0.45026 0.55581
 C417 C 0.41105 0.01094 0.21857
 H418 H 0.41252 0.02672 0.22970
 C419 C 0.42667 0.00778 0.19930
 H420 H 0.44006 0.02133 0.19570
 C421 C 0.39190 -0.02596 0.21008
 H422 H 0.37858 -0.03926 0.21453
 C423 C 0.40711 -0.02982 0.19062
 H424 H 0.40511 -0.04606 0.18022
 N425 N 0.39394 -0.00571 0.22344
 C426 C 0.33679 0.03167 0.26143
 H427 H 0.33521 0.02059 0.27723
 C428 C 0.32142 0.05114 0.25824
 H429 H 0.30809 0.05493 0.27178
 C430 C 0.35604 0.03990 0.22455
 H431 H 0.36931 0.03530 0.21128
 C432 C 0.34110 0.05956 0.22066
 H433 H 0.34325 0.06993 0.20443
 Zn434 Zn 0.37382 -0.00033 0.25023
 N435 N 0.35382 0.02656 0.24480
 C436 C 0.39192 0.02546 0.29025
 N437 N 0.39393 0.00513 0.27700
 C438 C 0.41105 -0.01147 0.28192
 C439 C 0.42671 -0.00817 0.30113
 C440 C 0.40716 0.02944 0.30966
 C441 C 0.33666 -0.03229 0.23907
 C442 C 0.32116 -0.05167 0.24232
 C443 C 0.34078 -0.06007 0.27992
 C444 C 0.35585 -0.04049 0.27597
 N445 N 0.35373 -0.02720 0.25567
 H446 H 0.37862 0.03873 0.28575
 H447 H 0.41250 -0.02730 0.27086
 H448 H 0.44013 -0.02168 0.30476
 H449 H 0.40518 0.04573 0.31998
 H450 H 0.33514 -0.02124 0.22323
 H451 H 0.30780 -0.05543 0.22879
 H452 H 0.34286 -0.07040 0.29618
 H453 H 0.36915 -0.03590 0.28923
 C454 C 0.32349 0.06544 0.23764
 C455 C 0.42478 -0.01282 0.18497
 C456 C 0.32314 -0.06592 0.26296
 C457 C 0.42484 0.01249 0.31536
 C458 C 0.08862 -0.01148 0.71794
 H459 H 0.08714 -0.02734 0.72897
 C460 C 0.07295 -0.00815 0.69874
 H461 H 0.05952 -0.02165 0.69509
 C462 C 0.10777 0.02547 0.70969
 H463 H 0.12107 0.03875 0.71422
 C464 C 0.09253 0.02950 0.69029
 H465 H 0.09451 0.04582 0.68002
 N466 N 0.10575 0.00511 0.72289
 C467 C 0.16301 -0.03226 0.76086
 H468 H 0.16459 -0.02114 0.77663
 C469 C 0.17848 -0.05166 0.75766
 H470 H 0.19186 -0.05536 0.77118
 C471 C 0.14372 -0.04065 0.72404
 H472 H 0.13039 -0.03613 0.71080
 C473 C 0.15874 -0.06026 0.72017
 H474 H 0.15661 -0.07067 0.70397
 Zn475 Zn 0.12586 -0.00036 0.74966
 N476 N 0.14592 -0.02725 0.74426
 C477 C 0.10777 -0.02597 0.78979
 N478 N 0.10573 -0.00573 0.77642
 C479 C 0.08864 0.01091 0.78130
 C480 C 0.07304 0.00776 0.80059
 C481 C 0.09260 -0.02982 0.80928
 C482 C 0.16288 0.03168 0.73846
 C483 C 0.17827 0.05115 0.74165
 C484 C 0.15869 0.05949 0.77928
 C485 C 0.14372 0.03984 0.77539
 N486 N 0.14588 0.02654 0.75511
 H487 H 0.12107 -0.03926 0.78534
 H488 H 0.08717 0.02669 0.77015
 H489 H 0.05966 0.02131 0.80419
 H490 H 0.09460 -0.04604 0.81970
 H491 H 0.16441 0.02064 0.72263
 H492 H 0.19157 0.05497 0.72808
 H493 H 0.15658 0.06984 0.79553
 H494 H 0.13046 0.03522 0.78868
 C495 C 0.17643 -0.06602 0.73711
 C496 C 0.07483 0.01255 0.68456
 C497 C 0.17627 0.06540 0.76228
 C498 C 0.07495 -0.01281 0.81494
 C499 C 0.58900 0.48859 0.21829
 H500 H 0.58752 0.47276 0.22936
 C501 C 0.57343 0.49183 0.19900
 H502 H 0.56005 0.47828 0.19532
 C503 C 0.60814 0.52554 0.21000
 H504 H 0.62143 0.53883 0.21453
 C505 C 0.59299 0.52947 0.19051
 H506 H 0.59501 0.54576 0.18018
 N507 N 0.60607 0.50523 0.22327
 C508 C 0.66328 0.46803 0.26126
 H509 H 0.66480 0.47914 0.27705
 C510 C 0.67879 0.44869 0.25807
 H511 H 0.69217 0.44500 0.27160
 C512 C 0.64408 0.45967 0.22438
 H513 H 0.63079 0.46419 0.21111
 C514 C 0.65916 0.44012 0.22050
 H515 H 0.65709 0.42974 0.20427
 Zn516 Zn 0.62612 0.49978 0.25007
 N517 N 0.64620 0.47300 0.24464
 C518 C 0.60812 0.47406 0.29017
 N519 N 0.60602 0.49432 0.27683
 C520 C 0.58891 0.51092 0.28174
 C521 C 0.57334 0.50772 0.30104
 C522 C 0.59297 0.47016 0.30967
 C523 C 0.66320 0.53170 0.23894
 C524 C 0.67862 0.55113 0.24216
 C525 C 0.65895 0.55952 0.27975
 C526 C 0.64396 0.53990 0.27583
 N527 N 0.64613 0.52662 0.25554
 H528 H 0.62145 0.46080 0.28570
 H529 H 0.58742 0.52671 0.27062
 H530 H 0.55994 0.52124 0.30467
 H531 H 0.59501 0.45392 0.32006
 H532 H 0.66476 0.52063 0.22313
 H533 H 0.69198 0.55491 0.22864
 H534 H 0.65684 0.56986 0.29600
 H535 H 0.63068 0.53529 0.28909
 C536 C 0.67680 0.43437 0.23748
 C537 C 0.57534 0.51248 0.18477
 C538 C 0.67657 0.56539 0.26277
 C539 C 0.57528 0.48712 0.31535
 C540 C 0.91134 0.51132 0.71823
 H541 H 0.91284 0.52713 0.72931
 C542 C 0.92691 0.50808 0.69894
 H543 H 0.94031 0.52162 0.69527
 C544 C 0.89215 0.47440 0.70991
 H545 H 0.87885 0.46112 0.71443
 C546 C 0.90729 0.47047 0.69042
 H547 H 0.90525 0.45420 0.68008
 N548 N 0.89424 0.49470 0.72318
 C549 C 0.83714 0.53204 0.76113
 H550 H 0.83562 0.52098 0.77696
 C551 C 0.82169 0.55143 0.75790
 H552 H 0.80836 0.55520 0.77145
 C553 C 0.85632 0.54025 0.72420
 H554 H 0.86960 0.53567 0.71093
 C555 C 0.84130 0.55983 0.72028
 H556 H 0.84340 0.57018 0.70403
 Zn557 Zn 0.87417 0.50014 0.74994
 N558 N 0.85417 0.52697 0.74449
 C559 C 0.89222 0.52586 0.78997
 N560 N 0.89426 0.50558 0.77666
 C561 C 0.91135 0.48895 0.78157
 C562 C 0.92696 0.49217 0.80082
 C563 C 0.90739 0.52977 0.80943
 C564 C 0.83709 0.46825 0.73876
 C565 C 0.82162 0.44885 0.74196
 C566 C 0.84118 0.44045 0.77960
 C567 C 0.85623 0.46004 0.77569
 N568 N 0.85412 0.47332 0.75540
 H569 H 0.87892 0.53914 0.78548
 H570 H 0.91282 0.47315 0.77045
 H571 H 0.94034 0.47863 0.80445
 H572 H 0.90539 0.54602 0.81980
 H573 H 0.83559 0.47931 0.72293
 H574 H 0.80830 0.44508 0.72840
 H575 H 0.84325 0.43010 0.79586
 H576 H 0.86950 0.46463 0.78897
 C577 C 0.82369 0.56567 0.73726
 C578 C 0.92495 0.48745 0.68469
 C579 C 0.82358 0.43460 0.76259
 C580 C 0.92505 0.51278 0.81511
 C581 C 0.21822 0.41313 0.01109
 H582 H 0.22941 0.41471 0.02681
 C583 C 0.19887 0.42862 0.00792
 H584 H 0.19525 0.44206 0.02141
 C585 C 0.20969 0.39376 -0.02567
 H586 H 0.21415 0.38041 -0.03891
 C587 C 0.19013 0.40881 -0.02952
 H588 H 0.17967 0.40666 -0.04570
 N589 N 0.22310 0.39598 -0.00548
 C590 C 0.26091 0.33884 0.03165
 H591 H 0.27671 0.33732 0.02055
 C592 C 0.25766 0.32329 0.05095
 H593 H 0.27117 0.30989 0.05462
 C594 C 0.22405 0.35808 0.04001
 H595 H 0.21081 0.37141 0.03550
 C596 C 0.22011 0.34296 0.05952
 H597 H 0.20387 0.34504 0.06990
 Zn598 Zn 0.24983 0.37595 -0.00009
 N599 N 0.24432 0.35594 0.02669
 C600 C 0.28978 0.39398 0.02572
 N601 N 0.27658 0.39603 0.00538
 C602 C 0.28160 0.41312 -0.01123
 C603 C 0.30089 0.42869 -0.00794
 C604 C 0.30926 0.40913 0.02971
 C605 C 0.23862 0.33879 -0.03185
 C606 C 0.24180 0.32331 -0.05122
 C607 C 0.27936 0.34299 -0.05979
 C608 C 0.27548 0.35806 -0.04023
 N609 N 0.25524 0.35589 -0.02688
 H610 H 0.28520 0.38069 0.03899
 H611 H 0.27056 0.41460 -0.02707
 H612 H 0.30463 0.44206 -0.02147
 H613 H 0.31955 0.40710 0.04600
 H614 H 0.22284 0.33725 -0.02073
 H615 H 0.22826 0.30992 -0.05490
 H616 H 0.29558 0.34510 -0.07019
 H617 H 0.28875 0.37138 -0.03571
 C618 C 0.23705 0.32527 0.06523
 C619 C 0.18447 0.42651 -0.01259
 C620 C 0.26238 0.32533 -0.06554
 C621 C 0.31509 0.42676 0.01273
 C622 C 0.71863 0.08690 -0.01095
 H623 H 0.72973 0.08539 -0.02674
 C624 C 0.69931 0.07134 -0.00771
 H625 H 0.69563 0.05794 -0.02123
 C626 C 0.71030 0.10611 0.02593
 H627 H 0.71483 0.11942 0.03919
 C628 C 0.69078 0.09098 0.02986
 H629 H 0.68043 0.09304 0.04611
 N630 N 0.72358 0.10402 0.00564
 C631 C 0.76153 0.16127 -0.03156
 H632 H 0.77732 0.16282 -0.02045
 C633 C 0.75834 0.17674 -0.05094
 H634 H 0.77187 0.19013 -0.05464
 C635 C 0.72466 0.14199 -0.03991
 H636 H 0.71140 0.12867 -0.03539
 C637 C 0.72078 0.15704 -0.05948
 H638 H 0.70455 0.15492 -0.06987
 Zn639 Zn 0.75034 0.12411 0.00021
 N640 N 0.74491 0.14418 -0.02657
 C641 C 0.79037 0.10626 -0.02552
 N642 N 0.77705 0.10408 -0.00526
 C643 C 0.78199 0.08696 0.01132
 C644 C 0.80132 0.07145 0.00809
 C645 C 0.80989 0.09119 -0.02943
 C646 C 0.73930 0.16119 0.03201
 C647 C 0.74258 0.17670 0.05133
 C648 C 0.78013 0.15701 0.05983
 C649 C 0.77617 0.14192 0.04030
 N650 N 0.75588 0.14409 0.02701
 H651 H 0.78586 0.11959 -0.03875
 H652 H 0.77087 0.08540 0.02710
 H653 H 0.80499 0.05804 0.02159
 H654 H 0.82028 0.09330 -0.04566
 H655 H 0.72349 0.16274 0.02093
 H656 H 0.72908 0.19011 0.05503
 H657 H 0.79639 0.15491 0.07018
 H658 H 0.78940 0.12860 0.03575
 C659 C 0.73775 0.17471 -0.06525
 C660 C 0.68502 0.07333 0.01289
 C661 C 0.76321 0.17469 0.06559
 C662 C 0.81562 0.07350 -0.01249
 C663 C 0.21829 0.58670 0.48885
 H664 H 0.22948 0.58510 0.47312
 C665 C 0.19891 0.57122 0.49202
 H666 H 0.19527 0.55777 0.47854
 C667 C 0.20979 0.60608 0.52560
 H668 H 0.21428 0.61943 0.53883
 C669 C 0.19021 0.59105 0.52946
 H670 H 0.17975 0.59321 0.54563
 N671 N 0.22319 0.60385 0.50541
 C672 C 0.26109 0.66098 0.46822
 H673 H 0.27689 0.66250 0.47932
 C674 C 0.25785 0.67656 0.44894
 H675 H 0.27137 0.68997 0.44530
 C676 C 0.22420 0.64176 0.45985
 H677 H 0.21094 0.62842 0.46435
 C678 C 0.22027 0.65691 0.44036
 H679 H 0.20402 0.65486 0.42999
 Zn680 Zn 0.24996 0.62387 0.49999
 N681 N 0.24448 0.64388 0.47317
 C682 C 0.28994 0.60578 0.47425
 N683 N 0.27670 0.60377 0.49459
 C684 C 0.28167 0.58669 0.51121
 C685 C 0.30093 0.57109 0.50797
 C686 C 0.30939 0.59060 0.47031
 C687 C 0.23868 0.66101 0.53166
 C688 C 0.24175 0.67653 0.55102
 C689 C 0.27929 0.65693 0.55979
 C690 C 0.27551 0.64183 0.54023
 N691 N 0.25533 0.64395 0.52678
 H692 H 0.28539 0.61906 0.46097
 H693 H 0.27060 0.58523 0.52704
 H694 H 0.30461 0.55772 0.52151
 H695 H 0.31970 0.59260 0.45402
 H696 H 0.22293 0.66251 0.52047
 H697 H 0.22818 0.68988 0.55463
 H698 H 0.29546 0.65487 0.57027
 H699 H 0.28879 0.62851 0.53580
 C700 C 0.23723 0.67461 0.43466
 C701 C 0.18451 0.57334 0.51253
 C702 C 0.26228 0.67458 0.56543
 C703 C 0.31516 0.57298 0.48731
 C704 C 0.71836 0.91335 0.51102
 H705 H 0.72954 0.91495 0.52675
 C706 C 0.69906 0.92889 0.50779
 H707 H 0.69546 0.94237 0.52124
 C708 C 0.70983 0.89394 0.47428
 H709 H 0.71429 0.88056 0.46107
 C710 C 0.69032 0.90903 0.47037
 H711 H 0.67989 0.90688 0.45418
 N712 N 0.72320 0.89616 0.49449
 C713 C 0.76107 0.83908 0.53160
 H714 H 0.77683 0.83754 0.52043
 C715 C 0.75793 0.82360 0.55096
 H716 H 0.77145 0.81021 0.55460
 C717 C 0.72426 0.85836 0.54008
 H718 H 0.71101 0.87169 0.53561
 C719 C 0.72041 0.84329 0.55965
 H720 H 0.70422 0.84540 0.57009
 Zn721 Zn 0.74990 0.87616 0.49993
 N722 N 0.74446 0.85617 0.52669
 C723 C 0.78987 0.89408 0.52564
 N724 N 0.77657 0.89621 0.50537
 C725 C 0.78146 0.91335 0.48880
 C726 C 0.80076 0.92892 0.49203
 C727 C 0.80936 0.90920 0.52956
 C728 C 0.73880 0.83903 0.46828
 C729 C 0.74200 0.82353 0.44895
 C730 C 0.77951 0.84332 0.44030
 C731 C 0.77561 0.85839 0.45983
 N732 N 0.75537 0.85617 0.47320
 H733 H 0.78537 0.88074 0.53888
 H734 H 0.77033 0.91488 0.47302
 H735 H 0.80441 0.94235 0.47853
 H736 H 0.81974 0.90712 0.54579
 H737 H 0.72303 0.83745 0.47942
 H738 H 0.72850 0.81010 0.44530
 H739 H 0.79571 0.84545 0.42988
 H740 H 0.78884 0.87175 0.46432
 C741 C 0.73738 0.82562 0.56532
 C742 C 0.68468 0.92677 0.48727
 C743 C 0.76257 0.82559 0.43462
 C744 C 0.81505 0.92689 0.51261
 C745 C 0.01056 0.21845 0.41174
 H746 H 0.02637 0.22955 0.41321
 C747 C 0.00736 0.19915 0.42729
 H748 H 0.02091 0.19549 0.44065
 C749 C -0.02636 0.21007 0.39260
 H750 H -0.03964 0.21457 0.37930
 C751 C -0.03027 0.19055 0.40774
 H752 H -0.04652 0.18016 0.40573
 N753 N -0.00607 0.22338 0.39468
 C754 C 0.03141 0.26119 0.33762
 H755 H 0.02037 0.27704 0.33610
 C756 C 0.05080 0.25796 0.32218
 H757 H 0.05458 0.27152 0.30886
 C758 C 0.03953 0.22422 0.35675
 H759 H 0.03489 0.21093 0.37000
 C760 C 0.05912 0.22028 0.34173
 H761 H 0.06943 0.20400 0.34379
 Zn762 Zn -0.00050 0.25013 0.37463
 N763 N 0.02630 0.24455 0.35464
 C764 C 0.02543 0.29011 0.39265
 N765 N 0.00506 0.27690 0.39466
 C766 C -0.01161 0.28195 0.41166
 C767 C -0.00838 0.30127 0.42718
 C768 C 0.02936 0.30963 0.40776
 C769 C -0.03224 0.23904 0.33751
 C770 C -0.05158 0.24223 0.32201
 C771 C -0.06018 0.27979 0.34165
 C772 C -0.04062 0.27591 0.35673
 N773 N -0.02728 0.25566 0.35459
 H774 H 0.03874 0.28551 0.37942
 H775 H -0.02748 0.27091 0.41310
 H776 H -0.02197 0.30501 0.44048
 H777 H 0.04568 0.31993 0.40580
 H778 H -0.02113 0.22325 0.33599
 H779 H -0.05525 0.22869 0.30863
 H780 H -0.07058 0.29601 0.34373
 H781 H -0.03611 0.28918 0.37004
 C782 C 0.06501 0.23730 0.32416
 C783 C -0.01326 0.18485 0.42537
 C784 C -0.06590 0.26281 0.32400
 C785 C 0.01231 0.31547 0.42531
 C786 C -0.01108 0.71817 0.08805
 H787 H -0.02692 0.72920 0.08658
 C788 C -0.00787 0.69882 0.07256
 H789 H -0.02145 0.69506 0.05925
 C790 C 0.02593 0.71002 0.10709
 H791 H 0.03924 0.71463 0.12032
 C792 C 0.02985 0.69047 0.09200
 H793 H 0.04614 0.68016 0.09400
 N794 N 0.00559 0.72324 0.10504
 C795 C -0.03173 0.76115 0.16211
 H796 H -0.02063 0.77698 0.16358
 C797 C -0.05109 0.75799 0.17759
 H798 H -0.05479 0.77157 0.19091
 C799 C -0.04004 0.72419 0.14302
 H800 H -0.03550 0.71088 0.12976
 C801 C -0.05961 0.72032 0.15809
 H802 H -0.07000 0.70407 0.15606
 Zn803 Zn 0.00006 0.75003 0.12506
 N804 N -0.02672 0.74449 0.14509
 C805 C -0.02581 0.79005 0.10708
 N806 N -0.00550 0.77679 0.10501
 C807 C 0.01112 0.78178 0.08795
 C808 C 0.00789 0.80109 0.07240
 C809 C -0.02974 0.80957 0.09196
 C810 C 0.03186 0.73900 0.16217
 C811 C 0.05120 0.74224 0.17767
 C812 C 0.05972 0.77984 0.15803
 C813 C 0.04017 0.77590 0.14295
 N814 N 0.02686 0.75560 0.14509
 H815 H -0.03909 0.78551 0.12037
 H816 H 0.02695 0.77072 0.08646
 H817 H 0.02144 0.80479 0.05904
 H818 H -0.04600 0.81991 0.09398
 H819 H 0.02078 0.72317 0.16369
 H820 H 0.05490 0.72871 0.19104
 H821 H 0.07009 0.79609 0.15595
 H822 H 0.03563 0.78915 0.12964
 C823 C -0.06539 0.73737 0.17566
 C824 C 0.01280 0.68461 0.07446
 C825 C 0.06549 0.76288 0.17568
 C826 C -0.01275 0.81534 0.07433
 C827 C 0.48901 0.21797 0.58878
 H828 H 0.47317 0.22902 0.58736
 C829 C 0.49222 0.19871 0.57316
 H830 H 0.47864 0.19504 0.55983
 C831 C 0.52601 0.20971 0.60777
 H832 H 0.53932 0.21424 0.62103
 C833 C 0.52993 0.19024 0.59255
 H834 H 0.54622 0.17993 0.59448
 N835 N 0.50567 0.22296 0.60581
 C836 C 0.46812 0.26085 0.66300
 H837 H 0.47921 0.27667 0.66457
 C838 C 0.44867 0.25765 0.67841
 H839 H 0.44492 0.27120 0.69174
 C840 C 0.45984 0.22397 0.64377
 H841 H 0.46441 0.21070 0.63048
 C842 C 0.44017 0.22009 0.65874
 H843 H 0.42976 0.20386 0.65661
 Zn844 Zn 0.50017 0.24977 0.62592
 N845 N 0.47322 0.24423 0.64596
 C846 C 0.47434 0.28983 0.60775
 N847 N 0.49466 0.27657 0.60576
 C848 C 0.51127 0.28152 0.58866
 C849 C 0.50801 0.30075 0.57300
 C850 C 0.47038 0.30927 0.59251
 C851 C 0.53219 0.23870 0.66301
 C852 C 0.55162 0.24192 0.67843
 C853 C 0.56013 0.27947 0.65874
 C854 C 0.54048 0.27556 0.64375
 N855 N 0.52710 0.25531 0.64595
 H856 H 0.46107 0.28533 0.62106
 H857 H 0.52711 0.27047 0.58721
 H858 H 0.52154 0.30439 0.55961
 H859 H 0.45409 0.31959 0.59448
 H860 H 0.52111 0.22288 0.66458
 H861 H 0.55537 0.22838 0.69178
 H862 H 0.57054 0.29569 0.65660
 H863 H 0.53593 0.28881 0.63043
 C864 C 0.43433 0.23705 0.67637
 C865 C 0.51289 0.18449 0.57496
 C866 C 0.56595 0.26252 0.67640
 C867 C 0.48735 0.31499 0.57484
 C868 C 0.51099 0.71831 0.91187
 H869 H 0.52681 0.72941 0.91332
 C870 C 0.50781 0.69900 0.92743
 H871 H 0.52138 0.69534 0.94077
 C872 C 0.47404 0.70994 0.89280
 H873 H 0.46074 0.71445 0.87952
 C874 C 0.47016 0.69042 0.90794
 H875 H 0.45390 0.68004 0.90595
 N876 N 0.49433 0.72327 0.89483
 C877 C 0.53170 0.76121 0.83772
 H878 H 0.52065 0.77704 0.83623
 C879 C 0.55107 0.75801 0.82224
 H880 H 0.55482 0.77159 0.80892
 C881 C 0.53993 0.72425 0.85683
 H882 H 0.53536 0.71096 0.87010
 C883 C 0.55951 0.72036 0.84177
 H884 H 0.56986 0.70410 0.84382
 Zn885 Zn 0.49983 0.75006 0.87476
 N886 N 0.52664 0.74455 0.85473
 C887 C 0.52575 0.79009 0.89280
 N888 N 0.50538 0.77687 0.89481
 C889 C 0.48872 0.78192 0.91181
 C890 C 0.49196 0.80124 0.92735
 C891 C 0.52969 0.80962 0.90793
 C892 C 0.46787 0.73892 0.83771
 C893 C 0.44848 0.74214 0.82226
 C894 C 0.44018 0.77984 0.84175
 C895 C 0.45977 0.77592 0.85679
 N896 N 0.47299 0.75558 0.85471
 H897 H 0.53906 0.78550 0.87957
 H898 H 0.47285 0.77089 0.91326
 H899 H 0.47838 0.80498 0.94066
 H900 H 0.54600 0.81991 0.90596
 H901 H 0.47889 0.72306 0.83621
 H902 H 0.44469 0.72857 0.80895
 H903 H 0.42988 0.79613 0.84379
 H904 H 0.46440 0.78922 0.87002
 C905 C 0.56532 0.73738 0.82418
 C906 C 0.48718 0.68470 0.92555
 C907 C 0.43427 0.76282 0.82420
 C908 C 0.51265 0.81545 0.92548
 N909 N 0.10876 0.24552 0.27516
 C910 C 0.12321 0.22619 0.27788
 N911 N 0.11861 0.21055 0.29589
 N912 N 0.10017 0.21409 0.31060
 C913 C 0.08563 0.23343 0.30791
 N914 N 0.09035 0.24907 0.28989
 N915 N 0.61903 0.71082 0.79594
 C916 C 0.62354 0.72643 0.77787
 N917 N 0.60896 0.74565 0.77507
 N918 N 0.59054 0.74915 0.78980
 C919 C 0.58593 0.73354 0.80789
 N920 N 0.60058 0.71431 0.81064
 N921 N 0.38068 0.78963 0.79593
 C922 C 0.37603 0.77399 0.77793
 N923 N 0.39044 0.75463 0.77522
 N924 N 0.40886 0.75105 0.78994
 C925 C 0.41363 0.76670 0.80794
 N926 N 0.39913 0.78606 0.81063
 N927 N -0.11974 0.28918 0.29588
 C928 C -0.12405 0.27377 0.27758
 N929 N -0.10926 0.25471 0.27464
 N930 N -0.09088 0.25120 0.28941
 C931 C -0.08649 0.26663 0.30769
 N932 N -0.10132 0.28569 0.31062
 N933 N -0.11911 0.71087 0.20397
 C934 C -0.12357 0.72649 0.22202
 N935 N -0.10899 0.74574 0.22476
 N936 N -0.09058 0.74922 0.21000
 C937 C -0.08600 0.73358 0.19195
 N938 N -0.10067 0.71434 0.18924
 N939 N 0.39085 0.24502 0.72573
 C940 C 0.37582 0.22617 0.72252
 N941 N 0.38002 0.21091 0.70406
 N942 N 0.39855 0.21437 0.68943
 C943 C 0.41362 0.23323 0.69261
 N944 N 0.40934 0.24849 0.71106
 N945 N 0.62018 0.28875 0.70415
 C946 C 0.62437 0.27352 0.72263
 N947 N 0.60937 0.25464 0.72582
 N948 N 0.59090 0.25114 0.71113
 C949 C 0.58663 0.26638 0.69266
 N950 N 0.60167 0.28526 0.68949
 N951 N 0.11934 0.78940 0.20376
 C952 C 0.12377 0.77390 0.22192
 N953 N 0.10908 0.75476 0.22485
 N954 N 0.09063 0.75124 0.21016
 C955 C 0.08610 0.76675 0.19197
 N956 N 0.10086 0.78590 0.18909
 N957 N 0.27434 0.10919 0.24541
 C958 C 0.27741 0.12377 0.22622
 N959 N 0.29570 0.11926 0.21088
 N960 N 0.31033 0.10079 0.21455
 C961 C 0.30730 0.08612 0.23372
 N962 N 0.28901 0.09074 0.24909
 N963 N 0.77465 0.60947 0.74523
 C964 C 0.77763 0.62401 0.72599
 N965 N 0.79578 0.61941 0.71052
 N966 N 0.81039 0.60092 0.71412
 C967 C 0.80746 0.58631 0.73335
 N968 N 0.78929 0.59099 0.74884
 N969 N 0.79557 0.38082 0.78926
 C970 C 0.77755 0.37612 0.77367
 N971 N 0.77467 0.39062 0.75439
 N972 N 0.78930 0.40914 0.75084
 C973 C 0.80735 0.41393 0.76645
 N974 N 0.81017 0.39936 0.78573
 N975 N 0.29539 -0.11993 0.28951
 C976 C 0.27708 -0.12445 0.27417
 N977 N 0.27396 -0.10971 0.25509
 N978 N 0.28858 -0.09118 0.25150
 C979 C 0.30689 -0.08660 0.26686
 N980 N 0.30997 -0.10138 0.28594
 N981 N 0.20403 -0.12018 0.71078
 C982 C 0.22264 -0.12436 0.72584
 N983 N 0.22597 -0.10940 0.74471
 N984 N 0.21128 -0.09095 0.74834
 C985 C 0.19268 -0.08669 0.73324
 N986 N 0.18938 -0.10171 0.71439
 N987 N 0.72598 0.39072 0.24549
 C988 C 0.72295 0.37607 0.22635
 N989 N 0.70471 0.38053 0.21095
 N990 N 0.69008 0.39901 0.21451
 C991 C 0.69306 0.41374 0.23363
 N992 N 0.71131 0.40919 0.24906
 N993 N 0.72552 0.60935 0.25480
 C994 C 0.72249 0.62389 0.27402
 N995 N 0.70433 0.61927 0.28947
 N996 N 0.68975 0.60073 0.28586
 C997 C 0.69273 0.58610 0.26666
 N998 N 0.71091 0.59083 0.25118
 N999 N 0.20427 0.11919 0.78899
 C1000 C 0.22232 0.12388 0.77342
 N1001 N 0.22520 0.10940 0.75414
 N1002 N 0.21056 0.09089 0.75057
 C1003 C 0.19248 0.08610 0.76615
 N1004 N 0.18966 0.10066 0.78543
 N1005 N 0.24512 0.27599 0.10871
 C1006 C 0.22592 0.27885 0.12330
 N1007 N 0.21041 0.29700 0.11885
 N1008 N 0.21395 0.31173 0.10043
 C1009 C 0.23316 0.30893 0.08577
 N1010 N 0.24868 0.29076 0.09032
 N1011 N 0.71083 0.79739 0.61897
 C1012 C 0.72632 0.77922 0.62338
 N1013 N 0.74553 0.77637 0.60879
 N1014 N 0.74908 0.79115 0.59041
 C1015 C 0.73356 0.80933 0.58589
 N1016 N 0.71437 0.81214 0.60057
 N1017 N 0.78924 0.79738 0.38104
 C1018 C 0.77377 0.77917 0.37663
 N1019 N 0.75456 0.77627 0.39121
 N1020 N 0.75097 0.79105 0.40957
 C1021 C 0.76645 0.80928 0.41408
 N1022 N 0.78566 0.81213 0.39942
 N1023 N 0.28914 0.29716 -0.11915
 C1024 C 0.27367 0.27897 -0.12365
 N1025 N 0.25440 0.27608 -0.10912
 N1026 N 0.25077 0.29084 -0.09074
 C1027 C 0.26627 0.30904 -0.08613
 N1028 N 0.28551 0.31188 -0.10074
 N1029 N 0.71099 0.20280 -0.11889
 C1030 C 0.72644 0.22101 -0.12340
 N1031 N 0.74569 0.22393 -0.10887
 N1032 N 0.74934 0.20919 -0.09047
 C1033 C 0.73386 0.19098 -0.08586
 N1034 N 0.71462 0.18809 -0.10048
 N1035 N 0.21061 0.70305 0.38112
 C1036 C 0.22612 0.72124 0.37674
 N1037 N 0.24533 0.72405 0.39134
 N1038 N 0.24888 0.70922 0.40967
 C1039 C 0.23336 0.69101 0.41415
 N1040 N 0.21415 0.68824 0.39948
 N1041 N 0.28869 0.70297 0.61910
 C1042 C 0.27315 0.72112 0.62348
 N1043 N 0.25396 0.72391 0.60885
 N1044 N 0.25047 0.70909 0.59048
 C1045 C 0.26603 0.69094 0.58600
 N1046 N 0.28521 0.68819 0.60072
 N1047 N 0.75525 0.22395 0.10910
 C1048 C 0.77446 0.22105 0.12368
 N1049 N 0.78993 0.20287 0.11921
 N1050 N 0.78634 0.18815 0.10080
 C1051 C 0.76713 0.19100 0.08614
 N1052 N 0.75165 0.20920 0.09071
 N1053 N 0.49552 0.35842 0.52546
 C1054 C 0.47638 0.37310 0.52831
 N1055 N 0.46084 0.36869 0.54646
 N1056 N 0.46431 0.35026 0.56120
 C1057 C 0.48348 0.33552 0.55841
 N1058 N 0.49901 0.34001 0.54023
 N1059 N -0.00458 0.85876 0.02502
 C1060 C -0.02371 0.87344 0.02790
 N1061 N -0.03922 0.86907 0.04608
 N1062 N -0.03573 0.85065 0.06082
 C1063 C -0.01659 0.83589 0.05799
 N1064 N -0.00108 0.84037 0.03979
 N1065 N 0.03947 0.63108 0.04600
 C1066 C 0.02381 0.62654 0.02800
 N1067 N 0.00448 0.64100 0.02535
 N1068 N 0.00096 0.65936 0.04014
 C1069 C 0.01663 0.66403 0.05815
 N1070 N 0.03596 0.64948 0.06077
 N1071 N 0.50446 0.14098 0.52572
 C1072 C 0.52376 0.12647 0.52832
 N1073 N 0.53948 0.13099 0.54629
 N1074 N 0.53602 0.14938 0.56109
 C1075 C 0.51670 0.16396 0.55854
 N1076 N 0.50099 0.15934 0.54054
 N1077 N -0.00499 0.14148 0.47470
 C1078 C -0.02412 0.12677 0.47187
 N1079 N -0.03967 0.13110 0.45372
 N1080 N -0.03622 0.14952 0.43895
 C1081 C -0.01707 0.16430 0.44173
 N1082 N -0.00152 0.15986 0.45990
 N1083 N 0.49549 0.64123 0.97481
 C1084 C 0.47636 0.62652 0.97197
 N1085 N 0.46079 0.63090 0.95384
 N1086 N 0.46423 0.64935 0.93912
 C1087 C 0.48338 0.66413 0.94191
 N1088 N 0.49894 0.65966 0.96006
 N1089 N 0.50441 0.85902 0.97466
 C1090 C 0.52378 0.87346 0.97205
 N1091 N 0.53945 0.86891 0.95406
 N1092 N 0.53590 0.85053 0.93926
 C1093 C 0.51653 0.83601 0.94184
 N1094 N 0.50085 0.84068 0.95984
 N1095 N 0.00399 0.35910 0.47438
 C1096 C 0.02332 0.37359 0.47171
 N1097 N 0.03900 0.36902 0.45373
 N1098 N 0.03550 0.35060 0.43899
 C1099 C 0.01616 0.33604 0.44162
 N1100 N 0.00048 0.34071 0.45962
 N1101 N 0.35907 0.52406 0.49552
 C1102 C 0.37357 0.52695 0.47624
 N1103 N 0.36886 0.54496 0.46063
 N1104 N 0.35032 0.55952 0.46416
 C1105 C 0.33576 0.55671 0.48344
 N1106 N 0.34054 0.53866 0.49906
 N1107 N 0.85932 0.02441 -0.00455
 C1108 C 0.87385 0.02741 -0.02378
 N1109 N 0.86929 0.04559 -0.03923
 N1110 N 0.85083 0.06021 -0.03561
 C1111 C 0.83621 0.05727 -0.01639
 N1112 N 0.84086 0.03907 -0.00092
 N1113 N 0.64132 0.02413 0.00498
 C1114 C 0.62669 0.02720 0.02413
 N1115 N 0.63119 0.04545 0.03950
 N1116 N 0.64968 0.06008 0.03590
 C1117 C 0.66439 0.05707 0.01677
 N1118 N 0.65980 0.03880 0.00136
 N1119 N 0.13049 0.54572 0.53893
 C1120 C 0.12610 0.52737 0.52364
 N1121 N 0.14085 0.52416 0.50462
 N1122 N 0.15936 0.53879 0.50104
 C1123 C 0.16385 0.55716 0.51636
 N1124 N 0.14901 0.56031 0.53537
 N1125 N 0.13059 0.45425 -0.03910
 C1126 C 0.12626 0.47264 -0.02385
 N1127 N 0.14098 0.47583 -0.00480
 N1128 N 0.15942 0.46114 -0.00115
 C1129 C 0.16386 0.44274 -0.01644
 N1130 N 0.14904 0.43960 -0.03547
 N1131 N 0.64111 0.97597 0.49515
 C1132 C 0.62634 0.97274 0.47614
 N1133 N 0.63071 0.95439 0.46085
 N1134 N 0.64922 0.93981 0.46441
 C1135 C 0.66407 0.94298 0.48341
 N1136 N 0.65960 0.96135 0.49873
 N1137 N 0.85878 0.97598 0.50461
 C1138 C 0.87334 0.97296 0.52381
 N1139 N 0.86878 0.95479 0.53927
 N1140 N 0.85029 0.94018 0.53568
 C1141 C 0.83564 0.94314 0.51649
 N1142 N 0.84029 0.96133 0.50102
 N1143 N 0.35909 0.47565 0.00463
 C1144 C 0.37356 0.47271 0.02392
 N1145 N 0.36881 0.45469 0.03950
 N1146 N 0.35025 0.44014 0.03593
 C1147 C 0.33572 0.44300 0.01664
 N1148 N 0.34054 0.46106 0.00105
 N1149 N 0.52592 0.49513 0.35878
 C1150 C 0.52878 0.47591 0.37337
 N1151 N 0.54697 0.46045 0.36895
 N1152 N 0.56173 0.46403 0.35056
 C1153 C 0.55892 0.48324 0.33589
 N1154 N 0.54071 0.49873 0.34042
 N1155 N 0.02571 -0.00463 0.85848
 C1156 C 0.02857 -0.02383 0.87309
 N1157 N 0.04672 -0.03935 0.86863
 N1158 N 0.06142 -0.03582 0.85020
 C1159 C 0.05861 -0.01663 0.83551
 N1160 N 0.04045 -0.00109 0.84007
 N1161 N 0.04653 0.03943 0.63109
 C1162 C 0.02833 0.02397 0.62661
 N1163 N 0.02542 0.00472 0.64115
 N1164 N 0.04019 0.00107 0.65951
 C1165 C 0.05842 0.01654 0.66408
 N1166 N 0.06127 0.03579 0.64948
 N1167 N 0.52596 0.50451 0.14135
 C1168 C 0.52882 0.52377 0.12680
 N1169 N 0.54701 0.53924 0.13125
 N1170 N 0.56178 0.53564 0.14962
 C1171 C 0.55897 0.51639 0.16424
 N1172 N 0.54076 0.50089 0.15969
 N1173 N 0.45312 -0.03934 0.13133
 C1174 C 0.47129 -0.02382 0.12691
 N1175 N 0.47415 -0.00463 0.14154
 N1176 N 0.45937 -0.00110 0.15993
 C1177 C 0.44118 -0.01664 0.16444
 N1178 N 0.43838 -0.03583 0.14974
 N1179 N 0.95309 0.46072 0.63108
 C1180 C 0.97129 0.47618 0.62660
 N1181 N 0.97423 0.49541 0.64117
 N1182 N 0.95949 0.49902 0.65957
 C1183 C 0.94127 0.48354 0.66414
 N1184 N 0.93839 0.46432 0.64950
 N1185 N 0.97431 0.50468 0.85860
 C1186 C 0.97142 0.52388 0.87321
 N1187 N 0.95327 0.53938 0.86875
 N1188 N 0.93856 0.53584 0.85032
 C1189 C 0.94139 0.51664 0.83564
 N1190 N 0.95957 0.50113 0.84019
 N1191 N 0.45320 0.03928 0.36887
 C1192 C 0.47139 0.02382 0.37332
 N1193 N 0.47428 0.00460 0.35874
 N1194 N 0.45949 0.00097 0.34038
 C1195 C 0.44126 0.01644 0.33584
 N1196 N 0.43844 0.03566 0.35049
   
