data_POSCAR
  _audit_creation_date              2014-09-24
  _audit_creation_method            'ToBaCCo'
  _symmetry_space_group_name_H-M    'P1'
  _symmetry_Int_Tables_number       1
  _symmetry_cell_setting            triclinic
  loop_
  _symmetry_equiv_pos_as_xyz
 x,y,z
_cell_length_a 39.5495
_cell_length_b 39.7040
_cell_length_c 11.0642
_cell_angle_alpha 90.220900
_cell_angle_beta 89.826400
_cell_angle_gamma 119.809500
loop_
  _atom_site_label
  _atom_site_type_symbol
  _atom_site_fract_x
  _atom_site_fract_y
  _atom_site_fract_z
C1 C 0.22632 0.50721 0.44796
 C2 C 0.21786 0.49955 0.57250
 C3 C 0.24001 0.48955 0.64480
 C4 C 0.27119 0.48709 0.59785
 C5 C 0.28380 0.49802 0.47590
 C6 C 0.26001 0.50736 0.40172
 H7 H 0.26658 0.51293 0.30635
 H8 H 0.23217 0.48265 0.73941
 C9 C 0.49982 -0.28014 0.42471
 C10 C 0.49912 -0.28045 0.55253
 C11 C 0.50157 -0.24874 0.61683
 C12 C 0.50515 -0.21602 0.55648
 C13 C 0.50478 -0.21637 0.42825
 C14 C 0.50197 -0.24819 0.36431
 H15 H 0.50269 -0.24749 0.26626
 H16 H 0.50155 -0.24930 0.71484
 C17 C 1.27831 0.79491 0.43371
 C18 C 1.27967 0.78920 0.55966
 C19 C 1.24838 0.75769 0.61746
 C20 C 1.21556 0.73096 0.55265
 C21 C 1.21345 0.73725 0.42748
 C22 C 1.24489 0.76854 0.36967
 H23 H 1.24354 0.77184 0.27280
 H24 H 1.24981 0.75383 0.71395
 C25 C 0.78169 0.50821 0.45075
 C26 C 0.78937 0.51300 0.57660
 C27 C 0.76483 0.51881 0.65401
 C28 C 0.72944 0.51372 0.61228
 C29 C 0.72082 0.50965 0.48533
 C30 C 0.74831 0.50823 0.40618
 H31 H 0.74280 0.50512 0.30979
 H32 H 0.77034 0.52100 0.75067
 C33 C 0.47255 0.26718 0.43186
 C34 C 0.47891 0.26997 0.55901
 C35 C 0.48186 0.24009 0.61795
 C36 C 0.48152 0.20920 0.55430
 C37 C 0.47578 0.20724 0.42747
 C38 C 0.47041 0.23545 0.36866
 H39 H 0.46837 0.23477 0.27083
 H40 H 0.48420 0.24073 0.71570
 C41 C 0.73210 0.21983 0.43873
 C42 C 0.73033 0.21961 0.56671
 C43 C 0.76166 0.24815 0.63362
 C44 C 0.79575 0.27657 0.57630
 C45 C 0.79720 0.27723 0.44768
 C46 C 0.76570 0.24867 0.38145
 H47 H 0.76716 0.24930 0.28359
 H48 H 0.75991 0.24728 0.73156
 O49 O 0.95644 0.42262 0.23544
 O50 O 0.91023 0.42515 0.11586
 C51 C 0.92068 0.40997 0.20134
 O52 O 1.04954 0.59895 0.20780
 O53 O 1.09622 0.59361 0.10182
 C54 C 1.08537 0.61205 0.17542
 O55 O 0.94142 0.53176 0.21798
 O56 O 0.90279 0.47819 0.10356
 C57 C 0.90735 0.50346 0.18587
 O58 O 1.06649 0.48453 0.22604
 O59 O 1.10515 0.53766 0.11107
 C60 C 1.10076 0.51241 0.19247
 Zr61 Zr 1.00918 0.46963 0.16797
 O62 O 1.01230 0.47451 0.35884
 O63 O 1.01406 0.41899 0.16924
 Zr64 Zr 0.99834 0.54842 0.15337
 O65 O 1.00237 0.55255 0.34429
 O66 O 0.98733 0.59536 0.14643
 O67 O 0.96878 0.48877 0.18299
 O68 O 1.03772 0.52933 0.18284
 O69 O 1.06644 0.47985 -0.19018
 O70 O 1.10532 0.53575 -0.08498
 C71 C 1.10030 0.50885 -0.16100
 O72 O 0.94545 0.52848 -0.22623
 O73 O 0.90476 0.47680 -0.10635
 C74 C 0.91135 0.50143 -0.19296
 O75 O 1.05264 0.59161 -0.22238
 O76 O 1.09842 0.58915 -0.10145
 C77 C 1.08838 0.60378 -0.18974
 O78 O 0.95817 0.41774 -0.20379
 O79 O 0.91135 0.42190 -0.09547
 C80 C 0.92218 0.40455 -0.17394
 Zr81 Zr 1.00964 0.46553 -0.13646
 O82 O 1.01421 0.46434 -0.32707
 O83 O 1.01302 0.41412 -0.12195
 Zr84 Zr 1.00006 0.54544 -0.15095
 O85 O 1.00130 0.54834 -0.34168
 O86 O 0.99093 0.59368 -0.14321
 Zr87 Zr 0.94616 0.47317 0.00610
 Zr88 Zr 1.06200 0.54105 0.00832
 O89 O 1.03808 0.52437 -0.16552
 O90 O 0.97033 0.48496 -0.16922
 O91 O 1.04475 0.48171 0.01694
 O92 O 0.96462 0.53285 -0.00080
 O93 O 0.97639 0.44219 0.01625
 O94 O 1.03315 0.57355 0.00050
 H95 H 1.05548 0.54070 0.25281
 H96 H 0.94480 0.54118 -0.00394
 H97 H 1.05504 0.53259 -0.23732
 H98 H 0.96161 0.41353 0.01832
 H99 H 1.00583 0.61424 0.08749
 H100 H 1.01608 0.61696 -0.12292
 H101 H 1.00424 0.52642 -0.37100
 H102 H 0.99121 0.46436 -0.36198
 H103 H 1.03338 0.41903 -0.06155
 H104 H 1.01537 0.41302 0.25542
 H105 H 0.98797 0.47327 0.38740
 H106 H 0.98159 0.52772 0.37755
 O107 O 0.40633 0.46560 0.18577
 O108 O 0.41734 0.51887 0.07572
 C109 C 0.39715 0.49141 0.15210
 O110 O 0.58075 0.53163 0.22075
 O111 O 0.57290 0.47904 0.11055
 C112 C 0.58936 0.50479 0.19593
 O113 O 0.52520 0.58479 0.20773
 O114 O 0.47415 0.57544 0.08636
 C115 C 0.49943 0.59367 0.17129
 O116 O 0.46062 0.40904 0.19107
 O117 O 0.51596 0.42092 0.09025
 C118 C 0.48780 0.40064 0.16428
 Zr119 Zr 0.45247 0.45596 0.13380
 O120 O 0.45188 0.45454 0.32521
 O121 O 0.39924 0.40291 0.13109
 Zr122 Zr 0.53731 0.54143 0.14424
 O123 O 0.53842 0.54326 0.33533
 O124 O 0.59051 0.59429 0.13010
 O125 O 0.47677 0.51570 0.16025
 O126 O 0.51125 0.48213 0.16372
 O127 O 0.46274 0.40853 -0.21138
 O128 O 0.51707 0.42069 -0.10520
 C129 C 0.48838 0.39924 -0.17719
 O130 O 0.53168 0.58607 -0.22983
 O131 O 0.47780 0.57610 -0.12218
 C132 C 0.50518 0.59494 -0.20052
 O133 O 0.58970 0.53516 -0.21259
 O134 O 0.57738 0.48111 -0.10340
 C135 C 0.59798 0.50883 -0.17922
 O136 O 0.41315 0.46737 -0.24076
 O137 O 0.42082 0.51924 -0.12865
 C138 C 0.40290 0.49259 -0.20981
 Zr139 Zr 0.45729 0.45753 -0.17052
 O140 O 0.46451 0.45730 -0.36006
 O141 O 0.40274 0.40576 -0.17912
 Zr142 Zr 0.54216 0.54236 -0.15938
 O143 O 0.54826 0.54279 -0.34964
 O144 O 0.59456 0.59554 -0.13690
 Zr145 Zr 0.46763 0.52787 -0.01811
 Zr146 Zr 0.52675 0.47051 -0.00672
 O147 O 0.51715 0.48291 -0.18367
 O148 O 0.48237 0.51734 -0.19217
 O149 O 0.46604 0.43335 -0.01558
 O150 O 0.52838 0.56471 -0.01036
 O151 O 0.43156 0.46712 -0.02236
 O152 O 0.56407 0.53102 -0.00263
 H153 H 0.51763 0.47355 0.23867
 H154 H 0.53935 0.59318 -0.00988
 H155 H 0.52671 0.47369 -0.25191
 H156 H 0.40284 0.45506 -0.02689
 H157 H 0.59784 0.60418 0.21380
 H158 H 0.60457 0.60482 -0.21946
 H159 H 0.52364 0.53878 -0.38538
 H160 H 0.46675 0.48163 -0.39115
 H161 H 0.39726 0.39887 -0.26591
 H162 H 0.39773 0.39055 0.05198
 H163 H 0.44970 0.47699 0.35426
 H164 H 0.51105 0.53122 0.36273
 O165 O 0.47465 0.05704 0.22083
 O166 O 0.52460 0.09978 0.09910
 C167 C 0.49926 0.09185 0.18479
 O168 O 0.54489 -0.04904 0.19856
 O169 O 0.49058 -0.09257 0.09401
 C170 C 0.51877 -0.08426 0.16876
 O171 O 0.59641 0.06059 0.19810
 O172 O 0.58287 0.10136 0.09017
 C173 C 0.60408 0.09523 0.16629
 O174 O 0.41920 -0.05137 0.21390
 O175 O 0.43059 -0.09434 0.10627
 C176 C 0.41074 -0.08626 0.18314
 Zr177 Zr 0.46494 0.00289 0.15530
 O178 O 0.46620 0.00023 0.34621
 O179 O 0.41180 0.00353 0.15656
 Zr180 Zr 0.55109 0.00498 0.14294
 O181 O 0.54921 0.00271 0.33423
 O182 O 0.60665 0.00954 0.14516
 O183 O 0.52514 0.03903 0.17050
 O184 O 0.49200 -0.02982 0.17309
 O185 O 0.41473 -0.05494 -0.20185
 O186 O 0.42799 -0.09538 -0.09115
 C187 C 0.40755 -0.08944 -0.16979
 O188 O 0.58937 0.05726 -0.23399
 O189 O 0.57992 0.09984 -0.11724
 C190 C 0.59761 0.09205 -0.20232
 O191 O 0.53885 -0.05178 -0.22125
 O192 O 0.48676 -0.09407 -0.10546
 C193 C 0.51301 -0.08652 -0.18736
 O194 O 0.46706 0.05453 -0.21099
 O195 O 0.52156 0.09820 -0.10882
 C196 C 0.49312 0.08993 -0.18268
 Zr197 Zr 0.46043 0.00086 -0.15024
 O198 O 0.45803 -0.00317 -0.34130
 O199 O 0.40709 0.00111 -0.14616
 Zr200 Zr 0.54675 0.00281 -0.16358
 O201 O 0.54100 -0.00224 -0.35403
 O202 O 0.60256 0.00791 -0.17436
 Zr203 Zr 0.53352 0.06063 -0.00740
 Zr204 Zr 0.47821 -0.05458 -0.00055
 O205 O 0.48709 -0.03197 -0.17684
 O206 O 0.51995 0.03652 -0.18260
 O207 O 0.43951 -0.03272 0.00537
 O208 O 0.57121 0.03743 -0.01333
 O209 O 0.47253 0.03524 0.00196
 O210 O 0.53920 -0.03039 -0.00943
 H211 H 0.48413 -0.04731 0.24400
 H212 H 0.59978 0.05498 -0.01776
 H213 H 0.47768 -0.04996 -0.24684
 H214 H 0.46017 0.05167 0.00498
 H215 H 0.60756 -0.00552 0.07521
 H216 H 0.60178 -0.01357 -0.12717
 H217 H 0.53835 0.01984 -0.38339
 H218 H 0.48001 0.02108 -0.37360
 H219 H 0.39298 -0.01327 -0.07288
 H220 H 0.40465 0.00325 0.24265
 H221 H 0.49103 0.02263 0.37366
 H222 H 0.55235 0.02763 0.36405
 C223 C 1.13027 0.48078 0.31308
 C224 C 1.16030 0.47883 0.37187
 C225 C 1.19877 0.50988 0.37103
 C226 C 1.20677 0.54372 0.30512
 C227 C 1.17583 0.54620 0.24512
 C228 C 1.13648 0.51405 0.24984
 C229 C 1.18586 0.58157 0.18698
 N230 N 1.22307 0.61142 0.18848
 N231 N 1.25138 0.60893 0.24479
 C232 C 1.24448 0.57632 0.30360
 H233 H 1.10147 0.45546 0.31834
 H234 H 1.15319 0.45237 0.41991
 H235 H 1.16514 0.58692 0.14192
 H236 H 1.26857 0.57649 0.34984
 C237 C 0.46798 0.62166 0.29881
 C238 C 0.46835 0.65228 0.36222
 C239 C 0.50068 0.68998 0.35726
 C240 C 0.53322 0.69677 0.28462
 C241 C 0.53269 0.66552 0.21993
 C242 C 0.49997 0.62762 0.22877
 C243 C 0.56520 0.67333 0.14805
 N244 N 0.59649 0.70962 0.14451
 N245 N 0.59758 0.73863 0.20826
 C246 C 0.56726 0.73345 0.27862
 H247 H 0.44280 0.59289 0.30651
 H248 H 0.44280 0.64654 0.41415
 H249 H 0.56612 0.65105 0.09453
 H250 H 0.57037 0.75802 0.32998
 C251 C 0.37923 -0.14380 0.31625
 C252 C 0.34723 -0.17163 0.38097
 C253 C 0.31018 -0.17499 0.37009
 C254 C 0.30587 -0.14919 0.29063
 C255 C 0.33837 -0.12147 0.22295
 C256 C 0.37538 -0.11837 0.23808
 C257 C 0.33281 -0.09735 0.14211
 N258 N 0.29764 -0.09941 0.13486
 N259 N 0.26773 -0.12382 0.20318
 C260 C 0.27069 -0.14843 0.28136
 H261 H 0.40739 -0.14163 0.32916
 H262 H 0.35136 -0.19144 0.43773
 H263 H 0.35605 -0.07693 0.08438
 H264 H 0.24564 -0.16662 0.33675
 C265 C 0.87786 0.53603 0.30245
 C266 C 0.84785 0.53791 0.36222
 C267 C 0.81021 0.50594 0.36636
 C268 C 0.80245 0.47157 0.30392
 C269 C 0.83344 0.46877 0.24631
 C270 C 0.87208 0.50181 0.24509
 C271 C 0.82422 0.43242 0.19626
 N272 N 0.78711 0.40238 0.19869
 N273 N 0.75826 0.40567 0.24855
 C274 C 0.76466 0.43914 0.30117
 H275 H 0.90628 0.56197 0.30291
 H276 H 0.85436 0.56452 0.40881
 H277 H 0.84557 0.42652 0.15745
 H278 H 0.74012 0.43981 0.34173
 C279 C 0.44971 0.33635 0.26331
 C280 C 0.44543 0.30408 0.32618
 C281 C 0.47790 0.30100 0.35855
 C282 C 0.51505 0.32886 0.31474
 C283 C 0.51962 0.36094 0.24461
 C284 C 0.48639 0.36584 0.22353
 C285 C 0.55759 0.38674 0.20122
 N286 N 0.58754 0.38029 0.22393
 N287 N 0.58296 0.35054 0.29046
 C288 C 0.54797 0.32508 0.33828
 H289 H 0.42372 0.33808 0.24508
 H290 H 0.41649 0.28177 0.35277
 H291 H 0.56483 0.41221 0.15009
 H292 H 0.54624 0.30193 0.39343
 C293 C 0.65757 0.12121 0.31791
 C294 C 0.68794 0.15064 0.38319
 C295 C 0.69969 0.18969 0.36302
 C296 C 0.68199 0.19910 0.26737
 C297 C 0.65373 0.16920 0.19160
 C298 C 0.63905 0.12930 0.22305
 C299 C 0.64189 0.18100 0.08729
 N300 N 0.65391 0.21904 0.06868
 N301 N 0.67735 0.24640 0.14601
 C302 C 0.69159 0.23773 0.24489
 H303 H 0.64859 0.09160 0.34309
 H304 H 0.70217 0.14266 0.45156
 H305 H 0.62427 0.16114 0.01777
 H306 H 0.71028 0.26121 0.30476
 C307 C 0.46229 0.11300 -0.33219
 C308 C 0.45985 0.14149 -0.39824
 C309 C 0.48668 0.18102 -0.38137
 C310 C 0.51614 0.19130 -0.29235
 C311 C 0.51549 0.16275 -0.21366
 C312 C 0.49006 0.12256 -0.23999
 C313 C 0.54118 0.17623 -0.11391
 N314 N 0.56939 0.21401 -0.10683
 N315 N 0.57354 0.23938 -0.19179
 C316 C 0.54812 0.22908 -0.28483
 H317 H 0.44169 0.08299 -0.35353
 H318 H 0.43590 0.13233 -0.46081
 H319 H 0.53894 0.15801 -0.03935
 H320 H 0.55385 0.24976 -0.35540
 C321 C 0.66923 0.53152 -0.17290
 C322 C 0.70262 0.53097 -0.21512
 C323 C 0.70002 0.50406 -0.30325
 C324 C 0.66442 0.47335 -0.33528
 C325 C 0.62990 0.48532 -0.32475
 C326 C 0.63296 0.51005 -0.23047
 C327 C 0.59238 0.46434 -0.42058
 N328 N 0.59674 0.42214 -0.53907
 N329 N 0.63105 0.41622 -0.52575
 C330 C 0.66366 0.43873 -0.43015
 H331 H 0.67239 0.55118 -0.10004
 H332 H 0.73093 0.55347 -0.18434
 H333 H 0.56959 0.47221 -0.41237
 H334 H 0.68841 0.43408 -0.42996
 C335 C 0.85216 0.35613 -0.20527
 C336 C 0.82114 0.32507 -0.26374
 C337 C 0.82762 0.30366 -0.35239
 C338 C 0.86621 0.31070 -0.36943
 C339 C 0.89838 0.34298 -0.31207
 C340 C 0.89123 0.36755 -0.23236
 C341 C 0.93585 0.34788 -0.33494
 N342 N 0.94021 0.32242 -0.40606
 N343 N 0.90990 0.29163 -0.45462
 C344 C 0.87315 0.28455 -0.43666
 H345 H 0.84516 0.37248 -0.14141
 H346 H 0.79188 0.31946 -0.24479
 H347 H 0.96211 0.37030 -0.29557
 H348 H 0.84950 0.25807 -0.47344
 C349 C 0.48363 -0.13982 -0.33550
 C350 C 0.48160 -0.17135 -0.39742
 C351 C 0.50868 -0.18387 -0.37632
 C352 C 0.53832 -0.16373 -0.28789
 C353 C 0.53978 -0.13194 -0.22338
 C354 C 0.51245 -0.11981 -0.24885
 C355 C 0.56885 -0.11303 -0.13540
 N356 N 0.59566 -0.12423 -0.11662
 N357 N 0.59543 -0.15287 -0.18026
 C358 C 0.56802 -0.17272 -0.26562
 H359 H 0.46234 -0.13098 -0.35524
 H360 H 0.45784 -0.18679 -0.46032
 H361 H 0.57061 -0.08936 -0.08179
 H362 H 0.57021 -0.19485 -0.31622
 C363 C 0.34465 0.50037 -0.18826
 C364 C 0.30854 0.49511 -0.22421
 C365 C 0.28932 0.47338 -0.32730
 C366 C 0.30087 0.44980 -0.38176
 C367 C 0.34856 0.46632 -0.36491
 C368 C 0.36591 0.48789 -0.25929
 C369 C 0.37429 0.45689 -0.46277
 N370 N 0.35165 0.42995 -0.57169
 N371 N 0.29747 0.40979 -0.59375
 C372 C 0.27353 0.41992 -0.49728
 H373 H 0.35718 0.51670 -0.10597
 H374 H 0.29756 0.51173 -0.17730
 H375 H 0.40536 0.46901 -0.45591
 H376 H 0.24319 0.41122 -0.51112
 C377 C 1.13438 0.67362 -0.22335
 C378 C 1.16544 0.70415 -0.28410
 C379 C 1.18387 0.69706 -0.38171
 C380 C 1.17100 0.65815 -0.41643
 C381 C 1.13742 0.62742 -0.36152
 C382 C 1.11985 0.63520 -0.26120
 C383 C 1.12301 0.58978 -0.40843
 N384 N 1.14276 0.58309 -0.49694
 N385 N 1.17600 0.61153 -0.54152
 C386 C 1.19103 0.64871 -0.50321
 H387 H 1.12141 0.68004 -0.14667
 H388 H 1.17507 0.73364 -0.25513
 H389 H 1.09651 0.56562 -0.37553
 H390 H 1.21845 0.67057 -0.54107
 C391 C 0.87803 0.53666 -0.25170
 C392 C 0.84855 0.53989 -0.30833
 C393 C 0.81879 0.50822 -0.36989
 C394 C 0.81779 0.47192 -0.36861
 C395 C 0.84858 0.46907 -0.31375
 C396 C 0.87847 0.50160 -0.25340
 C397 C 0.84842 0.43374 -0.32186
 N398 N 0.81772 0.40242 -0.37290
 N399 N 0.78732 0.40422 -0.41647
 C400 C 0.78613 0.43776 -0.41492
 H401 H 0.90080 0.56189 -0.20574
 H402 H 0.84932 0.56757 -0.30582
 H403 H 0.87243 0.43084 -0.28842
 H404 H 0.76032 0.43734 -0.44856
 C405 C 0.45522 0.34267 -0.31558
 C406 C 0.45359 0.31229 -0.38273
 C407 C 0.48220 0.30155 -0.37121
 C408 C 0.51123 0.32037 -0.28058
 C409 C 0.50959 0.34752 -0.20040
 C410 C 0.48400 0.36209 -0.22691
 C411 C 0.53531 0.36038 -0.10159
 N412 N 0.56411 0.35139 -0.09417
 N413 N 0.56913 0.33071 -0.17988
 C414 C 0.54412 0.31569 -0.27400
 H415 H 0.43361 0.35107 -0.33480
 H416 H 0.42905 0.29659 -0.44235
 H417 H 0.53246 0.37663 -0.02900
 H418 H 0.55082 0.30168 -0.34578
 C419 C 0.66735 0.12857 -0.25646
 C420 C 0.69978 0.16028 -0.30740
 C421 C 0.69607 0.18928 -0.36742
 C422 C 0.65933 0.18706 -0.37196
 C423 C 0.62620 0.15435 -0.32296
 C424 C 0.63040 0.12511 -0.26371
 C425 C 0.58972 0.15162 -0.33779
 N426 N 0.58719 0.18106 -0.39025
 N427 N 0.61864 0.21277 -0.43012
 C428 C 0.65458 0.21664 -0.42403
 H429 H 0.67113 0.10664 -0.21040
 H430 H 0.72783 0.16169 -0.30306
 H431 H 0.56325 0.12629 -0.30925
 H432 H 0.67906 0.24278 -0.45953
 C433 C 1.12982 0.47376 -0.25272
 C434 C 1.15709 0.47088 -0.32298
 C435 C 1.18917 0.50412 -0.36861
 C436 C 1.19580 0.54130 -0.33474
 C437 C 1.16899 0.54458 -0.25630
 C438 C 1.13436 0.51002 -0.22074
 C439 C 1.17834 0.58192 -0.21608
 N440 N 1.21125 0.61350 -0.25426
 N441 N 1.23629 0.61006 -0.33262
 C442 C 1.22999 0.57439 -0.37473
 H443 H 1.10465 0.44702 -0.22310
 H444 H 1.15288 0.44231 -0.34358
 H445 H 1.16054 0.58712 -0.15440
 H446 H 1.24631 0.60530 -0.37139
 C447 C 0.46988 0.62567 -0.28780
 C448 C 0.46815 0.65585 -0.34519
 C449 C 0.50229 0.68936 -0.37922
 C450 C 0.53894 0.69374 -0.34851
 C451 C 0.54079 0.66387 -0.28441
 C452 C 0.50584 0.62871 -0.25890
 C453 C 0.57758 0.67108 -0.24463
 N454 N 0.61015 0.70464 -0.27464
 N455 N 0.60846 0.73178 -0.34029
 C456 C 0.57399 0.72754 -0.37807
 H457 H 0.44280 0.59947 -0.26703
 H458 H 0.43995 0.65263 -0.36617
 H459 H 0.58086 0.65114 -0.18698
 H460 H 0.57431 0.75079 -0.42955
 C461 C 0.34618 -0.11694 -0.28449
 C462 C 0.31575 -0.14556 -0.35088
 C463 C 0.31195 -0.18218 -0.36451
 C464 C 0.33873 -0.19075 -0.30789
 C465 C 0.37013 -0.16168 -0.23916
 C466 C 0.37424 -0.12367 -0.22917
 C467 C 0.39616 -0.17225 -0.18688
 N468 N 0.39104 -0.20834 -0.20327
 N469 N 0.36182 -0.23505 -0.26862
 C470 C 0.33560 -0.22748 -0.32168
 H471 H 0.34784 -0.08893 -0.27772
 H472 H 0.29506 -0.13895 -0.39333
 H473 H 0.42077 -0.15314 -0.13351
 H474 H 0.31278 -0.25021 -0.37512
 C475 C 0.48236 -0.15160 0.24165
 C476 C 0.47870 -0.18349 0.30359
 C477 C 0.51106 -0.18230 0.35754
 C478 C 0.54843 -0.14944 0.34160
 C479 C 0.55260 -0.11727 0.27390
 C480 C 0.51878 -0.11775 0.22791
 C481 C 0.59061 -0.08660 0.25199
 N482 N 0.62171 -0.08739 0.30007
 N483 N 0.61755 -0.11697 0.36719
 C484 C 0.58201 -0.14809 0.38920
 H485 H 0.45602 -0.15330 0.20653
 H486 H 0.45008 -0.20886 0.31355
 H487 H 0.59629 -0.06257 0.19439
 H488 H 0.58038 -0.17168 0.44228
 C489 C 0.36312 0.52477 0.23866
 C490 C 0.34053 0.52813 0.33223
 C491 C 0.32101 0.49979 0.42276
 C492 C 0.33134 0.46918 0.42645
 C493 C 0.33753 0.45689 0.27596
 C494 C 0.36253 0.48986 0.21043
 C495 C 0.33061 0.40938 0.23949
 N496 N 0.32097 0.37363 0.33463
 N497 N 0.31460 0.36849 0.47265
 C498 C 0.31552 0.40001 0.57060
 H499 H 0.38130 0.55040 0.18548
 H500 H 0.33812 0.55414 0.33349
 H501 H 0.33523 0.40477 0.14599
 H502 H 0.30686 0.39227 0.66463
 C503 C 1.15519 0.66029 0.19977
 C504 C 1.18615 0.69026 0.26031
 C505 C 1.17964 0.71034 0.35282
 C506 C 1.14154 0.70368 0.37360
 C507 C 1.10957 0.67369 0.30931
 C508 C 1.11640 0.64950 0.22789
 C509 C 1.07262 0.67025 0.32792
 N510 N 1.06817 0.69358 0.40848
 N511 N 1.09807 0.72077 0.47069
 C512 C 1.13463 0.72684 0.45520
 H513 H 1.16203 0.64454 0.13331
 H514 H 1.21542 0.69612 0.24016
 H515 H 1.04730 0.65094 0.27665
 H516 H 1.15804 0.75016 0.50533
 C517 C 0.45821 0.11887 0.25191
 C518 C 0.45220 0.14717 0.30590
 C519 C 0.48361 0.18098 0.35229
 C520 C 0.52202 0.18802 0.33459
 C521 C 0.52820 0.15913 0.28057
 C522 C 0.49583 0.12393 0.24048
 C523 C 0.56662 0.16633 0.27165
 N524 N 0.59675 0.20127 0.30500
 N525 N 0.59100 0.22903 0.35097
 C526 C 0.55466 0.22331 0.36920
 H527 H 0.43312 0.09257 0.21932
 H528 H 0.42272 0.14191 0.31661
 H529 H 0.57305 0.14461 0.23926
 H530 H 0.55166 0.24648 0.40953
 C531 C 0.65797 0.52845 0.26022
 C532 C 0.68790 0.52958 0.33225
 C533 C 0.68291 0.50551 0.43261
 C534 C 0.64272 0.47824 0.46899
 C535 C 0.60602 0.47649 0.37202
 C536 C 0.61816 0.50238 0.27559
 C537 C 0.55593 0.44215 0.39733
 N538 N 0.53755 0.40972 0.50443
 N539 N 0.55511 0.39872 0.60937
 C540 C 0.60068 0.41813 0.64481
 H541 H 0.66670 0.54903 0.18651
 H542 H 0.71732 0.55095 0.30637
 H543 H 0.53554 0.44192 0.33535
 H544 H 0.61035 0.40779 0.72117
 C545 C 0.86493 0.37954 0.34188
 C546 C 0.83511 0.34746 0.40026
 C547 C 0.82924 0.31003 0.38012
 C548 C 0.85361 0.30484 0.29668
 C549 C 0.88420 0.33758 0.23797
 C550 C 0.88980 0.37514 0.26141
 C551 C 0.90810 0.33152 0.15679
 N552 N 0.90182 0.29517 0.13657
 N553 N 0.87331 0.26446 0.19221
 C554 C 0.84908 0.26802 0.27155
 H555 H 0.86878 0.40806 0.36034
 H556 H 0.81624 0.35174 0.46183
 H557 H 0.93174 0.35522 0.10943
 H558 H 0.82685 0.24204 0.31490
   
