data_POSCAR
  _audit_creation_date              2014-09-24
  _audit_creation_method            'ToBaCCo'
  _symmetry_space_group_name_H-M    'P1'
  _symmetry_Int_Tables_number       1
  _symmetry_cell_setting            triclinic
  loop_
  _symmetry_equiv_pos_as_xyz
 x,y,z
_cell_length_a 26.7011
_cell_length_b 26.5244
_cell_length_c 26.4222
_cell_angle_alpha 88.621500
_cell_angle_beta 89.871800
_cell_angle_gamma 89.738800
loop_
  _atom_site_label
  _atom_site_type_symbol
  _atom_site_fract_x
  _atom_site_fract_y
  _atom_site_fract_z
C1 C 0.16146 0.17736 0.22313
 C2 C 0.20501 0.14722 0.22064
 C3 C 0.24132 0.15582 0.18274
 C4 C 0.23299 0.19472 0.14645
 C5 C 0.19012 0.22515 0.14844
 C6 C 0.15462 0.21624 0.18677
 H7 H 0.21130 0.11739 0.24854
 H8 H 0.26005 0.20241 0.11682
 H9 H 0.12118 0.23937 0.18801
 C10 C -0.17609 0.82799 0.24394
 C11 C -0.21357 0.84057 0.20850
 C12 C -0.21957 0.81297 0.16434
 C13 C -0.18795 0.77142 0.15599
 C14 C -0.15029 0.75806 0.19096
 C15 C -0.14436 0.78683 0.23451
 H16 H -0.23798 0.87235 0.21520
 H17 H -0.19234 0.74989 0.12202
 H18 H -0.11541 0.77634 0.26137
 C19 C -0.19347 0.17548 -0.23336
 C20 C -0.24319 0.16936 -0.21574
 C21 C -0.26135 0.19702 -0.17502
 C22 C -0.22890 0.23043 -0.15093
 C23 C -0.17835 0.23379 -0.16481
 C24 C -0.16072 0.20618 -0.20612
 H25 H -0.26866 0.14465 -0.23509
 H26 H -0.24225 0.25177 -0.11912
 H27 H -0.12212 0.21035 -0.21807
 C28 C 0.17984 0.84603 -0.23883
 C29 C 0.21807 0.85908 -0.20508
 C30 C 0.22165 0.83546 -0.15684
 C31 C 0.18624 0.79808 -0.14321
 C32 C 0.14761 0.78554 -0.17643
 C33 C 0.14454 0.80987 -0.22377
 H34 H 0.24504 0.88734 -0.21683
 H35 H 0.18813 0.77905 -0.10651
 H36 H 0.11514 0.79925 -0.24944
 C37 C 0.17692 1.16504 0.75689
 C38 C 0.14582 1.20702 0.76425
 C39 C 0.15133 1.23701 0.80679
 C40 C 0.18811 1.22431 0.84276
 C41 C 0.21963 1.18234 0.83645
 C42 C 0.21394 1.15297 0.79317
 H43 H 0.11768 1.21714 0.73639
 H44 H 0.19216 1.24700 0.87597
 H45 H 0.23794 1.12056 0.78776
 C46 C 0.83523 0.81781 0.78038
 C47 C 0.79301 0.84908 0.78613
 C48 C 0.75837 0.84023 0.82542
 C49 C 0.76652 0.79968 0.85978
 C50 C 0.80820 0.76751 0.85468
 C51 C 0.84223 0.77714 0.81482
 H52 H 0.78658 0.88038 0.75996
 H53 H 0.74004 0.79264 0.89014
 H54 H 0.87471 0.75319 0.81047
 C55 C 0.16340 0.82247 1.22069
 C56 C 0.15327 0.78191 1.18863
 C57 C 0.18867 0.76639 1.15283
 C58 C 0.23456 0.79161 1.14892
 C59 C 0.24579 0.83136 1.18077
 C60 C 0.21013 0.84664 1.21654
 H61 H 0.11765 0.76263 1.19103
 H62 H 0.26213 0.77934 1.12171
 H63 H 0.21900 0.87761 1.24081
 C64 C 0.82949 1.16226 1.23737
 C65 C 0.79147 1.14755 1.20383
 C66 C 0.79295 1.16137 1.15247
 C67 C 0.83345 1.18929 1.13396
 C68 C 0.86986 1.20816 1.16665
 C69 C 0.86751 1.19512 1.21885
 H70 H 0.76049 1.12490 1.21761
 H71 H 0.83449 1.19961 1.09400
 H72 H 0.89606 1.20878 1.24407
 N73 N 0.53374 1.10217 0.94927
 N74 N 0.56431 1.13953 0.93902
 N75 N 0.42759 1.06302 0.93323
 N76 N 0.38645 1.07368 0.90729
 N77 N 0.43209 1.09326 0.97167
 N78 N 0.39432 1.12547 0.97285
 N79 N 0.53143 1.07084 0.91161
 N80 N 0.56163 1.08637 0.87420
 C81 C 0.58167 1.12943 0.89267
 C82 C 0.36606 1.11235 0.93289
 N83 N 0.44052 0.91840 0.95969
 N84 N 0.40375 0.88554 0.96073
 N85 N 0.53572 0.96112 0.90403
 N86 N 0.57022 0.96196 0.86811
 N87 N 0.54311 0.92282 0.93575
 N88 N 0.58299 0.89669 0.92240
 N89 N 0.43223 0.95449 0.92570
 N90 N 0.38907 0.94684 0.90237
 Mn91 Mn 0.48185 1.01235 0.91771
 C92 C 0.37211 0.90360 0.92496
 C93 C 0.59896 0.92125 0.88000
 N94 N 0.45723 1.08389 1.07778
 N95 N 0.41642 1.10800 1.09153
 N96 N 0.57075 1.05459 1.08436
 N97 N 0.61615 1.06027 1.10315
 N98 N 0.55933 1.09222 1.05319
 N99 N 0.59687 1.12414 1.04909
 N100 N 0.46838 1.04746 1.11041
 N101 N 0.43482 1.04551 1.14734
 Mn102 Mn 0.49527 1.09314 1.01320
 C103 C 0.40325 1.08396 1.13508
 C104 C 0.63157 1.10394 1.08071
 N105 N 0.56696 0.91346 1.04077
 N106 N 0.60292 0.87948 1.03806
 N107 N 0.47437 0.94053 1.10329
 N108 N 0.44260 0.93472 1.14102
 N109 N 0.46398 0.90987 1.06646
 N110 N 0.42404 0.88242 1.07828
 N111 N 0.57578 0.94527 1.07702
 N112 N 0.61793 0.93307 1.10076
 Mn113 Mn 0.50333 0.91558 1.00063
 Mn114 Mn 0.52288 0.99700 1.09426
 Cl115 Cl 0.50084 1.00448 1.00631
 C116 C 0.63446 0.89236 1.07525
 C117 C 0.41191 0.89825 1.12531
 N118 N 0.08224 0.44254 0.06572
 N119 N 0.09741 0.40231 0.09163
 N120 N 0.10163 0.55097 0.02750
 N121 N 0.13150 0.59022 0.02499
 N122 N 0.07782 0.54864 0.07106
 N123 N 0.09100 0.58677 0.09964
 N124 N 0.10505 0.44573 0.02165
 N125 N 0.13677 0.40780 0.01640
 C126 C 0.13138 0.38135 0.06049
 C127 C 0.12455 0.61206 0.06996
 N128 N 0.02671 0.56140 -0.09802
 N129 N 0.02075 0.60398 -0.12405
 N130 N 0.07382 0.45380 -0.08273
 N131 N 0.10116 0.41558 -0.09848
 N132 N 0.03102 0.45631 -0.10701
 N133 N 0.02798 0.42013 -0.14020
 N134 N 0.07054 0.55987 -0.07560
 N135 N 0.09575 0.60173 -0.08555
 Mn136 Mn 0.08833 0.50236 -0.02749
 C137 C 0.06409 0.62847 -0.11592
 C138 C 0.07194 0.39538 -0.13449
 N139 N -0.02586 0.54078 0.10289
 N140 N -0.02317 0.57832 0.13451
 N141 N -0.06352 0.43456 0.07334
 N142 N -0.08655 0.39123 0.08176
 N143 N -0.02049 0.43508 0.09741
 N144 N -0.01319 0.39195 0.12264
 N145 N -0.06943 0.54073 0.07973
 N146 N -0.09748 0.57889 0.09470
 Mn147 Mn 0.02857 0.49191 0.08492
 C148 C -0.06803 0.60146 0.12912
 C149 C -0.05546 0.36567 0.11372
 N150 N -0.07113 0.44933 -0.07615
 N151 N -0.07619 0.41040 -0.10553
 N152 N -0.10082 0.54809 -0.02443
 N153 N -0.13435 0.58448 -0.01913
 N154 N -0.07630 0.55419 -0.06726
 N155 N -0.09226 0.59464 -0.09240
 N156 N -0.09410 0.44161 -0.03257
 N157 N -0.11564 0.39655 -0.03154
 Mn158 Mn -0.02261 0.50559 -0.08745
 Mn159 Mn -0.08276 0.49099 0.02428
 Cl160 Cl 0.00281 0.49764 -0.00131
 C161 C -0.10474 0.37842 -0.07799
 C162 C -0.12836 0.61296 -0.06193
 N163 N 0.96046 -0.09638 0.56194
 N164 N 0.96174 -0.13114 0.59854
 N165 N 0.90212 -0.05801 0.46601
 N166 N 0.86582 -0.06028 0.43257
 N167 N 0.93653 -0.09240 0.45783
 N168 N 0.92472 -0.11890 0.41778
 N169 N 0.92427 -0.06381 0.56965
 N170 N 0.89986 -0.07523 0.61187
 C171 C 0.92394 -0.11708 0.62938
 C172 C 0.88022 -0.09855 0.40316
 N173 N 0.93007 0.08764 0.46355
 N174 N 0.91792 0.11721 0.42439
 N175 N 0.92010 0.04281 0.57356
 N176 N 0.88743 0.04958 0.60987
 N177 N 0.95013 0.08175 0.56845
 N178 N 0.93689 0.11693 0.60113
 N179 N 0.89777 0.05068 0.46939
 N180 N 0.86220 0.05465 0.43488
 Mn181 Mn 0.91076 -0.00704 0.51951
 C182 C 0.87512 0.09645 0.40754
 C183 C 0.89864 0.09502 0.62778
 N184 N 1.04049 -0.08759 0.43361
 N185 N 1.04004 -0.12003 0.39676
 N186 N 1.09867 -0.05452 0.52687
 N187 N 1.13636 -0.05620 0.55879
 N188 N 1.06604 -0.09019 0.53748
 N189 N 1.08061 -0.11689 0.57788
 N190 N 1.07278 -0.05129 0.42429
 N191 N 1.09634 -0.05893 0.38083
 Mn192 Mn 1.00103 -0.09228 0.49801
 C193 C 1.07471 -0.10177 0.36420
 C194 C 1.12496 -0.09533 0.58989
 N195 N 1.05810 0.08515 0.54407
 N196 N 1.07065 0.10970 0.58514
 N197 N 1.06821 0.05825 0.42910
 N198 N 1.09161 0.06989 0.38652
 N199 N 1.03459 0.09272 0.43998
 N200 N 1.03365 0.12858 0.40437
 N201 N 1.09355 0.05287 0.53193
 N202 N 1.13092 0.05453 0.56437
 Mn203 Mn 0.99340 0.08757 0.50440
 Mn204 Mn 1.08368 0.00148 0.47751
 Cl205 Cl 0.99723 -0.00252 0.49994
 C206 C 1.11635 0.09025 0.59685
 C207 C 1.06929 0.11344 0.37147
 N208 N 1.06054 0.18166 0.30851
 N209 N 1.08474 0.19955 0.26812
 C210 C 1.12543 0.16981 0.26144
 C211 C 1.12500 0.13279 0.29913
 N212 N 1.08424 0.14163 0.32740
 H213 H 1.15158 0.10252 0.30608
 N214 N 0.81307 -0.08704 0.34280
 N215 N 0.79722 -0.10553 0.29971
 C216 C 0.82869 -0.14347 0.28778
 C217 C 0.86468 -0.14758 0.32552
 N218 N 0.85337 -0.11171 0.35880
 H219 H 0.89634 -0.17308 0.32842
 N220 N 0.81429 0.10991 0.65383
 N221 N 0.78852 0.12868 0.69165
 C222 C 0.82129 0.15225 0.72161
 C223 C 0.86883 0.14783 0.69981
 N224 N 0.86237 0.12099 0.65758
 H225 H 0.90454 0.15943 0.71479
 N226 N 1.19646 -0.08480 0.64477
 N227 N 1.21203 -0.09874 0.69054
 C228 C 1.17727 -0.13051 0.70995
 C229 C 1.13988 -0.13585 0.67419
 N230 N 1.15345 -0.10683 0.63433
 H231 H 1.10541 -0.15699 0.67713
 N232 N 0.34086 1.07014 1.20194
 N233 N 0.29665 1.08868 1.21529
 C234 C 0.28533 1.12641 1.18179
 C235 C 0.32440 1.13031 1.14759
 N236 N 0.35793 1.09488 1.16148
 H237 H 0.32843 1.15578 1.11527
 N238 N 0.30644 0.84361 0.94363
 N239 N 0.26612 0.82427 0.92276
 C240 C 0.25988 0.84777 0.87731
 C241 C 0.29806 0.88307 0.87139
 N242 N 0.32607 0.87893 0.91359
 H243 H 0.30587 0.90806 0.83941
 N244 N 0.69403 0.82474 1.06134
 N245 N 0.73267 0.80238 1.08396
 C246 C 0.74119 0.82730 1.12701
 C247 C 0.70637 0.86615 1.12975
 N248 N 0.67786 0.86305 1.08818
 H249 H 0.70112 0.89319 1.15932
 N250 N 0.62316 1.20861 0.88518
 N251 N 0.66635 1.22760 0.86997
 C252 C 0.68903 1.19233 0.84207
 C253 C 0.65731 1.15074 0.84001
 N254 N 0.61687 1.16254 0.86818
 H255 H 0.66565 1.11383 0.82544
 N256 N 0.19234 0.31454 0.04459
 N257 N 0.20890 0.27249 0.06715
 C258 C 0.18298 0.26680 0.11091
 C259 C 0.15024 0.30683 0.11449
 N260 N 0.15723 0.33550 0.07264
 H261 H 0.12428 0.31505 0.14474
 N262 N -0.07570 0.30009 -0.11183
 N263 N -0.09371 0.26203 -0.13758
 C264 C -0.14399 0.26624 -0.13628
 C265 C -0.15617 0.30802 -0.10804
 N266 N -0.11246 0.32775 -0.09319
 H267 H -0.19265 0.32519 -0.10311
 N268 N 0.04356 0.70213 -0.16771
 N269 N 0.06444 0.74451 -0.18436
 C270 C 0.11033 0.74657 -0.16321
 C271 C 0.11702 0.70390 -0.13295
 N272 N 0.07458 0.67724 -0.13712
 H273 H 0.15010 0.69219 -0.11209
 N274 N -0.05321 0.66475 0.19181
 N275 N -0.07379 0.70642 0.20910
 C276 C -0.11636 0.71467 0.18268
 C277 C -0.12131 0.67617 0.14848
 N278 N -0.08117 0.64600 0.15562
 H279 H -0.15086 0.67050 0.12126
 N280 N 1.18693 0.07984 0.65421
 N281 N 1.20403 0.09840 0.69692
 C282 C 1.17128 0.13434 0.71111
 C283 C 1.13331 0.13704 0.67543
 N284 N 1.14464 0.10260 0.64075
 H285 H 1.10050 0.16113 0.67465
 N286 N 0.93379 -0.18493 0.69216
 N287 N 0.91063 -0.20333 0.73290
 C288 C 0.87001 -0.17391 0.74089
 C289 C 0.86938 -0.13645 0.70339
 N290 N 0.90959 -0.14485 0.67404
 H291 H 0.84238 -0.10640 0.69723
 N292 N 1.05947 -0.16333 0.30030
 N293 N 1.08237 -0.18502 0.26206
 C294 C 1.12729 -0.16245 0.25627
 C295 C 1.13073 -0.12523 0.29241
 N296 N 1.08768 -0.12738 0.31893
 H297 H 1.16186 -0.10075 0.30045
 N298 N 0.80464 0.09501 0.35052
 N299 N 0.79144 0.11201 0.30506
 C300 C 0.82860 0.14213 0.28736
 C301 C 0.86529 0.14337 0.32462
 N302 N 0.84878 0.11313 0.36299
 H303 H 0.90158 0.16134 0.32276
 N304 N 0.05665 0.33275 -0.19806
 N305 N 0.07660 0.29041 -0.21455
 C306 C 0.11826 0.28130 -0.18688
 C307 C 0.12333 0.31980 -0.15292
 N308 N 0.08424 0.35090 -0.16126
 H309 H 0.15219 0.32487 -0.12483
 N310 N -0.05759 0.28107 0.08418
 N311 N -0.07831 0.23752 0.09714
 C312 C -0.09407 0.24082 0.14555
 C313 C -0.08194 0.28861 0.16192
 N314 N -0.05943 0.31242 0.12225
 H315 H -0.09520 0.30665 0.19578
 N316 N -0.19565 0.67417 -0.04842
 N317 N -0.21372 0.71588 -0.07045
 C318 C -0.18465 0.72630 -0.11137
 C319 C -0.14814 0.68920 -0.11350
 N320 N -0.15639 0.65772 -0.07389
 H321 H -0.11870 0.68457 -0.14120
 N322 N 0.18649 0.67650 0.05470
 N323 N 0.20441 0.71756 0.07526
 C324 C 0.17863 0.72446 0.11849
 C325 C 0.14406 0.68579 0.12392
 N326 N 0.15050 0.65680 0.08328
 H327 H 0.11746 0.67905 0.15427
 N328 N 0.30203 1.17650 0.94324
 N329 N 0.26314 1.19605 0.91864
 C330 C 0.25812 1.17035 0.87544
 C331 C 0.29549 1.13395 0.87458
 N332 N 0.32189 1.13924 0.91747
 H333 H 0.30364 1.10719 0.84538
 N334 N 0.35696 0.90308 1.19775
 N335 N 0.31272 0.88690 1.21359
 C336 C 0.29501 0.85652 1.17765
 C337 C 0.33023 0.85448 1.13903
 N338 N 0.36814 0.88403 1.15327
 H339 H 0.32802 0.83500 1.10359
 N340 N 0.69954 1.15956 1.05612
 N341 N 0.74300 1.17513 1.07373
 C342 C 0.75089 1.15028 1.11822
 C343 C 0.71072 1.11848 1.12714
 N344 N 0.67974 1.12566 1.08762
 H345 H 0.70360 1.09399 1.15968
 N346 N 0.66069 0.93289 0.81280
 N347 N 0.70331 0.91245 0.79750
 C348 C 0.71364 0.87332 0.82955
 C349 C 0.67558 0.87048 0.86509
 N350 N 0.64354 0.90814 0.85321
 H351 H 0.67142 0.84410 0.89667
   
