data_POSCAR
  _audit_creation_date              2014-09-24
  _audit_creation_method            'ToBaCCo'
  _symmetry_space_group_name_H-M    'P1'
  _symmetry_Int_Tables_number       1
  _symmetry_cell_setting            triclinic
  loop_
  _symmetry_equiv_pos_as_xyz
 x,y,z
_cell_length_a 32.9273
_cell_length_b 32.4938
_cell_length_c 32.4015
_cell_angle_alpha 89.301300
_cell_angle_beta 89.612900
_cell_angle_gamma 89.665500
loop_
  _atom_site_label
  _atom_site_type_symbol
  _atom_site_fract_x
  _atom_site_fract_y
  _atom_site_fract_z
C1 C 0.22737 1.24427 0.18501
 C2 C 0.25691 1.21298 0.18444
 C3 C 0.25160 1.17774 0.20831
 C4 C 0.21661 1.17327 0.23286
 C5 C 0.18772 1.20420 0.23349
 C6 C 0.19322 1.23998 0.20958
 C7 C 0.22254 1.28001 0.16225
 N8 N 0.18650 1.29804 0.17284
 C9 C 0.16836 1.27317 0.20160
 C10 C 0.15624 1.19080 0.25814
 N11 N 0.16475 1.15200 0.27212
 C12 C 0.20220 1.14151 0.25725
 C13 C 0.28295 1.15124 0.19891
 N14 N 0.30743 1.16971 0.17040
 C15 C 0.29149 1.20729 0.16104
 H16 H 0.24362 1.29159 0.13917
 H17 H 0.13773 1.27688 0.21339
 H18 H 0.12835 1.20761 0.26405
 H19 H 0.21854 1.11338 0.26453
 H20 H 0.28664 1.12001 0.21039
 H21 H 0.30340 1.22824 0.13777
 C22 C 0.78006 0.73503 0.19056
 C23 C 0.74917 0.76494 0.19009
 C24 C 0.74768 0.79469 0.22038
 C25 C 0.77745 0.79519 0.25117
 C26 C 0.80857 0.76647 0.25071
 C27 C 0.80966 0.73602 0.22048
 C28 C 0.78964 0.70311 0.16463
 N29 N 0.82403 0.68408 0.17849
 C30 C 0.83684 0.70489 0.21220
 C31 C 0.83517 0.77660 0.28141
 N32 N 0.82041 0.81006 0.30153
 C33 C 0.78523 0.82187 0.28285
 C34 C 0.71651 0.82137 0.21044
 N35 N 0.69929 0.80847 0.17499
 C36 C 0.71905 0.77415 0.16218
 H37 H 0.77374 0.69568 0.13656
 H38 H 0.86371 0.69758 0.22999
 H39 H 0.86342 0.76087 0.28845
 H40 H 0.76790 0.84932 0.29008
 H41 H 0.70830 0.84929 0.22648
 H42 H 0.71307 0.75828 0.13369
 C43 C 0.79983 1.23776 -0.18603
 C44 C 0.76946 1.20772 -0.18659
 C45 C 0.76429 1.18398 -0.22134
 C46 C 0.78936 1.19015 -0.25603
 C47 C 0.81944 1.21957 -0.25532
 C48 C 0.82487 1.24338 -0.21999
 C49 C 0.81383 1.26282 -0.15539
 N50 N 0.84763 1.28265 -0.16938
 C51 C 0.85400 1.27143 -0.20928
 C52 C 0.84184 1.21563 -0.29103
 N53 N 0.82601 1.18475 -0.31394
 C54 C 0.79403 1.16883 -0.29219
 C55 C 0.73526 1.15497 -0.21185
 N56 N 0.72332 1.16020 -0.17205
 C57 C 0.74364 1.19268 -0.15651
 H58 H 0.80164 1.26465 -0.12433
 H59 H 0.87793 1.28300 -0.22929
 H60 H 0.86837 1.23358 -0.29917
 H61 H 0.77751 1.14134 -0.30009
 H62 H 0.72454 1.13097 -0.23187
 H63 H 0.74096 1.20341 -0.12510
 C64 C 0.19815 0.78021 -0.17048
 C65 C 0.23005 0.80840 -0.17455
 C66 C 0.22715 0.84073 -0.20270
 C67 C 0.19249 0.84495 -0.22738
 C68 C 0.16124 0.81699 -0.22343
 C69 C 0.16415 0.78432 -0.19496
 C70 C 0.19100 0.74821 -0.14323
 N71 N 0.15308 0.73325 -0.14997
 C72 C 0.13700 0.75467 -0.18240
 C73 C 0.13052 0.83003 -0.24901
 N74 N 0.14193 0.86572 -0.26814
 C75 C 0.18031 0.87447 -0.25559
 C76 C 0.26032 0.86555 -0.19697
 N77 N 0.28331 0.84877 -0.16647
 C78 C 0.26504 0.81399 -0.15237
 H79 H 0.21212 0.73656 -0.12038
 H80 H 0.10670 0.75067 -0.19444
 H81 H 0.10225 0.81402 -0.25394
 H82 H 0.19756 0.90132 -0.26494
 H83 H 0.26646 0.89457 -0.21250
 H84 H 0.27543 0.79542 -0.12651
 C85 C 0.57327 1.04944 -0.01534
 H86 H 0.57174 1.05205 0.01789
 C87 C 0.60246 1.07145 -0.03775
 H88 H 0.62345 1.09118 -0.02182
 C89 C 0.54843 1.01986 -0.07671
 H90 H 0.52795 0.99904 -0.09169
 C91 C 0.57734 1.04111 -0.10028
 H92 H 0.57867 1.03705 -0.13339
 N93 N 0.54667 1.02467 -0.03504
 C94 C 0.45086 1.01264 0.05782
 H95 H 0.44935 0.97943 0.05993
 C96 C 0.42559 1.03670 0.08256
 H97 H 0.40450 1.02203 0.10382
 C98 C 0.47943 1.07235 0.02671
 H99 H 0.49983 1.08607 0.00429
 C100 C 0.45438 1.09761 0.05066
 H101 H 0.45590 1.13073 0.04696
 Zn102 Zn 0.50912 0.99488 -0.00192
 N103 N 0.47746 1.03068 0.03098
 C104 C 0.54223 0.96439 0.07330
 N105 N 0.53965 0.95841 0.03190
 C106 C 0.56074 0.92764 0.01322
 C107 C 0.58452 0.90044 0.03654
 C108 C 0.56615 0.93825 0.09770
 C109 C 0.45059 0.98786 -0.06329
 C110 C 0.42190 0.96864 -0.08788
 C111 C 0.43670 0.90442 -0.05259
 C112 C 0.46559 0.92475 -0.02906
 N113 N 0.47226 0.96569 -0.03509
 H114 H 0.52653 0.98997 0.08736
 H115 H 0.55899 0.92424 -0.01989
 H116 H 0.60093 0.87588 0.02131
 H117 H 0.56865 0.94384 0.13047
 H118 H 0.45566 1.02060 -0.06661
 H119 H 0.40506 0.98664 -0.11040
 H120 H 0.43100 0.87205 -0.04690
 H121 H 0.48185 0.90800 -0.00532
 C122 C 0.42742 1.07965 0.07917
 C123 C 0.60472 1.06712 -0.08064
 C124 C 0.41490 0.92634 -0.08284
 C125 C 0.58713 0.90542 0.07939
 C126 C -0.02535 0.52298 1.07918
 H127 H -0.00030 0.50627 1.09269
 C128 C -0.05119 0.54561 1.10477
 H129 H -0.04550 0.54645 1.13763
 C130 C -0.06407 0.54201 1.02058
 H131 H -0.06973 0.53956 0.98793
 C132 C -0.09041 0.56531 1.04496
 H133 H -0.11538 0.58187 1.03069
 N134 N -0.03145 0.52248 1.03766
 C135 C 0.04368 0.42062 1.02768
 H136 H 0.02419 0.40633 1.00546
 C137 C 0.06951 0.39598 1.05149
 H138 H 0.06932 0.36289 1.04781
 C139 C 0.06841 0.48074 1.05944
 H140 H 0.06790 0.51389 1.06222
 C141 C 0.09491 0.45722 1.08375
 H142 H 0.11478 0.47223 1.10532
 Zn143 Zn 0.00526 0.49474 1.00161
 N144 N 0.04282 0.46216 1.03265
 C145 C 0.07555 0.53361 0.96826
 N146 N 0.03417 0.53420 0.96904
 C147 C 0.01297 0.56381 0.94818
 C148 C 0.03323 0.59577 0.92780
 C149 C 0.09706 0.56492 0.94802
 C150 C -0.05111 0.43316 0.98669
 C151 C -0.07209 0.40422 0.96378
 C152 C -0.04219 0.43306 0.90160
 C153 C -0.02124 0.46112 0.92580
 N154 N -0.02551 0.46011 0.96759
 H155 H 0.09205 0.50924 0.98381
 H156 H -0.01972 0.56324 0.94786
 H157 H 0.01593 0.61986 0.91246
 H158 H 0.12995 0.56472 0.94838
 H159 H -0.05412 0.43333 1.01996
 H160 H -0.09134 0.38201 0.97948
 H161 H -0.03826 0.43365 0.86839
 H162 H -0.00091 0.48301 0.91129
 C163 C 0.09484 0.41426 1.08046
 C164 C -0.08394 0.56741 1.08758
 C165 C -0.06695 0.40338 0.92082
 C166 C 0.07569 0.59709 0.92865
 C167 C 1.04146 -0.00159 0.55368
 H168 H 1.04533 0.03038 0.54491
 C169 C 1.06232 -0.01777 0.58760
 H170 H 1.08252 0.00171 0.60483
 C171 C 1.00909 -0.06554 0.54307
 H172 H 0.98713 -0.08367 0.52685
 C173 C 1.02945 -0.08299 0.57671
 H174 H 1.02391 -0.11476 0.58541
 N175 N 1.01576 -0.02560 0.53190
 C176 C 1.00358 0.04944 0.41991
 H177 H 0.97084 0.05217 0.41904
 C178 C 1.02721 0.06907 0.38979
 H179 H 1.01268 0.08709 0.36567
 C180 C 1.06254 0.02220 0.45212
 H181 H 1.07611 0.00330 0.47603
 C182 C 1.08735 0.04122 0.42245
 H183 H 1.12001 0.03743 0.42390
 Zn184 Zn 0.98628 0.00086 0.48894
 N185 N 1.02146 0.02694 0.45052
 C186 C 0.95849 0.08107 0.51098
 N187 N 0.95241 0.03983 0.51515
 C188 C 0.92370 0.02450 0.54138
 C189 C 0.89967 0.05098 0.56486
 C190 C 0.93516 0.10869 0.53403
 C191 C 0.97101 -0.07282 0.44668
 C192 C 0.94806 -0.10074 0.42437
 C193 C 0.89269 -0.05169 0.42380
 C194 C 0.91608 -0.02545 0.44768
 N195 N 0.95430 -0.03663 0.45910
 H196 H 0.98226 0.09255 0.49086
 H197 H 0.92014 -0.00845 0.54467
 H198 H 0.87756 0.03838 0.58637
 H199 H 0.94074 0.14143 0.53123
 H200 H 1.00215 -0.08016 0.45437
 H201 H 0.96151 -0.12993 0.41581
 H202 H 0.86286 -0.04174 0.41381
 H203 H 0.90407 0.00432 0.45620
 C204 C 1.06953 0.06483 0.39087
 C205 C 1.05600 -0.05879 0.59962
 C206 C 0.90815 -0.09048 0.41290
 C207 C 0.90542 0.09358 0.56135
 C208 C 0.15136 0.36454 1.08787
 C209 C 0.17491 0.33681 1.11056
 C210 C 0.16857 0.33107 1.15326
 C211 C 0.14067 0.35780 1.17373
 C212 C 0.11592 0.38525 1.15033
 C213 C 0.12108 0.38806 1.10695
 C214 C 0.08650 0.40880 1.17131
 N215 N 0.08443 0.40740 1.21309
 N216 N 0.10972 0.38405 1.23524
 C217 C 0.13795 0.35960 1.21707
 H218 H 0.15596 0.36673 1.05477
 H219 H 0.19602 0.31754 1.09374
 H220 H 0.06530 0.42853 1.15506
 H221 H 0.15863 0.34266 1.23676
 C222 C -0.09033 0.62522 1.13593
 C223 C -0.11264 0.65350 1.15871
 C224 C -0.15535 0.65260 1.15968
 C225 C -0.17538 0.61934 1.14008
 C226 C -0.15241 0.59057 1.11661
 C227 C -0.10963 0.59443 1.11368
 C228 C -0.17292 0.55764 1.09833
 N229 N -0.21349 0.55336 1.10392
 N230 N -0.23481 0.57933 1.12709
 C231 C -0.21715 0.61170 1.14575
 H232 H -0.05760 0.62833 1.13449
 H233 H -0.09622 0.67797 1.17350
 H234 H -0.15703 0.53459 1.08058
 H235 H -0.23580 0.62995 1.16610
 C236 C -0.12953 0.36805 0.89957
 C237 C -0.15042 0.33785 0.87849
 C238 C -0.12996 0.30990 0.85280
 C239 C -0.08664 0.31092 0.85116
 C240 C -0.06538 0.34192 0.87277
 C241 C -0.08727 0.37113 0.89651
 C242 C -0.02260 0.34121 0.87175
 N243 N -0.00259 0.31121 0.85111
 N244 N -0.02235 0.28138 0.83213
 C245 C -0.06347 0.27984 0.83196
 H246 H -0.14666 0.38960 0.91822
 H247 H -0.18324 0.33758 0.88086
 H248 H -0.00470 0.36346 0.88798
 H249 H -0.07722 0.25328 0.81832
 C250 C 0.09271 0.64000 0.86767
 C251 C 0.11067 0.67390 0.84858
 C252 C 0.13426 0.70173 0.87096
 C253 C 0.13723 0.69610 0.91463
 C254 C 0.11931 0.66100 0.93392
 C255 C 0.09727 0.63265 0.90997
 C256 C 0.12212 0.65662 0.97710
 N257 N 0.14054 0.68596 0.99951
 N258 N 0.15564 0.71975 0.98180
 C259 C 0.15406 0.72613 0.94043
 H260 H 0.07526 0.61902 0.84914
 H261 H 0.10737 0.67744 0.81550
 H262 H 0.10908 0.63071 0.99352
 H263 H 0.16439 0.75546 0.92873
 C264 C 1.09578 0.12850 0.35872
 C265 C 1.11820 0.14995 0.32912
 C266 C 1.14071 0.12930 0.29851
 C267 C 1.13776 0.08549 0.29670
 C268 C 1.11565 0.06367 0.32779
 C269 C 1.09484 0.08554 0.35905
 C270 C 1.11340 0.02053 0.32542
 N271 N 1.13062 0.00074 0.29312
 N272 N 1.14933 0.02122 0.26277
 C273 C 1.15293 0.06275 0.26310
 H274 H 1.07941 0.14563 0.38208
 H275 H 1.11934 0.18312 0.33148
 H276 H 1.09740 0.00238 0.34842
 H277 H 1.16604 0.07740 0.23616
 C278 C 1.11929 -0.07758 0.63602
 C279 C 1.14053 -0.09517 0.66882
 C280 C 1.12005 -0.11251 0.70303
 C281 C 1.07698 -0.10781 0.70555
 C282 C 1.05538 -0.09028 0.67175
 C283 C 1.07684 -0.07615 0.63632
 C284 C 1.01296 -0.08570 0.67531
 N285 N 0.99372 -0.09681 0.71078
 N286 N 1.01407 -0.11154 0.74312
 C287 C 1.05492 -0.11685 0.74195
 H288 H 1.13615 -0.06608 0.60950
 H289 H 1.17325 -0.09752 0.66609
 H290 H 0.99494 -0.07241 0.65074
 H291 H 1.06968 -0.12646 0.77012
 C292 C 0.90331 -0.13636 0.35258
 C293 C 0.88225 -0.16141 0.32578
 C294 C 0.84055 -0.16861 0.33111
 C295 C 0.82076 -0.15313 0.36694
 C296 C 0.84281 -0.12889 0.39533
 C297 C 0.88410 -0.11897 0.38701
 C298 C 0.82319 -0.11704 0.43210
 N299 N 0.78411 -0.12792 0.43939
 N300 N 0.76349 -0.15055 0.41287
 C301 C 0.78054 -0.16389 0.37724
 H302 H 0.93481 -0.12962 0.34561
 H303 H 0.89820 -0.17307 0.29897
 H304 H 0.83874 -0.10032 0.45579
 H305 H 0.76282 -0.18398 0.35825
 C306 C 0.90526 0.14508 0.61671
 C307 C 0.88594 0.16800 0.64712
 C308 C 0.84332 0.16815 0.65131
 C309 C 0.82006 0.14839 0.62035
 C310 C 0.83996 0.12444 0.58977
 C311 C 0.88289 0.12174 0.58904
 C312 C 0.81620 0.10502 0.55988
 N313 N 0.77537 0.11045 0.55982
 N314 N 0.75682 0.13433 0.58729
 C315 C 0.77773 0.15383 0.61712
 H316 H 0.93816 0.14381 0.61620
 H317 H 0.90494 0.18291 0.66949
 H318 H 0.82975 0.08647 0.53592
 H319 H 0.76112 0.17452 0.63696
 C320 C 0.36910 1.12758 0.08354
 C321 C 0.33990 1.14949 0.10563
 C322 C 0.34051 1.15012 0.14886
 C323 C 0.37253 1.12990 0.17010
 C324 C 0.40203 1.10719 0.14765
 C325 C 0.39968 1.10548 0.10405
 C326 C 0.43343 1.08749 0.16965
 N327 N 0.43512 1.09074 0.21129
 N328 N 0.40773 1.11251 0.23230
 C329 C 0.37664 1.13234 0.21315
 H330 H 0.36703 1.12670 0.05020
 H331 H 0.31572 1.16493 0.08895
 H332 H 0.45693 1.07004 0.15414
 H333 H 0.35595 1.15038 0.23170
 C334 C 0.63203 1.13217 -0.10934
 C335 C 0.66082 1.15480 -0.13148
 C336 C 0.69451 1.13542 -0.14952
 C337 C 0.69981 1.09235 -0.14422
 C338 C 0.67023 1.06922 -0.12209
 C339 C 0.63604 1.08945 -0.10475
 C340 C 0.67653 1.02660 -0.11703
 N341 N 0.71040 1.00866 -0.13283
 N342 N 0.73848 1.03047 -0.15301
 C343 C 0.73449 1.07167 -0.15903
 H344 H 0.60623 1.14806 -0.09587
 H345 H 0.65676 1.18776 -0.13490
 H346 H 0.65513 1.00746 -0.10030
 H347 H 0.75883 1.08778 -0.17465
 C348 C 0.34341 0.92286 -0.10552
 C349 C 0.31138 0.90423 -0.12580
 C350 C 0.31755 0.86795 -0.14775
 C351 C 0.35695 0.85076 -0.15054
 C352 C 0.38986 0.87004 -0.13054
 C353 C 0.38271 0.90598 -0.10697
 C354 C 0.42895 0.85311 -0.13580
 N355 N 0.43419 0.81870 -0.15858
 N356 N 0.40312 0.80031 -0.17674
 C357 C 0.36469 0.81524 -0.17360
 H358 H 0.33728 0.95031 -0.08782
 H359 H 0.28125 0.91761 -0.12364
 H360 H 0.45547 0.86714 -0.12264
 H361 H 0.34066 0.79952 -0.18953
 C362 C 0.65497 0.87486 0.09229
 C363 C 0.68233 0.85147 0.11540
 C364 C 0.66978 0.83109 0.15147
 C365 C 0.62867 0.83324 0.16393
 C366 C 0.60047 0.85641 0.14008
 C367 C 0.61408 0.87820 0.10434
 C368 C 0.55942 0.85599 0.15240
 N369 N 0.54798 0.83477 0.18684
 N370 N 0.57468 0.81367 0.20955
 C371 C 0.61463 0.81208 0.19921
 H372 H 0.66600 0.89115 0.06511
 H373 H 0.71381 0.84980 0.10562
 H374 H 0.53620 0.87172 0.13475
 H375 H 0.63495 0.79400 0.21836
   
