data_POSCAR
  _audit_creation_date              2014-09-24
  _audit_creation_method            'ToBaCCo'
  _symmetry_space_group_name_H-M    'P1'
  _symmetry_Int_Tables_number       1
  _symmetry_cell_setting            triclinic
  loop_
  _symmetry_equiv_pos_as_xyz
 x,y,z
_cell_length_a 44.3893
_cell_length_b 44.4822
_cell_length_c 44.4398
_cell_angle_alpha 90.043300
_cell_angle_beta 90.054500
_cell_angle_gamma 89.881200
loop_
  _atom_site_label
  _atom_site_type_symbol
  _atom_site_fract_x
  _atom_site_fract_y
  _atom_site_fract_z
C1 C 0.25064 0.99749 -0.01923
 C2 C 0.25265 0.99732 0.01128
 C3 C 0.25322 0.96920 0.02912
 C4 C 0.25374 1.02546 0.02919
 C5 C 0.25039 1.02600 -0.03656
 C6 C 0.24886 0.96940 -0.03724
 C7 C 0.22853 0.94950 0.02935
 C8 C 0.22757 0.92572 0.04997
 C9 C 0.25126 0.92156 0.07046
 C10 C 0.27630 0.94056 0.06958
 C11 C 0.27724 0.96428 0.04911
 C12 C 0.23155 1.03055 0.05108
 C13 C 0.23335 1.05542 0.07011
 C14 C 0.25749 1.07548 0.06762
 C15 C 0.27956 1.07081 0.04549
 C16 C 0.27771 1.04583 0.02636
 C17 C 0.27248 1.03075 -0.05862
 C18 C 0.27215 1.05688 -0.07597
 C19 C 0.24963 1.07850 -0.07162
 C20 C 0.22746 1.07394 -0.04966
 C21 C 0.22778 1.04774 -0.03224
 C22 C 0.27166 0.94745 -0.03593
 C23 C 0.27077 0.92251 -0.05519
 C24 C 0.24718 0.91939 -0.07596
 C25 C 0.22426 0.94100 -0.07701
 C26 C 0.22513 0.96586 -0.05785
 H27 H 0.20954 0.95331 0.01450
 H28 H 0.20802 0.91120 0.05057
 H29 H 0.29470 0.93761 0.08535
 H30 H 0.29632 0.97943 0.04945
 H31 H 0.21302 1.01495 0.05370
 H32 H 0.21612 1.05861 0.08711
 H33 H 0.29528 1.04197 0.00991
 H34 H 0.28997 1.01415 -0.06240
 H35 H 0.28929 1.06009 -0.09301
 H36 H 0.20979 1.09042 -0.04629
 H37 H 0.21023 1.04421 -0.01571
 H38 H 0.29048 0.95005 -0.02063
 H39 H 0.28875 0.90603 -0.05432
 H40 H 0.20597 0.93891 -0.09304
 H41 H 0.20747 0.98264 -0.05937
 H42 H 0.29847 1.08604 0.04334
 C43 C 0.75109 0.49431 0.47822
 C44 C 0.75356 0.49438 0.50869
 C45 C 0.75415 0.46642 0.52679
 C46 C 0.75514 0.52265 0.52632
 C47 C 0.75081 0.52268 0.46065
 C48 C 0.74887 0.46609 0.46049
 C49 C 0.72925 0.44701 0.52765
 C50 C 0.72832 0.42355 0.54864
 C51 C 0.75225 0.41941 0.56884
 C52 C 0.77750 0.43809 0.56731
 C53 C 0.77841 0.46150 0.54648
 C54 C 0.73327 0.52815 0.54844
 C55 C 0.73557 0.55316 0.56721
 C56 C 0.75985 0.57291 0.56422
 C57 C 0.78159 0.56787 0.54191
 C58 C 0.77928 0.54277 0.52301
 C59 C 0.77263 0.52711 0.43827
 C60 C 0.77232 0.55316 0.42079
 C61 C 0.75008 0.57503 0.42536
 C62 C 0.72817 0.57079 0.44762
 C63 C 0.72846 0.54466 0.46516
 C64 C 0.77154 0.44402 0.46167
 C65 C 0.77026 0.41895 0.44260
 C66 C 0.74639 0.41584 0.42216
 C67 C 0.72358 0.43756 0.42125
 C68 C 0.72484 0.46255 0.44022
 H69 H 0.71008 0.45084 0.51304
 H70 H 0.70861 0.40928 0.54974
 H71 H 0.79609 0.43515 0.58286
 H72 H 0.79766 0.47644 0.54633
 H73 H 0.71462 0.51277 0.55143
 H74 H 0.71869 0.55680 0.58444
 H75 H 0.79662 0.53859 0.50639
 H76 H 0.78991 0.51032 0.43435
 H77 H 0.78927 0.55613 0.40353
 H78 H 0.71071 0.58747 0.45117
 H79 H 0.71111 0.54139 0.48195
 H80 H 0.79058 0.44662 0.47669
 H81 H 0.78816 0.40238 0.44335
 H82 H 0.70508 0.43547 0.40547
 H83 H 0.70727 0.47943 0.43880
 H84 H 0.80056 0.58295 0.53953
 C85 C 0.74812 1.00894 0.99507
 C86 C 0.74822 0.97841 0.99499
 C87 C 0.74724 0.96082 1.02336
 C88 C 0.74986 0.96063 0.96678
 C89 C 0.74978 1.02705 0.96714
 C90 C 0.74603 1.02656 1.02331
 C91 C 0.77048 0.94029 1.02957
 C92 C 0.76967 0.92277 1.05559
 C93 C 0.74554 0.92543 1.07566
 C94 C 0.72221 0.94584 1.06964
 C95 C 0.72300 0.96343 1.04354
 C96 C 0.77427 0.96345 0.94686
 C97 C 0.77674 0.94428 0.92196
 C98 C 0.75490 0.92213 0.91687
 C99 C 0.73034 0.91960 0.93640
 C100 C 0.72788 0.93865 0.96123
 C101 C 0.72672 1.02611 0.94549
 C102 C 0.72638 1.04690 0.92182
 C103 C 0.74906 1.06870 0.91971
 C104 C 0.77256 1.06900 0.94068
 C105 C 0.77288 1.04837 0.96429
 C106 C 0.72212 1.04693 1.02691
 C107 C 0.72103 1.06584 1.05192
 C108 C 0.74394 1.06474 1.07355
 C109 C 0.76767 1.04412 1.07037
 C110 C 0.76875 1.02510 1.04529
 H111 H 0.78925 0.93784 1.01420
 H112 H 0.78775 0.90695 1.05993
 H113 H 0.70331 0.94790 1.08491
 H114 H 0.70460 0.97876 1.03886
 H115 H 0.79179 0.97983 0.95109
 H116 H 0.79594 0.94631 0.90708
 H117 H 0.70904 0.93597 0.97646
 H118 H 0.70843 1.01019 0.94766
 H119 H 0.70802 1.04657 0.90576
 H120 H 0.79017 1.08577 0.93931
 H121 H 0.79068 1.04960 0.98093
 H122 H 0.70454 1.04848 1.01006
 H123 H 0.70261 1.08175 1.05401
 H124 H 0.78565 1.04318 1.08686
 H125 H 0.78762 1.00988 1.04258
 H126 H 0.71338 0.90249 0.93275
 C127 C 0.24738 0.51037 0.49600
 C128 C 0.24718 0.47983 0.49616
 C129 C 0.24839 0.46180 0.46806
 C130 C 0.24626 0.46248 0.52469
 C131 C 0.24580 0.52826 0.52412
 C132 C 0.24889 0.52822 0.46789
 C133 C 0.22621 0.43992 0.46292
 C134 C 0.22824 0.42069 0.43818
 C135 C 0.25257 0.42294 0.41833
 C136 C 0.27462 0.44497 0.42303
 C137 C 0.27259 0.46431 0.44785
 C138 C 0.22224 0.46555 0.54507
 C139 C 0.22147 0.44817 0.57132
 C140 C 0.24459 0.42750 0.57727
 C141 C 0.26849 0.42439 0.55700
 C142 C 0.26928 0.44170 0.53084
 C143 C 0.26869 0.52667 0.54592
 C144 C 0.26809 0.54593 0.57085
 C145 C 0.24470 0.56689 0.57405
 C146 C 0.22164 0.56816 0.55262
 C147 C 0.22222 0.54902 0.52776
 C148 C 0.27213 0.54932 0.46459
 C149 C 0.27174 0.56971 0.44078
 C150 C 0.24802 0.56942 0.42006
 C151 C 0.22517 0.54784 0.42263
 C152 C 0.22559 0.52727 0.44649
 H153 H 0.20752 0.43747 0.47838
 H154 H 0.21112 0.40369 0.43484
 H155 H 0.29366 0.44678 0.40791
 H156 H 0.29026 0.48060 0.45176
 H157 H 0.20400 0.48108 0.54046
 H158 H 0.20274 0.45059 0.58675
 H159 H 0.28788 0.43889 0.51531
 H160 H 0.28732 0.51116 0.54319
 H161 H 0.28615 0.54492 0.58723
 H162 H 0.20352 0.58437 0.55480
 H163 H 0.20452 0.55069 0.51105
 H164 H 0.29012 0.55055 0.48103
 H165 H 0.28947 0.58632 0.43907
 H166 H 0.20663 0.54751 0.40676
 H167 H 0.20719 0.51153 0.44901
 H168 H 0.28641 0.40837 0.56129
 C169 C 0.99522 0.25015 -0.00962
 C170 C 0.99521 0.24992 0.02095
 C171 C 0.96698 0.24820 0.03872
 C172 C 1.02364 0.25097 0.03859
 C173 C 1.02346 0.25228 -0.02723
 C174 C 0.96721 0.24864 -0.02778
 C175 C 0.96142 0.27002 0.06088
 C176 C 0.93653 0.26751 0.07986
 C177 C 0.91696 0.24307 0.07706
 C178 C 0.92208 0.22136 0.05475
 C179 C 0.94704 0.22388 0.03566
 C180 C 1.04374 0.27522 0.03608
 C181 C 1.06983 0.27616 0.05381
 C182 C 1.07594 0.25295 0.07429
 C183 C 1.05594 0.22879 0.07681
 C184 C 1.02993 0.22785 0.05915
 C185 C 1.04553 0.22964 -0.02585
 C186 C 1.07063 0.23078 -0.04484
 C187 C 1.07374 0.25450 -0.06537
 C188 C 1.05203 0.27733 -0.06640
 C189 C 1.02701 0.27618 -0.04751
 C190 C 0.96434 0.22579 -0.04940
 C191 C 0.94069 0.22629 -0.07008
 C192 C 0.91965 0.24976 -0.06955
 C193 C 0.92179 0.27220 -0.04743
 C194 C 0.94552 0.27165 -0.02660
 H195 H 0.97667 0.28880 0.06375
 H196 H 0.93286 0.28437 0.09709
 H197 H 0.90716 0.20225 0.05251
 H198 H 0.95128 0.20648 0.01912
 H199 H 1.03900 0.29354 0.02074
 H200 H 1.08499 0.29512 0.05176
 H201 H 1.01462 0.20907 0.06153
 H202 H 1.04287 0.21078 -0.01069
 H203 H 1.08719 0.21286 -0.04395
 H204 H 1.05407 0.29574 -0.08224
 H205 H 1.01009 0.29370 -0.04901
 H206 H 0.98102 0.20803 -0.05082
 H207 H 0.93938 0.20881 -0.08704
 H208 H 0.90572 0.29056 -0.04681
 H209 H 0.94770 0.28976 -0.01045
 H210 H 1.06025 0.21075 0.09264
 C211 C 0.49609 0.75043 0.49014
 C212 C 0.49638 0.75064 0.52071
 C213 C 0.46834 0.74943 0.53885
 C214 C 0.52501 0.75164 0.53796
 C215 C 0.52416 0.75196 0.47216
 C216 C 0.46787 0.74907 0.47236
 C217 C 0.46330 0.77152 0.56087
 C218 C 0.43861 0.76950 0.58016
 C219 C 0.41870 0.74528 0.57784
 C220 C 0.42330 0.72330 0.55567
 C221 C 0.44807 0.72532 0.53627
 C222 C 0.54528 0.77569 0.53486
 C223 C 0.57167 0.77653 0.55212
 C224 C 0.57787 0.75346 0.57268
 C225 C 0.55771 0.72953 0.57583
 C226 C 0.53140 0.72867 0.55865
 C227 C 0.54605 0.72915 0.47373
 C228 C 0.57101 0.72978 0.45451
 C229 C 0.57416 0.75313 0.43359
 C230 C 0.55263 0.77609 0.43232
 C231 C 0.52774 0.77547 0.45143
 C232 C 0.46440 0.72597 0.45111
 C233 C 0.44047 0.72654 0.43077
 C234 C 0.41979 0.75029 0.43130
 C235 C 0.42252 0.77299 0.45304
 C236 C 0.44651 0.77239 0.47355
 H237 H 0.47880 0.79014 0.56337
 H238 H 0.43534 0.78657 0.59727
 H239 H 0.40812 0.70435 0.55379
 H240 H 0.45189 0.70772 0.51986
 H241 H 0.54047 0.79389 0.51941
 H242 H 0.58701 0.79527 0.54969
 H243 H 0.51596 0.71006 0.56146
 H244 H 0.54338 0.71057 0.48922
 H245 H 0.58748 0.71180 0.45552
 H246 H 0.55477 0.79417 0.41615
 H247 H 0.51097 0.79312 0.44978
 H248 H 0.48081 0.70797 0.44970
 H249 H 0.43863 0.70892 0.41402
 H250 H 0.40670 0.79155 0.45354
 H251 H 0.44916 0.79069 0.48942
 H252 H 0.56220 0.71166 0.59178
 C253 C 0.00974 0.74894 0.00356
 C254 C -0.02080 0.75089 0.00334
 C255 C -0.03811 0.75115 -0.02524
 C256 C -0.03887 0.75251 0.03143
 C257 C 0.02758 0.74831 0.03173
 C258 C 0.02771 0.74788 -0.02457
 C259 C -0.03380 0.77374 -0.04690
 C260 C -0.05109 0.77398 -0.07325
 C261 C -0.07293 0.75175 -0.07804
 C262 C -0.07728 0.72925 -0.05646
 C263 C -0.06004 0.72901 -0.03019
 C264 C -0.05966 0.77608 0.03505
 C265 C -0.07889 0.77678 0.05988
 C266 C -0.07774 0.75383 0.08139
 C267 C -0.05677 0.73040 0.07817
 C268 C -0.03745 0.72971 0.05326
 C269 C 0.04753 0.72428 0.03662
 C270 C 0.06809 0.72520 0.06032
 C271 C 0.06909 0.75023 0.07934
 C272 C 0.04862 0.77393 0.07523
 C273 C 0.02789 0.77299 0.05146
 C274 C 0.02500 0.72393 -0.04501
 C275 C 0.04429 0.72204 -0.06988
 C276 C 0.06643 0.74404 -0.07438
 C277 C 0.06880 0.76817 -0.05428
 C278 C 0.04963 0.77003 -0.02951
 H279 H -0.01735 0.79131 -0.04320
 H280 H -0.04765 0.79167 -0.08964
 H281 H -0.09419 0.71201 -0.05977
 H282 H -0.06379 0.71154 -0.01365
 H283 H -0.06126 0.79374 0.01835
 H284 H -0.09502 0.79499 0.06196
 H285 H -0.02203 0.71100 0.05058
 H286 H 0.04778 0.70521 0.02143
 H287 H 0.08385 0.70680 0.06325
 H288 H 0.04931 0.79348 0.08977
 H289 H 0.01306 0.79197 0.04767
 H290 H 0.00855 0.70638 -0.04126
 H291 H 0.04230 0.70316 -0.08518
 H292 H 0.08584 0.78531 -0.05740
 H293 H 0.05216 0.78854 -0.01386
 H294 H -0.05574 0.71237 0.09453
 C295 C 0.47849 0.25108 0.50506
 C296 C 0.50900 0.24860 0.50496
 C297 C 0.52655 0.24693 0.47663
 C298 C 0.52722 0.24799 0.53293
 C299 C 0.46081 0.25318 0.53333
 C300 C 0.46082 0.25141 0.47667
 C301 C 0.52311 0.22281 0.45648
 C302 C 0.54194 0.22038 0.43133
 C303 C 0.56431 0.24199 0.42626
 C304 C 0.56743 0.26625 0.44604
 C305 C 0.54873 0.26867 0.47111
 C306 C 0.54701 0.22380 0.53773
 C307 C 0.56793 0.22469 0.56114
 C308 C 0.56947 0.24985 0.57996
 C309 C 0.54916 0.27371 0.57595
 C310 C 0.52808 0.27281 0.55248
 C311 C 0.44044 0.27709 0.53704
 C312 C 0.42146 0.27818 0.56204
 C313 C 0.42246 0.25531 0.58361
 C314 C 0.44302 0.23156 0.58034
 C315 C 0.46210 0.23046 0.55527
 C316 C 0.46530 0.27369 0.45471
 C317 C 0.44767 0.27401 0.42857
 C318 C 0.42533 0.25220 0.42429
 C319 C 0.42078 0.23004 0.44614
 C320 C 0.43835 0.22970 0.47221
 H321 H 0.50645 0.20557 0.46068
 H322 H 0.53947 0.20143 0.41622
 H323 H 0.58471 0.28302 0.44239
 H324 H 0.55182 0.28729 0.48652
 H325 H 0.54687 0.20462 0.52269
 H326 H 0.58354 0.20615 0.56398
 H327 H 0.51340 0.29192 0.54876
 H328 H 0.43893 0.29469 0.52027
 H329 H 0.40558 0.29659 0.56425
 H330 H 0.44384 0.21362 0.59679
 H331 H 0.47720 0.21150 0.55253
 H332 H 0.48215 0.29095 0.45800
 H333 H 0.45121 0.29141 0.41191
 H334 H 0.40346 0.21317 0.44315
 H335 H 0.43444 0.21247 0.48897
 H336 H 0.55025 0.29335 0.59033
 C337 C 1.00357 0.01911 0.25063
 C338 C 1.00392 -0.01134 0.25287
 C339 C 0.97585 -0.02935 0.25403
 C340 C 1.03220 -0.02904 0.25358
 C341 C 1.03160 0.03721 0.24876
 C342 C 0.97490 0.03629 0.25022
 C343 C 0.95535 -0.02643 0.27794
 C344 C 0.93050 -0.04569 0.27990
 C345 C 0.92607 -0.06801 0.25802
 C346 C 0.94622 -0.07059 0.23395
 C347 C 0.97098 -0.05145 0.23202
 C348 C 1.03726 -0.04869 0.27777
 C349 C 1.06104 -0.06919 0.27693
 C350 C 1.07997 -0.07044 0.25180
 C351 C 1.07568 -0.05023 0.22794
 C352 C 1.05184 -0.02957 0.22882
 C353 C 1.03502 0.05766 0.22495
 C354 C 1.05973 0.07700 0.22405
 C355 C 1.08128 0.07631 0.24703
 C356 C 1.07830 0.05568 0.27068
 C357 C 1.05352 0.03623 0.27160
 C358 C 0.95324 0.03174 0.22759
 C359 C 0.92688 0.04906 0.22710
 C360 C 0.92210 0.07111 0.24912
 C361 C 0.94362 0.07568 0.27167
 C362 C 0.96991 0.05844 0.27218
 H363 H 0.95904 -0.00983 0.29538
 H364 H 0.91515 -0.04353 0.29873
 H365 H 0.94315 -0.08777 0.21691
 H366 H 0.98666 -0.05414 0.21354
 H367 H 1.02215 -0.04876 0.29689
 H368 H 1.06403 -0.08471 0.29551
 H369 H 1.04791 -0.01497 0.20972
 H370 H 1.01826 0.05893 0.20726
 H371 H 1.06171 0.09290 0.20571
 H372 H 1.09474 0.05508 0.28870
 H373 H 1.05099 0.02108 0.29048
 H374 H 0.95696 0.01513 0.21015
 H375 H 0.91047 0.04552 0.20940
 H376 H 0.94023 0.09280 0.28870
 H377 H 0.98645 0.06239 0.28967
 H378 H 1.09010 -0.05104 0.20829
 C379 C 0.50520 0.49110 0.75288
 C380 C 0.50519 0.52155 0.75054
 C381 C 0.53344 0.53924 0.74841
 C382 C 0.47672 0.53915 0.75033
 C383 C 0.47689 0.47353 0.75445
 C384 C 0.53325 0.47297 0.75339
 C385 C 0.55553 0.53795 0.77107
 C386 C 0.58063 0.55695 0.76987
 C387 C 0.58378 0.57741 0.74610
 C388 C 0.56205 0.57842 0.72331
 C389 C 0.53701 0.55953 0.72450
 C390 C 0.47228 0.56155 0.77216
 C391 C 0.44617 0.57910 0.77188
 C392 C 0.42426 0.57461 0.74967
 C393 C 0.42852 0.55233 0.72776
 C394 C 0.45470 0.53471 0.72802
 C395 C 0.47141 0.45145 0.73256
 C396 C 0.44636 0.43276 0.73484
 C397 C 0.42655 0.43578 0.75912
 C398 C 0.43159 0.45804 0.78088
 C399 C 0.45673 0.47687 0.77859
 C400 C 0.55279 0.47223 0.72855
 C401 C 0.57640 0.45129 0.72756
 C402 C 0.58056 0.43101 0.75136
 C403 C 0.56174 0.43242 0.77654
 C404 C 0.53819 0.45320 0.77751
 H405 H 0.55290 0.52291 0.79003
 H406 H 0.59722 0.55613 0.78775
 H407 H 0.56416 0.59422 0.70489
 H408 H 0.52012 0.56102 0.70694
 H409 H 0.48909 0.56544 0.78940
 H410 H 0.44320 0.59638 0.78882
 H411 H 0.45798 0.51792 0.71067
 H412 H 0.48683 0.44844 0.71392
 H413 H 0.44273 0.41555 0.71795
 H414 H 0.41646 0.46044 0.79985
 H415 H 0.46090 0.49346 0.79594
 H416 H 0.54897 0.48690 0.70948
 H417 H 0.59077 0.45029 0.70790
 H418 H 0.56469 0.41683 0.79503
 H419 H 0.52317 0.45326 0.79671
 H420 H 0.41182 0.54882 0.71033
 C421 C 1.02173 1.00536 0.74893
 C422 C 0.99112 1.00532 0.74884
 C423 C 0.97355 0.97710 0.74697
 C424 C 0.97289 1.03327 0.75028
 C425 C 1.03948 1.03355 0.75054
 C426 C 1.03942 0.97698 0.74795
 C427 C 0.95309 0.97330 0.72317
 C428 C 0.93436 0.94820 0.72221
 C429 C 0.93574 0.92669 0.74510
 C430 C 0.95639 0.93006 0.76874
 C431 C 0.97523 0.95524 0.76971
 C432 C 0.97402 1.05482 0.72722
 C433 C 0.95321 1.07856 0.72669
 C434 C 0.93115 1.08085 0.74919
 C435 C 0.93066 1.05993 0.77269
 C436 C 0.95132 1.03627 0.77318
 C437 C 1.03645 1.05358 0.77484
 C438 C 1.05551 1.07852 0.77725
 C439 C 1.07777 1.08353 0.75548
 C440 C 1.08053 1.06386 0.73106
 C441 C 1.06158 1.03899 0.72865
 C442 C 1.06009 0.97085 0.77107
 C443 C 1.07768 0.94481 0.77027
 C444 C 1.07497 0.92462 0.74623
 C445 C 1.05441 0.93060 0.72299
 C446 C 1.03676 0.95672 0.72380
 H447 H 0.95136 0.99005 0.70557
 H448 H 0.91838 0.94587 0.70392
 H449 H 0.95746 0.91362 0.78667
 H450 H 0.99052 0.95808 0.78850
 H451 H 0.99013 1.05255 0.70908
 H452 H 0.95380 1.09453 0.70830
 H453 H 0.94994 1.01971 0.79098
 H454 H 1.01996 1.04943 0.79229
 H455 H 1.05331 1.09351 0.79635
 H456 H 1.09772 1.06744 0.71415
 H457 H 1.06442 1.02368 0.70989
 H458 H 1.06259 0.98628 0.78977
 H459 H 1.09357 0.94059 0.78833
 H460 H 1.05222 0.91530 0.70413
 H461 H 1.02133 0.96133 0.70548
 H462 H 0.91374 1.06136 0.79022
 C463 C 0.52044 0.50378 0.24787
 C464 C 0.48985 0.50413 0.24810
 C465 C 0.47180 0.47616 0.24650
 C466 C 0.47208 0.53233 0.24959
 C467 C 0.53864 0.53171 0.24919
 C468 C 0.53768 0.47517 0.24681
 C469 C 0.45094 0.47266 0.22300
 C470 C 0.43172 0.44792 0.22238
 C471 C 0.43298 0.42645 0.24532
 C472 C 0.45403 0.42951 0.26866
 C473 C 0.47337 0.45433 0.26929
 C474 C 0.47318 0.55364 0.22630
 C475 C 0.45266 0.57761 0.22583
 C476 C 0.43099 0.58037 0.24862
 C477 C 0.43057 0.55974 0.27234
 C478 C 0.45092 0.53583 0.27279
 C479 C 0.53615 0.55191 0.27341
 C480 C 0.55566 0.57654 0.27557
 C481 C 0.57784 0.58108 0.25361
 C482 C 0.58006 0.56126 0.22925
 C483 C 0.56067 0.53670 0.22710
 C484 C 0.55844 0.46878 0.26978
 C485 C 0.57563 0.44250 0.26886
 C486 C 0.57243 0.42237 0.24487
 C487 C 0.55180 0.42857 0.22180
 C488 C 0.53452 0.45492 0.22270
 H489 H 0.44928 0.48939 0.20537
 H490 H 0.41545 0.44583 0.20430
 H491 H 0.45504 0.41310 0.28663
 H492 H 0.48895 0.45695 0.28787
 H493 H 0.48898 0.55097 0.20794
 H494 H 0.45308 0.59340 0.20729
 H495 H 0.44958 0.51946 0.29077
 H496 H 0.51975 0.54812 0.29102
 H497 H 0.55385 0.59165 0.29461
 H498 H 0.59718 0.56448 0.21219
 H499 H 0.56311 0.52126 0.20840
 H500 H 0.56130 0.48420 0.28844
 H501 H 0.59164 0.43801 0.28673
 H502 H 0.54932 0.41324 0.20301
 H503 H 0.51901 0.45973 0.20450
 H504 H 0.41388 0.56161 0.29003
 O505 O 0.25977 0.17276 0.19725
 O506 O 0.29286 0.16382 0.23925
 O507 O 0.18092 0.20835 0.24167
 O508 O 0.16986 0.24747 0.27113
 O509 O 0.21709 0.25170 0.16185
 O510 O 0.25921 0.28462 0.15401
 O511 O 0.25917 0.29139 0.31811
 O512 O 0.22411 0.25065 0.32534
 O513 O 0.33674 0.25075 0.28187
 O514 O 0.34574 0.21641 0.23892
 O515 O 0.30066 0.32751 0.24204
 O516 O 0.25743 0.33685 0.20706
 O517 O 0.25964 0.32767 0.28203
 O518 O 0.22586 0.33731 0.23938
 O519 O 0.33686 0.29121 0.24168
 O520 O 0.34593 0.24856 0.20697
 O521 O 0.30043 0.25188 0.31797
 O522 O 0.26434 0.21747 0.32746
 O523 O 0.25963 0.20930 0.16138
 O524 O 0.29240 0.25097 0.15339
 O525 O 0.18096 0.25069 0.19819
 O526 O 0.17376 0.28503 0.24064
 O527 O 0.21718 0.17212 0.23967
 O528 O 0.26071 0.16233 0.27176
 Zr529 Zr 0.25795 0.19623 0.23846
 O530 O 0.28582 0.22183 0.26699
 Zr531 Zr 0.20499 0.24901 0.23905
 O532 O 0.23075 0.27701 0.26739
 Zr533 Zr 0.25788 0.24958 0.18609
 O534 O 0.28610 0.27731 0.21218
 Zr535 Zr 0.25980 0.25077 0.29380
 O536 O 0.23139 0.22219 0.26816
 Zr537 Zr 0.31265 0.25069 0.24100
 O538 O 0.28705 0.22270 0.21215
 Zr539 Zr 0.25968 0.30373 0.24120
 O540 O 0.23118 0.27832 0.21263
 O541 O 0.22989 0.22137 0.21070
 O542 O 0.28796 0.27894 0.26924
 C543 C 0.26049 0.18174 0.16980
 C544 C 0.18966 0.18080 0.24159
 C545 C 0.18955 0.25209 0.17065
 C546 C 0.25934 0.31894 0.30952
 C547 C 0.32799 0.25154 0.30938
 C548 C 0.32821 0.31871 0.24221
 H549 H 0.29798 0.20816 0.27969
 H550 H 0.29858 0.28977 0.19868
 H551 H 0.21697 0.20860 0.19780
 H552 H 0.21714 0.28922 0.28008
 H553 H 0.21090 0.23351 0.32008
 H554 H 0.17733 0.25750 0.28954
 H555 H 0.34189 0.26496 0.19249
 H556 H 0.30854 0.23737 0.16058
 H557 H 0.25286 0.19985 0.32040
 H558 H 0.24374 0.16548 0.28584
 H559 H 0.27443 0.33340 0.19308
 H560 H 0.24522 0.30040 0.16124
 H561 H 0.30859 0.17100 0.22523
 H562 H 0.34140 0.20178 0.25509
 H563 H 0.17998 0.29966 0.22507
 H564 H 0.21066 0.33251 0.25490
 O565 O 0.74878 0.83691 0.21776
 O566 O 0.71638 0.84506 0.26005
 O567 O 0.82837 0.80123 0.26054
 O568 O 0.84002 0.76223 0.29000
 O569 O 0.79208 0.75832 0.18100
 O570 O 0.75018 0.72550 0.17267
 O571 O 0.75051 0.71733 0.33728
 O572 O 0.78576 0.75685 0.34497
 O573 O 0.67340 0.75688 0.30159
 O574 O 0.66362 0.79173 0.25855
 O575 O 0.70972 0.68100 0.26018
 O576 O 0.75306 0.67218 0.22595
 O577 O 0.75023 0.68133 0.30086
 O578 O 0.78467 0.67213 0.25816
 O579 O 0.67317 0.71693 0.26049
 O580 O 0.66323 0.75967 0.22688
 O581 O 0.70989 0.75689 0.33761
 O582 O 0.75075 0.79210 0.34656
 O583 O 0.74904 0.80069 0.18148
 O584 O 0.71669 0.75856 0.17288
 O585 O 0.82859 0.75906 0.21703
 O586 O 0.83609 0.72431 0.25871
 O587 O 0.79171 0.83716 0.25998
 O588 O 0.75003 0.84527 0.29306
 Zr589 Zr 0.75127 0.81268 0.25843
 O590 O 0.72356 0.78670 0.28666
 Zr591 Zr 0.80475 0.76029 0.25798
 O592 O 0.77936 0.73205 0.28637
 Zr593 Zr 0.75142 0.75997 0.20542
 O594 O 0.72369 0.73168 0.23132
 Zr595 Zr 0.75031 0.75799 0.31315
 O596 O 0.77835 0.78658 0.28743
 Zr597 Zr 0.69701 0.75771 0.26049
 O598 O 0.72218 0.78627 0.23194
 Zr599 Zr 0.75044 0.70529 0.26009
 O600 O 0.77845 0.73110 0.23149
 O601 O 0.77937 0.78809 0.23019
 O602 O 0.72217 0.72966 0.28848
 C603 C 0.74789 0.82818 0.19022
 C604 C 0.81934 0.82868 0.26108
 C605 C 0.81973 0.75787 0.18956
 C606 C 0.75026 0.68987 0.32843
 C607 C 0.68231 0.75652 0.32907
 C608 C 0.68207 0.68950 0.26034
 H609 H 0.71098 0.80021 0.29906
 H610 H 0.71131 0.71922 0.21769
 H611 H 0.79203 0.80110 0.21732
 H612 H 0.79303 0.71981 0.29898
 H613 H 0.80069 0.77207 0.33856
 H614 H 0.83385 0.75001 0.30752
 H615 H 0.66787 0.74408 0.21169
 H616 H 0.70056 0.77212 0.18018
 H617 H 0.73487 0.80693 0.34169
 H618 H 0.76386 0.83809 0.30901
 H619 H 0.73664 0.67611 0.21139
 H620 H 0.76409 0.70957 0.17973
 H621 H 0.70020 0.83767 0.24662
 H622 H 0.66715 0.80578 0.27545
 H623 H 0.82951 0.70968 0.24326
 H624 H 0.79943 0.67655 0.27424
 O625 O 0.75036 0.17155 0.79073
 O626 O 0.71905 0.16226 0.74945
 O627 O 0.82955 0.20933 0.74868
 O628 O 0.84093 0.24879 0.72078
 O629 O 0.79125 0.25020 0.82880
 O630 O 0.74970 0.28206 0.83748
 O631 O 0.74982 0.29095 0.67178
 O632 O 0.78483 0.25188 0.66395
 O633 O 0.67281 0.25127 0.70858
 O634 O 0.66259 0.21823 0.74997
 O635 O 0.70973 0.32805 0.74882
 O636 O 0.75150 0.33800 0.78194
 O637 O 0.74976 0.32731 0.70785
 O638 O 0.78538 0.33551 0.75192
 O639 O 0.67325 0.29219 0.74879
 O640 O 0.66494 0.24802 0.78418
 O641 O 0.70883 0.25183 0.67216
 O642 O 0.74576 0.21642 0.66346
 O643 O 0.74938 0.20728 0.82746
 O644 O 0.71553 0.24976 0.83543
 O645 O 0.82803 0.25062 0.79310
 O646 O 0.83473 0.28621 0.75010
 O647 O 0.79390 0.17263 0.74951
 O648 O 0.74954 0.16406 0.71531
 Zr649 Zr 0.75240 0.19609 0.75047
 O650 O 0.72381 0.22200 0.72290
 Zr651 Zr 0.80468 0.24933 0.75159
 O652 O 0.77892 0.27687 0.72274
 Zr653 Zr 0.75114 0.24845 0.80387
 O654 O 0.72365 0.27719 0.77802
 Zr655 Zr 0.74979 0.25074 0.69620
 O656 O 0.77897 0.22263 0.72161
 Zr657 Zr 0.69705 0.25102 0.74911
 O658 O 0.72260 0.22195 0.77699
 Zr659 Zr 0.75015 0.30361 0.74904
 O660 O 0.77791 0.27793 0.77818
 O661 O 0.77978 0.22097 0.77906
 O662 O 0.72177 0.27910 0.72093
 C663 C 0.74903 0.17985 0.81833
 C664 C 0.82134 0.18173 0.74831
 C665 C 0.81889 0.25115 0.82056
 C666 C 0.74966 0.31845 0.68031
 C667 C 0.68129 0.25179 0.68105
 C668 C 0.68216 0.31965 0.74865
 H669 H 0.71152 0.20845 0.71023
 H670 H 0.71127 0.28970 0.79164
 H671 H 0.79266 0.20808 0.79191
 H672 H 0.79250 0.28902 0.71002
 H673 H 0.79920 0.23573 0.66942
 H674 H 0.83295 0.25626 0.70141
 H675 H 0.66728 0.26589 0.79722
 H676 H 0.70059 0.23462 0.82885
 H677 H 0.76043 0.20060 0.66888
 H678 H 0.76826 0.16545 0.70333
 H679 H 0.73742 0.33233 0.79820
 H680 H 0.76242 0.29878 0.83016
 H681 H 0.70192 0.16995 0.76147
 H682 H 0.66863 0.20184 0.73619
 H683 H 0.82952 0.29957 0.76715
 H684 H 0.79831 0.33309 0.73396
 O685 O 0.24112 0.81903 0.79257
 O686 O 0.27398 0.82755 0.75072
 O687 O 0.16208 0.78325 0.74802
 O688 O 0.15160 0.74419 0.71828
 O689 O 0.19766 0.74079 0.82814
 O690 O 0.23968 0.70759 0.83691
 O691 O 0.24178 0.69921 0.67296
 O692 O 0.20604 0.73947 0.66497
 O693 O 0.31820 0.74008 0.70932
 O694 O 0.32718 0.77431 0.75228
 O695 O 0.28177 0.66337 0.75007
 O696 O 0.23818 0.65486 0.78441
 O697 O 0.24169 0.66329 0.70941
 O698 O 0.20694 0.65432 0.75160
 O699 O 0.31797 0.69952 0.74991
 O700 O 0.32710 0.74246 0.78431
 O701 O 0.28222 0.73922 0.67282
 O702 O 0.24586 0.77321 0.66299
 O703 O 0.24067 0.78285 0.82880
 O704 O 0.27286 0.74096 0.83766
 O705 O 0.16177 0.74140 0.79147
 O706 O 0.15510 0.70660 0.74948
 O707 O 0.19843 0.81924 0.75001
 O708 O 0.24220 0.82852 0.71785
 Zr709 Zr 0.23926 0.79510 0.75160
 O710 O 0.26735 0.76910 0.72363
 Zr711 Zr 0.18625 0.74257 0.75096
 O712 O 0.21226 0.71417 0.72316
 Zr713 Zr 0.23875 0.74232 0.80447
 O714 O 0.26716 0.71417 0.77896
 Zr715 Zr 0.24152 0.74007 0.69681
 O716 O 0.21290 0.76901 0.72188
 Zr717 Zr 0.29395 0.74031 0.75009
 O718 O 0.26817 0.76874 0.77840
 Zr719 Zr 0.24093 0.68759 0.74996
 O720 O 0.21223 0.71345 0.77796
 O721 O 0.21098 0.77038 0.77932
 O722 O 0.26946 0.71196 0.72191
 C723 C 0.24181 0.81033 0.82012
 C724 C 0.17089 0.81073 0.74806
 C725 C 0.17018 0.74039 0.81909
 C726 C 0.24203 0.67177 0.68185
 C727 C 0.30970 0.73954 0.68170
 C728 C 0.30933 0.67203 0.74988
 H729 H 0.27960 0.78265 0.71096
 H730 H 0.27951 0.70179 0.79271
 H731 H 0.19806 0.78336 0.79203
 H732 H 0.19884 0.70186 0.71040
 H733 H 0.19258 0.75655 0.66990
 H734 H 0.15885 0.73309 0.70041
 H735 H 0.32295 0.72620 0.79889
 H736 H 0.28934 0.75400 0.83033
 H737 H 0.23374 0.79061 0.66961
 H738 H 0.22509 0.82549 0.70390
 H739 H 0.25484 0.65853 0.79873
 H740 H 0.22552 0.69194 0.82981
 H741 H 0.28987 0.82031 0.76459
 H742 H 0.32289 0.78898 0.73611
 H743 H 0.16129 0.69207 0.76518
 H744 H 0.19222 0.65877 0.73548
 O745 O 0.24744 0.33995 0.72005
 O746 O 0.21472 0.34823 0.76212
 O747 O 0.32703 0.30470 0.76347
 O748 O 0.33840 0.26591 0.79339
 O749 O 0.29112 0.26125 0.68411
 O750 O 0.24916 0.22832 0.67578
 O751 O 0.24963 0.22075 0.84018
 O752 O 0.28469 0.26139 0.84738
 O753 O 0.17207 0.26012 0.80426
 O754 O 0.16228 0.29496 0.76166
 O755 O 0.20853 0.18431 0.76311
 O756 O 0.25204 0.17554 0.72882
 O757 O 0.24903 0.18467 0.80383
 O758 O 0.28341 0.17534 0.76129
 O759 O 0.17194 0.22023 0.76314
 O760 O 0.16220 0.26317 0.72942
 O761 O 0.20849 0.25973 0.84035
 O762 O 0.24421 0.29472 0.84955
 O763 O 0.24805 0.30354 0.68399
 O764 O 0.21579 0.26150 0.67552
 O765 O 0.32744 0.26225 0.72033
 O766 O 0.33501 0.22813 0.76254
 O767 O 0.29038 0.34057 0.76190
 O768 O 0.24699 0.34955 0.79476
 Zr769 Zr 0.24986 0.31610 0.76097
 O770 O 0.22236 0.29006 0.78936
 Zr771 Zr 0.30339 0.26381 0.76113
 O772 O 0.27801 0.23544 0.78935
 Zr773 Zr 0.25032 0.26305 0.70827
 O774 O 0.22250 0.23488 0.73418
 Zr775 Zr 0.24885 0.26134 0.81595
 O776 O 0.27687 0.29030 0.79043
 Zr777 Zr 0.19576 0.26102 0.76323
 O778 O 0.22094 0.28945 0.73455
 Zr779 Zr 0.24925 0.20858 0.76303
 O780 O 0.27736 0.23441 0.73458
 O781 O 0.27809 0.29136 0.73300
 O782 O 0.22085 0.23296 0.79127
 C783 C 0.24675 0.33107 0.69255
 C784 C 0.31799 0.33214 0.76343
 C785 C 0.31871 0.26085 0.69282
 C786 C 0.24928 0.19327 0.83139
 C787 C 0.18093 0.25946 0.83175
 C788 C 0.18087 0.19280 0.76311
 H789 H 0.21009 0.30352 0.80217
 H790 H 0.21015 0.22240 0.72054
 H791 H 0.29080 0.30425 0.72005
 H792 H 0.29172 0.22327 0.80199
 H793 H 0.29779 0.27863 0.84224
 H794 H 0.33139 0.25504 0.81147
 H795 H 0.16668 0.24734 0.71442
 H796 H 0.19956 0.27498 0.68274
 H797 H 0.25622 0.31212 0.84286
 H798 H 0.26443 0.34681 0.80837
 H799 H 0.23540 0.17918 0.71446
 H800 H 0.26326 0.21256 0.68285
 H801 H 0.19876 0.34075 0.74848
 H802 H 0.16631 0.30929 0.77820
 H803 H 0.32860 0.21323 0.74727
 H804 H 0.29826 0.17995 0.77724
 O805 O 0.76340 0.67234 0.69564
 O806 O 0.79644 0.66330 0.73766
 O807 O 0.68462 0.70812 0.74001
 O808 O 0.67357 0.74724 0.76940
 O809 O 0.72102 0.75146 0.66024
 O810 O 0.76324 0.78420 0.65244
 O811 O 0.76285 0.79088 0.81655
 O812 O 0.72776 0.75013 0.82372
 O813 O 0.84046 0.75012 0.78038
 O814 O 0.84946 0.71581 0.73747
 O815 O 0.80456 0.82695 0.74065
 O816 O 0.76148 0.83645 0.70557
 O817 O 0.76346 0.82719 0.78050
 O818 O 0.72978 0.83690 0.73775
 O819 O 0.84070 0.79059 0.74027
 O820 O 0.84971 0.74793 0.70548
 O821 O 0.80408 0.75136 0.81642
 O822 O 0.76798 0.71700 0.82590
 O823 O 0.76339 0.70891 0.65979
 O824 O 0.79635 0.75049 0.65190
 O825 O 0.68485 0.75048 0.69654
 O826 O 0.67763 0.78478 0.73902
 O827 O 0.72077 0.67179 0.73803
 O828 O 0.76426 0.66185 0.77013
 Zr829 Zr 0.76161 0.69579 0.73686
 O830 O 0.78949 0.72131 0.76544
 Zr831 Zr 0.70879 0.74870 0.73742
 O832 O 0.73454 0.77661 0.76581
 Zr833 Zr 0.76175 0.74917 0.68453
 O834 O 0.78998 0.77683 0.71067
 Zr835 Zr 0.76349 0.75028 0.79223
 O836 O 0.73507 0.72178 0.76654
 Zr837 Zr 0.81641 0.75013 0.73950
 O838 O 0.79081 0.72220 0.71061
 Zr839 Zr 0.76355 0.80328 0.73966
 O840 O 0.73506 0.77795 0.71104
 O841 O 0.73365 0.72102 0.70908
 O842 O 0.79173 0.77841 0.76772
 C843 C 0.76416 0.68135 0.66820
 C844 C 0.69329 0.68056 0.73994
 C845 C 0.69348 0.75191 0.66903
 C846 C 0.76306 0.81843 0.80798
 C847 C 0.83166 0.75096 0.80786
 C848 C 0.83209 0.81810 0.74085
 H849 H 0.80161 0.70761 0.77815
 H850 H 0.80250 0.78927 0.69720
 H851 H 0.72071 0.70829 0.69616
 H852 H 0.72092 0.78884 0.77849
 H853 H 0.71457 0.73298 0.81844
 H854 H 0.68107 0.75709 0.78789
 H855 H 0.84578 0.76441 0.69106
 H856 H 0.81242 0.73679 0.65909
 H857 H 0.75661 0.69933 0.81878
 H858 H 0.74729 0.66503 0.78421
 H859 H 0.77849 0.83298 0.69162
 H860 H 0.74934 0.80005 0.65969
 H861 H 0.81221 0.67045 0.72366
 H862 H 0.84503 0.70113 0.75357
 H863 H 0.68387 0.79940 0.72345
 H864 H 0.71458 0.83217 0.75330
 O865 O 0.24917 0.67194 0.29059
 O866 O 0.21783 0.66279 0.24923
 O867 O 0.32828 0.71000 0.24865
 O868 O 0.33966 0.74954 0.22093
 O869 O 0.28990 0.75057 0.32889
 O870 O 0.24827 0.78229 0.33769
 O871 O 0.24858 0.79179 0.17203
 O872 O 0.28367 0.75271 0.16412
 O873 O 0.17160 0.75181 0.20863
 O874 O 0.16138 0.71861 0.24988
 O875 O 0.20836 0.82849 0.24914
 O876 O 0.25008 0.83840 0.28237
 O877 O 0.24843 0.82800 0.20825
 O878 O 0.28397 0.83610 0.25238
 O879 O 0.17194 0.79257 0.24896
 O880 O 0.16363 0.74829 0.28418
 O881 O 0.20765 0.75259 0.17225
 O882 O 0.24460 0.71732 0.16337
 O883 O 0.24813 0.70756 0.32743
 O884 O 0.21418 0.74994 0.33550
 O885 O 0.32669 0.75114 0.29321
 O886 O 0.33340 0.78685 0.25035
 O887 O 0.29268 0.67323 0.24934
 O888 O 0.24838 0.66464 0.21518
 Zr889 Zr 0.25117 0.69662 0.25040
 O890 O 0.22261 0.72258 0.22287
 Zr891 Zr 0.30338 0.74994 0.25170
 O892 O 0.27763 0.77756 0.22295
 Zr893 Zr 0.24981 0.74879 0.30396
 O894 O 0.22230 0.77758 0.27819
 Zr895 Zr 0.24857 0.75147 0.19630
 O896 O 0.27773 0.72329 0.22164
 Zr897 Zr 0.19579 0.75145 0.24917
 O898 O 0.22133 0.72234 0.27699
 Zr899 Zr 0.24881 0.80414 0.24934
 O900 O 0.27656 0.77840 0.27840
 O901 O 0.27850 0.72145 0.27908
 O902 O 0.22048 0.77968 0.22111
 C903 C 0.24782 0.68016 0.31821
 C904 C 0.32010 0.68240 0.24816
 C905 C 0.31753 0.75161 0.32065
 C906 C 0.24838 0.81925 0.18068
 C907 C 0.18011 0.75245 0.18111
 C908 C 0.18081 0.82004 0.24892
 H909 H 0.21036 0.70906 0.21014
 H910 H 0.20989 0.79002 0.29184
 H911 H 0.29140 0.70854 0.29189
 H912 H 0.29121 0.78977 0.21029
 H913 H 0.29801 0.73651 0.16952
 H914 H 0.33169 0.75707 0.20157
 H915 H 0.16595 0.76611 0.29731
 H916 H 0.19927 0.73480 0.32886
 H917 H 0.25915 0.70141 0.16882
 H918 H 0.26705 0.66617 0.20314
 H919 H 0.23593 0.83269 0.29855
 H920 H 0.26095 0.79906 0.33043
 H921 H 0.20073 0.67038 0.26137
 H922 H 0.16746 0.70227 0.23604
 H923 H 0.32815 0.80016 0.26743
 H924 H 0.29694 0.83375 0.23444
 O925 O 0.73908 0.31522 0.29106
 O926 O 0.77187 0.32374 0.24919
 O927 O 0.65999 0.27939 0.24654
 O928 O 0.64941 0.24031 0.21696
 O929 O 0.69563 0.23708 0.32672
 O930 O 0.73759 0.20383 0.33551
 O931 O 0.73971 0.19536 0.17155
 O932 O 0.70388 0.23555 0.16353
 O933 O 0.81604 0.23624 0.20785
 O934 O 0.82511 0.27041 0.25078
 O935 O 0.77954 0.15952 0.24870
 O936 O 0.73601 0.15101 0.28297
 O937 O 0.73956 0.15945 0.20802
 O938 O 0.70469 0.15058 0.25022
 O939 O 0.81577 0.19565 0.24843
 O940 O 0.82499 0.23860 0.28283
 O941 O 0.78005 0.23543 0.17136
 O942 O 0.74364 0.26937 0.16155
 O943 O 0.73868 0.27907 0.32732
 O944 O 0.77083 0.23713 0.33618
 O945 O 0.65970 0.23766 0.29009
 O946 O 0.65303 0.20274 0.24811
 O947 O 0.69634 0.31538 0.24852
 O948 O 0.74012 0.32465 0.21634
 Zr949 Zr 0.73717 0.29127 0.25012
 O950 O 0.76523 0.26525 0.22216
 Zr951 Zr 0.68414 0.23874 0.24955
 O952 O 0.71011 0.21034 0.22173
 Zr953 Zr 0.73668 0.23853 0.30302
 O954 O 0.76504 0.21035 0.27751
 Zr955 Zr 0.73937 0.23623 0.19537
 O956 O 0.71077 0.26517 0.22045
 Zr957 Zr 0.79182 0.23646 0.24862
 O958 O 0.76608 0.26492 0.27692
 Zr959 Zr 0.73876 0.18377 0.24855
 O960 O 0.71012 0.20964 0.27657
 O961 O 0.70890 0.26658 0.27787
 O962 O 0.76729 0.20812 0.22047
 C963 C 0.73984 0.30654 0.31861
 C964 C 0.66882 0.30685 0.24656
 C965 C 0.66815 0.23670 0.31769
 C966 C 0.73996 0.16793 0.18046
 C967 C 0.80753 0.23576 0.18024
 C968 C 0.80709 0.16818 0.24847
 H969 H 0.77748 0.27880 0.20949
 H970 H 0.77738 0.19796 0.29127
 H971 H 0.69601 0.27958 0.29058
 H972 H 0.69668 0.19803 0.20897
 H973 H 0.69039 0.25260 0.16848
 H974 H 0.65666 0.22928 0.19905
 H975 H 0.82087 0.22231 0.29738
 H976 H 0.78730 0.25016 0.32884
 H977 H 0.73141 0.28673 0.16812
 H978 H 0.72299 0.32165 0.20241
 H979 H 0.75258 0.15477 0.29737
 H980 H 0.72341 0.18820 0.32843
 H981 H 0.78779 0.31649 0.26302
 H982 H 0.82078 0.28512 0.23467
 H983 H 0.65918 0.18827 0.26390
 H984 H 0.69007 0.15494 0.23399
 C985 C 0.25971 0.09771 0.08674
 C986 C 0.26100 0.11760 0.10514
 C987 C 0.26158 0.14022 0.12739
 C988 C 0.26140 0.15924 0.14671
 C989 C 0.76274 0.59746 0.58509
 C990 C 0.76424 0.61730 0.60349
 C991 C 0.76501 0.63989 0.62576
 C992 C 0.76496 0.65887 0.64510
 C993 C 0.74456 0.90637 0.10180
 C994 C 0.74450 0.88958 0.12308
 C995 C 0.74516 0.86902 0.14725
 C996 C 0.74620 0.85075 0.16724
 C997 C 0.24361 0.40865 0.60357
 C998 C 0.24353 0.39202 0.62498
 C999 C 0.24413 0.37164 0.64931
 C1000 C 0.24513 0.35350 0.66943
 C1001 C 0.74767 0.09196 0.89725
 C1002 C 0.74717 0.11216 0.87918
 C1003 C 0.74727 0.13614 0.85840
 C1004 C 0.74784 0.15643 0.84045
 C1005 C 0.24657 0.59249 0.39741
 C1006 C 0.24604 0.61257 0.37920
 C1007 C 0.24611 0.63644 0.35830
 C1008 C 0.24666 0.65670 0.34030
 C1009 C 0.24689 0.89489 0.90281
 C1010 C 0.24615 0.87501 0.88435
 C1011 C 0.24485 0.85225 0.86217
 C1012 C 0.24352 0.83308 0.84301
 C1013 C 0.74575 0.39124 0.40106
 C1014 C 0.74475 0.37130 0.38268
 C1015 C 0.74319 0.34850 0.36058
 C1016 C 0.74168 0.32930 0.34146
 C1017 C 0.10067 0.25407 0.09247
 C1018 C 0.12201 0.25441 0.10929
 C1019 C 0.14629 0.25412 0.12985
 C1020 C 0.16640 0.25340 0.14811
 C1021 C 0.60430 0.75453 0.59143
 C1022 C 0.62581 0.75472 0.60799
 C1023 C 0.65022 0.75424 0.62835
 C1024 C 0.67037 0.75338 0.64651
 C1025 C 0.08655 0.74167 0.90262
 C1026 C 0.10514 0.74034 0.88291
 C1027 C 0.12758 0.73965 0.86046
 C1028 C 0.14702 0.73969 0.84154
 C1029 C 0.58513 0.23895 0.40168
 C1030 C 0.60349 0.23730 0.38180
 C1031 C 0.62572 0.23631 0.35918
 C1032 C 0.64504 0.23616 0.34018
 C1033 C 0.90214 0.75389 0.10458
 C1034 C 0.88372 0.75439 0.12453
 C1035 C 0.86161 0.75540 0.14738
 C1036 C 0.84251 0.75647 0.16666
 C1037 C 0.40131 0.25575 0.60818
 C1038 C 0.38289 0.25656 0.62810
 C1039 C 0.36075 0.25789 0.65088
 C1040 C 0.34160 0.25921 0.67007
 C1041 C 0.89828 0.25131 0.90844
 C1042 C 0.88007 0.25209 0.88830
 C1043 C 0.85913 0.25232 0.86434
 C1044 C 0.84109 0.25203 0.84404
 C1045 C 0.39705 0.75195 0.40827
 C1046 C 0.37877 0.75269 0.38822
 C1047 C 0.35777 0.75287 0.36436
 C1048 C 0.33970 0.75253 0.34411
 C1049 C 0.10558 0.09775 0.24673
 C1050 C 0.12529 0.11637 0.24597
 C1051 C 0.14787 0.13868 0.24465
 C1052 C 0.16695 0.15792 0.24331
 C1053 C 0.60842 0.59842 0.74554
 C1054 C 0.62841 0.61673 0.74461
 C1055 C 0.65125 0.63873 0.74314
 C1056 C 0.67049 0.65779 0.74171
 C1057 C 0.90919 0.10226 0.74770
 C1058 C 0.88907 0.12053 0.74699
 C1059 C 0.86515 0.14151 0.74687
 C1060 C 0.84485 0.15957 0.74727
 C1061 C 0.40793 0.60308 0.24708
 C1062 C 0.38784 0.62134 0.24648
 C1063 C 0.36392 0.64228 0.24648
 C1064 C 0.34362 0.66030 0.24700
 C1065 C 0.09302 0.89980 0.74528
 C1066 C 0.10972 0.87838 0.74510
 C1067 C 0.13018 0.85402 0.74560
 C1068 C 0.14837 0.83387 0.74651
 C1069 C 0.59119 0.39598 0.24375
 C1070 C 0.60778 0.37450 0.24355
 C1071 C 0.62815 0.35011 0.24405
 C1072 C 0.64632 0.32997 0.24498
 C1073 C 0.90304 0.91196 0.26042
 C1074 C 0.88330 0.89343 0.26172
 C1075 C 0.86080 0.87109 0.26229
 C1076 C 0.84185 0.85173 0.26208
 C1077 C 0.40197 0.41499 0.76199
 C1078 C 0.38210 0.39666 0.76347
 C1079 C 0.35948 0.37447 0.76425
 C1080 C 0.34048 0.35518 0.76421
 C1081 C 0.09691 0.25487 0.91461
 C1082 C 0.11673 0.25563 0.89616
 C1083 C 0.13930 0.25691 0.87392
 C1084 C 0.15832 0.25811 0.85467
 C1085 C 0.59854 0.75307 0.41232
 C1086 C 0.61826 0.75354 0.39373
 C1087 C 0.64076 0.75448 0.37138
 C1088 C 0.65974 0.75543 0.35206
 C1089 C 0.90929 0.75235 0.89699
 C1090 C 0.89274 0.75242 0.87548
 C1091 C 0.87239 0.75207 0.85109
 C1092 C 0.85420 0.75158 0.83096
 C1093 C 0.40627 0.25288 0.39808
 C1094 C 0.38947 0.25295 0.37674
 C1095 C 0.36890 0.25262 0.35250
 C1096 C 0.35061 0.25215 0.33245
 C1097 C 0.09240 0.75204 0.10175
 C1098 C 0.11262 0.75285 0.11984
 C1099 C 0.13657 0.75313 0.14070
 C1100 C 0.15681 0.75296 0.15878
 C1101 C 0.59308 0.25156 0.60211
 C1102 C 0.61348 0.25229 0.62002
 C1103 C 0.63760 0.25250 0.64073
 C1104 C 0.65793 0.25230 0.65873
 C1105 C 0.89247 0.23994 0.09804
 C1106 C 0.87256 0.23806 0.11638
 C1107 C 0.84975 0.23662 0.13844
 C1108 C 0.83047 0.23595 0.15752
 C1109 C 0.39438 0.74266 0.59910
 C1110 C 0.37459 0.74114 0.61761
 C1111 C 0.35187 0.74004 0.63982
 C1112 C 0.33264 0.73959 0.65896
 C1113 C 0.24888 0.10470 0.90942
 C1114 C 0.24870 0.12601 0.89269
 C1115 C 0.24883 0.15021 0.87219
 C1116 C 0.24906 0.17023 0.85394
 C1117 C 0.74942 0.60121 0.40637
 C1118 C 0.74931 0.62252 0.38964
 C1119 C 0.74954 0.64674 0.36915
 C1120 C 0.74988 0.66679 0.35094
 C1121 C 0.74367 0.08480 0.09667
 C1122 C 0.74303 0.10331 0.11645
 C1123 C 0.74196 0.12561 0.13897
 C1124 C 0.74097 0.14492 0.15793
 C1125 C 0.24484 0.58826 0.59834
 C1126 C 0.24448 0.60692 0.61798
 C1127 C 0.24369 0.62936 0.64039
 C1128 C 0.24289 0.64874 0.65931
 C1129 C 0.75803 0.90102 0.89249
 C1130 C 0.75998 0.88258 0.87269
 C1131 C 0.76158 0.86040 0.85000
 C1132 C 0.76247 0.84124 0.83082
 C1133 C 0.25526 0.40169 0.39400
 C1134 C 0.25689 0.38318 0.37422
 C1135 C 0.25819 0.36095 0.35154
 C1136 C 0.25889 0.34177 0.33236
 C1137 C 0.24945 0.89906 0.09362
 C1138 C 0.24858 0.88087 0.11368
 C1139 C 0.24817 0.85987 0.13745
 C1140 C 0.24817 0.84168 0.15753
 C1141 C 0.75050 0.39730 0.59238
 C1142 C 0.74970 0.37942 0.61273
 C1143 C 0.74936 0.35874 0.63678
 C1144 C 0.74940 0.34076 0.65704
 C1145 C 0.09874 0.10799 0.75853
 C1146 C 0.11706 0.12787 0.76041
 C1147 C 0.13910 0.15066 0.76191
 C1148 C 0.15816 0.16991 0.76269
 C1149 C 0.59922 0.60524 0.25638
 C1150 C 0.61782 0.62490 0.25805
 C1151 C 0.64011 0.64749 0.25936
 C1152 C 0.65930 0.66663 0.26001
 C1153 C 0.10123 0.90753 0.25009
 C1154 C 0.11940 0.88739 0.24918
 C1155 C 0.14033 0.86350 0.24874
 C1156 C 0.15845 0.84331 0.24871
 C1157 C 0.60287 0.40755 0.74955
 C1158 C 0.62090 0.38726 0.74872
 C1159 C 0.64174 0.36325 0.74835
 C1160 C 0.65981 0.34299 0.74838
 C1161 C 0.89578 0.08999 0.24818
 C1162 C 0.87439 0.10671 0.24788
 C1163 C 0.85015 0.12724 0.24794
 C1164 C 0.83011 0.14555 0.24816
 C1165 C 0.39804 0.59369 0.74902
 C1166 C 0.37670 0.61051 0.74892
 C1167 C 0.35246 0.63110 0.74916
 C1168 C 0.33240 0.64941 0.74949
 C1169 C 0.91478 0.90213 0.74486
 C1170 C 0.89640 0.88228 0.74419
 C1171 C 0.87424 0.85967 0.74306
 C1172 C 0.85502 0.84065 0.74200
 C1173 C 0.41159 0.40223 0.24539
 C1174 C 0.39292 0.38262 0.24496
 C1175 C 0.37051 0.36022 0.24408
 C1176 C 0.35117 0.34128 0.24320
   
