data_POSCAR
  _audit_creation_date              2014-09-24
  _audit_creation_method            'ToBaCCo'
  _symmetry_space_group_name_H-M    'P1'
  _symmetry_Int_Tables_number       1
  _symmetry_cell_setting            triclinic
  loop_
  _symmetry_equiv_pos_as_xyz
 x,y,z
_cell_length_a 43.1619
_cell_length_b 44.9883
_cell_length_c 41.7095
_cell_angle_alpha 90.859500
_cell_angle_beta 90.213500
_cell_angle_gamma 91.207100
loop_
  _atom_site_label
  _atom_site_type_symbol
  _atom_site_fract_x
  _atom_site_fract_y
  _atom_site_fract_z
C1 C 0.24107 0.23321 0.24901
 C2 C 0.21569 0.24754 0.26271
 C3 C 0.20066 0.27021 0.24636
 C4 C 0.21146 0.27858 0.21587
 C5 C 0.23671 0.26424 0.20170
 C6 C 0.25146 0.24135 0.21828
 C7 C 0.25610 0.21071 0.26554
 C8 C 0.28111 0.19583 0.25157
 C9 C 0.29096 0.20358 0.22071
 C10 C 0.27650 0.22646 0.20410
 C11 C 0.28674 0.23468 0.17355
 C12 C 0.27233 0.25763 0.15678
 C13 C 0.24729 0.27226 0.17112
 H14 H 0.20763 0.24104 0.28623
 H15 H 0.19992 0.29579 0.20278
 H16 H 0.24789 0.20443 0.28905
 H17 H 0.31018 0.19206 0.20984
 H18 H 0.30608 0.22314 0.16315
 H19 H 0.23595 0.28988 0.15844
 C20 C 0.70289 0.70290 0.73399
 C21 C 0.67239 0.71178 0.73901
 C22 C 0.65988 0.73506 0.72143
 C23 C 0.67827 0.74933 0.69827
 C24 C 0.70896 0.74070 0.69307
 C25 C 0.72136 0.71736 0.71097
 C26 C 0.71528 0.68009 0.75213
 C27 C 0.74604 0.67134 0.74777
 C28 C 0.76433 0.68543 0.72436
 C29 C 0.75226 0.70868 0.70611
 C30 C 0.77062 0.72368 0.68346
 C31 C 0.75848 0.74728 0.66570
 C32 C 0.72758 0.75543 0.67065
 H33 H 0.65842 0.70070 0.75699
 H34 H 0.66912 0.76762 0.68485
 H35 H 0.70073 0.66902 0.76959
 H36 H 0.78809 0.67876 0.72088
 H37 H 0.79431 0.71700 0.68001
 H38 H 0.71796 0.77346 0.65710
 C39 C 0.28184 0.78810 0.74459
 C40 C 0.29817 0.79114 0.77360
 C41 C 0.32032 0.77021 0.78228
 C42 C 0.32566 0.74577 0.76181
 C43 C 0.30914 0.74216 0.73289
 C44 C 0.28734 0.76357 0.72414
 C45 C 0.26049 0.80953 0.73552
 C46 C 0.24468 0.80714 0.70595
 C47 C 0.25022 0.78234 0.68581
 C48 C 0.27126 0.76061 0.69479
 C49 C 0.27662 0.73605 0.67465
 C50 C 0.29805 0.71442 0.68319
 C51 C 0.31432 0.71770 0.71242
 H52 H 0.29427 0.81039 0.78885
 H53 H 0.34274 0.72959 0.76837
 H54 H 0.25659 0.82835 0.75143
 H55 H 0.23825 0.77955 0.66312
 H56 H 0.26413 0.73389 0.65211
 H57 H 0.33103 0.70139 0.71941
 C58 C 0.83581 0.30277 0.23164
 C59 C 0.85961 0.28659 0.24581
 C60 C 0.87458 0.26384 0.22855
 C61 C 0.86525 0.25758 0.19664
 C62 C 0.84212 0.27403 0.18195
 C63 C 0.82748 0.29680 0.19940
 C64 C 0.81977 0.32443 0.24931
 C65 C 0.79559 0.34013 0.23495
 C66 C 0.78857 0.33486 0.20244
 C67 C 0.80417 0.31334 0.18468
 C68 C 0.79610 0.30757 0.15262
 C69 C 0.81043 0.28480 0.13520
 C70 C 0.83325 0.26795 0.15005
 H71 H 0.86614 0.29151 0.27048
 H72 H 0.87628 0.24044 0.18260
 H73 H 0.82566 0.32839 0.27427
 H74 H 0.77025 0.34703 0.19100
 H75 H 0.77785 0.32012 0.14161
 H76 H 0.84420 0.25021 0.13667
 C77 C 0.72003 0.66073 0.27436
 C78 C 0.74299 0.66008 0.25086
 C79 C 0.76917 0.67935 0.25268
 C80 C 0.77151 0.69996 0.27856
 C81 C 0.74860 0.70083 0.30248
 C82 C 0.72272 0.68111 0.30021
 C83 C 0.69486 0.64051 0.27292
 C84 C 0.67221 0.64040 0.29696
 C85 C 0.67465 0.66110 0.32237
 C86 C 0.69991 0.68112 0.32429
 C87 C 0.70338 0.70016 0.35079
 C88 C 0.72942 0.71916 0.35393
 C89 C 0.75160 0.72015 0.32933
 H90 H 0.74020 0.64409 0.23143
 H91 H 0.79148 0.71491 0.28054
 H92 H 0.69316 0.62443 0.25332
 H93 H 0.65774 0.66079 0.34149
 H94 H 0.68604 0.69970 0.36955
 H95 H 0.77175 0.73479 0.33186
 C96 C 0.28518 0.16308 -0.22635
 C97 C 0.31000 0.15732 -0.24696
 C98 C 0.32987 0.18056 -0.25736
 C99 C 0.32379 0.20991 -0.24727
 C100 C 0.29908 0.21597 -0.22656
 C101 C 0.28000 0.19242 -0.21565
 C102 C 0.26555 0.13986 -0.21609
 C103 C 0.24142 0.14549 -0.19452
 C104 C 0.23679 0.17471 -0.18339
 C105 C 0.25576 0.19821 -0.19398
 C106 C 0.25085 0.22741 -0.18326
 C107 C 0.26928 0.25102 -0.19459
 C108 C 0.29333 0.24520 -0.21630
 H109 H 0.31358 0.13459 -0.25460
 H110 H 0.33849 0.22818 -0.25523
 H111 H 0.26930 0.11730 -0.22448
 H112 H 0.21799 0.17933 -0.16704
 H113 H 0.23237 0.23188 -0.16642
 H114 H 0.30805 0.26330 -0.22458
 C115 C 0.71265 0.32164 -0.25315
 C116 C 0.68978 0.32984 -0.27528
 C117 C 0.66331 0.31140 -0.28096
 C118 C 0.66021 0.28468 -0.26404
 C119 C 0.68253 0.27642 -0.24171
 C120 C 0.70888 0.29483 -0.23628
 C121 C 0.73921 0.33976 -0.24754
 C122 C 0.76204 0.33123 -0.22553
 C123 C 0.75763 0.30465 -0.20854
 C124 C 0.73132 0.28648 -0.21373
 C125 C 0.72701 0.26018 -0.19645
 C126 C 0.70058 0.24189 -0.20149
 C127 C 0.67856 0.25011 -0.22444
 H128 H 0.69295 0.35044 -0.28801
 H129 H 0.64007 0.27021 -0.26790
 H130 H 0.74229 0.36031 -0.26051
 H131 H 0.77441 0.29812 -0.19078
 H132 H 0.74421 0.25404 -0.17888
 H133 H 0.65795 0.23647 -0.22861
 C134 C 0.15778 0.83730 0.29374
 C135 C 0.12729 0.82672 0.28830
 C136 C 0.11541 0.80231 0.30533
 C137 C 0.13445 0.78818 0.32764
 C138 C 0.16505 0.79812 0.33294
 C139 C 0.17678 0.82272 0.31592
 C140 C 0.16951 0.86234 0.27763
 C141 C 0.20023 0.87277 0.28305
 C142 C 0.21912 0.85728 0.30439
 C143 C 0.20754 0.83275 0.32112
 C144 C 0.22629 0.81836 0.34328
 C145 C 0.21470 0.79400 0.36059
 C146 C 0.18409 0.78387 0.35507
 H147 H 0.11264 0.83772 0.27117
 H148 H 0.12568 0.76906 0.34053
 H149 H 0.15457 0.87343 0.26093
 H150 H 0.24281 0.86479 0.30887
 H151 H 0.24996 0.82616 0.34679
 H152 H 0.17497 0.76503 0.36821
 C153 C 0.38409 0.43040 0.43484
 C154 C 0.37791 0.41508 0.46331
 C155 C 0.39212 0.38788 0.46918
 C156 C 0.41149 0.37548 0.44582
 C157 C 0.41762 0.39034 0.41726
 C158 C 0.40419 0.41808 0.41181
 C159 C 0.37155 0.45839 0.42965
 C160 C 0.37906 0.47453 0.40202
 C161 C 0.39896 0.46198 0.37906
 C162 C 0.41166 0.43392 0.38386
 C163 C 0.43264 0.42191 0.36174
 C164 C 0.44617 0.39426 0.36718
 C165 C 0.43818 0.37846 0.39484
 H166 H 0.36327 0.42500 0.48141
 H167 H 0.42248 0.35446 0.45024
 H168 H 0.35640 0.46790 0.44758
 H169 H 0.40514 0.47407 0.35772
 H170 H 0.43892 0.43435 0.34059
 H171 H 0.44898 0.35752 0.39983
 C172 C -0.07990 -0.03951 0.99374
 C173 C -0.09100 -0.05632 1.01951
 C174 C -0.07709 -0.08328 1.02747
 C175 C -0.05200 -0.09335 1.00921
 C176 C -0.04078 -0.07693 0.98330
 C177 C -0.05464 -0.04980 0.97567
 C178 C -0.09360 -0.01253 0.98583
 C179 C -0.08210 0.00473 0.96038
 C180 C -0.05675 -0.00586 0.94260
 C181 C -0.04321 -0.03297 0.94995
 C182 C -0.01841 -0.04353 0.93177
 C183 C -0.00474 -0.07075 0.93884
 C184 C -0.01596 -0.08727 0.96487
 H185 H -0.11018 -0.04811 1.03348
 H186 H -0.04124 -0.11416 1.01506
 H187 H -0.11305 -0.00484 0.99985
 H188 H -0.04754 0.00652 0.92265
 H189 H -0.00987 -0.03052 0.91186
 H190 H -0.00561 -0.10817 0.97088
 C191 C 1.08841 0.58134 1.01307
 C192 C 1.08464 0.61020 1.02494
 C193 C 1.05595 0.62441 1.02267
 C194 C 1.03116 0.60944 1.00667
 C195 C 1.03536 0.58110 0.99245
 C196 C 1.06395 0.56675 0.99657
 C197 C 1.11627 0.56673 1.01829
 C198 C 1.12031 0.53724 1.00743
 C199 C 1.09611 0.52316 0.98985
 C200 C 1.06810 0.53773 0.98438
 C201 C 1.04411 0.52358 0.96707
 C202 C 1.01603 0.53795 0.96153
 C203 C 1.01165 0.56669 0.97435
 H204 H 1.10377 0.62062 1.03802
 H205 H 1.00898 0.62013 1.00450
 H206 H 1.13448 0.57862 1.03126
 H207 H 1.09878 0.50063 0.98080
 H208 H 1.04761 0.50148 0.95718
 H209 H 0.98984 0.57760 0.97044
 C210 C 0.57038 0.05887 0.47947
 C211 C 0.56166 0.08843 0.48525
 C212 C 0.53820 0.10110 0.46687
 C213 C 0.52280 0.08376 0.44327
 C214 C 0.53070 0.05410 0.43785
 C215 C 0.55480 0.04160 0.45570
 C216 C 0.59460 0.04647 0.49689
 C217 C 0.60423 0.01714 0.49048
 C218 C 0.58820 0.00004 0.46682
 C219 C 0.56324 0.01187 0.44979
 C220 C 0.54645 -0.00548 0.42701
 C221 C 0.52168 0.00678 0.40987
 C222 C 0.51451 0.03673 0.41505
 H223 H 0.57349 0.10177 0.50357
 H224 H 0.50411 0.09314 0.42954
 H225 H 0.60640 0.06035 0.51465
 H226 H 0.59493 -0.02264 0.46179
 H227 H 0.55267 -0.02839 0.42273
 H228 H 0.49567 0.04645 0.40182
 C229 C -0.02311 0.05041 0.50337
 C230 C -0.00485 0.07405 0.49170
 C231 C 0.01899 0.08708 0.51061
 C232 C 0.02442 0.07628 0.54159
 C233 C 0.00614 0.05297 0.55381
 C234 C -0.01772 0.04004 0.53464
 C235 C -0.04676 0.03706 0.48441
 C236 C -0.06510 0.01348 0.49643
 C237 C -0.05965 0.00364 0.52770
 C238 C -0.03629 0.01675 0.54683
 C239 C -0.03132 0.00683 0.57803
 C240 C -0.00781 0.01972 0.59741
 C241 C 0.01111 0.04256 0.58500
 H242 H -0.00911 0.08226 0.46781
 H243 H 0.04233 0.08642 0.55662
 H244 H -0.05072 0.04510 0.46045
 H245 H -0.07371 -0.01435 0.53734
 H246 H -0.04555 -0.01133 0.58696
 H247 H 0.02940 0.05247 0.59978
 C248 C 0.48529 0.53629 -0.02503
 C249 C 0.49793 0.56489 -0.02950
 C250 C 0.52590 0.57398 -0.01439
 C251 C 0.54099 0.55374 0.00566
 C252 C 0.52860 0.52503 0.01029
 C253 C 0.50078 0.51620 -0.00530
 C254 C 0.45706 0.52767 -0.03956
 C255 C 0.44401 0.49922 -0.03440
 C256 C 0.45989 0.47916 -0.01520
 C257 C 0.48817 0.48741 -0.00072
 C258 C 0.50360 0.46751 0.01894
 C259 C 0.53107 0.47628 0.03488
 C260 C 0.54338 0.50509 0.03062
 H261 H 0.48579 0.58010 -0.04481
 H262 H 0.56235 0.55999 0.01785
 H263 H 0.44492 0.54349 -0.05403
 H264 H 0.45002 0.45717 -0.01119
 H265 H 0.49359 0.44556 0.02277
 H266 H 0.56451 0.51190 0.04309
 C267 C 0.58029 -0.02683 0.03037
 C268 C 0.58853 -0.04925 0.00853
 C269 C 0.56780 -0.07293 0.00105
 C270 C 0.53861 -0.07390 0.01588
 C271 C 0.53007 -0.05159 0.03780
 C272 C 0.55105 -0.02803 0.04525
 C273 C 0.60078 -0.00301 0.03722
 C274 C 0.59266 0.01962 0.05895
 C275 C 0.56363 0.01807 0.07420
 C276 C 0.54272 -0.00555 0.06737
 C277 C 0.51341 -0.00683 0.08185
 C278 C 0.49216 -0.02994 0.07406
 C279 C 0.50076 -0.05234 0.05215
 H280 H 0.61108 -0.04794 -0.00261
 H281 H 0.52237 -0.09194 0.01018
 H282 H 0.62314 -0.00202 0.02545
 H283 H 0.55687 0.03553 0.09073
 H284 H 0.50690 0.01047 0.09875
 H285 H 0.48482 -0.07059 0.04645
 C286 C 1.04132 0.46305 0.51259
 C287 C 1.02995 0.43477 0.50370
 C288 C 1.00685 0.42027 0.52177
 C289 C 0.99503 0.43493 0.54920
 C290 C 1.00640 0.46333 0.55851
 C291 C 1.02975 0.47735 0.54017
 C292 C 1.06420 0.47720 0.49420
 C293 C 1.07604 0.50544 0.50317
 C294 C 1.06494 0.51938 0.53105
 C295 C 1.04162 0.50565 0.54941
 C296 C 1.02989 0.51989 0.57672
 C297 C 1.00620 0.50644 0.59497
 C298 C 0.99479 0.47801 0.58582
 H299 H 1.03929 0.42408 0.48246
 H300 H 0.97722 0.42445 0.56358
 H301 H 1.07310 0.46594 0.47313
 H302 H 1.07405 0.54116 0.53810
 H303 H 1.03948 0.54147 0.58359
 H304 H 0.97668 0.46739 0.59980
 C305 C 0.41262 0.01017 0.20488
 H306 H 0.42556 0.02278 0.22283
 C307 C 0.42653 0.00328 0.17555
 H308 H 0.45015 0.01074 0.17128
 C309 C 0.36648 -0.01538 0.18884
 H310 H 0.34305 -0.02265 0.19404
 C311 C 0.37942 -0.02267 0.15922
 H312 H 0.36557 -0.03563 0.14227
 N313 N 0.38335 0.00020 0.21125
 C314 C 0.35339 0.06551 0.23481
 H315 H 0.35868 0.05831 0.21063
 C316 C 0.34226 0.09412 0.24049
 H317 H 0.33932 0.10892 0.22052
 C318 C 0.34941 0.05453 0.29005
 H319 H 0.35158 0.03864 0.30911
 C320 C 0.33848 0.08285 0.29682
 H321 H 0.33244 0.08831 0.32129
 Zn322 Zn 0.36636 0.00601 0.25271
 N323 N 0.35625 0.04630 0.25946
 C324 C 0.39610 -0.03035 0.29996
 N325 N 0.39652 -0.00406 0.28416
 C326 C 0.41909 0.01687 0.29020
 C327 C 0.44250 0.01171 0.31247
 C328 C 0.41948 -0.03667 0.32205
 C329 C 0.30170 -0.00284 0.25818
 C330 C 0.27358 -0.01873 0.25824
 C331 C 0.30196 -0.06431 0.25441
 C332 C 0.32955 -0.04750 0.25342
 N333 N 0.32905 -0.01730 0.25592
 H334 H 0.37775 -0.04653 0.29568
 H335 H 0.41876 0.03783 0.27786
 H336 H 0.46014 0.02876 0.31696
 H337 H 0.41866 -0.05765 0.33441
 H338 H 0.30149 0.02115 0.25925
 H339 H 0.25210 -0.00682 0.26005
 H340 H 0.30270 -0.08833 0.25265
 H341 H 0.35129 -0.05857 0.24993
 C342 C 0.33426 0.10297 0.27179
 C343 C 0.41011 -0.01383 0.15248
 C344 C 0.27358 -0.04984 0.25651
 C345 C 0.44308 -0.01545 0.32847
 C346 C 0.06967 -0.03981 0.73443
 H347 H 0.06982 -0.06020 0.74784
 C348 C 0.04515 -0.03443 0.71372
 H349 H 0.02661 -0.05089 0.71132
 C350 C 0.09433 0.00578 0.72066
 H351 H 0.11346 0.02144 0.72350
 C352 C 0.07047 0.01176 0.69900
 H353 H 0.07142 0.03199 0.68526
 N354 N 0.09363 -0.01986 0.73761
 C355 C 0.17390 -0.07281 0.76076
 H356 H 0.17968 -0.06559 0.78495
 C357 C 0.18994 -0.09612 0.74633
 H358 H 0.20818 -0.10671 0.75959
 C359 C 0.14252 -0.06830 0.71446
 H360 H 0.12390 -0.05757 0.70208
 C361 C 0.15799 -0.09132 0.69910
 H362 H 0.15079 -0.09781 0.67512
 Zn363 Zn 0.12535 -0.03156 0.76610
 N364 N 0.15008 -0.06003 0.74503
 C365 C 0.11022 -0.07674 0.81186
 N366 N 0.10478 -0.04875 0.80159
 C367 C 0.08311 -0.03159 0.81586
 C368 C 0.06644 -0.04205 0.84203
 C369 C 0.09404 -0.08812 0.83812
 C370 C 0.16655 0.01855 0.76004
 C371 C 0.18244 0.04421 0.77108
 C372 C 0.16613 0.03278 0.82488
 C373 C 0.15068 0.00749 0.81287
 N374 N 0.15015 0.00137 0.78083
 H375 H 0.12696 -0.09035 0.79975
 H376 H 0.07894 -0.00958 0.80690
 H377 H 0.04946 -0.02784 0.85310
 H378 H 0.09879 -0.11039 0.84590
 H379 H 0.16674 0.01272 0.73479
 H380 H 0.19452 0.05821 0.75411
 H381 H 0.16569 0.03719 0.85043
 H382 H 0.13880 -0.00701 0.82935
 C383 C 0.18161 -0.10606 0.71531
 C384 C 0.04544 -0.00845 0.69555
 C385 C 0.18158 0.05200 0.80381
 C386 C 0.07189 -0.07059 0.85362
 C387 C 0.59716 0.41849 0.18079
 H388 H 0.60083 0.39853 0.19433
 C389 C 0.58688 0.41632 0.14906
 H390 H 0.58292 0.39448 0.13851
 C391 C 0.59687 0.47109 0.17903
 H392 H 0.59997 0.49239 0.19100
 C393 C 0.58655 0.46996 0.14729
 H394 H 0.58215 0.49055 0.13512
 N395 N 0.60192 0.44555 0.19510
 C396 C 0.66275 0.42858 0.27658
 H397 H 0.64941 0.43811 0.29594
 C398 C 0.69132 0.41581 0.28302
 H399 H 0.69960 0.41540 0.30751
 C400 C 0.66774 0.41755 0.22114
 H401 H 0.65874 0.41863 0.19701
 C402 C 0.69627 0.40450 0.22649
 H403 H 0.70874 0.39533 0.20627
 Zn404 Zn 0.61256 0.44639 0.23909
 N405 N 0.65137 0.42882 0.24612
 C406 C 0.58680 0.40037 0.27731
 N407 N 0.58081 0.42537 0.26064
 C408 C 0.55163 0.43603 0.25855
 C409 C 0.52744 0.42267 0.27552
 C410 C 0.56311 0.38589 0.29406
 C411 C 0.63792 0.50389 0.24192
 C412 C 0.64139 0.53337 0.25234
 C413 C 0.59921 0.52537 0.28936
 C414 C 0.59666 0.49600 0.27834
 N415 N 0.61554 0.48600 0.25465
 H416 H 0.60999 0.39181 0.27795
 H417 H 0.54742 0.45556 0.24448
 H418 H 0.50456 0.43207 0.27463
 H419 H 0.56847 0.36656 0.30803
 H420 H 0.65301 0.49519 0.22354
 H421 H 0.65929 0.54732 0.24184
 H422 H 0.58407 0.53269 0.30837
 H423 H 0.57981 0.48122 0.28909
 C424 C 0.70834 0.40332 0.25774
 C425 C 0.58106 0.44234 0.13199
 C426 C 0.62175 0.54450 0.27621
 C427 C 0.53316 0.39746 0.29375
 C428 C 0.92565 0.54071 0.74431
 H429 H 0.92427 0.55698 0.76360
 C430 C 0.94566 0.54575 0.71874
 H431 H 0.95964 0.56596 0.71895
 C432 C 0.90929 0.49438 0.72166
 H433 H 0.89529 0.47426 0.72310
 C434 C 0.92914 0.49851 0.69552
 H435 H 0.93000 0.48156 0.67684
 N436 N 0.90763 0.51562 0.74514
 C437 C 0.83168 0.54433 0.80580
 H438 H 0.83278 0.52819 0.82472
 C439 C 0.80973 0.56666 0.80712
 H440 H 0.79404 0.56717 0.82723
 C441 C 0.85080 0.56250 0.75652
 H442 H 0.86658 0.56061 0.73660
 C443 C 0.82915 0.58518 0.75684
 H444 H 0.82873 0.60067 0.73723
 Zn445 Zn 0.88156 0.51239 0.78144
 N446 N 0.85195 0.54290 0.78102
 C447 C 0.90452 0.53810 0.84107
 N448 N 0.90775 0.51643 0.81819
 C449 C 0.93004 0.49569 0.82077
 C450 C 0.94829 0.49454 0.84831
 C451 C 0.92301 0.53824 0.86881
 C452 C 0.84090 0.46566 0.75797
 C453 C 0.82651 0.43736 0.75839
 C454 C 0.85110 0.42890 0.80940
 C455 C 0.86444 0.45729 0.80830
 N456 N 0.86017 0.47473 0.78235
 H457 H 0.88729 0.55494 0.83820
 H458 H 0.93261 0.47914 0.80193
 H459 H 0.96509 0.47712 0.85045
 H460 H 0.91974 0.55502 0.88731
 H461 H 0.83716 0.48015 0.73792
 H462 H 0.81189 0.43004 0.73852
 H463 H 0.85539 0.41529 0.83008
 H464 H 0.87831 0.46520 0.82833
 C465 C 0.80839 0.58766 0.78249
 C466 C 0.94740 0.52464 0.69365
 C467 C 0.83236 0.41837 0.78399
 C468 C 0.94443 0.51562 0.87301
 C469 C 0.23863 0.42648 0.01733
 H470 H 0.25975 0.42135 0.02996
 C471 C 0.22171 0.45104 0.02674
 H472 H 0.22969 0.46399 0.04731
 C473 C 0.20375 0.41597 -0.02558
 H474 H 0.19752 0.40269 -0.04654
 C475 C 0.18611 0.44068 -0.01705
 H476 H 0.16612 0.44612 -0.03141
 N477 N 0.22987 0.40989 -0.00874
 C478 C 0.29170 0.33533 0.00514
 H479 H 0.30495 0.33603 -0.01681
 C480 C 0.29826 0.31406 0.02809
 H481 H 0.31689 0.29895 0.02343
 C482 C 0.25095 0.35393 0.03697
 H483 H 0.23215 0.36915 0.04015
 C484 C 0.25675 0.33300 0.06061
 H485 H 0.24248 0.33261 0.08190
 Zn486 Zn 0.26028 0.38312 -0.02266
 N487 N 0.26853 0.35491 0.00995
 C488 C 0.32467 0.40237 -0.01919
 N489 N 0.29581 0.40763 -0.03080
 C490 C 0.29029 0.43230 -0.04823
 C491 C 0.31428 0.45210 -0.05584
 C492 C 0.34943 0.42180 -0.02608
 C493 C 0.24816 0.33251 -0.06240
 C494 C 0.24777 0.31700 -0.09167
 C495 C 0.24618 0.36385 -0.11894
 C496 C 0.24656 0.37845 -0.08916
 N497 N 0.24913 0.36278 -0.06165
 H498 H 0.32864 0.38337 -0.00439
 H499 H 0.26696 0.43714 -0.05562
 H500 H 0.30895 0.47162 -0.06946
 H501 H 0.37227 0.41728 -0.01674
 H502 H 0.24929 0.32026 -0.04039
 H503 H 0.24879 0.29297 -0.09172
 H504 H 0.24550 0.37699 -0.14042
 H505 H 0.24634 0.40238 -0.08829
 C506 C 0.28067 0.31266 0.05637
 C507 C 0.19571 0.45912 0.00878
 C508 C 0.24827 0.33275 -0.12045
 C509 C 0.34440 0.44688 -0.04491
 C510 C 0.71318 0.09201 -0.00539
 H511 H 0.72153 0.08276 -0.02775
 C512 C 0.68932 0.07743 0.01106
 H513 H 0.67961 0.05685 0.00123
 C514 C 0.71507 0.13048 0.03399
 H515 H 0.72483 0.15138 0.04272
 C516 C 0.69130 0.11664 0.05122
 H517 H 0.68337 0.12721 0.07304
 N518 N 0.72537 0.11822 0.00608
 C519 C 0.75699 0.16910 -0.07668
 H520 H 0.77958 0.17665 -0.06856
 C521 C 0.74526 0.17995 -0.10529
 H522 H 0.75935 0.19520 -0.11918
 C523 C 0.71037 0.14193 -0.06752
 H524 H 0.69636 0.12789 -0.05237
 C525 C 0.69784 0.15201 -0.09623
 H526 H 0.67438 0.14537 -0.10269
 Zn527 Zn 0.75594 0.13943 -0.01775
 N528 N 0.73951 0.15056 -0.05824
 C529 C 0.81714 0.13059 -0.03696
 N530 N 0.79207 0.11660 -0.02391
 C531 C 0.79318 0.08752 -0.01546
 C532 C 0.81968 0.07105 -0.02167
 C533 C 0.84392 0.11497 -0.04381
 C534 C 0.75423 0.20056 -0.00283
 C535 C 0.76130 0.22649 0.01462
 C536 C 0.79482 0.19817 0.04860
 C537 C 0.78726 0.17277 0.03033
 N538 N 0.76722 0.17443 0.00524
 H539 H 0.81655 0.15403 -0.04187
 H540 H 0.77353 0.07691 -0.00412
 H541 H 0.81996 0.04778 -0.01541
 H542 H 0.86341 0.12667 -0.05437
 H543 H 0.73777 0.20121 -0.02238
 H544 H 0.75011 0.24681 0.00807
 H545 H 0.81050 0.19641 0.06878
 H546 H 0.79699 0.15161 0.03639
 C547 C 0.71529 0.17155 -0.11532
 C548 C 0.67783 0.08989 0.03961
 C549 C 0.78170 0.22545 0.04088
 C550 C 0.84519 0.08464 -0.03670
 C551 C 0.20822 0.59588 0.45162
 H552 H 0.22178 0.60236 0.43101
 C553 C 0.18182 0.57787 0.44747
 H554 H 0.17521 0.57107 0.42340
 C555 C 0.20132 0.59674 0.50795
 H556 H 0.20943 0.60369 0.53149
 C557 C 0.17468 0.57865 0.50490
 H558 H 0.16234 0.57197 0.52626
 N559 N 0.21749 0.60485 0.48144
 C560 C 0.27771 0.68176 0.46482
 H561 H 0.29833 0.67489 0.47728
 C562 C 0.27744 0.70919 0.44968
 H563 H 0.29815 0.72311 0.45057
 C564 C 0.22595 0.67133 0.44842
 H565 H 0.20584 0.65664 0.44823
 C566 C 0.22470 0.69853 0.43283
 H567 H 0.20358 0.70440 0.42057
 Zn568 Zn 0.25557 0.62618 0.48372
 N569 N 0.25240 0.66329 0.46350
 C570 C 0.29947 0.61268 0.43530
 N571 N 0.28476 0.60260 0.46193
 C572 C 0.28843 0.57434 0.47214
 C573 C 0.30774 0.55503 0.45553
 C574 C 0.31894 0.59408 0.41789
 C575 C 0.25066 0.65287 0.54428
 C576 C 0.26013 0.66170 0.57507
 C577 C 0.30476 0.63056 0.56947
 C578 C 0.29457 0.62253 0.53864
 N579 N 0.26795 0.63375 0.52669
 H580 H 0.29564 0.63494 0.42704
 H581 H 0.27592 0.56669 0.49299
 H582 H 0.31020 0.53256 0.46398
 H583 H 0.33026 0.60266 0.39678
 H584 H 0.22985 0.66183 0.53399
 H585 H 0.24629 0.67733 0.58850
 H586 H 0.32634 0.62184 0.57815
 H587 H 0.30844 0.60797 0.52403
 C588 C 0.25072 0.71777 0.43314
 C589 C 0.16487 0.56863 0.47437
 C590 C 0.28760 0.65067 0.58797
 C591 C 0.32311 0.56473 0.42786
 C592 C 0.73701 0.92888 0.52890
 H593 H 0.75783 0.92851 0.54341
 C594 C 0.71525 0.95089 0.53420
 H595 H 0.71975 0.96710 0.55310
 C596 C 0.70706 0.90846 0.48594
 H597 H 0.70439 0.89231 0.46663
 C598 C 0.68470 0.93023 0.49033
 H599 H 0.66478 0.93038 0.47447
 N600 N 0.73269 0.90831 0.50505
 C601 C 0.79874 0.84052 0.53128
 H602 H 0.81282 0.84088 0.50988
 C603 C 0.80456 0.81983 0.55504
 H604 H 0.82333 0.80456 0.55164
 C605 C 0.75583 0.85879 0.56020
 H606 H 0.73625 0.87335 0.56155
 C607 C 0.76056 0.83809 0.58439
 H608 H 0.74485 0.83730 0.60455
 Zn609 Zn 0.76569 0.88207 0.49737
 N610 N 0.77473 0.85945 0.53417
 C611 C 0.82484 0.90897 0.50599
 N612 N 0.80045 0.90569 0.48544
 C613 C 0.79897 0.92170 0.45808
 C614 C 0.82261 0.94218 0.45060
 C615 C 0.84884 0.92920 0.49953
 C616 C 0.73070 0.83543 0.47478
 C617 C 0.72411 0.80912 0.45807
 C618 C 0.76597 0.82071 0.42168
 C619 C 0.77202 0.84695 0.43944
 N620 N 0.75476 0.85331 0.46585
 H621 H 0.82516 0.89680 0.52810
 H622 H 0.77895 0.91915 0.44252
 H623 H 0.82056 0.95513 0.42910
 H624 H 0.86771 0.93186 0.51660
 H625 H 0.71773 0.84084 0.49616
 H626 H 0.70546 0.79474 0.46633
 H627 H 0.78063 0.81499 0.40160
 H628 H 0.79155 0.86116 0.43329
 C629 C 0.78504 0.81810 0.58183
 C630 C 0.68880 0.95209 0.51446
 C631 C 0.74254 0.80097 0.43189
 C632 C 0.84778 0.94642 0.47178
 C633 C 0.06035 0.22432 0.43005
 H634 H 0.07462 0.24433 0.43211
 C635 C 0.06540 0.20063 0.45055
 H636 H 0.08372 0.20278 0.46823
 C637 C 0.01812 0.19827 0.40542
 H638 H -0.00082 0.19774 0.38841
 C639 C 0.02221 0.17414 0.42560
 H640 H 0.00658 0.15505 0.42352
 N641 N 0.03707 0.22274 0.40802
 C642 C 0.06085 0.29260 0.34010
 H643 H 0.03965 0.30498 0.34117
 C644 C 0.08395 0.30069 0.31837
 H645 H 0.08013 0.31947 0.30310
 C646 C 0.09028 0.25208 0.35774
 H647 H 0.09225 0.23264 0.37243
 C648 C 0.11394 0.25931 0.33617
 H649 H 0.13418 0.24552 0.33491
 Zn650 Zn 0.02932 0.25713 0.38388
 N651 N 0.06431 0.26867 0.35921
 C652 C 0.03497 0.31321 0.41634
 N653 N 0.01818 0.28740 0.41344
 C654 C -0.00634 0.28161 0.43292
 C655 C -0.01504 0.30230 0.45635
 C656 C 0.02704 0.33456 0.43938
 C657 C 0.00266 0.22842 0.33119
 C658 C -0.01825 0.22333 0.30607
 C659 C -0.05046 0.26174 0.32825
 C660 C -0.02893 0.26600 0.35312
 N661 N -0.00291 0.24950 0.35398
 H662 H 0.05481 0.31714 0.40116
 H663 H -0.01904 0.26071 0.43036
 H664 H -0.03465 0.29709 0.47145
 H665 H 0.04079 0.35492 0.44139
 H666 H 0.02385 0.21604 0.33216
 H667 H -0.01274 0.20682 0.28802
 H668 H -0.07073 0.27549 0.32752
 H669 H -0.03255 0.28315 0.37106
 C670 C 0.11083 0.28373 0.31588
 C671 C 0.04597 0.17518 0.44867
 C672 C -0.04507 0.24041 0.30408
 C673 C 0.00184 0.32921 0.45990
 C674 C -0.03632 0.72346 0.10331
 H675 H -0.05976 0.72927 0.09709
 C676 C -0.01829 0.70753 0.08131
 H677 H -0.02785 0.70105 0.05814
 C678 C 0.00505 0.72510 0.14086
 H679 H 0.01413 0.73165 0.16411
 C680 C 0.02393 0.70994 0.11948
 H681 H 0.04737 0.70497 0.12668
 N682 N -0.02438 0.73189 0.13245
 C683 C -0.10071 0.74468 0.20007
 H684 H -0.09445 0.76617 0.21044
 C685 C -0.12760 0.72982 0.21015
 H686 H -0.14203 0.74009 0.22820
 C687 C -0.08953 0.70536 0.16382
 H688 H -0.07455 0.69573 0.14599
 C689 C -0.11620 0.68977 0.17314
 H690 H -0.12115 0.66824 0.16222
 Zn691 Zn -0.04766 0.75481 0.16214
 N692 N -0.08267 0.73263 0.17675
 C693 C -0.09100 0.79800 0.14283
 N694 N -0.06100 0.78939 0.14101
 C695 C -0.04012 0.80442 0.12266
 C696 C -0.04900 0.82939 0.10569
 C697 C -0.10079 0.82300 0.12652
 C698 C -0.02580 0.74996 0.22557
 C699 C -0.00588 0.75498 0.25159
 C700 C 0.02201 0.79163 0.22066
 C701 C 0.00134 0.78607 0.19523
 N702 N -0.02193 0.76536 0.19801
 H703 H -0.10763 0.78544 0.15658
 H704 H -0.01666 0.79665 0.12068
 H705 H -0.03206 0.84098 0.09111
 H706 H -0.12482 0.82916 0.12819
 H707 H -0.04373 0.73294 0.22711
 H708 H -0.00919 0.74178 0.27279
 H709 H 0.04071 0.80779 0.21779
 H710 H 0.00445 0.79775 0.17303
 C711 C -0.13597 0.70227 0.19617
 C712 C 0.01243 0.70119 0.08920
 C713 C 0.01866 0.77586 0.24926
 C714 C -0.07964 0.83906 0.10765
 C715 C 0.47914 0.23156 0.54576
 H716 H 0.45968 0.24605 0.54352
 C717 C 0.48650 0.21296 0.52005
 H718 H 0.47270 0.21384 0.49840
 C719 C 0.51882 0.21116 0.57743
 H720 H 0.53106 0.21016 0.59996
 C721 C 0.52664 0.19170 0.55235
 H722 H 0.54503 0.17603 0.55575
 N723 N 0.49545 0.23073 0.57371
 C724 C 0.44647 0.24564 0.66390
 H725 H 0.45191 0.26871 0.66960
 C726 C 0.42575 0.22955 0.68306
 H727 H 0.41548 0.24031 0.70373
 C728 C 0.45217 0.20392 0.62923
 H729 H 0.46180 0.19416 0.60777
 C730 C 0.43201 0.18696 0.64791
 H731 H 0.42652 0.16435 0.64038
 Zn732 Zn 0.48215 0.25595 0.60805
 N733 N 0.45858 0.23285 0.63711
 C734 C 0.42669 0.28895 0.59889
 N735 N 0.45675 0.28544 0.59004
 C736 C 0.46949 0.30168 0.56603
 C737 C 0.45184 0.32202 0.54958
 C738 C 0.40820 0.30943 0.58323
 C739 C 0.53658 0.25775 0.64636
 C740 C 0.56327 0.27061 0.66028
 C741 C 0.54817 0.31820 0.64015
 C742 C 0.52168 0.30450 0.62688
 N743 N 0.51679 0.27460 0.62928
 H744 H 0.41670 0.27544 0.61752
 H745 H 0.49328 0.29814 0.55909
 H746 H 0.46237 0.33433 0.53018
 H747 H 0.38419 0.31151 0.59011
 H748 H 0.53170 0.23427 0.64913
 H749 H 0.57900 0.25672 0.67333
 H750 H 0.55158 0.34192 0.63755
 H751 H 0.50525 0.31795 0.61449
 C752 C 0.41802 0.19992 0.67489
 C753 C 0.51049 0.19265 0.52316
 C754 C 0.56966 0.30111 0.65666
 C755 C 0.42076 0.32596 0.55795
 C756 C 0.54956 0.71949 0.91887
 H757 H 0.56691 0.73655 0.91413
 C758 C 0.55710 0.69515 0.93748
 H759 H 0.58044 0.69371 0.94674
 C760 C 0.49825 0.70073 0.91171
 H761 H 0.47534 0.70304 0.90166
 C762 C 0.50487 0.67585 0.93001
 H763 H 0.48689 0.65915 0.93387
 N764 N 0.52065 0.72173 0.90620
 C765 C 0.52670 0.77065 0.81722
 H766 H 0.50980 0.78761 0.82175
 C767 C 0.54336 0.77062 0.78858
 H768 H 0.53907 0.78772 0.77127
 C769 C 0.55378 0.72877 0.83535
 H770 H 0.55801 0.71270 0.85374
 C771 C 0.57107 0.72802 0.80719
 H772 H 0.58854 0.71127 0.80423
 Zn773 Zn 0.51322 0.75510 0.88041
 N774 N 0.53278 0.75045 0.84023
 C775 C 0.55402 0.80454 0.88669
 N776 N 0.53075 0.78923 0.90147
 C777 C 0.52099 0.79736 0.93126
 C778 C 0.53392 0.82252 0.94673
 C779 C 0.56783 0.82947 0.90142
 C780 C 0.45622 0.73985 0.85185
 C781 C 0.42549 0.74373 0.84244
 C782 C 0.42406 0.78767 0.87635
 C783 C 0.45493 0.78322 0.88471
 N784 N 0.47035 0.75959 0.87247
 H785 H 0.56217 0.79741 0.86346
 H786 H 0.50302 0.78439 0.94291
 H787 H 0.52565 0.82896 0.97026
 H788 H 0.58592 0.84146 0.88883
 H789 H 0.46917 0.72155 0.84199
 H790 H 0.41480 0.72818 0.82547
 H791 H 0.41257 0.80704 0.88580
 H792 H 0.46666 0.79917 0.90030
 C793 C 0.56649 0.74954 0.78371
 C794 C 0.53464 0.67280 0.94312
 C795 C 0.40909 0.76796 0.85463
 C796 C 0.55770 0.83884 0.93177
 C797 C 0.17330 0.28423 0.26124
 C798 C 0.16065 0.31076 0.25215
 C799 C 0.13577 0.31465 0.27169
 C800 C 0.13488 0.29019 0.29139
 O801 O 0.15777 0.27187 0.28511
 H802 H 0.16855 0.32568 0.23367
 H803 H 0.12025 0.33319 0.27132
 C804 C 0.62828 0.74500 0.72924
 C805 C 0.61072 0.76436 0.71173
 C806 C 0.58435 0.76828 0.72918
 C807 C 0.58775 0.75100 0.75602
 O808 O 0.61425 0.73687 0.75589
 H809 H 0.61637 0.77468 0.68919
 H810 H 0.56527 0.78237 0.72308
 C811 C 0.33921 0.77456 0.81174
 C812 C 0.33143 0.79222 0.83774
 C813 C 0.35624 0.79158 0.85797
 C814 C 0.37740 0.77355 0.84291
 O815 O 0.36697 0.76304 0.81502
 H816 H 0.31035 0.80436 0.84152
 H817 H 0.35860 0.80313 0.88081
 C818 C -0.10125 0.24823 0.24310
 C819 C -0.08659 0.22376 0.23013
 C820 C -0.06416 0.21684 0.25159
 C821 C -0.06643 0.23754 0.27621
 O822 O -0.08906 0.25637 0.27118
 H823 H -0.09130 0.21197 0.20782
 H824 H -0.04800 0.19894 0.24905
 C825 C -0.20706 0.67778 0.22958
 C826 C -0.20607 0.65764 0.20410
 C827 C -0.17923 0.66381 0.18844
 C828 C -0.16547 0.68726 0.20520
 O829 O -0.18232 0.69578 0.23006
 H830 H -0.22256 0.64029 0.19721
 H831 H -0.17116 0.65268 0.16699
 C832 C 0.35536 0.17511 0.72248
 C833 C 0.36451 0.14750 0.71126
 C834 C 0.38961 0.15293 0.69242
 C835 C 0.39421 0.18338 0.69334
 O836 O 0.37362 0.19678 0.71165
 H837 H 0.35445 0.12580 0.71588
 H838 H 0.40286 0.13647 0.67960
 C839 C 0.63980 0.31878 0.69721
 C840 C 0.63811 0.34467 0.67982
 C841 C 0.61134 0.34192 0.66237
 C842 C 0.59859 0.31457 0.67020
 O843 O 0.61582 0.30064 0.69118
 H844 H 0.65411 0.36348 0.67965
 H845 H 0.60259 0.35787 0.64563
 C846 C 0.08327 0.79132 0.29950
 C847 C 0.06537 0.77639 0.32165
 C848 C 0.03835 0.76919 0.30622
 C849 C 0.04162 0.78015 0.27560
 O850 O 0.06881 0.79384 0.27163
 H851 H 0.07122 0.77133 0.34619
 H852 H 0.01880 0.75723 0.31630
 C853 C 0.29669 0.17187 0.26894
 C854 C 0.29833 0.16992 0.30186
 C855 C 0.31345 0.14429 0.30760
 C856 C 0.31993 0.13226 0.27771
 O857 O 0.30996 0.14919 0.25424
 H858 H 0.28959 0.18532 0.31965
 H859 H 0.31873 0.13555 0.33094
 C860 C 0.75888 0.64769 0.76800
 C861 C 0.74818 0.64080 0.79821
 C862 C 0.76534 0.61760 0.80794
 C863 C 0.78543 0.61180 0.78301
 O864 O 0.78166 0.63026 0.75883
 H865 H 0.73015 0.65153 0.81179
 H866 H 0.76322 0.60651 0.83065
 C867 C 0.79031 0.35006 0.78020
 C868 C 0.81715 0.34001 0.79419
 C869 C 0.83636 0.36418 0.79693
 C870 C 0.82018 0.38737 0.78424
 O871 O 0.79228 0.37887 0.77371
 H872 H 0.82235 0.31774 0.80164
 H873 H 0.85951 0.36483 0.80700
 C874 C 0.21237 -0.10143 0.26856
 C875 C 0.19593 -0.08127 0.25076
 C876 C 0.21667 -0.05898 0.24379
 C877 C 0.24429 -0.06729 0.25735
 O878 O 0.24176 -0.09289 0.27223
 H879 H 0.17164 -0.08192 0.24432
 H880 H 0.21219 -0.03909 0.23042
 C881 C 0.22383 -0.17064 0.69728
 C882 C 0.20795 -0.16913 0.66845
 C883 C 0.19044 -0.14440 0.67085
 C884 C 0.19666 -0.13242 0.70094
 O885 O 0.21695 -0.14826 0.71683
 H886 H 0.20872 -0.18396 0.64786
 H887 H 0.17484 -0.13649 0.65268
 C888 C 0.77589 0.36092 0.25323
 C889 C 0.77923 0.36942 0.28505
 C890 C 0.75453 0.38709 0.29149
 C891 C 0.73795 0.38806 0.26312
 O892 O 0.75099 0.37232 0.24012
 H893 H 0.79710 0.36329 0.30179
 H894 H 0.74930 0.39766 0.31423
 C895 C 0.64773 0.61697 0.29656
 C896 C 0.62029 0.61770 0.31344
 C897 C 0.60618 0.59073 0.30776
 C898 C 0.62609 0.57549 0.28787
 O899 O 0.65111 0.59150 0.28095
 H900 H 0.61157 0.63557 0.32827
 H901 H 0.58413 0.58323 0.31724
 C902 C 0.22099 0.12079 0.81605
 C903 C 0.20555 0.12016 0.84493
 C904 C 0.18921 0.09398 0.84466
 C905 C 0.19578 0.08042 0.81557
 O906 O 0.21513 0.09671 0.79822
 H907 H 0.20610 0.13676 0.86398
 H908 H 0.17377 0.08625 0.86326
 C909 C 0.28316 0.26659 0.12441
 C910 C 0.30620 0.25295 0.10700
 C911 C 0.30853 0.26824 0.07918
 C912 C 0.28676 0.29025 0.08134
 O913 O 0.27136 0.28919 0.10876
 H914 H 0.31981 0.23401 0.11335
 H915 H 0.32428 0.26352 0.05977
 C916 C 0.77734 0.76381 0.64181
 C917 C 0.80770 0.75823 0.63369
 C918 C 0.81507 0.77812 0.61042
 C919 C 0.78875 0.79453 0.60596
 O920 O 0.76598 0.78592 0.62506
 H921 H 0.82282 0.74161 0.64317
 H922 H 0.83707 0.78025 0.59825
 C923 C 0.73378 0.73589 0.38435
 C924 C 0.72707 0.72370 0.41373
 C925 C 0.73025 0.74638 0.43527
 C926 C 0.73865 0.77092 0.41758
 O927 O 0.74124 0.76459 0.38654
 H928 H 0.71999 0.70101 0.41870
 H929 H 0.72649 0.74525 0.46087
 C930 C 0.26382 0.28154 -0.18275
 C931 C 0.26891 0.30700 -0.20011
 C932 C 0.26224 0.32989 -0.17967
 C933 C 0.25368 0.31672 -0.15118
 O934 O 0.25454 0.28735 -0.15318
 H935 H 0.27689 0.30871 -0.22459
 H936 H 0.26467 0.35331 -0.18477
 C937 C 0.69593 0.21501 -0.18173
 C938 C 0.67225 0.19399 -0.18527
 C939 C 0.67634 0.17439 -0.16106
 C940 C 0.70223 0.18476 -0.14453
 O941 O 0.71412 0.20924 -0.15713
 H942 H 0.65398 0.19289 -0.20307
 H943 H 0.66207 0.15494 -0.15620
 C944 C 0.23433 0.77879 0.38423
 C945 C 0.26209 0.78974 0.39667
 C946 C 0.27210 0.76854 0.41699
 C947 C 0.24976 0.74611 0.41559
 O948 O 0.22682 0.75243 0.39585
 H949 H 0.27371 0.81074 0.39195
 H950 H 0.29314 0.76965 0.43114
 C951 C 0.30318 0.68899 0.66086
 C952 C 0.32460 0.66688 0.66467
 C953 C 0.32164 0.64908 0.63801
 C954 C 0.29860 0.66152 0.61983
 O955 O 0.28743 0.68560 0.63373
 H956 H 0.34075 0.66399 0.68419
 H957 H 0.33479 0.62944 0.63266
 C958 C 0.80039 0.27745 0.10214
 C959 C 0.78774 0.29723 0.08106
 C960 C 0.77977 0.28071 0.05456
 C961 C 0.78803 0.25197 0.06146
 O962 O 0.80079 0.25009 0.09022
 H963 H 0.78446 0.32083 0.08462
 H964 H 0.76889 0.28881 0.03310
 C965 C 0.38953 0.37308 0.50041
 C966 C 0.36623 0.37643 0.52270
 C967 C 0.37425 0.35879 0.54773
 C968 C 0.40196 0.34630 0.53885
 O969 O 0.41105 0.35493 0.51027
 H970 H 0.34585 0.38991 0.52096
 H971 H 0.36165 0.35585 0.56987
 C972 C -0.08813 0.89872 0.05477
 C973 C -0.11545 0.90254 0.07135
 C974 C -0.11618 0.88072 0.09370
 C975 C -0.08925 0.86516 0.08918
 O976 O -0.07231 0.87610 0.06565
 H977 H -0.13304 0.91890 0.06757
 H978 H -0.13421 0.87687 0.11118
 C979 C 0.05227 0.65235 0.03780
 C980 C 0.07662 0.67171 0.04567
 C981 C 0.06422 0.69345 0.06403
 C982 C 0.03319 0.68611 0.06635
 O983 O 0.02559 0.66150 0.04988
 H984 H 0.10082 0.67013 0.03933
 H985 H 0.07660 0.71189 0.07555
 C986 C 0.52917 0.13223 0.47261
 C987 C 0.51746 0.15038 0.44932
 C988 C 0.50986 0.17593 0.46492
 C989 C 0.51739 0.17157 0.49670
 O990 O 0.52946 0.14514 0.50136
 H991 H 0.51450 0.14548 0.42400
 H992 H 0.49967 0.19525 0.45432
 C993 C 0.03735 0.11259 0.49815
 C994 C 0.06596 0.12218 0.50963
 C995 C 0.07356 0.14669 0.49230
 C996 C 0.04905 0.15039 0.47143
 O997 O 0.02722 0.12957 0.47486
 H998 H 0.07979 0.11255 0.52832
 H999 H 0.09452 0.16013 0.49483
 C1000 C 0.53801 0.60285 0.98028
 C1001 C 0.56532 0.61488 0.99293
 C1002 C 0.56784 0.64283 0.98092
 C1003 C 0.54198 0.64607 0.96181
 O1004 O 0.52393 0.62193 0.96152
 H1005 H 0.58176 0.60488 1.00887
 H1006 H 0.58635 0.65884 0.98582
 C1007 C 0.57591 0.90355 0.97738
 C1008 C 0.60297 0.90268 0.95975
 C1009 C 0.60002 0.87813 0.94044
 C1010 C 0.57143 0.86567 0.94759
 O1011 O 0.55688 0.88097 0.97004
 H1012 H 0.62256 0.91804 0.96035
 H1013 H 0.61687 0.87033 0.92331
 C1014 C -0.00345 0.39160 0.51193
 C1015 C -0.02629 0.37434 0.52624
 C1016 C -0.02788 0.34850 0.50862
 C1017 C -0.00592 0.35171 0.48482
 O1018 O 0.00874 0.37774 0.48689
 H1019 H -0.04022 0.37953 0.54697
 H1020 H -0.04310 0.32963 0.51305
 C1021 C 0.36662 0.50479 0.39842
 C1022 C 0.37231 0.52378 0.37326
 C1023 C 0.35687 0.54910 0.38066
 C1024 C 0.34285 0.54382 0.40981
 O1025 O 0.34875 0.51700 0.42045
 H1026 H 0.38606 0.51998 0.35204
 H1027 H 0.35601 0.56885 0.36625
 C1028 C 0.90399 0.03192 -0.04683
 C1029 C 0.91447 0.05218 -0.06925
 C1030 C 0.89418 0.07490 -0.06811
 C1031 C 0.87263 0.06706 -0.04524
 O1032 O 0.87853 0.04107 -0.03235
 H1033 H 0.93447 0.05110 -0.08470
 H1034 H 0.89483 0.09450 -0.08281
 C1035 C 0.61445 0.04510 0.06425
 C1036 C 0.61334 0.06561 0.08914
 C1037 C 0.63729 0.08517 0.08385
 C1038 C 0.65132 0.07523 0.05604
 O1039 O 0.63748 0.05091 0.04432
 H1040 H 0.59719 0.06634 0.10888
 H1041 H 0.64338 0.10442 0.09856
 C1042 C 0.10009 0.52036 0.48361
 C1043 C 0.10466 0.51507 0.45133
 C1044 C 0.12917 0.53285 0.44316
 C1045 C 0.13791 0.54780 0.47107
 O1046 O 0.12014 0.54027 0.49559
 H1047 H 0.09169 0.50012 0.43549
 H1048 H 0.13954 0.53410 0.41966
 C1049 C 0.14763 0.52180 0.01433
 C1050 C 0.17209 0.53273 0.03296
 C1051 C 0.19295 0.51062 0.03378
 C1052 C 0.18007 0.48754 0.01570
 O1053 O 0.15264 0.49432 0.00378
 H1054 H 0.17496 0.55410 0.04487
 H1055 H 0.21523 0.51177 0.04571
 C1056 C 0.62978 1.00514 0.50670
 C1057 C 0.64533 1.01834 0.53250
 C1058 C 0.66890 0.99992 0.53955
 C1059 C 0.66645 0.97668 0.51762
 O1060 O 0.64258 0.97973 0.49789
 H1061 H 0.64047 1.03886 0.54510
 H1062 H 0.68598 1.00363 0.55827
 C1063 C 0.90965 0.99873 0.47742
 C1064 C 0.90062 1.00549 0.44660
 C1065 C 0.87622 0.98656 0.43966
 C1066 C 0.87215 0.96959 0.46673
 O1067 O 0.89242 0.97699 0.48942
 H1068 H 0.91030 1.02221 0.43098
 H1069 H 0.86307 0.98551 0.41755
 C1070 C 0.41313 0.49050 -0.04736
 C1071 C 0.39763 0.50470 -0.07155
 C1072 C 0.36979 0.49005 -0.07445
 C1073 C 0.37025 0.46796 -0.05178
 O1074 O 0.39660 0.46814 -0.03555
 H1075 H 0.40549 0.52344 -0.08552
 H1076 H 0.35150 0.49504 -0.09119
 C1077 C 0.47067 0.38343 0.34545
 C1078 C 0.48189 0.35486 0.34449
 C1079 C 0.50649 0.35587 0.32413
 C1080 C 0.50839 0.38489 0.31401
 O1081 O 0.48660 0.40153 0.32670
 H1082 H 0.47367 0.33563 0.35746
 H1083 H 0.52148 0.33772 0.31784
 C1084 C 0.02100 -0.08126 0.91846
 C1085 C 0.03616 -0.10789 0.92108
 C1086 C 0.05759 -0.10789 0.89706
 C1087 C 0.05396 -0.08127 0.88152
 O1088 O 0.03186 -0.06528 0.89453
 H1089 H 0.03223 -0.12539 0.93817
 H1090 H 0.07380 -0.12527 0.89178
 C1091 C -0.00259 0.00881 0.63026
 C1092 C -0.02455 -0.00620 0.64823
 C1093 C -0.00970 -0.01400 0.67552
 C1094 C 0.02025 -0.00313 0.67242
 O1095 O 0.02457 0.01099 0.64511
 H1096 H -0.04853 -0.01111 0.64219
 H1097 H -0.01953 -0.02635 0.69523
 C1098 C 0.54589 0.45605 0.05752
 C1099 C 0.54511 0.42544 0.05501
 C1100 C 0.55928 0.41582 0.08208
 C1101 C 0.56756 0.44131 0.09927
 O1102 O 0.55959 0.46569 0.08419
 H1103 H 0.53502 0.41175 0.03598
 H1104 H 0.56231 0.39290 0.08859
 C1105 C 0.46114 -0.03059 0.08909
 C1106 C 0.43528 -0.04521 0.07658
 C1107 C 0.41228 -0.04046 0.09817
 C1108 C 0.42568 -0.02327 0.12246
 O1109 O 0.45530 -0.01717 0.11680
 H1110 H 0.43325 -0.05773 0.05430
 H1111 H 0.38871 -0.04894 0.09626
 C1112 C 0.99323 0.52197 0.62348
 C1113 C 0.99885 0.55151 0.63155
 C1114 C 0.98259 0.55651 0.65886
 C1115 C 0.96804 0.52974 0.66576
 O1116 O 0.97434 0.50881 0.64416
 H1117 H 1.01268 0.56788 0.61901
 H1118 H 0.98131 0.57750 0.67169
 C1119 C 0.99193 0.52252 0.94179
 C1120 C 0.98640 0.49220 0.94257
 C1121 C 0.96699 0.48594 0.91758
 C1122 C 0.96190 0.51285 0.90329
 O1123 O 0.97681 0.53525 0.91806
 H1124 H 0.99636 0.47638 0.95874
 H1125 H 0.95824 0.46421 0.91003
 C1126 C 0.50225 -0.01100 0.38695
 C1127 C 0.49990 -0.04166 0.38524
 C1128 C 0.47735 -0.04786 0.36286
 C1129 C 0.46771 -0.02055 0.35246
 O1130 O 0.48282 0.00167 0.36701
 H1131 H 0.51233 -0.05763 0.39920
 H1132 H 0.46896 -0.06967 0.35521
   
