data_POSCAR
  _audit_creation_date              2014-09-24
  _audit_creation_method            'ToBaCCo'
  _symmetry_space_group_name_H-M    'P1'
  _symmetry_Int_Tables_number       1
  _symmetry_cell_setting            triclinic
  loop_
  _symmetry_equiv_pos_as_xyz
 x,y,z
_cell_length_a 28.0780
_cell_length_b 27.7946
_cell_length_c 28.0254
_cell_angle_alpha 92.985500
_cell_angle_beta 93.300400
_cell_angle_gamma 93.241400
loop_
  _atom_site_label
  _atom_site_type_symbol
  _atom_site_fract_x
  _atom_site_fract_y
  _atom_site_fract_z
N1 N 0.13072 0.22865 0.25892
 N2 N 0.14734 0.19178 0.28070
 C3 C 0.12160 0.18336 0.31900
 C4 C 0.08704 0.21681 0.32091
 C5 C 0.09390 0.24474 0.28223
 H6 H 0.12731 0.15499 0.34327
 H7 H 0.07331 0.27468 0.27197
 Cu8 Cu 0.20045 0.15852 0.25602
 Cu9 Cu 0.15748 0.25391 0.20221
 Cu10 Cu 0.25402 0.19674 0.15926
 N11 N 0.25543 0.12813 0.23185
 N12 N 0.27674 0.14332 0.19442
 C13 C 0.31380 0.11592 0.18597
 C14 C 0.31555 0.08171 0.22002
 C15 C 0.27793 0.09044 0.24830
 H16 H 0.33708 0.12017 0.15690
 H17 H 0.26785 0.07040 0.27857
 N18 N 0.22584 0.25144 0.12872
 N19 N 0.18955 0.27396 0.14525
 C20 C 0.18042 0.31115 0.11764
 C21 C 0.21254 0.31173 0.08205
 C22 C 0.24049 0.27332 0.09012
 H23 H 0.15306 0.33626 0.12348
 H24 H 0.27022 0.26306 0.06974
 H25 H 0.18367 0.18995 0.17755
 H26 H 0.22532 0.23144 0.21717
 N27 N 0.62963 0.72914 0.75841
 N28 N 0.64594 0.69170 0.77946
 C29 C 0.62008 0.68269 0.81749
 C30 C 0.58572 0.71631 0.82011
 C31 C 0.59286 0.74505 0.78205
 H32 H 0.62586 0.65399 0.84135
 H33 H 0.57269 0.77554 0.77257
 Cu34 Cu 0.69937 0.65870 0.75500
 Cu35 Cu 0.65714 0.75531 0.70237
 Cu36 Cu 0.75416 0.69866 0.65978
 N37 N 0.75484 0.62880 0.73118
 N38 N 0.77645 0.64467 0.69420
 C39 C 0.81364 0.61756 0.68561
 C40 C 0.81529 0.58280 0.71909
 C41 C 0.77742 0.59096 0.74727
 H42 H 0.83718 0.62250 0.65687
 H43 H 0.76722 0.57045 0.77720
 N44 N 0.72656 0.75384 0.62976
 N45 N 0.69004 0.77617 0.64605
 C46 C 0.68106 0.81340 0.61842
 C47 C 0.71354 0.81416 0.58311
 C48 C 0.74153 0.77587 0.59138
 H49 H 0.65331 0.83817 0.62382
 H50 H 0.77124 0.76553 0.57103
 H51 H 0.68337 0.69173 0.67714
 H52 H 0.72463 0.73251 0.71787
 N53 N 0.35285 0.71983 0.78503
 N54 N 0.34660 0.75903 0.81181
 C55 C 0.38207 0.76484 0.84663
 C56 C 0.41219 0.72741 0.84102
 C57 C 0.39220 0.69943 0.80192
 H58 H 0.38842 0.79657 0.87070
 H59 H 0.40793 0.66929 0.78407
 Cu60 Cu 0.29784 0.80307 0.79296
 Cu61 Cu 0.31690 0.70436 0.72367
 Cu62 Cu 0.28233 0.80879 0.67451
 N63 N 0.25300 0.84636 0.76427
 N64 N 0.24866 0.84944 0.71761
 C65 C 0.21692 0.88211 0.70655
 C66 C 0.19891 0.89964 0.74843
 C67 C 0.22355 0.87691 0.78463
 H68 H 0.20751 0.89199 0.67054
 H69 H 0.22074 0.88261 0.82281
 N70 N 0.29267 0.74990 0.63616
 N71 N 0.30172 0.70849 0.65467
 C72 C 0.29931 0.67361 0.61918
 C73 C 0.28810 0.69452 0.57641
 C74 C 0.28445 0.74287 0.58869
 H75 H 0.30469 0.63598 0.62435
 H76 H 0.27372 0.77064 0.56543
 H77 H 0.33154 0.77547 0.71829
 H78 H 0.26666 0.75759 0.72017
 N79 N 0.85579 0.21520 0.28118
 N80 N 0.84552 0.25053 0.31128
 C81 C 0.88029 0.25640 0.34692
 C82 C 0.91513 0.22442 0.33704
 C83 C 0.89785 0.19856 0.29552
 H84 H 0.88309 0.28574 0.37405
 H85 H 0.91590 0.17148 0.27548
 Cu86 Cu 0.79384 0.29214 0.29410
 Cu87 Cu 0.81895 0.19876 0.22058
 Cu88 Cu 0.78230 0.30381 0.17557
 N89 N 0.75200 0.33863 0.26603
 N90 N 0.74924 0.34379 0.21961
 C91 C 0.71940 0.37836 0.20919
 C92 C 0.70111 0.39507 0.25108
 C93 C 0.72329 0.36969 0.28677
 H94 H 0.71109 0.38986 0.17353
 H95 H 0.71920 0.37375 0.32487
 N96 N 0.79280 0.24612 0.13521
 N97 N 0.80278 0.20429 0.15225
 C98 C 0.79975 0.17026 0.11596
 C99 C 0.78726 0.19219 0.07413
 C100 C 0.78341 0.24021 0.08780
 H101 H 0.80550 0.13251 0.12001
 H102 H 0.77156 0.26840 0.06560
 H103 H 0.83062 0.27081 0.21908
 H104 H 0.76615 0.25032 0.21832
 N105 N 0.83416 0.76092 0.23763
 N106 N 0.81904 0.72243 0.21061
 C107 C 0.85084 0.71267 0.17806
 C108 C 0.88849 0.74682 0.18483
 C109 C 0.87661 0.77724 0.22274
 H110 H 0.84657 0.68275 0.15169
 H111 H 0.89742 0.80875 0.23820
 Cu112 Cu 0.76144 0.68613 0.22215
 Cu113 Cu 0.79724 0.78514 0.29048
 Cu114 Cu 0.69205 0.71694 0.30926
 N115 N 0.71926 0.63899 0.24826
 N116 N 0.69009 0.65096 0.28128
 C117 C 0.66415 0.61109 0.29200
 C118 C 0.67943 0.57237 0.26511
 C119 C 0.71426 0.59128 0.23777
 H120 H 0.63766 0.61008 0.31854
 H121 H 0.73436 0.57190 0.21201
 N122 N 0.71385 0.77642 0.34777
 N123 N 0.75363 0.80245 0.34133
 C124 C 0.76083 0.83669 0.37747
 C125 C 0.72430 0.83126 0.40823
 C126 C 0.69527 0.79285 0.38820
 H127 H 0.79253 0.86068 0.38358
 H128 H 0.66497 0.77563 0.40406
 H129 H 0.76442 0.71904 0.30397
 H130 H 0.73168 0.75808 0.26315
 N131 N 0.33674 0.26061 -0.26130
 N132 N 0.32105 0.22294 -0.28920
 C133 C 0.35302 0.21294 -0.32151
 C134 C 0.39159 0.24603 -0.31356
 C135 C 0.37983 0.27615 -0.27525
 H136 H 0.34804 0.18369 -0.34856
 H137 H 0.40106 0.30706 -0.25903
 Cu138 Cu 0.26241 0.18774 -0.27906
 Cu139 Cu 0.29940 0.28513 -0.20888
 Cu140 Cu 0.19232 0.21901 -0.19270
 N141 N 0.21900 0.14107 -0.25392
 N142 N 0.18966 0.15319 -0.22111
 C143 C 0.16329 0.11349 -0.21068
 C144 C 0.17847 0.07469 -0.23753
 C145 C 0.21365 0.09342 -0.26458
 H146 H 0.13674 0.11260 -0.18421
 H147 H 0.23394 0.07389 -0.29007
 N148 N 0.21466 0.27774 -0.15334
 N149 N 0.25520 0.30293 -0.15871
 C150 C 0.26249 0.33663 -0.12209
 C151 C 0.22519 0.33171 -0.09216
 C152 C 0.19565 0.29417 -0.11315
 H153 H 0.29467 0.35978 -0.11507
 H154 H 0.16468 0.27739 -0.09804
 H155 H 0.26474 0.21955 -0.19690
 H156 H 0.23370 0.25995 -0.23762
 N157 N 0.62619 0.27239 -0.25943
 N158 N 0.64354 0.28662 -0.29923
 C159 C 0.60783 0.28474 -0.33370
 C160 C 0.56581 0.26927 -0.31371
 C161 C 0.57905 0.26211 -0.26645
 H162 H 0.61199 0.29557 -0.36979
 H163 H 0.55660 0.24940 -0.23910
 Cu164 Cu 0.71017 0.31036 -0.29945
 Cu165 Cu 0.66546 0.26710 -0.20139
 Cu166 Cu 0.78749 0.28240 -0.21067
 N167 N 0.77123 0.34700 -0.28555
 N168 N 0.80200 0.33615 -0.25113
 C169 C 0.83787 0.37084 -0.24594
 C170 C 0.82849 0.40560 -0.27830
 C171 C 0.78612 0.38898 -0.30302
 H172 H 0.86582 0.37315 -0.21754
 H173 H 0.76560 0.40794 -0.32911
 N174 N 0.75855 0.24595 -0.16011
 N175 N 0.71194 0.24139 -0.15617
 C176 C 0.70244 0.21283 -0.12022
 C177 C 0.74515 0.19852 -0.10055
 C178 C 0.78012 0.22090 -0.12616
 H179 H 0.66694 0.20256 -0.10987
 H180 H 0.81836 0.21842 -0.12097
 H181 H 0.72475 0.31237 -0.21257
 H182 H 0.72182 0.24987 -0.24114
 N183 N 0.12778 0.76251 0.23422
 N184 N 0.14423 0.78550 0.19829
 C185 C 0.10797 0.78990 0.16537
 C186 C 0.06682 0.76878 0.18237
 C187 C 0.08081 0.75183 0.22596
 H188 H 0.11110 0.80795 0.13232
 H189 H 0.05862 0.73214 0.24947
 Cu190 Cu 0.21080 0.80928 0.20097
 Cu191 Cu 0.16826 0.74425 0.28734
 Cu192 Cu 0.28860 0.78166 0.29012
 N193 N 0.26999 0.84795 0.21737
 N194 N 0.30215 0.83599 0.24994
 C195 C 0.33839 0.87046 0.25431
 C196 C 0.32685 0.90700 0.22451
 C197 C 0.28340 0.89105 0.20145
 H198 H 0.36780 0.87154 0.28112
 H199 H 0.26197 0.91020 0.17626
 N200 N 0.26038 0.74107 0.33881
 N201 N 0.21432 0.72832 0.33789
 C202 C 0.20566 0.70053 0.37456
 C203 C 0.24817 0.69523 0.40012
 C204 C 0.28221 0.72189 0.37685
 H205 H 0.17097 0.68475 0.38164
 H206 H 0.32012 0.72615 0.38650
 H207 H 0.22009 0.80096 0.28648
 H208 H 0.23092 0.74348 0.25263
 N209 N 0.50407 0.40185 0.52905
 N210 N 0.46703 0.41923 0.54907
 C211 C 0.45050 0.38782 0.57979
 C212 C 0.47872 0.34851 0.57910
 C213 C 0.51273 0.35882 0.54674
 H214 H 0.41975 0.39319 0.60051
 H215 H 0.54077 0.33631 0.53576
 Cu216 Cu 0.44178 0.48002 0.53215
 Cu217 Cu 0.53624 0.43599 0.48029
 Cu218 Cu 0.46759 0.51915 0.42478
 N219 N 0.40358 0.52662 0.50112
 N220 N 0.41366 0.54065 0.45865
 C221 C 0.38139 0.57116 0.44390
 C222 C 0.34899 0.57670 0.47887
 C223 C 0.36422 0.54791 0.51496
 H224 H 0.38179 0.58804 0.41008
 H225 H 0.34777 0.54236 0.54834
 N226 N 0.52396 0.49322 0.39685
 N227 N 0.55034 0.46214 0.41856
 C228 C 0.58498 0.44956 0.39017
 C229 C 0.58022 0.47396 0.34855
 C230 C 0.54142 0.50160 0.35408
 H231 H 0.61107 0.42375 0.39888
 H232 H 0.52620 0.52487 0.32828
 H233 H 0.50877 0.50457 0.48402
 H234 H 0.46982 0.45315 0.45557
 N235 N 0.00087 -0.09790 1.02400
 N236 N -0.03658 -0.08107 1.04369
 C237 C -0.05287 -0.11264 1.07435
 C238 C -0.02405 -0.15148 1.07399
 C239 C 0.01006 -0.14074 1.04187
 H240 H -0.08383 -0.10763 1.09485
 H241 H 0.03860 -0.16278 1.03127
 Cu242 Cu -0.06262 -0.02072 1.02657
 Cu243 Cu 0.03290 -0.06316 0.97560
 Cu244 Cu -0.03726 0.01822 0.91900
 N245 N -0.10166 0.02491 0.99519
 N246 N -0.09205 0.03870 0.95250
 C247 C -0.12473 0.06892 0.93789
 C248 C -0.15678 0.07455 0.97326
 C249 C -0.14097 0.04606 1.00933
 H250 H -0.12457 0.08594 0.90413
 H251 H -0.15675 0.04095 1.04313
 N252 N 0.02013 -0.00665 0.89173
 N253 N 0.04701 -0.03699 0.91396
 C254 C 0.08244 -0.04877 0.88623
 C255 C 0.07778 -0.02463 0.84450
 C256 C 0.03814 0.00205 0.84924
 H257 H 0.10909 -0.07384 0.89550
 H258 H 0.02280 0.02492 0.82313
 H259 H 0.00403 0.00487 0.97850
 H260 H -0.03383 -0.04740 0.95025
 N261 N 0.98874 0.61437 1.00987
 N262 N 1.03322 0.62042 1.02755
 C263 C 1.03730 0.66005 1.05794
 C264 C 0.99269 0.67907 1.05962
 C265 C 0.96279 0.64878 1.02913
 H266 H 1.06935 0.67233 1.07942
 H267 H 0.92474 0.65116 1.02200
 Cu268 Cu 1.07879 0.57145 1.01268
 Cu269 Cu 0.96766 0.56166 0.96369
 Cu270 Cu 1.05962 0.51054 0.90577
 N271 N 1.11647 0.51674 0.99473
 N272 N 1.11129 0.49585 0.95134
 C273 C 1.14158 0.46017 0.94776
 C274 C 1.16606 0.45754 0.99156
 C275 C 1.14911 0.49371 1.02080
 H276 H 1.14294 0.43547 0.91678
 H277 H 1.15900 0.50190 1.05834
 N278 N 0.99384 0.50901 0.87724
 N279 N 0.95858 0.52640 0.90072
 C280 C 0.91879 0.52360 0.87153
 C281 C 0.92933 0.50349 0.82752
 C282 C 0.97720 0.49420 0.83245
 H283 H 0.88564 0.53898 0.88033
 H284 H 0.99914 0.48145 0.80449
 H285 H 1.02271 0.51443 0.96546
 H286 H 1.03183 0.57301 0.93677
 N287 N 0.48931 0.11549 0.51137
 N288 N 0.53393 0.12137 0.52863
 C289 C 0.53836 0.16062 0.55948
 C290 C 0.49382 0.17961 0.56193
 C291 C 0.46361 0.14971 0.53133
 H292 H 0.57057 0.17254 0.58087
 H293 H 0.42548 0.15206 0.52479
 Cu294 Cu 0.57923 0.07248 0.51305
 Cu295 Cu 0.46751 0.06278 0.46540
 Cu296 Cu 0.55859 0.01088 0.40670
 N297 N 0.61671 0.01784 0.49479
 N298 N 0.61096 -0.00332 0.45155
 C299 C 0.64120 -0.03900 0.44774
 C300 C 0.66623 -0.04134 0.49126
 C301 C 0.64970 -0.00501 0.52057
 H302 H 0.64208 -0.06395 0.41688
 H303 H 0.66003 0.00335 0.55799
 N304 N 0.49248 0.00894 0.37917
 N305 N 0.45757 0.02684 0.40279
 C306 C 0.41742 0.02351 0.37407
 C307 C 0.42739 0.00240 0.33029
 C308 C 0.47529 -0.00679 0.33484
 H309 H 0.38440 0.03910 0.38296
 H310 H 0.49686 -0.02012 0.30682
 H311 H 0.52242 0.01539 0.46694
 H312 H 0.53127 0.07369 0.43767
 N313 N -0.00495 0.11946 0.52278
 N314 N -0.04477 0.10909 0.49621
 C315 C -0.04673 0.13849 0.45961
 C316 C -0.00575 0.16849 0.46294
 C317 C 0.02032 0.15537 0.50321
 H318 H -0.07448 0.13626 0.43101
 H319 H 0.05534 0.17004 0.51659
 Cu320 Cu -0.08809 0.05460 0.50811
 Cu321 Cu 0.00996 0.08403 0.58022
 Cu322 Cu -0.03635 -0.03384 0.56552
 N323 N -0.12077 -0.00843 0.51153
 N324 N -0.09990 -0.04287 0.53365
 C325 C -0.13075 -0.08155 0.53378
 C326 C -0.17340 -0.07075 0.51080
 C327 C -0.16578 -0.02413 0.49668
 H328 H -0.12350 -0.11410 0.55176
 H329 H -0.19194 -0.00225 0.47992
 N330 N 0.01583 -0.01282 0.61337
 N331 N 0.03105 0.03282 0.62175
 C332 C 0.06231 0.03624 0.66035
 C333 C 0.06727 -0.00962 0.67644
 C334 C 0.03768 -0.03983 0.64560
 H335 H 0.08095 0.06937 0.67496
 H336 H 0.03141 -0.07842 0.64747
 H337 H -0.00979 0.02815 0.53456
 H338 H -0.05012 0.03588 0.58482
 N339 N 0.49761 0.61537 0.02318
 N340 N 0.45735 0.60525 -0.00274
 C341 C 0.45508 0.63428 -0.03960
 C342 C 0.49632 0.66379 -0.03719
 C343 C 0.52286 0.65083 0.00288
 H344 H 0.42665 0.63244 -0.06750
 H345 H 0.55797 0.66561 0.01588
 Cu346 Cu 0.41323 0.55208 0.01062
 Cu347 Cu 0.51251 0.58066 0.08120
 Cu348 Cu 0.46359 0.46355 0.06916
 N349 N 0.37994 0.48953 0.01421
 N350 N 0.40021 0.45500 0.03677
 C351 C 0.36898 0.41661 0.03661
 C352 C 0.32675 0.42772 0.01294
 C353 C 0.33500 0.47420 -0.00122
 H354 H 0.37571 0.38400 0.05469
 H355 H 0.30936 0.49621 -0.01857
 N356 N 0.51622 0.48445 0.11663
 N357 N 0.53259 0.52988 0.12391
 C358 C 0.56403 0.53339 0.16241
 C359 C 0.56789 0.48780 0.17958
 C360 C 0.53749 0.45766 0.14946
 H361 H 0.58353 0.56635 0.17621
 H362 H 0.53035 0.41929 0.15218
 H363 H 0.49105 0.52430 0.03675
 H364 H 0.45158 0.53409 0.08740
 N365 N 0.51911 -0.12007 0.00166
 N366 N 0.54250 -0.09906 -0.03164
 C367 C 0.54228 -0.12947 -0.07041
 C368 C 0.51768 -0.17207 -0.06102
 C369 C 0.50311 -0.16486 -0.01496
 H370 H 0.56122 -0.12223 -0.10202
 H371 H 0.48530 -0.19123 0.00602
 Cu372 Cu 0.57792 -0.03738 -0.01987
 Cu373 Cu 0.51673 -0.08895 0.06534
 Cu374 Cu 0.56287 0.03004 0.07942
 N375 N 0.62395 0.01490 0.00208
 N376 N 0.61896 0.04149 0.04148
 C377 C 0.65405 0.07709 0.04572
 C378 C 0.68229 0.07201 0.00691
 C379 C 0.66183 0.03256 -0.02013
 H380 H 0.65700 0.10615 0.07314
 H381 H 0.67247 0.01912 -0.05460
 N382 N 0.51615 0.00187 0.12217
 N383 N 0.50109 -0.04417 0.11849
 C384 C 0.46707 -0.05178 0.14975
 C385 C 0.45960 -0.00838 0.17350
 C386 C 0.49121 0.02492 0.15511
 H387 H 0.44568 -0.08520 0.15142
 H388 H 0.49375 0.06350 0.16310
 H389 H 0.51829 -0.02159 0.03766
 H390 H 0.57575 -0.03916 0.06693
 N391 N 1.01807 0.38231 0.49751
 N392 N 1.04310 0.40272 0.46503
 C393 C 1.04216 0.37277 0.42584
 C394 C 1.01554 0.33096 0.43418
 C395 C 1.00048 0.33830 0.48004
 H396 H 1.06231 0.37944 0.39488
 H397 H 0.98151 0.31227 0.50049
 Cu398 Cu 1.08202 0.46227 0.47893
 Cu399 Cu 1.01621 0.41259 0.56157
 Cu400 Cu 1.06391 0.53102 0.57653
 N401 N 1.12870 0.51333 0.50304
 N402 N 1.12221 0.54063 0.54159
 C403 C 1.15755 0.57592 0.54691
 C404 C 1.18775 0.56987 0.50983
 C405 C 1.16799 0.53019 0.48254
 H406 H 1.15913 0.60574 0.57345
 H407 H 1.17973 0.51658 0.44859
 N408 N 1.01564 0.50369 0.61797
 N409 N 1.00027 0.45774 0.61424
 C410 C 0.96609 0.45040 0.64535
 C411 C 0.95886 0.49390 0.66899
 C412 C 0.99073 0.52700 0.65076
 H413 H 0.94472 0.41701 0.64726
 H414 H 0.99388 0.56552 0.65913
 H415 H 1.02009 0.47963 0.53358
 H416 H 1.07594 0.46152 0.56551
 C417 C 0.34839 0.04132 0.22588
 C418 C 0.32179 -0.00781 0.21570
 C419 C 0.34831 -0.04613 0.22493
 C420 C 0.40084 -0.03130 0.24135
 C421 C 0.36973 0.04081 0.27722
 C422 C 0.39765 0.00343 0.28541
 C423 C 0.39149 0.03996 0.19486
 C424 C 0.41881 0.00172 0.20254
 H425 H 0.28378 -0.01123 0.20607
 H426 H 0.42344 -0.06211 0.24789
 H427 H 0.36668 0.07034 0.30345
 H428 H 0.39871 0.06548 0.16793
 C429 C 0.16629 -0.06296 0.75322
 C430 C 0.19181 -0.01262 0.75716
 C431 C 0.16195 0.02386 0.76259
 C432 C 0.10922 0.00716 0.76328
 C433 C 0.13727 -0.06542 0.79759
 C434 C 0.10763 -0.02883 0.80318
 C435 C 0.12838 -0.06105 0.71142
 C436 C 0.09937 -0.02362 0.71621
 H437 H 0.22998 -0.00640 0.75435
 H438 H 0.08511 0.03722 0.76740
 H439 H 0.13916 -0.09444 0.82180
 H440 H 0.12710 -0.08450 0.67922
 C441 C 0.66703 0.43469 0.25623
 C442 C 0.69265 0.48496 0.25953
 C443 C 0.66289 0.52153 0.26508
 C444 C 0.61020 0.50490 0.26637
 C445 C 0.63867 0.43260 0.30093
 C446 C 0.60912 0.46922 0.30661
 C447 C 0.62885 0.43631 0.21475
 C448 C 0.59990 0.47381 0.21949
 H449 H 0.73079 0.49099 0.25649
 H450 H 0.58614 0.53500 0.27050
 H451 H 0.64116 0.40393 0.32543
 H452 H 0.62775 0.41286 0.18257
 C453 C 0.84860 0.54270 0.72443
 C454 C 0.82233 0.49322 0.71536
 C455 C 0.84992 0.45543 0.72296
 C456 C 0.90246 0.47076 0.73818
 C457 C 0.87136 0.54247 0.77519
 C458 C 0.89987 0.50533 0.78256
 C459 C 0.89089 0.54176 0.69212
 C460 C 0.91888 0.50391 0.69906
 H461 H 0.78419 0.48885 0.70659
 H462 H 0.92543 0.44010 0.74408
 H463 H 0.86801 0.57155 0.80185
 H464 H 0.89713 0.56724 0.66494
 C465 C 0.21980 0.34676 0.04360
 C466 C 0.21404 0.32179 -0.00647
 C467 C 0.22440 0.35104 -0.04229
 C468 C 0.23869 0.40353 -0.02485
 C469 C 0.27060 0.36986 0.04758
 C470 C 0.28068 0.39965 0.01221
 C471 C 0.18753 0.38953 0.04127
 C472 C 0.19718 0.41899 0.00511
 H473 H 0.20474 0.28351 -0.01268
 H474 H 0.24669 0.42763 -0.05413
 H475 H 0.29551 0.36498 0.07767
 H476 H 0.15759 0.39408 0.06339
 C477 C 0.75275 0.16699 -0.05911
 C478 C 0.76716 0.19655 -0.01270
 C479 C 0.77587 0.16970 0.02577
 C480 C 0.76984 0.11495 0.01398
 C481 C 0.79286 0.13308 -0.06576
 C482 C 0.80265 0.10616 -0.02765
 C483 C 0.70987 0.13386 -0.04741
 C484 C 0.71862 0.10698 -0.00896
 H485 H 0.76943 0.23560 -0.01085
 H486 H 0.77672 0.09257 0.04497
 H487 H 0.81219 0.13149 -0.09802
 H488 H 0.67597 0.13099 -0.06809
 C489 C 0.25630 0.66559 0.44301
 C490 C 0.26882 0.69655 0.48902
 C491 C 0.27790 0.67086 0.52831
 C492 C 0.27404 0.61585 0.51769
 C493 C 0.29787 0.63334 0.43803
 C494 C 0.30789 0.60751 0.47690
 C495 C 0.21438 0.63113 0.45479
 C496 C 0.22345 0.60548 0.49395
 H497 H 0.26959 0.73554 0.48995
 H498 H 0.28126 0.59438 0.54929
 H499 H 0.31780 0.63194 0.40616
 H500 H 0.18074 0.62636 0.43380
 C501 C 0.72043 0.84857 0.54403
 C502 C 0.71404 0.82280 0.49433
 C503 C 0.72389 0.85143 0.45788
 C504 C 0.73830 0.90415 0.47437
 C505 C 0.77124 0.87169 0.54701
 C506 C 0.78075 0.90092 0.51099
 C507 C 0.68813 0.89125 0.54147
 C508 C 0.69727 0.92008 0.50471
 H509 H 0.70483 0.78445 0.48883
 H510 H 0.74585 0.92778 0.44460
 H511 H 0.79653 0.86738 0.57694
 H512 H 0.65865 0.89631 0.56409
 C513 C 0.04837 0.22341 0.35518
 C514 C -0.00100 0.21511 0.32952
 C515 C -0.03787 0.22568 0.35691
 C516 C -0.02164 0.24199 0.40905
 C517 C 0.05050 0.27512 0.37662
 C518 C 0.01452 0.28505 0.40520
 C519 C 0.04630 0.19182 0.39839
 C520 C 0.00924 0.20120 0.42634
 H521 H -0.00568 0.20453 0.29170
 H522 H -0.05144 0.24970 0.43217
 H523 H 0.08073 0.30029 0.37273
 H524 H 0.06852 0.16173 0.40363
 C525 C -0.06835 0.75213 0.15562
 C526 C -0.02110 0.75724 0.18585
 C527 C 0.01806 0.76453 0.15996
 C528 C 0.00642 0.76572 0.10588
 C529 C -0.06901 0.79723 0.12729
 C530 C -0.03014 0.80496 0.10138
 C531 C -0.06180 0.71090 0.11834
 C532 C -0.02239 0.71756 0.09280
 H533 H -0.01911 0.75517 0.22438
 H534 H 0.03825 0.77124 0.08466
 H535 H -0.09812 0.82108 0.12834
 H536 H -0.08381 0.67755 0.11498
 C537 C 0.43287 0.25114 0.65912
 C538 C 0.48000 0.25516 0.68973
 C539 C 0.51964 0.26305 0.66442
 C540 C 0.50821 0.26515 0.61021
 C541 C 0.43296 0.29693 0.63161
 C542 C 0.47208 0.30476 0.60613
 C543 C 0.43947 0.21048 0.62118
 C544 C 0.47907 0.21742 0.59604
 H545 H 0.48117 0.25302 0.72822
 H546 H 0.53985 0.27074 0.58881
 H547 H 0.40403 0.32104 0.63260
 H548 H 0.41747 0.17715 0.61702
 C549 C 0.54785 0.72261 0.85540
 C550 C 0.49773 0.71742 0.83079
 C551 C 0.46214 0.72666 0.86016
 C552 C 0.47993 0.73955 0.91248
 C553 C 0.55186 0.77318 0.87972
 C554 C 0.51677 0.78227 0.90976
 C555 C 0.54595 0.68851 0.89679
 C556 C 0.51018 0.69726 0.92646
 H557 H 0.49131 0.70918 0.79266
 H558 H 0.45087 0.74667 0.93672
 H559 H 0.58186 0.79853 0.87546
 H560 H 0.56780 0.65787 0.90006
   
