data_POSCAR
  _audit_creation_date              2014-09-24
  _audit_creation_method            'ToBaCCo'
  _symmetry_space_group_name_H-M    'P1'
  _symmetry_Int_Tables_number       1
  _symmetry_cell_setting            triclinic
  loop_
  _symmetry_equiv_pos_as_xyz
 x,y,z
_cell_length_a 23.0228
_cell_length_b 23.0195
_cell_length_c 25.8043
_cell_angle_alpha 89.012400
_cell_angle_beta 90.053400
_cell_angle_gamma 90.171800
loop_
  _atom_site_label
  _atom_site_type_symbol
  _atom_site_fract_x
  _atom_site_fract_y
  _atom_site_fract_z
Si1 Si 1.24417 0.24636 0.25145
 Si2 Si 0.74292 -0.25049 0.25164
 Si3 Si 0.74154 0.25294 -0.25131
 Si4 Si 1.24466 -0.24657 -0.25075
 Si5 Si 0.26045 0.24497 0.75286
 Si6 Si 0.75936 0.74342 0.74668
 Si7 Si 0.76127 0.25655 0.25319
 Si8 Si 0.25478 0.75299 0.24731
 O9 O 1.10609 0.06630 0.03575
 O10 O 0.88601 -0.06697 0.03815
 O11 O 0.92836 0.11091 0.03210
 O12 O 1.06399 -0.11158 0.03684
 O13 O 0.89607 0.03149 0.06343
 O14 O 1.09475 -0.03136 0.06522
 O15 O 0.96666 -0.09983 0.06636
 O16 O 1.02585 0.09966 0.06279
 C17 C 1.07836 0.09259 0.06943
 C18 C 0.91407 -0.09327 0.07260
 C19 C 0.90296 0.08429 0.06782
 C20 C 1.09013 -0.08433 0.07101
 O21 O 1.10623 -0.06703 -0.03516
 O22 O 0.88568 0.06575 -0.03863
 O23 O 1.06392 0.11061 -0.03669
 O24 O 0.92852 -0.11192 -0.03247
 O25 O 0.89641 -0.03259 -0.06379
 O26 O 1.09524 0.03034 -0.06430
 O27 O 1.02598 -0.09993 -0.06302
 O28 O 0.96625 0.09923 -0.06679
 Co29 Co 1.09039 -0.00044 0.00037
 Co30 Co 0.90119 -0.00059 -0.00019
 Co31 Co 0.99614 0.09465 -0.00192
 Co32 Co 0.99630 -0.09534 0.00168
 O33 O 0.99598 -0.00041 -0.00002
 C34 C 1.07860 -0.09300 -0.06928
 C35 C 0.91348 0.09283 -0.07289
 C36 C 1.09014 0.08313 -0.07048
 C37 C 0.90324 -0.08532 -0.06821
 O38 O 1.11308 0.54403 0.55666
 O39 O 0.87702 0.44153 0.51841
 O40 O 0.95587 0.60882 0.54089
 O41 O 1.04393 0.41269 0.57697
 O42 O 0.91568 0.52880 0.56359
 O43 O 1.12267 0.43690 0.53992
 O44 O 0.94638 0.42114 0.56734
 O45 O 1.06041 0.61595 0.52483
 C46 C 1.09623 0.59563 0.55798
 C47 C 0.89427 0.41509 0.55763
 C48 C 0.92577 0.58044 0.57253
 C49 C 1.09715 0.41411 0.57713
 O50 O 1.11279 0.45573 0.44252
 O51 O 0.86005 0.54728 0.47866
 O52 O 1.03796 0.58643 0.42316
 O53 O 0.95319 0.39307 0.46290
 O54 O 0.92078 0.47520 0.43197
 O55 O 1.11878 0.56389 0.45801
 O56 O 1.05896 0.38384 0.47398
 O57 O 0.93731 0.58119 0.43966
 Co58 Co 1.10640 0.50014 0.49956
 Co59 Co 0.92219 0.50394 0.49754
 Co60 Co 0.99893 0.58966 0.48404
 Co61 Co 1.00109 0.40991 0.51856
 O62 O 1.01037 0.49843 0.50150
 C63 C 1.09533 0.40413 0.44117
 C64 C 0.88308 0.58509 0.44695
 C65 C 1.09141 0.58593 0.42124
 C66 C 0.92819 0.42176 0.42715
 O67 O 0.60977 0.06374 0.53811
 O68 O 0.39175 -0.06868 0.53612
 O69 O 0.43187 0.10887 0.53143
 O70 O 0.56938 -0.11423 0.53179
 O71 O 0.40170 0.02854 0.56205
 O72 O 0.60017 -0.03545 0.56283
 O73 O 0.47214 -0.10222 0.56410
 O74 O 0.52876 0.09769 0.56374
 C75 C 0.58102 0.08981 0.57145
 C76 C 0.41975 -0.09437 0.57087
 C77 C 0.40758 0.08125 0.56706
 C78 C 0.59575 -0.08862 0.56673
 O79 O 0.60995 -0.06541 0.46052
 O80 O 0.39171 0.06390 0.46021
 O81 O 0.56929 0.11203 0.46622
 O82 O 0.43245 -0.11337 0.46532
 O83 O 0.40273 -0.03336 0.43411
 O84 O 0.60101 0.03359 0.43568
 O85 O 0.52923 -0.09983 0.43405
 O86 O 0.47210 0.09921 0.43327
 Co87 Co 0.59533 -0.00097 0.49924
 Co88 Co 0.40679 -0.00232 0.49815
 Co89 Co 0.50048 0.09382 0.49859
 Co90 Co 0.50075 -0.09671 0.49891
 O91 O 0.50089 -0.00151 0.49872
 C92 C 0.58132 -0.09073 0.42656
 C93 C 0.41979 0.09067 0.42610
 C94 C 0.59632 0.08670 0.43165
 C95 C 0.40755 -0.08626 0.42967
 O96 O 0.60896 0.56999 0.03314
 O97 O 0.38735 0.43519 0.04011
 O98 O 0.43147 0.61300 0.03330
 O99 O 0.56529 0.39190 0.04229
 O100 O 0.39943 0.53370 0.06561
 O101 O 0.59869 0.47311 0.06677
 O102 O 0.46734 0.40424 0.07064
 O103 O 0.52918 0.60319 0.06094
 C104 C 0.58171 0.59627 0.06704
 C105 C 0.41447 0.41024 0.07570
 C106 C 0.40610 0.58663 0.06932
 C107 C 0.59278 0.42049 0.07480
 O108 O 0.60870 0.43285 -0.03149
 O109 O 0.38674 0.56733 -0.03559
 O110 O 0.56453 0.61081 -0.04003
 O111 O 0.43105 0.38983 -0.02916
 O112 O 0.39833 0.46891 -0.06106
 O113 O 0.59739 0.52966 -0.06481
 O114 O 0.52846 0.39924 -0.05832
 O115 O 0.46628 0.59801 -0.06722
 Co116 Co 0.59311 0.50140 0.00099
 Co117 Co 0.40336 0.50128 0.00221
 Co118 Co 0.49788 0.59596 -0.00285
 Co119 Co 0.49805 0.40654 0.00595
 O120 O 0.49814 0.50129 0.00160
 C121 C 0.58100 0.40602 -0.06496
 C122 C 0.41334 0.59202 -0.07170
 C123 C 0.59132 0.58221 -0.07285
 C124 C 0.40604 0.41624 -0.06520
 C125 C 1.19845 0.20355 0.20945
 C126 C 1.16889 0.17649 0.17981
 C127 C 1.13548 0.14605 0.14332
 C128 C 1.10839 0.12108 0.11051
 C129 C 1.20070 0.71389 0.70315
 C130 C 1.17347 0.68893 0.67036
 C131 C 1.14374 0.65928 0.63084
 C132 C 1.12059 0.63200 0.59707
 C133 C 0.69573 0.20503 0.71160
 C134 C 0.66710 0.17552 0.68317
 C135 C 0.63538 0.14332 0.64680
 C136 C 0.60977 0.11780 0.61344
 C137 C 0.69915 0.70615 0.20890
 C138 C 0.67074 0.67907 0.17855
 C139 C 0.63844 0.64894 0.14131
 C140 C 0.61186 0.62435 0.10807
 C141 C 0.79385 -0.20882 0.21250
 C142 C 0.82461 -0.18110 0.18358
 C143 C 0.85797 -0.14920 0.14719
 C144 C 0.88451 -0.12290 0.11412
 C145 C 0.77839 0.29876 0.70080
 C146 C 0.80169 0.32711 0.66692
 C147 C 0.82994 0.35883 0.62680
 C148 C 0.85687 0.38498 0.59371
 C149 C 0.29354 -0.20136 0.71127
 C150 C 0.32545 -0.17433 0.68289
 C151 C 0.36126 -0.14503 0.64674
 C152 C 0.38963 -0.12139 0.61337
 C153 C 0.28866 0.29465 0.21179
 C154 C 0.31915 0.32383 0.18370
 C155 C 0.35453 0.35569 0.14876
 C156 C 0.38330 0.38132 0.11674
 C157 C 0.79181 0.21032 -0.21162
 C158 C 0.82254 0.18228 -0.18272
 C159 C 0.85633 0.14998 -0.14661
 C160 C 0.88338 0.12325 -0.11397
 C161 C 0.77762 0.70453 0.30067
 C162 C 0.79893 0.67627 0.33538
 C163 C 0.82442 0.64423 0.37637
 C164 C 0.84886 0.61717 0.41016
 C165 C 0.29276 0.20061 0.28877
 C166 C 0.32485 0.17297 0.31637
 C167 C 0.36100 0.14284 0.35151
 C168 C 0.38963 0.11847 0.38417
 C169 C 0.28854 0.70564 -0.21004
 C170 C 0.31846 0.67687 -0.18115
 C171 C 0.35326 0.64551 -0.14536
 C172 C 0.38181 0.62035 -0.11289
 C173 C 1.19884 -0.20333 -0.20927
 C174 C 1.16929 -0.17627 -0.17973
 C175 C 1.13586 -0.14599 -0.14323
 C176 C 1.10873 -0.12123 -0.11039
 C177 C 1.20005 0.28545 0.29733
 C178 C 1.17252 0.31043 0.32972
 C179 C 1.14250 0.34027 0.36870
 C180 C 1.11930 0.36772 0.40215
 C181 C 0.69689 -0.20208 0.28672
 C182 C 0.66788 -0.17265 0.31442
 C183 C 0.63585 -0.14122 0.35052
 C184 C 0.61008 -0.11688 0.38412
 C185 C 0.69736 0.29587 -0.20806
 C186 C 0.66904 0.32268 -0.17735
 C187 C 0.63698 0.35275 -0.13969
 C188 C 0.61072 0.37749 -0.10623
 C189 C 1.21383 0.20022 -0.20667
 C190 C 1.18360 0.17167 -0.17801
 C191 C 1.14935 0.13950 -0.14263
 C192 C 1.12140 0.11311 -0.11065
 C193 C 1.21142 0.70903 0.28550
 C194 C 1.18203 0.67897 0.31389
 C195 C 1.14885 0.64488 0.34903
 C196 C 1.12179 0.61705 0.38088
 C197 C 0.71676 0.21179 0.29660
 C198 C 0.68804 0.18214 0.32600
 C199 C 0.65514 0.14778 0.36137
 C200 C 0.62781 0.11924 0.39266
 C201 C 0.71278 0.69797 -0.21265
 C202 C 0.68305 0.66930 -0.18341
 C203 C 0.64948 0.63720 -0.14707
 C204 C 0.62210 0.61122 -0.11422
 C205 C 0.80021 -0.20953 -0.21063
 C206 C 0.82536 -0.17909 -0.18030
 C207 C 0.85339 -0.14458 -0.14299
 C208 C 0.87645 -0.11652 -0.10965
 C209 C 0.81027 0.30117 0.29150
 C210 C 0.84089 0.33043 0.31884
 C211 C 0.87461 0.36398 0.35329
 C212 C 0.90089 0.39140 0.38529
 C213 C 0.29659 -0.20493 0.28756
 C214 C 0.32394 -0.17616 0.31782
 C215 C 0.35432 -0.14343 0.35515
 C216 C 0.37911 -0.11659 0.38841
 C217 C 0.30407 0.29021 -0.20572
 C218 C 0.32994 0.32073 -0.17615
 C219 C 0.35783 0.35589 -0.13957
 C220 C 0.38028 0.38460 -0.10656
 C221 C 1.21197 -0.20355 0.20821
 C222 C 1.18258 -0.17434 0.17918
 C223 C 1.14904 -0.14148 0.14341
 C224 C 1.12143 -0.11465 0.11129
 C225 C 1.21654 0.29153 0.71197
 C226 C 1.18829 0.32180 0.68326
 C227 C 1.15603 0.35598 0.64808
 C228 C 1.12893 0.38363 0.61650
 C229 C 0.71527 -0.21213 0.70296
 C230 C 0.68673 -0.18280 0.67331
 C231 C 0.65403 -0.14891 0.63762
 C232 C 0.62690 -0.12076 0.60603
 C233 C 0.71508 0.30283 0.21284
 C234 C 0.68550 0.33211 0.18397
 C235 C 0.65189 0.36491 0.14813
 C236 C 0.62424 0.39132 0.11572
 C237 C 0.80144 0.20942 0.21017
 C238 C 0.82608 0.17875 0.17978
 C239 C 0.85358 0.14388 0.14250
 C240 C 0.87632 0.11558 0.10923
 C241 C 0.80783 0.69829 0.70889
 C242 C 0.83830 0.66900 0.68173
 C243 C 0.87197 0.63581 0.64728
 C244 C 0.89831 0.60916 0.61500
 C245 C 0.30374 0.19987 0.71123
 C246 C 0.32979 0.17067 0.68087
 C247 C 0.35818 0.13770 0.64311
 C248 C 0.38117 0.11096 0.60916
 C249 C 0.29688 0.71041 0.20809
 C250 C 0.32414 0.68068 0.17873
 C251 C 0.35414 0.64646 0.14249
 C252 C 0.37844 0.61830 0.10998
   
