data_POSCAR
  _audit_creation_date              2014-09-24
  _audit_creation_method            'ToBaCCo'
  _symmetry_space_group_name_H-M    'P1'
  _symmetry_Int_Tables_number       1
  _symmetry_cell_setting            triclinic
  loop_
  _symmetry_equiv_pos_as_xyz
 x,y,z
_cell_length_a 20.0771
_cell_length_b 20.0646
_cell_length_c 20.0550
_cell_angle_alpha 89.953500
_cell_angle_beta 90.215200
_cell_angle_gamma 90.029200
loop_
  _atom_site_label
  _atom_site_type_symbol
  _atom_site_fract_x
  _atom_site_fract_y
  _atom_site_fract_z
O1 O -0.17236 0.08940 0.00046
 O2 O 0.17035 0.09056 -0.00176
 O3 O -0.00374 0.17119 0.08938
 O4 O 0.00059 0.17226 -0.09025
 O5 O 0.00241 0.09148 -0.17203
 O6 O -0.00351 0.08981 0.17090
 O7 O 0.08881 0.17166 -0.00182
 O8 O -0.09103 0.17087 0.00202
 Zr9 Zr -0.00106 0.11711 -0.00055
 O10 O 0.05994 0.06119 -0.06091
 O11 O -0.06159 0.05987 0.05933
 C12 C -0.15237 0.15086 0.00240
 C13 C 0.15028 0.15193 -0.00253
 C14 C -0.00465 0.15130 0.15084
 C15 C 0.00234 0.15299 -0.15194
 H16 H 0.08721 0.08861 0.08870
 O17 O 0.05892 0.06013 0.06003
 H18 H -0.08932 0.08878 -0.08974
 O19 O -0.06095 0.06019 -0.06124
 O20 O 0.17077 -0.08921 0.00288
 O21 O -0.17198 -0.09119 -0.00404
 O22 O 0.08874 -0.00296 0.17122
 O23 O 0.09015 0.00258 -0.17178
 O24 O -0.08992 -0.00046 -0.17319
 O25 O -0.09152 0.00214 0.17003
 O26 O 0.00198 -0.17184 0.08946
 O27 O -0.00291 -0.17081 -0.09123
 O28 O 0.00055 -0.09078 0.17105
 O29 O -0.00296 -0.08902 -0.17245
 O30 O 0.17022 -0.00135 0.09022
 O31 O -0.17260 0.00053 0.08800
 O32 O -0.17156 -0.00324 -0.09246
 O33 O 0.17103 0.00259 -0.08963
 O34 O 0.08983 -0.17104 0.00194
 O35 O -0.09034 -0.17212 -0.00338
 Zr36 Zr 0.11625 0.00046 -0.00005
 Zr37 Zr -0.11802 -0.00068 -0.00169
 Zr38 Zr -0.00124 -0.00042 0.11665
 Zr39 Zr -0.00023 0.00079 -0.11814
 Zr40 Zr -0.00051 -0.11728 -0.00081
 O41 O -0.06066 -0.06041 -0.06188
 O42 O 0.05959 -0.06042 0.06009
 C43 C 0.15114 -0.15073 0.00365
 C44 C -0.15197 -0.15270 -0.00455
 C45 C 0.15016 -0.00316 0.15151
 C46 C 0.15152 0.00334 -0.15132
 C47 C -0.15145 -0.00256 -0.15386
 C48 C -0.15286 0.00212 0.14961
 C49 C 0.00228 -0.15233 0.15118
 C50 C -0.00416 -0.15049 -0.15261
 H51 H -0.08935 -0.08934 0.08727
 O52 O -0.06101 -0.06067 0.05901
 H53 H 0.08812 -0.08813 -0.08894
 O54 O 0.05958 -0.05974 -0.06066
 O55 O 0.32842 0.58994 0.00157
 O56 O 0.67150 0.59147 -0.00045
 O57 O 0.49726 0.67239 0.09071
 O58 O 0.50184 0.67239 -0.08874
 O59 O 0.50390 0.59125 -0.17036
 O60 O 0.49726 0.59126 0.17231
 O61 O 0.58988 0.67253 -0.00073
 O62 O 0.40953 0.67162 0.00307
 Zr63 Zr 0.49986 0.61790 0.00089
 O64 O 0.56080 0.56147 -0.05918
 O65 O 0.43902 0.56089 0.06049
 C66 C 0.34819 0.65141 0.00349
 C67 C 0.65144 0.65291 -0.00155
 C68 C 0.49635 0.65282 0.15232
 C69 C 0.50386 0.65257 -0.15013
 H70 H 0.58813 0.58971 0.09018
 O71 O 0.55991 0.56113 0.06155
 H72 H 0.41177 0.58927 -0.08873
 O73 O 0.44018 0.56082 -0.06014
 O74 O 0.67127 0.41062 0.00502
 O75 O 0.32888 0.40994 -0.00323
 O76 O 0.58931 0.49827 0.17302
 O77 O 0.59136 0.50311 -0.17006
 O78 O 0.41127 0.49942 -0.17243
 O79 O 0.40876 0.50338 0.17104
 O80 O 0.50264 0.32963 0.09056
 O81 O 0.49899 0.32944 -0.08952
 O82 O 0.50111 0.41074 0.17222
 O83 O 0.49931 0.41083 -0.17101
 O84 O 0.67113 0.49989 0.09243
 O85 O 0.32798 0.50136 0.08869
 O86 O 0.32937 0.49783 -0.09197
 O87 O 0.67224 0.50322 -0.08782
 O88 O 0.58973 0.32940 0.00316
 O89 O 0.41055 0.32901 -0.00233
 Zr90 Zr 0.61742 0.50114 0.00181
 Zr91 Zr 0.38285 0.50021 -0.00083
 Zr92 Zr 0.49940 0.50091 0.11803
 Zr93 Zr 0.50086 0.50094 -0.11675
 Zr94 Zr 0.50023 0.38380 0.00048
 O95 O 0.44001 0.44007 -0.06089
 O96 O 0.56025 0.44058 0.06170
 C97 C 0.65110 0.34915 0.00509
 C98 C 0.34905 0.34858 -0.00372
 C99 C 0.65095 0.49815 0.15377
 C100 C 0.65270 0.50401 -0.14953
 C101 C 0.34956 0.49782 -0.15342
 C102 C 0.34745 0.50311 0.15039
 C103 C 0.50289 0.34939 0.15207
 C104 C 0.49850 0.34934 -0.15103
 H105 H 0.41130 0.41188 0.08835
 O106 O 0.43976 0.44053 0.06019
 H107 H 0.58940 0.41258 -0.08714
 O108 O 0.56076 0.44098 -0.05899
 O109 O -0.17181 0.59070 0.50180
 O110 O 0.17099 0.59011 0.49825
 O111 O -0.00308 0.67108 0.59030
 O112 O 0.00139 0.67247 0.41017
 O113 O 0.00236 0.59150 0.32843
 O114 O -0.00268 0.58941 0.67158
 O115 O 0.08964 0.67146 0.49859
 O116 O -0.09028 0.67182 0.50270
 Zr117 Zr -0.00042 0.61740 0.50008
 O118 O 0.06005 0.56097 0.43962
 O119 O -0.06054 0.56029 0.56046
 C120 C -0.15186 0.65225 0.50332
 C121 C 0.15100 0.65147 0.49761
 C122 C -0.00415 0.65085 0.65166
 C123 C 0.00282 0.65301 0.34850
 H124 H 0.08820 0.58854 0.58906
 O125 O 0.05983 0.56014 0.56040
 H126 H -0.08911 0.58943 0.41123
 O127 O -0.06071 0.56074 0.43960
 O128 O 0.17102 0.41005 0.50198
 O129 O -0.17161 0.41007 0.49731
 O130 O 0.09053 0.49731 0.67174
 O131 O 0.08933 0.50213 0.32832
 O132 O -0.09077 0.49979 0.32799
 O133 O -0.08984 0.50159 0.67148
 O134 O 0.00227 0.32832 0.58983
 O135 O -0.00261 0.32917 0.40974
 O136 O 0.00159 0.40925 0.67159
 O137 O -0.00342 0.41063 0.32827
 O138 O 0.17164 0.49863 0.59040
 O139 O -0.17140 0.50199 0.58990
 O140 O -0.17192 0.49792 0.40932
 O141 O 0.17072 0.50312 0.41005
 O142 O 0.08966 0.32866 0.50124
 O143 O -0.09008 0.32887 0.49718
 Zr144 Zr 0.11686 0.50022 0.50022
 Zr145 Zr -0.11759 0.50032 0.49965
 Zr146 Zr 0.00005 0.49956 0.61734
 Zr147 Zr -0.00059 0.50086 0.38244
 Zr148 Zr -0.00021 0.38312 0.49978
 O149 O -0.06081 0.44010 0.43917
 O150 O 0.06055 0.43933 0.56066
 C151 C 0.15109 0.34855 0.50229
 C152 C -0.15151 0.34867 0.49628
 C153 C 0.15202 0.49717 0.65194
 C154 C 0.15075 0.50353 0.34847
 C155 C -0.15216 0.49817 0.34782
 C156 C -0.15131 0.50261 0.65145
 C157 C 0.00277 0.34784 0.65149
 C158 C -0.00401 0.34914 0.34830
 H159 H -0.08866 0.41127 0.58818
 O160 O -0.06034 0.43988 0.55985
 H161 H 0.08792 0.41208 0.41122
 O162 O 0.05959 0.44046 0.43969
 O163 O 0.32826 0.08787 0.50093
 O164 O 0.67126 0.09013 0.49830
 O165 O 0.49772 0.17016 0.59117
 O166 O 0.50160 0.17118 0.41119
 O167 O 0.50347 0.09030 0.32928
 O168 O 0.49856 0.08840 0.67223
 O169 O 0.58933 0.17097 0.49884
 O170 O 0.40904 0.16982 0.50257
 Zr171 Zr 0.49970 0.11629 0.50070
 O172 O 0.56061 0.06009 0.44017
 O173 O 0.43945 0.05912 0.56066
 C174 C 0.34768 0.14947 0.50245
 C175 C 0.65083 0.15142 0.49764
 C176 C 0.49744 0.14996 0.65263
 C177 C 0.50350 0.15166 0.34967
 H178 H 0.58866 0.08781 0.58924
 O179 O 0.56038 0.05931 0.56059
 H180 H 0.41172 0.08756 0.41121
 O181 O 0.44022 0.05914 0.43973
 O182 O 0.67239 -0.09073 0.50323
 O183 O 0.32982 -0.09188 0.49706
 O184 O 0.59068 -0.00384 0.67167
 O185 O 0.59057 0.00135 0.32864
 O186 O 0.41109 -0.00223 0.32780
 O187 O 0.41033 0.00046 0.67114
 O188 O 0.50397 -0.17220 0.58950
 O189 O 0.49933 -0.17215 0.40943
 O190 O 0.50241 -0.09112 0.67118
 O191 O 0.49851 -0.09060 0.32812
 O192 O 0.67214 -0.00157 0.59064
 O193 O 0.32911 -0.00007 0.58927
 O194 O 0.32965 -0.00433 0.40882
 O195 O 0.67191 0.00267 0.41038
 O196 O 0.59121 -0.17228 0.50181
 O197 O 0.41163 -0.17276 0.49702
 Zr198 Zr 0.61786 -0.00042 0.50044
 Zr199 Zr 0.38343 -0.00157 0.49939
 Zr200 Zr 0.50048 -0.00119 0.61724
 Zr201 Zr 0.50078 -0.00049 0.38268
 Zr202 Zr 0.50127 -0.11801 0.49953
 O203 O 0.44051 -0.06149 0.43892
 O204 O 0.56132 -0.06124 0.56059
 C205 C 0.65262 -0.15237 0.50356
 C206 C 0.35014 -0.15315 0.49614
 C207 C 0.65215 -0.00356 0.65199
 C208 C 0.65193 0.00301 0.34880
 C209 C 0.34971 -0.00416 0.34745
 C210 C 0.34891 0.00098 0.65089
 C211 C 0.50416 -0.15234 0.65096
 C212 C 0.49799 -0.15218 0.34795
 H213 H 0.41245 -0.09016 0.58792
 O214 O 0.44079 -0.06152 0.55964
 H215 H 0.58976 -0.08895 0.41143
 O216 O 0.56123 -0.06062 0.43976
 C217 C 0.24219 0.28892 -0.05765
 C218 C 0.25439 0.21273 -0.05894
 C219 C 0.20275 0.20435 -0.00320
 C220 C 0.18986 0.27986 -0.00190
 C221 C 0.25726 0.21130 0.05039
 C222 C 0.30962 0.22037 -0.00537
 C223 C 0.29670 0.29593 -0.00414
 C224 C 0.24507 0.28747 0.05164
 H225 H 0.23595 0.32115 -0.10198
 H226 H 0.25759 0.18145 -0.10448
 H227 H 0.14015 0.30401 -0.00051
 H228 H 0.26295 0.17887 0.09484
 H229 H 0.35935 0.19626 -0.00684
 H230 H 0.24184 0.31878 0.09716
 C231 C 0.24320 -0.21210 0.44246
 C232 C 0.25500 -0.28833 0.44093
 C233 C 0.20354 -0.29647 0.49683
 C234 C 0.19103 -0.22094 0.49836
 C235 C 0.25822 -0.29004 0.55026
 C236 C 0.31043 -0.28118 0.49434
 C237 C 0.29789 -0.20560 0.49581
 C238 C 0.24643 -0.21383 0.55175
 H239 H 0.23720 -0.17966 0.39825
 H240 H 0.25778 -0.31957 0.39533
 H241 H 0.14143 -0.19657 0.49999
 H242 H 0.26381 -0.32265 0.59458
 H243 H 0.36005 -0.30550 0.49267
 H244 H 0.24360 -0.18261 0.59734
 C245 C 0.75919 0.71249 0.05019
 C246 C 0.81104 0.72161 -0.00608
 C247 C 0.79821 0.79723 -0.00461
 C248 C 0.74712 0.78873 0.05170
 C249 C 0.74315 0.79038 -0.05763
 C250 C 0.75520 0.71409 -0.05911
 C251 C 0.70407 0.70558 -0.00284
 C252 C 0.69133 0.78119 -0.00132
 H253 H 0.76535 0.67997 0.09457
 H254 H 0.86062 0.69722 -0.00811
 H255 H 0.74426 0.81990 0.09734
 H256 H 0.73652 0.82281 -0.10186
 H257 H 0.75798 0.68290 -0.10473
 H258 H 0.64168 0.80541 0.00064
 C259 C 0.75752 0.21107 0.55008
 C260 C 0.80957 0.22063 0.49414
 C261 C 0.79624 0.29611 0.49577
 C262 C 0.74491 0.28716 0.55171
 C263 C 0.74162 0.28912 0.44238
 C264 C 0.75421 0.21297 0.44072
 C265 C 0.70290 0.20408 0.49666
 C266 C 0.68957 0.27953 0.49833
 H267 H 0.76350 0.17838 0.59435
 H268 H 0.85942 0.19680 0.49238
 H269 H 0.74172 0.31827 0.59736
 H270 H 0.73533 0.32176 0.39824
 H271 H 0.75735 0.18183 0.39508
 H272 H 0.63970 0.30334 0.50004
 C273 C 0.75283 0.28362 0.06241
 C274 C 0.73969 0.20780 0.05600
 C275 C 0.79549 0.20342 0.00397
 C276 C 0.80939 0.27857 0.01040
 C277 C 0.74561 0.21602 -0.05293
 C278 C 0.68909 0.22110 -0.00092
 C279 C 0.70302 0.29627 0.00549
 C280 C 0.75882 0.29177 -0.04654
 H281 H 0.75498 0.31125 0.11018
 H282 H 0.73249 0.17263 0.09814
 H283 H 0.85936 0.30185 0.01511
 H284 H 0.74329 0.18781 -0.10044
 H285 H 0.63910 0.19784 -0.00559
 H286 H 0.76609 0.32691 -0.08870
 C287 C 0.75490 -0.21706 0.56174
 C288 C 0.74237 -0.29310 0.55606
 C289 C 0.79848 -0.29762 0.50431
 C290 C 0.81182 -0.22227 0.51006
 C291 C 0.74872 -0.28588 0.44707
 C292 C 0.69187 -0.28062 0.49878
 C293 C 0.70513 -0.20522 0.50448
 C294 C 0.76132 -0.20992 0.45279
 H295 H 0.75670 -0.18891 0.60923
 H296 H 0.73508 -0.32779 0.59859
 H297 H 0.86150 -0.19836 0.51481
 H298 H 0.74673 -0.31443 0.39974
 H299 H 0.64211 -0.30435 0.49411
 H300 H 0.76861 -0.17522 0.41027
 C301 C 0.28896 0.25681 0.44963
 C302 C 0.21282 0.24469 0.44632
 C303 C 0.20335 0.29583 0.50257
 C304 C 0.27881 0.30863 0.50584
 C305 C 0.20907 0.24071 0.55552
 C306 C 0.21930 0.18886 0.49932
 C307 C 0.29482 0.20172 0.50269
 C308 C 0.28517 0.25284 0.55882
 H309 H 0.32236 0.26284 0.40602
 H310 H 0.18246 0.24197 0.40001
 H311 H 0.30301 0.35832 0.50864
 H312 H 0.17569 0.23472 0.59916
 H313 H 0.19518 0.13913 0.49663
 H314 H 0.31473 0.25565 0.60535
 C315 C 0.28837 0.75761 -0.04906
 C316 C 0.21235 0.74495 -0.05033
 C317 C 0.20381 0.79713 0.00500
 C318 C 0.27927 0.81047 0.00632
 C319 C 0.21109 0.74324 0.05905
 C320 C 0.22024 0.69035 0.00364
 C321 C 0.29569 0.70367 0.00487
 C322 C 0.28728 0.75580 0.06033
 H323 H 0.32072 0.76289 -0.09355
 H324 H 0.18116 0.74104 -0.09590
 H325 H 0.30314 0.86038 0.00748
 H326 H 0.17867 0.73802 0.10350
 H327 H 0.19635 0.64045 0.00250
 H328 H 0.31876 0.75957 0.10582
 C329 C -0.06095 0.28693 0.24452
 C330 C -0.00774 0.27942 0.18932
 C331 C -0.00539 0.20398 0.20309
 C332 C -0.05856 0.21083 0.25755
 C333 C 0.05063 0.21369 0.25460
 C334 C 0.04827 0.28972 0.24155
 C335 C -0.00493 0.29656 0.29601
 C336 C -0.00254 0.22115 0.30977
 H337 H -0.10682 0.31765 0.24098
 H338 H -0.00992 0.30303 0.13927
 H339 H -0.10230 0.17783 0.26402
 H340 H 0.09650 0.18299 0.25819
 H341 H 0.09216 0.32276 0.23545
 H342 H -0.00042 0.19752 0.35980
 C343 C 0.44274 0.25527 0.71344
 C344 C 0.44364 0.24320 0.78970
 C345 C 0.49810 0.29661 0.79672
 C346 C 0.49722 0.30934 0.72111
 C347 C 0.55288 0.24370 0.78881
 C348 C 0.49838 0.18957 0.78104
 C349 C 0.49739 0.20235 0.70537
 C350 C 0.55194 0.25573 0.71251
 H351 H 0.39733 0.25974 0.68241
 H352 H 0.39903 0.23867 0.82195
 H353 H 0.49669 0.35904 0.69675
 H354 H 0.59823 0.23960 0.82041
 H355 H 0.49882 0.13984 0.80534
 H356 H 0.59653 0.26030 0.68022
 C357 C -0.06050 0.75595 0.71132
 C358 C -0.06007 0.74394 0.78768
 C359 C -0.00557 0.79727 0.79500
 C360 C -0.00604 0.81009 0.71939
 C361 C 0.04921 0.74444 0.78744
 C362 C -0.00520 0.69038 0.77950
 C363 C -0.00559 0.70317 0.70391
 C364 C 0.04879 0.75657 0.71127
 H365 H -0.10560 0.75990 0.67933
 H366 H -0.10482 0.73951 0.81976
 H367 H -0.00640 0.85985 0.69514
 H368 H 0.09438 0.74035 0.81917
 H369 H -0.00487 0.64063 0.80377
 H370 H 0.09359 0.76106 0.67926
 C371 C 0.44076 -0.21414 0.24395
 C372 C 0.49376 -0.22154 0.18849
 C373 C 0.49597 -0.29707 0.20197
 C374 C 0.44298 -0.29034 0.25664
 C375 C 0.55221 -0.28772 0.25335
 C376 C 0.54996 -0.21157 0.24064
 C377 C 0.49697 -0.20478 0.29536
 C378 C 0.49921 -0.28030 0.30876
 H379 H 0.39492 -0.18334 0.24063
 H380 H 0.49146 -0.19751 0.13864
 H381 H 0.39915 -0.32320 0.26319
 H382 H 0.59807 -0.31848 0.25674
 H383 H 0.59393 -0.17865 0.23449
 H384 H 0.50145 -0.30417 0.35868
 C385 C 0.06080 0.71766 0.24635
 C386 C 0.00932 0.72221 0.18875
 C387 C 0.00324 0.79765 0.20126
 C388 C 0.05476 0.79378 0.25808
 C389 C -0.05401 0.78609 0.25069
 C390 C -0.04794 0.71004 0.23889
 C391 C 0.00355 0.70600 0.29579
 C392 C -0.00251 0.78148 0.30824
 H393 H 0.10840 0.68979 0.24533
 H394 H 0.01429 0.69789 0.13931
 H395 H 0.09712 0.82865 0.26549
 H396 H -0.10145 0.81440 0.25192
 H397 H -0.09028 0.67517 0.23148
 H398 H -0.00740 0.80561 0.35776
 C399 C 0.51230 -0.27960 0.69106
 C400 C 0.56267 -0.28297 0.74957
 C401 C 0.50463 -0.29512 0.79768
 C402 C 0.45420 -0.29232 0.73995
 C403 C 0.49716 -0.21988 0.80995
 C404 C 0.55523 -0.20707 0.76103
 C405 C 0.50486 -0.20440 0.70329
 C406 C 0.44678 -0.21645 0.75147
 H407 H 0.51864 -0.30365 0.64166
 H408 H 0.61068 -0.30996 0.74992
 H409 H 0.41259 -0.32799 0.73209
 H410 H 0.49088 -0.19584 0.85937
 H411 H 0.59684 -0.17139 0.76885
 H412 H 0.39903 -0.18869 0.75134
 C413 C 0.56147 0.21650 0.24845
 C414 C 0.50992 0.22157 0.19105
 C415 C 0.50391 0.29681 0.20435
 C416 C 0.55548 0.29243 0.26099
 C417 C 0.44669 0.28490 0.25361
 C418 C 0.45266 0.20904 0.24100
 C419 C 0.50422 0.20455 0.29765
 C420 C 0.49823 0.27981 0.31098
 H421 H 0.60897 0.18845 0.24728
 H422 H 0.51480 0.19799 0.14125
 H423 H 0.59778 0.32734 0.26853
 H424 H 0.39939 0.31344 0.25503
 H425 H 0.41034 0.17416 0.23341
 H426 H 0.49340 0.30336 0.36080
 C427 C 0.00974 0.21971 0.69154
 C428 C 0.06066 0.21520 0.74961
 C429 C 0.00295 0.20325 0.79832
 C430 C -0.04801 0.20714 0.74102
 C431 C -0.00353 0.27863 0.81104
 C432 C 0.05418 0.29121 0.76151
 C433 C 0.00329 0.29507 0.70415
 C434 C -0.05442 0.28313 0.75297
 H435 H 0.01533 0.19574 0.64200
 H436 H 0.10839 0.18770 0.74901
 H437 H -0.09017 0.17214 0.73305
 H438 H -0.00905 0.30277 0.86051
 H439 H 0.09632 0.32625 0.76937
 H440 H -0.10191 0.31131 0.75372
 C441 C 0.24000 0.04608 0.29203
 C442 C 0.25140 0.05371 0.21613
 C443 C 0.20270 -0.00414 0.20383
 C444 C 0.19061 -0.01179 0.27907
 C445 C 0.26000 -0.05480 0.20655
 C446 C 0.30942 0.00304 0.21959
 C447 C 0.29730 -0.00463 0.29488
 C448 C 0.24865 -0.06245 0.28248
 H449 H 0.23247 0.08765 0.32773
 H450 H 0.25171 0.10161 0.18851
 H451 H 0.14127 -0.01801 0.30311
 H452 H 0.26748 -0.09637 0.17083
 H453 H 0.35877 0.00918 0.19556
 H454 H 0.24852 -0.11062 0.30933
 C455 C 0.19308 0.48909 0.77989
 C456 C 0.25165 0.43896 0.78359
 C457 C 0.29980 0.49724 0.79613
 C458 C 0.24198 0.54743 0.79301
 C459 C 0.31197 0.50494 0.72076
 C460 C 0.26299 0.44665 0.70759
 C461 C 0.20510 0.49675 0.70453
 C462 C 0.25337 0.55504 0.71703
 H463 H 0.14383 0.48242 0.80399
 H464 H 0.25181 0.39076 0.81039
 H465 H 0.23378 0.58904 0.82852
 H466 H 0.36118 0.51155 0.69656
 H467 H 0.27106 0.40506 0.67203
 H468 H 0.25345 0.60298 0.68950
 C469 C 0.69313 -0.01725 0.77909
 C470 C 0.75491 -0.06348 0.77976
 C471 C 0.79891 -0.00300 0.79609
 C472 C 0.73793 0.04331 0.79608
 C473 C 0.81063 0.01045 0.72153
 C474 C 0.76580 -0.05005 0.70453
 C475 C 0.70474 -0.00389 0.70451
 C476 C 0.74885 0.05662 0.72083
 H477 H 0.64436 -0.02877 0.80233
 H478 H 0.75845 -0.11319 0.80360
 H479 H 0.72690 0.08172 0.83426
 H480 H 0.85933 0.02193 0.69812
 H481 H 0.77711 -0.08810 0.66620
 H482 H 0.74560 0.10607 0.69623
 C483 C -0.26549 0.54480 0.29509
 C484 C -0.25458 0.55770 0.21976
 C485 C -0.29931 0.49757 0.20382
 C486 C -0.31102 0.48466 0.27847
 C487 C -0.23877 0.45073 0.20393
 C488 C -0.19331 0.51084 0.22064
 C489 C -0.20492 0.49788 0.29531
 C490 C -0.24969 0.43782 0.27926
 H491 H -0.27606 0.58344 0.33314
 H492 H -0.25729 0.60712 0.19501
 H493 H -0.35979 0.47375 0.30201
 H494 H -0.22779 0.41240 0.16581
 H495 H -0.14447 0.52166 0.19722
 H496 H -0.24671 0.38825 0.30346
 C497 C 0.22094 0.00072 0.68971
 C498 C 0.21287 -0.05259 0.74493
 C499 C 0.20434 0.00336 0.79654
 C500 C 0.21185 0.05664 0.74199
 C501 C 0.27984 0.00444 0.81010
 C502 C 0.28896 -0.05149 0.75777
 C503 C 0.29640 0.00187 0.70324
 C504 C 0.28796 0.05778 0.75485
 H505 H 0.19699 -0.00079 0.63975
 H506 H 0.18145 -0.09803 0.74139
 H507 H 0.17990 0.10106 0.73547
 H508 H 0.30375 0.00601 0.86007
 H509 H 0.32115 -0.09599 0.76383
 H510 H 0.31936 0.10323 0.75836
 C511 C 0.27771 0.51617 0.30845
 C512 C 0.29394 0.45622 0.26278
 C513 C 0.29472 0.50354 0.20243
 C514 C 0.27905 0.56343 0.24739
 C515 C 0.22007 0.49131 0.18996
 C516 C 0.21866 0.44408 0.25101
 C517 C 0.20306 0.50402 0.29601
 C518 C 0.20377 0.55123 0.23564
 H519 H 0.30108 0.52654 0.35762
 H520 H 0.33160 0.41715 0.27348
 H521 H 0.30357 0.61283 0.24494
 H522 H 0.19674 0.48103 0.14075
 H523 H 0.19347 0.39490 0.25322
 H524 H 0.16602 0.58998 0.22455
 C525 C 0.77863 0.01643 0.30794
 C526 C 0.79493 -0.04391 0.26281
 C527 C 0.79479 0.00271 0.20192
 C528 C 0.77908 0.06299 0.24632
 C529 C 0.72018 -0.01023 0.19019
 C530 C 0.71968 -0.05677 0.25179
 C531 C 0.70402 0.00355 0.29624
 C532 C 0.70381 0.05007 0.23532
 H533 H 0.80227 0.02753 0.35682
 H534 H 0.83298 -0.08255 0.27367
 H535 H 0.80322 0.11253 0.24298
 H536 H 0.69656 -0.02126 0.14129
 H537 H 0.69490 -0.10612 0.25483
 H538 H 0.66567 0.08841 0.22412
 C539 C -0.27899 0.50219 0.69121
 C540 C -0.28655 0.44861 0.74624
 C541 C -0.29465 0.50429 0.79820
 C542 C -0.28766 0.55784 0.74385
 C543 C -0.21907 0.50538 0.81115
 C544 C -0.21037 0.44972 0.75846
 C545 C -0.20346 0.50335 0.70411
 C546 C -0.21146 0.55899 0.75607
 H547 H -0.30335 0.50094 0.64144
 H548 H -0.31794 0.40315 0.74278
 H549 H -0.31971 0.60224 0.73784
 H550 H -0.19477 0.50670 0.86094
 H551 H -0.17810 0.40521 0.76400
 H552 H -0.18007 0.60446 0.75949
   
