data_POSCAR
  _audit_creation_date              2014-09-24
  _audit_creation_method            'ToBaCCo'
  _symmetry_space_group_name_H-M    'P1'
  _symmetry_Int_Tables_number       1
  _symmetry_cell_setting            triclinic
  loop_
  _symmetry_equiv_pos_as_xyz
 x,y,z
_cell_length_a 59.5118
_cell_length_b 59.0419
_cell_length_c 27.0521
_cell_angle_alpha 90.401300
_cell_angle_beta 90.894700
_cell_angle_gamma 90.150400
loop_
  _atom_site_label
  _atom_site_type_symbol
  _atom_site_fract_x
  _atom_site_fract_y
  _atom_site_fract_z
C1 C -0.00622 0.26475 0.02701
 C2 C -0.00754 0.25881 0.07547
 C3 C -0.02884 0.25194 0.09873
 C4 C 0.01278 0.25794 0.10815
 C5 C 0.01580 0.27086 0.00586
 C6 C -0.02593 0.26433 -0.00755
 C7 C -0.04731 0.26650 0.10135
 C8 C -0.06641 0.26021 0.12772
 C9 C -0.06738 0.23923 0.15304
 C10 C -0.04886 0.22439 0.14729
 C11 C -0.02997 0.23076 0.12115
 C12 C 0.01366 0.27100 0.15166
 C13 C 0.03241 0.27000 0.18330
 C14 C 0.05063 0.25590 0.17195
 C15 C 0.04966 0.24272 0.12849
 C16 C 0.03079 0.24353 0.09718
 C17 C 0.02582 0.25616 -0.02811
 C18 C 0.04816 0.25935 -0.04149
 C19 C 0.06079 0.27758 -0.02180
 C20 C 0.05009 0.29320 0.00953
 C21 C 0.02781 0.28982 0.02339
 C22 C -0.04033 0.24543 -0.01113
 C23 C -0.05844 0.24528 -0.04471
 C24 C -0.06197 0.26366 -0.07647
 C25 C -0.04737 0.28234 -0.07362
 C26 C -0.02959 0.28271 -0.03932
 H27 H -0.04664 0.28306 0.08443
 H28 H -0.07948 0.27278 0.13070
 H29 H -0.04884 0.20733 0.16144
 H30 H -0.01604 0.21905 0.11845
 H31 H -0.00017 0.28205 0.16098
 H32 H 0.03277 0.28040 0.21643
 H33 H 0.03014 0.23279 0.06460
 H34 H 0.01677 0.24140 -0.04181
 H35 H 0.05583 0.24683 -0.06524
 H36 H 0.05908 0.30776 0.02436
 H37 H 0.02021 0.30144 0.04933
 H38 H -0.03739 0.23064 0.01142
 H39 H -0.06930 0.23054 -0.04698
 H40 H -0.04980 0.29668 -0.09786
 H41 H -0.01862 0.29737 -0.03766
 H42 H 0.06329 0.23140 0.11932
 C43 C 0.49748 0.75783 0.42091
 C44 C 0.49833 0.75912 0.47118
 C45 C 0.47854 0.75328 0.50124
 C46 C 0.51925 0.76603 0.49748
 C47 C 0.51789 0.76050 0.39047
 C48 C 0.47608 0.75337 0.39368
 C49 C 0.46878 0.76963 0.53196
 C50 C 0.44895 0.76473 0.55694
 C51 C 0.43881 0.74327 0.55220
 C52 C 0.44901 0.72676 0.52241
 C53 C 0.46868 0.73172 0.49716
 C54 C 0.52841 0.78759 0.48990
 C55 C 0.54983 0.79293 0.50826
 C56 C 0.56266 0.77667 0.53392
 C57 C 0.55280 0.75551 0.54393
 C58 C 0.53118 0.75033 0.52620
 C59 C 0.53659 0.74636 0.39751
 C60 C 0.55501 0.74786 0.36628
 C61 C 0.55495 0.76331 0.32696
 C62 C 0.53633 0.77765 0.32046
 C63 C 0.51796 0.77621 0.35183
 C64 C 0.47458 0.73522 0.36005
 C65 C 0.45457 0.73094 0.33400
 C66 C 0.43572 0.74484 0.34093
 C67 C 0.43734 0.76314 0.37435
 C68 C 0.45738 0.76743 0.40030
 H69 H 0.47618 0.78635 0.53549
 H70 H 0.44160 0.77765 0.58020
 H71 H 0.44150 0.71013 0.51789
 H72 H 0.47605 0.71887 0.47374
 H73 H 0.51925 0.79998 0.46825
 H74 H 0.55659 0.80960 0.50111
 H75 H 0.52431 0.73358 0.53226
 H76 H 0.53663 0.73370 0.42625
 H77 H 0.56894 0.73633 0.37174
 H78 H 0.53589 0.78989 0.29084
 H79 H 0.50366 0.78720 0.34568
 H80 H 0.48888 0.72423 0.35438
 H81 H 0.45374 0.71659 0.30890
 H82 H 0.42324 0.77438 0.37977
 H83 H 0.45837 0.78182 0.42530
 H84 H 0.56219 0.74251 0.56317
 C85 C 1.00205 0.75121 -0.07020
 C86 C 0.99659 0.75092 -0.02121
 C87 C 1.01384 0.75461 0.01845
 C88 C 0.97339 0.74517 -0.00536
 C89 C 0.98395 0.75171 -0.10844
 C90 C 1.02585 0.74960 -0.08612
 C91 C 1.01547 0.73948 0.05817
 C92 C 1.03310 0.74139 0.09264
 C93 C 1.04944 0.75837 0.08774
 C94 C 1.04721 0.77418 0.04947
 C95 C 1.02936 0.77253 0.01557
 C96 C 0.96274 0.72548 -0.02335
 C97 C 0.94098 0.72006 -0.00919
 C98 C 0.92965 0.73355 0.02545
 C99 C 0.94069 0.75290 0.04483
 C100 C 0.96230 0.75869 0.02938
 C101 C 0.96807 0.76924 -0.10756
 C102 C 0.94734 0.76659 -0.13173
 C103 C 0.94216 0.74630 -0.15678
 C104 C 0.95891 0.72973 -0.16177
 C105 C 0.97987 0.73260 -0.13836
 C106 C 1.03484 0.76508 -0.11968
 C107 C 1.05806 0.76565 -0.12807
 C108 C 1.07278 0.75107 -0.10201
 C109 C 1.06320 0.73437 -0.07173
 C110 C 1.04009 0.73340 -0.06473
 H111 H 1.00366 0.72561 0.06137
 H112 H 1.03456 0.72895 0.12173
 H113 H 1.05952 0.78756 0.04537
 H114 H 1.02809 0.78474 -0.01403
 H115 H 0.97130 0.71420 -0.04846
 H116 H 0.93307 0.70529 -0.02582
 H117 H 0.97039 0.77370 0.04456
 H118 H 0.97100 0.78412 -0.08468
 H119 H 0.93468 0.77957 -0.12727
 H120 H 0.95529 0.71403 -0.18128
 H121 H 0.99193 0.71890 -0.13935
 H122 H 1.02409 0.77751 -0.13728
 H123 H 1.06448 0.77873 -0.15187
 H124 H 1.07350 0.72178 -0.05342
 H125 H 1.03340 0.72058 -0.04051
 H126 H 0.93282 0.76345 0.07240
 C127 C 0.49531 0.23098 0.52417
 C128 C 0.49378 0.23693 0.57280
 C129 C 0.51391 0.24556 0.59970
 C130 C 0.47214 0.23531 0.59876
 C131 C 0.47499 0.22799 0.49219
 C132 C 0.51769 0.22722 0.50267
 C133 C 0.52782 0.23063 0.62612
 C134 C 0.55014 0.23664 0.63712
 C135 C 0.55869 0.25765 0.62186
 C136 C 0.54399 0.27334 0.59982
 C137 C 0.52178 0.26733 0.58885
 C138 C 0.46035 0.21470 0.59793
 C139 C 0.43794 0.21390 0.61190
 C140 C 0.42694 0.23367 0.62731
 C141 C 0.43931 0.25394 0.63204
 C142 C 0.46184 0.25473 0.61796
 C143 C 0.45828 0.24476 0.49159
 C144 C 0.43806 0.24118 0.46606
 C145 C 0.43438 0.22104 0.43931
 C146 C 0.45155 0.20476 0.43754
 C147 C 0.47172 0.20818 0.46397
 C148 C 0.52854 0.24468 0.47741
 C149 C 0.55167 0.24346 0.46919
 C150 C 0.56411 0.22479 0.48626
 C151 C 0.55279 0.20661 0.50807
 C152 C 0.52974 0.20781 0.51608
 H153 H 0.52207 0.21364 0.63407
 H154 H 0.56115 0.22419 0.65382
 H155 H 0.55008 0.28974 0.58825
 H156 H 0.51128 0.27894 0.56805
 H157 H 0.46817 0.19948 0.58371
 H158 H 0.42897 0.19794 0.60907
 H159 H 0.47069 0.27079 0.61870
 H160 H 0.46073 0.26048 0.51185
 H161 H 0.42528 0.25420 0.46701
 H162 H 0.44909 0.18915 0.41686
 H163 H 0.48444 0.19510 0.46365
 H164 H 0.51946 0.25990 0.46749
 H165 H 0.56007 0.25774 0.45255
 H166 H 0.56196 0.19192 0.52097
 H167 H 0.52158 0.19429 0.53593
 H168 H 0.43123 0.26943 0.64380
 C169 C 0.73923 0.01079 -0.03200
 C170 C 0.74676 0.00819 0.01570
 C171 C 0.75300 -0.01492 0.03307
 C172 C 0.74789 0.02694 0.05269
 C173 C 0.73769 0.03302 -0.05805
 C174 C 0.73317 -0.00993 -0.06092
 C175 C 0.73928 -0.02663 0.06591
 C176 C 0.74176 -0.05006 0.07206
 C177 C 0.75783 -0.06230 0.04469
 C178 C 0.77290 -0.04980 0.01560
 C179 C 0.77064 -0.02643 0.01034
 C180 C 0.73027 0.04262 0.05708
 C181 C 0.73059 0.05879 0.09520
 C182 C 0.74833 0.05932 0.13012
 C183 C 0.76607 0.04386 0.12519
 C184 C 0.76585 0.02787 0.08695
 C185 C 0.75372 0.05027 -0.05018
 C186 C 0.75338 0.06992 -0.07897
 C187 C 0.73761 0.07247 -0.11811
 C188 C 0.72136 0.05524 -0.12511
 C189 C 0.72130 0.03603 -0.09534
 C190 C 0.74754 -0.01822 -0.09724
 C191 C 0.74527 -0.04053 -0.11451
 C192 C 0.72851 -0.05505 -0.09568
 C193 C 0.71278 -0.04552 -0.06293
 C194 C 0.71510 -0.02329 -0.04590
 H195 H 0.72556 -0.01797 0.08383
 H196 H 0.72966 -0.05864 0.09476
 H197 H 0.78645 -0.05799 -0.00374
 H198 H 0.78173 -0.01752 -0.01430
 H199 H 0.71594 0.04194 0.03196
 H200 H 0.71660 0.07037 0.09843
 H201 H 0.77963 0.01599 0.08447
 H202 H 0.76714 0.04824 -0.02314
 H203 H 0.76659 0.08227 -0.07258
 H204 H 0.70821 0.05668 -0.15299
 H205 H 0.70856 0.02322 -0.10224
 H206 H 0.76164 -0.00809 -0.10909
 H207 H 0.75801 -0.04669 -0.13920
 H208 H 0.69866 -0.05516 -0.04970
 H209 H 0.70360 -0.01694 -0.01844
 H210 H 0.78012 0.04410 0.15112
 C211 C 0.23862 0.49907 0.48966
 C212 C 0.23275 0.50195 0.53781
 C213 C 0.22740 0.48179 0.56755
 C214 C 0.23068 0.52456 0.56156
 C215 C 0.23798 0.51776 0.45338
 C216 C 0.24417 0.47609 0.47113
 C217 C 0.20759 0.46973 0.55692
 C218 C 0.20477 0.44786 0.57482
 C219 C 0.22183 0.43763 0.60332
 C220 C 0.24094 0.45046 0.61699
 C221 C 0.24363 0.47250 0.59942
 C222 C 0.21161 0.52983 0.58921
 C223 C 0.20935 0.55123 0.61086
 C224 C 0.22624 0.56768 0.60577
 C225 C 0.24561 0.56219 0.57920
 C226 C 0.24781 0.54081 0.55730
 C227 C 0.25537 0.52025 0.41937
 C228 C 0.25450 0.53744 0.38417
 C229 C 0.23620 0.55240 0.38244
 C230 C 0.21862 0.54964 0.41590
 C231 C 0.21939 0.53234 0.45070
 C232 C 0.26332 0.46504 0.48959
 C233 C 0.26616 0.44189 0.48138
 C234 C 0.25004 0.42950 0.45400
 C235 C 0.23175 0.44096 0.43230
 C236 C 0.22882 0.46415 0.44087
 H237 H 0.19494 0.47676 0.53224
 H238 H 0.18963 0.43861 0.56470
 H239 H 0.25443 0.44301 0.63863
 H240 H 0.25911 0.48159 0.60743
 H241 H 0.19824 0.51753 0.59325
 H242 H 0.19437 0.55493 0.63161
 H243 H 0.26283 0.53697 0.53681
 H244 H 0.26973 0.50902 0.42041
 H245 H 0.26832 0.53933 0.35895
 H246 H 0.20416 0.56073 0.41474
 H247 H 0.20537 0.53023 0.47529
 H248 H 0.27537 0.47411 0.51277
 H249 H 0.28056 0.43349 0.49788
 H250 H 0.21905 0.43173 0.41125
 H251 H 0.21389 0.47246 0.42663
 H252 H 0.25881 0.57460 0.57440
 C253 C 0.28253 1.00087 -0.01340
 C254 C 0.27355 0.99822 0.03242
 C255 C 0.26560 1.01812 0.06127
 C256 C 0.27127 0.97595 0.05715
 C257 C 0.29057 0.98168 -0.04456
 C258 C 0.28332 1.02376 -0.03545
 C259 C 0.28027 1.03581 0.07460
 C260 C 0.27253 1.05445 0.10134
 C261 C 0.25003 1.05552 0.11712
 C262 C 0.23555 1.03733 0.10417
 C263 C 0.24325 1.01896 0.07651
 C264 C 0.27861 0.97394 0.10641
 C265 C 0.27734 0.95327 0.13059
 C266 C 0.26938 0.93377 0.10567
 C267 C 0.26121 0.93602 0.05674
 C268 C 0.26158 0.95704 0.03324
 C269 C 0.28397 0.98066 -0.09450
 C270 C 0.28917 0.96190 -0.12363
 C271 C 0.30064 0.94317 -0.10335
 C272 C 0.30824 0.94474 -0.05376
 C273 C 0.30393 0.96412 -0.02530
 C274 C 0.26338 1.03500 -0.04802
 C275 C 0.26377 1.05790 -0.06039
 C276 C 0.28419 1.07022 -0.05982
 C277 C 0.30429 1.05822 -0.05011
 C278 C 0.30383 1.03520 -0.03856
 H279 H 0.29781 1.03508 0.06472
 H280 H 0.28467 1.06737 0.11171
 H281 H 0.21796 1.03750 0.11360
 H282 H 0.23168 1.00543 0.06656
 H283 H 0.28560 0.98840 0.12618
 H284 H 0.28276 0.95271 0.16890
 H285 H 0.25499 0.95836 -0.00415
 H286 H 0.27387 0.99401 -0.11067
 H287 H 0.28248 0.96153 -0.16106
 H288 H 0.31788 0.93120 -0.03705
 H289 H 0.31025 0.96494 0.01241
 H290 H 0.24738 1.02630 -0.04569
 H291 H 0.24776 1.06612 -0.06649
 H292 H 0.32052 1.06644 -0.05164
 H293 H 0.31940 1.02661 -0.02947
 H294 H 0.25498 0.92155 0.03595
 C295 C 0.76451 0.50379 0.43145
 C296 C 0.76375 0.50924 0.48036
 C297 C 0.76444 0.53326 0.49642
 C298 C 0.76297 0.49123 0.51843
 C299 C 0.76987 0.48037 0.41584
 C300 C 0.75870 0.52082 0.39350
 C301 C 0.78292 0.54674 0.48411
 C302 C 0.78290 0.56992 0.49422
 C303 C 0.76441 0.58009 0.51709
 C304 C 0.74628 0.56635 0.53133
 C305 C 0.74632 0.54306 0.52110
 C306 C 0.78015 0.48925 0.55419
 C307 C 0.78104 0.47028 0.58500
 C308 C 0.76477 0.45300 0.58032
 C309 C 0.74706 0.45560 0.54600
 C310 C 0.74603 0.47464 0.51579
 C311 C 0.75316 0.46632 0.39501
 C312 C 0.75624 0.44282 0.39370
 C313 C 0.77614 0.43316 0.41279
 C314 C 0.79361 0.44755 0.42911
 C315 C 0.79049 0.47094 0.43063
 C316 C 0.73634 0.52796 0.38835
 C317 C 0.73078 0.54565 0.35650
 C318 C 0.74757 0.55680 0.33001
 C319 C 0.76996 0.54952 0.33482
 C320 C 0.77545 0.53141 0.36594
 H321 H 0.79721 0.53933 0.46574
 H322 H 0.79735 0.57992 0.48395
 H323 H 0.73178 0.57372 0.54890
 H324 H 0.73193 0.53284 0.53080
 H325 H 0.79339 0.50185 0.55673
 H326 H 0.79488 0.46869 0.61118
 H327 H 0.73240 0.47607 0.48900
 H328 H 0.73709 0.47333 0.38379
 H329 H 0.74245 0.43217 0.38099
 H330 H 0.80933 0.44066 0.44285
 H331 H 0.80358 0.48159 0.44662
 H332 H 0.72328 0.52006 0.40977
 H333 H 0.71344 0.55105 0.35356
 H334 H 0.78313 0.55783 0.31451
 H335 H 0.79282 0.52620 0.36994
 H336 H 0.73406 0.44280 0.54231
 O337 O 0.21210 0.24605 0.28057
 O338 O 0.27251 0.23589 0.29696
 O339 O 0.23902 0.21255 0.26258
 O340 O 0.24549 0.26936 0.31972
 O341 O 0.24002 0.25437 0.39305
 O342 O 0.23195 0.19848 0.33620
 O343 O 0.26664 0.22124 0.37056
 O344 O 0.20584 0.23239 0.35483
 Cu345 Cu 0.24290 0.24257 0.28267
 Cu346 Cu 0.23552 0.22521 0.37104
 C347 C 0.19858 0.24079 0.31447
 C348 C 0.27988 0.22657 0.33605
 C349 C 0.23416 0.19587 0.28994
 C350 C 0.24402 0.27145 0.36642
 O351 O 0.70059 0.74195 0.11886
 O352 O 0.75857 0.72671 0.08769
 O353 O 0.72526 0.70586 0.12717
 O354 O 0.73432 0.76296 0.07806
 O355 O 0.74345 0.77551 0.15278
 O356 O 0.73923 0.71682 0.19954
 O357 O 0.77053 0.74109 0.15907
 O358 O 0.71182 0.75148 0.19429
 Cu359 Cu 0.72842 0.73330 0.09556
 Cu360 Cu 0.74233 0.74744 0.18392
 C361 C 0.69618 0.74876 0.16228
 C362 C 0.77442 0.73163 0.11781
 C363 C 0.73130 0.70136 0.17124
 C364 C 0.74034 0.77902 0.10686
 O365 O 0.79309 0.22347 0.37525
 O366 O 0.73801 0.22550 0.43196
 O367 O 0.76005 0.19557 0.38059
 O368 O 0.77046 0.25461 0.42095
 O369 O 0.75522 0.26672 0.35119
 O370 O 0.74576 0.20803 0.31016
 O371 O 0.72266 0.23727 0.36206
 O372 O 0.77902 0.23634 0.30492
 Cu373 Cu 0.76676 0.22365 0.40929
 Cu374 Cu 0.74908 0.23840 0.32519
 C375 C 0.79561 0.22916 0.33058
 C376 C 0.72085 0.23151 0.40711
 C377 C 0.75165 0.19173 0.33779
 C378 C 0.76466 0.27078 0.39269
 O379 O 0.24605 0.76807 0.17543
 O380 O 0.23828 0.70664 0.19115
 O381 O 0.21142 0.74122 0.17686
 O382 O 0.27250 0.73389 0.18931
 O383 O 0.27014 0.73830 0.27016
 O384 O 0.20909 0.74678 0.25734
 O385 O 0.23532 0.71196 0.27159
 O386 O 0.24491 0.77277 0.25650
 Cu387 Cu 0.24211 0.73690 0.17501
 Cu388 Cu 0.23940 0.74292 0.27202
 C389 C 0.24754 0.78070 0.21352
 C390 C 0.23575 0.69880 0.23433
 C391 C 0.19982 0.74546 0.21480
 C392 C 0.28181 0.73502 0.23184
 O393 O 0.76543 0.28676 0.66911
 O394 O 0.75945 0.22518 0.69149
 O395 O 0.73394 0.25713 0.65559
 O396 O 0.79227 0.25498 0.69995
 O397 O 0.78161 0.26189 0.77633
 O398 O 0.72241 0.26343 0.73160
 O399 O 0.74927 0.23237 0.76812
 O400 O 0.75459 0.29338 0.74551
 Cu401 Cu 0.76392 0.25516 0.67156
 Cu402 Cu 0.75079 0.26342 0.76293
 C403 C 0.76104 0.30057 0.70394
 C404 C 0.75340 0.21833 0.73379
 C405 C 0.71821 0.26088 0.68558
 C406 C 0.79707 0.25842 0.74525
 O407 O 0.29483 0.74127 0.75996
 O408 O 0.24334 0.75322 0.82581
 O409 O 0.25765 0.72148 0.77006
 O410 O 0.27886 0.77921 0.80170
 O411 O 0.26448 0.79149 0.73122
 O412 O 0.24288 0.73531 0.70108
 O413 O 0.22775 0.76775 0.75882
 O414 O 0.28052 0.75577 0.69132
 Cu415 Cu 0.27030 0.74841 0.79646
 Cu416 Cu 0.25203 0.76417 0.71531
 C417 C 0.29651 0.74591 0.71453
 C418 C 0.22644 0.76169 0.80383
 C419 C 0.24652 0.71880 0.72974
 C420 C 0.27563 0.79510 0.77073
 O421 O 0.24626 0.29219 0.78606
 O422 O 0.26110 0.24205 0.85973
 O423 O 0.27834 0.26253 0.78564
 O424 O 0.22888 0.27226 0.86258
 O425 O 0.20816 0.25161 0.81103
 O426 O 0.25804 0.24065 0.73570
 O427 O 0.23991 0.22086 0.81018
 O428 O 0.22641 0.27054 0.73482
 Cu429 Cu 0.25554 0.26947 0.82883
 Cu430 Cu 0.23094 0.24376 0.76811
 C431 C 0.23417 0.28983 0.74722
 C432 C 0.25341 0.22277 0.84678
 C433 C 0.27674 0.24973 0.74783
 C434 C 0.21000 0.26385 0.84971
 O435 O 0.74430 0.72873 0.69170
 O436 O 0.73787 0.77773 0.77432
 O437 O 0.71444 0.76047 0.70061
 O438 O 0.76879 0.74669 0.76126
 O439 O 0.78616 0.76899 0.70895
 O440 O 0.73245 0.78172 0.64735
 O441 O 0.75505 0.79959 0.72093
 O442 O 0.76232 0.75005 0.63857
 Cu443 Cu 0.73957 0.75137 0.73753
 Cu444 Cu 0.76077 0.77729 0.67376
 C445 C 0.75452 0.73089 0.65119
 C446 C 0.74507 0.79707 0.76177
 C447 C 0.71428 0.77330 0.66300
 C448 C 0.78679 0.75533 0.74491
 C449 C 0.24499 0.11332 0.17269
 C450 C 0.22840 0.10960 0.20638
 C451 C 0.21786 0.08878 0.21148
 C452 C 0.22480 0.07096 0.18080
 C453 C 0.24238 0.07399 0.14609
 C454 C 0.25240 0.09582 0.14224
 O455 O 0.25299 0.13433 0.17407
 C456 C 0.24130 0.14402 0.20980
 C457 C 0.22612 0.12955 0.23099
 C458 C 0.21293 0.13582 0.27075
 C459 C 0.21562 0.15785 0.28967
 C460 C 0.23103 0.17315 0.26819
 C461 C 0.24387 0.16618 0.22729
 H462 H 0.20494 0.08623 0.23862
 H463 H 0.21714 0.05457 0.18642
 H464 H 0.26527 0.09946 0.11561
 H465 H 0.20130 0.12404 0.28719
 H466 H 0.20571 0.16302 0.32103
 H467 H 0.25603 0.17739 0.21078
 C468 C 0.75664 0.63771 0.57647
 C469 C 0.76491 0.65157 0.54031
 C470 C 0.77279 0.64326 0.49565
 C471 C 0.77227 0.61972 0.48812
 C472 C 0.76406 0.60498 0.52512
 C473 C 0.75596 0.61426 0.56979
 O474 O 0.75028 0.64894 0.61648
 C475 C 0.75465 0.67035 0.60538
 C476 C 0.76365 0.67291 0.55926
 C477 C 0.76991 0.69391 0.54080
 C478 C 0.76677 0.71302 0.57118
 C479 C 0.75747 0.71080 0.61894
 C480 C 0.75128 0.68906 0.63599
 H481 H 0.77919 0.65449 0.46767
 H482 H 0.77817 0.61298 0.45334
 H483 H 0.74983 0.60354 0.59898
 H484 H 0.77710 0.69551 0.50447
 H485 H 0.77161 0.72949 0.55753
 H486 H 0.74430 0.68667 0.67230
 C487 C 0.74978 0.87710 0.08066
 C488 C 0.75610 0.86642 0.03785
 C489 C 0.76388 0.87807 -0.00279
 C490 C 0.76500 0.90175 0.00046
 C491 C 0.75797 0.91362 0.04374
 C492 C 0.75025 0.90073 0.08446
 O493 O 0.74350 0.86274 0.11553
 C494 C 0.74574 0.84259 0.09396
 C495 C 0.75314 0.84396 0.04617
 C496 C 0.75610 0.82501 0.01621
 C497 C 0.75141 0.80373 0.03649
 C498 C 0.74429 0.80175 0.08614
 C499 C 0.74144 0.82154 0.11527
 H500 H 0.76870 0.86924 -0.03617
 H501 H 0.77015 0.91068 -0.03227
 H502 H 0.74532 0.90863 0.11880
 H503 H 0.76175 0.82654 -0.02146
 H504 H 0.75372 0.78876 0.01381
 H505 H 0.73585 0.82057 0.15310
 C506 C 0.22754 0.38186 0.67011
 C507 C 0.21908 0.36719 0.63472
 C508 C 0.21113 0.37435 0.58892
 C509 C 0.21189 0.39763 0.57923
 C510 C 0.22044 0.41321 0.61522
 C511 C 0.22838 0.40508 0.66136
 O512 O 0.23451 0.37153 0.71093
 C513 C 0.23033 0.34987 0.70108
 C514 C 0.22084 0.34631 0.65498
 C515 C 0.21509 0.32491 0.63713
 C516 C 0.21931 0.30640 0.66810
 C517 C 0.22926 0.30958 0.71574
 C518 C 0.23481 0.33172 0.73233
 H519 H 0.20482 0.36244 0.56142
 H520 H 0.20634 0.40342 0.54318
 H521 H 0.23495 0.41645 0.68967
 H522 H 0.20768 0.32254 0.60067
 H523 H 0.21505 0.28959 0.65468
 H524 H 0.24240 0.33476 0.76842
 C525 C 0.87651 0.23841 0.21103
 C526 C 0.88020 0.22238 0.24659
 C527 C 0.90047 0.21131 0.25267
 C528 C 0.91785 0.21694 0.22082
 C529 C 0.91505 0.23363 0.18293
 C530 C 0.89360 0.24447 0.17878
 O531 O 0.85584 0.24697 0.21205
 C532 C 0.84646 0.23611 0.24943
 C533 C 0.86080 0.22096 0.27176
 C534 C 0.85494 0.20814 0.31237
 C535 C 0.83337 0.21112 0.33107
 C536 C 0.81807 0.22658 0.30889
 C537 C 0.82467 0.23916 0.26708
 H538 H 0.90300 0.19898 0.28165
 H539 H 0.93381 0.20898 0.22871
 H540 H 0.88964 0.25667 0.15041
 H541 H 0.86662 0.19640 0.32933
 H542 H 0.82857 0.20123 0.36279
 H543 H 0.81342 0.25117 0.24959
 C544 C 0.38028 0.74771 0.60445
 C545 C 0.37889 0.72740 0.62879
 C546 C 0.39622 0.71166 0.62945
 C547 C 0.41582 0.71702 0.60383
 C548 C 0.41783 0.73792 0.57862
 C549 C 0.39972 0.75348 0.57903
 O550 O 0.36206 0.76046 0.60946
 C551 C 0.34893 0.74795 0.63778
 C552 C 0.35853 0.72760 0.65070
 C553 C 0.34833 0.71234 0.68216
 C554 C 0.32754 0.71844 0.70182
 C555 C 0.31726 0.73932 0.68928
 C556 C 0.32793 0.75415 0.65610
 H557 H 0.39476 0.69587 0.64925
 H558 H 0.42959 0.70507 0.60433
 H559 H 0.40072 0.76951 0.56000
 H560 H 0.35634 0.69655 0.69221
 H561 H 0.31951 0.70701 0.72730
 H562 H 0.32066 0.77040 0.64686
 C563 C 0.11000 0.75765 0.12949
 C564 C 0.10781 0.75573 0.17985
 C565 C 0.08700 0.75517 0.20259
 C566 C 0.06771 0.75645 0.17210
 C567 C 0.06964 0.75850 0.12011
 C568 C 0.09114 0.75930 0.09870
 O569 O 0.13113 0.75683 0.11488
 C570 C 0.14258 0.75437 0.15690
 C571 C 0.12917 0.75370 0.19783
 C572 C 0.13783 0.75081 0.24544
 C573 C 0.16123 0.74846 0.25098
 C574 C 0.17534 0.74877 0.20913
 C575 C 0.16576 0.75189 0.16148
 H576 H 0.08565 0.75340 0.24222
 H577 H 0.05130 0.75574 0.18877
 H578 H 0.09309 0.76034 0.05905
 H579 H 0.12696 0.75024 0.27713
 H580 H 0.16828 0.74602 0.28770
 H581 H 0.17600 0.75222 0.12875
 C582 C 0.62015 0.25935 0.66055
 C583 C 0.62950 0.26687 0.61747
 C584 C 0.61676 0.27264 0.57602
 C585 C 0.59339 0.27025 0.57876
 C586 C 0.58323 0.26196 0.62227
 C587 C 0.59688 0.25653 0.66388
 O588 O 0.63537 0.25496 0.69566
 C589 C 0.65473 0.25966 0.67406
 C590 C 0.65200 0.26676 0.62601
 C591 C 0.66995 0.27174 0.59573
 C592 C 0.69165 0.26953 0.61591
 C593 C 0.69502 0.26275 0.66576
 C594 C 0.67622 0.25778 0.69529
 H595 H 0.62456 0.27839 0.54245
 H596 H 0.58327 0.27399 0.54624
 H597 H 0.58963 0.25016 0.69751
 H598 H 0.66735 0.27697 0.55780
 H599 H 0.70583 0.27336 0.59278
 H600 H 0.67828 0.25228 0.73319
 C601 C 0.74714 0.13079 0.83297
 C602 C 0.74063 0.12778 0.78441
 C603 C 0.73268 0.10721 0.76608
 C604 C 0.73140 0.08899 0.79900
 C605 C 0.73846 0.09130 0.84951
 C606 C 0.74660 0.11277 0.86617
 O607 O 0.75327 0.15196 0.84345
 C608 C 0.75073 0.16245 0.80046
 C609 C 0.74328 0.14837 0.76294
 C610 C 0.73970 0.15588 0.71476
 C611 C 0.74379 0.17888 0.70501
 C612 C 0.75082 0.19387 0.74345
 C613 C 0.75442 0.18543 0.79182
 H614 H 0.72755 0.10525 0.72772
 H615 H 0.72579 0.07287 0.78408
 H616 H 0.75151 0.11581 0.90433
 H617 H 0.73389 0.14447 0.68577
 H618 H 0.74087 0.18514 0.66794
 H619 H 0.75987 0.19645 0.82188
 C620 C 0.23018 0.61089 0.32970
 C621 C 0.23567 0.60711 0.28112
 C622 C 0.24136 0.58577 0.26314
 C623 C 0.24139 0.56768 0.29667
 C624 C 0.23568 0.57127 0.34688
 C625 C 0.22991 0.59322 0.36335
 O626 O 0.22640 0.63248 0.34014
 C627 C 0.22954 0.64260 0.29726
 C628 C 0.23514 0.62790 0.25978
 C629 C 0.23991 0.63521 0.21228
 C630 C 0.23924 0.65864 0.20340
 C631 C 0.23404 0.67412 0.24198
 C632 C 0.22879 0.66581 0.28932
 H633 H 0.24587 0.58319 0.22492
 H634 H 0.24578 0.55091 0.28361
 H635 H 0.22595 0.59658 0.40165
 H636 H 0.24445 0.62337 0.18341
 H637 H 0.24343 0.66473 0.16701
 H638 H 0.22491 0.67710 0.31970
 C639 C 0.30096 0.88205 0.86108
 C640 C 0.30227 0.88386 0.81062
 C641 C 0.30466 0.90444 0.78682
 C642 C 0.30510 0.92411 0.81603
 C643 C 0.30323 0.92306 0.86846
 C644 C 0.30197 0.90140 0.89115
 O645 O 0.29652 0.86106 0.87575
 C646 C 0.29494 0.84945 0.83354
 C647 C 0.29842 0.86269 0.79270
 C648 C 0.29577 0.85464 0.74462
 C649 C 0.28895 0.83210 0.73823
 C650 C 0.28489 0.81804 0.77955
 C651 C 0.28839 0.82675 0.82802
 H652 H 0.30542 0.90539 0.74694
 H653 H 0.30695 0.94016 0.79742
 H654 H 0.29967 0.89961 0.93055
 H655 H 0.29822 0.86552 0.71311
 H656 H 0.28641 0.82570 0.70094
 H657 H 0.28492 0.81660 0.86022
 C658 C 0.77025 0.36976 0.39439
 C659 C 0.77949 0.36207 0.43807
 C660 C 0.78832 0.37655 0.47416
 C661 C 0.78753 0.39988 0.46489
 C662 C 0.77790 0.40833 0.42024
 C663 C 0.76918 0.39291 0.38448
 O664 O 0.76279 0.35320 0.36504
 C665 C 0.76740 0.33468 0.39076
 C666 C 0.77758 0.33914 0.43575
 C667 C 0.78374 0.32214 0.46860
 C668 C 0.77934 0.29961 0.45433
 C669 C 0.76895 0.29455 0.40791
 C670 C 0.76288 0.31247 0.37586
 H671 H 0.79538 0.37014 0.50841
 H672 H 0.79389 0.41139 0.49317
 H673 H 0.76183 0.39872 0.34999
 H674 H 0.79167 0.32608 0.50391
 H675 H 0.78408 0.28615 0.47937
 H676 H 0.75493 0.30929 0.34020
 C677 C 0.11738 0.27274 0.91669
 C678 C 0.13146 0.28016 0.95423
 C679 C 0.12359 0.28749 0.99971
 C680 C 0.10029 0.28695 1.00693
 C681 C 0.08530 0.27938 0.96875
 C682 C 0.09416 0.27237 0.92277
 O683 O 0.12826 0.26590 0.87684
 C684 C 0.14968 0.26907 0.88951
 C685 C 0.15256 0.27785 0.93640
 C686 C 0.17364 0.28243 0.95708
 C687 C 0.19250 0.27780 0.92818
 C688 C 0.18999 0.26855 0.87979
 C689 C 0.16817 0.26412 0.86036
 H690 H 0.13501 0.29300 1.02894
 H691 H 0.09405 0.29182 1.04283
 H692 H 0.08337 0.26662 0.89263
 H693 H 0.17550 0.28934 0.99408
 H694 H 0.20905 0.28129 0.94366
 H695 H 0.16563 0.25718 0.82354
 C696 C 0.61315 0.76073 0.27257
 C697 C 0.60797 0.76202 0.22295
 C698 C 0.58607 0.76425 0.20507
 C699 C 0.56879 0.76508 0.23973
 C700 C 0.57362 0.76358 0.29121
 C701 C 0.59623 0.76147 0.30769
 O702 O 0.63498 0.75813 0.28171
 C703 C 0.64374 0.75768 0.23686
 C704 C 0.62791 0.75993 0.19964
 C705 C 0.63330 0.75909 0.14984
 C706 C 0.65591 0.75564 0.13791
 C707 C 0.67261 0.75327 0.17560
 C708 C 0.66635 0.75450 0.22586
 H709 H 0.58239 0.76503 0.16581
 H710 H 0.55160 0.76629 0.22636
 H711 H 0.60051 0.76033 0.34663
 H712 H 0.62052 0.76073 0.12119
 H713 H 0.66038 0.75475 0.09930
 H714 H 0.67860 0.75246 0.25552
 C715 C 0.88265 0.75315 0.79558
 C716 C 0.87292 0.73383 0.81386
 C717 C 0.88515 0.71739 0.83907
 C718 C 0.90826 0.72122 0.84639
 C719 C 0.91857 0.74130 0.82899
 C720 C 0.90553 0.75740 0.80290
 O721 O 0.86807 0.76662 0.77276
 C722 C 0.84872 0.75564 0.77691
 C723 C 0.85069 0.73557 0.80209
 C724 C 0.83234 0.72171 0.81167
 C725 C 0.81115 0.72866 0.79393
 C726 C 0.80879 0.74903 0.76676
 C727 C 0.82792 0.76272 0.75849
 H728 H 0.87714 0.70235 0.85323
 H729 H 0.91798 0.70899 0.86730
 H730 H 0.91293 0.77295 0.78961
 H731 H 0.83428 0.70606 0.83189
 H732 H 0.79672 0.71794 0.80037
 H733 H 0.82668 0.77841 0.73813
 C734 C 0.37210 0.21940 0.41152
 C735 C 0.37203 0.21373 0.36212
 C736 C 0.39162 0.20922 0.33641
 C737 C 0.41214 0.21089 0.36260
 C738 C 0.41266 0.21734 0.41321
 C739 C 0.39228 0.22140 0.43804
 O740 O 0.35174 0.22356 0.42874
 C741 C 0.33851 0.22062 0.38926
 C742 C 0.35011 0.21475 0.34746
 C743 C 0.33972 0.21222 0.30136
 C744 C 0.31648 0.21603 0.29818
 C745 C 0.30412 0.22187 0.34084
 C746 C 0.31529 0.22394 0.38716
 H747 H 0.39114 0.20491 0.29745
 H748 H 0.42765 0.20792 0.34318
 H749 H 0.39220 0.22638 0.47665
 H750 H 0.34923 0.20794 0.26884
 H751 H 0.30808 0.21444 0.26252
 H752 H 0.30634 0.22881 0.42009
 C753 C 0.73818 0.88937 0.84079
 C754 C 0.72917 0.87478 0.87447
 C755 C 0.71923 0.88218 0.91767
 C756 C 0.71874 0.90557 0.92686
 C757 C 0.72818 0.92137 0.89306
 C758 C 0.73800 0.91271 0.84913
 O759 O 0.74634 0.87887 0.80140
 C760 C 0.74244 0.85717 0.81061
 C761 C 0.73206 0.85376 0.85499
 C762 C 0.72619 0.83237 0.87174
 C763 C 0.73094 0.81376 0.84112
 C764 C 0.74137 0.81681 0.79470
 C765 C 0.74737 0.83891 0.77961
 H766 H 0.71238 0.87033 0.94385
 H767 H 0.71202 0.91096 0.96189
 H768 H 0.74473 0.92363 0.82105
 H769 H 0.71806 0.83012 0.90688
 H770 H 0.72623 0.79702 0.85343
 H771 H 0.75524 0.84190 0.74442
 C772 C 0.24825 0.36895 0.40752
 C773 C 0.25228 0.35757 0.45095
 C774 C 0.25601 0.36856 0.49593
 C775 C 0.25561 0.39229 0.49618
 C776 C 0.25129 0.40449 0.45200
 C777 C 0.24751 0.39258 0.40703
 O778 O 0.24509 0.35521 0.36891
 C779 C 0.24712 0.33473 0.38847
 C780 C 0.25143 0.33528 0.43857
 C781 C 0.25369 0.31584 0.46679
 C782 C 0.25134 0.29493 0.44240
 C783 C 0.24696 0.29380 0.39065
 C784 C 0.24497 0.31407 0.36329
 H785 H 0.25900 0.35922 0.52967
 H786 H 0.25817 0.40117 0.53100
 H787 H 0.24419 0.40145 0.37280
 H788 H 0.25697 0.31674 0.50623
 H789 H 0.25297 0.27961 0.46392
 H790 H 0.24142 0.31379 0.32391
 C791 C 0.26720 0.12833 0.90157
 C792 C 0.28349 0.14110 0.92511
 C793 C 0.30085 0.13153 0.95263
 C794 C 0.30128 0.10784 0.95656
 C795 C 0.28432 0.09403 0.93352
 C796 C 0.26710 0.10483 0.90532
 O797 O 0.25264 0.14062 0.87569
 C798 C 0.25984 0.16164 0.88331
 C799 C 0.27858 0.16292 0.91358
 C800 C 0.28904 0.18333 0.92586
 C801 C 0.28003 0.20318 0.90533
 C802 C 0.26104 0.20222 0.87287
 C803 C 0.25069 0.18109 0.86237
 H804 H 0.31357 0.14193 0.97071
 H805 H 0.31433 0.10058 0.97972
 H806 H 0.25429 0.09536 0.88523
 H807 H 0.30380 0.18392 0.94971
 H808 H 0.28828 0.21917 0.91351
 H809 H 0.23628 0.17969 0.83758
 C810 C 0.74535 0.61534 0.27424
 C811 C 0.72836 0.61240 0.23972
 C812 C 0.71732 0.59182 0.23239
 C813 C 0.72395 0.57355 0.26212
 C814 C 0.74151 0.57607 0.29780
 C815 C 0.75247 0.59727 0.30368
 O816 O 0.75336 0.63638 0.27578
 C817 C 0.74119 0.64691 0.24137
 C818 C 0.72574 0.63294 0.21811
 C819 C 0.71151 0.64031 0.18033
 C820 C 0.71341 0.66296 0.16557
 C821 C 0.72912 0.67783 0.18902
 C822 C 0.74310 0.66966 0.22783
 H823 H 0.70394 0.58994 0.20509
 H824 H 0.71547 0.55740 0.25739
 H825 H 0.76572 0.59971 0.33110
 H826 H 0.69954 0.62898 0.16249
 H827 H 0.70259 0.66893 0.13589
 H828 H 0.75543 0.68049 0.24606
 C829 C 0.13077 0.76289 0.85261
 C830 C 0.14310 0.75785 0.89440
 C831 C 0.13343 0.75061 0.93782
 C832 C 0.11003 0.74833 0.93836
 C833 C 0.09646 0.75358 0.89599
 C834 C 0.10727 0.76139 0.85264
 O835 O 0.14354 0.76783 0.81417
 C836 C 0.16436 0.76593 0.83236
 C837 C 0.16490 0.76006 0.88145
 C838 C 0.18474 0.75624 0.90768
 C839 C 0.20491 0.75802 0.88207
 C840 C 0.20501 0.76330 0.83088
 C841 C 0.18435 0.76777 0.80593
 H842 H 0.14358 0.74655 0.97010
 H843 H 0.10257 0.74316 0.97274
 H844 H 0.09791 0.76497 0.81898
 H845 H 0.18466 0.75150 0.94626
 H846 H 0.22045 0.75456 0.90192
 H847 H 0.18377 0.77146 0.76679
 C848 C 0.62421 0.23202 0.44554
 C849 C 0.63550 0.22654 0.48855
 C850 C 0.62463 0.22003 0.53125
 C851 C 0.60110 0.21928 0.52969
 C852 C 0.58896 0.22515 0.48602
 C853 C 0.60075 0.23172 0.44338
 O854 O 0.63786 0.23665 0.40851
 C855 C 0.65818 0.23406 0.42868
 C856 C 0.65760 0.22806 0.47769
 C857 C 0.67683 0.22400 0.50587
 C858 C 0.69756 0.22577 0.48238
 C859 C 0.69874 0.23138 0.43142
 C860 C 0.67867 0.23590 0.40443
 H861 H 0.63391 0.21569 0.56457
 H862 H 0.59229 0.21459 0.56285
 H863 H 0.59194 0.23604 0.40943
 H864 H 0.67590 0.21935 0.54442
 H865 H 0.71266 0.22237 0.50387
 H866 H 0.67893 0.24011 0.36555
 C867 C 0.88047 0.25907 0.86347
 C868 C 0.88580 0.26235 0.81473
 C869 C 0.90766 0.26617 0.79930
 C870 C 0.92474 0.26665 0.83562
 C871 C 0.91973 0.26305 0.88605
 C872 C 0.89726 0.25908 0.90011
 O873 O 0.85857 0.25643 0.87035
 C874 C 0.84991 0.25800 0.82495
 C875 C 0.86590 0.26146 0.78960
 C876 C 0.86061 0.26354 0.73965
 C877 C 0.83789 0.26209 0.72550
 C878 C 0.82094 0.25890 0.76124
 C879 C 0.82713 0.25680 0.81178
 H880 H 0.91140 0.26887 0.76076
 H881 H 0.94191 0.26964 0.82457
 H882 H 0.89299 0.25652 0.93843
 H883 H 0.87352 0.26624 0.71253
 H884 H 0.83349 0.26385 0.68673
 H885 H 0.81465 0.25433 0.83995
 C886 C 0.37395 0.73904 0.30914
 C887 C 0.37483 0.73321 0.25989
 C888 C 0.39497 0.73063 0.23511
 C889 C 0.41499 0.73428 0.26219
 C890 C 0.41451 0.74043 0.31304
 C891 C 0.39359 0.74271 0.33671
 O892 O 0.35316 0.74115 0.32547
 C893 C 0.34063 0.73662 0.28565
 C894 C 0.35303 0.73165 0.24451
 C895 C 0.34321 0.72704 0.19854
 C896 C 0.31965 0.72777 0.19479
 C897 C 0.30649 0.73303 0.23670
 C898 C 0.31726 0.73731 0.28286
 H899 H 0.39525 0.72623 0.19622
 H900 H 0.43083 0.73277 0.24332
 H901 H 0.39260 0.74722 0.37548
 H902 H 0.35331 0.72331 0.16659
 H903 H 0.31173 0.72449 0.15915
 H904 H 0.30780 0.74160 0.31547
 C905 C 0.25571 0.87334 0.14237
 C906 C 0.27139 0.87008 0.17943
 C907 C 0.28716 0.88637 0.19312
 C908 C 0.28665 0.90699 0.16790
 C909 C 0.27004 0.91133 0.13067
 C910 C 0.25439 0.89400 0.11783
 O911 O 0.24296 0.85524 0.13352
 C912 C 0.25072 0.84029 0.16596
 C913 C 0.26791 0.84869 0.19539
 C914 C 0.27829 0.83612 0.23247
 C915 C 0.27075 0.81387 0.23919
 C916 C 0.25360 0.80460 0.20818
 C917 C 0.24339 0.81798 0.17107
 H918 H 0.29971 0.88316 0.22159
 H919 H 0.29949 0.91935 0.17721
 H920 H 0.24137 0.89642 0.09007
 H921 H 0.29172 0.84315 0.25526
 H922 H 0.27872 0.80359 0.26744
 H923 H 0.23023 0.81121 0.14710
 C924 C 0.76415 0.39136 0.61783
 C925 C 0.76846 0.39332 0.66776
 C926 C 0.77207 0.41410 0.69120
 C927 C 0.77115 0.43368 0.66201
 C928 C 0.76635 0.43217 0.61054
 C929 C 0.76280 0.41062 0.58830
 O930 O 0.76120 0.37007 0.60282
 C931 C 0.76358 0.35831 0.64427
 C932 C 0.76789 0.37177 0.68508
 C933 C 0.77016 0.36307 0.73251
 C934 C 0.76783 0.33957 0.73815
 C935 C 0.76362 0.32524 0.69663
 C936 C 0.76163 0.33482 0.64889
 H937 H 0.77542 0.41521 0.73058
 H938 H 0.77372 0.45003 0.67961
 H939 H 0.75910 0.40890 0.54916
 H940 H 0.77337 0.37401 0.76413
 H941 H 0.76945 0.33252 0.77487
 H942 H 0.75817 0.32438 0.61658
 C943 C 0.74340 0.11324 0.20563
 C944 C 0.74946 0.10555 0.25183
 C945 C 0.75494 0.08306 0.26085
 C946 C 0.75425 0.06793 0.22058
 C947 C 0.74817 0.07545 0.17242
 C948 C 0.74246 0.09846 0.16512
 O949 O 0.73981 0.13541 0.20454
 C950 C 0.74372 0.14185 0.25102
 C951 C 0.74963 0.12424 0.28151
 C952 C 0.75534 0.12739 0.33116
 C953 C 0.75525 0.14964 0.34997
 C954 C 0.74954 0.16817 0.31906
 C955 C 0.74338 0.16404 0.26897
 H956 H 0.75981 0.07741 0.29743
 H957 H 0.75843 0.05034 0.22689
 H958 H 0.73810 0.10480 0.12876
 H959 H 0.76014 0.11329 0.35435
 H960 H 0.76011 0.15244 0.38826
 H961 H 0.73924 0.17775 0.24410
 C962 C 0.23776 0.62421 0.66821
 C963 C 0.21739 0.63469 0.66090
 C964 C 0.19927 0.62419 0.63706
 C965 C 0.20227 0.60195 0.61990
 C966 C 0.22320 0.59078 0.62639
 C967 C 0.24117 0.60213 0.65113
 O968 O 0.25301 0.63749 0.69024
 C969 C 0.24203 0.65683 0.69671
 C970 C 0.22020 0.65598 0.67918
 C971 C 0.20607 0.67468 0.67919
 C972 C 0.21489 0.69519 0.69732
 C973 C 0.23731 0.69653 0.71563
 C974 C 0.25100 0.67699 0.71608
 H975 H 0.18348 0.63291 0.63127
 H976 H 0.18849 0.59366 0.60037
 H977 H 0.25733 0.59407 0.65657
 H978 H 0.18907 0.67367 0.66449
 H979 H 0.20439 0.71015 0.69658
 H980 H 0.26835 0.67778 0.72865
 C981 C 0.86917 0.73770 0.06733
 C982 C 0.86299 0.71525 0.06641
 C983 C 0.87777 0.69801 0.05430
 C984 C 0.89979 0.70415 0.04221
 C985 C 0.90653 0.72730 0.04117
 C986 C 0.89082 0.74426 0.05437
 O987 O 0.85260 0.75142 0.08034
 C988 C 0.83557 0.73731 0.08751
 C989 C 0.84099 0.71499 0.07896
 C990 C 0.82540 0.69747 0.08216
 C991 C 0.80333 0.70322 0.09471
 C992 C 0.79755 0.72603 0.10478
 C993 C 0.81389 0.74331 0.10139
 H994 H 0.87258 0.68042 0.05443
 H995 H 0.91153 0.69074 0.03399
 H996 H 0.89504 0.76208 0.05354
 H997 H 0.83000 0.68008 0.07467
 H998 H 0.79077 0.68997 0.09713
 H999 H 0.80969 0.76088 0.10822
 C1000 C 0.36956 0.24421 0.68092
 C1001 C 0.35617 0.23246 0.64762
 C1002 C 0.36476 0.22091 0.60722
 C1003 C 0.38811 0.22143 0.60098
 C1004 C 0.40234 0.23335 0.63497
 C1005 C 0.39282 0.24501 0.67537
 O1006 O 0.35808 0.25374 0.71716
 C1007 C 0.33700 0.24787 0.70650
 C1008 C 0.33491 0.23486 0.66432
 C1009 C 0.31435 0.22655 0.64693
 C1010 C 0.29518 0.23176 0.67436
 C1011 C 0.29690 0.24506 0.71822
 C1012 C 0.31820 0.25331 0.73418
 H1013 H 0.35390 0.21181 0.58144
 H1014 H 0.39508 0.21275 0.56937
 H1015 H 0.40321 0.25412 0.70208
 H1016 H 0.31314 0.21628 0.61371
 H1017 H 0.27906 0.22528 0.66157
 H1018 H 0.32018 0.26337 0.76759
 C1019 C 0.11059 0.25275 0.21932
 C1020 C 0.10729 0.25077 0.26933
 C1021 C 0.08601 0.25076 0.28991
 C1022 C 0.06742 0.25278 0.25760
 C1023 C 0.07041 0.25457 0.20577
 C1024 C 0.09238 0.25463 0.18656
 O1025 O 0.13208 0.25217 0.20715
 C1026 C 0.14259 0.24968 0.25036
 C1027 C 0.12824 0.24865 0.28963
 C1028 C 0.13578 0.24538 0.33802
 C1029 C 0.15905 0.24298 0.34614
 C1030 C 0.17419 0.24406 0.30616
 C1031 C 0.16571 0.24761 0.25764
 H1032 H 0.08380 0.24910 0.32935
 H1033 H 0.05070 0.25248 0.27280
 H1034 H 0.09523 0.25612 0.14727
 H1035 H 0.12417 0.24446 0.36834
 H1036 H 0.16524 0.24024 0.38346
 H1037 H 0.17673 0.24824 0.22619
 C1038 C 0.61983 0.77546 0.59813
 C1039 C 0.63230 0.78771 0.56532
 C1040 C 0.62314 0.79711 0.52267
 C1041 C 0.60016 0.79366 0.51323
 C1042 C 0.58672 0.78113 0.54647
 C1043 C 0.59684 0.77202 0.58978
 O1044 O 0.63204 0.76727 0.63543
 C1045 C 0.65267 0.77451 0.62584
 C1046 C 0.65367 0.78714 0.58341
 C1047 C 0.67361 0.79600 0.56573
 C1048 C 0.69338 0.79159 0.59274
 C1049 C 0.69296 0.77839 0.63647
 C1050 C 0.67217 0.76984 0.65331
 H1051 H 0.63342 0.80638 0.49703
 H1052 H 0.59305 0.80022 0.47917
 H1053 H 0.58722 0.76239 0.61601
 H1054 H 0.67396 0.80580 0.53208
 H1055 H 0.70906 0.79825 0.57910
 H1056 H 0.67122 0.75963 0.68630
   
