data_POSCAR
  _audit_creation_date              2014-09-24
  _audit_creation_method            'ToBaCCo'
  _symmetry_space_group_name_H-M    'P1'
  _symmetry_Int_Tables_number       1
  _symmetry_cell_setting            triclinic
  loop_
  _symmetry_equiv_pos_as_xyz
 x,y,z
_cell_length_a 48.9135
_cell_length_b 48.4022
_cell_length_c 49.0277
_cell_angle_alpha 88.074900
_cell_angle_beta 91.682800
_cell_angle_gamma 80.275700
loop_
  _atom_site_label
  _atom_site_type_symbol
  _atom_site_fract_x
  _atom_site_fract_y
  _atom_site_fract_z
N1 N 0.31961 0.21033 0.19723
 N2 N 0.31043 0.23621 0.18826
 C3 C 0.32578 0.24241 0.16726
 C4 C 0.34550 0.21899 0.16276
 C5 C 0.34081 0.19901 0.18210
 H6 H 0.32272 0.26236 0.15603
 H7 H 0.35242 0.17803 0.18553
 Cu8 Cu 0.27899 0.25883 0.20480
 Cu9 Cu 0.30388 0.19340 0.22822
 Cu10 Cu 0.26174 0.24010 0.26754
 N11 N 0.24521 0.27740 0.22094
 N12 N 0.23878 0.27029 0.24575
 C13 C 0.21552 0.28728 0.25262
 C14 C 0.20666 0.30598 0.23082
 C15 C 0.22607 0.29899 0.21104
 H16 H 0.20582 0.28597 0.27205
 H17 H 0.22666 0.30929 0.19121
 N18 N 0.27920 0.20229 0.28116
 N19 N 0.29482 0.18445 0.26593
 C20 C 0.30419 0.16075 0.28086
 C21 C 0.29379 0.16365 0.30672
 C22 C 0.27787 0.19023 0.30614
 H23 H 0.31771 0.14276 0.27343
 H24 H 0.26655 0.20024 0.32278
 H25 H 0.26596 0.22041 0.23224
 H26 H 0.29839 0.23145 0.24569
 N27 N 0.66962 -0.21624 0.21941
 N28 N 0.67938 -0.24110 0.21044
 C29 C 0.66327 -0.24633 0.18913
 C30 C 0.64222 -0.22334 0.18425
 C31 C 0.64717 -0.20463 0.20397
 H32 H 0.66695 -0.26537 0.17793
 H33 H 0.63497 -0.18438 0.20750
 Cu34 Cu 0.71225 -0.26439 0.22734
 Cu35 Cu 0.68561 -0.20155 0.25151
 Cu36 Cu 0.74751 -0.23914 0.27836
 N37 N 0.74958 -0.28223 0.23919
 N38 N 0.76294 -0.27275 0.25950
 C39 C 0.78777 -0.28936 0.26385
 C40 C 0.79039 -0.31050 0.24508
 C41 C 0.76557 -0.30507 0.22970
 H42 H 0.80285 -0.28585 0.27932
 H43 H 0.75928 -0.31694 0.21306
 N44 N 0.72846 -0.20454 0.29434
 N45 N 0.70487 -0.19021 0.28404
 C46 C 0.69705 -0.16780 0.29930
 C47 C 0.71671 -0.16789 0.32021
 C48 C 0.73635 -0.19152 0.31637
 H49 H 0.67856 -0.15235 0.29527
 H50 H 0.75492 -0.19883 0.32884
 H51 H 0.72539 -0.22147 0.24372
 H52 H 0.70590 -0.23903 0.26953
 N53 N 0.71367 0.26578 0.76332
 N54 N 0.72479 0.28706 0.77156
 C55 C 0.71407 0.29518 0.79560
 C56 C 0.69536 0.27791 0.80285
 C57 C 0.69568 0.25950 0.78183
 H58 H 0.71971 0.31211 0.80718
 H59 H 0.68345 0.24299 0.77995
 Cu60 Cu 0.75260 0.30168 0.75036
 Cu61 Cu 0.72315 0.24789 0.72922
 Cu62 Cu 0.77418 0.27167 0.69181
 N63 N 0.78174 0.31421 0.72945
 N64 N 0.79006 0.30268 0.70660
 C65 C 0.81033 0.31545 0.69667
 C66 C 0.81521 0.33612 0.71438
 C67 C 0.79651 0.33453 0.73495
 H68 H 0.82087 0.30973 0.67811
 H69 H 0.79368 0.34716 0.75270
 N70 N 0.75540 0.24061 0.68033
 N71 N 0.73541 0.23227 0.69430
 C72 C 0.72623 0.21142 0.68124
 C73 C 0.74126 0.20610 0.65804
 C74 C 0.75969 0.22492 0.65812
 H75 H 0.71023 0.20035 0.68841
 H76 H 0.77489 0.22713 0.64299
 H77 H 0.76337 0.25651 0.72904
 H78 H 0.73618 0.28163 0.70921
 N79 N 0.26548 -0.26673 0.77259
 N80 N 0.25375 -0.28722 0.78257
 C81 C 0.26488 -0.29494 0.80774
 C82 C 0.28442 -0.27818 0.81389
 C83 C 0.28417 -0.26054 0.79106
 H84 H 0.25908 -0.31134 0.82072
 H85 H 0.29706 -0.24472 0.78789
 Cu86 Cu 0.22487 -0.30142 0.76162
 Cu87 Cu 0.25620 -0.24976 0.73624
 Cu88 Cu 0.20632 -0.27574 0.69794
 N89 N 0.19706 -0.31607 0.73955
 N90 N 0.19041 -0.30621 0.71453
 C91 C 0.17094 -0.31960 0.70379
 C92 C 0.16464 -0.33898 0.72315
 C93 C 0.18181 -0.33604 0.74567
 H94 H 0.16166 -0.31492 0.68355
 H95 H 0.18319 -0.34750 0.76509
 N96 N 0.22472 -0.24495 0.68463
 N97 N 0.24404 -0.23531 0.69904
 C98 C 0.25215 -0.21408 0.68467
 C99 C 0.23702 -0.20997 0.66016
 C100 C 0.21985 -0.22992 0.66085
 H101 H 0.26721 -0.20178 0.69188
 H102 H 0.20474 -0.23306 0.64524
 H103 H 0.21608 -0.25782 0.73386
 H104 H 0.24369 -0.28457 0.71994
 N105 N 0.66783 -0.20142 0.79450
 N106 N 0.67915 -0.22532 0.80684
 C107 C 0.66225 -0.23197 0.82631
 C108 C 0.63914 -0.21106 0.82629
 C109 C 0.64344 -0.19196 0.80585
 H110 H 0.66660 -0.25042 0.83980
 H111 H 0.62970 -0.17279 0.79944
 Cu112 Cu 0.71497 -0.24526 0.79636
 Cu113 Cu 0.68525 -0.18468 0.76424
 Cu114 Cu 0.74890 -0.22045 0.74502
 N115 N 0.75104 -0.26473 0.78598
 N116 N 0.76383 -0.25518 0.76544
 C117 C 0.78755 -0.27293 0.76161
 C118 C 0.79003 -0.29497 0.78094
 C119 C 0.76637 -0.28882 0.79616
 H120 H 0.80187 -0.26975 0.74593
 H121 H 0.76029 -0.30127 0.81289
 N122 N 0.73049 -0.18496 0.72690
 N123 N 0.70625 -0.17134 0.73411
 C124 C 0.69901 -0.14836 0.71748
 C125 C 0.71972 -0.14741 0.69894
 C126 C 0.73933 -0.17097 0.70561
 H127 H 0.68003 -0.13343 0.71875
 H128 H 0.75837 -0.17779 0.69529
 H129 H 0.70747 -0.22170 0.75133
 H130 H 0.72554 -0.20180 0.77605
 N131 N 0.30611 0.20530 0.79308
 N132 N 0.29623 0.22941 0.80360
 C133 C 0.31479 0.23567 0.82220
 C134 C 0.33754 0.21428 0.82347
 C135 C 0.33126 0.19532 0.80472
 H136 H 0.31174 0.25418 0.83424
 H137 H 0.34416 0.17589 0.79965
 Cu138 Cu 0.26007 0.25050 0.79245
 Cu139 Cu 0.28598 0.18914 0.76461
 Cu140 Cu 0.21873 0.22218 0.74914
 N141 N 0.22096 0.26596 0.78678
 N142 N 0.20501 0.25507 0.76960
 C143 C 0.17963 0.27098 0.76814
 C144 C 0.17960 0.29302 0.78541
 C145 C 0.20617 0.28908 0.79704
 H146 H 0.16261 0.26709 0.75507
 H147 H 0.21445 0.30270 0.81096
 N148 N 0.23639 0.18868 0.73066
 N149 N 0.26214 0.17622 0.73637
 C150 C 0.26869 0.15495 0.71945
 C151 C 0.24594 0.15391 0.70227
 C152 C 0.22582 0.17559 0.71005
 H153 H 0.28865 0.14138 0.71948
 H154 H 0.20533 0.18197 0.70074
 H155 H 0.26044 0.22541 0.75006
 H156 H 0.24792 0.20596 0.77955
 N157 N 0.27042 -0.24850 0.22858
 N158 N 0.26122 -0.27153 0.22219
 C159 C 0.27470 -0.28241 0.20041
 C160 C 0.29323 -0.26519 0.19258
 C161 C 0.28990 -0.24384 0.21096
 H162 H 0.27103 -0.30122 0.19069
 H163 H 0.30101 -0.22637 0.21166
 Cu164 Cu 0.23223 -0.28493 0.24267
 Cu165 Cu 0.25659 -0.22631 0.25931
 Cu166 Cu 0.20585 -0.25039 0.29682
 N167 N 0.20433 -0.29850 0.26460
 N168 N 0.19448 -0.28504 0.28598
 C169 C 0.17587 -0.29877 0.29765
 C170 C 0.17373 -0.32206 0.28271
 C171 C 0.19207 -0.32123 0.26181
 H172 H 0.16427 -0.29196 0.31536
 H173 H 0.19627 -0.33614 0.24591
 N174 N 0.21992 -0.21578 0.30481
 N175 N 0.23979 -0.20688 0.29111
 C176 C 0.24572 -0.18352 0.30253
 C177 C 0.22851 -0.17736 0.32422
 C178 C 0.21245 -0.19822 0.32499
 H179 H 0.26136 -0.17183 0.29562
 H180 H 0.19707 -0.20088 0.33980
 H181 H 0.24536 -0.25926 0.28151
 H182 H 0.21792 -0.23772 0.25879
 N183 N 0.74759 0.24720 0.20652
 N184 N 0.75746 0.26800 0.19467
 C185 C 0.74097 0.27823 0.17298
 C186 C 0.71964 0.26288 0.17090
 C187 C 0.72454 0.24326 0.19251
 H188 H 0.74451 0.29531 0.15949
 H189 H 0.71206 0.22760 0.19788
 Cu190 Cu 0.79116 0.27954 0.20810
 Cu191 Cu 0.76522 0.22755 0.23957
 Cu192 Cu 0.81958 0.25510 0.26921
 N193 N 0.81784 0.29792 0.22704
 N194 N 0.82894 0.28859 0.25102
 C195 C 0.84685 0.30528 0.25911
 C196 C 0.84697 0.32609 0.23898
 C197 C 0.82820 0.32073 0.21901
 H198 H 0.85924 0.30215 0.27793
 H199 H 0.82234 0.33259 0.20005
 N200 N 0.80678 0.22132 0.28417
 N201 N 0.78595 0.21100 0.27300
 C202 C 0.78194 0.18834 0.28804
 C203 C 0.80121 0.18407 0.30966
 C204 C 0.81666 0.20536 0.30649
 H205 H 0.76627 0.17573 0.28346
 H206 H 0.83353 0.20923 0.31976
 H207 H 0.77947 0.26290 0.25278
 H208 H 0.80495 0.23636 0.23572
 O209 O 0.30063 0.01802 0.47866
 O210 O 0.30543 -0.04310 0.52692
 O211 O 0.30272 -0.03548 0.47388
 O212 O 0.30574 0.01021 0.53174
 O213 O 0.26015 0.01654 0.53392
 O214 O 0.25702 -0.02833 0.47495
 O215 O 0.25970 -0.03656 0.52757
 O216 O 0.25503 0.02522 0.48126
 Cu217 Cu 0.30822 -0.01323 0.50267
 Cu218 Cu 0.25341 -0.00508 0.50458
 C219 C 0.27690 0.03204 0.47176
 C220 C 0.28321 -0.05034 0.53533
 C221 C 0.27942 -0.03967 0.46440
 C222 C 0.28359 0.02106 0.54289
 O223 O 0.75036 0.03821 0.51873
 O224 O 0.74655 -0.02084 0.47365
 O225 O 0.74806 -0.01493 0.52647
 O226 O 0.74634 0.03244 0.46627
 O227 O 0.79209 0.02405 0.46573
 O228 O 0.79376 -0.02415 0.52614
 O229 O 0.79228 -0.02961 0.47337
 O230 O 0.79606 0.02905 0.51807
 Cu231 Cu 0.74327 0.00955 0.49642
 Cu232 Cu 0.79812 -0.00114 0.49582
 C233 C 0.77396 0.04386 0.52588
 C234 C 0.76889 -0.03519 0.46563
 C235 C 0.77107 -0.02771 0.53665
 C236 C 0.76878 0.03649 0.45572
 O237 O 0.50373 0.27036 0.01740
 O238 O 0.55658 0.26374 -0.03478
 O239 O 0.50253 0.27012 -0.03538
 O240 O 0.55777 0.26214 0.01858
 O241 O 0.55926 0.21632 0.01973
 O242 O 0.50470 0.22419 -0.03430
 O243 O 0.55844 0.21787 -0.03375
 O244 O 0.50525 0.22453 0.01847
 Cu245 Cu 0.53013 0.27117 -0.00866
 Cu246 Cu 0.53224 0.21611 -0.00731
 C247 C 0.49517 0.24866 0.02665
 C248 C 0.56637 0.23978 -0.04343
 C249 C 0.49401 0.24842 -0.04389
 C250 C 0.56777 0.23782 0.02857
 O251 O 0.48913 0.72891 0.02782
 O252 O 0.43255 0.73555 -0.02426
 O253 O 0.48661 0.72990 -0.02498
 O254 O 0.43507 0.73674 0.02915
 O255 O 0.43290 0.78263 0.02676
 O256 O 0.48435 0.77583 -0.02662
 O257 O 0.43063 0.78142 -0.02664
 O258 O 0.48681 0.77487 0.02639
 Cu259 Cu 0.46090 0.72820 0.00212
 Cu260 Cu 0.45831 0.78328 -0.00020
 C261 C 0.49781 0.75064 0.03590
 C262 C 0.42216 0.75952 -0.03469
 C263 C 0.49449 0.75178 -0.03483
 C264 C 0.42536 0.76097 0.03737
 O265 O 0.03769 0.47446 0.29475
 O266 O -0.01897 0.53460 0.29496
 O267 O -0.01573 0.47997 0.29831
 O268 O 0.03442 0.52855 0.28935
 O269 O 0.02871 0.52713 0.24465
 O270 O -0.02047 0.47871 0.25353
 O271 O -0.02498 0.53309 0.25029
 O272 O 0.03304 0.47301 0.24996
 Cu273 Cu 0.00979 0.50462 0.29882
 Cu274 Cu 0.00348 0.50291 0.24513
 C275 C 0.04519 0.46342 0.27246
 C276 C -0.03171 0.54418 0.27282
 C277 C -0.02641 0.47078 0.27722
 C278 C 0.04024 0.53595 0.26536
 O279 O 0.01447 0.52360 0.73185
 O280 O -0.04348 0.48332 0.72883
 O281 O -0.03932 0.53658 0.72929
 O282 O 0.01010 0.47068 0.72953
 O283 O 0.01089 0.46807 0.77459
 O284 O -0.03973 0.53402 0.77431
 O285 O -0.04309 0.48113 0.77388
 O286 O 0.01436 0.52093 0.77685
 Cu287 Cu -0.01459 0.50385 0.72537
 Cu288 Cu -0.01436 0.50080 0.77942
 C289 C 0.02432 0.52910 0.75498
 C290 C -0.05308 0.47530 0.75102
 C291 C -0.04806 0.54658 0.75163
 C292 C 0.01895 0.45805 0.75197
 C293 C 0.37679 0.23986 0.13140
 C294 C 0.39833 0.23700 0.11287
 C295 C 0.41053 0.20999 0.10497
 C296 C 0.40104 0.18632 0.11578
 C297 C 0.37981 0.18933 0.13443
 C298 C 0.36750 0.21606 0.14244
 C299 C 0.43209 0.20703 0.08650
 C300 C 0.44176 0.23075 0.07596
 C301 C 0.42969 0.25776 0.08400
 C302 C 0.40801 0.26072 0.10234
 C303 C 0.43951 0.28138 0.07352
 C304 C 0.46097 0.27835 0.05513
 C305 C 0.47302 0.25163 0.04681
 C306 C 0.46331 0.22788 0.05744
 H307 H 0.36770 0.26057 0.13763
 H308 H 0.41012 0.16546 0.10993
 H309 H 0.37290 0.17066 0.14241
 H310 H 0.44139 0.18630 0.08040
 H311 H 0.39874 0.28145 0.10845
 H312 H 0.43053 0.30223 0.07949
 H313 H 0.46800 0.29702 0.04725
 H314 H 0.47240 0.20714 0.05123
 C315 C 0.61567 0.75753 0.14825
 C316 C 0.59351 0.76073 0.12889
 C317 C 0.57603 0.78701 0.12480
 C318 C 0.58078 0.80954 0.14040
 C319 C 0.60251 0.80609 0.16000
 C320 C 0.62038 0.78008 0.16426
 C321 C 0.55397 0.79032 0.10534
 C322 C 0.54884 0.76749 0.09026
 C323 C 0.56605 0.74105 0.09471
 C324 C 0.58840 0.73790 0.11379
 C325 C 0.56053 0.71811 0.08009
 C326 C 0.53818 0.72128 0.06122
 C327 C 0.52112 0.74752 0.05633
 C328 C 0.52664 0.77061 0.07092
 H329 H 0.62870 0.73716 0.15112
 H330 H 0.56757 0.82985 0.13756
 H331 H 0.60533 0.82414 0.17148
 H332 H 0.54066 0.81057 0.10213
 H333 H 0.60165 0.71763 0.11706
 H334 H 0.57345 0.69769 0.08330
 H335 H 0.53445 0.70319 0.05018
 H336 H 0.51351 0.79090 0.06745
 C337 C 0.66782 0.25521 -0.16337
 C338 C 0.65102 0.25636 -0.14059
 C339 C 0.64449 0.28173 -0.12686
 C340 C 0.65534 0.30533 -0.13583
 C341 C 0.67221 0.30396 -0.15843
 C342 C 0.67837 0.27902 -0.17258
 C343 C 0.62705 0.28317 -0.10456
 C344 C 0.61611 0.25952 -0.09578
 C345 C 0.62311 0.23399 -0.10914
 C346 C 0.64051 0.23257 -0.13147
 C347 C 0.61233 0.21036 -0.10013
 C348 C 0.59435 0.21210 -0.07840
 C349 C 0.58674 0.23753 -0.06533
 C350 C 0.59797 0.26112 -0.07401
 H351 H 0.67275 0.23572 -0.17382
 H352 H 0.65061 0.32493 -0.12551
 H353 H 0.67993 0.32264 -0.16515
 H354 H 0.62182 0.30272 -0.09421
 H355 H 0.64566 0.21304 -0.14189
 H356 H 0.61756 0.19059 -0.11008
 H357 H 0.58600 0.19362 -0.07214
 H358 H 0.59240 0.28083 -0.06403
 C359 C 0.31380 0.74442 -0.15383
 C360 C 0.33168 0.74330 -0.13075
 C361 C 0.33839 0.71813 -0.11467
 C362 C 0.32654 0.69475 -0.12161
 C363 C 0.30858 0.69612 -0.14452
 C364 C 0.30232 0.72081 -0.16104
 C365 C 0.35701 0.71665 -0.09212
 C366 C 0.36895 0.74007 -0.08540
 C367 C 0.36170 0.76544 -0.10109
 C368 C 0.34315 0.76689 -0.12367
 C369 C 0.37340 0.78888 -0.09413
 C370 C 0.39255 0.78710 -0.07216
 C371 C 0.40048 0.76182 -0.05680
 C372 C 0.38831 0.73842 -0.06341
 H373 H 0.30880 0.76374 -0.16613
 H374 H 0.33136 0.67532 -0.10946
 H375 H 0.30012 0.67761 -0.14964
 H376 H 0.36241 0.69723 -0.07998
 H377 H 0.33785 0.78627 -0.13589
 H378 H 0.36799 0.80852 -0.10587
 H379 H 0.40159 0.80542 -0.06754
 H380 H 0.39410 0.71883 -0.05165
 C381 C 0.16979 0.33898 0.25340
 C382 C 0.14721 0.36118 0.25225
 C383 C 0.13683 0.37364 0.22670
 C384 C 0.14928 0.36363 0.20275
 C385 C 0.17190 0.34162 0.20409
 C386 C 0.18241 0.32907 0.22939
 C387 C 0.11432 0.39598 0.22556
 C388 C 0.10225 0.40617 0.24968
 C389 C 0.11278 0.39369 0.27520
 C390 C 0.13507 0.37125 0.27631
 C391 C 0.10095 0.40398 0.29928
 C392 C 0.07901 0.42655 0.29822
 C393 C 0.06828 0.43923 0.27303
 C394 C 0.07996 0.42879 0.24876
 H395 H 0.17778 0.32981 0.27310
 H396 H 0.14160 0.37288 0.18298
 H397 H 0.18099 0.33433 0.18523
 H398 H 0.10637 0.40554 0.20595
 H399 H 0.14308 0.36174 0.29592
 H400 H 0.10877 0.39466 0.31900
 H401 H 0.07040 0.43405 0.31723
 H402 H 0.07196 0.43841 0.22921
 C403 C 0.13853 0.62649 0.74307
 C404 C 0.11802 0.60947 0.74069
 C405 C 0.10369 0.60848 0.71540
 C406 C 0.11009 0.62450 0.69294
 C407 C 0.13022 0.64165 0.69550
 C408 C 0.14473 0.64309 0.72060
 C409 C 0.08299 0.59174 0.71301
 C410 C 0.07611 0.57627 0.73575
 C411 C 0.09038 0.57735 0.76110
 C412 C 0.11136 0.59374 0.76336
 C413 C 0.08320 0.56225 0.78390
 C414 C 0.06185 0.54651 0.78175
 C415 C 0.04743 0.54528 0.75669
 C416 C 0.05489 0.56006 0.73365
 H417 H 0.14909 0.62707 0.76269
 H418 H 0.09935 0.62396 0.67337
 H419 H 0.13429 0.65361 0.67752
 H420 H 0.07201 0.59105 0.69356
 H421 H 0.12225 0.59454 0.78285
 H422 H 0.09390 0.56283 0.80349
 H423 H 0.05664 0.53525 0.79980
 H424 H 0.04385 0.55942 0.71425
 C425 C -0.16439 0.66322 0.26157
 C426 C -0.14209 0.64108 0.25929
 C427 C -0.14179 0.62298 0.23727
 C428 C -0.16398 0.62722 0.21803
 C429 C -0.18635 0.64904 0.22064
 C430 C -0.18695 0.66748 0.24240
 C431 C -0.11946 0.60080 0.23499
 C432 C -0.09769 0.59619 0.25482
 C433 C -0.09827 0.61416 0.27705
 C434 C -0.12027 0.63660 0.27899
 C435 C -0.07697 0.60920 0.29723
 C436 C -0.05542 0.58648 0.29565
 C437 C -0.05445 0.56851 0.27364
 C438 C -0.07556 0.57366 0.25307
 H439 H -0.16415 0.67667 0.27873
 H440 H -0.16414 0.61353 0.20101
 H441 H -0.20296 0.65143 0.20527
 H442 H -0.11922 0.58695 0.21802
 H443 H -0.12058 0.65036 0.29603
 H444 H -0.07712 0.62273 0.31441
 H445 H -0.03935 0.58304 0.31167
 H446 H -0.07512 0.55978 0.23613
 C447 C -0.16167 0.37286 0.73334
 C448 C -0.14181 0.39060 0.73179
 C449 C -0.12515 0.39043 0.70875
 C450 C -0.12867 0.37238 0.68764
 C451 C -0.14830 0.35450 0.68944
 C452 C -0.16513 0.35437 0.71233
 C453 C -0.10509 0.40805 0.70735
 C454 C -0.10119 0.42546 0.72900
 C455 C -0.11783 0.42539 0.75212
 C456 C -0.13816 0.40822 0.75324
 C457 C -0.11359 0.44219 0.77403
 C458 C -0.09272 0.45855 0.77336
 C459 C -0.07595 0.45884 0.75060
 C460 C -0.08056 0.44250 0.72824
 H461 H -0.17398 0.37340 0.75133
 H462 H -0.11609 0.37194 0.66979
 H463 H -0.15017 0.34090 0.67269
 H464 H -0.09228 0.40790 0.68965
 H465 H -0.15086 0.40824 0.77102
 H466 H -0.12615 0.44237 0.79188
 H467 H -0.08966 0.47105 0.79076
 H468 H -0.06757 0.44239 0.71069
 C469 C 0.27953 0.14289 0.35047
 C470 C 0.28380 0.12229 0.37173
 C471 C 0.30808 0.10169 0.37275
 C472 C 0.32764 0.10203 0.35249
 C473 C 0.32299 0.12227 0.33114
 C474 C 0.29890 0.14280 0.32985
 C475 C 0.31220 0.08078 0.39369
 C476 C 0.29201 0.07977 0.41325
 C477 C 0.26765 0.10029 0.41215
 C478 C 0.26386 0.12161 0.39162
 C479 C 0.24716 0.09877 0.43126
 C480 C 0.25042 0.07676 0.45087
 C481 C 0.27447 0.05618 0.45207
 C482 C 0.29543 0.05809 0.43346
 H483 H 0.26075 0.15845 0.34954
 H484 H 0.34637 0.08643 0.35295
 H485 H 0.33840 0.12193 0.31570
 H486 H 0.33081 0.06496 0.39440
 H487 H 0.24514 0.13729 0.39077
 H488 H 0.22836 0.11429 0.43071
 H489 H 0.23404 0.07578 0.46507
 H490 H 0.31393 0.04215 0.43406
 C491 C 0.76152 0.17173 0.62384
 C492 C 0.75924 0.14967 0.60645
 C493 C 0.73346 0.14045 0.60292
 C494 C 0.71045 0.15339 0.61685
 C495 C 0.71302 0.17492 0.63451
 C496 C 0.73854 0.18421 0.63826
 C497 C 0.73117 0.11820 0.58584
 C498 C 0.75446 0.10466 0.57262
 C499 C 0.78029 0.11374 0.57631
 C500 C 0.78246 0.13632 0.59299
 C501 C 0.80361 0.09988 0.56345
 C502 C 0.80147 0.07715 0.54720
 C503 C 0.77591 0.06795 0.54327
 C504 C 0.75240 0.08196 0.55599
 H505 H 0.78136 0.17854 0.62681
 H506 H 0.69053 0.14663 0.61438
 H507 H 0.69495 0.18438 0.64518
 H508 H 0.71138 0.11118 0.58316
 H509 H 0.80229 0.14324 0.59580
 H510 H 0.82357 0.10653 0.56606
 H511 H 0.81989 0.06685 0.53756
 H512 H 0.73259 0.07503 0.55321
 C513 C 0.26153 -0.17560 0.63547
 C514 C 0.26178 -0.15402 0.61562
 C515 C 0.23765 -0.14427 0.59912
 C516 C 0.21398 -0.15666 0.60226
 C517 C 0.21403 -0.17831 0.62180
 C518 C 0.23763 -0.18779 0.63876
 C519 C 0.23746 -0.12219 0.57985
 C520 C 0.26116 -0.10983 0.57667
 C521 C 0.28556 -0.11999 0.59261
 C522 C 0.28569 -0.14197 0.61209
 C523 C 0.30934 -0.10783 0.58889
 C524 C 0.30883 -0.08554 0.56985
 C525 C 0.28444 -0.07485 0.55444
 C526 C 0.26074 -0.08730 0.55785
 H527 H 0.27997 -0.18299 0.64821
 H528 H 0.19536 -0.14949 0.58972
 H529 H 0.19529 -0.18716 0.62403
 H530 H 0.21882 -0.11453 0.56743
 H531 H 0.30430 -0.14957 0.62456
 H532 H 0.32828 -0.11543 0.60083
 H533 H 0.32734 -0.07628 0.56759
 H534 H 0.24188 -0.07943 0.54587
 C535 C 0.74150 -0.14480 0.35627
 C536 C 0.74179 -0.12446 0.37600
 C537 C 0.71700 -0.10615 0.38146
 C538 C 0.69236 -0.10857 0.36715
 C539 C 0.69228 -0.12871 0.34740
 C540 C 0.71682 -0.14697 0.34166
 C541 C 0.71730 -0.08554 0.40089
 C542 C 0.74217 -0.08277 0.41472
 C543 C 0.76695 -0.10112 0.40925
 C544 C 0.76658 -0.12193 0.39007
 C545 C 0.79182 -0.09811 0.42282
 C546 C 0.79229 -0.07688 0.44133
 C547 C 0.76785 -0.05836 0.44684
 C548 C 0.74275 -0.06166 0.43362
 H549 H 0.76065 -0.15849 0.35196
 H550 H 0.67314 -0.09477 0.37110
 H551 H 0.67288 -0.13004 0.33676
 H552 H 0.69828 -0.07146 0.40499
 H553 H 0.78563 -0.13592 0.38587
 H554 H 0.81099 -0.11199 0.41890
 H555 H 0.81189 -0.07491 0.45127
 H556 H 0.72378 -0.04745 0.43758
 C557 C 0.60903 0.76626 -0.14242
 C558 C 0.58686 0.76787 -0.12465
 C559 C 0.57084 0.79427 -0.11970
 C560 C 0.57693 0.81849 -0.13299
 C561 C 0.59889 0.81666 -0.15079
 C562 C 0.61531 0.79063 -0.15550
 C563 C 0.54914 0.79608 -0.10144
 C564 C 0.54315 0.77181 -0.08811
 C565 C 0.55879 0.74534 -0.09345
 C566 C 0.58057 0.74353 -0.11167
 C567 C 0.55250 0.72113 -0.08027
 C568 C 0.53123 0.72314 -0.06162
 C569 C 0.51595 0.74941 -0.05572
 C570 C 0.52192 0.77366 -0.06929
 H571 H 0.62125 0.74599 -0.14615
 H572 H 0.56483 0.83888 -0.12948
 H573 H 0.60333 0.83577 -0.16045
 H574 H 0.53703 0.81638 -0.09747
 H575 H 0.59273 0.72324 -0.11557
 H576 H 0.56420 0.70065 -0.08419
 H577 H 0.52709 0.70415 -0.05145
 H578 H 0.51020 0.79405 -0.06507
 C579 C 0.37066 0.23628 -0.14794
 C580 C 0.39432 0.23424 -0.13062
 C581 C 0.41033 0.20761 -0.12384
 C582 C 0.40269 0.18358 -0.13489
 C583 C 0.37922 0.18582 -0.15227
 C584 C 0.36285 0.21210 -0.15876
 C585 C 0.43356 0.20540 -0.10597
 C586 C 0.44102 0.22949 -0.09481
 C587 C 0.42537 0.25618 -0.10199
 C588 C 0.40210 0.25839 -0.11985
 C589 C 0.43310 0.28018 -0.09091
 C590 C 0.45579 0.27775 -0.07247
 C591 C 0.47111 0.25125 -0.06472
 C592 C 0.46373 0.22722 -0.07627
 H593 H 0.35847 0.25672 -0.15310
 H594 H 0.41475 0.16302 -0.12995
 H595 H 0.37361 0.16685 -0.16018
 H596 H 0.44566 0.18494 -0.10057
 H597 H 0.38993 0.27884 -0.12517
 H598 H 0.42140 0.30082 -0.09626
 H599 H 0.46103 0.29658 -0.06388
 H600 H 0.47545 0.20666 -0.07060
 C601 C 0.32274 0.75433 0.15834
 C602 C 0.34065 0.75109 0.13638
 C603 C 0.34848 0.72434 0.12550
 C604 C 0.33803 0.70135 0.13662
 C605 C 0.32001 0.70480 0.15833
 C606 C 0.31226 0.73126 0.16948
 C607 C 0.36661 0.72101 0.10371
 C608 C 0.37687 0.74415 0.09255
 C609 C 0.36873 0.77095 0.10327
 C610 C 0.35076 0.77424 0.12513
 C611 C 0.37878 0.79408 0.09200
 C612 C 0.39689 0.79075 0.07044
 C613 C 0.40543 0.76420 0.05972
 C614 C 0.39521 0.74094 0.07088
 H615 H 0.31669 0.77493 0.16646
 H616 H 0.34379 0.68069 0.12855
 H617 H 0.31246 0.68661 0.16660
 H618 H 0.37272 0.70045 0.09546
 H619 H 0.34466 0.79480 0.13338
 H620 H 0.37271 0.81477 0.09994
 H621 H 0.40441 0.80904 0.06231
 H622 H 0.40156 0.72037 0.06279
 C623 C 0.68376 0.24401 0.14294
 C624 C 0.66303 0.24728 0.12210
 C625 C 0.65501 0.27365 0.10825
 C626 C 0.66793 0.29623 0.11540
 C627 C 0.68881 0.29268 0.13586
 C628 C 0.69696 0.26659 0.14978
 C629 C 0.63442 0.27699 0.08733
 C630 C 0.62197 0.25420 0.07980
 C631 C 0.63013 0.22776 0.09348
 C632 C 0.65048 0.22451 0.11465
 C633 C 0.61789 0.20495 0.08566
 C634 C 0.59777 0.20825 0.06447
 C635 C 0.58935 0.23446 0.05080
 C636 C 0.60157 0.25739 0.05866
 H637 H 0.69007 0.22371 0.15333
 H638 H 0.66203 0.31659 0.10503
 H639 H 0.69844 0.31050 0.14092
 H640 H 0.62826 0.29725 0.07677
 H641 H 0.65670 0.20423 0.12515
 H642 H 0.62392 0.18454 0.09589
 H643 H 0.58866 0.19024 0.05890
 H644 H 0.59534 0.27769 0.04824
 C645 C -0.16800 0.67637 0.76431
 C646 C -0.14735 0.65241 0.76656
 C647 C -0.14664 0.63328 0.78907
 C648 C -0.16677 0.63840 0.80885
 C649 C -0.18763 0.66203 0.80621
 C650 C -0.18863 0.68141 0.78390
 C651 C -0.12609 0.60919 0.79121
 C652 C -0.10667 0.60367 0.77073
 C653 C -0.10767 0.62270 0.74803
 C654 C -0.12775 0.64709 0.74628
 C655 C -0.08884 0.61681 0.72717
 C656 C -0.06944 0.59207 0.72852
 C657 C -0.06815 0.57304 0.75098
 C658 C -0.08662 0.57913 0.77224
 H659 H -0.16817 0.69054 0.74675
 H660 H -0.16656 0.62396 0.82626
 H661 H -0.20275 0.66503 0.82196
 H662 H -0.12553 0.59452 0.80852
 H663 H -0.12842 0.66166 0.72887
 H664 H -0.08935 0.63114 0.70963
 H665 H -0.05531 0.58786 0.71198
 H666 H -0.08593 0.56441 0.78951
 C667 C -0.12403 0.35726 0.26219
 C668 C -0.10794 0.37873 0.26108
 C669 C -0.10366 0.39153 0.23554
 C670 C -0.11561 0.38292 0.21170
 C671 C -0.13163 0.36173 0.21299
 C672 C -0.13601 0.34865 0.23815
 C673 C -0.08738 0.41264 0.23413
 C674 C -0.07520 0.42118 0.25790
 C675 C -0.07959 0.40875 0.28353
 C676 C -0.09599 0.38757 0.28499
 C677 C -0.06725 0.41758 0.30719
 C678 C -0.05034 0.43817 0.30535
 C679 C -0.04554 0.45026 0.27984
 C680 C -0.05836 0.44180 0.25626
 H681 H -0.12741 0.34752 0.28174
 H682 H -0.11247 0.39249 0.19199
 H683 H -0.14024 0.35537 0.19410
 H684 H -0.08402 0.42227 0.21449
 H685 H -0.09928 0.37788 0.30462
 H686 H -0.07041 0.40836 0.32704
 H687 H -0.04070 0.44431 0.32384
 H688 H -0.05496 0.45098 0.23643
 C689 C 0.13715 0.32514 0.76724
 C690 C 0.11660 0.34887 0.76924
 C691 C 0.11546 0.36455 0.79312
 C692 C 0.13503 0.35618 0.81457
 C693 C 0.15580 0.33278 0.81218
 C694 C 0.15706 0.31710 0.78850
 C695 C 0.09511 0.38857 0.79494
 C696 C 0.07636 0.39743 0.77289
 C697 C 0.07776 0.38179 0.74895
 C698 C 0.09762 0.35746 0.74742
 C699 C 0.05956 0.39100 0.72667
 C700 C 0.04042 0.41574 0.72785
 C701 C 0.03879 0.43149 0.75148
 C702 C 0.05660 0.42202 0.77412
 H703 H 0.13814 0.31351 0.74869
 H704 H 0.13451 0.36793 0.83303
 H705 H 0.17082 0.32689 0.82890
 H706 H 0.09422 0.40063 0.81324
 H707 H 0.09865 0.34553 0.72902
 H708 H 0.06039 0.37927 0.70818
 H709 H 0.02679 0.42254 0.71021
 H710 H 0.05561 0.43417 0.79236
 C711 C 0.14650 0.64213 0.26597
 C712 C 0.12784 0.62350 0.27030
 C713 C 0.11795 0.61962 0.29674
 C714 C 0.12685 0.63452 0.31836
 C715 C 0.14511 0.65333 0.31379
 C716 C 0.15506 0.65736 0.28759
 C717 C 0.09911 0.60117 0.30107
 C718 C 0.08973 0.58686 0.27921
 C719 C 0.09951 0.59092 0.25275
 C720 C 0.11863 0.60905 0.24850
 C721 C 0.08983 0.57694 0.23087
 C722 C 0.07054 0.55918 0.23508
 C723 C 0.06069 0.55487 0.26128
 C724 C 0.07052 0.56873 0.28333
 H725 H 0.15376 0.64529 0.24562
 H726 H 0.11951 0.63181 0.33875
 H727 H 0.15158 0.66461 0.33085
 H728 H 0.09155 0.59819 0.32136
 H729 H 0.12610 0.61212 0.22819
 H730 H 0.09709 0.57982 0.21047
 H731 H 0.06341 0.54869 0.21774
 H732 H 0.06301 0.56566 0.30361
 C733 C 0.74536 -0.12440 0.66342
 C734 C 0.74586 -0.10519 0.64139
 C735 C 0.72099 -0.08779 0.63195
 C736 C 0.69617 -0.08964 0.64490
 C737 C 0.69586 -0.10876 0.66682
 C738 C 0.72035 -0.12648 0.67622
 C739 C 0.72129 -0.06893 0.60965
 C740 C 0.74615 -0.06723 0.59664
 C741 C 0.77110 -0.08437 0.60625
 C742 C 0.77081 -0.10326 0.62856
 C743 C 0.79591 -0.08242 0.59324
 C744 C 0.79598 -0.06384 0.57078
 C745 C 0.77124 -0.04693 0.56086
 C746 C 0.74639 -0.04871 0.57405
 H747 H 0.76451 -0.13760 0.67058
 H748 H 0.67692 -0.07643 0.63794
 H749 H 0.67625 -0.10994 0.67607
 H750 H 0.70215 -0.05570 0.60234
 H751 H 0.78993 -0.11653 0.63584
 H752 H 0.81524 -0.09536 0.60036
 H753 H 0.81540 -0.06290 0.56103
 H754 H 0.72715 -0.03571 0.56672
 C755 C 0.25232 -0.14346 0.34946
 C756 C 0.25253 -0.12359 0.36966
 C757 C 0.22806 -0.11424 0.38376
 C758 C 0.20380 -0.12478 0.37731
 C759 C 0.20392 -0.14493 0.35760
 C760 C 0.22817 -0.15463 0.34368
 C761 C 0.22835 -0.09498 0.40445
 C762 C 0.25295 -0.08536 0.41166
 C763 C 0.27743 -0.09467 0.39757
 C764 C 0.27700 -0.11350 0.37648
 C765 C 0.30207 -0.08535 0.40513
 C766 C 0.30261 -0.06734 0.42672
 C767 C 0.27846 -0.05808 0.44101
 C768 C 0.25358 -0.06698 0.43312
 H769 H 0.27121 -0.15100 0.33903
 H770 H 0.18484 -0.11781 0.38785
 H771 H 0.18496 -0.15298 0.35328
 H772 H 0.20959 -0.08794 0.41531
 H773 H 0.29582 -0.12073 0.36578
 H774 H 0.32102 -0.09225 0.39456
 H775 H 0.32203 -0.06071 0.43229
 H776 H 0.23484 -0.06007 0.44402
 C777 C 0.78171 0.14841 0.33783
 C778 C 0.78408 0.12797 0.35913
 C779 C 0.80937 0.12065 0.37444
 C780 C 0.83183 0.13402 0.36818
 C781 C 0.82919 0.15460 0.34712
 C782 C 0.80414 0.16200 0.33175
 C783 C 0.81168 0.10036 0.39591
 C784 C 0.78885 0.08765 0.40254
 C785 C 0.76352 0.09516 0.38727
 C786 C 0.76138 0.11506 0.36555
 C787 C 0.74058 0.08291 0.39421
 C788 C 0.74249 0.06370 0.41632
 C789 C 0.76749 0.05607 0.43172
 C790 C 0.79074 0.06791 0.42450
 H791 H 0.76215 0.15412 0.32642
 H792 H 0.85138 0.12869 0.37968
 H793 H 0.84688 0.16453 0.34275
 H794 H 0.83108 0.09476 0.40767
 H795 H 0.74193 0.12078 0.35389
 H796 H 0.72103 0.08843 0.38273
 H797 H 0.72432 0.05479 0.42139
 H798 H 0.81006 0.06232 0.43637
 C799 C 0.26818 0.12083 0.66794
 C800 C 0.26645 0.10350 0.64581
 C801 C 0.24017 0.09990 0.63515
 C802 C 0.21607 0.11371 0.64685
 C803 C 0.21798 0.13111 0.66875
 C804 C 0.24400 0.13490 0.67949
 C805 C 0.23840 0.08273 0.61289
 C806 C 0.26260 0.06928 0.60103
 C807 C 0.28887 0.07297 0.61168
 C808 C 0.29064 0.08996 0.63403
 C809 C 0.31301 0.05965 0.59972
 C810 C 0.31120 0.04286 0.57737
 C811 C 0.28522 0.03899 0.56656
 C812 C 0.26095 0.05228 0.57859
 H813 H 0.28840 0.12377 0.67573
 H814 H 0.19575 0.11116 0.63899
 H815 H 0.19900 0.14145 0.67738
 H816 H 0.21822 0.07998 0.60472
 H817 H 0.31081 0.09277 0.64216
 H818 H 0.33330 0.06225 0.60762
 H819 H 0.33023 0.03285 0.56857
 H820 H 0.24079 0.04951 0.57046
   
