data_POSCAR
  _audit_creation_date              2014-09-24
  _audit_creation_method            'ToBaCCo'
  _symmetry_space_group_name_H-M    'P1'
  _symmetry_Int_Tables_number       1
  _symmetry_cell_setting            triclinic
  loop_
  _symmetry_equiv_pos_as_xyz
 x,y,z
_cell_length_a 25.2538
_cell_length_b 25.2486
_cell_length_c 25.1310
_cell_angle_alpha 90.011000
_cell_angle_beta 90.032600
_cell_angle_gamma 90.030700
loop_
  _atom_site_label
  _atom_site_type_symbol
  _atom_site_fract_x
  _atom_site_fract_y
  _atom_site_fract_z
O1 O 0.31499 0.38745 0.05100
 O2 O 0.38625 0.31709 -0.05201
 O3 O 0.31332 0.38908 -0.04991
 O4 O 0.38703 0.31546 0.04916
 O5 O 0.32607 0.25375 0.05191
 O6 O 0.25264 0.32732 -0.05419
 O7 O 0.32690 0.25377 -0.05295
 O8 O 0.25204 0.32767 0.05125
 Cu9 Cu 0.35634 0.35824 -0.00051
 Cu10 Cu 0.28300 0.28429 -0.00105
 C11 C 0.27120 0.37087 0.06887
 C12 C 0.37021 0.27310 -0.06998
 C13 C 0.27044 0.37193 -0.06961
 C14 C 0.37013 0.27221 0.06811
 O15 O 0.68484 0.61275 0.05102
 O16 O 0.61372 0.68310 -0.05209
 O17 O 0.68658 0.61104 -0.04987
 O18 O 0.61323 0.68518 0.04908
 O19 O 0.67439 0.74670 0.05179
 O20 O 0.74734 0.67271 -0.05429
 O21 O 0.67314 0.74635 -0.05308
 O22 O 0.74800 0.67231 0.05114
 Cu23 Cu 0.64363 0.64207 -0.00052
 Cu24 Cu 0.71715 0.71583 -0.00118
 C25 C 0.72873 0.62919 0.06881
 C26 C 0.62978 0.72705 -0.07010
 C27 C 0.72946 0.62809 -0.06963
 C28 C 0.63029 0.72841 0.06799
 O29 O 0.61354 0.31736 1.05209
 O30 O 0.68465 0.38761 0.94889
 O31 O 0.61272 0.31545 0.95089
 O32 O 0.68642 0.38939 1.04977
 O33 O 0.74705 0.32765 1.05413
 O34 O 0.67376 0.25388 0.94814
 O35 O 0.74767 0.32797 0.94874
 O36 O 0.67285 0.25407 1.05301
 Cu37 Cu 0.64337 0.35841 1.00046
 Cu38 Cu 0.71675 0.28455 1.00105
 C39 C 0.62960 0.27342 1.07012
 C40 C 0.72847 0.37111 0.93107
 C41 C 0.62969 0.27224 0.93195
 C42 C 0.72928 0.37226 1.06950
 O43 O 0.38666 0.68289 1.05238
 O44 O 0.31517 0.61236 0.94940
 O45 O 0.38721 0.68450 0.95119
 O46 O 0.31373 0.61069 1.05036
 O47 O 0.25304 0.67237 1.05463
 O48 O 0.32617 0.74609 0.94850
 O49 O 0.25219 0.67204 0.94920
 O50 O 0.32728 0.74611 1.05332
 Cu51 Cu 0.35663 0.64165 1.00090
 Cu52 Cu 0.28326 0.71547 1.00149
 C53 C 0.37066 0.72691 1.07030
 C54 C 0.27133 0.62887 0.93156
 C55 C 0.37022 0.72773 0.93228
 C56 C 0.27084 0.62777 1.07004
 O57 O 0.05036 0.31466 0.38693
 O58 O -0.05210 0.38548 0.31584
 O59 O -0.04996 0.31228 0.38791
 O60 O 0.04852 0.38674 0.31464
 O61 O 0.05153 0.32592 0.25251
 O62 O -0.05403 0.25165 0.32581
 O63 O -0.05290 0.32628 0.25210
 O64 O 0.05092 0.25173 0.32685
 Cu65 Cu -0.00093 0.35571 0.35732
 Cu66 Cu -0.00110 0.28250 0.28292
 C67 C 0.06827 0.27091 0.37034
 C68 C -0.06991 0.36954 0.27158
 C69 C -0.06944 0.26935 0.37064
 C70 C 0.06748 0.37001 0.27118
 O71 O 0.05063 0.68472 0.61294
 O72 O -0.05186 0.61405 0.68418
 O73 O -0.04970 0.68678 0.61167
 O74 O 0.04879 0.61269 0.68532
 O75 O 0.05179 0.67360 0.74737
 O76 O -0.05366 0.74752 0.67367
 O77 O -0.05265 0.67341 0.74776
 O78 O 0.05123 0.74770 0.67297
 Cu79 Cu -0.00066 0.64360 0.64256
 Cu80 Cu -0.00078 0.71697 0.71682
 C81 C 0.06853 0.72852 0.62949
 C82 C -0.06973 0.63013 0.72835
 C83 C -0.06912 0.72974 0.62887
 C84 C 0.06774 0.62951 0.72878
 O85 O 1.05176 0.61390 0.31587
 O86 O 0.94947 0.68491 0.38705
 O87 O 0.95113 0.61260 0.31493
 O88 O 1.04982 0.68659 0.38843
 O89 O 1.05393 0.74727 0.32639
 O90 O 0.94831 0.67345 0.25284
 O91 O 0.94904 0.74783 0.32698
 O92 O 1.05270 0.67322 0.25227
 Cu93 Cu 1.00065 0.64356 0.35756
 Cu94 Cu 1.00096 0.71685 0.28324
 C95 C 1.06966 0.62992 0.27169
 C96 C 0.93167 0.72872 0.37046
 C97 C 0.93225 0.62940 0.27146
 C98 C 1.06936 0.72948 0.37118
 O99 O 0.94900 0.31506 0.61251
 O100 O 1.05145 0.38584 0.68407
 O101 O 1.04937 0.31315 0.61144
 O102 O 0.95075 0.38723 0.68489
 O103 O 0.94778 0.32633 0.74693
 O104 O 1.05333 0.25245 0.67345
 O105 O 1.05223 0.32647 0.74763
 O106 O 0.94844 0.25210 0.67255
 Cu107 Cu 1.00027 0.35628 0.64226
 Cu108 Cu 1.00039 0.28293 0.71650
 C109 C 0.93114 0.27123 0.62903
 C110 C 1.06931 0.36976 0.72828
 C111 C 1.06882 0.27023 0.62868
 C112 C 0.93182 0.37042 0.72832
 O113 O 0.31368 -0.05035 0.38656
 O114 O 0.38646 0.05032 0.31478
 O115 O 0.31446 0.05027 0.38742
 O116 O 0.38724 -0.05031 0.31550
 O117 O 0.32741 -0.05210 0.25234
 O118 O 0.25244 0.05202 0.32642
 O119 O 0.32636 0.05246 0.25192
 O120 O 0.25194 -0.05261 0.32530
 Cu121 Cu 0.35635 -0.00002 0.35710
 Cu122 Cu 0.28321 -0.00006 0.28253
 C123 C 0.27039 -0.06903 0.36943
 C124 C 0.37001 0.06894 0.27105
 C125 C 0.27100 0.06861 0.37048
 C126 C 0.37101 -0.06864 0.27157
 O127 O 0.61359 0.05013 0.68534
 O128 O 0.68653 -0.05036 0.61343
 O129 O 0.61280 -0.05057 0.68434
 O130 O 0.68505 0.05029 0.61214
 O131 O 0.74719 0.05217 0.67305
 O132 O 0.67272 -0.05213 0.74742
 O133 O 0.74832 -0.05241 0.67463
 O134 O 0.67381 0.05247 0.74809
 Cu135 Cu 0.64358 -0.00016 0.64280
 Cu136 Cu 0.71684 0.00006 0.71725
 C137 C 0.63011 0.06883 0.72904
 C138 C 0.72988 -0.06889 0.63053
 C139 C 0.62914 -0.06885 0.72823
 C140 C 0.72853 0.06870 0.62901
 O141 O 0.38596 0.94985 0.68576
 O142 O 0.31313 1.05027 0.61375
 O143 O 0.38676 1.05048 0.68473
 O144 O 0.31431 0.94970 0.61279
 O145 O 0.25222 0.94781 0.67366
 O146 O 0.32689 1.05222 0.74778
 O147 O 0.25133 1.05243 0.67488
 O148 O 0.32583 0.94761 0.74853
 Cu149 Cu 0.35595 1.00009 0.64325
 Cu150 Cu 0.28273 1.00001 0.71768
 C151 C 0.36949 0.93119 0.72946
 C152 C 0.26980 1.06886 0.63079
 C153 C 0.37046 1.06886 0.72857
 C154 C 0.27088 0.93125 0.62965
 O155 O 0.61415 0.95125 0.31409
 O156 O 0.68819 1.04974 0.38777
 O157 O 0.61416 1.05199 0.31659
 O158 O 0.68572 0.94943 0.38696
 O159 O 0.74861 0.94919 0.32691
 O160 O 0.67317 1.05296 0.25273
 O161 O 0.74866 1.05417 0.32560
 O162 O 0.67490 0.94841 0.25197
 Cu163 Cu 0.64464 1.00066 0.35733
 Cu164 Cu 0.71769 1.00122 0.28288
 C165 C 0.63091 0.93233 0.27062
 C166 C 0.73100 1.06942 0.37049
 C167 C 0.62997 1.06997 0.27238
 C168 C 0.72953 0.93170 0.37039
 C169 C 0.88342 0.68582 0.52758
 C170 C 0.88332 0.68598 0.47301
 C171 C 0.88512 0.73861 0.45740
 N172 N 0.88559 0.77059 0.50055
 C173 C 0.88546 0.73840 0.54357
 C174 C 0.89281 0.75754 0.40493
 C175 C 0.86612 0.80428 0.38899
 C176 C 0.87300 0.83368 0.34279
 C177 C 0.83429 0.87257 0.34277
 C178 C 0.80490 0.86580 0.38896
 N179 N 0.82471 0.82428 0.41628
 C180 C 0.75836 0.89278 0.40490
 C181 C 0.73958 0.88519 0.45744
 C182 C 0.68703 0.88394 0.47330
 C183 C 0.68718 0.88354 0.52785
 C184 C 0.73982 0.88462 0.54354
 N185 N 0.77181 0.88473 0.50043
 C186 C 0.75882 0.89226 0.59600
 C187 C 0.80574 0.86570 0.61176
 C188 C 0.83591 0.87349 0.65728
 C189 C 0.87491 0.83486 0.65732
 C190 C 0.86742 0.80440 0.61182
 N191 N 0.82539 0.82381 0.58486
 C192 C 0.89408 0.75730 0.59610
 H193 H 0.88195 0.65091 0.55252
 H194 H 0.88161 0.65123 0.44786
 H195 H 0.80755 0.80602 0.55193
 H196 H 0.90188 0.82819 0.31164
 H197 H 0.82889 0.90150 0.31163
 H198 H 0.65210 0.88271 0.44837
 H199 H 0.65239 0.88209 0.55293
 H200 H 0.90455 0.83047 0.68796
 H201 H 0.80741 0.80697 0.44971
 H202 H 0.83103 0.90316 0.68781
 C203 C 0.11655 0.31390 0.47289
 C204 C 0.11635 0.31411 0.52747
 C205 C 0.11437 0.26155 0.54348
 N206 N 0.11438 0.22931 0.50049
 C207 C 0.11487 0.26125 0.45732
 C208 C 0.10569 0.24268 0.59599
 C209 C 0.13234 0.19559 0.61176
 C210 C 0.12473 0.16508 0.65719
 C211 C 0.16372 0.12645 0.65722
 C212 C 0.19401 0.13429 0.61182
 N213 N 0.17443 0.17620 0.58492
 C214 C 0.24097 0.10774 0.59620
 C215 C 0.26012 0.11543 0.54381
 C216 C 0.31281 0.11641 0.52832
 C217 C 0.31312 0.11596 0.47377
 C218 C 0.26061 0.11481 0.45771
 N219 N 0.22826 0.11536 0.50057
 C220 C 0.24198 0.10729 0.40509
 C221 C 0.19538 0.13417 0.38908
 C222 C 0.16590 0.12720 0.34293
 C223 C 0.12711 0.16601 0.34288
 C224 C 0.13402 0.19554 0.38900
 N225 N 0.17551 0.17571 0.41632
 C226 C 0.10722 0.24223 0.40486
 H227 H 0.11823 0.34862 0.44772
 H228 H 0.11770 0.34906 0.55238
 H229 H 0.19282 0.19313 0.44972
 H230 H 0.09500 0.16943 0.68771
 H231 H 0.16852 0.09673 0.68771
 H232 H 0.34753 0.11781 0.55353
 H233 H 0.34811 0.11708 0.44897
 H234 H 0.09813 0.17132 0.31177
 H235 H 0.19235 0.19403 0.55208
 H236 H 0.17121 0.09813 0.31191
 C237 C 0.11681 0.68547 0.47237
 C238 C 0.11682 0.68563 0.52695
 C239 C 0.11516 0.73826 0.54256
 N240 N 0.11485 0.77024 0.49942
 C241 C 0.11493 0.73806 0.45640
 C242 C 0.10746 0.75725 0.59500
 C243 C 0.13415 0.80402 0.61087
 C244 C 0.12705 0.83366 0.65688
 C245 C 0.16579 0.87255 0.65688
 C246 C 0.19542 0.86553 0.61089
 N247 N 0.17569 0.82387 0.58367
 C248 C 0.24203 0.89245 0.59501
 C249 C 0.26082 0.88490 0.54248
 C250 C 0.31338 0.88389 0.52662
 C251 C 0.31323 0.88352 0.47207
 C252 C 0.26059 0.88439 0.45638
 N253 N 0.22860 0.88433 0.49949
 C254 C 0.24155 0.89203 0.40394
 C255 C 0.19462 0.86542 0.38821
 C256 C 0.16434 0.87328 0.34278
 C257 C 0.12533 0.83462 0.34276
 C258 C 0.13294 0.80408 0.38818
 N259 N 0.17504 0.82347 0.41507
 C260 C 0.10628 0.75698 0.40390
 H261 H 0.11817 0.65056 0.44743
 H262 H 0.11838 0.65087 0.55209
 H263 H 0.19294 0.80563 0.44792
 H264 H 0.09797 0.82839 0.68787
 H265 H 0.17095 0.90173 0.68784
 H266 H 0.34831 0.88284 0.55157
 H267 H 0.34803 0.88224 0.44699
 H268 H 0.09559 0.83029 0.31222
 H269 H 0.19314 0.80642 0.55039
 H270 H 0.16913 0.90303 0.31233
 C271 C 0.68653 0.11690 0.47129
 C272 C 0.68632 0.11656 0.52586
 C273 C 0.73884 0.11493 0.54181
 N274 N 0.77111 0.11492 0.49888
 C275 C 0.73922 0.11515 0.45563
 C276 C 0.75751 0.10740 0.59440
 C277 C 0.80414 0.13427 0.61038
 C278 C 0.83361 0.12740 0.65653
 C279 C 0.87240 0.16624 0.65655
 C280 C 0.86550 0.19570 0.61040
 N281 N 0.82402 0.17578 0.58309
 C282 C 0.89230 0.24237 0.59447
 C283 C 0.88470 0.26113 0.54193
 C284 C 0.88303 0.31369 0.52611
 C285 C 0.88293 0.31360 0.47153
 C286 C 0.88483 0.26094 0.45575
 N287 N 0.88494 0.22896 0.49891
 C288 C 0.89369 0.24179 0.40337
 C289 C 0.86735 0.19439 0.38785
 C290 C 0.87583 0.16319 0.34309
 C291 C 0.83702 0.12431 0.34307
 C292 C 0.80581 0.13274 0.38781
 N293 N 0.82493 0.17520 0.41434
 C294 C 0.75846 0.10634 0.40328
 H295 H 0.65178 0.11830 0.44612
 H296 H 0.65142 0.11793 0.55078
 H297 H 0.80657 0.19352 0.44666
 H298 H 0.82829 0.09838 0.68760
 H299 H 0.90138 0.17162 0.68767
 H300 H 0.88150 0.34856 0.55111
 H301 H 0.88154 0.34841 0.44645
 H302 H 0.83314 0.09394 0.31308
 H303 H 0.80669 0.19310 0.54966
 H304 H 0.90617 0.16713 0.31312
 C305 C 0.52605 0.88481 0.68549
 C306 C 0.47176 0.88459 0.68580
 C307 C 0.45635 0.88499 0.73875
 N308 N 0.49940 0.88450 0.77077
 C309 C 0.54206 0.88526 0.73826
 C310 C 0.40419 0.89229 0.75809
 C311 C 0.38868 0.86518 0.80498
 C312 C 0.34317 0.87227 0.83514
 C313 C 0.34332 0.83331 0.87398
 C314 C 0.38890 0.80350 0.86643
 N315 N 0.41576 0.82339 0.82450
 C316 C 0.40467 0.75665 0.89323
 C317 C 0.45681 0.73757 0.88532
 C318 C 0.47229 0.68490 0.88433
 C319 C 0.52657 0.68471 0.88369
 C320 C 0.54253 0.73726 0.88431
 N321 N 0.49980 0.76952 0.88443
 C322 C 0.59495 0.75599 0.89132
 C323 C 0.61059 0.80294 0.86466
 C324 C 0.65652 0.83244 0.87172
 C325 C 0.65636 0.87161 0.83316
 C326 C 0.61036 0.86498 0.80361
 N327 N 0.58325 0.82323 0.82325
 C328 C 0.59446 0.89237 0.75705
 H329 H 0.55069 0.88391 0.65030
 H330 H 0.44670 0.88356 0.65088
 H331 H 0.54993 0.80602 0.80579
 H332 H 0.31247 0.90159 0.83033
 H333 H 0.31276 0.82819 0.90354
 H334 H 0.44725 0.65012 0.88345
 H335 H 0.55125 0.64972 0.88222
 H336 H 0.68726 0.90071 0.82808
 H337 H 0.44873 0.80596 0.80667
 H338 H 0.68759 0.82697 0.90068
 C339 C 0.52651 0.31570 0.11645
 C340 C 0.47222 0.31537 0.11591
 C341 C 0.45681 0.26267 0.11504
 N342 N 0.49983 0.23082 0.11592
 C343 C 0.54252 0.26318 0.11591
 C344 C 0.40469 0.24343 0.10717
 C345 C 0.38909 0.19655 0.13401
 C346 C 0.34360 0.16656 0.12646
 C347 C 0.34360 0.12762 0.16531
 C348 C 0.38911 0.13490 0.19550
 N349 N 0.41605 0.17679 0.17597
 C350 C 0.40470 0.10789 0.24244
 C351 C 0.45687 0.11532 0.26183
 C352 C 0.47232 0.11562 0.31479
 C353 C 0.52661 0.11560 0.31514
 C354 C 0.54262 0.11539 0.26239
 N355 N 0.49992 0.11608 0.22986
 C356 C 0.59505 0.10859 0.24362
 C357 C 0.61076 0.13592 0.19695
 C358 C 0.65673 0.12938 0.16739
 C359 C 0.65670 0.16841 0.12870
 C360 C 0.61071 0.19774 0.13569
 N361 N 0.58349 0.17749 0.17719
 C362 C 0.59492 0.24455 0.10887
 H363 H 0.55116 0.35074 0.11779
 H364 H 0.44715 0.35010 0.11675
 H365 H 0.55016 0.19463 0.19463
 H366 H 0.31302 0.17154 0.09687
 H367 H 0.31299 0.09817 0.17008
 H368 H 0.44728 0.11648 0.34970
 H369 H 0.55123 0.11654 0.35037
 H370 H 0.68772 0.17390 0.09972
 H371 H 0.44898 0.19436 0.19381
 H372 H 0.68776 0.10047 0.17253
 C373 C 0.47334 0.31540 0.88367
 C374 C 0.52763 0.31516 0.88408
 C375 C 0.54308 0.26248 0.88501
 N376 N 0.50007 0.23056 0.88429
 C377 C 0.45737 0.26286 0.88433
 C378 C 0.59521 0.24335 0.89289
 C379 C 0.61093 0.19652 0.86607
 C380 C 0.65653 0.16670 0.87359
 C381 C 0.65662 0.12775 0.83473
 C382 C 0.61106 0.13484 0.80459
 N383 N 0.58401 0.17663 0.82415
 C384 C 0.59545 0.10772 0.75772
 C385 C 0.54322 0.11497 0.73852
 C386 C 0.52760 0.11530 0.68562
 C387 C 0.47331 0.11519 0.68548
 C388 C 0.45751 0.11483 0.73830
 N389 N 0.50031 0.11557 0.77067
 C390 C 0.40520 0.10769 0.75726
 C391 C 0.38944 0.13505 0.80386
 C392 C 0.34359 0.12833 0.83356
 C393 C 0.34350 0.16754 0.87209
 C394 C 0.38932 0.19714 0.86485
 N395 N 0.41654 0.17688 0.82338
 C396 C 0.40497 0.24414 0.89143
 H397 H 0.44867 0.35040 0.88230
 H398 H 0.55269 0.34992 0.88314
 H399 H 0.44973 0.19414 0.80578
 H400 H 0.68713 0.17182 0.90314
 H401 H 0.68731 0.09842 0.82990
 H402 H 0.55252 0.11624 0.65062
 H403 H 0.44853 0.11608 0.65036
 H404 H 0.31256 0.17294 0.90117
 H405 H 0.55101 0.19408 0.80635
 H406 H 0.31275 0.09913 0.82862
 C407 C 0.47427 0.88559 0.31435
 C408 C 0.52856 0.88563 0.31408
 C409 C 0.54400 0.88605 0.26114
 N410 N 0.50097 0.88530 0.22909
 C411 C 0.45828 0.88590 0.26157
 C412 C 0.59620 0.89343 0.24186
 C413 C 0.61177 0.86618 0.19506
 C414 C 0.65732 0.87322 0.16494
 C415 C 0.65721 0.83415 0.12619
 C416 C 0.61161 0.80431 0.13374
 N417 N 0.58470 0.82431 0.17558
 C418 C 0.59586 0.75736 0.10702
 C419 C 0.54374 0.73814 0.11498
 C420 C 0.52837 0.68542 0.11603
 C421 C 0.47408 0.68504 0.11647
 C422 C 0.45801 0.73753 0.11573
 N423 N 0.50068 0.76994 0.11568
 C424 C 0.40554 0.75607 0.10874
 C425 C 0.38987 0.80306 0.13530
 C426 C 0.34390 0.83242 0.12820
 C427 C 0.34401 0.87168 0.16668
 C428 C 0.39003 0.86524 0.19622
 N429 N 0.41721 0.82353 0.17665
 C430 C 0.40586 0.89274 0.24276
 H431 H 0.44962 0.88458 0.34953
 H432 H 0.55360 0.88474 0.34901
 H433 H 0.45056 0.80647 0.19415
 H434 H 0.68800 0.90261 0.16976
 H435 H 0.68780 0.82895 0.09669
 H436 H 0.55348 0.65073 0.11704
 H437 H 0.44948 0.64997 0.11794
 H438 H 0.31306 0.90070 0.17171
 H439 H 0.55170 0.80689 0.19339
 H440 H 0.31282 0.82682 0.09926
 C441 C 0.68555 0.47295 0.88234
 C442 C 0.68536 0.52727 0.88274
 C443 C 0.73793 0.54319 0.88467
 N444 N 0.77013 0.50040 0.88450
 C445 C 0.73819 0.45744 0.88394
 C446 C 0.75687 0.59542 0.89334
 C447 C 0.80395 0.61099 0.86652
 C448 C 0.83453 0.65616 0.87416
 C449 C 0.87309 0.65615 0.83496
 C450 C 0.86518 0.61093 0.80452
 N451 N 0.82327 0.58418 0.82421
 C452 C 0.89166 0.59540 0.75728
 C453 C 0.88443 0.54309 0.73820
 C454 C 0.88404 0.52732 0.68532
 C455 C 0.88483 0.47303 0.68530
 C456 C 0.88558 0.45735 0.73815
 N457 N 0.88446 0.50022 0.77043
 C458 C 0.89305 0.40509 0.75719
 C459 C 0.86584 0.38936 0.80392
 C460 C 0.87273 0.34364 0.83384
 C461 C 0.83367 0.34369 0.87255
 C462 C 0.80406 0.38946 0.86518
 N463 N 0.82410 0.41647 0.82347
 C464 C 0.75720 0.40528 0.89181
 H465 H 0.65081 0.44790 0.88067
 H466 H 0.65045 0.55208 0.88153
 H467 H 0.80672 0.44957 0.80582
 H468 H 0.83030 0.68656 0.90405
 H469 H 0.90280 0.68651 0.83021
 H470 H 0.88268 0.55214 0.65026
 H471 H 0.88412 0.44813 0.65026
 H472 H 0.82828 0.31289 0.90182
 H473 H 0.80542 0.55150 0.80618
 H474 H 0.90195 0.31287 0.82890
 C475 C 0.31463 0.52686 0.11764
 C476 C 0.31428 0.47254 0.11792
 C477 C 0.26160 0.45712 0.11620
 N478 N 0.22979 0.50014 0.11567
 C479 C 0.26211 0.54287 0.11566
 C480 C 0.24247 0.40501 0.10814
 C481 C 0.19549 0.38922 0.13461
 C482 C 0.16575 0.34354 0.12702
 C483 C 0.12660 0.34347 0.16564
 C484 C 0.13354 0.38910 0.19571
 N485 N 0.17542 0.41618 0.17634
 C486 C 0.10627 0.40476 0.24241
 C487 C 0.11379 0.45699 0.26158
 C488 C 0.11445 0.47258 0.31446
 C489 C 0.11538 0.52688 0.31456
 C490 C 0.11515 0.54274 0.26173
 N491 N 0.11510 0.49992 0.22940
 C492 C 0.10816 0.59511 0.24275
 C493 C 0.13481 0.61067 0.19561
 C494 C 0.12712 0.65597 0.16526
 C495 C 0.16579 0.65599 0.12617
 C496 C 0.19621 0.61074 0.13378
 N497 N 0.17669 0.58388 0.17596
 C498 C 0.24332 0.59514 0.10703
 H499 H 0.34960 0.55161 0.11895
 H500 H 0.34895 0.44742 0.11957
 H501 H 0.19440 0.55113 0.19397
 H502 H 0.17111 0.31281 0.09767
 H503 H 0.09725 0.31275 0.17041
 H504 H 0.11505 0.44763 0.34946
 H505 H 0.11675 0.55162 0.34969
 H506 H 0.17019 0.68645 0.09638
 H507 H 0.19285 0.44921 0.19412
 H508 H 0.09750 0.68638 0.17000
 C509 C 0.68567 0.52734 0.11755
 C510 C 0.68540 0.47302 0.11724
 C511 C 0.73794 0.45707 0.11529
 N512 N 0.77021 0.49983 0.11537
 C513 C 0.73834 0.54281 0.11589
 C514 C 0.75678 0.40484 0.10656
 C515 C 0.80386 0.38918 0.13333
 C516 C 0.83431 0.34395 0.12563
 C517 C 0.87289 0.34383 0.16485
 C518 C 0.86512 0.38902 0.19535
 N519 N 0.82328 0.41588 0.17567
 C520 C 0.89165 0.40443 0.24262
 C521 C 0.88464 0.45677 0.26168
 C522 C 0.88431 0.47257 0.31453
 C523 C 0.88513 0.52687 0.31451
 C524 C 0.88585 0.54252 0.26165
 N525 N 0.88467 0.49963 0.22941
 C526 C 0.89343 0.59476 0.24258
 C527 C 0.86626 0.61055 0.19585
 C528 C 0.87326 0.65626 0.16593
 C529 C 0.83414 0.65633 0.12724
 C530 C 0.80438 0.61064 0.13462
 N531 N 0.82440 0.58356 0.17631
 C532 C 0.75744 0.59495 0.10803
 H533 H 0.65098 0.55241 0.11921
 H534 H 0.65045 0.44823 0.11850
 H535 H 0.80694 0.55050 0.19398
 H536 H 0.82999 0.31360 0.09570
 H537 H 0.90251 0.31341 0.16957
 H538 H 0.88294 0.44779 0.34962
 H539 H 0.88446 0.55178 0.34954
 H540 H 0.82880 0.68715 0.09799
 H541 H 0.80551 0.44857 0.19374
 H542 H 0.90260 0.68697 0.17085
 C543 C 0.31417 0.52707 0.88261
 C544 C 0.31438 0.47275 0.88275
 C545 C 0.26182 0.45679 0.88470
 N546 N 0.22961 0.49956 0.88476
 C547 C 0.26153 0.54254 0.88433
 C548 C 0.24294 0.40453 0.89332
 C549 C 0.19586 0.38889 0.86647
 C550 C 0.16545 0.34358 0.87396
 C551 C 0.12682 0.34358 0.83478
 C552 C 0.13452 0.38892 0.80449
 N553 N 0.17638 0.41574 0.82426
 C554 C 0.10791 0.40450 0.75730
 C555 C 0.11505 0.45686 0.73836
 C556 C 0.11545 0.47272 0.68552
 C557 C 0.11474 0.52701 0.68563
 C558 C 0.11401 0.54260 0.73851
 N559 N 0.11509 0.49967 0.77069
 C560 C 0.10652 0.59484 0.75765
 C561 C 0.13376 0.61056 0.80440
 C562 C 0.12689 0.65626 0.83435
 C563 C 0.16599 0.65623 0.87307
 C564 C 0.19562 0.61049 0.86567
 N565 N 0.17553 0.58347 0.82394
 C566 C 0.24252 0.59468 0.89230
 H567 H 0.34889 0.55214 0.88099
 H568 H 0.34930 0.44796 0.88140
 H569 H 0.19290 0.55037 0.80626
 H570 H 0.16986 0.31308 0.90372
 H571 H 0.09723 0.31311 0.82990
 H572 H 0.11679 0.44796 0.65040
 H573 H 0.11549 0.55197 0.65064
 H574 H 0.17141 0.68703 0.90236
 H575 H 0.19411 0.44854 0.80635
 H576 H 0.09764 0.68703 0.82942
   
