data_POSCAR
  _audit_creation_date              2014-09-24
  _audit_creation_method            'ToBaCCo'
  _symmetry_space_group_name_H-M    'P1'
  _symmetry_Int_Tables_number       1
  _symmetry_cell_setting            triclinic
  loop_
  _symmetry_equiv_pos_as_xyz
 x,y,z
_cell_length_a 51.5578
_cell_length_b 51.7158
_cell_length_c 51.7808
_cell_angle_alpha 90.021300
_cell_angle_beta 89.999700
_cell_angle_gamma 90.000100
loop_
  _atom_site_label
  _atom_site_type_symbol
  _atom_site_fract_x
  _atom_site_fract_y
  _atom_site_fract_z
N1 N 0.29170 0.23966 0.21974
 N2 N 0.28116 0.26048 0.20968
 C3 C 0.29486 0.26754 0.18868
 C4 C 0.31519 0.25031 0.18550
 C5 C 0.31254 0.23288 0.20563
 H6 H 0.29060 0.28417 0.17679
 H7 H 0.32467 0.21630 0.20957
 Cu8 Cu 0.25073 0.27648 0.22516
 Cu9 Cu 0.27757 0.22277 0.25027
 Cu10 Cu 0.22260 0.25007 0.27750
 N11 N 0.21957 0.29128 0.24042
 N12 N 0.20856 0.28073 0.26073
 C13 C 0.18739 0.29453 0.26717
 C14 C 0.18500 0.31496 0.25003
 C15 C 0.20580 0.31224 0.23330
 H16 H 0.17488 0.29019 0.28334
 H17 H 0.21040 0.32445 0.21700
 N18 N 0.23966 0.21905 0.29169
 N19 N 0.26044 0.20851 0.28117
 C20 C 0.26728 0.18758 0.29507
 C21 C 0.25006 0.18483 0.31539
 C22 C 0.23283 0.20518 0.31262
 H23 H 0.28380 0.17540 0.29091
 H24 H 0.21635 0.20939 0.32480
 H25 H 0.23980 0.23501 0.24470
 H26 H 0.26065 0.25533 0.26610
 N27 N 0.70740 -0.24024 0.21941
 N28 N 0.71867 -0.26028 0.20859
 C29 C 0.70516 -0.26715 0.18741
 C30 C 0.68405 -0.25063 0.18482
 C31 C 0.68619 -0.23385 0.20568
 H32 H 0.71024 -0.28319 0.17505
 H33 H 0.67369 -0.21775 0.21035
 Cu34 Cu 0.74983 -0.27549 0.22340
 Cu35 Cu 0.72164 -0.22319 0.24984
 Cu36 Cu 0.77790 -0.24929 0.27577
 N37 N 0.78055 -0.29083 0.23900
 N38 N 0.79199 -0.27987 0.25883
 C39 C 0.81319 -0.29362 0.26521
 C40 C 0.81512 -0.31469 0.24865
 C41 C 0.79386 -0.31222 0.23232
 H42 H 0.82583 -0.28886 0.28116
 H43 H 0.78869 -0.32472 0.21642
 N44 N 0.76060 -0.21852 0.29022
 N45 N 0.73911 -0.20869 0.28049
 C46 C 0.73203 -0.18804 0.29472
 C47 C 0.74987 -0.18473 0.31446
 C48 C 0.76770 -0.20445 0.31093
 H49 H 0.71500 -0.17643 0.29111
 H50 H 0.78471 -0.20822 0.32251
 H51 H 0.75966 -0.23401 0.24364
 H52 H 0.73982 -0.25546 0.26484
 N53 N 0.70834 0.24111 0.77977
 N54 N 0.71879 0.26201 0.78978
 C55 C 0.70489 0.26923 0.81060
 C56 C 0.68456 0.25198 0.81374
 C57 C 0.68736 0.23444 0.79371
 H58 H 0.70918 0.28582 0.82256
 H59 H 0.67528 0.21782 0.78976
 Cu60 Cu 0.74968 0.27746 0.77464
 Cu61 Cu 0.72316 0.22359 0.74991
 Cu62 Cu 0.77987 0.24923 0.72449
 N63 N 0.78100 0.29221 0.75968
 N64 N 0.79362 0.28015 0.74122
 C65 C 0.81526 0.29351 0.73545
 C66 C 0.81610 0.31554 0.75082
 C67 C 0.79384 0.31403 0.76586
 H68 H 0.82873 0.28809 0.72040
 H69 H 0.78780 0.32739 0.78074
 N70 N 0.76273 0.21824 0.71020
 N71 N 0.74110 0.20858 0.71985
 C72 C 0.73401 0.18788 0.70573
 C73 C 0.75190 0.18437 0.68613
 C74 C 0.76984 0.20401 0.68957
 H75 H 0.71680 0.17647 0.70916
 H76 H 0.78685 0.20763 0.67793
 H77 H 0.76078 0.23543 0.75663
 H78 H 0.74134 0.25561 0.73377
 N79 N 0.29153 -0.24142 0.77993
 N80 N 0.28100 -0.26228 0.78992
 C81 C 0.29490 -0.26958 0.81072
 C82 C 0.31531 -0.25242 0.81388
 C83 C 0.31252 -0.23483 0.79391
 H84 H 0.29061 -0.28623 0.82259
 H85 H 0.32451 -0.21810 0.79014
 Cu86 Cu 0.25008 -0.27763 0.77468
 Cu87 Cu 0.27687 -0.22379 0.75006
 Cu88 Cu 0.22023 -0.24937 0.72438
 N89 N 0.21874 -0.29229 0.75960
 N90 N 0.20634 -0.28021 0.74102
 C91 C 0.18467 -0.29345 0.73510
 C92 C 0.18357 -0.31546 0.75043
 C93 C 0.20572 -0.31406 0.76567
 H94 H 0.17124 -0.28784 0.72010
 H95 H 0.21162 -0.32750 0.78052
 N96 N 0.23748 -0.21842 0.71017
 N97 N 0.25903 -0.20871 0.71994
 C98 C 0.26617 -0.18802 0.70582
 C99 C 0.24839 -0.18462 0.68609
 C100 C 0.23047 -0.20427 0.68947
 H101 H 0.28335 -0.17657 0.70930
 H102 H 0.21355 -0.20796 0.67772
 H103 H 0.23918 -0.23536 0.75658
 H104 H 0.25865 -0.25559 0.73393
 N105 N 0.70862 -0.24125 0.77976
 N106 N 0.71912 -0.26213 0.78976
 C107 C 0.70529 -0.26935 0.81061
 C108 C 0.68495 -0.25213 0.81379
 C109 C 0.68769 -0.23458 0.79378
 H110 H 0.70965 -0.28592 0.82257
 H111 H 0.67573 -0.21783 0.79003
 Cu112 Cu 0.75020 -0.27717 0.77463
 Cu113 Cu 0.72332 -0.22362 0.74989
 Cu114 Cu 0.78001 -0.24924 0.72428
 N115 N 0.78128 -0.29220 0.75950
 N116 N 0.79375 -0.28015 0.74093
 C117 C 0.81541 -0.29344 0.73508
 C118 C 0.81642 -0.31540 0.75047
 C119 C 0.79425 -0.31395 0.76566
 H120 H 0.82889 -0.28787 0.72011
 H121 H 0.78836 -0.32728 0.78061
 N122 N 0.76281 -0.21829 0.71008
 N123 N 0.74120 -0.20862 0.71977
 C124 C 0.73407 -0.18796 0.70564
 C125 C 0.75194 -0.18449 0.68600
 C126 C 0.76988 -0.20411 0.68943
 H127 H 0.71685 -0.17655 0.70907
 H128 H 0.78686 -0.20775 0.67775
 H129 H 0.74164 -0.25544 0.73386
 H130 H 0.76111 -0.23508 0.75645
 N131 N 0.29085 0.23957 0.78104
 N132 N 0.27976 0.25986 0.79162
 C133 C 0.29346 0.26696 0.81261
 C134 C 0.31433 0.25028 0.81527
 C135 C 0.31200 0.23315 0.79484
 H136 H 0.28888 0.28330 0.82480
 H137 H 0.32460 0.21704 0.79042
 Cu138 Cu 0.24898 0.27521 0.77623
 Cu139 Cu 0.27713 0.22291 0.75016
 Cu140 Cu 0.22231 0.25045 0.72260
 N141 N 0.21823 0.29063 0.76082
 N142 N 0.20804 0.28089 0.73970
 C143 C 0.18734 0.29512 0.73281
 C144 C 0.18427 0.31499 0.75055
 C145 C 0.20432 0.31145 0.76808
 H146 H 0.17551 0.29125 0.71603
 H147 H 0.20854 0.32313 0.78485
 N148 N 0.23961 0.21958 0.70830
 N149 N 0.26029 0.20896 0.71893
 C150 C 0.26717 0.18803 0.70504
 C151 C 0.25007 0.18536 0.68461
 C152 C 0.23288 0.20575 0.68730
 H153 H 0.28357 0.17576 0.70933
 H154 H 0.21642 0.20994 0.67508
 H155 H 0.26008 0.25564 0.73487
 H156 H 0.23907 0.23433 0.75503
 N157 N 0.29192 -0.23913 0.21920
 N158 N 0.28084 -0.25941 0.20862
 C159 C 0.29456 -0.26653 0.18767
 C160 C 0.31540 -0.24984 0.18497
 C161 C 0.31307 -0.23270 0.20540
 H162 H 0.28991 -0.28282 0.17544
 H163 H 0.32562 -0.21653 0.20975
 Cu164 Cu 0.24966 -0.27467 0.22330
 Cu165 Cu 0.27801 -0.22240 0.24989
 Cu166 Cu 0.22330 -0.24993 0.27733
 N167 N 0.21934 -0.29022 0.23940
 N168 N 0.20917 -0.28045 0.26051
 C169 C 0.18849 -0.29469 0.26746
 C170 C 0.18542 -0.31459 0.24976
 C171 C 0.20546 -0.31108 0.23222
 H172 H 0.17659 -0.29070 0.28416
 H173 H 0.20965 -0.32274 0.21544
 N174 N 0.24036 -0.21899 0.29154
 N175 N 0.26105 -0.20834 0.28097
 C176 C 0.26785 -0.18741 0.29489
 C177 C 0.25069 -0.18480 0.31528
 C178 C 0.23354 -0.20520 0.31252
 H179 H 0.28427 -0.17512 0.29068
 H180 H 0.21709 -0.20946 0.32472
 H181 H 0.26100 -0.25539 0.26471
 H182 H 0.23996 -0.23381 0.24474
 N183 N 0.70812 0.23957 0.21951
 N184 N 0.71924 0.25981 0.20890
 C185 C 0.70555 0.26692 0.18792
 C186 C 0.68466 0.25028 0.18528
 C187 C 0.68694 0.23317 0.20573
 H188 H 0.71020 0.28320 0.17569
 H189 H 0.67434 0.21706 0.21012
 Cu190 Cu 0.75017 0.27502 0.22405
 Cu191 Cu 0.72203 0.22277 0.25023
 Cu192 Cu 0.77762 0.24962 0.27694
 N193 N 0.78109 0.29027 0.23921
 N194 N 0.79181 0.28008 0.25986
 C195 C 0.81270 0.29416 0.26652
 C196 C 0.81520 0.31439 0.24918
 C197 C 0.79475 0.31129 0.23211
 H198 H 0.82490 0.29020 0.28304
 H199 H 0.79028 0.32335 0.21566
 N200 N 0.76032 0.21884 0.29133
 N201 N 0.73916 0.20865 0.28123
 C202 C 0.73217 0.18792 0.29533
 C203 C 0.74976 0.18483 0.31535
 C204 C 0.76732 0.20486 0.31212
 H205 H 0.71549 0.17598 0.29126
 H206 H 0.78405 0.20900 0.32397
 H207 H 0.73965 0.25525 0.26543
 H208 H 0.76005 0.23388 0.24470
 C209 C 0.24209 -0.01354 0.42006
 C210 C 0.24207 0.01298 0.42001
 C211 C 0.24688 0.02070 0.44520
 N212 N 0.25004 -0.00020 0.46054
 C213 C 0.24691 -0.02117 0.44527
 C214 C 0.24946 0.04668 0.45326
 C215 C 0.25253 0.05439 0.47930
 C216 C 0.25947 0.07911 0.48709
 C217 C 0.25948 0.07910 0.51363
 C218 C 0.25254 0.05437 0.52140
 N219 N 0.24809 0.03953 0.50035
 C220 C 0.24944 0.04666 0.54744
 C221 C 0.24684 0.02070 0.55558
 C222 C 0.24198 0.01308 0.58079
 C223 C 0.24197 -0.01345 0.58083
 C224 C 0.24681 -0.02117 0.55565
 N225 N 0.24999 -0.00026 0.54031
 C226 C 0.24936 -0.04716 0.54758
 C227 C 0.25248 -0.05487 0.52154
 C228 C 0.25940 -0.07960 0.51376
 C229 C 0.25947 -0.07958 0.48722
 C230 C 0.25258 -0.05485 0.47945
 N231 N 0.24810 -0.04000 0.50049
 C232 C 0.24954 -0.04712 0.45341
 H233 H 0.23905 -0.02581 0.40338
 H234 H 0.23901 0.02517 0.40330
 H235 H 0.23985 -0.02173 0.50047
 H236 H 0.26399 0.09551 0.47491
 H237 H 0.26400 0.09550 0.52582
 H238 H 0.23892 0.02534 0.59746
 H239 H 0.23889 -0.02564 0.59754
 H240 H 0.26398 -0.09598 0.47504
 H241 H 0.23982 0.02127 0.50036
 H242 H 0.26386 -0.09601 0.52594
 C243 C 0.74763 0.08105 0.48722
 C244 C 0.74658 0.08102 0.51368
 C245 C 0.74830 0.05541 0.52138
 N246 N 0.75027 0.03989 0.50050
 C247 C 0.74979 0.05543 0.47955
 C248 C 0.74917 0.04705 0.54736
 C249 C 0.75092 0.02084 0.55518
 C250 C 0.75651 0.01299 0.58018
 C251 C 0.75658 -0.01355 0.58012
 C252 C 0.75103 -0.02135 0.55508
 N253 N 0.74721 -0.00024 0.54007
 C254 C 0.74933 -0.04754 0.54717
 C255 C 0.74843 -0.05588 0.52117
 C256 C 0.74651 -0.08147 0.51342
 C257 C 0.74750 -0.08149 0.48696
 C258 C 0.74991 -0.05590 0.47934
 N259 N 0.75052 -0.04036 0.50031
 C260 C 0.75125 -0.04754 0.45333
 C261 C 0.75207 -0.02133 0.44526
 C262 C 0.75129 -0.01345 0.41966
 C263 C 0.75126 0.01311 0.41971
 C264 C 0.75208 0.02091 0.44535
 N265 N 0.75301 -0.00023 0.46072
 C266 C 0.75121 0.04710 0.45352
 H267 H 0.74685 0.09804 0.47505
 H268 H 0.74497 0.09798 0.52583
 H269 H 0.75506 -0.00023 0.48053
 H270 H 0.76042 0.02513 0.59676
 H271 H 0.76054 -0.02573 0.59666
 H272 H 0.74472 -0.09842 0.52556
 H273 H 0.74646 -0.09845 0.47474
 H274 H 0.75027 0.02526 0.40273
 H275 H 0.74015 -0.00024 0.52133
 H276 H 0.75036 -0.02554 0.40262
 C277 C 0.41935 0.24345 -0.01339
 C278 C 0.41933 0.24343 0.01309
 C279 C 0.44461 0.24839 0.02076
 N280 N 0.45998 0.25164 -0.00013
 C281 C 0.44463 0.24842 -0.02104
 C282 C 0.45273 0.25099 0.04668
 C283 C 0.47887 0.25417 0.05435
 C284 C 0.48670 0.26114 0.07902
 C285 C 0.51335 0.26116 0.07898
 C286 C 0.52113 0.25419 0.05429
 N287 N 0.49999 0.24972 0.03949
 C288 C 0.54726 0.25101 0.04657
 C289 C 0.55540 0.24836 0.02065
 C290 C 0.58070 0.24343 0.01301
 C291 C 0.58072 0.24344 -0.01348
 C292 C 0.55544 0.24836 -0.02115
 N293 N 0.54006 0.25157 -0.00026
 C294 C 0.54732 0.25100 -0.04708
 C295 C 0.52117 0.25416 -0.05475
 C296 C 0.51334 0.26115 -0.07940
 C297 C 0.48668 0.26119 -0.07937
 C298 C 0.47890 0.25422 -0.05469
 N299 N 0.50005 0.24972 -0.03989
 C300 C 0.45276 0.25109 -0.04696
 H301 H 0.40261 0.24030 -0.02562
 H302 H 0.40259 0.24028 0.02530
 H303 H 0.50004 0.24140 -0.02169
 H304 H 0.47448 0.26564 0.09541
 H305 H 0.52561 0.26567 0.09535
 H306 H 0.59744 0.24032 0.02523
 H307 H 0.59748 0.24033 -0.02569
 H308 H 0.47443 0.26573 -0.09572
 H309 H 0.49999 0.24140 0.02128
 H310 H 0.52557 0.26566 -0.09579
 C311 C 0.48699 0.74142 0.08004
 C312 C 0.51358 0.74143 0.08006
 C313 C 0.52130 0.74586 0.05480
 N314 N 0.50032 0.74880 0.03944
 C315 C 0.47931 0.74587 0.05476
 C316 C 0.54736 0.74834 0.04671
 C317 C 0.55515 0.75123 0.02066
 C318 C 0.58003 0.75779 0.01287
 C319 C 0.58003 0.75772 -0.01367
 C320 C 0.55515 0.75109 -0.02144
 N321 N 0.54020 0.74691 -0.00038
 C322 C 0.54738 0.74804 -0.04747
 C323 C 0.52132 0.74555 -0.05561
 C324 C 0.51365 0.74085 -0.08084
 C325 C 0.48704 0.74084 -0.08087
 C326 C 0.47932 0.74554 -0.05566
 N327 N 0.50030 0.74863 -0.04032
 C328 C 0.45325 0.74802 -0.04757
 C329 C 0.44549 0.75109 -0.02153
 C330 C 0.42067 0.75791 -0.01377
 C331 C 0.42067 0.75801 0.01277
 C332 C 0.44550 0.75124 0.02056
 N333 N 0.46042 0.74679 -0.00047
 C334 C 0.45327 0.74836 0.04662
 H335 H 0.47471 0.73864 0.09676
 H336 H 0.52583 0.73868 0.09682
 H337 H 0.47877 0.73864 -0.00044
 H338 H 0.59656 0.76207 0.02504
 H339 H 0.59655 0.76195 -0.02586
 H340 H 0.52593 0.73787 -0.09753
 H341 H 0.47480 0.73787 -0.09759
 H342 H 0.40420 0.76249 0.02494
 H343 H 0.52179 0.73890 -0.00038
 H344 H 0.40419 0.76231 -0.02596
 C345 C -0.01376 0.41981 0.24157
 C346 C 0.01283 0.41976 0.24168
 C347 C 0.02056 0.44506 0.24608
 N348 N -0.00043 0.46047 0.24889
 C349 C -0.02143 0.44514 0.24592
 C350 C 0.04663 0.45318 0.24845
 C351 C 0.05446 0.47928 0.25116
 C352 C 0.07947 0.48706 0.25724
 C353 C 0.07950 0.51362 0.25713
 C354 C 0.05447 0.52146 0.25108
 N355 N 0.03945 0.50036 0.24716
 C356 C 0.04665 0.54756 0.24811
 C357 C 0.02057 0.55573 0.24553
 C358 C 0.01286 0.58110 0.24148
 C359 C -0.01373 0.58110 0.24129
 C360 C -0.02145 0.55575 0.24535
 N361 N -0.00046 0.54035 0.24816
 C362 C -0.04752 0.54762 0.24767
 C363 C -0.05530 0.52155 0.25064
 C364 C -0.08016 0.51380 0.25734
 C365 C -0.08014 0.48723 0.25754
 C366 C -0.05527 0.47942 0.25093
 N367 N -0.04035 0.50046 0.24647
 C368 C -0.04748 0.45332 0.24820
 H369 H -0.02604 0.40307 0.23875
 H370 H 0.02508 0.40298 0.23895
 H371 H -0.02197 0.50039 0.23840
 H372 H 0.09607 0.47488 0.26116
 H373 H 0.09620 0.52572 0.26086
 H374 H 0.02507 0.59797 0.23920
 H375 H -0.02597 0.59791 0.23875
 H376 H -0.09663 0.47507 0.26199
 H377 H 0.02089 0.50034 0.23957
 H378 H -0.09666 0.52601 0.26162
 C379 C 0.07863 0.48692 0.76428
 C380 C 0.07870 0.51346 0.76422
 C381 C 0.05445 0.52116 0.75558
 N382 N 0.03953 0.50027 0.75062
 C383 C 0.05422 0.47935 0.75604
 C384 C 0.04691 0.54692 0.75048
 C385 C 0.02088 0.55367 0.74512
 C386 C 0.01300 0.57658 0.73364
 C387 C -0.01368 0.57653 0.73378
 C388 C -0.02135 0.55361 0.74541
 N389 N -0.00017 0.53973 0.75212
 C390 C -0.04724 0.54688 0.75139
 C391 C -0.05462 0.52120 0.75703
 C392 C -0.07825 0.51376 0.76741
 C393 C -0.07838 0.48722 0.76763
 C394 C -0.05481 0.47939 0.75742
 N395 N -0.04032 0.50018 0.75099
 C396 C -0.04760 0.45352 0.75245
 C397 C -0.02169 0.44646 0.74686
 C398 C -0.01397 0.42290 0.73660
 C399 C 0.01271 0.42285 0.73656
 C400 C 0.02054 0.44651 0.74646
 N401 N -0.00053 0.46075 0.75273
 C402 C 0.04648 0.45361 0.75152
 H403 H 0.09477 0.47463 0.76955
 H404 H 0.09488 0.52564 0.76963
 H405 H -0.00041 0.47782 0.76337
 H406 H 0.02520 0.59186 0.72613
 H407 H -0.02602 0.59177 0.72643
 H408 H -0.09382 0.52614 0.77403
 H409 H -0.09405 0.47510 0.77446
 H410 H 0.02493 0.40704 0.73025
 H411 H -0.00011 0.52326 0.76368
 H412 H -0.02625 0.40720 0.73019
 C413 C 0.37399 0.25086 0.12629
 C414 C 0.37790 0.23729 0.14948
 C415 C 0.35882 0.23707 0.16865
 C416 C 0.33541 0.25053 0.16514
 C417 C 0.33151 0.26420 0.14201
 C418 C 0.35056 0.26431 0.12279
 C419 C 0.39423 0.25093 0.10584
 C420 C 0.39936 0.27349 0.09151
 C421 C 0.41834 0.27349 0.07224
 C422 C 0.43257 0.25101 0.06707
 C423 C 0.42764 0.22849 0.08125
 C424 C 0.40859 0.22842 0.10045
 H425 H 0.36262 0.22665 0.18636
 H426 H 0.31359 0.27450 0.13851
 H427 H 0.42206 0.29103 0.06144
 H428 H 0.43843 0.21096 0.07730
 H429 H 0.34674 0.27461 0.10499
 H430 H 0.38893 0.29123 0.09542
 H431 H 0.39591 0.22710 0.15300
 H432 H 0.40486 0.21063 0.11083
 C433 C 0.62644 0.74913 0.12604
 C434 C 0.62404 0.76535 0.14768
 C435 C 0.64303 0.76555 0.16693
 C436 C 0.66492 0.74928 0.16529
 C437 C 0.66717 0.73296 0.14358
 C438 C 0.64830 0.73302 0.12421
 C439 C 0.60621 0.74897 0.10553
 C440 C 0.59927 0.72577 0.09307
 C441 C 0.58027 0.72563 0.07383
 C442 C 0.56776 0.74861 0.06684
 C443 C 0.57449 0.77179 0.07912
 C444 C 0.59361 0.77201 0.09825
 H445 H 0.64008 0.77821 0.18328
 H446 H 0.68371 0.72036 0.14106
 H447 H 0.57513 0.70758 0.06452
 H448 H 0.56498 0.78969 0.07379
 H449 H 0.65107 0.72065 0.10756
 H450 H 0.60823 0.70763 0.09846
 H451 H 0.60722 0.77767 0.14999
 H452 H 0.59871 0.79027 0.10712
 C453 C 0.62608 0.25175 -0.12672
 C454 C 0.62215 0.23826 -0.14998
 C455 C 0.64108 0.23839 -0.16929
 C456 C 0.66438 0.25208 -0.16586
 C457 C 0.66826 0.26570 -0.14269
 C458 C 0.64938 0.26546 -0.12332
 C459 C 0.60593 0.25153 -0.10616
 C460 C 0.60068 0.27397 -0.09168
 C461 C 0.58166 0.27378 -0.07245
 C462 C 0.56751 0.25121 -0.06744
 C463 C 0.57257 0.22880 -0.08176
 C464 C 0.59166 0.22892 -0.10092
 H465 H 0.63727 0.22799 -0.18702
 H466 H 0.68610 0.27618 -0.13927
 H467 H 0.57783 0.29125 -0.06155
 H468 H 0.56183 0.21121 -0.07796
 H469 H 0.65323 0.27567 -0.10547
 H470 H 0.61101 0.29180 -0.09546
 H471 H 0.60426 0.22785 -0.15341
 H472 H 0.59547 0.21121 -0.11142
 C473 C 0.37371 0.74797 -0.12647
 C474 C 0.37759 0.76151 -0.14969
 C475 C 0.35865 0.76136 -0.16899
 C476 C 0.33541 0.74758 -0.16563
 C477 C 0.33152 0.73398 -0.14245
 C478 C 0.35042 0.73424 -0.12307
 C479 C 0.39396 0.74808 -0.10599
 C480 C 0.39927 0.72556 -0.09167
 C481 C 0.41849 0.72561 -0.07263
 C482 C 0.43278 0.74809 -0.06766
 C483 C 0.42759 0.77062 -0.08176
 C484 C 0.40831 0.77065 -0.10073
 H485 H 0.36246 0.77178 -0.18671
 H486 H 0.31371 0.72346 -0.13904
 H487 H 0.42239 0.70806 -0.06189
 H488 H 0.43842 0.78816 -0.07797
 H489 H 0.34662 0.72396 -0.10525
 H490 H 0.38886 0.70778 -0.09547
 H491 H 0.39548 0.77192 -0.15314
 H492 H 0.40444 0.78841 -0.11109
 C493 C 0.12605 0.37414 0.24938
 C494 C 0.14952 0.37772 0.23603
 C495 C 0.16860 0.35852 0.23618
 C496 C 0.16470 0.33530 0.24974
 C497 C 0.14125 0.33173 0.26311
 C498 C 0.12214 0.35090 0.26290
 C499 C 0.10572 0.39452 0.24917
 C500 C 0.09136 0.40004 0.27163
 C501 C 0.07216 0.41912 0.27138
 C502 C 0.06705 0.43302 0.24873
 C503 C 0.08131 0.42772 0.22632
 C504 C 0.10047 0.40860 0.22651
 H505 H 0.18654 0.36209 0.22595
 H506 H 0.13743 0.31398 0.27348
 H507 H 0.06135 0.42317 0.28886
 H508 H 0.07745 0.43830 0.20868
 H509 H 0.10412 0.34735 0.27303
 H510 H 0.09518 0.38984 0.28948
 H511 H 0.15331 0.39557 0.22578
 H512 H 0.11091 0.40458 0.20882
 C513 C 0.12562 0.62643 0.75016
 C514 C 0.12103 0.65029 0.73828
 C515 C 0.14026 0.66933 0.73806
 C516 C 0.16430 0.66518 0.75042
 C517 C 0.16852 0.64119 0.76271
 C518 C 0.14950 0.62190 0.76221
 C519 C 0.10545 0.60628 0.75001
 C520 C 0.10832 0.58426 0.73448
 C521 C 0.08911 0.56519 0.73424
 C522 C 0.06706 0.56757 0.75005
 C523 C 0.06429 0.58968 0.76559
 C524 C 0.08323 0.60903 0.76537
 H525 H 0.13584 0.68752 0.72876
 H526 H 0.18674 0.63687 0.77212
 H527 H 0.09149 0.54847 0.72187
 H528 H 0.04748 0.59189 0.77795
 H529 H 0.15333 0.60347 0.77138
 H530 H 0.12532 0.58198 0.72240
 H531 H 0.10258 0.65408 0.72901
 H532 H 0.08075 0.62597 0.77742
 C533 C -0.12700 0.62674 0.24830
 C534 C -0.14949 0.62420 0.23318
 C535 C -0.16844 0.64354 0.23310
 C536 C -0.16567 0.66585 0.24851
 C537 C -0.14316 0.66821 0.26377
 C538 C -0.12405 0.64905 0.26350
 C539 C -0.10667 0.60626 0.24819
 C540 C -0.09284 0.60025 0.27087
 C541 C -0.07359 0.58122 0.27068
 C542 C -0.06796 0.56775 0.24790
 C543 C -0.08172 0.57343 0.22529
 C544 C -0.10084 0.59259 0.22538
 H545 H -0.18548 0.64050 0.22132
 H546 H -0.13976 0.68511 0.27560
 H547 H -0.06315 0.57688 0.28830
 H548 H -0.07748 0.56315 0.20756
 H549 H -0.10673 0.65198 0.27495
 H550 H -0.09707 0.61003 0.28887
 H551 H -0.15270 0.60704 0.22163
 H552 H -0.11075 0.59695 0.20749
 C553 C -0.12650 0.37417 0.75160
 C554 C -0.15063 0.37847 0.76322
 C555 C -0.16949 0.35903 0.76328
 C556 C -0.16485 0.33511 0.75099
 C557 C -0.14064 0.33124 0.73890
 C558 C -0.12155 0.35043 0.73959
 C559 C -0.10647 0.39447 0.75196
 C560 C -0.08426 0.39157 0.76731
 C561 C -0.06532 0.41091 0.76777
 C562 C -0.06804 0.43314 0.75240
 C563 C -0.09023 0.43582 0.73685
 C564 C -0.10944 0.41676 0.73687
 H565 H -0.18789 0.36317 0.77244
 H566 H -0.13596 0.31313 0.72954
 H567 H -0.04847 0.40853 0.78003
 H568 H -0.09263 0.45270 0.72469
 H569 H -0.10293 0.34682 0.73060
 H570 H -0.08174 0.37446 0.77910
 H571 H -0.15475 0.39682 0.77247
 H572 H -0.12647 0.41921 0.72486
 C573 C 0.25003 0.12599 0.37440
 C574 C 0.26352 0.12218 0.35111
 C575 C 0.26358 0.14128 0.33200
 C576 C 0.25007 0.16460 0.33569
 C577 C 0.23656 0.16840 0.35896
 C578 C 0.23659 0.14935 0.37810
 C579 C 0.24993 0.10567 0.39472
 C580 C 0.22731 0.10055 0.40905
 C581 C 0.22721 0.08144 0.42813
 C582 C 0.24967 0.06706 0.43313
 C583 C 0.27229 0.07200 0.41897
 C584 C 0.27245 0.09118 0.39995
 H585 H 0.27390 0.13755 0.31420
 H586 H 0.22624 0.18624 0.36261
 H587 H 0.20958 0.07769 0.43887
 H588 H 0.28980 0.06109 0.42277
 H589 H 0.22637 0.15309 0.39598
 H590 H 0.20955 0.11107 0.40526
 H591 H 0.27371 0.10425 0.34745
 H592 H 0.29028 0.09489 0.38956
 C593 C 0.75077 0.12587 0.62676
 C594 C 0.76542 0.14858 0.62355
 C595 C 0.76587 0.16751 0.64284
 C596 C 0.75161 0.16423 0.66573
 C597 C 0.73692 0.14156 0.66890
 C598 C 0.73655 0.12259 0.64968
 C599 C 0.75037 0.10565 0.60633
 C600 C 0.72730 0.09230 0.60051
 C601 C 0.72697 0.07319 0.58142
 C602 C 0.74963 0.06717 0.56777
 C603 C 0.77268 0.08037 0.57342
 C604 C 0.77306 0.09945 0.59255
 H605 H 0.77709 0.18489 0.63957
 H606 H 0.72595 0.13822 0.68640
 H607 H 0.70901 0.06319 0.57714
 H608 H 0.79034 0.07581 0.56306
 H609 H 0.72542 0.10514 0.65296
 H610 H 0.70941 0.09687 0.61047
 H611 H 0.77624 0.15192 0.60595
 H612 H 0.79121 0.10909 0.59679
 C613 C 0.24932 -0.12642 0.62649
 C614 C 0.23535 -0.14952 0.62310
 C615 C 0.23500 -0.16836 0.64245
 C616 C 0.24873 -0.16462 0.66559
 C617 C 0.26283 -0.14162 0.66894
 C618 C 0.26306 -0.12271 0.64966
 C619 C 0.24943 -0.10621 0.60605
 C620 C 0.27208 -0.09196 0.60074
 C621 C 0.27205 -0.07275 0.58175
 C622 C 0.24944 -0.06755 0.56767
 C623 C 0.22686 -0.08174 0.57271
 C624 C 0.22682 -0.10086 0.59177
 H625 H 0.22427 -0.18602 0.63906
 H626 H 0.27337 -0.13797 0.68664
 H627 H 0.28966 -0.06200 0.57791
 H628 H 0.20924 -0.07781 0.56201
 H629 H 0.27366 -0.10497 0.65310
 H630 H 0.28992 -0.09585 0.61106
 H631 H 0.22495 -0.15323 0.60532
 H632 H 0.20896 -0.11119 0.59560
 C633 C 0.75012 -0.12617 0.37385
 C634 C 0.73376 -0.12384 0.35226
 C635 C 0.73364 -0.14282 0.33303
 C636 C 0.74987 -0.16459 0.33492
 C637 C 0.76615 -0.16693 0.35659
 C638 C 0.76628 -0.14794 0.37579
 C639 C 0.75037 -0.10595 0.39423
 C640 C 0.77390 -0.09799 0.40548
 C641 C 0.77415 -0.07899 0.42468
 C642 C 0.75091 -0.06770 0.43297
 C643 C 0.72738 -0.07553 0.42190
 C644 C 0.72710 -0.09449 0.40265
 H645 H 0.72103 -0.14017 0.31655
 H646 H 0.77866 -0.18354 0.35897
 H647 H 0.79245 -0.07302 0.43305
 H648 H 0.70929 -0.06697 0.42822
 H649 H 0.77881 -0.15050 0.39238
 H650 H 0.79215 -0.10620 0.39918
 H651 H 0.72133 -0.10711 0.35003
 H652 H 0.70866 -0.10043 0.39460
 C653 C 0.62673 0.74819 -0.12644
 C654 C 0.62280 0.76181 -0.14960
 C655 C 0.64169 0.76171 -0.16894
 C656 C 0.66493 0.74790 -0.16565
 C657 C 0.66887 0.73424 -0.14253
 C658 C 0.65002 0.73444 -0.12312
 C659 C 0.60655 0.74824 -0.10594
 C660 C 0.60121 0.72565 -0.09174
 C661 C 0.58203 0.72564 -0.07267
 C662 C 0.56784 0.74816 -0.06755
 C663 C 0.57307 0.77075 -0.08151
 C664 C 0.59231 0.77082 -0.10052
 H665 H 0.63786 0.77218 -0.18662
 H666 H 0.68668 0.72369 -0.13919
 H667 H 0.57808 0.70805 -0.06203
 H668 H 0.56231 0.78830 -0.07759
 H669 H 0.65385 0.72410 -0.10534
 H670 H 0.61155 0.70786 -0.09567
 H671 H 0.60491 0.77224 -0.15297
 H672 H 0.59621 0.78863 -0.11079
 C673 C 0.37367 0.25126 -0.12612
 C674 C 0.37762 0.23804 -0.14950
 C675 C 0.35838 0.23773 -0.16850
 C676 C 0.33477 0.25073 -0.16461
 C677 C 0.33086 0.26411 -0.14130
 C678 C 0.35008 0.26433 -0.12225
 C679 C 0.39402 0.25128 -0.10581
 C680 C 0.39907 0.27373 -0.09128
 C681 C 0.41819 0.27367 -0.07214
 C682 C 0.43258 0.25122 -0.06730
 C683 C 0.42772 0.22882 -0.08169
 C684 C 0.40856 0.22881 -0.10077
 H685 H 0.36222 0.22757 -0.18636
 H686 H 0.31281 0.27407 -0.13752
 H687 H 0.42186 0.29112 -0.06117
 H688 H 0.43865 0.21131 -0.07799
 H689 H 0.34627 0.27438 -0.10430
 H690 H 0.38849 0.29144 -0.09492
 H691 H 0.39575 0.22818 -0.15328
 H692 H 0.40488 0.21111 -0.11131
 C693 C 0.37411 0.74938 0.12572
 C694 C 0.37815 0.76290 0.14892
 C695 C 0.35912 0.76316 0.16813
 C696 C 0.33562 0.74984 0.16462
 C697 C 0.33161 0.73625 0.14145
 C698 C 0.35061 0.73605 0.12221
 C699 C 0.39432 0.74917 0.10527
 C700 C 0.39943 0.72650 0.09110
 C701 C 0.41852 0.72630 0.07194
 C702 C 0.43284 0.74870 0.06671
 C703 C 0.42785 0.77137 0.08066
 C704 C 0.40871 0.77163 0.09977
 H705 H 0.36303 0.77354 0.18586
 H706 H 0.31363 0.72605 0.13794
 H707 H 0.42230 0.70865 0.06133
 H708 H 0.43873 0.78883 0.07667
 H709 H 0.34673 0.72578 0.10441
 H710 H 0.38895 0.70881 0.09510
 H711 H 0.39622 0.77299 0.15241
 H712 H 0.40498 0.78949 0.11003
 C713 C 0.62577 0.25117 0.12626
 C714 C 0.64939 0.26421 0.12255
 C715 C 0.66846 0.26400 0.14173
 C716 C 0.66437 0.25068 0.16503
 C717 C 0.64072 0.23770 0.16877
 C718 C 0.62163 0.23798 0.14963
 C719 C 0.60559 0.25119 0.10579
 C720 C 0.59111 0.22870 0.10061
 C721 C 0.57214 0.22870 0.08136
 C722 C 0.56740 0.25110 0.06694
 C723 C 0.58174 0.27355 0.07192
 C724 C 0.60067 0.27363 0.09123
 H725 H 0.68655 0.27394 0.13806
 H726 H 0.63676 0.22756 0.18661
 H727 H 0.56123 0.21120 0.07758
 H728 H 0.57813 0.29101 0.06094
 H729 H 0.60346 0.22814 0.15327
 H730 H 0.59470 0.21101 0.11119
 H731 H 0.65335 0.27421 0.10461
 H732 H 0.61122 0.29134 0.09498
 C733 C -0.12587 0.62635 0.75075
 C734 C -0.14982 0.62196 0.76270
 C735 C -0.16876 0.64131 0.76299
 C736 C -0.16438 0.66520 0.75059
 C737 C -0.14029 0.66921 0.73829
 C738 C -0.12113 0.65011 0.73873
 C739 C -0.10580 0.60614 0.75084
 C740 C -0.08316 0.60938 0.76547
 C741 C -0.06426 0.59002 0.76585
 C742 C -0.06747 0.56742 0.75111
 C743 C -0.09002 0.56447 0.73612
 C744 C -0.10920 0.58355 0.73626
 H745 H -0.18702 0.63710 0.77235
 H746 H -0.13579 0.68733 0.72888
 H747 H -0.04710 0.59263 0.77763
 H748 H -0.09277 0.54733 0.72441
 H749 H -0.10264 0.65378 0.72950
 H750 H -0.08031 0.62674 0.77683
 H751 H -0.15376 0.60360 0.77198
 H752 H -0.12656 0.58087 0.72478
 C753 C -0.12657 0.37413 0.24896
 C754 C -0.15002 0.37753 0.23555
 C755 C -0.16889 0.35814 0.23557
 C756 C -0.16477 0.33493 0.24907
 C757 C -0.14135 0.33155 0.26252
 C758 C -0.12245 0.35090 0.26242
 C759 C -0.10644 0.39466 0.24884
 C760 C -0.09217 0.40022 0.27134
 C761 C -0.07303 0.41934 0.27114
 C762 C -0.06792 0.43323 0.24849
 C763 C -0.08213 0.42794 0.22606
 C764 C -0.10122 0.40878 0.22620
 H765 H -0.18684 0.36154 0.22530
 H766 H -0.13738 0.31379 0.27283
 H767 H -0.06223 0.42338 0.28862
 H768 H -0.07824 0.43852 0.20842
 H769 H -0.10441 0.34750 0.27257
 H770 H -0.09598 0.38998 0.28917
 H771 H -0.15396 0.39537 0.22534
 H772 H -0.11161 0.40472 0.20848
 C773 C 0.12550 0.37445 0.75091
 C774 C 0.12519 0.35488 0.73213
 C775 C 0.14418 0.33561 0.73204
 C776 C 0.16405 0.33551 0.75067
 C777 C 0.16436 0.35523 0.76941
 C778 C 0.14527 0.37443 0.76956
 C779 C 0.10522 0.39479 0.75106
 C780 C 0.09373 0.40269 0.77441
 C781 C 0.07449 0.42171 0.77451
 C782 C 0.06660 0.43323 0.75133
 C783 C 0.07805 0.42557 0.72802
 C784 C 0.09714 0.40639 0.72785
 H785 H 0.14307 0.32078 0.71738
 H786 H 0.17935 0.35604 0.78398
 H787 H 0.06577 0.42752 0.79264
 H788 H 0.07215 0.43444 0.71000
 H789 H 0.14618 0.38948 0.78407
 H790 H 0.09939 0.39391 0.79253
 H791 H 0.10999 0.35424 0.71771
 H792 H 0.10583 0.40088 0.70963
 C793 C 0.12624 0.62634 0.24910
 C794 C 0.12656 0.64537 0.26846
 C795 C 0.14573 0.66446 0.26869
 C796 C 0.16509 0.66502 0.24956
 C797 C 0.16476 0.64592 0.23021
 C798 C 0.14557 0.62684 0.22998
 C799 C 0.10582 0.60610 0.24884
 C800 C 0.09724 0.59481 0.27205
 C801 C 0.07794 0.57586 0.27181
 C802 C 0.06706 0.56773 0.24838
 C803 C 0.07551 0.57885 0.22519
 C804 C 0.09468 0.59793 0.22541
 H805 H 0.14516 0.67877 0.28390
 H806 H 0.17930 0.64552 0.21518
 H807 H 0.07160 0.56735 0.28985
 H808 H 0.06709 0.57284 0.20698
 H809 H 0.14607 0.61225 0.21498
 H810 H 0.10568 0.60039 0.29036
 H811 H 0.11175 0.64574 0.28328
 H812 H 0.10054 0.60654 0.20727
 C813 C 0.75087 -0.12618 0.62657
 C814 C 0.73668 -0.12280 0.64950
 C815 C 0.73701 -0.14173 0.66874
 C816 C 0.75163 -0.16443 0.66557
 C817 C 0.76587 -0.16782 0.64267
 C818 C 0.76545 -0.14893 0.62337
 C819 C 0.75048 -0.10604 0.60611
 C820 C 0.77318 -0.09989 0.59232
 C821 C 0.77280 -0.08087 0.57317
 C822 C 0.74976 -0.06767 0.56752
 C823 C 0.72709 -0.07364 0.58116
 C824 C 0.72741 -0.09271 0.60027
 H825 H 0.72607 -0.13833 0.68625
 H826 H 0.77704 -0.18523 0.63942
 H827 H 0.79047 -0.07633 0.56280
 H828 H 0.70915 -0.06363 0.57687
 H829 H 0.77625 -0.15234 0.60576
 H830 H 0.79132 -0.10954 0.59657
 H831 H 0.72560 -0.10532 0.65276
 H832 H 0.70953 -0.09725 0.61024
 C833 C 0.25043 -0.12619 0.37445
 C834 C 0.23716 -0.14965 0.37812
 C835 C 0.23722 -0.16862 0.35892
 C836 C 0.25064 -0.16464 0.33563
 C837 C 0.26397 -0.14123 0.33197
 C838 C 0.26382 -0.12220 0.35114
 C839 C 0.25026 -0.10597 0.39483
 C840 C 0.27274 -0.09147 0.40013
 C841 C 0.27250 -0.07235 0.41919
 C842 C 0.24985 -0.06749 0.43331
 C843 C 0.22742 -0.08190 0.42826
 C844 C 0.22759 -0.10096 0.40913
 H845 H 0.22705 -0.18655 0.36254
 H846 H 0.27421 -0.13737 0.31415
 H847 H 0.28998 -0.06139 0.42304
 H848 H 0.20977 -0.07821 0.43899
 H849 H 0.27386 -0.10418 0.34754
 H850 H 0.29059 -0.09512 0.38975
 H851 H 0.22702 -0.15351 0.39602
 H852 H 0.20987 -0.11151 0.40528
 C853 C 0.75022 0.12581 0.37431
 C854 C 0.76908 0.14539 0.37419
 C855 C 0.76890 0.16451 0.35515
 C856 C 0.74987 0.16451 0.33567
 C857 C 0.73099 0.14486 0.33583
 C858 C 0.73115 0.12577 0.35493
 C859 C 0.75043 0.10553 0.39458
 C860 C 0.72712 0.09707 0.40590
 C861 C 0.72738 0.07808 0.42508
 C862 C 0.75092 0.06726 0.43321
 C863 C 0.77420 0.07552 0.42199
 C864 C 0.77398 0.09453 0.40283
 H865 H 0.78371 0.17928 0.35590
 H866 H 0.71607 0.14401 0.32120
 H867 H 0.70928 0.07184 0.43367
 H868 H 0.79248 0.06720 0.42806
 H869 H 0.71654 0.11074 0.35432
 H870 H 0.70873 0.10540 0.40018
 H871 H 0.78382 0.14614 0.38907
 H872 H 0.79220 0.10040 0.39424
 C873 C 0.24996 0.12628 0.62589
 C874 C 0.26333 0.12251 0.64924
 C875 C 0.26342 0.14169 0.66825
 C876 C 0.25006 0.16505 0.66440
 C877 C 0.23665 0.16882 0.64108
 C878 C 0.23664 0.14968 0.62202
 C879 C 0.24986 0.10588 0.60567
 C880 C 0.22724 0.10071 0.59136
 C881 C 0.22716 0.08149 0.57239
 C882 C 0.24962 0.06707 0.56750
 C883 C 0.27222 0.07208 0.58164
 C884 C 0.27238 0.09136 0.60055
 H885 H 0.27366 0.13798 0.68611
 H886 H 0.22644 0.18670 0.63732
 H887 H 0.20955 0.07771 0.56162
 H888 H 0.28974 0.06114 0.57790
 H889 H 0.22650 0.15337 0.60409
 H890 H 0.20950 0.11128 0.59507
 H891 H 0.27340 0.10453 0.65300
 H892 H 0.29020 0.09513 0.61094
   
