data_POSCAR
  _audit_creation_date              2014-09-24
  _audit_creation_method            'ToBaCCo'
  _symmetry_space_group_name_H-M    'P1'
  _symmetry_Int_Tables_number       1
  _symmetry_cell_setting            triclinic
  loop_
  _symmetry_equiv_pos_as_xyz
 x,y,z
_cell_length_a 26.7298
_cell_length_b 26.7594
_cell_length_c 14.2774
_cell_angle_alpha 89.996300
_cell_angle_beta 89.986600
_cell_angle_gamma 119.907200
loop_
  _atom_site_label
  _atom_site_type_symbol
  _atom_site_fract_x
  _atom_site_fract_y
  _atom_site_fract_z
C1 C 0.39217 0.82166 0.45433
 C2 C 0.39288 0.82157 0.55046
 C3 C 0.43239 0.87736 0.57814
 N4 N 0.45604 0.91117 0.50214
 C5 C 0.43128 0.87742 0.42644
 C6 C 0.44864 0.89533 0.67174
 C7 C 0.48505 0.95349 0.69873
 C8 C 0.50936 0.97113 0.78704
 C9 C 0.53826 1.03037 0.78709
 C10 C 0.53105 1.04759 0.69876
 N11 N 0.49827 1.00042 0.64565
 C12 C 0.55172 1.10553 0.67152
 C13 C 0.55471 1.12339 0.57752
 C14 C 0.57165 1.17922 0.54901
 C15 C 0.57250 1.17907 0.45289
 C16 C 0.55594 1.12318 0.42581
 N17 N 0.54558 1.08945 0.50202
 C18 C 0.55405 1.10504 0.33244
 C19 C 0.53210 1.04699 0.30553
 C20 C 0.53850 1.02932 0.21714
 C21 C 0.50791 0.97007 0.21710
 C22 C 0.48371 0.95306 0.30552
 N23 N 0.49837 1.00021 0.35872
 C24 C 0.44631 0.89534 0.33268
 H25 H 0.36638 0.78473 0.41008
 H26 H 0.36768 0.78455 0.59489
 H27 H 0.48078 1.00052 0.42334
 H28 H 0.50605 0.94409 0.84583
 H29 H 0.56155 1.05768 0.84584
 H30 H 0.58298 1.21635 0.59292
 H31 H 0.58449 1.21600 0.40812
 H32 H 0.50360 0.94267 0.15829
 H33 H 0.48037 1.00026 0.58110
 H34 H 0.56218 1.05630 0.15829
 C35 C -0.18086 0.42744 0.45095
 C36 C -0.18083 0.42681 0.54709
 C37 C -0.12487 0.44342 0.57464
 N38 N -0.09104 0.45360 0.49850
 C39 C -0.12494 0.44432 0.42275
 C40 C -0.10671 0.44555 0.66831
 C41 C -0.04840 0.46777 0.69518
 C42 C -0.03040 0.46158 0.78356
 C43 C 0.02890 0.49236 0.78339
 C44 C 0.04572 0.51650 0.69494
 N45 N -0.00164 0.50160 0.64189
 C46 C 0.10349 0.55394 0.66756
 C47 C 0.12127 0.56896 0.57381
 C48 C 0.17703 0.60813 0.54564
 C49 C 0.17699 0.60722 0.44952
 C50 C 0.12120 0.56759 0.42228
 N51 N 0.08743 0.54400 0.49834
 C52 C 0.10324 0.55113 0.32899
 C53 C 0.04523 0.51449 0.30202
 C54 C 0.02792 0.49017 0.21378
 C55 C -0.03139 0.46091 0.21357
 C56 C -0.04888 0.46802 0.30180
 N57 N -0.00184 0.50102 0.35499
 C58 C -0.10692 0.44724 0.32879
 H59 H -0.21795 0.41607 0.40682
 H60 H -0.21788 0.41495 0.59162
 H61 H -0.00188 0.51894 0.41941
 H62 H -0.05725 0.43788 0.84253
 H63 H 0.05647 0.49683 0.84207
 H64 H 0.21404 0.63407 0.58970
 H65 H 0.21395 0.63237 0.40487
 H66 H -0.05857 0.43752 0.15475
 H67 H -0.00212 0.51905 0.57723
 H68 H 0.05517 0.49368 0.15515
 C69 C 0.42976 0.60862 0.45406
 C70 C 0.42915 0.60812 0.55020
 C71 C 0.44556 0.56864 0.57802
 N72 N 0.45562 0.54480 0.50209
 C73 C 0.44644 0.56942 0.42630
 C74 C 0.44745 0.55256 0.67169
 C75 C 0.46918 0.51604 0.69875
 C76 C 0.46252 0.49177 0.78710
 C77 C 0.49276 0.46266 0.78716
 C78 C 0.51714 0.46971 0.69879
 N79 N 0.50279 0.50260 0.64565
 C80 C 0.55435 0.44884 0.67157
 C81 C 0.56931 0.44588 0.57760
 C82 C 0.60828 0.42890 0.54916
 C83 C 0.60738 0.42813 0.45303
 C84 C 0.56802 0.44476 0.42589
 N85 N 0.54454 0.45510 0.50207
 C86 C 0.55181 0.44670 0.33252
 C87 C 0.51553 0.46858 0.30558
 C88 C 0.49142 0.46211 0.21722
 C89 C 0.46256 0.49261 0.21715
 C90 C 0.46970 0.51685 0.30551
 N91 N 0.50233 0.50227 0.35872
 C92 C 0.44921 0.55423 0.33260
 H93 H 0.41849 0.63433 0.40973
 H94 H 0.41737 0.63344 0.59455
 H95 H 0.52022 0.51989 0.42328
 H96 H 0.43885 0.49523 0.84590
 H97 H 0.49678 0.43934 0.84594
 H98 H 0.63408 0.41752 0.59311
 H99 H 0.63241 0.41615 0.40830
 H100 H 0.43939 0.49687 0.15836
 H101 H 0.52049 0.52040 0.58105
 H102 H 0.49481 0.43844 0.15842
 O103 O 0.42122 0.65458 -0.07994
 O104 O 0.41852 0.74955 -0.10839
 C105 C 0.39105 0.77571 -0.12544
 O106 O 0.34675 0.76747 -0.07996
 O107 O 0.25183 0.67002 -0.10913
 C108 C 0.22574 0.61650 -0.12623
 O109 O 0.23403 0.58046 -0.08087
 O110 O 0.33175 0.58293 -0.10871
 C111 C 0.38535 0.61038 -0.12556
 O112 O 0.41828 0.66997 0.10640
 O113 O 0.42046 0.76725 0.07802
 C114 C 0.38415 0.77496 0.12382
 O115 O 0.33065 0.74892 0.10626
 O116 O 0.23337 0.65409 0.07690
 C117 C 0.22528 0.60994 0.12242
 O118 O 0.25162 0.58265 0.10552
 O119 O 0.34689 0.58041 0.07780
 C120 C 0.39082 0.61650 0.12374
 Cr121 Cr 0.41639 0.70871 -0.00103
 Cr122 Cr 0.29230 0.70853 -0.00150
 Cr123 Cr 0.29269 0.58484 -0.00159
 O124 O 0.33379 0.66735 -0.00147
 O125 O 0.57979 0.34625 -0.07998
 O126 O 0.58239 0.25123 -0.10842
 C127 C 0.60985 0.22507 -0.12556
 O128 O 0.65415 0.23327 -0.08016
 O129 O 0.74907 0.33070 -0.10911
 C130 C 0.77492 0.38416 -0.12663
 O131 O 0.76692 0.42024 -0.08078
 O132 O 0.66932 0.41788 -0.10854
 C133 C 0.61575 0.39047 -0.12550
 O134 O 0.58254 0.33072 0.10639
 O135 O 0.58028 0.23342 0.07796
 C136 C 0.61652 0.22557 0.12369
 O137 O 0.67002 0.25153 0.10613
 O138 O 0.76735 0.34638 0.07734
 C139 C 0.77511 0.39029 0.12331
 O140 O 0.74909 0.41782 0.10587
 O141 O 0.65402 0.42026 0.07792
 C142 C 0.61003 0.38418 0.12379
 Cr143 Cr 0.58448 0.29203 -0.00106
 Cr144 Cr 0.70854 0.29209 -0.00148
 Cr145 Cr 0.70825 0.41582 -0.00140
 O146 O 0.66708 0.33331 -0.00141
 C147 C 0.42897 0.85395 -0.25965
 C148 C 0.41170 0.81793 -0.19875
 C149 C 0.14731 0.57653 -0.26010
 C150 C 0.18343 0.59505 -0.19939
 C151 C 0.42583 0.57242 -0.25972
 C152 C 0.40709 0.58979 -0.19884
 C153 C 0.57169 0.14688 -0.25983
 C154 C 0.58913 0.18287 -0.19889
 C155 C 0.85208 0.42400 -0.26270
 C156 C 0.81650 0.40550 -0.20103
 C157 C 0.57564 0.42871 -0.25976
 C158 C 0.59416 0.41118 -0.19882
 C159 C 0.85198 0.42749 0.25968
 C160 C 0.81656 0.41044 0.19783
 C161 C 0.57685 0.14853 0.25961
 C162 C 0.59530 0.18403 0.19798
 C163 C 0.57263 0.42394 0.25971
 C164 C 0.58974 0.40549 0.19809
 C165 C 0.14700 0.57194 0.25655
 C166 C 0.18302 0.58925 0.19567
 C167 C 0.42363 0.85188 0.25985
 C168 C 0.40527 0.81642 0.19819
 C169 C 0.42827 0.57681 0.25972
 C170 C 0.41112 0.59520 0.19805
   
