data_POSCAR
  _audit_creation_date              2014-09-24
  _audit_creation_method            'ToBaCCo'
  _symmetry_space_group_name_H-M    'P1'
  _symmetry_Int_Tables_number       1
  _symmetry_cell_setting            triclinic
  loop_
  _symmetry_equiv_pos_as_xyz
 x,y,z
_cell_length_a 20.7127
_cell_length_b 20.7037
_cell_length_c 20.7490
_cell_angle_alpha 91.967900
_cell_angle_beta 89.878400
_cell_angle_gamma 92.911400
loop_
  _atom_site_label
  _atom_site_type_symbol
  _atom_site_fract_x
  _atom_site_fract_y
  _atom_site_fract_z
C1 C 0.00245 0.50686 0.25009
 C2 C 0.00030 0.49268 0.74848
 C3 C 0.24808 -0.01051 0.50028
 C4 C 0.75156 0.01117 0.50243
 C5 C 0.51096 0.25193 0.99045
 C6 C 0.48633 0.74866 1.00679
 B7 B 0.99933 1.06579 0.04495
 B8 B 1.03886 1.00113 0.06829
 B9 B 0.95704 0.99800 0.06749
 B10 B 0.93302 1.03818 0.00236
 B11 B 1.00069 1.06626 -0.03675
 B12 B 1.06577 1.04296 0.00390
 B13 B 0.99771 0.93296 -0.04098
 B14 B 0.95855 0.99845 -0.06485
 B15 B 1.04021 1.00060 -0.06425
 B16 B 1.06431 0.96117 0.00076
 B17 B 0.99703 0.93321 0.04029
 B18 B 0.93153 0.95647 -0.00022
 B19 B 0.56768 0.49987 0.45745
 B20 B 0.56807 0.50171 0.53896
 B21 B 0.54530 0.56688 0.49937
 B22 B 0.50282 0.53982 0.43313
 B23 B 0.49960 0.45815 0.43168
 B24 B 0.53965 0.43410 0.49724
 B25 B 0.43535 0.49994 0.53973
 B26 B 0.43503 0.49901 0.45836
 B27 B 0.45819 0.43316 0.49755
 B28 B 0.49995 0.46062 0.56409
 B29 B 0.50381 0.54244 0.56543
 B30 B 0.46355 0.56645 0.50029
 C31 C 0.99430 1.32523 0.15053
 N32 N 1.04564 1.36763 0.14271
 N33 N 1.04591 1.42695 0.16979
 C34 C 0.99522 1.44582 0.20648
 N35 N 0.94252 1.40425 0.21095
 N36 N 0.94194 1.34528 0.18334
 C37 C 0.99645 1.25779 0.12725
 N38 N 0.94165 1.21912 0.12453
 N39 N 0.94329 1.15804 0.10274
 C40 C 0.99987 1.13266 0.08442
 N41 N 1.05492 1.17112 0.08862
 N42 N 1.05332 1.23247 0.10984
 C43 C 1.00726 0.68162 0.14972
 N44 N 1.05319 0.67136 0.19405
 N45 N 1.05443 0.61484 0.22248
 C46 C 1.00996 0.56601 0.20791
 N47 N 0.96527 0.57577 0.16166
 N48 N 0.96410 0.63237 0.13297
 C49 C 1.00275 0.74606 0.12322
 N50 N 0.96015 0.75645 0.07560
 N51 N 0.95686 0.81508 0.05169
 C52 C 0.99544 0.86569 0.07473
 N53 N 1.03683 0.85536 0.12339
 N54 N 1.04043 0.79676 0.14722
 C55 C 1.00949 1.31477 -0.15716
 N56 N 0.99950 1.37020 -0.12216
 N57 N 0.99813 1.42692 -0.15079
 C58 C 1.00669 1.43024 -0.21561
 N59 N 1.01639 1.37450 -0.25016
 N60 N 1.01815 1.31811 -0.22163
 C61 C 1.00864 1.25170 -0.12663
 N62 N 1.02468 1.19755 -0.16070
 N63 N 1.02234 1.14008 -0.13338
 C64 C 1.00325 1.13435 -0.07114
 N65 N 0.98733 1.18872 -0.03753
 N66 N 0.98995 1.24619 -0.06446
 C67 C 0.99096 0.67112 -0.14604
 N68 N 0.94033 0.64791 -0.18259
 N69 N 0.94152 0.58997 -0.21219
 C70 C 0.99303 0.55225 -0.20617
 N71 N 1.04198 0.57417 -0.16617
 N72 N 1.04118 0.63263 -0.13710
 C73 C 0.99297 0.73836 -0.12071
 N74 N 1.04963 0.76858 -0.10144
 N75 N 1.05153 0.83012 -0.08026
 C76 C 0.99714 0.86412 -0.07780
 N77 N 0.94056 0.83369 -0.09730
 N78 N 0.93862 0.77236 -0.11915
 C79 C 1.15166 0.98817 0.32118
 N80 N 1.12995 1.02401 0.37212
 N81 N 1.15700 1.02102 0.43020
 C82 C 1.20617 0.98126 0.43987
 N83 N 1.22694 0.94491 0.38875
 N84 N 1.19996 0.94785 0.33087
 C85 C 1.12534 0.99429 0.25601
 N86 N 1.14881 0.95933 0.20537
 N87 N 1.12411 0.96347 0.14650
 C88 C 1.07510 1.00284 0.13589
 N89 N 1.05314 1.03931 0.18626
 N90 N 1.07776 1.03522 0.24515
 C91 C 1.14950 1.00165 -0.32054
 N92 N 1.19267 1.04940 -0.33754
 N93 N 1.22061 1.04760 -0.39533
 C94 C 1.20679 0.99814 -0.43882
 N95 N 1.16123 0.95184 -0.42252
 N96 N 1.13319 0.95356 -0.36459
 C97 C 1.12346 1.00059 -0.25458
 N98 N 1.08144 0.95213 -0.23680
 N99 N 1.05802 0.95125 -0.17702
 C100 C 1.07585 0.99832 -0.13238
 N101 N 1.11884 1.04607 -0.15001
 N102 N 1.14240 1.04712 -0.20983
 C103 C 0.84877 1.01169 0.32308
 N104 N 0.80954 1.05992 0.33992
 N105 N 0.78233 1.06239 0.39802
 C106 C 0.79345 1.01702 0.44201
 N107 N 0.83511 0.97030 0.42587
 N108 N 0.86224 0.96771 0.36757
 C109 C 0.87360 1.00596 0.25692
 N110 N 0.90936 0.95559 0.23790
 N111 N 0.93229 0.95132 0.17795
 C112 C 0.92003 0.99687 0.13458
 N113 N 0.88306 1.04630 0.15345
 N114 N 0.85998 1.05064 0.21328
 C115 C 0.85489 1.00149 -0.32203
 N116 N 0.82494 0.94762 -0.34914
 N117 N 0.79575 0.94989 -0.40599
 C118 C 0.79528 1.00596 -0.43837
 N119 N 0.82965 1.05858 -0.41310
 N120 N 0.85824 1.05662 -0.35573
 C121 C 0.87947 1.00074 -0.25584
 N122 N 0.89062 1.05669 -0.22083
 N123 N 0.91170 1.05567 -0.16029
 C124 C 0.92248 0.99887 -0.13236
 N125 N 0.91033 0.94301 -0.16730
 N126 N 0.88856 0.94380 -0.22758
 C127 C 1.32533 1.15684 -0.00094
 N128 N 1.34544 1.18705 -0.05472
 N129 N 1.40528 1.21284 -0.05880
 C130 C 1.44818 1.20947 -0.00954
 N131 N 1.42850 1.17723 0.04374
 N132 N 1.36833 1.15112 0.04779
 C133 C 1.25759 1.13238 0.00389
 N134 N 1.23705 1.09598 0.05373
 N135 N 1.17639 1.07133 0.05534
 C136 C 1.13378 1.08236 0.00763
 N137 N 1.15380 1.12094 -0.04072
 N138 N 1.21448 1.14542 -0.04259
 C139 C 0.68633 1.15499 -0.00579
 N140 N 0.62995 1.12254 0.01002
 N141 N 0.57375 1.15147 0.00790
 C142 C 0.57230 1.21397 -0.00997
 N143 N 0.62906 1.24602 -0.02483
 N144 N 0.68469 1.21711 -0.02334
 C145 C 0.74884 1.12496 -0.00347
 N146 N 0.80152 1.15358 -0.03195
 N147 N 0.85886 1.12744 -0.02957
 C148 C 0.86599 1.07222 0.00228
 N149 N 0.81322 1.04402 0.03110
 N150 N 0.75570 1.06969 0.02828
 C151 C 1.31055 0.84447 0.00216
 N152 N 1.36738 0.87903 -0.00683
 N153 N 1.42369 0.85036 -0.00445
 C154 C 1.42469 0.78607 0.00673
 N155 N 1.36749 0.75199 0.01445
 N156 N 1.31176 0.78059 0.01291
 C157 C 1.24812 0.87427 0.00088
 N158 N 1.19595 0.84482 0.02938
 N159 N 1.13863 0.87100 0.02864
 C160 C 1.13108 0.92712 -0.00146
 N161 N 1.18305 0.95562 -0.03135
 N162 N 1.24066 0.92998 -0.02995
 C163 C 0.67003 0.84793 0.00583
 N164 N 0.63088 0.84823 -0.04663
 N165 N 0.57113 0.82096 -0.04510
 C166 C 0.54809 0.79240 0.00904
 N167 N 0.58684 0.79461 0.06207
 N168 N 0.64635 0.82191 0.06059
 C169 C 0.73785 0.87250 0.00303
 N170 N 0.77655 0.87082 0.05564
 N171 N 0.83784 0.89353 0.05362
 C172 C 0.86320 0.91794 -0.00137
 N173 N 0.82453 0.91886 -0.05411
 N174 N 0.76322 0.89619 -0.05218
 C175 C 0.82427 0.51021 0.34979
 N176 N 0.86601 0.46331 0.36071
 N177 N 0.92394 0.46450 0.33253
 C178 C 0.94222 0.51248 0.29207
 N179 N 0.90113 0.56069 0.28361
 N180 N 0.84347 0.55967 0.31197
 C181 C 0.75823 0.50625 0.37543
 N182 N 0.71810 0.55484 0.36615
 N183 N 0.65802 0.55153 0.38906
 C184 C 0.63526 0.49924 0.42123
 N185 N 0.67529 0.45022 0.42965
 N186 N 0.73554 0.45346 0.40698
 C187 C 0.17756 0.49858 0.35431
 N188 N 0.14281 0.55242 0.35877
 N189 N 0.08562 0.55377 0.32959
 C190 C 0.06160 0.50180 0.29370
 N191 N 0.09504 0.44686 0.29292
 N192 N 0.15174 0.44522 0.32255
 C193 C 0.24363 0.49891 0.37942
 N194 N 0.27426 0.44282 0.38336
 N195 N 0.33468 0.44310 0.40514
 C196 C 0.36738 0.49940 0.42247
 N197 N 0.33689 0.55549 0.41730
 N198 N 0.27627 0.55540 0.39608
 C199 C 0.82091 0.49075 0.65224
 N200 N 0.87226 0.52715 0.63025
 N201 N 0.93037 0.52454 0.65741
 C202 C 0.93959 0.48463 0.70696
 N203 N 0.88803 0.44783 0.72811
 N204 N 0.83013 0.45039 0.70102
 C205 C 0.75582 0.49626 0.62568
 N206 N 0.70479 0.46080 0.64951
 N207 N 0.64590 0.46443 0.62464
 C208 C 0.63569 0.50379 0.57514
 N209 N 0.68649 0.54065 0.55270
 N210 N 0.74541 0.53708 0.57748
 C211 C 0.17964 0.50353 0.64990
 N212 N 0.16559 0.54922 0.69533
 N213 N 0.10771 0.54829 0.72328
 C214 C 0.06117 0.50188 0.70707
 N215 N 0.07470 0.45766 0.65952
 N216 N 0.13271 0.45853 0.63144
 C217 C 0.24544 0.50122 0.62369
 N218 N 0.26013 0.45557 0.57839
 N219 N 0.31980 0.45389 0.55462
 C220 C 0.36727 0.49734 0.57538
 N221 N 0.35275 0.54197 0.62178
 N222 N 0.29307 0.54383 0.64563
 C223 C 0.49085 0.65131 0.18309
 N224 N 0.52678 0.63059 0.13213
 N225 N 0.52363 0.65874 0.07527
 C226 C 0.48386 0.70820 0.06724
 N227 N 0.44868 0.72860 0.11883
 N228 N 0.45156 0.70053 0.17516
 C229 C 0.49512 0.62340 0.24684
 N230 N 0.45637 0.64386 0.29553
 N231 N 0.45982 0.61940 0.35385
 C232 C 0.50279 0.57415 0.36600
 N233 N 0.54149 0.55380 0.31715
 N234 N 0.53801 0.57804 0.25873
 C235 C 0.49737 0.65543 0.82245
 N236 N 0.54316 0.64611 0.86769
 N237 N 0.53816 0.67195 0.92732
 C238 C 0.48673 0.70739 0.94411
 N239 N 0.44052 0.71472 0.89876
 N240 N 0.44553 0.68923 0.83952
 C241 C 0.50310 0.63085 0.75556
 N242 N 0.45972 0.64711 0.71062
 N243 N 0.46192 0.62256 0.65055
 C244 C 0.50748 0.58065 0.63310
 N245 N 0.55228 0.56631 0.67755
 N246 N 0.55033 0.59100 0.73762
 C247 C 0.50752 0.35234 0.17159
 N248 N 0.45613 0.35322 0.13100
 N249 N 0.45843 0.32549 0.07202
 C250 C 0.51233 0.29595 0.05130
 N251 N 0.56416 0.29739 0.09165
 N252 N 0.56195 0.32509 0.15027
 C253 C 0.50407 0.37711 0.23866
 N254 N 0.55534 0.37291 0.27874
 N255 N 0.55285 0.39508 0.33966
 C256 C 0.49864 0.42146 0.36323
 N257 N 0.44731 0.42527 0.32310
 N258 N 0.44968 0.40310 0.26215
 C259 C 0.50401 0.34447 0.81199
 N260 N 0.48209 0.37495 0.86632
 N261 N 0.48604 0.34774 0.92358
 C262 C 0.51262 0.28934 0.92835
 N263 N 0.53332 0.25900 0.87350
 N264 N 0.52985 0.28621 0.81677
 C265 C 0.50041 0.37284 0.74852
 N266 N 0.53290 0.34670 0.69789
 N267 N 0.53150 0.37267 0.64018
 C268 C 0.49711 0.42544 0.63072
 N269 N 0.46313 0.45039 0.68104
 N270 N 0.46487 0.42481 0.73898
 C271 C 0.65057 0.82852 0.49490
 N272 N 0.64375 0.86974 0.54648
 N273 N 0.67126 0.92936 0.54673
 C274 C 0.70741 0.94973 0.49574
 N275 N 0.71087 0.90931 0.44288
 N276 N 0.68285 0.85006 0.44235
 C277 C 0.62699 0.76069 0.49690
 N278 N 0.62433 0.72297 0.44215
 N279 N 0.60270 0.66142 0.44365
 C280 C 0.58452 0.63460 0.50005
 N281 N 0.58841 0.67220 0.55499
 N282 N 0.60950 0.73400 0.55355
 C283 C 0.65058 0.18436 0.50673
 N284 N 0.69559 0.17449 0.55212
 N285 N 0.72440 0.11859 0.55327
 C286 C 0.70965 0.06997 0.50926
 N287 N 0.66284 0.07933 0.46502
 N288 N 0.63373 0.13532 0.46392
 C289 C 0.62335 0.24824 0.50261
 N290 N 0.57469 0.25813 0.46103
 N291 N 0.55027 0.31626 0.45807
 C292 C 0.57379 0.36687 0.49600
 N293 N 0.62337 0.35705 0.53646
 N294 N 0.64770 0.29894 0.53974
 C295 C 0.34361 0.81332 0.50867
 N296 N 0.37789 0.86917 0.49557
 N297 N 0.34895 0.92536 0.49471
 C298 C 0.28454 0.92775 0.50691
 N299 N 0.25068 0.87155 0.51953
 N300 N 0.27955 0.81571 0.52090
 C301 C 0.37426 0.75072 0.50750
 N302 N 0.34198 0.69692 0.52921
 N303 N 0.36915 0.63986 0.52696
 C304 C 0.42939 0.63410 0.50226
 N305 N 0.46122 0.68803 0.48038
 N306 N 0.43445 0.74518 0.48299
 C307 C 0.35339 0.16980 0.49030
 N308 N 0.36294 0.13052 0.54016
 N309 N 0.33403 0.07147 0.54098
 C310 C 0.29361 0.04972 0.49240
 N311 N 0.28703 0.08828 0.44118
 N312 N 0.31648 0.14684 0.43997
 C313 C 0.37837 0.23754 0.49249
 N314 N 0.37954 0.27266 0.43842
 N315 N 0.40121 0.33439 0.44053
 C316 C 0.42080 0.36407 0.49702
 N317 N 0.41874 0.32893 0.55114
 N318 N 0.39776 0.26699 0.54906
   
