data_POSCAR
  _audit_creation_date              2014-09-24
  _audit_creation_method            'ToBaCCo'
  _symmetry_space_group_name_H-M    'P1'
  _symmetry_Int_Tables_number       1
  _symmetry_cell_setting            triclinic
  loop_
  _symmetry_equiv_pos_as_xyz
 x,y,z
_cell_length_a 35.3763
_cell_length_b 33.1417
_cell_length_c 36.3596
_cell_angle_alpha 87.455600
_cell_angle_beta 89.729300
_cell_angle_gamma 90.196700
loop_
  _atom_site_label
  _atom_site_type_symbol
  _atom_site_fract_x
  _atom_site_fract_y
  _atom_site_fract_z
C1 C 0.17080 0.20084 0.23708
 N2 N 0.19839 0.17238 0.24125
 C3 C 0.22662 0.17069 0.21569
 N4 N 0.22713 0.19742 0.18635
 C5 C 0.19980 0.22582 0.18215
 N6 N 0.17172 0.22742 0.20748
 C7 C 0.67655 0.71564 0.73652
 N8 N 0.69914 0.68250 0.73657
 C9 C 0.72403 0.67775 0.70845
 N10 N 0.72598 0.70598 0.68036
 C11 C 0.70364 0.73922 0.68022
 N12 N 0.67906 0.74406 0.70839
 C13 C 0.29890 0.79813 0.75192
 N14 N 0.26660 0.81845 0.75920
 C15 C 0.23700 0.81721 0.73562
 N16 N 0.23949 0.79515 0.70515
 C17 C 0.27164 0.77471 0.69780
 N18 N 0.30126 0.77621 0.72124
 C19 C 0.79255 0.26994 0.26345
 N20 N 0.79603 0.24532 0.23473
 C21 C 0.77574 0.25302 0.20356
 N22 N 0.75164 0.28482 0.20149
 C23 C 0.74784 0.30908 0.23019
 N24 N 0.76826 0.30153 0.26123
 C25 C 0.82115 0.70623 0.25804
 N26 N 0.79047 0.68175 0.25554
 C27 C 0.76145 0.68437 0.27998
 N28 N 0.76323 0.71142 0.30674
 C29 C 0.79378 0.73597 0.30935
 N30 N 0.82277 0.73326 0.28509
 C31 C 0.33293 0.19603 -0.22102
 N32 N 0.32845 0.22046 -0.19240
 C33 C 0.29321 0.23159 -0.18189
 N34 N 0.26240 0.21822 -0.20025
 C35 C 0.26717 0.19387 -0.22901
 N36 N 0.30235 0.18284 -0.23918
 C37 C 0.69611 0.25893 -0.24801
 N38 N 0.69466 0.24017 -0.21397
 C39 C 0.72521 0.24101 -0.19156
 N40 N 0.75741 0.25988 -0.20357
 C41 C 0.75892 0.27827 -0.23756
 N42 N 0.72826 0.27792 -0.25971
 C43 C 0.20779 0.76625 0.24758
 N44 N 0.24049 0.78539 0.23767
 C45 C 0.26885 0.78836 0.26241
 N46 N 0.26447 0.77230 0.29714
 C47 C 0.23164 0.75342 0.30726
 N48 N 0.20352 0.75010 0.28235
 C49 C 0.45853 0.43035 0.50293
 N50 N 0.43223 0.45973 0.50593
 C51 C 0.43040 0.49060 0.48015
 N52 N 0.45475 0.49188 0.45126
 C53 C 0.48113 0.46259 0.44799
 N54 N 0.48299 0.43179 0.47385
 C55 C -0.01671 -0.04791 1.01328
 N56 N 0.00412 -0.04743 0.98178
 C57 C 0.00552 -0.01379 0.95927
 N58 N -0.01382 0.01968 0.96840
 C59 C -0.03473 0.01923 0.99978
 N60 N -0.03608 -0.01449 1.02229
 C61 C 1.02646 0.57765 0.96280
 N62 N 0.99935 0.57254 0.93713
 C63 C 0.99816 0.53823 0.91820
 N64 N 1.02458 0.50915 0.92470
 C65 C 1.05174 0.51407 0.95034
 N66 N 1.05287 0.54859 0.96918
 C67 C 0.55139 0.05762 0.48054
 N68 N 0.58596 0.04262 0.47273
 C69 C 0.59126 0.02141 0.44213
 N70 N 0.56196 0.01562 0.41897
 C71 C 0.52717 0.03059 0.42662
 N72 N 0.52205 0.05189 0.45727
 C73 C -0.03856 0.06503 0.51919
 N74 N -0.02146 0.07194 0.55170
 C75 C -0.02222 0.04338 0.57951
 N76 N -0.03945 0.00739 0.57454
 C77 C -0.05649 0.00023 0.54214
 N78 N -0.05599 0.02904 0.51437
 C79 C 0.45332 0.57829 0.01375
 N80 N 0.42568 0.55006 0.01102
 C81 C 0.42258 0.51915 0.03674
 N82 N 0.44712 0.51669 0.06530
 C83 C 0.47482 0.54487 0.06820
 N84 N 0.47787 0.57561 0.04241
 C85 C 0.52761 -0.03527 -0.00497
 N86 N 0.56293 -0.02025 -0.00030
 C87 C 0.57293 -0.00524 0.03246
 N88 N 0.54725 -0.00472 0.06027
 C89 C 0.51183 -0.01966 0.05571
 N90 N 0.50204 -0.03477 0.02298
 C91 C 1.01655 0.45735 0.48619
 N92 N 0.98995 0.45513 0.51337
 C93 C 0.99632 0.47323 0.54561
 N94 N 1.02900 0.49389 0.55029
 C95 C 1.05541 0.49645 0.52329
 N96 N 1.04908 0.47834 0.49107
 C97 C 0.45237 0.01621 0.20732
 H98 H 0.46161 0.02823 0.23293
 C99 C 0.47692 0.01702 0.17710
 H100 H 0.50501 0.02969 0.17948
 C101 C 0.40501 -0.01576 0.17289
 H102 H 0.37714 -0.02918 0.17175
 C103 C 0.42877 -0.01573 0.14204
 H104 H 0.41889 -0.02881 0.11707
 N105 N 0.41744 -0.00079 0.20496
 C106 C 0.32267 0.03096 0.27710
 H107 H 0.32571 0.00992 0.30050
 C108 C 0.29320 0.05916 0.27653
 H109 H 0.27350 0.05967 0.29939
 C110 C 0.34458 0.05642 0.21892
 H111 H 0.36460 0.05540 0.19646
 C112 C 0.31570 0.08506 0.21729
 H113 H 0.31390 0.10570 0.19345
 Zn114 Zn 0.38738 -0.00901 0.24817
 N115 N 0.34752 0.02987 0.24840
 C116 C 0.41416 0.02309 0.31563
 N117 N 0.41960 -0.00491 0.28980
 C118 C 0.44976 -0.03030 0.29173
 C119 C 0.47618 -0.02774 0.31985
 C120 C 0.43984 0.02636 0.34460
 C121 C 0.33167 -0.07235 0.25729
 C122 C 0.31891 -0.11232 0.25599
 C123 C 0.38055 -0.13125 0.23396
 C124 C 0.39217 -0.09121 0.23586
 N125 N 0.36794 -0.06262 0.24761
 H126 H 0.39045 0.04348 0.31344
 H127 H 0.45415 -0.05177 0.27072
 H128 H 0.50051 -0.04749 0.32053
 H129 H 0.43557 0.04915 0.36461
 H130 H 0.31252 -0.04932 0.26596
 H131 H 0.29008 -0.11970 0.26387
 H132 H 0.40009 -0.15365 0.22444
 H133 H 0.42046 -0.08285 0.22717
 C134 C 0.28944 0.08654 0.24634
 C135 C 0.46549 0.00017 0.14436
 C136 C 0.34375 -0.14217 0.24419
 C137 C 0.47148 0.00082 0.34651
 C138 C 0.04782 -0.00192 0.72642
 H139 H 0.04847 -0.02621 0.74729
 C140 C 0.02063 -0.00213 0.69874
 H141 H 0.00037 -0.02665 0.69813
 C142 C 0.07440 0.05870 0.70061
 H143 H 0.09493 0.08272 0.70156
 C144 C 0.04763 0.05978 0.67256
 H145 H 0.04852 0.08414 0.65173
 N146 N 0.07537 0.02688 0.72558
 C147 C 0.16857 -0.04363 0.77450
 H148 H 0.17904 -0.02401 0.79519
 C149 C 0.18228 -0.08318 0.77300
 H150 H 0.20328 -0.09412 0.79254
 C151 C 0.12688 -0.05459 0.72509
 H152 H 0.10571 -0.04354 0.70601
 C153 C 0.13900 -0.09441 0.72334
 H154 H 0.12645 -0.11397 0.70364
 Zn155 Zn 0.11574 0.01952 0.75948
 N156 N 0.14020 -0.03069 0.75169
 C157 C 0.09367 -0.01508 0.82918
 N158 N 0.09323 0.01879 0.80664
 C159 C 0.07353 0.05213 0.81572
 C160 C 0.05331 0.05231 0.84875
 C161 C 0.07371 -0.01622 0.86241
 C162 C 0.16527 0.07116 0.71943
 C163 C 0.18588 0.10660 0.71214
 C164 C 0.18164 0.12090 0.77660
 C165 C 0.15971 0.08597 0.78242
 N166 N 0.15101 0.06263 0.75371
 H167 H 0.10850 -0.04167 0.82102
 H168 H 0.07303 0.07832 0.79688
 H169 H 0.03739 0.07880 0.85566
 H170 H 0.07394 -0.04355 0.87984
 H171 H 0.15862 0.05165 0.69726
 H172 H 0.19537 0.11440 0.68436
 H173 H 0.18759 0.13997 0.79930
 H174 H 0.14888 0.07816 0.80966
 C175 C 0.16636 -0.10916 0.74789
 C176 C 0.02133 0.02813 0.67075
 C177 C 0.19380 0.13198 0.74081
 C178 C 0.05301 0.01778 0.87223
 C179 C 0.54676 0.47655 0.20872
 H180 H 0.54526 0.45107 0.22834
 C181 C 0.52229 0.47870 0.17861
 H182 H 0.50189 0.45481 0.17492
 C183 C 0.57469 0.53921 0.18969
 H184 H 0.59466 0.56312 0.19438
 C185 C 0.55088 0.54248 0.15922
 H186 H 0.55303 0.56877 0.14056
 N187 N 0.57253 0.50641 0.21351
 C188 C 0.66220 0.45374 0.28150
 H189 H 0.66229 0.47539 0.30292
 C190 C 0.68858 0.42264 0.28219
 H191 H 0.70891 0.41994 0.30432
 C192 C 0.63604 0.43132 0.22598
 H193 H 0.61593 0.43533 0.20386
 C194 C 0.66227 0.39991 0.22542
 H195 H 0.66182 0.37943 0.20304
 Zn196 Zn 0.60467 0.50268 0.25508
 N197 N 0.63642 0.45727 0.25391
 C198 C 0.57629 0.46599 0.32159
 N199 N 0.57445 0.49938 0.29843
 C200 C 0.55023 0.53002 0.30510
 C201 C 0.52724 0.52815 0.33652
 C202 C 0.55392 0.46298 0.35334
 C203 C 0.66374 0.54897 0.22646
 C204 C 0.69243 0.57793 0.22553
 C205 C 0.66762 0.60316 0.28211
 C206 C 0.63935 0.57360 0.28203
 N207 N 0.63806 0.54720 0.25447
 H208 H 0.59475 0.44133 0.31537
 H209 H 0.54880 0.55590 0.28595
 H210 H 0.50806 0.55267 0.34169
 H211 H 0.55576 0.43623 0.37143
 H212 H 0.66243 0.52706 0.20531
 H213 H 0.71319 0.57861 0.20353
 H214 H 0.66880 0.62351 0.30455
 H215 H 0.61927 0.57103 0.30449
 C216 C 0.68891 0.39557 0.25388
 C217 C 0.52433 0.51186 0.15348
 C218 C 0.69481 0.60504 0.25372
 C219 C 0.52910 0.49445 0.36102
 C220 C 0.93575 0.50592 0.69687
 H221 H 0.94525 0.51712 0.72273
 C222 C 0.96030 0.50648 0.66672
 H223 H 0.98869 0.51831 0.66931
 C224 C 0.88756 0.47619 0.66174
 H225 H 0.85926 0.46388 0.66032
 C226 C 0.91141 0.47575 0.63101
 H227 H 0.90128 0.46353 0.60574
 N228 N 0.90029 0.49046 0.69400
 C229 C 0.80504 0.52523 0.76317
 H230 H 0.80740 0.50443 0.78682
 C231 C 0.77781 0.55579 0.76300
 H232 H 0.75891 0.55821 0.78631
 C233 C 0.82786 0.54901 0.70476
 H234 H 0.84778 0.54680 0.68235
 C235 C 0.80117 0.57995 0.70350
 H236 H 0.80074 0.60104 0.67990
 Zn237 Zn 0.86939 0.48398 0.73648
 N238 N 0.82959 0.52256 0.73441
 C239 C 0.89518 0.52367 0.79981
 N240 N 0.89958 0.49092 0.77888
 C241 C 0.92637 0.46261 0.78714
 C242 C 0.94990 0.46650 0.81744
 C243 C 0.91829 0.52878 0.83039
 C244 C 0.81563 0.41927 0.74879
 C245 C 0.80450 0.37867 0.74943
 C246 C 0.86622 0.36148 0.72627
 C247 C 0.87621 0.40210 0.72626
 N248 N 0.85118 0.43010 0.73765
 H249 H 0.87427 0.54626 0.79249
 H250 H 0.92990 0.43715 0.77001
 H251 H 0.97134 0.44397 0.82357
 H252 H 0.91477 0.55517 0.84655
 H253 H 0.79595 0.44189 0.75731
 H254 H 0.77626 0.37031 0.75856
 H255 H 0.88644 0.33950 0.71723
 H256 H 0.90410 0.41135 0.71692
 C257 C 0.77600 0.58382 0.73313
 C258 C 0.94842 0.49063 0.63369
 C259 C 0.83026 0.34940 0.73813
 C260 C 0.94609 0.49984 0.83927
 C261 C 0.19120 0.43290 0.01516
 H262 H 0.21072 0.43423 0.03790
 C263 C 0.16105 0.45995 0.01237
 H264 H 0.15723 0.48219 0.03299
 C265 C 0.17295 0.40321 -0.04020
 H266 H 0.17814 0.38187 -0.06118
 C267 C 0.14224 0.42941 -0.04383
 H268 H 0.12391 0.42766 -0.06746
 N269 N 0.19650 0.40513 -0.01084
 C270 C 0.26214 0.30812 0.04246
 H271 H 0.28590 0.30713 0.02368
 C272 C 0.25996 0.28082 0.07277
 H273 H 0.28212 0.25877 0.07751
 C274 C 0.20394 0.33770 0.05911
 H275 H 0.18191 0.35955 0.05343
 C276 C 0.20069 0.31098 0.08981
 H277 H 0.17627 0.31273 0.10771
 Zn278 Zn 0.23949 0.37137 -0.00577
 N279 N 0.23455 0.33607 0.03640
 C280 C 0.30451 0.40339 0.02898
 N281 N 0.28192 0.40591 -0.00124
 C282 C 0.28762 0.43490 -0.02839
 C283 C 0.31719 0.46268 -0.02593
 C284 C 0.33447 0.43054 0.03249
 C285 C 0.21719 0.31250 -0.05492
 C286 C 0.22056 0.28769 -0.08486
 C287 C 0.28251 0.31615 -0.09725
 C288 C 0.27770 0.34094 -0.06750
 N289 N 0.24528 0.33894 -0.04719
 H290 H 0.29905 0.38076 0.05065
 H291 H 0.26889 0.43661 -0.05184
 H292 H 0.32141 0.48577 -0.04758
 H293 H 0.35206 0.42828 0.05676
 H294 H 0.19206 0.31081 -0.03783
 H295 H 0.19796 0.26698 -0.09101
 H296 H 0.30848 0.31809 -0.11309
 H297 H 0.30011 0.36135 -0.06042
 C298 C 0.22909 0.28219 0.09682
 C299 C 0.13620 0.45827 -0.01729
 C300 C 0.25356 0.28923 -0.10620
 C301 C 0.34088 0.46070 0.00476
 C302 C 0.72767 0.06034 -0.01177
 H303 H 0.74748 0.06165 -0.03454
 C304 C 0.69633 0.03447 -0.01254
 H305 H 0.69231 0.01549 -0.03570
 C306 C 0.70660 0.08588 0.04460
 H307 H 0.70976 0.10688 0.06624
 C308 C 0.67518 0.06034 0.04505
 H309 H 0.65483 0.06182 0.06727
 N310 N 0.73161 0.08625 0.01602
 C311 C 0.78694 0.18792 -0.04258
 H312 H 0.81120 0.19265 -0.02545
 C313 C 0.78394 0.20959 -0.07618
 H314 H 0.80598 0.23073 -0.08486
 C315 C 0.72882 0.15457 -0.05287
 H316 H 0.70725 0.13328 -0.04361
 C317 C 0.72465 0.17579 -0.08670
 H318 H 0.70011 0.17030 -0.10345
 Zn319 Zn 0.76783 0.12886 0.01234
 N320 N 0.76000 0.16038 -0.03188
 C321 C 0.84396 0.13872 0.02413
 N322 N 0.81862 0.11070 0.01327
 C323 C 0.82995 0.07310 0.00445
 C324 C 0.86839 0.06291 0.00593
 C325 C 0.88225 0.12978 0.02619
 C326 C 0.74815 0.19948 0.04929
 C327 C 0.74713 0.22409 0.07945
 C328 C 0.77554 0.17014 0.11667
 C329 C 0.77553 0.14636 0.08601
 N330 N 0.76238 0.16148 0.05312
 H331 H 0.83442 0.16825 0.03148
 H332 H 0.80938 0.05113 -0.00380
 H333 H 0.87726 0.03304 -0.00127
 H334 H 0.90206 0.15240 0.03488
 H335 H 0.73796 0.21078 0.02282
 H336 H 0.73592 0.25441 0.07636
 H337 H 0.78647 0.15791 0.14257
 H338 H 0.78679 0.11605 0.08811
 C339 C 0.75288 0.20322 -0.09875
 C340 C 0.66922 0.03514 0.01560
 C341 C 0.76142 0.20960 0.11331
 C342 C 0.89483 0.09178 0.01692
 C343 C 0.20500 0.57776 0.48503
 H344 H 0.22736 0.57850 0.46461
 C345 C 0.17477 0.55102 0.48200
 H346 H 0.17366 0.53116 0.45917
 C347 C 0.17889 0.60310 0.53955
 H348 H 0.18075 0.62327 0.56201
 C349 C 0.14824 0.57655 0.53771
 H350 H 0.12642 0.57684 0.55867
 N351 N 0.20611 0.60371 0.51299
 C352 C 0.27552 0.70013 0.46272
 H353 H 0.29811 0.70230 0.48249
 C354 C 0.27729 0.72266 0.42933
 H355 H 0.30126 0.74228 0.42328
 C356 C 0.21717 0.67108 0.44577
 H357 H 0.19362 0.65120 0.45227
 C358 C 0.21772 0.69314 0.41223
 H359 H 0.19476 0.68956 0.39306
 Zn360 Zn 0.24788 0.63949 0.51270
 N361 N 0.24646 0.67384 0.46967
 C362 C 0.31559 0.60809 0.48322
 N363 N 0.29128 0.60643 0.51235
 C364 C 0.29535 0.57842 0.54054
 C365 C 0.32493 0.55064 0.54018
 C366 C 0.34554 0.58097 0.48180
 C367 C 0.21815 0.69727 0.55909
 C368 C 0.21740 0.72242 0.58894
 C369 C 0.27839 0.69636 0.60757
 C370 C 0.27791 0.67155 0.57751
 N371 N 0.24789 0.67212 0.55421
 H372 H 0.31124 0.62953 0.46045
 H373 H 0.27510 0.57720 0.56296
 H374 H 0.32772 0.52807 0.56245
 H375 H 0.36429 0.58235 0.45816
 H376 H 0.19498 0.69771 0.53977
 H377 H 0.19347 0.74208 0.59286
 H378 H 0.30240 0.69539 0.62593
 H379 H 0.30174 0.65217 0.57267
 C380 C 0.24859 0.71853 0.40342
 C381 C 0.14589 0.55047 0.50831
 C382 C 0.24771 0.72207 0.61351
 C383 C 0.35015 0.55161 0.51046
 C384 C 0.69349 0.92272 0.49024
 H385 H 0.68368 0.90370 0.51326
 C386 C 0.66915 0.95148 0.47378
 H387 H 0.64091 0.95500 0.48472
 C388 C 0.74126 0.93989 0.44624
 H389 H 0.76906 0.93437 0.43505
 C390 C 0.71799 0.96868 0.42905
 H391 H 0.72804 0.98583 0.40489
 N392 N 0.72878 0.91748 0.47611
 C393 C 0.74869 0.80087 0.52754
 H394 H 0.76029 0.78933 0.50260
 C395 C 0.74096 0.77405 0.55718
 H396 H 0.74592 0.74206 0.55466
 C397 C 0.73112 0.85650 0.56260
 H398 H 0.72872 0.88882 0.56488
 C399 C 0.72247 0.83044 0.59297
 H400 H 0.71300 0.84278 0.61848
 Zn401 Zn 0.76179 0.87504 0.49060
 N402 N 0.74376 0.84130 0.53059
 C403 C 0.83634 0.86632 0.51219
 N404 N 0.80985 0.89482 0.50378
 C405 C 0.81784 0.93495 0.50534
 C406 C 0.85416 0.94765 0.51484
 C407 C 0.87289 0.87766 0.52150
 C408 C 0.73363 0.82574 0.43788
 C409 C 0.73380 0.80106 0.40788
 C410 C 0.80047 0.81511 0.39953
 C411 C 0.79913 0.83937 0.42999
 N412 N 0.76610 0.84363 0.44876
 H413 H 0.82910 0.83465 0.51115
 H414 H 0.79615 0.95710 0.49926
 H415 H 0.86035 0.97960 0.51576
 H416 H 0.89394 0.85473 0.52768
 H417 H 0.70771 0.83016 0.45307
 H418 H 0.70800 0.78625 0.39982
 H419 H 0.82695 0.81146 0.38503
 H420 H 0.82439 0.85471 0.43853
 C421 C 0.72793 0.78869 0.59027
 C422 C 0.68147 0.97438 0.44245
 C423 C 0.76744 0.79541 0.38859
 C424 C 0.88212 0.91858 0.52277
 C425 C 0.01663 0.21583 0.43473
 H426 H 0.03928 0.23784 0.43425
 C427 C 0.01545 0.18516 0.46243
 H428 H 0.03681 0.18395 0.48367
 C429 C -0.03819 0.18930 0.40728
 H430 H -0.05871 0.19035 0.38537
 C431 C -0.04011 0.15795 0.43405
 H432 H -0.06250 0.13571 0.43285
 N433 N -0.01066 0.21806 0.40844
 C434 C 0.02902 0.27142 0.30260
 H435 H 0.00842 0.29461 0.29635
 C436 C 0.05803 0.26480 0.27735
 H437 H 0.05982 0.28328 0.25208
 C438 C 0.05197 0.21862 0.34236
 H439 H 0.04973 0.20062 0.36775
 C440 C 0.08148 0.21106 0.31783
 H441 H 0.10161 0.18739 0.32462
 Zn442 Zn -0.01129 0.25993 0.37073
 N443 N 0.02667 0.24879 0.33472
 C444 C -0.00745 0.34381 0.36474
 N445 N -0.00373 0.31236 0.38977
 C446 C 0.00164 0.31913 0.42614
 C447 C 0.00446 0.35869 0.43815
 C448 C -0.00501 0.38356 0.37554
 C449 C -0.07047 0.25359 0.31567
 C450 C -0.10871 0.25262 0.30550
 C451 C -0.12586 0.26568 0.36825
 C452 C -0.08767 0.26765 0.37691
 N453 N -0.06086 0.26072 0.35105
 H454 H -0.01356 0.33817 0.33641
 H455 H 0.00272 0.29418 0.44616
 H456 H 0.00854 0.36366 0.46709
 H457 H -0.00832 0.40823 0.35528
 H458 H -0.04874 0.24786 0.29559
 H459 H -0.11634 0.24631 0.27753
 H460 H -0.14694 0.26992 0.38941
 H461 H -0.07922 0.27326 0.40479
 C462 C 0.08481 0.23469 0.28502
 C463 C -0.01328 0.15603 0.46228
 C464 C -0.13670 0.25808 0.33239
 C465 C 0.00101 0.39136 0.41246
 C466 C -0.01364 0.69579 0.06614
 H467 H -0.03745 0.71559 0.07000
 C468 C -0.00898 0.67736 0.03269
 H469 H -0.02943 0.68255 0.01094
 C470 C 0.04502 0.66965 0.08755
 H471 H 0.06706 0.66888 0.10806
 C472 C 0.05058 0.65037 0.05450
 H473 H 0.07672 0.63449 0.04975
 N474 N 0.01388 0.69294 0.09212
 C475 C -0.02827 0.75246 0.18886
 H476 H -0.00517 0.77353 0.19182
 C477 C -0.05828 0.75179 0.21384
 H478 H -0.05839 0.77234 0.23618
 C479 C -0.05655 0.70014 0.15592
 H480 H -0.05565 0.68011 0.13327
 C481 C -0.08729 0.69855 0.18033
 H482 H -0.11002 0.67727 0.17631
 Zn483 Zn 0.01314 0.73297 0.12743
 N484 N -0.02817 0.72730 0.16033
 C485 C -0.01718 0.81053 0.10710
 N486 N 0.00943 0.78237 0.09985
 C487 C 0.03358 0.78746 0.07078
 C488 C 0.03195 0.82223 0.04793
 C489 C -0.01958 0.84600 0.08502
 C490 C 0.06334 0.70288 0.18171
 C491 C 0.09432 0.70415 0.20539
 C492 C 0.11473 0.76599 0.17352
 C493 C 0.08313 0.76394 0.15090
 N494 N 0.05817 0.73274 0.15535
 H495 H -0.03668 0.80553 0.12979
 H496 H 0.05405 0.76427 0.06533
 H497 H 0.05131 0.82611 0.02487
 H498 H -0.04073 0.86829 0.09109
 H499 H 0.04277 0.67874 0.18501
 H500 H 0.09786 0.68081 0.22687
 H501 H 0.13399 0.79133 0.16993
 H502 H 0.07826 0.78786 0.13041
 C503 C -0.08829 0.72499 0.20949
 C504 C 0.02391 0.65547 0.02635
 C505 C 0.12024 0.73604 0.20143
 C506 C 0.00532 0.85188 0.05506
 C507 C 0.47522 0.17464 0.57982
 H508 H 0.44933 0.19149 0.58283
 C509 C 0.47817 0.14631 0.55271
 H510 H 0.45452 0.14119 0.53467
 C511 C 0.53831 0.16181 0.59874
 H512 H 0.56188 0.16861 0.61624
 C513 C 0.54249 0.13332 0.57189
 H514 H 0.56932 0.11812 0.56908
 N515 N 0.50512 0.18197 0.60195
 C516 C 0.44632 0.23839 0.69175
 H517 H 0.45464 0.26975 0.68829
 C518 C 0.42332 0.22581 0.72158
 H519 H 0.41301 0.24766 0.74046
 C520 C 0.45233 0.17074 0.67386
 H521 H 0.46494 0.14910 0.65619
 C522 C 0.43087 0.15685 0.70405
 H523 H 0.42620 0.12475 0.70900
 Zn524 Zn 0.49979 0.22392 0.63487
 N525 N 0.46014 0.21083 0.66850
 C526 C 0.46195 0.29642 0.60686
 N527 N 0.49246 0.27164 0.60502
 C528 C 0.51986 0.27835 0.57906
 C529 C 0.51770 0.31131 0.55403
 C530 C 0.45881 0.33009 0.58235
 C531 C 0.55082 0.19699 0.68822
 C532 C 0.58162 0.19855 0.71190
 C533 C 0.59794 0.26393 0.68413
 C534 C 0.56637 0.26151 0.66142
 N535 N 0.54380 0.22816 0.66361
 H536 H 0.43983 0.28991 0.62683
 H537 H 0.54343 0.25775 0.57773
 H538 H 0.53967 0.31626 0.53347
 H539 H 0.43444 0.34959 0.58398
 H540 H 0.53224 0.17099 0.68963
 H541 H 0.58695 0.17370 0.73152
 H542 H 0.61576 0.29056 0.68209
 H543 H 0.55984 0.28639 0.64237
 C544 C 0.41637 0.18445 0.72824
 C545 C 0.51219 0.12578 0.54825
 C546 C 0.60561 0.23210 0.70978
 C547 C 0.48708 0.33760 0.55554
 C548 C 0.52090 0.72594 0.93290
 H549 H 0.54616 0.74444 0.93167
 C550 C 0.51783 0.69404 0.95927
 H551 H 0.54053 0.68829 0.97865
 C552 C 0.46088 0.70989 0.90870
 H553 H 0.43878 0.71592 0.88884
 C554 C 0.45683 0.67753 0.93438
 H555 H 0.43149 0.65914 0.93415
 N556 N 0.49252 0.73341 0.90838
 C557 C 0.54879 0.79717 0.81519
 H558 H 0.53171 0.82401 0.81253
 C559 C 0.57844 0.79200 0.79047
 H560 H 0.58424 0.81503 0.76910
 C561 C 0.56132 0.73355 0.84488
 H562 H 0.55401 0.71039 0.86555
 C563 C 0.59135 0.72717 0.82059
 H564 H 0.60716 0.69928 0.82300
 Zn565 Zn 0.49726 0.77608 0.87174
 N566 N 0.54061 0.76811 0.84167
 C567 C 0.49219 0.86006 0.87033
 N568 N 0.50061 0.82756 0.89297
 C569 C 0.51035 0.83230 0.92875
 C570 C 0.51285 0.87101 0.94260
 C571 C 0.49419 0.89905 0.88305
 C572 C 0.45645 0.76025 0.80743
 C573 C 0.42537 0.76128 0.78393
 C574 C 0.38974 0.79536 0.83008
 C575 C 0.42145 0.79341 0.85290
 N576 N 0.45404 0.77637 0.84112
 H577 H 0.48344 0.85573 0.84235
 H578 H 0.51630 0.80629 0.94664
 H579 H 0.52087 0.87441 0.97099
 H580 H 0.48749 0.92464 0.86471
 H581 H 0.48250 0.74651 0.79876
 H582 H 0.42750 0.74842 0.75714
 H583 H 0.36407 0.80922 0.83967
 H584 H 0.42027 0.80586 0.87988
 C585 C 0.59980 0.75666 0.79281
 C586 C 0.48563 0.66939 0.96005
 C587 C 0.39176 0.77922 0.79506
 C588 C 0.50482 0.90486 0.91935
 N589 N 0.14114 0.20327 0.26385
 N590 N 0.11518 0.22958 0.25935
 N591 N 0.64943 0.71990 0.76534
 N592 N 0.62850 0.75104 0.76562
 N593 N 0.32969 0.79866 0.77718
 N594 N 0.36027 0.78022 0.77043
 N595 N -0.19030 0.26144 0.29450
 N596 N -0.17621 0.25431 0.32499
 N597 N -0.14847 0.70347 0.23230
 N598 N -0.11944 0.72594 0.23469
 N599 N 0.36636 0.18335 0.76986
 N600 N 0.39707 0.16960 0.76068
 N601 N 0.66455 0.25788 0.72786
 N602 N 0.63743 0.23318 0.73383
 N603 N 0.17827 0.76295 0.22128
 N604 N 0.15085 0.73846 0.22688
 N605 N 0.25601 0.14122 0.21869
 N606 N 0.25910 0.11539 0.24547
 N607 N 0.74893 0.64392 0.70819
 N608 N 0.74975 0.61672 0.73400
 N609 N 0.79066 0.29372 0.75008
 N610 N 0.82098 0.30735 0.73830
 N611 N 0.30145 -0.19652 0.25196
 N612 N 0.33268 -0.18357 0.24193
 N613 N 0.20497 -0.16572 0.74354
 N614 N 0.17369 -0.15153 0.75015
 N615 N 0.72087 0.34092 0.22821
 N616 N 0.71643 0.36406 0.25482
 N617 N 0.72962 0.65798 0.27887
 N618 N 0.72603 0.63261 0.25391
 N619 N 0.23834 0.18166 0.75217
 N620 N 0.21267 0.16954 0.73271
 N621 N 0.20059 0.25422 0.15143
 N622 N 0.22733 0.25411 0.12790
 N623 N 0.70594 0.76889 0.65052
 N624 N 0.72300 0.76056 0.62095
 N625 N 0.79569 0.76402 0.33791
 N626 N 0.76725 0.76875 0.35877
 N627 N 0.28912 0.25722 -0.15159
 N628 N 0.25727 0.26307 -0.13637
 N629 N 0.72393 0.22091 -0.15604
 N630 N 0.75166 0.22377 -0.13416
 N631 N 0.22714 0.73518 0.34327
 N632 N 0.25229 0.73852 0.36785
 N633 N 0.27389 0.75003 0.66665
 N634 N 0.24643 0.74754 0.64435
 N635 N 0.77833 0.22676 0.17366
 N636 N 0.76089 0.23532 0.14381
 N637 N 0.45976 0.39784 0.53006
 N638 N 0.48524 0.37093 0.52913
 N639 N -0.01707 0.91720 0.03762
 N640 N 0.00430 0.88748 0.03145
 N641 N 0.03002 0.61260 -0.02244
 N642 N 0.03372 0.64652 -0.01047
 N643 N 0.54710 0.08211 0.51152
 N644 N 0.51602 0.09947 0.51831
 N645 N -0.03696 0.09481 0.48966
 N646 N -0.01490 0.12514 0.49105
 N647 N 0.45604 0.61075 0.98664
 N648 N 0.48287 0.63644 0.98689
 N649 N 0.51705 0.95390 0.96255
 N650 N 0.50693 0.94536 0.93145
 N651 N 0.00919 0.44348 0.45389
 N652 N 0.00242 0.43267 0.42258
 N653 N 0.40232 0.52112 0.48236
 N654 N 0.37904 0.52158 0.50908
 N655 N 0.94885 0.05219 0.00964
 N656 N 0.93451 0.08386 0.01913
 N657 N 0.60895 0.01348 0.03691
 N658 N 0.63442 0.01330 0.01207
 N659 N 0.08817 0.52079 0.52821
 N660 N 0.11402 0.52439 0.50388
 N661 N 0.08059 0.48433 -0.04499
 N662 N 0.10617 0.48706 -0.02075
 N663 N 0.62536 1.01099 0.43271
 N664 N 0.65766 1.00271 0.42284
 N665 N 0.93055 0.96412 0.53655
 N666 N 0.92005 0.92921 0.53204
 N667 N 0.39347 0.48942 0.03429
 N668 N 0.37055 0.48999 0.00740
 N669 N 0.50619 0.46358 0.41703
 N670 N 0.50504 0.49258 0.39288
 N671 N 0.02792 -0.01373 0.92659
 N672 N 0.03077 0.01757 0.90522
 N673 N -0.00157 0.04983 0.61229
 N674 N -0.00208 0.02395 0.63917
 N675 N 0.50049 0.54277 0.09842
 N676 N 0.49900 0.51402 0.12279
 N677 N 0.48442 -0.01822 0.08463
 N678 N 0.49204 -0.00147 0.11456
 N679 N 0.96824 0.47219 0.57400
 N680 N 0.97475 0.48974 0.60377
 N681 N 0.97109 0.53441 0.88955
 N682 N 0.97171 0.50417 0.86921
 N683 N 0.49673 0.02651 0.40133
 N684 N 0.50028 0.00451 0.37374
   
