data_POSCAR
  _audit_creation_date              2014-09-24
  _audit_creation_method            'ToBaCCo'
  _symmetry_space_group_name_H-M    'P1'
  _symmetry_Int_Tables_number       1
  _symmetry_cell_setting            triclinic
  loop_
  _symmetry_equiv_pos_as_xyz
 x,y,z
_cell_length_a 41.2380
_cell_length_b 40.9404
_cell_length_c 47.8561
_cell_angle_alpha 89.862000
_cell_angle_beta 89.508800
_cell_angle_gamma 90.107700
loop_
  _atom_site_label
  _atom_site_type_symbol
  _atom_site_fract_x
  _atom_site_fract_y
  _atom_site_fract_z
C1 C -0.08935 0.31345 0.00129
 C2 C -0.07280 0.31888 0.02620
 C3 C -0.03905 0.32267 0.02592
 C4 C -0.02096 0.31889 0.00093
 C5 C -0.03818 0.31265 -0.02397
 C6 C -0.07214 0.31080 -0.02386
 C7 C 0.01551 0.32022 0.00106
 C8 C 0.03329 0.32632 -0.02379
 C9 C 0.06719 0.32510 -0.02407
 C10 C 0.08407 0.31990 0.00068
 C11 C 0.06711 0.31493 0.02569
 C12 C 0.03315 0.31427 0.02582
 H13 H -0.11555 0.31065 0.00156
 H14 H -0.02722 0.32808 0.04545
 H15 H -0.02557 0.30845 -0.04353
 H16 H 0.02121 0.33158 -0.04323
 H17 H 0.11037 0.31904 0.00039
 H18 H 0.02098 0.30834 0.04527
 C19 C 0.41178 0.80830 0.50181
 C20 C 0.42930 0.81270 0.52633
 C21 C 0.46314 0.81566 0.52521
 C22 C 0.48033 0.81210 0.49964
 C23 C 0.46197 0.80685 0.47520
 C24 C 0.42805 0.80584 0.47624
 C25 C 0.51691 0.81264 0.49860
 C26 C 0.53399 0.81687 0.47303
 C27 C 0.56788 0.81492 0.47190
 C28 C 0.58552 0.81090 0.49640
 C29 C 0.56935 0.80782 0.52198
 C30 C 0.53542 0.80782 0.52305
 H31 H 0.38556 0.80621 0.50269
 H32 H 0.47553 0.82032 0.54457
 H33 H 0.47349 0.80283 0.45517
 H34 H 0.52149 0.82135 0.45367
 H35 H 0.61179 0.80963 0.49552
 H36 H 0.52403 0.80338 0.54310
 C37 C 1.08640 0.68083 0.00336
 C38 C 1.06766 0.68549 0.02748
 C39 C 1.03379 0.68609 0.02585
 C40 C 1.01801 0.68060 0.00021
 C41 C 1.03741 0.67494 -0.02381
 C42 C 1.07135 0.67601 -0.02236
 C43 C 0.98173 0.68225 -0.00161
 C44 C 0.96661 0.69089 -0.02692
 C45 C 0.93285 0.69326 -0.02857
 C46 C 0.91364 0.68845 -0.00476
 C47 C 0.92807 0.68055 0.02067
 C48 C 0.96177 0.67658 0.02212
 H49 H 1.11269 0.68154 0.00453
 H50 H 1.02005 0.69164 0.04460
 H51 H 1.02644 0.67008 -0.04384
 H52 H 0.98078 0.69658 -0.04542
 H53 H 0.88755 0.69141 -0.00590
 H54 H 0.97208 0.66945 0.04191
 C55 C 0.58441 0.18490 0.50465
 C56 C 0.56619 0.18116 0.52913
 C57 C 0.53232 0.17899 0.52793
 C58 C 0.51584 0.18266 0.50224
 C59 C 0.53497 0.18721 0.47781
 C60 C 0.56887 0.18748 0.47900
 C61 C 0.47925 0.18299 0.50103
 C62 C 0.46274 0.17967 0.47534
 C63 C 0.42897 0.18269 0.47403
 C64 C 0.41077 0.18688 0.49845
 C65 C 0.42631 0.18903 0.52415
 C66 C 0.46020 0.18794 0.52541
 H67 H 0.61065 0.18639 0.50560
 H68 H 0.51940 0.17481 0.54732
 H69 H 0.52414 0.19127 0.45766
 H70 H 0.47560 0.17521 0.45599
 H71 H 0.38460 0.18913 0.49741
 H72 H 0.47111 0.19175 0.54555
 C73 C 0.68535 -0.08705 -0.00186
 C74 C 0.67906 -0.07171 0.02367
 C75 C 0.67639 -0.03761 0.02492
 C76 C 0.68179 -0.01821 0.00086
 C77 C 0.68895 -0.03424 -0.02457
 C78 C 0.68993 -0.06835 -0.02599
 C79 C 0.68100 0.01841 0.00235
 C80 C 0.67516 0.03738 -0.02178
 C81 C 0.67694 0.07151 -0.02090
 C82 C 0.68252 0.08736 0.00443
 C83 C 0.68723 0.06912 0.02874
 C84 C 0.68722 0.03493 0.02765
 H85 H 0.68719 -0.11347 -0.00291
 H86 H 0.67038 -0.02652 0.04480
 H87 H 0.69446 -0.02058 -0.04338
 H88 H 0.66962 0.02591 -0.04153
 H89 H 0.68379 0.11383 0.00518
 H90 H 0.69281 0.02163 0.04655
 C91 C 0.18557 0.41622 0.49730
 C92 C 0.17990 0.43232 0.52255
 C93 C 0.17790 0.46640 0.52320
 C94 C 0.18350 0.48516 0.49882
 C95 C 0.18978 0.46841 0.47354
 C96 C 0.19009 0.43421 0.47275
 C97 C 0.18382 0.52179 0.49999
 C98 C 0.17802 0.54077 0.47587
 C99 C 0.18016 0.57489 0.47674
 C100 C 0.18636 0.59072 0.50196
 C101 C 0.19131 0.57246 0.52622
 C102 C 0.19083 0.53830 0.52515
 H103 H 0.18699 0.38977 0.49684
 H104 H 0.17234 0.47794 0.54297
 H105 H 0.19515 0.48157 0.45443
 H106 H 0.17209 0.52939 0.45619
 H107 H 0.18781 0.61717 0.50263
 H108 H 0.19655 0.52498 0.54400
 C109 C 0.31538 1.08800 -0.00446
 C110 C 0.32194 1.07213 0.02068
 C111 C 0.32630 1.03825 0.02122
 C112 C 0.32202 1.01929 -0.00314
 C113 C 0.31476 1.03584 -0.02831
 C114 C 0.31224 1.06999 -0.02904
 C115 C 0.32380 0.98260 -0.00199
 C116 C 0.32946 0.96396 -0.02640
 C117 C 0.32886 0.92972 -0.02545
 C118 C 0.32461 0.91357 0.00007
 C119 C 0.31990 0.93148 0.02452
 C120 C 0.31868 0.96561 0.02345
 H121 H 0.31208 1.11430 -0.00475
 H122 H 0.33252 1.02706 0.04093
 H123 H 0.31023 1.02253 -0.04738
 H124 H 0.33398 0.97566 -0.04634
 H125 H 0.32430 0.88707 0.00087
 H126 H 0.31297 0.97844 0.04258
 C127 C 0.81734 0.58732 0.49694
 C128 C 0.82386 0.57216 0.52244
 C129 C 0.82700 0.53814 0.52389
 C130 C 0.82180 0.51853 0.50006
 C131 C 0.81448 0.53442 0.47461
 C132 C 0.81301 0.56852 0.47298
 C133 C 0.82259 0.48189 0.50191
 C134 C 0.82775 0.46269 0.47777
 C135 C 0.82546 0.42861 0.47899
 C136 C 0.82012 0.41296 0.50455
 C137 C 0.81615 0.43133 0.52887
 C138 C 0.81666 0.46553 0.52753
 H139 H 0.81490 0.61368 0.49587
 H140 H 0.83302 0.52732 0.54381
 H141 H 0.80903 0.52066 0.45597
 H142 H 0.83293 0.47385 0.45773
 H143 H 0.81822 0.38654 0.50541
 H144 H 0.81149 0.47895 0.54647
 O145 O 0.25370 0.20551 0.22712
 O146 O 0.22228 0.26285 0.28002
 O147 O 0.20828 0.24886 0.22789
 O148 O 0.26626 0.21806 0.27956
 O149 O 0.30210 0.25518 0.26588
 O150 O 0.24410 0.28576 0.21375
 O151 O 0.25797 0.29989 0.26591
 O152 O 0.28964 0.24252 0.21342
 Cu153 Cu 0.23398 0.23013 0.25504
 Cu154 Cu 0.27702 0.27461 0.23834
 C155 C 0.27663 0.21461 0.21103
 C156 C 0.23537 0.29079 0.28229
 C157 C 0.21665 0.27193 0.21164
 C158 C 0.29368 0.23179 0.28183
 O159 O 0.74286 0.78681 0.22225
 O160 O 0.77423 0.73011 0.27540
 O161 O 0.78623 0.74111 0.22214
 O162 O 0.73184 0.77635 0.27537
 O163 O 0.69394 0.74037 0.26447
 O164 O 0.74840 0.70524 0.21091
 O165 O 0.73644 0.69415 0.26422
 O166 O 0.70494 0.75088 0.21130
 Cu167 Cu 0.76268 0.76215 0.24985
 Cu168 Cu 0.71718 0.71898 0.23656
 C169 C 0.71879 0.77826 0.20763
 C170 C 0.76006 0.70292 0.27926
 C171 C 0.77629 0.71772 0.20713
 C172 C 0.70395 0.76397 0.27926
 O173 O 0.80244 0.24583 0.23412
 O174 O 0.74635 0.21319 0.28770
 O175 O 0.75878 0.20052 0.23487
 O176 O 0.79143 0.25708 0.28719
 O177 O 0.75478 0.29390 0.27541
 O178 O 0.72237 0.23740 0.22270
 O179 O 0.70981 0.24991 0.27548
 O180 O 0.76588 0.28276 0.22239
 Cu181 Cu 0.77841 0.22540 0.26218
 Cu182 Cu 0.73448 0.26968 0.24780
 C183 C 0.79333 0.26946 0.21890
 C184 C 0.71885 0.22657 0.29099
 C185 C 0.73563 0.20969 0.21949
 C186 C 0.77827 0.28477 0.29049
 O187 O 0.27851 0.76239 0.21821
 O188 O 0.24226 0.70788 0.27128
 O189 O 0.23108 0.72090 0.21878
 O190 O 0.28994 0.74864 0.27086
 O191 O 0.25638 0.78797 0.28384
 O192 O 0.19746 0.76032 0.23146
 O193 O 0.20861 0.74726 0.28402
 O194 O 0.24501 0.80178 0.23113
 Cu195 Cu 0.26388 0.73104 0.24342
 Cu196 Cu 0.22352 0.77839 0.25885
 C197 C 0.26745 0.79109 0.21537
 C198 C 0.21971 0.71860 0.28694
 C199 C 0.20453 0.73611 0.21609
 C200 C 0.28271 0.77238 0.28667
 O201 O 0.77731 0.25920 0.72140
 O202 O 0.74355 0.20295 0.77456
 O203 O 0.73224 0.21525 0.72189
 O204 O 0.79006 0.24535 0.77390
 O205 O 0.75489 0.28306 0.78724
 O206 O 0.69706 0.25323 0.73463
 O207 O 0.70828 0.24085 0.78730
 O208 O 0.74230 0.29706 0.73473
 Cu209 Cu 0.76440 0.22693 0.74662
 Cu210 Cu 0.72215 0.27243 0.76228
 C211 C 0.76494 0.28739 0.71872
 C212 C 0.72048 0.21267 0.79016
 C213 C 0.70516 0.22942 0.71914
 C214 C 0.78196 0.26868 0.78984
 O215 O 0.30546 0.74035 0.73651
 O216 O 0.25067 0.70548 0.79011
 O217 O 0.26222 0.69498 0.73676
 O218 O 0.29500 0.75074 0.78975
 O219 O 0.25776 0.78736 0.77897
 O220 O 0.22503 0.73163 0.72586
 O221 O 0.21346 0.74207 0.77921
 O222 O 0.26822 0.77701 0.72576
 Cu223 Cu 0.28202 0.71917 0.76451
 Cu224 Cu 0.23728 0.76317 0.75150
 C225 C 0.29577 0.76407 0.72166
 C226 C 0.22295 0.71819 0.79394
 C227 C 0.23876 0.70432 0.72177
 C228 C 0.28181 0.77837 0.79342
 O229 O 0.19508 0.25239 0.76975
 O230 O 0.25002 0.21851 0.71602
 O231 O 0.23759 0.20595 0.76897
 O232 O 0.20615 0.26333 0.71671
 O233 O 0.24388 0.29929 0.72810
 O234 O 0.27503 0.24192 0.78094
 O235 O 0.28762 0.25430 0.72805
 O236 O 0.23271 0.28845 0.78113
 Cu237 Cu 0.21846 0.23134 0.74172
 Cu238 Cu 0.26365 0.27455 0.75576
 C239 C 0.20485 0.27595 0.78470
 C240 C 0.27784 0.23130 0.71256
 C241 C 0.26110 0.21448 0.78421
 C242 C 0.22002 0.29070 0.71320
 O243 O 0.74738 0.79380 0.70989
 O244 O 0.80799 0.76809 0.76151
 O245 O 0.79506 0.75290 0.70958
 O246 O 0.76106 0.80952 0.76179
 O247 O 0.72779 0.77069 0.77679
 O248 O 0.76168 0.71417 0.72458
 O249 O 0.77462 0.72929 0.77640
 O250 O 0.71408 0.75506 0.72499
 Cu251 Cu 0.78119 0.78503 0.73413
 Cu252 Cu 0.74113 0.73841 0.75216
 C253 C 0.72081 0.77826 0.70833
 C254 C 0.80116 0.74480 0.77809
 C255 C 0.78369 0.72417 0.70795
 C256 C 0.73937 0.79932 0.77863
 C257 C 0.29983 0.15922 0.14300
 C258 C 0.32847 0.14043 0.14034
 C259 C 0.33471 0.12281 0.11529
 C260 C 0.31231 0.12418 0.09307
 C261 C 0.28371 0.14308 0.09571
 C262 C 0.27740 0.16057 0.12077
 C263 C 0.24848 0.17905 0.12299
 C264 C 0.22642 0.18015 0.10113
 C265 C 0.23269 0.16323 0.07655
 C266 C 0.26095 0.14488 0.07375
 C267 C 0.36341 0.10409 0.11313
 C268 C 0.38536 0.10282 0.13510
 C269 C 0.37927 0.12007 0.15957
 C270 C 0.35118 0.13872 0.16227
 C271 C 0.31796 0.10559 0.06771
 C272 C 0.32090 0.09027 0.04637
 C273 C 0.29333 0.17763 0.16831
 C274 C 0.28653 0.19389 0.18846
 H275 H 0.24249 0.19276 0.14163
 H276 H 0.20435 0.19423 0.10326
 H277 H 0.21553 0.16426 0.05958
 H278 H 0.26469 0.13215 0.05421
 H279 H 0.36918 0.09029 0.09449
 H280 H 0.40721 0.08836 0.13311
 H281 H 0.39640 0.11900 0.17656
 H282 H 0.34745 0.15172 0.18170
 C283 C 0.80681 0.66687 0.64109
 C284 C 0.83575 0.64861 0.63822
 C285 C 0.84101 0.62923 0.61398
 C286 C 0.81732 0.62831 0.59277
 C287 C 0.78847 0.64680 0.59555
 C288 C 0.78317 0.66608 0.61979
 C289 C 0.75399 0.68415 0.62217
 C290 C 0.73073 0.68311 0.60125
 C291 C 0.73599 0.66441 0.57748
 C292 C 0.76446 0.64643 0.57454
 C293 C 0.87005 0.61108 0.61160
 C294 C 0.89328 0.61206 0.63257
 C295 C 0.88815 0.63103 0.65626
 C296 C 0.85974 0.64915 0.65917
 C297 C 0.82199 0.60799 0.56825
 C298 C 0.82401 0.59142 0.54753
 C299 C 0.80092 0.68647 0.66584
 C300 C 0.79417 0.70334 0.68565
 H301 H 0.74876 0.69922 0.64019
 H302 H 0.70850 0.69692 0.60351
 H303 H 0.71790 0.66378 0.56123
 H304 H 0.76737 0.63225 0.55564
 H305 H 0.87510 0.59601 0.59354
 H306 H 0.91539 0.59804 0.63042
 H307 H 0.90627 0.63171 0.67248
 H308 H 0.85679 0.66354 0.67795
 C309 C 0.69157 0.83521 0.14170
 C310 C 0.68482 0.86895 0.14440
 C311 C 0.67938 0.88823 0.12015
 C312 C 0.68068 0.87363 0.09338
 C313 C 0.68630 0.83966 0.09075
 C314 C 0.69174 0.82038 0.11498
 C315 C 0.69765 0.78652 0.11180
 C316 C 0.69812 0.77213 0.08544
 C317 C 0.69290 0.79100 0.06174
 C318 C 0.68704 0.82439 0.06423
 C319 C 0.67311 0.92200 0.12332
 C320 C 0.67218 0.93631 0.14971
 C321 C 0.67746 0.91743 0.17342
 C322 C 0.68374 0.88412 0.17092
 C323 C 0.67836 0.89374 0.06847
 C324 C 0.67789 0.91014 0.04753
 C325 C 0.69999 0.81594 0.16607
 C326 C 0.70803 0.79920 0.18556
 H327 H 0.70189 0.77079 0.12959
 H328 H 0.70269 0.74621 0.08341
 H329 H 0.69338 0.77972 0.04131
 H330 H 0.68302 0.83802 0.04518
 H331 H 0.66878 0.93765 0.10548
 H332 H 0.66733 0.96218 0.15176
 H333 H 0.67669 0.92866 0.19388
 H334 H 0.68764 0.87041 0.18996
 C335 C 0.19417 0.34475 0.64525
 C336 C 0.18386 0.37766 0.64654
 C337 C 0.17811 0.39530 0.62144
 C338 C 0.18274 0.37988 0.59526
 C339 C 0.19217 0.34668 0.59400
 C340 C 0.19790 0.32905 0.61906
 C341 C 0.20763 0.29595 0.61726
 C342 C 0.21154 0.28073 0.59144
 C343 C 0.20602 0.29802 0.56692
 C344 C 0.19643 0.33061 0.56805
 C345 C 0.16811 0.42829 0.62320
 C346 C 0.16388 0.44341 0.64904
 C347 C 0.16951 0.42616 0.67357
 C348 C 0.17941 0.39364 0.67246
 C349 C 0.17984 0.39859 0.56964
 C350 C 0.17894 0.41399 0.54819
 C351 C 0.20215 0.32714 0.67061
 C352 C 0.20978 0.31129 0.69074
 H353 H 0.21232 0.28145 0.63571
 H354 H 0.21905 0.25544 0.59046
 H355 H 0.20918 0.28612 0.54691
 H356 H 0.19233 0.34299 0.54840
 H357 H 0.16338 0.44268 0.60468
 H358 H 0.15616 0.46864 0.65001
 H359 H 0.16619 0.43802 0.69358
 H360 H 0.18347 0.38118 0.69209
 C361 C 0.84604 0.29426 0.14958
 C362 C 0.86644 0.32200 0.14743
 C363 C 0.88290 0.32887 0.12185
 C364 C 0.87874 0.30798 0.09862
 C365 C 0.85821 0.28030 0.10075
 C366 C 0.84188 0.27336 0.12633
 C367 C 0.82172 0.24534 0.12803
 C368 C 0.81790 0.22477 0.10514
 C369 C 0.83369 0.23168 0.08006
 C370 C 0.85363 0.25909 0.07776
 C371 C 0.90330 0.35664 0.12018
 C372 C 0.90731 0.37708 0.14314
 C373 C 0.89118 0.37039 0.16815
 C374 C 0.87094 0.34319 0.17038
 C375 C 0.89630 0.31407 0.07274
 C376 C 0.91081 0.31734 0.05096
 C377 C 0.82883 0.28713 0.17544
 C378 C 0.81337 0.27985 0.19599
 H379 H 0.80880 0.23891 0.14703
 H380 H 0.80260 0.20333 0.10689
 H381 H 0.83053 0.21570 0.06230
 H382 H 0.86540 0.26338 0.05779
 H383 H 0.91631 0.36283 0.10115
 H384 H 0.92301 0.39823 0.14152
 H385 H 0.89438 0.38635 0.18592
 H386 H 0.85892 0.33893 0.19026
 C387 C 0.34778 0.78901 0.65181
 C388 C 0.36795 0.81691 0.64934
 C389 C 0.38460 0.82340 0.62376
 C390 C 0.38091 0.80200 0.60081
 C391 C 0.36062 0.77415 0.60326
 C392 C 0.34409 0.76759 0.62884
 C393 C 0.32421 0.73939 0.63083
 C394 C 0.32083 0.71829 0.60824
 C395 C 0.33678 0.72485 0.58317
 C396 C 0.35646 0.75240 0.58058
 C397 C 0.40473 0.85135 0.62181
 C398 C 0.40830 0.87231 0.64448
 C399 C 0.39200 0.86598 0.66948
 C400 C 0.37202 0.83862 0.67199
 C401 C 0.39843 0.80791 0.57482
 C402 C 0.41269 0.81116 0.55288
 C403 C 0.33055 0.78212 0.67777
 C404 C 0.31528 0.77483 0.69847
 H405 H 0.31115 0.73324 0.64983
 H406 H 0.30571 0.69674 0.61020
 H407 H 0.33394 0.70846 0.56564
 H408 H 0.36838 0.75639 0.56063
 H409 H 0.41786 0.85727 0.60278
 H410 H 0.42380 0.89359 0.64265
 H411 H 0.39487 0.88235 0.68702
 H412 H 0.35985 0.83466 0.69184
 C413 C 0.14723 0.71068 0.15048
 C414 C 0.11527 0.72269 0.14753
 C415 C 0.09796 0.71667 0.12250
 C416 C 0.11275 0.69870 0.10062
 C417 C 0.14434 0.68585 0.10392
 C418 C 0.16162 0.69183 0.12894
 C419 C 0.19327 0.67892 0.13170
 C420 C 0.20741 0.66062 0.11034
 C421 C 0.19051 0.65479 0.08585
 C422 C 0.15934 0.66720 0.08255
 C423 C 0.06612 0.72910 0.11991
 C424 C 0.05179 0.74696 0.14145
 C425 C 0.06874 0.75287 0.16593
 C426 C 0.10014 0.74094 0.16904
 C427 C 0.09590 0.69402 0.07445
 C428 C 0.08245 0.69010 0.05247
 C429 C 0.16608 0.71915 0.17488
 C430 C 0.18295 0.72664 0.19427
 H431 H 0.20737 0.68270 0.15038
 H432 H 0.23162 0.65091 0.11281
 H433 H 0.20161 0.64057 0.06931
 H434 H 0.14716 0.66197 0.06312
 H435 H 0.05198 0.72509 0.10128
 H436 H 0.02741 0.75628 0.13914
 H437 H 0.05749 0.76676 0.18260
 H438 H 0.11234 0.74608 0.18847
 C439 C 0.65039 0.20391 0.65190
 C440 C 0.61911 0.18973 0.65378
 C441 C 0.60153 0.18288 0.62902
 C442 C 0.61537 0.19023 0.60256
 C443 C 0.64689 0.20393 0.60068
 C444 C 0.66443 0.21082 0.62540
 C445 C 0.69581 0.22474 0.62296
 C446 C 0.70947 0.23158 0.59687
 C447 C 0.69230 0.22489 0.57270
 C448 C 0.66138 0.21121 0.57444
 C449 C 0.57022 0.16891 0.63140
 C450 C 0.55665 0.16188 0.65751
 C451 C 0.57385 0.16856 0.68171
 C452 C 0.60474 0.18233 0.67999
 C453 C 0.59691 0.18511 0.57724
 C454 C 0.58239 0.18234 0.55562
 C455 C 0.66819 0.21197 0.67702
 C456 C 0.68427 0.21949 0.69692
 H457 H 0.71015 0.23051 0.64113
 H458 H 0.73347 0.24225 0.59541
 H459 H 0.70298 0.23031 0.55247
 H460 H 0.64905 0.20639 0.55501
 H461 H 0.55596 0.16325 0.61315
 H462 H 0.53267 0.15118 0.65897
 H463 H 0.56319 0.16304 0.70193
 H464 H 0.61720 0.18710 0.69937
 C465 C 0.69209 0.15896 0.85806
 C466 C 0.69486 0.17473 0.88426
 C467 C 0.68876 0.15698 0.90930
 C468 C 0.67991 0.12359 0.90800
 C469 C 0.67609 0.10813 0.88180
 C470 C 0.68219 0.12589 0.85673
 C471 C 0.67856 0.10987 0.83078
 C472 C 0.66914 0.07718 0.82962
 C473 C 0.66319 0.05980 0.85414
 C474 C 0.66661 0.07497 0.87999
 C475 C 0.69212 0.17312 0.93526
 C476 C 0.70117 0.20589 0.93643
 C477 C 0.70704 0.22329 0.91194
 C478 C 0.70403 0.20801 0.88610
 C479 C 0.67695 0.10472 0.93359
 C480 C 0.67607 0.08912 0.95497
 C481 C 0.70088 0.17658 0.83275
 C482 C 0.70927 0.19232 0.81264
 H483 H 0.68288 0.12243 0.81117
 H484 H 0.66644 0.06529 0.80960
 H485 H 0.65586 0.03443 0.85313
 H486 H 0.66165 0.06047 0.89849
 H487 H 0.68771 0.16065 0.95489
 H488 H 0.70363 0.21785 0.95645
 H489 H 0.71412 0.24874 0.91294
 H490 H 0.70892 0.22260 0.86766
 C491 C 0.19141 0.66513 0.35499
 C492 C 0.19535 0.68031 0.38132
 C493 C 0.19011 0.66208 0.40625
 C494 C 0.18094 0.62879 0.40471
 C495 C 0.17596 0.61391 0.37841
 C496 C 0.18121 0.63216 0.35346
 C497 C 0.17649 0.61669 0.32740
 C498 C 0.16686 0.58408 0.32603
 C499 C 0.16176 0.56622 0.35042
 C500 C 0.16622 0.58085 0.37638
 C501 C 0.19466 0.67764 0.43233
 C502 C 0.20410 0.71029 0.43372
 C503 C 0.20916 0.72815 0.40934
 C504 C 0.20492 0.71346 0.38339
 C505 C 0.17880 0.60945 0.43010
 C506 C 0.17852 0.59359 0.45134
 C507 C 0.19972 0.68304 0.32972
 C508 C 0.20804 0.69875 0.30957
 H509 H 0.18012 0.62962 0.30787
 H510 H 0.16335 0.57261 0.30592
 H511 H 0.15430 0.54089 0.34924
 H512 H 0.16189 0.56601 0.39479
 H513 H 0.19092 0.66480 0.45188
 H514 H 0.20750 0.72179 0.45383
 H515 H 0.21656 0.75349 0.41052
 H516 H 0.20921 0.72839 0.36504
 C517 C 0.31201 0.83592 0.85787
 C518 C 0.31797 0.86977 0.85446
 C519 C 0.32467 0.88945 0.87817
 C520 C 0.32536 0.87514 0.90511
 C521 C 0.32060 0.84107 0.90839
 C522 C 0.31386 0.82141 0.88470
 C523 C 0.30872 0.78748 0.88856
 C524 C 0.31024 0.77339 0.91505
 C525 C 0.31684 0.79261 0.93821
 C526 C 0.32197 0.82608 0.93505
 C527 C 0.33014 0.92330 0.87432
 C528 C 0.32908 0.93732 0.84777
 C529 C 0.32255 0.91807 0.82458
 C530 C 0.31702 0.88467 0.82777
 C531 C 0.32858 0.89560 0.92966
 C532 C 0.32961 0.91200 0.95052
 C533 C 0.30239 0.81621 0.83415
 C534 C 0.29347 0.79928 0.81512
 H535 H 0.30355 0.77147 0.87120
 H536 H 0.30632 0.74739 0.91760
 H537 H 0.31801 0.78155 0.95875
 H538 H 0.32712 0.83999 0.95369
 H539 H 0.33538 0.93923 0.89173
 H540 H 0.33335 0.96325 0.84518
 H541 H 0.32176 0.92908 0.80401
 H542 H 0.31208 0.87067 0.80912
 C543 C 0.80309 0.33949 0.35819
 C544 C 0.78167 0.33716 0.38141
 C545 C 0.78834 0.35484 0.40621
 C546 C 0.81629 0.37493 0.40760
 C547 C 0.83781 0.37709 0.38446
 C548 C 0.83121 0.35928 0.35967
 C549 C 0.85301 0.36184 0.33679
 C550 C 0.88059 0.38146 0.33835
 C551 C 0.88704 0.39890 0.36258
 C552 C 0.86597 0.39684 0.38544
 C553 C 0.76657 0.35207 0.42917
 C554 C 0.73891 0.33259 0.42758
 C555 C 0.73227 0.31548 0.40327
 C556 C 0.75337 0.31751 0.38044
 C557 C 0.82199 0.39408 0.43256
 C558 C 0.82480 0.40989 0.45361
 C559 C 0.79600 0.32125 0.33301
 C560 C 0.78871 0.30518 0.31295
 H561 H 0.84898 0.34873 0.31752
 H562 H 0.89704 0.38315 0.32065
 H563 H 0.90849 0.41411 0.36367
 H564 H 0.87199 0.41080 0.40386
 H565 H 0.77064 0.36490 0.44856
 H566 H 0.72252 0.33082 0.44531
 H567 H 0.71065 0.30054 0.40207
 H568 H 0.74714 0.30360 0.36205
 C569 C 0.15252 0.30587 0.85263
 C570 C 0.12066 0.31854 0.85131
 C571 C 0.10343 0.32578 0.87639
 C572 C 0.11821 0.32030 0.90257
 C573 C 0.15046 0.30862 0.90386
 C574 C 0.16766 0.30133 0.87882
 C575 C 0.19974 0.28924 0.88065
 C576 C 0.21440 0.28458 0.90648
 C577 C 0.19756 0.29171 0.93097
 C578 C 0.16596 0.30361 0.92981
 C579 C 0.07147 0.33809 0.87462
 C580 C 0.05695 0.34314 0.84877
 C581 C 0.07381 0.33606 0.82425
 C582 C 0.10532 0.32388 0.82538
 C583 C 0.09967 0.32432 0.92820
 C584 C 0.08465 0.32580 0.94984
 C585 C 0.16957 0.29638 0.82730
 C586 C 0.18492 0.28753 0.80720
 H587 H 0.21386 0.28327 0.86221
 H588 H 0.23892 0.27528 0.90748
 H589 H 0.20903 0.28802 0.95099
 H590 H 0.15391 0.30890 0.94946
 H591 H 0.05746 0.34401 0.89314
 H592 H 0.03249 0.35259 0.84778
 H593 H 0.06243 0.34002 0.80423
 H594 H 0.11751 0.31874 0.80576
 C595 C 0.65194 0.79325 0.34774
 C596 C 0.62047 0.80692 0.34657
 C597 C 0.60326 0.81392 0.37173
 C598 C 0.61764 0.80723 0.39788
 C599 C 0.64945 0.79432 0.39905
 C600 C 0.66664 0.78731 0.37392
 C601 C 0.69831 0.77413 0.37565
 C602 C 0.71257 0.76812 0.40143
 C603 C 0.69573 0.77491 0.42600
 C604 C 0.66455 0.78787 0.42495
 C605 C 0.57171 0.82728 0.37006
 C606 C 0.55758 0.83360 0.34426
 C607 C 0.57442 0.82678 0.31967
 C608 C 0.60552 0.81357 0.32069
 C609 C 0.59931 0.81191 0.42360
 C610 C 0.58463 0.81426 0.44540
 C611 C 0.66901 0.78421 0.32224
 C612 C 0.68428 0.77559 0.30198
 H613 H 0.71241 0.76834 0.35715
 H614 H 0.73678 0.75800 0.40235
 H615 H 0.70688 0.77011 0.44598
 H616 H 0.65249 0.79283 0.44466
 H617 H 0.55771 0.83304 0.38863
 H618 H 0.53343 0.84384 0.34335
 H619 H 0.56333 0.83174 0.29969
 H620 H 0.61771 0.80870 0.30102
 C621 C 0.85767 0.72702 0.84592
 C622 C 0.87913 0.70022 0.84796
 C623 C 0.89539 0.69400 0.87349
 C624 C 0.89000 0.71460 0.89680
 C625 C 0.86913 0.74187 0.89454
 C626 C 0.85298 0.74817 0.86899
 C627 C 0.83225 0.77564 0.86721
 C628 C 0.82769 0.79630 0.89000
 C629 C 0.84330 0.78999 0.91505
 C630 C 0.86381 0.76313 0.91742
 C631 C 0.91666 0.66698 0.87509
 C632 C 0.92172 0.64670 0.85212
 C633 C 0.90579 0.65278 0.82717
 C634 C 0.88468 0.67919 0.82500
 C635 C 0.90539 0.70737 0.92323
 C636 C 0.91795 0.70111 0.94523
 C637 C 0.83929 0.73225 0.82061
 C638 C 0.82269 0.73736 0.80049
 H639 H 0.81948 0.78156 0.84821
 H640 H 0.81191 0.81729 0.88822
 H641 H 0.83956 0.80603 0.93273
 H642 H 0.87550 0.75929 0.93731
 H643 H 0.92963 0.66128 0.89404
 H644 H 0.93810 0.62615 0.85369
 H645 H 0.90980 0.63696 0.80938
 H646 H 0.87288 0.68301 0.80514
 C647 C 0.34890 0.20867 0.34944
 C648 C 0.34653 0.23057 0.37224
 C649 C 0.36320 0.22374 0.39744
 C650 C 0.38230 0.19513 0.39967
 C651 C 0.38492 0.17341 0.37680
 C652 C 0.36814 0.18018 0.35160
 C653 C 0.37104 0.15810 0.32904
 C654 C 0.39004 0.13010 0.33128
 C655 C 0.40646 0.12349 0.35590
 C656 C 0.40402 0.14481 0.37848
 C657 C 0.36030 0.24593 0.41999
 C658 C 0.34165 0.27413 0.41764
 C659 C 0.32552 0.28091 0.39294
 C660 C 0.32773 0.25942 0.37049
 C661 C 0.39938 0.18855 0.42550
 C662 C 0.41312 0.18477 0.44741
 C663 C 0.33078 0.21534 0.32418
 C664 C 0.31456 0.22212 0.30416
 H665 H 0.35874 0.16226 0.30946
 H666 H 0.39202 0.11346 0.31381
 H667 H 0.42119 0.10171 0.35752
 H668 H 0.41721 0.13866 0.39721
 H669 H 0.37240 0.24181 0.43965
 H670 H 0.33975 0.29085 0.43507
 H671 H 0.31119 0.30294 0.39117
 H672 H 0.31462 0.26579 0.35177
 C673 C 0.71710 0.85203 0.84841
 C674 C 0.70420 0.88404 0.84825
 C675 C 0.69894 0.90077 0.87389
 C676 C 0.70661 0.88536 0.89952
 C677 C 0.71960 0.85338 0.89968
 C678 C 0.72482 0.83664 0.87407
 C679 C 0.73780 0.80463 0.87479
 C680 C 0.74536 0.78963 0.90006
 C681 C 0.74038 0.80606 0.92509
 C682 C 0.72762 0.83755 0.92504
 C683 C 0.68608 0.93279 0.87321
 C684 C 0.67863 0.94784 0.84792
 C685 C 0.68377 0.93146 0.82285
 C686 C 0.69640 0.89991 0.82289
 C687 C 0.70091 0.90220 0.92576
 C688 C 0.69605 0.91578 0.94771
 C689 C 0.72328 0.83495 0.82236
 C690 C 0.72970 0.81948 0.80166
 H691 H 0.74229 0.79085 0.85589
 H692 H 0.75534 0.76519 0.90020
 H693 H 0.74643 0.79435 0.94467
 H694 H 0.72417 0.84931 0.94507
 H695 H 0.68169 0.94652 0.89216
 H696 H 0.66883 0.97234 0.84776
 H697 H 0.67793 0.94327 0.80327
 H698 H 0.69997 0.88812 0.80289
 C699 C 0.21430 0.34688 0.35051
 C700 C 0.20192 0.37904 0.34888
 C701 C 0.19727 0.39758 0.37368
 C702 C 0.20501 0.38380 0.39996
 C703 C 0.21739 0.35162 0.40159
 C704 C 0.22203 0.33310 0.37681
 C705 C 0.23447 0.30096 0.37900
 C706 C 0.24202 0.28752 0.40491
 C707 C 0.23757 0.30567 0.42912
 C708 C 0.22539 0.33734 0.42762
 C709 C 0.18494 0.42972 0.37153
 C710 C 0.17742 0.44317 0.34561
 C711 C 0.18195 0.42504 0.32136
 C712 C 0.19405 0.39332 0.32285
 C713 C 0.19993 0.40247 0.42538
 C714 C 0.19559 0.41733 0.44681
 C715 C 0.22005 0.32808 0.32525
 C716 C 0.22612 0.31157 0.30505
 H717 H 0.23849 0.28587 0.36077
 H718 H 0.25153 0.26294 0.40617
 H719 H 0.24359 0.29516 0.44919
 H720 H 0.22235 0.35047 0.44706
 H721 H 0.18103 0.44477 0.38980
 H722 H 0.16804 0.46781 0.34433
 H723 H 0.17606 0.43560 0.30128
 H724 H 0.19715 0.38015 0.30344
 C725 C 0.28285 0.15704 0.85138
 C726 C 0.30623 0.13177 0.85077
 C727 C 0.31189 0.11278 0.87516
 C728 C 0.29418 0.11922 0.90002
 C729 C 0.27060 0.14432 0.90056
 C730 C 0.26489 0.16326 0.87617
 C731 C 0.24112 0.18818 0.87724
 C732 C 0.22347 0.19414 0.90165
 C733 C 0.22915 0.17570 0.92551
 C734 C 0.25241 0.15106 0.92511
 C735 C 0.33536 0.08763 0.87404
 C736 C 0.35276 0.08143 0.84954
 C737 C 0.34725 0.10003 0.82571
 C738 C 0.32428 0.12496 0.82620
 C739 C 0.30062 0.10059 0.92523
 C740 C 0.30600 0.08582 0.94653
 C741 C 0.27689 0.17661 0.82660
 C742 C 0.27062 0.19354 0.80672
 H743 H 0.23582 0.20326 0.85925
 H744 H 0.20527 0.21314 0.90203
 H745 H 0.21541 0.18047 0.94444
 H746 H 0.25588 0.13734 0.94420
 H747 H 0.34047 0.07249 0.89204
 H748 H 0.37061 0.06208 0.84904
 H749 H 0.36084 0.09512 0.80673
 H750 H 0.32082 0.13877 0.80715
 C751 C 0.78169 0.64879 0.34842
 C752 C 0.80756 0.62619 0.34973
 C753 C 0.81369 0.60908 0.37503
 C754 C 0.79393 0.61473 0.39889
 C755 C 0.76786 0.63712 0.39750
 C756 C 0.76169 0.65416 0.37219
 C757 C 0.73541 0.67638 0.37133
 C758 C 0.71578 0.68151 0.39474
 C759 C 0.72192 0.66496 0.41951
 C760 C 0.74762 0.64300 0.42100
 C761 C 0.83971 0.58662 0.37584
 C762 C 0.85913 0.58121 0.35232
 C763 C 0.85314 0.59796 0.32760
 C764 C 0.82768 0.62023 0.32620
 C765 C 0.80064 0.59791 0.42496
 C766 C 0.80621 0.58432 0.44678
 C767 C 0.77561 0.66685 0.32284
 C768 C 0.76938 0.68274 0.30235
 H769 H 0.72967 0.68994 0.35259
 H770 H 0.69568 0.69842 0.39365
 H771 H 0.70664 0.66910 0.43766
 H772 H 0.75137 0.63065 0.44072
 H773 H 0.84530 0.57299 0.39459
 H774 H 0.87892 0.56393 0.35330
 H775 H 0.86829 0.59368 0.30940
 H776 H 0.82393 0.63266 0.30651
 C777 C 0.16681 0.68964 0.86058
 C778 C 0.17947 0.69547 0.88754
 C779 C 0.15983 0.68980 0.91164
 C780 C 0.12760 0.67838 0.90866
 C781 C 0.11532 0.67148 0.88177
 C782 C 0.13499 0.67712 0.85765
 C783 C 0.12208 0.67034 0.83099
 C784 C 0.09064 0.65829 0.82821
 C785 C 0.07141 0.65280 0.85178
 C786 C 0.08349 0.65931 0.87831
 C787 C 0.17295 0.69612 0.93834
 C788 C 0.20453 0.70775 0.94116
 C789 C 0.22371 0.71335 0.91762
 C790 C 0.21146 0.70732 0.89107
 C791 C 0.10667 0.67568 0.93316
 C792 C 0.08978 0.67499 0.95387
 C793 C 0.18608 0.69814 0.83601
 C794 C 0.20260 0.70653 0.81633
 H795 H 0.13615 0.67418 0.81207
 H796 H 0.08114 0.65320 0.80766
 H797 H 0.04701 0.64344 0.84950
 H798 H 0.06767 0.65460 0.89603
 H799 H 0.15901 0.69209 0.95730
 H800 H 0.21416 0.71244 0.96174
 H801 H 0.24821 0.72240 0.91992
 H802 H 0.22738 0.71198 0.87341
 C803 C 0.66264 0.20448 0.35906
 C804 C 0.67577 0.21200 0.38554
 C805 C 0.65639 0.20827 0.41004
 C806 C 0.62403 0.19699 0.40791
 C807 C 0.61108 0.18897 0.38148
 C808 C 0.63046 0.19272 0.35697
 C809 C 0.61698 0.18469 0.33078
 C810 C 0.58522 0.17325 0.32884
 C811 C 0.56626 0.16960 0.35280
 C812 C 0.57890 0.17733 0.37888
 C813 C 0.66996 0.21616 0.43626
 C814 C 0.70181 0.22731 0.43823
 C815 C 0.72081 0.23084 0.41429
 C816 C 0.70805 0.22341 0.38819
 C817 C 0.60412 0.19372 0.43291
 C818 C 0.58787 0.19099 0.45383
 C819 C 0.68189 0.21035 0.33402
 C820 C 0.69842 0.21674 0.31385
 H821 H 0.63083 0.18709 0.31157
 H822 H 0.57529 0.16720 0.30863
 H823 H 0.54160 0.16071 0.35118
 H824 H 0.56321 0.17409 0.39692
 H825 H 0.65617 0.21378 0.45550
 H826 H 0.71179 0.23324 0.45844
 H827 H 0.74552 0.23954 0.41591
 H828 H 0.72379 0.22665 0.37019
 C829 C 0.83933 0.28763 0.85714
 C830 C 0.86625 0.30912 0.85644
 C831 C 0.88535 0.31353 0.88076
 C832 C 0.87734 0.29648 0.90568
 C833 C 0.85052 0.27482 0.90633
 C834 C 0.83150 0.27034 0.88200
 C835 C 0.80491 0.24839 0.88317
 C836 C 0.79740 0.23134 0.90763
 C837 C 0.81591 0.23585 0.93144
 C838 C 0.84217 0.25732 0.93093
 C839 C 0.91220 0.33508 0.87952
 C840 C 0.91998 0.35179 0.85495
 C841 C 0.90130 0.34750 0.83119
 C842 C 0.87470 0.32645 0.83181
 C843 C 0.89630 0.30152 0.93077
 C844 C 0.91145 0.30577 0.95192
 C845 C 0.81980 0.28277 0.83235
 C846 C 0.80291 0.27735 0.81243
 H847 H 0.78971 0.24406 0.86524
 H848 H 0.77716 0.21449 0.90809
 H849 H 0.80993 0.22259 0.95039
 H850 H 0.85587 0.25993 0.94998
 H851 H 0.92747 0.33918 0.89745
 H852 H 0.94063 0.36815 0.85435
 H853 H 0.90745 0.36055 0.81216
 H854 H 0.86089 0.32388 0.81281
 C855 C 0.33905 0.78840 0.35500
 C856 C 0.33122 0.76931 0.37889
 C857 C 0.34965 0.77271 0.40367
 C858 C 0.37584 0.79509 0.40441
 C859 C 0.38376 0.81404 0.38050
 C860 C 0.36527 0.81071 0.35573
 C861 C 0.37360 0.82992 0.33211
 C862 C 0.39953 0.85177 0.33291
 C863 C 0.41765 0.85500 0.35711
 C864 C 0.40995 0.83643 0.38070
 C865 C 0.34135 0.75342 0.42727
 C866 C 0.31570 0.73125 0.42637
 C867 C 0.29777 0.72779 0.40211
 C868 C 0.30524 0.74661 0.37861
 C869 C 0.39452 0.79868 0.42980
 C870 C 0.40987 0.80178 0.45095
 C871 C 0.32015 0.78462 0.32976
 C872 C 0.30361 0.78005 0.30950
 H873 H 0.36020 0.82823 0.31281
 H874 H 0.40559 0.86627 0.31464
 H875 H 0.43778 0.87199 0.35761
 H876 H 0.42476 0.83980 0.39903
 H877 H 0.35462 0.75518 0.44662
 H878 H 0.30975 0.71662 0.44459
 H879 H 0.27801 0.71039 0.40146
 H880 H 0.29049 0.74306 0.36028
 C881 C 0.29618 0.84585 0.14806
 C882 C 0.29503 0.88041 0.14848
 C883 C 0.30077 0.89842 0.12348
 C884 C 0.30763 0.88176 0.09823
 C885 C 0.30964 0.84724 0.09797
 C886 C 0.30392 0.82923 0.12296
 C887 C 0.30583 0.79472 0.12213
 C888 C 0.31320 0.77847 0.09733
 C889 C 0.31880 0.79608 0.07289
 C890 C 0.31706 0.83007 0.07308
 C891 C 0.29925 0.93294 0.12436
 C892 C 0.29229 0.94920 0.14924
 C893 C 0.28667 0.93158 0.17368
 C894 C 0.28798 0.89757 0.17343
 C895 C 0.31201 0.89997 0.07239
 C896 C 0.31554 0.91461 0.05069
 C897 C 0.28752 0.82725 0.17292
 C898 C 0.27913 0.81114 0.19283
 H899 H 0.30176 0.77993 0.14060
 H900 H 0.31459 0.75207 0.09708
 H901 H 0.32452 0.78335 0.05368
 H902 H 0.32164 0.84267 0.05353
 H903 H 0.30346 0.94769 0.10588
 H904 H 0.29124 0.97562 0.14955
 H905 H 0.28128 0.94434 0.19295
 H906 H 0.28352 0.88492 0.19297
 C907 C 0.78759 0.34413 0.65096
 C908 C 0.76621 0.34155 0.62804
 C909 C 0.77193 0.36037 0.60349
 C910 C 0.79898 0.38169 0.60197
 C911 C 0.82020 0.38446 0.62497
 C912 C 0.81449 0.36560 0.64953
 C913 C 0.83606 0.36872 0.67221
 C914 C 0.86252 0.38989 0.67069
 C915 C 0.86810 0.40834 0.64669
 C916 C 0.84726 0.40575 0.62403
 C917 C 0.75026 0.35730 0.58084
 C918 C 0.72363 0.33637 0.58244
 C919 C 0.71795 0.31807 0.60648
 C920 C 0.73896 0.32043 0.62903
 C921 C 0.80523 0.40017 0.57653
 C922 C 0.81024 0.41482 0.55502
 C923 C 0.78158 0.32467 0.67591
 C924 C 0.77506 0.30795 0.69597
 H925 H 0.83269 0.35486 0.69130
 H926 H 0.87879 0.39199 0.68823
 H927 H 0.88868 0.42476 0.64563
 H928 H 0.85256 0.42063 0.60582
 H929 H 0.75359 0.37109 0.56171
 H930 H 0.70727 0.33439 0.56495
 H931 H 0.69715 0.30195 0.60767
 H932 H 0.73352 0.30558 0.64722
 C933 C 0.71268 0.15478 0.15131
 C934 C 0.71790 0.16975 0.12492
 C935 C 0.71283 0.15162 0.10004
 C936 C 0.70250 0.11866 0.10169
 C937 C 0.69716 0.10373 0.12805
 C938 C 0.70225 0.12186 0.15295
 C939 C 0.69682 0.10643 0.17906
 C940 C 0.68668 0.07397 0.18055
 C941 C 0.68173 0.05622 0.15621
 C942 C 0.68686 0.07082 0.13020
 C943 C 0.71836 0.16707 0.07392
 C944 C 0.72856 0.19950 0.07241
 C945 C 0.73341 0.21726 0.09672
 C946 C 0.72825 0.20267 0.12272
 C947 C 0.69723 0.10031 0.07620
 C948 C 0.69279 0.08571 0.05472
 C949 C 0.71917 0.17312 0.17659
 C950 C 0.72581 0.18928 0.19678
 H951 H 0.70033 0.11926 0.19855
 H952 H 0.68264 0.06252 0.20070
 H953 H 0.67387 0.03101 0.15749
 H954 H 0.68271 0.05603 0.11186
 H955 H 0.71491 0.15429 0.05440
 H956 H 0.73272 0.21090 0.05226
 H957 H 0.74139 0.24243 0.09545
 H958 H 0.73249 0.21751 0.14101
 C959 C 0.21668 0.65281 0.65148
 C960 C 0.22202 0.66927 0.62576
 C961 C 0.21715 0.65257 0.60013
 C962 C 0.20686 0.61956 0.60035
 C963 C 0.20143 0.60313 0.62605
 C964 C 0.20635 0.61983 0.65170
 C965 C 0.20084 0.60291 0.67712
 C966 C 0.19079 0.57038 0.67722
 C967 C 0.18601 0.55405 0.65216
 C968 C 0.19122 0.57011 0.62680
 C969 C 0.22284 0.66947 0.57470
 C970 C 0.23298 0.70196 0.57458
 C971 C 0.23759 0.71834 0.59963
 C972 C 0.23228 0.70230 0.62498
 C973 C 0.20166 0.60263 0.57413
 C974 C 0.19713 0.58880 0.55229
 C975 C 0.22289 0.66972 0.67755
 C976 C 0.22926 0.68482 0.69839
 H977 H 0.20422 0.61462 0.69714
 H978 H 0.18670 0.55779 0.69686
 H979 H 0.17823 0.52878 0.65235
 H980 H 0.18720 0.55637 0.60785
 H981 H 0.21957 0.65779 0.55466
 H982 H 0.23728 0.71448 0.55495
 H983 H 0.24552 0.74357 0.59944
 H984 H 0.23635 0.71610 0.64389
 C985 C 0.83129 0.69263 0.13905
 C986 C 0.82336 0.70867 0.11374
 C987 C 0.84283 0.70381 0.08946
 C988 C 0.87022 0.68302 0.09060
 C989 C 0.87771 0.66641 0.11571
 C990 C 0.85817 0.67121 0.14000
 C991 C 0.86626 0.65452 0.16489
 C992 C 0.89291 0.63366 0.16578
 C993 C 0.91202 0.62899 0.14206
 C994 C 0.90463 0.64514 0.11724
 C995 C 0.83451 0.72030 0.06448
 C996 C 0.80784 0.74109 0.06354
 C997 C 0.78887 0.74594 0.08730
 C998 C 0.79637 0.72994 0.11213
 C999 C 0.89129 0.68006 0.06623
 C1000 C 0.90836 0.67927 0.04564
 C1001 C 0.81240 0.69939 0.16416
 C1002 C 0.79622 0.70671 0.18431
 H1003 H 0.85207 0.65737 0.18385
 H1004 H 0.89876 0.62105 0.18499
 H1005 H 0.93270 0.61277 0.14287
 H1006 H 0.92017 0.64072 0.09931
 H1007 H 0.84848 0.71732 0.04542
 H1008 H 0.80188 0.75355 0.04428
 H1009 H 0.76827 0.76223 0.08649
 H1010 H 0.78078 0.73447 0.13000
 C1011 C 0.33322 0.20986 0.64398
 C1012 C 0.32804 0.22988 0.62024
 C1013 C 0.34721 0.22541 0.59574
 C1014 C 0.37152 0.20104 0.59514
 C1015 C 0.37665 0.18098 0.61885
 C1016 C 0.35741 0.18539 0.64334
 C1017 C 0.36300 0.16512 0.66679
 C1018 C 0.38696 0.14117 0.66609
 C1019 C 0.40580 0.13687 0.64216
 C1020 C 0.40080 0.15647 0.61874
 C1021 C 0.34161 0.24572 0.57228
 C1022 C 0.31789 0.26990 0.57307
 C1023 C 0.29926 0.27441 0.59707
 C1024 C 0.30406 0.25463 0.62040
 C1025 C 0.39123 0.19671 0.57016
 C1026 C 0.40737 0.19325 0.54926
 C1027 C 0.31410 0.21521 0.66915
 C1028 C 0.29779 0.22137 0.68948
 H1029 H 0.34894 0.16757 0.68587
 H1030 H 0.39094 0.12588 0.68422
 H1031 H 0.42439 0.11824 0.64172
 H1032 H 0.41606 0.15220 0.60061
 H1033 H 0.35552 0.24321 0.55314
 H1034 H 0.31400 0.28528 0.55498
 H1035 H 0.28102 0.29337 0.59764
 H1036 H 0.28884 0.25905 0.63852
 C1037 C 0.15892 0.29247 0.14488
 C1038 C 0.17150 0.28438 0.11814
 C1039 C 0.15207 0.28867 0.09402
 C1040 C 0.12017 0.30112 0.09675
 C1041 C 0.10764 0.30932 0.12346
 C1042 C 0.12707 0.30500 0.14760
 C1043 C 0.11401 0.31333 0.17406
 C1044 C 0.08262 0.32557 0.17663
 C1045 C 0.06361 0.32979 0.15305
 C1046 C 0.07585 0.32180 0.12671
 C1047 C 0.16515 0.28028 0.06755
 C1048 C 0.19655 0.26807 0.06496
 C1049 C 0.21559 0.26398 0.08851
 C1050 C 0.20332 0.27191 0.11485
 C1051 C 0.10053 0.30579 0.07200
 C1052 C 0.08487 0.30980 0.05109
 C1053 C 0.17854 0.28689 0.16951
 C1054 C 0.19553 0.28098 0.18927
 H1055 H 0.12790 0.31050 0.19300
 H1056 H 0.07299 0.33183 0.19704
 H1057 H 0.03924 0.33930 0.15517
 H1058 H 0.06015 0.32548 0.10898
 H1059 H 0.15130 0.28303 0.04859
 H1060 H 0.20615 0.26174 0.04456
 H1061 H 0.23997 0.25448 0.08640
 H1062 H 0.21908 0.26818 0.13253
 C1063 C 0.66198 0.79356 0.64143
 C1064 C 0.67515 0.78520 0.61496
 C1065 C 0.65575 0.78782 0.59067
 C1066 C 0.62330 0.79882 0.59298
 C1067 C 0.61017 0.80726 0.61943
 C1068 C 0.62958 0.80463 0.64374
 C1069 C 0.61594 0.81314 0.66995
 C1070 C 0.58400 0.82397 0.67209
 C1071 C 0.56500 0.82655 0.64833
 C1072 C 0.57781 0.81833 0.62224
 C1073 C 0.66941 0.77924 0.56445
 C1074 C 0.70135 0.76843 0.56229
 C1075 C 0.72037 0.76595 0.58602
 C1076 C 0.70754 0.77412 0.61211
 C1077 C 0.60364 0.80171 0.56810
 C1078 C 0.58776 0.80430 0.54719
 C1079 C 0.68169 0.78980 0.66621
 C1080 C 0.69898 0.78543 0.68603
 H1081 H 0.62980 0.81155 0.68900
 H1082 H 0.57393 0.83039 0.69231
 H1083 H 0.54020 0.83497 0.65011
 H1084 H 0.56209 0.82072 0.60436
 H1085 H 0.65560 0.78077 0.54537
 H1086 H 0.71140 0.76194 0.54209
 H1087 H 0.74516 0.75750 0.58425
 H1088 H 0.72330 0.77165 0.62994
   
