data_POSCAR
  _audit_creation_date              2014-09-24
  _audit_creation_method            'ToBaCCo'
  _symmetry_space_group_name_H-M    'P1'
  _symmetry_Int_Tables_number       1
  _symmetry_cell_setting            triclinic
  loop_
  _symmetry_equiv_pos_as_xyz
 x,y,z
_cell_length_a 41.5311
_cell_length_b 41.4675
_cell_length_c 15.2506
_cell_angle_alpha 89.958800
_cell_angle_beta 90.004200
_cell_angle_gamma 119.962300
loop_
  _atom_site_label
  _atom_site_type_symbol
  _atom_site_fract_x
  _atom_site_fract_y
  _atom_site_fract_z
O1 O 0.25182 0.44236 0.58222
 O2 O 0.18735 0.44246 0.41484
 O3 O 0.24949 0.43966 0.41358
 O4 O 0.18831 0.44181 0.58545
 O5 O 0.21905 0.50320 0.58036
 O6 O 0.28105 0.50112 0.41166
 O7 O 0.21950 0.50382 0.41131
 O8 O 0.28243 0.50381 0.58034
 Cu9 Cu 0.21598 0.43540 0.49911
 Cu10 Cu 0.25358 0.50908 0.49571
 C11 C 0.27872 0.47327 0.60815
 C12 C 0.19206 0.47332 0.38571
 C13 C 0.27659 0.47001 0.38603
 C14 C 0.19259 0.47292 0.61035
 O15 O 0.56395 -0.18624 0.58653
 O16 O 0.56250 -0.25113 0.41870
 O17 O 0.56241 -0.18751 0.41763
 O18 O 0.56413 -0.24989 0.58767
 O19 O 0.50281 -0.28028 0.59073
 O20 O 0.50108 -0.21878 0.41991
 O21 O 0.50117 -0.28151 0.42133
 O22 O 0.50263 -0.21716 0.58923
 Cu23 Cu 0.56941 -0.21560 0.50239
 Cu24 Cu 0.49585 -0.25249 0.50583
 C25 C 0.53343 -0.18989 0.61432
 C26 C 0.53154 -0.27807 0.39335
 C27 C 0.53140 -0.19184 0.39182
 C28 C 0.53363 -0.27660 0.61598
 O29 O 1.25067 0.81090 0.41404
 O30 O 1.18584 0.74877 0.58340
 O31 O 1.24970 0.81236 0.58291
 O32 O 1.18740 0.74747 0.41448
 O33 O 1.21815 0.71681 0.42017
 O34 O 1.27995 0.78119 0.58834
 O35 O 1.21670 0.71826 0.58895
 O36 O 1.28103 0.77986 0.41958
 Cu37 Cu 1.21532 0.78298 0.49840
 Cu38 Cu 1.25199 0.74596 0.50496
 C39 C 1.27747 0.80649 0.38957
 C40 C 1.18945 0.72204 0.61277
 C41 C 1.27628 0.80854 0.61189
 C42 C 1.19165 0.72052 0.39026
 O43 O 0.81097 0.56009 0.41465
 O44 O 0.74842 0.56251 0.58366
 O45 O 0.81206 0.56256 0.58357
 O46 O 0.74765 0.56046 0.41482
 O47 O 0.71750 0.49904 0.41811
 O48 O 0.78090 0.50112 0.58859
 O49 O 0.71781 0.50110 0.58749
 O50 O 0.78021 0.49868 0.41992
 Cu51 Cu 0.78288 0.56758 0.49880
 Cu52 Cu 0.74602 0.49388 0.50411
 C53 C 0.80681 0.52892 0.39030
 C54 C 0.72158 0.53208 0.61218
 C55 C 0.80813 0.53208 0.61259
 C56 C 0.72088 0.52938 0.38970
 O57 O 0.44134 0.18852 0.58835
 O58 O 0.44004 0.25138 0.41747
 O59 O 0.43892 0.18741 0.41966
 O60 O 0.44174 0.25235 0.58808
 O61 O 0.50308 0.28214 0.58505
 O62 O 0.50028 0.21810 0.41509
 O63 O 0.50135 0.28168 0.41605
 O64 O 0.50262 0.21886 0.58378
 Cu65 Cu 0.43433 0.21699 0.50387
 Cu66 Cu 0.50792 0.25322 0.49955
 C67 C 0.47230 0.19231 0.61320
 C68 C 0.47071 0.27796 0.38939
 C69 C 0.46924 0.19107 0.39075
 C70 C 0.47288 0.27879 0.61389
 O71 O 0.74877 0.18700 0.41695
 O72 O 0.81407 0.25070 0.58315
 O73 O 0.75052 0.18708 0.58578
 O74 O 0.81186 0.25100 0.41421
 O75 O 0.78080 0.28136 0.41876
 O76 O 0.71999 0.21798 0.58958
 O77 O 0.78294 0.28096 0.58736
 O78 O 0.71830 0.21793 0.41991
 Cu79 Cu 0.78443 0.21589 0.49965
 Cu80 Cu 0.74740 0.25255 0.50436
 C81 C 0.72172 0.19091 0.39204
 C82 C 0.81034 0.27747 0.61158
 C83 C 0.72398 0.19099 0.61469
 C84 C 0.80738 0.27775 0.38920
 N85 N 0.96011 0.53745 0.09443
 N86 N 0.93384 0.54575 0.11131
 N87 N 1.03814 0.55367 0.15468
 N88 N 1.06425 0.57181 0.21354
 N89 N 1.03843 0.57657 0.09477
 N90 N 1.06492 0.61106 0.11137
 N91 N 0.96018 0.51469 0.15427
 N92 N 0.93414 0.50694 0.21330
 C93 C 0.91770 0.52621 0.18545
 C94 C 1.08093 0.60748 0.18545
 N95 N 1.03838 0.46170 0.09471
 N96 N 1.06514 0.45400 0.11060
 N97 N 0.96022 0.44534 0.15397
 N98 N 0.93411 0.42698 0.21276
 N99 N 0.96012 0.42259 0.09396
 N100 N 0.93381 0.38801 0.11044
 N101 N 1.03825 0.48442 0.15442
 N102 N 1.06481 0.49284 0.21236
 Mn103 Mn 0.99919 0.49952 0.15508
 C104 C 1.08152 0.47390 0.18405
 C105 C 0.91767 0.39135 0.18451
 N106 N 1.03881 0.57686 -0.09494
 N107 N 1.06475 0.61148 -0.11322
 N108 N 0.96080 0.51500 -0.15495
 N109 N 0.93520 0.50749 -0.21481
 N110 N 0.96043 0.53761 -0.09528
 N111 N 0.93432 0.54603 -0.11313
 N112 N 1.03861 0.55390 -0.15441
 N113 N 1.06412 0.57207 -0.21448
 Mn114 Mn 0.99944 0.55758 -0.00022
 C115 C 1.08048 0.60790 -0.18794
 C116 C 0.91868 0.52675 -0.18782
 N117 N 0.96034 0.42273 -0.09566
 N118 N 0.93442 0.38815 -0.11420
 N119 N 1.03860 0.48476 -0.15405
 N120 N 1.06553 0.49375 -0.21110
 N121 N 1.03881 0.46212 -0.09418
 N122 N 1.06619 0.45522 -0.10877
 N123 N 0.96072 0.44579 -0.15518
 N124 N 0.93535 0.42773 -0.21558
 Mn125 Mn 0.99938 0.44181 -0.00029
 Mn126 Mn 0.99967 0.49985 -0.15522
 Cl127 Cl 0.99939 0.49969 -0.00011
 C128 C 0.91889 0.39185 -0.18914
 C129 C 1.08286 0.47563 -0.18150
 N130 N 0.46069 0.42201 0.09258
 N131 N 0.45297 0.38744 0.10788
 N132 N 0.44500 0.48425 0.15337
 N133 N 0.42711 0.49210 0.21307
 N134 N 0.42200 0.46189 0.09351
 N135 N 0.38760 0.45396 0.11109
 N136 N 0.48328 0.44461 0.15267
 N137 N 0.49136 0.42621 0.21068
 C138 C 0.47273 0.39070 0.18148
 C139 C 0.39139 0.47330 0.18585
 N140 N 0.53718 0.57616 0.09518
 N141 N 0.54540 0.61068 0.11318
 N142 N 0.55262 0.51334 0.15302
 N143 N 0.57030 0.50444 0.21109
 N144 N 0.57580 0.53639 0.09429
 N145 N 0.61012 0.54396 0.11138
 N146 N 0.51415 0.55301 0.15400
 N147 N 0.50592 0.57091 0.21295
 Mn148 Mn 0.49879 0.49882 0.15389
 C149 C 0.52521 0.60679 0.18649
 C150 C 0.60604 0.52334 0.18402
 N151 N 0.42220 0.46232 -0.09611
 N152 N 0.38776 0.45434 -0.11325
 N153 N 0.48382 0.44551 -0.15562
 N154 N 0.49291 0.42745 -0.21228
 N155 N 0.46097 0.42268 -0.09608
 N156 N 0.45393 0.38834 -0.11057
 N157 N 0.44517 0.48500 -0.15573
 N158 N 0.42712 0.49303 -0.21489
 Mn159 Mn 0.44098 0.44179 -0.00157
 C160 C 0.39142 0.47401 -0.18735
 C161 C 0.47432 0.39191 -0.18310
 N162 N 0.57617 0.53701 -0.09536
 N163 N 0.61072 0.54553 -0.11348
 N164 N 0.51471 0.55397 -0.15460
 N165 N 0.50748 0.57247 -0.21407
 N166 N 0.53737 0.57666 -0.09461
 N167 N 0.54609 0.61137 -0.11188
 N168 N 0.55325 0.51452 -0.15523
 N169 N 0.57143 0.50726 -0.21547
 Mn170 Mn 0.55710 0.55703 -0.00010
 Mn171 Mn 0.49923 0.49974 -0.15601
 Cl172 Cl 0.49902 0.49937 -0.00100
 C173 C 0.60721 0.52647 -0.18854
 C174 C 0.52695 0.60818 -0.18654
 N175 N 0.42216 -0.04013 0.09363
 N176 N 0.38756 -0.06641 0.11007
 N177 N 0.48396 0.03758 0.15546
 N178 N 0.49171 0.06317 0.21551
 N179 N 0.46162 0.03836 0.09572
 N180 N 0.45359 0.06477 0.11379
 N181 N 0.44478 -0.04037 0.15341
 N182 N 0.42637 -0.06662 0.21196
 C183 C 0.39079 -0.08288 0.18388
 C184 C 0.47286 0.08013 0.18869
 N185 N 0.57613 0.03803 0.09708
 N186 N 0.61046 0.06465 0.11475
 N187 N 0.51368 -0.04058 0.15376
 N188 N 0.50518 -0.06706 0.21194
 N189 N 0.53687 -0.04042 0.09510
 N190 N 0.54495 -0.06686 0.11236
 N191 N 0.55291 0.03760 0.15606
 N192 N 0.57061 0.06385 0.21492
 Mn193 Mn 0.49885 -0.00146 0.15527
 C194 C 0.60643 0.08078 0.18819
 C195 C 0.52447 -0.08356 0.18503
 N196 N 0.46227 0.03933 -0.09403
 N197 N 0.45395 0.06561 -0.11113
 N198 N 0.44605 -0.03870 -0.15533
 N199 N 0.42803 -0.06417 -0.21559
 N200 N 0.42298 -0.03910 -0.09591
 N201 N 0.38850 -0.06510 -0.11426
 N202 N 0.48513 0.03934 -0.15354
 N203 N 0.49296 0.06548 -0.21252
 Mn204 Mn 0.44181 -0.00037 -0.00015
 C205 C 0.47362 0.08187 -0.18503
 C206 C 0.39222 -0.08064 -0.18904
 N207 N 0.53757 -0.03959 -0.09444
 N208 N 0.54608 -0.06566 -0.11248
 N209 N 0.55413 0.03895 -0.15229
 N210 N 0.57252 0.06485 -0.21140
 N211 N 0.57683 0.03883 -0.09253
 N212 N 0.61146 0.06487 -0.10968
 N213 N 0.51514 -0.03905 -0.15437
 N214 N 0.50790 -0.06451 -0.21463
 Mn215 Mn 0.55732 -0.00078 0.00131
 Mn216 Mn 0.50012 0.00013 -0.15452
 Cl217 Cl 0.49950 -0.00062 0.00041
 C218 C 0.52709 -0.08114 -0.18759
 C219 C 0.60818 0.08104 -0.18393
 C220 C 1.16463 0.47371 0.32961
 C221 C 1.17360 0.51254 0.29651
 C222 C 1.14621 0.51217 0.24678
 C223 C 1.11229 0.47325 0.23423
 C224 C 1.12820 0.44976 0.19577
 C225 C 1.15569 0.45004 0.24581
 C226 C 1.12716 0.45841 0.37689
 C227 C 1.09991 0.45810 0.32727
 H228 H 1.19938 0.53815 0.30957
 H229 H 1.14868 0.53728 0.21807
 H230 H 1.11899 0.43455 0.13447
 H231 H 1.16988 0.43508 0.22709
 H232 H 1.12232 0.44849 0.44382
 H233 H 1.07195 0.44781 0.35209
 C234 C 0.53043 0.69199 0.33509
 C235 C 0.56637 0.68978 0.33546
 C236 C 0.56455 0.66180 0.28519
 C237 C 0.52704 0.63836 0.23911
 C238 C 0.49804 0.62504 0.31318
 C239 C 0.49985 0.65293 0.36304
 C240 C 0.52257 0.69476 0.23763
 C241 C 0.52079 0.66662 0.18723
 H242 H 0.59115 0.70847 0.37222
 H243 H 0.58770 0.65674 0.27904
 H244 H 0.47688 0.59622 0.32402
 H245 H 0.48005 0.64760 0.41519
 H246 H 0.51880 0.71688 0.21068
 H247 H 0.51545 0.66468 0.11721
 C248 C 0.30700 -0.16493 0.33050
 C249 C 0.33712 -0.17396 0.30124
 C250 C 0.36433 -0.14693 0.25112
 C251 C 0.35921 -0.11322 0.23474
 C252 C 0.32014 -0.12973 0.19443
 C253 C 0.29275 -0.15690 0.24471
 C254 C 0.32849 -0.12701 0.37635
 C255 C 0.35569 -0.10005 0.32641
 H256 H 0.33694 -0.19956 0.31730
 H257 H 0.38725 -0.14948 0.22484
 H258 H 0.31447 -0.12113 0.13182
 H259 H 0.26377 -0.17147 0.22500
 H260 H 0.32272 -0.12176 0.44267
 H261 H 0.37306 -0.07179 0.35000
 C262 C 0.83555 0.52800 0.33164
 C263 C 0.87340 0.54449 0.37769
 C264 C 0.90040 0.54420 0.32801
 C265 C 0.88734 0.52743 0.23637
 C266 C 0.85374 0.48860 0.25284
 C267 C 0.82668 0.48882 0.30267
 C268 C 0.84356 0.55019 0.24571
 C269 C 0.87076 0.54994 0.19570
 H270 H 0.87856 0.55555 0.44394
 H271 H 0.92860 0.55510 0.35177
 H272 H 0.85129 0.46310 0.22682
 H273 H 0.80116 0.46340 0.31875
 H274 H 0.82897 0.56459 0.22571
 H275 H 0.87935 0.56417 0.13304
 C276 C 0.47096 0.30709 0.32941
 C277 C 0.45648 0.29425 0.23568
 C278 C 0.45677 0.32157 0.18448
 C279 C 0.47158 0.35911 0.23218
 C280 C 0.44734 0.34992 0.31444
 C281 C 0.44684 0.32268 0.36483
 C282 C 0.50982 0.34149 0.31678
 C283 C 0.51008 0.36846 0.26589
 H284 H 0.44701 0.26629 0.21168
 H285 H 0.44758 0.31692 0.11671
 H286 H 0.43033 0.36235 0.32930
 H287 H 0.42860 0.31131 0.42096
 H288 H 0.53522 0.34444 0.34452
 H289 H 0.53554 0.39407 0.25045
 C290 C 0.69167 0.16179 0.33454
 C291 C 0.69095 0.12428 0.33194
 C292 C 0.66290 0.09779 0.28261
 C293 C 0.63792 0.11090 0.24021
 C294 C 0.62464 0.12540 0.31693
 C295 C 0.65262 0.15183 0.36590
 C296 C 0.69284 0.17277 0.23775
 C297 C 0.66465 0.14607 0.18822
 H298 H 0.71069 0.11884 0.36608
 H299 H 0.65882 0.06998 0.27470
 H300 H 0.59576 0.11674 0.33016
 H301 H 0.64730 0.16568 0.41955
 H302 H 0.71398 0.19912 0.21057
 H303 H 0.66169 0.14965 0.11874
 C304 C 0.47281 0.16477 -0.33120
 C305 C 0.51174 0.17352 -0.30017
 C306 C 0.51153 0.14617 -0.25044
 C307 C 0.47266 0.11245 -0.23589
 C308 C 0.44982 0.12885 -0.19623
 C309 C 0.44995 0.15632 -0.24617
 C310 C 0.45676 0.12703 -0.37800
 C311 C 0.45667 0.09979 -0.32829
 H312 H 0.53732 0.19917 -0.31450
 H313 H 0.53675 0.14854 -0.22303
 H314 H 0.43513 0.11995 -0.13422
 H315 H 0.43539 0.17081 -0.22661
 H316 H 0.44618 0.12204 -0.44471
 H317 H 0.44598 0.07164 -0.35253
 C318 C 0.69342 0.53196 -0.33359
 C319 C 0.68837 0.51303 -0.24379
 C320 C 0.65993 0.51132 -0.19512
 C321 C 0.63908 0.52861 -0.24060
 C322 C 0.66937 0.56849 -0.26367
 C323 C 0.69786 0.57035 -0.31215
 C324 C 0.65515 0.51043 -0.37772
 C325 C 0.62689 0.50855 -0.32945
 H326 H 0.70580 0.50222 -0.22020
 H327 H 0.65303 0.49897 -0.13016
 H328 H 0.66856 0.59315 -0.24334
 H329 H 0.72128 0.59674 -0.33273
 H330 H 0.65056 0.49765 -0.44190
 H331 H 0.59847 0.49414 -0.35327
 C332 C 0.83834 0.30575 -0.33455
 C333 C 0.85490 0.34411 -0.37863
 C334 C 0.88126 0.37239 -0.33024
 C335 C 0.88924 0.36007 -0.24150
 C336 C 0.85121 0.33905 -0.19589
 C337 C 0.82452 0.31062 -0.24459
 C338 C 0.87234 0.30140 -0.31351
 C339 C 0.89891 0.32988 -0.26498
 H340 H 0.84672 0.34872 -0.44302
 H341 H 0.89528 0.40088 -0.35394
 H342 H 0.84578 0.34584 -0.13083
 H343 H 0.79633 0.29307 -0.22093
 H344 H 0.87541 0.27806 -0.33444
 H345 H 0.92442 0.33076 -0.24496
 C346 C 0.53303 -0.16188 -0.33181
 C347 C 0.51125 -0.14539 -0.37614
 C348 C 0.50919 -0.11900 -0.32816
 C349 C 0.52933 -0.11089 -0.23942
 C350 C 0.51236 -0.14894 -0.19353
 C351 C 0.51425 -0.17568 -0.24190
 C352 C 0.57126 -0.12775 -0.31071
 C353 C 0.56921 -0.10113 -0.26255
 H354 H 0.49837 -0.15379 -0.44013
 H355 H 0.49455 -0.10518 -0.35204
 H356 H 0.50008 -0.15434 -0.12853
 H357 H 0.50366 -0.20388 -0.21804
 H358 H 0.59768 -0.12465 -0.33129
 H359 H 0.59374 -0.07554 -0.24250
 C360 C 0.30811 0.47359 -0.33335
 C361 C 0.33851 0.51255 -0.30347
 C362 C 0.36558 0.51229 -0.25374
 C363 C 0.36007 0.47326 -0.23825
 C364 C 0.32093 0.45084 -0.19803
 C365 C 0.29370 0.45106 -0.24796
 C366 C 0.32933 0.45701 -0.37988
 C367 C 0.35641 0.45683 -0.33029
 H368 H 0.33863 0.53816 -0.31887
 H369 H 0.38865 0.53757 -0.22714
 H370 H 0.31511 0.43632 -0.13572
 H371 H 0.26471 0.43677 -0.22826
 H372 H 0.32345 0.44617 -0.44634
 H373 H 0.37358 0.44578 -0.35434
 C374 C 1.16135 0.69394 -0.33315
 C375 C 1.12747 0.69850 -0.31222
 C376 C 1.10078 0.67006 -0.26368
 C377 C 1.11024 0.63971 -0.24011
 C378 C 1.11818 0.62737 -0.32879
 C379 C 1.14463 0.65558 -0.37716
 C380 C 1.17506 0.68894 -0.24313
 C381 C 1.14826 0.66055 -0.19444
 H382 H 1.12458 0.72195 -0.33318
 H383 H 1.07534 0.66932 -0.24368
 H384 H 1.10407 0.59889 -0.35253
 H385 H 1.15278 0.65094 -0.44154
 H386 H 1.20325 0.70637 -0.21943
 H387 H 1.15359 0.65368 -0.12934
 C388 C 0.83761 0.53187 -0.33084
 C389 C 0.87159 0.57025 -0.31094
 C390 C 0.89840 0.56850 -0.26310
 C391 C 0.88884 0.52868 -0.23929
 C392 C 0.85104 0.51173 -0.19260
 C393 C 0.82414 0.51336 -0.24067
 C394 C 0.85389 0.50997 -0.37532
 C395 C 0.88047 0.50817 -0.32770
 H396 H 0.87440 0.59652 -0.33219
 H397 H 0.92400 0.59320 -0.24381
 H398 H 0.84591 0.49963 -0.12741
 H399 H 0.79603 0.50274 -0.21653
 H400 H 0.84531 0.49704 -0.43943
 H401 H 0.89434 0.49362 -0.35170
 C402 C 0.47375 0.30827 -0.32709
 C403 C 0.51286 0.33928 -0.30016
 C404 C 0.51279 0.36652 -0.25060
 C405 C 0.47377 0.36046 -0.23252
 C406 C 0.45609 0.35590 -0.32311
 C407 C 0.45609 0.32872 -0.37227
 C408 C 0.45245 0.29414 -0.24011
 C409 C 0.45241 0.32154 -0.19036
 H410 H 0.53840 0.33964 -0.31726
 H411 H 0.53817 0.39003 -0.22576
 H412 H 0.44404 0.37234 -0.34628
 H413 H 0.44395 0.32194 -0.43703
 H414 H 0.43890 0.26527 -0.21923
 H415 H 0.43881 0.31602 -0.12693
 C416 C 0.69448 0.16170 -0.32773
 C417 C 0.65609 0.14654 -0.37001
 C418 C 0.62778 0.12017 -0.32204
 C419 C 0.64012 0.11080 -0.23523
 C420 C 0.66939 0.10031 -0.26191
 C421 C 0.69792 0.12695 -0.31026
 C422 C 0.69067 0.17510 -0.23636
 C423 C 0.66216 0.14836 -0.18776
 H424 H 0.65143 0.15614 -0.43223
 H425 H 0.59920 0.10745 -0.34435
 H426 H 0.66790 0.07424 -0.24405
 H427 H 0.72074 0.12352 -0.33340
 H428 H 0.70892 0.20301 -0.21185
 H429 H 0.65598 0.15342 -0.12173
 C430 C 1.16420 0.47376 -0.32969
 C431 C 1.16407 0.46132 -0.23453
 C432 C 1.13724 0.46178 -0.18319
 C433 C 1.11322 0.47468 -0.23228
 C434 C 1.14118 0.51285 -0.27041
 C435 C 1.16771 0.51242 -0.32148
 C436 C 1.12432 0.44807 -0.36213
 C437 C 1.09778 0.44871 -0.31160
 H438 H 1.18340 0.45309 -0.20971
 H439 H 1.13369 0.45397 -0.11444
 H440 H 1.14041 0.53822 -0.25768
 H441 H 1.18939 0.53753 -0.35223
 H442 H 1.11728 0.42884 -0.41639
 H443 H 1.06831 0.43081 -0.32439
 C444 C 0.53324 0.69509 -0.32996
 C445 C 0.51155 0.65692 -0.37461
 C446 C 0.50939 0.62841 -0.32680
 C447 C 0.52937 0.64030 -0.23786
 C448 C 0.56930 0.67045 -0.26050
 C449 C 0.57145 0.69921 -0.30855
 C450 C 0.51430 0.68999 -0.24026
 C451 C 0.51232 0.66128 -0.19198
 H452 H 0.49878 0.65255 -0.43871
 H453 H 0.49479 0.60001 -0.35098
 H454 H 0.59380 0.66938 -0.24016
 H455 H 0.59790 0.72260 -0.32876
 H456 H 0.50369 0.70757 -0.21645
 H457 H 0.49994 0.65427 -0.12710
 C458 C 0.30603 -0.16182 -0.33188
 C459 C 0.31101 -0.17523 -0.24156
 C460 C 0.33954 -0.14830 -0.19367
 C461 C 0.36048 -0.11050 -0.24061
 C462 C 0.37257 -0.11903 -0.32888
 C463 C 0.34417 -0.14567 -0.37637
 C464 C 0.30177 -0.12770 -0.31234
 C465 C 0.33034 -0.10084 -0.26464
 H466 H 0.29347 -0.20334 -0.21720
 H467 H 0.34647 -0.15339 -0.12841
 H468 H 0.40097 -0.10521 -0.35288
 H469 H 0.34848 -0.15435 -0.44040
 H470 H 0.27841 -0.12483 -0.33374
 H471 H 0.33134 -0.07513 -0.24563
 C472 C 0.53014 -0.16321 0.33338
 C473 C 0.49940 -0.15500 0.36129
 C474 C 0.49739 -0.12905 0.31136
 C475 C 0.52642 -0.11321 0.23740
 C476 C 0.56395 -0.09889 0.28351
 C477 C 0.56595 -0.12495 0.33381
 C478 C 0.52236 -0.17387 0.23596
 C479 C 0.52040 -0.14760 0.18549
 H480 H 0.47966 -0.16953 0.41356
 H481 H 0.47609 -0.12159 0.32212
 H482 H 0.58699 -0.07061 0.27735
 H483 H 0.59077 -0.11871 0.37061
 H484 H 0.51877 -0.19969 0.20909
 H485 H 0.51510 -0.15098 0.11546
 C486 C 0.30600 0.46975 0.32921
 C487 C 0.34414 0.49085 0.37385
 C488 C 0.37223 0.49213 0.32608
 C489 C 0.35987 0.47192 0.23732
 C490 C 0.32912 0.43229 0.26056
 C491 C 0.30085 0.43107 0.30856
 C492 C 0.31142 0.48862 0.23936
 C493 C 0.33966 0.48971 0.19111
 H494 H 0.34869 0.50370 0.43811
 H495 H 0.40061 0.50614 0.35018
 H496 H 0.32949 0.40734 0.24077
 H497 H 0.27711 0.40499 0.32944
 H498 H 0.29440 0.49987 0.21557
 H499 H 0.34684 0.50197 0.12611
 C500 C 1.16306 0.69101 0.33157
 C501 C 1.17172 0.66050 0.30312
 C502 C 1.14464 0.63332 0.25318
 C503 C 1.11130 0.63889 0.23623
 C504 C 1.09811 0.64274 0.32758
 C505 C 1.12512 0.66992 0.37733
 C506 C 1.15541 0.70531 0.24541
 C507 C 1.12820 0.67797 0.19532
 H508 H 1.19710 0.66041 0.31958
 H509 H 1.14692 0.61013 0.22742
 H510 H 1.06982 0.62562 0.35107
 H511 H 1.11989 0.67594 0.44341
 H512 H 1.17025 0.73430 0.22532
 H513 H 1.11983 0.68367 0.13245
 C514 C 0.46906 0.16154 0.33356
 C515 C 0.43053 0.12772 0.31406
 C516 C 0.43183 0.10082 0.26552
 C517 C 0.47140 0.11013 0.24069
 C518 C 0.48842 0.14807 0.19434
 C519 C 0.48724 0.17507 0.24311
 C520 C 0.49085 0.14493 0.37695
 C521 C 0.49221 0.11825 0.32866
 H522 H 0.40447 0.12508 0.33607
 H523 H 0.40698 0.07533 0.24638
 H524 H 0.50024 0.15322 0.12888
 H525 H 0.49796 0.20329 0.21932
 H526 H 0.50410 0.15340 0.44076
 H527 H 0.50673 0.10420 0.35185
 C528 C 0.69097 0.52817 0.33166
 C529 C 0.68866 0.56411 0.33275
 C530 C 0.66072 0.56234 0.28273
 C531 C 0.63744 0.52489 0.23620
 C532 C 0.66568 0.51887 0.18389
 C533 C 0.69381 0.52059 0.23408
 C534 C 0.65202 0.49740 0.35947
 C535 C 0.62415 0.49563 0.30977
 H536 H 0.70725 0.58884 0.36987
 H537 H 0.65558 0.58548 0.27710
 H538 H 0.66374 0.51370 0.11379
 H539 H 0.71594 0.51695 0.20692
 H540 H 0.64676 0.47757 0.41165
 H541 H 0.59538 0.47439 0.32049
 C542 C 0.83588 0.30730 0.33035
 C543 C 0.87371 0.32875 0.37639
 C544 C 0.90062 0.35610 0.32671
 C545 C 0.88744 0.35975 0.23517
 C546 C 0.87100 0.32069 0.19444
 C547 C 0.84388 0.29317 0.24448
 C548 C 0.82682 0.33751 0.30143
 C549 C 0.85380 0.36486 0.25160
 H550 H 0.87895 0.32282 0.44257
 H551 H 0.92883 0.37346 0.35037
 H552 H 0.87961 0.31513 0.13175
 H553 H 0.82936 0.26417 0.22454
 H554 H 0.80124 0.33728 0.31745
 H555 H 0.85125 0.38786 0.22552
   
