data_POSCAR
  _audit_creation_date              2014-09-24
  _audit_creation_method            'ToBaCCo'
  _symmetry_space_group_name_H-M    'P1'
  _symmetry_Int_Tables_number       1
  _symmetry_cell_setting            triclinic
  loop_
  _symmetry_equiv_pos_as_xyz
 x,y,z
_cell_length_a 47.3128
_cell_length_b 47.1902
_cell_length_c 47.3326
_cell_angle_alpha 89.951900
_cell_angle_beta 89.993000
_cell_angle_gamma 90.074700
loop_
  _atom_site_label
  _atom_site_type_symbol
  _atom_site_fract_x
  _atom_site_fract_y
  _atom_site_fract_z
C1 C 0.27396 0.23867 0.23742
 C2 C 0.26186 0.22652 0.26162
 C3 C 0.23792 0.23845 0.27355
 C4 C 0.22580 0.26267 0.26141
 C5 C 0.23775 0.27468 0.23749
 C6 C 0.26198 0.26260 0.22543
 C7 C 0.29717 0.23162 0.22135
 N8 N 0.29936 0.25069 0.20007
 C9 C 0.27808 0.26972 0.20224
 C10 C 0.22162 0.29788 0.23037
 N11 N 0.20035 0.30004 0.24939
 C12 C 0.20258 0.27875 0.26845
 C13 C 0.23085 0.22230 0.29675
 N14 N 0.24992 0.20104 0.29899
 C15 C 0.26897 0.20329 0.27775
 H16 H 0.31139 0.21399 0.22481
 H17 H 0.27463 0.28736 0.18801
 H18 H 0.22504 0.31211 0.21274
 H19 H 0.18837 0.27528 0.28606
 H20 H 0.21322 0.22569 0.31093
 H21 H 0.28660 0.18910 0.27435
 C22 C 0.72508 -0.23826 0.23706
 C23 C 0.73713 -0.22617 0.26129
 C24 C 0.76109 -0.23808 0.27320
 C25 C 0.77330 -0.26222 0.26103
 C26 C 0.76139 -0.27418 0.23707
 C27 C 0.73715 -0.26212 0.22502
 C28 C 0.70185 -0.23121 0.22100
 N29 N 0.69975 -0.25024 0.19969
 C30 C 0.72108 -0.26923 0.20181
 C31 C 0.77758 -0.29732 0.22991
 N32 N 0.79883 -0.29948 0.24896
 C33 C 0.79655 -0.27827 0.26807
 C34 C 0.76810 -0.22201 0.29644
 N35 N 0.74898 -0.20081 0.29873
 C36 C 0.72995 -0.20303 0.27748
 H37 H 0.68758 -0.21364 0.22452
 H38 H 0.72461 -0.28682 0.18756
 H39 H 0.77418 -0.31150 0.21225
 H40 H 0.81072 -0.27480 0.28571
 H41 H 0.78573 -0.22542 0.31062
 H42 H 0.71227 -0.18888 0.27410
 C43 C 0.72620 0.23835 0.76282
 C44 C 0.73835 0.22626 0.73865
 C45 C 0.76233 0.23825 0.72678
 C46 C 0.77444 0.26248 0.73894
 C47 C 0.76243 0.27444 0.76282
 C48 C 0.73817 0.26230 0.77483
 C49 C 0.70292 0.23124 0.77882
 N50 N 0.70070 0.25031 0.80006
 C51 C 0.72201 0.26940 0.79797
 C52 C 0.77854 0.29769 0.76997
 N53 N 0.79985 0.29990 0.75098
 C54 C 0.79768 0.27863 0.73192
 C55 C 0.76944 0.22215 0.70359
 N56 N 0.75036 0.20087 0.70130
 C57 C 0.73126 0.20305 0.72250
 H58 H 0.68870 0.21359 0.77529
 H59 H 0.72545 0.28705 0.81217
 H60 H 0.77505 0.31190 0.78758
 H61 H 0.81191 0.27519 0.71432
 H62 H 0.78710 0.22561 0.68945
 H63 H 0.71360 0.18883 0.72586
 C64 C 0.27488 -0.23923 0.76284
 C65 C 0.26284 -0.22709 0.73863
 C66 C 0.23883 -0.23898 0.72674
 C67 C 0.22657 -0.26314 0.73893
 C68 C 0.23847 -0.27514 0.76288
 C69 C 0.26277 -0.26311 0.77490
 C70 C 0.29814 -0.23219 0.77889
 N71 N 0.30021 -0.25124 0.80021
 C72 C 0.27883 -0.27023 0.79811
 C73 C 0.22221 -0.29827 0.77007
 N74 N 0.20093 -0.30039 0.75106
 C75 C 0.20325 -0.27915 0.73193
 C76 C 0.23183 -0.22285 0.70352
 N77 N 0.25101 -0.20165 0.70123
 C78 C 0.27006 -0.20392 0.72245
 H79 H 0.31244 -0.21460 0.77536
 H80 H 0.27525 -0.28784 0.81237
 H81 H 0.22558 -0.31247 0.78774
 H82 H 0.18906 -0.27564 0.71432
 H83 H 0.21417 -0.22622 0.68937
 H84 H 0.28777 -0.18976 0.72582
 C85 C 0.72557 -0.23901 0.76326
 C86 C 0.73763 -0.22689 0.73903
 C87 C 0.76161 -0.23878 0.72713
 C88 C 0.77380 -0.26294 0.73932
 C89 C 0.76188 -0.27493 0.76328
 C90 C 0.73763 -0.26289 0.77532
 C91 C 0.70233 -0.23198 0.77931
 N92 N 0.70021 -0.25103 0.80062
 C93 C 0.72155 -0.27002 0.79852
 C94 C 0.77807 -0.29808 0.77046
 N95 N 0.79934 -0.30021 0.75142
 C96 C 0.79707 -0.27897 0.73230
 C97 C 0.76863 -0.22267 0.70389
 N98 N 0.74950 -0.20147 0.70160
 C99 C 0.73046 -0.20373 0.72284
 H100 H 0.68807 -0.21440 0.77577
 H101 H 0.72506 -0.28763 0.81278
 H102 H 0.77466 -0.31228 0.78813
 H103 H 0.81125 -0.27548 0.71466
 H104 H 0.78627 -0.22605 0.68972
 H105 H 0.71279 -0.18957 0.72621
 C106 C 0.27480 0.23825 0.76235
 C107 C 0.26264 0.22608 0.73821
 C108 C 0.23864 0.23798 0.72636
 C109 C 0.22651 0.26217 0.73850
 C110 C 0.23852 0.27420 0.76236
 C111 C 0.26280 0.26217 0.77436
 C112 C 0.29807 0.23122 0.77836
 N113 N 0.30027 0.25031 0.79960
 C114 C 0.27896 0.26932 0.79749
 C115 C 0.22237 0.29737 0.76950
 N116 N 0.20104 0.29950 0.75055
 C117 C 0.20324 0.27822 0.73151
 C118 C 0.23151 0.22183 0.70321
 N119 N 0.25061 0.20060 0.70092
 C120 C 0.26972 0.20288 0.72209
 H121 H 0.31230 0.21361 0.77485
 H122 H 0.27549 0.28696 0.81170
 H123 H 0.22583 0.31161 0.78709
 H124 H 0.18899 0.27473 0.71395
 H125 H 0.21383 0.22520 0.68908
 H126 H 0.28740 0.18871 0.72545
 C127 C 0.27454 -0.23859 0.23675
 C128 C 0.26247 -0.22646 0.26093
 C129 C 0.23844 -0.23833 0.27281
 C130 C 0.22618 -0.26248 0.26063
 C131 C 0.23810 -0.27448 0.23672
 C132 C 0.26242 -0.26246 0.22471
 C133 C 0.29782 -0.23157 0.22071
 N134 N 0.29990 -0.25062 0.19943
 C135 C 0.27851 -0.26959 0.20153
 C136 C 0.22184 -0.29761 0.22955
 N137 N 0.20052 -0.29971 0.24854
 C138 C 0.20284 -0.27848 0.26764
 C139 C 0.23143 -0.22222 0.29601
 N140 N 0.25062 -0.20104 0.29831
 C141 C 0.26969 -0.20330 0.27710
 H142 H 0.31213 -0.21399 0.22423
 H143 H 0.27494 -0.28720 0.18729
 H144 H 0.22522 -0.31180 0.21190
 H145 H 0.18863 -0.27497 0.28523
 H146 H 0.21375 -0.22560 0.31016
 H147 H 0.28742 -0.18917 0.27375
 C148 C 0.72615 0.23873 0.23772
 C149 C 0.73821 0.22665 0.26195
 C150 C 0.76209 0.23869 0.27393
 C151 C 0.77420 0.26296 0.26181
 C152 C 0.76228 0.27490 0.23785
 C153 C 0.73812 0.26271 0.22574
 C154 C 0.70299 0.23157 0.22160
 N155 N 0.70081 0.25063 0.20031
 C156 C 0.72206 0.26976 0.20252
 C157 C 0.77838 0.29818 0.23075
 N158 N 0.79959 0.30044 0.24982
 C159 C 0.79738 0.27915 0.26891
 C160 C 0.76913 0.22259 0.29715
 N161 N 0.75010 0.20124 0.29936
 C162 C 0.73111 0.20340 0.27807
 H163 H 0.68879 0.21389 0.22504
 H164 H 0.72550 0.28741 0.18830
 H165 H 0.77495 0.31238 0.21309
 H166 H 0.81154 0.27573 0.28656
 H167 H 0.78672 0.22607 0.31138
 H168 H 0.71351 0.18912 0.27463
 O169 O 0.27389 0.02723 0.47237
 O170 O 0.27420 -0.02799 0.52735
 O171 O 0.27411 -0.02792 0.47234
 O172 O 0.27401 0.02716 0.52736
 O173 O 0.22726 0.02693 0.52745
 O174 O 0.22736 -0.02815 0.47243
 O175 O 0.22745 -0.02822 0.52744
 O176 O 0.22715 0.02700 0.47246
 Cu177 Cu 0.27878 -0.00036 0.49985
 Cu178 Cu 0.22258 -0.00064 0.49996
 C179 C 0.25047 0.03643 0.46315
 C180 C 0.25088 -0.03741 0.53668
 C181 C 0.25075 -0.03732 0.46309
 C182 C 0.25062 0.03634 0.53669
 O183 O 0.72633 0.02736 0.52787
 O184 O 0.72594 -0.02773 0.47286
 O185 O 0.72608 -0.02780 0.52786
 O186 O 0.72622 0.02742 0.47288
 O187 O 0.77297 0.02725 0.47277
 O188 O 0.77283 -0.02796 0.52775
 O189 O 0.77269 -0.02790 0.47275
 O190 O 0.77308 0.02720 0.52776
 Cu191 Cu 0.72142 -0.00018 0.50038
 Cu192 Cu 0.77762 -0.00037 0.50025
 C193 C 0.74977 0.03657 0.53709
 C194 C 0.74925 -0.03710 0.46351
 C195 C 0.74943 -0.03719 0.53709
 C196 C 0.74962 0.03665 0.46355
 O197 O 0.47275 0.27407 0.02659
 O198 O 0.52782 0.27402 -0.02835
 O199 O 0.47280 0.27405 -0.02840
 O200 O 0.52775 0.27403 0.02664
 O201 O 0.52766 0.22715 0.02669
 O202 O 0.47270 0.22718 -0.02835
 O203 O 0.52772 0.22715 -0.02829
 O204 O 0.47265 0.22720 0.02665
 Cu205 Cu 0.50029 0.27878 -0.00089
 Cu206 Cu 0.50017 0.22243 -0.00082
 C207 C 0.46341 0.25064 0.03589
 C208 C 0.53707 0.25057 -0.03758
 C209 C 0.46347 0.25062 -0.03766
 C210 C 0.53698 0.25058 0.03596
 O211 O 0.52743 0.72576 0.02757
 O212 O 0.47250 0.72556 -0.02750
 O213 O 0.52752 0.72559 -0.02742
 O214 O 0.47242 0.72570 0.02749
 O215 O 0.47244 0.77257 0.02732
 O216 O 0.52754 0.77246 -0.02759
 O217 O 0.47252 0.77243 -0.02767
 O218 O 0.52746 0.77263 0.02740
 Cu219 Cu 0.49996 0.72091 0.00005
 Cu220 Cu 0.49999 0.77726 -0.00015
 C221 C 0.53672 0.74923 0.03677
 C222 C 0.46324 0.74896 -0.03687
 C223 C 0.53683 0.74900 -0.03677
 C224 C 0.46313 0.74915 0.03667
 O225 O 0.02684 0.47363 0.27239
 O226 O -0.02814 0.52874 0.27229
 O227 O -0.02816 0.47359 0.27250
 O228 O 0.02689 0.52877 0.27215
 O229 O 0.02680 0.52863 0.22542
 O230 O -0.02826 0.47344 0.22577
 O231 O -0.02824 0.52859 0.22556
 O232 O 0.02675 0.47348 0.22566
 Cu233 Cu -0.00064 0.50121 0.27705
 Cu234 Cu -0.00075 0.50103 0.22088
 C235 C 0.03607 0.46426 0.24904
 C236 C -0.03748 0.53795 0.24891
 C237 C -0.03750 0.46420 0.24919
 C238 C 0.03615 0.53799 0.24873
 O239 O 0.02729 0.52804 0.72803
 O240 O -0.02775 0.47284 0.72793
 O241 O -0.02774 0.52800 0.72809
 O242 O 0.02726 0.47290 0.72787
 O243 O 0.02731 0.47272 0.77460
 O244 O -0.02769 0.52782 0.77482
 O245 O -0.02770 0.47267 0.77465
 O246 O 0.02734 0.52787 0.77476
 Cu247 Cu -0.00024 0.50047 0.72325
 Cu248 Cu -0.00019 0.50026 0.77943
 C249 C 0.03662 0.53725 0.75141
 C250 C -0.03701 0.46344 0.75127
 C251 C -0.03701 0.53719 0.75150
 C252 C 0.03657 0.46352 0.75119
 C253 C 0.40232 0.25074 0.09702
 C254 C 0.37348 0.25286 0.08932
 C255 C 0.35225 0.25288 0.11058
 C256 C 0.35999 0.25076 0.13941
 C257 C 0.38884 0.24864 0.14710
 C258 C 0.41007 0.24864 0.12584
 C259 C 0.43877 0.24652 0.13403
 C260 C 0.44629 0.24444 0.16242
 C261 C 0.42553 0.24443 0.18321
 C262 C 0.39711 0.24650 0.17576
 C263 C 0.32356 0.25503 0.10237
 C264 C 0.31606 0.25709 0.07397
 C265 C 0.33681 0.25706 0.05318
 C266 C 0.36522 0.25498 0.06065
 C267 C 0.33831 0.25073 0.16112
 C268 C 0.32029 0.25071 0.17914
 C269 C 0.42399 0.25070 0.07531
 C270 C 0.44200 0.25067 0.05729
 H271 H 0.45568 0.24644 0.11864
 H272 H 0.46834 0.24284 0.16832
 H273 H 0.43148 0.24281 0.20524
 H274 H 0.38174 0.24640 0.19269
 H275 H 0.30665 0.25515 0.11776
 H276 H 0.29402 0.25872 0.06806
 H277 H 0.33088 0.25867 0.03115
 H278 H 0.38059 0.25505 0.04371
 C279 C 0.59782 0.74947 0.09787
 C280 C 0.59008 0.75139 0.12671
 C281 C 0.61133 0.75148 0.14794
 C282 C 0.64019 0.74963 0.14021
 C283 C 0.64792 0.74770 0.11136
 C284 C 0.62667 0.74763 0.09013
 C285 C 0.63490 0.74570 0.06144
 C286 C 0.66332 0.74388 0.05393
 C287 C 0.68410 0.74394 0.07469
 C288 C 0.67661 0.74582 0.10311
 C289 C 0.60308 0.75343 0.17662
 C290 C 0.57465 0.75522 0.18411
 C291 C 0.55387 0.75511 0.16336
 C292 C 0.56137 0.75323 0.13495
 C293 C 0.66190 0.74968 0.16190
 C294 C 0.67992 0.74972 0.17990
 C295 C 0.57612 0.74938 0.07619
 C296 C 0.55811 0.74931 0.05819
 H297 H 0.61951 0.74557 0.04453
 H298 H 0.66924 0.74241 0.03189
 H299 H 0.70615 0.74252 0.06875
 H300 H 0.69354 0.74579 0.11848
 H301 H 0.61847 0.75359 0.19353
 H302 H 0.56872 0.75669 0.20615
 H303 H 0.53182 0.75650 0.16929
 H304 H 0.54445 0.75323 0.11958
 C305 C 0.59839 0.25047 -0.09848
 C306 C 0.62720 0.25264 -0.09066
 C307 C 0.64852 0.25261 -0.11181
 C308 C 0.64092 0.25038 -0.14066
 C309 C 0.61210 0.24819 -0.14848
 C310 C 0.59078 0.24825 -0.12733
 C311 C 0.56211 0.24605 -0.13565
 C312 C 0.55473 0.24386 -0.16407
 C313 C 0.57559 0.24379 -0.18475
 C314 C 0.60398 0.24593 -0.17718
 C315 C 0.67717 0.25483 -0.10347
 C316 C 0.68454 0.25700 -0.07505
 C317 C 0.66369 0.25701 -0.05436
 C318 C 0.63531 0.25487 -0.06195
 C319 C 0.66271 0.25034 -0.16228
 C320 C 0.68081 0.25032 -0.18022
 C321 C 0.57661 0.25051 -0.07688
 C322 C 0.55854 0.25054 -0.05893
 H323 H 0.54513 0.24601 -0.12034
 H324 H 0.53271 0.24220 -0.17006
 H325 H 0.56975 0.24208 -0.20680
 H326 H 0.61943 0.24578 -0.19403
 H327 H 0.69416 0.25491 -0.11878
 H328 H 0.70656 0.25867 -0.06904
 H329 H 0.66952 0.25870 -0.03231
 H330 H 0.61986 0.25498 -0.04509
 C331 C 0.40213 0.74878 -0.09797
 C332 C 0.40986 0.75063 -0.12681
 C333 C 0.38861 0.75061 -0.14804
 C334 C 0.35976 0.74871 -0.14030
 C335 C 0.35203 0.74684 -0.11145
 C336 C 0.37328 0.74688 -0.09022
 C337 C 0.36505 0.74502 -0.06152
 C338 C 0.33663 0.74315 -0.05400
 C339 C 0.31585 0.74310 -0.07476
 C340 C 0.32334 0.74491 -0.10318
 C341 C 0.39686 0.75251 -0.17673
 C342 C 0.42529 0.75437 -0.18424
 C343 C 0.44607 0.75438 -0.16348
 C344 C 0.43857 0.75254 -0.13507
 C345 C 0.33804 0.74871 -0.16198
 C346 C 0.32002 0.74873 -0.17999
 C347 C 0.42383 0.74883 -0.07629
 C348 C 0.44184 0.74889 -0.05829
 H349 H 0.38043 0.74498 -0.04461
 H350 H 0.33071 0.74175 -0.03195
 H351 H 0.29380 0.74164 -0.06881
 H352 H 0.30641 0.74478 -0.11855
 H353 H 0.38147 0.75258 -0.19365
 H354 H 0.43122 0.75580 -0.20628
 H355 H 0.46812 0.75582 -0.16942
 H356 H 0.45550 0.75263 -0.11970
 C357 C 0.09722 0.40309 0.24919
 C358 C 0.08950 0.37414 0.25099
 C359 C 0.11076 0.35289 0.25106
 C360 C 0.13962 0.36070 0.24929
 C361 C 0.14733 0.38966 0.24747
 C362 C 0.12607 0.41091 0.24743
 C363 C 0.13429 0.43972 0.24560
 C364 C 0.16271 0.44731 0.24386
 C365 C 0.18350 0.42653 0.24390
 C366 C 0.17603 0.39800 0.24568
 C367 C 0.10252 0.32409 0.25290
 C368 C 0.07409 0.31652 0.25461
 C369 C 0.05330 0.33730 0.25453
 C370 C 0.06079 0.36581 0.25275
 C371 C 0.16134 0.33899 0.24931
 C372 C 0.17938 0.32097 0.24934
 C373 C 0.07550 0.42479 0.24912
 C374 C 0.05748 0.44282 0.24908
 H375 H 0.11889 0.45665 0.24549
 H376 H 0.16862 0.46944 0.24248
 H377 H 0.20555 0.43253 0.24254
 H378 H 0.19297 0.38262 0.24563
 H379 H 0.11792 0.30716 0.25303
 H380 H 0.06817 0.29439 0.25600
 H381 H 0.03124 0.33130 0.25585
 H382 H 0.04385 0.38120 0.25277
 C383 C 0.09815 0.59820 0.75143
 C384 C 0.12696 0.59018 0.75228
 C385 C 0.14840 0.61132 0.75223
 C386 C 0.14089 0.64034 0.75133
 C387 C 0.11206 0.64836 0.75048
 C388 C 0.09063 0.62722 0.75054
 C389 C 0.06196 0.63574 0.74969
 C390 C 0.05467 0.66433 0.74881
 C391 C 0.07563 0.68500 0.74874
 C392 C 0.10402 0.67723 0.74957
 C393 C 0.17706 0.60278 0.75310
 C394 C 0.18433 0.57418 0.75396
 C395 C 0.16337 0.55351 0.75399
 C396 C 0.13499 0.56130 0.75317
 C397 C 0.16279 0.66194 0.75124
 C398 C 0.18096 0.67988 0.75115
 C399 C 0.07626 0.57661 0.75144
 C400 C 0.05813 0.55865 0.75144
 H401 H 0.04489 0.62045 0.74971
 H402 H 0.03264 0.67047 0.74817
 H403 H 0.06986 0.70718 0.74805
 H404 H 0.11956 0.69408 0.74949
 H405 H 0.19412 0.61807 0.75311
 H406 H 0.20636 0.56803 0.75461
 H407 H 0.16913 0.53133 0.75466
 H408 H 0.11945 0.54445 0.75323
 C409 C -0.09881 0.59894 0.24883
 C410 C -0.09119 0.62793 0.25030
 C411 C -0.11253 0.64910 0.25032
 C412 C -0.14137 0.64116 0.24884
 C413 C -0.14899 0.61216 0.24734
 C414 C -0.12764 0.59099 0.24734
 C415 C -0.13577 0.56215 0.24585
 C416 C -0.16417 0.55443 0.24438
 C417 C -0.18504 0.57513 0.24437
 C418 C -0.17767 0.60370 0.24583
 C419 C -0.10439 0.67794 0.25182
 C420 C -0.07598 0.68564 0.25325
 C421 C -0.05511 0.66494 0.25322
 C422 C -0.06250 0.63638 0.25177
 C423 C -0.16318 0.66279 0.24887
 C424 C -0.18128 0.68076 0.24890
 C425 C -0.07702 0.57732 0.24885
 C426 C -0.05894 0.55935 0.24887
 H427 H -0.12031 0.54527 0.24579
 H428 H -0.17001 0.53227 0.24325
 H429 H -0.20708 0.56904 0.24322
 H430 H -0.19466 0.61902 0.24575
 H431 H -0.11985 0.69482 0.25191
 H432 H -0.07013 0.70779 0.25439
 H433 H -0.03307 0.67102 0.25433
 H434 H -0.04551 0.62106 0.25181
 C435 C -0.09817 0.40212 0.75122
 C436 C -0.12705 0.40991 0.75215
 C437 C -0.14832 0.38860 0.75213
 C438 C -0.14057 0.35964 0.75115
 C439 C -0.11169 0.35186 0.75022
 C440 C -0.09042 0.37317 0.75026
 C441 C -0.06169 0.36488 0.74933
 C442 C -0.05417 0.33636 0.74837
 C443 C -0.07496 0.31552 0.74832
 C444 C -0.10342 0.32306 0.74923
 C445 C -0.17704 0.39690 0.75308
 C446 C -0.18454 0.42544 0.75401
 C447 C -0.16375 0.44627 0.75403
 C448 C -0.13530 0.43872 0.75312
 C449 C -0.16230 0.33787 0.75109
 C450 C -0.18033 0.31978 0.75103
 C451 C -0.07646 0.42388 0.75122
 C452 C -0.05843 0.44195 0.75124
 H453 H -0.04475 0.38031 0.74933
 H454 H -0.03209 0.33040 0.74766
 H455 H -0.06902 0.29339 0.74757
 H456 H -0.11882 0.30608 0.74916
 H457 H -0.19398 0.38148 0.75311
 H458 H -0.20661 0.43141 0.75472
 H459 H -0.16968 0.46841 0.75476
 H460 H -0.11990 0.45570 0.75318
 C461 C 0.25018 0.09774 0.40204
 C462 C 0.25156 0.08997 0.37318
 C463 C 0.25149 0.11127 0.35193
 C464 C 0.25002 0.14022 0.35967
 C465 C 0.24864 0.14798 0.38854
 C466 C 0.24873 0.12667 0.40978
 C467 C 0.24735 0.13494 0.43850
 C468 C 0.24592 0.16345 0.44601
 C469 C 0.24581 0.18428 0.42524
 C470 C 0.24715 0.17677 0.39680
 C471 C 0.25290 0.10299 0.32323
 C472 C 0.25434 0.07447 0.31573
 C473 C 0.25440 0.05364 0.33651
 C474 C 0.25303 0.06117 0.36493
 C475 C 0.24997 0.16199 0.33796
 C476 C 0.24994 0.18006 0.31994
 C477 C 0.25027 0.07598 0.42373
 C478 C 0.25035 0.05791 0.44174
 H479 H 0.24736 0.11951 0.45542
 H480 H 0.24488 0.16939 0.46807
 H481 H 0.24469 0.20640 0.43118
 H482 H 0.24701 0.19374 0.38142
 H483 H 0.25291 0.11841 0.30630
 H484 H 0.25540 0.06851 0.29368
 H485 H 0.25551 0.03151 0.33058
 H486 H 0.25315 0.04420 0.38032
 C487 C 0.75019 0.09777 0.59821
 C488 C 0.74881 0.08994 0.62707
 C489 C 0.74887 0.11121 0.64832
 C490 C 0.75033 0.14018 0.64059
 C491 C 0.75176 0.14799 0.61173
 C492 C 0.75168 0.12673 0.59048
 C493 C 0.75311 0.13505 0.56177
 C494 C 0.75459 0.16358 0.55426
 C495 C 0.75468 0.18437 0.57504
 C496 C 0.75328 0.17680 0.60347
 C497 C 0.74747 0.10286 0.67702
 C498 C 0.74606 0.07433 0.68451
 C499 C 0.74601 0.05354 0.66373
 C500 C 0.74736 0.06113 0.63531
 C501 C 0.75035 0.16191 0.66230
 C502 C 0.75035 0.17993 0.68034
 C503 C 0.75005 0.07606 0.57651
 C504 C 0.74992 0.05802 0.55849
 H505 H 0.75311 0.11966 0.54484
 H506 H 0.75568 0.16956 0.53220
 H507 H 0.75584 0.20650 0.56910
 H508 H 0.75342 0.19374 0.61886
 H509 H 0.74745 0.11826 0.69395
 H510 H 0.74500 0.06832 0.70656
 H511 H 0.74492 0.03140 0.66965
 H512 H 0.74726 0.04418 0.61992
 C513 C 0.25116 -0.09859 0.59793
 C514 C 0.25249 -0.09073 0.62677
 C515 C 0.25252 -0.11197 0.64807
 C516 C 0.25120 -0.14095 0.64041
 C517 C 0.24989 -0.14880 0.61157
 C518 C 0.24988 -0.12756 0.59026
 C519 C 0.24857 -0.13592 0.56157
 C520 C 0.24730 -0.16445 0.55414
 C521 C 0.24730 -0.18523 0.57497
 C522 C 0.24858 -0.17762 0.60338
 C523 C 0.25387 -0.10360 0.67675
 C524 C 0.25514 -0.07505 0.68417
 C525 C 0.25510 -0.05428 0.66334
 C526 C 0.25379 -0.06190 0.63493
 C527 C 0.25116 -0.16266 0.66218
 C528 C 0.25110 -0.18069 0.68025
 C529 C 0.25107 -0.07688 0.57617
 C530 C 0.25099 -0.05886 0.55812
 H531 H 0.24851 -0.12053 0.54460
 H532 H 0.24631 -0.17047 0.53209
 H533 H 0.24631 -0.20737 0.56909
 H534 H 0.24853 -0.19456 0.61881
 H535 H 0.25395 -0.11898 0.69372
 H536 H 0.25616 -0.06902 0.70621
 H537 H 0.25609 -0.03213 0.66921
 H538 H 0.25382 -0.04497 0.61950
 C539 C 0.74888 -0.09809 0.40219
 C540 C 0.75017 -0.12709 0.40981
 C541 C 0.75015 -0.14826 0.38847
 C542 C 0.74882 -0.14032 0.35964
 C543 C 0.74749 -0.11132 0.35203
 C544 C 0.74753 -0.09014 0.37337
 C545 C 0.74621 -0.06129 0.36525
 C546 C 0.74489 -0.05358 0.33686
 C547 C 0.74485 -0.07428 0.31599
 C548 C 0.74613 -0.10285 0.32336
 C549 C 0.75148 -0.17711 0.39660
 C550 C 0.75278 -0.18481 0.42501
 C551 C 0.75279 -0.16410 0.44587
 C552 C 0.75151 -0.13554 0.43848
 C553 C 0.74885 -0.16196 0.33783
 C554 C 0.74890 -0.17993 0.31974
 C555 C 0.74899 -0.07646 0.42398
 C556 C 0.74910 -0.05849 0.44205
 H557 H 0.74619 -0.04441 0.38071
 H558 H 0.74390 -0.03141 0.33103
 H559 H 0.74382 -0.06818 0.29396
 H560 H 0.74603 -0.11817 0.30637
 H561 H 0.75153 -0.19399 0.38114
 H562 H 0.75379 -0.20696 0.43085
 H563 H 0.75380 -0.17019 0.46791
 H564 H 0.75157 -0.12022 0.45548
 C565 C 0.59810 0.74889 -0.09772
 C566 C 0.59043 0.75067 -0.12658
 C567 C 0.61173 0.75068 -0.14776
 C568 C 0.64057 0.74887 -0.13996
 C569 C 0.64823 0.74707 -0.11109
 C570 C 0.62693 0.74709 -0.08990
 C571 C 0.63510 0.74528 -0.06119
 C572 C 0.66351 0.74350 -0.05361
 C573 C 0.68433 0.74348 -0.07432
 C574 C 0.67691 0.74523 -0.10276
 C575 C 0.60354 0.75250 -0.17647
 C576 C 0.57513 0.75425 -0.18404
 C577 C 0.55430 0.75423 -0.16332
 C578 C 0.56174 0.75247 -0.13489
 C579 C 0.66233 0.74889 -0.16161
 C580 C 0.68038 0.74893 -0.17960
 C581 C 0.57635 0.74892 -0.07608
 C582 C 0.55829 0.74895 -0.05812
 H583 H 0.61968 0.74522 -0.04430
 H584 H 0.66938 0.74214 -0.03154
 H585 H 0.70637 0.74209 -0.06833
 H586 H 0.69387 0.74513 -0.11810
 H587 H 0.61896 0.75258 -0.19336
 H588 H 0.56924 0.75562 -0.20609
 H589 H 0.53226 0.75558 -0.16930
 H590 H 0.54478 0.75253 -0.11955
 C591 C 0.40233 0.25058 -0.09872
 C592 C 0.37351 0.25281 -0.09097
 C593 C 0.35224 0.25276 -0.11218
 C594 C 0.35992 0.25048 -0.14101
 C595 C 0.38875 0.24825 -0.14875
 C596 C 0.41001 0.24831 -0.12754
 C597 C 0.43869 0.24608 -0.13579
 C598 C 0.44614 0.24383 -0.16418
 C599 C 0.42535 0.24376 -0.18492
 C600 C 0.39695 0.24593 -0.17742
 C601 C 0.32357 0.25503 -0.10392
 C602 C 0.31613 0.25725 -0.07551
 C603 C 0.33693 0.25727 -0.05477
 C604 C 0.36532 0.25509 -0.06229
 C605 C 0.33819 0.25041 -0.16267
 C606 C 0.32013 0.25036 -0.18065
 C607 C 0.42404 0.25061 -0.07705
 C608 C 0.44206 0.25062 -0.05906
 H609 H 0.45563 0.24604 -0.12043
 H610 H 0.46818 0.24214 -0.17011
 H611 H 0.43124 0.24200 -0.20694
 H612 H 0.38154 0.24578 -0.19431
 H613 H 0.30663 0.25510 -0.11927
 H614 H 0.29411 0.25895 -0.06957
 H615 H 0.33104 0.25900 -0.03274
 H616 H 0.38072 0.25521 -0.04539
 C617 C 0.40192 0.74926 0.09767
 C618 C 0.40963 0.75122 0.12651
 C619 C 0.38836 0.75125 0.14773
 C620 C 0.35951 0.74929 0.13998
 C621 C 0.35181 0.74732 0.11113
 C622 C 0.37308 0.74732 0.08992
 C623 C 0.36487 0.74535 0.06122
 C624 C 0.33646 0.74343 0.05369
 C625 C 0.31566 0.74342 0.07444
 C626 C 0.32312 0.74534 0.10286
 C627 C 0.39658 0.75324 0.17642
 C628 C 0.42501 0.75514 0.18392
 C629 C 0.44580 0.75510 0.16318
 C630 C 0.43832 0.75317 0.13477
 C631 C 0.33778 0.74931 0.16165
 C632 C 0.31974 0.74934 0.17965
 C633 C 0.42364 0.74921 0.07601
 C634 C 0.44168 0.74919 0.05803
 H635 H 0.38027 0.74527 0.04432
 H636 H 0.33056 0.74194 0.03165
 H637 H 0.29362 0.74193 0.06849
 H638 H 0.30618 0.74525 0.11822
 H639 H 0.38118 0.75335 0.19332
 H640 H 0.43092 0.75665 0.20597
 H641 H 0.46785 0.75657 0.16912
 H642 H 0.45527 0.75323 0.11941
 C643 C 0.59799 0.25055 0.09715
 C644 C 0.62685 0.25261 0.08947
 C645 C 0.64805 0.25261 0.11075
 C646 C 0.64026 0.25054 0.13957
 C647 C 0.61140 0.24847 0.14724
 C648 C 0.59020 0.24849 0.12596
 C649 C 0.56148 0.24642 0.13414
 C650 C 0.55392 0.24439 0.16252
 C651 C 0.57465 0.24436 0.18332
 C652 C 0.60309 0.24637 0.17590
 C653 C 0.67675 0.25470 0.10256
 C654 C 0.68430 0.25672 0.07416
 C655 C 0.66357 0.25671 0.05336
 C656 C 0.63514 0.25468 0.06080
 C657 C 0.66193 0.25056 0.16131
 C658 C 0.67991 0.25058 0.17935
 C659 C 0.57634 0.25055 0.07542
 C660 C 0.55836 0.25057 0.05738
 H661 H 0.54459 0.24636 0.11873
 H662 H 0.53186 0.24282 0.16840
 H663 H 0.56867 0.24277 0.20535
 H664 H 0.61844 0.24626 0.19284
 H665 H 0.69365 0.25481 0.11797
 H666 H 0.70635 0.25830 0.06828
 H667 H 0.66953 0.25827 0.03133
 H668 H 0.61979 0.25476 0.04386
 C669 C -0.09833 0.59819 0.75168
 C670 C -0.12714 0.59027 0.75360
 C671 C -0.14848 0.61145 0.75359
 C672 C -0.14088 0.64042 0.75163
 C673 C -0.11205 0.64834 0.74974
 C674 C -0.09071 0.62716 0.74977
 C675 C -0.06205 0.63559 0.74788
 C676 C -0.05467 0.66413 0.74600
 C677 C -0.07553 0.68483 0.74594
 C678 C -0.10393 0.67716 0.74778
 C679 C -0.17714 0.60301 0.75554
 C680 C -0.18450 0.57446 0.75744
 C681 C -0.16364 0.55376 0.75744
 C682 C -0.13525 0.56144 0.75554
 C683 C -0.16268 0.66206 0.75156
 C684 C -0.18078 0.68003 0.75149
 C685 C -0.07654 0.57656 0.75163
 C686 C -0.05847 0.55859 0.75158
 H687 H -0.04505 0.62027 0.74784
 H688 H -0.03264 0.67020 0.74457
 H689 H -0.06969 0.70697 0.74447
 H690 H -0.11939 0.69404 0.74767
 H691 H -0.19413 0.61833 0.75563
 H692 H -0.20652 0.56838 0.75892
 H693 H -0.16946 0.53161 0.75891
 H694 H -0.11979 0.54456 0.75563
 C695 C -0.09860 0.40283 0.24958
 C696 C -0.12747 0.41053 0.24791
 C697 C -0.14869 0.38918 0.24799
 C698 C -0.14092 0.36026 0.24976
 C699 C -0.11204 0.35257 0.25147
 C700 C -0.09082 0.37392 0.25137
 C701 C -0.06209 0.36572 0.25307
 C702 C -0.05455 0.33723 0.25482
 C703 C -0.07530 0.31636 0.25493
 C704 C -0.10375 0.32381 0.25328
 C705 C -0.17741 0.39739 0.24628
 C706 C -0.18494 0.42589 0.24455
 C707 C -0.16419 0.44676 0.24449
 C708 C -0.13575 0.43929 0.24614
 C709 C -0.16260 0.33844 0.24980
 C710 C -0.18060 0.32033 0.24981
 C711 C -0.07692 0.42463 0.24944
 C712 C -0.05892 0.44271 0.24932
 H713 H -0.04519 0.38118 0.25307
 H714 H -0.03248 0.33134 0.25611
 H715 H -0.06933 0.29426 0.25630
 H716 H -0.11911 0.30680 0.25343
 H717 H -0.19432 0.38193 0.24625
 H718 H -0.20700 0.43179 0.24325
 H719 H -0.17014 0.46887 0.24315
 H720 H -0.12038 0.45630 0.24602
 C721 C 0.09778 0.40241 0.75095
 C722 C 0.09006 0.37343 0.74989
 C723 C 0.11135 0.35221 0.74980
 C724 C 0.14023 0.36009 0.75078
 C725 C 0.14794 0.38908 0.75184
 C726 C 0.12665 0.41031 0.75192
 C727 C 0.13486 0.43915 0.75298
 C728 C 0.16330 0.44681 0.75393
 C729 C 0.18412 0.42605 0.75387
 C730 C 0.17665 0.39749 0.75283
 C731 C 0.10312 0.32338 0.74871
 C732 C 0.07468 0.31573 0.74776
 C733 C 0.05386 0.33649 0.74787
 C734 C 0.06134 0.36504 0.74891
 C735 C 0.16199 0.33841 0.75068
 C736 C 0.18005 0.32041 0.75061
 C737 C 0.07604 0.42409 0.75103
 C738 C 0.05800 0.44210 0.75110
 H739 H 0.11944 0.45606 0.75307
 H740 H 0.16920 0.46897 0.75473
 H741 H 0.20618 0.43211 0.75462
 H742 H 0.19361 0.38213 0.75283
 H743 H 0.11854 0.30646 0.74859
 H744 H 0.06876 0.29358 0.74695
 H745 H 0.03179 0.33045 0.74713
 H746 H 0.04438 0.38040 0.74895
 C747 C 0.09770 0.59892 0.24840
 C748 C 0.12649 0.59091 0.24674
 C749 C 0.14793 0.61204 0.24671
 C750 C 0.14046 0.64105 0.24836
 C751 C 0.11166 0.64904 0.24999
 C752 C 0.09022 0.62792 0.25001
 C753 C 0.06158 0.63642 0.25165
 C754 C 0.05433 0.66499 0.25323
 C755 C 0.07530 0.68565 0.25323
 C756 C 0.10367 0.67789 0.25164
 C757 C 0.17656 0.60352 0.24503
 C758 C 0.18379 0.57495 0.24343
 C759 C 0.16282 0.55429 0.24348
 C760 C 0.13447 0.56206 0.24511
 C761 C 0.16237 0.66263 0.24840
 C762 C 0.18055 0.68056 0.24846
 C763 C 0.07581 0.57734 0.24850
 C764 C 0.05767 0.55938 0.24860
 H765 H 0.04451 0.62114 0.25172
 H766 H 0.03232 0.67112 0.25447
 H767 H 0.06956 0.70781 0.25448
 H768 H 0.11921 0.69474 0.25171
 H769 H 0.19363 0.61880 0.24492
 H770 H 0.20579 0.56880 0.24216
 H771 H 0.16855 0.53212 0.24224
 H772 H 0.11893 0.54521 0.24507
 C773 C 0.74932 -0.09840 0.59831
 C774 C 0.74806 -0.09056 0.62715
 C775 C 0.74806 -0.11182 0.64845
 C776 C 0.74935 -0.14079 0.64077
 C777 C 0.75060 -0.14862 0.61192
 C778 C 0.75058 -0.12736 0.59063
 C779 C 0.75183 -0.13570 0.56193
 C780 C 0.75307 -0.16424 0.55448
 C781 C 0.75311 -0.18502 0.57530
 C782 C 0.75189 -0.17743 0.60372
 C783 C 0.74677 -0.10346 0.67714
 C784 C 0.74552 -0.07492 0.68457
 C785 C 0.74552 -0.05413 0.66375
 C786 C 0.74677 -0.06174 0.63534
 C787 C 0.74939 -0.16251 0.66253
 C788 C 0.74943 -0.18053 0.68060
 C789 C 0.74935 -0.07668 0.57656
 C790 C 0.74938 -0.05865 0.55852
 H791 H 0.75186 -0.12031 0.54497
 H792 H 0.75401 -0.17024 0.53242
 H793 H 0.75407 -0.20716 0.56940
 H794 H 0.75197 -0.19437 0.61914
 H795 H 0.74671 -0.11885 0.69410
 H796 H 0.74453 -0.06890 0.70662
 H797 H 0.74454 -0.03199 0.66963
 H798 H 0.74672 -0.04480 0.61992
 C799 C 0.25086 -0.09830 0.40175
 C800 C 0.24960 -0.12729 0.40937
 C801 C 0.24959 -0.14847 0.38803
 C802 C 0.25085 -0.14052 0.35919
 C803 C 0.25212 -0.11151 0.35158
 C804 C 0.25212 -0.09034 0.37292
 C805 C 0.25338 -0.06148 0.36480
 C806 C 0.25461 -0.05376 0.33641
 C807 C 0.25463 -0.07446 0.31554
 C808 C 0.25340 -0.10304 0.32291
 C809 C 0.24829 -0.17732 0.39616
 C810 C 0.24706 -0.18502 0.42457
 C811 C 0.24708 -0.16431 0.44543
 C812 C 0.24833 -0.13575 0.43805
 C813 C 0.25079 -0.16215 0.33739
 C814 C 0.25072 -0.18013 0.31930
 C815 C 0.25083 -0.07667 0.42354
 C816 C 0.25080 -0.05870 0.44162
 H817 H 0.25343 -0.04460 0.38027
 H818 H 0.25556 -0.03159 0.33058
 H819 H 0.25559 -0.06836 0.29351
 H820 H 0.25347 -0.11836 0.30592
 H821 H 0.24822 -0.19420 0.38071
 H822 H 0.24607 -0.20718 0.43041
 H823 H 0.24612 -0.17041 0.46747
 H824 H 0.24830 -0.12043 0.45504
 C825 C 0.74980 0.09796 0.40244
 C826 C 0.74835 0.09019 0.37359
 C827 C 0.74843 0.11149 0.35233
 C828 C 0.74997 0.14044 0.36006
 C829 C 0.75143 0.14821 0.38892
 C830 C 0.75133 0.12690 0.41018
 C831 C 0.75278 0.13518 0.43888
 C832 C 0.75429 0.16369 0.44639
 C833 C 0.75440 0.18452 0.42561
 C834 C 0.75299 0.17699 0.39718
 C835 C 0.74695 0.10320 0.32364
 C836 C 0.74544 0.07468 0.31615
 C837 C 0.74537 0.05385 0.33693
 C838 C 0.74680 0.06139 0.36535
 C839 C 0.75003 0.16220 0.33835
 C840 C 0.75007 0.18027 0.32032
 C841 C 0.74972 0.07621 0.42414
 C842 C 0.74967 0.05814 0.44215
 H843 H 0.75276 0.11975 0.45581
 H844 H 0.75538 0.16964 0.46845
 H845 H 0.75558 0.20663 0.43154
 H846 H 0.75314 0.19396 0.38179
 H847 H 0.74694 0.11862 0.30670
 H848 H 0.74432 0.06871 0.29410
 H849 H 0.74420 0.03172 0.33101
 H850 H 0.74668 0.04442 0.38074
 C851 C 0.25056 0.09750 0.59784
 C852 C 0.25201 0.08966 0.62669
 C853 C 0.25202 0.11092 0.64795
 C854 C 0.25057 0.13989 0.64024
 C855 C 0.24910 0.14772 0.61138
 C856 C 0.24911 0.12646 0.59012
 C857 C 0.24764 0.13480 0.56142
 C858 C 0.24620 0.16333 0.55393
 C859 C 0.24618 0.18411 0.57472
 C860 C 0.24761 0.17652 0.60315
 C861 C 0.25350 0.10256 0.67665
 C862 C 0.25491 0.07403 0.68412
 C863 C 0.25489 0.05324 0.66333
 C864 C 0.25347 0.06085 0.63491
 C865 C 0.25057 0.16160 0.66196
 C866 C 0.25058 0.17964 0.67999
 C867 C 0.25057 0.07580 0.57613
 C868 C 0.25058 0.05777 0.55811
 H869 H 0.24760 0.11942 0.54448
 H870 H 0.24509 0.16933 0.53188
 H871 H 0.24505 0.20624 0.56880
 H872 H 0.24753 0.19346 0.61855
 H873 H 0.25357 0.11795 0.69358
 H874 H 0.25602 0.06801 0.70616
 H875 H 0.25598 0.03110 0.66924
 H876 H 0.25352 0.04391 0.61951
   
