data_POSCAR
  _audit_creation_date              2014-09-24
  _audit_creation_method            'ToBaCCo'
  _symmetry_space_group_name_H-M    'P1'
  _symmetry_Int_Tables_number       1
  _symmetry_cell_setting            triclinic
  loop_
  _symmetry_equiv_pos_as_xyz
 x,y,z
_cell_length_a 67.1816
_cell_length_b 67.1818
_cell_length_c 31.6006
_cell_angle_alpha 89.965100
_cell_angle_beta 89.985400
_cell_angle_gamma 90.226100
loop_
  _atom_site_label
  _atom_site_type_symbol
  _atom_site_fract_x
  _atom_site_fract_y
  _atom_site_fract_z
O1 O -0.01910 0.27723 -0.02047
 O2 O 0.02038 0.27392 -0.10198
 O3 O -0.01901 0.27458 -0.10255
 O4 O 0.02002 0.27669 -0.02003
 O5 O 0.01917 0.24388 -0.01558
 O6 O -0.01939 0.24178 -0.09747
 O7 O 0.01921 0.24114 -0.09739
 O8 O -0.01929 0.24441 -0.01565
 Cu9 Cu 0.00063 0.27894 -0.06190
 Cu10 Cu -0.00014 0.23955 -0.05614
 C11 C -0.02589 0.26126 -0.00430
 C12 C 0.02670 0.25688 -0.11303
 C13 C -0.02602 0.25775 -0.11349
 C14 C 0.02627 0.26053 -0.00398
 O15 O 0.51943 0.77520 0.39928
 O16 O 0.48024 0.77733 0.48151
 O17 O 0.51939 0.77757 0.48135
 O18 O 0.48008 0.77493 0.39945
 O19 O 0.48050 0.74211 0.40380
 O20 O 0.51913 0.74474 0.48546
 O21 O 0.48065 0.74450 0.48561
 O22 O 0.51915 0.74238 0.40361
 Cu23 Cu 0.49978 0.77959 0.43984
 Cu24 Cu 0.49987 0.74017 0.44494
 C25 C 0.52612 0.75835 0.38799
 C26 C 0.47375 0.76116 0.49735
 C27 C 0.52597 0.76148 0.49715
 C28 C 0.47344 0.75799 0.38824
 O29 O 1.02008 0.72358 -0.01810
 O30 O 0.98078 0.72550 -0.10013
 O31 O 1.02018 0.72599 -0.10002
 O32 O 0.98091 0.72312 -0.01798
 O33 O 0.98102 0.75595 -0.01387
 O34 O 1.01943 0.75879 -0.09596
 O35 O 0.98083 0.75832 -0.09573
 O36 O 1.01948 0.75639 -0.01412
 Cu37 Cu 1.00049 0.72122 -0.05961
 Cu38 Cu 1.00016 0.76061 -0.05459
 C39 C 1.02656 0.73978 -0.00239
 C40 C 0.97397 0.74232 -0.11137
 C41 C 1.02670 0.74297 -0.11139
 C42 C 0.97428 0.73917 -0.00211
 O43 O 0.51952 0.22133 0.48159
 O44 O 0.48034 0.22349 0.39936
 O45 O 0.51970 0.22370 0.39949
 O46 O 0.48038 0.22111 0.48142
 O47 O 0.48065 0.25394 0.48543
 O48 O 0.51929 0.25652 0.40372
 O49 O 0.48064 0.25631 0.40359
 O50 O 0.51913 0.25416 0.48557
 Cu51 Cu 0.49999 0.21907 0.43991
 Cu52 Cu 0.49993 0.25849 0.44489
 C53 C 0.52600 0.23750 0.49739
 C54 C 0.47367 0.24034 0.38803
 C55 C 0.52634 0.24063 0.38820
 C56 C 0.47380 0.23720 0.49717
 O57 O 0.72312 0.01951 0.02131
 O58 O 0.72621 -0.01998 0.10286
 O59 O 0.72577 0.01943 0.10339
 O60 O 0.72342 -0.01961 0.02094
 O61 O 0.75625 -0.01896 0.01653
 O62 O 0.75857 0.01964 0.09831
 O63 O 0.75900 -0.01898 0.09833
 O64 O 0.75594 0.01951 0.01649
 Cu65 Cu 0.72130 -0.00019 0.06278
 Cu66 Cu 0.76069 0.00035 0.05705
 C67 C 0.73913 0.02620 0.00512
 C68 C 0.74321 -0.02640 0.11392
 C69 C 0.74263 0.02637 0.11430
 C70 C 0.73955 -0.02596 0.00493
 O71 O 0.22127 0.51823 0.51930
 O72 O 0.22384 0.47897 0.60136
 O73 O 0.22366 0.51833 0.60137
 O74 O 0.22145 0.47908 0.51931
 O75 O 0.25428 0.47969 0.51521
 O76 O 0.25648 0.51824 0.59707
 O77 O 0.25666 0.47959 0.59701
 O78 O 0.25410 0.51817 0.51521
 Cu79 Cu 0.21922 0.49863 0.56090
 Cu80 Cu 0.25864 0.49895 0.55580
 C81 C 0.23736 0.52490 0.50348
 C82 C 0.24077 0.47243 0.61258
 C83 C 0.24053 0.52512 0.61264
 C84 C 0.23760 0.47268 0.50351
 O85 O 0.27405 1.01943 0.10114
 O86 O 0.27722 0.98014 0.01928
 O87 O 0.27648 1.01932 0.01922
 O88 O 0.27485 0.98005 0.10145
 O89 O 0.24203 0.97961 0.09705
 O90 O 0.24368 1.01821 0.01520
 O91 O 0.24440 0.97976 0.01515
 O92 O 0.24126 1.01819 0.09702
 Cu93 Cu 0.27898 0.99979 0.06083
 Cu94 Cu 0.23959 0.99885 0.05577
 C95 C 0.25703 1.02571 0.11245
 C96 C 0.26123 0.97327 0.00342
 C97 C 0.26023 1.02554 0.00346
 C98 C 0.25808 0.97301 0.11275
 O99 O 0.77763 0.48091 0.51986
 O100 O 0.77516 0.52009 0.60199
 O101 O 0.77523 0.48075 0.60195
 O102 O 0.77756 0.52005 0.51991
 O103 O 0.74473 0.51954 0.51585
 O104 O 0.74241 0.48092 0.59763
 O105 O 0.74234 0.51956 0.59767
 O106 O 0.74480 0.48106 0.51578
 Cu107 Cu 0.77973 0.50047 0.56148
 Cu108 Cu 0.74031 0.50025 0.55641
 C109 C 0.76152 0.47430 0.50403
 C110 C 0.75825 0.52665 0.61328
 C111 C 0.75835 0.47400 0.61323
 C112 C 0.76143 0.52650 0.50412
 C113 C 0.20457 0.21874 0.23832
 C114 C 0.22377 0.21322 0.25100
 C115 C 0.23819 0.22807 0.25728
 C116 C 0.23387 0.24825 0.24925
 C117 C 0.21465 0.25335 0.23509
 C118 C 0.19987 0.23870 0.22984
 C119 C 0.24956 0.26385 0.25465
 C120 C 0.24458 0.28312 0.26873
 C121 C 0.25932 0.29782 0.27387
 C122 C 0.27924 0.29300 0.26537
 C123 C 0.28464 0.27376 0.25272
 C124 C 0.26970 0.25942 0.24657
 H125 H 0.19347 0.20729 0.23300
 H126 H 0.25278 0.22381 0.26847
 H127 H 0.21126 0.26866 0.22738
 H128 H 0.22929 0.28659 0.27644
 H129 H 0.29077 0.30403 0.27057
 H130 H 0.27387 0.24480 0.23538
 C131 C 0.79522 0.78000 0.23764
 C132 C 0.77600 0.78555 0.25015
 C133 C 0.76153 0.77071 0.25619
 C134 C 0.76583 0.75054 0.24810
 C135 C 0.78507 0.74543 0.23408
 C136 C 0.79990 0.76006 0.22910
 C137 C 0.75011 0.73495 0.25338
 C138 C 0.75506 0.71566 0.26742
 C139 C 0.74031 0.70097 0.27253
 C140 C 0.72039 0.70583 0.26403
 C141 C 0.71502 0.72508 0.25145
 C142 C 0.72997 0.73942 0.24533
 H143 H 0.80636 0.79144 0.23252
 H144 H 0.74692 0.77499 0.26729
 H145 H 0.78845 0.73012 0.22633
 H146 H 0.77034 0.71216 0.27516
 H147 H 0.70885 0.69480 0.26921
 H148 H 0.72582 0.75406 0.23420
 C149 C 0.79519 0.22118 0.23733
 C150 C 0.79998 0.24113 0.22863
 C151 C 0.78524 0.25573 0.23352
 C152 C 0.76596 0.25059 0.24760
 C153 C 0.76157 0.23042 0.25590
 C154 C 0.77595 0.21561 0.24993
 C155 C 0.75031 0.26612 0.25273
 C156 C 0.73016 0.26155 0.24474
 C157 C 0.71524 0.27579 0.25089
 C158 C 0.72067 0.29509 0.26334
 C159 C 0.74060 0.30006 0.27173
 C160 C 0.75532 0.28545 0.26664
 H161 H 0.80626 0.20975 0.23226
 H162 H 0.78869 0.27104 0.22562
 H163 H 0.74695 0.22612 0.26708
 H164 H 0.72596 0.24688 0.23369
 H165 H 0.70916 0.30605 0.26856
 H166 H 0.77062 0.28903 0.27431
 C167 C 0.20501 0.77918 0.23879
 C168 C 0.19992 0.75931 0.23002
 C169 C 0.21444 0.74448 0.23492
 C170 C 0.23380 0.74933 0.24893
 C171 C 0.23848 0.76943 0.25729
 C172 C 0.22432 0.78445 0.25139
 C173 C 0.24928 0.73360 0.25378
 C174 C 0.26946 0.73798 0.24566
 C175 C 0.28426 0.72359 0.25164
 C176 C 0.27865 0.70432 0.26396
 C177 C 0.25868 0.69951 0.27239
 C178 C 0.24409 0.71428 0.26753
 H179 H 0.19414 0.79079 0.23375
 H180 H 0.21077 0.72923 0.22697
 H181 H 0.25316 0.77351 0.26845
 H182 H 0.27379 0.75263 0.23468
 H183 H 0.29007 0.69324 0.26903
 H184 H 0.22877 0.71082 0.27524
 C185 C 0.70510 0.27951 0.73793
 C186 C 0.70023 0.25957 0.72940
 C187 C 0.71492 0.24492 0.73439
 C188 C 0.73422 0.25000 0.74831
 C189 C 0.73870 0.27016 0.75642
 C190 C 0.72437 0.28502 0.75041
 C191 C 0.74982 0.23441 0.75337
 C192 C 0.76997 0.23888 0.74503
 C193 C 0.78483 0.22455 0.75091
 C194 C 0.77934 0.20528 0.76352
 C195 C 0.75942 0.20043 0.77231
 C196 C 0.74476 0.21512 0.76745
 H197 H 0.69408 0.29097 0.73282
 H198 H 0.71141 0.22961 0.72663
 H199 H 0.75336 0.27441 0.76746
 H200 H 0.77420 0.25353 0.73386
 H201 H 0.79081 0.19425 0.76854
 H202 H 0.72947 0.21161 0.77539
 C203 C 0.29403 0.71956 0.73671
 C204 C 0.29903 0.73949 0.72830
 C205 C 0.28445 0.75423 0.73346
 C206 C 0.26512 0.74925 0.74744
 C207 C 0.26050 0.72910 0.75539
 C208 C 0.27473 0.71416 0.74922
 C209 C 0.24964 0.76496 0.75274
 C210 C 0.22944 0.76066 0.74461
 C211 C 0.21471 0.77512 0.75060
 C212 C 0.22040 0.79434 0.76310
 C213 C 0.24038 0.79903 0.77168
 C214 C 0.25489 0.78421 0.76676
 H215 H 0.30497 0.70803 0.73148
 H216 H 0.28807 0.76952 0.72579
 H217 H 0.24582 0.72492 0.76646
 H218 H 0.22505 0.74605 0.73351
 H219 H 0.20905 0.80548 0.76818
 H220 H 0.27022 0.78759 0.77456
 C221 C 0.29416 0.27782 0.73567
 C222 C 0.27491 0.28327 0.74811
 C223 C 0.26053 0.26836 0.75423
 C224 C 0.26493 0.24820 0.74623
 C225 C 0.28423 0.24317 0.73237
 C226 C 0.29898 0.25788 0.72732
 C227 C 0.24925 0.23257 0.75140
 C228 C 0.25420 0.21330 0.76559
 C229 C 0.23943 0.19862 0.77078
 C230 C 0.21953 0.20347 0.76213
 C231 C 0.21416 0.22270 0.74933
 C232 C 0.22912 0.23701 0.74315
 H233 H 0.30523 0.28932 0.73049
 H234 H 0.24590 0.27257 0.76528
 H235 H 0.28769 0.22787 0.72475
 H236 H 0.26947 0.20982 0.77346
 H237 H 0.20797 0.19246 0.76736
 H238 H 0.22497 0.25163 0.73187
 C239 C 0.70516 0.72088 0.73723
 C240 C 0.72439 0.71542 0.74984
 C241 C 0.73877 0.73032 0.75594
 C242 C 0.73443 0.75047 0.74773
 C243 C 0.71516 0.75551 0.73369
 C244 C 0.70040 0.74081 0.72866
 C245 C 0.75013 0.76607 0.75288
 C246 C 0.74519 0.78537 0.76686
 C247 C 0.75996 0.80004 0.77199
 C248 C 0.77988 0.79516 0.76356
 C249 C 0.78524 0.77590 0.75102
 C250 C 0.77027 0.76160 0.74484
 H251 H 0.69409 0.70939 0.73207
 H252 H 0.75339 0.72610 0.76712
 H253 H 0.71174 0.77081 0.72589
 H254 H 0.72990 0.78888 0.77456
 H255 H 0.79143 0.80616 0.76880
 H256 H 0.77441 0.74695 0.73374
 C257 C 0.25129 0.07479 0.18858
 N258 N 0.26965 0.06830 0.17709
 N259 N 0.27166 0.05190 0.15372
 C260 C 0.25537 0.04153 0.14064
 N261 N 0.23708 0.04787 0.15285
 N262 N 0.23509 0.06413 0.17641
 C263 C 0.24858 0.09406 0.20971
 N264 N 0.23003 0.09998 0.22091
 N265 N 0.22686 0.11835 0.23502
 C266 C 0.24211 0.13155 0.23843
 N267 N 0.26078 0.12553 0.22809
 N268 N 0.26396 0.10709 0.21401
 C269 C 0.23789 0.15251 0.24795
 N270 N 0.25257 0.16647 0.24731
 N271 N 0.24820 0.18576 0.25033
 C272 C 0.22898 0.19184 0.25390
 N273 N 0.21441 0.17779 0.25555
 N274 N 0.21877 0.15854 0.25267
 C275 C 0.75280 0.57681 0.69020
 N276 N 0.77100 0.57108 0.67600
 N277 N 0.77297 0.55457 0.65296
 C278 C 0.75679 0.54328 0.64317
 N279 N 0.73870 0.54886 0.65798
 N280 N 0.73675 0.56527 0.68113
 C281 C 0.74996 0.59620 0.71074
 N282 N 0.73145 0.60191 0.72274
 N283 N 0.72814 0.62035 0.73632
 C284 C 0.74321 0.63381 0.73844
 N285 N 0.76184 0.62801 0.72731
 N286 N 0.76516 0.60953 0.71371
 C287 C 0.73882 0.65478 0.74749
 N288 N 0.75341 0.66882 0.74660
 N289 N 0.74893 0.68809 0.74935
 C290 C 0.72968 0.69407 0.75288
 N291 N 0.71519 0.67994 0.75472
 N292 N 0.71966 0.66071 0.75214
 C293 C 0.74883 0.92428 0.18953
 N294 N 0.76506 0.93490 0.17733
 N295 N 0.76311 0.95124 0.15395
 C296 C 0.74484 0.95771 0.14198
 N297 N 0.72851 0.94739 0.15512
 N298 N 0.73048 0.93090 0.17830
 C299 C 0.75149 0.90493 0.21040
 N300 N 0.73607 0.89193 0.21457
 N301 N 0.73921 0.87343 0.22835
 C302 C 0.75786 0.86731 0.23853
 N303 N 0.77315 0.88047 0.23525
 N304 N 0.77003 0.89891 0.22142
 C305 C 0.76203 0.84630 0.24774
 N306 N 0.78113 0.84021 0.25239
 N307 N 0.78544 0.82094 0.25504
 C308 C 0.77084 0.80694 0.25322
 N309 N 0.75164 0.81307 0.24971
 N310 N 0.74731 0.83239 0.24692
 C311 C 0.24633 0.42202 0.68888
 N312 N 0.26236 0.43361 0.67989
 N313 N 0.26038 0.45010 0.65697
 C314 C 0.24226 0.45571 0.64231
 N315 N 0.22611 0.44436 0.65202
 N316 N 0.22812 0.42777 0.67483
 C317 C 0.24921 0.40256 0.70917
 N318 N 0.23402 0.38922 0.71209
 N319 N 0.23737 0.37070 0.72553
 C320 C 0.25601 0.36489 0.73653
 N321 N 0.27107 0.37837 0.73445
 N322 N 0.26774 0.39684 0.72102
 C323 C 0.26042 0.34390 0.74551
 N324 N 0.27958 0.33800 0.75016
 N325 N 0.28407 0.31876 0.75280
 C326 C 0.26959 0.30462 0.75100
 N327 N 0.25034 0.31058 0.74745
 N328 N 0.24584 0.32986 0.74465
 C329 C 0.92694 0.26158 0.08190
 N330 N 0.93192 0.27848 0.06066
 N331 N 0.94730 0.27864 0.03391
 C332 C 0.95812 0.26188 0.02732
 N333 N 0.95319 0.24508 0.04880
 N334 N 0.93794 0.24496 0.07565
 C335 C 0.90929 0.26062 0.10930
 N336 N 0.90540 0.24374 0.13143
 N337 N 0.88875 0.24193 0.15388
 C338 C 0.87527 0.25690 0.15503
 N339 N 0.87921 0.27393 0.13329
 N340 N 0.89596 0.27577 0.11085
 C341 C 0.85623 0.25384 0.17703
 N342 N 0.84166 0.26780 0.17619
 N343 N 0.82392 0.26405 0.19353
 C344 C 0.82007 0.24619 0.21218
 N345 N 0.83482 0.23243 0.21345
 N346 N 0.85250 0.23617 0.19625
 C347 C 0.42639 0.76043 0.58308
 N348 N 0.43143 0.77758 0.56281
 N349 N 0.44687 0.77806 0.53625
 C350 C 0.45772 0.76138 0.52889
 N351 N 0.45274 0.74434 0.54941
 N352 N 0.43741 0.74389 0.57607
 C353 C 0.40865 0.75918 0.61017
 N354 N 0.40452 0.74198 0.63097
 N355 N 0.38780 0.74000 0.65314
 C356 C 0.37451 0.75512 0.65532
 N357 N 0.37870 0.77244 0.63490
 N358 N 0.39550 0.77445 0.61274
 C359 C 0.35542 0.75198 0.67706
 N360 N 0.34107 0.76618 0.67725
 N361 N 0.32329 0.76247 0.69443
 C362 C 0.31917 0.74441 0.71191
 N363 N 0.33368 0.73039 0.71212
 N364 N 0.35141 0.73409 0.69507
 C365 C 0.07308 0.74032 0.08187
 N366 N 0.06337 0.75733 0.07167
 N367 N 0.04813 0.75701 0.04484
 C368 C 0.04187 0.73964 0.02730
 N369 N 0.05138 0.72252 0.03796
 N370 N 0.06678 0.72287 0.06464
 C371 C 0.09067 0.74131 0.10940
 N372 N 0.10311 0.72554 0.11387
 N373 N 0.11982 0.72726 0.13646
 C374 C 0.12459 0.74478 0.15548
 N375 N 0.11199 0.76039 0.15142
 N376 N 0.09539 0.75871 0.12877
 C377 C 0.14359 0.74757 0.17776
 N378 N 0.14784 0.76546 0.19545
 N379 N 0.16552 0.76890 0.21288
 C380 C 0.17977 0.75462 0.21338
 N381 N 0.17540 0.73654 0.19625
 N382 N 0.15764 0.73308 0.17871
 C383 C 0.57320 0.23824 0.58348
 N384 N 0.56215 0.25477 0.57640
 N385 N 0.54689 0.25432 0.54961
 C386 C 0.54199 0.23728 0.52902
 N387 N 0.55286 0.22062 0.53643
 N388 N 0.56824 0.22111 0.56313
 C389 C 0.59087 0.23951 0.61074
 N390 N 0.60409 0.22430 0.61328
 N391 N 0.62084 0.22633 0.63558
 C392 C 0.62490 0.24363 0.65618
 N393 N 0.61154 0.25868 0.65404
 N394 N 0.59487 0.25667 0.63172
 C395 C 0.64395 0.24682 0.67804
 N396 N 0.64782 0.26469 0.69625
 N397 N 0.66552 0.26846 0.71336
 C398 C 0.68012 0.25455 0.71301
 N399 N 0.67614 0.23650 0.69534
 N400 N 0.65839 0.23272 0.67811
 C401 C 0.73901 0.07339 0.91893
 N402 N 0.75561 0.06238 0.92534
 N403 N 0.75542 0.04712 0.95218
 C404 C 0.73859 0.04219 0.97349
 N405 N 0.72184 0.05303 0.96675
 N406 N 0.72206 0.06842 0.94001
 C407 C 0.74003 0.09106 0.89158
 N408 N 0.72484 0.10434 0.88978
 N409 N 0.72670 0.12109 0.86737
 C410 C 0.74379 0.12509 0.84593
 N411 N 0.75881 0.11167 0.84733
 N412 N 0.75697 0.09500 0.86974
 C413 C 0.74685 0.14414 0.82396
 N414 N 0.76456 0.14795 0.80500
 N415 N 0.76826 0.16565 0.78780
 C416 C 0.75443 0.18032 0.78880
 N417 N 0.73653 0.17640 0.80721
 N418 N 0.73282 0.15865 0.82454
 C419 C 0.23765 0.57222 0.41758
 N420 N 0.25424 0.56122 0.42433
 N421 N 0.25393 0.54592 0.45106
 C422 C 0.23698 0.54092 0.47191
 N423 N 0.22026 0.55174 0.46481
 N424 N 0.22060 0.56717 0.43819
 C425 C 0.23878 0.58993 0.39038
 N426 N 0.22358 0.60319 0.38836
 N427 N 0.22553 0.61998 0.36612
 C428 C 0.24271 0.62405 0.34506
 N429 N 0.25774 0.61064 0.34669
 N430 N 0.25582 0.59393 0.36894
 C431 C 0.24585 0.64313 0.32329
 N432 N 0.26363 0.64696 0.30462
 N433 N 0.26740 0.66469 0.28763
 C434 C 0.25359 0.67938 0.28857
 N435 N 0.23562 0.67544 0.30668
 N436 N 0.23183 0.65765 0.32379
 C437 C 0.26142 0.92611 0.91728
 N438 N 0.24482 0.93715 0.92359
 N439 N 0.24499 0.95240 0.95040
 C440 C 0.26181 0.95731 0.97176
 N441 N 0.27855 0.94646 0.96511
 N442 N 0.27834 0.93107 0.93842
 C443 C 0.26039 0.90843 0.89000
 N444 N 0.27547 0.89502 0.88862
 N445 N 0.27356 0.87824 0.86633
 C446 C 0.25653 0.87436 0.84459
 N447 N 0.24164 0.88792 0.84556
 N448 N 0.24352 0.90460 0.86786
 C449 C 0.25338 0.85529 0.82278
 N450 N 0.23572 0.85164 0.80348
 N451 N 0.23190 0.83395 0.78645
 C452 C 0.24555 0.81911 0.78796
 N453 N 0.26340 0.82287 0.80669
 N454 N 0.26724 0.84063 0.82386
 C455 C 0.76117 0.42710 0.41796
 N456 N 0.74457 0.43807 0.42488
 N457 N 0.74490 0.45333 0.45167
 C458 C 0.76187 0.45831 0.47242
 N459 N 0.77860 0.44753 0.46516
 N460 N 0.77824 0.43214 0.43846
 C461 C 0.76004 0.40944 0.39066
 N462 N 0.77529 0.39627 0.38833
 N463 N 0.77338 0.37952 0.36597
 C464 C 0.75616 0.37542 0.34511
 N465 N 0.74106 0.38874 0.34705
 N466 N 0.74295 0.40540 0.36942
 C467 C 0.75308 0.35637 0.32319
 N468 N 0.73528 0.35246 0.30475
 N469 N 0.73159 0.33475 0.28760
 C470 C 0.74554 0.32018 0.28813
 N471 N 0.76353 0.32422 0.30601
 N472 N 0.76723 0.34197 0.32329
 C473 C 0.07581 0.25095 0.81088
 N474 N 0.06934 0.26934 0.82217
 N475 N 0.05293 0.27141 0.84554
 C476 C 0.04254 0.25516 0.85882
 N477 N 0.04887 0.23684 0.84681
 N478 N 0.06513 0.23479 0.82325
 C479 C 0.09508 0.24815 0.78975
 N480 N 0.10093 0.22957 0.77868
 N481 N 0.11931 0.22631 0.76464
 C482 C 0.13257 0.24150 0.76119
 N483 N 0.12661 0.26020 0.77140
 N484 N 0.10817 0.26348 0.78539
 C485 C 0.15353 0.23717 0.75181
 N486 N 0.16757 0.25177 0.75252
 N487 N 0.18684 0.24729 0.74968
 C488 C 0.19281 0.22804 0.74622
 N489 N 0.17869 0.21355 0.74450
 N490 N 0.15946 0.21802 0.74720
 C491 C 0.57635 0.75330 0.31107
 N492 N 0.56485 0.73719 0.31990
 N493 N 0.54841 0.73901 0.34304
 C494 C 0.54277 0.75704 0.35808
 N495 N 0.55402 0.77327 0.34852
 N496 N 0.57056 0.77143 0.32551
 C497 C 0.59578 0.75058 0.29056
 N498 N 0.60911 0.76579 0.28806
 N499 N 0.62762 0.76255 0.27448
 C500 C 0.63343 0.74398 0.26289
 N501 N 0.61995 0.72891 0.26454
 N502 N 0.60149 0.73214 0.27811
 C503 C 0.65441 0.73962 0.25384
 N504 N 0.66031 0.72049 0.24871
 N505 N 0.67954 0.71600 0.24611
 C506 C 0.69369 0.73045 0.24842
 N507 N 0.68774 0.74968 0.25243
 N508 N 0.66847 0.75418 0.25521
 C509 C 0.92375 0.74733 0.81166
 N510 N 0.93528 0.76344 0.82039
 N511 N 0.95170 0.76161 0.84356
 C512 C 0.95731 0.74360 0.85873
 N513 N 0.94604 0.72736 0.84929
 N514 N 0.92951 0.72921 0.82624
 C515 C 0.90435 0.75009 0.79106
 N516 N 0.89098 0.73491 0.78852
 N517 N 0.87251 0.73820 0.77482
 C518 C 0.86676 0.75679 0.76314
 N519 N 0.88028 0.77183 0.76483
 N520 N 0.89870 0.76854 0.77852
 C521 C 0.84581 0.76121 0.75392
 N522 N 0.83997 0.78036 0.74879
 N523 N 0.82075 0.78490 0.74603
 C524 C 0.80657 0.77048 0.74815
 N525 N 0.81245 0.75123 0.75217
 N526 N 0.83171 0.74668 0.75511
 C527 C 0.42338 0.24547 0.31133
 N528 N 0.42917 0.22733 0.32573
 N529 N 0.44573 0.22546 0.34867
 C530 C 0.45700 0.24168 0.35816
 N531 N 0.45137 0.25972 0.34315
 N532 N 0.43491 0.26157 0.32009
 C533 C 0.40394 0.24823 0.29094
 N534 N 0.39821 0.26669 0.27864
 N535 N 0.37974 0.26996 0.26520
 C536 C 0.36626 0.25488 0.26355
 N537 N 0.37208 0.23630 0.27498
 N538 N 0.39060 0.23302 0.28842
 C539 C 0.34527 0.25926 0.25467
 N540 N 0.33121 0.24469 0.25596
 N541 N 0.31194 0.24918 0.25334
 C542 C 0.30598 0.26842 0.24958
 N543 N 0.32011 0.28289 0.24735
 N544 N 0.33935 0.27841 0.24979
 C545 C 0.73991 0.92687 0.91879
 N546 N 0.72283 0.93181 0.93923
 N547 N 0.72248 0.94718 0.96596
 C548 C 0.73922 0.95805 0.97332
 N549 N 0.75621 0.95317 0.95264
 N550 N 0.75653 0.93792 0.92582
 C551 C 0.74101 0.90923 0.89146
 N552 N 0.75811 0.90523 0.87036
 N553 N 0.75994 0.88860 0.84792
 C554 C 0.74476 0.87526 0.84576
 N555 N 0.72752 0.87932 0.86648
 N556 N 0.72566 0.89604 0.88890
 C557 C 0.74775 0.85625 0.82374
 N558 N 0.73352 0.84182 0.82370
 N559 N 0.73713 0.82410 0.80633
 C560 C 0.75511 0.82013 0.78848
 N561 N 0.76914 0.83473 0.78809
 N562 N 0.76555 0.85240 0.80534
 C563 C 0.23830 0.42521 0.41816
 N564 N 0.22116 0.43013 0.43841
 N565 N 0.22069 0.44562 0.46483
 C566 C 0.23736 0.45662 0.47205
 N567 N 0.25440 0.45175 0.45155
 N568 N 0.25484 0.43639 0.42503
 C569 C 0.23956 0.40743 0.39126
 N570 N 0.25675 0.40341 0.37050
 N571 N 0.25875 0.38666 0.34852
 C572 C 0.24366 0.37322 0.34649
 N573 N 0.22633 0.37730 0.36687
 N574 N 0.22431 0.39413 0.38885
 C575 C 0.24681 0.35412 0.32493
 N576 N 0.23261 0.33967 0.32478
 N577 N 0.23633 0.32190 0.30769
 C578 C 0.25440 0.31792 0.29026
 N579 N 0.26841 0.33254 0.29002
 N580 N 0.26471 0.35025 0.30698
 C581 C 0.25932 0.07203 0.91908
 N582 N 0.27683 0.06600 0.93632
 N583 N 0.27729 0.05061 0.96304
 C584 C 0.26025 0.04083 0.97371
 N585 N 0.24284 0.04682 0.95615
 N586 N 0.24240 0.06206 0.92929
 C587 C 0.25819 0.08961 0.89154
 N588 N 0.24074 0.09410 0.87228
 N589 N 0.23892 0.11069 0.84965
 C590 C 0.25445 0.12350 0.84549
 N591 N 0.27203 0.11897 0.86441
 N592 N 0.27388 0.10227 0.88699
 C593 C 0.25152 0.14247 0.82322
 N594 N 0.26594 0.15670 0.82206
 N595 N 0.26237 0.17440 0.80448
 C596 C 0.24424 0.17855 0.78753
 N597 N 0.23001 0.16414 0.78825
 N598 N 0.23356 0.14650 0.80572
 C599 C 0.76090 0.57386 0.41835
 N600 N 0.77802 0.56890 0.43860
 N601 N 0.77844 0.55346 0.46519
 C602 C 0.76171 0.54255 0.47259
 N603 N 0.74469 0.54746 0.45210
 N604 N 0.74431 0.56278 0.42542
 C605 C 0.75971 0.59157 0.39118
 N606 N 0.74254 0.59559 0.37034
 N607 N 0.74062 0.61228 0.34808
 C608 C 0.75577 0.62565 0.34585
 N609 N 0.77307 0.62157 0.36631
 N610 N 0.77502 0.60480 0.38856
 C611 C 0.75268 0.64470 0.32402
 N612 N 0.76691 0.65914 0.32379
 N613 N 0.76324 0.67688 0.30653
 C614 C 0.74519 0.68087 0.28900
 N615 N 0.73116 0.66627 0.28881
 N616 N 0.73482 0.64858 0.30595
 C617 C 0.07588 0.74831 0.81242
 N618 N 0.06545 0.76459 0.82449
 N619 N 0.04915 0.76273 0.84807
 C620 C 0.04254 0.74450 0.86038
 N621 N 0.05268 0.72813 0.84738
 N622 N 0.06913 0.73001 0.82400
 C623 C 0.09521 0.75088 0.79130
 N624 N 0.10805 0.73542 0.78724
 N625 N 0.12655 0.73849 0.77323
 C626 C 0.13282 0.75710 0.76270
 N627 N 0.11981 0.77242 0.76586
 N628 N 0.10138 0.76937 0.77991
 C629 C 0.15385 0.76121 0.75327
 N630 N 0.16010 0.78029 0.74832
 N631 N 0.17941 0.78457 0.74556
 C632 C 0.19329 0.76996 0.74755
 N633 N 0.18699 0.75078 0.75134
 N634 N 0.16764 0.74648 0.75425
 C635 C 0.57664 0.24628 0.31148
 N636 N 0.57089 0.22808 0.32590
 N637 N 0.55434 0.22604 0.34887
 C638 C 0.54303 0.24215 0.35838
 N639 N 0.54863 0.26025 0.34337
 N640 N 0.56508 0.26226 0.32028
 C641 C 0.59605 0.24923 0.29096
 N642 N 0.60173 0.26774 0.27860
 N643 N 0.62017 0.27117 0.26495
 C644 C 0.63366 0.25622 0.26314
 N645 N 0.62789 0.23758 0.27464
 N646 N 0.60940 0.23414 0.28830
 C647 C 0.65463 0.26078 0.25393
 N648 N 0.66869 0.24633 0.25500
 N649 N 0.68796 0.25099 0.25203
 C650 C 0.69389 0.27028 0.24809
 N651 N 0.67974 0.28462 0.24608
 N652 N 0.66051 0.27998 0.24889
 C653 C 0.92376 0.25276 0.80947
 N654 N 0.92974 0.27089 0.82380
 N655 N 0.94629 0.27272 0.84684
 C656 C 0.95735 0.25646 0.85653
 N657 N 0.95152 0.23843 0.84160
 N658 N 0.93508 0.23663 0.81843
 C659 C 0.90431 0.25006 0.78898
 N660 N 0.89843 0.23162 0.77658
 N661 N 0.87994 0.22839 0.76310
 C662 C 0.86658 0.24347 0.76151
 N663 N 0.87256 0.26204 0.77303
 N664 N 0.89110 0.26528 0.78652
 C665 C 0.84555 0.23911 0.75262
 N666 N 0.83161 0.25367 0.75411
 N667 N 0.81229 0.24916 0.75154
 C668 C 0.80620 0.22992 0.74762
 N669 N 0.82023 0.21547 0.74517
 N670 N 0.83950 0.21997 0.74756
 C671 C 0.42307 0.75234 0.31181
 N672 N 0.43456 0.73633 0.32083
 N673 N 0.45103 0.73835 0.34381
 C674 C 0.45673 0.75646 0.35850
 N675 N 0.44548 0.77260 0.34877
 N676 N 0.42891 0.77056 0.32590
 C677 C 0.40363 0.74944 0.29140
 N678 N 0.39038 0.76460 0.28841
 N679 N 0.37188 0.76123 0.27484
 C680 C 0.36597 0.74258 0.26375
 N681 N 0.37936 0.72754 0.26590
 N682 N 0.39782 0.73091 0.27946
 C683 C 0.34498 0.73815 0.25460
 N684 N 0.33896 0.71898 0.24986
 N685 N 0.31970 0.71447 0.24709
 C686 C 0.30565 0.72894 0.24883
 N687 N 0.31173 0.74819 0.25247
 N688 N 0.33103 0.75271 0.25541
 C689 C 0.25336 0.92294 0.19044
 N690 N 0.27142 0.92878 0.17542
 N691 N 0.27318 0.94527 0.15213
 C692 C 0.25692 0.95641 0.14287
 N693 N 0.23896 0.95071 0.15847
 N694 N 0.23723 0.93434 0.18189
 C695 C 0.25068 0.90357 0.21131
 N696 N 0.23230 0.89790 0.22456
 N697 N 0.22902 0.87947 0.23843
 C698 C 0.24398 0.86598 0.23959
 N699 N 0.26250 0.87175 0.22722
 N700 N 0.26580 0.89023 0.21334
 C701 C 0.23949 0.84501 0.24888
 N702 N 0.25389 0.83091 0.24700
 N703 N 0.24921 0.81165 0.24988
 C704 C 0.22995 0.80575 0.25451
 N705 N 0.21566 0.81993 0.25736
 N706 N 0.22033 0.83916 0.25466
 C707 C 0.75304 0.42377 0.69026
 N708 N 0.77120 0.42963 0.67586
 N709 N 0.77313 0.44616 0.65278
 C710 C 0.75694 0.45733 0.64313
 N711 N 0.73888 0.45162 0.65812
 N712 N 0.73697 0.43519 0.68132
 C713 C 0.75022 0.40435 0.71087
 N714 N 0.73174 0.39855 0.72320
 N715 N 0.72843 0.38010 0.73687
 C716 C 0.74347 0.36671 0.73873
 N717 N 0.76207 0.37260 0.72726
 N718 N 0.76540 0.39111 0.71358
 C719 C 0.73904 0.34571 0.74787
 N720 N 0.75358 0.33173 0.74670
 N721 N 0.74903 0.31244 0.74953
 C722 C 0.72977 0.30638 0.75340
 N723 N 0.71534 0.32045 0.75552
 N724 N 0.71988 0.33971 0.75286
 C725 C 0.74781 0.07665 0.19106
 N726 N 0.76393 0.06532 0.18200
 N727 N 0.76207 0.04886 0.15892
 C728 C 0.74400 0.04302 0.14418
 N729 N 0.72777 0.05410 0.15397
 N730 N 0.72965 0.07067 0.17692
 C731 C 0.75056 0.09611 0.21149
 N732 N 0.73533 0.10930 0.21416
 N733 N 0.73858 0.12784 0.22765
 C734 C 0.75717 0.13383 0.23897
 N735 N 0.77227 0.12050 0.23716
 N736 N 0.76903 0.10201 0.22367
 C737 C 0.76152 0.15485 0.24791
 N738 N 0.78066 0.16094 0.25281
 N739 N 0.78512 0.18022 0.25530
 C740 C 0.77063 0.19422 0.25310
 N741 N 0.75140 0.18809 0.24932
 N742 N 0.74693 0.16877 0.24666
 C743 C 0.24573 0.57544 0.68932
 N744 N 0.26180 0.56397 0.68066
 N745 N 0.25992 0.54751 0.65759
 C746 C 0.24188 0.54181 0.64248
 N747 N 0.22569 0.55302 0.65186
 N748 N 0.22760 0.56959 0.67479
 C749 C 0.24854 0.59488 0.70978
 N750 N 0.23340 0.60819 0.71211
 N751 N 0.23674 0.62671 0.72568
 C752 C 0.25532 0.63255 0.73743
 N753 N 0.27031 0.61909 0.73594
 N754 N 0.26699 0.60063 0.72237
 C755 C 0.25979 0.65353 0.74653
 N756 N 0.27896 0.65945 0.75186
 N757 N 0.28357 0.67869 0.75455
 C758 C 0.26921 0.69282 0.75214
 N759 N 0.24995 0.68685 0.74793
 N760 N 0.24533 0.66758 0.74506
 C761 C 0.92704 0.73923 0.08391
 N762 N 0.93821 0.75581 0.07740
 N763 N 0.95349 0.75557 0.05065
 C764 C 0.95830 0.73868 0.02954
 N765 N 0.94732 0.72196 0.03640
 N766 N 0.93190 0.72224 0.06304
 C767 C 0.90934 0.74031 0.11109
 N768 N 0.89588 0.72517 0.11279
 N769 N 0.87910 0.72709 0.13499
 C770 C 0.87523 0.74420 0.15632
 N771 N 0.88882 0.75917 0.15503
 N772 N 0.90552 0.75728 0.13282
 C773 C 0.85616 0.74733 0.17805
 N774 N 0.85250 0.76505 0.19694
 N775 N 0.83480 0.76880 0.21394
 C776 C 0.81998 0.75502 0.21281
 N777 N 0.82375 0.73711 0.19446
 N778 N 0.84150 0.73334 0.17733
 C779 C 0.42637 0.23744 0.58273
 N780 N 0.43744 0.25406 0.57591
 N781 N 0.45278 0.25377 0.54930
 C782 C 0.45774 0.23681 0.52865
 N783 N 0.44685 0.22005 0.53583
 N784 N 0.43138 0.22037 0.56234
 C785 C 0.40861 0.23854 0.60978
 N786 N 0.39534 0.22325 0.61198
 N787 N 0.37852 0.22514 0.63409
 C788 C 0.37444 0.24237 0.65483
 N789 N 0.38786 0.25749 0.65302
 N790 N 0.40459 0.25562 0.63090
 C791 C 0.35534 0.24542 0.67649
 N792 N 0.35150 0.26322 0.69487
 N793 N 0.33377 0.26689 0.71181
 C794 C 0.31910 0.25294 0.71111
 N795 N 0.32305 0.23496 0.69328
 N796 N 0.34084 0.23127 0.67621
 C797 C 0.07335 0.25985 0.08240
 N798 N 0.06861 0.27694 0.06178
 N799 N 0.05326 0.27740 0.03498
 C800 C 0.04223 0.26075 0.02772
 N801 N 0.04692 0.24376 0.04858
 N802 N 0.06214 0.24333 0.07548
 C803 C 0.09095 0.25861 0.10982
 N804 N 0.09474 0.24151 0.13112
 N805 N 0.11135 0.23953 0.15363
 C806 C 0.12486 0.25456 0.15565
 N807 N 0.12101 0.27180 0.13473
 N808 N 0.10433 0.27380 0.11223
 C809 C 0.14382 0.25140 0.17775
 N810 N 0.15840 0.26548 0.17773
 N811 N 0.17607 0.26171 0.19520
 C812 C 0.17984 0.24372 0.21321
 N813 N 0.16510 0.22984 0.21364
 N814 N 0.14748 0.23359 0.19630
 C815 C 0.57333 0.76127 0.58286
 N816 N 0.56834 0.77833 0.56237
 N817 N 0.55290 0.77864 0.53580
 C818 C 0.54201 0.76189 0.52865
 N819 N 0.54695 0.74493 0.54938
 N820 N 0.56226 0.74464 0.57605
 C821 C 0.59103 0.76017 0.61003
 N822 N 0.59501 0.74309 0.63125
 N823 N 0.61170 0.74123 0.65351
 C824 C 0.62511 0.75634 0.65536
 N825 N 0.62108 0.77356 0.63452
 N826 N 0.60431 0.77545 0.61226
 C827 C 0.64416 0.75329 0.67721
 N828 N 0.65868 0.76743 0.67701
 N829 N 0.67642 0.76374 0.69427
 C830 C 0.68032 0.74576 0.71223
 N831 N 0.66563 0.73182 0.71285
 N832 N 0.64795 0.73549 0.69572
   
