data_POSCAR
  _audit_creation_date              2014-09-24
  _audit_creation_method            'ToBaCCo'
  _symmetry_space_group_name_H-M    'P1'
  _symmetry_Int_Tables_number       1
  _symmetry_cell_setting            triclinic
  loop_
  _symmetry_equiv_pos_as_xyz
 x,y,z
_cell_length_a 25.8553
_cell_length_b 26.8713
_cell_length_c 39.4389
_cell_angle_alpha 87.776200
_cell_angle_beta 91.800300
_cell_angle_gamma 93.462800
loop_
  _atom_site_label
  _atom_site_type_symbol
  _atom_site_fract_x
  _atom_site_fract_y
  _atom_site_fract_z
C1 C 0.03388 0.54397 1.02235
 C2 C 0.03480 0.54487 0.98605
 C3 C 0.03658 0.49884 0.96992
 C4 C 0.03488 0.45277 0.98823
 C5 C 0.03146 0.45198 1.02403
 C6 C 0.03319 0.49755 1.04024
 H7 H 0.03474 0.49650 1.06774
 H8 H 0.04082 0.49788 0.94285
 C9 C 0.44721 0.01745 0.51867
 C10 C 0.44238 0.01460 0.48304
 C11 C 0.48713 0.01108 0.46409
 C12 C 0.53705 0.01092 0.47971
 C13 C 0.54137 0.01370 0.51561
 C14 C 0.49659 0.01706 0.53443
 H15 H 0.50024 0.01913 0.56178
 H16 H 0.48239 0.00885 0.43694
 C17 C 0.08186 0.00446 0.25053
 H18 H 0.08178 0.00651 0.22308
 C19 C 0.12803 0.01370 0.26913
 H20 H 0.16358 0.02272 0.25580
 C21 C 0.03539 -0.00941 0.30120
 H22 H -0.00097 -0.01815 0.31353
 C23 C 0.08071 -0.00050 0.32082
 H24 H 0.07808 -0.00169 0.34813
 N25 N 0.03685 -0.00706 0.26674
 C26 C -0.06668 -0.09654 0.20075
 H27 H -0.10066 -0.07486 0.19971
 C28 C -0.06722 -0.14099 0.18360
 H29 H -0.10178 -0.15343 0.16933
 C30 C 0.01957 -0.10676 0.22074
 H31 H 0.05314 -0.09359 0.23552
 C32 C 0.02087 -0.15124 0.20368
 H33 H 0.05542 -0.17207 0.20595
 Zn34 Zn -0.02457 -0.01824 0.24020
 N35 N -0.02352 -0.08002 0.21857
 C36 C -0.03701 0.02491 0.17347
 N37 N -0.02744 0.03446 0.20677
 C38 C -0.01621 0.08180 0.21681
 C39 C -0.01536 0.12189 0.19318
 C40 C -0.03673 0.06381 0.14898
 C41 C -0.10938 -0.06347 0.27600
 C42 C -0.15261 -0.06512 0.29642
 C43 C -0.14005 0.02396 0.30205
 C44 C -0.09717 0.02386 0.28137
 N45 N -0.08294 -0.01933 0.26850
 H46 H -0.04433 -0.01288 0.16558
 H47 H -0.00641 0.08841 0.24316
 H48 H -0.00529 0.15850 0.20255
 H49 H -0.04453 0.05505 0.12264
 H50 H -0.09679 -0.09771 0.26642
 H51 H -0.17307 -0.10081 0.30180
 H52 H -0.15030 0.05939 0.31103
 H53 H -0.07541 0.05848 0.27554
 C54 C -0.02279 -0.16841 0.18444
 C55 C 0.12802 0.01082 0.30472
 C56 C -0.16872 -0.02113 0.30989
 C57 C -0.02598 0.11329 0.15850
 C58 C 0.00932 0.10885 0.76823
 H59 H 0.00765 0.10941 0.74077
 C60 C 0.01142 0.15357 0.78516
 H61 H 0.01164 0.18850 0.77048
 C62 C 0.00979 0.06240 0.82049
 H63 H 0.00812 0.02670 0.83412
 C64 C 0.01163 0.10636 0.83853
 H65 H 0.01120 0.10328 0.86590
 N66 N 0.00908 0.06447 0.78597
 C67 C 0.06566 -0.03946 0.71554
 H68 H 0.03491 -0.06854 0.71711
 C69 C 0.10816 -0.04534 0.69543
 H70 H 0.10995 -0.07906 0.68143
 C71 C 0.10106 0.03948 0.73239
 H72 H 0.09876 0.07196 0.74742
 C73 C 0.14410 0.03532 0.71235
 H74 H 0.17455 0.06476 0.71242
 Zn75 Zn 0.00367 0.00625 0.76016
 N76 N 0.06258 0.00265 0.73322
 C77 C -0.05381 0.01103 0.69767
 N78 N -0.05673 0.01013 0.73204
 C79 C -0.10262 0.01431 0.74723
 C80 C -0.14825 0.01836 0.72770
 C81 C -0.09842 0.01524 0.67711
 C82 C 0.04107 -0.06239 0.80891
 C83 C 0.04238 -0.10750 0.82770
 C84 C -0.04197 -0.13187 0.80362
 C85 C -0.04157 -0.08632 0.78532
 N86 N -0.00044 -0.05264 0.78826
 H87 H -0.01676 0.00905 0.68604
 H88 H -0.10370 0.01441 0.77463
 H89 H -0.18436 0.02132 0.74051
 H90 H -0.09382 0.01613 0.65000
 H91 H 0.07383 -0.03543 0.81015
 H92 H 0.07670 -0.11374 0.84318
 H93 H -0.07502 -0.15825 0.80049
 H94 H -0.07360 -0.07865 0.76807
 C95 C 0.14769 -0.00740 0.69328
 C96 C 0.01276 0.15291 0.82077
 C97 C 0.00043 -0.14344 0.82509
 C98 C -0.14691 0.01870 0.69207
 C99 C 0.03571 -0.41202 0.04120
 C100 C 0.01509 -0.41016 0.07356
 C101 C 0.01740 -0.36456 0.09350
 C102 C -0.02036 -0.35983 0.11776
 C103 C -0.01963 -0.31751 0.13724
 C104 C 0.01918 -0.27905 0.13292
 C105 C 0.05793 -0.28445 0.10943
 C106 C 0.05705 -0.32673 0.08978
 C107 C 0.02082 -0.23361 0.15298
 C108 C -0.02369 -0.21490 0.16558
 H109 H -0.00839 -0.44180 0.08351
 H110 H -0.05073 -0.38891 0.12155
 H111 H -0.04904 -0.31548 0.15597
 H112 H 0.08874 -0.25569 0.10609
 H113 H 0.08786 -0.32993 0.07221
 H114 H 0.05754 -0.21233 0.15562
 H115 H 0.05196 -0.37741 0.03027
 H116 H -0.06122 -0.23265 0.15911
 C117 C 0.02670 0.40859 0.04542
 C118 C 0.00513 0.36167 0.03651
 C119 C -0.00241 0.32062 0.06229
 C120 C 0.00351 0.27130 0.05345
 C121 C -0.00161 0.23220 0.07786
 C122 C -0.01385 0.24184 0.11147
 C123 C -0.02106 0.29111 0.11992
 C124 C -0.01578 0.33003 0.09562
 C125 C -0.01724 0.20248 0.13882
 C126 C -0.02511 0.15148 0.13295
 H127 H -0.00840 0.35431 0.01094
 H128 H 0.01352 0.26321 0.02784
 H129 H 0.00544 0.19499 0.07041
 H130 H -0.03080 0.29959 0.14550
 H131 H -0.02266 0.36738 0.10299
 H132 H -0.01522 0.21531 0.16445
 H133 H 0.03641 0.41303 0.07210
 H134 H -0.03193 0.14049 0.10701
 C135 C 0.40126 0.02350 0.53942
 C136 C 0.39601 0.00131 0.57183
 C137 C 0.35100 0.00781 0.59316
 C138 C 0.33789 -0.02891 0.61819
 C139 C 0.29596 -0.02378 0.63905
 C140 C 0.26653 0.01855 0.63542
 C141 C 0.28050 0.05589 0.61100
 C142 C 0.32216 0.05057 0.58994
 C143 C 0.22232 0.02557 0.65733
 C144 C 0.19254 -0.01426 0.67192
 H145 H 0.42463 -0.02405 0.58124
 H146 H 0.36009 -0.06176 0.62154
 H147 H 0.28741 -0.05253 0.65836
 H148 H 0.25895 0.08922 0.60810
 H149 H 0.33222 0.08044 0.57172
 H150 H 0.21077 0.06324 0.66006
 H151 H 0.36988 0.04403 0.52822
 H152 H 0.19997 -0.05197 0.66559
 C153 C -0.40819 0.00911 0.53415
 C154 C -0.39314 0.03795 0.56188
 C155 C -0.34308 0.03379 0.58085
 C156 C -0.33787 0.05220 0.61367
 C157 C -0.29140 0.04886 0.63251
 C158 C -0.24901 0.02687 0.61884
 C159 C -0.25378 0.00978 0.58565
 C160 C -0.30018 0.01317 0.56681
 C161 C -0.19888 0.02245 0.63772
 C162 C -0.19380 0.02287 0.67321
 H163 H -0.41965 0.06415 0.57054
 H164 H -0.36996 0.06913 0.62484
 H165 H -0.28882 0.06434 0.65744
 H166 H -0.22145 -0.00641 0.57423
 H167 H -0.30168 0.00032 0.54115
 H168 H -0.16591 0.01621 0.62267
 H169 H -0.38285 -0.01807 0.52559
 H170 H -0.22862 0.02547 0.68741
 C171 C 0.03278 -0.40944 0.96671
 C172 C 0.03308 -0.40332 0.93121
 C173 C 0.03446 -0.35303 0.91426
 C174 C 0.01001 -0.34635 0.88229
 C175 C 0.01040 -0.29904 0.86607
 C176 C 0.03578 -0.25754 0.88149
 C177 C 0.06172 -0.26467 0.91291
 C178 C 0.06103 -0.31180 0.92918
 C179 C 0.03780 -0.20689 0.86512
 C180 C -0.00053 -0.19064 0.84207
 H181 H 0.02980 -0.43482 0.91498
 H182 H -0.00982 -0.37773 0.86998
 H183 H -0.00835 -0.29539 0.84127
 H184 H 0.08243 -0.23357 0.92502
 H185 H 0.08203 -0.31594 0.95321
 H186 H 0.06923 -0.18145 0.87329
 H187 H 0.02850 -0.37548 0.97961
 H188 H -0.03389 -0.21602 0.83729
 C189 C 0.04403 0.40718 0.96995
 C190 C 0.01658 0.39492 0.94007
 C191 C 0.01953 0.34685 0.92307
 C192 C -0.00240 0.34235 0.89025
 C193 C -0.00207 0.29744 0.87352
 C194 C 0.02058 0.25579 0.88925
 C195 C 0.04181 0.26005 0.92228
 C196 C 0.04131 0.30491 0.93907
 C197 C 0.02119 0.20704 0.87276
 C198 C 0.01363 0.20135 0.83780
 H199 H -0.00947 0.42158 0.92894
 H200 H -0.02028 0.37369 0.87754
 H201 H -0.02063 0.29555 0.84863
 H202 H 0.05871 0.22839 0.93526
 H203 H 0.05711 0.30583 0.96473
 H204 H 0.02998 0.17507 0.88890
 H205 H 0.07075 0.38187 0.98170
 H206 H 0.00960 0.23427 0.82152
 C207 C -0.41789 0.01068 0.46017
 C208 C -0.41725 -0.00040 0.42575
 C209 C -0.36908 0.00355 0.40624
 C210 C -0.36505 -0.02690 0.37846
 C211 C -0.32030 -0.02372 0.35930
 C212 C -0.27874 0.01035 0.36749
 C213 C -0.28339 0.04177 0.39468
 C214 C -0.32799 0.03838 0.41396
 C215 C -0.23110 0.01543 0.34745
 C216 C -0.21284 -0.02421 0.33011
 H217 H -0.45167 -0.01611 0.41298
 H218 H -0.39659 -0.05334 0.37161
 H219 H -0.31892 -0.04725 0.33774
 H220 H -0.25232 0.06896 0.40109
 H221 H -0.33052 0.06377 0.43440
 H222 H -0.20881 0.05066 0.34845
 H223 H -0.38062 0.01885 0.47252
 H224 H -0.23346 -0.06034 0.33316
 C225 C 0.39043 0.01172 0.46576
 C226 C 0.38124 0.03205 0.43313
 C227 C 0.33078 0.02605 0.41442
 C228 C 0.33002 0.03128 0.37888
 C229 C 0.28356 0.02487 0.36004
 C230 C 0.23648 0.01378 0.37649
 C231 C 0.23722 0.00907 0.41208
 C232 C 0.28372 0.01539 0.43091
 C233 C 0.18631 0.00531 0.35767
 C234 C 0.17764 0.02083 0.32381
 H235 H 0.41296 0.05167 0.41999
 H236 H 0.36574 0.03942 0.36555
 H237 H 0.28528 0.02755 0.33270
 H238 H 0.20156 0.00067 0.42542
 H239 H 0.28228 0.01247 0.45828
 H240 H 0.15513 -0.01403 0.37141
 H241 H 0.35904 -0.00780 0.47919
 H242 H 0.20870 0.04029 0.31004
   
