data_POSCAR
  _audit_creation_date              2014-09-24
  _audit_creation_method            'ToBaCCo'
  _symmetry_space_group_name_H-M    'P1'
  _symmetry_Int_Tables_number       1
  _symmetry_cell_setting            triclinic
  loop_
  _symmetry_equiv_pos_as_xyz
 x,y,z
_cell_length_a 41.5798
_cell_length_b 41.5522
_cell_length_c 38.0908
_cell_angle_alpha 89.991600
_cell_angle_beta 89.996600
_cell_angle_gamma 89.962600
loop_
  _atom_site_label
  _atom_site_type_symbol
  _atom_site_fract_x
  _atom_site_fract_y
  _atom_site_fract_z
C1 C 0.09703 0.27113 -0.01918
 C2 C 0.09713 0.27056 0.01683
 C3 C 0.06723 0.28163 0.02748
 N4 N 0.04895 0.28903 -0.00069
 C5 C 0.06706 0.28250 -0.02926
 C6 C 0.05776 0.28656 0.06261
 C7 C 0.02565 0.29322 0.07217
 C8 C 0.01638 0.30669 0.10384
 C9 C -0.01666 0.30695 0.10408
 C10 C -0.02672 0.29308 0.07276
 N11 N -0.00069 0.28516 0.05324
 C12 C -0.05921 0.28664 0.06369
 C13 C -0.06863 0.28100 0.02836
 C14 C -0.09780 0.26796 0.01790
 C15 C -0.09792 0.26801 -0.01803
 C16 C -0.06840 0.28016 -0.02865
 N17 N -0.05067 0.28835 -0.00018
 C18 C -0.05925 0.28617 -0.06396
 C19 C -0.02735 0.29451 -0.07351
 C20 C -0.01765 0.30520 -0.10644
 C21 C 0.01541 0.30557 -0.10642
 C22 C 0.02513 0.29476 -0.07369
 N23 N -0.00100 0.28830 -0.05377
 C24 C 0.05732 0.28802 -0.06425
 H25 H 0.11675 0.26391 -0.03598
 H26 H 0.11694 0.26288 0.03325
 H27 H -0.00084 0.27582 -0.03014
 H28 H 0.03184 0.31535 0.12465
 H29 H -0.03158 0.31610 0.12511
 H30 H -0.11711 0.25916 0.03434
 H31 H -0.11775 0.26013 -0.03423
 H32 H 0.03056 0.31193 -0.12846
 H33 H -0.00082 0.27149 0.03034
 H34 H -0.03258 0.31091 -0.12882
 C35 C 0.40138 0.80510 0.48223
 C36 C 0.40136 0.80504 0.51823
 C37 C 0.43212 0.79639 0.52862
 N38 N 0.45092 0.79120 0.50023
 C39 C 0.43215 0.79649 0.47184
 C40 C 0.44154 0.79056 0.56366
 C41 C 0.47390 0.78575 0.57379
 C42 C 0.48358 0.77321 0.60584
 C43 C 0.51664 0.77327 0.60585
 C44 C 0.52628 0.78584 0.57380
 N45 N 0.50008 0.79363 0.55452
 C46 C 0.55862 0.79075 0.56368
 C47 C 0.56805 0.79653 0.52863
 C48 C 0.59881 0.80519 0.51826
 C49 C 0.59883 0.80517 0.48225
 C50 C 0.56808 0.79651 0.47186
 N51 N 0.54930 0.79127 0.50024
 C52 C 0.55868 0.79070 0.43681
 C53 C 0.52633 0.78587 0.42667
 C54 C 0.51668 0.77336 0.39460
 C55 C 0.48362 0.77338 0.39460
 C56 C 0.47396 0.78589 0.42666
 N57 N 0.50014 0.79370 0.44595
 C58 C 0.44160 0.79076 0.43679
 H59 H 0.38094 0.81037 0.46559
 H60 H 0.38090 0.81025 0.53486
 H61 H 0.50012 0.80643 0.46945
 H62 H 0.46842 0.76474 0.62701
 H63 H 0.53183 0.76485 0.62702
 H64 H 0.61924 0.81045 0.53489
 H65 H 0.61927 0.81042 0.46563
 H66 H 0.46846 0.76496 0.37342
 H67 H 0.50006 0.80639 0.53103
 H68 H 0.53186 0.76493 0.37343
 C69 C 0.90432 0.73263 0.01927
 C70 C 0.90376 0.73283 -0.01670
 C71 C 0.93211 0.71836 -0.02782
 N72 N 0.95019 0.70991 0.00023
 C73 C 0.93317 0.71858 0.02896
 C74 C 0.94084 0.71256 -0.06328
 C75 C 0.97315 0.70548 -0.07254
 C76 C 0.98291 0.69105 -0.10367
 C77 C 1.01598 0.69107 -0.10365
 C78 C 1.02549 0.70502 -0.07231
 N79 N 0.99933 0.71345 -0.05332
 C80 C 1.05754 0.71243 -0.06332
 C81 C 1.06704 0.71873 -0.02847
 C82 C 1.09584 0.73286 -0.01880
 C83 C 1.09639 0.73310 0.01717
 C84 C 1.06811 0.71857 0.02831
 N85 N 1.05005 0.71005 0.00028
 C86 C 1.05940 0.71276 0.06378
 C87 C 1.02712 0.70562 0.07305
 C88 C 1.01741 0.69119 0.10420
 C89 C 0.98434 0.69113 0.10418
 C90 C 0.97477 0.70502 0.07282
 N91 N 1.00090 0.71350 0.05382
 C92 C 0.94270 0.71234 0.06382
 H93 H 0.88578 0.74212 0.03634
 H94 H 0.88479 0.74290 -0.03273
 H95 H 1.00072 0.72746 0.03111
 H96 H 0.96780 0.68179 -0.12446
 H97 H 1.03129 0.68217 -0.12448
 H98 H 1.11434 0.74238 -0.03588
 H99 H 1.11533 0.74323 0.03319
 H100 H 0.96906 0.68221 0.12503
 H101 H 0.99946 0.72743 -0.03063
 H102 H 1.03256 0.68199 0.12501
 C103 C 0.59825 0.22657 0.48182
 C104 C 0.59824 0.22660 0.51783
 C105 C 0.56810 0.21599 0.52822
 N106 N 0.54980 0.20933 0.49981
 C107 C 0.56813 0.21595 0.47141
 C108 C 0.55838 0.21133 0.56340
 C109 C 0.52615 0.20525 0.57315
 C110 C 0.51648 0.19425 0.60586
 C111 C 0.48340 0.19428 0.60583
 C112 C 0.47379 0.20529 0.57310
 N113 N 0.49999 0.21186 0.55333
 C114 C 0.44158 0.21145 0.56329
 C115 C 0.43190 0.21619 0.52811
 C116 C 0.40180 0.22692 0.51771
 C117 C 0.40181 0.22696 0.48170
 C118 C 0.43193 0.21625 0.47130
 N119 N 0.45021 0.20952 0.49971
 C120 C 0.44164 0.21158 0.43612
 C121 C 0.47385 0.20537 0.42637
 C122 C 0.48350 0.19435 0.39366
 C123 C 0.51658 0.19425 0.39369
 C124 C 0.52622 0.20521 0.42643
 N125 N 0.50003 0.21187 0.44620
 C126 C 0.55844 0.21126 0.43623
 H127 H 0.61814 0.23371 0.46523
 H128 H 0.61811 0.23376 0.53441
 H129 H 0.50004 0.22411 0.46997
 H130 H 0.53169 0.18741 0.62769
 H131 H 0.46815 0.18745 0.62762
 H132 H 0.38192 0.23411 0.53429
 H133 H 0.38195 0.23419 0.46511
 H134 H 0.53181 0.18738 0.37190
 H135 H 0.50001 0.22410 0.52955
 H136 H 0.46827 0.18757 0.37183
 C137 C 0.68854 -0.09480 -0.01739
 C138 C 0.68893 -0.09494 0.01857
 C139 C 0.70468 -0.06711 0.02890
 N140 N 0.71348 -0.04966 0.00047
 C141 C 0.70410 -0.06689 -0.02785
 C142 C 0.71250 -0.05894 0.06397
 C143 C 0.71901 -0.02653 0.07320
 C144 C 0.73547 -0.01643 0.10296
 C145 C 0.73495 0.01666 0.10278
 C146 C 0.71870 0.02583 0.07266
 N147 N 0.70921 -0.00055 0.05466
 C148 C 0.71144 0.05783 0.06324
 C149 C 0.70341 0.06643 0.02858
 C150 C 0.69003 0.09556 0.01867
 C151 C 0.68960 0.09573 -0.01733
 C152 C 0.70333 0.06692 -0.02814
 N153 N 0.71130 0.04882 0.00003
 C154 C 0.71084 0.05856 -0.06324
 C155 C 0.71764 0.02616 -0.07240
 C156 C 0.73545 0.01653 -0.10137
 C157 C 0.73580 -0.01651 -0.10124
 C158 C 0.71817 -0.02627 -0.07220
 N159 N 0.70762 -0.00011 -0.05441
 C160 C 0.71163 -0.05867 -0.06296
 H161 H 0.67814 -0.11319 -0.03398
 H162 H 0.67882 -0.11344 0.03525
 H163 H 0.69212 -0.00026 -0.03287
 H164 H 0.74687 -0.03127 0.12271
 H165 H 0.74554 0.03217 0.12246
 H166 H 0.68180 0.11477 0.03563
 H167 H 0.68070 0.11509 -0.03367
 H168 H 0.74814 -0.03159 -0.12009
 H169 H 0.69421 -0.00078 0.03273
 H170 H 0.74751 0.03170 -0.12033
 C171 C 0.19438 0.40142 0.48161
 C172 C 0.19438 0.40142 0.51761
 C173 C 0.20302 0.43220 0.52799
 N174 N 0.20826 0.45098 0.49959
 C175 C 0.20302 0.43219 0.47121
 C176 C 0.20882 0.44162 0.56303
 C177 C 0.21363 0.47400 0.57315
 C178 C 0.22615 0.48367 0.60520
 C179 C 0.22612 0.51675 0.60520
 C180 C 0.21358 0.52640 0.57313
 N181 N 0.20578 0.50020 0.55386
 C182 C 0.20872 0.55877 0.56299
 C183 C 0.20298 0.56820 0.52793
 C184 C 0.19437 0.59899 0.51751
 C185 C 0.19445 0.59898 0.48151
 C186 C 0.20310 0.56820 0.47115
 N187 N 0.20828 0.54940 0.49956
 C188 C 0.20898 0.55876 0.43613
 C189 C 0.21381 0.52637 0.42602
 C190 C 0.22640 0.51669 0.39400
 C191 C 0.22635 0.48360 0.39401
 C192 C 0.21375 0.47397 0.42604
 N193 N 0.20591 0.50019 0.44529
 C194 C 0.20885 0.44161 0.43617
 H195 H 0.18915 0.38096 0.46498
 H196 H 0.18915 0.38097 0.53425
 H197 H 0.19312 0.50021 0.46875
 H198 H 0.23460 0.46849 0.62638
 H199 H 0.23453 0.53194 0.62636
 H200 H 0.18911 0.61945 0.53412
 H201 H 0.18926 0.61945 0.46486
 H202 H 0.23482 0.46840 0.37286
 H203 H 0.19305 0.50020 0.53036
 H204 H 0.23490 0.53185 0.37284
 C205 C 0.26810 0.90428 0.01861
 C206 C 0.26781 0.90376 -0.01736
 C207 C 0.28227 0.93209 -0.02850
 N208 N 0.29082 0.95014 -0.00046
 C209 C 0.28220 0.93311 0.02828
 C210 C 0.28798 0.94085 -0.06397
 C211 C 0.29504 0.97318 -0.07321
 C212 C 0.30935 0.98297 -0.10439
 C213 C 0.30933 1.01606 -0.10432
 C214 C 0.29549 1.02556 -0.07291
 N215 N 0.28714 0.99937 -0.05393
 C216 C 0.28810 1.05762 -0.06386
 C217 C 0.28191 1.06710 -0.02898
 C218 C 0.26781 1.09593 -0.01922
 C219 C 0.26769 1.09645 0.01675
 C220 C 0.28227 1.06813 0.02781
 N221 N 0.29071 1.05008 -0.00028
 C222 C 0.28818 1.05937 0.06324
 C223 C 0.29536 1.02704 0.07243
 C224 C 0.30985 1.01727 0.10352
 C225 C 0.30990 0.98418 0.10345
 C226 C 0.29593 0.97467 0.07213
 N227 N 0.28742 1.00085 0.05319
 C228 C 0.28854 0.94261 0.06312
 H229 H 0.25864 0.88574 0.03569
 H230 H 0.25768 0.88481 -0.03338
 H231 H 0.27339 1.00072 0.03054
 H232 H 0.31854 0.96786 -0.12524
 H233 H 0.31815 1.03140 -0.12517
 H234 H 0.25822 1.11446 -0.03624
 H235 H 0.25761 1.11539 0.03283
 H236 H 0.31885 0.96885 0.12425
 H237 H 0.27323 0.99949 -0.03118
 H238 H 0.31911 1.03239 0.12432
 C239 C 0.77399 0.40161 0.51865
 C240 C 0.77392 0.40166 0.48264
 C241 C 0.78459 0.43180 0.47226
 N242 N 0.79133 0.45007 0.50068
 C243 C 0.78470 0.43172 0.52907
 C244 C 0.78923 0.44154 0.43709
 C245 C 0.79539 0.47377 0.42735
 C246 C 0.80635 0.48345 0.39463
 C247 C 0.80640 0.51655 0.39468
 C248 C 0.79546 0.52618 0.42744
 N249 N 0.78886 0.49996 0.44720
 C250 C 0.78937 0.55841 0.43727
 C251 C 0.78466 0.56807 0.47246
 C252 C 0.77397 0.59819 0.48290
 C253 C 0.77394 0.59814 0.51890
 C254 C 0.78462 0.56799 0.52927
 N255 N 0.79133 0.54971 0.50085
 C256 C 0.78929 0.55825 0.56445
 C257 C 0.79543 0.52600 0.57419
 C258 C 0.80640 0.51631 0.60691
 C259 C 0.80646 0.48320 0.60686
 C260 C 0.79552 0.47359 0.57410
 N261 N 0.78891 0.49982 0.55435
 C262 C 0.78946 0.44136 0.56426
 H263 H 0.76682 0.38171 0.53522
 H264 H 0.76668 0.38181 0.46605
 H265 H 0.77670 0.49985 0.53056
 H266 H 0.81313 0.46823 0.37278
 H267 H 0.81322 0.53181 0.37289
 H268 H 0.76678 0.61810 0.46633
 H269 H 0.76672 0.61801 0.53551
 H270 H 0.81329 0.46794 0.62865
 H271 H 0.77665 0.49995 0.47099
 H272 H 0.81318 0.53152 0.62876
 O273 O 0.24432 0.19994 0.23603
 O274 O 0.22365 0.26772 0.29411
 O275 O 0.19988 0.24390 0.23617
 O276 O 0.26802 0.22375 0.29393
 O277 O 0.29954 0.25576 0.26284
 O278 O 0.23139 0.27591 0.20507
 O279 O 0.25516 0.29973 0.26301
 O280 O 0.27584 0.23195 0.20493
 Cu281 Cu 0.23077 0.23061 0.26818
 Cu282 Cu 0.26865 0.26907 0.23082
 C283 C 0.26341 0.20456 0.21054
 C284 C 0.23615 0.29509 0.28856
 C285 C 0.20419 0.26310 0.21070
 C286 C 0.29523 0.23654 0.28829
 O287 O 0.75654 0.80028 0.23705
 O288 O 0.77703 0.73250 0.29529
 O289 O 0.80087 0.75623 0.23740
 O290 O 0.73270 0.77656 0.29505
 O291 O 0.70113 0.74458 0.26400
 O292 O 0.76930 0.72426 0.20632
 O293 O 0.74546 0.70055 0.26419
 O294 O 0.72497 0.76829 0.20601
 Cu295 Cu 0.76995 0.76964 0.26933
 Cu296 Cu 0.73201 0.73122 0.23200
 C297 C 0.73753 0.79564 0.21149
 C298 C 0.76452 0.70514 0.28970
 C299 C 0.79654 0.73699 0.21198
 C300 C 0.70548 0.76376 0.28947
 O301 O 0.74487 0.29956 0.26389
 O302 O 0.72487 0.23181 0.20556
 O303 O 0.70079 0.25531 0.26349
 O304 O 0.76889 0.27605 0.20601
 O305 O 0.80061 0.24418 0.23709
 O306 O 0.73247 0.22343 0.29459
 O307 O 0.75657 0.19992 0.23663
 O308 O 0.77658 0.26771 0.29499
 Cu309 Cu 0.73164 0.26889 0.23162
 Cu310 Cu 0.76974 0.23059 0.26897
 C311 C 0.76395 0.29503 0.28941
 C312 C 0.73758 0.20450 0.21104
 C313 C 0.70519 0.23608 0.28891
 C314 C 0.79618 0.26343 0.21168
 O315 O 0.27615 0.76907 0.20552
 O316 O 0.25569 0.70099 0.26329
 O317 O 0.23200 0.72481 0.20534
 O318 O 0.29979 0.74514 0.26346
 O319 O 0.26792 0.77688 0.29450
 O320 O 0.20013 0.75655 0.23637
 O321 O 0.22382 0.73274 0.29432
 O322 O 0.24428 0.80080 0.23657
 Cu323 Cu 0.26911 0.73181 0.23124
 Cu324 Cu 0.23081 0.76996 0.26855
 C325 C 0.26350 0.79638 0.21116
 C326 C 0.23653 0.70545 0.28876
 C327 C 0.20468 0.73741 0.21091
 C328 C 0.29522 0.76420 0.28899
 O329 O 0.77682 0.26652 0.70507
 O330 O 0.75612 0.19852 0.76293
 O331 O 0.73229 0.22263 0.70512
 O332 O 0.80066 0.24223 0.76274
 O333 O 0.76932 0.27422 0.79412
 O334 O 0.70095 0.25465 0.73647
 O335 O 0.72477 0.23056 0.79424
 O336 O 0.74548 0.29849 0.73648
 Cu337 Cu 0.76962 0.22926 0.73077
 Cu338 Cu 0.73195 0.26771 0.76846
 C339 C 0.76447 0.29394 0.71089
 C340 C 0.73720 0.20316 0.78857
 C341 C 0.70514 0.23551 0.71092
 C342 C 0.79646 0.26128 0.78836
 O343 O 0.29910 0.74441 0.73644
 O344 O 0.23095 0.72431 0.79422
 O345 O 0.25474 0.70051 0.73629
 O346 O 0.27540 0.76825 0.79439
 O347 O 0.24384 0.80030 0.76334
 O348 O 0.22319 0.73256 0.70523
 O349 O 0.19940 0.75635 0.76316
 O350 O 0.26753 0.77646 0.70540
 Cu351 Cu 0.26822 0.73115 0.76849
 Cu352 Cu 0.23030 0.76966 0.73117
 C353 C 0.29474 0.76360 0.71097
 C354 C 0.20372 0.73710 0.78858
 C355 C 0.23572 0.70518 0.71075
 C356 C 0.26294 0.79566 0.78881
 O357 O 0.25496 0.29931 0.73603
 O358 O 0.27517 0.23125 0.79396
 O359 O 0.29915 0.25516 0.73625
 O360 O 0.23093 0.27545 0.79381
 O361 O 0.19936 0.24368 0.76251
 O362 O 0.26758 0.22338 0.70493
 O363 O 0.24360 0.19948 0.76265
 O364 O 0.22338 0.26753 0.70473
 Cu365 Cu 0.26822 0.26850 0.76819
 Cu366 Cu 0.23028 0.23031 0.73056
 C367 C 0.23599 0.29483 0.71041
 C368 C 0.26264 0.20393 0.78821
 C369 C 0.29482 0.23605 0.71071
 C370 C 0.20369 0.26281 0.78803
 O371 O 0.73231 0.77666 0.70597
 O372 O 0.80013 0.75616 0.76403
 O373 O 0.77648 0.73243 0.70608
 O374 O 0.75602 0.80044 0.76402
 O375 O 0.72417 0.76865 0.79498
 O376 O 0.74463 0.70068 0.73710
 O377 O 0.76828 0.72440 0.79503
 O378 O 0.70047 0.74489 0.73695
 Cu379 Cu 0.76943 0.76965 0.73189
 Cu380 Cu 0.73115 0.73147 0.76914
 C381 C 0.70502 0.76399 0.71146
 C382 C 0.79559 0.73699 0.78947
 C383 C 0.76384 0.70512 0.71168
 C384 C 0.73689 0.79593 0.78949
 C385 C 0.28056 0.13156 0.14153
 C386 C 0.26718 0.10114 0.14718
 C387 C 0.27025 0.07711 0.12172
 C388 C 0.28664 0.08319 0.08994
 C389 C 0.30072 0.11377 0.08509
 C390 C 0.29761 0.13772 0.11062
 C391 C 0.27541 0.15695 0.16660
 C392 C 0.27034 0.17854 0.18700
 H393 H 0.25374 0.09618 0.17095
 H394 H 0.25859 0.05419 0.12627
 H395 H 0.31434 0.11913 0.06156
 H396 H 0.30818 0.16117 0.10604
 C397 C 0.78041 0.63135 0.64346
 C398 C 0.75910 0.60527 0.64296
 C399 C 0.76243 0.58116 0.61765
 C400 C 0.78710 0.58293 0.59256
 C401 C 0.80882 0.60879 0.59359
 C402 C 0.80544 0.63293 0.61891
 C403 C 0.77557 0.65715 0.66810
 C404 C 0.77068 0.67897 0.68827
 H405 H 0.73958 0.60387 0.66175
 H406 H 0.74543 0.56142 0.61716
 H407 H 0.82801 0.61048 0.57444
 H408 H 0.82200 0.65305 0.61899
 C409 C 0.72194 0.86749 0.14065
 C410 C 0.73364 0.86277 0.10665
 C411 C 0.73029 0.88687 0.08138
 C412 C 0.71515 0.91634 0.08962
 C413 C 0.70322 0.92063 0.12403
 C414 C 0.70662 0.89640 0.14929
 C415 C 0.72640 0.84273 0.16662
 C416 C 0.73101 0.82148 0.18757
 H417 H 0.74574 0.84055 0.09975
 H418 H 0.74058 0.88279 0.05564
 H419 H 0.69070 0.94251 0.13125
 H420 H 0.69735 0.90025 0.17553
 C421 C 0.22071 0.36749 0.64046
 C422 C 0.19528 0.38946 0.64349
 C423 C 0.19132 0.41369 0.61831
 C424 C 0.21274 0.41603 0.58992
 C425 C 0.23825 0.39403 0.58715
 C426 C 0.24217 0.36987 0.61227
 C427 C 0.22501 0.34233 0.66601
 C428 C 0.22953 0.32085 0.68669
 H429 H 0.17856 0.38784 0.66522
 H430 H 0.17156 0.43053 0.62083
 H431 H 0.25510 0.39563 0.56553
 H432 H 0.26194 0.35303 0.60969
 C433 C 0.86926 0.28016 0.14274
 C434 C 0.86354 0.29838 0.11251
 C435 C 0.88731 0.30116 0.08676
 C436 C 0.91725 0.28554 0.09070
 C437 C 0.92298 0.26805 0.12185
 C438 C 0.89913 0.26531 0.14754
 C439 C 0.84389 0.27523 0.16786
 C440 C 0.82229 0.27028 0.18825
 H441 H 0.84052 0.31007 0.10860
 H442 H 0.88231 0.31561 0.06372
 H443 H 0.94544 0.25531 0.12569
 H444 H 0.90374 0.25098 0.17077
 C445 C 0.36743 0.77874 0.64108
 C446 C 0.38939 0.80415 0.64412
 C447 C 0.41361 0.80809 0.61895
 C448 C 0.41597 0.78665 0.59055
 C449 C 0.39397 0.76115 0.58778
 C450 C 0.36982 0.75726 0.61289
 C451 C 0.34227 0.77448 0.66661
 C452 C 0.32077 0.77001 0.68728
 H453 H 0.38776 0.82089 0.66585
 H454 H 0.43044 0.82783 0.62147
 H455 H 0.39558 0.74430 0.56616
 H456 H 0.35299 0.73750 0.61031
 C457 C 0.13166 0.72044 0.14195
 C458 C 0.10127 0.73390 0.14760
 C459 C 0.07723 0.73081 0.12218
 C460 C 0.08325 0.71434 0.09044
 C461 C 0.11381 0.70019 0.08558
 C462 C 0.13777 0.70331 0.11107
 C463 C 0.15706 0.72555 0.16699
 C464 C 0.17865 0.73057 0.18738
 H465 H 0.09635 0.74740 0.17134
 H466 H 0.05432 0.74253 0.12673
 H467 H 0.11913 0.68650 0.06208
 H468 H 0.16119 0.69268 0.10648
 C469 C 0.63134 0.21975 0.64259
 C470 C 0.60535 0.24119 0.64207
 C471 C 0.58130 0.23804 0.61668
 C472 C 0.58306 0.21342 0.59151
 C473 C 0.60884 0.19158 0.59253
 C474 C 0.63291 0.19478 0.61793
 C475 C 0.65707 0.22437 0.66733
 C476 C 0.67889 0.22903 0.68755
 H477 H 0.60396 0.26067 0.66093
 H478 H 0.56162 0.25513 0.61619
 H479 H 0.61051 0.17243 0.57333
 H480 H 0.65297 0.17813 0.61802
 C481 C 0.72138 0.13145 0.85950
 C482 C 0.70553 0.10277 0.85117
 C483 C 0.70183 0.07878 0.87664
 C484 C 0.71388 0.08313 0.91098
 C485 C 0.72980 0.11225 0.91883
 C486 C 0.73344 0.13611 0.89336
 C487 C 0.72596 0.15607 0.83340
 C488 C 0.73063 0.17728 0.81242
 H489 H 0.69606 0.09893 0.82501
 H490 H 0.68902 0.05701 0.86965
 H491 H 0.74046 0.11622 0.94441
 H492 H 0.74604 0.15811 0.89999
 C493 C 0.22105 0.63284 0.35868
 C494 C 0.19563 0.61090 0.35560
 C495 C 0.19160 0.58670 0.38079
 C496 C 0.21296 0.58434 0.40924
 C497 C 0.23846 0.60631 0.41206
 C498 C 0.24245 0.63045 0.38694
 C499 C 0.22542 0.65797 0.33313
 C500 C 0.23000 0.67944 0.31245
 H501 H 0.17895 0.61254 0.33382
 H502 H 0.17185 0.56988 0.37823
 H503 H 0.25526 0.60469 0.43373
 H504 H 0.26221 0.64725 0.38955
 C505 C 0.28017 0.86865 0.85778
 C506 C 0.26668 0.89905 0.85221
 C507 C 0.26981 0.92308 0.87766
 C508 C 0.28637 0.91702 0.90934
 C509 C 0.30054 0.88646 0.91411
 C510 C 0.29737 0.86251 0.88860
 C511 C 0.27498 0.84325 0.83273
 C512 C 0.26989 0.82167 0.81234
 H513 H 0.25312 0.90399 0.82852
 H514 H 0.25807 0.94599 0.87317
 H515 H 0.31429 0.88111 0.93756
 H516 H 0.30803 0.83907 0.89312
 C517 C 0.78030 0.36857 0.35795
 C518 C 0.75898 0.39467 0.35853
 C519 C 0.76231 0.41873 0.38389
 C520 C 0.78699 0.41688 0.40897
 C521 C 0.80871 0.39099 0.40788
 C522 C 0.80532 0.36690 0.38251
 C523 C 0.77549 0.34285 0.33321
 C524 C 0.77066 0.32111 0.31294
 H525 H 0.73947 0.39613 0.33974
 H526 H 0.74532 0.43849 0.38444
 H527 H 0.82790 0.38924 0.42701
 H528 H 0.82189 0.34676 0.38236
 C529 C 0.13002 0.27923 0.85635
 C530 C 0.10379 0.25812 0.85673
 C531 C 0.07980 0.26142 0.88217
 C532 C 0.08186 0.28586 0.90752
 C533 C 0.10790 0.30736 0.90664
 C534 C 0.13191 0.30402 0.88119
 C535 C 0.15571 0.27440 0.83160
 C536 C 0.17749 0.26954 0.81139
 H537 H 0.10217 0.23877 0.83774
 H538 H 0.05994 0.24457 0.88257
 H539 H 0.10981 0.32635 0.92601
 H540 H 0.15216 0.32040 0.88122
 C541 C 0.63280 0.77896 0.35936
 C542 C 0.63046 0.75748 0.38755
 C543 C 0.60631 0.76135 0.41267
 C544 C 0.58427 0.78683 0.40991
 C545 C 0.58658 0.80829 0.38152
 C546 C 0.61079 0.80437 0.35634
 C547 C 0.65795 0.77471 0.33382
 C548 C 0.67944 0.77022 0.31314
 H549 H 0.64732 0.73772 0.39012
 H550 H 0.60473 0.74448 0.43429
 H551 H 0.56971 0.82803 0.37901
 H552 H 0.61239 0.82112 0.33462
 C553 C 0.86861 0.72006 0.85848
 C554 C 0.89896 0.73358 0.85285
 C555 C 0.92299 0.73055 0.87830
 C556 C 0.91699 0.71408 0.91005
 C557 C 0.88648 0.69988 0.91489
 C558 C 0.86253 0.70294 0.88938
 C559 C 0.84321 0.72513 0.83342
 C560 C 0.82162 0.73013 0.81302
 H561 H 0.90385 0.74707 0.82910
 H562 H 0.94586 0.74231 0.87374
 H563 H 0.88119 0.68619 0.93840
 H564 H 0.83913 0.69227 0.89396
 C565 C 0.36880 0.22038 0.35683
 C566 C 0.39485 0.24171 0.35740
 C567 C 0.41885 0.23844 0.38284
 C568 C 0.41698 0.21382 0.40800
 C569 C 0.39113 0.19209 0.40693
 C570 C 0.36711 0.19541 0.38148
 C571 C 0.34313 0.22511 0.33202
 C572 C 0.32138 0.22989 0.31174
 H573 H 0.39633 0.26119 0.33855
 H574 H 0.43858 0.25544 0.38336
 H575 H 0.38938 0.17293 0.42612
 H576 H 0.34700 0.17884 0.38135
 C577 C 0.72134 0.86790 0.86020
 C578 C 0.70630 0.89695 0.85150
 C579 C 0.70285 0.92112 0.87680
 C580 C 0.71439 0.91663 0.91134
 C581 C 0.72935 0.88707 0.91960
 C582 C 0.73275 0.86302 0.89429
 C583 C 0.72579 0.84313 0.83423
 C584 C 0.73039 0.82185 0.81332
 H585 H 0.69729 0.90094 0.82517
 H586 H 0.69058 0.94313 0.86950
 H587 H 0.73949 0.88286 0.94539
 H588 H 0.74468 0.84072 0.90123
 C589 C 0.22066 0.36751 0.35870
 C590 C 0.19526 0.38952 0.35568
 C591 C 0.19132 0.41373 0.38088
 C592 C 0.21273 0.41601 0.40928
 C593 C 0.23820 0.39396 0.41205
 C594 C 0.24210 0.36983 0.38692
 C595 C 0.22499 0.34243 0.33310
 C596 C 0.22956 0.32101 0.31235
 H597 H 0.17856 0.38796 0.33392
 H598 H 0.17159 0.43061 0.37835
 H599 H 0.25503 0.39553 0.43369
 H600 H 0.26185 0.35297 0.38948
 C601 C 0.27949 0.13035 0.85662
 C602 C 0.26055 0.10254 0.85495
 C603 C 0.26387 0.07854 0.88041
 C604 C 0.28615 0.08217 0.90784
 C605 C 0.30557 0.10981 0.90897
 C606 C 0.30220 0.13381 0.88350
 C607 C 0.27444 0.15600 0.83183
 C608 C 0.26945 0.17776 0.81161
 H609 H 0.24281 0.09969 0.83435
 H610 H 0.24861 0.05746 0.87921
 H611 H 0.32293 0.11296 0.92989
 H612 H 0.31691 0.15527 0.88510
 C613 C 0.78080 0.63156 0.35825
 C614 C 0.75942 0.60554 0.35872
 C615 C 0.76263 0.58143 0.38406
 C616 C 0.78724 0.58315 0.40922
 C617 C 0.80901 0.60898 0.40825
 C618 C 0.80575 0.63311 0.38290
 C619 C 0.77611 0.65732 0.33353
 C620 C 0.77130 0.67907 0.31325
 H621 H 0.73996 0.60416 0.33986
 H622 H 0.74559 0.56173 0.38451
 H623 H 0.82815 0.61062 0.42745
 H624 H 0.82235 0.65319 0.38284
 C625 C 0.13018 0.72058 0.85705
 C626 C 0.13365 0.69798 0.88406
 C627 C 0.10968 0.69476 0.90957
 C628 C 0.08206 0.71422 0.90835
 C629 C 0.07842 0.73638 0.88079
 C630 C 0.10238 0.73956 0.85529
 C631 C 0.15580 0.72550 0.83222
 C632 C 0.17755 0.73038 0.81198
 H633 H 0.15510 0.68325 0.88574
 H634 H 0.11285 0.67749 0.93059
 H635 H 0.05734 0.75168 0.87951
 H636 H 0.09951 0.75722 0.83459
 C637 C 0.63146 0.21973 0.35714
 C638 C 0.63303 0.19475 0.38178
 C639 C 0.60893 0.19152 0.40715
 C640 C 0.58314 0.21336 0.40815
 C641 C 0.58140 0.23799 0.38299
 C642 C 0.60547 0.24117 0.35763
 C643 C 0.65723 0.22444 0.33246
 C644 C 0.67902 0.22926 0.31227
 H645 H 0.65309 0.17811 0.38171
 H646 H 0.61058 0.17236 0.42635
 H647 H 0.56171 0.25507 0.38346
 H648 H 0.60409 0.26066 0.33879
 C649 C 0.86966 0.27550 0.85781
 C650 C 0.88204 0.30606 0.86536
 C651 C 0.90589 0.30967 0.89099
 C652 C 0.91751 0.28270 0.90939
 C653 C 0.90519 0.25207 0.90130
 C654 C 0.88141 0.24853 0.87571
 C655 C 0.84425 0.27163 0.83252
 C656 C 0.82260 0.26743 0.81197
 H657 H 0.87302 0.32711 0.85174
 H658 H 0.91483 0.33354 0.89696
 H659 H 0.91395 0.23091 0.91493
 H660 H 0.87199 0.22478 0.87009
 C661 C 0.36760 0.77929 0.35922
 C662 C 0.38959 0.80469 0.35631
 C663 C 0.41377 0.80852 0.38154
 C664 C 0.41605 0.78698 0.40986
 C665 C 0.39403 0.76150 0.41249
 C666 C 0.36992 0.75772 0.38733
 C667 C 0.34253 0.77510 0.33359
 C668 C 0.32112 0.77065 0.31282
 H669 H 0.38802 0.82150 0.33464
 H670 H 0.43062 0.82826 0.37912
 H671 H 0.39559 0.74457 0.43405
 H672 H 0.35308 0.73796 0.38980
 C673 C 0.28030 0.86993 0.14274
 C674 C 0.30290 0.86643 0.11575
 C675 C 0.30616 0.89042 0.09025
 C676 C 0.28673 0.91807 0.09145
 C677 C 0.26457 0.92174 0.11900
 C678 C 0.26136 0.89776 0.14449
 C679 C 0.27531 0.84429 0.16754
 C680 C 0.27035 0.82254 0.18777
 H681 H 0.31760 0.84495 0.11408
 H682 H 0.32342 0.88723 0.06924
 H683 H 0.24930 0.94284 0.12026
 H684 H 0.24370 0.90064 0.16517
 C685 C 0.78098 0.36792 0.64295
 C686 C 0.75960 0.39398 0.64265
 C687 C 0.76281 0.41821 0.61745
 C688 C 0.78742 0.41658 0.59228
 C689 C 0.80921 0.39074 0.59312
 C690 C 0.80595 0.36648 0.61832
 C691 C 0.77623 0.34200 0.66746
 C692 C 0.77136 0.32012 0.68754
 H693 H 0.74012 0.39527 0.66149
 H694 H 0.74575 0.43792 0.61710
 H695 H 0.82835 0.38916 0.57390
 H696 H 0.82255 0.34637 0.61825
 C697 C 0.72241 0.13231 0.14051
 C698 C 0.70067 0.10713 0.14637
 C699 C 0.69692 0.08289 0.12119
 C700 C 0.71489 0.08368 0.08995
 C701 C 0.73664 0.10900 0.08431
 C702 C 0.74034 0.13318 0.10943
 C703 C 0.72673 0.15728 0.16627
 C704 C 0.73121 0.17862 0.18713
 H705 H 0.68671 0.10622 0.17036
 H706 H 0.68005 0.06353 0.12599
 H707 H 0.75089 0.10988 0.06051
 H708 H 0.75728 0.15250 0.10466
 C709 C 0.22035 0.63283 0.64051
 C710 C 0.19494 0.61085 0.64347
 C711 C 0.19105 0.58666 0.61824
 C712 C 0.21253 0.58436 0.58989
 C713 C 0.23801 0.60638 0.58720
 C714 C 0.24185 0.63050 0.61235
 C715 C 0.22462 0.65789 0.66615
 C716 C 0.22916 0.67929 0.68692
 H717 H 0.17819 0.61243 0.66518
 H718 H 0.17133 0.56981 0.62071
 H719 H 0.25489 0.60480 0.56561
 H720 H 0.26161 0.64733 0.60985
 C721 C 0.87008 0.72044 0.14350
 C722 C 0.89782 0.73948 0.14520
 C723 C 0.92177 0.73632 0.11969
 C724 C 0.91818 0.71413 0.09216
 C725 C 0.89062 0.69461 0.09099
 C726 C 0.86666 0.69781 0.11652
 C727 C 0.84446 0.72534 0.16834
 C728 C 0.82271 0.73023 0.18859
 H729 H 0.90064 0.75716 0.16587
 H730 H 0.94280 0.75166 0.12092
 H731 H 0.88749 0.67731 0.07000
 H732 H 0.84525 0.68303 0.11488
 C733 C 0.36857 0.21995 0.64240
 C734 C 0.39456 0.24135 0.64193
 C735 C 0.41862 0.23817 0.61655
 C736 C 0.41688 0.21357 0.59136
 C737 C 0.39108 0.19178 0.59234
 C738 C 0.36699 0.19501 0.61773
 C739 C 0.34282 0.22462 0.66712
 C740 C 0.32102 0.22938 0.68733
 H741 H 0.39595 0.26081 0.66080
 H742 H 0.43832 0.25522 0.61610
 H743 H 0.38942 0.17264 0.57312
 H744 H 0.34692 0.17839 0.61779
 C745 C 0.13064 0.27889 0.14203
 C746 C 0.13301 0.30271 0.11615
 C747 C 0.10900 0.30570 0.09064
 C748 C 0.08249 0.28475 0.09072
 C749 C 0.07993 0.26135 0.11716
 C750 C 0.10392 0.25841 0.14266
 C751 C 0.15631 0.27434 0.16690
 C752 C 0.17805 0.26968 0.18721
 H753 H 0.15363 0.31863 0.11537
 H754 H 0.11127 0.32399 0.07052
 H755 H 0.05966 0.24498 0.11760
 H756 H 0.10190 0.23982 0.16249
 C757 C 0.63263 0.77921 0.64125
 C758 C 0.61060 0.80460 0.64418
 C759 C 0.58642 0.80845 0.61895
 C760 C 0.58418 0.78695 0.59061
 C761 C 0.60625 0.76149 0.58793
 C762 C 0.63036 0.75768 0.61310
 C763 C 0.65770 0.77499 0.66688
 C764 C 0.67911 0.77049 0.68765
 H765 H 0.61213 0.82138 0.66588
 H766 H 0.56952 0.82817 0.62140
 H767 H 0.60473 0.74459 0.56635
 H768 H 0.64725 0.73794 0.61060
   
