data_POSCAR
  _audit_creation_date              2014-09-24
  _audit_creation_method            'ToBaCCo'
  _symmetry_space_group_name_H-M    'P1'
  _symmetry_Int_Tables_number       1
  _symmetry_cell_setting            triclinic
  loop_
  _symmetry_equiv_pos_as_xyz
 x,y,z
_cell_length_a 40.9875
_cell_length_b 40.7240
_cell_length_c 17.1785
_cell_angle_alpha 89.992700
_cell_angle_beta 89.876200
_cell_angle_gamma 121.182700
loop_
  _atom_site_label
  _atom_site_type_symbol
  _atom_site_fract_x
  _atom_site_fract_y
  _atom_site_fract_z
C1 C 0.48028 0.96486 0.54335
 C2 C 0.48609 0.96494 0.46184
 C3 C 0.50610 0.99998 0.42186
 C4 C 0.51980 1.03558 0.45917
 C5 C 0.51422 1.03581 0.54129
 C6 C 0.49364 1.00036 0.58079
 H7 H 0.49162 1.00058 0.64367
 H8 H 0.50806 0.99906 0.35903
 C9 C 0.03484 0.52082 0.54086
 C10 C 0.03587 0.51652 0.45976
 C11 C 0.00172 0.49924 0.41734
 C12 C -0.03382 0.48631 0.45383
 C13 C -0.03447 0.49099 0.53593
 C14 C -0.00014 0.50850 0.57783
 H15 H -0.00089 0.51156 0.64038
 H16 H 0.00315 0.49761 0.35460
 C17 C 0.48197 0.51716 0.54263
 C18 C 0.47798 0.51248 0.46052
 C19 C 0.49322 0.49307 0.42183
 C20 C 0.51274 0.47832 0.46155
 C21 C 0.51698 0.48264 0.54368
 C22 C 0.50222 0.50284 0.58207
 H23 H 0.50329 0.50419 0.64507
 H24 H 0.49153 0.49109 0.35884
 O25 O 0.39026 0.65686 -0.06789
 O26 O 0.38850 0.71954 -0.08774
 C27 C 0.37024 0.73631 -0.10086
 O28 O 0.34049 0.72890 -0.06304
 O29 O 0.27772 0.66345 -0.08599
 C30 C 0.26083 0.62805 -0.10250
 O31 O 0.26686 0.60459 -0.06582
 O32 O 0.33140 0.60804 -0.09086
 C33 C 0.36685 0.62691 -0.10542
 O34 O 0.38928 0.66547 0.08721
 O35 O 0.39031 0.72958 0.06743
 C36 C 0.36692 0.73514 0.10525
 O37 O 0.33143 0.71695 0.09156
 O38 O 0.26714 0.65255 0.06992
 C39 C 0.26174 0.62298 0.10654
 O40 O 0.27869 0.60534 0.08890
 O41 O 0.34157 0.60586 0.06351
 C42 C 0.37131 0.62970 0.10071
 Cr43 Cr 0.38737 0.69171 -0.00023
 Cr44 Cr 0.30524 0.68933 0.00299
 Cr45 Cr 0.30569 0.60819 -0.00101
 O46 O 0.33279 0.66310 0.00067
 O47 O 0.61032 0.33432 -0.08833
 O48 O 0.60865 0.27002 -0.06640
 C49 C 0.63197 0.26430 -0.10412
 O50 O 0.66747 0.28242 -0.09027
 O51 O 0.73212 0.34644 -0.06696
 C52 C 0.73841 0.37612 -0.10424
 O53 O 0.72091 0.39356 -0.08981
 O54 O 0.65819 0.39389 -0.06534
 C55 C 0.62840 0.37005 -0.10239
 O56 O 0.60921 0.34372 0.06669
 O57 O 0.61017 0.28078 0.08850
 C58 C 0.62797 0.26359 0.10195
 O59 O 0.65761 0.27055 0.06430
 O60 O 0.72076 0.33595 0.08752
 C61 C 0.73872 0.37166 0.10153
 O62 O 0.73258 0.39503 0.06477
 O63 O 0.66826 0.39250 0.08901
 C64 C 0.63281 0.37378 0.10373
 Cr65 Cr 0.61179 0.30837 0.00009
 Cr66 Cr 0.69339 0.30992 -0.00132
 Cr67 Cr 0.69388 0.39152 -0.00032
 O68 O 0.66634 0.33660 -0.00043
 C69 C 0.43101 0.86393 -0.31652
 C70 C 0.42365 0.89335 -0.30100
 C71 C 0.43966 0.92631 -0.34722
 C72 C 0.46344 0.93085 -0.41090
 C73 C 0.47110 0.90137 -0.42552
 C74 C 0.45492 0.86832 -0.37934
 C75 C 0.41451 0.82935 -0.26585
 C76 C 0.43628 0.81319 -0.24416
 C77 C 0.42153 0.78220 -0.19243
 C78 C 0.38475 0.76683 -0.16091
 C79 C 0.36260 0.78228 -0.18440
 C80 C 0.37726 0.81308 -0.23640
 H81 H 0.43247 0.94782 -0.33401
 H82 H 0.49075 0.90428 -0.47097
 H83 H 0.43938 0.77104 -0.17534
 H84 H 0.33401 0.77088 -0.16186
 H85 H 0.46123 0.84621 -0.39281
 H86 H 0.46522 0.82529 -0.26513
 H87 H 0.40585 0.89120 -0.25223
 H88 H 0.35946 0.82432 -0.25320
 C89 C 0.13874 0.56613 -0.32798
 C90 C 0.13898 0.58212 -0.40084
 C91 C 0.10548 0.56628 -0.44698
 C92 C 0.07054 0.53661 -0.41332
 C93 C 0.07084 0.52046 -0.34156
 C94 C 0.10454 0.53490 -0.29976
 C95 C 0.17319 0.58287 -0.27805
 C96 C 0.18247 0.55868 -0.23817
 C97 C 0.21155 0.57353 -0.18286
 C98 C 0.23206 0.61299 -0.16579
 C99 C 0.22387 0.63747 -0.20815
 C100 C 0.19477 0.62255 -0.26387
 H101 H 0.10407 0.58586 -0.50619
 H102 H 0.04494 0.49652 -0.31767
 H103 H 0.21730 0.55386 -0.15209
 H104 H 0.23927 0.66804 -0.19688
 H105 H 0.10357 0.52235 -0.24357
 H106 H 0.16656 0.52803 -0.24862
 H107 H 0.16481 0.60709 -0.42214
 H108 H 0.18801 0.64180 -0.29333
 C109 C 0.43149 0.56677 -0.32130
 C110 C 0.46794 0.57367 -0.30361
 C111 C 0.48446 0.55751 -0.34852
 C112 C 0.46515 0.53409 -0.41310
 C113 C 0.42834 0.52691 -0.43003
 C114 C 0.41185 0.54318 -0.38499
 C115 C 0.41383 0.58334 -0.27169
 C116 C 0.37509 0.56141 -0.25074
 C117 C 0.35939 0.57602 -0.19884
 C118 C 0.38214 0.61281 -0.16657
 C119 C 0.42051 0.63522 -0.18984
 C120 C 0.43612 0.62070 -0.24188
 H121 H 0.51295 0.56430 -0.33358
 H122 H 0.41148 0.50754 -0.47634
 H123 H 0.32976 0.55798 -0.18203
 H124 H 0.43876 0.66383 -0.16677
 H125 H 0.38363 0.53720 -0.39998
 H126 H 0.35724 0.53241 -0.27216
 H127 H 0.48360 0.59118 -0.25410
 H128 H 0.46584 0.63861 -0.25816
 C129 C 0.56638 0.13689 -0.31961
 C130 C 0.52910 0.10670 -0.30385
 C131 C 0.51205 0.07368 -0.34967
 C132 C 0.53166 0.06984 -0.41320
 C133 C 0.56936 0.09998 -0.42794
 C134 C 0.58637 0.13311 -0.38207
 C135 C 0.58436 0.17167 -0.26964
 C136 C 0.62278 0.18903 -0.24720
 C137 C 0.63873 0.22001 -0.19545
 C138 C 0.61652 0.23412 -0.16476
 C139 C 0.57851 0.21758 -0.18934
 C140 C 0.56268 0.18684 -0.24132
 H141 H 0.48294 0.05153 -0.33640
 H142 H 0.58620 0.09767 -0.47382
 H143 H 0.66807 0.23205 -0.17752
 H144 H 0.56073 0.22803 -0.16753
 H145 H 0.61517 0.15583 -0.39568
 H146 H 0.64017 0.17783 -0.26743
 H147 H 0.51314 0.10836 -0.25526
 H148 H 0.53327 0.17468 -0.25881
 C149 C 0.86320 0.44088 -0.32542
 C150 C 0.86969 0.41813 -0.37731
 C151 C 0.90271 0.43445 -0.42295
 C152 C 0.92969 0.47388 -0.41812
 C153 C 0.92314 0.49673 -0.36693
 C154 C 0.89015 0.48042 -0.32121
 C155 C 0.82946 0.42317 -0.27302
 C156 C 0.80949 0.44191 -0.25674
 C157 C 0.77924 0.42622 -0.20347
 C158 C 0.76842 0.39150 -0.16518
 C159 C 0.78783 0.37234 -0.18307
 C160 C 0.81796 0.38799 -0.23630
 H161 H 0.90743 0.41625 -0.46151
 H162 H 0.94373 0.52717 -0.36213
 H163 H 0.76483 0.44167 -0.19125
 H164 H 0.78028 0.34555 -0.15475
 H165 H 0.88626 0.49858 -0.28096
 H166 H 0.81740 0.46883 -0.28492
 H167 H 0.84931 0.38765 -0.38234
 H168 H 0.83306 0.37308 -0.24681
 C169 C 0.56666 0.43326 -0.31754
 C170 C 0.57292 0.46979 -0.30045
 C171 C 0.55673 0.48595 -0.34622
 C172 C 0.53390 0.46619 -0.41107
 C173 C 0.52731 0.42926 -0.42731
 C174 C 0.54362 0.41313 -0.38143
 C175 C 0.58347 0.41608 -0.26741
 C176 C 0.56220 0.37707 -0.24641
 C177 C 0.57718 0.36173 -0.19465
 C178 C 0.61368 0.38511 -0.16258
 C179 C 0.63537 0.42379 -0.18564
 C180 C 0.62048 0.43904 -0.23753
 H181 H 0.56306 0.51455 -0.33174
 H182 H 0.50839 0.41202 -0.47378
 H183 H 0.55970 0.33184 -0.17799
 H184 H 0.66375 0.44252 -0.16273
 H185 H 0.53813 0.38485 -0.39599
 H186 H 0.53347 0.35870 -0.26787
 H187 H 0.59001 0.48582 -0.25082
 H188 H 0.63789 0.46899 -0.25383
 C189 C 0.86620 0.43603 0.31423
 C190 C 0.87089 0.46125 0.37474
 C191 C 0.90372 0.47792 0.42068
 C192 C 0.93278 0.46974 0.40743
 C193 C 0.92815 0.44502 0.34535
 C194 C 0.89519 0.42816 0.29996
 C195 C 0.83175 0.41878 0.26440
 C196 C 0.81352 0.37994 0.24286
 C197 C 0.78248 0.36426 0.19199
 C198 C 0.76922 0.38720 0.16106
 C199 C 0.78688 0.42581 0.18431
 C200 C 0.81772 0.44138 0.23563
 H201 H 0.90680 0.49825 0.46488
 H202 H 0.94944 0.43752 0.33330
 H203 H 0.76952 0.33442 0.17536
 H204 H 0.77733 0.44426 0.16174
 H205 H 0.89258 0.40925 0.25291
 H206 H 0.82347 0.36176 0.26499
 H207 H 0.84908 0.46805 0.38665
 H208 H 0.83140 0.47147 0.25081
 C209 C 0.56615 0.13543 0.31634
 C210 C 0.57423 0.10648 0.30126
 C211 C 0.55894 0.07376 0.34803
 C212 C 0.53518 0.06901 0.41185
 C213 C 0.52635 0.09775 0.42550
 C214 C 0.54183 0.13059 0.37872
 C215 C 0.58277 0.17020 0.26619
 C216 C 0.56098 0.18622 0.24358
 C217 C 0.57603 0.21740 0.19218
 C218 C 0.61310 0.23306 0.16203
 C219 C 0.63525 0.21781 0.18666
 C220 C 0.62033 0.18688 0.23829
 H221 H 0.56685 0.05273 0.33545
 H222 H 0.50682 0.09459 0.47146
 H223 H 0.55818 0.22842 0.17417
 H224 H 0.66407 0.22947 0.16526
 H225 H 0.53493 0.15232 0.39177
 H226 H 0.53185 0.17385 0.26350
 H227 H 0.59226 0.10893 0.25271
 H228 H 0.63818 0.17582 0.25596
 C229 C 0.56685 0.43233 0.32027
 C230 C 0.58811 0.46114 0.37547
 C231 C 0.57068 0.47621 0.42120
 C232 C 0.53154 0.46236 0.41356
 C233 C 0.51032 0.43376 0.35835
 C234 C 0.52777 0.41897 0.31214
 C235 C 0.58527 0.41674 0.26992
 C236 C 0.56525 0.37783 0.24834
 C237 C 0.58115 0.36373 0.19599
 C238 C 0.61768 0.38806 0.16467
 C239 C 0.63846 0.42657 0.18870
 C240 C 0.62234 0.44082 0.24045
 H241 H 0.58773 0.49867 0.46268
 H242 H 0.48015 0.42282 0.35111
 H243 H 0.56461 0.33378 0.17935
 H244 H 0.66660 0.44607 0.16524
 H245 H 0.51068 0.39747 0.26908
 H246 H 0.53705 0.35824 0.27139
 H247 H 0.61816 0.47187 0.38374
 H248 H 0.63844 0.47102 0.25513
 C249 C 0.14265 0.55933 0.33946
 C250 C 0.11056 0.52421 0.31794
 C251 C 0.07609 0.50994 0.35737
 C252 C 0.07305 0.53027 0.41999
 C253 C 0.10656 0.56364 0.44962
 C254 C 0.14058 0.57876 0.40525
 C255 C 0.17652 0.57723 0.28759
 C256 C 0.19165 0.61503 0.26102
 C257 C 0.21982 0.63016 0.20323
 C258 C 0.23374 0.60792 0.17140
 C259 C 0.21977 0.57068 0.20062
 C260 C 0.19127 0.55542 0.25770
 H261 H 0.05158 0.48332 0.33773
 H262 H 0.23020 0.65905 0.18248
 H263 H 0.22997 0.55284 0.17763
 H264 H 0.16476 0.60649 0.42096
 H265 H 0.18045 0.63229 0.28240
 H266 H 0.11152 0.50879 0.26749
 H267 H 0.18013 0.52623 0.27739
 C268 C 0.43302 0.86242 0.32127
 C269 C 0.47220 0.88972 0.31387
 C270 C 0.48936 0.92269 0.35996
 C271 C 0.46776 0.92929 0.41423
 C272 C 0.42856 0.90237 0.42121
 C273 C 0.41143 0.86911 0.37579
 C274 C 0.41474 0.82776 0.27072
 C275 C 0.37770 0.81326 0.24150
 C276 C 0.36155 0.78221 0.19003
 C277 C 0.38226 0.76526 0.16585
 C278 C 0.41882 0.77901 0.19663
 C279 C 0.43475 0.80969 0.24885
 H280 H 0.51960 0.94316 0.35323
 H281 H 0.41118 0.90711 0.46189
 H282 H 0.33341 0.77240 0.16690
 H283 H 0.43531 0.76626 0.17975
 H284 H 0.38132 0.84859 0.38367
 H285 H 0.36162 0.82671 0.25619
 H286 H 0.48957 0.88601 0.27138
 H287 H 0.46293 0.81944 0.27163
 C288 C 0.43136 0.56500 0.31652
 C289 C 0.45966 0.58693 0.37190
 C290 C 0.47498 0.57003 0.41842
 C291 C 0.46185 0.53074 0.41149
 C292 C 0.43378 0.50886 0.35607
 C293 C 0.41878 0.52578 0.30900
 C294 C 0.41544 0.58285 0.26556
 C295 C 0.37685 0.56203 0.24353
 C296 C 0.36240 0.57760 0.19130
 C297 C 0.38604 0.61460 0.16059
 C298 C 0.42425 0.63608 0.18477
 C299 C 0.43885 0.62030 0.23635
 H300 H 0.49703 0.58761 0.46002
 H301 H 0.42341 0.47856 0.34935
 H302 H 0.33271 0.56051 0.17452
 H303 H 0.44321 0.66460 0.16178
 H304 H 0.39769 0.50818 0.26584
 H305 H 0.35776 0.53351 0.26633
 H306 H 0.46979 0.61709 0.37975
 H307 H 0.46879 0.63701 0.25129
   
