data_POSCAR
  _audit_creation_date              2014-09-24
  _audit_creation_method            'ToBaCCo'
  _symmetry_space_group_name_H-M    'P1'
  _symmetry_Int_Tables_number       1
  _symmetry_cell_setting            triclinic
  loop_
  _symmetry_equiv_pos_as_xyz
 x,y,z
_cell_length_a 36.7913
_cell_length_b 37.9852
_cell_length_c 34.7879
_cell_angle_alpha 88.853000
_cell_angle_beta 90.332200
_cell_angle_gamma 88.114000
loop_
  _atom_site_label
  _atom_site_type_symbol
  _atom_site_fract_x
  _atom_site_fract_y
  _atom_site_fract_z
Si1 Si 0.26409 0.50504 0.99690
 Si2 Si 0.74962 0.50896 0.00694
 Si3 Si -0.01703 0.23850 0.51366
 Si4 Si 1.00083 0.75045 0.48910
 Si5 Si 0.50488 0.00775 0.24595
 Si6 Si 0.47719 0.01015 0.75285
 C7 C 0.28376 0.02402 0.43055
 H8 H 0.27784 0.04788 0.44614
 C9 C 0.30972 0.02398 0.40149
 H10 H 0.32294 0.04827 0.39435
 C11 C 0.27376 -0.03655 0.42156
 H12 H 0.26048 -0.06033 0.43031
 C13 C 0.29994 -0.03789 0.39257
 H14 H 0.30640 -0.06284 0.37930
 N15 N 0.26631 -0.00589 0.43997
 C16 C 0.17715 0.03674 0.50882
 H17 H 0.18106 0.01981 0.53397
 C18 C 0.14975 0.06292 0.50836
 H19 H 0.13252 0.06607 0.53329
 C20 C 0.19445 0.05262 0.44541
 H21 H 0.21164 0.04812 0.42080
 C22 C 0.16682 0.07883 0.44347
 H23 H 0.16322 0.09482 0.41753
 Zn24 Zn 0.23513 -0.00415 0.48307
 N25 N 0.19934 0.03256 0.47802
 C26 C 0.26188 0.03324 0.54698
 N27 N 0.26485 0.00305 0.52667
 C28 C 0.29063 -0.02228 0.53566
 C29 C 0.31452 -0.01794 0.56641
 C30 C 0.28512 0.03861 0.57803
 C31 C 0.18923 -0.05629 0.45862
 C32 C 0.16550 -0.08400 0.46272
 C33 C 0.18312 -0.08983 0.52965
 C34 C 0.20701 -0.06236 0.52411
 N35 N 0.20933 -0.04603 0.48908
 H36 H 0.24197 0.05356 0.53879
 H37 H 0.29285 -0.04573 0.51857
 H38 H 0.33534 -0.03811 0.57252
 H39 H 0.28214 0.06272 0.59396
 H40 H 0.19081 -0.04214 0.43142
 H41 H 0.14897 -0.09123 0.43845
 H42 H 0.18075 -0.10201 0.55790
 H43 H 0.22237 -0.05305 0.54823
 C44 C 0.14443 0.08440 0.47546
 C45 C 0.31870 -0.00742 0.38248
 C46 C 0.16173 -0.10062 0.49878
 C47 C 0.31203 0.01291 0.58802
 C48 C 0.69560 0.02010 0.56524
 H49 H 0.70044 0.04387 0.54866
 C50 C 0.66939 0.02047 0.59402
 H51 H 0.65482 0.04498 0.59984
 C52 C 0.70924 -0.04046 0.57761
 H53 H 0.72425 -0.06434 0.57045
 C54 C 0.68278 -0.04143 0.60629
 H55 H 0.67774 -0.06623 0.62085
 N56 N 0.71512 -0.00994 0.55781
 C57 C 0.80349 0.03660 0.49344
 H58 H 0.80200 0.02192 0.46718
 C59 C 0.82857 0.06316 0.49676
 H60 H 0.84633 0.06896 0.47289
 C61 C 0.78297 0.04614 0.55696
 H62 H 0.76567 0.03893 0.58064
 C63 C 0.80820 0.07243 0.56179
 H64 H 0.80970 0.08579 0.58894
 Zn65 Zn 0.74817 -0.00793 0.51638
 N66 N 0.78076 0.02914 0.52298
 C67 C 0.72082 0.02930 0.44935
 N68 N 0.71968 -0.00086 0.47104
 C69 C 0.69580 -0.02624 0.46276
 C70 C 0.67184 -0.02189 0.43162
 C71 C 0.69742 0.03468 0.41783
 C72 C 0.79629 -0.05951 0.54637
 C73 C 0.82004 -0.08889 0.54638
 C74 C 0.80441 -0.09768 0.47977
 C75 C 0.78047 -0.06836 0.48119
 N76 N 0.77694 -0.04997 0.51420
 H77 H 0.73914 0.04970 0.45696
 H78 H 0.69490 -0.04963 0.48095
 H79 H 0.65239 -0.04204 0.42631
 H80 H 0.69880 0.05886 0.40095
 H81 H 0.79353 -0.04392 0.57195
 H82 H 0.83560 -0.09581 0.57211
 H83 H 0.80731 -0.11190 0.45323
 H84 H 0.76551 -0.05980 0.45568
 C85 C 0.83111 0.08137 0.53129
 C86 C 0.66222 -0.01071 0.61470
 C87 C 0.82457 -0.10816 0.51267
 C88 C 0.67223 0.00903 0.40877
 C89 C 0.49104 0.20804 1.04175
 H90 H 0.46702 0.21079 1.02372
 C91 C 0.49279 0.18251 1.07125
 H92 H 0.46994 0.16567 1.07561
 C93 C 0.55094 0.22498 1.05598
 H94 H 0.57414 0.24051 1.04909
 C95 C 0.55383 0.19985 1.08579
 H96 H 0.57887 0.19728 1.10224
 N97 N 0.51979 0.22880 1.03478
 C98 C 0.47181 0.31255 0.96070
 H99 H 0.49156 0.31124 0.93781
 C100 C 0.44241 0.33653 0.95789
 H101 H 0.43970 0.35377 0.93279
 C102 C 0.45198 0.29214 1.02167
 H103 H 0.45613 0.27505 1.04662
 C104 C 0.42237 0.31627 1.02032
 H105 H 0.40354 0.31734 1.04410
 Zn106 Zn 0.51718 0.25976 0.99118
 N107 N 0.47572 0.29053 0.99184
 C108 C 0.48622 0.23148 0.92363
 N109 N 0.51576 0.23109 0.94737
 C110 C 0.54440 0.20823 0.94212
 C111 C 0.54395 0.18430 0.91220
 C112 C 0.48478 0.20822 0.89312
 C113 C 0.56590 0.30674 1.02161
 C114 C 0.59394 0.33050 1.02150
 C115 C 0.60317 0.31934 0.95411
 C116 C 0.57581 0.29466 0.95595
 N117 N 0.55778 0.28895 0.98937
 H118 H 0.46329 0.24918 0.92877
 H119 H 0.56726 0.20808 0.96184
 H120 H 0.56654 0.16556 0.90943
 H121 H 0.46105 0.20907 0.87454
 H122 H 0.55047 0.30241 1.04756
 H123 H 0.60053 0.34303 1.04817
 H124 H 0.61581 0.32449 0.92668
 H125 H 0.56802 0.28111 0.93029
 C126 C 0.41723 0.33856 0.98789
 C127 C 0.52464 0.17794 1.09356
 C128 C 0.61265 0.33786 0.98721
 C129 C 0.51370 0.18386 0.88734
 C130 C 0.46366 0.80888 -0.04111
 H131 H 0.44255 0.80872 -0.01959
 C132 C 0.46210 0.83397 -0.07104
 H133 H 0.43950 0.85294 -0.07267
 C134 C 0.51938 0.78503 -0.06455
 H135 H 0.54249 0.76699 -0.06117
 C136 C 0.51863 0.80930 -0.09523
 H137 H 0.54090 0.80931 -0.11545
 N138 N 0.49190 0.78492 -0.03849
 C139 C 0.45038 0.70261 0.03706
 H140 H 0.47144 0.70233 0.05892
 C141 C 0.42229 0.67900 0.03984
 H142 H 0.42181 0.66058 0.06398
 C143 C 0.42658 0.72589 -0.02196
 H144 H 0.42886 0.74373 -0.04635
 C145 C 0.39824 0.70220 -0.02066
 H146 H 0.37846 0.70229 -0.04384
 Zn147 Zn 0.49336 0.75367 0.00483
 N148 N 0.45188 0.72565 0.00675
 C149 C 0.46966 0.78202 0.07624
 N150 N 0.49621 0.78178 0.04912
 C151 C 0.52421 0.80419 0.05086
 C152 C 0.52585 0.82862 0.08025
 C153 C 0.47058 0.80566 0.10648
 C154 C 0.53601 0.70275 -0.03095
 C155 C 0.56321 0.67677 -0.03493
 C156 C 0.58318 0.68777 0.02984
 C157 C 0.55641 0.71471 0.03196
 N158 N 0.53345 0.72152 0.00178
 H159 H 0.44705 0.76479 0.07385
 H160 H 0.54468 0.80377 0.02866
 H161 H 0.54793 0.84677 0.08080
 H162 H 0.44880 0.80615 0.12730
 H163 H 0.51676 0.70805 -0.05413
 H164 H 0.56522 0.66352 -0.06208
 H165 H 0.59986 0.68183 0.05498
 H166 H 0.55305 0.72920 0.05821
 C167 C 0.39595 0.67842 0.01060
 C168 C 0.48986 0.83431 -0.09855
 C169 C 0.58691 0.66814 -0.00400
 C170 C 0.49857 0.82976 0.10828
 C171 C 1.06302 0.45638 0.20231
 H172 H 1.04372 0.43550 0.20314
 C173 C 1.09274 0.45426 0.17760
 H174 H 1.09619 0.43167 0.15931
 C175 C 1.08097 0.51207 0.22378
 H176 H 1.07575 0.53506 0.24090
 C177 C 1.11079 0.51121 0.19921
 H178 H 1.12876 0.53322 0.19834
 N179 N 1.05793 0.48478 0.22510
 C180 C 0.98205 0.44207 0.30870
 H181 H 0.96045 0.46207 0.30739
 C182 C 0.97824 0.41213 0.33198
 H183 H 0.95272 0.40904 0.34669
 C184 C 1.04103 0.42255 0.29048
 H185 H 1.06583 0.42710 0.27494
 C186 C 1.03906 0.39297 0.31478
 H187 H 1.06281 0.37556 0.31758
 Zn188 Zn 1.01566 0.48715 0.25584
 N189 N 1.01251 0.44613 0.28741
 C190 C 0.94523 0.47360 0.22371
 N191 N 0.97550 0.49312 0.22161
 C192 C 0.97893 0.51830 0.19371
 C193 C 0.95141 0.52462 0.16644
 C194 C 0.91636 0.48009 0.19806
 C195 C 1.04708 0.52827 0.31178
 C196 C 1.04953 0.55583 0.33742
 C197 C 0.98936 0.57643 0.31761
 C198 C 0.98860 0.54910 0.29135
 N199 N 1.01724 0.52575 0.28897
 H200 H 0.94307 0.45302 0.24523
 H201 H 1.00348 0.53317 0.19228
 H202 H 0.95590 0.54383 0.14376
 H203 H 0.89211 0.46513 0.20184
 H204 H 1.06925 0.50899 0.30965
 H205 H 1.07429 0.55782 0.35402
 H206 H 0.96559 0.59377 0.31993
 H207 H 0.96475 0.54600 0.27359
 C208 C 1.00710 0.38696 0.33570
 C209 C 1.11688 0.48207 0.17569
 C210 C 1.02022 0.58027 0.34113
 C211 C 0.91916 0.50572 0.16848
 C212 C -0.03342 0.47245 0.81107
 H213 H -0.00885 0.45606 0.81314
 C214 C -0.06037 0.46926 0.83885
 H215 H -0.05556 0.45077 0.86252
 C216 C -0.06763 0.51801 0.77887
 H217 H -0.07011 0.53769 0.75617
 C218 C -0.09587 0.51487 0.80527
 H219 H -0.12008 0.53147 0.80121
 N220 N -0.03738 0.49655 0.78185
 C221 C 0.03581 0.45178 0.69692
 H222 H 0.05778 0.46995 0.69852
 C223 C 0.03882 0.42291 0.67294
 H224 H 0.06396 0.41870 0.65750
 C225 C -0.02304 0.43556 0.71611
 H226 H -0.04736 0.44110 0.73253
 C227 C -0.02181 0.40709 0.69120
 H228 H -0.04566 0.39140 0.68864
 Zn229 Zn 0.00225 0.49874 0.74739
 N230 N 0.00547 0.45732 0.71828
 C231 C 0.06987 0.47648 0.78167
 N232 N 0.04481 0.50349 0.77773
 C233 C 0.04839 0.53390 0.79717
 C234 C 0.07865 0.53847 0.82078
 C235 C 0.10045 0.47987 0.80506
 C236 C -0.03440 0.53886 0.68979
 C237 C -0.03972 0.56581 0.66229
 C238 C 0.02001 0.58626 0.67738
 C239 C 0.02365 0.55961 0.70553
 N240 N -0.00354 0.53677 0.71149
 H241 H 0.06590 0.45192 0.76740
 H242 H 0.02759 0.55461 0.79438
 H243 H 0.08084 0.56274 0.83631
 H244 H 0.12019 0.45816 0.80759
 H245 H -0.05502 0.51952 0.69389
 H246 H -0.06525 0.56747 0.64670
 H247 H 0.04272 0.60310 0.67240
 H248 H 0.04873 0.55655 0.72171
 C249 C 0.00942 0.40042 0.66887
 C250 C -0.09247 0.49043 0.83616
 C251 C -0.01217 0.58995 0.65534
 C252 C 0.10514 0.51118 0.82500
 C253 C 0.05028 0.20748 0.53906
 C254 C 0.02375 0.20867 0.50994
 C255 C 0.02701 0.18571 0.47898
 C256 C 0.05682 0.16182 0.47690
 C257 C 0.08313 0.16037 0.50673
 C258 C 0.07975 0.18346 0.53753
 C259 C 0.11204 0.13547 0.50562
 C260 C 0.11532 0.11219 0.47488
 C261 C 0.08977 0.11454 0.44472
 C262 C 0.06059 0.13903 0.44582
 H263 H 0.00622 0.18626 0.45674
 H264 H 0.09968 0.18270 0.56060
 H265 H 0.13193 0.13398 0.52878
 H266 H 0.04078 0.13989 0.42263
 H267 H 0.04804 0.22462 0.56344
 H268 H 0.09181 0.09668 0.42088
 C269 C 0.72603 0.57625 0.03554
 C270 C 0.72005 0.54962 0.00911
 C271 C 0.68960 0.55231 -0.01526
 C272 C 0.66474 0.58087 -0.01271
 C273 C 0.67131 0.60815 0.01315
 C274 C 0.70225 0.60571 0.03698
 C275 C 0.64650 0.63698 0.01528
 C276 C 0.61416 0.63816 -0.00683
 C277 C 0.60765 0.60993 -0.03145
 C278 C 0.63293 0.58205 -0.03490
 H279 H 0.68460 0.53153 -0.03537
 H280 H 0.70754 0.62612 0.05741
 H281 H 0.65258 0.65832 0.03418
 H282 H 0.62714 0.56094 -0.05430
 H283 H 0.74871 0.57440 0.05534
 H284 H 0.58267 0.60877 -0.04781
 C285 C 0.95926 -0.19313 0.45529
 C286 C 0.96112 -0.21815 0.48546
 C287 C 0.93441 -0.21754 0.51405
 C288 C 0.90620 -0.19174 0.51281
 C289 C 0.90445 -0.16660 0.48225
 C290 C 0.93094 -0.16773 0.45344
 C291 C 0.87689 -0.14014 0.48162
 C292 C 0.85153 -0.13797 0.51161
 C293 C 0.85332 -0.16326 0.54166
 C294 C 0.88025 -0.19007 0.54212
 H295 H 0.93598 -0.23646 0.53775
 H296 H 0.93019 -0.14854 0.42996
 H297 H 0.87601 -0.12043 0.45862
 H298 H 0.88118 -0.20911 0.56575
 H299 H 0.98008 -0.19290 0.43341
 H300 H 0.83390 -0.16214 0.56491
 C301 C 0.31885 0.46503 1.03649
 C302 C 0.29784 0.46789 1.00276
 C303 C 0.30384 0.44384 0.97327
 C304 C 0.33069 0.41690 0.97748
 C305 C 0.35154 0.41388 1.01177
 C306 C 0.34528 0.43801 1.04117
 C307 C 0.37892 0.38739 1.01563
 C308 C 0.38630 0.36443 0.98528
 C309 C 0.36528 0.36753 0.95146
 C310 C 0.33755 0.39337 0.94767
 H311 H 0.28836 0.44652 0.94674
 H312 H 0.36115 0.43630 1.06751
 H313 H 0.39536 0.38543 1.04160
 H314 H 0.32185 0.39529 0.92121
 H315 H 0.31479 0.48378 1.05925
 H316 H 0.37047 0.34994 0.92784
 C317 C 0.91738 0.21228 0.48432
 C318 C 0.94300 0.20993 0.51432
 C319 C 0.94028 0.18358 0.54288
 C320 C 0.91231 0.15939 0.54127
 C321 C 0.88716 0.16132 0.51033
 C322 C 0.88965 0.18814 0.48229
 C323 C 0.86042 0.13601 0.50751
 C324 C 0.85812 0.10904 0.53551
 C325 C 0.88241 0.10798 0.56683
 C326 C 0.90947 0.13282 0.56957
 H327 H 0.96042 0.18141 0.56576
 H328 H 0.87057 0.19006 0.45845
 H329 H 0.84147 0.13713 0.48350
 H330 H 0.92840 0.13102 0.59356
 H331 H 0.91927 0.23212 0.46174
 H332 H 0.88107 0.08729 0.58861
 C333 C 0.30983 0.55111 -0.04333
 C334 C 0.29107 0.54522 -0.00898
 C335 C 0.29533 0.56808 0.02174
 C336 C 0.31833 0.59668 0.01824
 C337 C 0.33706 0.60263 -0.01656
 C338 C 0.33236 0.57985 -0.04731
 C339 C 0.36116 0.63045 -0.01952
 C340 C 0.36745 0.65182 0.01220
 C341 C 0.34831 0.64597 0.04645
 C342 C 0.32376 0.61881 0.04937
 H343 H 0.28186 0.56301 0.04878
 H344 H 0.34670 0.58380 -0.07408
 H345 H 0.37623 0.63450 -0.04584
 H346 H 0.30962 0.61464 0.07624
 H347 H 0.30731 0.53323 -0.06699
 H348 H 0.35269 0.66228 0.07113
 C349 C 0.06803 -0.22732 0.45878
 C350 C 0.04209 -0.22261 0.48778
 C351 C 0.04605 -0.19566 0.51429
 C352 C 0.07576 -0.17352 0.51194
 C353 C 0.10138 -0.17792 0.48211
 C354 C 0.09744 -0.20512 0.45592
 C355 C 0.13000 -0.15459 0.47850
 C356 C 0.13360 -0.12714 0.50458
 C357 C 0.10874 -0.12373 0.53488
 C358 C 0.07994 -0.14661 0.53844
 H359 H 0.02567 -0.19155 0.53628
 H360 H 0.11683 -0.20891 0.43292
 H361 H 0.14926 -0.15749 0.45520
 H362 H 0.06064 -0.14294 0.56154
 H363 H 0.06532 -0.24768 0.43777
 H364 H 0.11089 -0.10254 0.55507
 C365 C 0.69024 0.47268 1.03619
 C366 C 0.71725 0.47232 1.00795
 C367 C 0.71846 0.44530 0.98100
 C368 C 0.69301 0.41853 0.98266
 C369 C 0.66523 0.41978 1.01048
 C370 C 0.66409 0.44694 1.03714
 C371 C 0.63896 0.39391 1.01128
 C372 C 0.64074 0.36549 0.98583
 C373 C 0.66931 0.36402 0.95901
 C374 C 0.69482 0.39051 0.95707
 H375 H 0.73890 0.44494 0.95883
 H376 H 0.64312 0.44817 1.05887
 H377 H 0.61688 0.39648 1.03156
 H378 H 0.71622 0.38883 0.93586
 H379 H 0.68895 0.49334 1.05720
 H380 H 0.67232 0.34228 0.93956
 C381 C 0.47252 0.07218 1.21787
 C382 C 0.50456 0.05118 1.22012
 C383 C 0.53534 0.06137 1.19965
 C384 C 0.53357 0.09139 1.17542
 C385 C 0.50084 0.11188 1.17238
 C386 C 0.47073 0.10245 1.19437
 C387 C 0.49840 0.14074 1.14653
 C388 C 0.52811 0.14922 1.12320
 C389 C 0.56077 0.12908 1.12715
 C390 C 0.56351 0.10054 1.15309
 H391 H 0.56003 0.04501 1.20118
 H392 H 0.44544 0.11785 1.19247
 H393 H 0.47322 0.15629 1.14419
 H394 H 0.58877 0.08509 1.15497
 H395 H 0.44840 0.06464 1.23321
 H396 H 0.58394 0.13468 1.10926
 C397 C 0.02032 0.72856 0.56588
 C398 C -0.00157 0.72262 0.53368
 C399 C -0.02354 0.69315 0.53345
 C400 C -0.02209 0.66863 0.56408
 C401 C -0.00004 0.67468 0.59647
 C402 C 0.02054 0.70512 0.59741
 C403 C 0.00196 0.64971 0.62679
 C404 C -0.01638 0.61776 0.62444
 C405 C -0.03793 0.61211 0.59162
 C406 C -0.04123 0.63749 0.56214
 H407 H -0.04038 0.68836 0.50853
 H408 H 0.03780 0.71013 0.62191
 H409 H 0.01816 0.65516 0.65191
 H410 H -0.05786 0.63222 0.53722
 H411 H 0.03771 0.75088 0.56663
 H412 H -0.05167 0.58766 0.58798
 C413 C 0.47641 0.98450 -0.16991
 C414 C 0.48153 0.97540 -0.20847
 C415 C 0.48855 0.93998 -0.21752
 C416 C 0.48946 0.91377 -0.18840
 C417 C 0.48321 0.92322 -0.14982
 C418 C 0.47710 0.95866 -0.14087
 C419 C 0.48311 0.89711 -0.12079
 C420 C 0.48965 0.86158 -0.12958
 C421 C 0.49651 0.85240 -0.16786
 C422 C 0.49621 0.87826 -0.19709
 H423 H 0.49288 0.93282 -0.24719
 H424 H 0.47256 0.96639 -0.11142
 H425 H 0.47841 0.90446 -0.09122
 H426 H 0.50117 0.87049 -0.22645
 H427 H 0.47126 1.01151 -0.16190
 H428 H 0.50161 0.82511 -0.17520
 C429 C 0.95478 0.29998 0.47679
 C430 C 0.97922 0.27116 0.47316
 C431 C 1.00259 0.26966 0.44149
 C432 C 1.00225 0.29739 0.41418
 C433 C 0.97913 0.32731 0.41937
 C434 C 0.95504 0.32809 0.45041
 C435 C 0.98092 0.35628 0.39397
 C436 C 1.00442 0.35549 0.36208
 C437 C 1.02579 0.32457 0.35614
 C438 C 1.02516 0.29612 0.38221
 H439 H 1.02164 0.24762 0.43847
 H440 H 0.93679 0.35064 0.45461
 H441 H 0.96459 0.37968 0.40004
 H442 H 1.04260 0.27312 0.37735
 H443 H 0.93654 0.30149 0.50107
 H444 H 1.04321 0.32210 0.33135
 C445 C 0.50564 0.98079 0.17022
 C446 C 0.50190 0.97239 0.20945
 C447 C 0.49692 0.93719 0.22084
 C448 C 0.49682 0.91051 0.19338
 C449 C 0.50182 0.91926 0.15411
 C450 C 0.50582 0.95448 0.14283
 C451 C 0.50271 0.89271 0.12670
 C452 C 0.49814 0.85739 0.13777
 C453 C 0.49244 0.84891 0.17673
 C454 C 0.49203 0.87522 0.20437
 H455 H 0.49347 0.93057 0.25103
 H456 H 0.50928 0.96169 0.11281
 H457 H 0.50644 0.89955 0.09660
 H458 H 0.48802 0.86798 0.23429
 H459 H 0.50891 1.00761 0.16036
 H460 H 0.48879 0.82182 0.18582
 C461 C -0.03520 0.26283 0.58893
 C462 C -0.01305 0.26660 0.55656
 C463 C 0.01098 0.29441 0.55442
 C464 C 0.01163 0.31946 0.58330
 C465 C -0.01054 0.31569 0.61601
 C466 C -0.03345 0.28687 0.61887
 C467 C -0.01019 0.34132 0.64462
 C468 C 0.01074 0.37164 0.64008
 C469 C 0.03213 0.37501 0.60677
 C470 C 0.03308 0.34896 0.57916
 H471 H 0.02796 0.29752 0.52928
 H472 H -0.05088 0.28361 0.64359
 H473 H -0.02654 0.33766 0.67007
 H474 H 0.04976 0.35248 0.55387
 H475 H -0.05421 0.24178 0.59091
 H476 H 0.04760 0.39825 0.60119
 C477 C 0.44397 0.06644 0.79338
 C478 C 0.47607 0.05366 0.77634
 C479 C 0.50848 0.07145 0.78149
 C480 C 0.50923 0.10102 0.80493
 C481 C 0.47709 0.11299 0.82330
 C482 C 0.44442 0.09599 0.81665
 C483 C 0.47847 0.14080 0.84916
 C484 C 0.51159 0.15687 0.85706
 C485 C 0.54303 0.14560 0.83735
 C486 C 0.54188 0.11793 0.81159
 H487 H 0.53346 0.06139 0.76880
 H488 H 0.41951 0.10483 0.83043
 H489 H 0.45405 0.14879 0.86439
 H490 H 0.56669 0.10928 0.79747
 H491 H 0.41888 0.05267 0.79001
 H492 H 0.56872 0.15796 0.84218
 C493 C 0.98094 0.72397 0.41572
 C494 C 1.00233 0.71878 0.44896
 C495 C 1.02424 0.68807 0.45331
 C496 C 1.02377 0.66197 0.42550
 C497 C 1.00255 0.66740 0.39182
 C498 C 0.98152 0.69871 0.38700
 C499 C 1.00221 0.64118 0.36393
 C500 C 1.02158 0.60884 0.36995
 C501 C 1.04189 0.60371 0.40421
 C502 C 1.04344 0.63016 0.43133
 H503 H 1.04074 0.68392 0.47904
 H504 H 0.96487 0.70326 0.36148
 H505 H 0.98679 0.64613 0.33766
 H506 H 1.05937 0.62540 0.45733
 H507 H 0.96364 0.74731 0.41189
 H508 H 1.05621 0.57896 0.41066
 C509 C 1.21103 0.53814 0.04291
 C510 C 1.23335 0.50787 0.03880
 C511 C 1.22913 0.47875 0.06358
 C512 C 1.20252 0.47981 0.09230
 C513 C 1.18034 0.51059 0.09651
 C514 C 1.18504 0.53973 0.07191
 C515 C 1.15307 0.51137 0.12445
 C516 C 1.14710 0.48156 0.14781
 C517 C 1.16928 0.45110 0.14350
 C518 C 1.19695 0.45030 0.11614
 H519 H 1.24543 0.45485 0.05963
 H520 H 1.16804 0.56340 0.07450
 H521 H 1.13567 0.53478 0.12716
 H522 H 1.21363 0.42646 0.11326
 H523 H 1.21337 0.56045 0.02329
 H524 H 1.16522 0.42792 0.16140
 C525 C 0.51354 0.03134 0.68564
 C526 C 0.51582 0.00931 0.71844
 C527 C 0.54718 -0.01215 0.72484
 C528 C 0.57572 -0.01202 0.69808
 C529 C 0.57257 0.00964 0.66465
 C530 C 0.54144 0.03127 0.65877
 C531 C 0.60063 0.00959 0.63763
 C532 C 0.63253 -0.01127 0.64365
 C533 C 0.63558 -0.03256 0.67720
 C534 C 0.60739 -0.03304 0.70407
 H535 H 0.54961 -0.02855 0.75058
 H536 H 0.53876 0.04833 0.63350
 H537 H 0.59731 0.02558 0.61163
 H538 H 0.61046 -0.04969 0.72962
 H539 H 0.49015 0.04876 0.68055
 H540 H 0.65996 -0.04858 0.68295
 C541 C -0.21906 0.54124 0.94138
 C542 C -0.22136 0.51015 0.96351
 C543 C -0.19858 0.48101 0.95524
 C544 C -0.17386 0.48271 0.92479
 C545 C -0.17079 0.51444 0.90340
 C546 C -0.19377 0.54348 0.91169
 C547 C -0.14436 0.51686 0.87462
 C548 C -0.12157 0.48755 0.86582
 C549 C -0.12632 0.45561 0.88626
 C550 C -0.15176 0.45338 0.91576
 H551 H -0.19958 0.45727 0.97297
 H552 H -0.19190 0.56802 0.89552
 H553 H -0.14111 0.54194 0.85995
 H554 H -0.15420 0.42865 0.93146
 H555 H -0.23592 0.56424 0.94775
 H556 H -0.11041 0.43210 0.87959
 C557 C 0.46710 0.02990 0.31203
 C558 C 0.46598 0.00796 0.28013
 C559 C 0.43538 -0.01248 0.27422
 C560 C 0.40640 -0.01135 0.30046
 C561 C 0.40830 0.01034 0.33291
 C562 C 0.43872 0.03088 0.33837
 C563 C 0.37974 0.01133 0.35938
 C564 C 0.34868 -0.00865 0.35385
 C565 C 0.34690 -0.02999 0.32130
 C566 C 0.37551 -0.03139 0.29492
 H567 H 0.43384 -0.02885 0.24919
 H568 H 0.44047 0.04789 0.36290
 H569 H 0.38206 0.02735 0.38465
 H570 H 0.37342 -0.04805 0.27014
 H571 H 0.48989 0.04650 0.31676
 H572 H 0.32320 -0.04537 0.31598
 C573 C 0.21402 0.46685 0.95463
 C574 C 0.23219 0.49864 0.95634
 C575 C 0.22271 0.52632 0.93055
 C576 C 0.19482 0.52234 0.90338
 C577 C 0.17662 0.49017 0.90188
 C578 C 0.18672 0.46246 0.92733
 C579 C 0.14790 0.48654 0.87576
 C580 C 0.13669 0.51476 0.85125
 C581 C 0.15515 0.54655 0.85272
 C582 C 0.18405 0.55027 0.87845
 H583 H 0.23584 0.55132 0.93258
 H584 H 0.17290 0.43772 0.92676
 H585 H 0.13351 0.46210 0.87537
 H586 H 0.19767 0.57511 0.87917
 H587 H 0.22049 0.44558 0.97498
 H588 H 0.14725 0.56853 0.83385
 C589 C 0.56541 -0.03091 0.27934
 C590 C 0.54755 0.00215 0.27508
 C591 C 0.56056 0.03082 0.29527
 C592 C 0.58963 0.02609 0.32137
 C593 C 0.60660 -0.00759 0.32657
 C594 C 0.59479 -0.03574 0.30477
 C595 C 0.63441 -0.01276 0.35413
 C596 C 0.64518 0.01519 0.37713
 C597 C 0.62862 0.04878 0.37099
 C598 C 0.60125 0.05421 0.34328
 H599 H 0.54742 0.05662 0.29152
 H600 H 0.60764 -0.06171 0.30814
 H601 H 0.64729 -0.03867 0.35804
 H602 H 0.58851 0.08020 0.33972
 H603 H 0.55635 -0.05334 0.26381
 H604 H 0.63595 0.07071 0.38852
 C605 C 0.78451 0.47143 0.06873
 C606 C 0.78228 0.50327 0.04762
 C607 C 0.80737 0.52938 0.05474
 C608 C 0.83396 0.52416 0.08350
 C609 C 0.83674 0.49166 0.10390
 C610 C 0.81177 0.46551 0.09642
 C611 C 0.86468 0.48564 0.13106
 C612 C 0.88913 0.51227 0.13971
 C613 C 0.88479 0.54512 0.12029
 C614 C 0.85798 0.55075 0.09204
 H615 H 0.80653 0.55353 0.03758
 H616 H 0.81343 0.44043 0.11184
 H617 H 0.86752 0.45986 0.14472
 H618 H 0.85582 0.57607 0.07714
 H619 H 0.76597 0.45059 0.06311
 H620 H 0.90192 0.56681 0.12685
 C621 C 0.41912 -0.02788 0.72091
 C622 C 0.43488 0.00507 0.72403
 C623 C 0.42046 0.03386 0.70240
 C624 C 0.39214 0.02934 0.67599
 C625 C 0.37730 -0.00424 0.67196
 C626 C 0.39042 -0.03249 0.69522
 C627 C 0.35034 -0.00922 0.64407
 C628 C 0.33836 0.01882 0.61963
 C629 C 0.35278 0.05229 0.62455
 C630 C 0.37928 0.05754 0.65257
 H631 H 0.43206 0.05955 0.70517
 H632 H 0.37921 -0.05838 0.69273
 H633 H 0.33906 -0.03503 0.64106
 H634 H 0.39042 0.08345 0.65522
 H635 H 0.42942 -0.05042 0.73747
 H636 H 0.34441 0.07427 0.60590
   
