data_POSCAR
  _audit_creation_date              2014-09-24
  _audit_creation_method            'ToBaCCo'
  _symmetry_space_group_name_H-M    'P1'
  _symmetry_Int_Tables_number       1
  _symmetry_cell_setting            triclinic
  loop_
  _symmetry_equiv_pos_as_xyz
 x,y,z
_cell_length_a 43.9050
_cell_length_b 44.7142
_cell_length_c 44.7523
_cell_angle_alpha 90.109800
_cell_angle_beta 90.064200
_cell_angle_gamma 89.913700
loop_
  _atom_site_label
  _atom_site_type_symbol
  _atom_site_fract_x
  _atom_site_fract_y
  _atom_site_fract_z
N1 N 0.31138 0.38940 1.37307
 N2 N 0.31219 0.36733 1.39236
 C3 C 0.28837 0.36995 1.41115
 C4 C 0.27158 0.39514 1.40327
 C5 C 0.28718 0.40690 1.37898
 H6 H 0.28342 0.35433 1.42886
 H7 H 0.28099 0.42614 1.36576
 Cu8 Cu 0.34362 0.33665 1.39004
 Cu9 Cu 0.34028 0.39269 1.34025
 Cu10 Cu 0.39594 0.33783 1.33518
 N11 N 0.37529 0.30627 1.38722
 N12 N 0.39540 0.30658 1.36553
 C13 C 0.41365 0.28246 1.36808
 C14 C 0.40461 0.26602 1.39286
 C15 C 0.38016 0.28208 1.40442
 H16 H 0.43194 0.27733 1.35278
 H17 H 0.36629 0.27629 1.42345
 N18 N 0.39269 0.37135 1.30671
 N19 N 0.37147 0.39218 1.30862
 C20 C 0.37449 0.41115 1.28546
 C21 C 0.39885 0.40191 1.26811
 C22 C 0.40986 0.37662 1.28236
 H23 H 0.35987 0.43016 1.28137
 H24 H 0.42844 0.36255 1.27502
 H25 H 0.34988 0.34743 1.33699
 H26 H 0.37559 0.37033 1.36112
 N27 N 1.18507 0.60738 0.87663
 N28 N 1.18260 0.62817 0.89726
 C29 C 1.20591 0.62538 0.91670
 C30 C 1.22387 0.60143 0.90784
 C31 C 1.20983 0.59057 0.88230
 H32 H 1.20971 0.63989 0.93568
 H33 H 1.21761 0.57243 0.86826
 Cu34 Cu 1.14994 0.65769 0.89629
 Cu35 Cu 1.15722 0.60467 0.84296
 Cu36 Cu 1.10109 0.65878 0.83793
 N37 N 1.11902 0.68866 0.89188
 N38 N 1.10028 0.68925 0.86901
 C39 C 1.08247 0.71371 0.87100
 C40 C 1.09040 0.72954 0.89662
 C41 C 1.11372 0.71269 0.90928
 H42 H 1.06531 0.71956 0.85471
 H43 H 1.12660 0.71782 0.92919
 N44 N 1.10550 0.62611 0.80864
 N45 N 1.12699 0.60555 0.81048
 C46 C 1.12480 0.58711 0.78674
 C47 C 1.10071 0.59643 0.76906
 C48 C 1.08899 0.62120 0.78373
 H49 H 1.13977 0.56837 0.78253
 H50 H 1.07034 0.63516 0.77636
 H51 H 1.14718 0.64998 0.84239
 H52 H 1.12039 0.62518 0.86331
 N53 N 0.68715 -0.10804 0.12501
 N54 N 0.68499 -0.12882 0.10433
 C55 C 0.70839 -0.12587 0.08508
 C56 C 0.72608 -0.10183 0.09411
 C57 C 0.71179 -0.09108 0.11955
 H58 H 0.71240 -0.14030 0.06609
 H59 H 0.71930 -0.07288 0.13365
 Cu60 Cu 0.65254 -0.15850 0.10502
 Cu61 Cu 0.65901 -0.10544 0.15840
 Cu62 Cu 0.60311 -0.15968 0.16276
 N63 N 0.62168 -0.18951 0.10898
 N64 N 0.60273 -0.19010 0.13164
 C65 C 0.58493 -0.21449 0.12939
 C66 C 0.59307 -0.23028 0.10383
 C67 C 0.61653 -0.21349 0.09147
 H68 H 0.56758 -0.22029 0.14546
 H69 H 0.62956 -0.21860 0.07165
 N70 N 0.60709 -0.12704 0.19214
 N71 N 0.62849 -0.10645 0.19057
 C72 C 0.62594 -0.08801 0.21429
 C73 C 0.60171 -0.09739 0.23166
 C74 C 0.59028 -0.12219 0.21684
 H75 H 0.64075 -0.06923 0.21868
 H76 H 0.57161 -0.13617 0.22395
 H77 H 0.64920 -0.15075 0.15888
 H78 H 0.62251 -0.12601 0.13763
 N79 N -0.18914 1.11148 -0.37340
 N80 N -0.18793 1.13323 -0.39306
 C81 C -0.21133 1.13028 -0.41237
 C82 C -0.22806 1.10526 -0.40441
 C83 C -0.21318 1.09391 -0.37957
 H84 H -0.21603 1.14536 -0.43065
 H85 H -0.21990 1.07489 -0.36627
 Cu86 Cu -0.15643 1.16372 -0.39038
 Cu87 Cu -0.16065 1.10841 -0.34010
 Cu88 Cu -0.10482 1.16311 -0.33503
 N89 N -0.12495 1.19421 -0.38769
 N90 N -0.10504 1.19404 -0.36576
 C91 C -0.08674 1.21803 -0.36833
 C92 C -0.09554 1.23430 -0.39335
 C93 C -0.11990 1.21823 -0.40506
 H94 H -0.06859 1.22320 -0.35286
 H95 H -0.13353 1.22386 -0.42435
 N96 N -0.10847 1.12993 -0.30622
 N97 N -0.12979 1.10922 -0.30807
 C98 C -0.12692 1.09043 -0.28473
 C99 C -0.10258 1.09965 -0.26734
 C100 C -0.09142 1.12474 -0.28173
 H101 H -0.14156 1.07148 -0.28062
 H102 H -0.07274 1.13867 -0.27444
 H103 H -0.15081 1.15353 -0.33717
 H104 H -0.12490 1.13017 -0.36065
 N105 N 0.70361 0.62452 0.64149
 N106 N 0.70587 0.64925 0.62587
 C107 C 0.72961 0.64685 0.60700
 C108 C 0.74298 0.61902 0.61097
 C109 C 0.72579 0.60552 0.63311
 H110 H 0.73636 0.66400 0.59137
 H111 H 0.72930 0.58363 0.64273
 Cu112 Cu 0.67760 0.68227 0.63136
 Cu113 Cu 0.67246 0.61901 0.67181
 Cu114 Cu 0.61474 0.67150 0.67329
 N115 N 0.64254 0.70867 0.62884
 N116 N 0.61761 0.70379 0.64430
 C117 C 0.59706 0.72523 0.63793
 C118 C 0.60993 0.74474 0.61757
 C119 C 0.63883 0.73352 0.61232
 H120 H 0.57479 0.72706 0.64807
 H121 H 0.65584 0.74264 0.59745
 N122 N 0.61646 0.63734 0.70098
 N123 N 0.63881 0.61760 0.70072
 C124 C 0.63493 0.59838 0.72349
 C125 C 0.60884 0.60636 0.73891
 C126 C 0.59767 0.63112 0.72390
 H127 H 0.65027 0.58020 0.72874
 H128 H 0.57806 0.64443 0.73000
 H129 H 0.64184 0.64425 0.64714
 H130 H 0.66070 0.66345 0.67957
 N131 N 0.80373 0.38317 0.13326
 N132 N 0.80380 0.36067 0.11433
 C133 C 0.78099 0.36445 0.09454
 C134 C 0.76579 0.39075 0.10143
 C135 C 0.78098 0.40205 0.12612
 H136 H 0.77560 0.34902 0.07669
 H137 H 0.77518 0.42188 0.13874
 Cu138 Cu 0.83293 0.32810 0.11814
 Cu139 Cu 0.83131 0.38504 0.16731
 Cu140 Cu 0.88239 0.32638 0.17552
 N141 N 0.86324 0.29656 0.12183
 N142 N 0.88218 0.29575 0.14456
 C143 C 0.90057 0.27182 0.14173
 C144 C 0.89288 0.25679 0.11570
 C145 C 0.86904 0.27318 0.10368
 H146 H 0.91859 0.26615 0.15720
 H147 H 0.85669 0.26837 0.08334
 N148 N 0.87927 0.35965 0.20425
 N149 N 0.86080 0.38265 0.20043
 C150 C 0.86469 0.40203 0.22320
 C151 C 0.88640 0.39050 0.24241
 C152 C 0.89511 0.36361 0.22973
 H153 H 0.85212 0.42263 0.22608
 H154 H 0.91203 0.34827 0.23831
 H155 H 0.86589 0.35995 0.14828
 H156 H 0.83732 0.33940 0.17130
 N157 N 0.30430 0.11688 0.86667
 N158 N 0.30422 0.13935 0.88563
 C159 C 0.28140 0.13549 0.90534
 C160 C 0.26635 0.10917 0.89836
 C161 C 0.28165 0.09794 0.87371
 H162 H 0.27589 0.15090 0.92317
 H163 H 0.27597 0.07812 0.86103
 Cu164 Cu 0.33312 0.17204 0.88190
 Cu165 Cu 0.33195 0.11512 0.83272
 Cu166 Cu 0.38253 0.17406 0.82464
 N167 N 0.36308 0.20381 0.87827
 N168 N 0.38198 0.20474 0.85555
 C169 C 0.40011 0.22882 0.85839
 C170 C 0.39226 0.24382 0.88438
 C171 C 0.36863 0.22724 0.89640
 H172 H 0.41805 0.23462 0.84294
 H173 H 0.35626 0.23199 0.91673
 N174 N 0.37977 0.14072 0.79594
 N175 N 0.36148 0.11763 0.79972
 C176 C 0.36561 0.09823 0.77701
 C177 C 0.38727 0.10982 0.75789
 C178 C 0.39572 0.13678 0.77056
 H179 H 0.35321 0.07755 0.77411
 H180 H 0.41254 0.15219 0.76203
 H181 H 0.36633 0.14038 0.85179
 H182 H 0.33758 0.16080 0.82874
 N183 N 0.19939 0.87775 0.36155
 N184 N 0.20302 0.85249 0.37608
 C185 C 0.22676 0.85512 0.39493
 C186 C 0.23880 0.88362 0.39208
 C187 C 0.22073 0.89733 0.37066
 H188 H 0.23466 0.83749 0.40951
 H189 H 0.22338 0.91959 0.36167
 Cu190 Cu 0.17704 0.81814 0.36882
 Cu191 Cu 0.16867 0.88259 0.33052
 Cu192 Cu 0.11562 0.82601 0.32437
 N193 N 0.14350 0.78990 0.36965
 N194 N 0.11910 0.79358 0.35302
 C195 C 0.09926 0.77141 0.35870
 C196 C 0.11204 0.75268 0.37988
 C197 C 0.14018 0.76507 0.38627
 H198 H 0.07742 0.76877 0.34784
 H199 H 0.15678 0.75693 0.40218
 N200 N 0.11623 0.86076 0.29754
 N201 N 0.13593 0.88284 0.30037
 C202 C 0.13125 0.90268 0.27821
 C203 C 0.10775 0.89232 0.26039
 C204 C 0.09876 0.86572 0.27333
 H205 H 0.14492 0.92239 0.27436
 H206 H 0.08118 0.85081 0.26534
 H207 H 0.13935 0.85431 0.35280
 H208 H 0.16126 0.83799 0.32063
 Zn209 Zn 0.03636 0.97986 0.00380
 Zn210 Zn 0.00565 1.03509 -0.01758
 Zn211 Zn -0.02513 0.97560 -0.02507
 Zn212 Zn -0.01796 1.00331 0.03567
 O213 O -0.00035 0.99840 -0.00088
 O214 O 0.06772 1.00165 -0.00945
 O215 O -0.01305 1.03861 -0.05270
 O216 O -0.00723 0.94106 -0.03666
 O217 O 0.04491 1.04294 -0.02479
 O218 O 0.03822 0.94524 -0.01571
 O219 O -0.03578 0.99491 -0.05893
 O220 O -0.05394 0.98514 0.03804
 O221 O -0.00829 1.06531 0.00496
 O222 O -0.06018 0.96517 -0.00682
 O223 O -0.02536 1.04155 0.04475
 O224 O 0.00456 0.98880 0.06568
 O225 O 0.04476 0.97094 0.04188
 C226 C 0.06890 1.02756 -0.02092
 C227 C -0.02943 1.02106 -0.06814
 C228 C 0.01928 0.93078 -0.03153
 C229 C -0.06975 0.97023 0.01953
 C230 C -0.02085 1.06561 0.03049
 C231 C 0.03014 0.97556 0.06588
 Zn232 Zn 0.49548 -0.03646 0.48328
 Zn233 Zn 0.51765 -0.00312 0.53639
 Zn234 Zn 0.52454 0.02381 0.47548
 Zn235 Zn 0.46291 0.01822 0.50362
 O236 O 0.50021 0.00067 0.49961
 O237 O 0.50988 -0.06598 0.50644
 O238 O 0.55311 0.01595 0.53886
 O239 O 0.53581 0.00442 0.44188
 O240 O 0.52626 -0.04097 0.54591
 O241 O 0.51456 -0.03994 0.44834
 O242 O 0.55924 0.03532 0.49384
 O243 O 0.46018 0.05248 0.48360
 O244 O 0.49447 0.01137 0.56600
 O245 O 0.50582 0.05769 0.46341
 O246 O 0.45398 0.02761 0.54147
 O247 O 0.43230 -0.00470 0.49031
 O248 O 0.45659 -0.04543 0.47559
 C249 C 0.52244 -0.06541 0.53199
 C250 C 0.56874 0.03085 0.52031
 C251 C 0.53034 -0.02201 0.43281
 C252 C 0.47894 0.06727 0.46797
 C253 C 0.46854 0.02394 0.56570
 C254 C 0.43208 -0.03075 0.47900
 Zn255 Zn 0.96381 0.48185 0.49648
 Zn256 Zn 1.02566 0.47550 0.52435
 Zn257 Zn 1.01856 0.50205 0.46329
 Zn258 Zn 0.99725 0.53609 0.51626
 O259 O 1.00139 0.49880 0.50017
 O260 O 0.96092 0.44765 0.51654
 O261 O 1.06022 0.46352 0.50595
 O262 O 0.99485 0.48800 0.43388
 O263 O 1.00669 0.44186 0.53646
 O264 O 0.95435 0.47253 0.45871
 O265 O 1.05357 0.48220 0.46067
 O266 O 1.01208 0.56517 0.49296
 O267 O 1.03714 0.49484 0.55795
 O268 O 1.02787 0.53966 0.45358
 O269 O 1.01638 0.53945 0.55121
 O270 O 0.95856 0.54585 0.52393
 O271 O 0.93362 0.50530 0.50993
 C272 C 0.97968 0.43261 0.53203
 C273 C 1.06933 0.46740 0.47927
 C274 C 0.96872 0.47591 0.43438
 C275 C 1.02455 0.56422 0.46741
 C276 C 1.03190 0.52137 0.56689
 C277 C 0.93385 0.53150 0.52091
 Zn278 Zn 0.48056 0.49754 0.96453
 Zn279 Zn 0.53575 0.52029 0.99532
 Zn280 Zn 0.47477 0.52540 1.02524
 Zn281 Zn 0.50491 0.46555 1.01745
 O282 O 0.49893 0.50227 1.00073
 O283 O 0.50232 0.51221 0.93420
 O284 O 0.53822 0.55508 1.01456
 O285 O 0.43934 0.53612 1.00760
 O286 O 0.54367 0.52869 0.95699
 O287 O 0.44461 0.51576 0.96282
 O288 O 0.49323 0.55976 1.03634
 O289 O 0.48665 0.46224 1.05277
 O290 O 0.56710 0.49830 1.00844
 O291 O 0.46463 0.50630 1.05935
 O292 O 0.54421 0.45736 1.02434
 O293 O 0.49059 0.43544 0.99503
 O294 O 0.47305 0.45933 0.95543
 C295 C 0.52823 0.52469 0.93334
 C296 C 0.51970 0.56977 1.03068
 C297 C 0.42922 0.53089 0.98147
 C298 C 0.47078 0.48004 1.06847
 C299 C 0.56826 0.47249 1.02013
 C300 C 0.47773 0.43522 0.96961
 C301 C 1.18726 0.42519 0.43910
 C302 C 1.20234 0.44170 0.41695
 C303 C 1.23024 0.43206 0.40550
 C304 C 1.24408 0.40560 0.41595
 C305 C 1.22934 0.38965 0.43896
 C306 C 1.20129 0.39930 0.45030
 C307 C 1.15666 0.43472 0.44972
 C308 C 1.14852 0.43283 0.48007
 C309 C 1.11992 0.44286 0.48978
 C310 C 1.09898 0.45502 0.46933
 C311 C 1.10696 0.45622 0.43895
 C312 C 1.13534 0.44613 0.42928
 H313 H 1.24065 0.44559 0.38835
 H314 H 1.23890 0.36928 0.44794
 H315 H 1.11446 0.44167 0.51334
 H316 H 1.09129 0.46516 0.42251
 H317 H 1.19020 0.38599 0.46729
 H318 H 1.16451 0.42427 0.49640
 H319 H 1.19253 0.46220 0.40839
 H320 H 1.14057 0.44722 0.40567
 C321 C 0.30964 0.57132 0.94397
 C322 C 0.29233 0.55277 0.92512
 C323 C 0.26430 0.56235 0.91393
 C324 C 0.25276 0.59072 0.92137
 C325 C 0.26955 0.60893 0.94104
 C326 C 0.29772 0.59933 0.95221
 C327 C 0.34046 0.56173 0.95390
 C328 C 0.35074 0.56707 0.98322
 C329 C 0.37968 0.55736 0.99230
 C330 C 0.39889 0.54221 0.97219
 C331 C 0.38867 0.53732 0.94280
 C332 C 0.35990 0.54698 0.93379
 H333 H 0.25175 0.54745 0.89937
 H334 H 0.26143 0.63096 0.94715
 H335 H 0.38687 0.56143 1.01510
 H336 H 0.40289 0.52591 0.92662
 H337 H 0.31062 0.61423 0.96651
 H338 H 0.33619 0.57823 0.99928
 H339 H 0.30054 0.53077 0.91890
 H340 H 0.35296 0.54306 0.91089
 C341 C -0.18852 0.92909 0.05813
 C342 C -0.20591 0.94738 0.07718
 C343 C -0.23380 0.93752 0.08837
 C344 C -0.24510 0.90913 0.08075
 C345 C -0.22818 0.89115 0.06097
 C346 C -0.20017 0.90102 0.04980
 C347 C -0.15795 0.93902 0.04796
 C348 C -0.14794 0.93374 0.01856
 C349 C -0.11921 0.94362 0.00923
 C350 C -0.09992 0.95892 0.02914
 C351 C -0.10987 0.96383 0.05860
 C352 C -0.13845 0.95399 0.06787
 H353 H -0.24644 0.95224 0.10305
 H354 H -0.23610 0.86911 0.05472
 H355 H -0.11225 0.93952 -0.01362
 H356 H -0.09556 0.97537 0.07461
 H357 H -0.18721 0.88630 0.03536
 H358 H -0.16254 0.92244 0.00264
 H359 H -0.19792 0.96940 0.08350
 H360 H -0.14518 0.95789 0.09082
 C361 C 0.68697 0.07356 0.55907
 C362 C 0.70493 0.05507 0.57737
 C363 C 0.73271 0.06518 0.58869
 C364 C 0.74331 0.09403 0.58196
 C365 C 0.72581 0.11221 0.56290
 C366 C 0.69792 0.10208 0.55157
 C367 C 0.65648 0.06334 0.54889
 C368 C 0.64615 0.06893 0.51966
 C369 C 0.61753 0.05867 0.51028
 C370 C 0.59868 0.04274 0.53001
 C371 C 0.60894 0.03758 0.55933
 C372 C 0.63742 0.04776 0.56863
 H373 H 0.74580 0.05031 0.60279
 H374 H 0.73316 0.13460 0.55733
 H375 H 0.61031 0.06298 0.48755
 H376 H 0.59500 0.02553 0.57519
 H377 H 0.68449 0.11692 0.53771
 H378 H 0.66042 0.08073 0.50389
 H379 H 0.69745 0.03272 0.58302
 H380 H 0.64444 0.04360 0.59145
 C381 C 0.43901 0.18261 0.42368
 C382 C 0.45089 0.19581 0.39774
 C383 C 0.43997 0.22349 0.38776
 C384 C 0.41669 0.23868 0.40340
 C385 C 0.40543 0.22556 0.42978
 C386 C 0.41648 0.19806 0.43976
 C387 C 0.44950 0.15266 0.43387
 C388 C 0.42852 0.13231 0.44597
 C389 C 0.43814 0.10458 0.45663
 C390 C 0.46899 0.09628 0.45528
 C391 C 0.48997 0.11625 0.44254
 C392 C 0.48032 0.14420 0.43200
 H393 H 0.44952 0.23247 0.36742
 H394 H 0.38804 0.23631 0.44307
 H395 H 0.42130 0.08963 0.46602
 H396 H 0.51391 0.11054 0.44126
 H397 H 0.40737 0.18894 0.46028
 H398 H 0.40451 0.13778 0.44713
 H399 H 0.46815 0.18440 0.38472
 H400 H 0.49711 0.15945 0.42303
 C401 C 0.93925 0.31742 0.57588
 C402 C 0.91683 0.30203 0.55959
 C403 C 0.90564 0.27460 0.56954
 C404 C 0.91666 0.26153 0.59609
 C405 C 0.93981 0.27668 0.61193
 C406 C 0.95086 0.30426 0.60198
 C407 C 0.94984 0.34734 0.56581
 C408 C 0.98067 0.35566 0.56798
 C409 C 0.99044 0.38357 0.55755
 C410 C 0.96958 0.40366 0.54466
 C411 C 0.93872 0.39550 0.54304
 C412 C 0.92898 0.36779 0.55357
 H413 H 0.88833 0.26388 0.55613
 H414 H 0.94916 0.26775 0.63241
 H415 H 1.01438 0.38917 0.55904
 H416 H 0.92197 0.41054 0.53352
 H417 H 0.96799 0.31564 0.61518
 H418 H 0.99736 0.34033 0.57710
 H419 H 0.90791 0.31116 0.53896
 H420 H 0.90497 0.36243 0.55220
 C421 C 0.05675 0.81370 -0.07362
 C422 C 0.04583 0.80090 -0.10021
 C423 C 0.05646 0.77295 -0.10982
 C424 C 0.07846 0.75708 -0.09313
 C425 C 0.08866 0.76977 -0.06605
 C426 C 0.07791 0.79756 -0.05646
 C427 C 0.04691 0.84407 -0.06400
 C428 C 0.06810 0.86379 -0.05116
 C429 C 0.05908 0.89195 -0.04107
 C430 C 0.02862 0.90131 -0.04371
 C431 C 0.00745 0.88196 -0.05722
 C432 C 0.01651 0.85359 -0.06724
 H433 H 0.04772 0.76433 -0.13071
 H434 H 0.10504 0.75849 -0.05198
 H435 H 0.07607 0.90639 -0.03107
 H436 H -0.01619 0.88850 -0.05953
 H437 H 0.08622 0.80643 -0.03545
 H438 H 0.09183 0.85750 -0.04899
 H439 H 0.02964 0.81283 -0.11405
 H440 H -0.00041 0.83886 -0.07690
 C441 C 0.55894 0.68609 1.07324
 C442 C 0.58040 0.70207 1.05639
 C443 C 0.59137 0.72967 1.06628
 C444 C 0.58109 0.74231 1.09333
 C445 C 0.55888 0.72656 1.10976
 C446 C 0.54805 0.69881 1.09988
 C447 C 0.54864 0.65599 1.06325
 C448 C 0.51815 0.64692 1.06654
 C449 C 0.50867 0.61874 1.05641
 C450 C 0.52948 0.59914 1.04270
 C451 C 0.56002 0.60810 1.03987
 C452 C 0.56948 0.63607 1.05009
 H453 H 0.60794 0.74086 1.05242
 H454 H 0.55009 0.73513 1.13064
 H455 H 0.48497 0.61253 1.05885
 H456 H 0.57674 0.59346 1.02969
 H457 H 0.53169 0.68698 1.11353
 H458 H 0.50147 0.66182 1.07636
 H459 H 0.58874 0.69327 1.03538
 H460 H 0.59326 0.64201 1.04783
 C461 C 0.42981 0.43849 1.18434
 C462 C 0.44857 0.41930 1.20110
 C463 C 0.43865 0.40773 1.22838
 C464 C 0.40978 0.41518 1.23969
 C465 C 0.39127 0.43493 1.22326
 C466 C 0.40116 0.44643 1.19589
 C467 C 0.43985 0.44941 1.15456
 C468 C 0.43384 0.47889 1.14528
 C469 C 0.44362 0.48893 1.11725
 C470 C 0.45960 0.46968 1.09794
 C471 C 0.46531 0.44015 1.10718
 C472 C 0.45553 0.43015 1.13507
 H473 H 0.45374 0.39302 1.24061
 H474 H 0.36880 0.44100 1.23111
 H475 H 0.43891 0.51181 1.11083
 H476 H 0.47738 0.42462 1.09284
 H477 H 0.38603 0.46090 1.18338
 H478 H 0.42201 0.49434 1.15988
 H479 H 0.47103 0.41323 1.19315
 H480 H 0.46000 0.40716 1.14124
 C481 C 0.57175 -0.06245 0.31660
 C482 C 0.60025 -0.05433 0.30492
 C483 C 0.60983 -0.06530 0.27717
 C484 C 0.59113 -0.08467 0.26050
 C485 C 0.56239 -0.09228 0.27195
 C486 C 0.55281 -0.08128 0.29962
 C487 C 0.56195 -0.05198 0.34663
 C488 C 0.54657 -0.07152 0.36595
 C489 C 0.53672 -0.06181 0.39396
 C490 C 0.54204 -0.03229 0.40347
 C491 C 0.55783 -0.01279 0.38438
 C492 C 0.56770 -0.02254 0.35624
 H493 H 0.63219 -0.05911 0.26920
 H494 H 0.54715 -0.10669 0.25956
 H495 H 0.52479 -0.07751 0.40813
 H496 H 0.56223 0.01011 0.39100
 H497 H 0.53045 -0.08746 0.30769
 H498 H 0.54231 -0.09449 0.35948
 H499 H 0.61550 -0.04012 0.31759
 H500 H 0.57929 -0.00688 0.34177
 C501 C -0.07146 1.06309 -0.18356
 C502 C -0.10028 1.05549 -0.19493
 C503 C -0.11024 1.06699 -0.22231
 C504 C -0.09164 1.08641 -0.23890
 C505 C -0.06261 1.09355 -0.22776
 C506 C -0.05263 1.08198 -0.20048
 C507 C -0.06127 1.05210 -0.15384
 C508 C -0.04518 1.07117 -0.13450
 C509 C -0.03514 1.06106 -0.10672
 C510 C -0.04099 1.03160 -0.09744
 C511 C -0.05740 1.01254 -0.11658
 C512 C -0.06744 1.02270 -0.14450
 H513 H -0.13283 1.06119 -0.23005
 H514 H -0.04745 1.10799 -0.24013
 H515 H -0.02274 1.07644 -0.09250
 H516 H -0.06223 0.98971 -0.11011
 H517 H -0.03004 1.08778 -0.19266
 H518 H -0.04058 1.09412 -0.14072
 H519 H -0.11547 1.04127 -0.18229
 H520 H -0.07958 1.00738 -0.15900
 C521 C 1.07208 0.56157 0.68363
 C522 C 1.05280 0.58029 0.70038
 C523 C 1.06195 0.59126 0.72821
 C524 C 1.09059 0.58372 0.74005
 C525 C 1.10963 0.56446 0.72361
 C526 C 1.10048 0.55352 0.69570
 C527 C 1.06275 0.55117 0.65342
 C528 C 1.06870 0.52176 0.64382
 C529 C 1.05914 0.51206 0.61555
 C530 C 1.04349 0.53161 0.59631
 C531 C 1.03806 0.56114 0.60579
 C532 C 1.04759 0.57078 0.63394
 H533 H 1.04645 0.60559 0.74041
 H534 H 1.13194 0.55834 0.73189
 H535 H 1.06363 0.48917 0.60894
 H536 H 1.02624 0.57687 0.59151
 H537 H 1.11598 0.53939 0.68321
 H538 H 1.08018 0.50607 0.65841
 H539 H 1.03051 0.58642 0.69199
 H540 H 1.04320 0.59373 0.64040
 C541 C 0.82234 0.58273 0.56726
 C542 C 0.81539 0.61334 0.56500
 C543 C 0.78946 0.62508 0.57887
 C544 C 0.76998 0.60650 0.59542
 C545 C 0.77678 0.57583 0.59735
 C546 C 0.80263 0.56410 0.58343
 C547 C 0.85052 0.57037 0.55369
 C548 C 0.85035 0.54220 0.53968
 C549 C 0.87726 0.52982 0.52846
 C550 C 0.90497 0.54534 0.53103
 C551 C 0.90500 0.57381 0.54444
 C552 C 0.87809 0.58617 0.55563
 H553 H 0.78505 0.64881 0.57696
 H554 H 0.76221 0.56075 0.60964
 H555 H 0.87642 0.50791 0.51814
 H556 H 0.92595 0.58634 0.54683
 H557 H 0.80754 0.54049 0.58589
 H558 H 0.82937 0.52968 0.53748
 H559 H 0.82999 0.62821 0.55244
 H560 H 0.87904 0.60775 0.56662
 C561 C 0.68365 0.42569 1.06188
 C562 C 0.70244 0.44410 1.07943
 C563 C 0.72929 0.43287 1.09193
 C564 C 0.73803 0.40301 1.08704
 C565 C 0.71953 0.38478 1.06896
 C566 C 0.69259 0.39597 1.05661
 C567 C 0.65439 0.43722 1.04990
 C568 C 0.62791 0.41967 1.05128
 C569 C 0.60004 0.43096 1.04125
 C570 C 0.59805 0.46003 1.02950
 C571 C 0.62465 0.47739 1.02761
 C572 C 0.65250 0.46612 1.03778
 H573 H 0.74310 0.44763 1.10549
 H574 H 0.72544 0.36165 1.06482
 H575 H 0.57998 0.41702 1.04304
 H576 H 0.62392 0.49985 1.01862
 H577 H 0.67871 0.38136 1.04291
 H578 H 0.62860 0.39744 1.06082
 H579 H 0.69600 0.46703 1.08410
 H580 H 0.67261 0.48002 1.03612
 C581 C 0.18424 1.07410 -0.06253
 C582 C 0.19316 1.10376 -0.05702
 C583 C 0.22009 1.11499 -0.06924
 C584 C 0.23861 1.09685 -0.08740
 C585 C 0.22990 1.06703 -0.09251
 C586 C 0.20306 1.05577 -0.08015
 C587 C 0.15498 1.06256 -0.05070
 C588 C 0.15308 1.03357 -0.03880
 C589 C 0.12525 1.02236 -0.02868
 C590 C 0.09867 1.03987 -0.03038
 C591 C 0.10067 1.06900 -0.04196
 C592 C 0.12852 1.08023 -0.05195
 H593 H 0.22596 1.13808 -0.06492
 H594 H 0.24373 1.05234 -0.10614
 H595 H 0.12450 0.99985 -0.01983
 H596 H 0.08064 1.08306 -0.04363
 H597 H 0.19664 1.03289 -0.08499
 H598 H 0.17317 1.01957 -0.03726
 H599 H 0.17927 1.11831 -0.04326
 H600 H 0.12922 1.10252 -0.06134
 C601 C 0.31911 -0.08033 0.43429
 C602 C 0.29866 -0.06148 0.41917
 C603 C 0.27242 -0.07310 0.40583
 C604 C 0.26599 -0.10385 0.40732
 C605 C 0.28618 -0.12261 0.42296
 C606 C 0.31245 -0.11098 0.43624
 C607 C 0.34776 -0.06821 0.44712
 C608 C 0.37522 -0.08410 0.44411
 C609 C 0.40247 -0.07217 0.45493
 C610 C 0.40291 -0.04404 0.46901
 C611 C 0.37535 -0.02836 0.47249
 C612 C 0.34808 -0.04032 0.46166
 H613 H 0.25731 -0.05790 0.39425
 H614 H 0.28211 -0.14639 0.42456
 H615 H 0.42329 -0.08480 0.45179
 H616 H 0.37488 -0.00670 0.48334
 H617 H 0.32758 -0.12603 0.44805
 H618 H 0.37580 -0.10545 0.43266
 H619 H 0.30330 -0.03781 0.41701
 H620 H 0.32722 -0.02774 0.46467
 C621 C 0.57042 -0.17488 0.58187
 C622 C 0.60213 -0.17767 0.58482
 C623 C 0.61495 -0.20394 0.59608
 C624 C 0.59628 -0.22774 0.60508
 C625 C 0.56452 -0.22490 0.60227
 C626 C 0.55171 -0.19879 0.59048
 C627 C 0.55703 -0.14699 0.56988
 C628 C 0.53544 -0.14796 0.54672
 C629 C 0.52396 -0.12146 0.53448
 C630 C 0.53350 -0.09355 0.54556
 C631 C 0.55454 -0.09270 0.56925
 C632 C 0.56635 -0.11915 0.58112
 H633 H 0.63948 -0.20539 0.59822
 H634 H 0.54960 -0.24297 0.60886
 H635 H 0.50773 -0.12281 0.51629
 H636 H 0.56237 -0.07156 0.57823
 H637 H 0.52719 -0.19708 0.58849
 H638 H 0.52804 -0.16920 0.53762
 H639 H 0.61701 -0.15959 0.57813
 H640 H 0.58278 -0.11788 0.59915
 C641 C 1.07321 0.67268 0.41660
 C642 C 1.10494 0.67589 0.41448
 C643 C 1.11756 0.70205 0.40286
 C644 C 1.09867 0.72524 0.39264
 C645 C 1.06691 0.72194 0.39458
 C646 C 1.05429 0.69599 0.40674
 C647 C 1.05997 0.64500 0.42902
 C648 C 1.03787 0.64640 0.45163
 C649 C 1.02619 0.62016 0.46408
 C650 C 1.03603 0.59206 0.45373
 C651 C 1.05769 0.59075 0.43065
 C652 C 1.06973 0.61697 0.41860
 H653 H 1.14210 0.70391 0.40144
 H654 H 1.05182 0.73957 0.38706
 H655 H 1.00949 0.62184 0.48179
 H656 H 1.06579 0.56943 0.42229
 H657 H 1.02976 0.69393 0.40807
 H658 H 1.03014 0.66782 0.46009
 H659 H 1.11996 0.65824 0.42213
 H660 H 1.08660 0.61538 0.40103
 C661 C -0.06635 1.17669 0.07984
 C662 C -0.08454 1.19512 0.06174
 C663 C -0.09770 1.22112 0.07335
 C664 C -0.09287 1.22935 0.10332
 C665 C -0.07441 1.21104 0.12134
 C666 C -0.06137 1.18495 0.10974
 C667 C -0.05328 1.14857 0.06771
 C668 C -0.05409 1.12214 0.08460
 C669 C -0.04313 1.09532 0.07268
 C670 C -0.03096 1.09436 0.04364
 C671 C -0.02954 1.12095 0.02699
 C672 C -0.04066 1.14775 0.03888
 H673 H -0.11155 1.23476 0.05873
 H674 H -0.07029 1.21656 0.14453
 H675 H -0.04454 1.07525 0.08611
 H676 H -0.02025 1.12099 0.00459
 H677 H -0.04724 1.17129 0.12415
 H678 H -0.06395 1.12204 0.10677
 H679 H -0.08906 1.18914 0.03870
 H680 H -0.03939 1.16787 0.02551
 C681 C 0.43232 0.32418 0.92026
 C682 C 0.41443 0.30557 0.93838
 C683 C 0.40148 0.27951 0.92675
 C684 C 0.40624 0.27137 0.89676
 C685 C 0.42439 0.28985 0.87872
 C686 C 0.43722 0.31601 0.89032
 C687 C 0.44524 0.35232 0.93243
 C688 C 0.44412 0.37880 0.91562
 C689 C 0.45506 0.40561 0.92754
 C690 C 0.46751 0.40651 0.95649
 C691 C 0.46920 0.37989 0.97307
 C692 C 0.45810 0.35310 0.96119
 H693 H 0.38786 0.26573 0.94139
 H694 H 0.42844 0.28440 0.85550
 H695 H 0.45343 0.42571 0.91417
 H696 H 0.47870 0.37980 0.99540
 H697 H 0.45114 0.32979 0.87591
 H698 H 0.43407 0.37893 0.89352
 H699 H 0.41000 0.31146 0.96145
 H700 H 0.45961 0.33294 0.97450
 C701 C 0.57436 0.56851 0.82055
 C702 C 0.55547 0.58608 0.80226
 C703 C 0.56658 0.59817 0.77564
 C704 C 0.59676 0.59278 0.76665
 C705 C 0.61548 0.57481 0.78475
 C706 C 0.60443 0.56291 0.81146
 C707 C 0.56286 0.55651 0.84926
 C708 C 0.58096 0.55779 0.87514
 C709 C 0.56982 0.54726 0.90240
 C710 C 0.54040 0.53507 0.90432
 C711 C 0.52246 0.53345 0.87832
 C712 C 0.53354 0.54414 0.85111
 H713 H 0.55147 0.61170 0.76214
 H714 H 0.63888 0.57033 0.77865
 H715 H 0.58421 0.54888 0.92201
 H716 H 0.49970 0.52417 0.87901
 H717 H 0.61939 0.54920 0.82498
 H718 H 0.60352 0.56751 0.87443
 H719 H 0.53226 0.59097 0.80884
 H720 H 0.51923 0.54258 0.83144
 C721 C 0.42016 0.07142 0.67596
 C722 C 0.41952 0.10257 0.67983
 C723 C 0.40907 0.11503 0.70658
 C724 C 0.39856 0.09657 0.72972
 C725 C 0.39891 0.06540 0.72571
 C726 C 0.40992 0.05291 0.69916
 C727 C 0.43171 0.05835 0.64779
 C728 C 0.45409 0.03591 0.64832
 C729 C 0.46601 0.02457 0.62164
 C730 C 0.45530 0.03508 0.59397
 C731 C 0.43237 0.05704 0.59352
 C732 C 0.42088 0.06875 0.62018
 H733 H 0.40883 0.13913 0.70897
 H734 H 0.39110 0.05065 0.74326
 H735 H 0.48361 0.00760 0.62265
 H736 H 0.42374 0.06564 0.57254
 H737 H 0.41014 0.02883 0.69657
 H738 H 0.46286 0.02767 0.66940
 H739 H 0.42748 0.11725 0.66228
 H740 H 0.40347 0.08591 0.61928
 C741 C 0.07609 0.92995 0.17776
 C742 C 0.08740 0.94862 0.20045
 C743 C 0.09785 0.93640 0.22732
 C744 C 0.09654 0.90539 0.23215
 C745 C 0.08485 0.88682 0.20955
 C746 C 0.07498 0.89897 0.18251
 C747 C 0.06533 0.94263 0.14916
 C748 C 0.07568 0.93073 0.12195
 C749 C 0.06476 0.94195 0.09486
 C750 C 0.04287 0.96490 0.09452
 C751 C 0.03268 0.97693 0.12178
 C752 C 0.04405 0.96608 0.14887
 H753 H 0.10665 0.95121 0.24444
 H754 H 0.08386 0.86282 0.21253
 H755 H 0.07295 0.93219 0.07420
 H756 H 0.01590 0.99471 0.12215
 H757 H 0.06617 0.88419 0.16536
 H758 H 0.09224 0.91275 0.12168
 H759 H 0.08853 0.97259 0.19718
 H760 H 0.03568 0.97547 0.16962
 C761 C 0.91910 0.42889 0.32443
 C762 C 0.90880 0.44740 0.30121
 C763 C 0.89779 0.43492 0.27465
 C764 C 0.89753 0.40375 0.27064
 C765 C 0.90804 0.38528 0.29382
 C766 C 0.91846 0.39774 0.32059
 C767 C 0.93083 0.44195 0.35253
 C768 C 0.92014 0.43168 0.38021
 C769 C 0.93193 0.44329 0.40680
 C770 C 0.95505 0.46499 0.40621
 C771 C 0.96557 0.47541 0.37847
 C772 C 0.95336 0.46419 0.35186
 H773 H 0.88998 0.44967 0.25706
 H774 H 0.90785 0.36119 0.29143
 H775 H 0.92344 0.43478 0.42784
 H776 H 0.98330 0.49219 0.37734
 H777 H 0.92647 0.38306 0.33816
 H778 H 0.90263 0.41467 0.38121
 H779 H 0.90901 0.47149 0.30378
 H780 H 0.96202 0.47232 0.33073
   
