data_POSCAR
  _audit_creation_date              2014-09-24
  _audit_creation_method            'ToBaCCo'
  _symmetry_space_group_name_H-M    'P1'
  _symmetry_Int_Tables_number       1
  _symmetry_cell_setting            triclinic
  loop_
  _symmetry_equiv_pos_as_xyz
 x,y,z
_cell_length_a 31.1874
_cell_length_b 28.0973
_cell_length_c 16.8339
_cell_angle_alpha 89.999600
_cell_angle_beta 89.791300
_cell_angle_gamma 89.914000
loop_
  _atom_site_label
  _atom_site_type_symbol
  _atom_site_fract_x
  _atom_site_fract_y
  _atom_site_fract_z
C1 C 0.65121 0.31493 0.49978
 C2 C 0.67245 0.30678 0.57131
 C3 C 0.71169 0.28230 0.57058
 C4 C 0.72939 0.26421 0.49864
 C5 C 0.70744 0.27486 0.42699
 C6 C 0.66949 0.30145 0.42762
 C7 C 0.77078 0.23593 0.49845
 C8 C 0.79272 0.22471 0.42658
 C9 C 0.83068 0.19785 0.42707
 C10 C 0.84886 0.18503 0.49960
 C11 C 0.82755 0.19390 0.57091
 C12 C 0.78844 0.21834 0.57037
 H13 H 0.62140 0.33490 0.49971
 H14 H 0.72824 0.27873 0.62630
 H15 H 0.71918 0.26355 0.36986
 H16 H 0.78091 0.23589 0.36960
 H17 H 0.87862 0.16498 0.50037
 H18 H 0.77205 0.22218 0.62643
 C19 C 0.15104 0.81491 0.50372
 C20 C 0.17171 0.80565 0.57543
 C21 C 0.21078 0.78092 0.57491
 C22 C 0.22925 0.76409 0.50283
 C23 C 0.20810 0.77636 0.43090
 C24 C 0.16995 0.80268 0.43153
 C25 C 0.27065 0.73564 0.50291
 C26 C 0.29200 0.72344 0.43098
 C27 C 0.33014 0.69716 0.43148
 C28 C 0.34890 0.68491 0.50354
 C29 C 0.32806 0.69411 0.57538
 C30 C 0.28893 0.71880 0.57500
 H31 H 0.12122 0.83486 0.50373
 H32 H 0.22654 0.77630 0.63112
 H33 H 0.22062 0.76668 0.37354
 H34 H 0.27963 0.73313 0.37369
 H35 H 0.37874 0.66500 0.50330
 H36 H 0.27302 0.72339 0.63130
 C37 C 0.34823 0.31391 -0.49987
 C38 C 0.32992 0.30087 -0.57193
 C39 C 0.29184 0.27453 -0.57220
 C40 C 0.26993 0.26371 -0.50017
 C41 C 0.28779 0.28132 -0.42843
 C42 C 0.32700 0.30548 -0.42834
 C43 C 0.22840 0.23583 -0.49970
 C44 C 0.21069 0.21796 -0.42767
 C45 C 0.17141 0.19367 -0.42683
 C46 C 0.15011 0.18560 -0.49832
 C47 C 0.16838 0.19893 -0.57053
 C48 C 0.20638 0.22529 -0.57127
 H49 H 0.37802 0.33379 -0.49979
 H50 H 0.28001 0.26355 -0.62926
 H51 H 0.27147 0.27771 -0.37226
 H52 H 0.22728 0.22152 -0.37200
 H53 H 0.12029 0.16575 -0.49831
 H54 H 0.21812 0.23648 -0.62843
 C55 C -0.15033 0.81478 -0.50107
 C56 C -0.17140 0.80660 -0.57275
 C57 C -0.21059 0.78220 -0.57238
 C58 C -0.22849 0.76430 -0.50064
 C59 C -0.20675 0.77498 -0.42872
 C60 C -0.16876 0.80144 -0.42900
 C61 C -0.26997 0.73634 -0.50100
 C62 C -0.29211 0.72550 -0.42932
 C63 C -0.33012 0.69913 -0.43007
 C64 C -0.34823 0.68607 -0.50229
 C65 C -0.32682 0.69451 -0.57362
 C66 C -0.28759 0.71872 -0.57304
 H67 H -0.12054 0.83470 -0.50084
 H68 H -0.22698 0.77857 -0.62824
 H69 H -0.21867 0.76379 -0.37167
 H70 H -0.28047 0.73648 -0.37213
 H71 H -0.37801 0.66617 -0.50261
 H72 H -0.27110 0.72234 -0.62904
 N73 N -0.04517 0.94989 0.14010
 N74 N -0.07169 0.94036 0.19892
 N75 N 0.04491 0.91485 0.08783
 N76 N 0.06980 0.87949 0.11186
 N77 N 0.04518 0.94968 0.13997
 N78 N 0.07073 0.93927 0.19963
 N79 N -0.04483 0.91499 0.08811
 N80 N -0.07071 0.88035 0.11145
 C81 C -0.08791 0.89742 0.17979
 C82 C 0.08645 0.89593 0.18077
 N83 N 0.04534 0.94861 -0.13763
 N84 N 0.07180 0.93863 -0.19632
 N85 N -0.04457 0.91380 -0.08462
 N86 N -0.06916 0.87810 -0.10809
 N87 N -0.04500 0.94820 -0.13750
 N88 N -0.07040 0.93725 -0.19701
 N89 N 0.04514 0.91413 -0.08490
 N90 N 0.07100 0.87924 -0.10769
 Mn91 Mn 0.00016 0.91400 0.00164
 C92 C 0.08810 0.89582 -0.17645
 C93 C -0.08584 0.89398 -0.17741
 N94 N 0.04502 1.05192 0.13832
 N95 N 0.07041 1.06290 0.19780
 N96 N -0.04505 1.08630 0.08595
 N97 N -0.06987 1.12192 0.10958
 N98 N -0.04532 1.05193 0.13892
 N99 N -0.07087 1.06283 0.19863
 N100 N 0.04455 1.08634 0.08542
 N101 N 0.06910 1.12206 0.10885
 Mn102 Mn -0.00006 1.00084 0.13953
 C103 C 0.08579 1.10618 0.17813
 C104 C -0.08655 1.10602 0.17907
 N105 N -0.04530 1.05016 -0.13866
 N106 N -0.07180 1.05962 -0.19723
 N107 N 0.04474 1.08526 -0.08730
 N108 N 0.07060 1.11992 -0.11070
 N109 N 0.04505 1.05038 -0.13927
 N110 N 0.07154 1.05993 -0.19816
 N111 N -0.04512 1.08509 -0.08677
 N112 N -0.07109 1.11970 -0.10989
 Mn113 Mn 0.00001 0.99935 -0.13846
 Mn114 Mn -0.00022 1.08620 -0.00074
 Cl115 Cl -0.00003 1.00010 0.00055
 C116 C -0.08817 1.10256 -0.17803
 C117 C 0.08777 1.10288 -0.17911
 N118 N 0.45555 0.41473 -0.08843
 N119 N 0.42949 0.38019 -0.11110
 N120 N 0.54562 0.44986 -0.14096
 N121 N 0.57215 0.44039 -0.19986
 N122 N 0.54541 0.41493 -0.08907
 N123 N 0.57143 0.38033 -0.11253
 N124 N 0.45527 0.44955 -0.14050
 N125 N 0.42862 0.44009 -0.19880
 C126 C 0.41227 0.39725 -0.17920
 C127 C 0.58856 0.39745 -0.18088
 N128 N 0.54459 0.58618 -0.08661
 N129 N 0.56933 0.62183 -0.10995
 N130 N 0.45479 0.55133 -0.13902
 N131 N 0.42838 0.56129 -0.19748
 N132 N 0.45488 0.58579 -0.08625
 N133 N 0.42896 0.62063 -0.10880
 N134 N 0.54513 0.55183 -0.13959
 N135 N 0.57075 0.56278 -0.19911
 Mn136 Mn 0.50022 0.50063 -0.14023
 C137 C 0.58619 0.60598 -0.17932
 C138 C 0.41197 0.60407 -0.17745
 N139 N 0.54512 0.41378 0.08366
 N140 N 0.56993 0.37817 0.10699
 N141 N 0.45497 0.44793 0.13714
 N142 N 0.42936 0.43697 0.19669
 N143 N 0.45552 0.41355 0.08417
 N144 N 0.43079 0.37790 0.10758
 N145 N 0.54531 0.44813 0.13666
 N146 N 0.57078 0.43724 0.19611
 Mn147 Mn 0.50041 0.41380 -0.00249
 C148 C 0.58649 0.39407 0.17632
 C149 C 0.41392 0.39375 0.17698
 N150 N 0.45498 0.58498 0.08648
 N151 N 0.43004 0.62031 0.11072
 N152 N 0.54505 0.55019 0.13802
 N153 N 0.57165 0.55973 0.19640
 N154 N 0.54472 0.58505 0.08597
 N155 N 0.57072 0.61965 0.10876
 N156 N 0.45471 0.55017 0.13864
 N157 N 0.42910 0.56055 0.19855
 Mn158 Mn 0.49979 0.58595 -0.00007
 Mn159 Mn 0.50000 0.49912 0.13783
 Cl160 Cl 0.50010 0.49987 -0.00119
 C161 C 0.41336 0.60384 0.17979
 C162 C 0.58795 0.60263 0.17690
 C163 C 0.40424 0.36432 0.32219
 C164 C 0.35780 0.37442 0.34852
 C165 C 0.34976 0.32039 0.35332
 C166 C 0.39613 0.31025 0.32683
 C167 C 0.33451 0.31996 0.26630
 C168 C 0.34295 0.37435 0.26125
 C169 C 0.38933 0.36426 0.23515
 C170 C 0.38145 0.31024 0.23880
 H171 H 0.43308 0.38273 0.34540
 H172 H 0.34808 0.40102 0.39396
 H173 H 0.41793 0.28374 0.35435
 H174 H 0.30566 0.30149 0.24341
 H175 H 0.32124 0.40095 0.23377
 H176 H 0.39137 0.28413 0.19278
 C177 C -0.09713 0.86697 0.32415
 C178 C -0.14248 0.87990 0.35376
 C179 C -0.15342 0.82652 0.35675
 C180 C -0.10817 0.81352 0.32705
 C181 C -0.17013 0.82833 0.27069
 C182 C -0.15871 0.88212 0.26730
 C183 C -0.11344 0.86918 0.23808
 C184 C -0.12431 0.81582 0.24008
 H185 H -0.06687 0.88296 0.34618
 H186 H -0.14994 0.90639 0.40080
 H187 H -0.08740 0.78519 0.35217
 H188 H -0.20030 0.81239 0.24834
 H189 H -0.17930 0.91056 0.24201
 H190 H -0.11662 0.78979 0.19251
 C191 C 0.62518 0.68410 0.23563
 C192 C 0.60914 0.68700 0.32279
 C193 C 0.65429 0.67371 0.35204
 C194 C 0.67089 0.67125 0.26577
 C195 C 0.64282 0.62045 0.34989
 C196 C 0.59758 0.63369 0.32081
 C197 C 0.61380 0.63085 0.23453
 C198 C 0.65899 0.61757 0.26326
 H199 H 0.61771 0.71001 0.18786
 H200 H 0.58868 0.71570 0.34788
 H201 H 0.70127 0.68686 0.24330
 H202 H 0.65009 0.59417 0.39725
 H203 H 0.56720 0.61816 0.34357
 H204 H 0.67932 0.58878 0.23812
 C205 C 0.11749 1.18976 0.24040
 C206 C 0.10244 1.18945 0.32842
 C207 C 0.14875 1.17951 0.35482
 C208 C 0.16435 1.18025 0.26782
 C209 C 0.14102 1.12545 0.34969
 C210 C 0.09464 1.13534 0.32342
 C211 C 0.10992 1.13571 0.23640
 C212 C 0.15623 1.12583 0.26244
 H213 H 0.10762 1.21590 0.19452
 H214 H 0.08042 1.21575 0.35615
 H215 H 0.19320 1.19894 0.24502
 H216 H 0.15069 1.09882 0.39498
 H217 H 0.06579 1.11669 0.34647
 H218 H 0.17818 1.09944 0.23477
 C219 C 0.65950 0.38231 -0.26852
 C220 C 0.67117 0.32853 -0.27197
 C221 C 0.65447 0.32669 -0.35804
 C222 C 0.64328 0.38006 -0.35499
 C223 C 0.60928 0.31361 -0.32829
 C224 C 0.62540 0.31594 -0.24133
 C225 C 0.61427 0.36928 -0.23927
 C226 C 0.59798 0.36704 -0.32535
 H227 H 0.67997 0.41078 -0.24325
 H228 H 0.70142 0.31265 -0.24968
 H229 H 0.65062 0.40659 -0.40200
 H230 H 0.58861 0.28524 -0.35340
 H231 H 0.61784 0.28986 -0.19380
 H232 H 0.56766 0.38296 -0.34740
 C233 C 0.09745 0.86578 -0.32080
 C234 C 0.14291 0.87848 -0.34979
 C235 C 0.15358 0.82501 -0.35371
 C236 C 0.10821 0.81225 -0.32460
 C237 C 0.17011 0.82609 -0.26749
 C238 C 0.15897 0.87996 -0.26320
 C239 C 0.11357 0.86729 -0.23454
 C240 C 0.12415 0.81384 -0.23743
 H241 H 0.06733 0.88219 -0.34284
 H242 H 0.15060 0.90524 -0.39625
 H243 H 0.08735 0.78430 -0.35043
 H244 H 0.20015 0.80972 -0.24518
 H245 H 0.17966 0.90802 -0.23725
 H246 H 0.11622 0.78757 -0.19039
 C247 C 0.40245 0.63417 -0.32172
 C248 C 0.35702 0.62133 -0.35012
 C249 C 0.34618 0.67477 -0.35387
 C250 C 0.39151 0.68767 -0.32532
 C251 C 0.32966 0.67358 -0.26741
 C252 C 0.34098 0.61974 -0.26331
 C253 C 0.38636 0.63255 -0.23523
 C254 C 0.37559 0.68598 -0.23793
 H255 H 0.43261 0.61790 -0.34422
 H256 H 0.34941 0.59455 -0.39649
 H257 H 0.41230 0.71571 -0.35136
 H258 H 0.29956 0.68984 -0.24472
 H259 H 0.32037 0.59159 -0.23714
 H260 H 0.38343 0.71227 -0.19099
 C261 C -0.09722 1.13305 -0.32228
 C262 C -0.14240 1.11998 -0.35164
 C263 C -0.15368 1.17330 -0.35456
 C264 C -0.10859 1.18643 -0.32506
 C265 C -0.17056 1.17137 -0.26843
 C266 C -0.15885 1.11763 -0.26514
 C267 C -0.11372 1.13074 -0.23613
 C268 C -0.12490 1.18405 -0.23803
 H269 H -0.06682 1.11720 -0.34451
 H270 H -0.14962 1.09356 -0.39877
 H271 H -0.08799 1.21487 -0.35036
 H272 H -0.20094 1.18728 -0.24642
 H273 H -0.17933 1.08910 -0.23981
 H274 H -0.11749 1.21011 -0.19048
 C275 C 0.59568 0.63542 -0.32445
 C276 C 0.60363 0.68952 -0.32903
 C277 C 0.65001 0.67952 -0.35553
 C278 C 0.64215 0.62547 -0.35081
 C279 C 0.66529 0.67998 -0.26854
 C280 C 0.61834 0.68955 -0.24103
 C281 C 0.61063 0.63551 -0.23745
 C282 C 0.65702 0.62557 -0.26358
 H283 H 0.56688 0.61690 -0.34762
 H284 H 0.58177 0.71596 -0.35655
 H285 H 0.65193 0.59894 -0.39632
 H286 H 0.69410 0.69854 -0.24564
 H287 H 0.60836 0.71559 -0.19495
 H288 H 0.67880 0.59903 -0.23611
 C289 C 0.15865 1.11806 -0.26679
 C290 C 0.14238 1.12041 -0.35323
 C291 C 0.15348 1.17377 -0.35616
 C292 C 0.17023 1.17182 -0.27013
 C293 C 0.10829 1.18689 -0.32630
 C294 C 0.09708 1.13347 -0.32349
 C295 C 0.11341 1.13112 -0.23744
 C296 C 0.12445 1.18445 -0.23937
 H297 H 0.17917 1.08953 -0.24164
 H298 H 0.14973 1.09391 -0.40031
 H299 H 0.20047 1.18764 -0.24785
 H300 H 0.08757 1.21531 -0.35130
 H301 H 0.06677 1.11762 -0.34554
 H302 H 0.11687 1.21049 -0.19176
 C303 C 0.34127 0.38236 -0.26543
 C304 C 0.35744 0.37952 -0.35207
 C305 C 0.34599 0.32626 -0.35421
 C306 C 0.32938 0.32869 -0.26794
 C307 C 0.39113 0.31295 -0.32503
 C308 C 0.40268 0.36626 -0.32303
 C309 C 0.38645 0.36906 -0.23676
 C310 C 0.37509 0.31582 -0.23787
 H311 H 0.32096 0.41115 -0.24022
 H312 H 0.35015 0.40579 -0.39943
 H313 H 0.29902 0.31308 -0.24544
 H314 H 0.41157 0.28426 -0.35019
 H315 H 0.43305 0.38181 -0.34577
 H316 H 0.38258 0.28992 -0.19009
 C317 C -0.15646 0.87448 -0.26164
 C318 C -0.14133 0.87487 -0.34893
 C319 C -0.14917 0.82082 -0.35415
 C320 C -0.16471 0.82008 -0.26710
 C321 C -0.10286 0.81078 -0.32784
 C322 C -0.09494 0.86486 -0.32278
 C323 C -0.11013 0.86450 -0.23570
 C324 C -0.11783 0.81046 -0.23978
 H325 H -0.17835 0.90092 -0.23390
 H326 H -0.15098 0.90156 -0.39414
 H327 H -0.19358 0.80144 -0.24428
 H328 H -0.08089 0.78444 -0.35563
 H329 H -0.06608 0.88345 -0.34592
 H330 H -0.10798 0.78425 -0.19399
 C331 C 0.40430 0.63331 0.32528
 C332 C 0.39584 0.68736 0.32946
 C333 C 0.34970 0.67708 0.35692
 C334 C 0.35806 0.62308 0.35265
 C335 C 0.33395 0.67708 0.27021
 C336 C 0.38065 0.68695 0.24177
 C337 C 0.38888 0.63298 0.23858
 C338 C 0.34273 0.62272 0.26564
 H339 H 0.43341 0.61512 0.34804
 H340 H 0.41760 0.71410 0.35628
 H341 H 0.34876 0.59667 0.39864
 H342 H 0.30486 0.69529 0.24759
 H343 H 0.39014 0.71292 0.19526
 H344 H 0.32107 0.59589 0.23884
 C345 C -0.15759 1.12578 0.26319
 C346 C -0.14291 1.12494 0.35058
 C347 C -0.15052 1.17906 0.35625
 C348 C -0.16565 1.18026 0.26914
 C349 C -0.10403 1.18883 0.33022
 C350 C -0.09634 1.13467 0.32467
 C351 C -0.11109 1.13546 0.23754
 C352 C -0.11858 1.18955 0.24210
 H353 H -0.17944 1.09964 0.23509
 H354 H -0.15288 1.09810 0.39540
 H355 H -0.19428 1.19912 0.24594
 H356 H -0.08203 1.21486 0.35826
 H357 H -0.06767 1.11576 0.34773
 H358 H -0.10838 1.21582 0.19659
 C359 C 0.65713 0.37442 0.26036
 C360 C 0.64204 0.37491 0.34766
 C361 C 0.64983 0.32084 0.35292
 C362 C 0.66533 0.31999 0.26586
 C363 C 0.60351 0.31096 0.32675
 C364 C 0.59563 0.36508 0.32164
 C365 C 0.61080 0.36459 0.23455
 C366 C 0.61844 0.31053 0.23867
 H367 H 0.67901 0.40075 0.23251
 H368 H 0.65173 0.40158 0.39284
 H369 H 0.69418 0.30121 0.24301
 H370 H 0.58155 0.28473 0.35464
 H371 H 0.56680 0.38380 0.34478
 H372 H 0.60855 0.28436 0.19291
 C373 C 0.09569 0.86643 0.32622
 C374 C 0.10425 0.81239 0.33028
 C375 C 0.15041 0.82275 0.35707
 C376 C 0.14193 0.87674 0.35290
 C377 C 0.16609 0.82279 0.27011
 C378 C 0.11939 0.81285 0.24235
 C379 C 0.11105 0.86681 0.23927
 C380 C 0.15721 0.87714 0.26565
 H381 H 0.06657 0.88455 0.34946
 H382 H 0.08254 0.78562 0.35739
 H383 H 0.15120 0.90319 0.39873
 H384 H 0.19521 0.80464 0.24708
 H385 H 0.10993 0.78684 0.19601
 H386 H 0.17882 0.90402 0.23855
   
