data_POSCAR
  _audit_creation_date              2014-09-24
  _audit_creation_method            'ToBaCCo'
  _symmetry_space_group_name_H-M    'P1'
  _symmetry_Int_Tables_number       1
  _symmetry_cell_setting            triclinic
  loop_
  _symmetry_equiv_pos_as_xyz
 x,y,z
_cell_length_a 42.4947
_cell_length_b 42.5016
_cell_length_c 42.6099
_cell_angle_alpha 90.036400
_cell_angle_beta 90.051300
_cell_angle_gamma 89.942300
loop_
  _atom_site_label
  _atom_site_type_symbol
  _atom_site_fract_x
  _atom_site_fract_y
  _atom_site_fract_z
C1 C 0.33437 0.38064 1.36048
 C2 C 0.35691 0.38216 1.33651
 C3 C 0.38070 0.35988 1.33501
 C4 C 0.38224 0.33581 1.35745
 C5 C 0.35996 0.33431 1.38115
 C6 C 0.33589 0.35685 1.38268
 C7 C 0.30798 0.39831 1.36694
 N8 N 0.29373 0.38574 1.39243
 C9 C 0.31038 0.36042 1.40230
 C10 C 0.36646 0.30793 1.39875
 N11 N 0.39205 0.29366 1.38623
 C12 C 0.40195 0.31030 1.36101
 C13 C 0.39835 0.36638 1.30873
 N14 N 0.38579 0.39197 1.29450
 C15 C 0.36048 0.40186 1.31110
 H16 H 0.29946 0.41840 1.35379
 H17 H 0.30409 0.34543 1.42187
 H18 H 0.35326 0.29943 1.41876
 H19 H 0.42160 0.30399 1.34609
 H20 H 0.41844 0.35321 1.30023
 H21 H 0.34552 0.42151 1.30481
 C22 C 1.16614 0.61981 0.86030
 C23 C 1.14362 0.61828 0.83626
 C24 C 1.11983 0.64055 0.83474
 C25 C 1.11826 0.66462 0.85722
 C26 C 1.14052 0.66612 0.88097
 C27 C 1.16460 0.64359 0.88252
 C28 C 1.19251 0.60212 0.86682
 N29 N 1.20674 0.61468 0.89237
 C30 C 1.19008 0.64000 0.90223
 C31 C 1.13398 0.69248 0.89862
 N32 N 1.10838 0.70673 0.88606
 C33 C 1.09852 0.69010 0.86078
 C34 C 1.10218 0.63403 0.80841
 N35 N 1.11475 0.60844 0.79419
 C36 C 1.14006 0.59857 0.81083
 H37 H 1.20104 0.58202 0.85367
 H38 H 1.19634 0.65496 0.92185
 H39 H 1.14714 0.70097 0.91868
 H40 H 1.07887 0.69639 0.84582
 H41 H 1.08208 0.64719 0.79990
 H42 H 1.15501 0.57891 0.80456
 C43 C 0.66622 -0.11937 0.13968
 C44 C 0.64373 -0.11788 0.16370
 C45 C 0.61998 -0.14016 0.16518
 C46 C 0.61844 -0.16419 0.14266
 C47 C 0.64068 -0.16565 0.11892
 C48 C 0.66471 -0.14312 0.11741
 C49 C 0.69256 -0.10167 0.13321
 N50 N 0.70678 -0.11420 0.10765
 C51 C 0.69016 -0.13950 0.09774
 C52 C 0.63418 -0.19201 0.10125
 N53 N 0.60863 -0.20628 0.11378
 C54 C 0.59876 -0.18968 0.13907
 C55 C 0.60236 -0.13370 0.19150
 N56 N 0.61489 -0.10814 0.20578
 C57 C 0.64015 -0.09823 0.18917
 H58 H 0.70105 -0.08160 0.14640
 H59 H 0.69644 -0.15444 0.07811
 H60 H 0.64734 -0.20048 0.08119
 H61 H 0.57915 -0.19599 0.15402
 H62 H 0.58230 -0.14688 0.19999
 H63 H 0.65508 -0.07858 0.19550
 C64 C -0.16591 1.11955 -0.36066
 C65 C -0.14337 1.11804 -0.33666
 C66 C -0.11957 1.14026 -0.33519
 C67 C -0.11803 1.16427 -0.35770
 C68 C -0.14033 1.16576 -0.38143
 C69 C -0.16441 1.14328 -0.38292
 C70 C -0.19231 1.10191 -0.36710
 N71 N -0.20659 1.11444 -0.39263
 C72 C -0.18994 1.13970 -0.40256
 C73 C -0.13382 1.19209 -0.39909
 N74 N -0.10821 1.20632 -0.38656
 C75 C -0.09831 1.18972 -0.36129
 C76 C -0.10191 1.13379 -0.30886
 N77 N -0.11448 1.10828 -0.29458
 C78 C -0.13979 1.09841 -0.31119
 H79 H -0.20081 1.08188 -0.35390
 H80 H -0.19624 1.15464 -0.42218
 H81 H -0.14702 1.20058 -0.41913
 H82 H -0.07865 1.19600 -0.34636
 H83 H -0.08181 1.14695 -0.30037
 H84 H -0.15476 1.07881 -0.30486
 C85 C 0.66544 0.62040 0.64113
 C86 C 0.64276 0.61937 0.66499
 C87 C 0.61920 0.64191 0.66613
 C88 C 0.61803 0.66575 0.64342
 C89 C 0.64045 0.66675 0.61983
 C90 C 0.66429 0.64395 0.61868
 C91 C 0.69167 0.60239 0.63499
 N92 N 0.70621 0.61451 0.60946
 C93 C 0.68986 0.63988 0.59924
 C94 C 0.63432 0.69300 0.60189
 N95 N 0.60881 0.70766 0.61411
 C96 C 0.59860 0.69141 0.63946
 C97 C 0.60133 0.63586 0.69238
 N98 N 0.61355 0.61030 0.70693
 C99 C 0.63885 0.59998 0.69057
 H100 H 0.69992 0.58236 0.64838
 H101 H 0.69643 0.65455 0.57955
 H102 H 0.64770 0.70113 0.58185
 H103 H 0.57893 0.69808 0.65420
 H104 H 0.58132 0.64932 0.70063
 H105 H 0.65356 0.58023 0.69714
 C106 C 0.83331 0.37959 0.14089
 C107 C 0.85605 0.38062 0.16473
 C108 C 0.87963 0.35810 0.16581
 C109 C 0.88075 0.33427 0.14306
 C110 C 0.85826 0.33325 0.11949
 C111 C 0.83440 0.35603 0.11839
 C112 C 0.80707 0.39763 0.13479
 N113 N 0.79250 0.38550 0.10922
 C114 C 0.80880 0.36011 0.09895
 C115 C 0.86439 0.30702 0.10150
 N116 N 0.88996 0.29238 0.11367
 C117 C 0.90021 0.30864 0.13904
 C118 C 0.89759 0.36416 0.19203
 N119 N 0.88541 0.38972 0.20663
 C120 C 0.86005 0.40003 0.19033
 H121 H 0.79888 0.41767 0.14822
 H122 H 0.80222 0.34543 0.07922
 H123 H 0.85098 0.29888 0.08145
 H124 H 0.91994 0.30201 0.15375
 H125 H 0.91764 0.35072 0.20022
 H126 H 0.84536 0.41977 0.19694
 C127 C 0.33287 0.11955 0.85902
 C128 C 0.35558 0.11845 0.83518
 C129 C 0.37917 0.14091 0.83413
 C130 C 0.38035 0.16472 0.85688
 C131 C 0.35790 0.16581 0.88043
 C132 C 0.33402 0.14310 0.88151
 C133 C 0.30660 0.10161 0.86510
 N134 N 0.29208 0.11379 0.89066
 C135 C 0.30844 0.13912 0.90094
 C136 C 0.36408 0.19204 0.89840
 N137 N 0.38962 0.20662 0.88624
 C138 C 0.39981 0.19031 0.86089
 C139 C 0.39709 0.13481 0.80791
 N140 N 0.38486 0.10930 0.79328
 C141 C 0.35952 0.09906 0.80957
 H142 H 0.29837 0.08159 0.85166
 H143 H 0.30190 0.15382 0.92066
 H144 H 0.35071 0.20025 0.91842
 H145 H 0.41951 0.19691 0.84621
 H146 H 0.41713 0.14821 0.79973
 H147 H 0.34479 0.07936 0.80294
 C148 C 0.16674 0.88043 0.35902
 C149 C 0.14399 0.88154 0.33518
 C150 C 0.12041 0.85907 0.33407
 C151 C 0.11929 0.83523 0.35677
 C152 C 0.14177 0.83413 0.38032
 C153 C 0.16564 0.85686 0.38146
 C154 C 0.19300 0.89838 0.36513
 N155 N 0.20758 0.88619 0.39066
 C156 C 0.19126 0.86084 0.40089
 C157 C 0.13565 0.80789 0.39823
 N158 N 0.11009 0.79330 0.38604
 C159 C 0.09985 0.80963 0.36073
 C160 C 0.10246 0.86518 0.30785
 N161 N 0.11465 0.89071 0.29329
 C162 C 0.14000 0.90095 0.30961
 H163 H 0.20120 0.91841 0.35174
 H164 H 0.19785 0.84612 0.42058
 H165 H 0.14905 0.79967 0.41824
 H166 H 0.08013 0.80302 0.34603
 H167 H 0.08242 0.85177 0.29963
 H168 H 0.15471 0.92066 0.30303
 Zn169 Zn 0.03740 0.98031 0.00625
 Zn170 Zn 0.00613 1.03754 -0.01984
 Zn171 Zn -0.02539 0.97471 -0.02534
 Zn172 Zn -0.01992 1.00642 0.03728
 O173 O -0.00047 0.99972 -0.00044
 O174 O 0.07011 1.00269 -0.00800
 O175 O -0.01303 1.03999 -0.05711
 O176 O -0.00640 0.93856 -0.03631
 O177 O 0.04688 1.04519 -0.02734
 O178 O 0.03998 0.94293 -0.01283
 O179 O -0.03644 0.99359 -0.06142
 O180 O -0.05724 0.98722 0.03977
 O181 O -0.00822 1.07031 0.00246
 O182 O -0.06153 0.96368 -0.00649
 O183 O -0.02757 1.04718 0.04485
 O184 O 0.00250 0.99221 0.06996
 O185 O 0.04506 0.97283 0.04691
 C186 C 0.07138 1.02915 -0.02165
 C187 C -0.02998 1.02065 -0.07215
 C188 C 0.02069 0.92784 -0.02980
 C189 C -0.07228 0.97019 0.02050
 C190 C -0.02191 1.07164 0.02884
 C191 C 0.02900 0.97857 0.07131
 Zn192 Zn 0.49366 -0.03736 0.48022
 Zn193 Zn 0.51971 -0.00616 0.53740
 Zn194 Zn 0.52521 0.02544 0.47478
 Zn195 Zn 0.46241 0.01992 0.50624
 O196 O 0.50028 0.00049 0.49963
 O197 O 0.50795 -0.07009 0.50258
 O198 O 0.55705 0.01301 0.53997
 O199 O 0.53628 0.00651 0.43874
 O200 O 0.52730 -0.04692 0.54501
 O201 O 0.51287 -0.03989 0.44299
 O202 O 0.56134 0.03647 0.49371
 O203 O 0.45986 0.05728 0.48716
 O204 O 0.49728 0.00811 0.57003
 O205 O 0.50625 0.06159 0.46379
 O206 O 0.45473 0.02744 0.54689
 O207 O 0.42970 -0.00246 0.49191
 O208 O 0.45292 -0.04499 0.47261
 C209 C 0.52160 -0.07140 0.52900
 C210 C 0.57210 0.03000 0.52072
 C211 C 0.52984 -0.02057 0.42800
 C212 C 0.47917 0.07234 0.47024
 C213 C 0.47077 0.02174 0.57132
 C214 C 0.42842 -0.02893 0.47826
 Zn215 Zn 0.96261 0.47974 0.49362
 Zn216 Zn 1.02541 0.47416 0.52526
 Zn217 Zn 1.01989 0.50579 0.46263
 Zn218 Zn 0.99377 0.53698 0.51975
 O219 O 1.00045 0.49914 0.50034
 O220 O 0.96010 0.44239 0.51271
 O221 O 1.06158 0.46312 0.50641
 O222 O 0.99753 0.49152 0.42993
 O223 O 1.00648 0.43802 0.53620
 O224 O 0.95500 0.47218 0.45296
 O225 O 1.05726 0.48662 0.46016
 O226 O 1.00806 0.56971 0.49746
 O227 O 1.03642 0.49309 0.56135
 O228 O 1.02744 0.54654 0.45505
 O229 O 1.01292 0.53948 0.55703
 O230 O 0.95300 0.54464 0.52723
 O231 O 0.92986 0.50215 0.50784
 C232 C 0.97940 0.42731 0.52968
 C233 C 1.07233 0.46962 0.47943
 C234 C 0.97106 0.47787 0.42857
 C235 C 1.02173 0.57102 0.47108
 C236 C 1.02991 0.52016 0.57207
 C237 C 0.92853 0.52862 0.52149
 Zn238 Zn 0.53766 0.52007 0.99399
 Zn239 Zn 0.47492 0.52578 1.02562
 Zn240 Zn 0.48027 0.49405 0.96300
 Zn241 Zn 0.50648 0.46291 1.02011
 O242 O 0.49980 0.50073 1.00071
 O243 O 0.54026 0.55743 1.01309
 O244 O 0.43873 0.53685 1.00677
 O245 O 0.50258 0.50828 0.93030
 O246 O 0.49392 0.56190 1.03656
 O247 O 0.54518 0.52759 0.95332
 O248 O 0.44292 0.51327 0.96053
 O249 O 0.49210 0.43017 0.99782
 O250 O 0.46395 0.50691 1.06170
 O251 O 0.47267 0.45330 0.95542
 O252 O 0.48739 0.46048 1.05739
 O253 O 0.54725 0.45520 1.02759
 O254 O 0.57042 0.49762 1.00819
 C255 C 0.52100 0.57257 1.03005
 C256 C 0.42791 0.53033 0.97979
 C257 C 0.52905 0.52192 0.92894
 C258 C 0.47838 0.42884 0.97144
 C259 C 0.47044 0.47984 1.07243
 C260 C 0.57173 0.47117 1.02185
 C261 C 1.16827 0.43841 0.41570
 C262 C 1.20096 0.45019 0.42662
 C263 C 1.21228 0.41590 0.42838
 C264 C 1.18002 0.40396 0.41727
 C265 C 1.15800 0.43609 0.45018
 C266 C 1.16930 0.40179 0.45195
 C267 C 1.19025 0.44804 0.46130
 C268 C 1.20205 0.41355 0.46288
 C269 C 1.24233 0.40479 0.41568
 C270 C 1.26686 0.39571 0.40475
 C271 C 1.12759 0.44762 0.46160
 C272 C 1.10243 0.45746 0.47020
 H273 H 1.15406 0.44875 0.39641
 H274 H 1.21430 0.46997 0.41607
 H275 H 1.17614 0.38571 0.39902
 H276 H 1.15594 0.38201 0.46250
 H277 H 1.19411 0.46629 0.47955
 H278 H 1.21630 0.40320 0.48213
 C279 C 0.31777 0.58200 0.96997
 C280 C 0.31373 0.60563 0.94255
 C281 C 0.28808 0.58437 0.92855
 C282 C 0.29162 0.56093 0.95576
 C283 C 0.34231 0.56404 0.95045
 C284 C 0.31664 0.54280 0.93644
 C285 C 0.33874 0.58749 0.92324
 C286 C 0.31265 0.56641 0.90907
 C287 C 0.25807 0.59555 0.91578
 C288 C 0.23356 0.60466 0.90478
 C289 C 0.37268 0.55244 0.96192
 C290 C 0.39783 0.54255 0.97054
 H291 H 0.32023 0.58828 0.99514
 H292 H 0.31220 0.63160 0.94491
 H293 H 0.27190 0.55012 0.96898
 H294 H 0.31816 0.51683 0.93406
 H295 H 0.35844 0.59830 0.91000
 H296 H 0.31022 0.56011 0.88389
 C297 C -0.18988 0.94340 0.03466
 C298 C -0.19895 0.90833 0.03890
 C299 C -0.21195 0.91615 0.07163
 C300 C -0.20337 0.95101 0.06758
 C301 C -0.15779 0.93649 0.04980
 C302 C -0.17083 0.94428 0.08252
 C303 C -0.16635 0.90162 0.05385
 C304 C -0.17984 0.90926 0.08675
 C305 C -0.24193 0.90496 0.08434
 C306 C -0.26642 0.89583 0.09530
 C307 C -0.12744 0.94810 0.03837
 C308 C -0.10232 0.95799 0.02976
 H309 H -0.19366 0.95756 0.01310
 H310 H -0.21086 0.89342 0.02110
 H311 H -0.21892 0.97120 0.07337
 H312 H -0.15895 0.95918 0.10035
 H313 H -0.15080 0.88144 0.04807
 H314 H -0.17604 0.89510 0.10831
 C315 C 0.68024 0.08515 0.53160
 C316 C 0.68460 0.10553 0.56148
 C317 C 0.71196 0.08413 0.57155
 C318 C 0.70811 0.06394 0.54187
 C319 C 0.65769 0.06373 0.54992
 C320 C 0.68507 0.04235 0.56000
 C321 C 0.66158 0.08392 0.57959
 C322 C 0.68939 0.06271 0.58983
 C323 C 0.74201 0.09534 0.58416
 C324 C 0.76655 0.10445 0.59506
 C325 C 0.62730 0.05209 0.53857
 C326 C 0.60216 0.04219 0.52999
 H327 H 0.67613 0.09424 0.50753
 H328 H 0.68474 0.13163 0.56223
 H329 H 0.72760 0.05585 0.52651
 H330 H 0.68494 0.01624 0.55926
 H331 H 0.64212 0.09203 0.59498
 H332 H 0.69347 0.05360 0.61391
 C333 C 0.46593 0.17824 0.41156
 C334 C 0.43354 0.18323 0.39554
 C335 C 0.42807 0.21223 0.41641
 C336 C 0.46026 0.20774 0.43224
 C337 C 0.44984 0.15796 0.43669
 C338 C 0.44437 0.18696 0.45755
 C339 C 0.41766 0.16249 0.42085
 C340 C 0.41202 0.19191 0.44153
 C341 C 0.41537 0.24227 0.40526
 C342 C 0.40442 0.26680 0.39619
 C343 C 0.46126 0.12757 0.44826
 C344 C 0.46988 0.10242 0.45810
 H345 H 0.48822 0.17227 0.39937
 H346 H 0.42893 0.18204 0.36992
 H347 H 0.47762 0.22669 0.43681
 H348 H 0.44896 0.18815 0.48317
 H349 H 0.40027 0.14356 0.41627
 H350 H 0.38972 0.19785 0.45374
 C351 C 0.93068 0.31869 0.54304
 C352 C 0.95103 0.29125 0.55576
 C353 C 0.92797 0.28759 0.58327
 C354 C 0.90746 0.31458 0.57071
 C355 C 0.94993 0.34176 0.56310
 C356 C 0.92687 0.33808 0.59060
 C357 C 0.97049 0.31480 0.57565
 C358 C 0.94722 0.31064 0.60335
 C359 C 0.91519 0.25760 0.59437
 C360 C 0.90418 0.23312 0.60345
 C361 C 0.96144 0.37212 0.55159
 C362 C 0.97010 0.39724 0.54179
 H363 H 0.92400 0.32232 0.51811
 H364 H 0.96081 0.27165 0.54155
 H365 H 0.88141 0.31417 0.56878
 H366 H 0.91708 0.35767 0.60482
 H367 H 0.99654 0.31525 0.57756
 H368 H 0.95388 0.30699 0.62828
 C369 C 0.06751 0.81811 -0.04279
 C370 C 0.04739 0.79161 -0.05765
 C371 C 0.07215 0.78806 -0.08368
 C372 C 0.09243 0.81410 -0.06898
 C373 C 0.05021 0.84226 -0.06337
 C374 C 0.07497 0.83869 -0.08939
 C375 C 0.02989 0.81625 -0.07807
 C376 C 0.05486 0.81219 -0.10428
 C377 C 0.08493 0.75806 -0.09485
 C378 C 0.09595 0.73356 -0.10395
 C379 C 0.03871 0.87263 -0.05179
 C380 C 0.03003 0.89777 -0.04194
 H381 H 0.07258 0.82087 -0.01738
 H382 H 0.03621 0.77192 -0.04472
 H383 H 0.11827 0.81291 -0.06535
 H384 H 0.08618 0.85837 -0.10233
 H385 H 0.00405 0.81748 -0.08168
 H386 H 0.04981 0.80942 -0.12970
 C387 C 0.57004 0.66238 1.09355
 C388 C 0.59304 0.68381 1.07525
 C389 C 0.57250 0.71237 1.08361
 C390 C 0.54966 0.69140 1.10210
 C391 C 0.55056 0.65814 1.06345
 C392 C 0.52998 0.68668 1.07181
 C393 C 0.57340 0.67914 1.04499
 C394 C 0.55303 0.70815 1.05351
 C395 C 0.58528 0.74238 1.09472
 C396 C 0.59626 0.76689 1.10379
 C397 C 0.53904 0.62777 1.05195
 C398 C 0.53035 0.60263 1.04215
 H399 H 0.57689 0.64323 1.10990
 H400 H 0.61911 0.68294 1.07677
 H401 H 0.54005 0.69679 1.12572
 H402 H 0.50391 0.68751 1.07027
 H403 H 0.58303 0.67377 1.02138
 H404 H 0.54619 0.72730 1.03717
 C405 C 0.42258 0.41774 1.16255
 C406 C 0.44300 0.41362 1.19237
 C407 C 0.41663 0.42875 1.21188
 C408 C 0.39603 0.43269 1.18249
 C409 C 0.43690 0.45057 1.15781
 C410 C 0.41052 0.46574 1.17729
 C411 C 0.45749 0.44663 1.18721
 C412 C 0.43094 0.46159 1.20719
 C413 C 0.40547 0.41602 1.24181
 C414 C 0.39636 0.40506 1.26625
 C415 C 0.44847 0.46200 1.12751
 C416 C 0.45830 0.47061 1.10243
 H417 H 0.41926 0.39983 1.14387
 H418 H 0.45623 0.39206 1.19889
 H419 H 0.37064 0.42681 1.18088
 H420 H 0.39730 0.48730 1.17074
 H421 H 0.48289 0.45249 1.18882
 H422 H 0.43425 0.47948 1.22590
 C423 C 0.55222 -0.03811 0.31045
 C424 C 0.58688 -0.03710 0.29915
 C425 C 0.58398 -0.07152 0.28852
 C426 C 0.54953 -0.07272 0.29933
 C427 C 0.56359 -0.04982 0.34263
 C428 C 0.56072 -0.08423 0.33195
 C429 C 0.59805 -0.04861 0.33184
 C430 C 0.59534 -0.08321 0.32071
 C431 C 0.59519 -0.08418 0.25855
 C432 C 0.60432 -0.09509 0.23408
 C433 C 0.55195 -0.03843 0.37294
 C434 C 0.54205 -0.02984 0.39802
 H435 H 0.53437 -0.01942 0.30658
 H436 H 0.59776 -0.01786 0.28531
 H437 H 0.52970 -0.08277 0.28564
 H438 H 0.54984 -0.10350 0.34576
 H439 H 0.61787 -0.03856 0.34555
 H440 H 0.61318 -0.10190 0.32461
 C441 C -0.09252 1.07111 -0.16167
 C442 C -0.07333 1.09234 -0.18410
 C443 C -0.08371 1.07165 -0.21180
 C444 C -0.10309 1.05058 -0.18982
 C445 C -0.06351 1.04989 -0.15762
 C446 C -0.07388 1.02915 -0.18530
 C447 C -0.04416 1.07096 -0.17962
 C448 C -0.05470 1.05043 -0.20778
 C449 C -0.09483 1.08433 -0.24179
 C450 C -0.10392 1.09525 -0.26627
 C451 C -0.05197 1.03848 -0.12728
 C452 C -0.04214 1.02989 -0.10217
 H453 H -0.10796 1.07947 -0.14238
 H454 H -0.07321 1.11846 -0.18392
 H455 H -0.12745 1.04234 -0.19437
 H456 H -0.07399 1.00303 -0.18544
 H457 H -0.01980 1.07922 -0.17510
 H458 H -0.03927 1.04208 -0.22707
 C459 C 1.04216 0.56219 0.68369
 C460 C 1.06165 0.54325 0.70796
 C461 C 1.08386 0.57153 0.71154
 C462 C 1.06454 0.59063 0.68774
 C463 C 1.06354 0.54960 0.65746
 C464 C 1.08575 0.57788 0.66108
 C465 C 1.08287 0.53046 0.68123
 C466 C 1.10526 0.55895 0.68533
 C467 C 1.09504 0.58431 0.74148
 C468 C 1.10416 0.59531 0.76592
 C469 C 1.05195 0.53811 0.62716
 C470 C 1.04209 0.52946 0.60208
 H471 H 1.01608 0.56338 0.68270
 H472 H 1.05186 0.52916 0.72757
 H473 H 1.05711 0.61550 0.69073
 H474 H 1.09555 0.59199 0.64148
 H475 H 1.09027 0.50559 0.67821
 H476 H 1.13134 0.55777 0.68633
 C477 C 0.81906 0.58065 0.53232
 C478 C 0.79246 0.55967 0.54574
 C479 C 0.78898 0.58260 0.57341
 C480 C 0.81508 0.60376 0.56019
 C481 C 0.84312 0.56193 0.55173
 C482 C 0.83961 0.58486 0.57940
 C483 C 0.81701 0.54078 0.56495
 C484 C 0.81307 0.56388 0.59279
 C485 C 0.75900 0.59407 0.58595
 C486 C 0.73452 0.60350 0.59668
 C487 C 0.87343 0.55028 0.54020
 C488 C 0.89852 0.54050 0.53132
 H489 H 0.82187 0.58741 0.50732
 H490 H 0.77272 0.54944 0.53205
 H491 H 0.81395 0.62979 0.55838
 H492 H 0.85933 0.59510 0.59311
 H493 H 0.81814 0.51475 0.56678
 H494 H 0.81028 0.55710 0.61779
 C495 C 0.66401 0.43113 1.08690
 C496 C 0.67972 0.39964 1.07746
 C497 C 0.71124 0.41693 1.07384
 C498 C 0.69597 0.44826 1.08346
 C499 C 0.65713 0.43772 1.05211
 C500 C 0.68864 0.45502 1.04848
 C501 C 0.67239 0.40638 1.04247
 C502 C 0.70440 0.42350 1.03904
 C503 C 0.74121 0.40541 1.08639
 C504 C 0.76569 0.39594 1.09714
 C505 C 0.62682 0.44943 1.04057
 C506 C 0.60174 0.45925 1.03168
 H507 H 0.64708 0.43439 1.10646
 H508 H 0.67639 0.37674 1.08952
 H509 H 0.70598 0.46535 1.10045
 H510 H 0.69197 0.47792 1.03643
 H511 H 0.66235 0.38930 1.02549
 H512 H 0.72136 0.42023 1.01950
 C513 C 0.18608 1.06811 -0.03185
 C514 C 0.20633 1.05117 -0.05697
 C515 C 0.21083 1.08274 -0.07391
 C516 C 0.19107 1.09987 -0.04901
 C517 C 0.15672 1.06226 -0.05209
 C518 C 0.16123 1.09383 -0.06904
 C519 C 0.17650 1.04515 -0.07700
 C520 C 0.18145 1.07688 -0.09412
 C521 C 0.24079 1.09410 -0.08651
 C522 C 0.26527 1.10346 -0.09727
 C523 C 0.12643 1.05070 -0.04048
 C524 C 0.10137 1.04099 -0.03154
 H525 H 0.18764 1.06438 -0.00612
 H526 H 0.22521 1.03376 -0.05215
 H527 H 0.19742 1.12251 -0.03764
 H528 H 0.14236 1.11125 -0.07387
 H529 H 0.17017 1.02252 -0.08838
 H530 H 0.17987 1.08060 -0.11986
 C531 C 0.31468 -0.04102 0.44024
 C532 C 0.31018 -0.05908 0.40897
 C533 C 0.28890 -0.08271 0.42606
 C534 C 0.29293 -0.06483 0.45715
 C535 C 0.34305 -0.06214 0.44782
 C536 C 0.32180 -0.08577 0.46493
 C537 C 0.33899 -0.08001 0.41673
 C538 C 0.31727 -0.10383 0.43364
 C539 C 0.25892 -0.09410 0.41349
 C540 C 0.23441 -0.10348 0.40274
 C541 C 0.37336 -0.05054 0.45940
 C542 C 0.39843 -0.04079 0.46834
 H543 H 0.31395 -0.01507 0.44309
 H544 H 0.30508 -0.04822 0.38583
 H545 H 0.27365 -0.05872 0.47363
 H546 H 0.32692 -0.09662 0.48808
 H547 H 0.35825 -0.08614 0.40024
 H548 H 0.31799 -0.12978 0.43078
 C549 C 0.53886 -0.18908 0.55252
 C550 C 0.57303 -0.20110 0.54828
 C551 C 0.57350 -0.21098 0.58295
 C552 C 0.53951 -0.19945 0.58740
 C553 C 0.55186 -0.15681 0.56229
 C554 C 0.55231 -0.16668 0.59697
 C555 C 0.58583 -0.16837 0.55787
 C556 C 0.58647 -0.17869 0.59271
 C557 C 0.58601 -0.24098 0.59439
 C558 C 0.59673 -0.26549 0.60378
 C559 C 0.54035 -0.12648 0.55064
 C560 C 0.53146 -0.10140 0.54087
 H561 H 0.51914 -0.19301 0.53587
 H562 H 0.58169 -0.21558 0.52839
 H563 H 0.52061 -0.21258 0.59967
 H564 H 0.54366 -0.15218 0.61686
 H565 H 0.60476 -0.15526 0.54561
 H566 H 0.60619 -0.17474 0.60935
 C567 C 1.08342 0.66045 0.42044
 C568 C 1.06653 0.68213 0.39655
 C569 C 1.07396 0.71052 0.41763
 C570 C 1.09103 0.68927 0.44134
 C571 C 1.05216 0.65639 0.43807
 C572 C 1.05960 0.68478 0.45915
 C573 C 1.03507 0.67761 0.41436
 C574 C 1.04270 0.70649 0.43526
 C575 C 1.08655 0.74049 0.40628
 C576 C 1.09730 0.76497 0.39694
 C577 C 1.04057 0.62608 0.44960
 C578 C 1.03163 0.60101 0.45929
 H579 H 1.10003 0.64119 0.41446
 H580 H 1.06953 0.68138 0.37068
 H581 H 1.11417 0.69439 0.45231
 H582 H 1.05661 0.68553 0.48501
 H583 H 1.01194 0.67246 0.40340
 H584 H 1.02611 0.72577 0.44122
 C585 C -0.07216 1.16104 0.09194
 C586 C -0.05177 1.18988 0.10090
 C587 C -0.07448 1.21113 0.08247
 C588 C -0.09504 1.18274 0.07370
 C589 C -0.05255 1.15702 0.06193
 C590 C -0.07526 1.17828 0.04352
 C591 C -0.03196 1.18539 0.07069
 C592 C -0.05487 1.20712 0.05246
 C593 C -0.08713 1.24109 0.09389
 C594 C -0.09792 1.26557 0.10329
 C595 C -0.04088 1.12672 0.05034
 C596 C -0.03188 1.10164 0.04064
 H597 H -0.07913 1.14176 0.10805
 H598 H -0.04225 1.19500 0.12463
 H599 H -0.12111 1.18197 0.07505
 H600 H -0.08480 1.17318 0.01979
 H601 H -0.00588 1.18613 0.06933
 H602 H -0.04791 1.22641 0.03635
 C603 C 0.46843 0.31537 0.92889
 C604 C 0.44625 0.29327 0.94750
 C605 C 0.42588 0.28936 0.91795
 C606 C 0.44786 0.31096 0.89915
 C607 C 0.44778 0.34348 0.93842
 C608 C 0.42741 0.33955 0.90887
 C609 C 0.42580 0.32186 0.95720
 C610 C 0.40526 0.31749 0.92749
 C611 C 0.41324 0.25940 0.90657
 C612 C 0.40245 0.23493 0.89720
 C613 C 0.45943 0.37378 0.94997
 C614 C 0.46842 0.39885 0.95965
 H615 H 0.49454 0.31484 0.92959
 H616 H 0.45384 0.27390 0.96325
 H617 H 0.45678 0.30614 0.87514
 H618 H 0.41980 0.35891 0.89311
 H619 H 0.41686 0.32667 0.98120
 H620 H 0.37915 0.31804 0.92680
 C621 C 0.59499 0.54654 0.83047
 C622 C 0.58019 0.53913 0.79804
 C623 C 0.58216 0.57423 0.78964
 C624 C 0.59714 0.58181 0.82159
 C625 C 0.56188 0.55239 0.84370
 C626 C 0.56386 0.58747 0.83527
 C627 C 0.54689 0.54479 0.81176
 C628 C 0.54905 0.58007 0.80288
 C629 C 0.59341 0.58682 0.75970
 C630 C 0.60270 0.59755 0.73524
 C631 C 0.55043 0.54077 0.87396
 C632 C 0.54080 0.53182 0.89900
 H633 H 0.61376 0.53262 0.84215
 H634 H 0.58703 0.51940 0.78237
 H635 H 0.61792 0.59718 0.82530
 H636 H 0.55703 0.60723 0.85090
 H637 H 0.52610 0.52943 0.80806
 H638 H 0.53028 0.59399 0.79121
 C639 C 0.41358 0.03466 0.67752
 C640 C 0.43444 0.04220 0.70643
 C641 C 0.41665 0.07341 0.71057
 C642 C 0.39561 0.06607 0.68216
 C643 C 0.43736 0.05187 0.65652
 C644 C 0.41956 0.08307 0.66069
 C645 C 0.45839 0.05921 0.68493
 C646 C 0.44042 0.09059 0.68955
 C647 C 0.40519 0.08588 0.74052
 C648 C 0.39579 0.09656 0.76498
 C649 C 0.44904 0.04041 0.62626
 C650 C 0.45885 0.03156 0.60124
 H651 H 0.40268 0.01153 0.67223
 H652 H 0.44043 0.02554 0.72559
 H653 H 0.36966 0.06903 0.68136
 H654 H 0.41356 0.09975 0.64156
 H655 H 0.48434 0.05626 0.68574
 H656 H 0.45133 0.11372 0.69481
 C657 C 0.08416 0.91979 0.16019
 C658 C 0.10416 0.93867 0.18405
 C659 C 0.08289 0.92670 0.21061
 C660 C 0.06306 0.90764 0.18719
 C661 C 0.06228 0.94836 0.15655
 C662 C 0.04101 0.93637 0.18311
 C663 C 0.08210 0.96745 0.17994
 C664 C 0.06100 0.95527 0.20699
 C665 C 0.09431 0.91418 0.24054
 C666 C 0.10370 0.90347 0.26500
 C667 C 0.05065 0.95987 0.12629
 C668 C 0.04089 0.96874 0.10125
 H669 H 0.09356 0.90533 0.14062
 H670 H 0.13026 0.93948 0.18478
 H671 H 0.05535 0.88291 0.19049
 H672 H 0.01491 0.93556 0.18239
 H673 H 0.08979 0.99217 0.17661
 H674 H 0.05161 0.96971 0.22658
 C675 C 0.94308 0.41373 0.33153
 C676 C 0.90809 0.41230 0.32148
 C677 C 0.91723 0.42575 0.28930
 C678 C 0.95206 0.42700 0.29891
 C679 C 0.93784 0.44750 0.34334
 C680 C 0.94700 0.46097 0.31117
 C681 C 0.90301 0.44624 0.33374
 C682 C 0.91197 0.45952 0.30108
 C683 C 0.90579 0.41320 0.25937
 C684 C 0.89638 0.40248 0.23492
 C685 C 0.94946 0.45906 0.37359
 C686 C 0.95921 0.46798 0.39863
 H687 H 0.95600 0.39502 0.34437
 H688 H 0.89197 0.39214 0.32540
 H689 H 0.97210 0.41895 0.28426
 H690 H 0.96313 0.48112 0.30728
 H691 H 0.88297 0.45429 0.34840
 H692 H 0.89905 0.47821 0.28821
   
