data_POSCAR
  _audit_creation_date              2014-09-24
  _audit_creation_method            'ToBaCCo'
  _symmetry_space_group_name_H-M    'P1'
  _symmetry_Int_Tables_number       1
  _symmetry_cell_setting            triclinic
  loop_
  _symmetry_equiv_pos_as_xyz
 x,y,z
_cell_length_a 29.6991
_cell_length_b 30.6730
_cell_length_c 29.4214
_cell_angle_alpha 89.899100
_cell_angle_beta 90.193200
_cell_angle_gamma 90.450700
loop_
  _atom_site_label
  _atom_site_type_symbol
  _atom_site_fract_x
  _atom_site_fract_y
  _atom_site_fract_z
C1 C 0.33440 0.39283 1.37145
 C2 C 0.36698 0.39428 1.33717
 C3 C 0.39843 0.36147 1.33390
 C4 C 0.39786 0.32689 1.36518
 C5 C 0.36520 0.32516 1.39857
 C6 C 0.33321 0.35845 1.40176
 C7 C 0.29999 0.42036 1.38258
 N8 N 0.27808 0.40421 1.41966
 C9 C 0.29781 0.36567 1.43090
 C10 C 0.37274 0.28815 1.42382
 N11 N 0.41014 0.26806 1.40767
 C12 C 0.42509 0.29123 1.37112
 C13 C 0.42520 0.37102 1.29703
 N14 N 0.41114 0.40919 1.27844
 C15 C 0.37528 0.42342 1.30258
 H16 H 0.29055 0.44920 1.36365
 H17 H 0.28793 0.34479 1.45891
 H18 H 0.35330 0.27745 1.45292
 H19 H 0.45312 0.28231 1.34970
 H20 H 0.45227 0.35122 1.28403
 H21 H 0.35633 0.45259 1.29508
 C22 C 1.16499 0.60917 0.87214
 C23 C 1.13015 0.60707 0.83995
 C24 C 1.09494 0.63629 0.84206
 C25 C 1.09412 0.66788 0.87641
 C26 C 1.12864 0.67013 0.90794
 C27 C 1.16438 0.64052 0.90579
 C28 C 1.20488 0.58708 0.87628
 N29 N 1.22924 0.60472 0.91108
 C30 C 1.20400 0.63690 0.92988
 C31 C 1.12126 0.70647 0.93420
 N32 N 1.08250 0.72593 0.92012
 C33 C 1.06627 0.70265 0.88416
 C34 C 1.06853 0.62968 0.80416
 N35 N 1.08727 0.59758 0.77901
 C36 C 1.12465 0.58318 0.80073
 H37 H 1.21628 0.56144 0.85394
 H38 H 1.21328 0.65599 0.95943
 H39 H 1.14287 0.71803 0.96141
 H40 H 1.03796 0.71190 0.86305
 H41 H 1.03930 0.64835 0.79423
 H42 H 1.14742 0.55891 0.78758
 C43 C 0.65572 -0.09668 0.11644
 C44 C 0.62344 -0.09516 0.15107
 C45 C 0.59220 -0.12865 0.15557
 C46 C 0.59249 -0.16375 0.12508
 C47 C 0.62401 -0.16493 0.09069
 C48 C 0.65606 -0.13140 0.08658
 C49 C 0.69459 -0.07301 0.10921
 N50 N 0.71933 -0.09330 0.07674
 C51 C 0.69509 -0.12829 0.06175
 C52 C 0.62015 -0.20492 0.07002
 N53 N 0.58766 -0.22870 0.09149
 C54 C 0.56995 -0.20314 0.12467
 C55 C 0.57025 -0.12242 0.19616
 N56 N 0.58770 -0.08632 0.21643
 C57 C 0.61960 -0.06892 0.18872
 H58 H 0.70598 -0.04542 0.12922
 H59 H 0.70565 -0.15081 0.03564
 H60 H 0.64168 -0.21689 0.04322
 H61 H 0.54256 -0.21232 0.14701
 H62 H 0.54553 -0.14407 0.21131
 H63 H 0.64032 -0.04076 0.19675
 C64 C -0.15788 1.10189 -0.38053
 C65 C -0.12507 1.10065 -0.34613
 C66 C -0.09549 1.13535 -0.34059
 C67 C -0.09833 1.17176 -0.36939
 C68 C -0.13097 1.17301 -0.40295
 C69 C -0.16076 1.13777 -0.40871
 C70 C -0.19281 1.07424 -0.39193
 N71 N -0.21659 1.09195 -0.42706
 C72 C -0.19727 1.13132 -0.43684
 C73 C -0.12778 1.21302 -0.42380
 N74 N -0.09428 1.23656 -0.40348
 C75 C -0.07538 1.21095 -0.37084
 C76 C -0.06957 1.12656 -0.30285
 N77 N -0.08211 1.08706 -0.28588
 C78 C -0.11635 1.07121 -0.31190
 H79 H -0.20185 1.04478 -0.37370
 H80 H -0.20878 1.15388 -0.46264
 H81 H -0.14796 1.22383 -0.45234
 H82 H -0.04818 1.22079 -0.34839
 H83 H -0.04463 1.14806 -0.28774
 H84 H -0.13441 1.04101 -0.30557
 C85 C 0.65410 0.59523 0.61221
 C86 C 0.62116 0.59288 0.64618
 C87 C 0.59030 0.62613 0.65061
 C88 C 0.59229 0.66230 0.62154
 C89 C 0.62467 0.66468 0.58803
 C90 C 0.65576 0.63080 0.58313
 C91 C 0.69106 0.57001 0.60313
 N92 N 0.71469 0.58908 0.56899
 C93 C 0.69367 0.62644 0.55673
 C94 C 0.62107 0.70510 0.56796
 N95 N 0.58805 0.72782 0.58929
 C96 C 0.56964 0.70115 0.62138
 C97 C 0.56576 0.61790 0.68927
 N98 N 0.58070 0.58031 0.70820
 C99 C 0.61486 0.56494 0.68235
 H100 H 0.70120 0.54094 0.62128
 H101 H 0.70637 0.64973 0.53212
 H102 H 0.64280 0.71790 0.54155
 H103 H 0.54141 0.70906 0.64296
 H104 H 0.54056 0.63888 0.70399
 H105 H 0.63529 0.53697 0.69079
 C106 C 0.84669 0.40427 0.11410
 C107 C 0.87906 0.40391 0.14886
 C108 C 0.90849 0.36935 0.15274
 C109 C 0.90599 0.33473 0.12167
 C110 C 0.87384 0.33509 0.08758
 C111 C 0.84407 0.37016 0.08370
 C112 C 0.81128 0.43150 0.10493
 N113 N 0.78729 0.41531 0.06906
 C114 C 0.80711 0.37727 0.05643
 C115 C 0.87675 0.29613 0.06484
 N116 N 0.90949 0.27163 0.08459
 C117 C 0.92830 0.29564 0.11871
 C118 C 0.93342 0.37597 0.19170
 N119 N 0.92045 0.41412 0.21093
 C120 C 0.88689 0.43115 0.18516
 H121 H 0.80181 0.45918 0.12547
 H122 H 0.79535 0.35583 0.02965
 H123 H 0.85667 0.28659 0.03567
 H124 H 0.95470 0.28459 0.14133
 H125 H 0.95791 0.35384 0.20604
 H126 H 0.86860 0.46056 0.19308
 C127 C 0.34231 0.09709 0.88178
 C128 C 0.37431 0.09677 0.84681
 C129 C 0.40517 0.13055 0.84317
 C130 C 0.40472 0.16486 0.87449
 C131 C 0.37320 0.16518 0.90902
 C132 C 0.34165 0.13103 0.91256
 C133 C 0.30677 0.06989 0.89202
 N134 N 0.28461 0.08591 0.92885
 C135 C 0.30570 0.12380 0.94106
 C136 C 0.38001 0.20298 0.93342
 N137 N 0.41527 0.22499 0.91483
 C138 C 0.43023 0.20225 0.87845
 C139 C 0.43079 0.12281 0.80529
 N140 N 0.41695 0.08462 0.78634
 C141 C 0.38197 0.06875 0.81117
 H142 H 0.29618 0.04209 0.87193
 H143 H 0.29574 0.14481 0.96873
 H144 H 0.36071 0.21387 0.96235
 H145 H 0.45733 0.21255 0.85626
 H146 H 0.45690 0.14395 0.79178
 H147 H 0.36312 0.03932 0.80342
 C148 C 0.15482 0.90579 0.38335
 C149 C 0.11991 0.91034 0.35145
 C150 C 0.08638 0.87885 0.34862
 C151 C 0.08697 0.84269 0.37778
 C152 C 0.12108 0.83855 0.40962
 C153 C 0.15524 0.87027 0.41228
 C154 C 0.19475 0.92809 0.38982
 N155 N 0.22003 0.90642 0.42121
 C156 C 0.19514 0.87172 0.43599
 C157 C 0.11643 0.79801 0.42925
 N158 N 0.08055 0.77758 0.40984
 C159 C 0.06201 0.80467 0.37864
 C160 C 0.06037 0.88859 0.31133
 N161 N 0.07653 0.92574 0.29194
 C162 C 0.11333 0.93896 0.31594
 H163 H 0.20583 0.95629 0.37057
 H164 H 0.20509 0.84891 0.46221
 H165 H 0.13892 0.78337 0.45386
 H166 H 0.03417 0.79622 0.35642
 H167 H 0.03314 0.86879 0.29778
 H168 H 0.13488 0.96626 0.30696
 Zn169 Zn 0.01745 1.05069 -0.02958
 Zn170 Zn -0.03439 0.96672 -0.03814
 Zn171 Zn 0.04853 0.97086 0.01950
 Zn172 Zn -0.03399 1.01613 0.04930
 O173 O -0.00061 1.00108 0.00009
 O174 O -0.00254 1.05216 -0.08695
 O175 O -0.00927 0.91448 -0.04813
 O176 O 0.10038 0.99619 0.00273
 O177 O -0.04274 0.99123 -0.09301
 O178 O 0.07752 1.05536 -0.03350
 O179 O 0.05010 0.91675 -0.00289
 O180 O -0.00920 1.00037 0.10214
 O181 O -0.08926 0.95451 -0.01555
 O182 O 0.05089 0.96448 0.07999
 O183 O -0.08828 0.99126 0.04919
 O184 O -0.04377 1.07297 0.05277
 O185 O -0.00341 1.10001 -0.00399
 C186 C -0.02733 1.02643 -0.10989
 C187 C 0.02488 0.89627 -0.03062
 C188 C 0.10885 1.03050 -0.01995
 C189 C 0.02511 0.97767 0.11133
 C190 C -0.10776 0.96583 0.02140
 C191 C -0.03004 1.10500 0.02925
 Zn192 Zn 0.48674 -0.05158 0.47130
 Zn193 Zn 0.53391 -0.01373 0.55137
 Zn194 Zn 0.53492 0.03384 0.46266
 Zn195 Zn 0.44990 0.02734 0.51681
 O196 O 0.50138 -0.00096 0.50048
 O197 O 0.50662 -0.09935 0.50010
 O198 O 0.58937 0.00898 0.55003
 O199 O 0.54530 0.00894 0.40868
 O200 O 0.54134 -0.07073 0.55964
 O201 O 0.50923 -0.05427 0.41520
 O202 O 0.58982 0.04602 0.48534
 O203 O 0.44640 0.08041 0.49188
 O204 O 0.50869 0.00605 0.60228
 O205 O 0.50864 0.08522 0.45124
 O206 O 0.44655 0.03675 0.57681
 O207 O 0.39929 -0.00163 0.50049
 O208 O 0.42758 -0.05900 0.46560
 C209 C 0.52866 -0.10363 0.53682
 C210 C 0.60934 0.03310 0.52131
 C211 C 0.53352 -0.02784 0.39274
 C212 C 0.47243 0.10182 0.46579
 C213 C 0.47303 0.02740 0.60932
 C214 C 0.39405 -0.03741 0.47930
 Zn215 Zn 1.01532 0.45045 0.47072
 Zn216 Zn 1.05159 0.53237 0.51064
 Zn217 Zn 0.96536 0.53463 0.45803
 Zn218 Zn 0.96900 0.49209 0.54935
 O219 O 1.00021 0.50236 0.49704
 O220 O 1.07502 0.44323 0.46539
 O221 O 1.05494 0.58353 0.48186
 O222 O 0.95684 0.50785 0.40447
 O223 O 1.10159 0.50389 0.49580
 O224 O 0.99426 0.44619 0.41393
 O225 O 0.99003 0.58681 0.44474
 O226 O 0.91376 0.51436 0.54774
 O227 O 1.05644 0.54524 0.56943
 O228 O 0.91031 0.54561 0.48013
 O229 O 0.99538 0.51493 0.59902
 O230 O 0.95989 0.43546 0.55957
 O231 O 0.99322 0.40393 0.50098
 C232 C 1.10798 0.46784 0.47599
 C233 C 1.02778 0.60336 0.45585
 C234 C 0.97093 0.47165 0.38951
 C235 C 0.89218 0.53534 0.51768
 C236 C 1.03122 0.53742 0.60317
 C237 C 0.96997 0.40171 0.53707
 Zn238 Zn 0.47035 0.48610 0.94676
 Zn239 Zn 0.46775 0.53414 1.03493
 Zn240 Zn 0.51903 0.45103 1.02770
 Zn241 Zn 0.55289 0.53082 0.98110
 O242 O 0.50247 0.50054 0.99767
 O243 O 0.41656 0.51190 0.94472
 O244 O 0.45599 0.50841 1.08854
 O245 O 0.49932 0.40257 1.00008
 O246 O 0.41472 0.54803 1.00976
 O247 O 0.46094 0.42856 0.94148
 O248 O 0.49669 0.44835 1.08381
 O249 O 0.60358 0.50488 0.99865
 O250 O 0.49419 0.58524 1.04844
 O251 O 0.57883 0.44599 1.03424
 O252 O 0.55581 0.58362 1.00636
 O253 O 0.55773 0.53816 0.92103
 O254 O 0.49763 0.50292 0.89539
 C255 C 0.39729 0.53796 0.97172
 C256 C 0.47073 0.47326 1.10568
 C257 C 0.47522 0.39668 0.96489
 C258 C 0.61095 0.47056 1.02143
 C259 C 0.53069 0.60255 1.03484
 C260 C 0.53349 0.52456 0.88833
 C261 C 1.16392 0.40931 0.46647
 C262 C 1.20592 0.39338 0.45423
 C263 C 1.24032 0.42153 0.43914
 C264 C 1.23302 0.46731 0.44141
 C265 C 1.18956 0.48358 0.45187
 C266 C 1.15452 0.45401 0.46460
 C267 C 1.18305 0.52899 0.44849
 N268 N 1.21841 0.55603 0.44034
 N269 N 1.25990 0.54093 0.43510
 C270 C 1.26847 0.49764 0.43583
 H271 H 1.13809 0.38617 0.47664
 H272 H 1.21031 0.35839 0.45370
 H273 H 1.15055 0.54370 0.45189
 H274 H 1.30310 0.48751 0.43311
 C275 C 0.32104 0.52978 0.93949
 C276 C 0.28040 0.54607 0.92354
 C277 C 0.27089 0.59091 0.92506
 C278 C 0.30529 0.62008 0.94074
 C279 C 0.34650 0.60317 0.95803
 C280 C 0.35400 0.55748 0.95770
 C281 C 0.38006 0.63292 0.97236
 N282 N 0.37329 0.67637 0.96848
 N283 N 0.33573 0.69220 0.95037
 C284 C 0.30201 0.66570 0.93572
 H285 H 0.32661 0.49493 0.93807
 H286 H 0.25539 0.52295 0.91146
 H287 H 0.41216 0.62243 0.98548
 H288 H 0.27413 0.68083 0.91845
 C289 C -0.18634 0.97799 0.04412
 C290 C -0.22832 0.96360 0.05893
 C291 C -0.23821 0.91891 0.06358
 C292 C -0.20312 0.88823 0.05566
 C293 C -0.16049 0.90314 0.03982
 C294 C -0.15251 0.94834 0.03353
 C295 C -0.12601 0.87247 0.03377
 N296 N -0.13342 0.82991 0.04369
 N297 N -0.17260 0.81609 0.06029
 C298 C -0.20725 0.84373 0.06737
 H299 H -0.18023 1.01273 0.04072
 H300 H -0.25391 0.98774 0.06546
 H301 H -0.09279 0.88202 0.02266
 H302 H -0.23660 0.83062 0.08409
 C303 C 0.66723 0.09071 0.52936
 C304 C 0.71013 0.10530 0.54142
 C305 C 0.74401 0.07591 0.55469
 C306 C 0.73489 0.03033 0.55050
 C307 C 0.69069 0.01562 0.53943
 C308 C 0.65644 0.04631 0.53016
 C309 C 0.68270 -0.02957 0.53587
 N310 N 0.71706 -0.05791 0.54136
 N311 N 0.75890 -0.04414 0.54949
 C312 C 0.76908 -0.00116 0.55357
 H313 H 0.64158 0.11451 0.52138
 H314 H 0.71560 0.14015 0.54334
 H315 H 0.64985 -0.04272 0.52749
 H316 H 0.80411 0.00781 0.55731
 C317 C 0.41310 0.15542 0.44904
 C318 C 0.39754 0.19614 0.43594
 C319 C 0.42744 0.22977 0.42380
 C320 C 0.47459 0.22277 0.42906
 C321 C 0.49059 0.18118 0.44336
 C322 C 0.45929 0.14669 0.45196
 C323 C 0.53725 0.17661 0.45103
 N324 N 0.56555 0.21087 0.44454
 N325 N 0.55053 0.24978 0.43193
 C326 C 0.50618 0.25706 0.42466
 H327 H 0.38845 0.13011 0.45619
 H328 H 0.36152 0.20061 0.43289
 H329 H 0.55185 0.14695 0.46370
 H330 H 0.49624 0.29009 0.41745
 C331 C 0.98186 0.32708 0.56656
 C332 C 0.96597 0.28722 0.58309
 C333 C 0.91954 0.27777 0.58481
 C334 C 0.88859 0.31116 0.57261
 C335 C 0.90492 0.35146 0.55522
 C336 C 0.95190 0.35928 0.55233
 C337 C 0.87342 0.38300 0.54144
 N338 N 0.82882 0.37575 0.54776
 N339 N 0.81364 0.33928 0.56710
 C340 C 0.84189 0.30708 0.58018
 H341 H 1.01785 0.33291 0.56502
 H342 H 0.99036 0.26271 0.59248
 H343 H 0.88372 0.41344 0.52592
 H344 H 0.82748 0.27938 0.59767
 C345 C 0.08247 0.83986 -0.04218
 C346 C 0.09693 0.79811 -0.05262
 C347 C 0.06627 0.76501 -0.06467
 C348 C 0.01931 0.77402 -0.06211
 C349 C 0.00440 0.81701 -0.05197
 C350 C 0.03664 0.85056 -0.04266
 C351 C -0.04241 0.82401 -0.04932
 N352 N -0.07175 0.79042 -0.05501
 N353 N -0.05773 0.75003 -0.06247
 C354 C -0.01339 0.74061 -0.06556
 H355 H 0.10777 0.86447 -0.03462
 H356 H 0.13285 0.79252 -0.05380
 H357 H -0.05652 0.85527 -0.04181
 H358 H -0.00438 0.70676 -0.06887
 C359 C 0.55956 0.67663 1.02052
 C360 C 0.57446 0.71758 1.03425
 C361 C 0.57509 0.72954 1.08037
 C362 C 0.56300 0.69746 1.11352
 C363 C 0.54681 0.65582 1.09922
 C364 C 0.54468 0.64578 1.05219
 C365 C 0.53600 0.62461 1.13275
 N366 N 0.54216 0.63403 1.17730
 N367 N 0.55925 0.67212 1.19064
 C368 C 0.57054 0.70372 1.16042
 H369 H 0.55898 0.66919 0.98452
 H370 H 0.58386 0.74082 1.00815
 H371 H 0.52391 0.59236 1.12428
 H372 H 0.58720 0.73239 1.17360
 C373 C 0.41125 0.45572 1.16119
 C374 C 0.39675 0.43976 1.20303
 C375 C 0.42772 0.42872 1.23716
 C376 C 0.47427 0.43616 1.22962
 C377 C 0.48913 0.45161 1.18667
 C378 C 0.45721 0.46058 1.15203
 C379 C 0.53555 0.45873 1.18030
 N380 N 0.56480 0.45121 1.21487
 N381 N 0.55076 0.43740 1.25538
 C382 C 0.50655 0.42989 1.26403
 H383 H 0.38646 0.46275 1.13513
 H384 H 0.36104 0.43467 1.20842
 H385 H 0.54885 0.47095 1.14854
 H386 H 0.49714 0.42004 1.29797
 C387 C 0.51747 -0.04885 0.31342
 C388 C 0.53064 -0.06334 0.27067
 C389 C 0.57602 -0.07110 0.26105
 C390 C 0.60881 -0.06495 0.29573
 C391 C 0.59553 -0.04904 0.33888
 C392 C 0.54945 -0.04103 0.34754
 C393 C 0.62876 -0.04343 0.37265
 N394 N 0.67214 -0.05375 0.36377
 N395 N 0.68443 -0.06969 0.32367
 C396 C 0.65428 -0.07597 0.28954
 H397 H 0.48205 -0.04351 0.31991
 H398 H 0.50525 -0.06857 0.24470
 H399 H 0.62069 -0.03150 0.40618
 H400 H 0.66619 -0.09042 0.25846
 C401 C -0.08480 1.03968 -0.16897
 C402 C -0.09822 1.05463 -0.21160
 C403 C -0.06642 1.06819 -0.24389
 C404 C -0.01994 1.06430 -0.23362
 C405 C -0.00623 1.04983 -0.18987
 C406 C -0.03916 1.03833 -0.15707
 C407 C 0.04017 1.04616 -0.18094
 N408 N 0.07050 1.05609 -0.21379
 N409 N 0.05760 1.06906 -0.25500
 C410 C 0.01350 1.07323 -0.26612
 H411 H -0.11037 1.03069 -0.14441
 H412 H -0.13386 1.05705 -0.21900
 H413 H 0.05270 1.03471 -0.14855
 H414 H 0.00514 1.08255 -0.30052
 C415 C 1.04247 0.52725 0.68587
 C416 C 1.05692 0.54153 0.72848
 C417 C 1.07285 0.58415 0.73458
 C418 C 1.07446 0.61304 0.69708
 C419 C 1.05906 0.59890 0.65385
 C420 C 1.04395 0.55517 0.64811
 C421 C 1.05865 0.62949 0.61806
 N422 N 1.07486 0.67042 0.62486
 N423 N 1.09120 0.68297 0.66498
 C424 C 1.09165 0.65569 0.70127
 H425 H 1.03094 0.49384 0.68213
 H426 H 1.05572 0.51925 0.75706
 H427 H 1.04509 0.62171 0.58493
 H428 H 1.10567 0.66761 0.73286
 C429 C 0.83637 0.56170 0.57274
 C430 C 0.79353 0.57470 0.58551
 C431 C 0.75833 0.57564 0.55394
 C432 C 0.76619 0.56241 0.50867
 C433 C 0.80979 0.54844 0.49553
 C434 C 0.84547 0.54885 0.52796
 C435 C 0.81529 0.53297 0.45085
 N436 N 0.77999 0.53288 0.42148
 N437 N 0.73942 0.54666 0.43376
 C438 C 0.73126 0.56120 0.47640
 H439 H 0.86284 0.56204 0.59818
 H440 H 0.78770 0.58456 0.62031
 H441 H 0.84678 0.52002 0.43896
 H442 H 0.69744 0.57110 0.48479
 C443 C 0.66972 0.41469 1.02980
 C444 C 0.71326 0.40106 1.03957
 C445 C 0.74696 0.43088 1.05316
 C446 C 0.73642 0.47618 1.05307
 C447 C 0.69138 0.48982 1.04536
 C448 C 0.65790 0.45864 1.03294
 C449 C 0.68157 0.53440 1.05088
 N450 N 0.71529 0.56355 1.05835
 N451 N 0.75807 0.55124 1.06085
 C452 C 0.76981 0.50874 1.05797
 H453 H 0.64482 0.39041 1.02003
 H454 H 0.71964 0.36640 1.03894
 H455 H 0.64761 0.54658 1.04978
 H456 H 0.80523 0.50107 1.05842
 C457 C 0.16884 1.08608 -0.02775
 C458 C 0.21223 1.09981 -0.03867
 C459 C 0.24486 1.07014 -0.05366
 C460 C 0.23371 1.02482 -0.05329
 C461 C 0.18879 1.01102 -0.04416
 C462 C 0.15615 1.04215 -0.03094
 C463 C 0.17824 0.96639 -0.04926
 N464 N 0.21130 0.93736 -0.05781
 N465 N 0.25409 0.94984 -0.06182
 C466 C 0.26646 0.99239 -0.05939
 H467 H 0.14461 1.11032 -0.01737
 H468 H 0.21917 1.13448 -0.03807
 H469 H 0.14425 0.95401 -0.04690
 H470 H 0.30193 1.00021 -0.06111
 C471 C 0.31571 -0.02367 0.45474
 C472 C 0.27390 -0.03740 0.43840
 C473 C 0.26266 -0.08196 0.43509
 C474 C 0.29600 -0.11321 0.44744
 C475 C 0.33746 -0.09901 0.46688
 C476 C 0.34808 -0.05382 0.46866
 C477 C 0.36727 -0.13087 0.48348
 N478 N 0.35867 -0.17369 0.47599
 N479 N 0.32239 -0.18676 0.45300
 C480 C 0.29124 -0.15807 0.43790
 H481 H 0.32314 0.01096 0.45559
 H482 H 0.24966 -0.01267 0.42934
 H483 H 0.39719 -0.12233 0.50256
 H484 H 0.26407 -0.17073 0.41727
 C485 C 0.55817 -0.17678 0.52025
 C486 C 0.57478 -0.21725 0.53315
 C487 C 0.57499 -0.23054 0.57893
 C488 C 0.56005 -0.20047 0.61256
 C489 C 0.54126 -0.15997 0.59904
 C490 C 0.54144 -0.14771 0.55252
 C491 C 0.52304 -0.13292 0.63287
 N492 N 0.52769 -0.14359 0.67732
 N493 N 0.54934 -0.17936 0.69022
 C494 C 0.56615 -0.20776 0.65951
 H495 H 0.55899 -0.16786 0.48460
 H496 H 0.58601 -0.23904 0.50668
 H497 H 0.50497 -0.10352 0.62460
 H498 H 0.58534 -0.23487 0.67234
 C499 C 1.01200 0.68204 0.44788
 C500 C 1.02513 0.72463 0.43735
 C501 C 1.06712 0.73318 0.41768
 C502 C 1.09538 0.69807 0.40595
 C503 C 1.08198 0.65477 0.41637
 C504 C 1.04056 0.64698 0.43884
 C505 C 1.11009 0.62053 0.40276
 N506 N 1.14929 0.62941 0.38099
 N507 N 1.16203 0.67014 0.37156
 C508 C 1.13635 0.70474 0.38308
 H509 H 0.98005 0.67657 0.46471
 H510 H 1.00305 0.75134 0.44579
 H511 H 1.10074 0.58683 0.40823
 H512 H 1.14788 0.73698 0.37357
 C513 C -0.01643 1.18056 0.05519
 C514 C -0.03149 1.22067 0.07101
 C515 C -0.07768 1.23064 0.07189
 C516 C -0.10935 1.19778 0.05868
 C517 C -0.09378 1.15729 0.04178
 C518 C -0.04700 1.14865 0.04064
 C519 C -0.12580 1.12621 0.02708
 N520 N -0.17033 1.13398 0.03214
 N521 N -0.18496 1.17053 0.05115
 C522 C -0.15613 1.20232 0.06508
 H523 H 0.01939 1.17407 0.05511
 H524 H -0.00661 1.24479 0.08112
 H525 H -0.11593 1.09573 0.01177
 H526 H -0.17025 1.22996 0.08239
 C527 C 0.41723 0.34403 0.93942
 C528 C 0.40218 0.30224 0.92848
 C529 C 0.43174 0.26699 0.92893
 C530 C 0.47736 0.27387 0.94124
 C531 C 0.49301 0.31653 0.95179
 C532 C 0.46230 0.35182 0.95150
 C533 C 0.53920 0.32230 0.96125
 N534 N 0.56690 0.28737 0.96229
 N535 N 0.55171 0.24715 0.95428
 C536 C 0.50792 0.23920 0.94388
 H537 H 0.39326 0.37049 0.93902
 H538 H 0.36726 0.29731 0.91895
 H539 H 0.55385 0.35410 0.96721
 H540 H 0.49743 0.20584 0.93812
 C541 C 0.56161 0.57871 0.83318
 C542 C 0.57216 0.59270 0.78950
 C543 C 0.56828 0.56442 0.75242
 C544 C 0.55334 0.52103 0.75956
 C545 C 0.54309 0.50642 0.80422
 C546 C 0.54654 0.53598 0.84126
 C547 C 0.53068 0.46238 0.81012
 N548 N 0.52673 0.43578 0.77352
 N549 N 0.53456 0.45008 0.73151
 C550 C 0.54764 0.49178 0.72327
 H551 H 0.56453 0.60180 0.86089
 H552 H 0.58381 0.62590 0.78448
 H553 H 0.52470 0.44850 0.84332
 H554 H 0.55317 0.50166 0.68844
 C555 C 0.41545 0.04332 0.66731
 C556 C 0.40156 0.05619 0.71032
 C557 C 0.43296 0.06699 0.74408
 C558 C 0.47952 0.06337 0.73455
 C559 C 0.49395 0.05232 0.69003
 C560 C 0.46133 0.04130 0.65619
 C561 C 0.54058 0.05401 0.68111
 N562 N 0.57022 0.06231 0.71522
 N563 N 0.55661 0.06951 0.75756
 C564 C 0.51233 0.07022 0.76840
 H565 H 0.38990 0.03510 0.64233
 H566 H 0.36586 0.05879 0.71705
 H567 H 0.55416 0.04980 0.64752
 H568 H 0.50332 0.07565 0.80347
 C569 C 0.08131 0.96266 0.17133
 C570 C 0.09416 0.95107 0.21519
 C571 C 0.06196 0.94320 0.24889
 C572 C 0.01578 0.94875 0.23838
 C573 C 0.00230 0.95848 0.19310
 C574 C 0.03572 0.96624 0.15927
 C575 C -0.04428 0.95863 0.18348
 N576 N -0.07456 0.95326 0.21746
 N577 N -0.06166 0.94726 0.26035
 C578 C -0.01758 0.94491 0.27197
 H579 H 0.10743 0.96837 0.14634
 H580 H 0.12960 0.94688 0.22257
 H581 H -0.05740 0.96202 0.14950
 H582 H -0.00909 0.94048 0.30741
 C583 C 0.91467 0.45623 0.32971
 C584 C 0.90238 0.44212 0.28642
 C585 C 0.93506 0.43072 0.25435
 C586 C 0.98126 0.43536 0.26579
 C587 C 0.99381 0.44886 0.31023
 C588 C 0.96003 0.45876 0.34248
 C589 C 1.03997 0.45339 0.32038
 N590 N 1.07114 0.44525 0.28799
 N591 N 1.05932 0.43330 0.24612
 C592 C 1.01554 0.42837 0.23383
 H593 H 0.88851 0.46409 0.35387
 H594 H 0.86695 0.43909 0.27813
 H595 H 1.05164 0.46403 0.35342
 H596 H 1.00811 0.41998 0.19896
   
