data_POSCAR
  _audit_creation_date              2014-09-24
  _audit_creation_method            'ToBaCCo'
  _symmetry_space_group_name_H-M    'P1'
  _symmetry_Int_Tables_number       1
  _symmetry_cell_setting            triclinic
  loop_
  _symmetry_equiv_pos_as_xyz
 x,y,z
_cell_length_a 50.5463
_cell_length_b 11.3161
_cell_length_c 11.4935
_cell_angle_alpha 96.746100
_cell_angle_beta 90.224000
_cell_angle_gamma 90.995300
loop_
  _atom_site_label
  _atom_site_type_symbol
  _atom_site_fract_x
  _atom_site_fract_y
  _atom_site_fract_z
C1 C 0.74323 0.15969 0.43472
 C2 C 0.74260 0.15012 0.55210
 C3 C 0.71699 0.14352 0.61435
 C4 C 0.76742 0.15215 0.62102
 C5 C 0.76853 0.16403 0.37238
 C6 C 0.71892 0.18598 0.37150
 C7 C 0.71083 0.22622 0.71048
 C8 C 0.68479 0.23498 0.75150
 C9 C 0.66413 0.16444 0.69365
 C10 C 0.67147 0.07257 0.60654
 C11 C 0.69746 0.06183 0.56885
 C12 C 0.78001 0.26059 0.66123
 C13 C 0.80541 0.26242 0.71034
 C14 C 0.81885 0.15587 0.71919
 C15 C 0.80559 0.04715 0.68092
 C16 C 0.77994 0.04569 0.63493
 C17 C 0.78308 0.06063 0.34590
 C18 C 0.80912 0.06831 0.30747
 C19 C 0.82142 0.17989 0.29995
 C20 C 0.80565 0.28186 0.31488
 C21 C 0.77932 0.27360 0.35001
 C22 C 0.70639 0.09961 0.29155
 C23 C 0.67994 0.11387 0.25926
 C24 C 0.66601 0.21513 0.30584
 C25 C 0.68024 0.30798 0.37236
 C26 C 0.70622 0.29262 0.40566
 H27 H 0.72578 0.28803 0.75007
 H28 H 0.68093 0.30025 0.82569
 H29 H 0.65698 0.01142 0.56259
 H30 H 0.70198 -0.00615 0.49845
 H31 H 0.77051 0.34365 0.65057
 H32 H 0.81508 0.34737 0.73650
 H33 H 0.77035 -0.03832 0.60390
 H34 H 0.77459 -0.02514 0.35926
 H35 H 0.82011 -0.01267 0.28952
 H36 H 0.81356 0.36835 0.30225
 H37 H 0.76771 0.35331 0.36559
 H38 H 0.71646 0.01838 0.26073
 H39 H 0.67011 0.04427 0.20159
 H40 H 0.67136 0.39227 0.40190
 H41 H 0.71615 0.36183 0.46282
 H42 H 0.81528 -0.03721 0.68010
 C43 C 0.25705 0.84330 0.44895
 C44 C 0.25731 0.85677 0.56885
 C45 C 0.23230 0.84637 0.63424
 C46 C 0.28272 0.86789 0.63550
 C47 C 0.28178 0.82495 0.38158
 C48 C 0.23186 0.84014 0.38260
 C49 C 0.22166 0.94495 0.70145
 C50 C 0.19567 0.94023 0.74270
 C51 C 0.17977 0.83657 0.71595
 C52 C 0.19164 0.73495 0.65738
 C53 C 0.21776 0.73951 0.61912
 C54 C 0.30168 0.95466 0.61401
 C55 C 0.32790 0.94634 0.65048
 C56 C 0.33570 0.85181 0.71187
 C57 C 0.31597 0.77138 0.74228
 C58 C 0.28975 0.77979 0.70525
 C59 C 0.29801 0.73051 0.40150
 C60 C 0.32367 0.72563 0.35913
 C61 C 0.33360 0.81311 0.29261
 C62 C 0.31652 0.90297 0.26479
 C63 C 0.29069 0.90835 0.30880
 C64 C 0.22013 0.73141 0.33681
 C65 C 0.19401 0.72749 0.29530
 C66 C 0.17918 0.83233 0.30017
 C67 C 0.19238 0.94201 0.33320
 C68 C 0.21840 0.94560 0.37468
 H69 H 0.23295 1.02724 0.71688
 H70 H 0.18810 1.02020 0.79003
 H71 H 0.18018 0.65347 0.63613
 H72 H 0.22645 0.66177 0.57187
 H73 H 0.29661 1.02397 0.56128
 H74 H 0.34194 1.01035 0.62339
 H75 H 0.27545 0.71211 0.72344
 H76 H 0.29134 0.66478 0.45643
 H77 H 0.33630 0.65587 0.38287
 H78 H 0.32316 0.97236 0.21437
 H79 H 0.27822 0.98131 0.29179
 H80 H 0.23071 0.64928 0.33883
 H81 H 0.18536 0.64211 0.26228
 H82 H 0.18226 1.02513 0.33150
 H83 H 0.22792 1.03021 0.40364
 H84 H 0.32117 0.69759 0.78936
 C85 C 0.24301 0.35351 -0.42670
 C86 C 0.24454 0.34734 -0.54624
 C87 C 0.27032 0.32772 -0.60602
 C88 C 0.22029 0.34879 -0.61939
 C89 C 0.21737 0.33342 -0.36971
 C90 C 0.26733 0.36048 -0.35362
 C91 C 0.28161 0.41468 -0.66818
 C92 C 0.30801 0.40589 -0.70391
 C93 C 0.32370 0.30943 -0.67900
 C94 C 0.31142 0.21916 -0.62198
 C95 C 0.28498 0.22760 -0.58824
 C96 C 0.20136 0.43579 -0.59078
 C97 C 0.17606 0.42274 -0.63809
 C98 C 0.16886 0.32267 -0.71718
 C99 C 0.18917 0.24427 -0.75865
 C100 C 0.21459 0.25679 -0.70907
 C101 C 0.20488 0.22219 -0.39211
 C102 C 0.17879 0.20595 -0.35916
 C103 C 0.16399 0.30245 -0.30627
 C104 C 0.17771 0.41081 -0.27198
 C105 C 0.20424 0.42607 -0.30338
 C106 C 0.27364 0.26701 -0.28905
 C107 C 0.29928 0.25753 -0.24535
 C108 C 0.31898 0.34249 -0.26472
 C109 C 0.31187 0.44010 -0.32305
 C110 C 0.28625 0.45006 -0.36493
 H111 H 0.27048 0.49242 -0.68323
 H112 H 0.31653 0.47735 -0.74725
 H113 H 0.32198 0.14413 -0.59718
 H114 H 0.27620 0.15916 -0.54172
 H115 H 0.20544 0.50920 -0.52456
 H116 H 0.16142 0.48582 -0.60407
 H117 H 0.22924 0.19042 -0.73560
 H118 H 0.21523 0.14851 -0.43810
 H119 H 0.17035 0.11737 -0.37788
 H120 H 0.16778 0.48460 -0.22363
 H121 H 0.21407 0.51147 -0.28128
 H122 H 0.25937 0.19654 -0.28029
 H123 H 0.30376 0.17959 -0.20363
 H124 H 0.32661 0.50549 -0.34228
 H125 H 0.28168 0.52270 -0.41449
 H126 H 0.18567 0.16996 -0.82487
 C127 C -0.24446 0.65160 -0.45474
 C128 C -0.24298 0.66402 -0.57167
 C129 C -0.21705 0.67630 -0.63039
 C130 C -0.26737 0.67267 -0.64154
 C131 C -0.27010 0.66114 -0.39238
 C132 C -0.22037 0.63195 -0.38570
 C133 C -0.19900 0.76424 -0.58332
 C134 C -0.17331 0.76723 -0.62491
 C135 C -0.16460 0.68285 -0.71625
 C136 C -0.18328 0.59858 -0.76880
 C137 C -0.20932 0.59578 -0.72617
 C138 C -0.27954 0.78242 -0.64323
 C139 C -0.30547 0.78748 -0.68515
 C140 C -0.31946 0.68332 -0.73106
 C141 C -0.30591 0.57430 -0.73798
 C142 C -0.28024 0.56943 -0.69329
 C143 C -0.28318 0.55949 -0.36199
 C144 C -0.30942 0.56588 -0.32366
 C145 C -0.32291 0.67509 -0.31211
 C146 C -0.30801 0.77899 -0.32640
 C147 C -0.28210 0.77169 -0.36808
 C148 C -0.20274 0.54286 -0.42734
 C149 C -0.17716 0.54260 -0.38255
 C150 C -0.16887 0.62844 -0.29049
 C151 C -0.18745 0.71160 -0.24194
 C152 C -0.21303 0.71282 -0.28870
 H153 H -0.20450 0.82814 -0.51071
 H154 H -0.15987 0.83540 -0.58382
 H155 H -0.17806 0.53309 -0.84056
 H156 H -0.22303 0.52749 -0.76461
 H157 H -0.26954 0.86299 -0.60467
 H158 H -0.31527 0.87217 -0.67565
 H159 H -0.27082 0.48423 -0.69432
 H160 H -0.27337 0.47483 -0.37173
 H161 H -0.31952 0.48445 -0.30726
 H162 H -0.31604 0.86633 -0.30675
 H163 H -0.27158 0.85218 -0.38420
 H164 H -0.20802 0.47969 -0.50167
 H165 H -0.16350 0.48007 -0.42657
 H166 H -0.18164 0.78199 -0.17428
 H167 H -0.22626 0.78306 -0.25558
 H168 H -0.31522 0.49074 -0.77119
 N169 N 0.02516 1.14893 0.20885
 N170 N 0.04842 1.15941 0.26149
 N171 N -0.03241 1.19612 0.13494
 N172 N -0.05652 1.23988 0.13928
 N173 N -0.03012 1.11735 0.20953
 N174 N -0.05243 1.10633 0.26638
 N175 N 0.02339 1.22598 0.13210
 N176 N 0.04557 1.28952 0.13062
 C177 C 0.06080 1.24834 0.21345
 C178 C -0.06865 1.18404 0.22282
 N179 N -0.03257 1.09597 -0.20181
 N180 N -0.05562 1.08110 -0.25660
 N181 N 0.02206 1.21334 -0.11962
 N182 N 0.04370 1.28120 -0.11966
 N183 N 0.02258 1.12771 -0.20711
 N184 N 0.04417 1.13623 -0.26899
 N185 N -0.03376 1.18335 -0.11594
 N186 N -0.05767 1.22912 -0.11022
 Mn187 Mn -0.00516 1.20642 0.00813
 C188 C -0.07101 1.16559 -0.19938
 C189 C 0.05716 1.23254 -0.21481
 N190 N -0.02399 0.86254 0.19258
 N191 N -0.04637 0.85221 0.24943
 N192 N 0.03363 0.81063 0.10575
 N193 N 0.05787 0.76794 0.10436
 N194 N 0.03119 0.89574 0.19287
 N195 N 0.05344 0.91221 0.25285
 N196 N -0.02215 0.77599 0.10631
 N197 N -0.04341 0.70570 0.10214
 Mn198 Mn 0.00049 1.00630 0.20211
 C199 C -0.05817 0.75339 0.19304
 C200 C 0.06990 0.83185 0.19759
 N201 N 0.02982 0.87419 -0.22196
 N202 N 0.05257 0.88776 -0.27563
 N203 N -0.02323 0.76304 -0.14443
 N204 N -0.04476 0.69493 -0.14524
 N205 N -0.02577 0.84136 -0.21937
 N206 N -0.04891 0.82783 -0.27280
 N207 N 0.03227 0.79642 -0.14626
 N208 N 0.05659 0.75562 -0.14735
 Mn209 Mn -0.00154 0.98452 -0.21389
 Mn210 Mn 0.00522 0.78498 -0.01989
 Cl211 Cl -0.00026 0.99557 -0.00598
 C212 C 0.06897 0.81162 -0.22985
 C213 C -0.06045 0.73543 -0.22692
 N214 N 0.53243 0.64161 0.20686
 N215 N 0.55525 0.63558 0.26174
 N216 N 0.47885 0.74166 0.12812
 N217 N 0.45712 0.80502 0.12654
 N218 N 0.47738 0.67108 0.21095
 N219 N 0.45495 0.68612 0.26809
 N220 N 0.53456 0.71305 0.12495
 N221 N 0.55898 0.75653 0.12239
 C222 C 0.57155 0.70938 0.20990
 C223 C 0.44266 0.77100 0.21609
 N224 N 0.47483 0.61833 -0.20445
 N225 N 0.45222 0.62354 -0.26139
 N226 N 0.53323 0.68129 -0.12739
 N227 N 0.55747 0.72658 -0.12995
 N228 N 0.53027 0.58991 -0.20845
 N229 N 0.55238 0.57149 -0.26806
 N230 N 0.47765 0.71039 -0.12410
 N231 N 0.45695 0.78012 -0.12474
 Mn232 Mn 0.50612 0.71324 0.00041
 C233 C 0.44137 0.72549 -0.21169
 C234 C 0.56910 0.65800 -0.21901
 N235 N 0.46948 0.41829 0.21169
 N236 N 0.44747 0.43450 0.27260
 N237 N 0.52235 0.29737 0.12760
 N238 N 0.54326 0.22868 0.12917
 N239 N 0.52452 0.38872 0.20897
 N240 N 0.54669 0.38364 0.26819
 N241 N 0.46689 0.32579 0.13165
 N242 N 0.44303 0.27715 0.13638
 Mn243 Mn 0.50096 0.53017 0.21083
 C244 C 0.43123 0.34516 0.22539
 C245 C 0.55805 0.28276 0.21909
 N246 N 0.52265 0.33738 -0.20699
 N247 N 0.54503 0.32288 -0.26446
 N248 N 0.46561 0.29434 -0.12040
 N249 N 0.44108 0.25286 -0.11573
 N250 N 0.46768 0.36550 -0.20254
 N251 N 0.44476 0.37303 -0.25583
 N252 N 0.52136 0.26678 -0.12411
 N253 N 0.54319 0.20399 -0.12272
 Mn254 Mn 0.49883 0.47759 -0.20686
 Mn255 Mn 0.49403 0.29435 0.00352
 Cl256 Cl 0.49998 0.50388 0.00204
 C257 C 0.55757 0.23874 -0.21227
 C258 C 0.42844 0.30106 -0.20224
 C259 C 0.35182 0.31226 0.29669
 C260 C 0.35813 0.33690 0.17053
 C261 C 0.38441 0.34923 0.14895
 C262 C 0.40236 0.33400 0.25394
 C263 C 0.39244 0.42490 0.35322
 C264 C 0.36617 0.41350 0.37544
 C265 C 0.36812 0.20011 0.31221
 C266 C 0.39443 0.21242 0.29033
 H267 H 0.34322 0.34411 0.10356
 H268 H 0.39182 0.36901 0.06488
 H269 H 0.40494 0.49190 0.40282
 H270 H 0.35650 0.47026 0.44472
 H271 H 0.36026 0.11578 0.33321
 H272 H 0.40823 0.14081 0.29575
 C273 C -0.13706 0.68872 0.25076
 C274 C -0.12565 0.59808 0.15290
 C275 C -0.09922 0.61627 0.13269
 C276 C -0.08679 0.72303 0.21142
 C277 C -0.10414 0.82820 0.19099
 C278 C -0.13017 0.81038 0.21048
 C279 C -0.11871 0.67707 0.35615
 C280 C -0.09265 0.69687 0.33632
 H281 H -0.13665 0.52533 0.10430
 H282 H -0.08827 0.55961 0.06770
 H283 H -0.09672 0.90748 0.15632
 H284 H -0.14481 0.87469 0.19178
 H285 H -0.12546 0.64376 0.43566
 H286 H -0.07744 0.68461 0.40059
 C287 C 0.65234 0.68935 0.24748
 C288 C 0.63855 0.57725 0.18317
 C289 C 0.61193 0.58682 0.17256
 C290 C 0.60113 0.70728 0.22377
 C291 C 0.61061 0.72454 0.35135
 C292 C 0.63721 0.71520 0.36368
 C293 C 0.64398 0.78892 0.17448
 C294 C 0.61720 0.79872 0.16267
 H295 H 0.64859 0.50382 0.13437
 H296 H 0.59996 0.52018 0.11999
 H297 H 0.59760 0.74441 0.42577
 H298 H 0.64684 0.72803 0.44886
 H299 H 0.65787 0.84324 0.13134
 H300 H 0.60842 0.86282 0.11150
 C301 C 0.14101 1.30018 0.25795
 C302 C 0.13261 1.17966 0.18895
 C303 C 0.10601 1.16570 0.17368
 C304 C 0.08994 1.27176 0.22815
 C305 C 0.09843 1.29065 0.35679
 C306 C 0.12492 1.30454 0.37233
 C307 C 0.12820 1.39400 0.18952
 C308 C 0.10148 1.37935 0.17417
 H309 H 0.14571 1.10973 0.15448
 H310 H 0.09712 1.08647 0.12568
 H311 H 0.08478 1.29414 0.42977
 H312 H 0.13373 1.32080 0.45889
 H313 H 0.13929 1.46441 0.15400
 H314 H 0.08985 1.43762 0.12639
 C315 C 0.63630 0.18434 -0.27959
 C316 C 0.62581 0.10657 -0.19662
 C317 C 0.59817 0.12273 -0.17160
 C318 C 0.58634 0.21395 -0.23418
 C319 C 0.60254 0.32095 -0.20272
 C320 C 0.62993 0.30558 -0.22873
 C321 C 0.61889 0.16298 -0.38296
 C322 C 0.59151 0.17813 -0.35765
 H323 H 0.63769 0.04395 -0.15526
 H324 H 0.58757 0.07278 -0.11089
 H325 H 0.59461 0.40620 -0.16758
 H326 H 0.64345 0.38141 -0.22143
 H327 H 0.62566 0.14394 -0.47231
 H328 H 0.57638 0.16839 -0.42571
 C329 C 0.14992 0.83304 -0.26374
 C330 C 0.14060 0.73146 -0.19476
 C331 C 0.11378 0.72167 -0.18488
 C332 C 0.09855 0.81583 -0.24337
 C333 C 0.11045 0.93504 -0.18830
 C334 C 0.13718 0.94456 -0.19831
 C335 C 0.13469 0.81101 -0.38096
 C336 C 0.10796 0.80221 -0.37049
 H337 H 0.15399 0.67562 -0.15270
 H338 H 0.10445 0.65560 -0.13650
 H339 H 0.09893 1.00271 -0.13782
 H340 H 0.14782 1.02065 -0.15408
 H341 H 0.14440 0.79987 -0.46527
 H342 H 0.09484 0.78487 -0.44581
 C343 C 0.36471 0.82454 -0.26720
 C344 C 0.38583 0.92053 -0.28772
 C345 C 0.41120 0.88713 -0.27057
 C346 C 0.41344 0.76158 -0.23421
 C347 C 0.39588 0.76206 -0.12550
 C348 C 0.37056 0.79577 -0.14212
 C349 C 0.37324 0.71305 -0.34718
 C350 C 0.39858 0.68030 -0.33032
 H351 H 0.38174 1.00860 -0.31004
 H352 H 0.42809 0.94582 -0.27986
 H353 H 0.40278 0.73637 -0.04289
 H354 H 0.35602 0.80085 -0.07256
 H355 H 0.36037 0.66433 -0.41257
 H356 H 0.40713 0.60348 -0.38104
 C357 C -0.15166 1.16036 -0.25123
 C358 C -0.14019 1.04460 -0.21501
 C359 C -0.11361 1.04912 -0.19772
 C360 C -0.10051 1.16840 -0.21666
 C361 C -0.10872 1.19138 -0.34012
 C362 C -0.13535 1.18840 -0.35746
 C363 C -0.14247 1.25635 -0.15195
 C364 C -0.11565 1.26118 -0.13440
 H365 H -0.15193 0.96998 -0.19166
 H366 H -0.10315 0.97795 -0.16296
 H367 H -0.09496 1.21732 -0.40522
 H368 H -0.14426 1.21577 -0.43565
 H369 H -0.15581 1.31401 -0.09883
 H370 H -0.10628 1.32373 -0.06725
 C371 C 0.64890 0.67629 -0.28855
 C372 C 0.63386 0.79296 -0.29934
 C373 C 0.60749 0.78639 -0.27679
 C374 C 0.59814 0.66464 -0.24611
 C375 C 0.60706 0.57633 -0.34972
 C376 C 0.63339 0.58308 -0.37216
 C377 C 0.64222 0.64587 -0.16496
 C378 C 0.61581 0.64004 -0.14306
 H379 H 0.64216 0.87199 -0.32941
 H380 H 0.59431 0.85961 -0.28553
 H381 H 0.59377 0.51639 -0.40349
 H382 H 0.64231 0.53050 -0.44611
 H383 H 0.65701 0.63074 -0.09978
 H384 H 0.60810 0.61948 -0.05991
 C385 C 0.13599 1.28888 -0.28396
 C386 C 0.11876 1.39849 -0.29805
 C387 C 0.09250 1.38238 -0.27419
 C388 C 0.08577 1.25829 -0.23986
 C389 C 0.09623 1.17196 -0.34178
 C390 C 0.12205 1.18803 -0.36508
 C391 C 0.13035 1.26024 -0.15894
 C392 C 0.10422 1.24434 -0.13617
 H393 H 0.12626 1.47994 -0.32829
 H394 H 0.07790 1.45023 -0.28223
 H395 H 0.08401 1.10931 -0.39824
 H396 H 0.13058 1.14107 -0.44302
 H397 H 0.14562 1.25378 -0.09336
 H398 H 0.09721 1.22424 -0.05163
 C399 C 0.34811 0.32496 -0.24034
 C400 C 0.36302 0.29007 -0.35538
 C401 C 0.38955 0.27998 -0.34236
 C402 C 0.39902 0.30499 -0.21507
 C403 C 0.38866 0.42890 -0.17112
 C404 C 0.36214 0.43923 -0.18345
 C405 C 0.35597 0.22966 -0.16103
 C406 C 0.38268 0.21917 -0.14830
 H407 H 0.35327 0.27087 -0.43979
 H408 H 0.40246 0.25337 -0.41572
 H409 H 0.40106 0.50119 -0.12948
 H410 H 0.35196 0.52035 -0.15186
 H411 H 0.34221 0.17857 -0.11395
 H412 H 0.39124 0.15796 -0.09325
 C413 C -0.13953 0.65144 -0.26751
 C414 C -0.12937 0.74395 -0.34491
 C415 C -0.10318 0.76968 -0.33366
 C416 C -0.08921 0.70285 -0.24306
 C417 C -0.10526 0.73112 -0.13005
 C418 C -0.13156 0.70341 -0.14224
 C419 C -0.12128 0.54337 -0.29436
 C420 C -0.09498 0.57075 -0.28217
 H421 H -0.14203 0.78857 -0.40173
 H422 H -0.09363 0.83459 -0.38276
 H423 H -0.09657 0.77010 -0.04783
 H424 H -0.14516 0.71599 -0.06918
 H425 H -0.12828 0.45202 -0.31315
 H426 H -0.07984 0.50359 -0.29355
 C427 C 0.36289 0.81077 0.26412
 C428 C 0.37460 0.89919 0.18420
 C429 C 0.40132 0.88927 0.16814
 C430 C 0.41369 0.79149 0.23216
 C431 C 0.40601 0.82241 0.36067
 C432 C 0.37957 0.83303 0.37721
 C433 C 0.37126 0.68823 0.20513
 C434 C 0.39769 0.67807 0.18926
 H435 H 0.36326 0.96141 0.14041
 H436 H 0.41236 0.94389 0.11302
 H437 H 0.42019 0.83809 0.43231
 H438 H 0.37120 0.85898 0.46297
 H439 H 0.35745 0.61638 0.17524
 H440 H 0.40639 0.59757 0.14603
 C441 C -0.14884 1.18686 0.28019
 C442 C -0.13343 1.10489 0.35331
 C443 C -0.10696 1.10542 0.33565
 C444 C -0.09787 1.18701 0.24519
 C445 C -0.11441 1.14604 0.13492
 C446 C -0.14100 1.14627 0.15303
 C447 C -0.13500 1.31013 0.31021
 C448 C -0.10840 1.30978 0.29091
 H449 H -0.14253 1.05043 0.41435
 H450 H -0.09384 1.05205 0.38225
 H451 H -0.10583 1.11650 0.05041
 H452 H -0.15515 1.11820 0.08350
 H453 H -0.14455 1.38993 0.34957
 H454 H -0.09592 1.38865 0.31103
 C455 C 0.63654 0.22641 0.28291
 C456 C 0.61935 0.11192 0.28314
 C457 C 0.59302 0.12756 0.26134
 C458 C 0.58646 0.25603 0.24179
 C459 C 0.59709 0.33185 0.35191
 C460 C 0.62289 0.31566 0.37392
 C461 C 0.63086 0.26893 0.16359
 C462 C 0.60475 0.28397 0.14197
 H463 H 0.62699 0.02756 0.30311
 H464 H 0.57834 0.05633 0.26078
 H465 H 0.58472 0.38278 0.41570
 H466 H 0.63127 0.34892 0.45841
 H467 H 0.64604 0.28128 0.09929
 H468 H 0.59766 0.30861 0.05903
 C469 C 0.14956 0.82907 0.27284
 C470 C 0.13455 0.71241 0.29056
 C471 C 0.10821 0.71261 0.26496
 C472 C 0.09898 0.82959 0.22529
 C473 C 0.10783 0.92555 0.32457
 C474 C 0.13407 0.92496 0.34933
 C475 C 0.14321 0.84992 0.14617
 C476 C 0.11682 0.85026 0.12149
 H477 H 0.14317 0.63938 0.32859
 H478 H 0.09496 0.63906 0.27865
 H479 H 0.09461 0.98671 0.37428
 H480 H 0.14271 0.98391 0.42103
 H481 H 0.15818 0.86429 0.08159
 H482 H 0.10926 0.86553 0.03637
   
