data_POSCAR
  _audit_creation_date              2014-09-24
  _audit_creation_method            'ToBaCCo'
  _symmetry_space_group_name_H-M    'P1'
  _symmetry_Int_Tables_number       1
  _symmetry_cell_setting            triclinic
  loop_
  _symmetry_equiv_pos_as_xyz
 x,y,z
_cell_length_a 32.3045
_cell_length_b 34.7480
_cell_length_c 32.1953
_cell_angle_alpha 91.935000
_cell_angle_beta 96.951300
_cell_angle_gamma 91.562700
loop_
  _atom_site_label
  _atom_site_type_symbol
  _atom_site_fract_x
  _atom_site_fract_y
  _atom_site_fract_z
N1 N 0.17700 1.27428 0.16826
 N2 N 0.15621 1.27720 0.20081
 C3 C 0.13027 1.30692 0.19586
 C4 C 0.13473 1.32295 0.15764
 C5 C 0.16475 1.30147 0.14119
 H6 H 0.10836 1.31479 0.21730
 H7 H 0.17605 1.30465 0.11115
 Cu8 Cu 0.16170 1.23805 0.24279
 Cu9 Cu 0.21571 1.23336 0.16123
 Cu10 Cu 0.24797 1.18607 0.25237
 N11 N 0.17083 1.20005 0.28560
 N12 N 0.20531 1.18055 0.28999
 C13 C 0.20379 1.15596 0.32121
 C14 C 0.16570 1.15955 0.33656
 C15 C 0.14568 1.18788 0.31320
 H16 H 0.22776 1.13572 0.33029
 H17 H 0.11474 1.19823 0.31558
 N18 N 0.27754 1.18331 0.20225
 N19 N 0.26523 1.20156 0.16783
 C20 C 0.29092 1.19360 0.13902
 C21 C 0.32039 1.16859 0.15581
 C22 C 0.31090 1.16242 0.19585
 H23 H 0.28756 1.20421 0.10764
 H24 H 0.32673 1.14371 0.21837
 H25 H 0.20169 1.19311 0.20515
 H26 H 0.23242 1.23799 0.22363
 N27 N 0.83349 0.72363 0.14789
 N28 N 0.85286 0.71492 0.18451
 C29 C 0.87347 0.68221 0.18028
 C30 C 0.86698 0.66980 0.13863
 C31 C 0.84159 0.69689 0.11891
 H32 H 0.89309 0.66938 0.20536
 H33 H 0.83037 0.69743 0.08589
 Cu34 Cu 0.85264 0.74878 0.23359
 Cu35 Cu 0.80120 0.77017 0.14070
 Cu36 Cu 0.78130 0.81638 0.23324
 N37 N 0.85726 0.78989 0.27652
 N38 N 0.82811 0.81543 0.27735
 C39 C 0.83876 0.84065 0.30975
 C40 C 0.87730 0.83101 0.32977
 C41 C 0.88797 0.79833 0.30791
 H42 H 0.82097 0.86552 0.31660
 H43 H 0.91628 0.78242 0.31341
 N44 N 0.75054 0.82633 0.17848
 N45 N 0.75842 0.80958 0.14298
 C46 C 0.73351 0.82432 0.11110
 C47 C 0.70933 0.85198 0.12754
 C48 C 0.72099 0.85239 0.17025
 H49 H 0.73367 0.81618 0.07842
 H50 H 0.70944 0.87097 0.19362
 H51 H 0.82409 0.80276 0.19452
 H52 H 0.78383 0.76395 0.19833
 N53 N 0.75492 1.27166 -0.19485
 N54 N 0.78209 1.27580 -0.22171
 C55 C 0.80701 1.30697 -0.20993
 C56 C 0.79506 1.32286 -0.17337
 C57 C 0.76160 1.29989 -0.16498
 H58 H 0.83405 1.31538 -0.22471
 H59 H 0.74497 1.30199 -0.13782
 Cu60 Cu 0.78635 1.23642 -0.26520
 Cu61 Cu 0.71655 1.22730 -0.19810
 Cu62 Cu 0.75046 1.14660 -0.24921
 N63 N 0.80454 1.19178 -0.29471
 N64 N 0.79188 1.15659 -0.28764
 C65 C 0.81214 1.13143 -0.31013
 C66 C 0.83904 1.15209 -0.33228
 C67 C 0.83311 1.19038 -0.32170
 H68 H 0.80810 1.10043 -0.30994
 H69 H 0.84913 1.21553 -0.33160
 N70 N 0.70804 1.14386 -0.20950
 N71 N 0.69456 1.17507 -0.19157
 C72 C 0.66707 1.16479 -0.16560
 C73 C 0.66277 1.12516 -0.16688
 C74 C 0.68908 1.11263 -0.19524
 H75 H 0.65247 1.18471 -0.14578
 H76 H 0.69491 1.08310 -0.20382
 H77 H 0.76600 1.19521 -0.21148
 H78 H 0.72319 1.19828 -0.25543
 N79 N 0.19608 0.71344 -0.16136
 N80 N 0.16180 0.71818 -0.18689
 C81 C 0.13388 0.68972 -0.18157
 C82 C 0.15194 0.66580 -0.15142
 C83 C 0.19140 0.68178 -0.13936
 H84 H 0.10252 0.68691 -0.19772
 H85 H 0.21430 0.67223 -0.11489
 Cu86 Cu 0.15722 0.76193 -0.22333
 Cu87 Cu 0.24245 0.75084 -0.15445
 Cu88 Cu 0.23530 0.82891 -0.21859
 N89 N 0.15361 0.80595 -0.25936
 N90 N 0.18455 0.83156 -0.25768
 C91 C 0.17392 0.85924 -0.28480
 C92 C 0.13412 0.85071 -0.30463
 C93 C 0.12218 0.81650 -0.28776
 H94 H 0.19341 0.88421 -0.28925
 H95 H 0.09275 0.80075 -0.29505
 N96 N 0.28397 0.82116 -0.17672
 N97 N 0.28614 0.79171 -0.15180
 C98 C 0.31906 0.79755 -0.12217
 C99 C 0.33868 0.83226 -0.12875
 C100 C 0.31590 0.84627 -0.16385
 H101 H 0.32649 0.77930 -0.09595
 H102 H 0.31992 0.87444 -0.17636
 H103 H 0.20865 0.79818 -0.17431
 H104 H 0.23304 0.76998 -0.21484
 C105 C 0.47873 1.03917 0.05223
 C106 C 0.51559 1.02068 0.07758
 C107 C 0.54117 1.00136 0.05385
 C108 C 0.52758 1.00293 0.00632
 C109 C 0.49879 1.06480 0.02183
 C110 C 0.52497 1.04628 -0.00182
 C111 C 0.45687 1.00631 0.02468
 C112 C 0.48205 0.98756 0.00045
 H113 H 0.51926 1.02106 0.11144
 H114 H 0.54808 0.98718 -0.01327
 H115 H 0.49244 1.09505 0.01950
 H116 H 0.42386 0.99923 0.02358
 C117 C 0.01936 0.46435 1.00389
 C118 C 0.04225 0.49005 0.97576
 C119 C 0.01708 0.51260 0.95039
 C120 C -0.02952 0.50713 0.95578
 C121 C -0.00550 0.49252 1.02802
 C122 C -0.03106 0.51533 1.00312
 C123 C -0.01356 0.44158 0.97437
 C124 C -0.03899 0.46365 0.94925
 H125 H 0.07597 0.49161 0.97771
 H126 H -0.05117 0.52381 0.93478
 H127 H -0.00175 0.49525 1.06188
 H128 H -0.01689 0.41043 0.97390
 C129 C 1.03343 0.04602 0.48155
 C130 C 1.00414 0.06533 0.50938
 C131 C 0.98388 0.04058 0.53269
 C132 C 0.99582 -0.00178 0.52641
 C133 C 1.06327 0.02385 0.51203
 C134 C 1.04379 -0.00103 0.53582
 C135 C 1.00650 0.01487 0.45575
 C136 C 0.98695 -0.01001 0.47902
 H137 H 0.99989 0.09615 0.51028
 H138 H 0.98019 -0.02288 0.54483
 H139 H 1.09682 0.02718 0.51386
 H140 H 1.00277 0.01300 0.42182
 C141 C 0.09554 0.38566 1.07483
 C142 C 0.06595 0.40674 1.09365
 N143 N 0.06015 0.40024 1.13395
 C144 C 0.08240 0.37339 1.15619
 C145 C 0.11208 0.35207 1.13727
 N146 N 0.11789 0.35921 1.09702
 N147 N 0.10046 0.39092 1.03419
 C148 C 0.07705 0.41636 1.01133
 C149 C 0.04761 0.43808 1.03003
 N150 N 0.04270 0.43250 1.07093
 H151 H 0.07678 0.36886 1.18812
 H152 H 0.08098 0.41929 0.97867
 C153 C -0.09607 0.60491 1.05764
 C154 C -0.07586 0.57683 1.08215
 N155 N -0.07556 0.57890 1.12432
 C156 C -0.09427 0.60809 1.14324
 C157 C -0.11420 0.63668 1.11890
 N158 N -0.11481 0.63415 1.07647
 N159 N -0.09567 0.60301 1.01551
 C160 C -0.07580 0.57439 0.99674
 C161 C -0.05517 0.54618 1.02126
 N162 N -0.05604 0.54836 1.06350
 H163 H -0.09342 0.60887 1.17693
 H164 H -0.07566 0.57455 0.96326
 C165 C -0.12962 0.40238 0.86581
 C166 C -0.12881 0.39950 0.90927
 N167 N -0.15505 0.37406 0.92468
 C168 C -0.18160 0.35065 0.89861
 C169 C -0.18106 0.35188 0.85505
 N170 N -0.15519 0.37807 0.83966
 N171 N -0.10346 0.42824 0.85060
 C172 C -0.07583 0.45065 0.87697
 C173 C -0.07345 0.44607 0.92033
 N174 N -0.10032 0.42078 0.93538
 H175 H -0.20138 0.33004 0.91199
 H176 H -0.05445 0.47026 0.86421
 C177 C 0.07122 0.59894 0.88159
 C178 C 0.09585 0.57395 0.90654
 N179 N 0.13798 0.57828 0.91072
 C180 C 0.15676 0.60695 0.89152
 C181 C 0.13231 0.63271 0.86709
 N182 N 0.08993 0.62777 0.86237
 N183 N 0.02901 0.59460 0.87803
 C184 C 0.01029 0.56670 0.89873
 C185 C 0.03497 0.54198 0.92452
 N186 N 0.07726 0.54637 0.92722
 H187 H 0.19045 0.60961 0.89561
 H188 H -0.02333 0.56449 0.89514
 C189 C 1.09012 0.11989 0.39993
 C190 C 1.11377 0.09300 0.42318
 N191 N 1.15452 0.08909 0.41796
 C192 C 1.17269 0.11067 0.39025
 C193 C 1.14904 0.13772 0.36669
 N194 N 1.10828 0.14169 0.37258
 N195 N 1.04901 0.12287 0.40398
 C196 C 1.03041 0.10009 0.43029
 C197 C 1.05407 0.07336 0.45418
 N198 N 1.09533 0.07048 0.44975
 H199 H 1.20519 0.10660 0.38692
 H200 H 0.99737 0.10251 0.43223
 C201 C 1.10898 -0.07063 0.62589
 C202 C 1.06852 -0.08127 0.60759
 N203 N 1.05033 -0.11447 0.61863
 C204 C 1.07079 -0.13754 0.64717
 C205 C 1.11152 -0.12694 0.66565
 N206 N 1.12937 -0.09355 0.65428
 N207 N 1.12726 -0.03747 0.61513
 C208 C 1.10707 -0.01448 0.58654
 C209 C 1.06657 -0.02513 0.56755
 N210 N 1.04821 -0.05831 0.57895
 H211 H 1.05523 -0.16373 0.65513
 H212 H 1.12247 0.01206 0.57936
 C213 C 0.90829 -0.09161 0.40723
 C214 C 0.95032 -0.09945 0.41925
 N215 N 0.96656 -0.13175 0.40376
 C216 C 0.94297 -0.15619 0.37597
 C217 C 0.90134 -0.14739 0.36200
 N218 N 0.88504 -0.11543 0.37870
 N219 N 0.89201 -0.05922 0.42255
 C220 C 0.91622 -0.03379 0.44861
 C221 C 0.95870 -0.04073 0.45911
 N222 N 0.97477 -0.07357 0.44435
 H223 H 0.95730 -0.18130 0.36394
 H224 H 0.90300 -0.00751 0.45937
 C225 C 0.89737 0.08342 0.61108
 C226 C 0.92307 0.10821 0.59136
 N227 N 0.92036 0.14682 0.59687
 C228 C 0.89310 0.16198 0.62140
 C229 C 0.86711 0.13736 0.64163
 N230 N 0.87001 0.09845 0.63574
 N231 N 0.90021 0.04473 0.60516
 C232 C 0.92766 0.02973 0.58045
 C233 C 0.95367 0.05463 0.56064
 N234 N 0.95034 0.09334 0.56683
 H235 H 0.89210 0.19296 0.62480
 H236 H 0.92846 -0.00116 0.57620
 C237 C 0.39410 1.09633 0.12393
 C238 C 0.41007 1.11449 0.09073
 N239 N 0.39729 1.15006 0.08005
 C240 C 0.36891 1.16829 0.10090
 C241 C 0.35274 1.15027 0.13419
 N242 N 0.36600 1.11468 0.14509
 N243 N 0.40601 1.06021 0.13359
 C244 C 0.43319 1.04142 0.11152
 C245 C 0.44969 1.05972 0.07849
 N246 N 0.43741 1.09590 0.06902
 H247 H 0.35918 1.19660 0.09159
 H248 H 0.44170 1.01243 0.11946
 C249 C 0.59691 1.10438 -0.08367
 C250 C 0.59081 1.06428 -0.08739
 N251 N 0.60843 1.04424 -0.11742
 C252 C 0.63184 1.06261 -0.14378
 C253 C 0.63772 1.10292 -0.14002
 N254 N 0.61993 1.12256 -0.10991
 N255 N 0.58022 1.12466 -0.05355
 C256 C 0.55720 1.10680 -0.02695
 C257 C 0.55005 1.06651 -0.03069
 N258 N 0.56752 1.04618 -0.06085
 H259 H 0.64549 1.04597 -0.16734
 H260 H 0.54553 1.12419 -0.00278
 C261 C 0.41999 0.90555 -0.08592
 C262 C 0.41978 0.90167 -0.04269
 N263 N 0.39594 0.87339 -0.02862
 C264 C 0.37150 0.84919 -0.05580
 C265 C 0.36973 0.85424 -0.09915
 N266 N 0.39440 0.88224 -0.11319
 N267 N 0.44430 0.93376 -0.09978
 C268 C 0.46754 0.95887 -0.07232
 C269 C 0.46524 0.95637 -0.02923
 N270 N 0.44163 0.92755 -0.01550
 H271 H 0.35208 0.82756 -0.04351
 H272 H 0.48562 0.98187 -0.08408
 C273 C 0.63752 0.93247 0.10902
 C274 C 0.61993 0.92509 0.06744
 N275 N 0.63266 0.89438 0.04554
 C276 C 0.66197 0.87057 0.06354
 C277 C 0.67890 0.87750 0.10557
 N278 N 0.66622 0.90852 0.12707
 N279 N 0.62531 0.96319 0.13098
 C280 C 0.59554 0.98656 0.11358
 C281 C 0.57645 0.97860 0.07235
 N282 N 0.58969 0.94818 0.05007
 H283 H 0.67124 0.84617 0.04548
 H284 H 0.58697 1.01099 0.13202
   
