data_POSCAR
  _audit_creation_date              2014-09-24
  _audit_creation_method            'ToBaCCo'
  _symmetry_space_group_name_H-M    'P1'
  _symmetry_Int_Tables_number       1
  _symmetry_cell_setting            triclinic
  loop_
  _symmetry_equiv_pos_as_xyz
 x,y,z
_cell_length_a 30.8974
_cell_length_b 31.9651
_cell_length_c 30.7637
_cell_angle_alpha 90.782900
_cell_angle_beta 89.885200
_cell_angle_gamma 89.125100
loop_
  _atom_site_label
  _atom_site_type_symbol
  _atom_site_fract_x
  _atom_site_fract_y
  _atom_site_fract_z
C1 C 0.25426 1.12757 -0.03479
 C2 C 0.27008 1.11766 0.00590
 C3 C 0.28063 1.07538 0.00439
 N4 N 0.27228 1.05940 -0.03551
 C5 C 0.25589 1.09094 -0.05942
 C6 C 0.30039 1.05214 0.03774
 C7 C 0.30761 1.00858 0.03428
 C8 C 0.33650 0.98642 0.05999
 C9 C 0.33029 0.94475 0.05109
 C10 C 0.29738 0.94260 0.02065
 N11 N 0.28414 0.98167 0.00998
 C12 C 0.27726 0.90524 0.00700
 C13 C 0.25481 0.90225 -0.03252
 C14 C 0.23122 0.86818 -0.04676
 C15 C 0.21569 0.87818 -0.08743
 C16 C 0.23062 0.91784 -0.09613
 N17 N 0.25476 0.93219 -0.06286
 C18 C 0.22459 0.93989 -0.13478
 C19 C 0.23834 0.98132 -0.13933
 C20 C 0.24691 0.99966 -0.17878
 C21 C 0.25374 1.04130 -0.17020
 C22 C 0.24757 1.04760 -0.12578
 N23 N 0.23928 1.01048 -0.10704
 C24 C 0.24571 1.08712 -0.10396
 H25 H 0.24351 1.15821 -0.04524
 H26 H 0.27392 1.13907 0.03311
 H27 H 0.22859 1.00632 -0.07527
 H28 H 0.35911 0.99901 0.08341
 H29 H 0.34757 0.91901 0.06602
 H30 H 0.22590 0.83930 -0.02971
 H31 H 0.19605 0.85860 -0.10823
 H32 H 0.26223 1.06401 -0.19436
 H33 H 0.25652 0.98924 -0.00776
 H34 H 0.24784 0.98452 -0.21047
 C35 C 0.76917 0.48601 0.67232
 C36 C 0.76958 0.52891 0.67147
 C37 C 0.75636 0.54041 0.63034
 N38 N 0.74733 0.50607 0.60610
 C39 C 0.75497 0.47258 0.63177
 C40 C 0.74929 0.58218 0.61769
 C41 C 0.74120 0.59364 0.57390
 C42 C 0.72200 0.63082 0.56054
 C43 C 0.72219 0.63019 0.51568
 C44 C 0.74132 0.59257 0.50266
 N45 N 0.75262 0.57050 0.53841
 C46 C 0.74931 0.57942 0.45901
 C47 C 0.75753 0.53746 0.44743
 C48 C 0.77080 0.52441 0.40631
 C49 C 0.77297 0.48171 0.40701
 C50 C 0.76073 0.47029 0.44844
 N51 N 0.75087 0.50432 0.47320
 C52 C 0.75667 0.42873 0.46141
 C53 C 0.74605 0.41751 0.50442
 C54 C 0.72859 0.37968 0.51655
 C55 C 0.72589 0.38044 0.56122
 C56 C 0.74146 0.41878 0.57505
 N57 N 0.75367 0.44123 0.54025
 C58 C 0.74684 0.43053 0.61904
 H59 H 0.77916 0.46749 0.69972
 H60 H 0.77865 0.54939 0.69814
 H61 H 0.77099 0.46888 0.54099
 H62 H 0.70811 0.65561 0.58062
 H63 H 0.70849 0.65434 0.49541
 H64 H 0.77790 0.54366 0.37858
 H65 H 0.78197 0.46135 0.37995
 H66 H 0.71402 0.35549 0.58125
 H67 H 0.77106 0.54297 0.53878
 H68 H 0.71837 0.35423 0.49563
 C69 C 0.84227 1.00277 1.15475
 C70 C 0.83661 0.96038 1.14870
 C71 C 0.80251 0.95609 1.11994
 N72 N 0.78685 0.99424 1.10868
 C73 C 0.81155 1.02288 1.12925
 C74 C 0.78561 0.91766 1.10505
 C75 C 0.75307 0.91553 1.07302
 C76 C 0.72798 0.88082 1.06493
 C77 C 0.70541 0.88850 1.02721
 C78 C 0.71810 0.92744 1.01263
 N79 N 0.74652 0.94390 1.04139
 C80 C 0.70948 0.94467 0.97108
 C81 C 0.71551 0.98734 0.96283
 C82 C 0.71775 1.00399 0.92170
 C83 C 0.72354 1.04610 0.92729
 C84 C 0.72374 1.05400 0.97183
 N85 N 0.71883 1.01782 0.99353
 C86 C 0.72804 1.09392 0.99207
 C87 C 0.74354 1.09851 1.03510
 C88 C 0.74591 1.13634 1.05743
 C89 C 0.76840 1.12871 1.09530
 C90 C 0.77897 1.08638 1.09517
 N91 N 0.76363 1.06825 1.05841
 C92 C 0.80646 1.06686 1.12588
 H93 H 0.86642 1.01718 1.17526
 H94 H 0.85533 0.93559 1.16369
 H95 H 0.77185 1.03847 1.04707
 H96 H 0.72690 0.85249 1.08376
 H97 H 0.68285 0.86711 1.01248
 H98 H 0.71654 0.98735 0.89085
 H99 H 0.72889 1.06759 0.90109
 H100 H 0.77720 1.15190 1.11953
 H101 H 0.76593 0.96955 1.03572
 H102 H 0.73417 1.16656 1.04674
 C103 C 0.21555 0.36497 0.43431
 C104 C 0.20638 0.36815 0.47767
 C105 C 0.20908 0.41019 0.48864
 N106 N 0.21885 0.43298 0.45353
 C107 C 0.22305 0.40523 0.42033
 C108 C 0.20775 0.42540 0.53147
 C109 C 0.21390 0.46762 0.54289
 C110 C 0.22943 0.48170 0.58264
 C111 C 0.22950 0.52450 0.58112
 C112 C 0.21411 0.53525 0.54045
 N113 N 0.20507 0.50040 0.51708
 C114 C 0.20863 0.57639 0.52568
 C115 C 0.21101 0.58646 0.48157
 C116 C 0.20895 0.62697 0.46639
 C117 C 0.21780 0.62439 0.42289
 C118 C 0.22451 0.58231 0.41298
 N119 N 0.22028 0.55906 0.44892
 C120 C 0.23494 0.56720 0.37108
 C121 C 0.23633 0.52429 0.35875
 C122 C 0.23370 0.50936 0.31630
 C123 C 0.23388 0.46645 0.31811
 C124 C 0.23645 0.45608 0.36161
 N125 N 0.23821 0.49156 0.38614
 C126 C 0.23451 0.41474 0.37752
 H127 H 0.21693 0.33622 0.41530
 H128 H 0.20009 0.34229 0.49904
 H129 H 0.24364 0.49343 0.41937
 H130 H 0.24132 0.46337 0.60950
 H131 H 0.24151 0.54492 0.60652
 H132 H 0.20303 0.65550 0.48498
 H133 H 0.21930 0.65059 0.40103
 H134 H 0.22971 0.44570 0.29044
 H135 H 0.18988 0.49911 0.48687
 H136 H 0.22936 0.52710 0.28693
 C137 C 1.11835 0.23797 -0.07620
 C138 C 1.13852 0.24131 -0.03691
 C139 C 1.10649 0.23930 -0.00541
 N140 N 1.06732 0.23504 -0.02425
 C141 C 1.07466 0.23444 -0.06768
 C142 C 1.11507 0.23511 0.03928
 C143 C 1.08195 0.23713 0.07164
 C144 C 1.08460 0.22230 0.11375
 C145 C 1.04445 0.22984 0.13330
 C146 C 1.01860 0.24964 0.10276
 N147 N 1.04211 0.25442 0.06581
 C148 C 0.97466 0.26340 0.10789
 C149 C 0.94988 0.27757 0.07278
 C150 C 0.91033 0.29835 0.07761
 C151 C 0.89012 0.29624 0.03814
 C152 C 0.91811 0.27444 0.01063
 N153 N 0.95460 0.26306 0.03175
 C154 C 0.90638 0.25820 -0.03007
 C155 C 0.93695 0.24151 -0.05936
 C156 C 0.92766 0.21841 -0.09651
 C157 C 0.96682 0.20937 -0.11623
 C158 C 0.99850 0.22690 -0.09003
 N159 N 0.98001 0.24705 -0.05603
 C160 C 1.04289 0.22660 -0.09932
 H161 H 1.13451 0.23691 -0.10707
 H162 H 1.17312 0.24330 -0.03208
 H163 H 0.99567 0.26701 -0.03437
 H164 H 1.11204 0.20662 0.12842
 H165 H 1.03552 0.22134 0.16597
 H166 H 0.89634 0.31114 0.10733
 H167 H 0.85762 0.30726 0.03106
 H168 H 0.97152 0.19183 -0.14628
 H169 H 1.03246 0.27112 0.03857
 H170 H 0.89614 0.20925 -0.10821
 C171 C 0.44763 0.72483 0.62081
 C172 C 0.49054 0.73020 0.63014
 C173 C 0.50963 0.74417 0.59237
 N174 N 0.48008 0.74766 0.56028
 C175 C 0.44221 0.73564 0.57767
 C176 C 0.55275 0.75689 0.58943
 C177 C 0.57211 0.76744 0.54927
 C178 C 0.60946 0.79059 0.54403
 C179 C 0.61916 0.78989 0.50036
 C180 C 0.58699 0.76733 0.48011
 N181 N 0.55845 0.75377 0.50990
 C182 C 0.58622 0.75750 0.43552
 C183 C 0.54789 0.74472 0.41446
 C184 C 0.54523 0.72710 0.37307
 C185 C 0.50202 0.72402 0.36370
 C186 C 0.47989 0.73881 0.40001
 N187 N 0.50778 0.75149 0.43102
 C188 C 0.43481 0.74397 0.40230
 C189 C 0.41273 0.74986 0.44258
 C190 C 0.37100 0.76574 0.44811
 C191 C 0.36151 0.76375 0.49187
 C192 C 0.39772 0.74690 0.51203
 N193 N 0.42877 0.73870 0.48178
 C194 C 0.40185 0.73905 0.55714
 H195 H 0.42299 0.71515 0.64348
 H196 H 0.50575 0.72537 0.66138
 H197 H 0.45792 0.72277 0.48706
 H198 H 0.62789 0.80693 0.56858
 H199 H 0.64654 0.80461 0.48518
 H200 H 0.57124 0.71711 0.35161
 H201 H 0.48838 0.71212 0.33368
 H202 H 0.33177 0.77487 0.50690
 H203 H 0.53412 0.73219 0.50414
 H204 H 0.34967 0.77863 0.42374
 C205 C -0.08338 0.78369 -0.11132
 C206 C -0.04381 0.78426 -0.13134
 C207 C -0.01321 0.77580 -0.09964
 N208 N -0.03287 0.77014 -0.06091
 C209 C -0.07593 0.77439 -0.06822
 C210 C 0.03189 0.77788 -0.10650
 C211 C 0.06305 0.76865 -0.07449
 C212 C 0.10595 0.78052 -0.07574
 C213 C 0.12520 0.76550 -0.03848
 C214 C 0.09346 0.74451 -0.01579
 N215 N 0.05595 0.74619 -0.03841
 C216 C 0.09871 0.72354 0.02412
 C217 C 0.06363 0.70882 0.04877
 C218 C 0.06853 0.68365 0.08493
 C219 C 0.02924 0.68327 0.10568
 C220 C 0.00157 0.70813 0.08152
 N221 N 0.02263 0.72386 0.04685
 C222 C -0.04064 0.72006 0.09456
 C223 C -0.06903 0.74160 0.06673
 C224 C -0.10690 0.76173 0.07960
 C225 C -0.12633 0.77642 0.04252
 C226 C -0.09912 0.76545 0.00816
 N227 N -0.06451 0.74391 0.02306
 C228 C -0.10819 0.77329 -0.03578
 H229 H -0.11364 0.79155 -0.12647
 H230 H -0.03812 0.79172 -0.16508
 H231 H -0.04196 0.72763 0.00389
 H232 H 0.12150 0.79883 -0.10046
 H233 H 0.15862 0.77003 -0.02969
 H234 H 0.09797 0.66858 0.09619
 H235 H 0.02219 0.66771 0.13585
 H236 H -0.15671 0.79366 0.04101
 H237 H 0.02785 0.73005 -0.03142
 H238 H -0.11886 0.76587 0.11225
 C239 C 0.50316 0.23033 0.37339
 C240 C 0.54692 0.22897 0.37917
 C241 C 0.55396 0.23723 0.42282
 N242 N 0.51609 0.24327 0.44416
 C243 C 0.48497 0.23898 0.41383
 C244 C 0.59527 0.24138 0.44089
 C245 C 0.60246 0.25382 0.48462
 C246 C 0.64049 0.27117 0.50001
 C247 C 0.63487 0.27837 0.54372
 C248 C 0.59337 0.26598 0.55380
 N249 N 0.57370 0.25090 0.51772
 C250 C 0.57628 0.26702 0.59622
 C251 C 0.53131 0.26360 0.60519
 C252 C 0.51291 0.25941 0.64611
 C253 C 0.46901 0.26047 0.64058
 C254 C 0.46167 0.26391 0.59646
 N255 N 0.49969 0.26580 0.57479
 C256 C 0.41993 0.26401 0.57803
 C257 C 0.41176 0.25691 0.53295
 C258 C 0.37266 0.24319 0.51633
 C259 C 0.37830 0.23672 0.47248
 C260 C 0.42077 0.24643 0.46294
 N261 N 0.44096 0.25887 0.50003
 C262 C 0.44012 0.24153 0.42113
 H263 H 0.48660 0.22523 0.34283
 H264 H 0.57087 0.22329 0.35394
 H265 H 0.47213 0.27037 0.50233
 H266 H 0.66913 0.27907 0.48181
 H267 H 0.65849 0.29180 0.56557
 H268 H 0.52850 0.25487 0.67707
 H269 H 0.44516 0.25749 0.66614
 H270 H 0.35423 0.22354 0.45109
 H271 H 0.54422 0.23562 0.51670
 H272 H 0.34358 0.23557 0.53390
 C273 C 1.16706 -0.04604 0.18521
 C274 C 1.17104 -0.00324 0.18915
 C275 C 1.13289 0.01173 0.20781
 N276 N 1.10577 -0.02016 0.21508
 C277 C 1.12644 -0.05545 0.20121
 C278 C 1.12089 0.05425 0.21211
 C279 C 1.08241 0.06839 0.23218
 C280 C 1.06396 0.10743 0.22483
 C281 C 1.02669 0.10975 0.24861
 C282 C 1.02370 0.07237 0.27082
 N283 N 1.05810 0.04723 0.26078
 C284 C 0.98900 0.06171 0.29829
 C285 C 0.97896 0.02036 0.30740
 C286 C 0.94506 0.00897 0.33410
 C287 C 0.93842 -0.03268 0.32613
 C288 C 0.96866 -0.04490 0.29508
 N289 N 0.99353 -0.01262 0.28372
 C290 C 0.96883 -0.08349 0.27350
 C291 C 1.00225 -0.09681 0.24491
 C292 C 0.99934 -0.13036 0.21605
 C293 C 1.03855 -0.13394 0.19532
 C294 C 1.06398 -0.10190 0.21133
 N295 N 1.04192 -0.07964 0.24197
 C296 C 1.10659 -0.09473 0.19740
 H297 H 1.19037 -0.06749 0.17038
 H298 H 1.19809 0.01498 0.17811
 H299 H 1.05462 -0.05652 0.26218
 H300 H 1.07534 0.13136 0.20320
 H301 H 1.00398 0.13568 0.24737
 H302 H 0.92550 0.02919 0.35502
 H303 H 0.91310 -0.05138 0.34002
 H304 H 1.04699 -0.15688 0.17039
 H305 H 1.06583 0.01843 0.27445
 H306 H 0.97179 -0.15001 0.20980
 C307 C 0.43312 0.64641 0.75131
 C308 C 0.47690 0.64692 0.75791
 C309 C 0.49137 0.60576 0.75496
 N310 N 0.45797 0.57996 0.74642
 C311 C 0.42227 0.60494 0.74453
 C312 C 0.53535 0.59371 0.75705
 C313 C 0.54907 0.55112 0.75748
 C314 C 0.59007 0.53602 0.74664
 C315 C 0.58999 0.49344 0.75300
 C316 C 0.54897 0.48353 0.76754
 N317 N 0.52421 0.51881 0.76997
 C318 C 0.53515 0.44298 0.77877
 C319 C 0.49132 0.43171 0.77951
 C320 C 0.47723 0.39282 0.79228
 C321 C 0.43375 0.39194 0.78408
 C322 C 0.42269 0.43037 0.76673
 N323 N 0.45797 0.45477 0.76369
 C324 C 0.38122 0.44023 0.75067
 C325 C 0.36922 0.48117 0.73724
 C326 C 0.33397 0.49121 0.71137
 C327 C 0.33372 0.53406 0.70661
 C328 C 0.36889 0.54917 0.72956
 N329 N 0.39030 0.51674 0.74810
 C330 C 0.38024 0.59195 0.73374
 H331 H 0.41177 0.67357 0.75087
 H332 H 0.49603 0.67456 0.76356
 H333 H 0.41561 0.51930 0.77021
 H334 H 0.61705 0.55318 0.73390
 H335 H 0.61687 0.47233 0.74608
 H336 H 0.49653 0.36732 0.80518
 H337 H 0.41276 0.36570 0.78953
 H338 H 0.31094 0.55162 0.68710
 H339 H 0.49333 0.52123 0.78348
 H340 H 0.31135 0.47010 0.69620
 C341 C 0.99361 1.13922 0.74147
 C342 C 0.95306 1.14257 0.76000
 C343 C 0.94265 1.10309 0.77466
 N344 N 0.97586 1.07608 0.76673
 C345 C 1.00668 1.09791 0.74573
 C346 C 0.90301 1.09315 0.79495
 C347 C 0.89109 1.05146 0.80536
 C348 C 0.85967 1.04073 0.83532
 C349 C 0.85669 0.99759 0.83415
 C350 C 0.88617 0.98289 0.80330
 N351 N 0.90699 1.01604 0.78610
 C352 C 0.89216 0.94020 0.79011
 C353 C 0.92690 0.92611 0.76375
 C354 C 0.92852 0.88749 0.74257
 C355 C 0.96663 0.88582 0.71960
 C356 C 0.98718 0.92314 0.72825
 N357 N 0.96321 0.94749 0.75570
 C358 C 1.02800 0.93374 0.71198
 C359 C 1.04825 0.97128 0.72274
 C360 C 1.09194 0.97860 0.71714
 C361 C 1.09724 1.02085 0.72338
 C362 C 1.05649 1.03786 0.73223
 N363 N 1.02701 1.00729 0.73252
 C364 C 1.04628 1.08067 0.73021
 H365 H 1.01134 1.16415 0.72641
 H366 H 0.93322 1.17075 0.76192
 H367 H 0.99375 1.01169 0.73029
 H368 H 0.84120 1.06161 0.85648
 H369 H 0.83542 0.97940 0.85418
 H370 H 0.90434 0.86333 0.74296
 H371 H 0.97815 0.86006 0.69927
 H372 H 1.12707 1.03762 0.71894
 H373 H 0.92737 1.01515 0.75923
 H374 H 1.11684 0.95616 0.70740
 C375 C 0.41242 0.46108 0.21504
 C376 C 0.41151 0.50376 0.21359
 C377 C 0.45207 0.51687 0.22640
 N378 N 0.47805 0.48357 0.23530
 C379 C 0.45369 0.44935 0.22826
 C380 C 0.46250 0.55929 0.23233
 C381 C 0.50295 0.57246 0.24877
 C382 C 0.51027 0.61067 0.26913
 C383 C 0.55333 0.61128 0.27996
 C384 C 0.57130 0.57341 0.26609
 N385 N 0.54033 0.54972 0.24742
 C386 C 0.61541 0.56181 0.27071
 C387 C 0.63028 0.51991 0.27166
 C388 C 0.67294 0.50866 0.27955
 C389 C 0.67460 0.46589 0.28007
 C390 C 0.63294 0.45222 0.27208
 N391 N 0.60569 0.48540 0.26708
 C392 C 0.62232 0.40943 0.26819
 C393 C 0.58016 0.39514 0.25648
 C394 C 0.57078 0.35503 0.24180
 C395 C 0.52729 0.35445 0.23215
 C396 C 0.51067 0.39420 0.24083
 N397 N 0.54309 0.41871 0.25588
 C398 C 0.46706 0.40722 0.23258
 H399 H 0.38567 0.44093 0.20698
 H400 H 0.38379 0.52299 0.20492
 H401 H 0.53935 0.44912 0.26771
 H402 H 0.48701 0.63510 0.27743
 H403 H 0.56889 0.63624 0.29781
 H404 H 0.70004 0.52916 0.28494
 H405 H 0.70344 0.44700 0.28533
 H406 H 0.51084 0.32810 0.21776
 H407 H 0.54538 0.52137 0.23101
 H408 H 0.59283 0.32905 0.23591
 O409 O 0.30204 0.11416 0.17178
 O410 O 0.31929 0.10856 0.24934
 O411 O 0.17798 0.17908 0.18093
 O412 O 0.15859 0.23511 0.22842
 O413 O 0.25978 0.21456 0.08988
 O414 O 0.32528 0.26197 0.09291
 O415 O 0.26325 0.30740 0.30792
 O416 O 0.20632 0.25553 0.31372
 O417 O 0.37685 0.23150 0.30440
 O418 O 0.39989 0.16993 0.25439
 O419 O 0.36191 0.32845 0.21773
 O420 O 0.32094 0.33244 0.14633
 O421 O 0.28924 0.34660 0.25269
 O422 O 0.25873 0.35178 0.18565
 O423 O 0.40378 0.27429 0.24128
 O424 O 0.42254 0.21231 0.20682
 O425 O 0.31309 0.24952 0.33702
 O426 O 0.25530 0.20901 0.34229
 O427 O 0.31481 0.15405 0.11246
 O428 O 0.37000 0.20380 0.10781
 O429 O 0.19683 0.23062 0.12540
 O430 O 0.17812 0.28657 0.17289
 O431 O 0.22148 0.12563 0.20390
 O432 O 0.25741 0.11695 0.27193
 Zr433 Zr 0.27957 0.15542 0.22137
 O434 O 0.30971 0.19449 0.26756
 Zr435 Zr 0.21561 0.23303 0.19004
 O436 O 0.24510 0.27632 0.23218
 Zr437 Zr 0.30912 0.21523 0.13834
 O438 O 0.34311 0.25482 0.18123
 Zr439 Zr 0.26842 0.24448 0.28636
 O440 O 0.23550 0.20104 0.24589
 Zr441 Zr 0.36226 0.22327 0.23774
 O442 O 0.33412 0.18179 0.19212
 Zr443 Zr 0.30068 0.30202 0.20355
 O444 O 0.26689 0.26365 0.15861
 O445 O 0.25742 0.18631 0.16695
 O446 O 0.32245 0.27239 0.25936
 C447 C 0.31336 0.11879 0.13186
 C448 C 0.18630 0.13999 0.18707
 C449 C 0.21842 0.22159 0.09107
 C450 C 0.27329 0.34261 0.29082
 C451 C 0.35391 0.24240 0.33786
 C452 C 0.39791 0.31286 0.23203
 H453 H 0.31852 0.17789 0.29304
 H454 H 0.36830 0.26648 0.16587
 H455 H 0.24492 0.16703 0.14517
 H456 H 0.22356 0.29829 0.24030
 H457 H 0.18868 0.23067 0.30691
 H458 H 0.15830 0.26203 0.24470
 H459 H 0.41579 0.20144 0.17739
 H460 H 0.36525 0.19629 0.07680
 H461 H 0.24937 0.18035 0.33174
 H462 H 0.23005 0.12973 0.28295
 H463 H 0.33073 0.36082 0.15472
 H464 H 0.31983 0.25107 0.06314
 H465 H 0.34830 0.11102 0.23603
 H466 H 0.38846 0.15894 0.28197
 H467 H 0.14874 0.27729 0.16458
 H468 H 0.23927 0.34026 0.16312
 O469 O 0.80727 0.84203 0.19843
 O470 O 0.75759 0.87066 0.24626
 O471 O 0.90329 0.78856 0.28944
 O472 O 0.90043 0.74753 0.34431
 O473 O 0.86673 0.72120 0.17589
 O474 O 0.80628 0.67409 0.16512
 O475 O 0.75787 0.71169 0.39297
 O476 O 0.80492 0.76497 0.40577
 O477 O 0.66413 0.76407 0.30606
 O478 O 0.66468 0.79794 0.24025
 O479 O 0.71452 0.64538 0.28249
 O480 O 0.78004 0.62159 0.24295
 O481 O 0.75983 0.65258 0.35082
 O482 O 0.82297 0.62783 0.30593
 O483 O 0.67094 0.69790 0.25791
 O484 O 0.68130 0.75272 0.19548
 O485 O 0.70296 0.76456 0.36869
 O486 O 0.76476 0.81715 0.38316
 O487 O 0.81407 0.78324 0.15623
 O488 O 0.75870 0.73011 0.14549
 O489 O 0.90561 0.72199 0.23857
 O490 O 0.89343 0.68225 0.30700
 O491 O 0.85966 0.84356 0.27080
 O492 O 0.79094 0.87031 0.30440
 Zr493 Zr 0.79721 0.81841 0.26135
 O494 O 0.74426 0.79468 0.29613
 Zr495 Zr 0.86131 0.73844 0.28857
 O496 O 0.81217 0.71297 0.32672
 Zr497 Zr 0.80279 0.73280 0.19831
 O498 O 0.75194 0.70453 0.23256
 Zr499 Zr 0.76805 0.75947 0.34824
 O500 O 0.82105 0.78609 0.31551
 Zr501 Zr 0.71049 0.75130 0.25765
 O502 O 0.75945 0.77989 0.22085
 Zr503 Zr 0.77555 0.67291 0.28743
 O504 O 0.82712 0.69629 0.24966
 O505 O 0.83936 0.77309 0.23616
 O506 O 0.73189 0.71780 0.31120
 C507 C 0.81326 0.82327 0.16162
 C508 C 0.89656 0.82726 0.28160
 C509 C 0.90239 0.71731 0.19711
 C510 C 0.75576 0.67192 0.38783
 C511 C 0.66711 0.76594 0.34757
 C512 C 0.67795 0.65976 0.26902
 H513 H 0.72502 0.81789 0.30604
 H514 H 0.73679 0.68510 0.21268
 H515 H 0.86298 0.78566 0.21921
 H516 H 0.82555 0.69791 0.35127
 H517 H 0.83296 0.77702 0.39724
 H518 H 0.88611 0.73354 0.36882
 H519 H 0.68079 0.72366 0.18402
 H520 H 0.77520 0.73145 0.11788
 H521 H 0.73737 0.83175 0.37569
 H522 H 0.80813 0.86354 0.33056
 H523 H 0.76715 0.59670 0.25652
 H524 H 0.81954 0.67793 0.13609
 H525 H 0.73382 0.85982 0.22799
 H526 H 0.67484 0.82473 0.25267
 H527 H 0.92505 0.68612 0.30369
 H528 H 0.80806 0.60322 0.31782
 O529 O 0.69747 0.15814 0.86296
 O530 O 0.65555 0.15433 0.79715
 O531 O 0.82134 0.19644 0.81667
 O532 O 0.84701 0.24818 0.78052
 O533 O 0.75957 0.25509 0.93086
 O534 O 0.70643 0.31076 0.93668
 O535 O 0.73135 0.33232 0.70522
 O536 O 0.77810 0.27379 0.69313
 O537 O 0.61228 0.28670 0.74168
 O538 O 0.58428 0.24392 0.79462
 O539 O 0.67240 0.38469 0.81152
 O540 O 0.72347 0.37986 0.87447
 O541 O 0.73276 0.37922 0.76151
 O542 O 0.78324 0.37537 0.82502
 O543 O 0.61516 0.34186 0.80098
 O544 O 0.59079 0.27950 0.85068
 O545 O 0.66876 0.28012 0.69447
 O546 O 0.72707 0.22812 0.68413
 O547 O 0.70167 0.20386 0.92013
 O548 O 0.64725 0.26292 0.92263
 O549 O 0.81825 0.25145 0.88591
 O550 O 0.83911 0.30444 0.83048
 O551 O 0.76378 0.15365 0.80676
 O552 O 0.70661 0.15214 0.75318
 Zr553 Zr 0.70897 0.19389 0.80700
 O554 O 0.67750 0.23686 0.76619
 Zr555 Zr 0.79265 0.25674 0.82197
 O556 O 0.76507 0.30183 0.78025
 Zr557 Zr 0.70730 0.26210 0.88896
 O558 O 0.67770 0.30900 0.85114
 Zr559 Zr 0.72364 0.27365 0.73482
 O560 O 0.75566 0.22769 0.77263
 Zr561 Zr 0.64041 0.28012 0.80310
 O562 O 0.66675 0.23292 0.84341
 Zr563 Zr 0.72470 0.34226 0.81704
 O564 O 0.75477 0.29897 0.85929
 O565 O 0.74762 0.22113 0.85390
 O566 O 0.68492 0.31576 0.76982
 C567 C 0.69812 0.16672 0.90393
 C568 C 0.80462 0.16017 0.80993
 C569 C 0.80026 0.25173 0.92387
 C570 C 0.73416 0.36982 0.72079
 C571 C 0.62817 0.28459 0.70323
 C572 C 0.63214 0.37834 0.80434
 H573 H 0.65936 0.22104 0.74547
 H574 H 0.66008 0.32800 0.86994
 H575 H 0.76266 0.20009 0.87194
 H576 H 0.78808 0.31753 0.76550
 H577 H 0.79892 0.25296 0.70478
 H578 H 0.84555 0.27039 0.75847
 H579 H 0.59066 0.30681 0.86621
 H580 H 0.65214 0.25265 0.95250
 H581 H 0.70176 0.20978 0.68691
 H582 H 0.73096 0.15938 0.73385
 H583 H 0.72045 0.40959 0.86608
 H584 H 0.70606 0.29802 0.96589
 H585 H 0.63194 0.16537 0.81607
 H586 H 0.59360 0.21748 0.78012
 H587 H 0.86589 0.29162 0.84250
 H588 H 0.77752 0.40523 0.81849
 O589 O 0.19007 0.87656 0.73562
 O590 O 0.24419 0.87373 0.67921
 O591 O 0.08026 0.82001 0.67747
 O592 O 0.06414 0.76093 0.64715
 O593 O 0.12465 0.78796 0.80733
 O594 O 0.17828 0.73478 0.82826
 O595 O 0.19447 0.67942 0.60238
 O596 O 0.14611 0.73155 0.57592
 O597 O 0.30285 0.74034 0.64606
 O598 O 0.32080 0.78934 0.69793
 O599 O 0.23872 0.64692 0.72254
 O600 O 0.17837 0.65686 0.77524
 O601 O 0.18670 0.64031 0.66308
 O602 O 0.12721 0.64931 0.71760
 O603 O 0.29469 0.69150 0.71399
 O604 O 0.30734 0.76303 0.75628
 O605 O 0.25353 0.73219 0.59201
 O606 O 0.19580 0.77881 0.56736
 O607 O 0.18768 0.83940 0.79825
 O608 O 0.23742 0.78221 0.81919
 O609 O 0.07575 0.78293 0.75217
 O610 O 0.06807 0.71579 0.70812
 O611 O 0.13555 0.86565 0.66939
 O612 O 0.20204 0.86560 0.62740
 Zr613 Zr 0.19241 0.83166 0.68506
 O614 O 0.23252 0.78588 0.65576
 Zr615 Zr 0.11175 0.76502 0.69649
 O616 O 0.14793 0.71668 0.66608
 Zr617 Zr 0.18454 0.77657 0.77561
 O618 O 0.22292 0.72726 0.74886
 Zr619 Zr 0.19389 0.74164 0.62387
 O620 O 0.15376 0.78989 0.64954
 Zr621 Zr 0.26586 0.75112 0.70295
 O622 O 0.23023 0.80137 0.73233
 Zr623 Zr 0.18410 0.68548 0.71364
 O624 O 0.14494 0.73193 0.74479
 O625 O 0.14874 0.80876 0.72924
 O626 O 0.22922 0.70769 0.66924
 C627 C 0.18850 0.87398 0.77722
 C628 C 0.09533 0.85587 0.66793
 C629 C 0.08593 0.79024 0.79203
 C630 C 0.19139 0.64433 0.62185
 C631 C 0.29250 0.73422 0.60594
 C632 C 0.27917 0.65494 0.72115
 H633 H 0.25256 0.80003 0.63586
 H634 H 0.23837 0.71261 0.77248
 H635 H 0.13048 0.83176 0.74135
 H636 H 0.12851 0.69718 0.65065
 H637 H 0.12268 0.75235 0.58178
 H638 H 0.06969 0.73471 0.63048
 H639 H 0.30595 0.73885 0.77594
 H640 H 0.22696 0.79573 0.84652
 H641 H 0.21975 0.79876 0.57071
 H642 H 0.18221 0.85371 0.60539
 H643 H 0.18398 0.62638 0.77166
 H644 H 0.17185 0.75126 0.85508
 H645 H 0.26416 0.86788 0.70358
 H646 H 0.31151 0.81434 0.68160
 H647 H 0.03898 0.72833 0.71357
 H648 H 0.13566 0.61929 0.71618
 O649 O 0.18922 0.37542 0.67271
 O650 O 0.13652 0.37408 0.72838
 O651 O 0.30492 0.33537 0.73575
 O652 O 0.32109 0.28373 0.78084
 O653 O 0.27388 0.28164 0.61305
 O654 O 0.22867 0.23019 0.58982
 O655 O 0.20734 0.19418 0.82401
 O656 O 0.23091 0.25419 0.85193
 O657 O 0.08825 0.23227 0.75812
 O658 O 0.07442 0.29150 0.70751
 O659 O 0.16394 0.14785 0.69960
 O660 O 0.22913 0.14972 0.65578
 O661 O 0.21253 0.14965 0.76586
 O662 O 0.27703 0.15647 0.71416
 O663 O 0.10446 0.19058 0.69567
 O664 O 0.09120 0.24852 0.65076
 O665 O 0.13253 0.23223 0.81679
 O666 O 0.17928 0.29796 0.84279
 O667 O 0.20497 0.33150 0.61591
 O668 O 0.16726 0.26713 0.59128
 O669 O 0.32037 0.27834 0.67021
 O670 O 0.33090 0.22867 0.72973
 O671 O 0.24441 0.37699 0.73781
 O672 O 0.17877 0.37305 0.78200
 Zr673 Zr 0.19282 0.33573 0.72630
 O674 O 0.15416 0.29035 0.75609
 Zr675 Zr 0.28047 0.27444 0.72630
 O676 O 0.24594 0.22706 0.75786
 Zr677 Zr 0.21359 0.27193 0.64191
 O678 O 0.17773 0.22376 0.66883
 Zr679 Zr 0.19384 0.25198 0.79435
 O680 O 0.23221 0.30000 0.76789
 Zr681 Zr 0.12890 0.25023 0.70809
 O682 O 0.16235 0.29907 0.67803
 Zr683 Zr 0.21629 0.18833 0.71115
 O684 O 0.25402 0.23357 0.67964
 O685 O 0.24237 0.31165 0.68682
 O686 O 0.16591 0.21234 0.74882
 C687 C 0.19545 0.36767 0.63222
 C688 C 0.28565 0.37138 0.73985
 C689 C 0.31204 0.28049 0.62919
 C690 C 0.21202 0.15745 0.80694
 C691 C 0.09583 0.22596 0.79821
 C692 C 0.12316 0.15455 0.69386
 H693 H 0.13108 0.30400 0.77372
 H694 H 0.16591 0.20632 0.64496
 H695 H 0.25943 0.33336 0.67224
 H696 H 0.26636 0.21102 0.77618
 H697 H 0.25614 0.27176 0.84545
 H698 H 0.31448 0.26143 0.80170
 H699 H 0.09872 0.27346 0.63375
 H700 H 0.17793 0.28232 0.56555
 H701 H 0.14744 0.30094 0.84519
 H702 H 0.20033 0.36533 0.80438
 H703 H 0.22654 0.12003 0.66426
 H704 H 0.24601 0.20700 0.60222
 H705 H 0.11603 0.36171 0.70731
 H706 H 0.07045 0.30377 0.73696
 H707 H 0.35902 0.24283 0.72613
 H708 H 0.27214 0.12715 0.72275
 O709 O 0.74149 0.66503 0.72200
 O710 O 0.78208 0.65397 0.78800
 O711 O 0.61524 0.69605 0.76558
 O712 O 0.58358 0.74267 0.80710
 O713 O 0.68162 0.76851 0.66709
 O714 O 0.72965 0.82726 0.67642
 O715 O 0.68577 0.81435 0.90502
 O716 O 0.64310 0.75342 0.90119
 O717 O 0.81020 0.78201 0.87309
 O718 O 0.84573 0.74207 0.81897
 O719 O 0.75363 0.88383 0.80778
 O720 O 0.70091 0.88603 0.74726
 O721 O 0.69662 0.86932 0.86033
 O722 O 0.64332 0.87509 0.79712
 O723 O 0.81287 0.84104 0.81342
 O724 O 0.84460 0.78075 0.76662
 O725 O 0.74940 0.77105 0.91255
 O726 O 0.69926 0.70961 0.90750
 O727 O 0.74555 0.71930 0.67506
 O728 O 0.79152 0.78036 0.68467
 O729 O 0.62033 0.75794 0.70646
 O730 O 0.59277 0.80465 0.76746
 O731 O 0.67381 0.65290 0.77486
 O732 O 0.72961 0.64514 0.82934
 Zr733 Zr 0.72673 0.69331 0.78300
 O734 O 0.75225 0.73081 0.83350
 Zr735 Zr 0.64067 0.75659 0.77223
 O736 O 0.66195 0.79605 0.82325
 Zr737 Zr 0.73010 0.77207 0.71420
 O738 O 0.75408 0.81312 0.76193
 Zr739 Zr 0.70105 0.76201 0.86596
 O740 O 0.67532 0.72129 0.81845
 Zr741 Zr 0.78965 0.77900 0.80771
 O742 O 0.76903 0.73778 0.75746
 Zr743 Zr 0.70305 0.84140 0.79772
 O744 O 0.67862 0.80400 0.74601
 O745 O 0.69003 0.72612 0.73837
 O746 O 0.74042 0.80888 0.84236
 C747 C 0.74734 0.68012 0.68377
 C748 C 0.63309 0.65949 0.76888
 C749 C 0.64079 0.76310 0.67036
 C750 C 0.69010 0.85350 0.89811
 C751 C 0.78975 0.77896 0.90932
 C752 C 0.79459 0.87762 0.81143
 H753 H 0.76964 0.71338 0.85343
 H754 H 0.77160 0.83406 0.74674
 H755 H 0.67784 0.70733 0.71588
 H756 H 0.63711 0.80923 0.83882
 H757 H 0.62636 0.73221 0.88491
 H758 H 0.58260 0.76131 0.83302
 H759 H 0.84088 0.80515 0.74748
 H760 H 0.78881 0.77567 0.65288
 H761 H 0.72885 0.69760 0.90971
 H762 H 0.70523 0.65044 0.84968
 H763 H 0.70186 0.91448 0.76044
 H764 H 0.73184 0.81930 0.64522
 H765 H 0.80542 0.66740 0.77135
 H766 H 0.83615 0.71290 0.82189
 H767 H 0.56774 0.79334 0.75121
 H768 H 0.64809 0.90293 0.81069
 O769 O 0.28644 0.62113 0.23997
 O770 O 0.26122 0.60874 0.16895
 O771 O 0.40078 0.69416 0.21715
 O772 O 0.41480 0.75043 0.18044
 O773 O 0.30981 0.72992 0.31815
 O774 O 0.24768 0.76685 0.32044
 O775 O 0.29123 0.80307 0.08882
 O776 O 0.35435 0.75846 0.08418
 O777 O 0.18872 0.72145 0.11063
 O778 O 0.16464 0.67705 0.16295
 O779 O 0.20721 0.83542 0.18392
 O780 O 0.24619 0.84608 0.25201
 O781 O 0.27449 0.84786 0.14477
 O782 O 0.31204 0.85768 0.21136
 O783 O 0.16871 0.77906 0.16171
 O784 O 0.15514 0.71509 0.21638
 O785 O 0.24604 0.74206 0.07048
 O786 O 0.31059 0.70059 0.06652
 O787 O 0.26247 0.66515 0.29381
 O788 O 0.20168 0.71797 0.29507
 O789 O 0.37222 0.74365 0.28179
 O790 O 0.38703 0.80135 0.22749
 O791 O 0.35998 0.63731 0.20146
 O792 O 0.31605 0.62325 0.13427
 Zr793 Zr 0.29743 0.66144 0.18808
 O794 O 0.26011 0.69513 0.14309
 Zr795 Zr 0.35568 0.74395 0.21444
 O796 O 0.32233 0.78081 0.16823
 Zr797 Zr 0.26440 0.72580 0.26831
 O798 O 0.22821 0.76406 0.22644
 Zr799 Zr 0.29670 0.74382 0.11752
 O800 O 0.33618 0.70739 0.16004
 Zr801 Zr 0.20822 0.72623 0.17463
 O802 O 0.24134 0.68698 0.21814
 Zr803 Zr 0.26809 0.80886 0.19847
 O804 O 0.30320 0.77463 0.24545
 O805 O 0.31865 0.69689 0.24048
 O806 O 0.24411 0.77327 0.14710
 C807 C 0.27160 0.62851 0.27823
 C808 C 0.39599 0.65461 0.21177
 C809 C 0.35031 0.73761 0.31702
 C810 C 0.28217 0.83968 0.10452
 C811 C 0.20595 0.73199 0.07461
 C812 C 0.17332 0.81861 0.16768
 H813 H 0.25046 0.67559 0.11995
 H814 H 0.20354 0.77756 0.24200
 H815 H 0.33461 0.67966 0.26179
 H816 H 0.34184 0.80225 0.15661
 H817 H 0.37723 0.73966 0.09567
 H818 H 0.40894 0.76921 0.15579
 H819 H 0.14129 0.74240 0.22374
 H820 H 0.20456 0.70502 0.32408
 H821 H 0.33418 0.68209 0.07688
 H822 H 0.34551 0.63154 0.12552
 H823 H 0.24104 0.87494 0.24154
 H824 H 0.25880 0.79464 0.31272
 H825 H 0.23209 0.61260 0.18198
 H826 H 0.18171 0.65381 0.14957
 H827 H 0.41326 0.79532 0.24499
 H828 H 0.32478 0.85217 0.24027
 O829 O 0.78409 0.34269 0.36319
 O830 O 0.83410 0.36468 0.30785
 O831 O 0.68908 0.27636 0.28763
 O832 O 0.68985 0.22313 0.24247
 O833 O 0.74129 0.22850 0.40868
 O834 O 0.80516 0.18472 0.41979
 O835 O 0.83572 0.18065 0.19050
 O836 O 0.77984 0.22781 0.17116
 O837 O 0.92969 0.25136 0.25637
 O838 O 0.92959 0.29874 0.31289
 O839 O 0.88695 0.13984 0.30635
 O840 O 0.82432 0.12252 0.35385
 O841 O 0.83931 0.13077 0.24250
 O842 O 0.77904 0.11475 0.29216
 O843 O 0.92974 0.19671 0.31476
 O844 O 0.91993 0.26190 0.36783
 O845 O 0.88426 0.24434 0.19888
 O846 O 0.81635 0.28442 0.17765
 O847 O 0.78903 0.29242 0.41487
 O848 O 0.84971 0.24595 0.42690
 O849 O 0.69478 0.22330 0.35155
 O850 O 0.70376 0.16779 0.29181
 O851 O 0.73104 0.33419 0.29233
 O852 O 0.79473 0.35688 0.25409
 Zr853 Zr 0.79504 0.31110 0.30301
 O854 O 0.84631 0.28226 0.26759
 Zr855 Zr 0.73392 0.22693 0.29501
 O856 O 0.78186 0.19493 0.25791
 Zr857 Zr 0.80119 0.23766 0.37883
 O858 O 0.85105 0.20535 0.34583
 Zr859 Zr 0.82136 0.23687 0.22486
 O860 O 0.76949 0.26897 0.25698
 Zr861 Zr 0.88667 0.24793 0.30944
 O862 O 0.83881 0.28140 0.34545
 Zr863 Zr 0.82402 0.16381 0.30035
 O864 O 0.77381 0.19271 0.33715
 O865 O 0.75856 0.27026 0.33861
 O866 O 0.86292 0.20407 0.26521
 C867 C 0.78349 0.33032 0.40300
 C868 C 0.69423 0.31614 0.28693
 C869 C 0.70337 0.22464 0.39261
 C870 C 0.84214 0.14277 0.20294
 C871 C 0.92233 0.24929 0.21538
 C872 C 0.92382 0.15718 0.31182
 H873 H 0.86282 0.30370 0.25207
 H874 H 0.86906 0.19041 0.36738
 H875 H 0.73534 0.28564 0.35456
 H876 H 0.76823 0.17493 0.23749
 H877 H 0.75128 0.23963 0.17989
 H878 H 0.70255 0.20353 0.22062
 H879 H 0.92457 0.23535 0.38344
 H880 H 0.83573 0.24925 0.45581
 H881 H 0.83767 0.30620 0.18482
 H882 H 0.78139 0.34371 0.22819
 H883 H 0.83939 0.09616 0.34497
 H884 H 0.79448 0.19268 0.44922
 H885 H 0.85579 0.35883 0.33071
 H886 H 0.91433 0.32310 0.30029
 H887 H 0.67253 0.17214 0.29820
 H888 H 0.79521 0.08825 0.28619
 N889 N 0.31384 0.07037 0.07364
 N890 N 0.32800 0.08217 0.10909
 N891 N 0.74690 0.61268 0.65257
 N892 N 0.75303 0.65161 0.64792
 N893 N 0.80384 0.88212 0.11699
 N894 N 0.82123 0.84781 0.12394
 N895 N 0.20568 0.39444 0.56420
 N896 N 0.19396 0.40157 0.60315
 N897 N 0.72109 0.13156 0.96733
 N898 N 0.69930 0.13171 0.93222
 N899 N 0.24255 0.59902 0.33984
 N900 N 0.26489 0.59373 0.30552
 N901 N 0.20356 0.92328 0.83247
 N902 N 0.18261 0.91257 0.80032
 N903 N 0.76373 0.39743 0.42822
 N904 N 0.77547 0.36026 0.43673
 N905 N 0.15566 0.22607 0.04882
 N906 N 0.19475 0.21767 0.05168
 N907 N 0.57650 0.75904 0.62953
 N908 N 0.61741 0.76150 0.63065
 N909 N 0.04448 0.79189 0.85578
 N910 N 0.05201 0.80571 0.81946
 N911 N 0.63087 0.23701 0.41107
 N912 N 0.66848 0.22545 0.42278
 N913 N 0.94819 0.71367 0.13526
 N914 N 0.94171 0.70723 0.17422
 N915 N 0.38450 0.26651 0.60864
 N916 N 0.34708 0.28048 0.59884
 N917 N 0.86516 0.25233 0.96326
 N918 N 0.82600 0.24652 0.96168
 N919 N 0.41233 0.74380 0.36132
 N920 N 0.37192 0.73812 0.35798
 N921 N 0.14175 0.08223 0.19004
 N922 N 0.15699 0.11078 0.16882
 N923 N 0.56576 0.62756 0.75844
 N924 N 0.60600 0.62360 0.76632
 N925 N 0.87383 0.12795 0.80364
 N926 N 0.83286 0.12448 0.80456
 N927 N 0.42793 0.58890 0.22403
 N928 N 0.43271 0.62806 0.21955
 N929 N 0.04703 0.90912 0.68328
 N930 N 0.06515 0.88720 0.65540
 N931 N 0.65859 0.38079 0.27428
 N932 N 0.65613 0.34161 0.28040
 N933 N 0.93072 0.89205 0.27716
 N934 N 0.93358 0.85288 0.28241
 N935 N 0.35259 0.40525 0.74545
 N936 N 0.31148 0.40794 0.74558
 N937 N 0.05435 0.21746 0.86075
 N938 N 0.06137 0.20867 0.82238
 N939 N 0.62628 0.76062 0.41197
 N940 N 0.62749 0.76708 0.37132
 N941 N 0.85116 0.78061 0.95426
 N942 N 0.81202 0.78642 0.94917
 N943 N 0.41444 0.23616 0.38259
 N944 N 0.37517 0.24760 0.37864
 N945 N 0.13873 0.72179 0.04749
 N946 N 0.17675 0.73388 0.03843
 N947 N 0.60745 0.27092 0.63080
 N948 N 0.59783 0.28496 0.66845
 N949 N 0.94834 0.25740 0.14592
 N950 N 0.95817 0.25357 0.18573
 N951 N 0.36504 0.73915 0.58578
 N952 N 0.32647 0.73140 0.57439
 N953 N 0.23576 0.12466 0.87211
 N954 N 0.21898 0.12245 0.83439
 N955 N 0.75038 0.60801 0.42326
 N956 N 0.75085 0.64764 0.42622
 N957 N 0.83130 0.09084 0.14996
 N958 N 0.85646 0.11261 0.17117
 N959 N 0.20441 0.61083 0.55573
 N960 N 0.19427 0.60746 0.59558
 N961 N 0.70132 0.91836 0.93358
 N962 N 0.69173 0.87998 0.93575
 N963 N 0.24236 0.37919 0.34948
 N964 N 0.26587 0.37996 0.31564
 N965 N 0.27900 0.86933 0.03450
 N966 N 0.27986 0.87399 0.07564
 N967 N 0.74257 0.39756 0.65041
 N968 N 0.73869 0.40368 0.69121
 N969 N 0.07227 0.10306 0.70648
 N970 N 0.09750 0.11997 0.68141
 N971 N 0.64796 0.59324 0.27607
 N972 N 0.64304 0.63121 0.26493
 N973 N 0.12535 0.87516 0.17462
 N974 N 0.13925 0.84525 0.15291
 N975 N 0.56570 0.40945 0.78642
 N976 N 0.60466 0.41421 0.79851
 N977 N 0.95524 0.09150 0.30739
 N978 N 0.96087 0.13053 0.31162
 N979 N 0.34918 0.62503 0.72561
 N980 N 0.30846 0.62066 0.72832
 N981 N 0.86185 0.90808 0.80079
 N982 N 0.82169 0.91350 0.80839
 N983 N 0.43322 0.37725 0.22529
 N984 N 0.43390 0.33989 0.23883
   
