data_POSCAR
  _audit_creation_date              2014-09-24
  _audit_creation_method            'ToBaCCo'
  _symmetry_space_group_name_H-M    'P1'
  _symmetry_Int_Tables_number       1
  _symmetry_cell_setting            triclinic
  loop_
  _symmetry_equiv_pos_as_xyz
 x,y,z
_cell_length_a 23.1646
_cell_length_b 17.7953
_cell_length_c 7.6293
_cell_angle_alpha 90.817900
_cell_angle_beta 89.601700
_cell_angle_gamma 90.030000
loop_
  _atom_site_label
  _atom_site_type_symbol
  _atom_site_fract_x
  _atom_site_fract_y
  _atom_site_fract_z
C1 C 0.20303 0.21613 0.16843
 C2 C 0.20728 0.29255 0.12262
 C3 C 0.25834 0.33213 0.15409
 C4 C 0.30650 0.29740 0.22677
 C5 C 0.30515 0.21924 0.26066
 C6 C 0.25255 0.18014 0.23462
 H7 H 0.25022 0.12112 0.26536
 H8 H 0.26029 0.39147 0.12341
 C9 C 0.80297 0.28924 0.26311
 C10 C 0.80044 0.21389 0.19808
 C11 C 0.74791 0.17460 0.20340
 C12 C 0.69780 0.20693 0.27557
 C13 C 0.70042 0.28125 0.34260
 C14 C 0.75295 0.32027 0.34038
 H15 H 0.75365 0.37770 0.39044
 H16 H 0.74651 0.11697 0.15507
 C17 C 0.70571 0.71970 0.69247
 C18 C 0.70800 0.79610 0.64618
 C19 C 0.75882 0.83724 0.67527
 C20 C 0.80741 0.80426 0.75328
 C21 C 0.80658 0.72566 0.78377
 C22 C 0.75509 0.68542 0.75815
 H23 H 0.75396 0.62548 0.78173
 H24 H 0.75917 0.89669 0.64533
 C25 C 0.29251 0.78395 0.69068
 C26 C 0.28852 0.70995 0.62152
 C27 C 0.23591 0.67117 0.63090
 C28 C 0.18749 0.70269 0.71621
 C29 C 0.19060 0.77850 0.77453
 C30 C 0.24323 0.81721 0.76556
 H31 H 0.24507 0.87536 0.81003
 H32 H 0.23419 0.61354 0.58251
 O33 O 1.06141 0.07764 0.03791
 O34 O 0.94816 -0.05392 -0.10431
 O35 O 0.94791 0.07955 0.04254
 O36 O 1.06044 -0.05674 -0.09070
 O37 O 1.06065 -0.10283 0.17711
 O38 O 0.94682 0.03082 0.30694
 O39 O 0.94896 -0.10540 0.15725
 O40 O 1.06139 0.02829 0.30204
 Cu41 Cu 1.00417 0.01685 -0.05470
 Cu42 Cu 1.00289 -0.04154 0.26358
 C43 C 1.08250 0.07319 0.19064
 C44 C 0.93004 -0.10317 0.00130
 C45 C 0.92802 0.07801 0.19810
 C46 C 1.08086 -0.10116 0.02252
 O47 O 0.55058 0.60472 0.36555
 O48 O 0.44095 0.45796 0.30251
 O49 O 0.43937 0.59454 0.42317
 O50 O 0.55194 0.46519 0.25721
 O51 O 0.56399 0.42425 0.52630
 O52 O 0.45556 0.55828 0.69410
 O53 O 0.45260 0.42091 0.57505
 O54 O 0.56595 0.56414 0.63333
 Cu55 Cu 0.49432 0.53485 0.31042
 Cu56 Cu 0.51118 0.48785 0.63400
 C57 C 0.57742 0.60901 0.50951
 C58 C 0.42756 0.41504 0.42803
 C59 C 0.42812 0.59815 0.58635
 C60 C 0.57678 0.42202 0.36427
 O61 O 0.04821 0.55467 -0.18427
 O62 O -0.04958 0.40211 -0.06972
 O63 O -0.06355 0.54319 -0.15668
 O64 O 0.06146 0.42495 -0.04103
 O65 O 0.05621 0.46943 0.23046
 O66 O -0.06969 0.58122 0.12003
 O67 O -0.05492 0.44229 0.20516
 O68 O 0.04213 0.59935 0.08685
 Cu69 Cu -0.00059 0.47667 -0.13933
 Cu70 Cu -0.00705 0.52735 0.18711
 C71 C 0.06263 0.60254 -0.06832
 C72 C -0.06915 0.39568 0.08447
 C73 C -0.08806 0.58179 -0.03531
 C74 C 0.08053 0.42845 0.11507
 O75 O 0.55613 1.05008 0.31252
 O76 O 0.45358 0.89420 0.38019
 O77 O 0.44484 1.02663 0.25565
 O78 O 0.56344 0.91501 0.43669
 O79 O 0.54228 0.95769 0.70256
 O80 O 0.42765 1.07619 0.51807
 O81 O 0.43206 0.94113 0.64214
 O82 O 0.53796 1.09280 0.58038
 Cu83 Cu 0.50680 0.96739 0.31945
 Cu84 Cu 0.48301 1.02159 0.63718
 C85 C 0.56562 1.09680 0.43679
 C86 C 0.42431 0.89230 0.52130
 C87 C 0.41554 1.06943 0.35647
 C88 C 0.57294 0.91699 0.60049
 C89 C 1.15051 0.17703 0.14411
 C90 C 1.13444 0.11673 0.23597
 H91 H 1.11984 0.19856 0.05080
 H92 H 1.15958 0.09799 0.34615
 C93 C 0.65342 0.67253 0.67755
 C94 C 0.62329 0.66565 0.52955
 H95 H 0.64400 0.63550 0.78569
 H96 H 0.63472 0.69885 0.41666
 C97 C -0.14879 0.33747 0.24897
 C98 C -0.11019 0.33428 0.11757
 H99 H -0.14776 0.38703 0.33352
 H100 H -0.11412 0.29273 0.01402
 C101 C 0.34544 0.83075 0.68242
 C102 C 0.37906 0.83471 0.53934
 H103 H 0.35259 0.87003 0.79002
 H104 H 0.37023 0.79943 0.42595
 C105 C -0.14009 0.68227 -0.18257
 C106 C -0.13994 0.62543 -0.07041
 H107 H -0.10038 0.69829 -0.24817
 H108 H -0.17785 0.61417 0.00893
 C109 C 0.35502 1.18118 0.31828
 C110 C 0.36491 1.10802 0.28647
 H111 H 0.38932 1.21248 0.38101
 H112 H 0.33727 1.07579 0.19971
 C113 C 1.13852 -0.17741 -0.18200
 C114 C 1.13045 -0.14880 -0.02153
 H115 H 1.10639 -0.16960 -0.28268
 H116 H 1.16062 -0.16206 0.08156
 C117 C 0.64902 0.32264 0.40463
 C118 C 0.62191 0.37036 0.29920
 H119 H 0.63746 0.31953 0.54211
 H120 H 0.63502 0.37382 0.16283
 C121 C 0.85303 -0.14754 -0.19655
 C122 C 0.88663 -0.15873 -0.05620
 H123 H 0.85635 -0.09368 -0.26079
 H124 H 0.87927 -0.20621 0.02814
 C125 C 0.35827 0.34488 0.24826
 C126 C 0.38165 0.35880 0.40505
 H127 H 0.37260 0.37628 0.13526
 H128 H 0.36543 0.33016 0.51979
 C129 C 0.13995 0.65504 -0.25234
 C130 C 0.10509 0.66105 -0.11094
 H131 H 0.13634 0.60458 -0.33308
 H132 H 0.11233 0.70368 -0.01160
 C133 C 0.64487 1.15987 0.27858
 C134 C 0.61093 1.15452 0.42061
 H135 H 0.63819 1.12137 0.16918
 H136 H 0.61988 1.18856 0.53584
 C137 C 0.15699 0.33502 0.06017
 C138 C 0.13175 0.38583 0.16552
 H139 H 0.13926 0.32150 -0.06746
 H140 H 0.14894 0.39577 0.29573
 C141 C 0.65797 0.83510 0.57180
 C142 C 0.62067 0.87306 0.67397
 H143 H 0.65363 0.83496 0.43055
 H144 H 0.62653 0.87390 0.81485
 C145 C 0.85172 0.17069 0.14029
 C146 C 0.88183 0.13017 0.25422
 H147 H 0.86055 0.16575 0.00098
 H148 H 0.86995 0.13215 0.39193
 C149 C 0.33861 0.66879 0.54940
 C150 C 0.38196 0.64775 0.65224
 H151 H 0.33646 0.64858 0.41492
 H152 H 0.38107 0.66256 0.79057
   
