data_POSCAR
  _audit_creation_date              2014-09-24
  _audit_creation_method            'ToBaCCo'
  _symmetry_space_group_name_H-M    'P1'
  _symmetry_Int_Tables_number       1
  _symmetry_cell_setting            triclinic
  loop_
  _symmetry_equiv_pos_as_xyz
 x,y,z
_cell_length_a 8.9919
_cell_length_b 8.9869
_cell_length_c 26.0562
_cell_angle_alpha 91.032100
_cell_angle_beta 92.702600
_cell_angle_gamma 119.607500
loop_
  _atom_site_label
  _atom_site_type_symbol
  _atom_site_fract_x
  _atom_site_fract_y
  _atom_site_fract_z
C1 C -0.00623 0.01015 0.49839
 C2 C 0.94646 -0.07881 0.16420
 C3 C -0.03531 1.02577 0.83226
 O4 O 0.27238 -0.13263 -0.04970
 O5 O 0.58878 -0.08128 0.05118
 O6 O 0.28599 -0.10765 0.04984
 O7 O 0.58416 -0.07883 -0.04934
 O8 O 0.69297 0.20213 -0.04606
 O9 O 0.39876 0.17338 0.04895
 O10 O 0.70243 0.19975 0.05357
 O11 O 0.38015 0.14779 -0.05097
 Cu12 Cu 0.42241 -0.12804 0.00052
 Cu13 Cu 0.55448 0.20873 0.00155
 C14 C 0.27059 -0.00366 -0.06759
 C15 C 0.69962 0.06568 0.06987
 C16 C 0.29194 0.03043 0.06552
 C17 C 0.68974 0.06909 -0.06420
 O18 O 0.18922 0.78167 0.71399
 O19 O 0.19574 0.48477 0.61919
 O20 O 0.14170 0.74267 0.61427
 O21 O 0.21615 0.50464 0.71875
 O22 O -0.06402 0.34167 0.72079
 O23 O -0.13721 0.57589 0.61980
 O24 O -0.08475 0.31697 0.62009
 O25 O -0.09031 0.61906 0.71913
 Cu26 Cu 0.21358 0.64524 0.66638
 Cu27 Cu -0.12190 0.44640 0.67050
 C28 C 0.05080 0.75383 0.73257
 C29 C 0.05898 0.35184 0.60306
 C30 C -0.01250 0.69811 0.59966
 C31 C 0.08638 0.38056 0.73715
 O32 O 0.30367 0.34310 0.38620
 O33 O 0.52718 0.63593 0.28685
 O34 O 0.26900 0.32561 0.28582
 O35 O 0.57847 0.64409 0.38591
 O36 O 0.74269 0.52732 0.37766
 O37 O 0.43829 0.21306 0.28181
 O38 O 0.69482 0.52314 0.27823
 O39 O 0.46826 0.22603 0.38145
 Cu40 Cu 0.40258 0.49817 0.33694
 Cu41 Cu 0.60284 0.36117 0.32925
 C42 C 0.34537 0.23444 0.40104
 C43 C 0.64830 0.63108 0.26557
 C44 C 0.30303 0.21458 0.26715
 C45 C 0.71501 0.63943 0.39803
 C46 C -0.05016 0.11506 0.53504
 C47 C 0.07675 0.24023 0.56519
 H48 H -0.18159 0.08575 0.53810
 H49 H 0.20687 0.26636 0.56099
 C50 C 0.85446 0.76653 0.19715
 C51 C 0.73432 0.75892 0.22733
 H52 H 0.89578 0.67206 0.19971
 H53 H 0.69831 0.85747 0.22478
 C54 C 0.11722 0.07881 -0.13384
 C55 C 0.13413 -0.03880 -0.10696
 H56 H 0.20887 0.21354 -0.12601
 H57 H 0.03809 -0.17291 -0.11355
 C58 C 0.05730 0.91339 0.53242
 C59 C -0.05515 0.78721 0.56015
 H60 H 0.19318 0.95823 0.53854
 H61 H -0.18986 0.74907 0.55467
 C62 C 0.05452 0.07460 0.20180
 C63 C 0.18822 0.08066 0.22880
 H64 H 0.01886 0.17176 0.20862
 H65 H 0.21866 -0.02029 0.22161
 C66 C 0.81666 -0.02502 -0.13259
 C67 C 0.81626 0.09595 -0.10164
 H68 H 0.71802 -0.15788 -0.13066
 H69 H 0.91715 0.22770 -0.10432
 C70 C 0.06125 -0.10207 0.12732
 C71 C 0.17581 0.03298 0.10276
 H72 H 0.04536 -0.22804 0.11928
 H73 H 0.18709 0.15704 0.11075
 C74 C 0.83948 0.88492 0.46327
 C75 C 0.84870 0.76362 0.43515
 H76 H 0.72694 0.89947 0.45891
 H77 H 0.96410 0.75395 0.43949
 C78 C -0.02939 0.15782 0.80007
 C79 C 0.10812 0.27635 0.77698
 H80 H -0.15279 0.14621 0.78893
 H81 H 0.23417 0.29178 0.78536
 C82 C 0.81094 -0.06477 0.13077
 C83 C 0.82784 0.07820 0.10998
 H84 H 0.69935 -0.18630 0.11835
 H85 H 0.93851 0.20196 0.12039
 C86 C 0.12487 0.13475 0.46332
 C87 C 0.24602 0.11558 0.44066
 H88 H 0.10523 0.23998 0.45228
 H89 H 0.26714 0.00997 0.44944
 C90 C -0.06669 0.87600 0.79571
 C91 C 0.06220 0.88498 0.76942
 H92 H -0.19417 0.76604 0.78940
 H93 H 0.18795 0.99753 0.77563
   
