data_POSCAR
  _audit_creation_date              2014-09-24
  _audit_creation_method            'ToBaCCo'
  _symmetry_space_group_name_H-M    'P1'
  _symmetry_Int_Tables_number       1
  _symmetry_cell_setting            triclinic
  loop_
  _symmetry_equiv_pos_as_xyz
 x,y,z
_cell_length_a 48.2514
_cell_length_b 47.5895
_cell_length_c 50.5274
_cell_angle_alpha 89.706300
_cell_angle_beta 87.068100
_cell_angle_gamma 91.733100
loop_
  _atom_site_label
  _atom_site_type_symbol
  _atom_site_fract_x
  _atom_site_fract_y
  _atom_site_fract_z
N1 N 0.60307 0.66211 0.61499
 N2 N 0.59714 0.65401 0.63958
 C3 C 0.58102 0.67308 0.65176
 C4 C 0.57634 0.69426 0.63378
 C5 C 0.59058 0.68650 0.61054
 H6 H 0.57289 0.67130 0.67206
 H7 H 0.59203 0.69784 0.59189
 Cu8 Cu 0.60998 0.61880 0.65332
 Cu9 Cu 0.62639 0.63990 0.59096
 Cu10 Cu 0.66886 0.59553 0.62414
 N11 N 0.63116 0.59009 0.66974
 N12 N 0.65488 0.58201 0.65889
 C13 C 0.66639 0.56396 0.67540
 C14 C 0.64869 0.56015 0.69781
 C15 C 0.62641 0.57709 0.69330
 H16 H 0.68598 0.55413 0.67105
 H17 H 0.60860 0.58072 0.70654
 N18 N 0.67450 0.60469 0.58608
 N19 N 0.65866 0.62197 0.57354
 C20 C 0.66777 0.62386 0.54793
 C21 C 0.69001 0.60644 0.54410
 C22 C 0.69365 0.59455 0.56864
 H23 H 0.65847 0.63638 0.53302
 H24 H 0.70912 0.57960 0.57340
 H25 H 0.62984 0.60143 0.61131
 H26 H 0.64852 0.63364 0.62298
 N27 N 0.90080 0.32066 0.10126
 N28 N 0.91038 0.32919 0.12379
 C29 C 0.93183 0.31328 0.12979
 C30 C 0.93621 0.29381 0.10965
 C31 C 0.91593 0.29931 0.09191
 H32 H 0.94387 0.31642 0.14705
 H33 H 0.91216 0.28872 0.07352
 Cu34 Cu 0.89524 0.36179 0.14174
 Cu35 Cu 0.87001 0.33833 0.08515
 Cu36 Cu 0.83501 0.38758 0.12339
 N37 N 0.88333 0.39879 0.15283
 N38 N 0.85940 0.40856 0.14635
 C39 C 0.85580 0.43375 0.15786
 C40 C 0.87899 0.44028 0.17199
 C41 C 0.89602 0.41758 0.16831
 H42 H 0.83784 0.44649 0.15577
 H43 H 0.91590 0.41464 0.17671
 N44 N 0.81962 0.37034 0.09171
 N45 N 0.83299 0.35143 0.07740
 C46 C 0.81686 0.34240 0.05808
 C47 C 0.79234 0.35663 0.05997
 C48 C 0.79480 0.37437 0.08140
 H49 H 0.82244 0.32646 0.04375
 H50 H 0.77937 0.38850 0.08932
 H51 H 0.87045 0.37752 0.10376
 H52 H 0.85209 0.34731 0.12152
 N53 N 0.39863 0.16281 -0.11546
 N54 N 0.40661 0.15458 -0.13937
 C55 C 0.42295 0.17484 -0.15120
 C56 C 0.42566 0.19687 -0.13365
 C57 C 0.41001 0.18845 -0.11108
 H58 H 0.43268 0.17332 -0.17088
 H59 H 0.40699 0.20011 -0.09290
 Cu60 Cu 0.39601 0.11778 -0.15258
 Cu61 Cu 0.37459 0.13914 -0.09188
 Cu62 Cu 0.34160 0.08310 -0.12223
 N63 N 0.37650 0.08737 -0.16991
 N64 N 0.35447 0.07473 -0.15837
 C65 C 0.34402 0.05576 -0.17510
 C66 C 0.36052 0.05639 -0.19832
 C67 C 0.38105 0.07664 -0.19430
 H68 H 0.32597 0.04222 -0.17060
 H69 H 0.39757 0.08357 -0.20832
 N70 N 0.33188 0.09480 -0.08570
 N71 N 0.34386 0.11661 -0.07434
 C72 C 0.33214 0.11961 -0.04976
 C73 C 0.31229 0.09830 -0.04536
 C74 C 0.31273 0.08296 -0.06847
 H75 H 0.33793 0.13573 -0.03590
 H76 H 0.29975 0.06472 -0.07248
 H77 H 0.37817 0.09971 -0.10917
 H78 H 0.35474 0.12510 -0.12422
 N79 N 0.10080 0.82263 0.39548
 N80 N 0.08947 0.83706 0.37685
 C81 C 0.06603 0.82338 0.37002
 C82 C 0.06217 0.79931 0.38566
 C83 C 0.08487 0.79962 0.40146
 H84 H 0.05199 0.83128 0.35596
 H85 H 0.08956 0.78440 0.41639
 Cu86 Cu 0.10443 0.87424 0.36648
 Cu87 Cu 0.13482 0.83494 0.41146
 Cu88 Cu 0.16087 0.90163 0.39496
 N89 N 0.12001 0.91130 0.35670
 N90 N 0.14060 0.92264 0.36947
 C91 C 0.14556 0.94918 0.36077
 C92 C 0.12741 0.95459 0.34126
 C93 C 0.11157 0.93013 0.33903
 H94 H 0.16157 0.96332 0.36767
 H95 H 0.09469 0.92670 0.32603
 N96 N 0.17857 0.87667 0.41993
 N97 N 0.16902 0.85095 0.42557
 C98 C 0.18650 0.83845 0.44153
 C99 C 0.20811 0.85717 0.44626
 C100 C 0.20234 0.88126 0.43234
 H101 H 0.18376 0.81722 0.44912
 H102 H 0.21506 0.90034 0.43065
 H103 H 0.12703 0.87738 0.40851
 H104 H 0.14980 0.86232 0.38144
 C105 C 0.12566 0.14840 0.13086
 C106 C 0.14878 0.13244 0.12382
 C107 C 0.15775 0.11262 0.14126
 C108 C 0.14402 0.10890 0.16619
 C109 C 0.12159 0.12518 0.17350
 C110 C 0.11216 0.14496 0.15556
 C111 C 0.11042 0.16635 0.11649
 N112 N 0.08791 0.17389 0.13174
 C113 C 0.08893 0.16118 0.15581
 C114 C 0.11200 0.11634 0.19844
 N115 N 0.12792 0.09502 0.20610
 C116 C 0.14744 0.09024 0.18652
 C117 C 0.17930 0.09896 0.12853
 N118 N 0.18376 0.11028 0.10390
 C119 C 0.16516 0.13073 0.10082
 H120 H 0.11466 0.17240 0.09596
 H121 H 0.07292 0.16203 0.17157
 H122 H 0.09445 0.12436 0.20994
 H123 H 0.16298 0.07433 0.18710
 H124 H 0.19078 0.08193 0.13650
 H125 H 0.16317 0.14288 0.08288
 C126 C 0.41936 0.86704 0.60052
 C127 C 0.39660 0.87292 0.58539
 C128 C 0.37996 0.89519 0.59215
 C129 C 0.38565 0.91176 0.61417
 C130 C 0.40813 0.90607 0.62903
 C131 C 0.42506 0.88352 0.62217
 C132 C 0.43714 0.84494 0.60041
 N133 N 0.45341 0.84753 0.62151
 C134 C 0.44616 0.87117 0.63483
 C135 C 0.40672 0.92331 0.65083
 N136 N 0.38383 0.93912 0.64965
 C137 C 0.37088 0.93222 0.62722
 C138 C 0.35799 0.89428 0.57586
 N139 N 0.36078 0.87196 0.55938
 C140 C 0.38438 0.85876 0.56511
 H141 H 0.43702 0.82738 0.58688
 H142 H 0.45491 0.87847 0.65295
 H143 H 0.42028 0.92299 0.66724
 H144 H 0.35147 0.94059 0.62139
 H145 H 0.34046 0.90796 0.57697
 H146 H 0.39176 0.83980 0.55575
 C147 C 0.86059 0.66272 0.35493
 C148 C 0.83675 0.64627 0.36200
 C149 C 0.82915 0.62378 0.34639
 C150 C 0.84507 0.61779 0.32318
 C151 C 0.86844 0.63426 0.31606
 C152 C 0.87628 0.65691 0.33201
 C153 C 0.87566 0.68188 0.36908
 N154 N 0.89996 0.68798 0.35528
 C155 C 0.90050 0.67299 0.33250
 C156 C 0.88195 0.62131 0.29504
 N157 N 0.86740 0.59745 0.28913
 C158 C 0.84474 0.59522 0.30623
 C159 C 0.80796 0.60906 0.36020
 N160 N 0.80240 0.62230 0.38355
 C161 C 0.81990 0.64505 0.38478
 H162 H 0.87042 0.68903 0.38897
 H163 H 0.91836 0.67170 0.31873
 H164 H 0.90158 0.62824 0.28547
 H165 H 0.83012 0.57750 0.30746
 H166 H 0.79819 0.58947 0.35425
 H167 H 0.82154 0.65859 0.40182
 C168 C 0.58549 0.37459 -0.09740
 C169 C 0.60889 0.37997 -0.08263
 C170 C 0.62694 0.40233 -0.08941
 C171 C 0.62199 0.41941 -0.11129
 C172 C 0.59874 0.41425 -0.12567
 C173 C 0.58045 0.39167 -0.11872
 C174 C 0.56654 0.35236 -0.09745
 N175 N 0.55023 0.35544 -0.11837
 C176 C 0.55859 0.37955 -0.13139
 C177 C 0.60090 0.43165 -0.14752
 N178 N 0.62503 0.44700 -0.14699
 C179 C 0.63809 0.43968 -0.12490
 C180 C 0.64911 0.40080 -0.07341
 N181 N 0.64504 0.37798 -0.05727
 C182 C 0.62054 0.36508 -0.06283
 H183 H 0.56598 0.33430 -0.08430
 H184 H 0.55019 0.38721 -0.14942
 H185 H 0.58699 0.43160 -0.16368
 H186 H 0.65844 0.44748 -0.11982
 H187 H 0.66758 0.41434 -0.07444
 H188 H 0.61224 0.34576 -0.05373
 C189 C -0.00439 0.24901 0.12455
 C190 C -0.00135 0.23454 0.10119
 C191 C -0.01837 0.23829 0.08024
 C192 C -0.03940 0.25786 0.08338
 C193 C -0.04296 0.27365 0.10716
 C194 C -0.02496 0.26888 0.12805
 O195 O 0.01387 0.24202 0.14208
 C196 C 0.02881 0.22281 0.12940
 C197 C 0.02041 0.21763 0.10424
 C198 C 0.03338 0.19868 0.08725
 C199 C 0.05600 0.18446 0.09656
 C200 C 0.06500 0.18917 0.12253
 C201 C 0.05106 0.20856 0.13923
 H202 H -0.01557 0.22655 0.06205
 H203 H -0.05243 0.26079 0.06689
 H204 H -0.02682 0.27998 0.14664
 H205 H 0.02638 0.19501 0.06751
 H206 H 0.06623 0.16940 0.08373
 H207 H 0.05760 0.21264 0.15906
 C208 C 0.53113 0.75634 0.62256
 C209 C 0.52597 0.76501 0.64822
 C210 C 0.53692 0.75191 0.66982
 C211 C 0.55375 0.72880 0.66479
 C212 C 0.55934 0.71930 0.63851
 C213 C 0.54799 0.73354 0.61709
 O214 O 0.51805 0.77118 0.60499
 C215 C 0.50433 0.78959 0.61990
 C216 C 0.50854 0.78674 0.64647
 C217 C 0.49574 0.80344 0.66566
 C218 C 0.47776 0.82387 0.65714
 C219 C 0.47285 0.82723 0.62981
 C220 C 0.48654 0.80977 0.61097
 H221 H 0.53248 0.75906 0.68984
 H222 H 0.56244 0.71844 0.68143
 H223 H 0.55151 0.72667 0.59684
 H224 H 0.49918 0.80060 0.68649
 H225 H 0.46715 0.83653 0.67195
 H226 H 0.48340 0.81177 0.59001
 C227 C 0.99766 0.76000 0.36850
 C228 C 0.99421 0.74215 0.38995
 C229 C 1.01268 0.74166 0.41008
 C230 C 1.03564 0.76044 0.40818
 C231 C 1.03951 0.77985 0.38663
 C232 C 1.01997 0.77943 0.36650
 O233 O 0.97818 0.75629 0.35107
 C234 C 0.96200 0.73579 0.36191
 C235 C 0.97079 0.72665 0.38587
 C236 C 0.95675 0.70569 0.40094
 C237 C 0.93273 0.69350 0.39081
 C238 C 0.92360 0.70204 0.36586
 C239 C 0.93847 0.72347 0.35117
 H240 H 1.00961 0.72721 0.42666
 H241 H 1.04979 0.76014 0.42407
 H242 H 1.02218 0.79333 0.34946
 H243 H 0.96403 0.69895 0.41979
 H244 H 0.92155 0.67692 0.40200
 H245 H 0.93183 0.73026 0.33209
 C246 C 0.47028 0.26163 -0.12127
 C247 C 0.47605 0.27101 -0.14681
 C248 C 0.46566 0.25753 -0.16872
 C249 C 0.44878 0.23329 -0.16413
 C250 C 0.44251 0.22313 -0.13797
 C251 C 0.45325 0.23777 -0.11623
 O252 O 0.48320 0.27676 -0.10337
 C253 C 0.49743 0.29610 -0.11793
 C254 C 0.49367 0.29357 -0.14461
 C255 C 0.50718 0.31116 -0.16349
 C256 C 0.52549 0.33207 -0.15453
 C257 C 0.53008 0.33498 -0.12709
 C258 C 0.51557 0.31672 -0.10857
 H259 H 0.47067 0.26518 -0.18865
 H260 H 0.44061 0.22248 -0.18098
 H261 H 0.44928 0.23033 -0.09607
 H262 H 0.50409 0.30858 -0.18442
 H263 H 0.53670 0.34539 -0.16909
 H264 H 0.51850 0.31834 -0.08754
 C265 C 0.12274 0.00540 0.28448
 C266 C 0.12323 0.03064 0.29766
 C267 C 0.12509 0.03239 0.32500
 C268 C 0.12656 0.00710 0.33927
 C269 C 0.12550 -0.01912 0.32611
 C270 C 0.12332 -0.01996 0.29836
 O271 O 0.12263 0.00833 0.25836
 C272 C 0.12291 0.03600 0.25496
 C273 C 0.12294 0.05065 0.27837
 C274 C 0.12332 0.07990 0.27926
 C275 C 0.12396 0.09459 0.25502
 C276 C 0.12487 0.07987 0.23070
 C277 C 0.12417 0.05017 0.23072
 H278 H 0.12589 0.05248 0.33491
 H279 H 0.12831 0.00788 0.36054
 H280 H 0.12301 -0.03973 0.28783
 H281 H 0.12336 0.09100 0.29790
 H282 H 0.12468 0.11735 0.25504
 H283 H 0.12486 0.03856 0.21234
 C284 C 0.63484 0.52104 -0.23876
 C285 C 0.66043 0.51009 -0.23529
 C286 C 0.68284 0.51464 -0.25333
 C287 C 0.67873 0.53120 -0.27581
 C288 C 0.65258 0.54331 -0.27972
 C289 C 0.63041 0.53803 -0.26059
 O290 O 0.61584 0.51305 -0.22011
 C291 C 0.62977 0.49677 -0.20444
 C292 C 0.65722 0.49446 -0.21266
 C293 C 0.67545 0.47809 -0.19925
 C294 C 0.66481 0.46322 -0.17667
 C295 C 0.63636 0.46463 -0.16830
 C296 C 0.61873 0.48191 -0.18231
 H297 H 0.70273 0.50550 -0.25037
 H298 H 0.69621 0.53481 -0.28979
 H299 H 0.60994 0.54609 -0.26278
 H300 H 0.69695 0.47649 -0.20613
 H301 H 0.67842 0.44977 -0.16633
 H302 H 0.59694 0.48331 -0.17638
 C303 C 0.37563 1.01462 0.73959
 C304 C 0.34921 1.00590 0.73372
 C305 C 0.32577 1.01304 0.74907
 C306 C 0.32972 1.02978 0.77144
 C307 C 0.35674 1.03924 0.77780
 C308 C 0.37999 1.03168 0.76145
 O309 O 0.39515 1.00451 0.72313
 C310 C 0.38074 0.98912 0.70648
 C311 C 0.35254 0.98944 0.71199
 C312 C 0.33361 0.97444 0.69727
 C313 C 0.34419 0.95830 0.67612
 C314 C 0.37325 0.95720 0.67029
 C315 C 0.39172 0.97301 0.68570
 H316 H 0.30521 1.00572 0.74420
 H317 H 0.31173 1.03551 0.78368
 H318 H 0.40089 1.03820 0.76603
 H319 H 0.31151 0.97489 0.70208
 H320 H 0.32981 0.94599 0.66481
 H321 H 0.41396 0.97261 0.68172
 C322 C 0.86814 0.50416 0.21506
 C323 C 0.89519 0.51207 0.21929
 C324 C 0.91772 0.49777 0.20846
 C325 C 0.91214 0.47425 0.19273
 C326 C 0.88441 0.46563 0.18799
 C327 C 0.86211 0.48104 0.19920
 O328 O 0.84977 0.51998 0.22796
 C329 C 0.86559 0.53829 0.24059
 C330 C 0.89353 0.53443 0.23584
 C331 C 0.91378 0.55093 0.24742
 C332 C 0.90489 0.57219 0.26473
 C333 C 0.87616 0.57648 0.27026
 C334 C 0.85628 0.55923 0.25782
 H335 H 0.93884 0.50429 0.21221
 H336 H 0.92946 0.46286 0.18418
 H337 H 0.84073 0.47481 0.19631
 H338 H 0.93566 0.54735 0.24354
 H339 H 0.92042 0.58476 0.27437
 H340 H 0.83424 0.56196 0.26153
 C341 C 0.26527 0.10935 0.01533
 C342 C 0.25905 0.08195 0.02283
 C343 C 0.26970 0.05910 0.00910
 C344 C 0.28737 0.06475 -0.01336
 C345 C 0.29435 0.09283 -0.02129
 C346 C 0.28332 0.11544 -0.00654
 O347 O 0.25190 0.12796 0.03026
 C348 C 0.23699 0.11196 0.04762
 C349 C 0.24079 0.08367 0.04410
 C350 C 0.22705 0.06320 0.06005
 C351 C 0.20853 0.07230 0.08035
 C352 C 0.20381 0.10134 0.08397
 C353 C 0.21837 0.12141 0.06737
 H354 H 0.26426 0.03772 0.01519
 H355 H 0.29573 0.04728 -0.02451
 H356 H 0.28792 0.13706 -0.01244
 H357 H 0.23034 0.04105 0.05688
 H358 H 0.19732 0.05677 0.09282
 H359 H 0.21522 0.14369 0.06979
 C360 C 0.72874 0.61770 0.47802
 C361 C 0.73731 0.59089 0.47273
 C362 C 0.73113 0.56837 0.48990
 C363 C 0.71552 0.57372 0.51347
 C364 C 0.70608 0.60110 0.51912
 C365 C 0.71262 0.62333 0.50099
 O366 O 0.73821 0.63645 0.45997
 C367 C 0.75298 0.62115 0.44285
 C368 C 0.75287 0.59309 0.44956
 C369 C 0.76739 0.57342 0.43452
 C370 C 0.78295 0.58315 0.41186
 C371 C 0.78407 0.61214 0.40503
 C372 C 0.76862 0.63130 0.42067
 H373 H 0.73844 0.54754 0.48553
 H374 H 0.71062 0.55655 0.52723
 H375 H 0.70612 0.64452 0.50506
 H376 H 0.76710 0.55146 0.44025
 H377 H 0.79497 0.56837 0.40023
 H378 H 0.76920 0.65353 0.41593
 C379 C 0.73176 0.37108 0.01807
 C380 C 0.72515 0.34431 0.00979
 C381 C 0.73937 0.32087 0.01742
 C382 C 0.76141 0.32522 0.03413
 C383 C 0.76846 0.35257 0.04317
 C384 C 0.75319 0.37579 0.03523
 O385 O 0.71655 0.39058 0.00745
 C386 C 0.69995 0.37577 -0.00778
 C387 C 0.70422 0.34735 -0.00687
 C388 C 0.68927 0.32798 -0.02144
 C389 C 0.66915 0.33835 -0.03772
 C390 C 0.66469 0.36763 -0.03943
 C391 C 0.68034 0.38657 -0.02415
 H392 H 0.73399 0.30006 0.01040
 H393 H 0.77294 0.30729 0.04012
 H394 H 0.75846 0.39693 0.04148
 H395 H 0.69310 0.30572 -0.02047
 H396 H 0.65757 0.32370 -0.04955
 H397 H 0.67732 0.40899 -0.02506
 C398 C 0.27017 0.86928 0.48788
 C399 C 0.27790 0.84208 0.49198
 C400 C 0.26386 0.81901 0.48169
 C401 C 0.24089 0.82419 0.46660
 C402 C 0.23253 0.85209 0.46200
 C403 C 0.24758 0.87493 0.47275
 O404 O 0.28566 0.88815 0.50012
 C405 C 0.30357 0.87252 0.51221
 C406 C 0.29982 0.84421 0.50778
 C407 C 0.31602 0.82409 0.51899
 C408 C 0.33674 0.83353 0.53565
 C409 C 0.34075 0.86263 0.54089
 C410 C 0.32396 0.88234 0.52871
 H411 H 0.27022 0.79777 0.48531
 H412 H 0.22983 0.80643 0.45838
 H413 H 0.24158 0.89643 0.46996
 H414 H 0.31258 0.80189 0.51535
 H415 H 0.34905 0.81810 0.54506
 H416 H 0.32654 0.90467 0.53215
   
