data_POSCAR
  _audit_creation_date              2014-09-24
  _audit_creation_method            'ToBaCCo'
  _symmetry_space_group_name_H-M    'P1'
  _symmetry_Int_Tables_number       1
  _symmetry_cell_setting            triclinic
  loop_
  _symmetry_equiv_pos_as_xyz
 x,y,z
_cell_length_a 48.4744
_cell_length_b 26.4863
_cell_length_c 18.0174
_cell_angle_alpha 86.915200
_cell_angle_beta 89.947100
_cell_angle_gamma 90.186700
loop_
  _atom_site_label
  _atom_site_type_symbol
  _atom_site_fract_x
  _atom_site_fract_y
  _atom_site_fract_z
O1 O 0.74671 0.34955 0.53224
 O2 O 0.79171 0.27426 0.41530
 O3 O 0.74539 0.32173 0.39545
 O4 O 0.79419 0.30362 0.55075
 O5 O 0.77374 0.23137 0.58471
 O6 O 0.72109 0.25601 0.43959
 O7 O 0.76716 0.20661 0.44867
 O8 O 0.72619 0.27978 0.57625
 Cu9 Cu 0.77173 0.31939 0.46995
 Cu10 Cu 0.74485 0.23654 0.51669
 C11 C 0.72867 0.32755 0.57403
 C12 C 0.78671 0.22733 0.41097
 C13 C 0.72471 0.29249 0.39184
 C14 C 0.79291 0.26349 0.59238
 O15 O 0.22405 0.78851 0.55095
 O16 O 0.27187 0.73029 0.41801
 O17 O 0.22065 0.76483 0.41513
 O18 O 0.27520 0.75883 0.55604
 O19 O 0.26356 0.67989 0.58782
 O20 O 0.20511 0.69010 0.45687
 O21 O 0.25508 0.65529 0.45315
 O22 O 0.21379 0.71153 0.59537
 Cu23 Cu 0.24963 0.76815 0.48046
 Cu24 Cu 0.23284 0.67661 0.52680
 C25 C 0.21133 0.75911 0.59770
 C26 C 0.27124 0.68249 0.41271
 C27 C 0.20297 0.72951 0.41381
 C28 C 0.27882 0.71834 0.59568
 O29 O 0.27198 0.27219 -0.61372
 O30 O 0.22208 0.26451 -0.45878
 O31 O 0.26920 0.30830 -0.48468
 O32 O 0.22319 0.22886 -0.59099
 O33 O 0.24317 0.16035 -0.54180
 O34 O 0.29104 0.24047 -0.43968
 O35 O 0.24306 0.19598 -0.41222
 O36 O 0.29110 0.20115 -0.57064
 Cu37 Cu 0.24445 0.27510 -0.54213
 Cu38 Cu 0.26936 0.19281 -0.48628
 C39 C 0.29027 0.23818 -0.61842
 C40 C 0.22402 0.22859 -0.40942
 C41 C 0.28826 0.28831 -0.44498
 C42 C 0.22466 0.18094 -0.58312
 O43 O -0.21870 0.76347 -0.42250
 O44 O -0.26771 0.68172 -0.51581
 O45 O -0.22017 0.72201 -0.55023
 O46 O -0.26517 0.72036 -0.38610
 O47 O -0.28885 0.78431 -0.43728
 O48 O -0.23897 0.79374 -0.59187
 O49 O -0.28745 0.74913 -0.56940
 O50 O -0.24195 0.83071 -0.46398
 Cu51 Cu -0.24081 0.71506 -0.46401
 Cu52 Cu -0.26665 0.79610 -0.52068
 C53 C -0.22199 0.81113 -0.42714
 C54 C -0.28587 0.70140 -0.55908
 C55 C -0.22089 0.75944 -0.59728
 C56 C -0.28508 0.75121 -0.38464
 N57 N 0.02661 1.02343 0.14951
 N58 N 0.04735 1.01474 0.19573
 N59 N -0.02750 1.07846 0.09734
 N60 N -0.04892 1.10853 0.10622
 N61 N -0.03085 1.03570 0.13669
 N62 N -0.05452 1.03512 0.17237
 N63 N 0.03028 1.06633 0.11067
 N64 N 0.05359 1.08809 0.12984
 C65 C 0.06391 1.05556 0.18337
 C66 C -0.06549 1.08076 0.15369
 N67 N -0.02013 1.07886 -0.12019
 N68 N -0.03976 1.09480 -0.16650
 N69 N 0.03674 1.09279 -0.04598
 N70 N 0.05797 1.12423 -0.04582
 N71 N 0.03746 1.06585 -0.10509
 N72 N 0.05932 1.07772 -0.14609
 N73 N -0.02053 1.10462 -0.05985
 N74 N -0.04009 1.13919 -0.06402
 Mn75 Mn 0.00473 1.08626 0.02584
 C76 C -0.05190 1.13267 -0.13089
 C77 C 0.07204 1.11388 -0.10823
 N78 N -0.03720 0.93170 0.10528
 N79 N -0.05855 0.91856 0.14772
 N80 N 0.01986 0.89221 0.05879
 N81 N 0.03801 0.85511 0.06441
 N82 N 0.02043 0.91870 0.11822
 N83 N 0.03917 0.90082 0.16558
 N84 N -0.03714 0.90601 0.04499
 N85 N -0.05801 0.87391 0.04548
 Mn86 Mn -0.00521 0.97737 0.12825
 C87 C -0.07147 0.88294 0.10914
 C88 C 0.04992 0.86112 0.13131
 N89 N 0.03180 0.96028 -0.13615
 N90 N 0.05607 0.95701 -0.16974
 N91 N -0.03052 0.93243 -0.11132
 N92 N -0.05373 0.91096 -0.13166
 N93 N -0.02590 0.97435 -0.15166
 N94 N -0.04600 0.98286 -0.19998
 N95 N 0.02651 0.91843 -0.09624
 N96 N 0.04674 0.88599 -0.10112
 Mn97 Mn 0.00595 1.01998 -0.12933
 Mn98 Mn -0.00544 0.91188 -0.02635
 Cl99 Cl 0.00002 0.99894 -0.00042
 C100 C 0.06500 0.91002 -0.14724
 C101 C -0.06309 0.94282 -0.18728
 N102 N 0.47495 0.43362 -0.12285
 N103 N 0.45399 0.40640 -0.14569
 N104 N 0.53255 0.48371 -0.14691
 N105 N 0.55529 0.49269 -0.18548
 N106 N 0.53313 0.43839 -0.11364
 N107 N 0.55636 0.41509 -0.12955
 N108 N 0.47460 0.47913 -0.15551
 N109 N 0.45346 0.48416 -0.20119
 C110 C 0.44085 0.43849 -0.19497
 C111 C 0.56991 0.44958 -0.17473
 N112 N 0.52853 0.60554 -0.03622
 N113 N 0.54894 0.63834 -0.03034
 N114 N 0.47169 0.58097 -0.10854
 N115 N 0.45067 0.59383 -0.15159
 N116 N 0.47044 0.60372 -0.04563
 N117 N 0.44847 0.63316 -0.04458
 N118 N 0.52926 0.58534 -0.10114
 N119 N 0.54984 0.60421 -0.14159
 Mn120 Mn 0.50196 0.53238 -0.12873
 C121 C 0.56194 0.63707 -0.09685
 C122 C 0.43641 0.62645 -0.11124
 N123 N 0.53005 0.40099 0.03996
 N124 N 0.55331 0.37522 0.03789
 N125 N 0.46924 0.41881 0.09258
 N126 N 0.44773 0.40097 0.13041
 N127 N 0.47203 0.39591 0.03016
 N128 N 0.45262 0.36111 0.02445
 N129 N 0.52705 0.42081 0.10474
 N130 N 0.54795 0.40849 0.14875
 Mn131 Mn 0.50264 0.41649 -0.04193
 C132 C 0.56407 0.37983 0.10660
 C133 C 0.43751 0.36525 0.08719
 N134 N 0.46741 0.56653 0.10733
 N135 N 0.44483 0.59185 0.12253
 N136 N 0.52454 0.52269 0.15087
 N137 N 0.54554 0.51615 0.19667
 N138 N 0.52543 0.56789 0.11720
 N139 N 0.54709 0.59343 0.13974
 N140 N 0.46655 0.52080 0.13922
 N141 N 0.44328 0.51356 0.17629
 Mn142 Mn 0.49803 0.58663 0.03606
 Mn143 Mn 0.49673 0.47062 0.12264
 Cl144 Cl 0.49985 0.50152 -0.00297
 C145 C 0.43006 0.55832 0.16596
 C146 C 0.55935 0.56057 0.18971
 C147 C 0.33792 0.29432 0.23881
 C148 C 0.35335 0.25273 0.22307
 C149 C 0.34836 0.20501 0.25647
 C150 C 0.32688 0.20015 0.30881
 C151 C 0.31026 0.24238 0.32512
 C152 C 0.31559 0.28988 0.28761
 O153 O 0.34815 0.33731 0.20909
 C154 C 0.37043 0.32258 0.17344
 C155 C 0.37431 0.27106 0.17895
 C156 C 0.39717 0.24795 0.14855
 C157 C 0.41710 0.27932 0.11264
 C158 C 0.41417 0.33256 0.11017
 C159 C 0.39030 0.35438 0.13985
 H160 H 0.36131 0.17311 0.24511
 H161 H 0.32334 0.16349 0.33684
 H162 H 0.30413 0.32340 0.30028
 H163 H 0.39997 0.20740 0.15422
 H164 H 0.43557 0.26248 0.09099
 H165 H 0.38792 0.39503 0.13984
 C166 C -0.17147 0.81646 0.26579
 C167 C -0.15684 0.77437 0.24805
 C168 C -0.16309 0.72611 0.27752
 C169 C -0.18499 0.72116 0.32842
 C170 C -0.20081 0.76391 0.34677
 C171 C -0.19429 0.81206 0.31288
 O172 O -0.16015 0.85943 0.23926
 C173 C -0.13800 0.84412 0.20357
 C174 C -0.13532 0.79233 0.20608
 C175 C -0.11318 0.76820 0.17411
 C176 C -0.09285 0.79873 0.13881
 C177 C -0.09458 0.85212 0.13860
 C178 C -0.11755 0.87519 0.17092
 H179 H -0.15077 0.69375 0.26444
 H180 H -0.18947 0.68402 0.35378
 H181 H -0.20514 0.84583 0.32743
 H182 H -0.11143 0.72741 0.17717
 H183 H -0.07516 0.78091 0.11454
 H184 H -0.11914 0.91593 0.17185
 C185 C 0.65416 0.65664 0.32686
 C186 C 0.65572 0.60531 0.34212
 C187 C 0.67609 0.58303 0.38698
 C188 C 0.69559 0.61500 0.41792
 C189 C 0.69434 0.66826 0.40395
 C190 C 0.67334 0.68920 0.35711
 O191 O 0.63275 0.67011 0.28432
 C192 C 0.62049 0.62630 0.27272
 C193 C 0.63373 0.58555 0.30706
 C194 C 0.62399 0.53630 0.30450
 C195 C 0.59951 0.52870 0.26522
 C196 C 0.58539 0.57003 0.22918
 C197 C 0.59621 0.61955 0.23255
 H198 H 0.67678 0.54252 0.39846
 H199 H 0.71138 0.59819 0.45369
 H200 H 0.67161 0.72961 0.34567
 H201 H 0.63469 0.50489 0.33240
 H202 H 0.59158 0.49053 0.26297
 H203 H 0.58578 0.65183 0.20615
 C204 C 0.16380 1.14197 0.30825
 C205 C 0.16404 1.09065 0.32427
 C206 C 0.18449 1.06680 0.36714
 C207 C 0.20531 1.09716 0.39571
 C208 C 0.20520 1.15064 0.38203
 C209 C 0.18418 1.17298 0.33639
 O210 O 0.14218 1.15725 0.26785
 C211 C 0.12840 1.11466 0.25856
 C212 C 0.14083 1.07284 0.29235
 C213 C 0.12923 1.02474 0.29265
 C214 C 0.10378 1.01956 0.25668
 C215 C 0.09068 1.06201 0.22069
 C216 C 0.10332 1.11021 0.22133
 H217 H 0.18420 1.02632 0.37911
 H218 H 0.22104 1.07889 0.43024
 H219 H 0.18316 1.21346 0.32461
 H220 H 0.13922 0.99248 0.32039
 H221 H 0.09435 0.98245 0.25662
 H222 H 0.09364 1.14337 0.19515
 C223 C 0.66882 0.36399 -0.30529
 C224 C 0.67107 0.41580 -0.31084
 C225 C 0.69226 0.44092 -0.34983
 C226 C 0.71176 0.41144 -0.38542
 C227 C 0.70968 0.35786 -0.38184
 C228 C 0.68801 0.33395 -0.34009
 O229 O 0.64641 0.34772 -0.26868
 C230 C 0.63415 0.39022 -0.25100
 C231 C 0.64841 0.43292 -0.27569
 C232 C 0.63856 0.48147 -0.26726
 C233 C 0.61286 0.48625 -0.23261
 C234 C 0.59763 0.44287 -0.20680
 C235 C 0.60867 0.39411 -0.21523
 H236 H 0.69341 0.48179 -0.35405
 H237 H 0.72804 0.43050 -0.41727
 H238 H 0.68553 0.29325 -0.33696
 H239 H 0.64997 0.51448 -0.28802
 H240 H 0.60472 0.52383 -0.22650
 H241 H 0.59732 0.36036 -0.19720
 C242 C 0.16310 0.84092 -0.30227
 C243 C 0.15796 0.80948 -0.24061
 C244 C 0.17006 0.76242 -0.22877
 C245 C 0.18805 0.74647 -0.28324
 C246 C 0.19438 0.77812 -0.34735
 C247 C 0.18221 0.82687 -0.35586
 O248 O 0.14656 0.88107 -0.30664
 C249 C 0.13077 0.87460 -0.24628
 C250 C 0.13736 0.83159 -0.20389
 C251 C 0.12273 0.81500 -0.14116
 C252 C 0.09982 0.84314 -0.12184
 C253 C 0.09160 0.88669 -0.16568
 C254 C 0.10773 0.90352 -0.22798
 H255 H 0.16496 0.73789 -0.18070
 H256 H 0.19709 0.70923 -0.27506
 H257 H 0.18583 0.85131 -0.40506
 H258 H 0.12827 0.78070 -0.10936
 H259 H 0.08796 0.82985 -0.07364
 H260 H 0.10170 0.93606 -0.26310
 C261 C 0.33721 0.67005 -0.28356
 C262 C 0.34297 0.71191 -0.24408
 C263 C 0.32859 0.75710 -0.25486
 C264 C 0.30748 0.75906 -0.30837
 C265 C 0.30094 0.71595 -0.34850
 C266 C 0.31591 0.67076 -0.33539
 O267 O 0.35430 0.63194 -0.26877
 C268 C 0.37117 0.64995 -0.21869
 C269 C 0.36503 0.69848 -0.20079
 C270 C 0.38053 0.72452 -0.15000
 C271 C 0.40353 0.69972 -0.11749
 C272 C 0.41072 0.65050 -0.13773
 C273 C 0.39406 0.62518 -0.18823
 H274 H 0.33373 0.78985 -0.22416
 H275 H 0.29609 0.79389 -0.31817
 H276 H 0.31166 0.63763 -0.36625
 H277 H 0.37536 0.76273 -0.13676
 H278 H 0.41629 0.71945 -0.07906
 H279 H 0.39909 0.58756 -0.20458
 C280 C -0.14994 1.19965 -0.29743
 C281 C -0.14183 1.23806 -0.25370
 C282 C -0.15467 1.28505 -0.25634
 C283 C -0.17656 1.29291 -0.30666
 C284 C -0.18550 1.25364 -0.35146
 C285 C -0.17219 1.20617 -0.34612
 O286 O -0.13402 1.15901 -0.28966
 C287 C -0.11553 1.17192 -0.23971
 C288 C -0.11955 1.21971 -0.21537
 C289 C -0.10251 1.24077 -0.16308
 C290 C -0.08045 1.21139 -0.13478
 C291 C -0.07552 1.16247 -0.16024
 C292 C -0.09337 1.14252 -0.21350
 H293 H -0.14766 1.31496 -0.22225
 H294 H -0.18649 1.32952 -0.31107
 H295 H -0.17820 1.17606 -0.38119
 H296 H -0.10608 1.27844 -0.14473
 H297 H -0.06694 1.22707 -0.09402
 H298 H -0.09019 1.10520 -0.23361
 C299 C 0.64910 0.72816 -0.27994
 C300 C 0.65841 0.72549 -0.20761
 C301 C 0.68598 0.73313 -0.18949
 C302 C 0.70462 0.74321 -0.24835
 C303 C 0.69523 0.74656 -0.32293
 C304 C 0.66703 0.73985 -0.33873
 O305 O 0.62300 0.71419 -0.28641
 C306 C 0.61557 0.70255 -0.21682
 C307 C 0.63628 0.70935 -0.16607
 C308 C 0.63306 0.69681 -0.09039
 C309 C 0.60768 0.67563 -0.06657
 C310 C 0.58667 0.66635 -0.11881
 C311 C 0.59058 0.68082 -0.19462
 H312 H 0.69306 0.72941 -0.13251
 H313 H 0.72636 0.74752 -0.23620
 H314 H 0.65963 0.74028 -0.39548
 H315 H 0.64971 0.70192 -0.05148
 H316 H 0.60491 0.66410 -0.00845
 H317 H 0.57496 0.67356 -0.23572
 C318 C 0.16990 1.17159 -0.28121
 C319 C 0.16160 1.21318 -0.24447
 C320 C 0.17321 1.26094 -0.25852
 C321 C 0.19407 1.26592 -0.31282
 C322 C 0.20321 1.22324 -0.35010
 C323 C 0.19112 1.17539 -0.33341
 O324 O 0.15491 1.13060 -0.26443
 C325 C 0.13679 1.14644 -0.21574
 C326 C 0.14014 1.19649 -0.20074
 C327 C 0.12289 1.22080 -0.15224
 C328 C 0.10113 1.19255 -0.11888
 C329 C 0.09672 1.14151 -0.13600
 C330 C 0.11505 1.11809 -0.18446
 H331 H 0.16598 1.29339 -0.23018
 H332 H 0.20309 1.30279 -0.32593
 H333 H 0.19722 1.14254 -0.36270
 H334 H 0.12582 1.26025 -0.14138
 H335 H 0.08710 1.21094 -0.08219
 H336 H 0.11210 1.07924 -0.19874
 C337 C 0.34811 0.33541 -0.33174
 C338 C 0.34507 0.38673 -0.34465
 C339 C 0.32376 0.40801 -0.38698
 C340 C 0.30486 0.37508 -0.41803
 C341 C 0.30761 0.32177 -0.40691
 C342 C 0.32954 0.30175 -0.36242
 O343 O 0.37021 0.32329 -0.29094
 C344 C 0.38134 0.36796 -0.27824
 C345 C 0.36675 0.40789 -0.31025
 C346 C 0.37513 0.45789 -0.30662
 C347 C 0.39963 0.46724 -0.26848
 C348 C 0.41506 0.42692 -0.23427
 C349 C 0.40565 0.37648 -0.23892
 H350 H 0.32190 0.44856 -0.39648
 H351 H 0.28835 0.39131 -0.45188
 H352 H 0.33237 0.26138 -0.35315
 H353 H 0.36339 0.48859 -0.33293
 H354 H 0.40654 0.50598 -0.26560
 H355 H 0.41713 0.34493 -0.21403
 C356 C -0.16164 0.85472 -0.31490
 C357 C -0.16115 0.90543 -0.33583
 C358 C -0.18066 0.92800 -0.38327
 C359 C -0.20129 0.89688 -0.41107
 C360 C -0.20184 0.84416 -0.39176
 C361 C -0.18182 0.82307 -0.34219
 O362 O -0.14086 0.84051 -0.27078
 C363 C -0.12685 0.88311 -0.26405
 C364 C -0.13830 0.92392 -0.30306
 C365 C -0.12620 0.97167 -0.30653
 C366 C -0.10128 0.97752 -0.26824
 C367 C -0.08926 0.93607 -0.22701
 C368 C -0.10237 0.88827 -0.22463
 H369 H -0.17979 0.96796 -0.39924
 H370 H -0.21633 0.91364 -0.44929
 H371 H -0.18152 0.78301 -0.32662
 H372 H -0.13540 1.00310 -0.33832
 H373 H -0.09142 1.01429 -0.27057
 H374 H -0.09350 0.85583 -0.19441
 C375 C 0.33261 0.65073 0.29352
 C376 C 0.32701 0.60062 0.28324
 C377 C 0.30302 0.57675 0.30843
 C378 C 0.28423 0.60525 0.34752
 C379 C 0.28973 0.65666 0.36150
 C380 C 0.31407 0.68006 0.33245
 O381 O 0.35735 0.66505 0.26812
 C382 C 0.36755 0.62295 0.24190
 C383 C 0.34979 0.58244 0.25035
 C384 C 0.35690 0.53381 0.23226
 C385 C 0.38349 0.52649 0.20435
 C386 C 0.40212 0.56763 0.19410
 C387 C 0.39393 0.61673 0.21237
 H388 H 0.29922 0.53716 0.30005
 H389 H 0.26573 0.58660 0.36892
 H390 H 0.31913 0.71883 0.34324
 H391 H 0.34271 0.50240 0.24087
 H392 H 0.38957 0.48880 0.19059
 H393 H 0.40800 0.64853 0.20639
 C394 C -0.15703 1.18647 0.28723
 C395 C -0.16414 1.13653 0.28200
 C396 C -0.18729 1.11492 0.31627
 C397 C -0.20384 1.14592 0.35826
 C398 C -0.19709 1.19780 0.36543
 C399 C -0.17339 1.21835 0.32811
 O400 O -0.13306 1.19834 0.25465
 C401 C -0.12487 1.15482 0.22857
 C402 C -0.14328 1.11596 0.24387
 C403 C -0.13817 1.06637 0.22689
 C404 C -0.11278 1.05607 0.19418
 C405 C -0.09315 1.09512 0.17878
 C406 C -0.09951 1.14552 0.19462
 H407 H -0.19214 1.07524 0.31220
 H408 H -0.22173 1.12903 0.38588
 H409 H -0.16723 1.25737 0.33291
 H410 H -0.15282 1.03637 0.24060
 H411 H -0.10811 1.01734 0.18240
 H412 H -0.08460 1.17571 0.18515
 C413 C 0.65783 0.31789 0.29193
 C414 C 0.66663 0.32096 0.21912
 C415 C 0.69416 0.31514 0.19934
 C416 C 0.71332 0.30585 0.25695
 C417 C 0.70451 0.30142 0.33204
 C418 C 0.67637 0.30718 0.34970
 O419 O 0.63119 0.32759 0.29938
 C420 C 0.62290 0.33670 0.22983
 C421 C 0.64366 0.33256 0.17840
 C422 C 0.63934 0.34080 0.10230
 C423 C 0.61263 0.35440 0.07850
 C424 C 0.59122 0.36052 0.13092
 C425 C 0.59646 0.35118 0.20755
 H426 H 0.70072 0.31856 0.14185
 H427 H 0.73494 0.30175 0.24330
 H428 H 0.66931 0.30498 0.40684
 H429 H 0.65597 0.33734 0.06278
 H430 H 0.60886 0.36184 0.01969
 H431 H 0.58050 0.35570 0.24874
 C432 C 0.14477 0.78968 0.30480
 C433 C 0.13474 0.74934 0.26788
 C434 C 0.14591 0.70099 0.27721
 C435 C 0.16832 0.69418 0.32638
 C436 C 0.17930 0.73572 0.36325
 C437 C 0.16731 0.78404 0.35207
 O438 O 0.13078 0.83201 0.29089
 C439 C 0.11155 0.81836 0.24373
 C440 C 0.11317 0.76835 0.22698
 C441 C 0.09515 0.74674 0.17747
 C442 C 0.07460 0.77791 0.14449
 C443 C 0.07218 0.82910 0.16294
 C444 C 0.09100 0.84948 0.21310
 H445 H 0.13753 0.66962 0.24830
 H446 H 0.17736 0.65699 0.33490
 H447 H 0.17502 0.81621 0.38052
 H448 H 0.09686 0.70742 0.16464
 H449 H 0.06025 0.76199 0.10601
 H450 H 0.08977 0.88855 0.22763
   
