data_POSCAR
  _audit_creation_date              2014-09-24
  _audit_creation_method            'ToBaCCo'
  _symmetry_space_group_name_H-M    'P1'
  _symmetry_Int_Tables_number       1
  _symmetry_cell_setting            triclinic
  loop_
  _symmetry_equiv_pos_as_xyz
 x,y,z
_cell_length_a 37.3078
_cell_length_b 17.4541
_cell_length_c 14.7235
_cell_angle_alpha 91.022700
_cell_angle_beta 90.021700
_cell_angle_gamma 90.328100
loop_
  _atom_site_label
  _atom_site_type_symbol
  _atom_site_fract_x
  _atom_site_fract_y
  _atom_site_fract_z
C1 C 0.67942 0.30891 0.58408
 C2 C 0.66550 0.33253 0.50093
 C3 C 0.68113 0.31335 0.41761
 C4 C 0.71591 0.28167 0.41722
 C5 C 0.73281 0.26445 0.50120
 C6 C 0.71442 0.27748 0.58493
 C7 C 0.73198 0.26049 0.66638
 C8 C 0.76610 0.22901 0.66641
 C9 C 0.78522 0.21710 0.58538
 C10 C 0.76825 0.23434 0.50139
 C11 C 0.73477 0.26927 0.33609
 C12 C 0.76889 0.23795 0.33603
 C13 C 0.78653 0.22126 0.41750
 C14 C 0.82143 0.18966 0.41800
 C15 C 0.83536 0.16558 0.50084
 C16 C 0.82018 0.18559 0.58473
 H17 H 0.71996 0.27215 0.73162
 H18 H 0.77665 0.21241 0.73108
 H19 H 0.72389 0.28503 0.27145
 H20 H 0.78082 0.22597 0.27073
 H21 H 0.64111 0.36563 0.50025
 H22 H 0.85949 0.13154 0.50056
 C23 C 0.17791 0.79354 0.58805
 C24 C 0.16123 0.81115 0.50587
 C25 C 0.17893 0.80581 0.42219
 C26 C 0.21572 0.78662 0.42136
 C27 C 0.23229 0.76202 0.50274
 C28 C 0.21284 0.76268 0.58569
 C29 C 0.22847 0.72994 0.66225
 C30 C 0.26381 0.70491 0.66064
 C31 C 0.28511 0.71233 0.58260
 C32 C 0.26849 0.73700 0.50121
 C33 C 0.23681 0.79369 0.34311
 C34 C 0.27216 0.76891 0.34151
 C35 C 0.28783 0.73622 0.41808
 C36 C 0.32261 0.70488 0.41527
 C37 C 0.33940 0.68704 0.49718
 C38 C 0.32203 0.69316 0.58153
 H39 H 0.21309 0.71968 0.72277
 H40 H 0.27350 0.67657 0.72010
 H41 H 0.22688 0.82130 0.28342
 H42 H 0.28746 0.77910 0.28086
 H43 H 0.13380 0.83114 0.50744
 H44 H 0.36674 0.66648 0.49468
 C45 C 0.32058 0.30057 -0.58657
 C46 C 0.33763 0.31563 -0.50362
 C47 C 0.32254 0.29706 -0.41993
 C48 C 0.28667 0.27039 -0.41820
 C49 C 0.26742 0.26027 -0.50118
 C50 C 0.28447 0.27534 -0.58568
 C51 C 0.26460 0.26687 -0.66600
 C52 C 0.22936 0.24081 -0.66482
 C53 C 0.21177 0.22523 -0.58278
 C54 C 0.23097 0.23540 -0.49961
 C55 C 0.26936 0.25431 -0.33616
 C56 C 0.23416 0.22802 -0.33477
 C57 C 0.21398 0.22016 -0.41495
 C58 C 0.17783 0.19467 -0.41403
 C59 C 0.16116 0.17819 -0.49735
 C60 C 0.17586 0.19817 -0.58117
 H61 H 0.27563 0.28146 -0.73095
 H62 H 0.21639 0.23254 -0.72969
 H63 H 0.28269 0.26175 -0.27160
 H64 H 0.22354 0.21216 -0.26982
 H65 H 0.36341 0.34361 -0.50492
 H66 H 0.13589 0.14800 -0.49621
 C67 C -0.32314 0.69915 -0.42114
 C68 C -0.34098 0.69575 -0.50490
 C69 C -0.32400 0.71139 -0.58740
 C70 C -0.28850 0.74026 -0.58507
 C71 C -0.26888 0.73881 -0.50233
 C72 C -0.28579 0.71484 -0.42082
 C73 C -0.26444 0.70488 -0.34338
 C74 C -0.22861 0.72726 -0.34210
 C75 C -0.21254 0.75940 -0.41851
 C76 C -0.23211 0.76082 -0.50125
 C77 C -0.27242 0.77328 -0.66112
 C78 C -0.23656 0.79555 -0.65982
 C79 C -0.21519 0.78523 -0.58254
 C80 C -0.17787 0.80156 -0.58182
 C81 C -0.16013 0.80482 -0.49789
 C82 C -0.17713 0.78806 -0.41604
 H83 H -0.27451 0.67680 -0.28409
 H84 H -0.21327 0.71544 -0.28202
 H85 H -0.28781 0.78627 -0.72077
 H86 H -0.22652 0.82413 -0.71881
 H87 H -0.36880 0.67741 -0.50660
 H88 H -0.13241 0.82371 -0.49537
 O89 O -0.04941 0.87878 0.17785
 O90 O -0.08976 0.94177 0.08840
 C91 C -0.08169 0.89792 0.15562
 O92 O 0.04966 1.14882 0.15573
 O93 O 0.08995 1.07333 0.07804
 C94 C 0.08196 1.12657 0.13693
 O95 O -0.04997 1.13863 0.16475
 O96 O -0.09010 1.06720 0.07993
 C97 C -0.08223 1.11682 0.14347
 O98 O 0.04995 0.87519 0.17282
 O99 O 0.09007 0.94208 0.08575
 C100 C 0.08219 0.89564 0.15083
 Zr101 Zr 0.00019 0.91179 0.12178
 O102 O 0.00312 0.91584 0.26540
 O103 O -0.00323 0.79060 0.12195
 Zr104 Zr -0.00024 1.10609 0.10843
 O105 O 0.00177 1.12918 0.24970
 O106 O -0.00443 1.22535 0.08632
 O107 O -0.03157 1.00931 0.13356
 O108 O 0.03070 1.01064 0.13286
 O109 O 0.05039 0.85731 -0.15156
 O110 O 0.09019 0.93522 -0.07416
 C111 C 0.08251 0.88184 -0.13360
 O112 O -0.05012 1.12055 -0.17435
 O113 O -0.09018 1.05866 -0.08222
 C114 C -0.08238 1.10160 -0.15039
 O115 O 0.05019 1.12953 -0.16668
 O116 O 0.09039 1.06448 -0.07867
 C117 C 0.08252 1.11078 -0.14350
 O118 O -0.04893 0.86200 -0.16066
 O119 O -0.08948 0.93318 -0.07819
 C120 C -0.08126 0.88364 -0.14143
 Zr121 Zr 0.00039 0.89753 -0.10370
 O122 O 0.00255 0.87466 -0.24497
 O123 O -0.00313 0.77820 -0.08086
 Zr124 Zr -0.00007 1.09168 -0.11727
 O125 O 0.00330 1.08933 -0.26081
 O126 O -0.00416 1.21267 -0.11765
 Zr127 Zr -0.05394 1.00057 0.00211
 Zr128 Zr 0.05406 1.00307 0.00277
 O129 O 0.03086 0.99440 -0.12771
 O130 O -0.03136 0.99282 -0.12917
 O131 O 0.03314 0.89068 0.01011
 O132 O -0.03212 1.11178 -0.00530
 O133 O -0.03175 0.89036 0.00953
 O134 O 0.03252 1.11443 -0.00512
 H135 H 0.04590 1.01391 0.18796
 H136 H -0.04898 1.15538 -0.00782
 H137 H 0.04598 0.99204 -0.18296
 H138 H -0.04852 0.84618 0.01172
 H139 H 0.01957 1.24453 0.06889
 H140 H 0.01849 1.23416 -0.09287
 H141 H -0.01352 1.04927 -0.28331
 H142 H 0.00066 0.92465 -0.27491
 H143 H 0.02113 0.75992 -0.06528
 H144 H 0.01933 0.77017 0.09613
 H145 H -0.01444 0.95428 0.28712
 H146 H 0.00096 1.07903 0.27965
 O147 O 0.55027 0.36310 -0.16519
 O148 O 0.59022 0.43545 -0.08094
 C149 C 0.58246 0.38544 -0.14412
 O150 O 0.44975 0.62773 -0.17123
 O151 O 0.40978 0.55887 -0.08601
 C152 C 0.41756 0.60633 -0.15008
 O153 O 0.54910 0.62384 -0.17769
 O154 O 0.58963 0.56104 -0.08858
 C155 C 0.58143 0.60483 -0.15576
 O156 O 0.45037 0.35368 -0.15665
 O157 O 0.41005 0.42796 -0.07721
 C158 C 0.41805 0.37521 -0.13677
 Zr159 Zr 0.50033 0.39736 -0.11112
 O160 O 0.49685 0.38230 -0.25377
 O161 O 0.50469 0.27725 -0.09639
 Zr162 Zr 0.49967 0.59182 -0.12011
 O163 O 0.49650 0.59396 -0.26347
 O164 O 0.50315 0.71302 -0.11451
 O165 O 0.53159 0.49454 -0.13416
 O166 O 0.46929 0.49289 -0.13324
 O167 O 0.45005 0.37094 0.16525
 O168 O 0.40984 0.43623 0.07775
 C169 C 0.41772 0.38960 0.14218
 O170 O 0.54919 0.64044 0.15980
 O171 O 0.58958 0.56827 0.07810
 C172 C 0.58145 0.61816 0.14101
 O173 O 0.44973 0.64330 0.15321
 O174 O 0.40993 0.56575 0.07519
 C175 C 0.41762 0.61869 0.13519
 O176 O 0.55009 0.38246 0.17458
 O177 O 0.59024 0.44290 0.08128
 C178 C 0.58240 0.40060 0.15002
 Zr179 Zr 0.50024 0.40809 0.11459
 O180 O 0.49773 0.40033 0.25747
 O181 O 0.50460 0.28718 0.10640
 Zr182 Zr 0.49965 0.60258 0.10587
 O183 O 0.49656 0.61674 0.24870
 O184 O 0.50302 0.72285 0.09033
 Zr185 Zr 0.55398 0.50142 -0.00261
 Zr186 Zr 0.44602 0.49875 -0.00290
 O187 O 0.46928 0.50532 0.12764
 O188 O 0.53146 0.50705 0.12886
 O189 O 0.46762 0.38725 0.00237
 O190 O 0.53163 0.61162 -0.00770
 O191 O 0.53229 0.38995 0.00252
 O192 O 0.46683 0.61127 -0.00787
 H193 H 0.45410 0.48959 -0.18837
 H194 H 0.54833 0.65594 -0.00963
 H195 H 0.45423 0.50736 0.18303
 H196 H 0.54923 0.34647 0.00476
 H197 H 0.47962 0.73290 -0.09432
 H198 H 0.47974 0.74048 0.06648
 H199 H 0.51267 0.57847 0.27562
 H200 H 0.50125 0.45285 0.28200
 H201 H 0.48059 0.26601 0.09165
 H202 H 0.48188 0.25843 -0.07046
 H203 H 0.51214 0.42213 -0.28119
 H204 H 0.51042 0.54987 -0.28695
 C205 C 0.38806 0.39103 0.30039
 C206 C 0.34698 0.39942 0.29535
 C207 C 0.34265 0.31680 0.32860
 C208 C 0.38393 0.30814 0.33272
 C209 C 0.34290 0.28603 0.22933
 C210 C 0.34743 0.36961 0.19550
 C211 C 0.38837 0.36105 0.20167
 C212 C 0.38427 0.27829 0.23370
 H213 H 0.40677 0.43455 0.32977
 H214 H 0.33111 0.44887 0.32080
 H215 H 0.39987 0.28186 0.38760
 H216 H 0.32547 0.24113 0.19798
 H217 H 0.33266 0.39512 0.13812
 H218 H 0.39988 0.22855 0.20781
 C219 C -0.10658 0.88160 0.31928
 C220 C -0.14628 0.90511 0.32535
 C221 C -0.15676 0.82088 0.33975
 C222 C -0.11694 0.79711 0.33314
 C223 C -0.16101 0.80789 0.23603
 C224 C -0.15036 0.89314 0.22119
 C225 C -0.11078 0.86956 0.21613
 C226 C -0.12091 0.78513 0.22957
 H227 H -0.08397 0.91177 0.35384
 H228 H -0.15658 0.95370 0.36709
 H229 H -0.10275 0.75691 0.37820
 H230 H -0.18208 0.77520 0.19858
 H231 H -0.16387 0.93312 0.17461
 H232 H -0.11018 0.73595 0.18946
 C233 C 0.62982 0.72486 0.20534
 C234 C 0.62104 0.73325 0.30806
 C235 C 0.65613 0.69194 0.33132
 C236 C 0.66538 0.68329 0.22912
 C237 C 0.63646 0.61368 0.32734
 C238 C 0.60143 0.65523 0.30481
 C239 C 0.61032 0.64711 0.20308
 C240 C 0.64522 0.60530 0.22539
 H241 H 0.62691 0.77037 0.15421
 H242 H 0.61094 0.78608 0.34220
 H243 H 0.69135 0.69114 0.19379
 H244 H 0.63874 0.56780 0.37821
 H245 H 0.57508 0.64316 0.33670
 H246 H 0.65500 0.55277 0.19015
 C247 C 0.15111 1.16888 0.19147
 C248 C 0.14760 1.23957 0.25727
 C249 C 0.15377 1.18668 0.33890
 C250 C 0.15763 1.11694 0.27432
 C251 C 0.11281 1.17259 0.34572
 C252 C 0.10669 1.22456 0.26404
 C253 C 0.11053 1.15458 0.20020
 C254 C 0.11687 1.10270 0.28181
 H255 H 0.16656 1.16762 0.12707
 H256 H 0.15992 1.29685 0.24734
 H257 H 0.17880 1.07274 0.27824
 H258 H 0.09458 1.17469 0.40522
 H259 H 0.08568 1.26910 0.25930
 H260 H 0.10370 1.04647 0.29214
 C261 C 0.61705 0.40263 -0.29247
 C262 C 0.65808 0.39619 -0.28122
 C263 C 0.65714 0.32074 -0.33667
 C264 C 0.61589 0.32683 -0.34711
 C265 C 0.65181 0.27452 -0.24895
 C266 C 0.65250 0.35101 -0.19246
 C267 C 0.61169 0.35760 -0.20490
 C268 C 0.61060 0.28180 -0.25935
 H269 H 0.60215 0.45491 -0.31074
 H270 H 0.67830 0.44240 -0.28919
 H271 H 0.59913 0.31573 -0.40835
 H272 H 0.66520 0.22037 -0.23046
 H273 H 0.66723 0.36096 -0.12778
 H274 H 0.59090 0.23474 -0.24980
 C275 C 0.13167 0.77783 -0.19916
 C276 C 0.12247 0.76899 -0.30166
 C277 C 0.15699 0.81278 -0.32592
 C278 C 0.16664 0.82196 -0.22399
 C279 C 0.13654 0.88951 -0.32131
 C280 C 0.10208 0.84554 -0.29766
 C281 C 0.11141 0.85416 -0.19606
 C282 C 0.14574 0.89852 -0.21960
 H283 H 0.12954 0.73204 -0.14806
 H284 H 0.11278 0.71555 -0.33576
 H285 H 0.19300 0.81550 -0.19023
 H286 H 0.13810 0.93573 -0.37196
 H287 H 0.07545 0.85569 -0.32876
 H288 H 0.15518 0.95196 -0.18509
 C289 C 0.39228 0.61441 -0.31359
 C290 C 0.35220 0.59252 -0.31752
 C291 C 0.34309 0.67605 -0.33917
 C292 C 0.38328 0.69819 -0.33474
 C293 C 0.33925 0.69566 -0.23667
 C294 C 0.34854 0.61111 -0.21449
 C295 C 0.38850 0.63305 -0.21152
 C296 C 0.37970 0.71675 -0.23232
 H297 H 0.41438 0.58129 -0.34563
 H298 H 0.34094 0.54161 -0.35383
 H299 H 0.39811 0.73464 -0.38324
 H300 H 0.31866 0.73139 -0.20222
 H301 H 0.33444 0.57497 -0.16439
 H302 H 0.39126 0.76771 -0.19663
 C303 C -0.11465 1.20976 -0.24659
 C304 C -0.11681 1.17610 -0.34369
 C305 C -0.15822 1.17075 -0.33598
 C306 C -0.15606 1.20557 -0.23868
 C307 C -0.15528 1.08939 -0.29842
 C308 C -0.11406 1.09434 -0.30698
 C309 C -0.11191 1.12815 -0.21020
 C310 C -0.15291 1.12321 -0.20035
 H311 H -0.09765 1.25916 -0.22481
 H312 H -0.10095 1.19890 -0.40116
 H313 H -0.17184 1.25325 -0.20836
 H314 H -0.17273 1.04059 -0.31956
 H315 H -0.09653 1.04851 -0.33509
 H316 H -0.16747 1.10116 -0.14043
 C317 C 0.60595 0.61920 -0.31992
 C318 C 0.61595 0.70364 -0.33559
 C319 C 0.65585 0.68047 -0.34228
 C320 C 0.64573 0.59631 -0.32610
 C321 C 0.66028 0.69498 -0.23886
 C322 C 0.62011 0.71714 -0.23229
 C323 C 0.61034 0.63277 -0.21704
 C324 C 0.65000 0.60978 -0.22221
 H325 H 0.58337 0.58814 -0.35352
 H326 H 0.60148 0.74298 -0.38115
 H327 H 0.65612 0.54739 -0.36711
 H328 H 0.68133 0.72855 -0.20246
 H329 H 0.60928 0.76667 -0.19298
 H330 H 0.66376 0.57070 -0.17505
 C331 C 0.15284 1.13171 -0.19781
 C332 C 0.15334 1.09869 -0.29636
 C333 C 0.15685 1.18024 -0.33337
 C334 C 0.15658 1.21431 -0.23555
 C335 C 0.11546 1.18734 -0.33719
 C336 C 0.11216 1.10543 -0.30111
 C337 C 0.11181 1.13851 -0.20372
 C338 C 0.11513 1.22026 -0.23957
 H339 H 0.16797 1.10868 -0.13950
 H340 H 0.16958 1.04909 -0.31968
 H341 H 0.17364 1.26099 -0.20667
 H342 H 0.09900 1.21127 -0.39268
 H343 H 0.09373 1.06037 -0.32827
 H344 H 0.09918 1.27017 -0.21565
 C345 C 0.34874 0.33210 -0.18888
 C346 C 0.34206 0.38181 -0.27352
 C347 C 0.34570 0.31044 -0.33567
 C348 C 0.35204 0.25981 -0.25214
 C349 C 0.38659 0.32432 -0.34363
 C350 C 0.38278 0.39580 -0.28219
 C351 C 0.38930 0.34605 -0.19880
 C352 C 0.39293 0.27448 -0.26018
 H353 H 0.33345 0.33512 -0.12429
 H354 H 0.32087 0.42583 -0.27886
 H355 H 0.33969 0.20291 -0.23996
 H356 H 0.40450 0.32062 -0.40367
 H357 H 0.39588 0.45174 -0.29481
 H358 H 0.41393 0.23003 -0.25419
 C359 C -0.14552 0.89480 -0.22413
 C360 C -0.13719 0.88724 -0.32642
 C361 C -0.15616 0.80827 -0.33033
 C362 C -0.16491 0.81595 -0.22779
 C363 C -0.12054 0.76842 -0.30857
 C364 C -0.10165 0.84720 -0.30535
 C365 C -0.11010 0.85439 -0.20331
 C366 C -0.12885 0.77583 -0.20557
 H367 H -0.15560 0.94686 -0.18840
 H368 H -0.14024 0.93298 -0.37718
 H369 H -0.19062 0.80617 -0.19197
 H370 H -0.11018 0.71621 -0.34354
 H371 H -0.07555 0.86066 -0.33783
 H372 H -0.12522 0.73019 -0.15490
 C373 C 0.35464 0.60076 0.22190
 C374 C 0.36402 0.60942 0.32354
 C375 C 0.34337 0.68587 0.32890
 C376 C 0.33353 0.67702 0.22704
 C377 C 0.37770 0.73022 0.30443
 C378 C 0.39830 0.65395 0.29970
 C379 C 0.38878 0.64570 0.19817
 C380 C 0.36831 0.72174 0.20203
 H381 H 0.34527 0.54739 0.18711
 H382 H 0.36268 0.56285 0.37380
 H383 H 0.30707 0.68317 0.19366
 H384 H 0.38732 0.78363 0.33875
 H385 H 0.42502 0.64405 0.33042
 H386 H 0.37019 0.76778 0.15121
 C387 C -0.11680 1.09680 0.29108
 C388 C -0.11515 1.17118 0.34836
 C389 C -0.15637 1.17852 0.33851
 C390 C -0.15781 1.10450 0.28047
 C391 C -0.15091 1.22683 0.25249
 C392 C -0.10974 1.21832 0.26225
 C393 C -0.11130 1.14393 0.20513
 C394 C -0.15208 1.15178 0.19334
 H395 H -0.10209 1.04380 0.30728
 H396 H -0.09822 1.18023 0.40970
 H397 H -0.17825 1.05856 0.28704
 H398 H -0.16419 1.28166 0.23624
 H399 H -0.08981 1.26516 0.25418
 H400 H -0.16695 1.14387 0.12850
 C401 C 0.61397 0.40578 0.30740
 C402 C 0.61722 0.32336 0.34172
 C403 C 0.65855 0.32972 0.33392
 C404 C 0.65513 0.41181 0.29877
 C405 C 0.65649 0.29702 0.23565
 C406 C 0.61513 0.29161 0.24370
 C407 C 0.61193 0.37390 0.20971
 C408 C 0.65288 0.38002 0.19982
 H409 H 0.59624 0.45064 0.33688
 H410 H 0.60171 0.29905 0.39888
 H411 H 0.67234 0.46051 0.32148
 H412 H 0.67261 0.25057 0.20383
 H413 H 0.59836 0.24226 0.22060
 H414 H 0.66729 0.40367 0.14053
 C415 C 0.10744 0.88555 0.31443
 C416 C 0.11683 0.80167 0.33375
 C417 C 0.15690 0.82442 0.33852
 C418 C 0.14740 0.90811 0.31871
 C419 C 0.16077 0.80663 0.23563
 C420 C 0.12043 0.78471 0.23095
 C421 C 0.11126 0.86855 0.21198
 C422 C 0.15111 0.89127 0.21535
 H423 H 0.08522 0.91780 0.34725
 H424 H 0.10232 0.76426 0.38180
 H425 H 0.15848 0.95857 0.35627
 H426 H 0.18162 0.77208 0.20052
 H427 H 0.10909 0.73405 0.19420
 H428 H 0.16503 0.92852 0.16608
   
