data_POSCAR
  _audit_creation_date              2014-09-24
  _audit_creation_method            'ToBaCCo'
  _symmetry_space_group_name_H-M    'P1'
  _symmetry_Int_Tables_number       1
  _symmetry_cell_setting            triclinic
  loop_
  _symmetry_equiv_pos_as_xyz
 x,y,z
_cell_length_a 21.3745
_cell_length_b 21.3452
_cell_length_c 19.7718
_cell_angle_alpha 89.983600
_cell_angle_beta 89.885200
_cell_angle_gamma 91.673500
loop_
  _atom_site_label
  _atom_site_type_symbol
  _atom_site_fract_x
  _atom_site_fract_y
  _atom_site_fract_z
C1 C -0.18232 0.34470 -0.03432
 C2 C -0.18253 0.34505 0.03530
 C3 C -0.13198 0.31037 0.05592
 N4 N -0.10058 0.29044 0.00093
 C5 C -0.13156 0.31007 -0.05428
 C6 C -0.11930 0.28716 0.12173
 C7 C -0.05784 0.26625 0.13477
 C8 C -0.04017 0.22104 0.18101
 C9 C 0.02405 0.22085 0.18091
 C10 C 0.04451 0.26556 0.13423
 N11 N -0.00580 0.29182 0.10548
 C12 C 0.10720 0.28516 0.12022
 C13 C 0.12167 0.30837 0.05466
 C14 C 0.17449 0.34287 0.03454
 C15 C 0.17458 0.34320 -0.03513
 C16 C 0.12190 0.30861 -0.05560
 N17 N 0.08942 0.28885 -0.00047
 C18 C 0.10788 0.28456 -0.12110
 C19 C 0.04501 0.26444 -0.13384
 C20 C 0.02386 0.21926 -0.17964
 C21 C -0.04033 0.22027 -0.17935
 C22 C -0.05722 0.26600 -0.13339
 N23 N -0.00496 0.29138 -0.10490
 C24 C -0.11824 0.28730 -0.11994
 H25 H -0.21593 0.36789 -0.06563
 H26 H -0.21638 0.36854 0.06617
 H27 H -0.00337 0.32966 -0.07195
 H28 H -0.06922 0.18897 0.21039
 H29 H 0.05092 0.18877 0.21039
 H30 H 0.20981 0.36552 0.06579
 H31 H 0.21007 0.36616 -0.06609
 H32 H -0.06984 0.18831 -0.20815
 H33 H -0.00446 0.32971 0.07198
 H34 H 0.05037 0.18654 -0.20886
 C35 C 0.68770 0.74108 0.53449
 C36 C 0.68766 0.74105 0.46556
 C37 C 0.63295 0.76842 0.44531
 N38 N 0.59935 0.78536 0.50020
 C39 C 0.63301 0.76847 0.55496
 C40 C 0.61625 0.77761 0.37673
 C41 C 0.55469 0.79065 0.35547
 C42 C 0.53757 0.80424 0.28958
 C43 C 0.47349 0.80969 0.28950
 C44 C 0.45314 0.80001 0.35548
 N45 N 0.50295 0.78842 0.39514
 C46 C 0.38987 0.80298 0.37700
 C47 C 0.37305 0.81690 0.44508
 C48 C 0.31652 0.84086 0.46572
 C49 C 0.31665 0.84123 0.53489
 C50 C 0.37318 0.81727 0.55548
 N51 N 0.40821 0.80453 0.50023
 C52 C 0.38995 0.80344 0.62360
 C53 C 0.45319 0.80053 0.64504
 C54 C 0.47344 0.81037 0.71094
 C55 C 0.53751 0.80472 0.71079
 C56 C 0.55473 0.79090 0.64493
 N57 N 0.50305 0.78870 0.60536
 C58 C 0.61633 0.77770 0.62359
 H59 H 0.72315 0.72145 0.56602
 H60 H 0.72308 0.72141 0.43388
 H61 H 0.50096 0.77330 0.55584
 H62 H 0.56789 0.80965 0.24594
 H63 H 0.44533 0.82126 0.24605
 H64 H 0.27914 0.85865 0.43530
 H65 H 0.27940 0.85949 0.56531
 H66 H 0.56776 0.81017 0.75435
 H67 H 0.50088 0.77315 0.44472
 H68 H 0.44526 0.82218 0.75440
 C69 C 1.19251 0.65012 -0.03487
 C70 C 1.19279 0.65061 0.03449
 C71 C 1.13811 0.67840 0.05529
 N72 N 1.10391 0.69293 -0.00000
 C73 C 1.13769 0.67772 -0.05548
 C74 C 1.12259 0.69528 0.12325
 C75 C 1.05925 0.70064 0.14449
 C76 C 1.03798 0.68994 0.21010
 C77 C 0.97426 0.69750 0.20980
 C78 C 0.95810 0.71280 0.14415
 N79 N 1.01010 0.71441 0.10478
 C80 C 0.89698 0.72723 0.12294
 C81 C 0.88024 0.73670 0.05470
 C82 C 0.82505 0.76324 0.03456
 C83 C 0.82491 0.76307 -0.03417
 C84 C 0.88004 0.73646 -0.05456
 N85 N 0.91401 0.72008 -0.00001
 C86 C 0.89668 0.72693 -0.12287
 C87 C 0.95782 0.71246 -0.14422
 C88 C 0.97418 0.69758 -0.20999
 C89 C 1.03788 0.68990 -0.21033
 C90 C 1.05888 0.70002 -0.14462
 N91 N 1.00965 0.71360 -0.10483
 C92 C 1.12208 0.69448 -0.12343
 H93 H 1.22857 0.62999 -0.06562
 H94 H 1.22903 0.63086 0.06516
 H95 H 1.01250 0.72924 -0.05543
 H96 H 1.06521 0.67601 0.25339
 H97 H 0.94339 0.69197 0.25300
 H98 H 0.78898 0.78193 0.06592
 H99 H 0.78872 0.78163 -0.06537
 H100 H 1.06530 0.67632 -0.25373
 H101 H 1.01297 0.73056 0.05552
 H102 H 0.94348 0.69249 -0.25325
 C103 C 0.67077 0.15701 0.46553
 C104 C 0.67035 0.15663 0.53519
 C105 C 0.61892 0.19017 0.55552
 N106 N 0.58760 0.20964 0.50035
 C107 C 0.61952 0.19064 0.44522
 C108 C 0.60510 0.21186 0.62169
 C109 C 0.54360 0.23151 0.63553
 C110 C 0.52581 0.27557 0.68292
 C111 C 0.46162 0.27558 0.68297
 C112 C 0.44139 0.23159 0.63549
 N113 N 0.49182 0.20616 0.60589
 C114 C 0.37877 0.21205 0.62140
 C115 C 0.36451 0.18978 0.55549
 C116 C 0.31182 0.15536 0.53512
 C117 C 0.31220 0.15527 0.46548
 C118 C 0.36509 0.18972 0.44537
 N119 N 0.39728 0.20944 0.50052
 C120 C 0.37987 0.21213 0.37953
 C121 C 0.44243 0.23210 0.36573
 C122 C 0.46265 0.27652 0.31862
 C123 C 0.52683 0.27663 0.31849
 C124 C 0.54461 0.23223 0.36548
 N125 N 0.49280 0.20656 0.39505
 C126 C 0.60610 0.21258 0.37914
 H127 H 0.70518 0.13468 0.43438
 H128 H 0.70438 0.13388 0.56634
 H129 H 0.49174 0.16911 0.42912
 H130 H 0.55472 0.30720 0.71280
 H131 H 0.43457 0.30716 0.71301
 H132 H 0.27642 0.13241 0.56621
 H133 H 0.27713 0.13221 0.43424
 H134 H 0.55570 0.30856 0.28880
 H135 H 0.49084 0.16899 0.57149
 H136 H 0.43554 0.30830 0.28898
 C137 C 0.65771 -0.18365 -0.03525
 C138 C 0.65778 -0.18395 0.03450
 C139 C 0.69056 -0.13017 0.05499
 N140 N 0.70913 -0.09699 -0.00021
 C141 C 0.69058 -0.12975 -0.05556
 C142 C 0.71367 -0.11537 0.12075
 C143 C 0.73223 -0.05179 0.13371
 C144 C 0.77732 -0.02977 0.17915
 C145 C 0.77513 0.03447 0.17932
 C146 C 0.72912 0.05066 0.13367
 N147 N 0.70445 -0.00212 0.10507
 C148 C 0.70757 0.11167 0.12008
 C149 C 0.68481 0.12446 0.05432
 C150 C 0.64941 0.17464 0.03433
 C151 C 0.64926 0.17478 -0.03530
 C152 C 0.68484 0.12480 -0.05595
 N153 N 0.70508 0.09369 -0.00092
 C154 C 0.70847 0.11260 -0.12181
 C155 C 0.73033 0.05135 -0.13479
 C156 C 0.77719 0.03478 -0.17951
 C157 C 0.77910 -0.02953 -0.17900
 C158 C 0.73317 -0.05125 -0.13416
 N159 N 0.70510 -0.00136 -0.10625
 C160 C 0.71411 -0.11477 -0.12125
 H161 H 0.63609 -0.21966 -0.06651
 H162 H 0.63625 -0.22019 0.06565
 H163 H 0.66649 -0.00344 -0.07373
 H164 H 0.81093 -0.05576 0.20761
 H165 H 0.80666 0.06460 0.20793
 H166 H 0.62559 0.20787 0.06567
 H167 H 0.62529 0.20821 -0.06619
 H168 H 0.81299 -0.05587 -0.20683
 H169 H 0.66639 -0.00430 0.07198
 H170 H 0.80923 0.06489 -0.20774
 C171 C 0.24052 0.30922 0.46583
 C172 C 0.24057 0.30949 0.53452
 C173 C 0.21685 0.36612 0.55468
 N174 N 0.20200 0.40075 0.49991
 C175 C 0.21686 0.36573 0.44535
 C176 C 0.20910 0.38416 0.62294
 C177 C 0.20088 0.44677 0.64282
 C178 C 0.18318 0.46623 0.70684
 C179 C 0.18758 0.53084 0.70675
 C180 C 0.20792 0.54860 0.64273
 N181 N 0.21572 0.49717 0.60428
 C182 C 0.22373 0.61029 0.62235
 C183 C 0.23477 0.62697 0.55428
 C184 C 0.26456 0.68214 0.53404
 C185 C 0.26474 0.68196 0.46518
 C186 C 0.23500 0.62670 0.44518
 N187 N 0.21638 0.59284 0.49982
 C188 C 0.22412 0.60980 0.37716
 C189 C 0.20838 0.54804 0.35691
 C190 C 0.18843 0.53015 0.29288
 C191 C 0.18414 0.46552 0.29289
 C192 C 0.20142 0.44614 0.35699
 N193 N 0.21598 0.49665 0.39549
 C194 C 0.20952 0.38351 0.37702
 H195 H 0.25781 0.27211 0.43488
 H196 H 0.25793 0.27259 0.56566
 H197 H 0.23804 0.49572 0.44222
 H198 H 0.16968 0.43694 0.74944
 H199 H 0.17808 0.56114 0.74923
 H200 H 0.28521 0.71806 0.56575
 H201 H 0.28555 0.71775 0.43333
 H202 H 0.17096 0.43616 0.25031
 H203 H 0.23805 0.49608 0.55760
 H204 H 0.17916 0.56037 0.25030
 C205 C 0.25159 0.81125 0.03424
 C206 C 0.25094 0.81060 -0.03423
 C207 C 0.27412 0.86849 -0.05559
 N208 N 0.28895 0.90501 -0.00159
 C209 C 0.27498 0.86952 0.05354
 C210 C 0.27879 0.88644 -0.12436
 C211 C 0.28470 0.94968 -0.14527
 C212 C 0.30137 0.96923 -0.20995
 C213 C 0.30054 1.03358 -0.20986
 C214 C 0.28340 1.05156 -0.14512
 N215 N 0.27390 1.00018 -0.10610
 C216 C 0.27531 1.11408 -0.12415
 C217 C 0.27043 1.13187 -0.05525
 C218 C 0.24396 1.18696 -0.03427
 C219 C 0.24536 1.18731 0.03407
 C220 C 0.27270 1.13238 0.05417
 N221 N 0.28795 1.09784 -0.00084
 C222 C 0.27993 1.11480 0.12290
 C223 C 0.29001 1.05238 0.14309
 C224 C 0.30868 1.03400 0.20715
 C225 C 0.31009 0.96956 0.20654
 C226 C 0.29247 0.95059 0.14212
 N227 N 0.28045 1.00124 0.10385
 C228 C 0.28309 0.88785 0.12159
 H229 H 0.23471 0.77356 0.06602
 H230 H 0.23287 0.77248 -0.06462
 H231 H 0.25970 1.00051 0.05644
 H232 H 0.31360 0.94022 -0.25261
 H233 H 0.31195 1.06369 -0.25247
 H234 H 0.22264 1.22217 -0.06465
 H235 H 0.22524 1.22288 0.06509
 H236 H 0.32217 0.94005 0.24881
 H237 H 0.25500 0.99954 -0.05768
 H238 H 0.32000 1.06385 0.24993
 C239 C 0.74233 0.31708 0.46558
 C240 C 0.74248 0.31678 0.53443
 C241 C 0.76949 0.37324 0.55505
 N242 N 0.78620 0.40813 0.50017
 C243 C 0.76935 0.37367 0.44516
 C244 C 0.77776 0.39070 0.62387
 C245 C 0.79145 0.45304 0.64514
 C246 C 0.80420 0.47100 0.71122
 C247 C 0.81057 0.53540 0.71129
 C248 C 0.80220 0.55520 0.64515
 N249 N 0.79068 0.50468 0.60537
 C250 C 0.80644 0.61865 0.62359
 C251 C 0.82060 0.63612 0.55547
 C252 C 0.84581 0.69366 0.53487
 C253 C 0.84559 0.69389 0.46573
 C254 C 0.82036 0.63645 0.44510
 N255 N 0.80707 0.60071 0.50024
 C256 C 0.80635 0.61918 0.37702
 C257 C 0.80249 0.55582 0.35547
 C258 C 0.81205 0.53616 0.28948
 C259 C 0.80580 0.47178 0.28948
 C260 C 0.79189 0.45378 0.35536
 N261 N 0.79029 0.50530 0.39512
 C262 C 0.77787 0.39149 0.37640
 H263 H 0.72276 0.28021 0.43441
 H264 H 0.72303 0.27969 0.56548
 H265 H 0.77493 0.50647 0.44469
 H266 H 0.80853 0.44100 0.75499
 H267 H 0.82191 0.56417 0.75490
 H268 H 0.86492 0.73160 0.56515
 H269 H 0.86447 0.73200 0.43542
 H270 H 0.81102 0.44185 0.24579
 H271 H 0.77652 0.50597 0.55549
 H272 H 0.82412 0.56502 0.24608
 O273 O 0.23624 0.14965 0.22321
 O274 O 0.19112 0.28143 0.33164
 O275 O 0.14987 0.23436 0.21767
 O276 O 0.27510 0.19730 0.33704
 O277 O 0.33901 0.25791 0.27810
 O278 O 0.21147 0.30136 0.16399
 O279 O 0.25717 0.34508 0.27720
 O280 O 0.29433 0.21602 0.16285
 Cu281 Cu 0.20633 0.20933 0.28269
 Cu282 Cu 0.28217 0.28630 0.21491
 C283 C 0.27117 0.16122 0.17238
 C284 C 0.21833 0.33482 0.32479
 C285 C 0.15848 0.27368 0.17019
 C286 C 0.32902 0.22230 0.32867
 O287 O 0.75798 0.84910 0.22123
 O288 O 0.81237 0.72440 0.33292
 O289 O 0.85257 0.77452 0.22074
 O290 O 0.71900 0.79991 0.33493
 O291 O 0.65949 0.73412 0.27556
 O292 O 0.79562 0.70262 0.16659
 O293 O 0.75167 0.65610 0.27956
 O294 O 0.70563 0.78045 0.16008
 Cu295 Cu 0.79089 0.79394 0.28314
 Cu296 Cu 0.72198 0.71151 0.21491
 C297 C 0.72531 0.83659 0.16921
 C298 C 0.79062 0.66885 0.32655
 C299 C 0.84655 0.73415 0.17387
 C300 C 0.66688 0.77109 0.32549
 O301 O 0.84035 0.24470 0.22219
 O302 O 0.71082 0.19977 0.33670
 O303 O 0.75316 0.15701 0.22092
 O304 O 0.79424 0.28914 0.33346
 O305 O 0.73252 0.34949 0.27441
 O306 O 0.69205 0.21630 0.16147
 O307 O 0.64909 0.25799 0.27693
 O308 O 0.77828 0.30077 0.16066
 Cu309 Cu 0.78083 0.21658 0.28383
 Cu310 Cu 0.70677 0.28756 0.21298
 C311 C 0.83174 0.27796 0.17007
 C312 C 0.65763 0.22314 0.32796
 C313 C 0.71738 0.16397 0.17040
 C314 C 0.76873 0.34147 0.32445
 O315 O 0.15833 0.74674 0.22045
 O316 O 0.28468 0.80573 0.33272
 O317 O 0.23570 0.84369 0.22011
 O318 O 0.20510 0.71109 0.33467
 O319 O 0.27035 0.65287 0.27709
 O320 O 0.30621 0.78819 0.16688
 O321 O 0.35157 0.74665 0.27998
 O322 O 0.22657 0.69413 0.16217
 Cu323 Cu 0.21420 0.78238 0.28260
 Cu324 Cu 0.29547 0.71481 0.21597
 C325 C 0.17067 0.71114 0.17079
 C326 C 0.33971 0.78559 0.32664
 C327 C 0.27591 0.83817 0.17342
 C328 C 0.23250 0.65976 0.32591
 O329 O 0.64761 0.25556 0.72497
 O330 O 0.77795 0.30295 0.83731
 O331 O 0.73028 0.34798 0.72459
 O332 O 0.69465 0.21554 0.84061
 O333 O 0.74979 0.15405 0.77703
 O334 O 0.79444 0.28835 0.66761
 O335 O 0.83781 0.24081 0.77972
 O336 O 0.71001 0.20011 0.66269
 Cu337 Cu 0.70607 0.28659 0.78733
 Cu338 Cu 0.77934 0.21491 0.71622
 C339 C 0.65649 0.22221 0.67277
 C340 C 0.83021 0.27727 0.82947
 C341 C 0.76800 0.34042 0.67567
 C342 C 0.71728 0.16208 0.83007
 O343 O 0.35148 0.74844 0.72186
 O344 O 0.22559 0.69220 0.83686
 O345 O 0.27040 0.65391 0.72169
 O346 O 0.30096 0.78780 0.83514
 O347 O 0.23580 0.84542 0.77723
 O348 O 0.20369 0.71122 0.66527
 O349 O 0.15835 0.74748 0.78035
 O350 O 0.28427 0.80474 0.66642
 Cu351 Cu 0.29423 0.71510 0.78424
 Cu352 Cu 0.21372 0.78268 0.71677
 C353 C 0.33960 0.78604 0.67395
 C354 C 0.17015 0.71051 0.82904
 C355 C 0.23195 0.66032 0.67349
 C356 C 0.27272 0.83886 0.82672
 O357 O 0.29187 0.21497 0.83607
 O358 O 0.25454 0.34534 0.72377
 O359 O 0.21011 0.29981 0.83821
 O360 O 0.33712 0.25860 0.72211
 O361 O 0.27347 0.19760 0.66362
 O362 O 0.14669 0.23777 0.78094
 O363 O 0.18973 0.28220 0.66735
 O364 O 0.23096 0.15047 0.77679
 Cu365 Cu 0.28001 0.28604 0.78552
 Cu366 Cu 0.20353 0.21067 0.71679
 C367 C 0.26692 0.16091 0.82687
 C368 C 0.21679 0.33542 0.67522
 C369 C 0.15624 0.27434 0.83075
 C370 C 0.32744 0.22258 0.67193
 O371 O 0.70594 0.78109 0.83965
 O372 O 0.75143 0.65593 0.72094
 O373 O 0.79527 0.70259 0.83372
 O374 O 0.65938 0.73427 0.72482
 O375 O 0.71921 0.79967 0.66505
 O376 O 0.85251 0.77428 0.77930
 O377 O 0.81254 0.72392 0.66740
 O378 O 0.75851 0.84956 0.77819
 Cu379 Cu 0.72183 0.71172 0.78534
 Cu380 Cu 0.79112 0.79374 0.71672
 C381 C 0.72576 0.83717 0.83033
 C382 C 0.79063 0.66844 0.67396
 C383 C 0.84630 0.73399 0.82630
 C384 C 0.66694 0.77108 0.67473
   
