data_POSCAR
  _audit_creation_date              2014-09-24
  _audit_creation_method            'ToBaCCo'
  _symmetry_space_group_name_H-M    'P1'
  _symmetry_Int_Tables_number       1
  _symmetry_cell_setting            triclinic
  loop_
  _symmetry_equiv_pos_as_xyz
 x,y,z
_cell_length_a 44.2146
_cell_length_b 44.2143
_cell_length_c 44.2147
_cell_angle_alpha 90.000000
_cell_angle_beta 90.000000
_cell_angle_gamma 89.999900
loop_
  _atom_site_label
  _atom_site_type_symbol
  _atom_site_fract_x
  _atom_site_fract_y
  _atom_site_fract_z
N1 N 0.33180 0.33181 0.33181
 N2 N 0.33180 0.83179 -0.16821
 N3 N 0.83181 0.33181 -0.16818
 N4 N 0.83181 0.83181 0.33181
 N5 N 0.66819 0.66822 0.33181
 N6 N 0.66820 0.16820 -0.16817
 N7 N 0.16819 0.66818 -0.16821
 N8 N 0.16819 0.16819 0.33180
 N9 N 0.66819 0.33180 0.66821
 N10 N 0.66820 0.83182 1.16819
 N11 N 0.16819 0.33180 1.16819
 N12 N 0.16819 0.83179 0.66818
 N13 N 0.33181 0.66817 0.66817
 N14 N 0.33182 0.16820 1.16820
 N15 N 0.83180 0.66821 1.16820
 N16 N 0.83180 0.16820 0.66821
 N17 N 0.33181 0.33178 0.66819
 N18 N 0.33180 0.83181 0.16817
 N19 N 0.83181 0.33182 0.16821
 N20 N 0.83181 0.83181 0.66820
 N21 N 0.66820 0.66819 0.66819
 N22 N 0.66820 0.16821 0.16822
 N23 N 0.16819 0.66819 0.16818
 N24 N 0.16818 0.16818 0.66819
 N25 N 0.33181 0.66820 0.33178
 N26 N 0.33180 0.16817 0.83181
 N27 N 0.83181 0.66820 0.83181
 N28 N 0.83181 0.16821 0.33182
 N29 N 0.66819 0.33183 0.33183
 N30 N 0.66819 0.83180 0.83180
 N31 N 0.16820 0.33179 0.83180
 N32 N 0.16820 0.83180 0.33179
 O33 O 0.24698 1.02962 0.28838
 O34 O 0.28839 0.97037 0.24696
 O35 O 0.28840 1.02962 0.24697
 O36 O 0.24698 0.97037 0.28838
 O37 O 0.21161 0.97037 0.25301
 O38 O 0.25303 1.02963 0.21160
 O39 O 0.25303 0.97038 0.21159
 O40 O 0.21161 1.02962 0.25301
 Cu41 Cu 0.27125 1.00000 0.27124
 Cu42 Cu 0.22876 1.00000 0.22874
 C43 C 0.22256 1.03997 0.27743
 C44 C 0.27744 0.96003 0.22254
 C45 C 0.27745 1.03997 0.22255
 C46 C 0.22256 0.96003 0.27743
 O47 O 0.28840 0.47036 0.74697
 O48 O 0.24698 0.52961 0.78838
 O49 O 0.24699 0.47036 0.78838
 O50 O 0.28840 0.52961 0.74696
 O51 O 0.25303 0.52961 0.71160
 O52 O 0.21162 0.47036 0.75301
 O53 O 0.21161 0.52961 0.75301
 O54 O 0.25303 0.47035 0.71160
 Cu55 Cu 0.27126 0.49999 0.77124
 Cu56 Cu 0.22876 0.49998 0.72874
 C57 C 0.27745 0.46001 0.72255
 C58 C 0.22256 0.53995 0.77743
 C59 C 0.22257 0.46001 0.77743
 C60 C 0.27745 0.53995 0.72254
 O61 O 0.71161 0.02964 0.24699
 O62 O 0.75303 -0.02962 0.28840
 O63 O 0.75303 0.02963 0.28840
 O64 O 0.71161 -0.02962 0.24698
 O65 O 0.74698 -0.02961 0.21161
 O66 O 0.78840 0.02964 0.25303
 O67 O 0.78840 -0.02961 0.25303
 O68 O 0.74698 0.02964 0.21162
 Cu69 Cu 0.72876 0.00001 0.27126
 Cu70 Cu 0.77126 0.00001 0.22876
 C71 C 0.72256 0.03998 0.22257
 C72 C 0.77745 -0.03996 0.27745
 C73 C 0.77745 0.03998 0.27745
 C74 C 0.72256 -0.03996 0.22256
 O75 O 0.71161 0.52962 0.74698
 O76 O 0.75303 0.47037 0.78840
 O77 O 0.75303 0.52963 0.78840
 O78 O 0.71161 0.47037 0.74699
 O79 O 0.74698 0.47037 0.71162
 O80 O 0.78839 0.52962 0.75303
 O81 O 0.78840 0.47037 0.75303
 O82 O 0.74698 0.52962 0.71161
 Cu83 Cu 0.72875 0.50000 0.77126
 Cu84 Cu 0.77125 0.50000 0.72876
 C85 C 0.72256 0.53997 0.72256
 C86 C 0.77745 0.46003 0.77745
 C87 C 0.77745 0.53997 0.77745
 C88 C 0.72256 0.46003 0.72257
 O89 O 0.25302 0.47038 0.28839
 O90 O 0.21160 0.52963 0.24697
 O91 O 0.21160 0.47037 0.24697
 O92 O 0.25302 0.52963 0.28838
 O93 O 0.28839 0.52962 0.25301
 O94 O 0.24697 0.47037 0.21160
 O95 O 0.24697 0.52962 0.21160
 O96 O 0.28839 0.47037 0.25302
 Cu97 Cu 0.22875 0.50000 0.27124
 Cu98 Cu 0.27124 0.50000 0.22874
 C99 C 0.27744 0.46003 0.27744
 C100 C 0.22255 0.53997 0.22255
 C101 C 0.22255 0.46003 0.22255
 C102 C 0.27744 0.53997 0.27743
 O103 O 0.78839 0.97038 0.74699
 O104 O 0.74698 1.02963 0.78841
 O105 O 0.74697 0.97038 0.78840
 O106 O 0.78839 1.02963 0.74699
 O107 O 0.75302 1.02963 0.71162
 O108 O 0.71160 0.97038 0.75303
 O109 O 0.71161 1.02963 0.75304
 O110 O 0.75302 0.97038 0.71162
 Cu111 Cu 0.77125 1.00000 0.77126
 Cu112 Cu 0.72875 1.00001 0.72876
 C113 C 0.77744 0.96004 0.72257
 C114 C 0.72256 1.03997 0.77746
 C115 C 0.72255 0.96003 0.77745
 C116 C 0.77744 1.03998 0.72257
 O117 O 0.75301 0.52964 0.21162
 O118 O 0.71160 0.47039 0.25304
 O119 O 0.71160 0.52964 0.25303
 O120 O 0.75302 0.47039 0.21162
 O121 O 0.78839 0.47039 0.24699
 O122 O 0.74697 0.52965 0.28840
 O123 O 0.74697 0.47040 0.28841
 O124 O 0.78838 0.52964 0.24699
 Cu125 Cu 0.72874 0.50002 0.22876
 Cu126 Cu 0.77124 0.50002 0.27126
 C127 C 0.77743 0.53999 0.22257
 C128 C 0.72255 0.46005 0.27746
 C129 C 0.72255 0.53999 0.27745
 C130 C 0.77744 0.46005 0.22257
 O131 O 0.21160 0.02961 0.74697
 O132 O 0.25302 -0.02964 0.78838
 O133 O 0.25301 0.02961 0.78838
 O134 O 0.21160 -0.02964 0.74696
 O135 O 0.24697 -0.02964 0.71160
 O136 O 0.28838 0.02961 0.75302
 O137 O 0.28839 -0.02964 0.75301
 O138 O 0.24697 0.02961 0.71160
 Cu139 Cu 0.22874 -0.00002 0.77124
 Cu140 Cu 0.27124 -0.00001 0.72874
 C141 C 0.22255 0.03996 0.72255
 C142 C 0.27744 -0.03999 0.77743
 C143 C 0.27743 0.03995 0.77744
 C144 C 0.22255 -0.03998 0.72254
 O145 O 0.24698 0.28838 0.97037
 O146 O 0.28840 0.24697 1.02963
 O147 O 0.28840 0.24696 0.97037
 O148 O 0.24698 0.28838 1.02962
 O149 O 0.21161 0.25301 1.02963
 O150 O 0.25303 0.21159 0.97038
 O151 O 0.25303 0.21160 1.02963
 O152 O 0.21161 0.25301 0.97038
 Cu153 Cu 0.27125 0.27124 1.00000
 Cu154 Cu 0.22876 0.22874 1.00000
 C155 C 0.22256 0.27743 0.96003
 C156 C 0.27745 0.22255 1.03997
 C157 C 0.27745 0.22254 0.96003
 C158 C 0.22256 0.27743 1.03997
 O159 O 0.24698 0.78838 0.47036
 O160 O 0.28840 0.74697 0.52961
 O161 O 0.28840 0.74697 0.47036
 O162 O 0.24698 0.78838 0.52961
 O163 O 0.21161 0.75301 0.52961
 O164 O 0.25303 0.71160 0.47036
 O165 O 0.25303 0.71160 0.52961
 O166 O 0.21161 0.75301 0.47036
 Cu167 Cu 0.27125 0.77124 0.49999
 Cu168 Cu 0.22876 0.72874 0.49998
 C169 C 0.22256 0.77743 0.46002
 C170 C 0.27745 0.72255 0.53995
 C171 C 0.27745 0.72255 0.46001
 C172 C 0.22256 0.77743 0.53995
 O173 O 0.21160 0.74696 -0.02964
 O174 O 0.25302 0.78838 0.02961
 O175 O 0.25302 0.78838 -0.02965
 O176 O 0.21160 0.74697 0.02961
 O177 O 0.24697 0.71160 0.02961
 O178 O 0.28839 0.75301 -0.02964
 O179 O 0.28839 0.75301 0.02961
 O180 O 0.24697 0.71159 -0.02964
 Cu181 Cu 0.22874 0.77124 -0.00002
 Cu182 Cu 0.27124 0.72874 -0.00002
 C183 C 0.22255 0.72254 -0.03999
 C184 C 0.27744 0.77743 0.03995
 C185 C 0.27744 0.77743 -0.03999
 C186 C 0.22255 0.72255 0.03995
 O187 O 0.28838 0.25301 0.47037
 O188 O 0.24697 0.21160 0.52962
 O189 O 0.24697 0.21160 0.47037
 O190 O 0.28839 0.25301 0.52962
 O191 O 0.25302 0.28838 0.52963
 O192 O 0.21160 0.24697 0.47037
 O193 O 0.21160 0.24697 0.52963
 O194 O 0.25301 0.28838 0.47038
 Cu195 Cu 0.27124 0.22874 0.50000
 Cu196 Cu 0.22874 0.27124 0.50000
 C197 C 0.27743 0.27743 0.46003
 C198 C 0.22255 0.22254 0.53997
 C199 C 0.22255 0.22255 0.46003
 C200 C 0.27744 0.27743 0.53997
 O201 O 0.74697 0.78840 0.97037
 O202 O 0.78839 0.74699 1.02962
 O203 O 0.78839 0.74698 0.97037
 O204 O 0.74697 0.78840 1.02962
 O205 O 0.71160 0.75303 1.02962
 O206 O 0.75302 0.71161 0.97037
 O207 O 0.75302 0.71162 1.02962
 O208 O 0.71160 0.75303 0.97037
 Cu209 Cu 0.77124 0.77126 0.99999
 Cu210 Cu 0.72875 0.72876 1.00000
 C211 C 0.72255 0.77745 0.96003
 C212 C 0.77744 0.72257 1.03997
 C213 C 0.77744 0.72256 0.96003
 C214 C 0.72255 0.77745 1.03997
 O215 O 0.71160 0.25303 0.52964
 O216 O 0.75302 0.21162 0.47038
 O217 O 0.75302 0.21161 0.52964
 O218 O 0.71160 0.25303 0.47039
 O219 O 0.74697 0.28840 0.47039
 O220 O 0.78839 0.24698 0.52964
 O221 O 0.78839 0.24699 0.47039
 O222 O 0.74697 0.28840 0.52964
 Cu223 Cu 0.72875 0.22876 0.50001
 Cu224 Cu 0.77124 0.27126 0.50001
 C225 C 0.72255 0.27745 0.53998
 C226 C 0.77744 0.22257 0.46004
 C227 C 0.77744 0.22256 0.53998
 C228 C 0.72255 0.27745 0.46004
 O229 O 0.78840 0.25303 -0.02961
 O230 O 0.74698 0.21162 0.02965
 O231 O 0.74698 0.21162 -0.02960
 O232 O 0.78840 0.25304 0.02965
 O233 O 0.75303 0.28841 0.02964
 O234 O 0.71161 0.24699 -0.02961
 O235 O 0.71161 0.24699 0.02964
 O236 O 0.75303 0.28840 -0.02961
 Cu237 Cu 0.77125 0.22876 0.00002
 Cu238 Cu 0.72876 0.27126 0.00002
 C239 C 0.77745 0.27745 -0.03995
 C240 C 0.72256 0.22257 0.03999
 C241 C 0.72256 0.22257 -0.03995
 C242 C 0.77745 0.27746 0.03999
 O243 O 0.78840 0.75304 0.47038
 O244 O 0.74698 0.71162 0.52963
 O245 O 0.74698 0.71162 0.47037
 O246 O 0.78840 0.75303 0.52963
 O247 O 0.75303 0.78840 0.52963
 O248 O 0.71161 0.74699 0.47038
 O249 O 0.71161 0.74699 0.52963
 O250 O 0.75303 0.78841 0.47038
 Cu251 Cu 0.77125 0.72876 0.50000
 Cu252 Cu 0.72876 0.77126 0.50001
 C253 C 0.77745 0.77746 0.46003
 C254 C 0.72256 0.72257 0.53997
 C255 C 0.72256 0.72257 0.46003
 C256 C 0.77745 0.77745 0.53997
 O257 O 0.97037 0.25303 0.21162
 O258 O 1.02962 0.21161 0.25302
 O259 O 0.97037 0.21162 0.25303
 O260 O 1.02962 0.25302 0.21161
 O261 O 1.02963 0.28839 0.24698
 O262 O 0.97038 0.24698 0.28840
 O263 O 1.02963 0.24698 0.28839
 O264 O 0.97038 0.28840 0.24699
 Cu265 Cu 1.00000 0.22876 0.22876
 Cu266 Cu 1.00000 0.27125 0.27125
 C267 C 0.96003 0.27745 0.22257
 C268 C 1.03997 0.22256 0.27744
 C269 C 0.96003 0.22257 0.27745
 C270 C 1.03997 0.27744 0.22256
 O271 O 0.52963 0.21160 0.75304
 O272 O 0.47038 0.25300 0.71162
 O273 O 0.52963 0.25301 0.71163
 O274 O 0.47038 0.21159 0.75304
 O275 O 0.47037 0.24696 0.78840
 O276 O 0.52962 0.28838 0.74699
 O277 O 0.47037 0.28837 0.74699
 O278 O 0.52962 0.24697 0.78841
 Cu279 Cu 0.50000 0.22873 0.72877
 Cu280 Cu 0.49999 0.27123 0.77126
 C281 C 0.53997 0.22255 0.77746
 C282 C 0.46003 0.27742 0.72257
 C283 C 0.53997 0.27743 0.72258
 C284 C 0.46003 0.22254 0.77745
 O285 O 0.02963 0.25302 0.78840
 O286 O -0.02963 0.21161 0.74698
 O287 O 0.02962 0.21160 0.74698
 O288 O -0.02962 0.25302 0.78840
 O289 O -0.02962 0.28839 0.75303
 O290 O 0.02962 0.24697 0.71161
 O291 O -0.02963 0.24698 0.71161
 O292 O 0.02963 0.28839 0.75303
 Cu293 Cu -0.00000 0.22875 0.77125
 Cu294 Cu -0.00000 0.27125 0.72876
 C295 C 0.03997 0.27744 0.77745
 C296 C -0.03997 0.22256 0.72256
 C297 C 0.03997 0.22255 0.72256
 C298 C -0.03997 0.27744 0.77745
 O299 O 0.47037 0.28840 0.25304
 O300 O 0.52963 0.24699 0.21162
 O301 O 0.47038 0.24699 0.21162
 O302 O 0.52962 0.28841 0.25304
 O303 O 0.52962 0.25304 0.28841
 O304 O 0.47038 0.21162 0.24699
 O305 O 0.52963 0.21162 0.24699
 O306 O 0.47037 0.25303 0.28841
 Cu307 Cu 0.50000 0.27126 0.22877
 Cu308 Cu 0.50000 0.22876 0.27126
 C309 C 0.46003 0.27745 0.27745
 C310 C 0.53997 0.22257 0.22258
 C311 C 0.46003 0.22257 0.22257
 C312 C 0.53997 0.27746 0.27746
 O313 O 0.97037 0.75302 0.71161
 O314 O 1.02962 0.71160 0.75301
 O315 O 0.97037 0.71161 0.75302
 O316 O 1.02962 0.75301 0.71160
 O317 O 1.02963 0.78838 0.74697
 O318 O 0.97038 0.74697 0.78839
 O319 O 1.02963 0.74697 0.78838
 O320 O 0.97038 0.78839 0.74698
 Cu321 Cu 1.00000 0.72875 0.72874
 Cu322 Cu 1.00000 0.77124 0.77124
 C323 C 0.96003 0.77744 0.72256
 C324 C 1.03997 0.72255 0.77743
 C325 C 0.96003 0.72256 0.77744
 C326 C 1.03997 0.77743 0.72255
 O327 O 0.52962 0.78841 0.24696
 O328 O 0.47037 0.74699 0.28837
 O329 O 0.52962 0.74700 0.28838
 O330 O 0.47037 0.78840 0.24696
 O331 O 0.47038 0.75303 0.21159
 O332 O 0.52963 0.71163 0.25301
 O333 O 0.47038 0.71162 0.25301
 O334 O 0.52963 0.75304 0.21160
 Cu335 Cu 0.49999 0.77127 0.27123
 Cu336 Cu 0.50000 0.72877 0.22874
 C337 C 0.53997 0.77746 0.22254
 C338 C 0.46003 0.72257 0.27742
 C339 C 0.53997 0.72258 0.27743
 C340 C 0.46003 0.77745 0.22254
 O341 O -0.02962 0.78840 0.25302
 O342 O 0.02962 0.74698 0.21160
 O343 O -0.02963 0.74698 0.21160
 O344 O 0.02963 0.78839 0.25302
 O345 O 0.02963 0.75302 0.28838
 O346 O -0.02963 0.71161 0.24697
 O347 O 0.02962 0.71161 0.24697
 O348 O -0.02962 0.75302 0.28839
 Cu349 Cu -0.00000 0.77125 0.22875
 Cu350 Cu -0.00000 0.72875 0.27124
 C351 C -0.03997 0.77745 0.27744
 C352 C 0.03997 0.72256 0.22255
 C353 C -0.03997 0.72256 0.22255
 C354 C 0.03997 0.77744 0.27743
 O355 O 0.47037 0.78838 0.75301
 O356 O 0.52963 0.74697 0.71160
 O357 O 0.47038 0.74696 0.71159
 O358 O 0.52962 0.78838 0.75301
 O359 O 0.52962 0.75301 0.78838
 O360 O 0.47038 0.71159 0.74696
 O361 O 0.52963 0.71160 0.74697
 O362 O 0.47037 0.75301 0.78838
 Cu363 Cu 0.50000 0.77124 0.72874
 Cu364 Cu 0.50000 0.72874 0.77124
 C365 C 0.46003 0.77743 0.77743
 C366 C 0.53997 0.72255 0.72255
 C367 C 0.46003 0.72254 0.72254
 C368 C 0.53997 0.77743 0.77743
 C369 C 0.36059 0.32302 0.32302
 C370 C 0.38502 0.31443 0.31443
 C371 C 0.41249 0.30294 0.30294
 C372 C 0.43487 0.29194 0.29194
 C373 C 0.36059 0.82299 0.82299
 C374 C 0.38502 0.81441 0.81441
 C375 C 0.41249 0.80292 0.80292
 C376 C 0.43487 0.79191 0.79191
 C377 C -0.13940 0.32301 0.82302
 C378 C -0.11497 0.31443 0.81444
 C379 C -0.08750 0.30293 0.80294
 C380 C -0.06512 0.29193 0.79194
 C381 C -0.13939 0.82302 0.32301
 C382 C -0.11497 0.81443 0.31443
 C383 C -0.08750 0.80294 0.30293
 C384 C -0.06512 0.79193 0.29193
 C385 C 0.63940 0.67702 0.32301
 C386 C 0.61497 0.68560 0.31443
 C387 C 0.58750 0.69709 0.30293
 C388 C 0.56512 0.70810 0.29192
 C389 C 0.63940 0.17699 0.82304
 C390 C 0.61498 0.18557 0.81445
 C391 C 0.58750 0.19706 0.80296
 C392 C 0.56512 0.20806 0.79195
 C393 C 1.13940 0.67697 0.82299
 C394 C 1.11498 0.68556 0.81441
 C395 C 1.08751 0.69705 0.80292
 C396 C 1.06513 0.70806 0.79192
 C397 C 1.13940 0.17698 0.32300
 C398 C 1.11498 0.18557 0.31442
 C399 C 1.08750 0.19706 0.30293
 C400 C 1.06513 0.20807 0.29193
 C401 C 0.63940 0.32300 0.67701
 C402 C 0.61497 0.31442 0.68559
 C403 C 0.58750 0.30293 0.69709
 C404 C 0.56512 0.29192 0.70809
 C405 C 0.63940 0.82303 0.17698
 C406 C 0.61498 0.81445 0.18557
 C407 C 0.58750 0.80295 0.19706
 C408 C 0.56512 0.79195 0.20806
 C409 C 1.13940 0.32300 0.17699
 C410 C 1.11498 0.31442 0.18557
 C411 C 1.08751 0.30293 0.19706
 C412 C 1.06513 0.29193 0.20807
 C413 C 1.13940 0.82300 0.67697
 C414 C 1.11498 0.81441 0.68556
 C415 C 1.08750 0.80292 0.69705
 C416 C 1.06513 0.79192 0.70806
 C417 C 0.36060 0.67697 0.67697
 C418 C 0.38503 0.68555 0.68556
 C419 C 0.41250 0.69705 0.69705
 C420 C 0.43488 0.70805 0.70806
 C421 C 0.36061 0.17699 0.17700
 C422 C 0.38503 0.18558 0.18558
 C423 C 0.41250 0.19707 0.19708
 C424 C 0.43488 0.20808 0.20808
 C425 C -0.13941 0.67700 0.17699
 C426 C -0.11499 0.68558 0.18557
 C427 C -0.08751 0.69707 0.19706
 C428 C -0.06513 0.70808 0.20807
 C429 C -0.13941 0.17700 0.67700
 C430 C -0.11498 0.18558 0.68558
 C431 C -0.08751 0.19707 0.69707
 C432 C -0.06513 0.20807 0.70808
 C433 C 0.32300 0.36060 0.32301
 C434 C 0.31442 0.38503 0.31443
 C435 C 0.30292 0.41250 0.30293
 C436 C 0.29192 0.43488 0.29193
 C437 C 0.32301 -0.13942 0.82299
 C438 C 0.31442 -0.11500 0.81441
 C439 C 0.30293 -0.08752 0.80292
 C440 C 0.29192 -0.06514 0.79191
 C441 C 0.82302 0.36060 0.82302
 C442 C 0.81443 0.38502 0.81444
 C443 C 0.80294 0.41250 0.80295
 C444 C 0.79193 0.43488 0.79194
 C445 C 0.82302 -0.13939 0.32301
 C446 C 0.81443 -0.11497 0.31443
 C447 C 0.80294 -0.08750 0.30294
 C448 C 0.79194 -0.06512 0.29193
 C449 C 0.32302 0.63938 0.67697
 C450 C 0.31443 0.61496 0.68555
 C451 C 0.30294 0.58749 0.69705
 C452 C 0.29193 0.56511 0.70806
 C453 C 0.32302 1.13940 0.17699
 C454 C 0.31444 1.11498 0.18558
 C455 C 0.30294 1.08751 0.19707
 C456 C 0.29194 1.06513 0.20807
 C457 C 0.82300 0.63942 0.17699
 C458 C 0.81442 0.61499 0.18558
 C459 C 0.80292 0.58752 0.19707
 C460 C 0.79192 0.56514 0.20808
 C461 C 0.82300 1.13941 0.67700
 C462 C 0.81442 1.11498 0.68559
 C463 C 0.80293 1.08751 0.69708
 C464 C 0.79192 1.06513 0.70809
 C465 C 0.67698 0.63943 0.32301
 C466 C 0.68557 0.61500 0.31443
 C467 C 0.69706 0.58753 0.30294
 C468 C 0.70806 0.56515 0.29193
 C469 C 0.67699 1.13940 0.82303
 C470 C 0.68558 1.11498 0.81445
 C471 C 0.69707 1.08751 0.80295
 C472 C 0.70807 1.06513 0.79195
 C473 C 0.17699 0.63939 0.82299
 C474 C 0.18557 0.61496 0.81441
 C475 C 0.19707 0.58749 0.80292
 C476 C 0.20808 0.56511 0.79191
 C477 C 0.17699 1.13940 0.32300
 C478 C 0.18558 1.11497 0.31442
 C479 C 0.19707 1.08750 0.30293
 C480 C 0.20808 1.06512 0.29192
 C481 C 0.67699 0.36059 0.67701
 C482 C 0.68557 0.38502 0.68559
 C483 C 0.69706 0.41249 0.69708
 C484 C 0.70807 0.43487 0.70809
 C485 C 0.67699 -0.13938 0.17699
 C486 C 0.68558 -0.11496 0.18557
 C487 C 0.69707 -0.08749 0.19707
 C488 C 0.70808 -0.06511 0.20807
 C489 C 0.17699 0.36059 0.17699
 C490 C 0.18557 0.38502 0.18557
 C491 C 0.19706 0.41249 0.19706
 C492 C 0.20807 0.43487 0.20807
 C493 C 0.17699 -0.13942 0.67697
 C494 C 0.18557 -0.11499 0.68556
 C495 C 0.19706 -0.08752 0.69705
 C496 C 0.20807 -0.06514 0.70806
 C497 C 0.32300 0.32301 0.36060
 C498 C 0.31442 0.31443 0.38503
 C499 C 0.30292 0.30293 0.41250
 C500 C 0.29192 0.29192 0.43488
 C501 C 0.32301 0.82299 -0.13942
 C502 C 0.31442 0.81441 -0.11500
 C503 C 0.30293 0.80292 -0.08752
 C504 C 0.29192 0.79191 -0.06514
 C505 C 0.82302 0.32301 -0.13939
 C506 C 0.81443 0.31443 -0.11496
 C507 C 0.80294 0.30294 -0.08749
 C508 C 0.79194 0.29194 -0.06511
 C509 C 0.82302 0.82302 0.36060
 C510 C 0.81443 0.81444 0.38503
 C511 C 0.80294 0.80295 0.41250
 C512 C 0.79193 0.79194 0.43488
 C513 C 0.67698 0.32301 0.63942
 C514 C 0.68557 0.31442 0.61499
 C515 C 0.69706 0.30293 0.58752
 C516 C 0.70806 0.29193 0.56514
 C517 C 0.67699 0.82303 1.13940
 C518 C 0.68557 0.81444 1.11497
 C519 C 0.69707 0.80295 1.08750
 C520 C 0.70807 0.79194 1.06512
 C521 C 0.17699 0.32300 1.13940
 C522 C 0.18558 0.31442 1.11498
 C523 C 0.19707 0.30293 1.08750
 C524 C 0.20808 0.29192 1.06512
 C525 C 0.17699 0.82300 0.63939
 C526 C 0.18557 0.81441 0.61496
 C527 C 0.19707 0.80292 0.58749
 C528 C 0.20807 0.79191 0.56511
 C529 C 0.32302 0.67697 0.63938
 C530 C 0.31443 0.68556 0.61496
 C531 C 0.30294 0.69705 0.58749
 C532 C 0.29193 0.70806 0.56511
 C533 C 0.32302 0.17699 1.13941
 C534 C 0.31444 0.18558 1.11498
 C535 C 0.30294 0.19707 1.08751
 C536 C 0.29194 0.20807 1.06513
 C537 C 0.82300 0.67700 1.13940
 C538 C 0.81442 0.68559 1.11498
 C539 C 0.80293 0.69708 1.08750
 C540 C 0.79192 0.70808 1.06512
 C541 C 0.82300 0.17700 0.63941
 C542 C 0.81442 0.18558 0.61499
 C543 C 0.80293 0.19707 0.58752
 C544 C 0.79192 0.20808 0.56514
 C545 C 0.67699 0.67701 0.36060
 C546 C 0.68557 0.68560 0.38502
 C547 C 0.69707 0.69709 0.41250
 C548 C 0.70807 0.70809 0.43488
 C549 C 0.67699 0.17699 -0.13938
 C550 C 0.68558 0.18558 -0.11495
 C551 C 0.69707 0.19707 -0.08748
 C552 C 0.70808 0.20808 -0.06510
 C553 C 0.17699 0.67697 -0.13942
 C554 C 0.18557 0.68556 -0.11499
 C555 C 0.19706 0.69705 -0.08752
 C556 C 0.20807 0.70806 -0.06514
 C557 C 0.17699 0.17698 0.36059
 C558 C 0.18557 0.18557 0.38502
 C559 C 0.19706 0.19706 0.41249
 C560 C 0.20807 0.20806 0.43487
 C561 C 0.32301 0.36057 0.67699
 C562 C 0.31443 0.38500 0.68557
 C563 C 0.30294 0.41247 0.69706
 C564 C 0.29194 0.43486 0.70807
 C565 C 0.32301 0.86060 0.17697
 C566 C 0.31442 0.88502 0.18555
 C567 C 0.30293 0.91250 0.19705
 C568 C 0.29193 0.93487 0.20805
 C569 C 0.82301 0.36061 0.17701
 C570 C 0.81442 0.38504 0.18559
 C571 C 0.80293 0.41251 0.19708
 C572 C 0.79192 0.43489 0.20809
 C573 C 0.82301 0.86061 0.67700
 C574 C 0.81443 0.88503 0.68558
 C575 C 0.80293 0.91250 0.69707
 C576 C 0.79192 0.93488 0.70808
 C577 C 0.67700 0.63940 0.67699
 C578 C 0.68558 0.61497 0.68557
 C579 C 0.69707 0.58750 0.69706
 C580 C 0.70808 0.56512 0.70807
 C581 C 0.67700 0.13942 0.17701
 C582 C 0.68558 0.11499 0.18559
 C583 C 0.69707 0.08752 0.19708
 C584 C 0.70808 0.06514 0.20809
 C585 C 0.17698 0.63940 0.17697
 C586 C 0.18557 0.61497 0.18556
 C587 C 0.19706 0.58750 0.19705
 C588 C 0.20807 0.56512 0.20806
 C589 C 0.17698 0.13939 0.67699
 C590 C 0.18556 0.11497 0.68557
 C591 C 0.19706 0.08749 0.69706
 C592 C 0.20806 0.06511 0.70807
 C593 C 0.32301 0.63940 0.32299
 C594 C 0.31443 0.61498 0.31441
 C595 C 0.30293 0.58751 0.30292
 C596 C 0.29193 0.56513 0.29191
 C597 C 0.32301 0.13938 0.82301
 C598 C 0.31442 0.11496 0.81443
 C599 C 0.30293 0.08749 0.80293
 C600 C 0.29192 0.06511 0.79193
 C601 C 0.82301 0.63940 0.82301
 C602 C 0.81443 0.61498 0.81443
 C603 C 0.80294 0.58751 0.80294
 C604 C 0.79193 0.56513 0.79193
 C605 C 0.82301 0.13941 0.32302
 C606 C 0.81443 0.11499 0.31444
 C607 C 0.80294 0.08752 0.30295
 C608 C 0.79193 0.06514 0.29194
 C609 C 0.67698 0.36062 0.32303
 C610 C 0.68557 0.38504 0.31445
 C611 C 0.69706 0.41252 0.30295
 C612 C 0.70807 0.43490 0.29195
 C613 C 0.67698 0.86060 0.82301
 C614 C 0.68556 0.88502 0.81443
 C615 C 0.69706 0.91250 0.80294
 C616 C 0.70806 0.93488 0.79193
 C617 C 0.17700 0.36058 0.82301
 C618 C 0.18558 0.38501 0.81442
 C619 C 0.19708 0.41248 0.80293
 C620 C 0.20808 0.43486 0.79192
 C621 C 0.17700 0.86059 0.32300
 C622 C 0.18558 0.88502 0.31441
 C623 C 0.19707 0.91249 0.30292
 C624 C 0.20808 0.93487 0.29191
 C625 C 0.36060 0.32298 0.67699
 C626 C 0.38502 0.31440 0.68558
 C627 C 0.41249 0.30291 0.69707
 C628 C 0.43487 0.29190 0.70808
 C629 C 0.36060 0.82301 0.17696
 C630 C 0.38502 0.81443 0.18555
 C631 C 0.41249 0.80294 0.19704
 C632 C 0.43487 0.79193 0.20805
 C633 C 0.86060 0.32303 0.17701
 C634 C 0.88502 0.31444 0.18559
 C635 C 0.91250 0.30295 0.19708
 C636 C 0.93487 0.29194 0.20808
 C637 C 0.86060 0.82302 0.67700
 C638 C 0.88502 0.81443 0.68558
 C639 C 0.91250 0.80294 0.69707
 C640 C 0.93488 0.79193 0.70807
 C641 C 0.63939 0.32303 0.32303
 C642 C 0.61497 0.31445 0.31445
 C643 C 0.58750 0.30295 0.30295
 C644 C 0.56512 0.29195 0.29195
 C645 C 0.63939 0.82301 0.82300
 C646 C 0.61497 0.81442 0.81442
 C647 C 0.58750 0.80293 0.80292
 C648 C 0.56512 0.79192 0.79192
 C649 C 0.13941 0.32300 0.82301
 C650 C 0.11498 0.31442 0.81443
 C651 C 0.08751 0.30293 0.80294
 C652 C 0.06513 0.29192 0.79193
 C653 C 0.13941 0.82301 0.32300
 C654 C 0.11498 0.81442 0.31442
 C655 C 0.08751 0.80293 0.30292
 C656 C 0.06513 0.79193 0.29192
 C657 C 0.63941 0.67698 0.67698
 C658 C 0.61499 0.68557 0.68557
 C659 C 0.58751 0.69706 0.69706
 C660 C 0.56513 0.70806 0.70806
 C661 C 0.63941 0.17701 0.17701
 C662 C 0.61498 0.18559 0.18559
 C663 C 0.58751 0.19708 0.19709
 C664 C 0.56513 0.20809 0.20809
 C665 C 0.13939 0.67699 0.17698
 C666 C 0.11497 0.68557 0.18556
 C667 C 0.08750 0.69706 0.19705
 C668 C 0.06512 0.70807 0.20806
 C669 C 0.13939 0.17698 0.67699
 C670 C 0.11497 0.18556 0.68557
 C671 C 0.08750 0.19706 0.69707
 C672 C 0.06512 0.20807 0.70807
 C673 C 0.36060 0.67699 0.32299
 C674 C 0.38502 0.68558 0.31440
 C675 C 0.41250 0.69707 0.30291
 C676 C 0.43487 0.70808 0.29191
 C677 C 0.36060 0.17697 0.82302
 C678 C 0.38502 0.18555 0.81443
 C679 C 0.41249 0.19704 0.80294
 C680 C 0.43487 0.20805 0.79194
 C681 C 0.86060 0.67699 0.82301
 C682 C 0.88502 0.68558 0.81443
 C683 C 0.91249 0.69707 0.80294
 C684 C 0.93487 0.70807 0.79193
 C685 C 0.86060 0.17700 0.32302
 C686 C 0.88502 0.18559 0.31444
 C687 C 0.91250 0.19708 0.30295
 C688 C 0.93487 0.20808 0.29194
 C689 C 0.32301 0.32299 0.63940
 C690 C 0.31443 0.31440 0.61498
 C691 C 0.30293 0.30291 0.58751
 C692 C 0.29193 0.29191 0.56513
 C693 C 0.32301 0.82301 0.13938
 C694 C 0.31442 0.81443 0.11495
 C695 C 0.30293 0.80293 0.08748
 C696 C 0.29192 0.79192 0.06510
 C697 C 0.82301 0.32303 0.13942
 C698 C 0.81443 0.31444 0.11500
 C699 C 0.80294 0.30295 0.08752
 C700 C 0.79193 0.29195 0.06514
 C701 C 0.82301 0.82302 0.63941
 C702 C 0.81443 0.81444 0.61498
 C703 C 0.80294 0.80294 0.58751
 C704 C 0.79193 0.79194 0.56513
 C705 C 0.32301 0.67699 0.36058
 C706 C 0.31443 0.68557 0.38500
 C707 C 0.30294 0.69706 0.41248
 C708 C 0.29194 0.70807 0.43486
 C709 C 0.32301 0.17697 0.86060
 C710 C 0.31443 0.18555 0.88503
 C711 C 0.30293 0.19705 0.91250
 C712 C 0.29193 0.20805 0.93488
 C713 C 0.82301 0.67699 0.86060
 C714 C 0.81442 0.68558 0.88502
 C715 C 0.80293 0.69707 0.91249
 C716 C 0.79192 0.70808 0.93487
 C717 C 0.82301 0.17700 0.36061
 C718 C 0.81443 0.18559 0.38503
 C719 C 0.80293 0.19708 0.41251
 C720 C 0.79193 0.20808 0.43489
 C721 C 0.67698 0.32303 0.36062
 C722 C 0.68557 0.31444 0.38504
 C723 C 0.69706 0.30295 0.41251
 C724 C 0.70807 0.29194 0.43489
 C725 C 0.67698 0.82301 0.86059
 C726 C 0.68556 0.81443 0.88502
 C727 C 0.69706 0.80293 0.91249
 C728 C 0.70806 0.79193 0.93487
 C729 C 0.17700 0.32300 0.86060
 C730 C 0.18558 0.31441 0.88502
 C731 C 0.19707 0.30292 0.91249
 C732 C 0.20808 0.29192 0.93487
 C733 C 0.17700 0.82300 0.36058
 C734 C 0.18558 0.81442 0.38501
 C735 C 0.19707 0.80293 0.41248
 C736 C 0.20808 0.79192 0.43486
 C737 C 0.67700 0.67699 0.63940
 C738 C 0.68558 0.68557 0.61498
 C739 C 0.69707 0.69707 0.58750
 C740 C 0.70808 0.70808 0.56513
 C741 C 0.67700 0.17701 0.13942
 C742 C 0.68558 0.18559 0.11500
 C743 C 0.69707 0.19708 0.08753
 C744 C 0.70808 0.20809 0.06515
 C745 C 0.17698 0.67699 0.13939
 C746 C 0.18556 0.68557 0.11496
 C747 C 0.19706 0.69706 0.08749
 C748 C 0.20806 0.70806 0.06511
 C749 C 0.17698 0.17698 0.63940
 C750 C 0.18557 0.18556 0.61498
 C751 C 0.19706 0.19705 0.58750
 C752 C 0.20806 0.20806 0.56512
   
