data_POSCAR
  _audit_creation_date              2014-09-24
  _audit_creation_method            'ToBaCCo'
  _symmetry_space_group_name_H-M    'P1'
  _symmetry_Int_Tables_number       1
  _symmetry_cell_setting            triclinic
  loop_
  _symmetry_equiv_pos_as_xyz
 x,y,z
_cell_length_a 38.6006
_cell_length_b 39.4149
_cell_length_c 40.6663
_cell_angle_alpha 90.374400
_cell_angle_beta 90.454200
_cell_angle_gamma 87.990500
loop_
  _atom_site_label
  _atom_site_type_symbol
  _atom_site_fract_x
  _atom_site_fract_y
  _atom_site_fract_z
C1 C 0.19235 0.48071 1.02587
 H2 H 0.18784 0.47911 0.99968
 C3 C 0.16977 0.46497 1.04708
 H4 H 0.14785 0.45237 1.03646
 C5 C 0.22659 0.49866 1.07076
 H6 H 0.24986 0.51011 1.07985
 C7 C 0.20356 0.48484 1.09303
 H8 H 0.20922 0.48664 1.11908
 N9 N 0.21994 0.49758 1.03785
 C10 C 0.27351 0.58204 0.99169
 H11 H 0.27538 0.57144 0.96718
 C12 C 0.28758 0.61354 0.99836
 H13 H 0.30031 0.62661 0.97878
 C14 C 0.25418 0.57798 1.04647
 H15 H 0.24112 0.56439 1.06529
 C16 C 0.26792 0.60943 1.05426
 H17 H 0.26558 0.61879 1.07921
 Zn18 Zn 0.24969 0.51753 1.00650
 N19 N 0.25877 0.56406 1.01603
 C20 C 0.20062 0.53543 0.95694
 N21 N 0.22849 0.51475 0.96440
 C22 C 0.24034 0.49060 0.94287
 C23 C 0.22398 0.48637 0.91252
 C24 C 0.18338 0.53203 0.92676
 C25 C 0.29849 0.46399 1.02318
 C26 C 0.32951 0.44481 1.01990
 C27 C 0.34833 0.48510 0.97993
 C28 C 0.31707 0.50332 0.98385
 N29 N 0.29277 0.49260 1.00506
 H30 H 0.19152 0.55423 0.97465
 H31 H 0.26196 0.47383 0.94955
 H32 H 0.23352 0.46631 0.89638
 H33 H 0.16120 0.54866 0.92135
 H34 H 0.27875 0.45561 1.03967
 H35 H 0.33348 0.42200 1.03433
 H36 H 0.36658 0.49386 0.96211
 H37 H 0.31185 0.52547 0.96900
 C38 C 0.28621 0.62702 1.03039
 C39 C 0.17460 0.46753 1.08131
 C40 C 0.35486 0.45527 0.99788
 C41 C 0.19495 0.50709 0.90413
 C42 C 0.81362 0.51474 -0.04195
 H43 H 0.82814 0.51524 -0.01913
 C44 C 0.83024 0.52117 -0.07149
 H45 H 0.85746 0.52687 -0.07096
 C46 C 0.76062 0.50651 -0.07020
 H47 H 0.73361 0.50011 -0.06943
 C48 C 0.77618 0.51294 -0.10032
 H49 H 0.76085 0.51133 -0.12261
 N50 N 0.77949 0.50737 -0.04185
 C51 C 0.71158 0.52624 0.04220
 H52 H 0.72157 0.50670 0.05864
 C53 C 0.68369 0.54731 0.05192
 H54 H 0.67312 0.54410 0.07619
 C55 C 0.71327 0.55341 -0.00948
 H56 H 0.72453 0.55541 -0.03359
 C57 C 0.68526 0.57501 -0.00078
 H58 H 0.67531 0.59330 -0.01851
 Zn59 Zn 0.75859 0.49519 -0.00198
 N60 N 0.72519 0.52895 0.01163
 C61 C 0.79782 0.51165 0.05562
 N62 N 0.79350 0.48876 0.03082
 C63 C 0.81392 0.46003 0.02881
 C64 C 0.83854 0.45248 0.05313
 C65 C 0.82247 0.50519 0.08046
 C66 C 0.70436 0.44870 0.00399
 C67 C 0.68800 0.41802 -0.00053
 C68 C 0.73673 0.39759 -0.03269
 C69 C 0.75218 0.42878 -0.02755
 N70 N 0.73613 0.45344 -0.00903
 H71 H 0.78196 0.53477 0.05639
 H72 H 0.81079 0.44258 0.00857
 H73 H 0.85411 0.42920 0.05115
 H74 H 0.82490 0.52315 0.10053
 H75 H 0.69144 0.46858 0.01802
 H76 H 0.66283 0.41527 0.01034
 H77 H 0.75039 0.37853 -0.04730
 H78 H 0.77700 0.43334 -0.03852
 C79 C 0.66947 0.57147 0.02998
 C80 C 0.81157 0.52003 -0.10124
 C81 C 0.70419 0.39172 -0.01893
 C82 C 0.84259 0.47485 0.07970
 C83 C -0.03266 0.31175 0.49063
 H84 H -0.04937 0.30906 0.51163
 C85 C -0.03773 0.33931 0.46973
 H86 H -0.05861 0.35715 0.47563
 C87 C 0.01432 0.29062 0.45864
 H88 H 0.03484 0.27178 0.45461
 C89 C 0.01009 0.31782 0.43685
 H90 H 0.02767 0.31901 0.41637
 N91 N -0.00751 0.28772 0.48448
 C92 C -0.04989 0.19675 0.52675
 H93 H -0.03000 0.18910 0.54436
 C94 C -0.07979 0.17791 0.52340
 H95 H -0.08286 0.15592 0.53877
 C96 C -0.07012 0.23493 0.48558
 H97 H -0.06613 0.25673 0.47034
 C98 C -0.10037 0.21702 0.48156
 H99 H -0.11917 0.22548 0.46324
 Zn100 Zn -0.00572 0.25095 0.51427
 N101 N -0.04595 0.22509 0.50842
 C102 C -0.03038 0.26498 0.57865
 N103 N -0.00460 0.27048 0.55693
 C104 C 0.01996 0.29358 0.56339
 C105 C 0.01862 0.31294 0.59231
 C106 C -0.03247 0.28349 0.60798
 C107 C 0.03484 0.20691 0.47631
 C108 C 0.06326 0.18606 0.46778
 C109 C 0.08731 0.19480 0.52211
 C110 C 0.05860 0.21615 0.52943
 N111 N 0.03342 0.22213 0.50635
 H112 H -0.05025 0.24730 0.57273
 H113 H 0.03980 0.29791 0.54540
 H114 H 0.03801 0.33167 0.59672
 H115 H -0.05390 0.27943 0.62431
 H116 H 0.01401 0.21148 0.45876
 H117 H 0.06413 0.17457 0.44353
 H118 H 0.10752 0.19061 0.54040
 H119 H 0.05654 0.22804 0.55340
 C120 C -0.10576 0.18837 0.50089
 C121 C -0.01660 0.34265 0.44187
 C122 C 0.09007 0.18007 0.49069
 C123 C -0.00814 0.30829 0.61484
 C124 C 0.97632 0.70630 0.54360
 H125 H 0.95447 0.70072 0.52802
 C126 C 0.98056 0.68959 0.57368
 H127 H 0.96138 0.67188 0.58121
 C128 C 1.02873 0.73465 0.55204
 H129 H 1.04847 0.75079 0.54306
 C130 C 1.03383 0.71874 0.58231
 H131 H 1.05722 0.72352 0.59614
 N132 N 1.00025 0.72839 0.53332
 C133 C 0.95351 0.80499 0.48011
 H134 H 0.97769 0.81782 0.47936
 C135 C 0.92253 0.82405 0.47739
 H136 H 0.92344 0.85129 0.47453
 C137 C 0.92291 0.75418 0.48416
 H138 H 0.92319 0.72690 0.48652
 C139 C 0.89124 0.77228 0.48108
 H140 H 0.86737 0.75871 0.48178
 Zn141 Zn 0.99627 0.74643 0.48999
 N142 N 0.95326 0.77074 0.48402
 C143 C 0.97999 0.70322 0.43451
 N144 N 1.00082 0.70901 0.46099
 C145 C 1.02875 0.68833 0.46787
 C146 C 1.03693 0.66059 0.44783
 C147 C 0.98729 0.67545 0.41363
 C148 C 1.04099 0.80159 0.50214
 C149 C 1.06958 0.82147 0.49629
 C150 C 1.08109 0.78858 0.44705
 C151 C 1.05253 0.76929 0.45393
 N152 N 1.03351 0.77551 0.48144
 H153 H 0.95818 0.72033 0.42928
 H154 H 1.04518 0.69392 0.48874
 H155 H 1.05991 0.64525 0.45364
 H156 H 0.97057 0.67102 0.39266
 H157 H 1.02515 0.80651 0.52359
 H158 H 1.07561 0.84138 0.51362
 H159 H 1.09552 0.78294 0.42489
 H160 H 1.04566 0.74927 0.43711
 C161 C 0.89086 0.80775 0.47810
 C162 C 1.00977 0.69560 0.59336
 C163 C 1.09041 0.81467 0.46867
 C164 C 1.01611 0.65369 0.42032
 C165 C 0.46136 -0.01354 0.28750
 H166 H 0.48442 -0.02872 0.29345
 C167 C 0.43098 -0.01741 0.30538
 H168 H 0.43064 -0.03594 0.32490
 C169 C 0.43405 0.02990 0.25550
 H170 H 0.43553 0.04932 0.23706
 C171 C 0.40309 0.02647 0.27230
 H172 H 0.38112 0.04312 0.26620
 N173 N 0.46232 0.00980 0.26306
 C174 C 0.55113 -0.02234 0.20370
 H175 H 0.56732 -0.00071 0.20711
 C176 C 0.56151 -0.04857 0.18240
 H177 H 0.58593 -0.04634 0.16998
 C178 C 0.49863 -0.04923 0.21468
 H179 H 0.47376 -0.04890 0.22672
 C180 C 0.50766 -0.07576 0.19311
 H181 H 0.48963 -0.09590 0.18985
 Zn182 Zn 0.50521 0.01641 0.24223
 N183 N 0.52014 -0.02302 0.21917
 C184 C 0.56406 0.00690 0.28418
 N185 N 0.53656 0.02779 0.27605
 C186 C 0.52722 0.05494 0.29517
 C187 C 0.54491 0.06120 0.32451
 C188 C 0.58262 0.01235 0.31328
 C189 C 0.47674 0.04376 0.18594
 C190 C 0.46768 0.06808 0.16250
 C191 C 0.50820 0.10584 0.18789
 C192 C 0.51586 0.08095 0.21158
 N193 N 0.49944 0.05095 0.21052
 H194 H 0.57044 -0.01511 0.26918
 H195 H 0.50486 0.07076 0.28840
 H196 H 0.53643 0.08247 0.33973
 H197 H 0.60339 -0.00546 0.32006
 H198 H 0.46461 0.01943 0.18539
 H199 H 0.44870 0.06228 0.14372
 H200 H 0.52072 0.12998 0.18920
 H201 H 0.53439 0.08580 0.23097
 C202 C 0.53929 -0.07552 0.17599
 C203 C 0.40139 0.00277 0.29772
 C204 C 0.48312 0.09966 0.16361
 C205 C 0.57237 0.03917 0.33435
 C206 C 0.53465 -0.00651 0.70268
 H207 H 0.51079 -0.00336 0.68899
 C208 C 0.56600 -0.00644 0.68583
 H209 H 0.56555 -0.00316 0.65943
 C210 C 0.56428 -0.01643 0.75309
 H211 H 0.56342 -0.02114 0.77922
 C212 C 0.59623 -0.01696 0.73712
 H213 H 0.61975 -0.02132 0.75136
 N214 N 0.53424 -0.01131 0.73579
 C215 C 0.48498 -0.05175 0.81825
 H216 H 0.47417 -0.02830 0.82840
 C217 C 0.48662 -0.08114 0.83742
 H218 H 0.47691 -0.07990 0.86229
 C219 C 0.50962 -0.08194 0.77309
 H220 H 0.51831 -0.08203 0.74786
 C221 C 0.51182 -0.11179 0.79134
 H222 H 0.52284 -0.13447 0.77988
 Zn223 Zn 0.49170 -0.01446 0.75886
 N224 N 0.49605 -0.05282 0.78659
 C225 C 0.43738 -0.05052 0.72966
 N226 N 0.45443 -0.02094 0.72864
 C227 C 0.44555 0.00336 0.70615
 C228 C 0.42025 -0.00262 0.68219
 C229 C 0.41190 -0.05747 0.70634
 C230 C 0.50850 0.03801 0.80340
 C231 C 0.50308 0.06831 0.82096
 C232 C 0.44464 0.07201 0.79942
 C233 C 0.45120 0.04170 0.78225
 N234 N 0.48289 0.02558 0.78412
 H235 H 0.44384 -0.06916 0.74826
 H236 H 0.45881 0.02709 0.70628
 H237 H 0.41466 0.01651 0.66376
 H238 H 0.39909 -0.08138 0.70765
 H239 H 0.53337 0.02469 0.80489
 H240 H 0.52416 0.07797 0.83553
 H241 H 0.41913 0.08409 0.79755
 H242 H 0.43084 0.03106 0.76749
 C243 C 0.49979 -0.11185 0.82385
 C244 C 0.59732 -0.01208 0.70301
 C245 C 0.47088 0.08596 0.81884
 C246 C 0.40369 -0.03379 0.68159
 C247 C 0.31716 -0.00570 0.44862
 H248 H 0.33181 -0.00371 0.47128
 C249 C 0.33415 -0.00495 0.41837
 H250 H 0.36193 -0.00221 0.41810
 C251 C 0.26296 -0.01042 0.42147
 H252 H 0.23513 -0.01236 0.42296
 C253 C 0.27880 -0.00991 0.39088
 H254 H 0.26280 -0.01201 0.36908
 N255 N 0.28212 -0.00803 0.44951
 C256 C 0.20665 0.04187 0.51446
 H257 H 0.20238 0.02376 0.53376
 C258 C 0.18523 0.07123 0.51203
 H259 H 0.16425 0.07517 0.52928
 C260 C 0.23845 0.05828 0.46803
 H261 H 0.25926 0.05349 0.45088
 C262 C 0.21803 0.08789 0.46491
 H263 H 0.22378 0.10533 0.44543
 Zn264 Zn 0.25636 -0.00751 0.48881
 N265 N 0.23154 0.03514 0.49155
 C266 C 0.28677 0.00729 0.55150
 N267 N 0.28603 -0.01494 0.52574
 C268 C 0.30572 -0.04422 0.52603
 C269 C 0.32593 -0.05293 0.55338
 C270 C 0.30713 -0.00027 0.57938
 C271 C 0.19118 -0.04155 0.49068
 C272 C 0.17013 -0.06921 0.48489
 C273 C 0.22052 -0.10161 0.46632
 C274 C 0.24049 -0.07354 0.47250
 N275 N 0.22582 -0.04423 0.48463
 H276 H 0.27115 0.03058 0.55072
 H277 H 0.30570 -0.06108 0.50508
 H278 H 0.34114 -0.07653 0.55303
 H279 H 0.30695 0.01723 0.60001
 H280 H 0.17953 -0.01797 0.49938
 H281 H 0.14258 -0.06644 0.48942
 H282 H 0.23316 -0.12452 0.45684
 H283 H 0.26765 -0.07487 0.46640
 C284 C 0.19002 0.09400 0.48611
 C285 C 0.31479 -0.00663 0.38896
 C286 C 0.18480 -0.09964 0.47225
 C287 C 0.32641 -0.03112 0.58070
 C288 C 0.69864 0.02477 0.56679
 H289 H 0.69383 0.04758 0.55274
 C290 C 0.68279 0.02159 0.59733
 H291 H 0.66634 0.04224 0.60664
 C292 C 0.72447 -0.03039 0.57141
 H293 H 0.73977 -0.05113 0.56097
 C294 C 0.70977 -0.03432 0.60236
 H295 H 0.71413 -0.05800 0.61533
 N296 N 0.71870 -0.00120 0.55417
 C297 C 0.80026 0.03909 0.50477
 H298 H 0.81360 0.01466 0.50331
 C299 C 0.81931 0.06849 0.50215
 H300 H 0.84710 0.06615 0.49894
 C301 C 0.74799 0.07203 0.50887
 H302 H 0.72007 0.07334 0.51050
 C303 C 0.76593 0.10195 0.50607
 H304 H 0.75149 0.12597 0.50666
 Zn305 Zn 0.73729 0.00258 0.51098
 N306 N 0.76522 0.04134 0.50852
 C307 C 0.70921 0.01656 0.44857
 N308 N 0.70072 0.00936 0.48012
 C309 C 0.66707 0.00897 0.48973
 C310 C 0.64043 0.01725 0.46750
 C311 C 0.68330 0.02430 0.42535
 C312 C 0.79181 -0.04685 0.51826
 C313 C 0.81042 -0.07709 0.51160
 C314 C 0.76926 -0.08912 0.46842
 C315 C 0.75165 -0.05845 0.47566
 N316 N 0.76312 -0.03796 0.50021
 H317 H 0.73620 0.01680 0.44163
 H318 H 0.66078 0.00265 0.51472
 H319 H 0.61381 0.01716 0.47567
 H320 H 0.69046 0.03049 0.40046
 H321 H 0.79989 -0.03071 0.53832
 H322 H 0.83293 -0.08381 0.52653
 H323 H 0.75974 -0.10495 0.44872
 H324 H 0.72846 -0.05135 0.46195
 C325 C 0.80208 0.10044 0.50265
 C326 C 0.68824 -0.00830 0.61541
 C327 C 0.79906 -0.09874 0.48650
 C328 C 0.64848 0.02534 0.43498
 C329 C 0.46527 0.21637 1.02336
 H330 H 0.44727 0.22176 1.00339
 C331 C 0.45577 0.19543 1.04895
 H332 H 0.43039 0.18473 1.04797
 C333 C 0.52080 0.22293 1.04732
 H334 H 0.54628 0.23337 1.04626
 C335 C 0.51232 0.20205 1.07355
 H336 H 0.53140 0.19699 1.09268
 N337 N 0.49720 0.22974 1.02302
 C338 C 0.48660 0.31994 0.96275
 H339 H 0.50641 0.31413 0.94470
 C340 C 0.46913 0.35151 0.96253
 H341 H 0.47531 0.36967 0.94381
 C342 C 0.45487 0.30318 1.00922
 H343 H 0.44995 0.28461 1.02786
 C344 C 0.43645 0.33436 1.00966
 H345 H 0.41736 0.33937 1.02860
 Zn346 Zn 0.50695 0.25595 0.98580
 N347 N 0.47931 0.29656 0.98588
 C348 C 0.47321 0.24009 0.92554
 N349 N 0.49688 0.22917 0.94839
 C350 C 0.51216 0.19764 0.94648
 C351 C 0.50364 0.17556 0.92092
 C352 C 0.46403 0.21889 0.89948
 C353 C 0.56336 0.29112 1.00930
 C354 C 0.59538 0.30632 1.00761
 C355 C 0.60731 0.27479 0.95758
 C356 C 0.57496 0.26022 0.96019
 N357 N 0.55356 0.26900 0.98551
 H358 H 0.46094 0.26504 0.92776
 H359 H 0.53051 0.18942 0.96530
 H360 H 0.51575 0.15041 0.92045
 H361 H 0.44523 0.22841 0.88167
 H362 H 0.54562 0.29802 1.02889
 H363 H 0.60227 0.32441 1.02648
 H364 H 0.62326 0.26855 0.93650
 H365 H 0.56638 0.24314 0.94115
 C366 C 0.44383 0.35910 0.98632
 C367 C 0.47939 0.18791 1.07455
 C368 C 0.61748 0.29885 0.98105
 C369 C 0.47900 0.18593 0.89705
 C370 C 0.48014 0.80217 -0.02766
 H371 H 0.46874 0.81532 -0.00675
 C372 C 0.48166 0.81851 -0.05796
 H373 H 0.47098 0.84416 -0.06013
 C374 C 0.50759 0.75258 -0.04996
 H375 H 0.51752 0.72683 -0.04673
 C376 C 0.50953 0.76792 -0.08076
 H377 H 0.52156 0.75378 -0.10075
 N378 N 0.49331 0.76995 -0.02414
 C379 C 0.43602 0.72925 0.05788
 H380 H 0.45432 0.73138 0.07801
 C381 C 0.40333 0.71647 0.06370
 H382 H 0.39663 0.70918 0.08841
 C383 C 0.42344 0.73379 0.00093
 H384 H 0.43161 0.74000 -0.02360
 C385 C 0.39083 0.72028 0.00555
 H386 H 0.37396 0.71653 -0.01547
 Zn387 Zn 0.49165 0.75085 0.01837
 N388 N 0.44549 0.73764 0.02687
 C389 C 0.48481 0.79857 0.07192
 N390 N 0.50627 0.78457 0.04879
 C391 C 0.53930 0.79490 0.04589
 C392 C 0.55241 0.81907 0.06736
 C393 C 0.49682 0.82292 0.09401
 C394 C 0.51083 0.68305 0.03526
 C395 C 0.53340 0.65515 0.04060
 C396 C 0.57932 0.68612 0.01614
 C397 C 0.55588 0.71354 0.01139
 N398 N 0.52245 0.71190 0.02158
 H399 H 0.45816 0.79134 0.07314
 H400 H 0.55561 0.78468 0.02660
 H401 H 0.57886 0.82615 0.06382
 H402 H 0.47888 0.83314 0.11208
 H403 H 0.48415 0.68162 0.04258
 H404 H 0.52343 0.63264 0.05169
 H405 H 0.60593 0.68835 0.00850
 H406 H 0.56453 0.73607 -0.00054
 C407 C 0.38059 0.71126 0.03723
 C408 C 0.49664 0.80142 -0.08501
 C409 C 0.56831 0.65667 0.03154
 C410 C 0.53128 0.83359 0.09218
 C411 C 1.04842 0.43811 0.20997
 H412 H 1.02715 0.42204 0.21570
 C413 C 1.07078 0.42924 0.18423
 H414 H 1.06672 0.40564 0.17134
 C415 C 1.07787 0.48892 0.21946
 H416 H 1.07946 0.51311 0.23189
 C417 C 1.10128 0.48075 0.19435
 H418 H 1.12074 0.49886 0.18879
 N419 N 1.05168 0.46795 0.22637
 C420 C 0.97859 0.46542 0.30696
 H421 H 0.96408 0.48794 0.29911
 C422 C 0.96938 0.44936 0.33567
 H423 H 0.94746 0.46025 0.34873
 C424 C 1.02459 0.42528 0.29795
 H425 H 1.04642 0.41651 0.28329
 C426 C 1.01626 0.40819 0.32691
 H427 H 1.03200 0.38612 0.33382
 Zn428 Zn 1.01410 0.48265 0.25327
 N429 N 1.00569 0.45343 0.28876
 C430 C 0.95237 0.45805 0.22859
 N431 N 0.97426 0.48415 0.22572
 C432 C 0.97098 0.50653 0.20043
 C433 C 0.94549 0.50228 0.17612
 C434 C 0.92692 0.45279 0.20492
 C435 C 1.05226 0.52248 0.29318
 C436 C 1.05697 0.54534 0.31879
 C437 C 1.00163 0.57244 0.30524
 C438 C 0.99815 0.54911 0.27929
 N439 N 1.02290 0.52412 0.27457
 H440 H 0.95597 0.43979 0.24809
 H441 H 0.98928 0.52654 0.19821
 H442 H 0.94410 0.51929 0.15531
 H443 H 0.91059 0.43117 0.20725
 H444 H 1.07077 0.50151 0.28992
 H445 H 1.08013 0.54261 0.33384
 H446 H 0.98068 0.59064 0.31034
 H447 H 0.97434 0.54900 0.26508
 C448 C 0.98838 0.42039 0.34661
 C449 C 1.09700 0.45130 0.17510
 C450 C 1.03067 0.56951 0.32627
 C451 C 0.92395 0.47435 0.17775
 C452 C -0.03628 0.52040 0.80746
 H453 H -0.01179 0.51936 0.82038
 C454 C -0.06683 0.52400 0.82550
 H455 H -0.06507 0.52658 0.85195
 C456 C -0.06833 0.51696 0.75780
 H457 H -0.06890 0.51279 0.73156
 C458 C -0.09951 0.52044 0.77486
 H459 H -0.12361 0.51933 0.76122
 N460 N -0.03744 0.51748 0.77411
 C461 C 0.00407 0.46682 0.69244
 H462 H 0.01065 0.48882 0.67834
 C463 C 0.00073 0.43537 0.67671
 H464 H 0.00439 0.43365 0.65040
 C465 C -0.00892 0.44250 0.74382
 H466 H -0.01243 0.44554 0.77005
 C467 C -0.01247 0.41073 0.72918
 H468 H -0.01843 0.38953 0.74463
 Zn469 Zn 0.00368 0.51093 0.74891
 N470 N -0.00074 0.46970 0.72544
 C471 C 0.06558 0.47952 0.77290
 N472 N 0.04357 0.50693 0.77684
 C473 C 0.05077 0.53194 0.79889
 C474 C 0.08080 0.52965 0.81831
 C475 C 0.09607 0.47646 0.79144
 C476 C -0.01624 0.55701 0.69747
 C477 C -0.01324 0.58589 0.67798
 C478 C 0.04204 0.59555 0.70381
 C479 C 0.03812 0.56647 0.72256
 N480 N 0.00894 0.54823 0.71980
 H481 H 0.05996 0.46021 0.75487
 H482 H 0.03343 0.55400 0.80100
 H483 H 0.08624 0.54990 0.83549
 H484 H 0.11311 0.45438 0.78787
 H485 H -0.03880 0.54183 0.69478
 H486 H -0.03389 0.59282 0.66089
 H487 H 0.06548 0.60957 0.70668
 H488 H 0.05850 0.55875 0.73948
 C489 C -0.00774 0.40677 0.69516
 C490 C -0.09905 0.52408 0.80921
 C491 C 0.01591 0.60594 0.68155
 C492 C 0.10404 0.50176 0.81442
 N493 N 0.16018 0.13642 0.44925
 N494 N 0.13378 0.15854 0.45035
 C495 C 0.12097 0.15936 0.48103
 C496 C 0.14021 0.13671 0.50049
 C497 C 0.16485 0.12244 0.47925
 H498 H 0.13596 0.13062 0.52601
 H499 H 0.17367 0.13026 0.42776
 H500 H 0.12464 0.17256 0.43017
 N501 N 0.58830 0.60451 0.06208
 N502 N 0.61495 0.58257 0.06200
 C503 C 0.63741 0.59142 0.03856
 C504 C 0.62426 0.62051 0.02310
 C505 C 0.59300 0.62794 0.03869
 H506 H 0.63553 0.63408 0.00303
 H507 H 0.56748 0.60330 0.07820
 H508 H 0.61694 0.56150 0.07740
 N509 N 0.80361 -0.15908 0.46646
 N510 N 0.82761 -0.18378 0.46458
 C511 C 0.85781 -0.17217 0.47620
 C512 C 0.85266 -0.13867 0.48608
 C513 C 0.81795 -0.13131 0.47957
 H514 H 0.87150 -0.12204 0.49672
 H515 H 0.77777 -0.16164 0.45938
 H516 H 0.82323 -0.20797 0.45517
 N517 N 0.43914 0.42139 0.97510
 N518 N 0.41605 0.44665 0.97848
 C519 C 0.38734 0.43482 0.99252
 C520 C 0.39273 0.40041 0.99865
 C521 C 0.42580 0.39284 0.98695
 H522 H 0.37462 0.38300 1.00875
 H523 H 0.46369 0.42398 0.96503
 H524 H 0.42030 0.47152 0.97127
 N525 N 0.80724 0.16140 0.48717
 N526 N 0.83137 0.18429 0.48654
 C527 C 0.86146 0.17012 0.49775
 C528 C 0.85611 0.13656 0.50585
 C529 C 0.82133 0.13201 0.49874
 H530 H 0.87485 0.11809 0.51555
 H531 H 0.78171 0.16601 0.47929
 H532 H 0.82685 0.20932 0.47894
 N533 N 0.32873 0.69639 0.07012
 N534 N 0.30364 0.67445 0.06823
 C535 C 0.30601 0.65753 0.03930
 C536 C 0.33364 0.66995 0.02187
 C537 C 0.34754 0.69423 0.04239
 H538 H 0.34427 0.66057 -0.00112
 H539 H 0.33326 0.71193 0.09049
 H540 H 0.28599 0.67074 0.08706
 N541 N 0.17246 -0.15414 0.44329
 N542 N 0.14778 -0.17645 0.44225
 C543 C 0.12205 -0.16607 0.46263
 C544 C 0.13096 -0.13561 0.47726
 C545 C 0.16320 -0.12898 0.46440
 H546 H 0.11634 -0.12059 0.49504
 H547 H 0.19504 -0.15632 0.42938
 H548 H 0.14927 -0.19865 0.42815
 N549 N 0.67631 0.30837 0.95729
 N550 N 0.69890 0.33284 0.95708
 C551 C 0.68694 0.35881 0.97615
 C552 C 0.65540 0.35001 0.98921
 C553 C 0.64947 0.31800 0.97662
 H554 H 0.63825 0.36517 1.00472
 H555 H 0.67942 0.28563 0.94415
 H556 H 0.72174 0.33157 0.94353
 N557 N 0.43755 0.15422 1.10674
 N558 N 0.43872 0.13092 1.12989
 C559 C 0.47179 0.12601 1.13997
 C560 C 0.49271 0.14726 1.12258
 C561 C 0.46999 0.16450 1.10125
 H562 H 0.52066 0.14826 1.12389
 H563 H 0.41469 0.16240 1.09494
 H564 H 0.41713 0.11843 1.13836
 N565 N 0.03920 0.66345 0.67168
 N566 N 0.03736 0.68705 0.64879
 C567 C 0.01615 0.67686 0.62443
 C568 C 0.00371 0.64534 0.63246
 C569 C 0.01924 0.63758 0.66251
 H570 H -0.01294 0.62959 0.61782
 H571 H 0.05383 0.66542 0.69327
 H572 H 0.05047 0.70974 0.65017
 N573 N 0.50313 0.80208 -0.14636
 N574 N 0.50402 0.82472 -0.17012
 C575 C 0.50045 0.85615 -0.15694
 C576 C 0.49696 0.85313 -0.12313
 C577 C 0.49889 0.81841 -0.11736
 H578 H 0.49403 0.87335 -0.10516
 H579 H 0.50470 0.77588 -0.15035
 H580 H 0.50630 0.81830 -0.19496
 N581 N 0.95428 0.41638 0.39685
 N582 N 0.95302 0.39473 0.42362
 C583 C 0.97755 0.36982 0.41969
 C584 C 0.99494 0.37540 0.39025
 C585 C 0.97960 0.40471 0.37653
 H586 H 1.01575 0.35988 0.37988
 H587 H 0.93798 0.43788 0.39452
 H588 H 0.93559 0.39854 0.44284
 N589 N 0.57654 0.87019 0.11349
 N590 N 0.57880 0.89579 0.13712
 C591 C 0.54777 0.89947 0.15202
 C592 C 0.52542 0.87610 0.13832
 C593 C 0.54404 0.85852 0.11394
 H594 H 0.49845 0.87346 0.14426
 H595 H 0.59715 0.86263 0.09841
 H596 H 0.60135 0.90886 0.14183
 N597 N -0.02899 0.34732 0.69273
 N598 N -0.02890 0.32153 0.67184
 C599 C -0.01177 0.33007 0.64454
 C600 C -0.00042 0.36292 0.64834
 C601 C -0.01198 0.37309 0.67926
 H602 H 0.01358 0.37755 0.63075
 H603 H -0.04135 0.34720 0.71545
 H604 H -0.04055 0.29855 0.67647
 N605 N 0.44071 0.16737 0.85038
 N606 N 0.43849 0.14119 0.83012
 C607 C 0.46474 0.11868 0.83659
 C608 C 0.48457 0.13137 0.86218
 C609 C 0.46849 0.16234 0.87035
 H610 H 0.50736 0.11954 0.87342
 H611 H 0.42297 0.18796 0.85048
 H612 H 0.41931 0.13929 0.81203
 N613 N 1.04952 0.57582 0.38458
 N614 N 1.04524 0.59733 0.40925
 C615 C 1.02508 0.62394 0.39918
 C616 C 1.01574 0.61877 0.36643
 C617 C 1.03223 0.58804 0.35802
 H618 H 0.99991 0.63525 0.35080
 H619 H 1.06337 0.55268 0.38653
 H620 H 1.05559 0.59313 0.43272
 N621 N 1.10725 0.42394 0.12177
 N622 N 1.12832 0.42940 0.09477
 C623 C 1.15068 0.45362 0.10304
 C624 C 1.14435 0.46396 0.13532
 C625 C 1.11632 0.44555 0.14603
 H626 H 1.15711 0.48403 0.14838
 H627 H 1.08623 0.40802 0.12104
 H628 H 1.12651 0.41625 0.07250
 N629 N 0.68256 -0.03236 0.67190
 N630 N 0.65876 -0.03304 0.69506
 C631 C 0.63064 -0.01442 0.68517
 C632 C 0.63716 -0.00093 0.65450
 C633 C 0.67026 -0.01304 0.64691
 H634 H 0.61976 0.01433 0.63918
 H635 H 0.70658 -0.04535 0.67317
 H636 H 0.66145 -0.04722 0.71658
 N637 N -0.16336 0.53470 0.81505
 N638 N -0.18679 0.53364 0.83851
 C639 C -0.17078 0.52508 0.86702
 C640 C -0.13556 0.52060 0.86130
 C641 C -0.13184 0.52678 0.82801
 H642 H -0.11564 0.51262 0.87871
 H643 H -0.16918 0.54101 0.79069
 H644 H -0.21321 0.53899 0.83482
 N645 N 0.31456 0.00558 0.32859
 N646 N 0.33724 0.00800 0.30468
 C647 C 0.36913 0.00020 0.31666
 C648 C 0.36662 -0.00765 0.34971
 C649 C 0.33150 -0.00373 0.35645
 H650 H 0.38759 -0.01404 0.36662
 H651 H 0.28814 0.01145 0.32575
 H652 H 0.33076 0.01525 0.28070
 N653 N 0.16572 0.48239 0.82341
 N654 N 0.18963 0.48403 0.84670
 C655 C 0.17643 0.50181 0.87246
 C656 C 0.14257 0.51226 0.86485
 C657 C 0.13672 0.49916 0.83363
 H658 H 0.12422 0.52611 0.88031
 H659 H 0.16956 0.47015 0.80081
 H660 H 0.21455 0.47314 0.84456
 N661 N 0.59094 0.05210 0.42015
 N662 N 0.57134 0.05640 0.39365
 C663 C 0.58802 0.04246 0.36756
 C664 C 0.61990 0.02895 0.37805
 C665 C 0.62062 0.03548 0.41158
 H666 H 0.63934 0.01529 0.36364
 H667 H 0.58385 0.06037 0.44368
 H668 H 0.54644 0.06762 0.39395
 N669 N 0.89460 0.43284 0.14166
 N670 N 0.87387 0.43291 0.11574
 C671 C 0.86634 0.46529 0.10709
 C672 C 0.88331 0.48689 0.12851
 C673 C 0.90093 0.46516 0.15013
 H674 H 0.88283 0.51435 0.12848
 H675 H 0.90457 0.41082 0.15294
 H676 H 0.86467 0.41096 0.10470
 N677 N 0.35224 -0.07393 0.61943
 N678 N 0.37212 -0.07465 0.64597
 C679 C 0.37949 -0.04256 0.65455
 C680 C 0.36317 -0.02039 0.63237
 C681 C 0.34634 -0.04141 0.61040
 H682 H 0.36426 0.00698 0.63158
 H683 H 0.34311 -0.09557 0.60774
 H684 H 0.38127 -0.09705 0.65708
   
