data_POSCAR
  _audit_creation_date              2014-09-24
  _audit_creation_method            'ToBaCCo'
  _symmetry_space_group_name_H-M    'P1'
  _symmetry_Int_Tables_number       1
  _symmetry_cell_setting            triclinic
  loop_
  _symmetry_equiv_pos_as_xyz
 x,y,z
_cell_length_a 26.7396
_cell_length_b 27.8500
_cell_length_c 28.2709
_cell_angle_alpha 90.096600
_cell_angle_beta 90.148200
_cell_angle_gamma 83.455800
loop_
  _atom_site_label
  _atom_site_type_symbol
  _atom_site_fract_x
  _atom_site_fract_y
  _atom_site_fract_z
C1 C 1.21855 0.21527 0.19200
 C2 C 1.24713 0.24916 0.16271
 C3 C 1.27580 0.27677 0.18919
 C4 C 1.27231 0.26827 0.24321
 C5 C 1.25861 0.18605 0.22203
 C6 C 1.28674 0.21330 0.24914
 C7 C 1.18764 0.24788 0.22721
 C8 C 1.21535 0.27587 0.25397
 H9 H 1.24439 0.25140 0.12445
 H10 H 1.29528 0.29085 0.26486
 H11 H 1.26071 0.14702 0.22550
 H12 H 1.14738 0.24746 0.23190
 C13 C 0.71777 -0.28495 0.19507
 C14 C 0.75040 -0.25513 0.16535
 C15 C 0.77744 -0.22580 0.19142
 C16 C 0.76907 -0.22904 0.24537
 C17 C 0.75386 -0.31224 0.23033
 C18 C 0.78054 -0.28325 0.25700
 C19 C 0.68494 -0.24809 0.22502
 C20 C 0.71159 -0.21862 0.25127
 H21 H 0.74948 -0.25497 0.12696
 H22 H 0.79107 -0.20520 0.26658
 H23 H 0.75601 -0.35104 0.23569
 H24 H 0.64452 -0.24831 0.22847
 C25 C 0.72411 0.21677 -0.30548
 C26 C 0.75611 0.24420 -0.33400
 C27 C 0.78456 0.27511 -0.30645
 C28 C 0.77516 0.27260 -0.25529
 C29 C 0.75760 0.19072 -0.27132
 C30 C 0.78552 0.22127 -0.24334
 C31 C 0.69265 0.25272 -0.27805
 C32 C 0.72054 0.28364 -0.25035
 H33 H 0.75521 0.24452 -0.37242
 H34 H 0.79719 0.29638 -0.23398
 H35 H 0.75932 0.15199 -0.26533
 H36 H 0.65213 0.25288 -0.27462
 C37 C 1.22049 -0.28301 -0.30614
 C38 C 1.24681 -0.24702 -0.33481
 C39 C 1.27206 -0.21717 -0.30751
 C40 C 1.26899 -0.22652 -0.25389
 C41 C 1.26189 -0.30996 -0.27589
 C42 C 1.28690 -0.28061 -0.24801
 C43 C 1.18707 -0.25254 -0.27111
 C44 C 1.21231 -0.22291 -0.24399
 H45 H 1.24746 -0.24670 -0.37322
 H46 H 1.28978 -0.20243 -0.23179
 H47 H 1.26690 -0.34908 -0.27255
 H48 H 1.14714 -0.25542 -0.26691
 C49 C 0.22230 0.21403 0.81225
 C50 C 0.25258 0.24404 0.83947
 C51 C 0.28216 0.27272 0.81085
 C52 C 0.27466 0.26651 0.75977
 C53 C 0.19013 0.24874 0.77950
 C54 C 0.21726 0.27654 0.75209
 C55 C 0.25922 0.18436 0.77934
 C56 C 0.28585 0.21157 0.75092
 H57 H 0.25056 0.24672 0.87775
 H58 H 0.29693 0.28879 0.73726
 H59 H 0.14962 0.24899 0.77605
 H60 H 0.26116 0.14531 0.77610
 C61 C 0.71738 0.71699 0.80466
 C62 C 0.74381 0.74974 0.83330
 C63 C 0.77189 0.78083 0.80574
 C64 C 0.76845 0.77262 0.75441
 C65 C 0.68645 0.74790 0.77172
 C66 C 0.71430 0.77895 0.74428
 C67 C 0.75618 0.69057 0.77563
 C68 C 0.78418 0.72081 0.74747
 H69 H 0.74281 0.75046 0.87171
 H70 H 0.79049 0.79615 0.73303
 H71 H 0.64638 0.74618 0.76661
 H72 H 0.76042 0.65146 0.77175
 C73 C 0.72359 0.21785 0.30453
 C74 C 0.74952 0.25345 0.33433
 C75 C 0.77516 0.28359 0.30814
 C76 C 0.77295 0.27487 0.25424
 C77 C 0.69073 0.24880 0.26927
 C78 C 0.71644 0.27876 0.24313
 C79 C 0.76530 0.19115 0.27475
 C80 C 0.79068 0.22078 0.24769
 H81 H 0.74867 0.25398 0.37274
 H82 H 0.79423 0.29911 0.23299
 H83 H 0.65101 0.24557 0.26380
 H84 H 0.76962 0.15212 0.27035
 C85 C 0.22210 0.71239 0.30666
 C86 C 0.24817 0.74953 0.33429
 C87 C 0.27249 0.77936 0.30632
 C88 C 0.26875 0.76872 0.25275
 C89 C 0.18769 0.74176 0.27145
 C90 C 0.21195 0.77085 0.24293
 C91 C 0.26348 0.68541 0.27636
 C92 C 0.28758 0.71461 0.24759
 H93 H 0.24951 0.75050 0.37267
 H94 H 0.28857 0.79284 0.22996
 H95 H 0.14751 0.73944 0.26938
 H96 H 0.26887 0.64624 0.27352
 N97 N 1.08650 0.03253 0.05097
 N98 N 1.12105 0.06208 0.05755
 N99 N 1.04449 -0.06051 0.08407
 N100 N 1.05634 -0.08865 0.12078
 N101 N 1.07977 -0.06698 0.05163
 N102 N 1.11658 -0.09954 0.06577
 N103 N 1.05121 0.03946 0.08314
 N104 N 1.06056 0.07419 0.11256
 C105 C 1.10402 0.08802 0.09577
 C106 C 1.10078 -0.11333 0.10846
 N107 N 0.90101 -0.03627 0.05068
 N108 N 0.86550 -0.06438 0.05946
 N109 N 0.94410 0.05782 0.08243
 N110 N 0.93767 0.09125 0.11540
 N111 N 0.90798 0.06390 0.05074
 N112 N 0.87551 0.10162 0.06198
 N113 N 0.93621 -0.04189 0.08339
 N114 N 0.92567 -0.07387 0.11519
 Mn115 Mn 0.99389 -0.00132 0.08359
 C116 C 0.88165 -0.08769 0.09970
 C117 C 0.89561 0.11906 0.10171
 N118 N 1.07965 -0.06681 -0.05063
 N119 N 1.11620 -0.09990 -0.06396
 N120 N 1.05177 0.03973 -0.08232
 N121 N 1.06174 0.07452 -0.11130
 N122 N 1.08671 0.03256 -0.04963
 N123 N 1.12144 0.06199 -0.05536
 N124 N 1.04483 -0.06017 -0.08368
 N125 N 1.05684 -0.08868 -0.12008
 Mn126 Mn 1.08344 -0.01744 0.00054
 C127 C 1.10070 -0.11381 -0.10678
 C128 C 1.10505 0.08818 -0.09358
 N129 N 0.90796 0.06411 -0.05171
 N130 N 0.87501 0.10144 -0.06304
 N131 N 0.93632 -0.04189 -0.08482
 N132 N 0.92547 -0.07349 -0.11716
 N133 N 0.90098 -0.03626 -0.05240
 N134 N 0.86511 -0.06389 -0.06196
 N135 N 0.94399 0.05822 -0.08337
 N136 N 0.93678 0.09139 -0.11659
 Mn137 Mn 0.90375 0.01391 -0.00066
 Mn138 Mn 0.99419 -0.00104 -0.08396
 Cl139 Cl 0.99368 -0.00182 -0.00016
 C140 C 0.89446 0.11892 -0.10290
 C141 C 0.88111 -0.08712 -0.10231
 N142 N 1.09220 0.53152 0.55417
 N143 N 1.12682 0.56102 0.56026
 N144 N 1.05036 0.43910 0.58780
 N145 N 1.06314 0.41181 0.62496
 N146 N 1.08524 0.43219 0.55492
 N147 N 1.12250 0.40016 0.56931
 N148 N 1.05703 0.53883 0.58649
 N149 N 1.06656 0.57374 0.61551
 C150 C 1.10998 0.58719 0.59833
 C151 C 1.10753 0.38708 0.61256
 N152 N 0.90648 0.46408 0.55522
 N153 N 0.87087 0.43605 0.56396
 N154 N 0.94915 0.55824 0.58771
 N155 N 0.94046 0.58987 0.62236
 N156 N 0.91327 0.56445 0.55573
 N157 N 0.87911 0.60042 0.56825
 N158 N 0.94174 0.45818 0.58784
 N159 N 0.93115 0.42609 0.61954
 Mn160 Mn 0.99954 0.49859 0.58776
 C161 C 0.88698 0.41249 0.60409
 C162 C 0.89748 0.61689 0.60924
 N163 N 1.08517 0.43252 0.45185
 N164 N 1.12235 0.40059 0.43714
 N165 N 1.05690 0.53962 0.42128
 N166 N 1.06742 0.57313 0.39117
 N167 N 1.09235 0.53204 0.45342
 N168 N 1.12818 0.56002 0.44608
 N169 N 1.05016 0.43981 0.41901
 N170 N 1.06279 0.41292 0.38148
 Mn171 Mn 1.08898 0.48179 0.50363
 C172 C 1.10721 0.38797 0.39366
 C173 C 1.11174 0.58565 0.40746
 N174 N 0.91319 0.56477 0.45282
 N175 N 0.87859 0.60027 0.44014
 N176 N 0.94164 0.45902 0.41973
 N177 N 0.93050 0.42786 0.38725
 N178 N 0.90643 0.46475 0.45228
 N179 N 0.87023 0.43767 0.44264
 N180 N 0.94905 0.55886 0.42092
 N181 N 0.93994 0.59030 0.38628
 Mn182 Mn 0.90925 0.51454 0.50401
 Mn183 Mn 0.99935 0.49933 0.41998
 Cl184 Cl 0.99916 0.49825 0.50384
 C185 C 0.89674 0.61685 0.39928
 C186 C 0.88610 0.41472 0.40220
 N187 N 0.44876 -0.08142 0.54936
 N188 N 0.43799 -0.11535 0.57890
 N189 N 0.41296 -0.04562 0.44954
 N190 N 0.37673 -0.05475 0.42007
 N191 N 0.44904 -0.08193 0.45005
 N192 N 0.43813 -0.11647 0.42102
 N193 N 0.41255 -0.04523 0.54906
 N194 N 0.37635 -0.05374 0.57852
 C195 C 0.39334 -0.09711 0.59750
 C196 C 0.39352 -0.09860 0.40181
 N197 N 0.44414 0.08947 0.45075
 N198 N 0.43416 0.12375 0.41881
 N199 N 0.40927 0.05918 0.54927
 N200 N 0.37465 0.07197 0.58159
 N201 N 0.44401 0.08888 0.54990
 N202 N 0.43436 0.12238 0.58269
 N203 N 0.41016 0.05898 0.44966
 N204 N 0.37614 0.07163 0.41666
 Mn205 Mn 0.41069 0.00685 0.49934
 C206 C 0.39194 0.11190 0.39761
 C207 C 0.39122 0.11119 0.60230
 N208 N 0.55782 -0.09056 0.45069
 N209 N 0.56820 -0.12364 0.41758
 N210 N 0.59173 -0.06006 0.55023
 N211 N 0.62705 -0.07249 0.58207
 N212 N 0.55774 -0.09059 0.55027
 N213 N 0.56905 -0.12462 0.58231
 N214 N 0.59172 -0.05998 0.45105
 N215 N 0.62617 -0.07140 0.41833
 Mn216 Mn 0.50335 -0.08655 0.50013
 C217 C 0.61072 -0.11093 0.39762
 C218 C 0.61212 -0.11254 0.60204
 N219 N 0.55188 0.07962 0.55034
 N220 N 0.56350 0.11488 0.57791
 N221 N 0.58815 0.04357 0.45138
 N222 N 0.62499 0.05300 0.42317
 N223 N 0.55204 0.07976 0.45159
 N224 N 0.56337 0.11466 0.42365
 N225 N 0.58836 0.04376 0.55017
 N226 N 0.62582 0.05399 0.57751
 Mn227 Mn 0.49798 0.08465 0.50068
 Mn228 Mn 0.59033 -0.00826 0.50070
 Cl229 Cl 0.50050 -0.00091 0.50023
 C230 C 0.60898 0.09781 0.59545
 C231 C 0.60821 0.09687 0.40542
 N232 N 0.59019 0.53367 0.04740
 N233 N 0.62433 0.56342 0.05514
 N234 N 0.55070 0.43853 0.07888
 N235 N 0.56302 0.40977 0.11498
 N236 N 0.58624 0.43367 0.04656
 N237 N 0.62367 0.40155 0.06022
 N238 N 0.55524 0.53863 0.08007
 N239 N 0.56453 0.57200 0.11102
 C240 C 0.60739 0.58736 0.09457
 C241 C 0.60790 0.38633 0.10240
 N242 N 0.40669 0.46066 0.04699
 N243 N 0.37056 0.43345 0.05643
 N244 N 0.44776 0.55507 0.08035
 N245 N 0.43940 0.58658 0.11498
 N246 N 0.41174 0.56117 0.04854
 N247 N 0.37748 0.59693 0.06133
 N248 N 0.44209 0.45479 0.07946
 N249 N 0.43096 0.42352 0.11183
 Mn250 Mn 0.49893 0.49665 0.07996
 C251 C 0.38646 0.41025 0.09679
 C252 C 0.39628 0.61332 0.10218
 N253 N 0.58659 0.43504 -0.05589
 N254 N 0.62464 0.40407 -0.07036
 N255 N 0.55530 0.54125 -0.08635
 N256 N 0.56462 0.57559 -0.11615
 N257 N 0.59044 0.53517 -0.05376
 N258 N 0.62482 0.56489 -0.06054
 N259 N 0.55132 0.44082 -0.08861
 N260 N 0.56470 0.41395 -0.12592
 Mn261 Mn 0.58867 0.48421 -0.00390
 C262 C 0.60983 0.39056 -0.11359
 C263 C 0.60784 0.59020 -0.09924
 N264 N 0.41193 0.56238 -0.05426
 N265 N 0.37838 0.59933 -0.06531
 N266 N 0.44200 0.45678 -0.08836
 N267 N 0.43165 0.42454 -0.12029
 N268 N 0.40685 0.46193 -0.05571
 N269 N 0.37182 0.43325 -0.06452
 N270 N 0.44775 0.55712 -0.08616
 N271 N 0.43999 0.59045 -0.11909
 Mn272 Mn 0.40867 0.51165 -0.00367
 Mn273 Mn 0.49898 0.49888 -0.08773
 Cl274 Cl 0.49873 0.49751 -0.00387
 C275 C 0.39744 0.61729 -0.10512
 C276 C 0.38787 0.41006 -0.10479
 C277 C 1.15983 0.16268 0.09500
 C278 C 1.13987 0.19922 0.13392
 C279 C 1.18694 0.18309 0.16381
 C280 C 1.20727 0.14706 0.12528
 C281 C 1.15969 0.14397 0.18805
 C282 C 1.11238 0.15967 0.15795
 C283 C 1.13286 0.12370 0.11953
 C284 C 1.17986 0.10771 0.14934
 H285 H 1.15938 0.16987 0.05638
 H286 H 1.12396 0.23729 0.12788
 H287 H 1.24662 0.14232 0.11215
 H288 H 1.15991 0.13657 0.22663
 H289 H 1.07305 0.16447 0.17112
 H290 H 1.19591 0.06969 0.15552
 C291 C 1.16394 0.66297 0.59679
 C292 C 1.14346 0.69862 0.63619
 C293 C 1.19123 0.68345 0.66538
 C294 C 1.21217 0.64836 0.62638
 C295 C 1.16570 0.64327 0.68968
 C296 C 1.11771 0.65806 0.66032
 C297 C 1.13865 0.62298 0.62143
 C298 C 1.18638 0.60787 0.65047
 H299 H 1.16261 0.67045 0.55822
 H300 H 1.12642 0.73643 0.63065
 H301 H 1.25135 0.64495 0.61286
 H302 H 1.16679 0.63553 0.72821
 H303 H 1.07857 0.66164 0.67398
 H304 H 1.20350 0.57009 0.65609
 C305 C 0.67746 0.16035 0.59897
 C306 C 0.65721 0.20256 0.63172
 C307 C 0.69475 0.18500 0.66768
 C308 C 0.71680 0.14475 0.63778
 C309 C 0.66017 0.15500 0.69119
 C310 C 0.61954 0.17104 0.65386
 C311 C 0.64087 0.12846 0.62226
 C312 C 0.68059 0.11158 0.66003
 H313 H 0.68541 0.16321 0.56062
 H314 H 0.64921 0.24113 0.62136
 H315 H 0.75794 0.13577 0.63242
 H316 H 0.65443 0.15429 0.73008
 H317 H 0.57929 0.18283 0.66146
 H318 H 0.69108 0.07405 0.67265
 C319 C 0.66962 0.65659 0.09661
 C320 C 0.64676 0.69772 0.12972
 C321 C 0.68766 0.68180 0.16662
 C322 C 0.71085 0.64114 0.13386
 C323 C 0.65364 0.64751 0.18970
 C324 C 0.61243 0.66300 0.15254
 C325 C 0.63574 0.62240 0.11988
 C326 C 0.67658 0.60654 0.15670
 H327 H 0.67574 0.65989 0.05798
 H328 H 0.63498 0.73566 0.11900
 H329 H 0.75166 0.63259 0.12654
 H330 H 0.64745 0.64416 0.22831
 H331 H 0.57162 0.67157 0.15990
 H332 H 0.68846 0.56864 0.16752
 C333 C 0.80446 -0.14101 0.10746
 C334 C 0.82655 -0.19384 0.11716
 C335 C 0.80631 -0.18903 0.16816
 C336 C 0.78403 -0.13654 0.15869
 C337 C 0.85595 -0.17205 0.18546
 C338 C 0.87646 -0.17642 0.13420
 C339 C 0.85408 -0.12399 0.12464
 C340 C 0.83405 -0.11902 0.17563
 H341 H 0.78339 -0.12807 0.07518
 H342 H 0.82395 -0.22484 0.09290
 H343 H 0.74574 -0.12049 0.16917
 H344 H 0.87687 -0.18517 0.21776
 H345 H 0.91474 -0.19253 0.12381
 H346 H 0.83733 -0.08779 0.19942
 C347 C 0.80989 0.35880 0.61130
 C348 C 0.83215 0.30594 0.62077
 C349 C 0.81165 0.31041 0.67170
 C350 C 0.78916 0.36287 0.66248
 C351 C 0.86115 0.32746 0.68936
 C352 C 0.88188 0.32351 0.63815
 C353 C 0.85936 0.37595 0.62881
 C354 C 0.83905 0.38051 0.67975
 H355 H 0.78890 0.37184 0.57901
 H356 H 0.82992 0.27512 0.59620
 H357 H 0.75078 0.37875 0.67287
 H358 H 0.88206 0.31426 0.72164
 H359 H 0.92026 0.30757 0.62786
 H360 H 0.84208 0.41161 0.70378
 C361 C 0.34156 -0.17118 0.60432
 C362 C 0.35667 -0.19989 0.64983
 C363 C 0.30458 -0.18302 0.67061
 C364 C 0.28923 -0.15446 0.62531
 C365 C 0.32443 -0.13839 0.69280
 C366 C 0.37711 -0.15487 0.67154
 C367 C 0.36158 -0.12654 0.62621
 C368 C 0.30951 -0.10948 0.64702
 H369 H 0.34884 -0.18441 0.56764
 H370 H 0.37568 -0.23744 0.65125
 H371 H 0.25279 -0.15443 0.60640
 H372 H 0.31697 -0.12520 0.72946
 H373 H 0.41363 -0.15463 0.69025
 H374 H 0.29046 -0.07195 0.64564
 C375 C 0.30709 0.36000 0.10529
 C376 C 0.32698 0.30672 0.11554
 C377 C 0.30642 0.31271 0.16640
 C378 C 0.28637 0.36570 0.15636
 C379 C 0.35692 0.32786 0.18377
 C380 C 0.37770 0.32230 0.13265
 C381 C 0.35756 0.37523 0.12253
 C382 C 0.33724 0.38140 0.17338
 H383 H 0.28664 0.37329 0.07280
 H384 H 0.32319 0.27579 0.09148
 H385 H 0.24856 0.38333 0.16643
 H386 H 0.37721 0.31437 0.21628
 H387 H 0.41551 0.30462 0.12263
 H388 H 0.34168 0.41252 0.19699
 C389 C 0.82426 0.19506 -0.12794
 C390 C 0.84749 0.22405 -0.16783
 C391 C 0.81435 0.20146 -0.20431
 C392 C 0.79062 0.17320 -0.16512
 C393 C 0.85550 0.15905 -0.21242
 C394 C 0.88904 0.18101 -0.17555
 C395 C 0.86526 0.15255 -0.13653
 C396 C 0.83192 0.13063 -0.17321
 H397 H 0.81168 0.20951 -0.09280
 H398 H 0.85371 0.26274 -0.16598
 H399 H 0.74980 0.17016 -0.16119
 H400 H 0.86833 0.14431 -0.24742
 H401 H 0.92988 0.18397 -0.17945
 H402 H 0.82551 0.09198 -0.17526
 C403 C 0.82540 0.69144 0.37354
 C404 C 0.84709 0.71911 0.33191
 C405 C 0.81241 0.69573 0.29738
 C406 C 0.79025 0.66866 0.33838
 C407 C 0.85313 0.65293 0.28913
 C408 C 0.88821 0.67580 0.32399
 C409 C 0.86597 0.64858 0.36485
 C410 C 0.83114 0.62568 0.33020
 H411 H 0.81420 0.70700 0.40862
 H412 H 0.85346 0.75780 0.33222
 H413 H 0.74958 0.66594 0.34393
 H414 H 0.86448 0.63719 0.25414
 H415 H 0.92885 0.67855 0.31837
 H416 H 0.82460 0.58702 0.32968
 C417 C 0.33580 0.19134 0.36409
 C418 C 0.36036 0.20760 0.31797
 C419 C 0.31719 0.18976 0.28926
 C420 C 0.29227 0.17394 0.33478
 C421 C 0.34692 0.13925 0.28419
 C422 C 0.39036 0.15667 0.31339
 C423 C 0.36521 0.14079 0.35875
 C424 C 0.32206 0.12325 0.32992
 H425 H 0.33136 0.21241 0.39748
 H426 H 0.37582 0.24252 0.31266
 H427 H 0.25162 0.18141 0.34326
 H428 H 0.35174 0.11790 0.25098
 H429 H 0.43102 0.14914 0.30494
 H430 H 0.30636 0.08839 0.33491
 C431 C 0.32716 0.69308 -0.13076
 C432 C 0.35060 0.72107 -0.17118
 C433 C 0.31726 0.69812 -0.20721
 C434 C 0.29330 0.67083 -0.16745
 C435 C 0.35804 0.65532 -0.21473
 C436 C 0.39179 0.67772 -0.17837
 C437 C 0.36780 0.65021 -0.13878
 C438 C 0.33425 0.62783 -0.17495
 H439 H 0.31477 0.70821 -0.09581
 H440 H 0.35708 0.75972 -0.17023
 H441 H 0.25238 0.66831 -0.16354
 H442 H 0.37064 0.63998 -0.24955
 H443 H 0.43268 0.68034 -0.18239
 H444 H 0.32753 0.58923 -0.17620
 C445 C 1.11481 -0.18594 -0.16845
 C446 C 1.13472 -0.16438 -0.21403
 C447 C 1.18616 -0.19374 -0.20544
 C448 C 1.16661 -0.21561 -0.16014
 C449 C 1.20453 -0.15194 -0.17727
 C450 C 1.15267 -0.12232 -0.18548
 C451 C 1.13293 -0.14414 -0.14024
 C452 C 1.18443 -0.17325 -0.13130
 H453 H 1.07765 -0.19962 -0.16438
 H454 H 1.11465 -0.16075 -0.24849
 H455 H 1.17302 -0.25441 -0.15035
 H456 H 1.24158 -0.13809 -0.18135
 H457 H 1.14645 -0.08355 -0.19546
 H458 H 1.20429 -0.17664 -0.09674
 C459 C 1.18972 0.32617 0.36782
 C460 C 1.17003 0.28515 0.33836
 C461 C 1.19089 0.30639 0.29324
 C462 C 1.21108 0.34694 0.32206
 C463 C 1.14052 0.33801 0.28505
 C464 C 1.11942 0.31697 0.33036
 C465 C 1.13929 0.35753 0.35926
 C466 C 1.16030 0.37881 0.31422
 H467 H 1.20960 0.32144 0.40229
 H468 H 1.17432 0.24627 0.34797
 H469 H 1.24896 0.35913 0.31828
 H470 H 1.12043 0.34299 0.25069
 H471 H 1.08152 0.30475 0.33398
 H472 H 1.15593 0.41768 0.30456
 C473 C 0.65112 -0.11716 0.31068
 C474 C 0.70517 -0.14390 0.31419
 C475 C 0.68663 -0.18809 0.29001
 C476 C 0.63300 -0.16170 0.28595
 C477 C 0.67409 -0.20926 0.33816
 C478 C 0.69220 -0.16470 0.36292
 C479 C 0.63853 -0.13848 0.35874
 C480 C 0.62020 -0.18268 0.33446
 H481 H 0.64128 -0.07897 0.29981
 H482 H 0.74034 -0.12823 0.30540
 H483 H 0.60883 -0.16046 0.25389
 H484 H 0.68404 -0.24746 0.34900
 H485 H 0.71621 -0.16570 0.39507
 H486 H 0.58503 -0.19850 0.34299
 C487 C 0.62509 0.31907 -0.17582
 C488 C 0.64426 0.34085 -0.22163
 C489 C 0.69610 0.31190 -0.21352
 C490 C 0.67725 0.28988 -0.16797
 C491 C 0.71425 0.35401 -0.18556
 C492 C 0.66193 0.38320 -0.19322
 C493 C 0.64285 0.36118 -0.14773
 C494 C 0.69478 0.33252 -0.13931
 H495 H 0.58823 0.30488 -0.17152
 H496 H 0.62363 0.34450 -0.25580
 H497 H 0.68407 0.25114 -0.15802
 H498 H 0.75105 0.36828 -0.18998
 H499 H 0.65519 0.42193 -0.20324
 H500 H 0.71510 0.32927 -0.10498
 C501 C 1.11462 0.16229 -0.15242
 C502 C 1.14546 0.19883 -0.12733
 C503 C 1.19061 0.18216 -0.15934
 C504 C 1.15996 0.14602 -0.18463
 C505 C 1.21066 0.14332 -0.12333
 C506 C 1.16515 0.15949 -0.09092
 C507 C 1.13479 0.12352 -0.11653
 C508 C 1.17986 0.10697 -0.14844
 H509 H 1.07485 0.16969 -0.16418
 H510 H 1.13188 0.23702 -0.11886
 H511 H 1.15813 0.14069 -0.22350
 H512 H 1.25044 0.13596 -0.11162
 H513 H 1.16671 0.16458 -0.05200
 H514 H 1.19356 0.06883 -0.15704
 C515 C 1.16698 0.66096 0.40600
 C516 C 1.21487 0.64528 0.37640
 C517 C 1.19358 0.67907 0.33645
 C518 C 1.14615 0.69524 0.36567
 C519 C 1.16768 0.63807 0.31375
 C520 C 1.18867 0.60396 0.35393
 C521 C 1.14126 0.62014 0.38298
 C522 C 1.12005 0.65394 0.34311
 H523 H 1.16620 0.66988 0.44430
 H524 H 1.25419 0.64220 0.38970
 H525 H 1.12912 0.73321 0.37022
 H526 H 1.16826 0.62894 0.27550
 H527 H 1.20572 0.56600 0.34934
 H528 H 1.08078 0.65725 0.32962
 C529 C 0.66690 0.16667 0.40147
 C530 C 0.71433 0.14974 0.37192
 C531 C 0.69393 0.18439 0.33237
 C532 C 0.64692 0.20164 0.36159
 C533 C 0.66678 0.14451 0.30916
 C534 C 0.68678 0.10946 0.34911
 C535 C 0.63982 0.12693 0.37817
 C536 C 0.61947 0.16151 0.33867
 H537 H 0.66644 0.17519 0.43986
 H538 H 0.75367 0.14559 0.38522
 H539 H 0.63110 0.23994 0.36647
 H540 H 0.66719 0.13596 0.27078
 H541 H 0.70254 0.07115 0.34427
 H542 H 0.58015 0.16578 0.32529
 C543 C 0.66503 0.66479 -0.09972
 C544 C 0.71043 0.65027 -0.13262
 C545 C 0.68826 0.68484 -0.16836
 C546 C 0.64473 0.70138 -0.13831
 C547 C 0.66139 0.64816 -0.19222
 C548 C 0.68235 0.61044 -0.15520
 C549 C 0.63649 0.62593 -0.12346
 C550 C 0.61486 0.66276 -0.16103
 H551 H 0.66724 0.67262 -0.06130
 H552 H 0.75076 0.64670 -0.12222
 H553 H 0.63085 0.74007 -0.13258
 H554 H 0.66105 0.64270 -0.23115
 H555 H 0.69898 0.57294 -0.16312
 H556 H 0.57534 0.66897 -0.17374
 C557 C 0.83784 -0.16950 -0.10649
 C558 C 0.78388 -0.15758 -0.12637
 C559 C 0.80037 -0.18452 -0.17245
 C560 C 0.85401 -0.19678 -0.15281
 C561 C 0.81474 -0.13744 -0.19438
 C562 C 0.79868 -0.11018 -0.14798
 C563 C 0.85232 -0.12245 -0.12827
 C564 C 0.86886 -0.14924 -0.17438
 H565 H 0.84742 -0.18251 -0.07014
 H566 H 0.74862 -0.16076 -0.10655
 H567 H 0.87667 -0.23267 -0.15506
 H568 H 0.80512 -0.12409 -0.23061
 H569 H 0.77601 -0.07430 -0.14575
 H570 H 0.90413 -0.14565 -0.19403
 C571 C 0.84099 0.33412 0.39794
 C572 C 0.78781 0.34711 0.37674
 C573 C 0.80504 0.31949 0.33130
 C574 C 0.85789 0.30620 0.35226
 C575 C 0.82115 0.36577 0.30935
 C576 C 0.80434 0.39376 0.35512
 C577 C 0.85715 0.38036 0.37611
 C578 C 0.87448 0.35293 0.33065
 H579 H 0.84935 0.32144 0.43463
 H580 H 0.75178 0.34468 0.39552
 H581 H 0.87961 0.26981 0.35068
 H582 H 0.81270 0.37858 0.27273
 H583 H 0.78259 0.43013 0.35667
 H584 H 0.91051 0.35560 0.31196
 C585 C 0.34101 -0.17265 0.39484
 C586 C 0.28916 -0.15616 0.37251
 C587 C 0.30513 -0.18579 0.32789
 C588 C 0.35679 -0.20240 0.35007
 C589 C 0.32576 -0.14172 0.30553
 C590 C 0.31018 -0.11174 0.35061
 C591 C 0.36179 -0.12855 0.37281
 C592 C 0.37796 -0.15795 0.32816
 H593 H 0.34740 -0.18523 0.43184
 H594 H 0.25235 -0.15548 0.39072
 H595 H 0.37572 -0.24000 0.34964
 H596 H 0.31917 -0.12924 0.26854
 H597 H 0.29121 -0.07416 0.35102
 H598 H 0.41484 -0.15838 0.31015
 C599 C 0.38165 0.32014 -0.13876
 C600 C 0.33213 0.30321 -0.12062
 C601 C 0.31076 0.30821 -0.16870
 C602 C 0.35737 0.32315 -0.18862
 C603 C 0.28869 0.35829 -0.16041
 C604 C 0.31108 0.35601 -0.10986
 C605 C 0.36009 0.37308 -0.12919
 C606 C 0.33721 0.37677 -0.17954
 H607 H 0.42010 0.30290 -0.13024
 H608 H 0.32976 0.27166 -0.09710
 H609 H 0.37527 0.30802 -0.22164
 H610 H 0.24948 0.37216 -0.17036
 H611 H 0.29055 0.36861 -0.07724
 H612 H 0.33855 0.40681 -0.20509
 C613 C 1.15167 -0.19855 0.13466
 C614 C 1.20349 -0.18888 0.15521
 C615 C 1.18461 -0.19906 0.20514
 C616 C 1.13326 -0.20926 0.18497
 C617 C 1.16528 -0.14551 0.21217
 C618 C 1.18360 -0.13474 0.16180
 C619 C 1.13224 -0.14505 0.14196
 C620 C 1.11369 -0.15543 0.19190
 H621 H 1.14572 -0.22001 0.10243
 H622 H 1.24083 -0.20308 0.14072
 H623 H 1.11218 -0.24009 0.19395
 H624 H 1.17126 -0.12403 0.24439
 H625 H 1.20392 -0.10370 0.15174
 H626 H 1.07648 -0.14165 0.20694
 C627 C 1.15943 0.37841 0.69254
 C628 C 1.14071 0.33656 0.72068
 C629 C 1.19206 0.30658 0.71298
 C630 C 1.21119 0.34819 0.68519
 C631 C 1.17276 0.28504 0.66716
 C632 C 1.12112 0.31524 0.67466
 C633 C 1.13994 0.35687 0.64680
 C634 C 1.19136 0.32716 0.63872
 H635 H 1.15358 0.41717 0.70268
 H636 H 1.12003 0.34059 0.75472
 H637 H 1.24843 0.36155 0.68998
 H638 H 1.17881 0.24624 0.65718
 H639 H 1.08388 0.30182 0.67007
 H640 H 1.21180 0.32345 0.60456
 C641 C 0.65514 -0.12056 0.68804
 C642 C 0.63731 -0.16518 0.71257
 C643 C 0.69070 -0.19196 0.70732
 C644 C 0.70894 -0.14760 0.68334
 C645 C 0.67667 -0.21250 0.65920
 C646 C 0.62303 -0.18551 0.66407
 C647 C 0.64102 -0.14117 0.63994
 C648 C 0.69445 -0.16774 0.63457
 H649 H 0.64589 -0.08248 0.69961
 H650 H 0.61385 -0.16400 0.74499
 H651 H 0.74440 -0.13203 0.69142
 H652 H 0.68597 -0.25057 0.64761
 H653 H 0.58747 -0.20097 0.65606
 H654 H 0.71766 -0.16858 0.60202
 C655 C 0.65709 0.37841 0.18285
 C656 C 0.63900 0.33566 0.21001
 C657 C 0.69139 0.30748 0.20354
 C658 C 0.70989 0.34999 0.17674
 C659 C 0.67464 0.28537 0.15705
 C660 C 0.62189 0.31384 0.16326
 C661 C 0.64010 0.35636 0.13640
 C662 C 0.69257 0.32844 0.12956
 H663 H 0.64947 0.41706 0.19304
 H664 H 0.61724 0.33868 0.24348
 H665 H 0.74622 0.36475 0.18278
 H666 H 0.68242 0.24668 0.14705
 H667 H 0.58548 0.29919 0.15730
 H668 H 0.71408 0.32570 0.09596
 C669 C 0.83457 0.12996 0.17258
 C670 C 0.86006 0.15663 0.21208
 C671 C 0.81960 0.19992 0.20598
 C672 C 0.79394 0.17346 0.16647
 C673 C 0.85207 0.22288 0.16943
 C674 C 0.89294 0.17901 0.17520
 C675 C 0.86727 0.15229 0.13588
 C676 C 0.82693 0.19567 0.12924
 H677 H 0.82732 0.09150 0.17358
 H678 H 0.87361 0.14074 0.24642
 H679 H 0.75283 0.17141 0.16350
 H680 H 0.85904 0.26140 0.16878
 H681 H 0.93404 0.18110 0.17829
 H682 H 0.81357 0.21133 0.09477
 C683 C 0.82754 0.69341 0.63350
 C684 C 0.79170 0.67219 0.66889
 C685 C 0.81433 0.69977 0.70949
 C686 C 0.84971 0.72164 0.67474
 C687 C 0.85428 0.65647 0.71876
 C688 C 0.83180 0.62873 0.67809
 C689 C 0.86732 0.65003 0.64317
 C690 C 0.89002 0.67777 0.68364
 H691 H 0.81669 0.70834 0.59809
 H692 H 0.75094 0.67004 0.66308
 H693 H 0.85700 0.76006 0.67360
 H694 H 0.86537 0.64129 0.75404
 H695 H 0.82442 0.59032 0.67938
 H696 H 0.93078 0.67986 0.68947
 C697 C 0.38573 0.17885 0.67126
 C698 C 0.33513 0.21173 0.66585
 C699 C 0.31549 0.18834 0.71029
 C700 C 0.36556 0.15586 0.71623
 C701 C 0.29423 0.14937 0.67979
 C702 C 0.31427 0.17235 0.63500
 C703 C 0.36429 0.13982 0.64111
 C704 C 0.34456 0.11668 0.68553
 H705 H 0.42379 0.19062 0.66737
 H706 H 0.33102 0.25103 0.65805
 H707 H 0.38650 0.14949 0.75001
 H708 H 0.25616 0.13749 0.68332
 H709 H 0.29330 0.17873 0.60123
 H710 H 0.34848 0.07737 0.69331
 C711 C 0.33421 0.62269 0.17352
 C712 C 0.35853 0.65038 0.21310
 C713 C 0.31725 0.69294 0.20634
 C714 C 0.29272 0.66546 0.16683
 C715 C 0.34959 0.71618 0.16984
 C716 C 0.39127 0.67311 0.17627
 C717 C 0.36674 0.64543 0.13690
 C718 C 0.32557 0.68805 0.12969
 H719 H 0.32786 0.58400 0.17477
 H720 H 0.37205 0.63504 0.24766
 H721 H 0.25179 0.66260 0.16345
 H722 H 0.35576 0.75491 0.16883
 H723 H 0.43216 0.67610 0.17977
 H724 H 0.31221 0.70323 0.09502
   
