data_POSCAR
  _audit_creation_date              2014-09-24
  _audit_creation_method            'ToBaCCo'
  _symmetry_space_group_name_H-M    'P1'
  _symmetry_Int_Tables_number       1
  _symmetry_cell_setting            triclinic
  loop_
  _symmetry_equiv_pos_as_xyz
 x,y,z
_cell_length_a 15.6564
_cell_length_b 12.1765
_cell_length_c 15.0613
_cell_angle_alpha 89.857900
_cell_angle_beta 89.954500
_cell_angle_gamma 84.286700
loop_
  _atom_site_label
  _atom_site_type_symbol
  _atom_site_fract_x
  _atom_site_fract_y
  _atom_site_fract_z
C1 C -0.11855 0.52065 0.39258
 C2 C -0.03496 0.54772 0.38181
 C3 C -0.01989 0.63240 0.32211
 C4 C -0.07583 0.65623 0.25138
 C5 C -0.15659 0.61223 0.25271
 C6 C -0.17987 0.55062 0.32784
 C7 C 0.03286 0.45570 0.38242
 C8 C 0.01775 0.37028 0.32380
 C9 C 0.07328 0.34651 0.25284
 C10 C 0.15366 0.39080 0.25281
 C11 C 0.17719 0.45286 0.32698
 C12 C 0.11650 0.48299 0.39218
 H13 H -0.13100 0.45784 0.44075
 H14 H 0.04351 0.66112 0.31854
 H15 H -0.04552 0.34136 0.32054
 H16 H 0.12948 0.54620 0.43944
 H17 H -0.19859 0.62268 0.19611
 H18 H 0.19516 0.38007 0.19587
 C19 C -0.11101 0.47470 0.62029
 C20 C -0.02562 0.45552 0.64559
 C21 C 0.00070 0.37325 0.70728
 C22 C -0.05997 0.32046 0.75278
 C23 C -0.14637 0.33646 0.72557
 C24 C -0.17199 0.41441 0.65847
 C25 C 0.02538 0.54701 0.64499
 C26 C -0.00026 0.62916 0.70669
 C27 C 0.06094 0.68101 0.75192
 C28 C 0.14721 0.66468 0.72407
 C29 C 0.17208 0.58683 0.65694
 C30 C 0.11058 0.52743 0.61908
 H31 H -0.13103 0.54491 0.57809
 H32 H 0.06680 0.36402 0.73042
 H33 H -0.06624 0.63866 0.73027
 H34 H 0.13010 0.45723 0.57692
 H35 H -0.19134 0.28966 0.75759
 H36 H 0.19278 0.71106 0.75544
 C37 C 0.21894 -0.05950 0.50642
 C38 C 0.15532 0.02188 0.53736
 C39 C 0.13414 0.02691 0.62601
 C40 C 0.17916 -0.04324 0.68582
 C41 C 0.24783 -0.11925 0.65697
 C42 C 0.26712 -0.12814 0.56549
 C43 C 0.13198 0.11913 0.48281
 C44 C 0.10492 0.09476 0.39852
 C45 C 0.16490 0.08998 0.33007
 C46 C 0.24475 0.13347 0.34451
 C47 C 0.25708 0.19070 0.42498
 C48 C 0.19371 0.19328 0.49018
 H49 H 0.23603 -0.06386 0.43680
 H50 H 0.08520 0.09009 0.64898
 H51 H 0.04764 0.05311 0.39183
 H52 H 0.20661 0.22655 0.55509
 H53 H 0.28509 -0.17051 0.70427
 H54 H 0.29622 0.11936 0.29716
 C55 C 0.80456 -0.19634 0.49410
 C56 C 0.86785 -0.12465 0.48385
 C57 C 0.89282 -0.10188 0.39828
 C58 C 0.83057 -0.09477 0.33213
 C59 C 0.75047 -0.13604 0.34936
 C60 C 0.73953 -0.19267 0.43055
 C61 C 0.84805 -0.02636 0.53799
 C62 C 0.87055 -0.03147 0.62642
 C63 C 0.82717 0.03998 0.68652
 C64 C 0.75861 0.11672 0.65797
 C65 C 0.73843 0.12572 0.56674
 C66 C 0.78537 0.05659 0.50753
 H67 H 0.79316 -0.22915 0.55973
 H68 H 0.95068 -0.06216 0.38881
 H69 H 0.91891 -0.09583 0.64891
 H70 H 0.76718 0.06151 0.43830
 H71 H 0.69793 -0.12117 0.30330
 H72 H 0.72165 0.16819 0.70514
 C73 C 0.48827 0.22705 1.10206
 C74 C 0.46682 0.17532 1.02313
 C75 C 0.38394 0.14776 1.00918
 C76 C 0.32058 0.17461 1.07225
 C77 C 0.34217 0.22866 1.15182
 C78 C 0.42742 0.25442 1.16689
 C79 C 0.52826 0.17061 0.95047
 C80 C 0.61451 0.14879 0.97216
 C81 C 0.67539 0.20299 0.92779
 C82 C 0.64994 0.26727 0.85177
 C83 C 0.56506 0.26896 0.81865
 C84 C 0.50408 0.22232 0.86994
 H85 H 0.55218 0.25242 1.11122
 H86 H 0.36846 0.10822 0.94748
 H87 H 0.63215 0.10246 1.03236
 H88 H 0.43690 0.23640 0.85165
 H89 H 0.29425 0.25032 1.20098
 H90 H 0.69300 0.31773 0.82003
 C91 C 0.51095 0.77524 1.10239
 C92 C 0.53186 0.82515 1.02221
 C93 C 0.61462 0.85245 1.00690
 C94 C 0.67820 0.82732 1.07002
 C95 C 0.65713 0.77584 1.15099
 C96 C 0.57218 0.74982 1.16722
 C97 C 0.47001 0.82790 0.95009
 C98 C 0.38390 0.84943 0.97228
 C99 C 0.32309 0.79352 0.92978
 C100 C 0.34824 0.72801 0.85444
 C101 C 0.43289 0.72678 0.82027
 C102 C 0.49388 0.77492 0.87020
 H103 H 0.44725 0.74958 1.11260
 H104 H 0.62986 0.89037 0.94425
 H105 H 0.36646 0.89700 1.03178
 H106 H 0.56096 0.76134 0.85134
 H107 H 0.70545 0.75626 1.20014
 H108 H 0.30504 0.67655 0.82418
 B109 B 0.99949 1.11306 0.07156
 B110 B 1.00010 1.11168 -0.04065
 B111 B 1.08741 1.05741 0.01721
 B112 B 1.05327 0.99146 0.10665
 B113 B 0.94419 1.00720 0.10547
 B114 B 0.91175 1.08098 0.01418
 B115 B 1.00029 0.88699 -0.04043
 B116 B 0.99846 0.88543 0.07196
 B117 B 0.91192 0.94130 0.01544
 B118 B 0.94651 1.00560 -0.07378
 B119 B 1.05466 0.99316 -0.07254
 B120 B 1.08752 0.91748 0.01625
 B121 B 0.58777 0.49037 0.42830
 B122 B 0.58731 0.49013 0.54107
 B123 B 0.55336 0.60703 0.48563
 B124 B 0.50071 0.57178 0.39362
 B125 B 0.50062 0.43118 0.39277
 B126 B 0.55583 0.38096 0.48487
 B127 B 0.41293 0.50965 0.54041
 B128 B 0.41343 0.51199 0.42783
 B129 B 0.44724 0.39386 0.48390
 B130 B 0.50096 0.43009 0.57573
 B131 B 0.49893 0.56877 0.57658
 B132 B 0.44496 0.61998 0.48579
 C133 C 1.04271 1.27925 0.18199
 C134 C 1.01580 1.21504 0.12966
 C135 C 0.95261 0.72009 0.18368
 C136 C 0.98020 0.78373 0.13070
 C137 C 0.96569 1.26239 -0.17255
 C138 C 0.98807 1.20656 -0.10872
 C139 C 1.03576 0.73798 -0.17292
 C140 C 1.01323 0.79277 -0.10873
 C141 C 1.14205 1.03833 0.25484
 C142 C 1.10762 1.00201 0.19115
 C143 C 1.14806 0.96673 -0.22536
 C144 C 1.10980 0.98200 -0.15686
 C145 C 0.85339 0.96129 0.25267
 C146 C 0.88842 0.99737 0.18913
 C147 C 0.85665 1.03117 -0.22917
 C148 C 0.89337 1.01675 -0.15960
 C149 C 1.24035 1.14504 0.05257
 C150 C 1.17301 1.11110 0.03108
 C151 C 0.75704 1.18590 -0.03861
 C152 C 0.82575 1.15188 -0.00661
 C153 C 1.24175 0.81085 -0.03576
 C154 C 1.17335 0.84568 -0.00345
 C155 C 0.75838 0.85580 0.04935
 C156 C 0.82607 0.88852 0.02787
 C157 C 0.74008 0.51887 0.34422
 C158 C 0.67255 0.49527 0.37467
 C159 C 0.26155 0.48676 0.34338
 C160 C 0.32901 0.50922 0.37406
 C161 C 0.74079 0.44228 0.62901
 C162 C 0.67216 0.46947 0.59462
 C163 C 0.25912 0.55780 0.62749
 C164 C 0.32773 0.52996 0.59333
 C165 C 0.54438 0.69118 0.24539
 C166 C 0.51815 0.64057 0.30816
 C167 C 0.46080 0.67283 0.73742
 C168 C 0.48417 0.62960 0.66761
 C169 C 0.45614 0.31362 0.24420
 C170 C 0.48301 0.36391 0.30668
 C171 C 0.53721 0.32309 0.73580
 C172 C 0.51456 0.36733 0.66610
 C173 C 0.66793 0.75732 0.45208
 C174 C 0.61166 0.70148 0.47372
 C175 C 0.67027 0.20364 0.53117
 C176 C 0.61656 0.27353 0.50217
 C177 C 0.33114 0.79767 0.53209
 C178 C 0.38463 0.72754 0.50328
 C179 C 0.33304 0.24341 0.44740
 C180 C 0.38884 0.29951 0.47001
   
