data_POSCAR
  _audit_creation_date              2014-09-24
  _audit_creation_method            'ToBaCCo'
  _symmetry_space_group_name_H-M    'P1'
  _symmetry_Int_Tables_number       1
  _symmetry_cell_setting            triclinic
  loop_
  _symmetry_equiv_pos_as_xyz
 x,y,z
_cell_length_a 38.1076
_cell_length_b 37.9117
_cell_length_c 46.4444
_cell_angle_alpha 90.016700
_cell_angle_beta 90.155300
_cell_angle_gamma 119.450900
loop_
  _atom_site_label
  _atom_site_type_symbol
  _atom_site_fract_x
  _atom_site_fract_y
  _atom_site_fract_z
C1 C -0.00300 0.46664 1.32690
 C2 C 0.03162 0.49291 1.31122
 C3 C 0.02823 0.49366 1.28109
 C4 C -0.00730 0.46579 1.26646
 C5 C -0.04099 0.43883 1.28302
 C6 C -0.04013 0.44109 1.31331
 C7 C -0.00931 0.46608 1.23409
 C8 C -0.04646 0.45121 1.21935
 C9 C -0.04790 0.45272 1.18919
 C10 C -0.01187 0.47146 1.17358
 C11 C 0.02521 0.48636 1.18758
 C12 C 0.02627 0.48214 1.21748
 H13 H -0.00142 0.46690 1.35016
 H14 H 0.05399 0.51516 1.26899
 H15 H -0.06865 0.41775 1.27241
 H16 H -0.07458 0.43905 1.23091
 H17 H -0.01265 0.47302 1.15030
 H18 H 0.05527 0.49194 1.22746
 C19 C 0.51651 0.50627 1.31856
 C20 C 0.50188 0.52910 1.30434
 C21 C 0.50602 0.53291 1.27420
 C22 C 0.52094 0.51134 1.25821
 C23 C 0.53591 0.48919 1.27341
 C24 C 0.53443 0.48687 1.30370
 C25 C 0.51799 0.50950 1.22587
 C26 C 0.54378 0.50098 1.20885
 C27 C 0.53796 0.49519 1.17888
 C28 C 0.50765 0.50038 1.16570
 C29 C 0.48239 0.50959 1.18189
 C30 C 0.48726 0.51364 1.21179
 H31 H 0.51743 0.50704 1.34185
 H32 H 0.49562 0.55107 1.26306
 H33 H 0.54646 0.47157 1.26174
 H34 H 0.56777 0.49780 1.21876
 H35 H 0.50372 0.49746 1.14253
 H36 H 0.46578 0.51849 1.22386
 C37 C 0.52943 1.01509 1.33424
 C38 C 0.51896 0.97951 1.31886
 C39 C 0.51174 0.97816 1.28925
 C40 C 0.51252 1.01125 1.27487
 C41 C 0.52176 1.04631 1.29103
 C42 C 0.53144 1.04929 1.32062
 C43 C 0.50386 1.00927 1.24319
 C44 C 0.51905 1.04497 1.22653
 C45 C 0.51203 1.04313 1.19679
 C46 C 0.49085 1.00530 1.18329
 C47 C 0.47616 0.96937 1.19908
 C48 C 0.48154 0.97159 1.22904
 H49 H 0.53671 1.01583 1.35683
 H50 H 0.50592 0.95105 1.27771
 H51 H 0.51948 1.07072 1.28088
 H52 H 0.53780 1.07439 1.23615
 H53 H 0.48675 1.00390 1.16015
 H54 H 0.46809 0.94358 1.24103
 C55 C 1.01895 0.55401 0.67037
 C56 C 0.98271 0.54469 0.68397
 C57 C 0.98119 0.54478 0.71403
 C58 C 1.01442 0.55004 0.73073
 C59 C 1.04995 0.55687 0.71639
 C60 C 1.05328 0.56069 0.68617
 C61 C 1.01158 0.54709 0.76292
 C62 C 1.04643 0.56706 0.78025
 C63 C 1.04425 0.56181 0.81018
 C64 C 1.00677 0.53849 0.82329
 C65 C 0.97142 0.52031 0.80675
 C66 C 0.97405 0.52377 0.77667
 H67 H 1.01930 0.55351 0.64706
 H68 H 0.95343 0.53929 0.72411
 H69 H 1.07546 0.56035 0.72878
 H70 H 1.07558 0.58652 0.77076
 H71 H 1.00507 0.53564 0.84654
 H72 H 0.94661 0.50727 0.76430
 C73 C 0.47858 0.49096 0.68493
 C74 C 0.49616 0.47144 0.69979
 C75 C 0.49349 0.46883 0.72984
 C76 C 0.47118 0.48316 0.74528
 C77 C 0.45204 0.50101 0.72970
 C78 C 0.45654 0.50584 0.69970
 C79 C 0.46833 0.47941 0.77741
 C80 C 0.46312 0.50738 0.79445
 C81 C 0.46183 0.50455 0.82470
 C82 C 0.46722 0.47419 0.83783
 C83 C 0.47204 0.44607 0.82143
 C84 C 0.47199 0.44828 0.79141
 H85 H 0.48055 0.49308 0.66166
 H86 H 0.50946 0.45589 0.74094
 H87 H 0.43360 0.51123 0.74061
 H88 H 0.46021 0.53149 0.78434
 H89 H 0.46878 0.47284 0.86107
 H90 H 0.47471 0.42540 0.77926
 C91 C 0.47520 -0.00417 0.66603
 C92 C 0.49160 0.03075 0.68304
 C93 C 0.49621 0.02806 0.71270
 C94 C 0.48549 -0.00954 0.72567
 C95 C 0.46934 -0.04445 0.70799
 C96 C 0.46360 -0.04241 0.67809
 C97 C 0.49225 -0.01236 0.75728
 C98 C 0.46795 -0.04849 0.77267
 C99 C 0.47637 -0.05291 0.80162
 C100 C 0.50818 -0.01928 0.81547
 C101 C 0.52994 0.01829 0.80170
 C102 C 0.52305 0.02097 0.77229
 H103 H 0.47049 -0.00113 0.64337
 H104 H 0.50770 0.05546 0.72540
 H105 H 0.46351 -0.07298 0.71721
 H106 H 0.44327 -0.07375 0.76182
 H107 H 0.51440 -0.02128 0.83796
 H108 H 0.54136 0.04937 0.76140
 O109 O 0.38965 0.66476 0.98738
 O110 O 0.39294 0.73539 0.98497
 C111 C 0.37253 0.74021 0.96531
 O112 O 0.33435 0.72305 0.96605
 O113 O 0.26360 0.65938 0.97432
 C114 C 0.25706 0.62470 0.96622
 O115 O 0.27259 0.60576 0.97851
 O116 O 0.33639 0.60505 0.99844
 C117 C 0.36968 0.62634 0.98563
 O118 O 0.38186 0.66494 1.04510
 O119 O 0.38068 0.73297 1.04205
 C120 C 0.36201 0.75291 1.04025
 O121 O 0.33510 0.74560 1.02134
 O122 O 0.26547 0.68047 1.02991
 C123 C 0.24669 0.64471 1.03993
 O124 O 0.25382 0.61673 1.03227
 O125 O 0.31807 0.61735 1.05183
 C126 C 0.35457 0.63663 1.05975
 Cr127 Cr 0.38405 0.69845 1.01463
 Cr128 Cr 0.30066 0.70089 0.99832
 Cr129 Cr 0.29642 0.61357 1.01497
 O130 O 0.32695 0.67087 1.00928
 O131 O 0.60518 0.30941 0.95441
 O132 O 0.61044 0.24586 0.97057
 C133 C 0.63625 0.23931 0.95798
 O134 O 0.67404 0.26222 0.96099
 O135 O 0.73960 0.33283 0.96865
 C136 C 0.74470 0.36159 0.95221
 O137 O 0.72274 0.37808 0.95350
 O138 O 0.65287 0.37451 0.95823
 C139 C 0.62276 0.34579 0.94556
 O140 O 0.60286 0.32825 1.00963
 O141 O 0.61112 0.26635 1.02593
 C142 C 0.63095 0.24830 1.03131
 O143 O 0.66284 0.25591 1.01793
 O144 O 0.72583 0.32827 1.02531
 C145 C 0.74201 0.36658 1.02758
 O146 O 0.73348 0.38792 1.01091
 O147 O 0.66276 0.38299 1.01623
 C148 C 0.62531 0.36227 1.02141
 Cr149 Cr 0.60965 0.28883 0.99008
 Cr150 Cr 0.69937 0.29590 0.99309
 Cr151 Cr 0.69190 0.37862 0.98492
 O152 O 0.66698 0.32123 0.98929
 O153 O 0.66510 0.41133 0.52921
 O154 O 0.73280 0.40895 0.53510
 C155 C 0.75292 0.39058 0.53842
 O156 O 0.74414 0.35757 0.52551
 O157 O 0.67932 0.29265 0.54262
 C158 C 0.64363 0.27572 0.55230
 O159 O 0.61613 0.28118 0.54127
 O160 O 0.62092 0.35196 0.54763
 C161 C 0.63866 0.39030 0.54772
 O162 O 0.66570 0.39857 0.47245
 O163 O 0.73601 0.40184 0.47835
 C164 C 0.74140 0.37573 0.46506
 O165 O 0.72063 0.33817 0.47027
 O166 O 0.65594 0.27193 0.48760
 C167 C 0.62139 0.26374 0.47820
 O168 O 0.60407 0.28391 0.48458
 O169 O 0.60615 0.35353 0.49087
 C170 C 0.62738 0.38030 0.47234
 Cr171 Cr 0.69875 0.40300 0.50390
 Cr172 Cr 0.69884 0.31614 0.50654
 Cr173 Cr 0.61398 0.31871 0.51581
 O174 O 0.67045 0.34571 0.50866
 O175 O 0.35440 0.61762 0.53062
 O176 O 0.28874 0.62352 0.53322
 C177 C 0.26957 0.64281 0.53038
 O178 O 0.27536 0.66625 0.50935
 O179 O 0.34374 0.73391 0.50796
 C180 C 0.38137 0.75274 0.51317
 O181 O 0.40596 0.74197 0.50357
 O182 O 0.40748 0.67896 0.52491
 C183 C 0.38861 0.64587 0.53846
 O184 O 0.33895 0.59510 0.47510
 O185 O 0.27163 0.59786 0.47814
 C186 C 0.26346 0.61505 0.45774
 O187 O 0.28289 0.65310 0.45376
 O188 O 0.34887 0.72324 0.45119
 C189 C 0.38017 0.72640 0.43949
 O190 O 0.40044 0.71149 0.45021
 O191 O 0.40112 0.64865 0.47113
 C192 C 0.37449 0.61255 0.46491
 Cr193 Cr 0.31472 0.61082 0.50373
 Cr194 Cr 0.31403 0.69310 0.48096
 Cr195 Cr 0.40130 0.69402 0.48766
 O196 O 0.34357 0.66602 0.49076
 C197 C 0.46188 0.52898 0.34581
 C198 C 0.44646 0.54815 0.36340
 C199 C 0.45333 0.58718 0.35616
 C200 C 0.47358 0.60531 0.33052
 C201 C 0.48815 0.58560 0.31270
 C202 C 0.48385 0.54773 0.32056
 C203 C 0.44018 0.60749 0.37479
 C204 C 0.41949 0.58877 0.40023
 C205 C 0.41071 0.54878 0.40660
 C206 C 0.42456 0.52888 0.38828
 C207 C 0.38850 0.52949 0.43136
 C208 C 0.37573 0.54987 0.45000
 C209 C 0.38586 0.59014 0.44452
 C210 C 0.40754 0.60939 0.41951
 H211 H 0.45598 0.49888 0.35166
 H212 H 0.47874 0.63509 0.32447
 H213 H 0.50499 0.60142 0.29375
 H214 H 0.44623 0.63786 0.36959
 H215 H 0.41863 0.49856 0.39353
 H216 H 0.38118 0.49871 0.43639
 H217 H 0.35892 0.53461 0.46913
 H218 H 0.41481 0.64032 0.41500
 C219 C 0.47612 0.90662 0.33134
 C220 C 0.46709 0.87344 0.34921
 C221 C 0.49586 0.87591 0.36960
 C222 C 0.53351 0.91125 0.37127
 C223 C 0.54174 0.94462 0.35401
 C224 C 0.51287 0.94279 0.33431
 C225 C 0.48579 0.84394 0.38895
 C226 C 0.44666 0.81053 0.38912
 C227 C 0.41808 0.80792 0.36848
 C228 C 0.42884 0.83888 0.34818
 C229 C 0.37845 0.77560 0.36957
 C230 C 0.36652 0.74764 0.39204
 C231 C 0.39438 0.75066 0.41306
 C232 C 0.43481 0.78116 0.41086
 H233 H 0.45355 0.90527 0.31641
 H234 H 0.55595 0.91366 0.38672
 H235 H 0.57034 0.97222 0.35643
 H236 H 0.50761 0.84614 0.40491
 H237 H 0.40669 0.83715 0.33267
 H238 H 0.35619 0.77316 0.35395
 H239 H 0.33520 0.72432 0.39354
 H240 H 0.45616 0.78397 0.42742
 C241 C 0.07838 0.50445 0.35123
 C242 C 0.11426 0.52893 0.36620
 C243 C 0.14127 0.56816 0.35606
 C244 C 0.13229 0.58167 0.33044
 C245 C 0.09667 0.55680 0.31528
 C246 C 0.06863 0.51799 0.32570
 C247 C 0.17663 0.59312 0.37174
 C248 C 0.18538 0.57892 0.39724
 C249 C 0.15870 0.53905 0.40669
 C250 C 0.12338 0.51447 0.39123
 C251 C 0.16748 0.52432 0.43168
 C252 C 0.20199 0.54895 0.44760
 C253 C 0.22848 0.58908 0.43907
 C254 C 0.22010 0.60385 0.41362
 H255 H 0.05879 0.47407 0.35912
 H256 H 0.15265 0.61165 0.32223
 H257 H 0.09044 0.56915 0.29619
 H258 H 0.19715 0.62348 0.36418
 H259 H 0.10280 0.48412 0.39882
 H260 H 0.14742 0.49379 0.43910
 H261 H 0.20742 0.53664 0.46707
 H262 H 0.24032 0.63461 0.40670
 C263 C 0.53546 0.44945 0.34652
 C264 C 0.55570 0.43603 0.36474
 C265 C 0.59225 0.43858 0.35587
 C266 C 0.60668 0.45265 0.32806
 C267 C 0.58635 0.46632 0.30994
 C268 C 0.55142 0.46679 0.31948
 C269 C 0.61394 0.42777 0.37517
 C270 C 0.59927 0.41451 0.40316
 C271 C 0.56180 0.41069 0.41135
 C272 C 0.54030 0.42133 0.39212
 C273 C 0.54646 0.39678 0.43887
 C274 C 0.56807 0.38695 0.45835
 C275 C 0.60569 0.39125 0.45090
 C276 C 0.62129 0.40513 0.42319
 H277 H 0.50713 0.44656 0.35373
 H278 H 0.63443 0.45437 0.32067
 H279 H 0.59987 0.47924 0.28939
 H280 H 0.64238 0.43031 0.36861
 H281 H 0.51197 0.41904 0.39874
 H282 H 0.51777 0.39362 0.44539
 H283 H 0.55548 0.37644 0.47956
 H284 H 0.65009 0.40810 0.41719
 C285 C 0.53698 0.08517 0.36619
 C286 C 0.55167 0.12119 0.38202
 C287 C 0.57284 0.15890 0.36792
 C288 C 0.57786 0.15986 0.33804
 C289 C 0.56326 0.12386 0.32236
 C290 C 0.54335 0.08576 0.33619
 C291 C 0.58923 0.19494 0.38397
 C292 C 0.58491 0.19360 0.41401
 C293 C 0.56279 0.15575 0.42800
 C294 C 0.54611 0.11987 0.41189
 C295 C 0.55856 0.15430 0.45800
 C296 C 0.57700 0.18994 0.47414
 C297 C 0.59956 0.22741 0.46050
 C298 C 0.60315 0.22937 0.43045
 H299 H 0.51989 0.05675 0.37747
 H300 H 0.59399 0.18852 0.32683
 H301 H 0.56988 0.12638 0.29957
 H302 H 0.60597 0.22390 0.37319
 H303 H 0.52965 0.09089 0.42271
 H304 H 0.54169 0.12559 0.46903
 H305 H 0.57430 0.18828 0.49739
 H306 H 0.62090 0.25848 0.42007
 C307 C 0.92019 0.43947 0.35506
 C308 C 0.88492 0.42161 0.37137
 C309 C 0.85242 0.38365 0.36334
 C310 C 0.85583 0.36469 0.33835
 C311 C 0.89098 0.38331 0.32159
 C312 C 0.92410 0.42084 0.32993
 C313 C 0.81714 0.36585 0.38025
 C314 C 0.81395 0.38639 0.40456
 C315 C 0.84655 0.42505 0.41167
 C316 C 0.88174 0.44203 0.39534
 C317 C 0.84370 0.44658 0.43503
 C318 C 0.80897 0.43020 0.45150
 C319 C 0.77630 0.39159 0.44534
 C320 C 0.77895 0.36946 0.42185
 H321 H 0.94377 0.46939 0.36130
 H322 H 0.83123 0.33559 0.33165
 H323 H 0.89254 0.36741 0.30271
 H324 H 0.79221 0.33650 0.37433
 H325 H 0.90665 0.47150 0.40119
 H326 H 0.86842 0.47621 0.44064
 H327 H 0.80816 0.44768 0.46969
 H328 H 0.75396 0.33969 0.41694
 C329 C 0.54169 0.45217 1.13960
 C330 C 0.56315 0.44082 1.12088
 C331 C 0.60537 0.45841 1.12368
 C332 C 0.62525 0.48704 1.14564
 C333 C 0.60353 0.49859 1.16414
 C334 C 0.56159 0.48168 1.16099
 C335 C 0.62675 0.44718 1.10441
 C336 C 0.60622 0.41866 1.08241
 C337 C 0.56386 0.40130 1.08000
 C338 C 0.54274 0.41239 1.09918
 C339 C 0.54296 0.37290 1.05842
 C340 C 0.56347 0.36116 1.03947
 C341 C 0.60551 0.37758 1.04145
 C342 C 0.62695 0.40684 1.06288
 H343 H 0.50923 0.43809 1.13735
 H344 H 0.65761 0.50089 1.14826
 H345 H 0.61964 0.52146 1.18039
 H346 H 0.65918 0.46062 1.10648
 H347 H 0.51029 0.39897 1.09711
 H348 H 0.51056 0.35950 1.05628
 H349 H 0.54614 0.33893 1.02310
 H350 H 0.65931 0.41964 1.06471
 C351 C 0.90681 0.45326 1.15044
 C352 C 0.87306 0.43280 1.13252
 C353 C 0.84492 0.39165 1.13778
 C354 C 0.85027 0.37224 1.16175
 C355 C 0.88416 0.39286 1.17947
 C356 C 0.91320 0.43315 1.17349
 C357 C 0.81264 0.37042 1.11859
 C358 C 0.80833 0.38988 1.09419
 C359 C 0.83584 0.43147 1.08968
 C360 C 0.86789 0.45261 1.10885
 C361 C 0.83137 0.45123 1.06572
 C362 C 0.80045 0.42997 1.04601
 C363 C 0.77343 0.38837 1.04967
 C364 C 0.77738 0.36847 1.07400
 H365 H 0.92889 0.48451 1.14593
 H366 H 0.82893 0.34080 1.16627
 H367 H 0.88866 0.37675 1.19707
 H368 H 0.79145 0.33866 1.12231
 H369 H 0.88933 0.48428 1.10498
 H370 H 0.85210 0.48309 1.06203
 H371 H 0.79823 0.44609 1.02747
 H372 H 0.75653 0.33651 1.07717
 C373 C 0.54786 0.08229 1.15319
 C374 C 0.56050 0.11557 1.13487
 C375 C 0.55423 0.14811 1.14258
 C376 C 0.53592 0.14686 1.16906
 C377 C 0.52316 0.11327 1.18725
 C378 C 0.52843 0.08044 1.17917
 C379 C 0.56610 0.18098 1.12359
 C380 C 0.58429 0.18155 1.09713
 C381 C 0.59083 0.14890 1.08996
 C382 C 0.57887 0.11627 1.10876
 C383 C 0.60935 0.14919 1.06402
 C384 C 0.62185 0.18168 1.04532
 C385 C 0.61578 0.21447 1.05194
 C386 C 0.59642 0.21414 1.07776
 H387 H 0.55278 0.05745 1.14707
 H388 H 0.53094 0.17152 1.17549
 H389 H 0.50816 0.11238 1.20723
 H390 H 0.56117 0.20593 1.12935
 H391 H 0.58375 0.09127 1.10300
 H392 H 0.61443 0.12436 1.05823
 H393 H 0.63619 0.18103 1.02536
 H394 H 0.59176 0.23940 1.08299
 C395 C 0.45095 0.55179 1.16883
 C396 C 0.42513 0.55904 1.15120
 C397 C 0.39776 0.52821 1.13251
 C398 C 0.39618 0.49048 1.13215
 C399 C 0.42290 0.48403 1.14902
 C400 C 0.45082 0.51477 1.16710
 C401 C 0.37391 0.53621 1.11343
 C402 C 0.37852 0.57521 1.11175
 C403 C 0.40561 0.60593 1.13065
 C404 C 0.42794 0.59735 1.15075
 C405 C 0.41170 0.64540 1.12798
 C406 C 0.39322 0.65494 1.10564
 C407 C 0.36715 0.62489 1.08635
 C408 C 0.35863 0.58473 1.09016
 H409 H 0.47282 0.57570 1.18254
 H410 H 0.37543 0.46652 1.11799
 H411 H 0.42242 0.45528 1.14753
 H412 H 0.35343 0.51273 1.09879
 H413 H 0.44913 0.62110 1.16490
 H414 H 0.43236 0.66931 1.14222
 H415 H 0.40025 0.68611 1.10281
 H416 H 0.33917 0.56170 1.07487
 C417 C 0.07064 0.53806 1.15201
 C418 C 0.10582 0.55597 1.13532
 C419 C 0.13321 0.54099 1.13714
 C420 C 0.12565 0.50937 1.15622
 C421 C 0.09085 0.49213 1.17300
 C422 C 0.06289 0.50591 1.17074
 C423 C 0.16739 0.55737 1.11958
 C424 C 0.17465 0.58859 1.10024
 C425 C 0.14824 0.60474 1.09907
 C426 C 0.11386 0.58824 1.11663
 C427 C 0.15636 0.63654 1.07990
 C428 C 0.18951 0.65112 1.06132
 C429 C 0.21465 0.63378 1.06152
 C430 C 0.20751 0.60319 1.08153
 H431 H 0.04924 0.54903 1.15049
 H432 H 0.14646 0.49772 1.15794
 H433 H 0.08526 0.46736 1.18731
 H434 H 0.18799 0.54535 1.12061
 H435 H 0.09311 0.60005 1.11544
 H436 H 0.13663 0.64952 1.07886
 H437 H 0.19456 0.67475 1.04607
 H438 H 0.22720 0.59009 1.08212
 C439 C 0.43304 0.92297 1.15969
 C440 C 0.42142 0.88888 1.14217
 C441 C 0.43407 0.86054 1.14909
 C442 C 0.45723 0.86631 1.17397
 C443 C 0.46931 0.90079 1.19105
 C444 C 0.45813 0.92991 1.18370
 C445 C 0.42427 0.82758 1.13065
 C446 C 0.40240 0.82297 1.10521
 C447 C 0.38919 0.85103 1.09870
 C448 C 0.39855 0.88359 1.11727
 C449 C 0.36724 0.84646 1.07346
 C450 C 0.35862 0.81459 1.05463
 C451 C 0.37191 0.78666 1.06056
 C452 C 0.39379 0.79100 1.08602
 H453 H 0.42365 0.94485 1.15408
 H454 H 0.46712 0.84487 1.17970
 H455 H 0.48893 0.90557 1.20929
 H456 H 0.43433 0.80606 1.13578
 H457 H 0.38879 0.90532 1.11201
 H458 H 0.35687 0.86767 1.06818
 H459 H 0.34172 0.81205 1.03522
 H460 H 0.40389 0.76948 1.09096
 C461 C 0.54312 0.47258 0.66180
 C462 C 0.55914 0.45291 0.64528
 C463 C 0.54698 0.41173 0.65059
 C464 C 0.52004 0.39137 0.67304
 C465 C 0.50451 0.41129 0.68957
 C466 C 0.51541 0.45177 0.68378
 C467 C 0.56139 0.39146 0.63308
 C468 C 0.58791 0.41190 0.61039
 C469 C 0.60106 0.45346 0.60581
 C470 C 0.58659 0.47366 0.62323
 C471 C 0.62799 0.47410 0.58351
 C472 C 0.64096 0.45360 0.56533
 C473 C 0.62711 0.41193 0.56893
 C474 C 0.60094 0.39135 0.59186
 H475 H 0.55191 0.50395 0.65746
 H476 H 0.51052 0.35989 0.67754
 H477 H 0.48298 0.39468 0.70636
 H478 H 0.55152 0.35970 0.63684
 H479 H 0.59623 0.50534 0.61933
 H480 H 0.63856 0.50598 0.57981
 H481 H 0.66115 0.47035 0.54791
 H482 H 0.59023 0.35932 0.59500
 C483 C 0.54571 0.09672 0.66432
 C484 C 0.55797 0.13064 0.64643
 C485 C 0.52862 0.13852 0.63392
 C486 C 0.48769 0.11289 0.63995
 C487 C 0.47575 0.07864 0.65711
 C488 C 0.50458 0.07012 0.66906
 C489 C 0.54044 0.17082 0.61462
 C490 C 0.58108 0.19460 0.60696
 C491 C 0.61053 0.18719 0.61975
 C492 C 0.59885 0.15560 0.63974
 C493 C 0.65100 0.21068 0.61160
 C494 C 0.66201 0.24021 0.59022
 C495 C 0.63281 0.24711 0.57678
 C496 C 0.59245 0.22468 0.58584
 H497 H 0.56787 0.08965 0.67321
 H498 H 0.46484 0.11847 0.63052
 H499 H 0.44393 0.05807 0.66042
 H500 H 0.51785 0.17646 0.60475
 H501 H 0.62137 0.14953 0.64924
 H502 H 0.67401 0.20552 0.62124
 H503 H 0.69332 0.25712 0.58382
 H504 H 0.56951 0.22957 0.57575
 C505 C 0.93695 0.50026 0.64555
 C506 C 0.90210 0.48524 0.62871
 C507 C 0.87496 0.50014 0.63260
 C508 C 0.88335 0.52984 0.65373
 C509 C 0.91832 0.54456 0.67068
 C510 C 0.94554 0.53011 0.66647
 C511 C 0.84002 0.48490 0.61540
 C512 C 0.83197 0.45476 0.59464
 C513 C 0.85930 0.43990 0.59124
 C514 C 0.89411 0.45530 0.60815
 C515 C 0.85150 0.40967 0.57099
 C516 C 0.81687 0.39397 0.55416
 C517 C 0.78925 0.40826 0.55701
 C518 C 0.79708 0.43897 0.57727
 H519 H 0.95732 0.48823 0.64265
 H520 H 0.86291 0.54160 0.65717
 H521 H 0.92435 0.56750 0.68681
 H522 H 0.81914 0.49630 0.61824
 H523 H 0.91498 0.44385 0.60536
 H524 H 0.87221 0.39807 0.56818
 H525 H 0.81196 0.37066 0.53862
 H526 H 0.77600 0.45017 0.57971
 C527 C 0.46032 0.55767 0.66484
 C528 C 0.44170 0.57276 0.64628
 C529 C 0.39919 0.55449 0.64582
 C530 C 0.37624 0.52289 0.66504
 C531 C 0.39511 0.50834 0.68366
 C532 C 0.43711 0.52491 0.68315
 C533 C 0.38033 0.56728 0.62561
 C534 C 0.40346 0.59810 0.60589
 C535 C 0.44600 0.61777 0.60741
 C536 C 0.46485 0.60497 0.62759
 C537 C 0.46902 0.64914 0.58811
 C538 C 0.45017 0.65969 0.56660
 C539 C 0.40798 0.63883 0.56383
 C540 C 0.38476 0.60868 0.58406
 H541 H 0.49281 0.57066 0.66457
 H542 H 0.34367 0.50876 0.66515
 H543 H 0.37682 0.48299 0.69761
 H544 H 0.34770 0.55253 0.62472
 H545 H 0.49747 0.61934 0.62821
 H546 H 0.50164 0.66478 0.58915
 H547 H 0.46874 0.68299 0.55133
 H548 H 0.35216 0.59268 0.58233
 C549 C 0.45712 0.92448 0.63113
 C550 C 0.43926 0.89010 0.61336
 C551 C 0.40970 0.85264 0.62468
 C552 C 0.39951 0.84999 0.65387
 C553 C 0.41799 0.88420 0.67163
 C554 C 0.44657 0.92230 0.66051
 C555 C 0.39103 0.81845 0.60670
 C556 C 0.40247 0.82107 0.57772
 C557 C 0.43309 0.85834 0.56668
 C558 C 0.45087 0.89268 0.58445
 C559 C 0.44583 0.86052 0.53811
 C560 C 0.42874 0.82601 0.52069
 C561 C 0.39785 0.78919 0.53127
 C562 C 0.38446 0.78685 0.55970
 H563 H 0.48042 0.95260 0.62208
 H564 H 0.37700 0.82146 0.66296
 H565 H 0.40811 0.88090 0.69377
 H566 H 0.36803 0.78976 0.61533
 H567 H 0.47402 0.92133 0.57586
 H568 H 0.46944 0.88875 0.52939
 H569 H 0.43947 0.82804 0.49884
 H570 H 0.36105 0.75812 0.56798
 C571 C 0.09898 0.59205 0.64553
 C572 C 0.13285 0.59941 0.62946
 C573 C 0.15858 0.58492 0.63906
 C574 C 0.15050 0.56453 0.66552
 C575 C 0.11663 0.55757 0.68173
 C576 C 0.08954 0.57014 0.67152
 C577 C 0.19155 0.59088 0.62191
 C578 C 0.19896 0.61145 0.59543
 C579 C 0.17352 0.62693 0.58670
 C580 C 0.14084 0.62081 0.60365
 C581 C 0.18063 0.64799 0.56085
 C582 C 0.21222 0.65330 0.54331
 C583 C 0.23760 0.63752 0.55098
 C584 C 0.23094 0.61668 0.57733
 H585 H 0.08038 0.60443 0.63786
 H586 H 0.16996 0.55335 0.67346
 H587 H 0.11070 0.54026 0.70138
 H588 H 0.21108 0.57928 0.62900
 H589 H 0.12119 0.63228 0.59652
 H590 H 0.16145 0.66010 0.55399
 H591 H 0.21620 0.66939 0.52325
 H592 H 0.25029 0.60451 0.58361
 C593 C 0.43273 0.51819 0.86869
 C594 C 0.42757 0.54415 0.88736
 C595 C 0.44286 0.58526 0.87999
 C596 C 0.46399 0.59973 0.85404
 C597 C 0.47013 0.57374 0.83583
 C598 C 0.45466 0.53266 0.84303
 C599 C 0.43660 0.61090 0.89866
 C600 C 0.41555 0.59576 0.92464
 C601 C 0.40145 0.55473 0.93207
 C602 C 0.40738 0.52930 0.91339
 C603 C 0.38082 0.53932 0.95787
 C604 C 0.37247 0.56364 0.97571
 C605 C 0.38466 0.60396 0.96822
 C606 C 0.40729 0.62037 0.94300
 H607 H 0.41947 0.48644 0.87427
 H608 H 0.47618 0.63120 0.84801
 H609 H 0.48760 0.58604 0.81643
 H610 H 0.44774 0.64234 0.89289
 H611 H 0.39604 0.49777 0.91908
 H612 H 0.37024 0.50809 0.96395
 H613 H 0.35546 0.55048 0.99521
 H614 H 0.41669 0.65140 0.93704
 C615 C 0.09051 0.55655 0.84577
 C616 C 0.12450 0.57438 0.86379
 C617 C 0.14898 0.61702 0.86432
 C618 C 0.13997 0.64093 0.84600
 C619 C 0.10640 0.62284 0.82781
 C620 C 0.08113 0.58071 0.82798
 C621 C 0.18157 0.63510 0.88353
 C622 C 0.19003 0.61109 0.90215
 C623 C 0.16666 0.56841 0.90075
 C624 C 0.13398 0.55030 0.88158
 C625 C 0.17579 0.54460 0.91909
 C626 C 0.20664 0.56292 0.93952
 C627 C 0.22864 0.60530 0.94205
 C628 C 0.22079 0.62919 0.92276
 H629 H 0.07118 0.52393 0.84564
 H630 H 0.15857 0.67361 0.84600
 H631 H 0.09950 0.64178 0.81413
 H632 H 0.19982 0.66785 0.88440
 H633 H 0.11549 0.51757 0.88091
 H634 H 0.15840 0.51184 0.91815
 H635 H 0.21213 0.54390 0.95415
 H636 H 0.23793 0.66195 0.92430
 C637 C 0.47052 0.89940 0.83956
 C638 C 0.44712 0.86678 0.85774
 C639 C 0.40497 0.84421 0.85390
 C640 C 0.38735 0.85357 0.83068
 C641 C 0.41100 0.88616 0.81239
 C642 C 0.45282 0.91073 0.81728
 C643 C 0.38134 0.81334 0.87363
 C644 C 0.39965 0.80493 0.89705
 C645 C 0.44213 0.82668 0.89982
 C646 C 0.46547 0.85723 0.88021
 C647 C 0.46087 0.81830 0.92258
 C648 C 0.43792 0.78953 0.94310
 C649 C 0.39550 0.76839 0.94153
 C650 C 0.37646 0.77582 0.91806
 H651 H 0.50287 0.91587 0.84282
 H652 H 0.35509 0.83639 0.82712
 H653 H 0.39578 0.89356 0.79574
 H654 H 0.34886 0.79650 0.87109
 H655 H 0.49795 0.87431 0.88287
 H656 H 0.49340 0.83452 0.92483
 H657 H 0.45371 0.78453 0.96065
 H658 H 0.34387 0.75964 0.91640
 C659 C 0.51848 0.42006 0.83430
 C660 C 0.52950 0.39794 0.85288
 C661 C 0.50113 0.37046 0.87274
 C662 C 0.46197 0.36505 0.87324
 C663 C 0.45179 0.38840 0.85546
 C664 C 0.48014 0.41641 0.83625
 C665 C 0.51299 0.35062 0.89282
 C666 C 0.55332 0.35953 0.89425
 C667 C 0.58154 0.38679 0.87419
 C668 C 0.56919 0.40494 0.85317
 C669 C 0.62217 0.39721 0.87644
 C670 C 0.63519 0.38259 0.89927
 C671 C 0.60762 0.35623 0.91962
 C672 C 0.56647 0.34361 0.91649
 H673 H 0.54056 0.44227 0.81981
 H674 H 0.43986 0.34422 0.88833
 H675 H 0.42218 0.38558 0.85728
 H676 H 0.49139 0.33004 0.90832
 H677 H 0.59101 0.42628 0.83811
 H678 H 0.64417 0.41806 0.86129
 H679 H 0.66703 0.39250 0.90140
 H680 H 0.54526 0.32370 0.93245
 C681 C 0.92525 0.47024 0.84280
 C682 C 0.88918 0.45228 0.85841
 C683 C 0.85911 0.46287 0.85250
 C684 C 0.86520 0.49027 0.83021
 C685 C 0.90119 0.50784 0.81459
 C686 C 0.93176 0.49856 0.82115
 C687 C 0.82389 0.44642 0.86927
 C688 C 0.81840 0.41938 0.89175
 C689 C 0.84809 0.40794 0.89681
 C690 C 0.88319 0.42446 0.88021
 C691 C 0.84263 0.38053 0.91873
 C692 C 0.80854 0.36511 0.93601
 C693 C 0.77912 0.37690 0.93197
 C694 C 0.78408 0.40393 0.90953
 H695 H 0.94858 0.46264 0.84772
 H696 H 0.84247 0.49863 0.82521
 H697 H 0.90576 0.52976 0.79800
 H698 H 0.80110 0.45503 0.86507
 H699 H 0.90613 0.41608 0.88453
 H700 H 0.86500 0.37133 0.92278
 H701 H 0.80577 0.34447 0.95310
 H702 H 0.76157 0.41310 0.90606
 C703 C 0.54523 0.05870 0.84715
 C704 C 0.56888 0.09293 0.86398
 C705 C 0.60448 0.12531 0.85263
 C706 C 0.61627 0.12197 0.82456
 C707 C 0.59271 0.08713 0.80795
 C708 C 0.55679 0.05509 0.81906
 C709 C 0.62707 0.16045 0.86942
 C710 C 0.61418 0.16327 0.89733
 C711 C 0.57897 0.12993 0.90859
 C712 C 0.55675 0.09519 0.89194
 C713 C 0.56566 0.13199 0.93619
 C714 C 0.58580 0.16736 0.95220
 C715 C 0.61988 0.20144 0.94114
 C716 C 0.63487 0.19902 0.91395
 H717 H 0.51703 0.03518 0.85587
 H718 H 0.64358 0.14631 0.81541
 H719 H 0.60270 0.08526 0.78650
 H720 H 0.65407 0.18569 0.86062
 H721 H 0.52950 0.07006 0.90063
 H722 H 0.53900 0.10654 0.94515
 H723 H 0.57415 0.16838 0.97327
 H724 H 0.66113 0.22523 0.90532
   
