data_POSCAR
  _audit_creation_date              2014-09-24
  _audit_creation_method            'ToBaCCo'
  _symmetry_space_group_name_H-M    'P1'
  _symmetry_Int_Tables_number       1
  _symmetry_cell_setting            triclinic
  loop_
  _symmetry_equiv_pos_as_xyz
 x,y,z
_cell_length_a 27.2526
_cell_length_b 27.3274
_cell_length_c 27.3329
_cell_angle_alpha 89.979500
_cell_angle_beta 90.077600
_cell_angle_gamma 90.087100
loop_
  _atom_site_label
  _atom_site_type_symbol
  _atom_site_fract_x
  _atom_site_fract_y
  _atom_site_fract_z
O1 O 0.28109 1.04938 0.45400
 O2 O 0.28447 0.94926 0.54386
 O3 O 0.27644 0.95484 0.44900
 O4 O 0.28333 1.04531 0.54905
 O5 O 0.20277 1.04429 0.55455
 O6 O 0.19603 0.95333 0.45581
 O7 O 0.20361 0.94990 0.54955
 O8 O 0.20006 1.04876 0.45732
 Cu9 Cu 0.28940 0.99967 0.49880
 Cu10 Cu 0.19247 0.99974 0.50473
 C11 C 0.23993 1.06524 0.43947
 C12 C 0.24494 0.93210 0.56150
 C13 C 0.23486 0.93880 0.43496
 C14 C 0.24406 1.05951 0.56979
 O15 O 0.70012 -0.05047 0.45528
 O16 O 0.69753 0.04577 0.55001
 O17 O 0.69392 0.04425 0.45471
 O18 O 0.69335 -0.05016 0.54965
 O19 O 0.77392 -0.05030 0.55118
 O20 O 0.77444 0.04802 0.45839
 O21 O 0.77849 0.04507 0.55314
 O22 O 0.78118 -0.04731 0.45559
 Cu23 Cu 0.68821 -0.00271 0.50245
 Cu24 Cu 0.78507 -0.00113 0.50476
 C25 C 0.74138 -0.06492 0.43919
 C26 C 0.73774 0.06223 0.56724
 C27 C 0.73390 0.06325 0.44084
 C28 C 0.73309 -0.06799 0.56557
 O29 O 0.28520 0.45389 0.95193
 O30 O 0.28223 0.54508 1.05088
 O31 O 0.28113 0.44963 1.04810
 O32 O 0.27904 0.54881 0.95605
 O33 O 0.19853 0.54435 0.95294
 O34 O 0.20048 0.44683 1.04507
 O35 O 0.20121 0.54411 1.04815
 O36 O 0.20421 0.45065 0.95044
 Cu37 Cu 0.28996 0.49934 1.00199
 Cu38 Cu 0.19297 0.49619 0.99973
 C39 C 0.24559 0.43745 0.93371
 C40 C 0.24118 0.56126 1.06530
 C41 C 0.24077 0.43023 1.06131
 C42 C 0.23826 0.56370 0.93879
 O43 O 0.44884 0.28684 1.05227
 O44 O 0.54693 0.28913 0.95960
 O45 O 0.45186 0.29536 0.95694
 O46 O 0.54453 0.28292 1.05406
 O47 O 0.54252 0.20291 1.04654
 O48 O 0.44697 0.21478 0.95198
 O49 O 0.54204 0.20858 0.95285
 O50 O 0.44621 0.20622 1.04702
 Cu51 Cu 0.49821 0.29667 1.00656
 Cu52 Cu 0.49368 0.20001 0.99929
 C53 C 0.43057 0.24602 1.06503
 C54 C 0.56117 0.24912 0.94075
 C55 C 0.43401 0.25704 0.93762
 C56 C 0.56123 0.24100 1.06547
 O57 O 0.44880 0.71096 -0.04794
 O58 O 0.54153 0.71036 0.04964
 O59 O 0.44521 0.71231 0.04739
 O60 O 0.54364 0.71426 -0.04542
 O61 O 0.54297 0.79465 -0.04460
 O62 O 0.44596 0.79307 0.04823
 O63 O 0.54231 0.79128 0.04941
 O64 O 0.44770 0.79182 -0.04723
 Cu65 Cu 0.49469 0.70385 0.00110
 Cu66 Cu 0.49439 0.80078 0.00182
 C67 C 0.43308 0.75127 -0.06473
 C68 C 0.55858 0.75067 0.06515
 C69 C 0.42818 0.75272 0.06286
 C70 C 0.56101 0.75496 -0.06028
 O71 O 1.04257 0.45049 0.29126
 O72 O 0.94798 0.54729 0.29344
 O73 O 0.95062 0.44912 0.29878
 O74 O 1.04759 0.54168 0.29678
 O75 O 1.04150 0.54725 0.21661
 O76 O 0.94343 0.45426 0.21862
 O77 O 0.94646 0.54931 0.21268
 O78 O 1.03893 0.45157 0.21041
 Cu79 Cu 0.99592 0.49884 0.30284
 Cu80 Cu 0.99241 0.50067 0.20648
 C81 C 1.05646 0.43447 0.24990
 C82 C 0.93101 0.56451 0.25357
 C83 C 0.93014 0.43584 0.25933
 C84 C 1.06244 0.55931 0.25653
 O85 O -0.05761 0.45657 0.70832
 O86 O 0.04222 0.54730 0.70993
 O87 O 0.03739 0.45278 0.70432
 O88 O -0.05376 0.55117 0.71015
 O89 O -0.04977 0.55052 0.79063
 O90 O 0.03993 0.45074 0.78497
 O91 O 0.04460 0.54446 0.79081
 O92 O -0.05561 0.45407 0.78916
 Cu93 Cu -0.00826 0.50233 0.70004
 Cu94 Cu -0.00552 0.49941 0.79711
 C95 C -0.07344 0.43988 0.74865
 C96 C 0.06064 0.56083 0.75048
 C97 C 0.05514 0.43593 0.74371
 C98 C -0.06663 0.56859 0.75124
 O99 O 0.44434 0.95172 0.29006
 O100 O 0.54366 1.04324 0.29202
 O101 O 0.44922 1.04853 0.29225
 O102 O 0.54076 0.94950 0.28545
 O103 O 0.53761 0.95244 0.20490
 O104 O 0.44445 1.04927 0.21183
 O105 O 0.54037 1.04715 0.21122
 O106 O 0.44204 0.95477 0.20927
 Cu107 Cu 0.49415 0.99746 0.29812
 Cu108 Cu 0.49079 1.00119 0.20126
 C109 C 0.42630 0.93785 0.24952
 C110 C 0.55899 1.06045 0.25177
 C111 C 0.43166 1.06649 0.25305
 C112 C 0.55621 0.93544 0.24390
 O113 O 1.04523 0.28684 0.54897
 O114 O 0.94624 0.28819 0.45637
 O115 O 0.94859 0.29036 0.55167
 O116 O 1.04076 0.29317 0.45452
 O117 O 1.04465 0.21262 0.45575
 O118 O 0.94671 0.20961 0.54914
 O119 O 0.94937 0.20740 0.45361
 O120 O 1.04295 0.20598 0.55048
 Cu121 Cu 0.99497 0.29768 0.50350
 Cu122 Cu 0.99583 0.20079 0.50230
 C123 C 1.06119 0.24611 0.56496
 C124 C 0.93211 0.24769 0.43832
 C125 C 0.93053 0.24998 0.56569
 C126 C 1.05955 0.25366 0.43933
 O127 O -0.05730 0.70863 0.54598
 O128 O 0.04139 0.70806 0.45423
 O129 O 0.03857 0.70161 0.54870
 O130 O -0.05326 0.71066 0.45099
 O131 O -0.05076 0.79129 0.45573
 O132 O 0.04480 0.78206 0.55019
 O133 O 0.04399 0.78898 0.45631
 O134 O -0.05134 0.78909 0.55165
 Cu135 Cu -0.00824 0.69911 0.49995
 Cu136 Cu -0.00327 0.79603 0.50427
 C137 C -0.07122 0.74901 0.56425
 C138 C 0.05911 0.74847 0.43950
 C139 C 0.05904 0.74017 0.56450
 C140 C -0.06710 0.75239 0.43611
 O141 O 0.70619 0.45137 1.05185
 O142 O 0.70622 0.54682 0.95600
 O143 O 0.70061 0.45200 0.95760
 O144 O 0.70488 0.54674 1.05203
 O145 O 0.78571 0.54323 1.05335
 O146 O 0.78115 0.45419 0.95174
 O147 O 0.78730 0.54888 0.95774
 O148 O 0.78702 0.44785 1.04667
 Cu149 Cu 0.69641 0.49973 1.00472
 Cu150 Cu 0.79345 0.49849 1.00237
 C151 C 0.74686 0.43235 1.06432
 C152 C 0.74681 0.56388 0.94053
 C153 C 0.73980 0.43792 0.93722
 C154 C 0.74561 0.56000 1.07013
 O155 O 0.45088 1.05091 0.72414
 O156 O 0.54076 0.95103 0.71799
 O157 O 0.44552 0.95562 0.71521
 O158 O 0.54533 1.04557 0.72042
 O159 O 0.54490 1.04240 0.80120
 O160 O 0.44615 0.95004 0.79584
 O161 O 0.54174 0.94752 0.79885
 O162 O 0.44886 1.04451 0.80421
 Cu163 Cu 0.49547 1.00121 0.71134
 Cu164 Cu 0.49542 0.99572 0.80816
 C165 C 0.43360 1.06441 0.76523
 C166 C 0.55678 0.93272 0.75758
 C167 C 0.42876 0.93747 0.75450
 C168 C 0.56229 1.05919 0.76143
 C169 C 0.24332 0.21297 0.28759
 C170 C 0.20646 0.24919 0.28623
 C171 C 0.20473 0.28323 0.24717
 C172 C 0.24115 0.28201 0.21029
 C173 C 0.27899 0.24667 0.21272
 C174 C 0.28042 0.21244 0.25152
 C175 C 0.74637 0.79046 0.28522
 C176 C 0.78380 0.75480 0.28575
 C177 C 0.78370 0.71674 0.25100
 C178 C 0.74690 0.71505 0.21457
 C179 C 0.71134 0.75271 0.21195
 C180 C 0.71089 0.79016 0.24765
 C181 C 0.74356 0.21301 0.71584
 C182 C 0.77811 0.25152 0.71308
 C183 C 0.77720 0.28955 0.74821
 C184 C 0.74213 0.28851 0.78634
 C185 C 0.70920 0.24861 0.79019
 C186 C 0.70967 0.21121 0.75469
 C187 C 0.25051 0.77922 0.70785
 C188 C 0.28561 0.78167 0.74560
 C189 C 0.28587 0.74624 0.78314
 C190 C 0.24948 0.70945 0.78430
 C191 C 0.21486 0.70614 0.74565
 C192 C 0.21544 0.74122 0.70759
 C193 C 0.21704 0.24991 0.70900
 C194 C 0.25311 0.21284 0.71265
 C195 C 0.28922 0.21565 0.74984
 C196 C 0.28930 0.25530 0.78310
 C197 C 0.25237 0.29119 0.78051
 C198 C 0.21636 0.28851 0.74346
 C199 C 0.77877 0.74753 0.71387
 C200 C 0.74000 0.78185 0.71274
 C201 C 0.70502 0.78242 0.75109
 C202 C 0.70874 0.74857 0.79024
 C203 C 0.74615 0.71291 0.78991
 C204 C 0.78208 0.71342 0.75259
 C205 C 0.20627 0.74791 0.28759
 C206 C 0.23861 0.78853 0.28410
 C207 C 0.27415 0.79014 0.24630
 C208 C 0.27569 0.75250 0.21072
 C209 C 0.24184 0.71330 0.21307
 C210 C 0.20757 0.71074 0.25164
 C211 C 0.78364 0.24577 0.28680
 C212 C 0.74707 0.20919 0.28692
 C213 C 0.71324 0.20603 0.24753
 C214 C 0.71465 0.24131 0.20954
 C215 C 0.74951 0.27970 0.21118
 C216 C 0.78365 0.28214 0.25000
 C217 C 0.22464 0.08954 0.35155
 C218 C 0.23874 0.10198 0.39992
 C219 C 0.25405 0.14977 0.41033
 C220 C 0.25524 0.18529 0.37371
 C221 C 0.24150 0.17388 0.32560
 C222 C 0.22513 0.12597 0.31433
 C223 C 0.21078 0.04139 0.33915
 C224 C 0.19584 0.02981 0.29174
 C225 C 0.19442 0.06587 0.25583
 C226 C 0.20892 0.11355 0.26682
 H227 H 0.21174 0.01240 0.36588
 H228 H 0.18524 -0.00730 0.28280
 H229 H 0.18243 0.05676 0.21918
 H230 H 0.20731 0.14046 0.23781
 H231 H 0.26519 0.15964 0.44710
 H232 H 0.26704 0.22202 0.38292
 C233 C 0.72882 0.84790 0.41160
 C234 C 0.74291 0.89674 0.40144
 C235 C 0.75759 0.90968 0.35410
 C236 C 0.75801 0.87504 0.31671
 C237 C 0.74321 0.82675 0.32562
 C238 C 0.72741 0.81302 0.37306
 C239 C 0.71717 0.83268 0.45951
 C240 C 0.70250 0.78467 0.46887
 C241 C 0.69849 0.75123 0.43068
 C242 C 0.71049 0.76519 0.38310
 H243 H 0.72022 0.85752 0.49005
 H244 H 0.69409 0.77335 0.50588
 H245 H 0.68651 0.71417 0.43804
 H246 H 0.70697 0.73810 0.35443
 H247 H 0.76857 0.94695 0.34602
 H248 H 0.77009 0.88588 0.28055
 C249 C 0.71014 0.14576 0.59750
 C250 C 0.73755 0.10207 0.60388
 C251 C 0.76681 0.09653 0.64576
 C252 C 0.76844 0.13276 0.68155
 C253 C 0.74090 0.17559 0.67649
 C254 C 0.71094 0.18219 0.63467
 C255 C 0.68304 0.15486 0.55444
 C256 C 0.65552 0.19753 0.54921
 C257 C 0.65446 0.23196 0.58660
 C258 C 0.68183 0.22448 0.62898
 H259 H 0.68350 0.12963 0.52423
 H260 H 0.63480 0.20394 0.51609
 H261 H 0.63263 0.26478 0.58262
 H262 H 0.67972 0.25196 0.65733
 H263 H 0.78833 0.06363 0.65098
 H264 H 0.79122 0.12734 0.71361
 C265 C 0.27223 0.84697 0.58680
 C266 C 0.24696 0.89124 0.59677
 C267 C 0.22328 0.89722 0.64180
 C268 C 0.22519 0.86076 0.67730
 C269 C 0.25031 0.81701 0.66863
 C270 C 0.27433 0.80979 0.62331
 C271 C 0.29461 0.83829 0.54104
 C272 C 0.31986 0.79486 0.53220
 C273 C 0.32295 0.75912 0.56837
 C274 C 0.30046 0.76637 0.61356
 H275 H 0.29248 0.86456 0.51155
 H276 H 0.33704 0.78887 0.49703
 H277 H 0.34269 0.72553 0.56130
 H278 H 0.30394 0.73788 0.64081
 H279 H 0.20377 0.93078 0.64985
 H280 H 0.20679 0.86663 0.71191
 C281 C 0.34531 0.22055 0.09200
 C282 C 0.39046 0.24487 0.10117
 C283 C 0.39779 0.26876 0.14591
 C284 C 0.36165 0.26824 0.18182
 C285 C 0.31678 0.24472 0.17360
 C286 C 0.30826 0.22039 0.12863
 C287 C 0.33565 0.19716 0.04691
 C288 C 0.29100 0.17364 0.03848
 C289 C 0.25529 0.17257 0.07478
 C290 C 0.26380 0.19547 0.11953
 H291 H 0.36220 0.19690 0.01769
 H292 H 0.28419 0.15594 0.00369
 H293 H 0.22090 0.15379 0.06831
 H294 H 0.23564 0.19280 0.14721
 H295 H 0.43211 0.28742 0.15334
 H296 H 0.36848 0.28672 0.21624
 C297 C 0.40805 0.72704 0.84956
 C298 C 0.39763 0.75068 0.89455
 C299 C 0.35181 0.77263 0.90163
 C300 C 0.31583 0.77036 0.86551
 C301 C 0.32525 0.74738 0.82077
 C302 C 0.37165 0.72578 0.81221
 C303 C 0.45400 0.70492 0.84064
 C304 C 0.46314 0.68081 0.79668
 C305 C 0.42751 0.67957 0.76018
 C306 C 0.38228 0.70212 0.76753
 H307 H 0.48327 0.70599 0.86732
 H308 H 0.49825 0.66333 0.79080
 H309 H 0.43503 0.66118 0.72595
 H310 H 0.35555 0.70025 0.73826
 H311 H 0.34333 0.79053 0.93591
 H312 H 0.28027 0.78652 0.87251
 C313 C 0.64819 0.75920 0.08662
 C314 C 0.59899 0.75039 0.10082
 C315 C 0.58791 0.74190 0.14997
 C316 C 0.62474 0.74269 0.18526
 C317 C 0.67361 0.75240 0.17244
 C318 C 0.68565 0.76141 0.12282
 C319 C 0.66106 0.76532 0.03705
 C320 C 0.70939 0.77516 0.02352
 C321 C 0.74566 0.77948 0.05912
 C322 C 0.73405 0.77285 0.10834
 H323 H 0.63398 0.76196 0.00849
 H324 H 0.71871 0.77960 -0.01471
 H325 H 0.78304 0.78765 0.04854
 H326 H 0.76335 0.77647 0.13479
 H327 H 0.55041 0.73486 0.16112
 H328 H 0.61505 0.73571 0.22304
 C329 C 0.65027 0.24113 0.91730
 C330 C 0.60067 0.24946 0.90438
 C331 C 0.58781 0.25561 0.85535
 C332 C 0.62337 0.25503 0.81913
 C333 C 0.67276 0.24680 0.83067
 C334 C 0.68650 0.23848 0.87998
 C335 C 0.66460 0.23517 0.96649
 C336 C 0.71321 0.22478 0.97854
 C337 C 0.74833 0.22030 0.94187
 C338 C 0.73530 0.22719 0.89299
 H339 H 0.63839 0.23861 0.99584
 H340 H 0.72357 0.21991 1.01648
 H341 H 0.78590 0.21167 0.95135
 H342 H 0.76366 0.22357 0.86558
 H343 H 0.54996 0.26074 0.84488
 H344 H 0.61224 0.26153 0.78167
 C345 C 0.07908 0.34612 0.23617
 C346 C 0.09274 0.39473 0.24777
 C347 C 0.14187 0.40583 0.25760
 C348 C 0.17760 0.36950 0.25598
 C349 C 0.16506 0.32082 0.24561
 C350 C 0.11538 0.30873 0.23547
 C351 C 0.02987 0.33382 0.22575
 C352 C 0.01678 0.28595 0.21399
 C353 C 0.05222 0.24938 0.21313
 C354 C 0.10094 0.26039 0.22418
 H355 H 0.00127 0.36109 0.22645
 H356 H -0.02106 0.27723 0.20561
 H357 H 0.04190 0.21223 0.20398
 H358 H 0.12713 0.23074 0.22348
 H359 H 0.15267 0.44300 0.26635
 H360 H 0.21536 0.37924 0.26373
 C361 C 0.83927 0.41476 0.73059
 C362 C 0.88680 0.40347 0.74818
 C363 C 0.89722 0.35616 0.76465
 C364 C 0.86152 0.31973 0.76324
 C365 C 0.81413 0.32977 0.74614
 C366 C 0.80251 0.37769 0.72980
 C367 C 0.82723 0.46240 0.71458
 C368 C 0.78027 0.47306 0.69745
 C369 C 0.74436 0.43683 0.69656
 C370 C 0.75522 0.38967 0.71270
 H371 H 0.85380 0.49179 0.71537
 H372 H 0.77168 0.50968 0.68505
 H373 H 0.70785 0.44535 0.68351
 H374 H 0.72635 0.36273 0.71147
 H375 H 0.93354 0.34720 0.77810
 H376 H 0.87067 0.28340 0.77625
 C377 C 0.15091 0.58075 0.74602
 C378 C 0.10149 0.59590 0.75061
 C379 C 0.09038 0.64564 0.75374
 C380 C 0.12749 0.68054 0.75209
 C381 C 0.17669 0.66683 0.74586
 C382 C 0.18864 0.61651 0.74165
 C383 C 0.16368 0.53078 0.74591
 C384 C 0.21223 0.51628 0.73904
 C385 C 0.24868 0.55121 0.73166
 C386 C 0.23719 0.60088 0.73295
 H387 H 0.13631 0.50271 0.75154
 H388 H 0.22151 0.47777 0.73898
 H389 H 0.28614 0.53982 0.72530
 H390 H 0.26667 0.62682 0.72740
 H391 H 0.05266 0.65751 0.75774
 H392 H 0.11777 0.71874 0.75607
 C393 C 0.84471 0.59249 0.27282
 C394 C 0.89236 0.60225 0.25457
 C395 C 0.90329 0.64875 0.23593
 C396 C 0.86795 0.68560 0.23561
 C397 C 0.82094 0.67704 0.25438
 C398 C 0.80940 0.63072 0.27448
 C399 C 0.83077 0.54518 0.28801
 C400 C 0.78387 0.53637 0.30649
 C401 C 0.75058 0.57459 0.31133
 C402 C 0.76325 0.62148 0.29586
 H403 H 0.85562 0.51468 0.28463
 H404 H 0.77319 0.49984 0.31721
 H405 H 0.71459 0.56776 0.32659
 H406 H 0.73659 0.65036 0.30052
 H407 H 0.93943 0.65651 0.22137
 H408 H 0.87715 0.72100 0.22028
 C409 C 0.15152 0.25328 0.58448
 C410 C 0.10250 0.24535 0.59977
 C411 C 0.09255 0.23677 0.64917
 C412 C 0.13019 0.23739 0.68367
 C413 C 0.17871 0.24773 0.66995
 C414 C 0.18970 0.25608 0.61995
 C415 C 0.16353 0.25775 0.53454
 C416 C 0.21168 0.26690 0.51990
 C417 C 0.24853 0.27243 0.55474
 C418 C 0.23777 0.26729 0.60432
 H419 H 0.13596 0.25340 0.50654
 H420 H 0.22042 0.26991 0.48139
 H421 H 0.28573 0.28022 0.54327
 H422 H 0.26752 0.27169 0.63017
 H423 H 0.05530 0.22982 0.66115
 H424 H 0.12134 0.23027 0.72162
 C425 C 0.84164 0.72972 0.58958
 C426 C 0.88866 0.74920 0.60038
 C427 C 0.89823 0.76798 0.64708
 C428 C 0.86240 0.76672 0.68336
 C429 C 0.81595 0.74686 0.67389
 C430 C 0.80539 0.72753 0.62693
 C431 C 0.82953 0.71311 0.54217
 C432 C 0.78337 0.69336 0.53225
 C433 C 0.74876 0.68911 0.56941
 C434 C 0.75969 0.70560 0.61645
 H435 H 0.85535 0.71577 0.51236
 H436 H 0.77456 0.68096 0.49566
 H437 H 0.71325 0.67302 0.56175
 H438 H 0.73234 0.70066 0.64458
 H439 H 0.93400 0.78306 0.65572
 H440 H 0.87086 0.78146 0.71919
 C441 C 0.14822 0.74381 0.41546
 C442 C 0.09813 0.74818 0.40256
 C443 C 0.08454 0.75070 0.35335
 C444 C 0.11993 0.74955 0.31678
 C445 C 0.16990 0.74504 0.32833
 C446 C 0.18429 0.74050 0.37804
 C447 C 0.16327 0.74290 0.46483
 C448 C 0.21248 0.73637 0.47714
 C449 C 0.24746 0.73055 0.44056
 C450 C 0.23368 0.73263 0.39145
 H451 H 0.13715 0.74750 0.49414
 H452 H 0.22344 0.73546 0.51522
 H453 H 0.28552 0.72475 0.45024
 H454 H 0.26204 0.72832 0.36417
 H455 H 0.04623 0.75405 0.34319
 H456 H 0.10832 0.75320 0.27906
 C457 C 0.90789 0.23018 0.35085
 C458 C 0.89584 0.24724 0.39829
 C459 C 0.84792 0.26248 0.40829
 C460 C 0.81186 0.26085 0.37221
 C461 C 0.82307 0.24541 0.32465
 C462 C 0.87120 0.22923 0.31373
 C463 C 0.95573 0.21420 0.33940
 C464 C 0.96678 0.19633 0.29297
 C465 C 0.93073 0.19471 0.25689
 C466 C 0.88338 0.21110 0.26692
 H467 H 0.98492 0.21522 0.36615
 H468 H 1.00351 0.18365 0.28503
 H469 H 0.93955 0.18082 0.22088
 H470 H 0.85641 0.20899 0.23790
 H471 H 0.83804 0.27482 0.44456
 H472 H 0.77487 0.27200 0.38134
 C473 C 0.27379 0.41230 0.84882
 C474 C 0.24757 0.40242 0.89259
 C475 C 0.22262 0.35789 0.89761
 C476 C 0.22453 0.32264 0.86092
 C477 C 0.25079 0.33108 0.81773
 C478 C 0.27547 0.37623 0.81118
 C479 C 0.29752 0.45762 0.84108
 C480 C 0.32338 0.46659 0.79802
 C481 C 0.32551 0.43109 0.76160
 C482 C 0.30169 0.38637 0.76791
 H483 H 0.29600 0.48669 0.86781
 H484 H 0.34157 0.50144 0.79275
 H485 H 0.34545 0.43835 0.72815
 H486 H 0.30395 0.35991 0.73867
 H487 H 0.20231 0.34990 0.93073
 H488 H 0.20566 0.28816 0.86640
 C489 C 0.76956 0.34589 0.08890
 C490 C 0.74761 0.39165 0.09981
 C491 C 0.72712 0.39946 0.14609
 C492 C 0.72882 0.36314 0.18182
 C493 C 0.75026 0.31765 0.17201
 C494 C 0.77124 0.30877 0.12547
 C495 C 0.78927 0.33586 0.04221
 C496 C 0.81160 0.29107 0.03242
 C497 C 0.81431 0.25529 0.06857
 C498 C 0.79436 0.26389 0.11470
 H499 H 0.78740 0.36223 0.01279
 H500 H 0.82684 0.28409 -0.00345
 H501 H 0.83180 0.22063 0.06078
 H502 H 0.79769 0.23540 0.14196
 H503 H 0.71040 0.43430 0.15492
 H504 H 0.71292 0.37035 0.21740
 C505 C 0.73428 0.58780 0.85215
 C506 C 0.74701 0.60043 0.90082
 C507 C 0.75991 0.64877 0.91190
 C508 C 0.75961 0.68472 0.87570
 C509 C 0.74636 0.67329 0.82744
 C510 C 0.73261 0.62472 0.81550
 C511 C 0.72373 0.53904 0.83895
 C512 C 0.70945 0.52728 0.79139
 C513 C 0.70523 0.56381 0.75619
 C514 C 0.71666 0.61213 0.76793
 H515 H 0.72697 0.50973 0.86515
 H516 H 0.70144 0.48970 0.78183
 H517 H 0.69346 0.55460 0.71949
 H518 H 0.71291 0.63938 0.73945
 H519 H 0.76988 0.65880 0.94896
 H520 H 0.76954 0.72188 0.88539
 C521 C 0.21661 0.64654 0.09233
 C522 C 0.24024 0.60128 0.10171
 C523 C 0.26474 0.59442 0.14631
 C524 C 0.26507 0.63101 0.18189
 C525 C 0.24087 0.67545 0.17387
 C526 C 0.21569 0.68323 0.12924
 C527 C 0.19493 0.65680 0.04659
 C528 C 0.17096 0.70112 0.03831
 C529 C 0.16749 0.73565 0.07544
 C530 C 0.18936 0.72679 0.12061
 H531 H 0.19712 0.63111 0.01678
 H532 H 0.15474 0.70878 0.00308
 H533 H 0.14805 0.76959 0.06913
 H534 H 0.18512 0.75411 0.14884
 H535 H 0.28350 0.56029 0.15377
 H536 H 0.28419 0.62463 0.21607
 C537 C 0.35929 0.10540 0.80177
 C538 C 0.39800 0.10187 0.76636
 C539 C 0.39990 0.13673 0.72847
 C540 C 0.36579 0.17413 0.72512
 C541 C 0.32539 0.17546 0.75621
 C542 C 0.32118 0.14053 0.79419
 C543 C 0.35531 0.07413 0.84303
 C544 C 0.31503 0.07658 0.87434
 C545 C 0.27685 0.10869 0.86474
 C546 C 0.27951 0.14006 0.82482
 H547 H 0.38247 0.04743 0.85268
 H548 H 0.31307 0.05268 0.90588
 H549 H 0.24518 0.10958 0.88859
 H550 H 0.24899 0.16460 0.81868
 H551 H 0.42947 0.13641 0.70197
 H552 H 0.37069 0.20202 0.69742
 C553 C 0.33791 0.91524 0.23383
 C554 C 0.38586 0.90216 0.24889
 C555 C 0.39592 0.85386 0.26236
 C556 C 0.35942 0.81824 0.26036
 C557 C 0.31164 0.82999 0.24545
 C558 C 0.30041 0.87895 0.23220
 C559 C 0.32626 0.96392 0.22106
 C560 C 0.27897 0.97644 0.20631
 C561 C 0.24238 0.94093 0.20439
 C562 C 0.25285 0.89271 0.21729
 H563 H 0.35347 0.99266 0.22263
 H564 H 0.27068 1.01389 0.19644
 H565 H 0.20565 0.95083 0.19301
 H566 H 0.22344 0.86636 0.21529
 H567 H 0.43253 0.84353 0.27391
 H568 H 0.36832 0.78112 0.27109
 C569 C 0.64923 0.08056 0.24994
 C570 C 0.59967 0.09576 0.25191
 C571 C 0.58840 0.14558 0.25227
 C572 C 0.62555 0.18050 0.25081
 C573 C 0.67500 0.16666 0.24709
 C574 C 0.68706 0.11615 0.24522
 C575 C 0.66203 0.03065 0.25265
 C576 C 0.71079 0.01591 0.24825
 C577 C 0.74745 0.05049 0.24037
 C578 C 0.73583 0.10014 0.23859
 H579 H 0.63453 0.00280 0.25858
 H580 H 0.72007 -0.02254 0.25041
 H581 H 0.78514 0.03884 0.23610
 H582 H 0.76545 0.12582 0.23256
 H583 H 0.55054 0.15751 0.25423
 H584 H 0.61567 0.21881 0.25291
 C585 C 0.57839 0.84382 0.74865
 C586 C 0.59278 0.89305 0.75552
 C587 C 0.64243 0.90505 0.75968
 C588 C 0.67807 0.86882 0.75739
 C589 C 0.66502 0.81958 0.75105
 C590 C 0.61477 0.80671 0.74595
 C591 C 0.52849 0.83077 0.74433
 C592 C 0.51475 0.78242 0.73567
 C593 C 0.55037 0.74621 0.73175
 C594 C 0.59983 0.75797 0.73733
 H595 H 0.49988 0.85786 0.74744
 H596 H 0.47634 0.77310 0.73176
 H597 H 0.53970 0.70880 0.72432
 H598 H 0.62619 0.72861 0.73425
 H599 H 0.65367 0.94276 0.76472
 H600 H 0.71627 0.87916 0.76128
 C601 C 0.69405 0.85696 0.60228
 C602 C 0.73246 0.89290 0.59944
 C603 C 0.77249 0.88894 0.63175
 C604 C 0.77376 0.85346 0.66810
 C605 C 0.73682 0.81820 0.67185
 C606 C 0.69759 0.81864 0.63777
 C607 C 0.65388 0.85550 0.56910
 C608 C 0.61873 0.81848 0.57129
 C609 C 0.62317 0.78104 0.60520
 C610 C 0.66250 0.78066 0.63757
 H611 H 0.64916 0.88111 0.53963
 H612 H 0.58855 0.81814 0.54548
 H613 H 0.59641 0.75174 0.60600
 H614 H 0.66552 0.74991 0.66208
 H615 H 0.80226 0.91527 0.63075
 H616 H 0.80391 0.85372 0.69396
 C617 C 0.20522 0.35221 0.09320
 C618 C 0.24072 0.39077 0.09460
 C619 C 0.27692 0.38985 0.13127
 C620 C 0.27586 0.35501 0.16843
 C621 C 0.24016 0.31819 0.16915
 C622 C 0.20533 0.31574 0.13067
 C623 C 0.17210 0.34646 0.05354
 C624 C 0.13869 0.30783 0.05227
 C625 C 0.13832 0.27316 0.08939
 C626 C 0.17170 0.27661 0.12777
 H627 H 0.17253 0.37018 0.02201
 H628 H 0.11364 0.30421 0.02171
 H629 H 0.11281 0.24280 0.08788
 H630 H 0.17168 0.24768 0.15453
 H631 H 0.30484 0.41809 0.13297
 H632 H 0.30300 0.35705 0.19734
 C633 C 0.21226 0.09429 0.64831
 C634 C 0.24655 0.09326 0.60876
 C635 C 0.28415 0.12846 0.60767
 C636 C 0.28556 0.16652 0.64132
 C637 C 0.25115 0.16969 0.67908
 C638 C 0.21494 0.13277 0.68365
 C639 C 0.17763 0.05634 0.65591
 C640 C 0.14524 0.05765 0.69533
 C641 C 0.14718 0.09591 0.72875
 C642 C 0.18195 0.13287 0.72342
 H643 H 0.17604 0.02428 0.63294
 H644 H 0.11898 0.02833 0.70041
 H645 H 0.12218 0.09649 0.75949
 H646 H 0.18308 0.16119 0.75105
 H647 H 0.31103 0.12862 0.57847
 H648 H 0.31309 0.19469 0.63682
 C649 C 0.19237 0.89731 0.36121
 C650 C 0.23253 0.90214 0.39463
 C651 C 0.27308 0.87097 0.38949
 C652 C 0.27447 0.83523 0.35347
 C653 C 0.23557 0.82922 0.32064
 C654 C 0.19444 0.86086 0.32374
 C655 C 0.15072 0.92826 0.36275
 C656 C 0.11253 0.92317 0.32916
 C657 C 0.11503 0.88800 0.29266
 C658 C 0.15566 0.85747 0.28956
 H659 H 0.14685 0.95761 0.38862
 H660 H 0.08110 0.94727 0.33102
 H661 H 0.08551 0.88463 0.26634
 H662 H 0.15643 0.83129 0.25992
 H663 H 0.30397 0.87357 0.41435
 H664 H 0.30602 0.81124 0.35179
 C665 C 0.69588 0.13782 0.39665
 C666 C 0.73423 0.10266 0.40319
 C667 C 0.77593 0.10543 0.37321
 C668 C 0.77994 0.14050 0.33673
 C669 C 0.74294 0.17507 0.32939
 C670 C 0.70167 0.17538 0.36076
 C671 C 0.65229 0.13772 0.42483
 C672 C 0.61657 0.17368 0.41858
 C673 C 0.62374 0.21142 0.38538
 C674 C 0.66605 0.21270 0.35706
 H675 H 0.64439 0.11063 0.45214
 H676 H 0.58345 0.17272 0.44040
 H677 H 0.59635 0.23980 0.38147
 H678 H 0.67044 0.24303 0.33197
 H679 H 0.80545 0.07919 0.37706
 H680 H 0.81179 0.13986 0.31310
 C681 C 0.63518 0.79442 0.90123
 C682 C 0.60007 0.75539 0.90570
 C683 C 0.60491 0.71438 0.87493
 C684 C 0.64010 0.71277 0.83834
 C685 C 0.67355 0.75102 0.83211
 C686 C 0.67278 0.79108 0.86491
 C687 C 0.63662 0.83506 0.93359
 C688 C 0.67268 0.87105 0.92958
 C689 C 0.70916 0.86714 0.89449
 C690 C 0.70979 0.82728 0.86295
 H691 H 0.61188 0.83939 0.96387
 H692 H 0.67301 0.90161 0.95478
 H693 H 0.73758 0.89476 0.89217
 H694 H 0.73980 0.82491 0.83719
 H695 H 0.57953 0.68391 0.87736
 H696 H 0.64061 0.68160 0.81389
 C697 C 0.13612 0.29171 0.40007
 C698 C 0.09880 0.25501 0.40180
 C699 C 0.09905 0.21739 0.36693
 C700 C 0.13382 0.21625 0.32991
 C701 C 0.17020 0.25222 0.32682
 C702 C 0.17247 0.28956 0.36262
 C703 C 0.13972 0.32944 0.43543
 C704 C 0.17754 0.36380 0.43369
 C705 C 0.21313 0.36109 0.39748
 C706 C 0.21106 0.32412 0.36254
 H707 H 0.11483 0.33247 0.46582
 H708 H 0.17974 0.39220 0.46122
 H709 H 0.24279 0.38746 0.39675
 H710 H 0.24013 0.32273 0.33567
 H711 H 0.07151 0.18879 0.36782
 H712 H 0.13230 0.18697 0.30326
 C713 C 0.63630 0.19925 0.09974
 C714 C 0.60055 0.23782 0.09910
 C715 C 0.60560 0.27643 0.13281
 C716 C 0.64239 0.27658 0.16781
 C717 C 0.67758 0.23963 0.16928
 C718 C 0.67556 0.20123 0.13453
 C719 C 0.63666 0.16052 0.06511
 C720 C 0.67323 0.12492 0.06562
 C721 C 0.71111 0.12733 0.09948
 C722 C 0.71272 0.16537 0.13316
 H723 H 0.61045 0.15736 0.03588
 H724 H 0.67272 0.09579 0.03878
 H725 H 0.73982 0.10000 0.09917
 H726 H 0.74372 0.16675 0.15776
 H727 H 0.57942 0.30624 0.13369
 H728 H 0.64299 0.30572 0.19466
 C729 C 0.40963 0.28116 0.85140
 C730 C 0.39773 0.26125 0.89782
 C731 C 0.35081 0.24216 0.90586
 C732 C 0.31591 0.24201 0.86880
 C733 C 0.32759 0.25866 0.82182
 C734 C 0.37468 0.27857 0.81267
 C735 C 0.45576 0.30273 0.84225
 C736 C 0.46759 0.32030 0.79581
 C737 C 0.43383 0.31667 0.75771
 C738 C 0.38777 0.29599 0.76588
 H739 H 0.48292 0.30645 0.87082
 H740 H 0.50322 0.33663 0.78933
 H741 H 0.44333 0.33009 0.72168
 H742 H 0.36260 0.29376 0.73532
 H743 H 0.34092 0.22743 0.94119
 H744 H 0.27964 0.22788 0.87664
 C745 C 0.34573 0.78414 0.09267
 C746 C 0.38708 0.75298 0.09821
 C747 C 0.38978 0.72180 0.13882
 C748 C 0.35343 0.72226 0.17461
 C749 C 0.31313 0.75376 0.17090
 C750 C 0.30884 0.78485 0.12957
 C751 C 0.33927 0.81350 0.05053
 C752 C 0.29852 0.84387 0.04568
 C753 C 0.26318 0.84532 0.08225
 C754 C 0.26808 0.81597 0.12362
 H755 H 0.36488 0.81280 0.02047
 H756 H 0.29417 0.86612 0.01319
 H757 H 0.23147 0.86880 0.07828
 H758 H 0.23926 0.81731 0.15046
 H759 H 0.42088 0.69756 0.14340
 H760 H 0.35696 0.69812 0.20586
 C761 C 0.89958 0.64466 0.78892
 C762 C 0.89919 0.60702 0.75266
 C763 C 0.86260 0.60772 0.71639
 C764 C 0.82478 0.64154 0.71777
 C765 C 0.82333 0.67773 0.75380
 C766 C 0.86147 0.68048 0.78894
 C767 C 0.93877 0.65029 0.82260
 C768 C 0.93914 0.68845 0.85643
 C769 C 0.90150 0.72268 0.85677
 C770 C 0.86338 0.71929 0.82299
 H771 H 0.97056 0.62684 0.82233
 H772 H 0.96939 0.69204 0.88190
 H773 H 0.90235 0.75260 0.88270
 H774 H 0.83584 0.74775 0.82340
 H775 H 0.86156 0.58014 0.68792
 H776 H 0.79606 0.63927 0.69046
 C777 C 0.39712 0.14284 0.29025
 C778 C 0.39681 0.10454 0.25464
 C779 C 0.35979 0.10441 0.21878
 C780 C 0.32189 0.13823 0.21969
 C781 C 0.32101 0.17581 0.25426
 C782 C 0.35918 0.17898 0.28940
 C783 C 0.43614 0.14885 0.32404
 C784 C 0.43660 0.18770 0.35709
 C785 C 0.39922 0.22222 0.35653
 C786 C 0.36121 0.21843 0.32267
 H787 H 0.46768 0.12507 0.32455
 H788 H 0.46672 0.19157 0.38267
 H789 H 0.40016 0.25263 0.38187
 H790 H 0.33379 0.24701 0.32245
 H791 H 0.35859 0.07631 0.19084
 H792 H 0.29280 0.13489 0.19298
 C793 C 0.14161 0.59212 0.28933
 C794 C 0.10130 0.59323 0.25580
 C795 C 0.09936 0.63066 0.22063
 C796 C 0.13335 0.66848 0.22069
 C797 C 0.17237 0.66900 0.25386
 C798 C 0.17753 0.63020 0.28776
 C799 C 0.14950 0.55246 0.32182
 C800 C 0.18989 0.55170 0.35318
 C801 C 0.22416 0.58939 0.35203
 C802 C 0.21856 0.62792 0.31919
 H803 H 0.12600 0.52068 0.32251
 H804 H 0.19515 0.52114 0.37783
 H805 H 0.25580 0.58824 0.37598
 H806 H 0.24711 0.65538 0.31799
 H807 H 0.06943 0.63251 0.19452
 H808 H 0.12861 0.69820 0.19500
 C809 C 0.85385 0.39481 0.29615
 C810 C 0.89137 0.39769 0.25990
 C811 C 0.89142 0.36374 0.22139
 C812 C 0.85672 0.32657 0.21895
 C813 C 0.81885 0.32376 0.25321
 C814 C 0.81602 0.35906 0.29103
 C815 C 0.85186 0.42691 0.33673
 C816 C 0.81343 0.42446 0.37029
 C817 C 0.77519 0.39153 0.36335
 C818 C 0.77599 0.35954 0.32377
 H819 H 0.87908 0.45470 0.34332
 H820 H 0.81262 0.44932 0.40111
 H821 H 0.74478 0.39073 0.38877
 H822 H 0.74530 0.33474 0.31942
 H823 H 0.91940 0.36521 0.19333
 H824 H 0.85950 0.29965 0.19005
 C825 C 0.13755 0.39890 0.70557
 C826 C 0.09666 0.39364 0.74305
 C827 C 0.09893 0.34995 0.78014
 C828 C 0.13860 0.31883 0.77637
 C829 C 0.17643 0.32537 0.74203
 C830 C 0.17648 0.36422 0.70721
 C831 C 0.13967 0.43732 0.67097
 C832 C 0.17871 0.44101 0.63831
 C833 C 0.21668 0.40723 0.63985
 C834 C 0.21588 0.36951 0.67405
 H835 H 0.11261 0.46581 0.66907
 H836 H 0.17988 0.47077 0.61218
 H837 H 0.24719 0.41054 0.61474
 H838 H 0.24668 0.34473 0.67442
 H839 H 0.09378 0.37434 0.76261
 H840 H 0.13999 0.28814 0.80140
 C841 C 0.90082 0.78822 0.35620
 C842 C 0.89656 0.75520 0.39617
 C843 C 0.85684 0.72267 0.39794
 C844 C 0.82066 0.72350 0.36228
 C845 C 0.82303 0.75670 0.32347
 C846 C 0.86338 0.78916 0.31976
 C847 C 0.94228 0.81880 0.35027
 C848 C 0.94584 0.85054 0.31046
 C849 C 0.90871 0.85210 0.27551
 C850 C 0.86797 0.82152 0.27975
 H851 H 0.97286 0.81793 0.37542
 H852 H 0.97783 0.87374 0.30648
 H853 H 0.91179 0.87667 0.24460
 H854 H 0.84044 0.82311 0.25123
 H855 H 0.85357 0.69639 0.42740
 H856 H 0.79047 0.69785 0.36496
 C857 C 0.84725 0.27977 0.59395
 C858 C 0.88959 0.25033 0.60104
 C859 C 0.89332 0.22119 0.64302
 C860 C 0.85689 0.22217 0.67872
 C861 C 0.81539 0.25183 0.67324
 C862 C 0.80995 0.28048 0.63038
 C863 C 0.84036 0.30752 0.55079
 C864 C 0.79832 0.33574 0.54414
 C865 C 0.76222 0.33672 0.57999
 C866 C 0.76782 0.30928 0.62257
 H867 H 0.86678 0.30727 0.52144
 H868 H 0.79360 0.35668 0.51084
 H869 H 0.72951 0.35851 0.57464
 H870 H 0.73864 0.31040 0.64902
 H871 H 0.92527 0.19834 0.64874
 H872 H 0.86122 0.19985 0.71120
 C873 C 0.13858 0.70202 0.59656
 C874 C 0.10002 0.73709 0.59989
 C875 C 0.10150 0.77253 0.63688
 C876 C 0.13937 0.77348 0.67078
 C877 C 0.17753 0.73949 0.66851
 C878 C 0.17776 0.70365 0.63115
 C879 C 0.14037 0.66640 0.55902
 C880 C 0.17904 0.63317 0.55624
 C881 C 0.21699 0.63485 0.59020
 C882 C 0.21665 0.66988 0.62713
 H883 H 0.11306 0.66418 0.53057
 H884 H 0.17984 0.60631 0.52714
 H885 H 0.24709 0.60919 0.58763
 H886 H 0.24731 0.67054 0.65222
 H887 H 0.07260 0.79953 0.63999
 H888 H 0.13857 0.80061 0.69965
 C889 C 0.71052 0.59633 0.14841
 C890 C 0.74620 0.59615 0.11047
 C891 C 0.78223 0.63273 0.10958
 C892 C 0.78210 0.67037 0.14378
 C893 C 0.74541 0.67328 0.17947
 C894 C 0.70939 0.63591 0.18234
 C895 C 0.67690 0.55733 0.15455
 C896 C 0.64165 0.55857 0.19143
 C897 C 0.63940 0.59816 0.22325
 C898 C 0.67301 0.63635 0.21906
 H899 H 0.67812 0.52490 0.13204
 H900 H 0.61615 0.52844 0.19555
 H901 H 0.61199 0.59891 0.25186
 H902 H 0.67067 0.66576 0.24539
 H903 H 0.81011 0.63289 0.08135
 H904 H 0.81038 0.69819 0.14178
 C905 C 0.19951 0.63798 0.89456
 C906 C 0.23802 0.60298 0.90094
 C907 C 0.27922 0.60555 0.87026
 C908 C 0.28265 0.64037 0.83347
 C909 C 0.24606 0.67553 0.82704
 C910 C 0.20518 0.67585 0.85895
 C911 C 0.15574 0.63729 0.92247
 C912 C 0.11980 0.67306 0.91630
 C913 C 0.12713 0.71141 0.88382
 C914 C 0.16964 0.71327 0.85582
 H915 H 0.14793 0.60997 0.94960
 H916 H 0.08657 0.67169 0.93792
 H917 H 0.09968 0.73976 0.88019
 H918 H 0.17409 0.74395 0.83116
 H919 H 0.30872 0.57923 0.87369
 H920 H 0.31373 0.63901 0.80897
 C921 C 0.69859 0.39891 0.86197
 C922 C 0.73781 0.40180 0.89663
 C923 C 0.77721 0.36908 0.89267
 C924 C 0.77811 0.33334 0.85662
 C925 C 0.73993 0.32917 0.82270
 C926 C 0.70009 0.36243 0.82464
 C927 C 0.65850 0.43190 0.86222
 C928 C 0.62105 0.42849 0.82761
 C929 C 0.62279 0.39293 0.79143
 C930 C 0.66201 0.36050 0.78958
 H931 H 0.65556 0.46169 0.88774
 H932 H 0.59084 0.45414 0.82845
 H933 H 0.59383 0.39073 0.76438
 H934 H 0.66218 0.33396 0.76027
 H935 H 0.80738 0.37044 0.91850
 H936 H 0.80863 0.30802 0.85566
 C937 C 0.63678 0.90288 0.20841
 C938 C 0.59660 0.89918 0.24162
 C939 C 0.59609 0.86118 0.27614
 C940 C 0.63342 0.82661 0.27776
 C941 C 0.67305 0.82932 0.24550
 C942 C 0.67563 0.86805 0.21120
 C943 C 0.64066 0.94121 0.17375
 C944 C 0.68124 0.94487 0.14294
 C945 C 0.71922 0.91117 0.14635
 C946 C 0.71680 0.87338 0.18041
 H947 H 0.61361 0.96973 0.17059
 H948 H 0.68364 0.97463 0.11689
 H949 H 0.75099 0.91466 0.12287
 H950 H 0.74776 0.84881 0.18289
 H951 H 0.56607 0.85787 0.30189
 H952 H 0.63130 0.79719 0.30426
 C953 C 0.64588 0.09068 0.78902
 C954 C 0.60165 0.09622 0.76210
 C955 C 0.59474 0.13792 0.73319
 C956 C 0.63008 0.17442 0.73126
 C957 C 0.67379 0.17026 0.75774
 C958 C 0.68226 0.12818 0.78675
 C959 C 0.65561 0.04824 0.81685
 C960 C 0.69955 0.04344 0.84264
 C961 C 0.73473 0.08039 0.84087
 C962 C 0.72644 0.12232 0.81301
 H963 H 0.62989 0.01817 0.81860
 H964 H 0.70647 0.01070 0.86387
 H965 H 0.76882 0.07635 0.86082
 H966 H 0.75503 0.14981 0.81183
 H967 H 0.56120 0.14263 0.71235
 H968 H 0.62283 0.20667 0.70950
 C969 C 0.34612 0.90307 0.78053
 C970 C 0.38942 0.90030 0.75189
 C971 C 0.39597 0.86063 0.72006
 C972 C 0.36222 0.82245 0.71858
 C973 C 0.32019 0.82358 0.74778
 C974 C 0.31111 0.86445 0.77818
 C975 C 0.33590 0.94404 0.81016
 C976 C 0.29276 0.94643 0.83746
 C977 C 0.25874 0.90852 0.83535
 C978 C 0.26751 0.86797 0.80581
 H979 H 0.36056 0.97486 0.81177
 H980 H 0.28538 0.97800 0.86006
 H981 H 0.22520 0.91072 0.85640
 H982 H 0.23976 0.83963 0.80462
 H983 H 0.42815 0.85855 0.69696
 H984 H 0.36906 0.79158 0.69472
   
