data_POSCAR
  _audit_creation_date              2014-09-24
  _audit_creation_method            'ToBaCCo'
  _symmetry_space_group_name_H-M    'P1'
  _symmetry_Int_Tables_number       1
  _symmetry_cell_setting            triclinic
  loop_
  _symmetry_equiv_pos_as_xyz
 x,y,z
_cell_length_a 21.4540
_cell_length_b 21.6967
_cell_length_c 21.4483
_cell_angle_alpha 82.495400
_cell_angle_beta 100.721100
_cell_angle_gamma 95.394900
loop_
  _atom_site_label
  _atom_site_type_symbol
  _atom_site_fract_x
  _atom_site_fract_y
  _atom_site_fract_z
C1 C 0.63168 0.56383 -0.00944
 C2 C 0.61593 0.62494 -0.00739
 C3 C 0.55353 0.64046 -0.00744
 C4 C 0.50646 0.58991 -0.00031
 C5 C 0.51946 0.52865 -0.00816
 C6 C 0.58059 0.51713 -0.01842
 C7 C 0.58838 0.45942 -0.03802
 C8 C 0.54148 0.41105 -0.03687
 C9 C 0.48457 0.41801 -0.01606
 C10 C 0.47135 0.47846 -0.00573
 C11 C 0.44673 0.59843 0.01392
 C12 C 0.39932 0.55026 0.01438
 C13 C 0.41023 0.48905 0.00603
 C14 C 0.36174 0.43870 0.00676
 C15 C 0.37742 0.38020 -0.00529
 C16 C 0.43912 0.36704 -0.00902
 H17 H 0.63081 0.45077 -0.05487
 H18 H 0.55039 0.36834 -0.05344
 H19 H 0.43528 0.64253 0.02533
 H20 H 0.35382 0.56310 0.02054
 H21 H 0.65342 0.66142 -0.00574
 H22 H 0.34086 0.34375 -0.01520
 C23 C 0.00878 0.63816 0.44591
 C24 C 0.01185 0.62482 0.38419
 C25 C 0.01246 0.56390 0.36868
 C26 C 0.01784 0.51472 0.42006
 C27 C 0.00698 0.52542 0.48094
 C28 C 0.00012 0.58693 0.49317
 C29 C -0.01455 0.59519 0.55254
 C30 C -0.01679 0.54586 0.60048
 C31 C -0.00895 0.48444 0.59050
 C32 C 0.00283 0.47423 0.52964
 C33 C 0.03438 0.45524 0.41273
 C34 C 0.03160 0.40585 0.46029
 C35 C 0.01152 0.41315 0.51739
 C36 C 0.00278 0.36155 0.56366
 C37 C -0.00186 0.37382 0.62509
 C38 C -0.01056 0.43338 0.63981
 H39 H -0.02492 0.63990 0.56331
 H40 H -0.02419 0.55782 0.64553
 H41 H 0.05020 0.44581 0.37022
 H42 H 0.04628 0.36199 0.45154
 H43 H 0.01349 0.66284 0.34718
 H44 H 0.00482 0.33593 0.66239
 C45 C 0.56911 0.00266 0.63905
 C46 C 0.63087 -0.00019 0.62647
 C47 C 0.64385 -0.00401 0.56506
 C48 C 0.59201 0.00238 0.51249
 C49 C 0.52860 -0.00138 0.52405
 C50 C 0.51714 -0.00497 0.58760
 C51 C 0.45390 -0.01652 0.59761
 C52 C 0.40329 -0.01655 0.54699
 C53 C 0.41292 -0.00529 0.48339
 C54 C 0.47626 -0.00132 0.47174
 C55 C 0.60140 0.01325 0.44861
 C56 C 0.55064 0.01323 0.39791
 C57 C 0.48748 0.00289 0.40808
 C58 C 0.43526 -0.00247 0.35660
 C59 C 0.37368 0.00009 0.36945
 C60 C 0.36118 0.00157 0.43126
 H61 H 0.44201 -0.02600 0.64480
 H62 H 0.35648 -0.02593 0.55913
 H63 H 0.64816 0.02270 0.43632
 H64 H 0.56222 0.02233 0.35059
 H65 H 0.66991 0.00061 0.66551
 H66 H 0.33456 0.00097 0.33047
 O67 O 0.46607 0.00329 -0.10613
 O68 O 0.43242 -0.01516 0.05793
 O69 O 0.43843 0.07815 -0.03044
 O70 O 0.45618 -0.08991 -0.02078
 O71 O 0.55842 -0.07381 0.01788
 O72 O 0.54049 0.09455 0.00879
 O73 O 0.53483 0.00128 0.09565
 O74 O 0.56832 0.02039 -0.06802
 Cu75 Cu 0.43794 -0.00739 -0.02844
 Cu76 Cu 0.56078 0.01215 0.01731
 C77 C 0.52328 0.01367 -0.11481
 C78 C 0.47779 -0.00892 0.10466
 C79 C 0.48581 0.11480 -0.01124
 C80 C 0.51086 -0.11025 -0.00168
 O81 O -0.07737 0.56027 0.98180
 O82 O 0.09284 0.53461 1.00168
 O83 O -0.00283 0.53243 0.90751
 O84 O 0.01716 0.56206 1.07547
 O85 O -0.00338 0.46177 1.10411
 O86 O -0.02451 0.43247 0.93653
 O87 O 0.07084 0.43442 1.02911
 O88 O -0.09834 0.46037 1.01199
 Cu89 Cu 0.00971 0.55742 0.98870
 Cu90 Cu -0.01589 0.43718 1.02320
 C91 C -0.11646 0.51511 0.99568
 C92 C 0.11056 0.47960 1.01708
 C93 C -0.01577 0.47698 0.89362
 C94 C 0.00825 0.51725 1.11807
 O95 O -0.01953 -0.07233 0.44187
 O96 O -0.01376 0.09416 0.46172
 O97 O 0.06426 0.02056 0.43244
 O98 O -0.09865 0.00222 0.46618
 O99 O -0.06084 -0.01973 0.56895
 O100 O 0.10258 -0.00178 0.53504
 O101 O 0.02552 0.07217 0.56414
 O102 O 0.01932 -0.09393 0.54445
 Cu103 Cu -0.02065 0.01334 0.44023
 Cu104 Cu 0.02526 -0.01287 0.56354
 C105 C 0.00059 -0.11122 0.48937
 C106 C 0.00577 0.11129 0.51686
 C107 C 0.11106 0.01108 0.47757
 C108 C -0.10754 -0.01077 0.52342
 C109 C -0.30181 0.55134 0.99445
 C110 C -0.25073 0.59823 1.02693
 C111 C -0.18981 0.58595 1.02660
 C112 C -0.18426 0.52747 0.99534
 C113 C -0.22169 0.47563 1.03217
 C114 C -0.28234 0.48865 1.03296
 C115 C -0.28512 0.55021 0.92782
 C116 C -0.22410 0.53770 0.92835
 H117 H -0.26005 0.63309 1.05530
 H118 H -0.14934 0.61205 1.05180
 H119 H -0.20114 0.43430 1.05921
 H120 H -0.31233 0.45865 1.06161
 H121 H -0.31880 0.55872 0.88362
 H122 H -0.20581 0.53541 0.88485
 C123 C 0.29615 0.44681 1.01303
 C124 C 0.25082 0.38695 1.02043
 C125 C 0.18979 0.39794 1.02144
 C126 C 0.17849 0.46730 1.01706
 C127 C 0.22727 0.49133 1.07210
 C128 C 0.28845 0.47932 1.07095
 C129 C 0.26241 0.48636 0.95373
 C130 C 0.20166 0.49704 0.95589
 H131 H 0.26550 0.33999 1.03461
 H132 H 0.15493 0.36023 1.03192
 H133 H 0.21445 0.51260 1.11059
 H134 H 0.32744 0.48984 1.10907
 H135 H 0.28468 0.50444 0.91289
 H136 H 0.17256 0.52427 0.91716
 C137 C 0.00970 -0.29312 0.45791
 C138 C 0.03597 -0.24331 0.40871
 C139 C 0.03245 -0.18356 0.41965
 C140 C 0.00427 -0.17787 0.47914
 C141 C -0.06047 -0.21473 0.46957
 C142 C -0.05767 -0.27457 0.45851
 C143 C 0.05020 -0.27639 0.52161
 C144 C 0.04634 -0.21674 0.53332
 H145 H 0.06350 -0.25268 0.37389
 H146 H 0.05383 -0.14424 0.39224
 H147 H -0.10488 -0.19539 0.47138
 H148 H -0.09992 -0.30626 0.45073
 H149 H 0.08154 -0.30786 0.55344
 H150 H 0.07384 -0.19813 0.57541
 C151 C 0.00138 0.29325 0.55044
 C152 C 0.06844 0.27235 0.55305
 C153 C 0.06968 0.21249 0.54112
 C154 C 0.00377 0.17807 0.52765
 C155 C -0.02715 0.18416 0.58534
 C156 C -0.02896 0.24394 0.59710
 C157 C -0.03667 0.27879 0.48480
 C158 C -0.03438 0.21912 0.47240
 H159 H 0.11153 0.30244 0.56348
 H160 H 0.11370 0.19151 0.54120
 H161 H -0.05025 0.14515 0.61161
 H162 H -0.05587 0.25445 0.63201
 H163 H -0.06537 0.31184 0.45201
 H164 H -0.06044 0.20209 0.42887
 C165 C 0.55998 0.00888 -0.29607
 C166 C 0.61850 0.03202 -0.24811
 C167 C 0.60682 0.03355 -0.18806
 C168 C 0.53767 0.01373 -0.18081
 C169 C 0.49810 0.05679 -0.23261
 C170 C 0.51047 0.05520 -0.29244
 C171 C 0.53691 -0.05390 -0.26254
 C172 C 0.52489 -0.05124 -0.20312
 H173 H 0.66267 0.05390 -0.26072
 H174 H 0.64189 0.05340 -0.15136
 H175 H 0.46571 0.08830 -0.22265
 H176 H 0.48888 0.08605 -0.33312
 H177 H 0.53098 -0.09729 -0.28385
 H178 H 0.50886 -0.09226 -0.17390
 C179 C 0.44404 -0.00729 0.28753
 C180 C 0.49176 -0.05447 0.28193
 C181 C 0.50296 -0.05514 0.22149
 C182 C 0.46429 -0.00990 0.17120
 C183 C 0.39497 -0.02790 0.17887
 C184 C 0.38434 -0.02736 0.23944
 C185 C 0.46887 0.05552 0.25573
 C186 C 0.47970 0.05409 0.19559
 H187 H 0.51325 -0.08623 0.32181
 H188 H 0.53424 -0.08698 0.21014
 H189 H 0.35864 -0.04526 0.14166
 H190 H 0.33951 -0.04729 0.25202
 H191 H 0.47679 0.09798 0.27872
 H192 H 0.49673 0.09531 0.16734
 C193 C 0.54157 -0.29391 -0.00891
 C194 C 0.59002 -0.24502 -0.03663
 C195 C 0.57937 -0.18487 -0.03350
 C196 C 0.52067 -0.17754 -0.00462
 C197 C 0.46635 -0.21333 -0.04601
 C198 C 0.47790 -0.27345 -0.04947
 C199 C 0.54165 -0.27683 0.05859
 C200 C 0.53082 -0.21648 0.06076
 H201 H 0.62407 -0.25511 -0.06484
 H202 H 0.60629 -0.14604 -0.05589
 H203 H 0.42451 -0.19222 -0.07381
 H204 H 0.44617 -0.30252 -0.08103
 H205 H 0.54963 -0.30984 0.10144
 H206 H 0.52944 -0.19814 0.10518
 C207 C 0.45317 0.29842 -0.00782
 C208 C 0.51917 0.28053 0.02902
 C209 C 0.53129 0.22034 0.02694
 C210 C 0.47554 0.18224 -0.00984
 C211 C 0.41919 0.18966 0.02262
 C212 C 0.40770 0.24987 0.02424
 C213 C 0.44901 0.27946 -0.07518
 C214 C 0.46065 0.21904 -0.07623
 H215 H 0.55237 0.31155 0.05705
 H216 H 0.57503 0.20098 0.05234
 H217 H 0.39345 0.15096 0.04658
 H218 H 0.37339 0.26108 0.05159
 H219 H 0.43789 0.31122 -0.11856
 H220 H 0.45959 0.19928 -0.12041
 C221 C -0.29058 -0.00916 0.55687
 C222 C -0.26065 0.05408 0.53124
 C223 C -0.20049 0.05256 0.52058
 C224 C -0.17402 -0.01187 0.53690
 C225 C -0.18131 -0.03196 0.60663
 C226 C -0.24196 -0.03159 0.61712
 C227 C -0.28301 -0.05517 0.50987
 C228 C -0.22254 -0.05565 0.49865
 H229 H -0.28489 0.09694 0.52261
 H230 H -0.17355 0.09404 0.50306
 H231 H -0.14382 -0.05118 0.64318
 H232 H -0.25412 -0.05387 0.66195
 H233 H -0.32141 -0.08665 0.48921
 H234 H -0.20984 -0.08685 0.46811
 C235 C 0.29240 0.00729 0.44072
 C236 C 0.26271 -0.05550 0.46763
 C237 C 0.20308 -0.05335 0.47956
 C238 C 0.17702 0.01129 0.46303
 C239 C 0.22648 0.05516 0.49998
 C240 C 0.28639 0.05386 0.48763
 C241 C 0.24315 0.02897 0.38101
 C242 C 0.18307 0.03031 0.39273
 H243 H 0.28671 -0.09848 0.47605
 H244 H 0.17625 -0.09445 0.49806
 H245 H 0.21489 0.08666 0.53084
 H246 H 0.32560 0.08481 0.50770
 H247 H 0.25439 0.04912 0.33515
 H248 H 0.14499 0.04867 0.35632
 C249 C 0.00939 0.55330 1.30220
 C250 C 0.07517 0.54300 1.28787
 C251 C 0.07470 0.53076 1.22720
 C252 C 0.00873 0.53036 1.18523
 C253 C -0.03372 0.48333 1.22175
 C254 C -0.03435 0.49589 1.28208
 C255 C -0.01647 0.60556 1.24962
 C256 C -0.01597 0.59366 1.18902
 H257 H 0.11876 0.54542 1.32281
 H258 H 0.11764 0.52269 1.21043
 H259 H -0.06398 0.44571 1.20072
 H260 H -0.06578 0.46920 1.31155
 H261 H -0.04137 0.64440 1.25720
 H262 H -0.03732 0.62374 1.14757
 C263 C -0.01539 0.44193 0.70922
 C264 C 0.04350 0.48051 0.73989
 C265 C 0.04259 0.49187 0.80036
 C266 C -0.01699 0.46360 0.82626
 C267 C -0.07329 0.48853 0.77727
 C268 C -0.07320 0.47612 0.71646
 C269 C -0.01984 0.38244 0.75760
 C270 C -0.01996 0.39401 0.81833
 H271 H 0.08319 0.49724 0.71584
 H272 H 0.08129 0.51837 0.82754
 H273 H -0.11150 0.51121 0.78979
 H274 H -0.11176 0.48783 0.67736
 H275 H -0.03123 0.33526 0.74577
 H276 H -0.02764 0.35669 0.85566
   
