data_POSCAR
  _audit_creation_date              2014-09-24
  _audit_creation_method            'ToBaCCo'
  _symmetry_space_group_name_H-M    'P1'
  _symmetry_Int_Tables_number       1
  _symmetry_cell_setting            triclinic
  loop_
  _symmetry_equiv_pos_as_xyz
 x,y,z
_cell_length_a 30.1583
_cell_length_b 31.2854
_cell_length_c 30.9281
_cell_angle_alpha 90.205400
_cell_angle_beta 90.424800
_cell_angle_gamma 90.388700
loop_
  _atom_site_label
  _atom_site_type_symbol
  _atom_site_fract_x
  _atom_site_fract_y
  _atom_site_fract_z
C1 C 0.19637 0.19494 0.26047
 N2 N 0.23585 0.18070 0.24581
 C3 C 0.25985 0.20472 0.21798
 N4 N 0.24387 0.24278 0.20411
 C5 C 0.20447 0.25725 0.21905
 N6 N 0.18049 0.23310 0.24690
 C7 C -0.18522 0.82595 0.22844
 N8 N -0.21583 0.84668 0.20414
 C9 C -0.22451 0.83364 0.16307
 N10 N -0.20261 0.79986 0.14621
 C11 C -0.17190 0.77911 0.17033
 N12 N -0.16304 0.79218 0.21149
 C13 C -0.21096 0.19267 -0.24409
 N14 N -0.19016 0.22318 -0.21992
 C15 C -0.21290 0.24487 -0.18919
 N16 N -0.25628 0.23547 -0.18216
 C17 C -0.27713 0.20507 -0.20648
 N18 N -0.25427 0.18338 -0.23701
 C19 C 0.19195 0.78993 -0.23576
 N20 N 0.18097 0.74841 -0.22909
 C21 C 0.19993 0.72663 -0.19598
 N22 N 0.22911 0.74671 -0.16889
 C23 C 0.23997 0.78833 -0.17567
 N24 N 0.22121 0.80985 -0.20896
 C25 C 0.19412 1.21752 0.72301
 N26 N 0.18020 1.25491 0.74026
 C27 C 0.20300 1.27330 0.77345
 N28 N 0.23934 1.25370 0.79011
 C29 C 0.25349 1.21626 0.77280
 N30 N 0.23054 1.19796 0.73954
 C31 C 0.81270 0.80582 0.76357
 N32 N 0.83070 0.77222 0.78495
 C33 C 0.81504 0.76078 0.82435
 N34 N 0.78173 0.78334 0.84264
 C35 C 0.76374 0.81701 0.82143
 N36 N 0.77940 0.82839 0.78200
 C37 C 0.20589 0.78957 1.25486
 N38 N 0.23245 0.81313 1.22870
 C39 C 0.24726 0.79621 1.19099
 N40 N 0.23495 0.75595 1.17925
 C41 C 0.20844 0.73244 1.20548
 N42 N 0.19358 0.74945 1.24297
 C43 C 0.81062 1.19027 1.25394
 N44 N 0.82952 1.22168 1.22995
 C45 C 0.80731 1.23832 1.19566
 N46 N 0.76644 1.22315 1.18504
 C47 C 0.74740 1.19179 1.20888
 N48 N 0.76968 1.17499 1.24311
 O49 O 0.52799 0.95775 0.93317
 O50 O 0.45160 0.95203 1.05061
 O51 O 0.58247 1.00073 1.02176
 O52 O 0.39550 0.99284 0.95498
 O53 O 0.53617 0.95947 1.05741
 O54 O 0.44969 0.95181 0.94141
 O55 O 0.39696 0.99301 1.03324
 O56 O 0.57552 1.00708 0.94249
 C57 C 0.56723 0.96915 0.93289
 C58 C 0.41093 0.95776 1.04739
 C59 C 0.57466 0.96837 1.04509
 C60 C 0.40928 0.95639 0.94542
 O61 O 0.43854 1.03002 0.90462
 O62 O 0.52741 1.03862 1.08181
 O63 O 0.53714 1.08311 0.95095
 O64 O 0.42629 1.07507 1.03269
 O65 O 0.44512 1.03142 1.08246
 O66 O 0.51851 1.03857 0.90025
 O67 O 0.42914 1.07450 0.95552
 O68 O 0.55480 1.07987 1.03154
 Co69 Co 0.48387 0.99655 0.92581
 Co70 Co 0.48919 0.99712 1.06064
 Co71 Co 0.55500 1.04039 0.98679
 Co72 Co 0.41812 1.03232 0.99365
 O73 O 0.48683 1.01645 0.99221
 C74 C 0.42668 1.06640 0.91649
 C75 C 0.54941 1.07120 1.07057
 C76 C 0.53143 1.07542 0.91182
 C77 C 0.43052 1.06727 1.07165
 O78 O 0.02666 0.44702 0.08907
 O79 O 0.02669 0.52484 -0.09177
 O80 O 0.06857 0.43643 -0.03925
 O81 O 0.07655 0.55383 0.03809
 O82 O 0.02112 0.44783 -0.08909
 O83 O 0.03602 0.52637 0.08975
 O84 O 0.07540 0.53921 -0.04247
 O85 O 0.07071 0.43044 0.03803
 C86 C 0.06319 0.43249 0.07720
 C87 C 0.06555 0.53619 -0.08140
 C88 C 0.05943 0.43672 -0.07825
 C89 C 0.06997 0.54680 0.07727
 O90 O -0.04760 0.53641 0.06866
 O91 O -0.05960 0.45441 -0.04984
 O92 O -0.01459 0.40270 0.03815
 O93 O -0.00412 0.57696 -0.04584
 O94 O -0.05535 0.53086 -0.05524
 O95 O -0.05619 0.45444 0.06073
 O96 O -0.00529 0.58148 0.03338
 O97 O -0.01503 0.40302 -0.04011
 Co98 Co -0.00879 0.49061 0.06941
 Co99 Co -0.01464 0.48942 -0.06561
 Co100 Co 0.02566 0.42417 -0.00094
 Co101 Co 0.03322 0.55580 -0.00434
 O102 O 0.00851 0.49025 0.00010
 C103 C -0.03784 0.57385 0.05779
 C104 C -0.05312 0.41544 -0.04972
 C105 C -0.05022 0.41541 0.05494
 C106 C -0.04366 0.56882 -0.05487
 O107 O 1.08241 0.03013 0.46548
 O108 O 0.93597 0.03951 0.55471
 O109 O 0.95876 0.01171 0.42015
 O110 O 1.01411 0.04868 0.56451
 O111 O 0.93817 0.04944 0.47574
 O112 O 1.07963 0.02928 0.54663
 O113 O 0.96325 0.00857 0.61252
 O114 O 1.03930 0.00252 0.41407
 C115 C 1.06916 0.02897 0.42673
 C116 C 0.93312 0.03357 0.59545
 C117 C 0.94321 0.04588 0.43572
 C118 C 1.05453 0.05659 0.56277
 O119 O 1.07736 -0.05640 0.54305
 O120 O 0.90468 -0.02687 0.46257
 O121 O 1.02920 -0.08025 0.43922
 O122 O 0.97471 -0.06126 0.57269
 O123 O 0.91394 -0.04398 0.54144
 O124 O 1.08836 -0.05086 0.46362
 O125 O 1.04334 -0.02437 0.59438
 O126 O 0.95371 -0.07191 0.45129
 Co127 Co 1.07429 -0.01210 0.50515
 Co128 Co 0.93068 0.00221 0.50834
 Co129 Co 0.99507 -0.03276 0.43675
 Co130 Co 0.99374 -0.00694 0.56529
 O131 O 1.00177 -0.01400 0.50144
 C132 C 1.06919 -0.05311 0.58232
 C133 C 0.91485 -0.06209 0.44728
 C134 C 1.07001 -0.07960 0.44201
 C135 C 0.93494 -0.06902 0.56563
 C136 C 1.12855 0.11811 0.33913
 C137 C 1.14051 0.11827 0.38281
 C138 C 1.12087 0.08941 0.41111
 C139 C 1.17186 0.16973 0.28676
 C140 C 1.07647 0.06017 0.35220
 C141 C 1.09635 0.08920 0.32380
 C142 C 1.15120 0.14645 0.31019
 C143 C 1.08886 0.05978 0.39613
 H144 H 1.16549 0.14040 0.39494
 H145 H 1.13109 0.09018 0.44475
 H146 H 1.05183 0.03788 0.33978
 H147 H 1.08702 0.08878 0.28991
 C148 C 0.84712 -0.12792 0.34548
 C149 C 0.87890 -0.14913 0.37039
 C150 C 0.89821 -0.12883 0.40618
 C151 C 0.82443 -0.15962 0.26896
 C152 C 0.85176 -0.06698 0.39433
 C153 C 0.83255 -0.08734 0.35828
 C154 C 0.83373 -0.14565 0.30432
 C155 C 0.88604 -0.08694 0.41752
 H156 H 0.89053 -0.18043 0.36079
 H157 H 0.92463 -0.14490 0.42344
 H158 H 0.84215 -0.03456 0.40205
 H159 H 0.80810 -0.07053 0.33908
 C160 C 0.85757 0.11735 0.67613
 C161 C 0.85577 0.12171 0.63112
 C162 C 0.87983 0.09400 0.60469
 C163 C 0.81244 0.16846 0.72769
 C164 C 0.90720 0.05722 0.66827
 C165 C 0.88315 0.08492 0.69459
 C166 C 0.83300 0.14571 0.70363
 C167 C 0.90602 0.06165 0.62307
 H168 H 0.83592 0.14659 0.61647
 H169 H 0.87830 0.09815 0.56997
 H170 H 0.92695 0.03256 0.68336
 H171 H 0.88462 0.08113 0.72938
 C172 C 1.13025 -0.13739 0.67352
 C173 C 1.14035 -0.14069 0.62959
 C174 C 1.12034 -0.11329 0.59984
 C175 C 1.17022 -0.18602 0.73114
 C176 C 1.07992 -0.07932 0.65797
 C177 C 1.09994 -0.10678 0.68765
 C178 C 1.15192 -0.16442 0.70440
 C179 C 1.09008 -0.08218 0.61378
 H180 H 1.16387 -0.16421 0.61839
 H181 H 1.12874 -0.11630 0.56598
 H182 H 1.05665 -0.05581 0.66963
 H183 H 1.09203 -0.10395 0.72166
 C184 C 0.36105 1.14887 1.15843
 C185 C 0.37651 1.10927 1.17296
 C186 C 0.40206 1.08360 1.14576
 C187 C 0.29660 1.18788 1.19977
 C188 C 0.39859 1.13821 1.09042
 C189 C 0.37329 1.16381 1.11766
 C190 C 0.32735 1.17101 1.18207
 C191 C 0.41182 1.09720 1.10360
 H192 H 0.36686 1.09724 1.20434
 H193 H 0.41178 1.05216 1.15672
 H194 H 0.40587 1.14964 1.05821
 H195 H 0.36125 1.19424 1.10597
 C196 C 0.32068 0.85898 0.89882
 C197 C 0.30368 0.89661 0.91668
 C198 C 0.33239 0.92759 0.93402
 C199 C 0.26780 0.80958 0.85169
 C200 C 0.39508 0.88238 0.91757
 C201 C 0.36632 0.85149 0.90023
 C202 C 0.29200 0.83089 0.87437
 C203 C 0.37849 0.92132 0.93339
 H204 H 0.26839 0.90283 0.91552
 H205 H 0.31868 0.95714 0.94622
 H206 H 0.43042 0.87654 0.91683
 H207 H 0.37985 0.82262 0.88626
 C208 C 0.68131 0.89398 1.09620
 C209 C 0.63741 0.88133 1.10299
 C210 C 0.60276 0.90466 1.08490
 C211 C 0.74448 0.85409 1.13912
 C212 C 0.65592 0.95264 1.05163
 C213 C 0.69062 0.92922 1.06992
 C214 C 0.71626 0.87227 1.11871
 C215 C 0.61159 0.94112 1.05978
 H216 H 0.62990 0.85411 1.12330
 H217 H 0.56903 0.89479 1.09164
 H218 H 0.66375 0.98048 1.03235
 H219 H 0.72459 0.93924 1.06454
 C220 C 0.60676 1.15767 0.83197
 C221 C 0.59305 1.11775 0.81591
 C222 C 0.56383 1.09233 0.83977
 C223 C 0.68139 1.19184 0.80396
 C224 C 0.55904 1.14837 0.89382
 C225 C 0.58804 1.17375 0.86987
 C226 C 0.64607 1.17764 0.81517
 C227 C 0.54872 1.10648 0.88022
 H228 H 0.60765 1.10483 0.78679
 H229 H 0.55658 1.06017 0.82859
 H230 H 0.54766 1.16017 0.92475
 H231 H 0.59861 1.20445 0.88276
 C232 C 0.14573 0.35881 0.16095
 C233 C 0.16092 0.37067 0.12008
 C234 C 0.13519 0.39703 0.09378
 C235 C 0.18540 0.29514 0.20107
 C236 C 0.08007 0.40196 0.15022
 C237 C 0.10584 0.37538 0.17646
 C238 C 0.16799 0.32529 0.18399
 C239 C 0.09380 0.41175 0.10802
 H240 H 0.19160 0.35782 0.10766
 H241 H 0.14673 0.40420 0.06151
 H242 H 0.04832 0.41278 0.16201
 H243 H 0.09362 0.36610 0.20794
 C244 C -0.14352 0.32834 -0.11214
 C245 C -0.15327 0.37202 -0.11057
 C246 C -0.12512 0.40030 -0.08815
 C247 C -0.18999 0.27513 -0.16183
 C248 C -0.07831 0.34103 -0.06739
 C249 C -0.10652 0.31284 -0.08972
 C250 C -0.16957 0.29972 -0.13888
 C251 C -0.08670 0.38520 -0.06728
 H252 H -0.18181 0.38440 -0.12779
 H253 H -0.13241 0.43414 -0.08874
 H254 H -0.04908 0.32843 -0.05151
 H255 H -0.09866 0.27911 -0.09063
 C256 C 0.14840 0.61190 -0.16058
 C257 C 0.10587 0.60068 -0.17541
 C258 C 0.08003 0.57166 -0.15206
 C259 C 0.18461 0.68432 -0.18630
 C260 C 0.14077 0.56230 -0.10126
 C261 C 0.16655 0.59112 -0.12470
 C262 C 0.16934 0.65017 -0.17617
 C263 C 0.09643 0.55423 -0.11336
 H264 H 0.09138 0.61686 -0.20296
 H265 H 0.04596 0.56612 -0.16202
 H266 H 0.15430 0.54908 -0.07169
 H267 H 0.19931 0.59973 -0.11280
 C268 C -0.10801 0.67881 0.11440
 C269 C -0.11865 0.63679 0.12590
 C270 C -0.09672 0.60255 0.10657
 C271 C -0.14876 0.74364 0.15177
 C272 C -0.05391 0.65226 0.06342
 C273 C -0.07595 0.68645 0.08280
 C274 C -0.13000 0.71405 0.13501
 C275 C -0.06371 0.60991 0.07545
 H276 H -0.14357 0.63051 0.15016
 H277 H -0.10500 0.57037 0.11663
 H278 H -0.02875 0.65902 0.03955
 H279 H -0.06764 0.71886 0.07346
 C280 C 1.12042 0.15433 0.63555
 C281 C 1.07585 0.14477 0.64412
 C282 C 1.05274 0.11512 0.61827
 C283 C 1.16910 0.19763 0.69223
 C284 C 1.11818 0.10638 0.57408
 C285 C 1.14104 0.13606 0.59973
 C286 C 1.14654 0.17889 0.66591
 C287 C 1.07434 0.09453 0.58399
 H288 H 1.05964 0.15865 0.67193
 H289 H 1.01912 0.10633 0.62675
 H290 H 1.13554 0.09112 0.54772
 H291 H 1.17548 0.14316 0.59284
 C292 C 0.86826 -0.15066 0.65469
 C293 C 0.84365 -0.12771 0.62410
 C294 C 0.86532 -0.10412 0.59204
 C295 C 0.83032 -0.18108 0.72537
 C296 C 0.93621 -0.12855 0.61939
 C297 C 0.91449 -0.15216 0.65129
 C298 C 0.84697 -0.16822 0.69241
 C299 C 0.91195 -0.10288 0.59048
 H300 H 0.80787 -0.12615 0.62645
 H301 H 0.84571 -0.08448 0.57050
 H302 H 0.97213 -0.12817 0.61922
 H303 H 0.93396 -0.16967 0.67479
 C304 C 1.14608 -0.15702 0.35624
 C305 C 1.16760 -0.12823 0.38419
 C306 C 1.14312 -0.10488 0.41425
 C307 C 1.18781 -0.19256 0.29062
 C308 C 1.07581 -0.14053 0.38976
 C309 C 1.10035 -0.16387 0.35982
 C310 C 1.16979 -0.17668 0.32133
 C311 C 1.09676 -0.10988 0.41645
 H312 H 1.20297 -0.12260 0.38160
 H313 H 1.16020 -0.08144 0.43427
 H314 H 1.04019 -0.14507 0.39060
 H315 H 1.08337 -0.18603 0.33827
 C316 C 0.88163 0.13119 0.34574
 C317 C 0.91390 0.10244 0.33176
 C318 C 0.93583 0.07642 0.36152
 C319 C 0.83424 0.17169 0.28639
 C320 C 0.89498 0.10923 0.41995
 C321 C 0.87288 0.13519 0.39000
 C322 C 0.85574 0.15412 0.31413
 C323 C 0.92580 0.07872 0.40583
 H324 H 0.92104 0.09908 0.29764
 H325 H 0.95949 0.05337 0.34964
 H326 H 0.88636 0.11157 0.45380
 H327 H 0.84795 0.15731 0.40121
 C328 C 0.14486 0.36925 -0.16391
 C329 C 0.16006 0.38124 -0.12278
 C330 C 0.13325 0.40572 -0.09581
 C331 C 0.18581 0.30803 -0.20654
 C332 C 0.07689 0.40851 -0.15203
 C333 C 0.10378 0.38391 -0.17895
 C334 C 0.16827 0.33717 -0.18787
 C335 C 0.09073 0.41828 -0.10961
 H336 H 0.19165 0.36985 -0.11070
 H337 H 0.14491 0.41296 -0.06338
 H338 H 0.04435 0.41777 -0.16351
 H339 H 0.09156 0.37452 -0.21064
 C340 C -0.13221 0.32420 0.12018
 C341 C -0.09934 0.31024 0.09180
 C342 C -0.07421 0.33991 0.06859
 C343 C -0.17289 0.26804 0.17020
 C344 C -0.11613 0.39763 0.10060
 C345 C -0.14119 0.36788 0.12382
 C346 C -0.15485 0.29385 0.14725
 C347 C -0.08156 0.38401 0.07360
 H348 H -0.09220 0.27648 0.08862
 H349 H -0.04795 0.32839 0.04798
 H350 H -0.12259 0.43134 0.10522
 H351 H -0.16661 0.37904 0.14562
 C352 C -0.12379 0.66750 -0.11037
 C353 C -0.08455 0.67792 -0.08822
 C354 C -0.05945 0.64590 -0.06862
 C355 C -0.16551 0.72841 -0.15342
 C356 C -0.11363 0.59284 -0.09179
 C357 C -0.13867 0.62499 -0.11153
 C358 C -0.14725 0.70029 -0.13363
 C359 C -0.07325 0.60290 -0.07093
 H360 H -0.07273 0.71069 -0.08702
 H361 H -0.02862 0.65467 -0.05262
 H362 H -0.12504 0.56002 -0.09417
 H363 H -0.16902 0.61656 -0.12858
 C364 C 0.15350 0.62263 0.15834
 C365 C 0.17000 0.60584 0.11980
 C366 C 0.14408 0.57773 0.09512
 C367 C 0.19148 0.69186 0.19110
 C368 C 0.08643 0.58008 0.14928
 C369 C 0.11238 0.60854 0.17388
 C370 C 0.17512 0.65922 0.17750
 C371 C 0.10125 0.56612 0.10869
 H372 H 0.20161 0.61669 0.10735
 H373 H 0.15637 0.56727 0.06403
 H374 H 0.05344 0.57189 0.16028
 H375 H 0.09914 0.62167 0.20352
 C376 C 0.35066 1.14932 0.83484
 C377 C 0.36425 1.16300 0.87600
 C378 C 0.39096 1.13687 0.90172
 C379 C 0.28948 1.19359 0.79287
 C380 C 0.39241 1.08383 0.84446
 C381 C 0.36554 1.11004 0.81878
 C382 C 0.31824 1.17375 0.81112
 C383 C 0.40439 1.09650 0.88667
 H384 H 0.35287 1.19322 0.88888
 H385 H 0.39970 1.14759 0.93403
 H386 H 0.40217 1.05292 0.83202
 H387 H 0.35508 1.09899 0.78705
 C388 C 0.32393 0.86985 1.11171
 C389 C 0.36874 0.85999 1.10648
 C390 C 0.39658 0.88760 1.08363
 C391 C 0.27404 0.82169 1.16252
 C392 C 0.33450 0.93441 1.06945
 C393 C 0.30667 0.90670 1.09242
 C394 C 0.29649 0.84344 1.13892
 C395 C 0.38002 0.92567 1.06574
 H396 H 0.38249 0.83156 1.12116
 H397 H 0.43142 0.87984 1.08129
 H398 H 0.32074 0.96341 1.05604
 H399 H 0.27201 0.91466 1.09618
 C400 C 0.63440 1.14059 1.15705
 C401 C 0.61556 1.10178 1.17031
 C402 C 0.58460 1.08059 1.14370
 C403 C 0.70589 1.17364 1.19462
 C404 C 0.58967 1.13813 1.09167
 C405 C 0.62023 1.15933 1.11838
 C406 C 0.67232 1.15855 1.17934
 C407 C 0.57275 1.09781 1.10329
 H408 H 0.62651 1.08680 1.20002
 H409 H 0.57241 1.04943 1.15332
 H410 H 0.58112 1.15224 1.06080
 H411 H 0.63468 1.18924 1.10766
 C412 C 0.66806 0.88860 0.87959
 C413 C 0.62408 0.87411 0.88139
 C414 C 0.59138 0.89983 0.89976
 C415 C 0.72965 0.84182 0.84170
 C416 C 0.64669 0.95438 0.91541
 C417 C 0.67934 0.92860 0.89707
 C418 C 0.70145 0.86292 0.85902
 C419 C 0.60224 0.94051 0.91645
 H420 H 0.61495 0.84318 0.86806
 H421 H 0.55746 0.88824 0.90011
 H422 H 0.65613 0.98545 0.92816
 H423 H 0.71327 0.94011 0.89601
   
