data_POSCAR
  _audit_creation_date              2014-09-24
  _audit_creation_method            'ToBaCCo'
  _symmetry_space_group_name_H-M    'P1'
  _symmetry_Int_Tables_number       1
  _symmetry_cell_setting            triclinic
  loop_
  _symmetry_equiv_pos_as_xyz
 x,y,z
_cell_length_a 27.9008
_cell_length_b 23.1499
_cell_length_c 13.8791
_cell_angle_alpha 90.078200
_cell_angle_beta 89.818500
_cell_angle_gamma 90.066000
loop_
  _atom_site_label
  _atom_site_type_symbol
  _atom_site_fract_x
  _atom_site_fract_y
  _atom_site_fract_z
O1 O 0.73610 0.32167 0.59053
 O2 O 0.81227 0.25528 0.40379
 O3 O 0.73610 0.32132 0.40392
 O4 O 0.81216 0.25561 0.59053
 O5 O 0.76577 0.17808 0.59094
 O6 O 0.68973 0.24378 0.40434
 O7 O 0.76590 0.17775 0.40421
 O8 O 0.68971 0.24413 0.59094
 Cu9 Cu 0.77885 0.29628 0.49711
 Cu10 Cu 0.72312 0.20311 0.49762
 C11 C 0.69966 0.29444 0.62122
 C12 C 0.80236 0.20495 0.37352
 C13 C 0.69965 0.29402 0.37375
 C14 C 0.80216 0.20543 0.62130
 O15 O 0.23479 0.82246 0.59554
 O16 O 0.31097 0.75579 0.40885
 O17 O 0.23520 0.82232 0.40883
 O18 O 0.31066 0.75595 0.59545
 O19 O 0.26397 0.67869 0.59541
 O20 O 0.18849 0.74507 0.40879
 O21 O 0.26426 0.67854 0.40881
 O22 O 0.18809 0.74522 0.59551
 Cu23 Cu 0.27760 0.79693 0.50221
 Cu24 Cu 0.22148 0.70410 0.50216
 C25 C 0.19817 0.79546 0.62600
 C26 C 0.30086 0.70557 0.37834
 C27 C 0.19873 0.79523 0.37828
 C28 C 0.30049 0.70574 0.62579
 O29 O 0.18741 0.25507 -0.40645
 O30 O 0.26328 0.32145 -0.59370
 O31 O 0.18713 0.25531 -0.59330
 O32 O 0.26345 0.32151 -0.40711
 O33 O 0.30987 0.24414 -0.40791
 O34 O 0.23353 0.17793 -0.59405
 O35 O 0.30966 0.24404 -0.59447
 O36 O 0.23384 0.17772 -0.40724
 Cu37 Cu 0.22062 0.29612 -0.50004
 Cu38 Cu 0.27637 0.20313 -0.50097
 C39 C 0.19745 0.20485 -0.37620
 C40 C 0.29968 0.29429 -0.62462
 C41 C 0.19709 0.20512 -0.62422
 C42 C 0.29996 0.29438 -0.37719
 O43 O -0.23562 0.82161 -0.59079
 O44 O -0.31191 0.75481 -0.40452
 O45 O -0.23591 0.82143 -0.40419
 O46 O -0.31149 0.75512 -0.59123
 O47 O -0.26491 0.67788 -0.59163
 O48 O -0.18935 0.74418 -0.40460
 O49 O -0.26535 0.67758 -0.40493
 O50 O -0.18904 0.74437 -0.59119
 Cu51 Cu -0.27844 0.79602 -0.49757
 Cu52 Cu -0.22248 0.70320 -0.49806
 C53 C -0.19908 0.79459 -0.62145
 C54 C -0.30194 0.70454 -0.37437
 C55 C -0.19942 0.79438 -0.37400
 C56 C -0.30131 0.70499 -0.62207
 N57 N 0.05110 1.10304 -0.10407
 N58 N 0.08388 1.14257 -0.12394
 N59 N -0.04962 1.06230 -0.17010
 N60 N -0.08225 1.07280 -0.23633
 N61 N -0.04972 1.10302 -0.10407
 N62 N -0.08247 1.14245 -0.12379
 N63 N 0.05108 1.06237 -0.17019
 N64 N 0.08381 1.07300 -0.23661
 C65 C 0.10431 1.12257 -0.20597
 C66 C -0.10278 1.12236 -0.20569
 N67 N -0.04981 0.89752 -0.10330
 N68 N -0.08296 0.85829 -0.12199
 N69 N 0.05105 0.93802 -0.16989
 N70 N 0.08389 0.92731 -0.23607
 N71 N 0.05102 0.89758 -0.10358
 N72 N 0.08389 0.85813 -0.12305
 N73 N -0.04969 0.93793 -0.16965
 N74 N -0.08272 0.92741 -0.23516
 Mn75 Mn 0.00070 1.00015 -0.17076
 C76 C -0.10347 0.87816 -0.20366
 C77 C 0.10441 0.87792 -0.20510
 N78 N -0.05002 1.10333 0.10406
 N79 N -0.08300 1.14267 0.12325
 N80 N 0.05059 1.06293 0.17045
 N81 N 0.08316 1.07369 0.23677
 N82 N 0.05082 1.10342 0.10420
 N83 N 0.08359 1.14296 0.12392
 N84 N -0.05010 1.06287 0.17034
 N85 N -0.08310 1.07346 0.23624
 Mn86 Mn 0.00055 1.10385 0.00003
 C87 C -0.10364 1.12279 0.20510
 C88 C 0.10379 1.12316 0.20601
 N89 N 0.05071 0.89798 0.10452
 N90 N 0.08358 0.85866 0.12396
 N91 N -0.05017 0.93852 0.17072
 N92 N -0.08305 0.92797 0.23688
 N93 N -0.05009 0.89783 0.10465
 N94 N -0.08298 0.85838 0.12425
 N95 N 0.05054 0.93862 0.17068
 N96 N 0.08326 0.92817 0.23675
 Mn97 Mn 0.00047 0.89709 0.00057
 Mn98 Mn 0.00021 1.00074 0.17134
 Cl99 Cl 0.00049 1.00047 0.00029
 C100 C 0.10390 0.87874 0.20583
 C101 C -0.10356 0.87842 0.20612
 N102 N 0.55027 0.43764 -0.17162
 N103 N 0.58326 0.42724 -0.23762
 N104 N 0.44942 0.39712 -0.10512
 N105 N 0.41639 0.35782 -0.12442
 N106 N 0.44954 0.43774 -0.17113
 N107 N 0.41665 0.42729 -0.23696
 N108 N 0.55024 0.39704 -0.10559
 N109 N 0.58325 0.35779 -0.12502
 C110 C 0.60384 0.37786 -0.20678
 C111 C 0.39595 0.37786 -0.20606
 N112 N 0.44947 0.43738 0.16934
 N113 N 0.41638 0.42696 0.23514
 N114 N 0.55021 0.39676 0.10246
 N115 N 0.58319 0.35744 0.12125
 N116 N 0.55019 0.43722 0.16892
 N117 N 0.58311 0.42666 0.23454
 N118 N 0.44937 0.39691 0.10289
 N119 N 0.41618 0.35773 0.12185
 Mn120 Mn 0.49981 0.39631 -0.00134
 C121 C 0.39562 0.37771 0.20375
 C122 C 0.60371 0.37731 0.20307
 N123 N 0.44979 0.56212 -0.17033
 N124 N 0.41676 0.57265 -0.23574
 N125 N 0.55065 0.60246 -0.10451
 N126 N 0.58362 0.64185 -0.12389
 N127 N 0.55051 0.56201 -0.17100
 N128 N 0.58336 0.57267 -0.23721
 N129 N 0.44982 0.60256 -0.10385
 N130 N 0.41678 0.64183 -0.12237
 Mn131 Mn 0.50003 0.49988 -0.17185
 C132 C 0.39617 0.62194 -0.20406
 C133 C 0.60404 0.62204 -0.20607
 N134 N 0.55039 0.56155 0.16960
 N135 N 0.58315 0.57204 0.23564
 N136 N 0.44975 0.60235 0.10415
 N137 N 0.41691 0.64177 0.12389
 N138 N 0.44969 0.56172 0.17013
 N139 N 0.41684 0.57227 0.23639
 N140 N 0.55056 0.60217 0.10360
 N141 N 0.58348 0.64154 0.12314
 Mn142 Mn 0.49993 0.49946 0.17031
 Mn143 Mn 0.50020 0.60303 -0.00016
 Cl144 Cl 0.50000 0.49967 -0.00076
 C145 C 0.60382 0.62149 0.20487
 C146 C 0.39637 0.62178 0.20577
 C147 C 0.33171 0.32223 0.30925
 C148 C 0.36016 0.34694 0.25842
 C149 C -0.16706 0.82264 0.31239
 C150 C -0.13876 0.84747 0.26131
 C151 C 0.66696 0.67714 0.31140
 C152 C 0.63885 0.65239 0.26011
 C153 C 0.16686 1.17883 0.31302
 C154 C 0.13875 1.15417 0.26146
 C155 C 0.66759 0.32237 -0.31267
 C156 C 0.63919 0.34710 -0.26174
 C157 C 0.16783 0.82205 -0.31151
 C158 C 0.13957 0.84688 -0.26028
 C159 C 0.33244 0.67768 -0.30857
 C160 C 0.36081 0.65284 -0.25821
 C161 C -0.16595 1.17778 -0.31229
 C162 C -0.13780 1.15319 -0.26101
 C163 C 0.66763 0.67788 -0.31214
 C164 C 0.63930 0.65302 -0.26112
 C165 C 0.16730 1.17840 -0.31327
 C166 C 0.13925 1.15361 -0.26161
 C167 C 0.33213 0.32233 -0.31146
 C168 C 0.36058 0.34707 -0.26080
 C169 C -0.16738 0.82246 -0.30832
 C170 C -0.13893 0.84730 -0.25791
 C171 C 0.33287 0.67752 0.31214
 C172 C 0.36117 0.65269 0.26104
 C173 C -0.16726 1.17847 0.31110
 C174 C -0.13892 1.15372 0.26001
 C175 C 0.66753 0.32181 0.30797
 C176 C 0.63909 0.34648 0.25743
 C177 C 0.16701 0.82314 0.31202
 C178 C 0.13891 0.84789 0.26093
   
