data_POSCAR
  _audit_creation_date              2014-09-24
  _audit_creation_method            'ToBaCCo'
  _symmetry_space_group_name_H-M    'P1'
  _symmetry_Int_Tables_number       1
  _symmetry_cell_setting            triclinic
  loop_
  _symmetry_equiv_pos_as_xyz
 x,y,z
_cell_length_a 34.5862
_cell_length_b 42.1974
_cell_length_c 35.4769
_cell_angle_alpha 90.373200
_cell_angle_beta 88.049600
_cell_angle_gamma 84.427600
loop_
  _atom_site_label
  _atom_site_type_symbol
  _atom_site_fract_x
  _atom_site_fract_y
  _atom_site_fract_z
C1 C 1.22915 0.21969 0.20015
 C2 C 1.24861 0.24444 0.17646
 C3 C 1.26845 0.26456 0.19711
 C4 C 1.26720 0.25791 0.23990
 C5 C 1.26213 0.20284 0.22229
 C6 C 1.28178 0.22250 0.24327
 C7 C 1.20398 0.23985 0.22943
 C8 C 1.22348 0.25961 0.25066
 H9 H 1.24646 0.24670 0.14630
 H10 H 1.28381 0.27372 0.25688
 H11 H 1.26818 0.17715 0.22273
 H12 H 1.17269 0.23965 0.23130
 C13 C 0.73382 -0.28296 0.19754
 C14 C 0.75313 -0.25846 0.17336
 C15 C 0.77249 -0.23779 0.19364
 C16 C 0.77112 -0.24377 0.23654
 C17 C 0.76683 -0.29920 0.22024
 C18 C 0.78599 -0.27899 0.24102
 C19 C 0.70828 -0.26251 0.22633
 C20 C 0.72749 -0.24231 0.24719
 H21 H 0.75100 -0.25660 0.14317
 H22 H 0.78744 -0.22750 0.25316
 H23 H 0.77216 -0.32486 0.22232
 H24 H 0.67707 -0.26321 0.22854
 C25 C 0.73335 0.21824 -0.30358
 C26 C 0.75147 0.24215 -0.32574
 C27 C 0.77190 0.26366 -0.30370
 C28 C 0.77050 0.25606 -0.26303
 C29 C 0.76533 0.20203 -0.28359
 C30 C 0.78545 0.22235 -0.26033
 C31 C 0.70907 0.23650 -0.27516
 C32 C 0.72898 0.25740 -0.25233
 H33 H 0.75554 0.24066 -0.35593
 H34 H 0.78690 0.27121 -0.24544
 H35 H 0.77088 0.17630 -0.28338
 H36 H 0.67769 0.23717 -0.27510
 C37 C 1.23556 -0.28103 -0.30017
 C38 C 1.25457 -0.25625 -0.32414
 C39 C 1.27370 -0.23555 -0.30365
 C40 C 1.27234 -0.24173 -0.26078
 C41 C 1.26872 -0.29714 -0.27763
 C42 C 1.28765 -0.27690 -0.25670
 C43 C 1.20978 -0.26093 -0.27127
 C44 C 1.22867 -0.24062 -0.25024
 H45 H 1.25272 -0.25442 -0.35437
 H46 H 1.28844 -0.22541 -0.24400
 H47 H 1.27464 -0.32279 -0.27607
 H48 H 1.17858 -0.26172 -0.26938
 C49 C 0.22316 0.23212 0.80397
 C50 C 0.24931 0.25058 0.82410
 C51 C 0.27268 0.26937 0.80051
 C52 C 0.26535 0.26541 0.76025
 C53 C 0.19927 0.25700 0.78056
 C54 C 0.22124 0.27410 0.75726
 C55 C 0.24891 0.21225 0.77495
 C56 C 0.27085 0.22944 0.75192
 H57 H 0.25032 0.25018 0.85448
 H58 H 0.28227 0.27927 0.74044
 H59 H 0.16793 0.26108 0.78211
 H60 H 0.24875 0.18667 0.77215
 C61 C 0.71804 0.73453 0.80687
 C62 C 0.73900 0.75802 0.82595
 C63 C 0.76257 0.77577 0.80105
 C64 C 0.75960 0.76638 0.76107
 C65 C 0.69538 0.75322 0.77949
 C66 C 0.71770 0.77109 0.75386
 C67 C 0.74757 0.71490 0.78508
 C68 C 0.77049 0.73189 0.75948
 H69 H 0.73633 0.76241 0.85588
 H70 H 0.77758 0.77956 0.74181
 H71 H 0.66413 0.75349 0.77915
 H72 H 0.74980 0.68910 0.78596
 C73 C 0.72479 0.23286 0.30340
 C74 C 0.74969 0.25368 0.32605
 C75 C 0.77138 0.27246 0.30458
 C76 C 0.76670 0.26833 0.26183
 C77 C 0.70080 0.25692 0.27907
 C78 C 0.72262 0.27516 0.25697
 C79 C 0.75312 0.21420 0.27560
 C80 C 0.77477 0.23247 0.25365
 H81 H 0.74724 0.25588 0.35648
 H82 H 0.78461 0.28338 0.24420
 H83 H 0.66939 0.25928 0.27903
 H84 H 0.75404 0.18861 0.27188
 C85 C 0.22106 0.73207 0.30314
 C86 C 0.24845 0.75221 0.32383
 C87 C 0.27002 0.76995 0.30075
 C88 C 0.26249 0.76546 0.25847
 C89 C 0.19680 0.75654 0.27957
 C90 C 0.21829 0.77368 0.25582
 C91 C 0.24707 0.71224 0.27440
 C92 C 0.26859 0.72939 0.25096
 H93 H 0.24895 0.75364 0.35426
 H94 H 0.27993 0.77957 0.23925
 H95 H 0.16539 0.75992 0.28119
 H96 H 0.24752 0.68657 0.27215
 N97 N 1.06437 0.02264 0.03960
 N98 N 1.09039 0.04292 0.04505
 N99 N 1.03114 -0.03987 0.06467
 N100 N 1.03826 -0.06052 0.09203
 N101 N 1.05908 -0.04329 0.03851
 N102 N 1.08569 -0.06629 0.04731
 N103 N 1.03648 0.02616 0.06570
 N104 N 1.04279 0.04894 0.08976
 C105 C 1.07653 0.05922 0.07641
 C106 C 1.07210 -0.07720 0.08046
 N107 N 0.92143 -0.02432 0.03715
 N108 N 0.89483 -0.04455 0.04163
 N109 N 0.95341 0.03773 0.06470
 N110 N 0.94946 0.06164 0.08906
 N111 N 0.92752 0.04185 0.03850
 N112 N 0.90496 0.06865 0.04463
 N113 N 0.94719 -0.02828 0.06353
 N114 N 0.93868 -0.05114 0.08672
 Mn115 Mn 0.99194 -0.00113 0.06506
 C116 C 0.90594 -0.06113 0.07270
 C117 C 0.91923 0.08083 0.07620
 N118 N 1.06309 -0.04296 -0.04261
 N119 N 1.08940 -0.06698 -0.05083
 N120 N 1.04286 0.02653 -0.06773
 N121 N 1.05013 0.05081 -0.08927
 N122 N 1.06813 0.02280 -0.04099
 N123 N 1.09320 0.04432 -0.04347
 N124 N 1.03715 -0.03964 -0.06882
 N125 N 1.04486 -0.06161 -0.09538
 Mn126 Mn 1.06395 -0.01027 -0.00139
 C127 C 1.07732 -0.07866 -0.08353
 C128 C 1.08174 0.06158 -0.07376
 N129 N 0.93141 0.04223 -0.04336
 N130 N 0.90848 0.06832 -0.05058
 N131 N 0.95361 -0.02801 -0.06999
 N132 N 0.94682 -0.04997 -0.09493
 N133 N 0.92514 -0.02404 -0.04443
 N134 N 0.89820 -0.04327 -0.05135
 N135 N 0.95974 0.03790 -0.06902
 N136 N 0.95693 0.06073 -0.09419
 Mn137 Mn 0.92581 0.00905 -0.00300
 Mn138 Mn 0.99834 -0.00087 -0.06928
 Cl139 Cl 0.99493 -0.00091 -0.00215
 C140 C 0.92507 0.07975 -0.08233
 C141 C 0.91219 -0.05941 -0.08291
 N142 N 1.06656 0.52266 0.54304
 N143 N 1.09300 0.54269 0.54780
 N144 N 1.03295 0.46037 0.56854
 N145 N 1.04050 0.43951 0.59555
 N146 N 1.06024 0.45693 0.54174
 N147 N 1.08684 0.43368 0.54977
 N148 N 1.03953 0.52617 0.56998
 N149 N 1.04686 0.54871 0.59392
 C150 C 1.08030 0.55882 0.57962
 C151 C 1.07389 0.42266 0.58310
 N152 N 0.92223 0.47787 0.54489
 N153 N 0.89493 0.45838 0.55026
 N154 N 0.95655 0.53878 0.57170
 N155 N 0.95324 0.56183 0.59715
 N156 N 0.93005 0.54388 0.54622
 N157 N 0.90776 0.57061 0.55395
 N158 N 0.94903 0.47292 0.57012
 N159 N 0.94065 0.44999 0.59332
 Mn160 Mn 0.99443 0.49946 0.57047
 C161 C 0.90677 0.44109 0.58059
 C162 C 0.92289 0.58167 0.58577
 N163 N 1.06186 0.45770 0.46072
 N164 N 1.08796 0.43379 0.45145
 N165 N 1.04195 0.52732 0.43632
 N166 N 1.04893 0.55152 0.41451
 N167 N 1.06793 0.52339 0.46238
 N168 N 1.09323 0.54472 0.45917
 N169 N 1.03507 0.46130 0.43535
 N170 N 1.04207 0.43967 0.40827
 Mn171 Mn 1.06443 0.49013 0.50196
 C172 C 1.07493 0.42247 0.41898
 C173 C 1.08112 0.56205 0.42911
 N174 N 0.93146 0.54437 0.46416
 N175 N 0.90838 0.57042 0.45717
 N176 N 0.95135 0.47409 0.43696
 N177 N 0.94374 0.45157 0.41305
 N178 N 0.92387 0.47842 0.46349
 N179 N 0.89699 0.45878 0.45849
 N180 N 0.95898 0.53970 0.43773
 N181 N 0.95559 0.56235 0.41237
 Mn182 Mn 0.92635 0.51131 0.50470
 Mn183 Mn 0.99680 0.50051 0.43619
 Cl184 Cl 0.99542 0.50026 0.50334
 C185 C 0.92417 0.58155 0.42487
 C186 C 0.90974 0.44218 0.42691
 N187 N 0.56768 0.02274 0.53800
 N188 N 0.59332 0.04340 0.54307
 N189 N 0.53540 -0.03994 0.56378
 N190 N 0.54230 -0.06077 0.59097
 N191 N 0.56336 -0.04336 0.53764
 N192 N 0.58981 -0.06656 0.54629
 N193 N 0.53978 0.02624 0.56409
 N194 N 0.54579 0.04935 0.58784
 C195 C 0.57929 0.05989 0.57423
 C196 C 0.57607 -0.07755 0.57934
 N197 N 0.42566 -0.02584 0.53614
 N198 N 0.39911 -0.04601 0.54111
 N199 N 0.45647 0.03691 0.56299
 N200 N 0.45142 0.06067 0.58755
 N201 N 0.43049 0.04040 0.53678
 N202 N 0.40680 0.06653 0.54312
 N203 N 0.45136 -0.02925 0.56263
 N204 N 0.44282 -0.05172 0.58640
 Mn205 Mn 0.49565 -0.00156 0.56380
 C206 C 0.41017 -0.06204 0.57256
 C207 C 0.42047 0.07907 0.57477
 N208 N 0.56732 -0.04361 0.45647
 N209 N 0.59336 -0.06795 0.44875
 N210 N 0.54616 0.02559 0.43073
 N211 N 0.55306 0.04981 0.40893
 N212 N 0.57145 0.02229 0.45748
 N213 N 0.59612 0.04411 0.45482
 N214 N 0.54130 -0.04063 0.43032
 N215 N 0.54860 -0.06312 0.40436
 Mn216 Mn 0.56776 -0.01057 0.49739
 C217 C 0.58095 -0.08012 0.41643
 C218 C 0.58442 0.06103 0.42436
 N219 N 0.43440 0.04014 0.45489
 N220 N 0.41113 0.06600 0.44754
 N221 N 0.45794 -0.02993 0.42904
 N222 N 0.45203 -0.05258 0.40468
 N223 N 0.42945 -0.02625 0.45459
 N224 N 0.40333 -0.04634 0.44821
 N225 N 0.46303 0.03618 0.42951
 N226 N 0.46027 0.05918 0.40455
 Mn227 Mn 0.42946 0.00721 0.49563
 Mn228 Mn 0.50210 -0.00224 0.42951
 Cl229 Cl 0.49866 -0.00187 0.49661
 C230 C 0.42797 0.07778 0.41615
 C231 C 0.41787 -0.06269 0.41699
 N232 N 0.56713 0.52079 0.03859
 N233 N 0.59301 0.54112 0.04418
 N234 N 0.53522 0.45783 0.06326
 N235 N 0.54268 0.43712 0.09043
 N236 N 0.56310 0.45481 0.03699
 N237 N 0.59009 0.43204 0.04563
 N238 N 0.53931 0.52399 0.06479
 N239 N 0.54561 0.54660 0.08911
 C240 C 0.57920 0.55712 0.07572
 C241 C 0.57670 0.42085 0.07871
 N242 N 0.42545 0.47169 0.03639
 N243 N 0.39869 0.45170 0.04142
 N244 N 0.45584 0.53441 0.06433
 N245 N 0.45064 0.55789 0.08930
 N246 N 0.42974 0.53803 0.03827
 N247 N 0.40584 0.56397 0.04506
 N248 N 0.45119 0.46811 0.06280
 N249 N 0.44249 0.44569 0.08659
 Mn250 Mn 0.49532 0.49605 0.06422
 C251 C 0.40969 0.43554 0.07280
 C252 C 0.41945 0.57625 0.07688
 N253 N 0.56692 0.45564 -0.04429
 N254 N 0.59323 0.43163 -0.05275
 N255 N 0.54499 0.52544 -0.06833
 N256 N 0.55091 0.55056 -0.08897
 N257 N 0.57063 0.52170 -0.04193
 N258 N 0.59468 0.54406 -0.04381
 N259 N 0.54088 0.45904 -0.07039
 N260 N 0.54852 0.43721 -0.09710
 Mn261 Mn 0.56725 0.48813 -0.00267
 C262 C 0.58106 0.42010 -0.08554
 C263 C 0.58217 0.56183 -0.07338
 N264 N 0.43348 0.53890 -0.04340
 N265 N 0.41023 0.56499 -0.04968
 N266 N 0.45741 0.46934 -0.07094
 N267 N 0.45184 0.44670 -0.09542
 N268 N 0.42912 0.47244 -0.04515
 N269 N 0.40351 0.45189 -0.05143
 N270 N 0.46180 0.53544 -0.06912
 N271 N 0.45871 0.55893 -0.09343
 Mn272 Mn 0.42891 0.50534 -0.00347
 Mn273 Mn 0.50127 0.49728 -0.07009
 Cl274 Cl 0.49812 0.49660 -0.00297
 C275 C 0.42661 0.57735 -0.08093
 C276 C 0.41812 0.43597 -0.08291
 C277 C 1.16051 0.15246 0.14775
 C278 C 1.16264 0.15401 0.18706
 C279 C 1.18531 0.17555 0.20320
 C280 C 1.20581 0.19598 0.18061
 C281 C 1.20367 0.19305 0.14120
 N282 N 1.18148 0.17160 0.12606
 C283 C 1.13719 0.12960 0.12947
 N284 N 1.14910 0.11730 0.09498
 C285 C 1.12984 0.09523 0.07728
 C286 C 1.09649 0.08434 0.09442
 C287 C 1.08302 0.09738 0.12939
 C288 C 1.10326 0.12000 0.14701
 H289 H 1.18678 0.17641 0.23364
 H290 H 1.21948 0.20732 0.12218
 H291 H 1.14085 0.08600 0.05004
 H292 H 1.05715 0.08986 0.14333
 H293 H 1.14762 0.13837 0.20524
 H294 H 1.09226 0.12993 0.17392
 C295 C 1.16714 0.65103 0.64884
 C296 C 1.17064 0.65216 0.68801
 C297 C 1.19342 0.67383 0.70365
 C298 C 1.21276 0.69474 0.68067
 C299 C 1.20940 0.69214 0.64137
 N300 N 1.18704 0.67060 0.62672
 C301 C 1.14321 0.62837 0.63116
 N302 N 1.15396 0.61631 0.59629
 C303 C 1.13396 0.59447 0.57906
 C304 C 1.10106 0.58364 0.59713
 C305 C 1.08879 0.59645 0.63253
 C306 C 1.10976 0.61882 0.64964
 H307 H 1.19573 0.67453 0.73402
 H308 H 1.22416 0.70690 0.62207
 H309 H 1.14402 0.58541 0.55147
 H310 H 1.06330 0.58895 0.64718
 H311 H 1.15644 0.63620 0.70645
 H312 H 1.09968 0.62860 0.67690
 C313 C 0.66406 0.15308 0.64448
 C314 C 0.67060 0.15157 0.68311
 C315 C 0.69378 0.17271 0.69921
 C316 C 0.71090 0.19585 0.67730
 C317 C 0.70347 0.19629 0.63832
 N318 N 0.68091 0.17506 0.62326
 C319 C 0.64022 0.13055 0.62635
 N320 N 0.65015 0.11983 0.59074
 C321 C 0.63062 0.09778 0.57330
 C322 C 0.59906 0.08529 0.59190
 C323 C 0.58749 0.09682 0.62806
 C324 C 0.60804 0.11937 0.64542
 H325 H 0.69820 0.17119 0.72928
 H326 H 0.71470 0.21336 0.61947
 H327 H 0.64006 0.08977 0.54513
 H328 H 0.56308 0.08798 0.64318
 H329 H 0.65848 0.13389 0.70073
 H330 H 0.59879 0.12797 0.67342
 C331 C 0.66464 0.64952 0.14662
 C332 C 0.66763 0.65097 0.18583
 C333 C 0.69066 0.67248 0.20150
 C334 C 0.71069 0.69295 0.17849
 C335 C 0.70775 0.69005 0.13918
 N336 N 0.68519 0.66866 0.12453
 C337 C 0.64089 0.62680 0.12871
 N338 N 0.65184 0.61512 0.09373
 C339 C 0.63217 0.59331 0.07609
 C340 C 0.59934 0.58207 0.09381
 C341 C 0.58680 0.59447 0.12935
 C342 C 0.60748 0.61683 0.14690
 H343 H 0.69266 0.67339 0.23189
 H344 H 0.72307 0.70439 0.11983
 H345 H 0.64246 0.58459 0.04843
 H346 H 0.56136 0.58660 0.14373
 H347 H 0.65295 0.63533 0.20430
 H348 H 0.59722 0.62630 0.17425
 C349 C 0.82457 -0.16079 0.14026
 C350 C 0.78822 -0.16893 0.12889
 C351 C 0.77131 -0.19385 0.14651
 C352 C 0.78999 -0.21061 0.17584
 C353 C 0.82548 -0.20109 0.18743
 N354 N 0.84175 -0.17694 0.16946
 C355 C 0.84469 -0.13506 0.12176
 N356 N 0.87526 -0.12381 0.13906
 C357 C 0.89529 -0.10045 0.12396
 C358 C 0.88480 -0.08681 0.08934
 C359 C 0.85374 -0.09816 0.07076
 C360 C 0.83384 -0.12233 0.08662
 H361 H 0.74328 -0.19977 0.13743
 H362 H 0.84075 -0.21333 0.21006
 H363 H 0.91922 -0.09245 0.13914
 H364 H 0.84503 -0.08856 0.04377
 H365 H 0.77243 -0.15623 0.10701
 H366 H 0.81076 -0.13099 0.07091
 C367 C 0.82578 0.34015 0.64606
 C368 C 0.79880 0.32450 0.62619
 C369 C 0.78117 0.29957 0.64292
 C370 C 0.79028 0.28926 0.67965
 C371 C 0.81786 0.30564 0.69847
 N372 N 0.83466 0.33001 0.68138
 C373 C 0.84544 0.36683 0.62913
 N374 N 0.88013 0.37382 0.64253
 C375 C 0.90007 0.39744 0.62778
 C376 C 0.88526 0.41568 0.59757
 C377 C 0.84932 0.40928 0.58375
 C378 C 0.82927 0.38515 0.59950
 H379 H 0.75950 0.28924 0.62684
 H380 H 0.82732 0.29882 0.72617
 H381 H 0.92760 0.40176 0.63947
 H382 H 0.83657 0.42301 0.56082
 H383 H 0.79143 0.33096 0.59770
 H384 H 0.80121 0.38138 0.58871
 C385 C 0.32710 -0.15953 0.64253
 C386 C 0.29038 -0.16705 0.63151
 C387 C 0.27296 -0.19159 0.64938
 C388 C 0.29151 -0.20851 0.67865
 C389 C 0.32731 -0.19949 0.69003
 N390 N 0.34410 -0.17574 0.67177
 C391 C 0.34781 -0.13443 0.62347
 N392 N 0.37833 -0.12301 0.64068
 C393 C 0.39880 -0.10016 0.62498
 C394 C 0.38881 -0.08729 0.58984
 C395 C 0.35787 -0.09891 0.57134
 C396 C 0.33754 -0.12254 0.58781
 H397 H 0.24472 -0.19715 0.64049
 H398 H 0.34246 -0.21188 0.71262
 H399 H 0.42264 -0.09194 0.64010
 H400 H 0.34955 -0.08992 0.54396
 H401 H 0.27473 -0.15417 0.60966
 H402 H 0.31458 -0.13148 0.57217
 C403 C 0.32422 0.33957 0.14342
 C404 C 0.28706 0.33295 0.13262
 C405 C 0.26887 0.30881 0.15051
 C406 C 0.28704 0.29136 0.17960
 C407 C 0.32332 0.29953 0.19081
 N408 N 0.34086 0.32291 0.17253
 C409 C 0.34571 0.36418 0.12419
 N410 N 0.37658 0.37518 0.14129
 C411 C 0.39762 0.39763 0.12543
 C412 C 0.38790 0.41054 0.09022
 C413 C 0.35665 0.39930 0.07183
 C414 C 0.33574 0.37608 0.08845
 H415 H 0.24033 0.30394 0.14173
 H416 H 0.33822 0.28673 0.21326
 H417 H 0.42168 0.40554 0.14049
 H418 H 0.34849 0.40830 0.04440
 H419 H 0.27169 0.34624 0.11091
 H420 H 0.31255 0.36744 0.07287
 C421 C 0.85524 0.17586 -0.17878
 C422 C 0.83531 0.20569 -0.16977
 C423 C 0.81433 0.22267 -0.19760
 C424 C 0.81204 0.20930 -0.23388
 C425 C 0.83429 0.18016 -0.24188
 N426 N 0.85488 0.16457 -0.21468
 C427 C 0.87544 0.15519 -0.15067
 N428 N 0.90697 0.13549 -0.16265
 C429 C 0.92420 0.11256 -0.14048
 C430 C 0.90875 0.10738 -0.10420
 C431 C 0.87671 0.12780 -0.09074
 C432 C 0.86012 0.15196 -0.11383
 H433 H 0.79765 0.24488 -0.18969
 H434 H 0.83519 0.16948 -0.26975
 H435 H 0.94899 0.09752 -0.15196
 H436 H 0.86396 0.12458 -0.06290
 H437 H 0.83544 0.21550 -0.14151
 H438 H 0.83444 0.16671 -0.10376
 C439 C 0.85355 0.67629 0.32715
 C440 C 0.82671 0.70255 0.33659
 C441 C 0.80641 0.71885 0.30799
 C442 C 0.81265 0.70879 0.27033
 C443 C 0.84114 0.68361 0.26197
 N444 N 0.86048 0.66817 0.29016
 C445 C 0.87309 0.65570 0.35580
 N446 N 0.90707 0.63839 0.34554
 C447 C 0.92467 0.61596 0.36811
 C448 C 0.90733 0.60892 0.40301
 C449 C 0.87279 0.62697 0.41482
 C450 C 0.85560 0.65050 0.39133
 H451 H 0.78440 0.73811 0.31545
 H452 H 0.84688 0.67538 0.23317
 H453 H 0.95147 0.60278 0.35799
 H454 H 0.85847 0.62221 0.44151
 H455 H 0.82090 0.71004 0.36563
 H456 H 0.82803 0.66315 0.40012
 C457 C 0.35767 0.17442 0.32044
 C458 C 0.36555 0.17063 0.28145
 C459 C 0.34210 0.18797 0.25618
 C460 C 0.31124 0.20946 0.26952
 C461 C 0.30538 0.21387 0.30857
 N462 N 0.32795 0.19598 0.33281
 C463 C 0.37825 0.15290 0.34766
 N464 N 0.35857 0.14335 0.37888
 C465 C 0.37439 0.12060 0.40244
 C466 C 0.41184 0.10561 0.39455
 C467 C 0.43323 0.11626 0.36364
 C468 C 0.41669 0.13992 0.34032
 H469 H 0.34695 0.18364 0.22618
 H470 H 0.28134 0.22994 0.31972
 H471 H 0.35713 0.11334 0.42630
 H472 H 0.46249 0.10576 0.35688
 H473 H 0.38800 0.15305 0.27039
 H474 H 0.43362 0.14744 0.31637
 C475 C 0.35689 0.67659 -0.17322
 C476 C 0.32960 0.70219 -0.16240
 C477 C 0.30885 0.71933 -0.19010
 C478 C 0.31516 0.71077 -0.22821
 C479 C 0.34430 0.68642 -0.23791
 N480 N 0.36398 0.67009 -0.21059
 C481 C 0.37635 0.65473 -0.14575
 N482 N 0.41026 0.63767 -0.15684
 C483 C 0.42761 0.61410 -0.13561
 C484 C 0.41005 0.60563 -0.10139
 C485 C 0.37558 0.62335 -0.08874
 C486 C 0.35867 0.64802 -0.11078
 H487 H 0.28634 0.73791 -0.18165
 H488 H 0.35010 0.67937 -0.26712
 H489 H 0.45436 0.60121 -0.14632
 H490 H 0.36112 0.61751 -0.06250
 H491 H 0.32363 0.70843 -0.13301
 H492 H 0.33113 0.66039 -0.10141
 C493 C 1.16510 -0.17577 -0.17254
 C494 C 1.15198 -0.20556 -0.17918
 C495 C 1.17358 -0.22715 -0.20327
 C496 C 1.20792 -0.21897 -0.22147
 C497 C 1.22080 -0.18928 -0.21287
 N498 N 1.19931 -0.16866 -0.18894
 C499 C 1.14174 -0.15174 -0.14901
 N500 N 1.15955 -0.13407 -0.12386
 C501 C 1.13932 -0.11121 -0.10191
 C502 C 1.09908 -0.10457 -0.10555
 C503 C 1.08026 -0.12226 -0.13157
 C504 C 1.10144 -0.14613 -0.15307
 H505 H 1.16311 -0.25018 -0.20778
 H506 H 1.24699 -0.18185 -0.22616
 H507 H 1.15483 -0.09774 -0.08235
 H508 H 1.04925 -0.11765 -0.13520
 H509 H 1.12528 -0.21206 -0.16583
 H510 H 1.08668 -0.15952 -0.17335
 C511 C 1.16092 0.32540 0.32812
 C512 C 1.14715 0.29586 0.32143
 C513 C 1.16845 0.27393 0.29749
 C514 C 1.20315 0.28154 0.27945
 C515 C 1.21667 0.31098 0.28809
 N516 N 1.19547 0.33192 0.31189
 C517 C 1.13803 0.34968 0.35176
 N518 N 1.15629 0.36702 0.37691
 C519 C 1.13652 0.38986 0.39923
 C520 C 1.09624 0.39682 0.39610
 C521 C 1.07696 0.37955 0.37002
 C522 C 1.09770 0.35570 0.34807
 H523 H 1.15745 0.25112 0.29296
 H524 H 1.24315 0.31796 0.27494
 H525 H 1.15241 0.40300 0.41880
 H526 H 1.04593 0.38439 0.36676
 H527 H 1.12021 0.28977 0.33467
 H528 H 1.08256 0.34259 0.32783
 C529 C 0.66611 -0.17820 0.32706
 C530 C 0.65256 -0.20780 0.32021
 C531 C 0.67336 -0.22912 0.29522
 C532 C 0.70734 -0.22085 0.27645
 C533 C 0.72068 -0.19138 0.28524
 N534 N 0.69995 -0.17101 0.30998
 C535 C 0.64340 -0.15429 0.35124
 N536 N 0.66194 -0.13653 0.37574
 C537 C 0.64235 -0.11345 0.39784
 C538 C 0.60206 -0.10662 0.39493
 C539 C 0.58248 -0.12450 0.36972
 C540 C 0.60300 -0.14861 0.34811
 H541 H 0.66260 -0.25201 0.29054
 H542 H 0.74661 -0.18390 0.27151
 H543 H 0.65840 -0.09984 0.41678
 H544 H 0.55140 -0.11975 0.36667
 H545 H 0.62612 -0.21435 0.33403
 H546 H 0.58766 -0.16201 0.32832
 C547 C 0.66657 0.32172 -0.17526
 C548 C 0.65024 0.29445 -0.18692
 C549 C 0.67143 0.27281 -0.21123
 C550 C 0.70908 0.27816 -0.22481
 C551 C 0.72501 0.30525 -0.21064
 N552 N 0.70357 0.32604 -0.18681
 C553 C 0.64377 0.34619 -0.15161
 N554 N 0.66152 0.36181 -0.12442
 C555 C 0.64187 0.38491 -0.10231
 C556 C 0.60231 0.39392 -0.10773
 C557 C 0.58360 0.37833 -0.13579
 C558 C 0.60413 0.35432 -0.15759
 H559 H 0.65800 0.25166 -0.21866
 H560 H 0.75348 0.31122 -0.21965
 H561 H 0.65734 0.39667 -0.08113
 H562 H 0.55316 0.38474 -0.14093
 H563 H 0.62134 0.28978 -0.17718
 H564 H 0.58937 0.34282 -0.17954
 C565 C 1.16144 0.16446 -0.13288
 C566 C 1.19945 0.16964 -0.12352
 C567 C 1.21864 0.19238 -0.14302
 C568 C 1.20010 0.21060 -0.17147
 C569 C 1.16217 0.20421 -0.18020
 N570 N 1.14426 0.18173 -0.16102
 C571 C 1.14055 0.13898 -0.11557
 N572 N 1.11063 0.12817 -0.13435
 C573 C 1.09092 0.10393 -0.12131
 C574 C 1.10137 0.08888 -0.08759
 C575 C 1.13140 0.10007 -0.06724
 C576 C 1.15090 0.12521 -0.08096
 H577 H 1.24859 0.19491 -0.13670
 H578 H 1.14710 0.21572 -0.20327
 H579 H 1.06764 0.09616 -0.13762
 H580 H 1.13990 0.08939 -0.04072
 H581 H 1.21512 0.15546 -0.10270
 H582 H 1.17355 0.13364 -0.06440
 C583 C 1.15997 0.66475 0.36746
 C584 C 1.19613 0.67290 0.37926
 C585 C 1.21509 0.69557 0.35932
 C586 C 1.19811 0.71075 0.32793
 C587 C 1.16221 0.70141 0.31676
 N588 N 1.14443 0.67916 0.33651
 C589 C 1.13936 0.63930 0.38550
 N590 N 1.10993 0.62765 0.36678
 C591 C 1.09042 0.60348 0.38038
 C592 C 1.10061 0.58925 0.41465
 C593 C 1.13020 0.60121 0.43490
 C594 C 1.14944 0.62633 0.42065
 H595 H 1.24377 0.70029 0.36775
 H596 H 1.14881 0.71067 0.29153
 H597 H 1.06751 0.59508 0.36406
 H598 H 1.13850 0.59117 0.46180
 H599 H 1.21075 0.66122 0.40253
 H600 H 1.17168 0.63525 0.43729
 C601 C 0.66315 0.16420 0.36461
 C602 C 0.69846 0.17295 0.37791
 C603 C 0.71766 0.19585 0.35875
 C604 C 0.70177 0.21061 0.32664
 C605 C 0.66690 0.20051 0.31377
 N606 N 0.64880 0.17808 0.33285
 C607 C 0.64230 0.13873 0.38209
 N608 N 0.61443 0.12612 0.36208
 C609 C 0.59491 0.10182 0.37524
 C610 C 0.60354 0.08849 0.41035
 C611 C 0.63141 0.10150 0.43191
 C612 C 0.65060 0.12675 0.41810
 H613 H 0.74563 0.20123 0.36849
 H614 H 0.65453 0.20944 0.28792
 H615 H 0.57332 0.09257 0.35793
 H616 H 0.63839 0.09217 0.45950
 H617 H 0.71221 0.16161 0.40186
 H618 H 0.67144 0.13653 0.43573
 C619 C 0.65562 0.66857 -0.13103
 C620 C 0.68122 0.68631 -0.11187
 C621 C 0.70114 0.70874 -0.13139
 C622 C 0.69486 0.71453 -0.17002
 C623 C 0.66849 0.69608 -0.18769
 N624 N 0.64997 0.67423 -0.16814
 C625 C 0.63581 0.64268 -0.11323
 N626 N 0.60481 0.63227 -0.13063
 C627 C 0.58669 0.60703 -0.11801
 C628 C 0.60017 0.59024 -0.08638
 C629 C 0.63178 0.60065 -0.06768
 C630 C 0.64971 0.62679 -0.08099
 H631 H 0.72230 0.72030 -0.11604
 H632 H 0.66362 0.69813 -0.21759
 H633 H 0.56230 0.59980 -0.13314
 H634 H 0.64308 0.58827 -0.04314
 H635 H 0.68644 0.68280 -0.08225
 H636 H 0.67491 0.63351 -0.06683
 C637 C 0.82984 -0.15357 -0.15679
 C638 C 0.83858 -0.16654 -0.19302
 C639 C 0.81632 -0.18962 -0.20724
 C640 C 0.78503 -0.20011 -0.18569
 C641 C 0.77707 -0.18578 -0.14979
 N642 N 0.79915 -0.16345 -0.13675
 C643 C 0.85224 -0.12926 -0.13929
 N644 N 0.83683 -0.11368 -0.10763
 C645 C 0.85531 -0.09147 -0.08923
 C646 C 0.89183 -0.08372 -0.10248
 C647 C 0.90854 -0.09953 -0.13486
 C648 C 0.88900 -0.12232 -0.15327
 H649 H 0.82516 -0.19982 -0.23454
 H650 H 0.75266 -0.19122 -0.13211
 H651 H 0.84140 -0.07992 -0.06429
 H652 H 0.93683 -0.09442 -0.14588
 H653 H 0.86216 -0.15914 -0.21055
 H654 H 0.90310 -0.13448 -0.17766
 C655 C 0.82702 0.34659 0.35695
 C656 C 0.78864 0.34159 0.36772
 C657 C 0.77063 0.31765 0.35024
 C658 C 0.79027 0.29882 0.32158
 C659 C 0.82778 0.30548 0.31015
 N660 N 0.84514 0.32872 0.32809
 C661 C 0.84805 0.37092 0.37601
 N662 N 0.87980 0.38164 0.35833
 C663 C 0.90021 0.40405 0.37407
 C664 C 0.88877 0.41718 0.40966
 C665 C 0.85666 0.40613 0.42866
 C666 C 0.83649 0.38291 0.41220
 H667 H 0.74109 0.31400 0.35898
 H668 H 0.84362 0.29166 0.28778
 H669 H 0.92505 0.41182 0.35860
 H670 H 0.84727 0.41526 0.45643
 H671 H 0.77221 0.35604 0.38910
 H672 H 0.81255 0.37433 0.42819
 C673 C 0.33906 -0.15989 0.34472
 C674 C 0.35037 -0.17533 0.31018
 C675 C 0.32797 -0.19825 0.29581
 C676 C 0.29439 -0.20592 0.31559
 C677 C 0.28389 -0.18966 0.34966
 N678 N 0.30607 -0.16754 0.36303
 C679 C 0.36093 -0.13516 0.36213
 N680 N 0.34456 -0.11898 0.39301
 C681 C 0.36213 -0.09603 0.41103
 C682 C 0.39861 -0.08798 0.39808
 C683 C 0.41632 -0.10439 0.36653
 C684 C 0.39775 -0.12799 0.34855
 H685 H 0.33722 -0.21017 0.26947
 H686 H 0.25768 -0.19400 0.36550
 H687 H 0.34747 -0.08403 0.43533
 H688 H 0.44462 -0.09905 0.35576
 H689 H 0.37584 -0.16990 0.29398
 H690 H 0.41256 -0.14036 0.32467
 C691 C 0.34154 0.33757 -0.15473
 C692 C 0.34764 0.32770 -0.19252
 C693 C 0.32546 0.30485 -0.20729
 C694 C 0.29684 0.29158 -0.18475
 C695 C 0.29229 0.30213 -0.14682
 N696 N 0.31404 0.32450 -0.13335
 C697 C 0.36268 0.36262 -0.13735
 N698 N 0.34726 0.37720 -0.10510
 C699 C 0.36441 0.40045 -0.08722
 C700 C 0.39941 0.41036 -0.10171
 C701 C 0.41622 0.39546 -0.13461
 C702 C 0.39807 0.37158 -0.15247
 H703 H 0.33180 0.29742 -0.23619
 H704 H 0.27037 0.29405 -0.12784
 H705 H 0.35058 0.41118 -0.06178
 H706 H 0.44344 0.40221 -0.14653
 H707 H 0.36868 0.33775 -0.21094
 H708 H 0.41208 0.36015 -0.17738
 C709 C 1.16194 -0.16341 0.17627
 C710 C 1.19674 -0.18189 0.16557
 C711 C 1.21579 -0.20167 0.19192
 C712 C 1.20020 -0.20341 0.22871
 C713 C 1.16571 -0.18440 0.23844
 N714 N 1.14776 -0.16527 0.21238
 C715 C 1.13942 -0.14234 0.14979
 N716 N 1.10294 -0.12985 0.16090
 C717 C 1.08049 -0.10975 0.13899
 C718 C 1.09464 -0.10089 0.10353
 C719 C 1.13192 -0.11364 0.09122
 C720 C 1.15444 -0.13420 0.11420
 H721 H 1.24193 -0.21645 0.18312
 H722 H 1.15291 -0.18480 0.26667
 H723 H 1.05192 -0.10037 0.14958
 H724 H 1.14407 -0.10721 0.06412
 H725 H 1.20895 -0.18201 0.13715
 H726 H 1.18341 -0.14275 0.10416
 C727 C 1.16522 0.33717 0.67803
 C728 C 1.19952 0.31818 0.66696
 C729 C 1.21868 0.29844 0.69327
 C730 C 1.20364 0.29731 0.73033
 C731 C 1.16980 0.31695 0.74045
 N732 N 1.15171 0.33597 0.71443
 C733 C 1.14233 0.35791 0.65164
 N734 N 1.10593 0.37026 0.66311
 C735 C 1.08309 0.39015 0.64136
 C736 C 1.09678 0.39894 0.60572
 C737 C 1.13395 0.38629 0.59299
 C738 C 1.15687 0.36591 0.61582
 H739 H 1.24432 0.28314 0.68424
 H740 H 1.15750 0.31699 0.76891
 H741 H 1.05461 0.39946 0.65226
 H742 H 1.14572 0.39272 0.56573
 H743 H 1.21110 0.31758 0.63829
 H744 H 1.18580 0.35743 0.60556
 C745 C 0.66304 -0.16652 0.67402
 C746 C 0.70323 -0.17515 0.67029
 C747 C 0.72152 -0.19561 0.69654
 C748 C 0.70009 -0.20783 0.72679
 C749 C 0.65983 -0.19789 0.72939
 N750 N 0.64295 -0.17793 0.70361
 C751 C 0.64151 -0.14446 0.64799
 N752 N 0.60585 -0.13057 0.65966
 C753 C 0.58408 -0.10980 0.63800
 C754 C 0.59805 -0.10179 0.60214
 C755 C 0.63430 -0.11629 0.58906
 C756 C 0.65607 -0.13767 0.61178
 H757 H 0.75224 -0.20206 0.69195
 H758 H 0.64136 -0.20465 0.75243
 H759 H 0.55620 -0.09926 0.64910
 H760 H 0.64599 -0.11091 0.56139
 H761 H 0.72075 -0.16603 0.64781
 H762 H 0.68366 -0.14877 0.60076
 C763 C 0.66735 0.33702 0.17607
 C764 C 0.70335 0.31980 0.16657
 C765 C 0.72210 0.30044 0.19349
 C766 C 0.70504 0.29791 0.22956
 C767 C 0.66953 0.31583 0.23816
 N768 N 0.65186 0.33453 0.21159
 C769 C 0.64481 0.35735 0.14899
 N770 N 0.60785 0.36903 0.15947
 C771 C 0.58517 0.38849 0.13713
 C772 C 0.59957 0.39754 0.10187
 C773 C 0.63730 0.38554 0.09010
 C774 C 0.66006 0.36557 0.11353
 H775 H 0.74918 0.28652 0.18563
 H776 H 0.65563 0.31483 0.26586
 H777 H 0.55622 0.39728 0.14729
 H778 H 0.64959 0.39216 0.06313
 H779 H 0.71673 0.32035 0.13869
 H780 H 0.68934 0.35753 0.10392
 C781 C 0.84340 0.18338 0.16583
 C782 C 0.86074 0.20473 0.18915
 C783 C 0.83794 0.22242 0.21677
 C784 C 0.79832 0.21857 0.22114
 C785 C 0.78176 0.19859 0.19582
 N786 N 0.80440 0.18161 0.16937
 C787 C 0.86618 0.16066 0.13971
 N788 N 0.84791 0.14818 0.11043
 C789 C 0.86507 0.12397 0.08833
 C790 C 0.90231 0.11000 0.09621
 C791 C 0.92213 0.12297 0.12558
 C792 C 0.90430 0.14837 0.14725
 H793 H 0.85148 0.23787 0.23577
 H794 H 0.75102 0.19559 0.19798
 H795 H 0.84885 0.11470 0.06588
 H796 H 0.95097 0.11286 0.13253
 H797 H 0.89154 0.20727 0.18669
 H798 H 0.91945 0.15689 0.17090
 C799 C 0.84805 0.67902 0.68335
 C800 C 0.84232 0.66807 0.72003
 C801 C 0.81764 0.68612 0.74533
 C802 C 0.79881 0.71565 0.73477
 C803 C 0.80725 0.72667 0.69824
 N804 N 0.83047 0.70791 0.67341
 C805 C 0.87091 0.65813 0.65543
 N806 N 0.85559 0.65167 0.62165
 C807 C 0.87264 0.62853 0.59778
 C808 C 0.90655 0.60996 0.60801
 C809 C 0.92368 0.61748 0.64180
 C810 C 0.90598 0.64143 0.66550
 H811 H 0.81372 0.67684 0.77343
 H812 H 0.79338 0.74896 0.68837
 H813 H 0.85883 0.62375 0.57169
 H814 H 0.95007 0.60408 0.65065
 H815 H 0.85569 0.64511 0.72870
 H816 H 0.91883 0.64611 0.69215
 C817 C 0.34010 0.17918 0.66509
 C818 C 0.35640 0.20249 0.68636
 C819 C 0.33331 0.22024 0.71370
 C820 C 0.29445 0.21444 0.71998
 C821 C 0.27884 0.19220 0.69682
 N822 N 0.30173 0.17530 0.67047
 C823 C 0.36356 0.15698 0.63892
 N824 N 0.34560 0.14338 0.61021
 C825 C 0.36387 0.11977 0.58794
 C826 C 0.40206 0.10759 0.59505
 C827 C 0.42146 0.12168 0.62392
 C828 C 0.40244 0.14648 0.64575
 H829 H 0.34615 0.23743 0.73095
 H830 H 0.24866 0.18765 0.70034
 H831 H 0.34792 0.10955 0.56593
 H832 H 0.45098 0.11293 0.63029
 H833 H 0.38664 0.20663 0.68237
 H834 H 0.41739 0.15600 0.66895
 C835 C 0.33875 0.67727 0.16616
 C836 C 0.35516 0.70042 0.18760
 C837 C 0.33182 0.71891 0.21413
 C838 C 0.29254 0.71403 0.21943
 C839 C 0.27691 0.69190 0.19613
 N840 N 0.30006 0.67428 0.17058
 C841 C 0.36229 0.65446 0.14068
 N842 N 0.34468 0.64104 0.11163
 C843 C 0.36298 0.61721 0.08968
 C844 C 0.40089 0.60466 0.09741
 C845 C 0.41991 0.61845 0.12676
 C846 C 0.40085 0.64346 0.14830
 H847 H 0.34473 0.73590 0.23160
 H848 H 0.24648 0.68795 0.19902
 H849 H 0.34730 0.60723 0.06730
 H850 H 0.44919 0.60942 0.13363
 H851 H 0.38569 0.70389 0.18438
 H852 H 0.41551 0.65283 0.17178
   
