data_POSCAR
  _audit_creation_date              2014-09-24
  _audit_creation_method            'ToBaCCo'
  _symmetry_space_group_name_H-M    'P1'
  _symmetry_Int_Tables_number       1
  _symmetry_cell_setting            triclinic
  loop_
  _symmetry_equiv_pos_as_xyz
 x,y,z
_cell_length_a 27.4605
_cell_length_b 27.3796
_cell_length_c 34.7813
_cell_angle_alpha 88.109300
_cell_angle_beta 88.201600
_cell_angle_gamma 71.844500
loop_
  _atom_site_label
  _atom_site_type_symbol
  _atom_site_fract_x
  _atom_site_fract_y
  _atom_site_fract_z
C1 C -0.01161 0.55028 1.01607
 C2 C -0.01977 0.54855 0.97573
 C3 C -0.02049 0.50171 0.96050
 C4 C -0.00998 0.45634 0.98287
 C5 C -0.00032 0.45715 1.02262
 C6 C -0.00081 0.50411 1.03823
 H7 H 0.00241 0.50560 1.06910
 H8 H -0.02421 0.49884 0.92977
 C9 C 0.45678 0.01347 0.52267
 C10 C 0.45482 0.00786 0.48246
 C11 C 0.50010 -0.00174 0.46002
 C12 C 0.54719 -0.00378 0.47613
 C13 C 0.54848 0.00287 0.51643
 C14 C 0.50346 0.01151 0.53889
 H15 H 0.50538 0.01442 0.56980
 H16 H 0.49779 -0.00453 0.42915
 C17 C 0.12052 -0.02615 0.25634
 H18 H 0.11976 -0.02634 0.22526
 C19 C 0.16645 -0.03148 0.27465
 H20 H 0.20116 -0.03591 0.25758
 C21 C 0.07597 -0.01927 0.31642
 H22 H 0.04057 -0.01439 0.33255
 C23 C 0.12090 -0.02348 0.33588
 H24 H 0.11995 -0.02230 0.36700
 N25 N 0.07672 -0.02127 0.27736
 C26 C -0.02223 -0.08171 0.21034
 H27 H -0.05816 -0.05115 0.21349
 C28 C -0.02091 -0.12707 0.19242
 H29 H -0.05630 -0.13110 0.18232
 C30 C 0.06678 -0.11417 0.22172
 H31 H 0.10082 -0.10964 0.23366
 C32 C 0.07004 -0.15966 0.20338
 H33 H 0.10710 -0.18868 0.20066
 Zn34 Zn 0.01584 -0.01478 0.25076
 N35 N 0.02122 -0.07610 0.22461
 C36 C -0.00180 0.03584 0.17746
 N37 N 0.00576 0.04124 0.21534
 C38 C 0.00809 0.08649 0.22879
 C39 C 0.00136 0.12909 0.20401
 C40 C -0.00853 0.07745 0.15160
 C41 C -0.04515 -0.04405 0.30718
 C42 C -0.08690 -0.03842 0.33252
 C43 C -0.11733 0.05195 0.31490
 C44 C -0.07563 0.04439 0.28927
 N45 N -0.04039 -0.00300 0.28606
 H46 H -0.00247 -0.00074 0.16718
 H47 H 0.01494 0.08950 0.25896
 H48 H 0.00215 0.16506 0.21557
 H49 H -0.01404 0.07227 0.12150
 H50 H -0.01674 -0.08135 0.30393
 H51 H -0.09051 -0.07146 0.34896
 H52 H -0.14518 0.08981 0.31716
 H53 H -0.07173 0.07641 0.27193
 C54 C 0.02575 -0.16698 0.18871
 C55 C 0.16690 -0.03024 0.31491
 C56 C -0.12343 0.01012 0.33662
 C57 C -0.00719 0.12497 0.16481
 C58 C 0.01365 0.09984 0.77328
 H59 H 0.04650 0.08788 0.75400
 C60 C 0.00522 0.14457 0.79407
 H61 H 0.03193 0.16642 0.79072
 C62 C -0.06216 0.08747 0.80013
 H63 H -0.08823 0.06486 0.80224
 C64 C -0.07240 0.13235 0.82108
 H65 H -0.10626 0.14399 0.83961
 N66 N -0.01944 0.07183 0.77711
 C67 C 0.04337 -0.00335 0.67692
 H68 H 0.00625 0.00092 0.66524
 C69 C 0.08605 -0.01161 0.65216
 H70 H 0.08138 -0.01293 0.62144
 C71 C 0.09508 -0.00756 0.73101
 H72 H 0.09825 -0.00650 0.76188
 C73 C 0.13857 -0.01495 0.70726
 H74 H 0.17531 -0.01955 0.71992
 Zn75 Zn -0.00910 0.01083 0.74938
 N76 N 0.04848 -0.00069 0.71552
 C77 C -0.08579 0.06193 0.69808
 N78 N -0.06926 0.01923 0.72122
 C79 C -0.09590 -0.01512 0.72492
 C80 C -0.14031 -0.00785 0.70405
 C81 C -0.13041 0.07105 0.67708
 C82 C 0.00383 -0.04109 0.82229
 C83 C 0.01187 -0.08376 0.84724
 C84 C 0.01992 -0.13742 0.79212
 C85 C 0.01240 -0.09386 0.76823
 N86 N 0.00327 -0.04673 0.78360
 H87 H -0.06421 0.08895 0.69603
 H88 H -0.08315 -0.04804 0.74422
 H89 H -0.16115 -0.03548 0.70736
 H90 H -0.14291 0.10504 0.65859
 H91 H -0.00224 -0.00353 0.83394
 H92 H 0.01111 -0.07855 0.87801
 H93 H 0.02629 -0.17458 0.77947
 H94 H 0.01289 -0.09739 0.73732
 C95 C 0.13419 -0.01680 0.66730
 C96 C -0.03819 0.16122 0.81839
 C97 C 0.01926 -0.13253 0.83218
 C98 C -0.15802 0.03569 0.67980
 C99 C 0.01386 -0.40186 0.06640
 C100 C 0.00865 -0.35597 0.08528
 C101 C -0.02875 -0.31008 0.07334
 C102 C -0.06155 -0.31131 0.04363
 C103 C -0.05679 -0.35735 0.02541
 C104 C -0.01804 -0.40316 0.03562
 C105 C -0.03276 -0.26378 0.09133
 C106 C -0.00030 -0.26303 0.12156
 C107 C 0.03609 -0.30931 0.13417
 C108 C 0.04063 -0.35535 0.11578
 C109 C 0.06748 -0.30881 0.16501
 C110 C 0.06338 -0.26285 0.18298
 C111 C 0.02842 -0.21610 0.17012
 C112 C -0.00355 -0.21674 0.13934
 H113 H 0.04440 -0.43612 0.07478
 H114 H -0.09115 -0.27669 0.03458
 H115 H -0.08400 -0.35703 0.00347
 H116 H -0.06110 -0.22843 0.08185
 H117 H 0.06903 -0.39070 0.12523
 H118 H 0.09512 -0.34405 0.17536
 H119 H 0.08751 -0.26415 0.20724
 H120 H -0.03037 -0.18120 0.12868
 C121 C -0.02009 0.37823 0.04350
 C122 C -0.01149 0.33453 0.06774
 C123 C 0.02522 0.32543 0.09685
 C124 C 0.05249 0.36031 0.10133
 C125 C 0.04378 0.40371 0.07707
 C126 C 0.00798 0.41306 0.04732
 C127 C 0.03377 0.28188 0.12123
 C128 C 0.00573 0.24749 0.11706
 C129 C -0.03109 0.25665 0.08797
 C130 C -0.03942 0.30005 0.06345
 C131 C -0.05919 0.22232 0.08402
 C132 C -0.05121 0.17950 0.10882
 C133 C -0.01482 0.17002 0.13798
 C134 C 0.01374 0.20422 0.14170
 H135 H -0.05015 0.38596 0.02262
 H136 H 0.08077 0.35395 0.12353
 H137 H 0.06663 0.42901 0.08085
 H138 H 0.06195 0.27496 0.14361
 H139 H -0.06767 0.30704 0.04112
 H140 H -0.08766 0.22882 0.06195
 H141 H -0.07424 0.15426 0.10560
 H142 H 0.04249 0.19700 0.16363
 C143 C 0.38226 -0.01478 0.54676
 C144 C 0.33926 -0.00910 0.57113
 C145 C 0.32643 0.02970 0.59892
 C146 C 0.35628 0.06267 0.60139
 C147 C 0.39834 0.05746 0.57645
 C148 C 0.41162 0.01892 0.54884
 C149 C 0.28395 0.03502 0.62373
 C150 C 0.25356 0.00264 0.62066
 C151 C 0.26570 -0.03545 0.59231
 C152 C 0.30877 -0.04139 0.56796
 C153 C 0.23435 -0.06678 0.58869
 C154 C 0.19138 -0.06048 0.61292
 C155 C 0.17954 -0.02333 0.64154
 C156 C 0.21088 0.00805 0.64532
 H157 H 0.39284 -0.04528 0.52607
 H158 H 0.34690 0.09271 0.62242
 H159 H 0.42042 0.08383 0.57851
 H160 H 0.27436 0.06454 0.64523
 H161 H 0.31828 -0.07081 0.54638
 H162 H 0.24295 -0.09602 0.56704
 H163 H 0.16768 -0.08510 0.60969
 H164 H 0.20145 0.03726 0.66704
 C165 C -0.39609 0.03474 0.55827
 C166 C -0.35021 0.02753 0.57763
 C167 C -0.31136 -0.02062 0.57635
 C168 C -0.31877 -0.06041 0.55523
 C169 C -0.36428 -0.05264 0.53563
 C170 C -0.40311 -0.00511 0.53700
 C171 C -0.26584 -0.02827 0.59624
 C172 C -0.25842 0.01175 0.61706
 C173 C -0.29679 0.06022 0.61765
 C174 C -0.34256 0.06771 0.59811
 C175 C -0.28875 0.10041 0.63787
 C176 C -0.24332 0.09258 0.65762
 C177 C -0.20540 0.04432 0.65782
 C178 C -0.21317 0.00406 0.63736
 H179 H -0.42610 0.07148 0.55920
 H180 H -0.28939 -0.09748 0.55387
 H181 H -0.36942 -0.08378 0.51949
 H182 H -0.23625 -0.06533 0.59553
 H183 H -0.37215 0.10476 0.59882
 H184 H -0.31767 0.13783 0.63854
 H185 H -0.23818 0.12399 0.67341
 H186 H -0.18375 -0.03309 0.63700
 C187 C 0.01018 -0.37882 0.95355
 C188 C 0.00725 -0.33722 0.92809
 C189 C -0.02651 -0.32750 0.89692
 C190 C -0.05688 -0.35933 0.89186
 C191 C -0.05454 -0.40000 0.91775
 C192 C -0.02166 -0.41003 0.94943
 C193 C -0.02961 -0.28597 0.87140
 C194 C 0.00007 -0.25349 0.87700
 C195 C 0.03350 -0.26284 0.90841
 C196 C 0.03725 -0.30495 0.93355
 C197 C 0.06225 -0.22955 0.91435
 C198 C 0.05767 -0.18720 0.88955
 C199 C 0.02482 -0.17784 0.85813
 C200 C -0.00369 -0.21136 0.85193
 H201 H 0.03779 -0.38714 0.97635
 H202 H -0.08308 -0.35233 0.86817
 H203 H -0.08012 -0.42245 0.91362
 H204 H -0.05547 -0.27864 0.84743
 H205 H 0.06294 -0.31215 0.95762
 H206 H 0.08799 -0.23605 0.93830
 H207 H 0.08016 -0.16195 0.89470
 H208 H -0.02969 -0.20392 0.82806
 C209 C -0.04139 0.39990 0.94138
 C210 C -0.03347 0.35404 0.92169
 C211 C 0.01524 0.31609 0.92223
 C212 C 0.05488 0.32434 0.94290
 C213 C 0.04648 0.36983 0.96274
 C214 C -0.00161 0.40779 0.96218
 C215 C 0.02361 0.27064 0.90201
 C216 C -0.01619 0.26238 0.88152
 C217 C -0.06517 0.29982 0.88161
 C218 C -0.07343 0.34552 0.90154
 C219 C -0.10506 0.29092 0.86164
 C220 C -0.09643 0.24556 0.84150
 C221 C -0.04768 0.20859 0.84066
 C222 C -0.00773 0.21721 0.86088
 H223 H -0.07854 0.42925 0.94100
 H224 H 0.09239 0.29567 0.94365
 H225 H 0.07761 0.37565 0.97842
 H226 H 0.06108 0.24176 0.90217
 H227 H -0.11089 0.37442 0.90136
 H228 H -0.14287 0.31911 0.86148
 H229 H -0.12765 0.23976 0.82592
 H230 H 0.02981 0.18850 0.86077
 C231 C -0.37496 0.01768 0.45600
 C232 C -0.33133 0.00997 0.43202
 C233 C -0.32110 -0.02712 0.40307
 C234 C -0.35533 -0.05497 0.39805
 C235 C -0.39907 -0.04660 0.42171
 C236 C -0.40900 -0.01105 0.45164
 C237 C -0.27716 -0.03536 0.37934
 C238 C -0.24391 -0.00614 0.38364
 C239 C -0.25480 0.03184 0.41205
 C240 C -0.29814 0.03928 0.43630
 C241 C -0.22237 0.06211 0.41545
 C242 C -0.17971 0.05508 0.39080
 C243 C -0.16825 0.01703 0.36289
 C244 C -0.20030 -0.01373 0.35960
 H245 H -0.38333 0.04755 0.47712
 H246 H -0.34825 -0.08335 0.37584
 H247 H -0.42408 -0.06963 0.41748
 H248 H -0.26917 -0.06407 0.35727
 H249 H -0.30625 0.06812 0.45828
 H250 H -0.23023 0.09149 0.43695
 H251 H -0.15529 0.07904 0.39371
 H252 H -0.19185 -0.04271 0.33773
 C253 C 0.40264 -0.02283 0.43657
 C254 C 0.35660 -0.01740 0.41791
 C255 C 0.31294 0.02513 0.42589
 C256 C 0.31645 0.06206 0.45173
 C257 C 0.36269 0.05685 0.46960
 C258 C 0.40591 0.01399 0.46273
 C259 C 0.26665 0.03027 0.40771
 C260 C 0.26372 -0.00603 0.38106
 C261 C 0.30771 -0.04796 0.37248
 C262 C 0.35369 -0.05366 0.39125
 C263 C 0.30505 -0.08336 0.34503
 C264 C 0.25930 -0.07726 0.32617
 C265 C 0.21525 -0.03620 0.33488
 C266 C 0.21762 -0.00078 0.36251
 H267 H 0.43589 -0.05587 0.43098
 H268 H 0.28354 0.09516 0.45790
 H269 H 0.36471 0.08631 0.48895
 H270 H 0.23309 0.06272 0.41404
 H271 H 0.38730 -0.08603 0.38485
 H272 H 0.33840 -0.11561 0.33801
 H273 H 0.25806 -0.10504 0.30506
 H274 H 0.18382 0.03131 0.36899
   
