data_POSCAR
  _audit_creation_date              2014-09-24
  _audit_creation_method            'ToBaCCo'
  _symmetry_space_group_name_H-M    'P1'
  _symmetry_Int_Tables_number       1
  _symmetry_cell_setting            triclinic
  loop_
  _symmetry_equiv_pos_as_xyz
 x,y,z
_cell_length_a 45.8612
_cell_length_b 45.6952
_cell_length_c 45.8519
_cell_angle_alpha 89.945000
_cell_angle_beta 89.984800
_cell_angle_gamma 90.091300
loop_
  _atom_site_label
  _atom_site_type_symbol
  _atom_site_fract_x
  _atom_site_fract_y
  _atom_site_fract_z
N1 N 0.59028 0.67095 0.61254
 N2 N 0.57895 0.65909 0.63610
 C3 C 0.55555 0.67486 0.64436
 C4 C 0.55190 0.69762 0.62474
 C5 C 0.57433 0.69439 0.60481
 H6 H 0.54197 0.67001 0.66302
 H7 H 0.57902 0.70837 0.58636
 Cu8 Cu 0.59611 0.62424 0.65344
 Cu9 Cu 0.62528 0.65563 0.59395
 Cu10 Cu 0.65690 0.59444 0.62563
 N11 N 0.61321 0.58910 0.67029
 N12 N 0.63807 0.57883 0.66045
 C13 C 0.64638 0.55606 0.67707
 C14 C 0.62527 0.55126 0.69826
 C15 C 0.60441 0.57266 0.69307
 H16 H 0.66589 0.54338 0.67329
 H17 H 0.58485 0.57667 0.70557
 N18 N 0.67251 0.61334 0.59023
 N19 N 0.66073 0.63688 0.57843
 C20 C 0.67649 0.64471 0.55488
 C21 C 0.69909 0.62499 0.55150
 C22 C 0.69585 0.60537 0.57427
 H23 H 0.67164 0.66311 0.54087
 H24 H 0.70971 0.58686 0.57900
 H25 H 0.61993 0.61274 0.60739
 H26 H 0.64268 0.63693 0.63103
 N27 N 0.91002 0.32817 0.11264
 N28 N 0.92041 0.33904 0.13702
 C29 C 0.94355 0.32303 0.14551
 C30 C 0.94822 0.30105 0.12509
 C31 C 0.92639 0.30520 0.10450
 H32 H 0.95641 0.32758 0.16471
 H33 H 0.92215 0.29220 0.08530
 Cu34 Cu 0.90330 0.37393 0.15422
 Cu35 Cu 0.87540 0.34390 0.09362
 Cu36 Cu 0.84422 0.40554 0.12487
 N37 N 0.88619 0.40883 0.17140
 N38 N 0.86279 0.42080 0.15995
 C39 C 0.85515 0.44427 0.17588
 C40 C 0.87497 0.44739 0.19842
 C41 C 0.89444 0.42455 0.19485
 H42 H 0.83682 0.45833 0.17113
 H43 H 0.91298 0.41960 0.20855
 N44 N 0.82872 0.38677 0.08940
 N45 N 0.84029 0.36305 0.07779
 C46 C 0.82439 0.35512 0.05440
 C47 C 0.80188 0.37494 0.05095
 C48 C 0.80536 0.39474 0.07349
 H49 H 0.82899 0.33651 0.04063
 H50 H 0.79154 0.41328 0.07820
 H51 H 0.88115 0.38647 0.10754
 H52 H 0.85719 0.36261 0.13032
 N53 N 0.40936 0.17163 -0.11264
 N54 N 0.42050 0.15998 -0.13634
 C55 C 0.44394 0.17575 -0.14460
 C56 C 0.44782 0.19832 -0.12484
 C57 C 0.42547 0.19497 -0.10483
 H58 H 0.45750 0.17093 -0.16327
 H59 H 0.42102 0.20873 -0.08619
 Cu60 Cu 0.40368 0.12485 -0.15344
 Cu61 Cu 0.37454 0.15603 -0.09387
 Cu62 Cu 0.34355 0.09412 -0.12478
 N63 N 0.38608 0.09017 -0.17067
 N64 N 0.36229 0.07856 -0.15957
 C65 C 0.35444 0.05523 -0.17566
 C66 C 0.37450 0.05187 -0.19796
 C67 C 0.39432 0.07442 -0.19407
 H68 H 0.33576 0.04147 -0.17120
 H69 H 0.41309 0.07918 -0.20754
 N70 N 0.32782 0.11313 -0.08958
 N71 N 0.33930 0.13700 -0.07813
 C72 C 0.32332 0.14501 -0.05483
 C73 C 0.30086 0.12510 -0.05128
 C74 C 0.30443 0.10516 -0.07367
 H75 H 0.32789 0.16373 -0.04116
 H76 H 0.29068 0.08649 -0.07826
 H77 H 0.38037 0.11321 -0.10706
 H78 H 0.35714 0.13684 -0.13078
 N79 N 0.08917 0.82914 0.38825
 N80 N 0.07918 0.83961 0.36351
 C81 C 0.05640 0.82319 0.35473
 C82 C 0.05138 0.80156 0.37545
 C83 C 0.07265 0.80623 0.39649
 H84 H 0.04387 0.82728 0.33520
 H85 H 0.07664 0.79328 0.41582
 Cu86 Cu 0.09627 0.87452 0.34613
 Cu87 Cu 0.12414 0.84457 0.40689
 Cu88 Cu 0.15573 0.90592 0.37529
 N89 N 0.11324 0.90978 0.32933
 N90 N 0.13692 0.92150 0.34051
 C91 C 0.14467 0.94494 0.32451
 C92 C 0.12462 0.94832 0.30222
 C93 C 0.10491 0.92566 0.30601
 H94 H 0.16331 0.95874 0.32899
 H95 H 0.08621 0.92086 0.29247
 N96 N 0.17143 0.88694 0.41056
 N97 N 0.15966 0.86335 0.42234
 C98 C 0.17567 0.85532 0.44564
 C99 C 0.19841 0.87496 0.44885
 C100 C 0.19500 0.89474 0.42627
 H101 H 0.17095 0.83677 0.45952
 H102 H 0.20895 0.91321 0.42143
 H103 H 0.11872 0.88704 0.39264
 H104 H 0.14239 0.86296 0.36984
 C105 C 0.10260 0.14740 0.12541
 C106 C 0.10309 0.12605 0.14741
 C107 C 0.12443 0.10404 0.14742
 C108 C 0.14568 0.10390 0.12533
 C109 C 0.14563 0.12529 0.10330
 C110 C 0.12382 0.14684 0.10339
 H111 H 0.08674 0.12656 0.16447
 H112 H 0.16232 0.08710 0.12529
 H113 H 0.12337 0.16328 0.08635
 C114 C 0.39715 0.85306 0.62525
 C115 C 0.39697 0.87490 0.64680
 C116 C 0.37543 0.89672 0.64693
 C117 C 0.35391 0.89654 0.62513
 C118 C 0.35371 0.87488 0.60341
 C119 C 0.37542 0.85323 0.60366
 H120 H 0.41365 0.87490 0.66352
 H121 H 0.33724 0.91331 0.62508
 H122 H 0.37540 0.83645 0.58699
 C123 C 0.89741 0.64685 0.37458
 C124 C 0.87569 0.64660 0.39619
 C125 C 0.85395 0.62491 0.39641
 C126 C 0.85418 0.60325 0.37468
 C127 C 0.87573 0.60313 0.35291
 C128 C 0.89725 0.62505 0.35301
 H129 H 0.87573 0.66335 0.41289
 H130 H 0.83750 0.58644 0.37471
 H131 H 0.91393 0.62513 0.33628
 C132 C 0.60328 0.35342 -0.12549
 C133 C 0.62513 0.35350 -0.10402
 C134 C 0.64692 0.37513 -0.10388
 C135 C 0.64671 0.39684 -0.12559
 C136 C 0.62503 0.39712 -0.14723
 C137 C 0.60340 0.37534 -0.14699
 H138 H 0.62516 0.33668 -0.08736
 H139 H 0.66346 0.41358 -0.12566
 H140 H 0.58660 0.37544 -0.16360
 C141 C 0.01382 0.23621 0.12521
 C142 C -0.00302 0.24056 0.10006
 C143 C -0.02496 0.26189 0.10023
 C144 C -0.02982 0.27944 0.12515
 C145 C -0.01226 0.27487 0.15009
 C146 C 0.00928 0.25310 0.15033
 C147 C 0.03662 0.21349 0.12526
 C148 C 0.05301 0.20865 0.15068
 C149 C 0.07445 0.18680 0.15069
 C150 C 0.07982 0.17027 0.12537
 C151 C 0.06340 0.17557 0.09999
 C152 C 0.04156 0.19701 0.09990
 C153 C 0.02629 0.24778 0.17527
 C154 C 0.04768 0.22584 0.17549
 C155 C 0.00247 0.22353 0.07514
 C156 C 0.02448 0.20223 0.07502
 H157 H 0.02295 0.26060 0.19485
 H158 H 0.06021 0.22236 0.19522
 H159 H -0.01030 0.22676 0.05553
 H160 H 0.02806 0.18965 0.05532
 H161 H -0.03764 0.26507 0.08060
 H162 H -0.01562 0.28761 0.16968
 H163 H 0.08725 0.18289 0.17019
 H164 H 0.06735 0.16269 0.08055
 C165 C 0.48595 0.76389 0.62511
 C166 C 0.49402 0.75052 0.65149
 C167 C 0.51549 0.72867 0.65126
 C168 C 0.52907 0.72048 0.62494
 C169 C 0.52080 0.73426 0.59874
 C170 C 0.49912 0.75586 0.59867
 C171 C 0.46325 0.78674 0.62518
 C172 C 0.45499 0.79988 0.59876
 C173 C 0.43337 0.82154 0.59891
 C174 C 0.42005 0.83011 0.62526
 C175 C 0.42868 0.81670 0.65157
 C176 C 0.45026 0.79497 0.65165
 C177 C 0.49031 0.76955 0.57268
 C178 C 0.46858 0.79115 0.57272
 C179 C 0.48052 0.75935 0.67754
 C180 C 0.45904 0.78123 0.67763
 H181 H 0.50025 0.76348 0.55213
 H182 H 0.46237 0.80110 0.55219
 H183 H 0.48662 0.74931 0.69806
 H184 H 0.44921 0.78742 0.69820
 H185 H 0.52191 0.71841 0.67157
 H186 H 0.53088 0.72789 0.57834
 H187 H 0.42716 0.83199 0.57862
 H188 H 0.41832 0.82289 0.67190
 C189 C 0.98634 0.73610 0.37490
 C190 C 0.99342 0.75057 0.34884
 C191 C 1.01467 0.77270 0.34920
 C192 C 1.02966 0.77972 0.37521
 C193 C 1.02249 0.76442 0.40105
 C194 C 1.00054 0.74304 0.40110
 C195 C 0.96359 0.71323 0.37478
 C196 C 0.95596 0.69934 0.40103
 C197 C 0.93420 0.67775 0.40085
 C198 C 0.92032 0.66982 0.37461
 C199 C 0.92840 0.68386 0.34843
 C200 C 0.94991 0.70572 0.34843
 C201 C 0.99236 0.72859 0.42691
 C202 C 0.97033 0.70723 0.42691
 C203 C 0.97922 0.74248 0.32289
 C204 C 0.95796 0.72032 0.32267
 H205 H 1.00297 0.73394 0.44733
 H206 H 0.96458 0.69675 0.44732
 H207 H 0.98467 0.75327 0.30255
 H208 H 0.94765 0.71466 0.30217
 H209 H 1.02008 0.78366 0.32895
 H210 H 1.03318 0.76970 0.42143
 H211 H 0.92837 0.66681 0.42101
 H212 H 0.91761 0.67809 0.32820
 C213 C 0.51432 0.26420 -0.12515
 C214 C 0.50111 0.25617 -0.09869
 C215 C 0.47928 0.23466 -0.09875
 C216 C 0.47088 0.22100 -0.12497
 C217 C 0.48454 0.22916 -0.15127
 C218 C 0.50617 0.25090 -0.15151
 C219 C 0.53711 0.28702 -0.12524
 C220 C 0.55011 0.29528 -0.15173
 C221 C 0.57171 0.31704 -0.15171
 C222 C 0.58036 0.33045 -0.12542
 C223 C 0.56709 0.32182 -0.09905
 C224 C 0.54543 0.30014 -0.09884
 C225 C 0.51973 0.25970 -0.17758
 C226 C 0.54129 0.28155 -0.17769
 C227 C 0.51003 0.26979 -0.07271
 C228 C 0.53185 0.29137 -0.07278
 H229 H 0.51358 0.24966 -0.19807
 H230 H 0.55115 0.28773 -0.19827
 H231 H 0.50007 0.26370 -0.05215
 H232 H 0.53811 0.30129 -0.05226
 H233 H 0.46916 0.22829 -0.07835
 H234 H 0.47803 0.21898 -0.17159
 H235 H 0.58205 0.32327 -0.17205
 H236 H 0.57333 0.33227 -0.07877
 C237 C 0.12446 0.01456 0.23609
 C238 C 0.15092 0.00626 0.24905
 C239 C 0.15080 -0.01537 0.27075
 C240 C 0.12452 -0.02889 0.27927
 C241 C 0.09820 -0.02048 0.26585
 C242 C 0.09802 0.00140 0.24436
 C243 C 0.12444 0.03751 0.21345
 C244 C 0.09795 0.04605 0.20070
 C245 C 0.09806 0.06791 0.17921
 C246 C 0.12443 0.08112 0.17038
 C247 C 0.15079 0.07223 0.18342
 C248 C 0.15091 0.05046 0.20499
 C249 C 0.07196 0.01050 0.23106
 C250 C 0.07192 0.03247 0.20964
 C251 C 0.17696 0.01972 0.24001
 C252 C 0.17697 0.04141 0.21832
 H253 H 0.05141 0.00059 0.23731
 H254 H 0.05134 0.03887 0.19997
 H255 H 0.19753 0.01342 0.24978
 H256 H 0.19755 0.05119 0.21194
 H257 H 0.17119 -0.02195 0.28069
 H258 H 0.07784 -0.03057 0.27245
 H259 H 0.07772 0.07433 0.16903
 H260 H 0.17113 0.08252 0.17704
 C261 C 0.62509 0.48625 -0.23626
 C262 C 0.65126 0.49337 -0.25044
 C263 C 0.65111 0.51462 -0.27251
 C264 C 0.62517 0.52960 -0.27984
 C265 C 0.59919 0.52243 -0.26484
 C266 C 0.59895 0.50043 -0.24346
 C267 C 0.62507 0.46347 -0.21343
 C268 C 0.59874 0.45579 -0.19977
 C269 C 0.59882 0.43398 -0.17821
 C270 C 0.62503 0.42012 -0.17011
 C271 C 0.65126 0.42826 -0.18395
 C272 C 0.65137 0.44982 -0.20573
 C273 C 0.57304 0.49219 -0.22925
 C274 C 0.57291 0.47013 -0.20790
 C275 C 0.67715 0.47920 -0.24215
 C276 C 0.67723 0.45791 -0.22006
 H277 H 0.55264 0.50276 -0.23478
 H278 H 0.55243 0.46433 -0.19760
 H279 H 0.69756 0.48470 -0.25274
 H280 H 0.69769 0.44763 -0.21424
 H281 H 0.67147 0.52004 -0.28319
 H282 H 0.57888 0.53314 -0.27035
 H283 H 0.57859 0.42809 -0.16745
 H284 H 0.67146 0.41747 -0.17809
 C285 C 0.37499 0.98580 0.73586
 C286 C 0.40133 0.99915 0.74406
 C287 C 0.40105 1.02093 0.76560
 C288 C 0.37470 1.02909 0.77912
 C289 C 0.34851 1.01534 0.77072
 C290 C 0.34851 0.99379 0.74897
 C291 C 0.37512 0.96300 0.71311
 C292 C 0.34874 0.94984 0.70474
 C293 C 0.34897 0.92820 0.68309
 C294 C 0.37536 0.91965 0.66985
 C295 C 0.40163 0.93308 0.67858
 C296 C 0.40163 0.95479 0.70018
 C297 C 0.32255 0.98012 0.74003
 C298 C 0.32266 0.95855 0.71825
 C299 C 0.42743 0.99037 0.73061
 C300 C 0.42758 0.96854 0.70907
 H301 H 0.30197 0.98616 0.74993
 H302 H 0.30215 0.94859 0.71196
 H303 H 0.44792 1.00042 0.73681
 H304 H 0.44818 0.96238 0.69929
 H305 H 0.42135 1.03115 0.77212
 H306 H 0.32810 1.02169 0.78076
 H307 H 0.32870 0.91773 0.67681
 H308 H 0.42199 0.92692 0.66827
 C309 C 0.87546 0.51375 0.26431
 C310 C 0.84904 0.50584 0.25100
 C311 C 0.84906 0.48419 0.22936
 C312 C 0.87520 0.47024 0.22127
 C313 C 0.90148 0.47830 0.23499
 C314 C 0.90176 0.50021 0.25642
 C315 C 0.87557 0.53666 0.28694
 C316 C 0.90202 0.54480 0.30006
 C317 C 0.90199 0.56662 0.32157
 C318 C 0.87572 0.58017 0.33003
 C319 C 0.84940 0.57168 0.31661
 C320 C 0.84921 0.54998 0.29503
 C321 C 0.92780 0.50893 0.27005
 C322 C 0.92794 0.53088 0.29147
 C323 C 0.82311 0.51970 0.25963
 C324 C 0.82319 0.54135 0.28132
 H325 H 0.94826 0.49873 0.26409
 H326 H 0.94850 0.53698 0.30140
 H327 H 0.80258 0.51372 0.24957
 H328 H 0.80270 0.55144 0.28739
 H329 H 0.82868 0.47792 0.21916
 H330 H 0.92175 0.46791 0.22869
 H331 H 0.92229 0.57277 0.33201
 H332 H 0.82915 0.58225 0.32270
 C333 C 0.23459 0.12518 0.01452
 C334 C 0.24271 0.09866 0.00142
 C335 C 0.26431 0.09878 -0.02023
 C336 C 0.27798 0.12513 -0.02853
 C337 C 0.26969 0.15151 -0.01501
 C338 C 0.24786 0.15168 0.00641
 C339 C 0.21175 0.12521 0.03717
 C340 C 0.20345 0.15177 0.05008
 C341 C 0.18172 0.15167 0.07160
 C342 C 0.16841 0.12525 0.08030
 C343 C 0.17706 0.09881 0.06711
 C344 C 0.19870 0.09867 0.04550
 C345 C 0.23899 0.17782 0.01985
 C346 C 0.21711 0.17787 0.04128
 C347 C 0.22911 0.07255 0.01030
 C348 C 0.20752 0.07255 0.03200
 H349 H 0.24900 0.19842 0.01372
 H350 H 0.21088 0.19851 0.05106
 H351 H 0.23526 0.05193 0.00042
 H352 H 0.19764 0.05193 0.03826
 H353 H 0.27076 0.07834 -0.03027
 H354 H 0.27985 0.17193 -0.02146
 H355 H 0.17548 0.17207 0.08190
 H356 H 0.16669 0.07842 0.07342
 C357 C 0.76490 0.62487 0.48520
 C358 C 0.75166 0.65136 0.49318
 C359 C 0.72995 0.65123 0.51474
 C360 C 0.72177 0.62492 0.52854
 C361 C 0.73539 0.59856 0.52034
 C362 C 0.75686 0.59839 0.49854
 C363 C 0.78766 0.62487 0.46246
 C364 C 0.80073 0.59834 0.45430
 C365 C 0.82237 0.59847 0.43267
 C366 C 0.83101 0.62488 0.41929
 C367 C 0.81765 0.65129 0.42781
 C368 C 0.79594 0.65139 0.44936
 C369 C 0.77042 0.57228 0.48978
 C370 C 0.79195 0.57226 0.46799
 C371 C 0.76047 0.67746 0.47953
 C372 C 0.78228 0.67748 0.45803
 H373 H 0.76433 0.55169 0.49982
 H374 H 0.80183 0.55164 0.46186
 H375 H 0.75048 0.69805 0.48556
 H376 H 0.78848 0.69810 0.44810
 H377 H 0.71982 0.67165 0.52110
 H378 H 0.72901 0.57816 0.53060
 H379 H 0.83277 0.57810 0.42653
 H380 H 0.82386 0.67166 0.41739
 C381 C 0.73575 0.37496 -0.01497
 C382 C 0.74378 0.40143 -0.00166
 C383 C 0.76532 0.40126 0.02005
 C384 C 0.77902 0.37493 0.02819
 C385 C 0.77077 0.34859 0.01451
 C386 C 0.74901 0.34847 -0.00698
 C387 C 0.71302 0.37500 -0.03772
 C388 C 0.70479 0.34850 -0.05085
 C389 C 0.68316 0.34865 -0.07246
 C390 C 0.66984 0.37508 -0.08101
 C391 C 0.67841 0.40146 -0.06759
 C392 C 0.69997 0.40154 -0.04591
 C393 C 0.74019 0.32238 -0.02061
 C394 C 0.71842 0.32239 -0.04214
 C395 C 0.73019 0.42754 -0.01039
 C396 C 0.70868 0.42760 -0.03218
 H397 H 0.75017 0.30178 -0.01457
 H398 H 0.71223 0.30179 -0.05207
 H399 H 0.73626 0.44811 -0.00034
 H400 H 0.69879 0.44822 -0.03831
 H401 H 0.77172 0.42167 0.03023
 H402 H 0.78094 0.32817 0.02086
 H403 H 0.67698 0.32830 -0.08291
 H404 H 0.66801 0.42184 -0.07373
 C405 C 0.26471 0.87488 0.51463
 C406 C 0.25665 0.90138 0.50140
 C407 C 0.23508 0.90125 0.47973
 C408 C 0.22135 0.87491 0.47155
 C409 C 0.22960 0.84854 0.48517
 C410 C 0.25141 0.84838 0.50661
 C411 C 0.28750 0.87487 0.53732
 C412 C 0.29576 0.84834 0.55036
 C413 C 0.31745 0.84845 0.57191
 C414 C 0.33081 0.87487 0.58050
 C415 C 0.32221 0.90129 0.56717
 C416 C 0.30059 0.90141 0.54555
 C417 C 0.26025 0.82227 0.52016
 C418 C 0.28208 0.82224 0.54163
 C419 C 0.27025 0.92749 0.51020
 C420 C 0.29181 0.92752 0.53193
 H421 H 0.25023 0.80166 0.51410
 H422 H 0.28827 0.80161 0.55150
 H423 H 0.26415 0.94810 0.50024
 H424 H 0.30171 0.94814 0.53812
 H425 H 0.22866 0.92168 0.46960
 H426 H 0.21939 0.82813 0.47880
 H427 H 0.32363 0.82807 0.58230
 H428 H 0.33262 0.92168 0.57335
   
