data_POSCAR
  _audit_creation_date              2014-09-24
  _audit_creation_method            'ToBaCCo'
  _symmetry_space_group_name_H-M    'P1'
  _symmetry_Int_Tables_number       1
  _symmetry_cell_setting            triclinic
  loop_
  _symmetry_equiv_pos_as_xyz
 x,y,z
_cell_length_a 68.7892
_cell_length_b 11.6534
_cell_length_c 10.3461
_cell_angle_alpha 63.737800
_cell_angle_beta 89.949000
_cell_angle_gamma 88.519500
loop_
  _atom_site_label
  _atom_site_type_symbol
  _atom_site_fract_x
  _atom_site_fract_y
  _atom_site_fract_z
C1 C 0.74674 0.27021 0.50041
 C2 C 0.74961 0.31126 0.35470
 C3 C 0.76958 0.33011 0.29295
 C4 C 0.73283 0.34414 0.25362
 C5 C 0.72687 0.25463 0.56490
 C6 C 0.76376 0.22992 0.59949
 C7 C 0.78240 0.40925 0.31839
 C8 C 0.80213 0.40796 0.28789
 C9 C 0.80983 0.33231 0.22227
 C10 C 0.79603 0.26548 0.18094
 C11 C 0.77642 0.26254 0.21828
 C12 C 0.72090 0.44930 0.23400
 C13 C 0.70134 0.45290 0.19702
 C14 C 0.69362 0.35282 0.17359
 C15 C 0.70657 0.25981 0.16732
 C16 C 0.72608 0.25517 0.20776
 C17 C 0.71291 0.18766 0.52952
 C18 C 0.69343 0.19513 0.56058
 C19 C 0.68756 0.25962 0.64028
 C20 C 0.70170 0.31169 0.69488
 C21 C 0.72128 0.31036 0.65623
 C22 C 0.77469 0.12135 0.61508
 C23 C 0.79399 0.10540 0.66176
 C24 C 0.80274 0.19785 0.69392
 C25 C 0.79100 0.29852 0.69429
 C26 C 0.77158 0.31388 0.64837
 H27 H 0.77733 0.46686 0.37046
 H28 H 0.81104 0.46073 0.32719
 H29 H 0.79988 0.21426 0.11915
 H30 H 0.76684 0.20392 0.19196
 H31 H 0.72626 0.52125 0.26276
 H32 H 0.69208 0.52766 0.20085
 H33 H 0.73494 0.17237 0.22236
 H34 H 0.71690 0.13466 0.47095
 H35 H 0.68277 0.15192 0.52063
 H36 H 0.69745 0.35864 0.76075
 H37 H 0.73170 0.35700 0.69370
 H38 H 0.76886 0.05616 0.57710
 H39 H 0.80238 0.02558 0.66236
 H40 H 0.79717 0.37208 0.71728
 H41 H 0.76356 0.39978 0.63427
 H42 H 0.70132 0.18404 0.14412
 C43 C 0.25124 0.76798 0.43902
 C44 C 0.24998 0.75355 0.57768
 C45 C 0.23109 0.73637 0.65195
 C46 C 0.26751 0.76953 0.64865
 C47 C 0.27051 0.76162 0.37778
 C48 C 0.23372 0.79803 0.34512
 C49 C 0.22361 0.82669 0.69554
 C50 C 0.20368 0.83001 0.72356
 C51 C 0.19152 0.73916 0.71411
 C52 C 0.19974 0.63811 0.69287
 C53 C 0.21938 0.63713 0.66162
 C54 C 0.27613 0.88852 0.58531
 C55 C 0.29565 0.89911 0.60966
 C56 C 0.30682 0.79177 0.70204
 C57 C 0.29754 0.67453 0.77867
 C58 C 0.27790 0.66337 0.75148
 C59 C 0.28189 0.64912 0.44445
 C60 C 0.30151 0.64747 0.41265
 C61 C 0.31025 0.75937 0.31328
 C62 C 0.29852 0.87055 0.23877
 C63 C 0.27873 0.87152 0.27075
 C64 C 0.22853 0.72108 0.27873
 C65 C 0.20961 0.73093 0.22350
 C66 C 0.19600 0.82041 0.23070
 C67 C 0.20238 0.90876 0.27838
 C68 C 0.22110 0.89803 0.33384
 H69 H 0.23291 0.89837 0.69905
 H70 H 0.19765 0.90577 0.74634
 H71 H 0.19081 0.56309 0.69479
 H72 H 0.22544 0.56312 0.63736
 H73 H 0.26818 0.97025 0.50517
 H74 H 0.30231 0.98995 0.54835
 H75 H 0.27137 0.57031 0.80047
 H76 H 0.27568 0.56419 0.52660
 H77 H 0.30995 0.55928 0.46871
 H78 H 0.30484 0.95855 0.16191
 H79 H 0.27021 0.95996 0.21982
 H80 H 0.23856 0.64769 0.27889
 H81 H 0.20533 0.66439 0.18241
 H82 H 0.19243 0.97952 0.28433
 H83 H 0.22538 0.96153 0.37846
 H84 H 0.30572 0.58950 0.85036
 C85 C 0.24941 0.28523 -0.45670
 C86 C 0.24824 0.29954 -0.59646
 C87 C 0.26569 0.32308 -0.68847
 C88 C 0.22940 0.27810 -0.65206
 C89 C 0.23104 0.28721 -0.38201
 C90 C 0.26835 0.26647 -0.37700
 C91 C 0.27747 0.42547 -0.70904
 C92 C 0.29703 0.42204 -0.74284
 C93 C 0.30537 0.31429 -0.75364
 C94 C 0.29248 0.22383 -0.75935
 C95 C 0.27268 0.22962 -0.72904
 C96 C 0.21897 0.37716 -0.76414
 C97 C 0.19922 0.36264 -0.78758
 C98 C 0.18952 0.24966 -0.69674
 C99 C 0.20072 0.14864 -0.59195
 C100 C 0.22035 0.16244 -0.57249
 C101 C 0.22430 0.17722 -0.26580
 C102 C 0.20464 0.17058 -0.22611
 C103 C 0.19149 0.27507 -0.30088
 C104 C 0.19907 0.38706 -0.41075
 C105 C 0.21840 0.39251 -0.44962
 C106 C 0.28312 0.19030 -0.39407
 C107 C 0.30180 0.18604 -0.34131
 C108 C 0.30615 0.24886 -0.25646
 C109 C 0.29069 0.31470 -0.22490
 C110 C 0.27197 0.32317 -0.28458
 H111 H 0.27190 0.50248 -0.68683
 H112 H 0.30577 0.50136 -0.75305
 H113 H 0.29774 0.14026 -0.77006
 H114 H 0.26350 0.15206 -0.71896
 H115 H 0.22564 0.46832 -0.82626
 H116 H 0.19135 0.44411 -0.86889
 H117 H 0.22839 0.08541 -0.48800
 H118 H 0.23384 0.09388 -0.21269
 H119 H 0.19989 0.08331 -0.13773
 H120 H 0.18994 0.46854 -0.47711
 H121 H 0.22319 0.47608 -0.54164
 H122 H 0.28036 0.13797 -0.45463
 H123 H 0.31286 0.13708 -0.37366
 H124 H 0.29300 0.36180 -0.15673
 H125 H 0.26058 0.37813 -0.26309
 H126 H 0.19446 0.05733 -0.52509
 C127 C -0.24873 0.74843 -0.43650
 C128 C -0.24982 0.78074 -0.58113
 C129 C -0.23236 0.82218 -0.67320
 C130 C -0.26855 0.76560 -0.64309
 C131 C -0.26687 0.75144 -0.36088
 C132 C -0.22984 0.71997 -0.35618
 C133 C -0.22045 0.91380 -0.66344
 C134 C -0.20075 0.91557 -0.69562
 C135 C -0.19252 0.82606 -0.73945
 C136 C -0.20556 0.75287 -0.77653
 C137 C -0.22534 0.75106 -0.74330
 C138 C -0.27902 0.87092 -0.74671
 C139 C -0.29879 0.86027 -0.77300
 C140 C -0.30846 0.74446 -0.69330
 C141 C -0.29720 0.63727 -0.59923
 C142 C -0.27755 0.64760 -0.57617
 C143 C -0.27458 0.63987 -0.25369
 C144 C -0.29408 0.63947 -0.21390
 C145 C -0.30615 0.75133 -0.28027
 C146 C -0.29753 0.86414 -0.38029
 C147 C -0.27820 0.86404 -0.41841
 C148 C -0.21525 0.64796 -0.38398
 C149 C -0.19633 0.64338 -0.33451
 C150 C -0.19171 0.70155 -0.24493
 C151 C -0.20699 0.75980 -0.20199
 C152 C -0.22581 0.77065 -0.25891
 H153 H -0.22589 0.97413 -0.61561
 H154 H -0.19195 0.98337 -0.67882
 H155 H -0.20052 0.68574 -0.81567
 H156 H -0.23460 0.68347 -0.75710
 H157 H -0.27235 0.96323 -0.79878
 H158 H -0.30674 0.94591 -0.84602
 H159 H -0.26950 0.56488 -0.49866
 H160 H -0.26598 0.55142 -0.20853
 H161 H -0.29961 0.55060 -0.13322
 H162 H -0.30609 0.94994 -0.44225
 H163 H -0.27246 0.94854 -0.50509
 H164 H -0.21815 0.60240 -0.45286
 H165 H -0.18531 0.59978 -0.37433
 H166 H -0.20437 0.80124 -0.12866
 H167 H -0.23695 0.82346 -0.23179
 H168 H -0.30352 0.54429 -0.54333
 N169 N -0.01961 0.77748 -0.07576
 N170 N -0.03623 0.71780 -0.05201
 N171 N 0.02031 0.88446 -0.20418
 N172 N 0.03581 0.89026 -0.28249
 N173 N 0.02119 0.78012 -0.08155
 N174 N 0.03725 0.71285 -0.07325
 N175 N -0.02074 0.88464 -0.19583
 N176 N -0.03827 0.90060 -0.25420
 C177 C -0.04758 0.79478 -0.16474
 C178 C 0.04620 0.78181 -0.19976
 N179 N 0.01892 1.22399 -0.20786
 N180 N 0.03585 1.27754 -0.21780
 N181 N -0.02190 1.15436 -0.27342
 N182 N -0.03931 1.15742 -0.32859
 N183 N -0.02213 1.22203 -0.20007
 N184 N -0.03979 1.27045 -0.20258
 N185 N 0.01927 1.15289 -0.27729
 N186 N 0.03661 1.15442 -0.33270
 Mn187 Mn -0.00076 1.02013 -0.23948
 C188 C 0.04658 1.23498 -0.29773
 C189 C -0.05032 1.23088 -0.28476
 N190 N 0.02244 0.72470 0.21963
 N191 N 0.04041 0.68153 0.21915
 N192 N -0.01936 0.79037 0.29565
 N193 N -0.03663 0.78636 0.35289
 N194 N -0.01894 0.72053 0.22482
 N195 N -0.03597 0.66773 0.23339
 N196 N 0.02184 0.79336 0.29215
 N197 N 0.03935 0.79762 0.34150
 Mn198 Mn 0.00132 0.74908 0.07271
 C199 C 0.05074 0.72568 0.29811
 C200 C -0.04682 0.70807 0.31509
 N201 N -0.02070 1.16816 0.09876
 N202 N -0.03685 1.23612 0.08477
 N203 N 0.02029 1.06348 0.21683
 N204 N 0.03629 1.05788 0.29047
 N205 N 0.01997 1.16713 0.09323
 N206 N 0.03575 1.23349 0.07936
 N207 N -0.02086 1.06070 0.21813
 N208 N -0.03743 1.05200 0.28636
 Mn209 Mn -0.00095 1.19670 -0.05489
 Mn210 Mn 0.00045 0.92568 0.25764
 Cl211 Cl 0.00005 0.97282 0.00912
 C212 C -0.04702 1.16366 0.20302
 C213 C 0.04575 1.16503 0.20371
 N214 N 0.47880 0.29733 -0.06584
 N215 N 0.46196 0.24031 -0.04534
 N216 N 0.51919 0.39291 -0.18935
 N217 N 0.53442 0.39510 -0.26814
 N218 N 0.51974 0.28856 -0.06685
 N219 N 0.53542 0.21775 -0.05853
 N220 N 0.47810 0.40610 -0.18432
 N221 N 0.46058 0.42608 -0.24443
 C222 C 0.45086 0.32035 -0.15825
 C223 C 0.54433 0.28467 -0.18566
 N224 N 0.52078 0.73036 -0.18773
 N225 N 0.53790 0.78159 -0.19744
 N226 N 0.47949 0.67610 -0.26068
 N227 N 0.46242 0.69337 -0.32581
 N228 N 0.48011 0.74268 -0.18650
 N229 N 0.46348 0.80518 -0.19809
 N230 N 0.52065 0.66023 -0.25834
 N231 N 0.53792 0.65983 -0.31411
 Mn232 Mn 0.49932 0.53462 -0.22515
 C233 C 0.54833 0.73868 -0.27830
 C234 C 0.45279 0.77630 -0.28815
 N235 N 0.52077 0.22947 0.23499
 N236 N 0.53853 0.18306 0.23444
 N237 N 0.47915 0.30726 0.30540
 N238 N 0.46163 0.30562 0.35935
 N239 N 0.47961 0.23617 0.23597
 N240 N 0.46262 0.18375 0.24347
 N241 N 0.52063 0.29621 0.30970
 N242 N 0.53820 0.29542 0.36065
 Mn243 Mn 0.49982 0.26143 0.08537
 C244 C 0.54920 0.22263 0.31593
 C245 C 0.45153 0.22644 0.32156
 N246 N 0.48071 0.68366 0.11273
 N247 N 0.46518 0.75685 0.09842
 N248 N 0.52128 0.56646 0.23643
 N249 N 0.53744 0.55697 0.31054
 N250 N 0.52137 0.67092 0.11371
 N251 N 0.53741 0.73424 0.10121
 N252 N 0.48011 0.57751 0.23328
 N253 N 0.46402 0.57636 0.30399
 Mn254 Mn 0.50077 0.70788 -0.03742
 Mn255 Mn 0.50022 0.43550 0.27350
 Cl256 Cl 0.50004 0.48490 0.02416
 C257 C 0.45495 0.68981 0.21870
 C258 C 0.54731 0.66309 0.22488
 C259 C 0.36707 0.24627 0.28792
 C260 C 0.35752 0.31994 0.34786
 C261 C 0.33740 0.34336 0.33052
 C262 C 0.32594 0.29284 0.25580
 C263 C 0.33546 0.21434 0.20194
 C264 C 0.35568 0.19253 0.21640
 C265 C 0.38885 0.22936 0.30413
 C266 C 0.40009 0.16447 0.24180
 C267 C 0.42040 0.15840 0.25371
 C268 C 0.43006 0.21664 0.32798
 C269 C 0.41899 0.27711 0.39477
 C270 C 0.39862 0.28493 0.38221
 C271 C 0.36802 0.36908 0.42699
 C272 C 0.38808 0.35148 0.44412
 H273 H 0.36056 0.42198 0.47677
 H274 H 0.39554 0.39124 0.50615
 H275 H 0.33067 0.39620 0.38320
 H276 H 0.32753 0.17223 0.14406
 H277 H 0.42859 0.11073 0.20107
 H278 H 0.42627 0.32267 0.45206
 H279 H 0.36212 0.13293 0.17143
 H280 H 0.39351 0.12005 0.18122
 C281 C -0.13106 0.74796 0.29086
 C282 C -0.14005 0.80475 0.37183
 C283 C -0.16019 0.82980 0.36118
 C284 C -0.17200 0.80290 0.26674
 C285 C -0.16283 0.74542 0.18713
 C286 C -0.14278 0.71870 0.19881
 C287 C -0.10938 0.72497 0.30449
 C288 C -0.09896 0.66572 0.23197
 C289 C -0.07867 0.65300 0.24256
 C290 C -0.06826 0.70056 0.32418
 C291 C -0.07853 0.75503 0.40131
 C292 C -0.09888 0.76766 0.39191
 C293 C -0.12885 0.84064 0.45982
 C294 C -0.10869 0.82603 0.46640
 H295 H -0.13578 0.88344 0.52217
 H296 H -0.10064 0.86105 0.53086
 H297 H -0.16654 0.86701 0.43119
 H298 H -0.17091 0.72305 0.11219
 H299 H -0.07110 0.61019 0.18213
 H300 H -0.07065 0.79138 0.46549
 H301 H -0.13671 0.67638 0.13346
 H302 H -0.10615 0.63152 0.16385
 C303 C 0.62994 0.71546 0.29140
 C304 C 0.64007 0.79686 0.16650
 C305 C 0.66031 0.80988 0.17207
 C306 C 0.67105 0.73595 0.29929
 C307 C 0.66078 0.65279 0.42177
 C308 C 0.64063 0.64444 0.41857
 C309 C 0.60829 0.70618 0.28157
 C310 C 0.59671 0.63204 0.40084
 C311 C 0.57672 0.62279 0.38381
 C312 C 0.56782 0.68587 0.24783
 C313 C 0.57901 0.76531 0.13001
 C314 C 0.59908 0.77542 0.14584
 C315 C 0.62997 0.86339 0.03612
 C316 C 0.60995 0.85312 0.02620
 H317 H 0.63766 0.92555 -0.05967
 H318 H 0.60279 0.90886 -0.07637
 H319 H 0.66770 0.87275 0.07466
 H320 H 0.66815 0.59698 0.52366
 H321 H 0.56819 0.56569 0.47704
 H322 H 0.57225 0.81624 0.02431
 H323 H 0.63375 0.58054 0.51668
 H324 H 0.60279 0.57947 0.50769
 C325 C 0.12813 1.21431 0.27998
 C326 C 0.13876 1.28743 0.15432
 C327 C 0.15890 1.30160 0.16242
 C328 C 0.16912 1.23790 0.29408
 C329 C 0.15843 1.16130 0.41764
 C330 C 0.13833 1.15063 0.41119
 C331 C 0.10650 1.20665 0.26663
 C332 C 0.09435 1.14302 0.38572
 C333 C 0.07439 1.13509 0.36586
 C334 C 0.06612 1.18931 0.22730
 C335 C 0.07788 1.25882 0.10887
 C336 C 0.09789 1.26780 0.12757
 C337 C 0.12926 1.34629 0.02082
 C338 C 0.10930 1.33713 0.00778
 H339 H 0.13734 1.40428 -0.07465
 H340 H 0.10257 1.38902 -0.09710
 H341 H 0.16663 1.35785 0.06412
 H342 H 0.16540 1.11292 0.52242
 H343 H 0.06538 1.08567 0.45898
 H344 H 0.07160 1.30204 0.00110
 H345 H 0.13108 1.09145 0.51004
 H346 H 0.09998 1.09814 0.49461
 C347 C 0.62585 0.26216 -0.30165
 C348 C 0.63860 0.21269 -0.18049
 C349 C 0.65884 0.21814 -0.19926
 C350 C 0.66658 0.27162 -0.33775
 C351 C 0.65401 0.32385 -0.45756
 C352 C 0.63390 0.32012 -0.44021
 C353 C 0.60435 0.25326 -0.27635
 C354 C 0.59042 0.30098 -0.38871
 C355 C 0.57066 0.30373 -0.35885
 C356 C 0.56434 0.25699 -0.21657
 C357 C 0.57785 0.19812 -0.10361
 C358 C 0.59778 0.19810 -0.13250
 C359 C 0.63110 0.15736 -0.04143
 C360 C 0.61114 0.14913 -0.01818
 H361 H 0.64086 0.11744 0.05076
 H362 H 0.60599 0.10288 0.09094
 H363 H 0.66857 0.17715 -0.10644
 H364 H 0.65987 0.36714 -0.56522
 H365 H 0.56031 0.34616 -0.44726
 H366 H 0.57302 0.16050 0.00705
 H367 H 0.62498 0.36352 -0.53633
 H368 H 0.59452 0.34066 -0.50012
 C369 C 0.12915 0.75036 -0.27624
 C370 C 0.14030 0.68762 -0.14746
 C371 C 0.16067 0.68821 -0.15079
 C372 C 0.17024 0.75099 -0.28129
 C373 C 0.15939 0.81322 -0.40959
 C374 C 0.13904 0.81324 -0.40747
 C375 C 0.10734 0.74820 -0.26543
 C376 C 0.09466 0.81042 -0.38490
 C377 C 0.07453 0.81522 -0.36524
 C378 C 0.06667 0.75781 -0.22664
 C379 C 0.07899 0.68675 -0.10915
 C380 C 0.09912 0.68316 -0.12715
 C381 C 0.13115 0.62219 -0.01579
 C382 C 0.11102 0.61848 -0.00603
 H383 H 0.13980 0.56889 0.08034
 H384 H 0.10458 0.56241 0.09764
 H385 H 0.16912 0.63791 -0.05209
 H386 H 0.16671 0.86028 -0.51185
 H387 H 0.06509 0.86531 -0.45807
 H388 H 0.07305 0.64067 -0.00151
 H389 H 0.13137 0.86217 -0.50912
 H390 H 0.10004 0.85838 -0.49326
 C391 C 0.36921 0.80926 -0.30270
 C392 C 0.35959 0.73342 -0.17254
 C393 C 0.33922 0.72964 -0.17009
 C394 C 0.32825 0.80081 -0.29590
 C395 C 0.33792 0.87937 -0.42317
 C396 C 0.35805 0.88483 -0.42620
 C397 C 0.39090 0.80627 -0.30341
 C398 C 0.40174 0.86738 -0.43076
 C399 C 0.42199 0.85785 -0.42659
 C400 C 0.43169 0.79066 -0.29516
 C401 C 0.42120 0.72965 -0.16800
 C402 C 0.40088 0.73424 -0.17144
 C403 C 0.37035 0.66204 -0.04602
 C404 C 0.39058 0.66398 -0.04504
 H405 H 0.36305 0.60419 0.05403
 H406 H 0.39829 0.60703 0.05564
 H407 H 0.33194 0.67139 -0.07027
 H408 H 0.33003 0.93390 -0.52339
 H409 H 0.43009 0.90245 -0.52564
 H410 H 0.42893 0.67443 -0.06691
 H411 H 0.36454 0.94698 -0.52707
 H412 H 0.39488 0.91811 -0.53502
 C413 C -0.13468 1.21421 -0.28086
 C414 C -0.14336 1.16579 -0.36956
 C415 C -0.16364 1.15999 -0.37600
 C416 C -0.17572 1.19832 -0.29162
 C417 C -0.16707 1.24513 -0.20234
 C418 C -0.14689 1.25432 -0.19831
 C419 C -0.11290 1.22198 -0.28096
 C420 C -0.10273 1.26771 -0.19611
 C421 C -0.08249 1.27484 -0.20149
 C422 C -0.07181 1.23566 -0.29098
 C423 C -0.08173 1.18811 -0.37463
 C424 C -0.10208 1.18017 -0.36938
 C425 C -0.13178 1.12339 -0.45170
 C426 C -0.11160 1.12844 -0.44991
 H427 H -0.13854 1.08690 -0.51968
 H428 H -0.10328 1.09205 -0.51337
 H429 H -0.17000 1.12797 -0.44971
 H430 H -0.17589 1.27556 -0.13579
 H431 H -0.07517 1.30888 -0.13293
 H432 H -0.07357 1.15467 -0.44167
 H433 H -0.14120 1.29331 -0.13004
 H434 H -0.11010 1.29718 -0.12362
 C435 C 0.63207 0.75687 -0.26194
 C436 C 0.64259 0.64058 -0.22479
 C437 C 0.66299 0.63772 -0.22387
 C438 C 0.67343 0.74993 -0.25965
 C439 C 0.66271 0.86348 -0.28671
 C440 C 0.64245 0.86749 -0.29005
 C441 C 0.61033 0.75685 -0.27101
 C442 C 0.59849 0.86772 -0.30819
 C443 C 0.57830 0.86177 -0.31266
 C444 C 0.56953 0.74703 -0.28735
 C445 C 0.58107 0.63641 -0.25238
 C446 C 0.60133 0.64002 -0.24100
 C447 C 0.63272 0.52768 -0.19152
 C448 C 0.61254 0.52729 -0.19833
 H449 H 0.64079 0.43825 -0.15937
 H450 H 0.60557 0.43764 -0.17057
 H451 H 0.67048 0.54859 -0.20417
 H452 H 0.66987 0.95070 -0.30486
 H453 H 0.56947 0.94714 -0.33590
 H454 H 0.57421 0.54643 -0.22838
 H455 H 0.63528 0.95854 -0.31538
 H456 H 0.60445 0.95941 -0.33158
 C457 C 0.12984 1.26364 -0.27762
 C458 C 0.14098 1.14807 -0.22854
 C459 C 0.16144 1.15028 -0.22586
 C460 C 0.17111 1.26760 -0.27671
 C461 C 0.15958 1.38008 -0.31567
 C462 C 0.13947 1.37829 -0.31641
 C463 C 0.10825 1.25981 -0.28840
 C464 C 0.09606 1.37052 -0.33572
 C465 C 0.07601 1.36208 -0.34122
 C466 C 0.06769 1.24431 -0.30560
 C467 C 0.07952 1.13330 -0.26046
 C468 C 0.09974 1.14000 -0.24899
 C469 C 0.13161 1.03189 -0.18753
 C470 C 0.11142 1.02802 -0.19704
 H471 H 0.14002 0.94284 -0.14903
 H472 H 0.10483 0.93616 -0.16387
 H473 H 0.16959 1.06130 -0.19566
 H474 H 0.16581 1.47237 -0.34752
 H475 H 0.06693 1.44786 -0.37314
 H476 H 0.07292 1.04127 -0.22892
 H477 H 0.13185 1.46901 -0.34946
 H478 H 0.10157 1.46437 -0.36534
 C479 C 0.36729 0.27208 -0.16914
 C480 C 0.36055 0.17159 -0.19675
 C481 C 0.34057 0.15676 -0.20767
 C482 C 0.32686 0.25005 -0.21046
 C483 C 0.33366 0.35024 -0.18309
 C484 C 0.35347 0.35904 -0.15844
 C485 C 0.38888 0.28482 -0.16072
 C486 C 0.39723 0.37563 -0.12385
 C487 C 0.41742 0.38791 -0.12526
 C488 C 0.42967 0.30963 -0.16259
 C489 C 0.42167 0.21502 -0.19263
 C490 C 0.40142 0.20214 -0.19216
 C491 C 0.37375 0.09054 -0.22214
 C492 C 0.39371 0.10716 -0.22307
 H493 H 0.36850 0.01541 -0.24615
 H494 H 0.40326 0.04376 -0.24700
 H495 H 0.33598 0.07394 -0.21991
 H496 H 0.32388 0.42521 -0.18562
 H497 H 0.42352 0.45785 -0.09572
 H498 H 0.43123 0.15191 -0.21714
 H499 H 0.35773 0.43799 -0.13782
 H500 H 0.38842 0.43778 -0.09411
 C501 C -0.13071 0.73832 -0.17047
 C502 C -0.13710 0.63645 -0.19707
 C503 C -0.15697 0.61877 -0.20759
 C504 C -0.17094 0.70835 -0.20636
 C505 C -0.16450 0.81089 -0.18201
 C506 C -0.14475 0.82480 -0.16220
 C507 C -0.10923 0.75390 -0.16211
 C508 C -0.10118 0.85197 -0.13626
 C509 C -0.08104 0.86615 -0.13939
 C510 C -0.06863 0.78234 -0.16642
 C511 C -0.07630 0.68270 -0.18754
 C512 C -0.09645 0.66866 -0.18714
 C513 C -0.12366 0.55750 -0.22302
 C514 C -0.10379 0.57338 -0.21845
 H515 H -0.12860 0.48765 -0.25668
 H516 H -0.09395 0.51427 -0.24609
 H517 H -0.16135 0.53633 -0.22128
 H518 H -0.17459 0.88279 -0.18086
 H519 H -0.07507 0.94122 -0.11809
 H520 H -0.06653 0.61753 -0.20697
 H521 H -0.14074 0.90542 -0.14408
 H522 H -0.11011 0.91809 -0.11339
 C523 C 0.37260 0.76684 0.26525
 C524 C 0.36417 0.69666 0.40146
 C525 C 0.34392 0.69501 0.41569
 C526 C 0.33168 0.76140 0.29536
 C527 C 0.34004 0.83043 0.15989
 C528 C 0.36023 0.83324 0.14490
 C529 C 0.39429 0.76198 0.25462
 C530 C 0.40423 0.83317 0.12627
 C531 C 0.42420 0.81508 0.11786
 C532 C 0.43471 0.72431 0.23695
 C533 C 0.42528 0.66028 0.36865
 C534 C 0.40523 0.68024 0.37852
 C535 C 0.37598 0.62666 0.52253
 C536 C 0.39605 0.61758 0.51090
 H537 H 0.36956 0.57568 0.62728
 H538 H 0.40455 0.55975 0.60641
 H539 H 0.33772 0.64247 0.52162
 H540 H 0.33097 0.88023 0.06461
 H541 H 0.43122 0.86796 0.01533
 H542 H 0.43343 0.59270 0.46230
 H543 H 0.36582 0.88507 0.03794
 H544 H 0.39674 0.90017 0.03052
 C545 C -0.12912 1.28483 0.19352
 C546 C -0.14202 1.20481 0.16797
 C547 C -0.16224 1.22316 0.17298
 C548 C -0.17040 1.32075 0.20513
 C549 C -0.15701 1.40221 0.22509
 C550 C -0.13696 1.38411 0.22050
 C551 C -0.10767 1.25644 0.19731
 C552 C -0.09361 1.32941 0.22441
 C553 C -0.07386 1.29673 0.23080
 C554 C -0.06774 1.18876 0.21446
 C555 C -0.08146 1.11505 0.18768
 C556 C -0.10132 1.14895 0.17729
 C557 C -0.13468 1.10443 0.14072
 C558 C -0.11479 1.07733 0.14489
 H559 H -0.14450 1.04570 0.11571
 H560 H -0.10989 0.99869 0.12293
 H561 H -0.17117 1.15428 0.15982
 H562 H -0.16152 1.48304 0.24279
 H563 H -0.06331 1.35587 0.24866
 H564 H -0.07658 1.03406 0.16975
 H565 H -0.12786 1.44790 0.24146
 H566 H -0.09752 1.41158 0.24135
 C567 C 0.63160 0.30560 0.22008
 C568 C 0.64432 0.19715 0.26836
 C569 C 0.66443 0.21291 0.24642
 C570 C 0.67220 0.33601 0.17762
 C571 C 0.65942 0.44285 0.12864
 C572 C 0.63947 0.42827 0.14964
 C573 C 0.61029 0.28518 0.24679
 C574 C 0.59665 0.38769 0.20533
 C575 C 0.57699 0.36471 0.23153
 C576 C 0.57028 0.23965 0.29763
 C577 C 0.58355 0.13618 0.33767
 C578 C 0.60362 0.15812 0.31603
 C579 C 0.63692 0.07374 0.33816
 C580 C 0.61700 0.05467 0.36012
 H581 H 0.64664 -0.00955 0.37402
 H582 H 0.61199 -0.04249 0.41022
 H583 H 0.67403 0.12874 0.28857
 H584 H 0.66481 0.53893 0.07531
 H585 H 0.56687 0.44573 0.19694
 H586 H 0.57829 0.03955 0.38611
 H587 H 0.63059 0.51473 0.10989
 H588 H 0.60074 0.48656 0.15324
 C589 C 0.13385 0.79242 0.22974
 C590 C 0.14593 0.68091 0.27747
 C591 C 0.16620 0.69120 0.26656
 C592 C 0.17480 0.81144 0.21041
 C593 C 0.16270 0.92196 0.15563
 C594 C 0.14253 0.91289 0.16540
 C595 C 0.11235 0.77702 0.24960
 C596 C 0.09930 0.88139 0.21716
 C597 C 0.07943 0.86213 0.23781
 C598 C 0.07195 0.73944 0.28722
 C599 C 0.08468 0.63454 0.31917
 C600 C 0.10489 0.65202 0.30557
 C601 C 0.13774 0.55978 0.33664
 C602 C 0.11765 0.54574 0.34751
 H603 H 0.14701 0.47434 0.37113
 H604 H 0.11203 0.45000 0.38897
 H605 H 0.17527 0.60503 0.30820
 H606 H 0.16887 1.01624 0.10860
 H607 H 0.06975 0.94427 0.21135
 H608 H 0.07889 0.53962 0.35647
 H609 H 0.13408 1.00134 0.12306
 H610 H 0.10410 0.97833 0.17741
   
