data_POSCAR
  _audit_creation_date              2014-09-24
  _audit_creation_method            'ToBaCCo'
  _symmetry_space_group_name_H-M    'P1'
  _symmetry_Int_Tables_number       1
  _symmetry_cell_setting            triclinic
  loop_
  _symmetry_equiv_pos_as_xyz
 x,y,z
_cell_length_a 24.4194
_cell_length_b 24.4007
_cell_length_c 24.8809
_cell_angle_alpha 90.331200
_cell_angle_beta 89.621100
_cell_angle_gamma 89.623100
loop_
  _atom_site_label
  _atom_site_type_symbol
  _atom_site_fract_x
  _atom_site_fract_y
  _atom_site_fract_z
C1 C 0.21005 0.18117 0.26829
 N2 N 0.25194 0.15741 0.24013
 C3 C 0.27040 0.18046 0.19383
 N4 N 0.24641 0.22676 0.17541
 C5 C 0.20487 0.25088 0.20315
 N6 N 0.18623 0.22778 0.24934
 C7 C -0.18826 0.82866 0.24240
 N8 N -0.23359 0.84860 0.21753
 C9 C -0.25700 0.81999 0.17671
 N10 N -0.23489 0.77154 0.16071
 C11 C -0.19017 0.75105 0.18563
 N12 N -0.16640 0.77987 0.22608
 C13 C -0.19358 0.19824 -0.25396
 N14 N -0.24292 0.18136 -0.23563
 C15 C -0.26700 0.20561 -0.19245
 N16 N -0.24114 0.24702 -0.16671
 C17 C -0.19195 0.26495 -0.18498
 N18 N -0.16767 0.23998 -0.22825
 C19 C 0.18611 0.80338 -0.24821
 N20 N 0.16216 0.75962 -0.22411
 C21 C 0.18929 0.73172 -0.18503
 N22 N 0.23928 0.74895 -0.16889
 C23 C 0.26319 0.79257 -0.19275
 N24 N 0.23633 0.81979 -0.23207
 C25 C 0.19209 1.19272 0.72851
 N26 N 0.17003 1.23826 0.75147
 C27 C 0.18765 1.25609 0.80003
 N28 N 0.22699 1.22728 0.82647
 C29 C 0.24924 1.18146 0.80356
 N30 N 0.23136 1.16418 0.75486
 C31 C 0.82479 0.80709 0.73625
 N32 N 0.84606 0.76061 0.75703
 C33 C 0.82729 0.74115 0.80456
 N34 N 0.78724 0.76901 0.83195
 C35 C 0.76526 0.81541 0.81070
 N36 N 0.78455 0.83445 0.76318
 C37 C 0.17888 0.81516 1.26100
 N38 N 0.15760 0.77111 1.23575
 C39 C 0.18198 0.75021 1.19108
 N40 N 0.22807 0.77380 1.17112
 C41 C 0.25015 0.81766 1.19696
 N42 N 0.22508 0.83858 1.24147
 C43 C 0.79312 1.20069 1.26469
 N44 N 0.81985 1.23953 1.23662
 C45 C 0.80258 1.25452 1.18727
 N46 N 0.75791 1.23010 1.16546
 C47 C 0.73045 1.19133 1.19400
 N48 N 0.74878 1.17617 1.24308
 O49 O 0.55317 0.94029 0.89098
 O50 O 0.45752 0.96456 1.12470
 O51 O 0.60471 0.97112 1.03738
 O52 O 0.43123 0.90485 0.95764
 O53 O 0.53454 0.92551 1.06718
 O54 O 0.44922 0.94402 0.88361
 O55 O 0.43442 0.92252 1.05148
 O56 O 0.61296 0.98418 0.94093
 C57 C 0.60119 0.94630 0.90772
 C58 C 0.42427 0.93122 1.10074
 C59 C 0.58523 0.92944 1.06049
 C60 C 0.42818 0.90540 0.90835
 O61 O 0.45149 1.04899 0.88979
 O62 O 0.55141 1.02022 1.10888
 O63 O 0.56527 1.08726 0.95502
 O64 O 0.39147 1.02391 1.03613
 O65 O 0.46197 1.05543 1.07570
 O66 O 0.55503 1.04458 0.88202
 O67 O 0.38833 1.00783 0.93881
 O68 O 0.55854 1.07486 1.04555
 Co69 Co 0.50206 0.99473 0.89632
 Co70 Co 0.49641 0.99005 1.06764
 Co71 Co 0.57934 1.02697 0.99413
 Co72 Co 0.41862 0.96743 0.99512
 O73 O 0.50106 0.99665 0.98537
 C74 C 0.40253 1.04415 0.90495
 C75 C 0.57055 1.06396 1.09236
 C76 C 0.57171 1.08544 0.90626
 C77 C 0.41236 1.05846 1.06672
 O78 O 0.04675 0.43554 0.11854
 O79 O 0.06697 0.52870 -0.07437
 O80 O 0.08069 0.42741 -0.04492
 O81 O 0.01985 0.60284 0.06025
 O82 O 0.02855 0.44113 -0.10955
 O83 O 0.05965 0.53863 0.10870
 O84 O 0.03406 0.60022 -0.03625
 O85 O 0.08980 0.41878 0.04665
 C86 C 0.08613 0.41374 0.09555
 C87 C 0.06961 0.57861 -0.06573
 C88 C 0.07036 0.41817 -0.09257
 C89 C 0.05662 0.58738 0.09285
 O90 O -0.04458 0.54977 0.11607
 O91 O -0.06611 0.46271 -0.07031
 O92 O -0.01710 0.38167 0.05720
 O93 O -0.06780 0.56182 -0.05180
 O94 O -0.02385 0.53790 -0.12475
 O95 O -0.05572 0.44627 0.10806
 O96 O -0.08481 0.56369 0.04264
 O97 O -0.02569 0.38930 -0.04066
 Co98 Co 0.00191 0.49262 0.10286
 Co99 Co -0.00007 0.49756 -0.06834
 Co100 Co 0.02985 0.41066 0.00509
 Co101 Co -0.02233 0.57481 0.00480
 O102 O 0.00450 0.49164 0.01367
 C103 C -0.08328 0.57058 0.09152
 C104 C -0.06533 0.41179 -0.06465
 C105 C -0.05374 0.39769 0.09067
 C106 C -0.05818 0.57125 -0.10101
 O107 O 1.11179 0.02455 0.44752
 O108 O 0.89373 0.06437 0.54549
 O109 O 0.95804 0.09716 0.42270
 O110 O 1.02944 0.07196 0.58262
 O111 O 0.88475 0.05607 0.44567
 O112 O 1.10312 0.04322 0.54543
 O113 O 0.94276 0.03034 0.60985
 O114 O 1.05173 0.08455 0.43707
 C115 C 1.09940 0.07053 0.43011
 C116 C 0.90750 0.06398 0.59382
 C117 C 0.90773 0.09431 0.42223
 C118 C 1.07906 0.07737 0.57490
 O119 O 1.07185 -0.06168 0.56083
 O120 O 0.89360 -0.04757 0.44718
 O121 O 1.04515 -0.02080 0.39413
 O122 O 0.97512 -0.06644 0.57627
 O123 O 0.89419 -0.04375 0.55048
 O124 O 1.06695 -0.07268 0.46171
 O125 O 1.04080 -0.01793 0.63288
 O126 O 0.94664 -0.00805 0.38619
 Co127 Co 1.07916 -0.01359 0.50339
 Co128 Co 0.90125 0.00729 0.49777
 Co129 Co 1.00049 0.03612 0.41648
 Co130 Co 1.00311 0.00331 0.57463
 O131 O 0.99166 0.01053 0.49534
 C132 C 1.07534 -0.05368 0.61166
 C133 C 0.91056 -0.04317 0.39938
 C134 C 1.06302 -0.06559 0.41230
 C135 C 0.92503 -0.07456 0.57646
 C136 C 1.11634 0.15668 0.36713
 C137 C 1.17645 0.17642 0.36956
 C138 C 1.18592 0.15335 0.31255
 C139 C 1.12624 0.13395 0.30982
 C140 C 1.20406 0.09766 0.33559
 C141 C 1.19395 0.12019 0.39344
 C142 C 1.13417 0.10094 0.39036
 C143 C 1.14393 0.07815 0.33323
 H144 H 1.08002 0.18102 0.38023
 H145 H 1.18996 0.21719 0.38416
 H146 H 1.09825 0.13964 0.27527
 H147 H 1.24031 0.07331 0.32232
 H148 H 1.22153 0.11425 0.42822
 H149 H 1.13016 0.03767 0.31814
 C150 C 0.88097 -0.14134 0.35886
 C151 C 0.82010 -0.13668 0.34186
 C152 C 0.83809 -0.13945 0.28258
 C153 C 0.89864 -0.14458 0.29894
 C154 C 0.84277 -0.07658 0.28047
 C155 C 0.82509 -0.07346 0.34029
 C156 C 0.88554 -0.07853 0.35678
 C157 C 0.90352 -0.08126 0.29743
 H158 H 0.89704 -0.16767 0.39148
 H159 H 0.78557 -0.15970 0.35990
 H160 H 0.92895 -0.17404 0.28175
 H161 H 0.82685 -0.04994 0.24801
 H162 H 0.79510 -0.04375 0.35759
 H163 H 0.93796 -0.05811 0.27939
 C164 C 0.82823 0.13588 0.62334
 C165 C 0.80597 0.11684 0.67847
 C166 C 0.83315 0.16682 0.70531
 C167 C 0.85498 0.18633 0.65066
 C168 C 0.88570 0.13335 0.71500
 C169 C 0.85878 0.08315 0.68786
 C170 C 0.88073 0.10234 0.63315
 C171 C 0.90803 0.15222 0.65973
 H172 H 0.80471 0.13649 0.58532
 H173 H 0.76373 0.10199 0.68598
 H174 H 0.85332 0.22909 0.63576
 H175 H 0.90934 0.13264 0.75296
 H176 H 0.86054 0.04056 0.70318
 H177 H 0.95004 0.16683 0.65112
 C178 C 1.16469 -0.08826 0.66417
 C179 C 1.14754 -0.09966 0.72299
 C180 C 1.15534 -0.16156 0.71277
 C181 C 1.17283 -0.15055 0.65430
 C182 C 1.09511 -0.16684 0.69591
 C183 C 1.08709 -0.10455 0.70578
 C184 C 1.10456 -0.09347 0.64728
 C185 C 1.11213 -0.15533 0.63687
 H186 H 1.19322 -0.05574 0.65091
 H187 H 1.16222 -0.07687 0.75881
 H188 H 1.20831 -0.16994 0.63335
 H189 H 1.06656 -0.19938 0.70915
 H190 H 1.05165 -0.08531 0.72694
 H191 H 1.09730 -0.17785 0.60097
 C192 C 0.38585 1.15587 1.11624
 C193 C 0.32501 1.16876 1.10320
 C194 C 0.30899 1.15244 1.16095
 C195 C 0.36908 1.14028 1.17452
 C196 C 0.30002 1.09288 1.14301
 C197 C 0.31641 1.10860 1.08506
 C198 C 0.37657 1.09630 1.09840
 C199 C 0.36050 1.08030 1.15618
 H200 H 0.42143 1.18136 1.10458
 H201 H 0.31007 1.20552 1.08150
 H202 H 0.39026 1.15332 1.21175
 H203 H 0.26464 1.06699 1.15449
 H204 H 0.29517 1.09559 1.04783
 H205 H 0.37558 1.04350 1.17773
 C206 C 0.33620 0.89627 0.85875
 C207 C 0.34301 0.86337 0.80599
 C208 C 0.30942 0.81689 0.83108
 C209 C 0.30234 0.84967 0.88363
 C210 C 0.36163 0.78932 0.85251
 C211 C 0.39607 0.83652 0.82784
 C212 C 0.38867 0.86923 0.88039
 C213 C 0.35506 0.82278 0.90552
 H214 H 0.32584 0.94060 0.86155
 H215 H 0.33777 0.88006 0.76491
 H216 H 0.26338 0.85513 0.90636
 H217 H 0.37147 0.74493 0.84948
 H218 H 0.43523 0.83142 0.80542
 H219 H 0.36047 0.80643 0.94671
 C220 C 0.68058 0.87604 1.06805
 C221 C 0.70698 0.89941 1.11952
 C222 C 0.69993 0.84361 1.14679
 C223 C 0.67391 0.81962 1.09557
 C224 C 0.64333 0.86043 1.16873
 C225 C 0.65006 0.91655 1.14115
 C226 C 0.62391 0.89311 1.08974
 C227 C 0.61642 0.83728 1.11703
 H228 H 0.69543 0.88231 1.02631
 H229 H 0.74427 0.92516 1.12096
 H230 H 0.68416 0.77933 1.07700
 H231 H 0.62856 0.85413 1.21051
 H232 H 0.63931 0.95637 1.16035
 H233 H 0.57885 0.81200 1.11538
 C234 C 0.66427 1.09914 0.85802
 C235 C 0.65689 1.13184 0.80573
 C236 C 0.68767 1.17988 0.83176
 C237 C 0.69523 1.14728 0.88385
 C238 C 0.63372 1.20483 0.85300
 C239 C 0.60220 1.15604 0.82740
 C240 C 0.61009 1.12350 0.87945
 C241 C 0.64074 1.17150 0.90560
 H242 H 0.67662 1.05532 0.86030
 H243 H 0.66369 1.11544 0.76448
 H244 H 0.73388 1.14375 0.90688
 H245 H 0.62185 1.24872 0.85054
 H246 H 0.56334 1.15921 0.80470
 H247 H 0.63355 1.18736 0.94698
 C248 C 0.15160 0.38344 0.17820
 C249 C 0.12622 0.33011 0.20085
 C250 C 0.17488 0.29730 0.17762
 C251 C 0.20084 0.34988 0.15534
 C252 C 0.14427 0.28814 0.12449
 C253 C 0.09539 0.32132 0.14745
 C254 C 0.12117 0.37398 0.12507
 C255 C 0.16975 0.34109 0.10186
 H256 H 0.15443 0.42326 0.19976
 H257 H 0.10847 0.32519 0.24171
 H258 H 0.24461 0.36117 0.15911
 H259 H 0.14122 0.24845 0.10270
 H260 H 0.05162 0.30987 0.14372
 H261 H 0.18738 0.34593 0.06093
 C262 C -0.15950 0.39001 -0.12062
 C263 C -0.13991 0.36189 -0.17353
 C264 C -0.16154 0.30681 -0.15298
 C265 C -0.18187 0.33425 -0.10048
 C266 C -0.10612 0.29347 -0.12711
 C267 C -0.08413 0.34882 -0.14737
 C268 C -0.10413 0.37626 -0.09478
 C269 C -0.12589 0.32119 -0.07436
 H270 H -0.18120 0.43002 -0.11739
 H271 H -0.14566 0.37813 -0.21470
 H272 H -0.22252 0.32788 -0.08136
 H273 H -0.08407 0.25363 -0.13022
 H274 H -0.04382 0.35567 -0.16694
 H275 H -0.12019 0.30488 -0.03321
 C276 C 0.08178 0.65174 -0.13971
 C277 C 0.11287 0.70109 -0.11630
 C278 C 0.16113 0.68756 -0.15413
 C279 C 0.13032 0.63844 -0.17783
 C280 C 0.18716 0.65066 -0.11101
 C281 C 0.13832 0.66389 -0.07286
 C282 C 0.10745 0.61474 -0.09643
 C283 C 0.15561 0.60081 -0.13431
 H284 H 0.03802 0.65189 -0.15150
 H285 H 0.09511 0.74254 -0.10932
 H286 H 0.12692 0.62851 -0.22127
 H287 H 0.23101 0.65060 -0.09951
 H288 H 0.14176 0.67387 -0.02944
 H289 H 0.17305 0.55920 -0.14113
 C290 C -0.14253 0.61462 0.17402
 C291 C -0.11433 0.66990 0.18688
 C292 C -0.16379 0.70050 0.16348
 C293 C -0.19259 0.64603 0.15094
 C294 C -0.13721 0.70053 0.10730
 C295 C -0.08754 0.66953 0.13049
 C296 C -0.11610 0.61488 0.11778
 C297 C -0.16548 0.64556 0.09435
 H298 H -0.14462 0.57860 0.20098
 H299 H -0.09333 0.68039 0.22497
 H300 H -0.23620 0.63701 0.15986
 H301 H -0.13491 0.73639 0.08014
 H302 H -0.04397 0.67905 0.12181
 H303 H -0.18627 0.63509 0.05614
 C304 C 1.08503 0.14199 0.66012
 C305 C 1.13099 0.11721 0.69462
 C306 C 1.16574 0.16832 0.68424
 C307 C 1.11996 0.19360 0.64991
 C308 C 1.19208 0.14137 0.63437
 C309 C 1.15683 0.08998 0.64453
 C310 C 1.11085 0.11480 0.61004
 C311 C 1.14566 0.16585 0.59906
 H312 H 1.04099 0.14190 0.67115
 H313 H 1.12512 0.09703 0.73412
 H314 H 1.10506 0.23661 0.65256
 H315 H 1.23645 0.14128 0.62440
 H316 H 1.17174 0.04695 0.64215
 H317 H 1.15111 0.18546 0.55926
 C318 C 0.86506 -0.16399 0.60593
 C319 C 0.89432 -0.19229 0.65387
 C320 C 0.85065 -0.16786 0.69212
 C321 C 0.82106 -0.14040 0.64512
 C322 C 0.88577 -0.11673 0.70140
 C323 C 0.92969 -0.14043 0.66262
 C324 C 0.90014 -0.11287 0.61554
 C325 C 0.85642 -0.08900 0.65414
 H326 H 0.85721 -0.18307 0.56614
 H327 H 0.90949 -0.23527 0.65433
 H328 H 0.77614 -0.14046 0.63852
 H329 H 0.89389 -0.09723 0.74097
 H330 H 0.97457 -0.14027 0.66920
 H331 H 0.84085 -0.04616 0.65390
 C332 C 1.11454 -0.16143 0.38309
 C333 C 1.09374 -0.17774 0.32632
 C334 C 1.14860 -0.15860 0.30220
 C335 C 1.16984 -0.14309 0.35809
 C336 C 1.12535 -0.10067 0.29391
 C337 C 1.07025 -0.11917 0.31849
 C338 C 1.09134 -0.10349 0.37443
 C339 C 1.14627 -0.08480 0.35016
 H340 H 1.10936 -0.18601 0.42015
 H341 H 1.07244 -0.21644 0.31607
 H342 H 1.21117 -0.15298 0.37378
 H343 H 1.13032 -0.07565 0.25708
 H344 H 1.02896 -0.10925 0.30279
 H345 H 1.16787 -0.04633 0.36060
 C346 C 0.85072 0.09935 0.33581
 C347 C 0.79678 0.13144 0.34504
 C348 C 0.81918 0.17730 0.30929
 C349 C 0.87284 0.14532 0.29975
 C350 C 0.84390 0.20686 0.35805
 C351 C 0.82202 0.16028 0.39473
 C352 C 0.87569 0.12846 0.38480
 C353 C 0.89802 0.17427 0.34896
 H354 H 0.85403 0.05481 0.32682
 H355 H 0.75497 0.11397 0.34300
 H356 H 0.89343 0.13907 0.26023
 H357 H 0.84042 0.25145 0.36656
 H358 H 0.80189 0.16612 0.43450
 H359 H 0.93992 0.19151 0.35102
 C360 C 0.15417 0.34841 -0.10119
 C361 C 0.13059 0.29286 -0.11970
 C362 C 0.15955 0.29992 -0.17417
 C363 C 0.18361 0.35500 -0.15612
 C364 C 0.10873 0.32906 -0.19721
 C365 C 0.07958 0.32237 -0.14228
 C366 C 0.10332 0.37755 -0.12413
 C367 C 0.13226 0.38488 -0.17858
 H368 H 0.17262 0.35671 -0.06132
 H369 H 0.13017 0.25477 -0.09551
 H370 H 0.22675 0.36786 -0.16193
 H371 H 0.08996 0.32088 -0.23696
 H372 H 0.03677 0.30879 -0.13603
 H373 H 0.13242 0.42317 -0.20244
 C374 C -0.10347 0.29858 0.09393
 C375 C -0.10199 0.28083 0.15346
 C376 C -0.16423 0.29092 0.15775
 C377 C -0.16639 0.30797 0.09840
 C378 C -0.15486 0.35044 0.17568
 C379 C -0.09243 0.34068 0.17128
 C380 C -0.09422 0.35807 0.11215
 C381 C -0.15640 0.36825 0.11604
 H382 H -0.08164 0.27765 0.06027
 H383 H -0.07974 0.24447 0.16908
 H384 H -0.19723 0.29429 0.06872
 H385 H -0.17641 0.37156 0.20940
 H386 H -0.06149 0.35423 0.20095
 H387 H -0.17815 0.40480 0.10025
 C388 C -0.08031 0.67559 -0.11701
 C389 C -0.08297 0.68796 -0.17766
 C390 C -0.14539 0.69599 -0.17214
 C391 C -0.14291 0.68407 -0.11172
 C392 C -0.15473 0.63513 -0.18521
 C393 C -0.09181 0.62641 -0.19010
 C394 C -0.08953 0.61457 -0.12962
 C395 C -0.15191 0.62252 -0.12422
 H396 H -0.04862 0.69300 -0.09028
 H397 H -0.05452 0.71536 -0.19960
 H398 H -0.16402 0.70786 -0.07944
 H399 H -0.18590 0.61902 -0.21335
 H400 H -0.07035 0.60239 -0.22196
 H401 H -0.17992 0.59488 -0.10204
 C402 C 0.15494 0.62307 0.12838
 C403 C 0.16455 0.68140 0.10559
 C404 C 0.15346 0.70545 0.16188
 C405 C 0.14436 0.64794 0.18504
 C406 C 0.09199 0.71117 0.14953
 C407 C 0.10258 0.68662 0.09308
 C408 C 0.09353 0.62913 0.11637
 C409 C 0.08267 0.65336 0.17251
 H410 H 0.18026 0.58617 0.11935
 H411 H 0.19855 0.69338 0.07836
 H412 H 0.16199 0.63247 0.22311
 H413 H 0.06622 0.74783 0.15838
 H414 H 0.08480 0.70214 0.05510
 H415 H 0.04852 0.64154 0.19966
 C416 C 0.36756 1.14337 0.87447
 C417 C 0.34937 1.13839 0.81513
 C418 C 0.28957 1.14666 0.83323
 C419 C 0.30716 1.15205 0.89230
 C420 C 0.28249 1.08433 0.83967
 C421 C 0.34275 1.07581 0.82177
 C422 C 0.36048 1.08108 0.88071
 C423 C 0.30069 1.08920 0.89900
 H424 H 0.40304 1.16729 0.88912
 H425 H 0.36916 1.15899 0.78049
 H426 H 0.29230 1.18379 0.92113
 H427 H 0.24711 1.06025 0.82503
 H428 H 0.35757 1.04394 0.79305
 H429 H 0.28106 1.06854 0.93371
 C430 C 0.38298 0.87199 1.18415
 C431 C 0.32618 0.89718 1.19846
 C432 C 0.29837 0.84666 1.17347
 C433 C 0.35443 0.82106 1.15961
 C434 C 0.29609 0.87492 1.11850
 C435 C 0.32434 0.92565 1.14309
 C436 C 0.38041 0.90020 1.12917
 C437 C 0.35256 0.84969 1.10425
 H438 H 0.41918 0.87124 1.21089
 H439 H 0.31494 0.91665 1.23747
 H440 H 0.36629 0.77769 1.16650
 H441 H 0.26004 0.87586 1.09156
 H442 H 0.31215 0.96883 1.13586
 H443 H 0.36375 0.83030 1.06518
 C444 C 0.63402 1.15150 1.09866
 C445 C 0.62781 1.17986 1.15421
 C446 C 0.68542 1.15932 1.16877
 C447 C 0.69202 1.13138 1.11364
 C448 C 0.66143 1.10645 1.19274
 C449 C 0.60312 1.12647 1.17768
 C450 C 0.61005 1.09859 1.12255
 C451 C 0.66771 1.07831 1.13717
 H452 H 0.62245 1.16987 1.05958
 H453 H 0.61195 1.22204 1.16127
 H454 H 0.72879 1.13375 1.08730
 H455 H 0.67307 1.08795 1.23173
 H456 H 0.56618 1.12389 1.20375
 H457 H 0.68445 1.03660 1.12961
 C458 C 0.70529 0.90689 0.90417
 C459 C 0.70327 0.84347 0.89894
 C460 C 0.72209 0.84800 0.83998
 C461 C 0.72471 0.91090 0.84500
 C462 C 0.66236 0.85158 0.82106
 C463 C 0.64287 0.84746 0.88029
 C464 C 0.64558 0.91030 0.88509
 C465 C 0.66458 0.91468 0.82626
 H466 H 0.72268 0.93019 0.93842
 H467 H 0.71948 0.81389 0.92870
 H468 H 0.75874 0.93689 0.83027
 H469 H 0.64493 0.82849 0.78669
 H470 H 0.60869 0.82172 0.89509
 H471 H 0.64844 0.94439 0.79658
   
