data_POSCAR
  _audit_creation_date              2014-09-24
  _audit_creation_method            'ToBaCCo'
  _symmetry_space_group_name_H-M    'P1'
  _symmetry_Int_Tables_number       1
  _symmetry_cell_setting            triclinic
  loop_
  _symmetry_equiv_pos_as_xyz
 x,y,z
_cell_length_a 47.1010
_cell_length_b 47.1006
_cell_length_c 46.4699
_cell_angle_alpha 89.971800
_cell_angle_beta 89.972700
_cell_angle_gamma 89.977500
loop_
  _atom_site_label
  _atom_site_type_symbol
  _atom_site_fract_x
  _atom_site_fract_y
  _atom_site_fract_z
O1 O -0.02700 0.27593 0.02688
 O2 O 0.02826 0.27589 -0.02918
 O3 O -0.02702 0.27540 -0.02918
 O4 O 0.02828 0.27626 0.02677
 O5 O 0.02862 0.22944 0.02714
 O6 O -0.02664 0.22858 -0.02878
 O7 O 0.02863 0.22911 -0.02880
 O8 O -0.02664 0.22911 0.02727
 Cu9 Cu 0.00057 0.28056 -0.00122
 Cu10 Cu 0.00101 0.22437 -0.00076
 C11 C -0.03627 0.25252 0.03670
 C12 C 0.03802 0.25250 -0.03861
 C13 C -0.03630 0.25184 -0.03858
 C14 C 0.03796 0.25298 0.03651
 O15 O 0.47259 0.77505 0.52754
 O16 O 0.52773 0.77513 0.47133
 O17 O 0.47245 0.77485 0.47145
 O18 O 0.52788 0.77541 0.52733
 O19 O 0.52816 0.72859 0.52756
 O20 O 0.47272 0.72803 0.47167
 O21 O 0.52800 0.72831 0.47156
 O22 O 0.47287 0.72823 0.52776
 Cu23 Cu 0.50011 0.77980 0.49939
 Cu24 Cu 0.50045 0.72360 0.49966
 C25 C 0.46330 0.75162 0.53731
 C26 C 0.53734 0.75173 0.46184
 C27 C 0.46311 0.75136 0.46194
 C28 C 0.53755 0.75209 0.53700
 O29 O 1.02883 0.72385 0.02740
 O30 O 0.97349 0.72447 -0.02861
 O31 O 1.02880 0.72408 -0.02859
 O32 O 0.97353 0.72409 0.02747
 O33 O 0.97378 0.77091 0.02770
 O34 O 1.02906 0.77086 -0.02836
 O35 O 0.97377 0.77129 -0.02837
 O36 O 1.02907 0.77063 0.02761
 Cu37 Cu 1.00112 0.71944 -0.00061
 Cu38 Cu 1.00143 0.77560 -0.00033
 C39 C 1.03853 0.74714 0.03713
 C40 C 0.96416 0.74799 -0.03811
 C41 C 1.03850 0.74746 -0.03810
 C42 C 0.96420 0.74750 0.03721
 O43 O 0.47252 0.22464 0.47140
 O44 O 0.52781 0.22392 0.52732
 O45 O 0.47254 0.22439 0.52748
 O46 O 0.52778 0.22433 0.47135
 O47 O 0.52805 0.27116 0.47161
 O48 O 0.47285 0.27121 0.52771
 O49 O 0.52812 0.27075 0.52758
 O50 O 0.47281 0.27146 0.47164
 Cu51 Cu 0.50011 0.21963 0.49936
 Cu52 Cu 0.50047 0.27584 0.49967
 C53 C 0.46322 0.24816 0.46189
 C54 C 0.53747 0.24721 0.53701
 C55 C 0.46327 0.24782 0.53725
 C56 C 0.53741 0.24775 0.46189
 O57 O 0.72366 -0.02746 0.02884
 O58 O 0.72313 0.02784 -0.02721
 O59 O 0.72316 -0.02748 -0.02717
 O60 O 0.72361 0.02781 0.02879
 O61 O 0.77044 0.02782 0.02833
 O62 O 0.76999 -0.02744 -0.02760
 O63 O 0.76991 0.02785 -0.02765
 O64 O 0.77048 -0.02743 0.02838
 Cu65 Cu 0.71870 0.00018 0.00084
 Cu66 Cu 0.77489 0.00020 0.00031
 C67 C 0.74717 -0.03692 0.03821
 C68 C 0.74643 0.03742 -0.03706
 C69 C 0.74651 -0.03697 -0.03694
 C70 C 0.74711 0.03730 0.03814
 O71 O 0.22284 0.52753 0.47219
 O72 O 0.22297 0.47221 0.52821
 O73 O 0.22291 0.52756 0.52820
 O74 O 0.22295 0.47221 0.47220
 O75 O 0.26977 0.47228 0.47215
 O76 O 0.26974 0.52759 0.52812
 O77 O 0.26979 0.47227 0.52814
 O78 O 0.26967 0.52757 0.47213
 Cu79 Cu 0.21823 0.49988 0.50021
 Cu80 Cu 0.27443 0.49993 0.50014
 C81 C 0.24624 0.53706 0.46258
 C82 C 0.24641 0.46271 0.53772
 C83 C 0.24633 0.53710 0.53772
 C84 C 0.24637 0.46273 0.46260
 O85 O 0.27336 1.02849 0.02818
 O86 O 0.27333 0.97321 -0.02786
 O87 O 0.27335 1.02845 -0.02789
 O88 O 0.27330 0.97321 0.02820
 O89 O 0.22648 0.97328 0.02822
 O90 O 0.22657 1.02853 -0.02788
 O91 O 0.22651 0.97327 -0.02786
 O92 O 0.22658 1.02856 0.02820
 Cu93 Cu 0.27801 1.00084 0.00016
 Cu94 Cu 0.22186 1.00092 0.00018
 C95 C 0.24998 1.03803 0.03788
 C96 C 0.24992 0.96380 -0.03751
 C97 C 0.24998 1.03797 -0.03761
 C98 C 0.24988 0.96379 0.03784
 O99 O 0.77528 0.52723 0.52942
 O100 O 0.77597 0.47210 0.47333
 O101 O 0.77601 0.52736 0.47339
 O102 O 0.77520 0.47199 0.52936
 O103 O 0.72838 0.47207 0.52876
 O104 O 0.72918 0.52743 0.47280
 O105 O 0.72915 0.47216 0.47274
 O106 O 0.72846 0.52730 0.52883
 Cu107 Cu 0.78031 0.49967 0.50143
 Cu108 Cu 0.72410 0.49975 0.50071
 C109 C 0.75176 0.53670 0.53876
 C110 C 0.75267 0.46268 0.46342
 C111 C 0.75273 0.53688 0.46350
 C112 C 0.75166 0.46256 0.53867
 C113 C 0.25009 0.22879 0.22812
 C114 C 0.22911 0.25033 0.22796
 C115 C 0.22941 0.27122 0.24946
 C116 C 0.25028 0.27136 0.27098
 C117 C 0.27162 0.25018 0.27079
 C118 C 0.27115 0.22911 0.24946
 H119 H 0.28736 0.21275 0.24946
 H120 H 0.21320 0.28757 0.24945
 C121 C 0.75201 0.77127 0.22941
 C122 C 0.77249 0.74927 0.22858
 C123 C 0.77168 0.72779 0.24949
 C124 C 0.75127 0.72797 0.27149
 C125 C 0.73077 0.74994 0.27228
 C126 C 0.73159 0.77143 0.25139
 H127 H 0.71559 0.78799 0.25171
 H128 H 0.78768 0.71122 0.24917
 C129 C 0.77234 0.25079 0.22841
 C130 C 0.75189 0.22878 0.22928
 C131 C 0.73152 0.22857 0.25130
 C132 C 0.73070 0.25003 0.27219
 C133 C 0.75116 0.27203 0.27135
 C134 C 0.77153 0.27225 0.24932
 H135 H 0.78749 0.28884 0.24896
 H136 H 0.71554 0.21199 0.25164
 C137 C 0.22855 0.74969 0.22802
 C138 C 0.24953 0.77120 0.22830
 C139 C 0.27057 0.77081 0.24967
 C140 C 0.27103 0.74968 0.27096
 C141 C 0.24968 0.72853 0.27104
 C142 C 0.22884 0.72874 0.24949
 H143 H 0.21262 0.71239 0.24942
 H144 H 0.28677 0.78716 0.24974
 C145 C 0.72801 0.24876 0.72915
 C146 C 0.74907 0.27020 0.72933
 C147 C 0.77007 0.26983 0.75071
 C148 C 0.77043 0.24879 0.77208
 C149 C 0.74903 0.22769 0.77225
 C150 C 0.72820 0.22789 0.75069
 H151 H 0.71193 0.21161 0.75068
 H152 H 0.78634 0.28611 0.75071
 C153 C 0.27130 0.75067 0.72838
 C154 C 0.24996 0.72951 0.72830
 C155 C 0.22906 0.72977 0.74981
 C156 C 0.22875 0.75074 0.77124
 C157 C 0.24975 0.77224 0.77099
 C158 C 0.27082 0.77182 0.74964
 H159 H 0.28705 0.78815 0.74957
 H160 H 0.21283 0.71344 0.74989
 C161 C 0.25011 0.27034 0.72836
 C162 C 0.27145 0.24917 0.72850
 C163 C 0.27097 0.22808 0.74983
 C164 C 0.24987 0.22772 0.77115
 C165 C 0.22884 0.24919 0.77131
 C166 C 0.22917 0.27012 0.74983
 H167 H 0.21293 0.28646 0.74984
 H168 H 0.28720 0.21175 0.74983
 C169 C 0.74968 0.72881 0.72929
 C170 C 0.72859 0.75024 0.72900
 C171 C 0.72879 0.77117 0.75047
 C172 C 0.74964 0.77142 0.77202
 C173 C 0.77107 0.75033 0.77196
 C174 C 0.77070 0.72923 0.75066
 H175 H 0.78697 0.71294 0.75072
 H176 H 0.71251 0.78745 0.75040
 C177 C 0.25011 0.10111 0.10262
 C178 C 0.22440 0.09071 0.09189
 C179 C 0.22430 0.06987 0.07046
 C180 C 0.25002 0.05906 0.05938
 C181 C 0.27578 0.06977 0.07041
 C182 C 0.27577 0.09061 0.09184
 C183 C 0.25017 0.12263 0.12463
 C184 C 0.25026 0.14071 0.14299
 C185 C 0.25038 0.16241 0.16481
 C186 C 0.22629 0.16687 0.18188
 C187 C 0.22626 0.18824 0.20276
 C188 C 0.25028 0.20552 0.20662
 C189 C 0.27453 0.20065 0.18971
 C190 C 0.27454 0.17925 0.16886
 H191 H 0.20440 0.09872 0.10008
 H192 H 0.20402 0.06228 0.06264
 H193 H 0.29603 0.06209 0.06255
 H194 H 0.29581 0.09853 0.09998
 H195 H 0.20751 0.15390 0.17900
 H196 H 0.20748 0.19139 0.21584
 H197 H 0.29325 0.21373 0.19235
 H198 H 0.29331 0.17597 0.15579
 C199 C 0.75101 0.60077 0.60446
 C200 C 0.72543 0.59036 0.59342
 C201 C 0.72564 0.56950 0.57203
 C202 C 0.75150 0.55880 0.56140
 C203 C 0.77711 0.56942 0.57266
 C204 C 0.77684 0.59027 0.59405
 C205 C 0.75079 0.62234 0.62636
 C206 C 0.75065 0.64048 0.64463
 C207 C 0.75055 0.66226 0.66631
 C208 C 0.72640 0.66658 0.68333
 C209 C 0.72617 0.68803 0.70409
 C210 C 0.75005 0.70552 0.70786
 C211 C 0.77434 0.70082 0.69099
 C212 C 0.77455 0.67934 0.67026
 H213 H 0.70532 0.59837 0.60133
 H214 H 0.70556 0.56178 0.56383
 H215 H 0.79737 0.56163 0.56495
 H216 H 0.79677 0.59822 0.60244
 H217 H 0.70774 0.65342 0.68050
 H218 H 0.70737 0.69108 0.71716
 H219 H 0.79295 0.71408 0.69359
 H220 H 0.79335 0.67615 0.65721
 C221 C 0.74791 0.89831 0.10333
 C222 C 0.72208 0.90888 0.09300
 C223 C 0.72180 0.92999 0.07183
 C224 C 0.74741 0.94079 0.06070
 C225 C 0.77327 0.93003 0.07126
 C226 C 0.77349 0.90893 0.09242
 C227 C 0.74820 0.87653 0.12505
 C228 C 0.74852 0.85826 0.14321
 C229 C 0.74902 0.83641 0.16486
 C230 C 0.75059 0.84372 0.19402
 C231 C 0.75137 0.82250 0.21504
 C232 C 0.75075 0.79374 0.20708
 C233 C 0.74880 0.78655 0.17780
 C234 C 0.74805 0.80780 0.15680
 H235 H 0.70216 0.90080 0.10130
 H236 H 0.70154 0.93781 0.06417
 H237 H 0.79335 0.93788 0.06315
 H238 H 0.79361 0.90089 0.10027
 H239 H 0.75132 0.86581 0.20049
 H240 H 0.75282 0.82846 0.23750
 H241 H 0.74788 0.76451 0.17123
 H242 H 0.74674 0.80191 0.13431
 C243 C 0.24664 0.39734 0.60222
 C244 C 0.22090 0.40802 0.59180
 C245 C 0.22078 0.42935 0.57086
 C246 C 0.24648 0.44027 0.56006
 C247 C 0.27225 0.42941 0.57071
 C248 C 0.27230 0.40808 0.59165
 C249 C 0.24676 0.37539 0.62376
 C250 C 0.24695 0.35703 0.64185
 C251 C 0.24731 0.33521 0.66353
 C252 C 0.24801 0.34261 0.69269
 C253 C 0.24870 0.32146 0.71378
 C254 C 0.24885 0.29267 0.70590
 C255 C 0.24777 0.28537 0.67660
 C256 C 0.24711 0.30655 0.65552
 H257 H 0.20091 0.39985 0.59985
 H258 H 0.20058 0.43723 0.56311
 H259 H 0.29240 0.43734 0.56286
 H260 H 0.29236 0.39997 0.59958
 H261 H 0.24815 0.36472 0.69911
 H262 H 0.24951 0.32751 0.73625
 H263 H 0.24748 0.26330 0.67009
 H264 H 0.24648 0.30060 0.63301
 C265 C 0.89947 0.25256 0.10235
 C266 C 0.91017 0.22685 0.09185
 C267 C 0.93107 0.22681 0.07048
 C268 C 0.94156 0.25254 0.05932
 C269 C 0.93066 0.27828 0.07003
 C270 C 0.90975 0.27826 0.09140
 C271 C 0.87792 0.25255 0.12431
 C272 C 0.85983 0.25246 0.14267
 C273 C 0.83818 0.25223 0.16453
 C274 C 0.83466 0.22830 0.18205
 C275 C 0.81341 0.22790 0.20305
 C276 C 0.79532 0.25138 0.20660
 C277 C 0.79922 0.27548 0.18922
 C278 C 0.82051 0.27586 0.16824
 H279 H 0.90234 0.20683 0.10017
 H280 H 0.93901 0.20664 0.06271
 H281 H 0.93827 0.29844 0.06192
 H282 H 0.90160 0.29828 0.09938
 H283 H 0.84828 0.20994 0.17944
 H284 H 0.81103 0.20928 0.21651
 H285 H 0.78552 0.29380 0.19165
 H286 H 0.82308 0.29450 0.15482
 C287 C 0.39923 0.75148 0.60315
 C288 C 0.40987 0.72580 0.59251
 C289 C 0.43071 0.72582 0.57108
 C290 C 0.44121 0.75158 0.56000
 C291 C 0.43037 0.77729 0.57085
 C292 C 0.40952 0.77721 0.59228
 C293 C 0.37768 0.75143 0.62511
 C294 C 0.35954 0.75140 0.64343
 C295 C 0.33778 0.75137 0.66518
 C296 C 0.33353 0.72729 0.68232
 C297 C 0.31211 0.72712 0.70314
 C298 C 0.29457 0.75099 0.70687
 C299 C 0.29921 0.77522 0.68988
 C300 C 0.32067 0.77537 0.66909
 H301 H 0.40203 0.70576 0.60077
 H302 H 0.43860 0.70567 0.56321
 H303 H 0.43799 0.79747 0.56279
 H304 H 0.40142 0.79721 0.60035
 H305 H 0.34672 0.70863 0.67953
 H306 H 0.30912 0.70836 0.71629
 H307 H 0.28593 0.79383 0.69244
 H308 H 0.32379 0.79412 0.65596
 C309 C 0.10249 0.74658 0.10094
 C310 C 0.09175 0.72098 0.09029
 C311 C 0.07057 0.72110 0.06920
 C312 C 0.05976 0.74694 0.05840
 C313 C 0.07080 0.77259 0.06937
 C314 C 0.09196 0.77235 0.09045
 C315 C 0.12426 0.74645 0.12267
 C316 C 0.14246 0.74649 0.14091
 C317 C 0.16413 0.74672 0.16275
 C318 C 0.19285 0.74674 0.15494
 C319 C 0.21387 0.74740 0.17615
 C320 C 0.20637 0.74828 0.20542
 C321 C 0.17753 0.74788 0.21311
 C322 C 0.15652 0.74718 0.19188
 H323 H 0.09975 0.70090 0.09828
 H324 H 0.06273 0.70090 0.06140
 H325 H 0.06314 0.79292 0.06172
 H326 H 0.10013 0.79230 0.09857
 H327 H 0.19897 0.74630 0.13247
 H328 H 0.23599 0.74731 0.16978
 H329 H 0.17131 0.74853 0.23554
 H330 H 0.13437 0.74716 0.19816
 C331 C 0.60231 0.24635 0.60194
 C332 C 0.59152 0.22079 0.59122
 C333 C 0.57040 0.22103 0.57010
 C334 C 0.55980 0.24691 0.55942
 C335 C 0.57079 0.27251 0.57034
 C336 C 0.59191 0.27220 0.59147
 C337 C 0.62400 0.24610 0.62371
 C338 C 0.64214 0.24600 0.64198
 C339 C 0.66374 0.24605 0.66384
 C340 C 0.69246 0.24569 0.65607
 C341 C 0.71345 0.24623 0.67731
 C342 C 0.70588 0.24736 0.70655
 C343 C 0.67703 0.24730 0.71421
 C344 C 0.65607 0.24673 0.69294
 H345 H 0.59943 0.20066 0.59920
 H346 H 0.56240 0.20097 0.56214
 H347 H 0.56310 0.29278 0.56258
 H348 H 0.60012 0.29211 0.59963
 H349 H 0.69862 0.24508 0.63361
 H350 H 0.73558 0.24588 0.67099
 H351 H 0.67079 0.24816 0.73663
 H352 H 0.63390 0.24700 0.69918
 C353 C 0.74594 0.10141 0.89914
 C354 C 0.72033 0.09079 0.90991
 C355 C 0.72043 0.06959 0.93099
 C356 C 0.74626 0.05865 0.94166
 C357 C 0.77192 0.06957 0.93056
 C358 C 0.77170 0.09076 0.90949
 C359 C 0.74582 0.12322 0.87744
 C360 C 0.74586 0.14145 0.85923
 C361 C 0.74610 0.16315 0.83742
 C362 C 0.74676 0.15560 0.80830
 C363 C 0.74745 0.17664 0.78709
 C364 C 0.74764 0.20547 0.79482
 C365 C 0.74657 0.21292 0.82408
 C366 C 0.74591 0.19185 0.84527
 H367 H 0.70025 0.09889 0.90202
 H368 H 0.70022 0.06184 0.93889
 H369 H 0.79224 0.06181 0.93812
 H370 H 0.79166 0.09884 0.90128
 H371 H 0.74689 0.13346 0.80199
 H372 H 0.74826 0.17047 0.76465
 H373 H 0.74632 0.23503 0.83048
 H374 H 0.74532 0.19793 0.86775
 C375 C 0.24619 0.60210 0.39775
 C376 C 0.27190 0.59148 0.40832
 C377 C 0.27194 0.57028 0.42939
 C378 C 0.24621 0.55942 0.44017
 C379 C 0.22047 0.57023 0.42937
 C380 C 0.22049 0.59144 0.40830
 C381 C 0.24622 0.62392 0.37606
 C382 C 0.24636 0.64217 0.35787
 C383 C 0.24669 0.66390 0.33610
 C384 C 0.24642 0.69258 0.34399
 C385 C 0.24712 0.71368 0.32283
 C386 C 0.24830 0.70627 0.29357
 C387 C 0.24820 0.67746 0.28579
 C388 C 0.24747 0.65638 0.30696
 H389 H 0.29192 0.59958 0.40029
 H390 H 0.29212 0.56243 0.43724
 H391 H 0.20030 0.56235 0.43721
 H392 H 0.20047 0.59951 0.40025
 H393 H 0.24573 0.69863 0.36647
 H394 H 0.24679 0.73578 0.32926
 H395 H 0.24909 0.67132 0.26335
 H396 H 0.24766 0.63425 0.30063
 C397 C 0.24995 0.89983 0.89656
 C398 C 0.27564 0.91024 0.90737
 C399 C 0.27566 0.93102 0.92885
 C400 C 0.24992 0.94169 0.93982
 C401 C 0.22419 0.93107 0.92881
 C402 C 0.22424 0.91028 0.90733
 C403 C 0.24998 0.87837 0.87450
 C404 C 0.25005 0.86032 0.85610
 C405 C 0.25015 0.83865 0.83426
 C406 C 0.27427 0.82174 0.83020
 C407 C 0.27423 0.80034 0.80936
 C408 C 0.24999 0.79554 0.79245
 C409 C 0.22601 0.81290 0.79630
 C410 C 0.22606 0.83427 0.81718
 H411 H 0.29567 0.90228 0.89920
 H412 H 0.29582 0.93874 0.93683
 H413 H 0.20402 0.93883 0.93677
 H414 H 0.20422 0.90236 0.89913
 H415 H 0.29304 0.82496 0.84328
 H416 H 0.29293 0.78720 0.80672
 H417 H 0.20723 0.80980 0.78323
 H418 H 0.20731 0.84729 0.82007
 C419 C 0.75342 0.39838 0.39794
 C420 C 0.77901 0.40885 0.40892
 C421 C 0.77880 0.42979 0.43024
 C422 C 0.75294 0.44052 0.44084
 C423 C 0.72733 0.42985 0.42963
 C424 C 0.72760 0.40891 0.40832
 C425 C 0.75364 0.37678 0.37607
 C426 C 0.75371 0.35863 0.35780
 C427 C 0.75363 0.33691 0.33606
 C428 C 0.75484 0.30827 0.34404
 C429 C 0.75433 0.28712 0.32297
 C430 C 0.75239 0.29442 0.29371
 C431 C 0.75160 0.32320 0.28583
 C432 C 0.75214 0.34434 0.30693
 H433 H 0.79912 0.40083 0.40103
 H434 H 0.79888 0.43755 0.43840
 H435 H 0.70707 0.43765 0.43732
 H436 H 0.70767 0.40093 0.39996
 H437 H 0.75610 0.30230 0.36652
 H438 H 0.75538 0.26506 0.32947
 H439 H 0.75014 0.32924 0.26339
 H440 H 0.75122 0.36645 0.30054
 C441 C 0.10215 0.25251 0.89774
 C442 C 0.09169 0.22682 0.90848
 C443 C 0.07044 0.22676 0.92950
 C444 C 0.05929 0.25251 0.94014
 C445 C 0.07003 0.27825 0.92907
 C446 C 0.09128 0.27820 0.90805
 C447 C 0.12402 0.25249 0.87611
 C448 C 0.14232 0.25238 0.85797
 C449 C 0.16409 0.25210 0.83625
 C450 C 0.15664 0.25145 0.80709
 C451 C 0.17775 0.25077 0.78596
 C452 C 0.20655 0.25058 0.79380
 C453 C 0.21390 0.25165 0.82308
 C454 C 0.19276 0.25230 0.84420
 H455 H 0.09996 0.20681 0.90062
 H456 H 0.06283 0.20650 0.93738
 H457 H 0.06209 0.29852 0.93661
 H458 H 0.09923 0.29821 0.89985
 H459 H 0.13451 0.25132 0.80071
 H460 H 0.17166 0.24997 0.76350
 H461 H 0.23599 0.25190 0.82955
 H462 H 0.19876 0.25289 0.86669
 C463 C 0.60215 0.75172 0.39677
 C464 C 0.59165 0.72602 0.40749
 C465 C 0.57052 0.72600 0.42863
 C466 C 0.55961 0.75174 0.43934
 C467 C 0.57029 0.77747 0.42838
 C468 C 0.59143 0.77743 0.40723
 C469 C 0.62400 0.75168 0.37512
 C470 C 0.64235 0.75156 0.35703
 C471 C 0.66431 0.75129 0.33550
 C472 C 0.66810 0.72734 0.31809
 C473 C 0.68958 0.72695 0.29734
 C474 C 0.70766 0.75045 0.29395
 C475 C 0.70352 0.77455 0.31125
 C476 C 0.68200 0.77493 0.33198
 H477 H 0.59981 0.70599 0.39954
 H478 H 0.56277 0.70583 0.43660
 H479 H 0.56237 0.79764 0.43615
 H480 H 0.59943 0.79744 0.39908
 H481 H 0.65446 0.70898 0.32056
 H482 H 0.69214 0.70832 0.28393
 H483 H 0.71720 0.79289 0.30894
 H484 H 0.67922 0.79358 0.34532
 C485 C 0.89961 0.74883 0.89655
 C486 C 0.90999 0.72299 0.90707
 C487 C 0.93101 0.72268 0.92831
 C488 C 0.94193 0.74827 0.93934
 C489 C 0.93135 0.77415 0.92860
 C490 C 0.91033 0.77439 0.90735
 C491 C 0.87786 0.74910 0.87479
 C492 C 0.85958 0.74930 0.85662
 C493 C 0.83766 0.74947 0.83505
 C494 C 0.82059 0.72546 0.83104
 C495 C 0.79907 0.72569 0.81033
 C496 C 0.79430 0.75001 0.79351
 C497 C 0.81174 0.77391 0.79736
 C498 C 0.83324 0.77367 0.81810
 H499 H 0.90183 0.70307 0.89887
 H500 H 0.93868 0.70241 0.93611
 H501 H 0.93929 0.79422 0.93661
 H502 H 0.90243 0.79451 0.89937
 H503 H 0.82384 0.70662 0.84402
 H504 H 0.78587 0.70705 0.80769
 H505 H 0.80867 0.79274 0.78434
 H506 H 0.84638 0.79233 0.82095
 C507 C 0.39921 0.24886 0.39611
 C508 C 0.40951 0.22304 0.40676
 C509 C 0.43032 0.22279 0.42819
 C510 C 0.44111 0.24841 0.43926
 C511 C 0.43061 0.27426 0.42841
 C512 C 0.40979 0.27445 0.40697
 C513 C 0.37773 0.24906 0.37413
 C514 C 0.35966 0.24918 0.35578
 C515 C 0.33797 0.24927 0.33401
 C516 C 0.32086 0.22529 0.33003
 C517 C 0.29946 0.22550 0.30921
 C518 C 0.29486 0.24978 0.29227
 C519 C 0.31240 0.27362 0.29606
 C520 C 0.33377 0.27339 0.31691
 H521 H 0.40144 0.20311 0.39851
 H522 H 0.43795 0.20254 0.43607
 H523 H 0.43847 0.29435 0.43646
 H524 H 0.40194 0.29456 0.39889
 H525 H 0.32396 0.20651 0.34313
 H526 H 0.28617 0.20692 0.30660
 H527 H 0.30943 0.29240 0.28295
 H528 H 0.34695 0.29202 0.31975
 C529 C 0.74616 0.89791 0.89842
 C530 C 0.77191 0.90861 0.90876
 C531 C 0.77205 0.92984 0.92976
 C532 C 0.74637 0.94065 0.94071
 C533 C 0.72057 0.92977 0.93014
 C534 C 0.72050 0.90853 0.90913
 C535 C 0.74610 0.87607 0.87681
 C536 C 0.74620 0.85780 0.85866
 C537 C 0.74651 0.83606 0.83694
 C538 C 0.74631 0.80739 0.84489
 C539 C 0.74704 0.78628 0.82378
 C540 C 0.74821 0.79368 0.79450
 C541 C 0.74803 0.82248 0.78667
 C542 C 0.74726 0.84356 0.80780
 H543 H 0.79189 0.90053 0.90059
 H544 H 0.79226 0.93774 0.93743
 H545 H 0.70044 0.93763 0.93812
 H546 H 0.70044 0.90040 0.90126
 H547 H 0.74565 0.80136 0.86738
 H548 H 0.74678 0.76418 0.83024
 H549 H 0.74890 0.82860 0.76421
 H550 H 0.74741 0.86569 0.80143
 C551 C 0.24657 0.39765 0.39782
 C552 C 0.27223 0.40835 0.40840
 C553 C 0.27219 0.42956 0.42945
 C554 C 0.24642 0.44036 0.44021
 C555 C 0.22072 0.42947 0.42941
 C556 C 0.22083 0.40826 0.40836
 C557 C 0.24668 0.37583 0.37613
 C558 C 0.24689 0.35759 0.35793
 C559 C 0.24729 0.33589 0.33614
 C560 C 0.24714 0.30719 0.34400
 C561 C 0.24786 0.28612 0.32282
 C562 C 0.24895 0.29358 0.29355
 C563 C 0.24874 0.32241 0.28581
 C564 C 0.24799 0.34345 0.30700
 H565 H 0.29228 0.40030 0.40039
 H566 H 0.29234 0.43746 0.43729
 H567 H 0.20053 0.43731 0.43723
 H568 H 0.20083 0.40013 0.40030
 H569 H 0.24651 0.30110 0.36647
 H570 H 0.24761 0.26401 0.32923
 H571 H 0.24956 0.32859 0.26337
 H572 H 0.24810 0.36559 0.30068
 C573 C 0.25009 0.10070 0.89731
 C574 C 0.22438 0.09037 0.90813
 C575 C 0.22429 0.06966 0.92970
 C576 C 0.25001 0.05891 0.94081
 C577 C 0.27578 0.06957 0.92970
 C578 C 0.27576 0.09028 0.90814
 C579 C 0.25015 0.12205 0.87515
 C580 C 0.25021 0.14001 0.85665
 C581 C 0.25031 0.16157 0.83470
 C582 C 0.22627 0.16580 0.81752
 C583 C 0.22620 0.18708 0.79654
 C584 C 0.25013 0.20449 0.79270
 C585 C 0.27434 0.19984 0.80970
 C586 C 0.27439 0.17853 0.83065
 H587 H 0.20438 0.09832 0.89990
 H588 H 0.20401 0.06209 0.93758
 H589 H 0.29603 0.06194 0.93759
 H590 H 0.29579 0.09816 0.89991
 H591 H 0.20756 0.15273 0.82041
 H592 H 0.20746 0.19008 0.78339
 H593 H 0.29300 0.21303 0.80706
 H594 H 0.29312 0.17541 0.84381
 C595 C 0.75356 0.60139 0.39811
 C596 C 0.77913 0.59082 0.40908
 C597 C 0.77889 0.56983 0.43036
 C598 C 0.75302 0.55912 0.44096
 C599 C 0.72743 0.56990 0.42978
 C600 C 0.72772 0.59089 0.40850
 C601 C 0.75379 0.62305 0.37626
 C602 C 0.75386 0.64123 0.35799
 C603 C 0.75378 0.66299 0.33624
 C604 C 0.75484 0.69163 0.34421
 C605 C 0.75433 0.71280 0.32315
 C606 C 0.75251 0.70554 0.29387
 C607 C 0.75186 0.67676 0.28600
 C608 C 0.75240 0.65560 0.30710
 H609 H 0.79925 0.59882 0.40119
 H610 H 0.79896 0.56199 0.43850
 H611 H 0.70716 0.56213 0.43746
 H612 H 0.70780 0.59894 0.40017
 H613 H 0.75601 0.69758 0.36670
 H614 H 0.75527 0.73486 0.32965
 H615 H 0.75049 0.67074 0.26355
 H616 H 0.75160 0.63349 0.30070
 C617 C 0.10249 0.74743 0.89811
 C618 C 0.09171 0.72174 0.90853
 C619 C 0.07052 0.72170 0.92961
 C620 C 0.05974 0.74745 0.94063
 C621 C 0.07081 0.77319 0.92988
 C622 C 0.09200 0.77312 0.90880
 C623 C 0.12429 0.74744 0.87641
 C624 C 0.14252 0.74755 0.85819
 C625 C 0.16422 0.74783 0.83640
 C626 C 0.15666 0.74841 0.80727
 C627 C 0.17771 0.74910 0.78606
 C628 C 0.20653 0.74936 0.79380
 C629 C 0.21398 0.74835 0.82306
 C630 C 0.19291 0.74770 0.84425
 H631 H 0.09969 0.70173 0.90037
 H632 H 0.06265 0.70144 0.93723
 H633 H 0.06316 0.79346 0.93771
 H634 H 0.10020 0.79313 0.90086
 H635 H 0.13452 0.74850 0.80096
 H636 H 0.17154 0.74985 0.76362
 H637 H 0.23609 0.74815 0.82946
 H638 H 0.19899 0.74715 0.86673
 C639 C 0.60225 0.24786 0.39685
 C640 C 0.59154 0.22214 0.40728
 C641 C 0.57040 0.22206 0.42842
 C642 C 0.55970 0.24777 0.43941
 C643 C 0.57060 0.27353 0.42874
 C644 C 0.59174 0.27354 0.40760
 C645 C 0.62410 0.24795 0.37520
 C646 C 0.64243 0.24813 0.35709
 C647 C 0.66436 0.24847 0.33553
 C648 C 0.68211 0.22487 0.33197
 C649 C 0.70360 0.22532 0.31121
 C650 C 0.70764 0.24946 0.29392
 C651 C 0.68952 0.27292 0.29736
 C652 C 0.66806 0.27246 0.31814
 H653 H 0.59954 0.20213 0.39911
 H654 H 0.56247 0.20187 0.43617
 H655 H 0.56284 0.29368 0.43673
 H656 H 0.59990 0.29358 0.39968
 H657 H 0.67940 0.20619 0.34530
 H658 H 0.71732 0.20701 0.30886
 H659 H 0.69200 0.29157 0.28395
 H660 H 0.65439 0.29079 0.32065
 C661 C 0.89913 0.25073 0.89622
 C662 C 0.90993 0.22521 0.90708
 C663 C 0.93097 0.22555 0.92828
 C664 C 0.94148 0.25147 0.93891
 C665 C 0.93050 0.27702 0.92782
 C666 C 0.90946 0.27662 0.90662
 C667 C 0.87736 0.25036 0.87454
 C668 C 0.85904 0.25009 0.85644
 C669 C 0.83708 0.24984 0.83496
 C670 C 0.83273 0.22562 0.81807
 C671 C 0.81119 0.22530 0.79740
 C672 C 0.79366 0.24916 0.79358
 C673 C 0.79836 0.27350 0.81036
 C674 C 0.81992 0.27380 0.83100
 H675 H 0.90207 0.20506 0.89918
 H676 H 0.93897 0.20551 0.93635
 H677 H 0.93813 0.29732 0.93553
 H678 H 0.90122 0.29650 0.89836
 H679 H 0.84595 0.20700 0.82091
 H680 H 0.80815 0.20647 0.78440
 H681 H 0.78508 0.29209 0.80772
 H682 H 0.82314 0.29265 0.84394
 C683 C 0.39885 0.75079 0.39631
 C684 C 0.40948 0.72518 0.40714
 C685 C 0.43037 0.72533 0.42852
 C686 C 0.44092 0.75115 0.43935
 C687 C 0.43008 0.77679 0.42831
 C688 C 0.40919 0.77658 0.40694
 C689 C 0.37727 0.75062 0.37437
 C690 C 0.35914 0.75052 0.35605
 C691 C 0.33739 0.75045 0.33429
 C692 C 0.33313 0.72632 0.31723
 C693 C 0.31175 0.72613 0.29637
 C694 C 0.29426 0.75002 0.29251
 C695 C 0.29891 0.77429 0.30942
 C696 C 0.32032 0.77446 0.33025
 H697 H 0.40161 0.70508 0.39908
 H698 H 0.43826 0.70522 0.43654
 H699 H 0.43774 0.79703 0.43616
 H700 H 0.40110 0.79653 0.39872
 H701 H 0.34628 0.70766 0.32010
 H702 H 0.30877 0.70735 0.28329
 H703 H 0.28566 0.79291 0.30678
 H704 H 0.32345 0.79325 0.34331
 C705 C 0.24984 0.89953 0.10349
 C706 C 0.22414 0.91005 0.09279
 C707 C 0.22412 0.93096 0.07142
 C708 C 0.24986 0.94163 0.06046
 C709 C 0.27559 0.93090 0.07138
 C710 C 0.27555 0.90999 0.09275
 C711 C 0.24984 0.87791 0.12539
 C712 C 0.24988 0.85973 0.14366
 C713 C 0.24994 0.83791 0.16534
 C714 C 0.22583 0.83339 0.18236
 C715 C 0.22575 0.81190 0.20311
 C716 C 0.24975 0.79456 0.20689
 C717 C 0.27402 0.79946 0.19003
 C718 C 0.27407 0.82098 0.16930
 H719 H 0.20412 0.90208 0.10095
 H720 H 0.20396 0.93876 0.06349
 H721 H 0.29576 0.93865 0.06342
 H722 H 0.29557 0.90197 0.10087
 H723 H 0.20707 0.84643 0.17953
 H724 H 0.20697 0.80871 0.21617
 H725 H 0.29273 0.78633 0.19262
 H726 H 0.29286 0.82431 0.15626
 C727 C 0.75072 0.39823 0.60424
 C728 C 0.72517 0.40878 0.59320
 C729 C 0.72544 0.42971 0.57185
 C730 C 0.75133 0.44037 0.56126
 C731 C 0.77691 0.42961 0.57251
 C732 C 0.77657 0.40868 0.59385
 C733 C 0.75042 0.37661 0.62612
 C734 C 0.75022 0.35843 0.64439
 C735 C 0.75004 0.33663 0.66609
 C736 C 0.72584 0.33232 0.68304
 C737 C 0.72557 0.31089 0.70386
 C738 C 0.74946 0.29342 0.70778
 C739 C 0.77379 0.29811 0.69096
 C740 C 0.77405 0.31956 0.67017
 H741 H 0.70503 0.40081 0.60108
 H742 H 0.70539 0.43753 0.56367
 H743 H 0.79719 0.43736 0.56483
 H744 H 0.79648 0.40065 0.60224
 H745 H 0.70718 0.34547 0.68012
 H746 H 0.70673 0.30787 0.71688
 H747 H 0.79242 0.28487 0.69366
 H748 H 0.79289 0.32274 0.65718
 C749 C 0.74777 0.10199 0.10321
 C750 C 0.72195 0.09142 0.09290
 C751 C 0.72170 0.07034 0.07173
 C752 C 0.74732 0.05956 0.06061
 C753 C 0.77317 0.07033 0.07115
 C754 C 0.77336 0.09140 0.09231
 C755 C 0.74803 0.12373 0.12492
 C756 C 0.74835 0.14197 0.14309
 C757 C 0.74886 0.16377 0.16474
 C758 C 0.75054 0.15641 0.19388
 C759 C 0.75134 0.17760 0.21491
 C760 C 0.75062 0.20636 0.20696
 C761 C 0.74855 0.21360 0.17769
 C762 C 0.74779 0.19239 0.15669
 H763 H 0.70202 0.09948 0.10120
 H764 H 0.70145 0.06251 0.06409
 H765 H 0.79326 0.06250 0.06305
 H766 H 0.79347 0.09946 0.10015
 H767 H 0.75135 0.13431 0.20033
 H768 H 0.75289 0.17160 0.23736
 H769 H 0.74755 0.23565 0.17115
 H770 H 0.74638 0.19831 0.13420
 C771 C 0.24644 0.60245 0.60224
 C772 C 0.22071 0.59174 0.59182
 C773 C 0.22064 0.57042 0.57087
 C774 C 0.24635 0.55954 0.56005
 C775 C 0.27210 0.57044 0.57071
 C776 C 0.27212 0.59174 0.59165
 C777 C 0.24653 0.62440 0.62379
 C778 C 0.24671 0.64275 0.64187
 C779 C 0.24708 0.66459 0.66353
 C780 C 0.24773 0.65721 0.69271
 C781 C 0.24845 0.67837 0.71378
 C782 C 0.24866 0.70716 0.70586
 C783 C 0.24762 0.71444 0.67654
 C784 C 0.24694 0.69325 0.65549
 H785 H 0.20071 0.59986 0.59988
 H786 H 0.20045 0.56252 0.56313
 H787 H 0.29226 0.56254 0.56284
 H788 H 0.29216 0.59988 0.59957
 H789 H 0.24783 0.63510 0.69917
 H790 H 0.24923 0.67232 0.73625
 H791 H 0.24738 0.73651 0.67000
 H792 H 0.24634 0.69920 0.63298
 C793 C 0.89987 0.74753 0.10279
 C794 C 0.91022 0.72182 0.09194
 C795 C 0.93116 0.72178 0.07060
 C796 C 0.94202 0.74751 0.05981
 C797 C 0.93146 0.77325 0.07087
 C798 C 0.91053 0.77323 0.09221
 C799 C 0.87828 0.74756 0.12470
 C800 C 0.86015 0.74766 0.14303
 C801 C 0.83845 0.74788 0.16483
 C802 C 0.82079 0.72425 0.16851
 C803 C 0.79946 0.72462 0.18945
 C804 C 0.79550 0.74871 0.20681
 C805 C 0.81358 0.77219 0.20329
 C806 C 0.83487 0.77181 0.18233
 H807 H 0.90211 0.70181 0.09997
 H808 H 0.93882 0.70161 0.06256
 H809 H 0.93936 0.79342 0.06305
 H810 H 0.90265 0.79325 0.10046
 H811 H 0.82341 0.70562 0.15511
 H812 H 0.78578 0.70630 0.19186
 H813 H 0.81115 0.79081 0.21673
 H814 H 0.84848 0.79017 0.17973
 C815 C 0.39922 0.24800 0.60311
 C816 C 0.40947 0.22227 0.59223
 C817 C 0.43031 0.22217 0.57078
 C818 C 0.44116 0.24787 0.55993
 C819 C 0.43070 0.27364 0.57102
 C820 C 0.40987 0.27367 0.59246
 C821 C 0.37770 0.24808 0.62510
 C822 C 0.35960 0.24816 0.64346
 C823 C 0.33787 0.24825 0.66524
 C824 C 0.32074 0.22429 0.66924
 C825 C 0.29931 0.22451 0.69006
 C826 C 0.29471 0.24878 0.70699
 C827 C 0.31226 0.27261 0.70317
 C828 C 0.33366 0.27237 0.68232
 H829 H 0.40136 0.20227 0.60031
 H830 H 0.43790 0.20198 0.56272
 H831 H 0.43860 0.29378 0.56314
 H832 H 0.40206 0.29372 0.60073
 H833 H 0.32383 0.20551 0.65615
 H834 H 0.28601 0.20593 0.69268
 H835 H 0.30931 0.29140 0.71627
 H836 H 0.34686 0.29100 0.67947
 C837 C 0.10301 0.25372 0.10120
 C838 C 0.09253 0.22791 0.09080
 C839 C 0.07134 0.22764 0.06977
 C840 C 0.06033 0.25326 0.05886
 C841 C 0.07100 0.27912 0.06949
 C842 C 0.09221 0.27932 0.09053
 C843 C 0.12479 0.25390 0.12287
 C844 C 0.14301 0.25386 0.14106
 C845 C 0.16468 0.25359 0.16285
 C846 C 0.19338 0.25371 0.15498
 C847 C 0.21442 0.25295 0.17616
 C848 C 0.20693 0.25184 0.20541
 C849 C 0.17811 0.25212 0.21316
 C850 C 0.15709 0.25291 0.19197
 H851 H 0.10075 0.20797 0.09894
 H852 H 0.06360 0.20739 0.06205
 H853 H 0.06299 0.29920 0.06154
 H854 H 0.10017 0.29942 0.09846
 H855 H 0.19947 0.25430 0.13250
 H856 H 0.23654 0.25313 0.16977
 H857 H 0.17192 0.25129 0.23560
 H858 H 0.13494 0.25282 0.19827
 C859 C 0.60257 0.75272 0.60185
 C860 C 0.59212 0.72692 0.59136
 C861 C 0.57095 0.72668 0.57027
 C862 C 0.55994 0.75231 0.55938
 C863 C 0.57060 0.77815 0.57008
 C864 C 0.59177 0.77832 0.59117
 C865 C 0.62433 0.75290 0.62360
 C866 C 0.64252 0.75295 0.64186
 C867 C 0.66418 0.75285 0.66371
 C868 C 0.69290 0.75304 0.65591
 C869 C 0.71392 0.75251 0.67713
 C870 C 0.70641 0.75157 0.70639
 C871 C 0.67756 0.75179 0.71408
 C872 C 0.65656 0.75234 0.69283
 H873 H 0.60032 0.70697 0.59948
 H874 H 0.56323 0.70644 0.56250
 H875 H 0.56260 0.79824 0.56216
 H876 H 0.59970 0.79842 0.59915
 H877 H 0.69903 0.75351 0.63344
 H878 H 0.73604 0.75274 0.67076
 H879 H 0.67134 0.75108 0.73651
 H880 H 0.63441 0.75222 0.69911
   
