data_POSCAR
  _audit_creation_date              2014-09-24
  _audit_creation_method            'ToBaCCo'
  _symmetry_space_group_name_H-M    'P1'
  _symmetry_Int_Tables_number       1
  _symmetry_cell_setting            triclinic
  loop_
  _symmetry_equiv_pos_as_xyz
 x,y,z
_cell_length_a 13.6561
_cell_length_b 15.6758
_cell_length_c 13.6561
_cell_angle_alpha 90.000000
_cell_angle_beta 90.000000
_cell_angle_gamma 90.000000
loop_
  _atom_site_label
  _atom_site_type_symbol
  _atom_site_fract_x
  _atom_site_fract_y
  _atom_site_fract_z
C1 C 0.25000 0.24983 0.25000
 C2 C 0.75000 0.75000 0.25000
 C3 C 0.75000 0.25017 0.75000
 C4 C 0.25000 0.75000 0.75000
 C5 C 0.14340 0.12282 0.03093
 H6 H 0.15127 0.11860 -0.04776
 C7 C 0.19993 0.18088 0.08370
 H8 H 0.25354 0.21749 0.04361
 C9 C 0.06721 0.07441 0.17625
 H10 H 0.01442 0.03364 0.21200
 C11 C 0.12162 0.13209 0.23188
 H12 H 0.11156 0.13338 0.31053
 N13 N 0.07909 0.07080 0.07758
 C14 C 0.03372 -0.12418 -0.14542
 H15 H -0.04487 -0.11925 -0.15376
 C16 C 0.08628 -0.18159 -0.20311
 H17 H 0.04554 -0.21616 -0.25803
 C18 C 0.17888 -0.07762 -0.06787
 H19 H 0.21470 -0.03753 -0.01443
 C20 C 0.23436 -0.13502 -0.12291
 H21 H 0.31291 -0.13648 -0.11195
 Zn22 Zn 0.00146 -0.00115 -0.00159
 N23 N 0.08033 -0.07335 -0.07989
 C24 C -0.06621 0.07504 -0.17844
 N25 N -0.07651 0.07158 -0.07962
 C26 C -0.14008 0.12376 -0.03206
 C27 C -0.19772 0.18160 -0.08405
 C28 C -0.12172 0.13243 -0.23329
 C29 C -0.03061 -0.12533 0.14023
 C30 C -0.08338 -0.18236 0.19814
 C31 C -0.23201 -0.13204 0.12196
 C32 C -0.17637 -0.07545 0.06613
 N33 N -0.07746 -0.07309 0.07627
 H34 H -0.01393 0.03430 -0.21495
 H35 H -0.14666 0.11971 0.04676
 H36 H -0.25063 0.21841 -0.04330
 H37 H -0.11279 0.13367 -0.31208
 H38 H 0.04824 -0.12190 0.14694
 H39 H -0.04302 -0.21919 0.25131
 H40 H -0.31082 -0.13250 0.11308
 H41 H -0.21234 -0.03442 0.01378
 C42 C 0.18880 -0.19160 -0.19015
 C43 C 0.18749 0.18892 0.18602
 C44 C -0.18598 -0.18918 0.18739
 C45 C -0.18710 0.18918 -0.18654
 C46 C 0.14542 0.62418 0.53372
 H47 H 0.15376 0.61926 0.45513
 C48 C 0.20311 0.68159 0.58628
 H49 H 0.25803 0.71616 0.54554
 C50 C 0.06788 0.57762 0.67888
 H51 H 0.01444 0.53754 0.71470
 C52 C 0.12291 0.63503 0.73437
 H53 H 0.11196 0.63649 0.81292
 N54 N 0.07989 0.57336 0.58033
 C55 C 0.03206 0.37625 0.35992
 H56 H -0.04676 0.38030 0.35334
 C57 C 0.08406 0.31841 0.30228
 H58 H 0.04331 0.28160 0.24937
 C59 C 0.17845 0.42497 0.43380
 H60 H 0.21495 0.46570 0.48608
 C61 C 0.23329 0.36757 0.37828
 H62 H 0.31208 0.36633 0.38721
 Zn63 Zn 0.00159 0.50115 0.50146
 N64 N 0.07962 0.42842 0.42349
 C65 C -0.06613 0.57545 0.32364
 N66 N -0.07627 0.57310 0.42254
 C67 C -0.14022 0.62533 0.46939
 C68 C -0.19813 0.68236 0.41662
 C69 C -0.12196 0.63205 0.26799
 C70 C -0.03093 0.37719 0.64340
 C71 C -0.08370 0.31912 0.69993
 C72 C -0.23188 0.36791 0.62162
 C73 C -0.17625 0.42560 0.56721
 N74 N -0.07758 0.42921 0.57909
 H75 H -0.01377 0.53442 0.28766
 H76 H -0.14694 0.62190 0.54824
 H77 H -0.25131 0.71919 0.45698
 H78 H -0.11307 0.63250 0.18918
 H79 H 0.04776 0.38141 0.65127
 H80 H -0.04361 0.28252 0.75354
 H81 H -0.31053 0.36663 0.61157
 H82 H -0.21199 0.46636 0.51442
 C83 C 0.18654 0.31082 0.31290
 C84 C 0.19016 0.69160 0.68880
 C85 C -0.18602 0.31108 0.68749
 C86 C -0.18739 0.68918 0.31402
 C87 C 0.64009 0.12376 0.53207
 H88 H 0.64667 0.11971 0.45324
 C89 C 0.69772 0.18160 0.58406
 H90 H 0.75063 0.21841 0.54331
 C91 C 0.56621 0.07504 0.67845
 H92 H 0.51393 0.03430 0.71495
 C93 C 0.62172 0.13243 0.73329
 H94 H 0.61279 0.13367 0.81208
 N95 N 0.57652 0.07158 0.57962
 C96 C 0.53062 -0.12533 0.35978
 H97 H 0.45176 -0.12190 0.35306
 C98 C 0.58338 -0.18236 0.30187
 H99 H 0.54302 -0.21919 0.24869
 C100 C 0.67637 -0.07545 0.43388
 H101 H 0.71234 -0.03442 0.48623
 C102 C 0.73201 -0.13204 0.37804
 H103 H 0.81082 -0.13250 0.38693
 Zn104 Zn 0.49854 -0.00115 0.50159
 N105 N 0.57747 -0.07309 0.42373
 C106 C 0.43279 0.07441 0.32375
 N107 N 0.42091 0.07080 0.42242
 C108 C 0.35660 0.12282 0.46907
 C109 C 0.30007 0.18088 0.41630
 C110 C 0.37838 0.13209 0.26812
 C111 C 0.46628 -0.12418 0.64543
 C112 C 0.41372 -0.18159 0.70311
 C113 C 0.26564 -0.13502 0.62291
 C114 C 0.32112 -0.07762 0.56788
 N115 N 0.41967 -0.07336 0.57989
 H116 H 0.48558 0.03364 0.28801
 H117 H 0.34873 0.11860 0.54776
 H118 H 0.24646 0.21749 0.45639
 H119 H 0.38844 0.13337 0.18947
 H120 H 0.54487 -0.11925 0.65376
 H121 H 0.45446 -0.21616 0.75804
 H122 H 0.18709 -0.13648 0.61196
 H123 H 0.28530 -0.03753 0.51444
 C124 C 0.68599 -0.18918 0.31261
 C125 C 0.68711 0.18918 0.68654
 C126 C 0.31120 -0.19160 0.69016
 C127 C 0.31252 0.18892 0.31398
 C128 C 0.64023 0.62533 0.03062
 H129 H 0.64694 0.62190 -0.04824
 C130 C 0.69814 0.68236 0.08338
 H131 H 0.75131 0.71919 0.04302
 C132 C 0.56613 0.57545 0.17637
 H133 H 0.51377 0.53442 0.21234
 C134 C 0.62196 0.63205 0.23201
 H135 H 0.61308 0.63250 0.31082
 N136 N 0.57627 0.57310 0.07747
 C137 C 0.53093 0.37719 -0.14340
 H138 H 0.45224 0.38141 -0.15127
 C139 C 0.58370 0.31912 -0.19993
 H140 H 0.54361 0.28252 -0.25354
 C141 C 0.67625 0.42560 -0.06721
 H142 H 0.71199 0.46636 -0.01442
 C143 C 0.73188 0.36791 -0.12162
 H144 H 0.81053 0.36663 -0.11156
 Zn145 Zn 0.49841 0.50115 -0.00146
 N146 N 0.57758 0.42921 -0.07909
 C147 C 0.43213 0.57762 -0.17888
 N148 N 0.42011 0.57336 -0.08033
 C149 C 0.35458 0.62418 -0.03372
 C150 C 0.29689 0.68159 -0.08628
 C151 C 0.37709 0.63503 -0.23436
 C152 C 0.46794 0.37625 0.14009
 C153 C 0.41595 0.31841 0.19772
 C154 C 0.26671 0.36757 0.12172
 C155 C 0.32155 0.42497 0.06621
 N156 N 0.42038 0.42842 0.07652
 H157 H 0.48557 0.53754 -0.21470
 H158 H 0.34624 0.61926 0.04487
 H159 H 0.24197 0.71616 -0.04554
 H160 H 0.38805 0.63649 -0.31291
 H161 H 0.54676 0.38030 0.14667
 H162 H 0.45670 0.28160 0.25063
 H163 H 0.18792 0.36634 0.11279
 H164 H 0.28505 0.46570 0.01393
 C165 C 0.68602 0.31108 -0.18748
 C166 C 0.68739 0.68918 0.18599
 C167 C 0.31346 0.31082 0.18711
 C168 C 0.30985 0.69160 -0.18880
   
