data_POSCAR
  _audit_creation_date              2014-09-24
  _audit_creation_method            'ToBaCCo'
  _symmetry_space_group_name_H-M    'P1'
  _symmetry_Int_Tables_number       1
  _symmetry_cell_setting            triclinic
  loop_
  _symmetry_equiv_pos_as_xyz
 x,y,z
_cell_length_a 66.0331
_cell_length_b 65.2747
_cell_length_c 66.0139
_cell_angle_alpha 90.115800
_cell_angle_beta 90.189000
_cell_angle_gamma 90.014800
loop_
  _atom_site_label
  _atom_site_type_symbol
  _atom_site_fract_x
  _atom_site_fract_y
  _atom_site_fract_z
C1 C 0.61667 0.64204 0.61752
 C2 C 0.63404 0.63328 0.60894
 C3 C 0.64264 0.61601 0.61760
 C4 C 0.63398 0.60730 0.63493
 C5 C 0.61681 0.61596 0.64341
 C6 C 0.60811 0.63344 0.63465
 C7 C 0.60508 0.65878 0.61234
 N8 N 0.58983 0.66041 0.62591
 C9 C 0.59145 0.64508 0.63961
 C10 C 0.61174 0.60436 0.66004
 N11 N 0.62542 0.58900 0.66171
 C12 C 0.63909 0.59055 0.64653
 C13 C 0.65927 0.61087 0.60613
 N14 N 0.66083 0.62459 0.59086
 C15 C 0.64557 0.63836 0.59235
 H16 H 0.60751 0.66901 0.59968
 H17 H 0.58126 0.64262 0.65220
 H18 H 0.59908 0.60687 0.67014
 H19 H 0.65176 0.58030 0.64414
 H20 H 0.66947 0.59813 0.60865
 H21 H 0.64307 0.65107 0.58212
 C22 C 0.88510 0.35739 0.11705
 C23 C 0.86774 0.36616 0.10837
 C24 C 0.85924 0.38353 0.11692
 C25 C 0.86798 0.39234 0.13425
 C26 C 0.88513 0.38368 0.14283
 C27 C 0.89375 0.36610 0.13418
 C28 C 0.89659 0.34055 0.11197
 N29 N 0.91187 0.33898 0.12562
 C30 C 0.91037 0.35443 0.13927
 C31 C 0.89028 0.39540 0.15944
 N32 N 0.87666 0.41083 0.16101
 C33 C 0.86297 0.40919 0.14578
 C34 C 0.84259 0.38865 0.10538
 N35 N 0.84093 0.37481 0.09016
 C36 C 0.85614 0.36099 0.09176
 H37 H 0.89406 0.33024 0.09934
 H38 H 0.92059 0.35696 0.15190
 H39 H 0.90293 0.39293 0.16962
 H40 H 0.85034 0.41948 0.14331
 H41 H 0.83245 0.40145 0.10783
 H42 H 0.85854 0.34818 0.08160
 C43 C 0.38357 0.14213 -0.11623
 C44 C 0.36624 0.13338 -0.10759
 C45 C 0.35761 0.11607 -0.11622
 C46 C 0.36621 0.10731 -0.13359
 C47 C 0.38334 0.11596 -0.14213
 C48 C 0.39207 0.13347 -0.13340
 C49 C 0.39517 0.15891 -0.11110
 N50 N 0.41036 0.16050 -0.12473
 C51 C 0.40869 0.14511 -0.13843
 C52 C 0.38835 0.10430 -0.15879
 N53 N 0.37466 0.08893 -0.16043
 C54 C 0.36105 0.09052 -0.14520
 C55 C 0.34102 0.11095 -0.10470
 N56 N 0.33951 0.12473 -0.08942
 C57 C 0.35476 0.13851 -0.09096
 H58 H 0.39277 0.16918 -0.09843
 H59 H 0.41883 0.14262 -0.15106
 H60 H 0.40096 0.10680 -0.16895
 H61 H 0.34840 0.08026 -0.14277
 H62 H 0.33082 0.09819 -0.10720
 H63 H 0.35727 0.15126 -0.08074
 C64 C 0.11602 0.85692 0.38243
 C65 C 0.13344 0.86560 0.39109
 C66 C 0.14215 0.88280 0.38245
 C67 C 0.13353 0.89152 0.36504
 C68 C 0.11631 0.88294 0.35648
 C69 C 0.10750 0.86554 0.36522
 C70 C 0.10431 0.84027 0.38760
 N71 N 0.08904 0.83873 0.37393
 C72 C 0.09075 0.85401 0.36018
 C73 C 0.11128 0.89455 0.33980
 N74 N 0.12505 0.90983 0.33819
 C75 C 0.13872 0.90823 0.35345
 C76 C 0.15880 0.88790 0.39402
 N77 N 0.16027 0.87421 0.40934
 C78 C 0.14494 0.86052 0.40778
 H79 H 0.10668 0.83008 0.40032
 H80 H 0.08057 0.85654 0.34754
 H81 H 0.09860 0.89209 0.32964
 H82 H 0.15144 0.91843 0.35590
 H83 H 0.16906 0.90058 0.39153
 H84 H 0.14237 0.84785 0.41803
 N85 N 0.10109 0.15648 0.11567
 N86 N 0.09293 0.14782 0.13167
 C87 C 0.07651 0.15867 0.13729
 C88 C 0.07441 0.17486 0.12409
 C89 C 0.09015 0.17311 0.11056
 H90 H 0.06683 0.15514 0.14999
 H91 H 0.09341 0.18318 0.09799
 Cu92 Cu 0.10459 0.12326 0.14361
 Cu93 Cu 0.12525 0.14562 0.10271
 Cu94 Cu 0.14686 0.10235 0.12415
 N95 N 0.11718 0.09926 0.15573
 N96 N 0.13371 0.09117 0.14804
 C97 C 0.13921 0.07485 0.15924
 C98 C 0.12539 0.07272 0.17467
 C99 C 0.11161 0.08836 0.17212
 H100 H 0.15226 0.06527 0.15638
 H101 H 0.09858 0.09152 0.18149
 N102 N 0.15794 0.11589 0.09995
 N103 N 0.14971 0.13238 0.09177
 C104 C 0.16067 0.13793 0.07550
 C105 C 0.17644 0.12429 0.07346
 C106 C 0.17436 0.11053 0.08908
 H107 H 0.15747 0.15089 0.06583
 H108 H 0.18409 0.09759 0.09225
 H109 H 0.12131 0.11554 0.11158
 H110 H 0.13706 0.13212 0.12848
 N111 N 0.39869 0.84259 0.61589
 N112 N 0.40658 0.85097 0.63226
 C113 C 0.42305 0.84017 0.63788
 C114 C 0.42547 0.82431 0.62430
 C115 C 0.40985 0.82620 0.61054
 H116 H 0.43256 0.84352 0.65084
 H117 H 0.40684 0.81638 0.59766
 Cu118 Cu 0.39447 0.87513 0.64456
 Cu119 Cu 0.37456 0.85350 0.60276
 Cu120 Cu 0.35273 0.89657 0.62448
 N121 N 0.38211 0.89928 0.65661
 N122 N 0.36577 0.90759 0.64867
 C123 C 0.36035 0.92398 0.65982
 C124 C 0.37404 0.92594 0.67550
 C125 C 0.38765 0.91013 0.67312
 H126 H 0.34746 0.93372 0.65678
 H127 H 0.40055 0.90682 0.68270
 N128 N 0.34179 0.88318 0.59999
 N129 N 0.35011 0.86678 0.59172
 C130 C 0.33921 0.86130 0.57528
 C131 C 0.32341 0.87490 0.57324
 C132 C 0.32539 0.88857 0.58903
 H133 H 0.34247 0.84841 0.56551
 H134 H 0.31559 0.90143 0.59226
 H135 H 0.37844 0.88344 0.61228
 H136 H 0.36226 0.86668 0.62842
 N137 N 0.89627 0.65993 0.38307
 N138 N 0.90234 0.65326 0.36527
 C139 C 0.91862 0.66415 0.35942
 C140 C 0.92284 0.67831 0.37436
 C141 C 0.90846 0.67532 0.38914
 H142 H 0.92675 0.66196 0.34538
 H143 H 0.90696 0.68372 0.40319
 Cu144 Cu 0.88838 0.63116 0.35129
 Cu145 Cu 0.87296 0.64827 0.39687
 Cu146 Cu 0.85167 0.60494 0.37527
 N147 N 0.87862 0.60497 0.34121
 N148 N 0.86427 0.59477 0.35060
 C149 C 0.86035 0.57736 0.34033
 C150 C 0.87295 0.57673 0.32374
 C151 C 0.88436 0.59439 0.32466
 H152 H 0.84917 0.56606 0.34457
 H153 H 0.89591 0.59918 0.31410
 N154 N 0.84114 0.61767 0.40019
 N155 N 0.84927 0.63421 0.40843
 C156 C 0.83865 0.63931 0.42510
 C157 C 0.82323 0.62530 0.42732
 C158 C 0.82514 0.61180 0.41138
 H159 H 0.84178 0.65229 0.43482
 H160 H 0.81550 0.59880 0.40815
 H161 H 0.87792 0.61954 0.38458
 H162 H 0.85820 0.63578 0.37205
 N163 N 0.60201 0.34229 -0.11587
 N164 N 0.59429 0.35042 -0.13240
 C165 C 0.57779 0.33962 -0.13799
 C166 C 0.57519 0.32401 -0.12422
 C167 C 0.59072 0.32605 -0.11039
 H168 H 0.56837 0.34282 -0.15103
 H169 H 0.59358 0.31645 -0.09735
 Cu170 Cu 0.60655 0.37433 -0.14495
 Cu171 Cu 0.62608 0.35332 -0.10269
 Cu172 Cu 0.64778 0.39641 -0.12428
 N173 N 0.61864 0.39878 -0.15662
 N174 N 0.63477 0.40734 -0.14845
 C175 C 0.63999 0.42389 -0.15940
 C176 C 0.62639 0.42571 -0.17517
 C177 C 0.61304 0.40963 -0.17305
 H178 H 0.65269 0.43385 -0.15616
 H179 H 0.60025 0.40617 -0.18275
 N180 N 0.65874 0.38312 -0.09981
 N181 N 0.65047 0.36670 -0.09159
 C182 C 0.66138 0.36128 -0.07517
 C183 C 0.67715 0.37494 -0.07308
 C184 C 0.67513 0.38858 -0.08884
 H185 H 0.65817 0.34837 -0.06545
 H186 H 0.68490 0.40146 -0.09204
 H187 H 0.62197 0.38311 -0.11247
 H188 H 0.63861 0.36639 -0.12825
 C189 C -0.07394 0.32462 0.12561
 C190 C -0.06103 0.31156 0.12558
 C191 C -0.04562 0.29597 0.12553
 C192 C -0.05029 0.27608 0.11908
 C193 C -0.03532 0.26093 0.11898
 C194 C -0.01546 0.26550 0.12533
 C195 C -0.01093 0.28555 0.13179
 C196 C -0.02592 0.30067 0.13189
 C197 C 0.00047 0.24944 0.12517
 C198 C 0.02026 0.25407 0.11877
 C199 C 0.03523 0.23893 0.11858
 C200 C 0.03065 0.21898 0.12481
 C201 C 0.01103 0.21422 0.13122
 C202 C -0.00397 0.22933 0.13140
 C203 C 0.04607 0.20341 0.12458
 C204 C 0.05899 0.19037 0.12437
 H205 H -0.06548 0.27230 0.11407
 H206 H -0.03922 0.24573 0.11368
 H207 H 0.00415 0.28948 0.13701
 H208 H -0.02216 0.31600 0.13696
 H209 H 0.02408 0.26932 0.11363
 H210 H 0.05035 0.24276 0.11353
 H211 H 0.00733 0.19883 0.13612
 H212 H -0.01898 0.22535 0.13666
 C213 C 0.57476 0.67551 0.62578
 C214 C 0.56179 0.68851 0.62567
 C215 C 0.54629 0.70400 0.62555
 C216 C 0.54955 0.72257 0.61552
 C217 C 0.53450 0.73763 0.61538
 C218 C 0.51595 0.73429 0.62528
 C219 C 0.51282 0.71556 0.63532
 C220 C 0.52790 0.70053 0.63545
 C221 C 0.49993 0.75026 0.62512
 C222 C 0.47945 0.74482 0.62259
 C223 C 0.46438 0.75987 0.62243
 C224 C 0.46956 0.78052 0.62481
 C225 C 0.48988 0.78610 0.62734
 C226 C 0.50498 0.77108 0.62749
 C227 C 0.45403 0.79599 0.62464
 C228 C 0.44101 0.80892 0.62449
 H229 H 0.56371 0.72539 0.60776
 H230 H 0.53727 0.75177 0.60731
 H231 H 0.49882 0.71264 0.64330
 H232 H 0.52524 0.68623 0.64331
 H233 H 0.47511 0.72897 0.62047
 H234 H 0.44870 0.75539 0.62040
 H235 H 0.49405 0.80204 0.62925
 H236 H 0.52057 0.77573 0.62973
 C237 C 1.07463 0.82458 0.37403
 C238 C 1.06150 0.81174 0.37411
 C239 C 1.04578 0.79647 0.37418
 C240 C 1.02618 0.80155 0.36783
 C241 C 1.01088 0.78675 0.36790
 C242 C 1.01499 0.76663 0.37431
 C243 C 1.03476 0.76166 0.38065
 C244 C 1.05004 0.77650 0.38059
 C245 C 0.99873 0.75090 0.37440
 C246 C 1.00275 0.73070 0.36808
 C247 C 0.98740 0.71594 0.36810
 C248 C 0.96787 0.72114 0.37445
 C249 C 0.96373 0.74117 0.38079
 C250 C 0.97904 0.75596 0.38077
 C251 C 0.95206 0.70597 0.37442
 C252 C 0.93876 0.69331 0.37439
 H253 H 1.02274 0.81695 0.36278
 H254 H 0.99590 0.79098 0.36267
 H255 H 1.03834 0.74638 0.38592
 H256 H 1.06515 0.77241 0.38559
 H257 H 1.01768 0.72640 0.36285
 H258 H 0.99076 0.70049 0.36311
 H259 H 0.94867 0.74535 0.38579
 H260 H 0.97553 0.77129 0.38597
 C261 C 0.42541 0.17563 -0.12468
 C262 C 0.43838 0.18864 -0.12464
 C263 C 0.45387 0.20414 -0.12462
 C264 C 0.46858 0.20431 -0.13983
 C265 C 0.48367 0.21935 -0.13982
 C266 C 0.48423 0.23443 -0.12456
 C267 C 0.46936 0.23412 -0.10934
 C268 C 0.45429 0.21908 -0.10939
 C269 C 0.50028 0.25038 -0.12450
 C270 C 0.50954 0.25652 -0.10624
 C271 C 0.52469 0.27148 -0.10621
 C272 C 0.53078 0.28052 -0.12440
 C273 C 0.52166 0.27454 -0.14264
 C274 C 0.50652 0.25957 -0.14271
 C275 C 0.54642 0.29588 -0.12435
 C276 C 0.55954 0.30873 -0.12430
 H277 H 0.46844 0.19279 -0.15166
 H278 H 0.49505 0.21901 -0.15158
 H279 H 0.46924 0.24567 -0.09754
 H280 H 0.44293 0.21912 -0.09758
 H281 H 0.50526 0.24954 -0.09201
 H282 H 0.53169 0.27595 -0.09201
 H283 H 0.52623 0.28148 -0.15681
 H284 H 0.49951 0.25537 -0.15698
 C285 C 0.12513 -0.07589 0.32393
 C286 C 0.12518 -0.06291 0.31096
 C287 C 0.12522 -0.04745 0.29545
 C288 C 0.11838 -0.05217 0.27591
 C289 C 0.11841 -0.03716 0.26083
 C290 C 0.12526 -0.01720 0.26512
 C291 C 0.13209 -0.01261 0.28483
 C292 C 0.13207 -0.02765 0.29988
 C293 C 0.12529 -0.00124 0.24911
 C294 C 0.11943 0.01899 0.25359
 C295 C 0.11944 0.03399 0.23850
 C296 C 0.12531 0.02899 0.21875
 C297 C 0.13118 0.00892 0.21414
 C298 C 0.13117 -0.00611 0.22920
 C299 C 0.12533 0.04443 0.20323
 C300 C 0.12535 0.05735 0.19021
 H301 H 0.11299 -0.06743 0.27233
 H302 H 0.11281 -0.04110 0.24588
 H303 H 0.13771 0.00253 0.28854
 H304 H 0.13744 -0.02384 0.31495
 H305 H 0.11458 0.02316 0.26870
 H306 H 0.11482 0.04947 0.24222
 H307 H 0.13581 0.00490 0.19891
 H308 H 0.13601 -0.02147 0.22533
 C309 C 0.62545 0.57470 -0.32405
 C310 C 0.62548 0.56170 -0.31110
 C311 C 0.62553 0.54619 -0.29564
 C312 C 0.61149 0.54705 -0.27984
 C313 C 0.61154 0.53199 -0.26480
 C314 C 0.62567 0.51587 -0.26538
 C315 C 0.63973 0.51515 -0.28135
 C316 C 0.63964 0.53022 -0.29637
 C317 C 0.62577 0.49988 -0.24940
 C318 C 0.64418 0.49241 -0.24154
 C319 C 0.64426 0.47737 -0.22649
 C320 C 0.62597 0.46959 -0.21910
 C321 C 0.60759 0.47691 -0.22681
 C322 C 0.60747 0.49196 -0.24185
 C323 C 0.62608 0.45411 -0.20361
 C324 C 0.62621 0.44115 -0.19063
 H325 H 0.60054 0.55938 -0.27910
 H326 H 0.60070 0.53312 -0.25257
 H327 H 0.65062 0.50280 -0.28236
 H328 H 0.65054 0.52938 -0.30858
 H329 H 0.65850 0.49839 -0.24684
 H330 H 0.65857 0.47186 -0.22058
 H331 H 0.59335 0.47095 -0.22124
 H332 H 0.59307 0.49720 -0.24777
 C333 C 0.37459 1.07461 0.82530
 C334 C 0.37452 1.06159 0.81232
 C335 C 0.37446 1.04607 0.79681
 C336 C 0.35613 1.03774 0.78999
 C337 C 0.35605 1.02270 0.77488
 C338 C 0.37434 1.01578 0.76639
 C339 C 0.39269 1.02424 0.77337
 C340 C 0.39273 1.03929 0.78847
 C341 C 0.37427 0.99983 0.75031
 C342 C 0.38890 0.98414 0.75031
 C343 C 0.38883 0.96915 0.73516
 C344 C 0.37418 0.96963 0.71980
 C345 C 0.35957 0.98516 0.71966
 C346 C 0.35960 1.00016 0.73481
 C347 C 0.37414 0.95421 0.70419
 C348 C 0.37410 0.94130 0.69110
 H349 H 0.34190 1.04284 0.79639
 H350 H 0.34170 1.01630 0.77003
 H351 H 0.40700 1.01943 0.76695
 H352 H 0.40701 1.04568 0.79359
 H353 H 0.40022 0.98332 0.76218
 H354 H 0.40018 0.95717 0.73544
 H355 H 0.34820 0.98570 0.70780
 H356 H 0.34831 1.01217 0.73423
 C357 C 0.87670 0.42605 0.17601
 C358 C 0.87670 0.43915 0.18891
 C359 C 0.87663 0.45482 0.20428
 C360 C 0.87021 0.47467 0.19953
 C361 C 0.87004 0.48988 0.21447
 C362 C 0.87628 0.48542 0.23438
 C363 C 0.88273 0.46541 0.23899
 C364 C 0.88291 0.45023 0.22402
 C365 C 0.87596 0.50154 0.25029
 C366 C 0.86939 0.49697 0.27003
 C367 C 0.86894 0.51220 0.28494
 C368 C 0.87506 0.53218 0.28035
 C369 C 0.88168 0.53688 0.26079
 C370 C 0.88213 0.52168 0.24584
 C371 C 0.87441 0.54788 0.29567
 C372 C 0.87379 0.56104 0.30849
 H373 H 0.86527 0.47837 0.18431
 H374 H 0.86473 0.50505 0.21051
 H375 H 0.88786 0.46157 0.25410
 H376 H 0.88795 0.43492 0.22784
 H377 H 0.86430 0.48169 0.27385
 H378 H 0.86372 0.50841 0.30002
 H379 H 0.88649 0.55229 0.25709
 H380 H 0.88751 0.52562 0.23087
 C381 C 0.32455 0.12473 -0.07441
 C382 C 0.31168 0.12472 -0.06151
 C383 C 0.29631 0.12469 -0.04610
 C384 C 0.28945 0.14320 -0.03789
 C385 C 0.27450 0.14320 -0.02294
 C386 C 0.26622 0.12464 -0.01599
 C387 C 0.27324 0.10611 -0.02434
 C388 C 0.28817 0.10615 -0.03930
 C389 C 0.25033 0.12460 -0.00011
 C390 C 0.25063 0.10989 0.01544
 C391 C 0.23565 0.10986 0.03036
 C392 C 0.22019 0.12451 0.02995
 C393 C 0.21975 0.13921 0.01455
 C394 C 0.23472 0.13928 -0.00038
 C395 C 0.20476 0.12444 0.04530
 C396 C 0.19184 0.12438 0.05815
 H397 H 0.29568 0.15764 -0.04301
 H398 H 0.26961 0.15769 -0.01664
 H399 H 0.26698 0.09159 -0.01950
 H400 H 0.29334 0.09174 -0.04559
 H401 H 0.26258 0.09857 0.01621
 H402 H 0.23616 0.09845 0.04225
 H403 H 0.20781 0.15058 0.01405
 H404 H 0.23392 0.15063 -0.01229
 C405 C 0.67581 0.62454 0.57588
 C406 C 0.68870 0.62451 0.56298
 C407 C 0.70406 0.62449 0.54757
 C408 C 0.72374 0.61804 0.55220
 C409 C 0.73868 0.61804 0.53724
 C410 C 0.73411 0.62449 0.51741
 C411 C 0.71426 0.63093 0.51292
 C412 C 0.69935 0.63093 0.52791
 C413 C 0.74996 0.62451 0.50150
 C414 C 0.74537 0.61812 0.48164
 C415 C 0.76028 0.61821 0.46665
 C416 C 0.77996 0.62468 0.47130
 C417 C 0.78469 0.63105 0.49101
 C418 C 0.76981 0.63096 0.50603
 C419 C 0.79526 0.62487 0.45583
 C420 C 0.80805 0.62505 0.44284
 H421 H 0.72754 0.61296 0.56736
 H422 H 0.75374 0.61274 0.54111
 H423 H 0.71033 0.63624 0.49788
 H424 H 0.68418 0.63602 0.52417
 H425 H 0.73031 0.61282 0.47774
 H426 H 0.75647 0.61320 0.45145
 H427 H 0.79987 0.63615 0.49476
 H428 H 0.77375 0.63621 0.52110
 C429 C 0.82587 0.37479 0.07515
 C430 C 0.81291 0.37479 0.06225
 C431 C 0.79744 0.37480 0.04684
 C432 C 0.79784 0.36019 0.03130
 C433 C 0.78282 0.36018 0.01633
 C434 C 0.76718 0.37483 0.01670
 C435 C 0.76692 0.38945 0.03240
 C436 C 0.78195 0.38941 0.04736
 C437 C 0.75121 0.37485 0.00080
 C438 C 0.74411 0.39341 -0.00738
 C439 C 0.72909 0.39341 -0.02236
 C440 C 0.72096 0.37488 -0.02935
 C441 C 0.72791 0.35635 -0.02131
 C442 C 0.74294 0.35631 -0.00634
 C443 C 0.70550 0.37490 -0.04476
 C444 C 0.69256 0.37492 -0.05768
 H445 H 0.80980 0.34884 0.03073
 H446 H 0.78359 0.34890 0.00431
 H447 H 0.75495 0.40074 0.03325
 H448 H 0.78147 0.40076 0.05936
 H449 H 0.75036 0.40791 -0.00240
 H450 H 0.72386 0.40784 -0.02852
 H451 H 0.72168 0.34192 -0.02657
 H452 H 0.74790 0.34179 -0.00016
 C453 C 0.17526 0.87423 0.42442
 C454 C 0.18815 0.87427 0.43739
 C455 C 0.20355 0.87432 0.45287
 C456 C 0.19842 0.87864 0.47298
 C457 C 0.21337 0.87871 0.48803
 C458 C 0.23367 0.87445 0.48315
 C459 C 0.23866 0.87011 0.46288
 C460 C 0.22369 0.87006 0.44785
 C461 C 0.24956 0.87453 0.49913
 C462 C 0.26491 0.85957 0.49921
 C463 C 0.27986 0.85966 0.51425
 C464 C 0.27970 0.87469 0.52939
 C465 C 0.26451 0.88964 0.52945
 C466 C 0.24954 0.88957 0.51443
 C467 C 0.29510 0.87477 0.54486
 C468 C 0.30802 0.87484 0.55781
 H469 H 0.18287 0.88190 0.47704
 H470 H 0.20900 0.88184 0.50353
 H471 H 0.25418 0.86704 0.45860
 H472 H 0.22783 0.86676 0.43232
 H473 H 0.26519 0.84764 0.48779
 H474 H 0.29152 0.84798 0.51410
 H475 H 0.26428 0.90138 0.54107
 H476 H 0.23809 0.90145 0.51463
   
