data_POSCAR
  _audit_creation_date              2014-09-24
  _audit_creation_method            'ToBaCCo'
  _symmetry_space_group_name_H-M    'P1'
  _symmetry_Int_Tables_number       1
  _symmetry_cell_setting            triclinic
  loop_
  _symmetry_equiv_pos_as_xyz
 x,y,z
_cell_length_a 53.1409
_cell_length_b 34.2969
_cell_length_c 18.6766
_cell_angle_alpha 90.160800
_cell_angle_beta 90.136700
_cell_angle_gamma 90.053100
loop_
  _atom_site_label
  _atom_site_type_symbol
  _atom_site_fract_x
  _atom_site_fract_y
  _atom_site_fract_z
C1 C 0.73329 0.28279 0.53706
 C2 C 0.73452 0.28048 0.46109
 C3 C 0.75446 0.26055 0.42840
 C4 C 0.77470 0.24544 0.46835
 C5 C 0.77447 0.24980 0.54453
 C6 C 0.75394 0.26894 0.57689
 H7 H 0.75280 0.26904 0.63478
 H8 H 0.75521 0.25973 0.37037
 C9 C 0.23576 0.78569 0.53780
 C10 C 0.23690 0.78601 0.46209
 C11 C 0.25675 0.76665 0.42760
 C12 C 0.27581 0.74761 0.46649
 C13 C 0.27475 0.74733 0.54281
 C14 C 0.25476 0.76687 0.57664
 H15 H 0.25300 0.76549 0.63441
 H16 H 0.25790 0.76774 0.36968
 C17 C 0.26932 0.26014 -0.53228
 C18 C 0.26825 0.25810 -0.45711
 C19 C 0.24693 0.24244 -0.42392
 C20 C 0.22618 0.22834 -0.46387
 C21 C 0.22767 0.22944 -0.54063
 C22 C 0.24904 0.24627 -0.57277
 H23 H 0.25067 0.24685 -0.63063
 H24 H 0.24627 0.24296 -0.36593
 C25 C -0.23022 0.75919 -0.53873
 C26 C -0.23325 0.76367 -0.46399
 C27 C -0.25350 0.74533 -0.42985
 C28 C -0.27172 0.72387 -0.46855
 C29 C -0.26852 0.71927 -0.54434
 C30 C -0.24807 0.73787 -0.57778
 H31 H -0.24487 0.73344 -0.63455
 H32 H -0.25595 0.75038 -0.37296
 N33 N 0.02273 1.06838 -0.07016
 N34 N 0.04145 1.09335 -0.07764
 N35 N -0.03033 1.04060 -0.12037
 N36 N -0.04936 1.04590 -0.16444
 N37 N -0.03036 1.06696 -0.06926
 N38 N -0.04954 1.09109 -0.07750
 N39 N 0.02243 1.04319 -0.12328
 N40 N 0.04078 1.05068 -0.16882
 C41 C 0.05252 1.08200 -0.13948
 C42 C -0.06126 1.07739 -0.13716
 N43 N -0.02787 0.92831 -0.08167
 N44 N -0.04656 0.90349 -0.09089
 N45 N 0.02361 0.95926 -0.13147
 N46 N 0.04072 0.95441 -0.18165
 N47 N 0.02506 0.93140 -0.08356
 N48 N 0.04345 0.90701 -0.09950
 N49 N -0.02922 0.95673 -0.12840
 N50 N -0.04892 0.95190 -0.17095
 Mn51 Mn -0.00342 1.00000 -0.12666
 C52 C -0.05955 0.91845 -0.14677
 C53 C 0.05308 0.92194 -0.16070
 N54 N -0.02958 1.06311 0.08515
 N55 N -0.04776 1.08806 0.09962
 N56 N 0.02329 1.03601 0.13134
 N57 N 0.04262 1.03917 0.17516
 N58 N 0.02333 1.06435 0.08428
 N59 N 0.04276 1.08777 0.09518
 N60 N -0.02968 1.03419 0.13113
 N61 N -0.04816 1.03852 0.17771
 Mn62 Mn -0.00343 1.06623 0.00751
 C63 C -0.05931 1.07225 0.15718
 C64 C 0.05460 1.07157 0.15228
 N65 N 0.02566 0.92719 0.07087
 N66 N 0.04538 0.90407 0.07741
 N67 N -0.02786 0.95003 0.12354
 N68 N -0.04664 0.94276 0.16759
 N69 N -0.02737 0.92439 0.07127
 N70 N -0.04608 0.89931 0.07762
 N71 N 0.02502 0.95269 0.12334
 N72 N 0.04439 0.94778 0.16679
 Mn73 Mn -0.00104 0.92737 -0.00579
 Mn74 Mn -0.00239 0.99322 0.12816
 Cl75 Cl -0.00257 0.99672 0.00080
 C76 C 0.05693 0.91729 0.13754
 C77 C -0.05786 0.91110 0.13809
 N78 N 0.52609 0.54070 0.12330
 N79 N 0.54626 0.54479 0.16397
 N80 N 0.47272 0.56771 0.07346
 N81 N 0.45386 0.59231 0.08116
 N82 N 0.47317 0.54242 0.12607
 N83 N 0.45474 0.54947 0.17167
 N84 N 0.52579 0.56702 0.07245
 N85 N 0.54581 0.58971 0.07707
 C86 C 0.55837 0.57558 0.13460
 C87 C 0.44282 0.58062 0.14267
 N88 N 0.47213 0.53687 -0.12868
 N89 N 0.45328 0.54110 -0.17390
 N90 N 0.52516 0.56398 -0.08062
 N91 N 0.54449 0.58750 -0.08978
 N92 N 0.52499 0.53630 -0.12929
 N93 N 0.54408 0.54067 -0.17386
 N94 N 0.47214 0.56487 -0.08069
 N95 N 0.45325 0.58912 -0.09224
 Mn96 Mn 0.49888 0.56637 -0.00384
 C97 C 0.44162 0.57376 -0.15063
 C98 C 0.55610 0.57272 -0.14813
 N99 N 0.47228 0.45846 0.13079
 N100 N 0.45429 0.45427 0.17856
 N101 N 0.52424 0.42857 0.08059
 N102 N 0.54334 0.40446 0.08850
 N103 N 0.52527 0.45671 0.12830
 N104 N 0.54520 0.45243 0.17003
 N105 N 0.47137 0.43032 0.08297
 N106 N 0.45275 0.40602 0.09746
 Mn107 Mn 0.49924 0.49958 0.12803
 C108 C 0.44217 0.42154 0.15715
 C109 C 0.55626 0.41958 0.14454
 N110 N 0.52399 0.45197 -0.12419
 N111 N 0.54315 0.44621 -0.16770
 N112 N 0.47081 0.42723 -0.07244
 N113 N 0.45150 0.40332 -0.08104
 N114 N 0.47113 0.45357 -0.12331
 N115 N 0.45189 0.44875 -0.16716
 N116 N 0.52386 0.42589 -0.07286
 N117 N 0.54320 0.40200 -0.07946
 Mn118 Mn 0.49812 0.49463 -0.12719
 Mn119 Mn 0.49748 0.42749 0.00458
 Cl120 Cl 0.49840 0.49699 0.00042
 C121 C 0.55497 0.41495 -0.13911
 C122 C 0.43984 0.41729 -0.14029
 C123 C 0.30414 0.25291 0.37887
 C124 C 0.32427 0.26821 0.33991
 C125 C 0.33203 0.30677 0.35073
 C126 C 0.31950 0.32994 0.40170
 C127 C 0.29931 0.31468 0.44049
 C128 C 0.29149 0.27602 0.42944
 N129 N 0.35233 0.32186 0.30863
 N130 N 0.36061 0.35638 0.31724
 C131 C 0.38074 0.37203 0.27526
 C132 C 0.38997 0.40908 0.29232
 C133 C 0.40981 0.42519 0.25347
 C134 C 0.42068 0.40453 0.19629
 C135 C 0.41118 0.36751 0.17838
 C136 C 0.39138 0.35127 0.21776
 H137 H 0.29833 0.22305 0.36937
 H138 H 0.33374 0.25009 0.30081
 H139 H 0.32507 0.35991 0.41084
 H140 H 0.28947 0.33327 0.47806
 H141 H 0.38187 0.42539 0.33632
 H142 H 0.41668 0.45383 0.26838
 H143 H 0.41922 0.35098 0.13459
 H144 H 0.38446 0.32260 0.20338
 C145 C -0.18348 0.76781 0.44934
 C146 C -0.16262 0.78426 0.41565
 C147 C -0.16566 0.80638 0.35351
 C148 C -0.18988 0.81201 0.32509
 C149 C -0.21086 0.79647 0.35991
 C150 C -0.20787 0.77469 0.42298
 N151 N -0.14402 0.82402 0.32190
 N152 N -0.14364 0.83477 0.25679
 C153 C -0.12215 0.85407 0.22759
 C154 C -0.11769 0.85214 0.15385
 C155 C -0.09653 0.87031 0.12453
 C156 C -0.08006 0.89169 0.16856
 C157 C -0.08489 0.89438 0.24221
 C158 C -0.10562 0.87531 0.27171
 H159 H -0.18059 0.75015 0.49659
 H160 H -0.14401 0.77961 0.43778
 H161 H -0.19261 0.82928 0.27726
 H162 H -0.22945 0.80205 0.33842
 H163 H -0.13039 0.83602 0.11932
 H164 H -0.09322 0.86810 0.06745
 H165 H -0.07243 0.91072 0.27713
 H166 H -0.10891 0.87752 0.32876
 C167 C 0.70816 0.65781 0.43773
 C168 C 0.69045 0.63602 0.39933
 C169 C 0.68051 0.65021 0.33513
 C170 C 0.68967 0.68545 0.30724
 C171 C 0.70745 0.70725 0.34539
 C172 C 0.71601 0.69470 0.41305
 N173 N 0.65996 0.62983 0.30227
 N174 N 0.64886 0.64271 0.24672
 C175 C 0.62725 0.62377 0.21662
 C176 C 0.61580 0.63993 0.15606
 C177 C 0.59357 0.62395 0.12859
 C178 C 0.58241 0.59151 0.16163
 C179 C 0.59422 0.57478 0.22148
 C180 C 0.61647 0.59076 0.24883
 H181 H 0.71529 0.64619 0.48767
 H182 H 0.68380 0.60862 0.42088
 H183 H 0.68242 0.69687 0.25732
 H184 H 0.71308 0.73528 0.32415
 H185 H 0.62390 0.66542 0.13090
 H186 H 0.58493 0.63731 0.08218
 H187 H 0.58610 0.54965 0.24778
 H188 H 0.62494 0.57778 0.29582
 C189 C 0.20183 1.23026 0.35018
 C190 C 0.18328 1.21363 0.30663
 C191 C 0.17258 1.17776 0.32447
 C192 C 0.18122 1.15789 0.38546
 C193 C 0.19975 1.17445 0.42914
 C194 C 0.20979 1.21150 0.41347
 N195 N 0.15236 1.16284 0.28164
 N196 N 0.14161 1.13075 0.29659
 C197 C 0.12070 1.11591 0.25662
 C198 C 0.11002 1.08059 0.27789
 C199 C 0.08873 1.06607 0.24316
 C200 C 0.07771 1.08675 0.18629
 C201 C 0.08872 1.12189 0.16384
 C202 C 0.11009 1.13646 0.19887
 H203 H 0.20898 1.25881 0.33611
 H204 H 0.17681 1.22918 0.25969
 H205 H 0.17347 1.12981 0.39991
 H206 H 0.20622 1.15819 0.47527
 H207 H 0.11803 1.06456 0.32230
 H208 H 0.08075 1.03880 0.26143
 H209 H 0.08063 1.13830 0.12002
 H210 H 0.11807 1.16390 0.18157
 C211 C 0.68714 0.28889 -0.45372
 C212 C 0.66578 0.30328 -0.41951
 C213 C 0.66792 0.32384 -0.35527
 C214 C 0.69180 0.32999 -0.32516
 C215 C 0.71336 0.31653 -0.36036
 C216 C 0.71148 0.29632 -0.42628
 N217 N 0.64562 0.33920 -0.32319
 N218 N 0.64429 0.34800 -0.25708
 C219 C 0.62190 0.36486 -0.22792
 C220 C 0.61680 0.36094 -0.15477
 C221 C 0.59475 0.37666 -0.12572
 C222 C 0.57796 0.39755 -0.16930
 C223 C 0.58338 0.40213 -0.24228
 C224 C 0.60501 0.38553 -0.27158
 H225 H 0.68438 0.27107 -0.50094
 H226 H 0.64739 0.29785 -0.44263
 H227 H 0.69384 0.34618 -0.27563
 H228 H 0.73149 0.32353 -0.33713
 H229 H 0.62972 0.34521 -0.12053
 H230 H 0.59102 0.37303 -0.06913
 H231 H 0.57071 0.41814 -0.27690
 H232 H 0.60873 0.38925 -0.32812
 C233 C 0.21945 0.82687 -0.36151
 C234 C 0.19968 0.84197 -0.32092
 C235 C 0.17475 0.83439 -0.34043
 C236 C 0.16967 0.81071 -0.40023
 C237 C 0.18944 0.79462 -0.43964
 C238 C 0.21454 0.80308 -0.42139
 N239 N 0.15490 0.85072 -0.29848
 N240 N 0.13305 0.85611 -0.32450
 C241 C 0.11304 0.87173 -0.28235
 C242 C 0.09359 0.89179 -0.31666
 C243 C 0.07420 0.90848 -0.27676
 C244 C 0.07357 0.90410 -0.20208
 C245 C 0.09269 0.88300 -0.16773
 C246 C 0.11255 0.86735 -0.20755
 H247 H 0.23862 0.83371 -0.34611
 H248 H 0.20378 0.86011 -0.27478
 H249 H 0.15048 0.80402 -0.41548
 H250 H 0.18512 0.77537 -0.48403
 H251 H 0.09377 0.89518 -0.37429
 H252 H 0.05952 0.92444 -0.30434
 H253 H 0.09253 0.87933 -0.11015
 H254 H 0.12734 0.85158 -0.18021
 C255 C 0.30127 0.74497 -0.34949
 C256 C 0.31941 0.72654 -0.30736
 C257 C 0.32904 0.69028 -0.32745
 C258 C 0.31989 0.67204 -0.38973
 C259 C 0.30173 0.69041 -0.43205
 C260 C 0.29255 0.72768 -0.41363
 N261 N 0.34851 0.67316 -0.28481
 N262 N 0.35827 0.64043 -0.30073
 C263 C 0.37829 0.62365 -0.25979
 C264 C 0.38823 0.58790 -0.28184
 C265 C 0.40859 0.57148 -0.24556
 C266 C 0.41937 0.59066 -0.18635
 C267 C 0.40907 0.62622 -0.16323
 C268 C 0.38867 0.64268 -0.19975
 H269 H 0.29495 0.77369 -0.33332
 H270 H 0.32632 0.74088 -0.25945
 H271 H 0.32681 0.64368 -0.40588
 H272 H 0.29459 0.67504 -0.47855
 H273 H 0.38038 0.57299 -0.32796
 H274 H 0.41605 0.54394 -0.26441
 H275 H 0.41700 0.64154 -0.11766
 H276 H 0.38126 0.67039 -0.18169
 C277 C -0.19858 1.25153 -0.34826
 C278 C -0.18068 1.23418 -0.30360
 C279 C -0.17168 1.19678 -0.31858
 C280 C -0.18112 1.17650 -0.37834
 C281 C -0.19894 1.19375 -0.42310
 C282 C -0.20757 1.23195 -0.40983
 N283 N -0.15261 1.18027 -0.27364
 N284 N -0.14398 1.14632 -0.28569
 C285 C -0.12436 1.12909 -0.24397
 C286 C -0.11563 1.09229 -0.26408
 C287 C -0.09545 1.07530 -0.22814
 C288 C -0.08365 1.09487 -0.17101
 C289 C -0.09286 1.13142 -0.14928
 C290 C -0.11308 1.14855 -0.18575
 H291 H -0.20466 1.28094 -0.33602
 H292 H -0.17357 1.25012 -0.25767
 H293 H -0.17472 1.14728 -0.39063
 H294 H -0.20633 1.17673 -0.46729
 H295 H -0.12421 1.07706 -0.30878
 H296 H -0.08887 1.04699 -0.24582
 H297 H -0.08409 1.14706 -0.10538
 H298 H -0.11960 1.17709 -0.16929
 C299 C 0.68241 0.71311 -0.46251
 C300 C 0.66159 0.69620 -0.42932
 C301 C 0.66415 0.67788 -0.36306
 C302 C 0.68772 0.67764 -0.32895
 C303 C 0.70872 0.69390 -0.36269
 C304 C 0.70661 0.71052 -0.43150
 N305 N 0.64276 0.65869 -0.33278
 N306 N 0.64216 0.64808 -0.26760
 C307 C 0.62097 0.62780 -0.23866
 C308 C 0.61665 0.62946 -0.16491
 C309 C 0.59556 0.61128 -0.13550
 C310 C 0.57891 0.59007 -0.17932
 C311 C 0.58374 0.58714 -0.25296
 C312 C 0.60448 0.60632 -0.28267
 H313 H 0.67954 0.72786 -0.51304
 H314 H 0.64340 0.69725 -0.45550
 H315 H 0.69010 0.66371 -0.27745
 H316 H 0.72685 0.69132 -0.33652
 H317 H 0.62932 0.64570 -0.13045
 H318 H 0.59227 0.61374 -0.07844
 H319 H 0.57111 0.57100 -0.28769
 H320 H 0.60768 0.60432 -0.33979
 C321 C 0.17986 1.22453 -0.45187
 C322 C 0.15854 1.20953 -0.41794
 C323 C 0.16090 1.18742 -0.35559
 C324 C 0.18490 1.18101 -0.32652
 C325 C 0.20633 1.19515 -0.36133
 C326 C 0.20427 1.21614 -0.42611
 N327 N 0.13883 1.17035 -0.32471
 N328 N 0.13825 1.15861 -0.26013
 C329 C 0.11652 1.13969 -0.23102
 C330 C 0.11268 1.14030 -0.15691
 C331 C 0.09165 1.12195 -0.12714
 C332 C 0.07459 1.10158 -0.17104
 C333 C 0.07874 1.10028 -0.24523
 C334 C 0.09937 1.11963 -0.27516
 H335 H 0.17712 1.24265 -0.49859
 H336 H 0.14009 1.21522 -0.44029
 H337 H 0.18717 1.16382 -0.27841
 H338 H 0.22454 1.18765 -0.33928
 H339 H 0.12584 1.15543 -0.12228
 H340 H 0.08891 1.12316 -0.06972
 H341 H 0.06583 1.08479 -0.28013
 H342 H 0.10216 1.11840 -0.33253
 C343 C 0.31160 0.25097 -0.40687
 C344 C 0.33172 0.26527 -0.36610
 C345 C 0.32986 0.30142 -0.33143
 C346 C 0.30727 0.32261 -0.33596
 C347 C 0.28696 0.30789 -0.37533
 C348 C 0.28918 0.27233 -0.41194
 N349 N 0.35122 0.31642 -0.29343
 N350 N 0.35332 0.35256 -0.27900
 C351 C 0.37454 0.36818 -0.24129
 C352 C 0.37985 0.40796 -0.24761
 C353 C 0.40109 0.42391 -0.21448
 C354 C 0.41696 0.40042 -0.17268
 C355 C 0.41118 0.36074 -0.16422
 C356 C 0.39026 0.34456 -0.19908
 H357 H 0.31352 0.22343 -0.43484
 H358 H 0.34901 0.24868 -0.36297
 H359 H 0.30535 0.35047 -0.30917
 H360 H 0.26974 0.32465 -0.37882
 H361 H 0.36782 0.42645 -0.27977
 H362 H 0.40509 0.45465 -0.22142
 H363 H 0.42319 0.34209 -0.13231
 H364 H 0.38634 0.31377 -0.19305
 C365 C -0.21128 0.82733 -0.44103
 C366 C -0.19293 0.84932 -0.40544
 C367 C -0.17924 0.83313 -0.34878
 C368 C -0.18474 0.79492 -0.32636
 C369 C -0.20305 0.77286 -0.36210
 C370 C -0.21600 0.78855 -0.42090
 N371 N -0.15914 0.85527 -0.31726
 N372 N -0.14599 0.84196 -0.26582
 C373 C -0.12515 0.86283 -0.23548
 C374 C -0.11242 0.84640 -0.17739
 C375 C -0.09129 0.86480 -0.14824
 C376 C -0.08241 0.90003 -0.17703
 C377 C -0.09538 0.91686 -0.23487
 C378 C -0.11663 0.89841 -0.26394
 H379 H -0.22129 0.84015 -0.48572
 H380 H -0.18896 0.87873 -0.42308
 H381 H -0.17447 0.78175 -0.28257
 H382 H -0.20642 0.74305 -0.34568
 H383 H -0.11876 0.81900 -0.15509
 H384 H -0.08177 0.85116 -0.10353
 H385 H -0.08899 0.94405 -0.25795
 H386 H -0.12615 0.91163 -0.30905
 C387 C 0.32236 0.74116 0.44511
 C388 C 0.34268 0.72303 0.41137
 C389 C 0.33859 0.69633 0.35579
 C390 C 0.31385 0.68820 0.33355
 C391 C 0.29347 0.70553 0.36859
 C392 C 0.29752 0.73153 0.42577
 N393 N 0.35973 0.67678 0.32475
 N394 N 0.35867 0.66097 0.26310
 C395 C 0.37962 0.64012 0.23399
 C396 C 0.38247 0.63798 0.15964
 C397 C 0.40314 0.61870 0.12992
 C398 C 0.42076 0.60005 0.17427
 C399 C 0.41746 0.60109 0.24879
 C400 C 0.39721 0.62150 0.27856
 H401 H 0.32599 0.76181 0.48788
 H402 H 0.36166 0.72970 0.42869
 H403 H 0.31028 0.66753 0.29080
 H404 H 0.27452 0.69778 0.35248
 H405 H 0.36894 0.65202 0.12477
 H406 H 0.40526 0.61808 0.07225
 H407 H 0.43086 0.58696 0.28395
 H408 H 0.39515 0.62244 0.33620
 C409 C -0.17964 1.24052 0.44771
 C410 C -0.15927 1.22385 0.41162
 C411 C -0.16325 1.19545 0.35893
 C412 C -0.18797 1.18518 0.34000
 C413 C -0.20842 1.20282 0.37424
 C414 C -0.20455 1.22977 0.43037
 N415 N -0.14200 1.17773 0.32487
 N416 N -0.14280 1.14297 0.30082
 C417 C -0.12175 1.12571 0.26491
 C418 C -0.11895 1.08509 0.26529
 C419 C -0.09837 1.06759 0.23131
 C420 C -0.08080 1.09048 0.19430
 C421 C -0.08392 1.13114 0.19269
 C422 C -0.10404 1.14869 0.22855
 H423 H -0.17591 1.26224 0.48860
 H424 H -0.14030 1.23245 0.42588
 H425 H -0.19141 1.16371 0.29852
 H426 H -0.22727 1.19387 0.35922
 H427 H -0.13253 1.06705 0.29290
 H428 H -0.09642 1.03617 0.23291
 H429 H -0.07059 1.14940 0.16454
 H430 H -0.10600 1.18009 0.22701
 C431 C 0.71262 0.34255 0.42792
 C432 C 0.69392 0.36255 0.39043
 C433 C 0.67951 0.34337 0.33841
 C434 C 0.68475 0.30413 0.32200
 C435 C 0.70346 0.28403 0.35965
 C436 C 0.71699 0.30278 0.41450
 N437 N 0.65885 0.36367 0.30627
 N438 N 0.64493 0.34802 0.25868
 C439 C 0.62349 0.36751 0.22910
 C440 C 0.61010 0.34936 0.17378
 C441 C 0.58840 0.36657 0.14586
 C442 C 0.57960 0.40222 0.17335
 C443 C 0.59317 0.42068 0.22847
 C444 C 0.61501 0.40351 0.25611
 H445 H 0.72311 0.35772 0.46929
 H446 H 0.69015 0.39278 0.40333
 H447 H 0.67390 0.28870 0.28179
 H448 H 0.70657 0.25343 0.34832
 H449 H 0.61639 0.32160 0.15268
 H450 H 0.57836 0.35170 0.10325
 H451 H 0.58686 0.44823 0.25043
 H452 H 0.62501 0.41804 0.29913
 C453 C 0.21239 0.84638 0.43185
 C454 C 0.19298 0.86504 0.39472
 C455 C 0.17913 0.84498 0.34247
 C456 C 0.18538 0.80610 0.32633
 C457 C 0.20470 0.78733 0.36378
 C458 C 0.21800 0.80705 0.41796
 N459 N 0.15825 0.86418 0.30900
 N460 N 0.14541 0.84830 0.25920
 C461 C 0.12390 0.86693 0.22789
 C462 C 0.11186 0.84912 0.16962
 C463 C 0.09027 0.86574 0.13953
 C464 C 0.08022 0.90036 0.16785
 C465 C 0.09242 0.91840 0.22601
 C466 C 0.11413 0.90191 0.25570
 H467 H 0.22265 0.86234 0.47268
 H468 H 0.18843 0.89502 0.40751
 H469 H 0.17496 0.78996 0.28614
 H470 H 0.20873 0.75702 0.35214
 H471 H 0.11915 0.82212 0.14780
 H472 H 0.08127 0.85120 0.09473
 H473 H 0.08515 0.94519 0.24876
 H474 H 0.12304 0.91620 0.30088
   
