data_POSCAR
  _audit_creation_date              2014-09-24
  _audit_creation_method            'ToBaCCo'
  _symmetry_space_group_name_H-M    'P1'
  _symmetry_Int_Tables_number       1
  _symmetry_cell_setting            triclinic
  loop_
  _symmetry_equiv_pos_as_xyz
 x,y,z
_cell_length_a 19.2508
_cell_length_b 19.0323
_cell_length_c 27.0769
_cell_angle_alpha 90.030800
_cell_angle_beta 92.417100
_cell_angle_gamma 89.983600
loop_
  _atom_site_label
  _atom_site_type_symbol
  _atom_site_fract_x
  _atom_site_fract_y
  _atom_site_fract_z
C1 C -0.00283 0.56557 1.02717
 C2 C 0.00277 0.56505 0.97471
 C3 C 0.00943 0.49954 0.95110
 C4 C 0.00369 0.43478 0.97544
 C5 C -0.00355 0.43514 1.02770
 C6 C -0.00976 0.50055 1.05138
 H7 H -0.02171 0.50092 1.08988
 H8 H 0.02069 0.49873 0.91248
 C9 C 0.44028 0.00009 0.52727
 C10 C 0.43338 0.00583 0.47489
 C11 C 0.49417 0.00482 0.44786
 C12 C 0.56165 0.00130 0.47001
 C13 C 0.56843 0.00380 0.52269
 C14 C 0.50754 0.00089 0.54957
 H15 H 0.51272 -0.00075 0.58920
 H16 H 0.48856 0.00673 0.40826
 C17 C 0.12580 0.01795 0.27577
 H18 H 0.12888 0.02407 0.23620
 C19 C 0.18630 0.02026 0.30606
 H20 H 0.23613 0.02825 0.28980
 C21 C 0.05726 0.00031 0.34537
 H22 H 0.00697 -0.00638 0.36081
 C23 C 0.11649 0.00164 0.37692
 H24 H 0.11091 -0.00445 0.41626
 N25 N 0.06301 0.00665 0.29564
 C26 C -0.06832 -0.10085 0.18406
 H27 H -0.11447 -0.06840 0.18397
 C28 C -0.06635 -0.15983 0.15339
 H29 H -0.11121 -0.17303 0.12973
 C30 C 0.04662 -0.12334 0.21483
 H31 H 0.09043 -0.10946 0.23904
 C32 C 0.05093 -0.18239 0.18453
 H33 H 0.09818 -0.21319 0.18583
 Zn34 Zn -0.01615 0.00024 0.25164
 N35 N -0.01187 -0.08308 0.21336
 C36 C -0.01858 0.07120 0.15983
 N37 N -0.01605 0.07982 0.20972
 C38 C -0.01150 0.14492 0.23044
 C39 C -0.01056 0.20473 0.20052
 C40 C -0.01819 0.12944 0.12866
 C41 C -0.10950 -0.05692 0.31796
 C42 C -0.16814 -0.05859 0.34658
 C43 C -0.20666 0.05018 0.30851
 C44 C -0.14683 0.05032 0.28111
 N45 N -0.09900 -0.00200 0.28701
 H46 H -0.02051 0.01919 0.14396
 H47 H -0.00856 0.15024 0.27026
 H48 H -0.00682 0.25633 0.21728
 H49 H -0.01991 0.12112 0.08915
 H50 H -0.07132 -0.09856 0.32126
 H51 H -0.17486 -0.10135 0.37231
 H52 H -0.24333 0.09305 0.30424
 H53 H -0.13848 0.09268 0.25553
 C54 C -0.00578 -0.20060 0.15297
 C55 C 0.18195 0.01075 0.35712
 C56 C -0.21720 -0.00436 0.34208
 C57 C -0.01441 0.19713 0.14902
 C58 C 0.01114 0.14202 0.76990
 H59 H 0.00822 0.14749 0.73010
 C60 C 0.01022 0.20172 0.79998
 H61 H 0.00651 0.25340 0.78335
 C62 C 0.01819 0.06804 0.84032
 H63 H 0.02009 0.01598 0.85607
 C64 C 0.01783 0.12616 0.87164
 H65 H 0.01954 0.11769 0.91113
 N66 N 0.01570 0.07684 0.79045
 C67 C 0.10933 -0.05965 0.68199
 H68 H 0.07123 -0.10135 0.67871
 C69 C 0.16785 -0.06117 0.65325
 H70 H 0.17457 -0.10390 0.62745
 C71 C 0.14650 0.04768 0.71884
 H72 H 0.13811 0.09003 0.74445
 C73 C 0.20621 0.04768 0.69131
 H74 H 0.24276 0.09066 0.69551
 Zn75 Zn 0.01592 -0.00265 0.74839
 N76 N 0.09879 -0.00475 0.71300
 C77 C -0.05710 -0.00197 0.65463
 N78 N -0.06322 0.00375 0.70436
 C79 C -0.12623 0.01448 0.72407
 C80 C -0.18657 0.01679 0.69358
 C81 C -0.11612 -0.00059 0.62289
 C82 C 0.06833 -0.10366 0.81584
 C83 C 0.06643 -0.16245 0.84664
 C84 C -0.05085 -0.18522 0.81561
 C85 C -0.04661 -0.12634 0.78517
 N86 N 0.01182 -0.08604 0.78656
 H87 H -0.00666 -0.00813 0.63930
 H88 H -0.12960 0.02017 0.76366
 H89 H -0.23656 0.02433 0.70971
 H90 H -0.11017 -0.00610 0.58355
 H91 H 0.11443 -0.07117 0.81588
 H92 H 0.11131 -0.17547 0.87034
 H93 H -0.09809 -0.21601 0.81442
 H94 H -0.09047 -0.11259 0.76097
 C95 C 0.21677 -0.00682 0.65767
 C96 C 0.01410 0.19393 0.85146
 C97 C 0.00588 -0.20319 0.84722
 C98 C -0.18180 0.00791 0.64249
 C99 C -0.01987 -0.25962 0.06313
 C100 C 0.04457 -0.30613 0.05376
 C101 C -0.00123 -0.37212 0.05796
 C102 C -0.06540 -0.32653 0.06758
 C103 C 0.01678 -0.37477 0.11446
 C104 C 0.06183 -0.30835 0.11001
 C105 C -0.00240 -0.26285 0.11896
 C106 C -0.04751 -0.32879 0.12381
 H107 H -0.03497 -0.21140 0.04228
 H108 H 0.08572 -0.29495 0.02768
 H109 H -0.11852 -0.33421 0.05091
 H110 H 0.03408 -0.42007 0.13768
 H111 H 0.11484 -0.30210 0.12715
 H112 H -0.08517 -0.33810 0.15304
 C113 C -0.05896 0.32595 0.11999
 C114 C 0.00570 0.37337 0.11573
 C115 C -0.00511 0.37298 0.05847
 C116 C -0.06985 0.32632 0.06302
 C117 C 0.04202 0.30778 0.05573
 C118 C 0.05216 0.30758 0.11265
 C119 C -0.01230 0.26078 0.11627
 C120 C -0.02294 0.26027 0.05977
 H121 H -0.10045 0.33323 0.14678
 H122 H 0.01932 0.41774 0.14093
 H123 H -0.12120 0.33455 0.04371
 H124 H 0.08702 0.29839 0.03269
 H125 H 0.10244 0.29969 0.13351
 H126 H -0.03596 0.21410 0.03619
 C127 C 0.26907 0.01383 0.56967
 C128 C 0.33531 0.06008 0.57515
 C129 C 0.37967 -0.00403 0.56180
 C130 C 0.31420 -0.05052 0.55662
 C131 C 0.38774 -0.02367 0.61742
 C132 C 0.34291 0.04049 0.63052
 C133 C 0.27743 -0.00547 0.62459
 C134 C 0.32177 -0.06959 0.61207
 H135 H 0.21935 0.02978 0.55067
 H136 H 0.34162 0.11439 0.56117
 H137 H 0.30102 -0.09108 0.52857
 H138 H 0.43457 -0.04119 0.63933
 H139 H 0.35581 0.07780 0.66104
 H140 H 0.31628 -0.12309 0.62775
 C141 C -0.25138 -0.01229 0.55448
 C142 C -0.31660 -0.05744 0.56390
 C143 C -0.36285 0.00728 0.55311
 C144 C -0.29835 0.05279 0.54416
 C145 C -0.35760 0.02714 0.60884
 C146 C -0.31093 -0.03760 0.61928
 C147 C -0.24661 0.00731 0.60957
 C148 C -0.29267 0.07198 0.59969
 H149 H -0.20803 -0.02946 0.53160
 H150 H -0.32685 -0.11174 0.55056
 H151 H -0.29096 0.09356 0.51586
 H152 H -0.39887 0.04546 0.63318
 H153 H -0.31599 -0.07477 0.65050
 H154 H -0.28258 0.12539 0.61483
 C155 C 0.04765 -0.33101 0.87727
 C156 C 0.06540 -0.32784 0.93349
 C157 C 0.00123 -0.37326 0.94336
 C158 C -0.01663 -0.37684 0.88687
 C159 C -0.04463 -0.30719 0.94702
 C160 C 0.01979 -0.26085 0.93739
 C161 C 0.00246 -0.26499 0.88158
 C162 C -0.06175 -0.31034 0.89077
 H163 H 0.08539 -0.34080 0.84816
 H164 H 0.11848 -0.33526 0.95028
 H165 H -0.03382 -0.42248 0.86394
 H166 H -0.08582 -0.29561 0.97301
 H167 H 0.03479 -0.21229 0.95790
 H168 H -0.11472 -0.30436 0.87352
 C169 C 0.05861 0.32270 0.88078
 C170 C -0.00603 0.37002 0.88560
 C171 C 0.00520 0.36919 0.94280
 C172 C 0.06995 0.32262 0.93767
 C173 C -0.04175 0.30387 0.94535
 C174 C -0.05236 0.30414 0.88849
 C175 C 0.01212 0.25743 0.88441
 C176 C 0.02324 0.25652 0.94090
 H177 H 0.09986 0.33027 0.85385
 H178 H -0.01974 0.41487 0.86090
 H179 H 0.12157 0.33079 0.95660
 H180 H -0.08653 0.29428 0.96859
 H181 H -0.10279 0.29638 0.86780
 H182 H 0.03660 0.21044 0.96446
 C183 C -0.34341 0.04298 0.36915
 C184 C -0.38849 -0.02128 0.38157
 C185 C -0.38073 -0.00231 0.43740
 C186 C -0.33615 0.06186 0.42470
 C187 C -0.31546 -0.04916 0.44247
 C188 C -0.32265 -0.06740 0.38684
 C189 C -0.27809 -0.00324 0.37496
 C190 C -0.27003 0.01526 0.43002
 H191 H -0.35604 0.08072 0.33886
 H192 H -0.43498 -0.03870 0.35924
 H193 H -0.34229 0.11597 0.43916
 H194 H -0.30246 -0.09044 0.46995
 H195 H -0.31716 -0.12068 0.37076
 H196 H -0.22029 0.03070 0.44922
 C197 C 0.31116 -0.03486 0.37927
 C198 C 0.35795 0.02984 0.38943
 C199 C 0.36430 0.00971 0.44504
 C200 C 0.31787 -0.05497 0.43456
 C201 C 0.29998 0.05510 0.45486
 C202 C 0.29323 0.07463 0.39941
 C203 C 0.24706 0.01000 0.38973
 C204 C 0.25283 -0.00990 0.44473
 H205 H 0.31562 -0.07190 0.34788
 H206 H 0.39847 0.04828 0.36454
 H207 H 0.32848 -0.10926 0.44775
 H208 H 0.29327 0.09546 0.48359
 H209 H 0.28282 0.12813 0.38456
 H210 H 0.20978 -0.02719 0.46781
   
