data_POSCAR
  _audit_creation_date              2014-09-24
  _audit_creation_method            'ToBaCCo'
  _symmetry_space_group_name_H-M    'P1'
  _symmetry_Int_Tables_number       1
  _symmetry_cell_setting            triclinic
  loop_
  _symmetry_equiv_pos_as_xyz
 x,y,z
_cell_length_a 38.8215
_cell_length_b 38.8685
_cell_length_c 13.7617
_cell_angle_alpha 90.003800
_cell_angle_beta 90.073000
_cell_angle_gamma 119.855400
loop_
  _atom_site_label
  _atom_site_type_symbol
  _atom_site_fract_x
  _atom_site_fract_y
  _atom_site_fract_z
C1 C 0.19730 0.45958 0.44714
 C2 C 0.19480 0.45561 0.55227
 C3 C 0.22799 0.45761 0.60074
 C4 C 0.26177 0.46058 0.55413
 C5 C 0.25880 0.45404 0.45010
 C6 C 0.22703 0.45456 0.40142
 H7 H 0.22612 0.45219 0.32352
 H8 H 0.22778 0.45760 0.67884
 C9 C 0.54425 -0.26035 0.44814
 C10 C 0.54014 -0.26208 0.55287
 C11 C 0.54472 -0.22800 0.60095
 C12 C 0.54572 -0.19516 0.55421
 C13 C 0.53970 -0.19834 0.44991
 C14 C 0.54275 -0.22874 0.40141
 H15 H 0.54291 -0.22830 0.32332
 H16 H 0.54627 -0.22770 0.67896
 C17 C 1.26026 0.80565 0.44334
 C18 C 1.26183 0.80294 0.54810
 C19 C 1.22774 0.77321 0.59532
 C20 C 1.19545 0.74149 0.54753
 C21 C 1.19870 0.73908 0.44352
 C22 C 1.22901 0.77262 0.39566
 H23 H 1.22876 0.77256 0.31754
 H24 H 1.22696 0.77406 0.67333
 C25 C 0.80274 0.54269 0.45100
 C26 C 0.80316 0.54202 0.55615
 C27 C 0.76939 0.53835 0.60431
 C28 C 0.73866 0.54177 0.55866
 C29 C 0.73858 0.54232 0.45351
 C30 C 0.77291 0.54753 0.40575
 H31 H 0.77595 0.55451 0.32923
 H32 H 0.76637 0.53146 0.68106
 C33 C 0.45842 0.26143 0.45230
 C34 C 0.45848 0.26075 0.55747
 C35 C 0.45334 0.22592 0.60257
 C36 C 0.45889 0.19695 0.55475
 C37 C 0.45863 0.19739 0.44961
 C38 C 0.46113 0.23096 0.40372
 H39 H 0.46661 0.23410 0.32642
 H40 H 0.44584 0.22173 0.67888
 C41 C 0.73966 0.19766 0.45130
 C42 C 0.74067 0.19762 0.55613
 C43 C 0.77510 0.22722 0.60226
 C44 C 0.80402 0.26190 0.55534
 C45 C 0.80363 0.26173 0.45014
 C46 C 0.77003 0.23100 0.40351
 H47 H 0.76680 0.23379 0.32640
 H48 H 0.77896 0.22359 0.67857
 N49 N 0.95728 0.53964 0.10418
 N50 N 0.92992 0.54932 0.12565
 N51 N 1.04018 0.55639 0.17265
 N52 N 1.06758 0.57504 0.23932
 N53 N 1.04104 0.58134 0.10719
 N54 N 1.06929 0.61788 0.12778
 N55 N 0.95705 0.51468 0.16868
 N56 N 0.92984 0.50669 0.23522
 C57 C 0.91275 0.52804 0.20734
 C58 C 1.08576 0.61329 0.21028
 N59 N 1.04179 0.45947 0.10515
 N60 N 1.07005 0.45096 0.12618
 N61 N 0.95742 0.44125 0.16707
 N62 N 0.93036 0.42119 0.23342
 N63 N 0.95791 0.41730 0.10058
 N64 N 0.93101 0.38010 0.12008
 N65 N 1.04068 0.48322 0.17121
 N66 N 1.06783 0.49154 0.23841
 Mn67 Mn 0.99880 0.49888 0.17040
 C68 C 1.08627 0.47162 0.20947
 C69 C 0.91369 0.38321 0.20261
 N70 N 1.04239 0.58320 -0.10297
 N71 N 1.06822 0.62058 -0.12418
 N72 N 0.95957 0.51767 -0.17319
 N73 N 0.93280 0.51083 -0.24079
 N74 N 0.95883 0.54118 -0.10568
 N75 N 0.93142 0.55086 -0.12546
 N76 N 1.04294 0.55936 -0.16989
 N77 N 1.06899 0.57981 -0.23812
 Mn78 Mn 0.99990 0.56180 0.00072
 C79 C 1.08498 0.61788 -0.20815
 C80 C 0.91512 0.53127 -0.20949
 N81 N 0.95941 0.41887 -0.10932
 N82 N 0.93185 0.38211 -0.13083
 N83 N 1.04318 0.48509 -0.17126
 N84 N 1.06951 0.49118 -0.23921
 N85 N 1.04287 0.46060 -0.10498
 N86 N 1.06907 0.44948 -0.12613
 N87 N 0.95993 0.44372 -0.17476
 N88 N 0.93294 0.42469 -0.24219
 Mn89 Mn 1.00051 0.43861 -0.00219
 Mn90 Mn 1.00144 0.50146 -0.17305
 Cl91 Cl 1.00019 0.50020 -0.00124
 C92 C 0.91534 0.38634 -0.21370
 C93 C 1.08582 0.46928 -0.20938
 N94 N 0.45835 0.41752 0.10425
 N95 N 0.44868 0.38055 0.12474
 N96 N 0.44001 0.48346 0.16674
 N97 N 0.41943 0.48904 0.23459
 N98 N 0.41628 0.45902 0.09975
 N99 N 0.37881 0.44735 0.12058
 N100 N 0.48177 0.44185 0.17177
 N101 N 0.48861 0.42214 0.23985
 C102 C 0.46823 0.38404 0.20911
 C103 C 0.38144 0.46686 0.20428
 N104 N 0.53875 0.58196 0.10433
 N105 N 0.55000 0.61925 0.12594
 N106 N 0.55558 0.51589 0.17467
 N107 N 0.57445 0.50794 0.24265
 N108 N 0.58061 0.54009 0.10959
 N109 N 0.61737 0.54923 0.13185
 N110 N 0.51408 0.55788 0.17025
 N111 N 0.50805 0.57818 0.23842
 Mn112 Mn 0.49783 0.49978 0.17158
 C113 C 0.53011 0.61637 0.20914
 C114 C 0.61290 0.52857 0.21484
 N115 N 0.41814 0.45926 -0.11048
 N116 N 0.38152 0.45091 -0.13207
 N117 N 0.48527 0.44188 -0.17006
 N118 N 0.49346 0.42259 -0.23609
 N119 N 0.46021 0.41733 -0.10566
 N120 N 0.45068 0.38038 -0.12654
 N121 N 0.44324 0.48323 -0.17569
 N122 N 0.42459 0.49179 -0.24314
 Mn123 Mn 0.43779 0.43784 -0.00306
 C124 C 0.38614 0.47176 -0.21496
 C125 C 0.47212 0.38433 -0.20783
 N126 N 0.58256 0.53982 -0.10024
 N127 N 0.61989 0.55011 -0.11904
 N128 N 0.51663 0.55651 -0.17219
 N129 N 0.50800 0.57519 -0.23893
 N130 N 0.54017 0.58129 -0.10572
 N131 N 0.54823 0.61785 -0.12590
 N132 N 0.55882 0.51547 -0.16719
 N133 N 0.57920 0.50859 -0.23315
 Mn134 Mn 0.56097 0.56125 0.00196
 Mn135 Mn 0.50102 0.49927 -0.17182
 Cl136 Cl 0.49938 0.49954 -0.00014
 C137 C 0.61713 0.52982 -0.20159
 C138 C 0.52755 0.61332 -0.20914
 N139 N 0.41742 -0.04090 0.10186
 N140 N 0.38013 -0.06730 0.12237
 N141 N 0.48351 0.04295 0.16631
 N142 N 0.49037 0.07004 0.23253
 N143 N 0.45936 0.04265 0.09898
 N144 N 0.44915 0.06977 0.11794
 N145 N 0.44136 -0.04030 0.17019
 N146 N 0.42103 -0.06620 0.23887
 C147 C 0.38295 -0.08319 0.20766
 C148 C 0.46931 0.08695 0.20096
 N149 N 0.58199 0.04224 0.10626
 N150 N 0.61906 0.06917 0.12707
 N151 N 0.51537 -0.04043 0.17411
 N152 N 0.50644 -0.06774 0.24096
 N153 N 0.53982 -0.04134 0.10965
 N154 N 0.54808 -0.06962 0.13120
 N155 N 0.55753 0.04272 0.17138
 N156 N 0.57730 0.06981 0.23829
 Mn157 Mn 0.49947 0.00125 0.17122
 C158 C 0.61556 0.08653 0.20897
 C159 C 0.52670 -0.08598 0.21316
 N160 N 0.46043 0.04126 -0.11087
 N161 N 0.45120 0.06880 -0.13308
 N162 N 0.44385 -0.04244 -0.17217
 N163 N 0.42511 -0.06993 -0.23836
 N164 N 0.41884 -0.04233 -0.10824
 N165 N 0.38211 -0.07008 -0.12965
 N166 N 0.48497 0.04062 -0.17540
 N167 N 0.49303 0.06752 -0.24310
 Mn168 Mn 0.43854 0.00015 -0.00466
 C169 C 0.47211 0.08518 -0.21553
 C170 C 0.38671 -0.08726 -0.21079
 N171 N 0.54141 -0.04257 -0.10063
 N172 N 0.55286 -0.06862 -0.12129
 N173 N 0.55864 0.04044 -0.17041
 N174 N 0.57794 0.06751 -0.23700
 N175 N 0.58305 0.04101 -0.10358
 N176 N 0.61997 0.06877 -0.12343
 N177 N 0.51754 -0.04268 -0.16846
 N178 N 0.51213 -0.06868 -0.23678
 Mn179 Mn 0.56202 -0.00019 0.00309
 Mn180 Mn 0.50123 -0.00102 -0.17215
 Cl181 Cl 0.50031 0.00002 -0.00055
 C182 C 0.53383 -0.08507 -0.20597
 C183 C 0.61608 0.08528 -0.20674
 C184 C 1.17001 0.46494 0.38233
 C185 C 1.15511 0.49237 0.42054
 C186 C 1.12694 0.49357 0.36471
 C187 C 1.11756 0.46948 0.27008
 C188 C 1.15830 0.48553 0.22160
 C189 C 1.18599 0.48387 0.28032
 C190 C 1.13325 0.42486 0.35691
 C191 C 1.10571 0.42728 0.30108
 H192 H 1.17061 0.51520 0.47413
 H193 H 1.11767 0.51524 0.37881
 H194 H 1.16567 0.49987 0.15101
 H195 H 1.21700 0.49858 0.25905
 H196 H 1.12971 0.39647 0.37919
 H197 H 1.07876 0.40115 0.27684
 C198 C 0.54343 0.70875 0.38414
 C199 C 0.56274 0.68506 0.42253
 C200 C 0.55725 0.65422 0.36523
 C201 C 0.53553 0.65102 0.26980
 C202 C 0.49623 0.64816 0.29862
 C203 C 0.50033 0.67829 0.35617
 C204 C 0.56457 0.72263 0.28385
 C205 C 0.55989 0.69243 0.22394
 H206 H 0.58610 0.69619 0.47593
 H207 H 0.57314 0.63824 0.37839
 H208 H 0.46748 0.62520 0.27242
 H209 H 0.47486 0.68090 0.37819
 H210 H 0.58453 0.75336 0.26444
 H211 H 0.57451 0.69785 0.15391
 C212 C 0.29095 -0.16379 0.38022
 C213 C 0.31413 -0.12114 0.42023
 C214 C 0.34480 -0.09524 0.36356
 C215 C 0.34835 -0.11294 0.26725
 C216 C 0.35188 -0.14915 0.29435
 C217 C 0.32190 -0.17571 0.35113
 C218 C 0.27680 -0.15619 0.28049
 C219 C 0.30685 -0.13011 0.22125
 H220 H 0.30260 -0.10952 0.47415
 H221 H 0.36030 -0.06355 0.37783
 H222 H 0.37513 -0.15441 0.26741
 H223 H 0.31969 -0.20373 0.37167
 H224 H 0.24593 -0.16731 0.26103
 H225 H 0.30123 -0.12068 0.15169
 C226 C 0.83117 0.53725 0.38133
 C227 C 0.81500 0.52009 0.27830
 C228 C 0.84199 0.51749 0.21915
 C229 C 0.88232 0.53129 0.26829
 C230 C 0.89590 0.57360 0.30237
 C231 C 0.86896 0.57678 0.35881
 C232 C 0.84440 0.50827 0.41752
 C233 C 0.87178 0.50612 0.36113
 H234 H 0.78434 0.50787 0.25573
 H235 H 0.83448 0.50452 0.14700
 H236 H 0.92338 0.59931 0.27915
 H237 H 0.87336 0.60538 0.38223
 H238 H 0.82806 0.48520 0.46979
 H239 H 0.87969 0.48334 0.37357
 C240 C 0.45855 0.29367 0.38476
 C241 C 0.43798 0.31622 0.42241
 C242 C 0.44216 0.34630 0.36441
 C243 C 0.46422 0.35004 0.26951
 C244 C 0.50425 0.35468 0.29922
 C245 C 0.50128 0.32517 0.35741
 C246 C 0.43788 0.27890 0.28434
 C247 C 0.44126 0.30842 0.22390
 H248 H 0.41452 0.30451 0.47519
 H249 H 0.42517 0.36120 0.37677
 H250 H 0.53260 0.37814 0.27261
 H251 H 0.52725 0.32341 0.37920
 H252 H 0.41996 0.24787 0.26444
 H253 H 0.42724 0.30238 0.15288
 C254 C 0.70698 0.16613 0.38398
 C255 C 0.68479 0.12299 0.42048
 C256 C 0.65427 0.09742 0.36294
 C257 C 0.64978 0.11615 0.26949
 C258 C 0.64523 0.15129 0.30184
 C259 C 0.67515 0.17745 0.35978
 C260 C 0.72108 0.16078 0.28223
 C261 C 0.69114 0.13502 0.22224
 H262 H 0.69690 0.11116 0.47225
 H263 H 0.63940 0.06557 0.37447
 H264 H 0.62142 0.15622 0.27751
 H265 H 0.67688 0.20488 0.38387
 H266 H 0.75200 0.17394 0.26099
 H267 H 0.69673 0.12747 0.15028
 C268 C 0.46401 0.16902 -0.38313
 C269 C 0.42422 0.13135 -0.36161
 C270 C 0.42715 0.10365 -0.30777
 C271 C 0.46948 0.11627 -0.27509
 C272 C 0.49436 0.12731 -0.36839
 C273 C 0.49259 0.15561 -0.42220
 C274 C 0.48182 0.18396 -0.27976
 C275 C 0.48405 0.15614 -0.22332
 H276 H 0.39567 0.12732 -0.38467
 H277 H 0.40127 0.07601 -0.28612
 H278 H 0.51675 0.11899 -0.38259
 H279 H 0.51575 0.17234 -0.47402
 H280 H 0.49490 0.21445 -0.25536
 H281 H 0.49751 0.16283 -0.15160
 C282 C 0.70821 0.54105 -0.37658
 C283 C 0.68618 0.56241 -0.41236
 C284 C 0.65583 0.55768 -0.35460
 C285 C 0.65153 0.53450 -0.26125
 C286 C 0.64681 0.49477 -0.29360
 C287 C 0.67646 0.49816 -0.35180
 C288 C 0.72272 0.56067 -0.27472
 C289 C 0.69295 0.55675 -0.21426
 H290 H 0.69854 0.58663 -0.46315
 H291 H 0.64125 0.57507 -0.36540
 H292 H 0.62308 0.46622 -0.26885
 H293 H 0.67799 0.47232 -0.37578
 H294 H 0.75371 0.57836 -0.25383
 H295 H 0.69872 0.57002 -0.14242
 C296 C 0.83175 0.29465 -0.38181
 C297 C 0.84465 0.33652 -0.42007
 C298 C 0.87284 0.36647 -0.36598
 C299 C 0.88428 0.35261 -0.27313
 C300 C 0.84449 0.32700 -0.22139
 C301 C 0.81677 0.29704 -0.27816
 C302 C 0.86973 0.29281 -0.36079
 C303 C 0.89732 0.32332 -0.30660
 H304 H 0.82765 0.34287 -0.47156
 H305 H 0.88078 0.39705 -0.37961
 H306 H 0.83778 0.33345 -0.14939
 H307 H 0.78630 0.27937 -0.25375
 H308 H 0.87404 0.26856 -0.38443
 H309 H 0.92515 0.32525 -0.28519
 C310 C 0.54579 -0.16474 -0.38145
 C311 C 0.50299 -0.17699 -0.35132
 C312 C 0.49948 -0.15075 -0.29336
 C313 C 0.53906 -0.11446 -0.26629
 C314 C 0.56379 -0.13146 -0.22174
 C315 C 0.56789 -0.15723 -0.28215
 C316 C 0.56480 -0.12202 -0.42055
 C317 C 0.55992 -0.09640 -0.36271
 H318 H 0.47729 -0.20497 -0.37230
 H319 H 0.47098 -0.15627 -0.26569
 H320 H 0.57916 -0.12196 -0.15256
 H321 H 0.58815 -0.16792 -0.26405
 H322 H 0.58764 -0.11017 -0.47510
 H323 H 0.57576 -0.06468 -0.37640
 C324 C 0.29488 0.46588 -0.38303
 C325 C 0.29127 0.42564 -0.35769
 C326 C 0.32158 0.42783 -0.30375
 C327 C 0.35264 0.47001 -0.27456
 C328 C 0.36659 0.49349 -0.37006
 C329 C 0.33682 0.49247 -0.42412
 C330 C 0.29926 0.48553 -0.28128
 C331 C 0.32897 0.48695 -0.22457
 H332 H 0.26614 0.39734 -0.37920
 H333 H 0.32236 0.40156 -0.28018
 H334 H 0.39747 0.51440 -0.38640
 H335 H 0.34373 0.51470 -0.47912
 H336 H 0.28404 0.50128 -0.25919
 H337 H 0.33706 0.50195 -0.15476
 C338 C 1.16357 0.70932 -0.38455
 C339 C 1.17651 0.67929 -0.35442
 C340 C 1.15065 0.64954 -0.29606
 C341 C 1.11401 0.65237 -0.26896
 C342 C 1.13062 0.69404 -0.22487
 C343 C 1.15610 0.72385 -0.28550
 C344 C 1.12086 0.68506 -0.42374
 C345 C 1.09559 0.65471 -0.36545
 H346 H 1.20472 0.68201 -0.37546
 H347 H 1.15668 0.62693 -0.26817
 H348 H 1.12129 0.69987 -0.15545
 H349 H 1.16685 0.75473 -0.26747
 H350 H 1.10876 0.69534 -0.47953
 H351 H 1.06384 0.63829 -0.37941
 C352 C 0.83363 0.54149 -0.38125
 C353 C 0.82298 0.49867 -0.35632
 C354 C 0.84983 0.49551 -0.29956
 C355 C 0.88490 0.53539 -0.26871
 C356 C 0.90285 0.55829 -0.36280
 C357 C 0.87664 0.56280 -0.41916
 C358 C 0.83958 0.56140 -0.27963
 C359 C 0.86595 0.55769 -0.22063
 H360 H 0.79551 0.47272 -0.37900
 H361 H 0.84545 0.46707 -0.27488
 H362 H 0.93466 0.57579 -0.37493
 H363 H 0.88800 0.58708 -0.46967
 H364 H 0.82642 0.57916 -0.25792
 H365 H 0.87399 0.57122 -0.14912
 C366 C 0.46351 0.29302 -0.37808
 C367 C 0.48078 0.29475 -0.27448
 C368 C 0.48312 0.32453 -0.21672
 C369 C 0.46915 0.35058 -0.26760
 C370 C 0.49446 0.36469 -0.36027
 C371 C 0.49256 0.33493 -0.41525
 C372 C 0.42382 0.29133 -0.35665
 C373 C 0.42686 0.32169 -0.30157
 H374 H 0.49348 0.27685 -0.25074
 H375 H 0.49624 0.33058 -0.14464
 H376 H 0.51725 0.39524 -0.37322
 H377 H 0.51586 0.34130 -0.46677
 H378 H 0.39525 0.26725 -0.38057
 H379 H 0.40105 0.32369 -0.27966
 C380 C 0.70692 0.16859 -0.37580
 C381 C 0.66491 0.15590 -0.41236
 C382 C 0.63532 0.12794 -0.35754
 C383 C 0.64976 0.11632 -0.26585
 C384 C 0.67863 0.10308 -0.30152
 C385 C 0.70878 0.13058 -0.35658
 C386 C 0.70561 0.18358 -0.27156
 C387 C 0.67595 0.15598 -0.21404
 H388 H 0.65839 0.17270 -0.46398
 H389 H 0.60465 0.12012 -0.37016
 H390 H 0.67679 0.07526 -0.28081
 H391 H 0.73288 0.12630 -0.38173
 H392 H 0.72385 0.21392 -0.24696
 H393 H 0.67022 0.16264 -0.14123
 C394 C 1.16450 0.45607 -0.38425
 C395 C 1.15706 0.43437 -0.28464
 C396 C 1.13165 0.43904 -0.22444
 C397 C 1.11485 0.46383 -0.26972
 C398 C 1.15123 0.50311 -0.29741
 C399 C 1.17719 0.49906 -0.35512
 C400 C 1.12160 0.43711 -0.42297
 C401 C 1.09634 0.44262 -0.36550
 H402 H 1.16768 0.41411 -0.26608
 H403 H 1.12230 0.42409 -0.15484
 H404 H 1.15705 0.53174 -0.27026
 H405 H 1.20531 0.52450 -0.37638
 H406 H 1.10925 0.41367 -0.47595
 H407 H 1.06451 0.42680 -0.37854
 C408 C 0.53422 0.70341 -0.37978
 C409 C 0.57436 0.70671 -0.35441
 C410 C 0.57192 0.67676 -0.29906
 C411 C 0.52960 0.64651 -0.26903
 C412 C 0.51330 0.67093 -0.22013
 C413 C 0.51507 0.70035 -0.27826
 C414 C 0.50712 0.66144 -0.41949
 C415 C 0.50575 0.63201 -0.36409
 H416 H 0.60275 0.73159 -0.37621
 H417 H 0.59807 0.67587 -0.27466
 H418 H 0.49881 0.66380 -0.14972
 H419 H 0.50037 0.71669 -0.25698
 H420 H 0.48466 0.65439 -0.47403
 H421 H 0.48424 0.60118 -0.37908
 C422 C 0.29635 -0.16897 -0.38387
 C423 C 0.29933 -0.18571 -0.28316
 C424 C 0.32883 -0.15861 -0.22429
 C425 C 0.35342 -0.11773 -0.27174
 C426 C 0.36787 -0.12659 -0.36747
 C427 C 0.33835 -0.15410 -0.42365
 C428 C 0.29316 -0.13228 -0.35676
 C429 C 0.32323 -0.10526 -0.30076
 H430 H 0.28276 -0.21677 -0.26288
 H431 H 0.33587 -0.16644 -0.15425
 H432 H 0.39871 -0.11734 -0.38267
 H433 H 0.34535 -0.16924 -0.47896
 H434 H 0.26825 -0.12852 -0.37769
 H435 H 0.32419 -0.07839 -0.27509
 C436 C 0.53357 -0.16959 0.38327
 C437 C 0.51333 -0.18569 0.28270
 C438 C 0.51148 -0.15797 0.22502
 C439 C 0.52877 -0.11710 0.27336
 C440 C 0.50591 -0.12564 0.36961
 C441 C 0.50735 -0.15380 0.42467
 C442 C 0.57370 -0.13343 0.35605
 C443 C 0.57121 -0.10579 0.30124
 H444 H 0.49785 -0.21674 0.26199
 H445 H 0.49621 -0.16534 0.15549
 H446 H 0.48508 -0.11550 0.38606
 H447 H 0.48548 -0.16852 0.48066
 H448 H 0.60212 -0.13043 0.37631
 H449 H 0.59736 -0.07916 0.27585
 C450 C 0.29060 0.45383 0.38190
 C451 C 0.27565 0.43120 0.28368
 C452 C 0.30527 0.43556 0.22222
 C453 C 0.34709 0.46119 0.26512
 C454 C 0.34957 0.50050 0.29125
 C455 C 0.32002 0.49662 0.35028
 C456 C 0.31547 0.43595 0.42086
 C457 C 0.34566 0.44108 0.36187
 H458 H 0.24472 0.41054 0.26710
 H459 H 0.29927 0.41996 0.15340
 H460 H 0.37175 0.52899 0.26219
 H461 H 0.31702 0.52198 0.37085
 H462 H 0.30568 0.41375 0.47678
 H463 H 0.36244 0.42604 0.37545
 C464 C 1.16991 0.70432 0.37737
 C465 C 1.13304 0.70761 0.35255
 C466 C 1.10524 0.67728 0.29863
 C467 C 1.11707 0.64667 0.26940
 C468 C 1.15748 0.67064 0.21917
 C469 C 1.18541 0.70046 0.27581
 C470 C 1.15519 0.66263 0.41889
 C471 C 1.12687 0.63279 0.36480
 H472 H 1.12959 0.73261 0.37405
 H473 H 1.07804 0.67624 0.27501
 H474 H 1.16447 0.66288 0.14904
 H475 H 1.21628 0.71638 0.25354
 H476 H 1.17065 0.65605 0.47438
 H477 H 1.11734 0.60202 0.38126
 C478 C 0.45880 0.16612 0.37958
 C479 C 0.43837 0.16123 0.27904
 C480 C 0.44188 0.13554 0.21702
 C481 C 0.46474 0.11647 0.26149
 C482 C 0.50470 0.15143 0.29259
 C483 C 0.50157 0.17743 0.35230
 C484 C 0.43809 0.12287 0.41505
 C485 C 0.44241 0.09747 0.35559
 H486 H 0.42055 0.17466 0.26016
 H487 H 0.42809 0.12819 0.14571
 H488 H 0.53313 0.15647 0.26574
 H489 H 0.52748 0.20484 0.37538
 H490 H 0.41465 0.11091 0.46792
 H491 H 0.42542 0.06558 0.36644
 C492 C 0.70405 0.53687 0.38607
 C493 C 0.70215 0.51934 0.28309
 C494 C 0.67234 0.51698 0.22515
 C495 C 0.64647 0.53134 0.27535
 C496 C 0.63226 0.50642 0.36852
 C497 C 0.66203 0.50830 0.42381
 C498 C 0.70596 0.57657 0.36387
 C499 C 0.67563 0.57361 0.30856
 H500 H 0.72015 0.50670 0.25986
 H501 H 0.66625 0.50375 0.15322
 H502 H 0.60159 0.48399 0.38187
 H503 H 0.65545 0.48528 0.47616
 H504 H 0.73033 0.60508 0.38693
 H505 H 0.67389 0.59945 0.28585
 C506 C 0.83488 0.29342 0.38079
 C507 C 0.87819 0.31606 0.41652
 C508 C 0.90346 0.34586 0.35736
 C509 C 0.88432 0.34920 0.26327
 C510 C 0.86549 0.30745 0.21844
 C511 C 0.83992 0.27818 0.28014
 C512 C 0.82324 0.32472 0.35385
 C513 C 0.84914 0.35394 0.29442
 H514 H 0.89034 0.30462 0.46922
 H515 H 0.93540 0.36085 0.36836
 H516 H 0.87287 0.30118 0.14702
 H517 H 0.82663 0.24706 0.26089
 H518 H 0.79570 0.32304 0.37694
 H519 H 0.84389 0.37724 0.26785
   
