data_POSCAR
  _audit_creation_date              2014-09-24
  _audit_creation_method            'ToBaCCo'
  _symmetry_space_group_name_H-M    'P1'
  _symmetry_Int_Tables_number       1
  _symmetry_cell_setting            triclinic
  loop_
  _symmetry_equiv_pos_as_xyz
 x,y,z
_cell_length_a 16.7913
_cell_length_b 13.7076
_cell_length_c 19.3471
_cell_angle_alpha 90.000000
_cell_angle_beta 90.000000
_cell_angle_gamma 90.000000
loop_
  _atom_site_label
  _atom_site_type_symbol
  _atom_site_fract_x
  _atom_site_fract_y
  _atom_site_fract_z
N1 N 0.63867 0.55227 0.59043
 N2 N 0.86133 0.44773 0.09043
 N3 N 0.36133 0.05227 -0.09043
 N4 N 0.13867 0.94773 0.40957
 N5 N 0.02597 0.27849 0.08854
 N6 N 0.02261 0.30081 0.15461
 C7 C -0.03492 0.36738 0.16491
 C8 C -0.07009 0.38682 0.10179
 C9 C -0.03068 0.32865 0.05431
 H10 H -0.05241 0.39568 0.21484
 H11 H -0.04228 0.32223 -0.00044
 Cu12 Cu 0.08652 0.23202 0.22203
 Cu13 Cu 0.10273 0.18388 0.05317
 Cu14 Cu 0.24594 0.10625 0.17037
 N15 N 0.13456 0.13348 0.28074
 N16 N 0.19837 0.08492 0.26137
 C17 C 0.21462 0.01568 0.30881
 C18 C 0.15770 0.02202 0.36024
 C19 C 0.10730 0.09641 0.34054
 H20 H 0.25949 -0.04030 0.30299
 H21 H 0.05190 0.11703 0.36506
 N22 N 0.26022 0.09652 0.06993
 N23 N 0.20414 0.12170 0.02535
 C24 C 0.23132 0.10675 -0.03931
 C25 C 0.30780 0.07090 -0.03438
 C26 C 0.32478 0.06519 0.03518
 H27 H 0.19945 0.12498 -0.08611
 H28 H 0.37983 0.04119 0.05867
 H29 H 0.13096 0.10608 0.14178
 H30 H 0.18192 0.22531 0.12726
 N31 N 0.47402 0.72151 0.58854
 N32 N 0.47739 0.69919 0.65461
 C33 C 0.53492 0.63262 0.66491
 C34 C 0.57009 0.61318 0.60179
 C35 C 0.53068 0.67135 0.55431
 H36 H 0.55241 0.60432 0.71484
 H37 H 0.54228 0.67777 0.49956
 Cu38 Cu 0.41348 0.76798 0.72203
 Cu39 Cu 0.39727 0.81612 0.55317
 Cu40 Cu 0.25406 0.89375 0.67037
 N41 N 0.36544 0.86652 0.78074
 N42 N 0.30163 0.91508 0.76137
 C43 C 0.28538 0.98432 0.80881
 C44 C 0.34230 0.97798 0.86024
 C45 C 0.39270 0.90359 0.84054
 H46 H 0.24051 1.04030 0.80299
 H47 H 0.44810 0.88297 0.86506
 N48 N 0.23978 0.90348 0.56993
 N49 N 0.29586 0.87830 0.52535
 C50 C 0.26869 0.89325 0.46069
 C51 C 0.19220 0.92910 0.46562
 C52 C 0.17522 0.93481 0.53518
 H53 H 0.30055 0.87502 0.41389
 H54 H 0.12017 0.95881 0.55867
 H55 H 0.36904 0.89392 0.64178
 H56 H 0.31808 0.77469 0.62726
 N57 N 0.97403 0.77849 0.41146
 N58 N 0.97739 0.80080 0.34539
 C59 C 1.03492 0.86738 0.33509
 C60 C 1.07009 0.88682 0.39821
 C61 C 1.03068 0.82865 0.44569
 H62 H 1.05241 0.89568 0.28516
 H63 H 1.04228 0.82223 0.50044
 Cu64 Cu 0.91348 0.73202 0.27797
 Cu65 Cu 0.89727 0.68388 0.44683
 Cu66 Cu 0.75406 0.60625 0.32963
 N67 N 0.86544 0.63348 0.21926
 N68 N 0.80163 0.58492 0.23863
 C69 C 0.78538 0.51568 0.19119
 C70 C 0.84230 0.52202 0.13976
 C71 C 0.89270 0.59641 0.15946
 H72 H 0.74051 0.45970 0.19701
 H73 H 0.94810 0.61703 0.13493
 N74 N 0.73978 0.59652 0.43007
 N75 N 0.79586 0.62170 0.47465
 C76 C 0.76869 0.60675 0.53931
 C77 C 0.69220 0.57090 0.53438
 C78 C 0.67522 0.56519 0.46482
 H79 H 0.80055 0.62498 0.58611
 H80 H 0.62017 0.54119 0.44133
 H81 H 0.86904 0.60608 0.35822
 H82 H 0.81808 0.72531 0.37274
 N83 N 0.52598 0.22151 -0.08854
 N84 N 0.52261 0.19919 -0.15461
 C85 C 0.46508 0.13262 -0.16491
 C86 C 0.42991 0.11318 -0.10179
 C87 C 0.46932 0.17135 -0.05431
 H88 H 0.44759 0.10432 -0.21484
 H89 H 0.45772 0.17777 0.00044
 Cu90 Cu 0.58653 0.26798 -0.22203
 Cu91 Cu 0.60273 0.31612 -0.05317
 Cu92 Cu 0.74594 0.39375 -0.17037
 N93 N 0.63456 0.36652 -0.28074
 N94 N 0.69837 0.41508 -0.26137
 C95 C 0.71462 0.48432 -0.30881
 C96 C 0.65770 0.47798 -0.36024
 C97 C 0.60730 0.40359 -0.34054
 H98 H 0.75949 0.54030 -0.30299
 H99 H 0.55191 0.38297 -0.36506
 N100 N 0.76022 0.40348 -0.06993
 N101 N 0.70414 0.37829 -0.02535
 C102 C 0.73132 0.39325 0.03931
 C103 C 0.80780 0.42910 0.03438
 C104 C 0.82478 0.43481 -0.03518
 H105 H 0.69945 0.37502 0.08611
 H106 H 0.87983 0.45881 -0.05867
 H107 H 0.63096 0.39392 -0.14178
 H108 H 0.68192 0.27469 -0.12726
   
