data_POSCAR
  _audit_creation_date              2014-09-24
  _audit_creation_method            'ToBaCCo'
  _symmetry_space_group_name_H-M    'P1'
  _symmetry_Int_Tables_number       1
  _symmetry_cell_setting            triclinic
  loop_
  _symmetry_equiv_pos_as_xyz
 x,y,z
_cell_length_a 22.5120
_cell_length_b 22.5519
_cell_length_c 30.2224
_cell_angle_alpha 89.990500
_cell_angle_beta 90.040500
_cell_angle_gamma 120.164800
loop_
  _atom_site_label
  _atom_site_type_symbol
  _atom_site_fract_x
  _atom_site_fract_y
  _atom_site_fract_z
C1 C -0.03727 0.46183 1.20973
 C2 C 0.03225 0.51513 1.20974
 C3 C 0.06611 0.54173 1.25004
 C4 C 0.03442 0.51432 1.29106
 C5 C -0.03570 0.46100 1.29145
 C6 C -0.06867 0.43308 1.25067
 H7 H -0.12237 0.39344 1.25089
 H8 H 0.12008 0.58074 1.24902
 C9 C 0.53701 0.50164 1.20961
 C10 C 0.48798 0.52296 1.21021
 C11 C 0.46344 0.53140 1.25090
 C12 C 0.48737 0.52014 1.29112
 C13 C 0.53640 0.49813 1.29092
 C14 C 0.56220 0.49173 1.24975
 H15 H 0.59844 0.47342 1.24847
 H16 H 0.42727 0.54987 1.25133
 C17 C 0.48031 0.96769 1.29066
 C18 C 0.49931 1.03789 1.29104
 C19 C 0.50467 1.07059 1.25020
 C20 C 0.49934 1.03796 1.20935
 C21 C 0.48023 0.96774 1.20967
 C22 C 0.47167 0.93404 1.25015
 H23 H 0.45461 0.87967 1.25013
 H24 H 0.52035 1.12456 1.25021
 C25 C 0.96460 0.47635 0.71022
 C26 C 1.03540 0.49900 0.70963
 C27 C 1.07069 0.50937 0.74979
 C28 C 1.03817 0.50213 0.79098
 C29 C 0.96668 0.47881 0.79116
 C30 C 0.93133 0.46710 0.75092
 H31 H 0.87640 0.44775 0.75132
 H32 H 1.12553 0.52859 0.74853
 C33 C 0.49972 0.53527 0.79071
 C34 C 0.52405 0.48854 0.79067
 C35 C 0.53537 0.46534 0.75023
 C36 C 0.52438 0.48870 0.70975
 C37 C 0.50000 0.53539 0.70967
 C38 C 0.48921 0.55907 0.75017
 H39 H 0.46867 0.59348 0.75012
 H40 H 0.55535 0.43045 0.75028
 C41 C 0.46355 -0.03839 0.79087
 C42 C 0.51208 0.03298 0.79105
 C43 C 0.53563 0.06816 0.75078
 C44 C 0.51120 0.03488 0.71009
 C45 C 0.46263 -0.03578 0.70950
 C46 C 0.43780 -0.07091 0.74969
 H47 H 0.40191 -0.12564 0.74845
 H48 H 0.57147 0.12298 0.75117
 O49 O 0.43445 0.67753 0.94876
 O50 O 0.43258 0.79036 0.96459
 C51 C 0.38730 0.79261 0.94041
 O52 O 0.32360 0.75706 0.94807
 O53 O 0.21022 0.64284 0.96459
 C54 C 0.20760 0.59509 0.94061
 O55 O 0.24300 0.56706 0.94843
 O56 O 0.35739 0.56875 0.96458
 C57 C 0.40628 0.61394 0.94106
 O58 O 0.43933 0.65485 1.03648
 O59 O 0.42997 0.76345 1.05219
 C60 C 0.39707 0.79419 1.05975
 O61 O 0.34672 0.78616 1.03590
 O62 O 0.23756 0.66817 1.05200
 C63 C 0.20664 0.60451 1.05991
 O64 O 0.21473 0.56195 1.03647
 O65 O 0.33293 0.57121 1.05224
 C66 C 0.39676 0.60425 1.06003
 Cr67 Cr 0.43086 0.71980 1.00050
 Cr68 Cr 0.28132 0.71217 1.00014
 Cr69 Cr 0.28841 0.57039 1.00044
 O70 O 0.33354 0.66741 1.00052
 O71 O 0.57121 0.33375 0.94868
 O72 O 0.56019 0.21504 0.96442
 C73 C 0.60240 0.20643 0.94094
 O74 O 0.66618 0.23675 0.94880
 O75 O 0.78518 0.34469 0.96497
 C76 C 0.79389 0.39535 0.94132
 O77 O 0.76367 0.42869 0.94899
 O78 O 0.65580 0.43959 0.96451
 C79 C 0.60480 0.39746 0.94099
 O80 O 0.56898 0.35834 1.03623
 O81 O 0.56565 0.24334 1.05232
 C82 C 0.59288 0.20720 1.06002
 O83 O 0.64067 0.20942 1.03618
 O84 O 0.75605 0.32162 1.05277
 C85 C 0.79226 0.38513 1.06056
 O86 O 0.79032 0.43073 1.03661
 O87 O 0.67821 0.43430 1.05219
 C88 C 0.61457 0.40705 1.05967
 Cr89 Cr 0.56968 0.28900 1.00042
 Cr90 Cr 0.71064 0.27993 1.00069
 Cr91 Cr 0.72024 0.43011 1.00058
 O92 O 0.66682 0.33303 1.00047
 O93 O 0.65491 0.43962 0.53512
 O94 O 0.76319 0.42934 0.55113
 C95 C 0.79338 0.39597 0.55902
 O96 O 0.78504 0.34546 0.53532
 O97 O 0.66623 0.23747 0.55179
 C98 C 0.60243 0.20693 0.55955
 O99 O 0.56011 0.21498 0.53579
 O100 O 0.57125 0.33374 0.55175
 C101 C 0.60457 0.39756 0.55912
 O102 O 0.67739 0.43304 0.44728
 O103 O 0.78994 0.43077 0.46354
 C104 C 0.79207 0.38517 0.43971
 O105 O 0.75579 0.32168 0.44756
 O106 O 0.64037 0.20950 0.46436
 C107 C 0.59255 0.20721 0.44042
 O108 O 0.56527 0.24335 0.44802
 O109 O 0.56833 0.35838 0.46432
 C110 C 0.61367 0.40557 0.43995
 Cr111 Cr 0.71962 0.43008 0.49928
 Cr112 Cr 0.71048 0.28027 0.49975
 Cr113 Cr 0.56937 0.28899 0.49996
 O114 O 0.66651 0.33312 0.49979
 O115 O 0.35722 0.56794 0.53581
 O116 O 0.24199 0.56509 0.55109
 C117 C 0.20612 0.59269 0.55859
 O118 O 0.20943 0.64113 0.53489
 O119 O 0.32181 0.75680 0.55077
 C120 C 0.38541 0.79259 0.55887
 O121 O 0.43110 0.78907 0.53589
 O122 O 0.43389 0.67686 0.55158
 C123 C 0.40601 0.61332 0.55929
 O124 O 0.33336 0.57013 0.44817
 O125 O 0.21445 0.55957 0.46339
 C126 C 0.20701 0.60182 0.43929
 O127 O 0.23738 0.66546 0.44706
 O128 O 0.34510 0.78414 0.46313
 C129 C 0.39633 0.79308 0.44001
 O130 O 0.42970 0.76298 0.44812
 O131 O 0.43945 0.65467 0.46381
 C132 C 0.39716 0.60357 0.44047
 Cr133 Cr 0.28827 0.56897 0.49961
 Cr134 Cr 0.28013 0.71034 0.49899
 Cr135 Cr 0.43027 0.71912 0.49985
 O136 O 0.33295 0.66620 0.49958
 N137 N 0.39672 0.51391 0.33907
 C138 C 0.46459 0.53875 0.33187
 N139 N 0.51093 0.58535 0.36071
 N140 N 0.48996 0.60606 0.39566
 C141 C 0.42189 0.58081 0.40290
 N142 N 0.37580 0.53419 0.37408
 N143 N 0.48585 0.88236 0.33829
 C144 C 0.46111 0.92532 0.33114
 N145 N 0.41462 0.92484 0.36007
 N146 N 0.39395 0.88311 0.39503
 C147 C 0.41915 0.84046 0.40227
 N148 N 0.46560 0.84109 0.37335
 N149 N 0.13298 0.59965 0.33079
 C150 C 0.07616 0.53621 0.32933
 N151 N 0.06367 0.49329 0.36426
 N152 N 0.10549 0.51333 0.39926
 C153 C 0.16129 0.57732 0.40075
 N154 N 0.17410 0.62005 0.36595
 N155 N 0.61523 0.47430 0.32981
 C156 C 0.55660 0.47763 0.32959
 N157 N 0.51624 0.45632 0.36638
 N158 N 0.53364 0.43271 0.40161
 C159 C 0.59262 0.43023 0.40156
 N160 N 0.63326 0.45191 0.36519
 N161 N 0.51978 0.13852 0.33116
 C162 C 0.51897 0.07787 0.33006
 N163 N 0.54292 0.06001 0.36609
 N164 N 0.56680 0.10097 0.40137
 C165 C 0.56695 0.16119 0.40215
 N166 N 0.54247 0.17886 0.36659
 N167 N 0.86535 0.37860 0.33253
 C168 C 0.92340 0.44107 0.33014
 N169 N 0.93737 0.48579 0.36420
 N170 N 0.89575 0.46859 0.39915
 C171 C 0.83853 0.40569 0.40151
 N172 N 0.82432 0.36101 0.36766
 N173 N 0.50958 0.44041 1.13828
 C174 C 0.55758 0.48198 1.16828
 N175 N 0.62395 0.49913 1.16195
 N176 N 0.64179 0.47603 1.12684
 C177 C 0.59386 0.43404 1.09707
 N178 N 0.52737 0.41679 1.10327
 N179 N 0.93911 0.48381 1.13527
 C180 C 0.92209 0.44131 1.17090
 N181 N 0.86187 0.38064 1.16956
 N182 N 0.82129 0.36286 1.13416
 C183 C 0.83826 0.40565 1.09894
 N184 N 0.89795 0.46656 1.10007
 N185 N 0.54324 0.06015 1.13443
 C186 C 0.51916 0.07800 1.17037
 N187 N 0.51996 0.13864 1.16922
 N188 N 0.54271 0.17895 1.13379
 C189 C 0.56727 0.16127 1.09831
 N190 N 0.56717 0.10109 1.09916
 N191 N 0.51018 0.58287 1.13852
 C192 C 0.46447 0.54107 1.16948
 N193 N 0.39699 0.52020 1.16401
 N194 N 0.37583 0.53981 1.12874
 C195 C 0.42138 0.58189 1.09792
 N196 N 0.48904 0.60309 1.10337
 N197 N 0.07455 0.49166 1.14031
 C198 C 0.07439 0.53805 1.16901
 N199 N 0.11767 0.60578 1.16154
 N200 N 0.15890 0.62641 1.12643
 C201 C 0.15921 0.58020 1.09774
 N202 N 0.11622 0.51233 1.10528
 N203 N 0.48544 0.88224 1.16208
 C204 C 0.46102 0.92548 1.16912
 N205 N 0.41507 0.92559 1.13992
 N206 N 0.39463 0.88418 1.10478
 C207 C 0.41955 0.84127 1.09765
 N208 N 0.46541 0.84128 1.12687
 N209 N 0.58344 0.51109 0.63761
 C210 C 0.54200 0.46547 0.66874
 N211 N 0.52139 0.39818 0.66336
 N212 N 0.54088 0.37707 0.62805
 C213 C 0.58263 0.42248 0.59707
 N214 N 0.60355 0.48999 0.60239
 N215 N 0.48889 0.07225 0.63825
 C216 C 0.53461 0.07648 0.66931
 N217 N 0.60208 0.12333 0.66387
 N218 N 0.62322 0.16398 0.62853
 C219 C 0.57767 0.16018 0.59760
 N220 N 0.51001 0.11350 0.60303
 N221 N 0.87637 0.47868 0.66376
 C222 C 0.92298 0.45802 0.66939
 N223 N 0.92727 0.41672 0.63832
 N224 N 0.88632 0.39680 0.60289
 C225 C 0.83993 0.41786 0.59725
 N226 N 0.83603 0.45938 0.62822
 N227 N 0.43927 0.50833 0.63802
 C228 C 0.47958 0.55591 0.66859
 N229 N 0.49572 0.62196 0.66272
 N230 N 0.47297 0.63994 0.62746
 C231 C 0.43232 0.59245 0.59706
 N232 N 0.41594 0.52624 0.60288
 N233 N 0.37579 0.87446 0.66159
 C234 C 0.44216 0.92385 0.66812
 N235 N 0.49022 0.93059 0.63815
 N236 N 0.47250 0.88938 0.60299
 C237 C 0.40601 0.84002 0.59654
 N238 N 0.35802 0.83374 0.62630
 N239 N 0.12495 0.50222 0.66171
 C240 C 0.07567 0.51905 0.66824
 N241 N 0.06875 0.56004 0.63814
 N242 N 0.10970 0.58336 0.60283
 C243 C 0.15894 0.56632 0.59639
 N244 N 0.16541 0.52499 0.62631
 N245 N 0.43911 0.50848 0.86242
 C246 C 0.47934 0.55592 0.83177
 N247 N 0.49553 0.62201 0.83757
 N248 N 0.47294 0.64016 0.87281
 C249 C 0.43238 0.59282 0.90329
 N250 N 0.41593 0.52656 0.89754
 N251 N 0.14131 0.52719 0.83002
 C252 C 0.07892 0.52298 0.82972
 N253 N 0.05937 0.54357 0.86657
 N254 N 0.10025 0.56725 0.90194
 C255 C 0.16208 0.57050 0.90200
 N256 N 0.18159 0.54962 0.86555
 N257 N 0.38539 0.85860 0.82990
 C258 C 0.44375 0.92096 0.82959
 N259 N 0.48420 0.94058 0.86640
 N260 N 0.46708 0.89977 0.90174
 C261 C 0.40832 0.83795 0.90180
 N262 N 0.36764 0.81839 0.86539
 N263 N 0.52043 0.39790 0.83721
 C264 C 0.54153 0.46527 0.83169
 N265 N 0.58361 0.51097 0.86259
 N266 N 0.60389 0.48986 0.89773
 C267 C 0.58251 0.42227 0.90318
 N268 N 0.54008 0.37678 0.87245
 N269 N 0.88192 0.48410 0.83927
 C270 C 0.92515 0.45974 0.83196
 N271 N 0.92537 0.41365 0.86089
 N272 N 0.88398 0.39300 0.89607
 C273 C 0.84102 0.41784 0.90345
 N274 N 0.84103 0.46388 0.87450
 N275 N 0.48857 0.07439 0.86080
 C276 C 0.53489 0.07458 0.83183
 N277 N 0.60275 0.11802 0.83903
 N278 N 0.62368 0.15912 0.87416
 C279 C 0.57762 0.15916 0.90312
 N280 N 0.50956 0.11598 0.89587
   
