data_POSCAR
  _audit_creation_date              2014-09-24
  _audit_creation_method            'ToBaCCo'
  _symmetry_space_group_name_H-M    'P1'
  _symmetry_Int_Tables_number       1
  _symmetry_cell_setting            triclinic
  loop_
  _symmetry_equiv_pos_as_xyz
 x,y,z
_cell_length_a 65.0110
_cell_length_b 64.3924
_cell_length_c 28.2575
_cell_angle_alpha 89.626300
_cell_angle_beta 90.332300
_cell_angle_gamma 119.465700
loop_
  _atom_site_label
  _atom_site_type_symbol
  _atom_site_fract_x
  _atom_site_fract_y
  _atom_site_fract_z
C1 C 0.16901 0.48207 0.51342
 C2 C 0.16692 0.47980 0.46512
 C3 C 0.17979 0.46892 0.45131
 N4 N 0.18994 0.46483 0.48953
 C5 C 0.18333 0.47282 0.52742
 C6 C 0.18193 0.46258 0.40433
 C7 C 0.20006 0.45729 0.39237
 C8 C 0.20009 0.44474 0.35258
 C9 C 0.22151 0.44536 0.35183
 C10 C 0.23380 0.45779 0.39167
 N11 N 0.22057 0.46479 0.41653
 C12 C 0.25751 0.46440 0.40169
 C13 C 0.26718 0.47031 0.44768
 C14 C 0.29099 0.48066 0.45859
 C15 C 0.29270 0.48215 0.50703
 C16 C 0.26982 0.47239 0.52415
 N17 N 0.25426 0.46529 0.48768
 C18 C 0.26329 0.46985 0.57257
 C19 C 0.24031 0.46499 0.58588
 C20 C 0.22961 0.45535 0.62903
 C21 C 0.20865 0.45566 0.62964
 C22 C 0.20685 0.46499 0.58651
 N23 N 0.22601 0.47036 0.55974
 C24 C 0.18899 0.47050 0.57466
 H25 H 0.16106 0.48983 0.53563
 H26 H 0.15729 0.48581 0.44279
 H27 H 0.23036 0.47994 0.52807
 H28 H 0.18622 0.43624 0.32641
 H29 H 0.22748 0.43773 0.32480
 H30 H 0.30562 0.48670 0.43420
 H31 H 0.30898 0.48987 0.52718
 H32 H 0.19624 0.44992 0.65869
 H33 H 0.22649 0.47654 0.44499
 H34 H 0.23635 0.44902 0.65748
 C35 C 0.60793 -0.27084 0.47086
 C36 C 0.60966 -0.27174 0.51904
 C37 C 0.59743 -0.26110 0.53767
 N38 N 0.58867 -0.25330 0.50264
 C39 C 0.59478 -0.25963 0.46179
 C40 C 0.59190 -0.26135 0.58601
 C41 C 0.58669 -0.24398 0.60418
 C42 C 0.57496 -0.24573 0.64623
 C43 C 0.57374 -0.22509 0.65040
 C44 C 0.58435 -0.21150 0.61044
 N45 N 0.59228 -0.22305 0.58256
 C46 C 0.58684 -0.18884 0.60084
 C47 C 0.59109 -0.17900 0.55484
 C48 C 0.59690 -0.15573 0.54411
 C49 C 0.59596 -0.15437 0.49576
 C50 C 0.58954 -0.17689 0.47866
 N51 N 0.58674 -0.19190 0.51479
 C52 C 0.58324 -0.18414 0.43130
 C53 C 0.57947 -0.20633 0.41438
 C54 C 0.56668 -0.21759 0.37409
 C55 C 0.56725 -0.23858 0.37002
 C56 C 0.58085 -0.23931 0.40741
 N57 N 0.58816 -0.21956 0.43433
 C58 C 0.58621 -0.25781 0.41679
 H59 H 0.61499 -0.27813 0.44531
 H60 H 0.61828 -0.27991 0.53833
 H61 H 0.59986 -0.21451 0.46285
 H62 H 0.56750 -0.26050 0.67096
 H63 H 0.56546 -0.22085 0.67904
 H64 H 0.60071 -0.14144 0.56867
 H65 H 0.59888 -0.13881 0.47557
 H66 H 0.55819 -0.25193 0.34311
 H67 H 0.60246 -0.21628 0.55209
 H68 H 0.55738 -0.21161 0.35070
 C69 C 1.14648 0.73763 0.53659
 C70 C 1.14610 0.73499 0.48846
 C71 C 1.16941 0.74692 0.47383
 N72 N 1.18407 0.75660 0.51125
 C73 C 1.17007 0.75062 0.54982
 C74 C 1.17697 0.74684 0.42727
 C75 C 1.19979 0.76342 0.41119
 C76 C 1.20950 0.76200 0.36865
 C77 C 1.23081 0.78265 0.36435
 C78 C 1.23379 0.79596 0.40492
 N79 N 1.21462 0.78412 0.43296
 C80 C 1.25240 0.81947 0.41333
 C81 C 1.25648 0.82992 0.45886
 C82 C 1.27251 0.85350 0.46942
 C83 C 1.27342 0.85528 0.51775
 C84 C 1.25844 0.83263 0.53540
 N85 N 1.24792 0.81724 0.49939
 C86 C 1.25655 0.82589 0.58373
 C87 C 1.23709 0.80439 0.60074
 C88 C 1.23695 0.79292 0.64264
 C89 C 1.21497 0.77317 0.64664
 C90 C 1.20220 0.77287 0.60694
 N91 N 1.21587 0.79187 0.57889
 C92 C 1.17862 0.75501 0.59697
 H93 H 1.13115 0.73043 0.55935
 H94 H 1.13050 0.72529 0.46669
 H95 H 1.21044 0.79693 0.54822
 H96 H 1.20178 0.74789 0.34269
 H97 H 1.24233 0.78740 0.33400
 H98 H 1.28305 0.86790 0.44525
 H99 H 1.28445 0.87130 0.53770
 H100 H 1.20936 0.76009 0.67487
 H101 H 1.21053 0.79100 0.46241
 H102 H 1.25136 0.79785 0.66738
 C103 C 0.83363 0.56984 0.50902
 C104 C 0.83526 0.57227 0.46071
 C105 C 0.81278 0.56565 0.44431
 N106 N 0.79739 0.55902 0.48081
 C107 C 0.81005 0.56128 0.52047
 C108 C 0.80641 0.56431 0.39610
 C109 C 0.78499 0.56301 0.38156
 C110 C 0.77513 0.55666 0.33669
 C111 C 0.75522 0.55907 0.33650
 C112 C 0.75350 0.56675 0.38128
 N113 N 0.77177 0.56926 0.40838
 C114 C 0.73623 0.57259 0.39548
 C115 C 0.73233 0.57579 0.44311
 C116 C 0.71856 0.58540 0.45825
 C117 C 0.71642 0.58216 0.50628
 C118 C 0.72842 0.57008 0.51864
 N119 N 0.73842 0.56652 0.48004
 C120 C 0.72830 0.56053 0.56390
 C121 C 0.74518 0.55341 0.57581
 C122 C 0.74255 0.53748 0.61169
 C123 C 0.76273 0.53570 0.61220
 C124 C 0.77717 0.55048 0.57646
 N125 N 0.76624 0.56100 0.55398
 C126 C 0.80017 0.55439 0.56638
 H127 H 0.84818 0.57387 0.53290
 H128 H 0.85118 0.57836 0.44002
 H129 H 0.77372 0.57423 0.52805
 H130 H 0.78165 0.55103 0.30707
 H131 H 0.74350 0.55578 0.30668
 H132 H 0.71052 0.59349 0.43684
 H133 H 0.70667 0.58756 0.52931
 H134 H 0.76621 0.52447 0.63579
 H135 H 0.77623 0.57705 0.44174
 H136 H 0.72748 0.52775 0.63463
 C137 C 0.47202 0.16309 0.48840
 C138 C 0.47040 0.16098 0.53674
 C139 C 0.45917 0.17337 0.55153
 N140 N 0.45421 0.18326 0.51391
 C141 C 0.46200 0.17693 0.47534
 C142 C 0.45309 0.17512 0.59883
 C143 C 0.44785 0.19327 0.61176
 C144 C 0.43483 0.19251 0.65112
 C145 C 0.43535 0.21406 0.65300
 C146 C 0.44854 0.22739 0.61458
 N147 N 0.45571 0.21443 0.58900
 C148 C 0.45484 0.25149 0.60569
 C149 C 0.45951 0.26099 0.55905
 C150 C 0.46992 0.28500 0.54701
 C151 C 0.46991 0.28621 0.49850
 C152 C 0.46004 0.26300 0.48247
 N153 N 0.45367 0.24760 0.51942
 C154 C 0.45639 0.25617 0.43445
 C155 C 0.45191 0.23339 0.41973
 C156 C 0.44413 0.22393 0.37499
 C157 C 0.44497 0.20301 0.37320
 C158 C 0.45310 0.20026 0.41696
 N159 N 0.45709 0.21871 0.44523
 C160 C 0.45904 0.18250 0.42832
 H161 H 0.47987 0.15548 0.46555
 H162 H 0.47702 0.15164 0.55846
 H163 H 0.46592 0.22262 0.47757
 H164 H 0.42593 0.17797 0.67604
 H165 H 0.42703 0.21938 0.67974
 H166 H 0.47705 0.30016 0.57056
 H167 H 0.47682 0.30234 0.47744
 H168 H 0.44066 0.19145 0.34278
 H169 H 0.46757 0.22078 0.56086
 H170 H 0.43904 0.23163 0.34619
 C171 C 0.70889 0.15768 0.51472
 C172 C 0.70992 0.15703 0.46635
 C173 C 0.73330 0.17176 0.45409
 N174 N 0.74671 0.18108 0.49334
 C175 C 0.73183 0.17233 0.53064
 C176 C 0.74200 0.17590 0.40728
 C177 C 0.76407 0.19556 0.39486
 C178 C 0.77513 0.19860 0.35152
 C179 C 0.79463 0.22107 0.35171
 C180 C 0.79501 0.23102 0.39529
 N181 N 0.77637 0.21536 0.42137
 C182 C 0.81125 0.25465 0.40863
 C183 C 0.81465 0.26253 0.45599
 C184 C 0.82808 0.28608 0.47022
 C185 C 0.82816 0.28587 0.51876
 C186 C 0.81471 0.26223 0.53245
 N187 N 0.80654 0.24799 0.49409
 C188 C 0.81120 0.25387 0.57954
 C189 C 0.79400 0.23039 0.59184
 C190 C 0.79324 0.21946 0.63467
 C191 C 0.77286 0.19774 0.63439
 C192 C 0.76160 0.19611 0.59153
 N193 N 0.77477 0.21597 0.56551
 C194 C 0.73890 0.17736 0.57878
 H195 H 0.69292 0.14867 0.53552
 H196 H 0.69504 0.14731 0.44282
 H197 H 0.76937 0.22062 0.53438
 H198 H 0.76946 0.18615 0.32237
 H199 H 0.80695 0.22927 0.32283
 H200 H 0.83698 0.30178 0.44802
 H201 H 0.83707 0.30133 0.54135
 H202 H 0.76683 0.18474 0.66281
 H203 H 0.77072 0.21916 0.45285
 H204 H 0.80592 0.22651 0.66335
 O205 O 0.97124 0.51817 -0.09832
 O206 O 1.00737 0.52153 0.11176
 O207 O 0.94589 0.49787 0.03123
 O208 O 1.02325 0.55474 -0.03007
 O209 O 0.97860 0.52665 0.05970
 O210 O 1.01562 0.53761 -0.09745
 O211 O 1.02136 0.54556 0.05190
 O212 O 0.94263 0.49062 -0.05524
 C213 C 0.94991 0.50707 -0.08629
 C214 C 1.02305 0.54214 0.09569
 C215 C 0.95683 0.51771 0.05252
 C216 C 1.02339 0.55627 -0.07377
 O217 O 1.01212 0.49545 -0.09384
 O218 O 0.96588 0.48596 0.09496
 O219 O 0.95586 0.45688 -0.04113
 O220 O 1.03472 0.51232 0.03336
 O221 O 1.00222 0.48598 0.06392
 O222 O 0.96841 0.47707 -0.10492
 O223 O 1.03915 0.52362 -0.05034
 O224 O 0.95893 0.46265 0.03915
 Co225 Co 0.99178 0.50692 -0.09027
 Co226 Co 0.99114 0.50679 0.05895
 Co227 Co 0.95385 0.47933 -0.00655
 Co228 Co 1.02620 0.53145 0.00010
 O229 O 0.98975 0.50498 -0.01263
 C230 C 1.03304 0.50690 -0.07992
 C231 C 0.95551 0.46509 0.08120
 C232 C 0.95793 0.45740 -0.08458
 C233 C 1.02353 0.49342 0.05666
 O234 O 0.47076 0.44904 -0.06936
 O235 O 0.44828 0.47390 0.05606
 O236 O 0.50364 0.45845 0.05872
 O237 O 0.45745 0.50864 -0.04583
 O238 O 0.46851 0.45157 0.06822
 O239 O 0.44849 0.47245 -0.06217
 O240 O 0.45716 0.50969 0.03955
 O241 O 0.50110 0.45230 -0.02842
 C242 C 0.48339 0.44054 -0.05502
 C243 C 0.44199 0.48911 0.05224
 C244 C 0.48307 0.44462 0.07214
 C245 C 0.44272 0.48823 -0.06097
 O246 O 0.48680 0.51035 -0.09798
 O247 O 0.50717 0.49177 0.10189
 O248 O 0.53508 0.49643 -0.04093
 O249 O 0.50562 0.53567 0.03919
 O250 O 0.48530 0.51304 0.09522
 O251 O 0.50848 0.48805 -0.09632
 O252 O 0.50536 0.53600 -0.04450
 O253 O 0.53378 0.50440 0.04687
 Co254 Co 0.47928 0.48095 -0.07342
 Co255 Co 0.47827 0.48327 0.07379
 Co256 Co 0.51553 0.47921 0.00867
 Co257 Co 0.48190 0.51982 -0.00232
 O258 O 0.48872 0.49057 0.00117
 C259 C 0.50313 0.53054 -0.08675
 C260 C 0.52816 0.50531 0.08853
 C261 C 0.52968 0.49596 -0.08361
 C262 C 0.50154 0.53288 0.08197
 O263 O 0.54257 0.00933 -0.05584
 O264 O 0.49935 -0.03725 0.10221
 O265 O 0.54638 0.02138 0.03003
 O266 O 0.49694 -0.06352 -0.04083
 O267 O 0.52875 0.00500 0.09459
 O268 O 0.52726 -0.03110 -0.06142
 O269 O 0.50254 -0.05935 0.04740
 O270 O 0.53615 0.03729 -0.04308
 C271 C 0.54843 0.03043 -0.06361
 C272 C 0.50544 -0.05227 0.08932
 C273 C 0.54764 0.01703 0.07247
 C274 C 0.51686 -0.05307 -0.05923
 O275 O 0.48412 -0.03776 -0.09056
 O276 O 0.49391 0.01472 0.06771
 O277 O 0.49354 0.01948 -0.01826
 O278 O 0.46205 -0.06052 0.05466
 O279 O 0.46573 -0.02652 0.07168
 O280 O 0.49947 0.00534 -0.08339
 O281 O 0.45958 -0.05943 -0.03439
 O282 O 0.52523 0.04531 0.04029
 Co283 Co 0.51254 -0.01367 -0.06695
 Co284 Co 0.49756 -0.01149 0.07729
 Co285 Co 0.51912 0.01895 0.00738
 Co286 Co 0.48248 -0.05651 0.00663
 O287 O 0.50280 -0.01722 0.00420
 C288 C 0.46341 -0.05249 -0.07664
 C289 C 0.50876 0.03672 0.07195
 C290 C 0.48999 0.01572 -0.06187
 C291 C 0.45347 -0.04853 0.07134
 C292 C 1.12557 0.44966 0.34282
 C293 C 1.13389 0.45929 0.29787
 C294 C 1.15804 0.46985 0.28812
 C295 C 1.17382 0.47090 0.32310
 C296 C 1.16578 0.46138 0.36874
 C297 C 1.14131 0.45065 0.37791
 C298 C 1.11784 0.45909 0.26215
 C299 C 1.10471 0.45959 0.23232
 C300 C 1.08969 0.46111 0.19771
 C301 C 1.07720 0.46338 0.16875
 C302 C 1.06275 0.46750 0.13524
 C303 C 1.07342 0.48349 0.09766
 C304 C 1.06017 0.49059 0.06960
 C305 C 1.03604 0.48188 0.07889
 C306 C 1.02512 0.46467 0.11480
 C307 C 1.03844 0.45761 0.14291
 H308 H 1.10689 0.44140 0.35080
 H309 H 1.16473 0.47755 0.25359
 H310 H 1.19248 0.47979 0.31475
 H311 H 1.13425 0.44253 0.41197
 H312 H 1.09221 0.49132 0.09141
 H313 H 1.06908 0.50385 0.04221
 H314 H 1.00662 0.45774 0.12301
 H315 H 1.02999 0.44530 0.17200
 C316 C 0.56568 0.68185 0.36509
 C317 C 0.57095 0.68727 0.31726
 C318 C 0.58143 0.71103 0.30192
 C319 C 0.58657 0.72931 0.33446
 C320 C 0.58128 0.72406 0.38292
 C321 C 0.57074 0.69996 0.39753
 C322 C 0.56492 0.66810 0.28441
 C323 C 0.55911 0.65131 0.25849
 C324 C 0.55151 0.63109 0.22936
 C325 C 0.54439 0.61361 0.20484
 C326 C 0.53519 0.59278 0.17531
 C327 C 0.54226 0.59499 0.12805
 C328 C 0.53182 0.57525 0.09809
 C329 C 0.51405 0.55304 0.11500
 C330 C 0.50765 0.55073 0.16296
 C331 C 0.51813 0.57054 0.19291
 H332 H 0.55738 0.66352 0.37733
 H333 H 0.58565 0.71543 0.26489
 H334 H 0.59522 0.74758 0.32187
 H335 H 0.56574 0.69495 0.43409
 H336 H 0.55544 0.61210 0.11404
 H337 H 0.53724 0.57754 0.06138
 H338 H 0.49412 0.53382 0.17698
 H339 H 0.51251 0.56863 0.22946
 C340 C 0.28652 -0.13433 0.32191
 C341 C 0.30150 -0.14249 0.30512
 C342 C 0.29991 -0.16340 0.32385
 C343 C 0.28354 -0.17605 0.35936
 C344 C 0.26846 -0.16799 0.37661
 C345 C 0.27009 -0.14699 0.35747
 C346 C 0.31900 -0.12921 0.26964
 C347 C 0.33413 -0.11838 0.24057
 C348 C 0.35241 -0.10601 0.20742
 C349 C 0.36852 -0.09570 0.18004
 C350 C 0.38841 -0.08372 0.14868
 C351 C 0.39588 -0.09706 0.12212
 C352 C 0.41658 -0.08556 0.09540
 C353 C 0.43017 -0.06051 0.09501
 C354 C 0.42208 -0.04721 0.12042
 C355 C 0.40135 -0.05877 0.14717
 H356 H 0.28763 -0.11814 0.30774
 H357 H 0.31150 -0.16981 0.31134
 H358 H 0.28291 -0.19196 0.37399
 H359 H 0.25858 -0.14047 0.36997
 H360 H 0.38605 -0.11638 0.12311
 H361 H 0.42231 -0.09630 0.07616
 H362 H 0.43216 -0.02791 0.12091
 H363 H 0.39578 -0.04827 0.16771
 C364 C 0.84569 0.57874 0.28778
 C365 C 0.85135 0.56037 0.28927
 C366 C 0.84267 0.54360 0.32614
 C367 C 0.82827 0.54504 0.36108
 C368 C 0.82236 0.56330 0.35960
 C369 C 0.83130 0.58022 0.32279
 C370 C 0.86580 0.55843 0.25286
 C371 C 0.87773 0.55619 0.22287
 C372 C 0.89156 0.55279 0.18853
 C373 C 0.90325 0.54913 0.16019
 C374 C 0.91707 0.54373 0.12785
 C375 C 0.90576 0.52521 0.09512
 C376 C 0.91890 0.51769 0.06829
 C377 C 0.94357 0.52854 0.07396
 C378 C 0.95491 0.54794 0.10515
 C379 C 0.94172 0.55543 0.13197
 H380 H 0.85229 0.59183 0.25949
 H381 H 0.84691 0.52930 0.32770
 H382 H 0.82151 0.53176 0.38903
 H383 H 0.82701 0.59447 0.32110
 H384 H 0.88669 0.51595 0.09168
 H385 H 0.90963 0.50268 0.04466
 H386 H 0.97384 0.55659 0.11056
 H387 H 0.95068 0.56971 0.15729
 C388 C 0.44347 0.29899 0.36403
 C389 C 0.45999 0.30575 0.32735
 C390 C 0.47557 0.29659 0.32621
 C391 C 0.47454 0.28066 0.36128
 C392 C 0.45787 0.27365 0.39792
 C393 C 0.44241 0.28304 0.39914
 C394 C 0.46109 0.32211 0.29095
 C395 C 0.46231 0.33590 0.26045
 C396 C 0.46416 0.35234 0.22491
 C397 C 0.46621 0.36675 0.19505
 C398 C 0.46932 0.38458 0.16024
 C399 C 0.49062 0.39674 0.13542
 C400 C 0.49465 0.41558 0.10496
 C401 C 0.47743 0.42259 0.09896
 C402 C 0.45569 0.40965 0.12256
 C403 C 0.45171 0.39082 0.15309
 H404 H 0.43135 0.30599 0.36539
 H405 H 0.48848 0.30172 0.29816
 H406 H 0.48668 0.27372 0.35981
 H407 H 0.42940 0.27782 0.42702
 H408 H 0.50440 0.39210 0.14062
 H409 H 0.51156 0.42515 0.08728
 H410 H 0.44210 0.41465 0.11880
 H411 H 0.43515 0.38158 0.17212
 C412 C 0.70382 0.15188 0.29722
 C413 C 0.69653 0.12750 0.30047
 C414 C 0.70468 0.11908 0.33790
 C415 C 0.71981 0.13489 0.37218
 C416 C 0.72692 0.15930 0.36945
 C417 C 0.71893 0.16770 0.33150
 C418 C 0.67980 0.11104 0.26673
 C419 C 0.66526 0.09736 0.23914
 C420 C 0.64754 0.08155 0.20765
 C421 C 0.63174 0.06833 0.18164
 C422 C 0.61200 0.05302 0.15184
 C423 C 0.61168 0.05866 0.10396
 C424 C 0.59114 0.04581 0.07689
 C425 C 0.57060 0.02731 0.09760
 C426 C 0.57150 0.02095 0.14499
 C427 C 0.59205 0.03374 0.17189
 H428 H 0.69754 0.15860 0.26860
 H429 H 0.69909 0.10026 0.34094
 H430 H 0.72578 0.12808 0.40119
 H431 H 0.72410 0.18643 0.32893
 H432 H 0.62696 0.07361 0.08809
 H433 H 0.59094 0.05121 0.04058
 H434 H 0.55599 0.00676 0.16192
 H435 H 0.59203 0.02923 0.20891
 C436 C 0.46048 0.14972 -0.28667
 C437 C 0.45066 0.12556 -0.29801
 C438 C 0.44121 0.11771 -0.34318
 C439 C 0.44179 0.13393 -0.37704
 C440 C 0.45195 0.15844 -0.36646
 C441 C 0.46108 0.16599 -0.32043
 C442 C 0.45114 0.10902 -0.26395
 C443 C 0.45216 0.09533 -0.23591
 C444 C 0.45423 0.07953 -0.20374
 C445 C 0.45693 0.06634 -0.17705
 C446 C 0.46153 0.05109 -0.14635
 C447 C 0.46473 0.03298 -0.16592
 C448 C 0.47259 0.02038 -0.13763
 C449 C 0.47743 0.02577 -0.08928
 C450 C 0.47288 0.04306 -0.06927
 C451 C 0.46508 0.05572 -0.09774
 H452 H 0.46802 0.15605 -0.25192
 H453 H 0.43348 0.09904 -0.35235
 H454 H 0.43387 0.12718 -0.41135
 H455 H 0.46947 0.18468 -0.31095
 H456 H 0.46210 0.02926 -0.20349
 H457 H 0.47584 0.00712 -0.15406
 H458 H 0.47654 0.04769 -0.03222
 H459 H 0.46275 0.06976 -0.08220
 C460 C 0.69657 0.55751 -0.32372
 C461 C 0.67324 0.54758 -0.33991
 C462 C 0.66817 0.54195 -0.38775
 C463 C 0.68628 0.54621 -0.41936
 C464 C 0.70995 0.55633 -0.40377
 C465 C 0.71477 0.56181 -0.35529
 C466 C 0.65435 0.54263 -0.30746
 C467 C 0.63833 0.53809 -0.28056
 C468 C 0.61953 0.53233 -0.24889
 C469 C 0.60363 0.52705 -0.22124
 C470 C 0.58506 0.52031 -0.18701
 C471 C 0.56189 0.51330 -0.20139
 C472 C 0.54380 0.50563 -0.16781
 C473 C 0.54871 0.50486 -0.11945
 C474 C 0.57214 0.51236 -0.10543
 C475 C 0.59013 0.51998 -0.13896
 H476 H 0.70069 0.56194 -0.28669
 H477 H 0.65015 0.53402 -0.40061
 H478 H 0.68162 0.54093 -0.45590
 H479 H 0.73271 0.56991 -0.34198
 H480 H 0.55777 0.51349 -0.23854
 H481 H 0.52599 0.50012 -0.17971
 H482 H 0.57658 0.51206 -0.06853
 H483 H 0.60797 0.52533 -0.12742
 C484 C 0.86509 0.29691 -0.34950
 C485 C 0.85473 0.30345 -0.31343
 C486 C 0.83009 0.29310 -0.31140
 C487 C 0.81591 0.27662 -0.34572
 C488 C 0.82623 0.27036 -0.38251
 C489 C 0.85092 0.28041 -0.38381
 C490 C 0.86939 0.32163 -0.27997
 C491 C 0.88161 0.33734 -0.25279
 C492 C 0.89582 0.35632 -0.22197
 C493 C 0.90780 0.37304 -0.19663
 C494 C 0.92186 0.39366 -0.16767
 C495 C 0.93742 0.41541 -0.18922
 C496 C 0.94974 0.43599 -0.16193
 C497 C 0.94665 0.43512 -0.11257
 C498 C 0.93152 0.41303 -0.09097
 C499 C 0.91915 0.39245 -0.11842
 H500 H 0.88412 0.30483 -0.35153
 H501 H 0.82187 0.29808 -0.28379
 H502 H 0.79691 0.26907 -0.34419
 H503 H 0.85918 0.27571 -0.41180
 H504 H 0.93964 0.41660 -0.22729
 H505 H 0.96128 0.45268 -0.17964
 H506 H 0.92872 0.41179 -0.05307
 H507 H 0.90709 0.37573 -0.10135
 C508 C 0.55849 -0.15960 -0.32926
 C509 C 0.57268 -0.15207 -0.28863
 C510 C 0.59154 -0.15669 -0.28386
 C511 C 0.59621 -0.16870 -0.31974
 C512 C 0.58210 -0.17610 -0.36071
 C513 C 0.56312 -0.17157 -0.36503
 C514 C 0.56781 -0.13946 -0.25240
 C515 C 0.56312 -0.12883 -0.22324
 C516 C 0.55700 -0.11629 -0.19050
 C517 C 0.55128 -0.10549 -0.16380
 C518 C 0.54387 -0.09247 -0.13356
 C519 C 0.55694 -0.06754 -0.13202
 C520 C 0.54858 -0.05471 -0.10639
 C521 C 0.52696 -0.06668 -0.08205
 C522 C 0.51435 -0.09177 -0.08247
 C523 C 0.52274 -0.10456 -0.10817
 H524 H 0.54384 -0.15617 -0.33332
 H525 H 0.60264 -0.15095 -0.25257
 H526 H 0.61086 -0.17213 -0.31576
 H527 H 0.55192 -0.17734 -0.39616
 H528 H 0.57328 -0.05798 -0.15164
 H529 H 0.55870 -0.03541 -0.10677
 H530 H 0.49768 -0.10150 -0.06404
 H531 H 0.51243 -0.12385 -0.10924
 C532 C 0.30880 0.46196 -0.35959
 C533 C 0.31046 0.47435 -0.31793
 C534 C 0.29709 0.48583 -0.31322
 C535 C 0.28189 0.48467 -0.34958
 C536 C 0.27966 0.47190 -0.39154
 C537 C 0.29359 0.46075 -0.39610
 C538 C 0.32569 0.47516 -0.27977
 C539 C 0.33843 0.47592 -0.24777
 C540 C 0.35358 0.47694 -0.21062
 C541 C 0.36694 0.47795 -0.17969
 C542 C 0.38365 0.47937 -0.14424
 C543 C 0.39731 0.50063 -0.11949
 C544 C 0.41565 0.50304 -0.08975
 C545 C 0.42065 0.48422 -0.08462
 C546 C 0.40598 0.46247 -0.10759
 C547 C 0.38767 0.46012 -0.13728
 H548 H 0.31904 0.45296 -0.36363
 H549 H 0.29835 0.49564 -0.28133
 H550 H 0.27202 0.49402 -0.34504
 H551 H 0.29206 0.45030 -0.42712
 H552 H 0.39439 0.51567 -0.12457
 H553 H 0.42660 0.52000 -0.07257
 H554 H 0.40935 0.44763 -0.10444
 H555 H 0.37725 0.44358 -0.15624
 C556 C 1.14843 0.73422 -0.28552
 C557 C 1.13487 0.70963 -0.29316
 C558 C 1.13605 0.70014 -0.33672
 C559 C 1.15051 0.71504 -0.37265
 C560 C 1.16408 0.73993 -0.36599
 C561 C 1.16300 0.74926 -0.32153
 C562 C 1.11973 0.69372 -0.25681
 C563 C 1.10671 0.67919 -0.22837
 C564 C 1.09122 0.66086 -0.19743
 C565 C 1.07793 0.64417 -0.17314
 C566 C 1.06216 0.62303 -0.14684
 C567 C 1.04649 0.60244 -0.17151
 C568 C 1.03306 0.58097 -0.14732
 C569 C 1.03510 0.57974 -0.09794
 C570 C 1.05008 0.60074 -0.07302
 C571 C 1.06363 0.62226 -0.09742
 H572 H 1.14767 0.74179 -0.25188
 H573 H 1.12585 0.68110 -0.34290
 H574 H 1.15149 0.70692 -0.40540
 H575 H 1.17296 0.76827 -0.31504
 H576 H 1.04521 0.60279 -0.20973
 H577 H 1.02161 0.56514 -0.16748
 H578 H 1.05207 0.60031 -0.03500
 H579 H 1.07576 0.63806 -0.07794
 C580 C 0.82517 0.55354 -0.31458
 C581 C 0.83692 0.54080 -0.32414
 C582 C 0.83675 0.53271 -0.37002
 C583 C 0.82481 0.53728 -0.40629
 C584 C 0.81286 0.55014 -0.39729
 C585 C 0.81319 0.55813 -0.35073
 C586 C 0.84942 0.53627 -0.28705
 C587 C 0.86028 0.53261 -0.25660
 C588 C 0.87367 0.52856 -0.22216
 C589 C 0.88590 0.52535 -0.19425
 C590 C 0.90159 0.52192 -0.16329
 C591 C 0.89288 0.50294 -0.13093
 C592 C 0.90857 0.49850 -0.10436
 C593 C 0.93312 0.51294 -0.11026
 C594 C 0.94161 0.53243 -0.14175
 C595 C 0.92595 0.53685 -0.16804
 H596 H 0.82533 0.56002 -0.27921
 H597 H 0.84573 0.52273 -0.37771
 H598 H 0.82434 0.53009 -0.44107
 H599 H 0.80452 0.56834 -0.34243
 H600 H 0.87402 0.49123 -0.12715
 H601 H 0.90151 0.48339 -0.08038
 H602 H 0.96040 0.54397 -0.14697
 H603 H 0.93286 0.55156 -0.19304
 C604 C 0.44771 0.29550 -0.32021
 C605 C 0.45887 0.29476 -0.27829
 C606 C 0.46838 0.27951 -0.27451
 C607 C 0.46689 0.26516 -0.31267
 C608 C 0.45601 0.26595 -0.35555
 C609 C 0.44622 0.28120 -0.35849
 C610 C 0.46111 0.31018 -0.23974
 C611 C 0.46312 0.32371 -0.20855
 C612 C 0.46556 0.34038 -0.17384
 C613 C 0.46763 0.35547 -0.14627
 C614 C 0.47002 0.37455 -0.11655
 C615 C 0.49051 0.38774 -0.08955
 C616 C 0.49433 0.40862 -0.06692
 C617 C 0.47778 0.41659 -0.07157
 C618 C 0.45670 0.40249 -0.09671
 C619 C 0.45289 0.38165 -0.11906
 H620 H 0.44017 0.30717 -0.32336
 H621 H 0.47718 0.27891 -0.24227
 H622 H 0.47491 0.25393 -0.30912
 H623 H 0.43692 0.28169 -0.39004
 H624 H 0.50395 0.38246 -0.08766
 H625 H 0.51074 0.41913 -0.04789
 H626 H 0.44354 0.40806 -0.10076
 H627 H 0.43704 0.37164 -0.14007
 C628 C 0.70384 0.16214 -0.30968
 C629 C 0.69039 0.13735 -0.31305
 C630 C 0.69345 0.12559 -0.35153
 C631 C 0.70966 0.13865 -0.38702
 C632 C 0.72300 0.16374 -0.38467
 C633 C 0.72004 0.17524 -0.34504
 C634 C 0.67298 0.12410 -0.27764
 C635 C 0.65815 0.11311 -0.24830
 C636 C 0.64051 0.10016 -0.21453
 C637 C 0.62519 0.08880 -0.18629
 C638 C 0.60663 0.07470 -0.15352
 C639 C 0.60114 0.05119 -0.14402
 C640 C 0.58240 0.03693 -0.11405
 C641 C 0.56890 0.04604 -0.09325
 C642 C 0.57472 0.06979 -0.10234
 C643 C 0.59350 0.08405 -0.13244
 H644 H 0.70155 0.17141 -0.28006
 H645 H 0.68321 0.10634 -0.35424
 H646 H 0.71200 0.12909 -0.41603
 H647 H 0.72969 0.19450 -0.34219
 H648 H 0.61115 0.04378 -0.16027
 H649 H 0.57827 0.01868 -0.10765
 H650 H 0.56455 0.07719 -0.08679
 H651 H 0.59759 0.10222 -0.13973
 C652 C 1.17546 0.49474 -0.31516
 C653 C 1.15096 0.48012 -0.31180
 C654 C 1.13883 0.46233 -0.34559
 C655 C 1.15115 0.45917 -0.38266
 C656 C 1.17572 0.47385 -0.38630
 C657 C 1.18780 0.49160 -0.35220
 C658 C 1.13812 0.48368 -0.27440
 C659 C 1.12691 0.48659 -0.24394
 C660 C 1.11303 0.48981 -0.20976
 C661 C 1.10032 0.49230 -0.18228
 C662 C 1.08396 0.49482 -0.15208
 C663 C 1.05986 0.47850 -0.15620
 C664 C 1.04339 0.48203 -0.13127
 C665 C 1.05081 0.50200 -0.10178
 C666 C 1.07515 0.51783 -0.09623
 C667 C 1.09165 0.51431 -0.12151
 H668 H 1.18499 0.50861 -0.28930
 H669 H 1.11985 0.45096 -0.34335
 H670 H 1.14160 0.44528 -0.40843
 H671 H 1.20677 0.50306 -0.35448
 H672 H 1.05372 0.46340 -0.17983
 H673 H 1.02479 0.46942 -0.13608
 H674 H 1.08137 0.53335 -0.07376
 H675 H 1.11029 0.52711 -0.11824
 C676 C 0.59418 0.70355 -0.30972
 C677 C 0.58252 0.68042 -0.32817
 C678 C 0.57467 0.67672 -0.37501
 C679 C 0.57807 0.69595 -0.40325
 C680 C 0.58944 0.71941 -0.38518
 C681 C 0.59767 0.72293 -0.33801
 C682 C 0.57684 0.66015 -0.29847
 C683 C 0.57079 0.64273 -0.27408
 C684 C 0.56236 0.62223 -0.24542
 C685 C 0.55416 0.60495 -0.22005
 C686 C 0.54343 0.58504 -0.18807
 C687 C 0.52544 0.56284 -0.20365
 C688 C 0.51275 0.54457 -0.17092
 C689 C 0.51784 0.54854 -0.12234
 C690 C 0.53664 0.57056 -0.10740
 C691 C 0.54930 0.58868 -0.14007
 H692 H 0.60027 0.70656 -0.27334
 H693 H 0.56533 0.65884 -0.38940
 H694 H 0.57086 0.69226 -0.43880
 H695 H 0.60701 0.74069 -0.32313
 H696 H 0.52069 0.55992 -0.24079
 H697 H 0.49846 0.52773 -0.18336
 H698 H 0.54113 0.57405 -0.07024
 H699 H 0.56311 0.60583 -0.12765
 C700 C 0.29023 -0.14127 -0.30821
 C701 C 0.31348 -0.13323 -0.32282
 C702 C 0.31787 -0.13831 -0.36841
 C703 C 0.29914 -0.15153 -0.39927
 C704 C 0.27554 -0.15996 -0.38512
 C705 C 0.27139 -0.15452 -0.33907
 C706 C 0.33290 -0.12056 -0.29068
 C707 C 0.34943 -0.11039 -0.26414
 C708 C 0.36890 -0.09910 -0.23319
 C709 C 0.38550 -0.09004 -0.20648
 C710 C 0.40507 -0.08000 -0.17395
 C711 C 0.42762 -0.06295 -0.18926
 C712 C 0.44671 -0.05392 -0.15768
 C713 C 0.44340 -0.06190 -0.11042
 C714 C 0.42060 -0.07893 -0.09538
 C715 C 0.40161 -0.08790 -0.12696
 H716 H 0.28665 -0.13745 -0.27288
 H717 H 0.33580 -0.13239 -0.37989
 H718 H 0.30313 -0.15590 -0.43375
 H719 H 0.25357 -0.16032 -0.32711
 H720 H 0.43048 -0.05675 -0.22563
 H721 H 0.46401 -0.04075 -0.17024
 H722 H 0.41742 -0.08541 -0.05922
 H723 H 0.38423 -0.10114 -0.11479
 C724 C 0.55413 -0.15029 0.38121
 C725 C 0.56691 -0.14091 0.33943
 C726 C 0.58512 -0.14561 0.32758
 C727 C 0.59055 -0.15964 0.35753
 C728 C 0.57780 -0.16902 0.39954
 C729 C 0.55951 -0.16432 0.41109
 C730 C 0.56079 -0.12709 0.30818
 C731 C 0.55513 -0.11595 0.28193
 C732 C 0.54795 -0.10352 0.25082
 C733 C 0.54138 -0.09352 0.22357
 C734 C 0.53308 -0.08244 0.19000
 C735 C 0.52981 -0.08976 0.14279
 C736 C 0.52095 -0.07982 0.11006
 C737 C 0.51517 -0.06241 0.12416
 C738 C 0.51874 -0.05494 0.17164
 C739 C 0.52762 -0.06495 0.20439
 H740 H 0.53991 -0.14690 0.39051
 H741 H 0.59501 -0.13854 0.29516
 H742 H 0.60462 -0.16321 0.34803
 H743 H 0.54934 -0.17163 0.44314
 H744 H 0.53395 -0.10332 0.13132
 H745 H 0.51849 -0.08592 0.07376
 H746 H 0.51455 -0.04149 0.18349
 H747 H 0.53007 -0.05919 0.24092
 C748 C 0.29042 0.48110 0.28516
 C749 C 0.30116 0.46687 0.28588
 C750 C 0.29766 0.45174 0.32453
 C751 C 0.28347 0.45089 0.36236
 C752 C 0.27274 0.46522 0.36188
 C753 C 0.27627 0.48028 0.32294
 C754 C 0.31634 0.46832 0.24764
 C755 C 0.32948 0.46984 0.21624
 C756 C 0.34553 0.47194 0.18064
 C757 C 0.35996 0.47397 0.15173
 C758 C 0.37821 0.47667 0.11961
 C759 C 0.38282 0.45780 0.11343
 C760 C 0.40288 0.46145 0.08869
 C761 C 0.41865 0.48408 0.07005
 C762 C 0.41311 0.50255 0.07388
 C763 C 0.39303 0.49886 0.09872
 H764 H 0.29309 0.49293 0.25555
 H765 H 0.30595 0.44070 0.32548
 H766 H 0.28084 0.43907 0.39196
 H767 H 0.26814 0.49148 0.32201
 H768 H 0.37151 0.44057 0.12956
 H769 H 0.40664 0.44686 0.08621
 H770 H 0.42491 0.52015 0.05984
 H771 H 0.38966 0.51361 0.10343
 C772 C 1.13849 0.68538 0.37629
 C773 C 1.13100 0.69075 0.33374
 C774 C 1.13817 0.71451 0.32193
 C775 C 1.15298 0.73287 0.35253
 C776 C 1.16072 0.72755 0.39506
 C777 C 1.15329 0.70368 0.40682
 C778 C 1.11640 0.67180 0.30192
 C779 C 1.10441 0.65562 0.27566
 C780 C 1.09060 0.63643 0.24526
 C781 C 1.07895 0.61995 0.21936
 C782 C 1.06515 0.60029 0.18836
 C783 C 1.06550 0.60415 0.13953
 C784 C 1.05195 0.58513 0.10930
 C785 C 1.03786 0.56202 0.12764
 C786 C 1.03778 0.55823 0.17669
 C787 C 1.05136 0.57730 0.20689
 H788 H 1.13307 0.66705 0.38567
 H789 H 1.13247 0.71882 0.28902
 H790 H 1.15855 0.75120 0.34301
 H791 H 1.15918 0.69929 0.43940
 H792 H 1.07616 0.62188 0.12486
 H793 H 1.05237 0.58855 0.07165
 H794 H 1.02716 0.54059 0.19172
 H795 H 1.05104 0.57414 0.24466
 C796 C 0.45336 0.13242 0.35009
 C797 C 0.47173 0.14495 0.31790
 C798 C 0.48540 0.16980 0.32078
 C799 C 0.48097 0.18206 0.35628
 C800 C 0.46284 0.16954 0.38918
 C801 C 0.44889 0.14466 0.38559
 C802 C 0.47708 0.13218 0.28306
 C803 C 0.48164 0.12122 0.25463
 C804 C 0.48686 0.10795 0.22223
 C805 C 0.49106 0.09616 0.19525
 C806 C 0.49562 0.08145 0.16387
 C807 C 0.51583 0.09143 0.13542
 C808 C 0.52021 0.07688 0.10538
 C809 C 0.50439 0.05222 0.10358
 C810 C 0.48417 0.04238 0.13235
 C811 C 0.47983 0.05692 0.16228
 H812 H 0.44271 0.11318 0.34814
 H813 H 0.49968 0.17963 0.29607
 H814 H 0.49192 0.20125 0.35869
 H815 H 0.43481 0.13477 0.41064
 H816 H 0.52818 0.11041 0.13654
 H817 H 0.53595 0.08489 0.08367
 H818 H 0.47168 0.02344 0.13167
 H819 H 0.46417 0.04904 0.18425
 C820 C 0.67988 0.54866 0.32565
 C821 C 0.68169 0.56955 0.30634
 C822 C 0.70239 0.59143 0.31285
 C823 C 0.72096 0.59243 0.33994
 C824 C 0.71876 0.57156 0.36059
 C825 C 0.69830 0.54966 0.35276
 C826 C 0.66183 0.56815 0.28108
 C827 C 0.64446 0.56533 0.26027
 C828 C 0.62366 0.56016 0.23547
 C829 C 0.60586 0.55421 0.21301
 C830 C 0.58508 0.54539 0.18399
 C831 C 0.58761 0.55096 0.13576
 C832 C 0.56860 0.53865 0.10507
 C833 C 0.54681 0.52057 0.12228
 C834 C 0.54386 0.51623 0.17123
 C835 C 0.56303 0.52849 0.20196
 H836 H 0.66396 0.53166 0.32071
 H837 H 0.70393 0.60768 0.29801
 H838 H 0.73659 0.60947 0.34630
 H839 H 0.69632 0.53349 0.36901
 H840 H 0.60462 0.56391 0.12148
 H841 H 0.57123 0.54262 0.06757
 H842 H 0.52720 0.50249 0.18537
 H843 H 0.56097 0.52392 0.23925
 C844 C 0.86343 0.30115 0.33945
 C845 C 0.85218 0.30906 0.30756
 C846 C 0.82748 0.29799 0.30648
 C847 C 0.81408 0.27954 0.33822
 C848 C 0.82532 0.27211 0.37134
 C849 C 0.85005 0.28269 0.37118
 C850 C 0.86598 0.32935 0.27774
 C851 C 0.87752 0.34664 0.25344
 C852 C 0.89096 0.36702 0.22533
 C853 C 0.90236 0.38438 0.20110
 C854 C 0.91582 0.40482 0.17143
 C855 C 0.91829 0.40158 0.12336
 C856 C 0.93124 0.42129 0.09412
 C857 C 0.94189 0.44451 0.11264
 C858 C 0.93937 0.44767 0.16099
 C859 C 0.92637 0.42788 0.19027
 H860 H 0.88253 0.30964 0.34058
 H861 H 0.81863 0.30404 0.28198
 H862 H 0.79502 0.27161 0.33809
 H863 H 0.85894 0.27714 0.39659
 H864 H 0.91018 0.38382 0.10845
 H865 H 0.93291 0.41835 0.05697
 H866 H 0.94743 0.46538 0.17609
 H867 H 0.92453 0.43054 0.22749
   
