data_POSCAR
  _audit_creation_date              2014-09-24
  _audit_creation_method            'ToBaCCo'
  _symmetry_space_group_name_H-M    'P1'
  _symmetry_Int_Tables_number       1
  _symmetry_cell_setting            triclinic
  loop_
  _symmetry_equiv_pos_as_xyz
 x,y,z
_cell_length_a 36.6139
_cell_length_b 36.6348
_cell_length_c 36.6370
_cell_angle_alpha 91.179200
_cell_angle_beta 88.619900
_cell_angle_gamma 88.173500
loop_
  _atom_site_label
  _atom_site_type_symbol
  _atom_site_fract_x
  _atom_site_fract_y
  _atom_site_fract_z
C1 C 0.56533 0.40676 -0.02062
 C2 C 0.59147 0.43271 -0.02215
 C3 C 0.57572 0.46469 -0.00687
 N4 N 0.54053 0.45919 0.00295
 C5 C 0.53415 0.42388 -0.00548
 C6 C 0.59365 0.49785 -0.00009
 C7 C 0.57299 0.53064 0.00807
 C8 C 0.58512 0.55990 0.02860
 C9 C 0.55824 0.58682 0.02820
 C10 C 0.53020 0.57347 0.00745
 N11 N 0.53900 0.53876 -0.00398
 C12 C 0.49791 0.59361 -0.00141
 C13 C 0.46512 0.57522 -0.00818
 C14 C 0.43393 0.58997 -0.02390
 C15 C 0.40794 0.56389 -0.02219
 C16 C 0.42430 0.53368 -0.00653
 N17 N 0.45916 0.54063 0.00206
 C18 C 0.40648 0.50128 0.00201
 C19 C 0.42549 0.46869 0.01091
 C20 C 0.40943 0.43767 0.02416
 C21 C 0.43642 0.41065 0.02435
 C22 C 0.46819 0.42596 0.01122
 N23 N 0.46127 0.46131 0.00321
 C24 C 0.50126 0.40647 0.00274
 H25 H 0.56886 0.37862 -0.02993
 H26 H 0.61869 0.42827 -0.03379
 H27 H 0.47864 0.47789 -0.01140
 H28 H 0.61039 0.56155 0.04316
 H29 H 0.55903 0.61296 0.04240
 H30 H 0.43006 0.61645 -0.03595
 H31 H 0.38028 0.56679 -0.03174
 H32 H 0.43267 0.38261 0.03196
 H33 H 0.52424 0.52293 -0.02205
 H34 H 0.38097 0.43436 0.03160
 C35 C 0.02401 0.56355 0.59121
 C36 C 0.02492 0.58988 0.56520
 C37 C 0.00799 0.57575 0.53469
 N38 N -0.00241 0.54129 0.54106
 C39 C 0.00721 0.53395 0.57563
 C40 C 0.00101 0.59460 0.50198
 C41 C -0.00717 0.57501 0.46945
 C42 C -0.02558 0.58927 0.43994
 C43 C -0.02522 0.56239 0.41325
 C44 C -0.00724 0.53218 0.42729
 N45 N 0.00330 0.53984 0.46170
 C46 C 0.00084 0.49925 0.40762
 C47 C 0.00782 0.46601 0.42523
 C48 C 0.02133 0.43398 0.40840
 C49 C 0.02083 0.40765 0.43450
 C50 C 0.00706 0.42455 0.46635
 N51 N -0.00078 0.46023 0.46064
 C52 C -0.00036 0.40686 0.49941
 C53 C -0.00838 0.42644 0.53239
 C54 C -0.02441 0.41198 0.56335
 C55 C -0.02470 0.43889 0.59010
 C56 C -0.00882 0.46900 0.57471
 N57 N 0.00078 0.46131 0.53948
 C58 C -0.00067 0.50146 0.59380
 H59 H 0.03515 0.56571 0.61823
 H60 H 0.03751 0.61601 0.56840
 H61 H 0.01663 0.47744 0.52268
 H62 H -0.03846 0.61609 0.43778
 H63 H -0.03722 0.56472 0.38665
 H64 H 0.03055 0.42991 0.38029
 H65 H 0.02965 0.37935 0.43044
 H66 H -0.03514 0.43640 0.61779
 H67 H 0.02017 0.52333 0.47743
 H68 H -0.03465 0.38481 0.56646
 C69 C 0.41017 -0.02541 0.56228
 C70 C 0.43630 -0.02647 0.58846
 C71 C 0.46640 -0.00888 0.57428
 N72 N 0.45971 0.00203 0.53997
 C73 C 0.42532 -0.00786 0.53275
 C74 C 0.49883 -0.00114 0.59296
 C75 C 0.53077 0.00824 0.57296
 C76 C 0.55846 0.02943 0.58625
 C77 C 0.58523 0.02985 0.55942
 C78 C 0.57333 0.00891 0.53031
 N79 N 0.53962 -0.00337 0.53841
 C80 C 0.59392 0.00026 0.49776
 C81 C 0.57578 -0.00732 0.46482
 C82 C 0.59117 -0.02435 0.43361
 C83 C 0.56494 -0.02333 0.40752
 C84 C 0.53422 -0.00637 0.42376
 N85 N 0.54074 0.00319 0.45880
 C86 C 0.50135 0.00185 0.40595
 C87 C 0.46846 0.01027 0.42564
 C88 C 0.43739 0.02655 0.41133
 C89 C 0.41054 0.02622 0.43823
 C90 C 0.42601 0.00974 0.46816
 N91 N 0.46141 0.00049 0.46041
 C92 C 0.40695 0.00064 0.50047
 H93 H 0.38334 -0.03687 0.56451
 H94 H 0.43341 -0.03948 0.61454
 H95 H 0.47843 -0.01563 0.47633
 H96 H 0.55912 0.04382 0.61230
 H97 H 0.61028 0.04461 0.56103
 H98 H 0.61813 -0.03696 0.42991
 H99 H 0.56796 -0.03444 0.37998
 H100 H 0.38270 0.03656 0.43581
 H101 H 0.52513 -0.02176 0.52268
 H102 H 0.43422 0.03719 0.38421
 O103 O 0.47127 -0.00009 -0.05085
 O104 O 0.47133 0.00089 0.04971
 O105 O 0.47136 0.05068 -0.00003
 O106 O 0.47119 -0.04989 -0.00108
 O107 O 0.53158 -0.05199 -0.00262
 O108 O 0.53175 0.04864 -0.00157
 O109 O 0.53172 -0.00118 0.04818
 O110 O 0.53166 -0.00215 -0.05240
 Cu111 Cu 0.46523 0.00060 -0.00041
 Cu112 Cu 0.53773 -0.00188 -0.00226
 C113 C 0.50144 -0.00126 -0.06873
 C114 C 0.50153 0.00001 0.06605
 C115 C 0.50158 0.06677 -0.00061
 C116 C 0.50134 -0.06805 -0.00199
 O117 O -0.05192 0.53128 1.00197
 O118 O 0.04872 0.53146 1.00089
 O119 O -0.00097 0.53143 0.95117
 O120 O -0.00224 0.53130 1.05169
 O121 O -0.00016 0.47095 1.05031
 O122 O 0.00111 0.47108 0.94981
 O123 O 0.05078 0.47111 0.99952
 O124 O -0.04982 0.47092 1.00059
 Cu125 Cu -0.00181 0.53743 1.00157
 Cu126 Cu 0.00069 0.46495 0.99992
 C127 C -0.06798 0.50106 1.00142
 C128 C 0.06686 0.50132 1.00006
 C129 C 0.00025 0.50127 0.93340
 C130 C -0.00138 0.50110 1.06809
 O131 O 0.00134 -0.05094 0.47036
 O132 O -0.00039 0.04956 0.47014
 O133 O 0.05077 -0.00138 0.47033
 O134 O -0.04983 0.00001 0.47022
 O135 O -0.05142 0.00143 0.53056
 O136 O 0.04920 0.00004 0.53067
 O137 O -0.00197 0.05099 0.53048
 O138 O -0.00023 -0.04952 0.53070
 Cu139 Cu 0.00062 -0.00083 0.46420
 Cu140 Cu -0.00127 0.00088 0.53667
 C141 C 0.00082 -0.06732 0.50057
 C142 C -0.00143 0.06737 0.50028
 C143 C 0.06709 -0.00087 0.50052
 C144 C -0.06773 0.00092 0.50036
 N145 N -0.31078 0.46827 1.00756
 C146 C -0.29333 0.49960 1.00103
 N147 N -0.31332 0.53032 0.99415
 N148 N -0.34967 0.52968 0.99377
 C149 C -0.36755 0.49833 1.00020
 N150 N -0.34712 0.46770 1.00717
 C151 C -0.25416 0.50017 1.00132
 C152 C -0.22125 0.50049 1.00151
 C153 C -0.18207 0.50067 1.00166
 N154 N -0.16448 0.53269 1.00238
 N155 N -0.12808 0.53282 1.00237
 C156 C -0.10807 0.50094 1.00164
 N157 N -0.12578 0.46893 1.00094
 N158 N -0.16217 0.46880 1.00095
 N159 N 0.31217 0.49996 0.96893
 C160 C 0.29225 0.50147 1.00064
 N161 N 0.30981 0.50291 1.03279
 N162 N 0.34619 0.50288 1.03322
 C163 C 0.36617 0.50140 1.00150
 N164 N 0.34856 0.49992 0.96934
 C165 C 0.25307 0.50148 1.00022
 C166 C 0.22015 0.50148 0.99995
 C167 C 0.18096 0.50145 0.99976
 N168 N 0.16328 0.46949 0.99904
 N169 N 0.12689 0.46945 0.99906
 C170 C 0.10696 0.50137 0.99981
 N171 N 0.12475 0.53334 1.00052
 N172 N 0.16114 0.53338 1.00049
 N173 N 0.00897 -0.31227 0.47023
 C174 C 0.00189 -0.29246 0.50134
 N175 N -0.00544 -0.31005 0.53268
 N176 N -0.00568 -0.34640 0.53288
 C177 C 0.00140 -0.36665 0.50181
 N178 N 0.00873 -0.34861 0.47049
 C179 C 0.00202 -0.25333 0.50110
 C180 C 0.00204 -0.22045 0.50095
 C181 C 0.00194 -0.18131 0.50084
 N182 N 0.00097 -0.16182 0.53273
 N183 N 0.00068 -0.12545 0.53265
 C184 C 0.00135 -0.10737 0.50066
 N185 N 0.00234 -0.12697 0.46877
 N186 N 0.00263 -0.16335 0.46886
 N187 N 0.01676 0.31104 0.52553
 C188 C -0.00156 0.29248 0.49975
 N189 N -0.01950 0.31133 0.47385
 N190 N -0.01911 0.34768 0.47371
 C191 C -0.00073 0.36640 0.49945
 N192 N 0.01716 0.34739 0.52539
 C193 C -0.00188 0.25336 0.49984
 C194 C -0.00206 0.22048 0.49992
 C195 C -0.00216 0.18135 0.50001
 N196 N -0.00292 0.16338 0.53199
 N197 N -0.00278 0.12701 0.53208
 C198 C -0.00186 0.10741 0.50018
 N199 N -0.00112 0.12550 0.46820
 N200 N -0.00127 0.16187 0.46812
 N201 N 0.46841 0.00332 -0.31143
 C202 C 0.50034 -0.00161 -0.29403
 N203 N 0.53176 -0.00639 -0.31407
 N204 N 0.53121 -0.00627 -0.35042
 C205 C 0.49927 -0.00140 -0.36826
 N206 N 0.46792 0.00344 -0.34778
 C207 C 0.50085 -0.00171 -0.25487
 C208 C 0.50110 -0.00175 -0.22196
 C209 C 0.50123 -0.00174 -0.18278
 N210 N 0.53323 -0.00278 -0.16491
 N211 N 0.53331 -0.00267 -0.12853
 C212 C 0.50138 -0.00152 -0.10881
 N213 N 0.46938 -0.00049 -0.12681
 N214 N 0.46931 -0.00060 -0.16318
 N215 N 0.52851 0.01757 0.30977
 C216 C 0.50147 0.00139 0.29140
 N217 N 0.47438 -0.01463 0.31049
 N218 N 0.47434 -0.01448 0.34687
 C219 C 0.50137 0.00171 0.36542
 N220 N 0.52846 0.01773 0.34615
 C221 C 0.50151 0.00122 0.25222
 C222 C 0.50154 0.00106 0.21930
 C223 C 0.50155 0.00084 0.18011
 N224 N 0.53351 -0.00037 0.16058
 N225 N 0.53351 -0.00062 0.12420
 C226 C 0.50154 0.00034 0.10614
 N227 N 0.46958 0.00157 0.12579
 N228 N 0.46958 0.00181 0.16217
 N229 N 0.53084 -0.31380 -0.00819
 C230 C 0.49973 -0.29338 -0.00206
 N231 N 0.46798 -0.31040 0.00429
 N232 N 0.46738 -0.34674 0.00446
 C233 C 0.49841 -0.36760 -0.00175
 N234 N 0.53017 -0.35014 -0.00801
 C235 C 0.50036 -0.25421 -0.00224
 C236 C 0.50071 -0.22131 -0.00234
 C237 C 0.50091 -0.18212 -0.00239
 N238 N 0.46903 -0.16221 -0.00155
 N239 N 0.46918 -0.12584 -0.00148
 C240 C 0.50122 -0.10814 -0.00224
 N241 N 0.53311 -0.12817 -0.00309
 N242 N 0.53296 -0.16455 -0.00317
 N243 N 0.50223 0.31057 -0.03015
 C244 C 0.50153 0.29220 0.00160
 N245 N 0.50072 0.31131 0.03372
 N246 N 0.50065 0.34770 0.03409
 C247 C 0.50139 0.36613 0.00233
 N248 N 0.50216 0.34696 -0.02980
 C249 C 0.50160 0.25299 0.00122
 C250 C 0.50163 0.22006 0.00090
 C251 C 0.50164 0.18086 0.00053
 N252 N 0.46967 0.16316 0.00116
 N253 N 0.46965 0.12678 0.00080
 C254 C 0.50161 0.10687 -0.00020
 N255 N 0.53359 0.12468 -0.00083
 N256 N 0.53359 0.16107 -0.00047
 N257 N -0.31276 -0.00432 0.53030
 C258 C -0.29307 0.00123 0.49926
 N259 N -0.31082 0.00647 0.46771
 N260 N -0.34717 0.00615 0.46723
 C261 C -0.36730 0.00054 0.49819
 N262 N -0.34912 -0.00463 0.52975
 C263 C -0.25391 0.00142 0.49974
 C264 C -0.22100 0.00152 0.49999
 C265 C -0.18182 0.00155 0.50012
 N266 N -0.16221 0.00075 0.46823
 N267 N -0.12581 0.00061 0.46831
 C268 C -0.10782 0.00128 0.50029
 N269 N -0.12755 0.00210 0.53219
 N270 N -0.16395 0.00224 0.53210
 N271 N 0.30984 0.01528 0.52867
 C272 C 0.29244 -0.00078 0.50065
 N273 N 0.31248 -0.01641 0.47257
 N274 N 0.34886 -0.01599 0.47252
 C275 C 0.36643 0.00011 0.50054
 N276 N 0.34621 0.01572 0.52863
 C277 C 0.25327 -0.00112 0.50064
 C278 C 0.22035 -0.00131 0.50063
 C279 C 0.18118 -0.00142 0.50061
 N280 N 0.16162 -0.00062 0.53253
 N281 N 0.12522 -0.00052 0.53251
 C282 C 0.10718 -0.00122 0.50056
 N283 N 0.12686 -0.00204 0.46863
 N284 N 0.16325 -0.00214 0.46866
 N285 N 0.01670 0.52636 1.31205
 C286 C -0.00097 0.50033 1.29323
 N287 N -0.01809 0.47393 1.31182
 N288 N -0.01752 0.47355 1.34816
 C289 C 0.00026 0.49951 1.36714
 N290 N 0.01728 0.52599 1.34838
 C291 C -0.00139 0.50060 1.25410
 C292 C -0.00164 0.50075 1.22122
 C293 C -0.00181 0.50086 1.18208
 N294 N -0.00069 0.46896 1.16260
 N295 N -0.00063 0.46903 1.12623
 C296 C -0.00168 0.50102 1.10814
 N297 N -0.00282 0.53293 1.12774
 N298 N -0.00288 0.53285 1.16411
 N299 N -0.01679 0.52911 0.69063
 C300 C 0.00019 0.50143 0.70825
 N301 N 0.01688 0.47376 0.68844
 N302 N 0.01661 0.47375 0.65208
 C303 C -0.00039 0.50142 0.63429
 N304 N -0.01708 0.52911 0.65428
 C305 C 0.00044 0.50141 0.74739
 C306 C 0.00060 0.50140 0.78027
 C307 C 0.00070 0.50137 0.81942
 N308 N 0.00177 0.46941 0.83743
 N309 N 0.00170 0.46938 0.87380
 C310 C 0.00055 0.50131 0.89335
 N311 N -0.00051 0.53328 0.87522
 N312 N -0.00044 0.53330 0.83885
   
