data_POSCAR
  _audit_creation_date              2014-09-24
  _audit_creation_method            'ToBaCCo'
  _symmetry_space_group_name_H-M    'P1'
  _symmetry_Int_Tables_number       1
  _symmetry_cell_setting            triclinic
  loop_
  _symmetry_equiv_pos_as_xyz
 x,y,z
_cell_length_a 36.3079
_cell_length_b 35.6163
_cell_length_c 34.4909
_cell_angle_alpha 92.447400
_cell_angle_beta 87.463400
_cell_angle_gamma 89.812200
loop_
  _atom_site_label
  _atom_site_type_symbol
  _atom_site_fract_x
  _atom_site_fract_y
  _atom_site_fract_z
C1 C 0.76188 0.67110 1.05799
 C2 C 0.76908 0.65171 1.01753
 C3 C 0.73791 0.63803 1.00131
 C4 C 0.70276 0.64468 1.02704
 C5 C 0.73232 0.70099 1.05209
 C6 C 0.70150 0.68721 1.03594
 C7 C 0.74196 0.64150 1.08201
 C8 C 0.71118 0.62745 1.06573
 H9 H 0.79593 0.64986 1.00270
 H10 H 0.67720 0.63368 1.01444
 H11 H 0.73611 0.73065 1.05895
 H12 H 0.75219 0.63168 1.10883
 C13 C 0.78837 0.35244 0.48836
 C14 C 0.78987 0.37646 0.52598
 C15 C 0.76160 0.40149 0.53193
 C16 C 0.73424 0.40034 0.49902
 C17 C 0.75012 0.33411 0.49030
 C18 C 0.72174 0.35919 0.49576
 C19 C 0.78635 0.38084 0.45625
 C20 C 0.75791 0.40566 0.46168
 H21 H 0.81109 0.37282 0.54660
 H22 H 0.71153 0.42114 0.50338
 H23 H 0.74604 0.30405 0.48712
 H24 H 0.80343 0.37933 0.42974
 C25 C 0.26948 -0.16588 -0.04635
 C26 C 0.27611 -0.14920 -0.00778
 C27 C 0.24299 -0.13575 0.01305
 C28 C 0.20976 -0.14206 -0.00917
 C29 C 0.24237 -0.19519 -0.03979
 C30 C 0.20932 -0.18240 -0.01955
 C31 C 0.25025 -0.13699 -0.06611
 C32 C 0.21718 -0.12358 -0.04598
 H33 H 0.30309 -0.14683 0.00406
 H34 H 0.18385 -0.13250 0.00597
 H35 H 0.24769 -0.22457 -0.04762
 H36 H 0.26089 -0.12579 -0.09306
 C37 C 0.28678 0.14312 0.52968
 C38 C 0.29509 0.12773 0.48782
 C39 C 0.26485 0.11246 0.47089
 C40 C 0.22964 0.11339 0.49761
 C41 C 0.25440 0.17040 0.52674
 C42 C 0.22442 0.15499 0.51027
 C43 C 0.27056 0.10989 0.55095
 C44 C 0.24059 0.09440 0.53467
 H45 H 0.32148 0.13051 0.47241
 H46 H 0.20516 0.10064 0.48427
 H47 H 0.25567 0.19969 0.53638
 H48 H 0.28156 0.10016 0.57746
 C49 C 0.16534 0.50782 0.30297
 C50 C 0.14711 0.46925 0.30484
 C51 C 0.13154 0.45710 0.27144
 C52 C 0.13612 0.48490 0.23869
 C53 C 0.19281 0.50446 0.26817
 C54 C 0.17776 0.49251 0.23454
 C55 C 0.13502 0.53416 0.29006
 C56 C 0.11962 0.52200 0.25642
 H57 H 0.14512 0.45406 0.33136
 H58 H 0.12423 0.47544 0.21091
 H59 H 0.22171 0.51141 0.27014
 H60 H 0.12639 0.55980 0.30587
 C61 C -0.13504 -0.02465 0.27639
 C62 C -0.11367 0.01153 0.28655
 C63 C -0.08748 0.02043 0.25889
 C64 C -0.08472 -0.00810 0.22436
 C65 C -0.15024 -0.01795 0.23640
 C66 C -0.12372 -0.00968 0.20913
 C67 C -0.10690 -0.05378 0.26927
 C68 C -0.07872 -0.04424 0.24121
 H69 H -0.11963 0.02885 0.31265
 H70 H -0.06416 -0.00097 0.20130
 H71 H -0.17913 -0.02037 0.23012
 H72 H -0.10563 -0.07914 0.28529
 C73 C 0.38509 0.50659 0.77768
 C74 C 0.41313 0.53756 0.78643
 C75 C 0.43660 0.54516 0.75584
 C76 C 0.42990 0.52051 0.71919
 C77 C 0.36568 0.51952 0.74198
 C78 C 0.38903 0.52678 0.71134
 C79 C 0.40843 0.47247 0.76259
 C80 C 0.43205 0.47989 0.73219
 H81 H 0.41346 0.55256 0.81436
 H82 H 0.44872 0.52615 0.69407
 H83 H 0.33601 0.52210 0.74101
 H84 H 0.40689 0.44509 0.77493
 C85 C 0.69570 1.01545 0.76792
 C86 C 0.66565 0.98813 0.78108
 C87 C 0.63471 0.98903 0.76003
 C88 C 0.63685 1.01812 0.72791
 C89 C 0.70285 1.00488 0.72455
 C90 C 0.67184 1.00620 0.70353
 C91 C 0.67797 1.05189 0.76939
 C92 C 0.64584 1.05384 0.74750
 H93 H 0.67009 0.96791 0.80295
 H94 H 0.61162 1.01922 0.71109
 H95 H 0.72917 0.99475 0.71229
 H96 H 0.69009 1.07632 0.78352
 C97 C -0.00317 0.32212 -0.14783
 C98 C 0.03226 0.32450 -0.12520
 C99 C 0.04417 0.29095 -0.11277
 C100 C 0.01886 0.25805 -0.12370
 C101 C 0.00506 0.29246 -0.18041
 C102 C 0.01663 0.25888 -0.16805
 C103 C -0.03148 0.30365 -0.12028
 C104 C -0.01965 0.27023 -0.10735
 H105 H 0.04671 0.35065 -0.12013
 H106 H 0.02779 0.23056 -0.11364
 H107 H 0.00173 0.29798 -0.21066
 H108 H -0.05733 0.31662 -0.11016
 C109 C 0.51679 0.25634 0.14502
 C110 C 0.48985 0.27370 0.11768
 C111 C 0.48279 0.25127 0.08596
 C112 C 0.50357 0.21355 0.08446
 C113 C 0.49925 0.21841 0.15484
 C114 C 0.49262 0.19582 0.12305
 C115 C 0.55127 0.24598 0.11938
 C116 C 0.54459 0.22317 0.08781
 H117 H 0.47621 0.30047 0.12400
 H118 H 0.49728 0.19570 0.05878
 H119 H 0.49298 0.21016 0.18422
 H120 H 0.57875 0.25380 0.12749
 C121 C 0.97370 0.80807 0.65394
 C122 C 0.94850 0.80476 0.62243
 C123 C 0.93948 0.76691 0.61118
 C124 C 0.95902 0.73926 0.63309
 C125 C 0.95728 0.78664 0.68513
 C126 C 0.94917 0.74853 0.67404
 C127 C 1.00632 0.78670 0.63967
 C128 C 0.99848 0.74832 0.62823
 H129 H 0.93837 0.82892 0.60810
 H130 H 0.95236 0.71018 0.62419
 H131 H 0.95212 0.79872 0.71420
 H132 H 1.03362 0.79867 0.63723
 C133 C 0.46483 0.77849 0.34536
 C134 C 0.50166 0.78019 0.36537
 C135 C 0.50727 0.75165 0.38951
 C136 C 0.47503 0.72384 0.39162
 C137 C 0.46405 0.73949 0.32517
 C138 C 0.46943 0.71091 0.34920
 C139 C 0.43550 0.77686 0.37870
 C140 C 0.44095 0.74842 0.40297
 H141 H 0.52115 0.80270 0.36104
 H142 H 0.47883 0.70016 0.41093
 H143 H 0.45982 0.73500 0.29442
 H144 H 0.41273 0.79643 0.38321
 C145 C 0.42041 -0.04883 0.24380
 H146 H 0.43452 -0.02537 0.23108
 C147 C 0.44077 -0.07902 0.25628
 H148 H 0.47056 -0.07843 0.25322
 C149 C 0.36451 -0.07801 0.26372
 H150 H 0.33469 -0.07743 0.26609
 C151 C 0.38376 -0.10843 0.27711
 H152 H 0.36856 -0.13138 0.28966
 N153 N 0.38298 -0.04901 0.24756
 C154 C 0.38571 0.06173 0.21853
 H155 H 0.37008 0.07000 0.24488
 C156 C 0.40700 0.08850 0.19946
 H157 H 0.40687 0.11713 0.21126
 C158 C 0.40462 0.01463 0.17129
 H159 H 0.40402 -0.01422 0.16054
 C160 C 0.42638 0.04039 0.15143
 H161 H 0.44223 0.03056 0.12572
 Zn162 Zn 0.35395 -0.01004 0.22936
 N163 N 0.38449 0.02563 0.20401
 C164 C 0.30258 0.04170 0.26765
 N165 N 0.32815 0.01457 0.27290
 C166 C 0.33850 0.00682 0.30923
 C167 C 0.32273 0.02626 0.34192
 C168 C 0.28562 0.06134 0.29964
 C169 C 0.33875 -0.05876 0.16680
 C170 C 0.31875 -0.07685 0.13789
 C171 C 0.26437 -0.04344 0.16305
 C172 C 0.28548 -0.02600 0.19166
 N173 N 0.32223 -0.03329 0.19258
 H174 H 0.29601 0.04883 0.23859
 H175 H 0.35970 -0.01386 0.31300
 H176 H 0.33130 0.01955 0.37050
 H177 H 0.26544 0.08289 0.29481
 H178 H 0.36760 -0.06549 0.16891
 H179 H 0.33282 -0.09694 0.11797
 H180 H 0.23544 -0.03634 0.16256
 H181 H 0.27234 -0.00658 0.21282
 C182 C 0.42743 0.07807 0.16514
 C183 C 0.42237 -0.10926 0.27318
 C184 C 0.28104 -0.06908 0.13536
 C185 C 0.29578 0.05376 0.33735
 C186 C 0.06216 1.06886 0.79234
 H187 H 0.05160 1.04668 0.81013
 C188 C 0.04805 1.10534 0.79826
 H189 H 0.02689 1.11112 0.82085
 C190 C 0.10176 1.08831 0.74064
 H191 H 0.12289 1.08187 0.71834
 C192 C 0.08802 1.12486 0.74510
 H193 H 0.09907 1.14607 0.72633
 N194 N 0.08895 1.06112 0.76421
 C195 C 0.08424 0.94027 0.73984
 H196 H 0.11268 0.93291 0.74347
 C197 C 0.06051 0.91325 0.72495
 H198 H 0.07143 0.88531 0.71869
 C199 C 0.03717 0.98650 0.74169
 H200 H 0.02865 1.01545 0.74656
 C201 C 0.01234 0.96031 0.72693
 H202 H -0.01511 0.97011 0.72183
 Zn203 Zn 0.10962 1.01208 0.75601
 N204 N 0.07258 0.97625 0.74701
 C205 C 0.16002 0.96831 0.79524
 N206 N 0.13582 0.99757 0.79968
 C207 C 0.12592 1.01250 0.83565
 C208 C 0.13818 0.99625 0.86890
 C209 C 0.17313 0.95130 0.82775
 C210 C 0.12091 1.00405 0.67638
 C211 C 0.13788 1.00885 0.63999
 C212 C 0.19315 1.02822 0.67162
 C213 C 0.17507 1.02278 0.70768
 N214 N 0.13933 1.01146 0.70933
 H215 H 0.16788 0.95704 0.76645
 H216 H 0.10723 1.03605 0.83893
 H217 H 0.12901 1.00799 0.89715
 H218 H 0.19092 0.92692 0.82340
 H219 H 0.09220 0.99624 0.67819
 H220 H 0.12178 1.00436 0.61459
 H221 H 0.22124 1.03828 0.67083
 H222 H 0.18892 1.02923 0.73426
 C223 C 0.02414 0.92319 0.71700
 C224 C 0.06103 1.13378 0.77434
 C225 C 0.17413 1.02206 0.63719
 C226 C 0.16111 0.96445 0.86522
 C227 C 0.56116 0.53891 0.32430
 H228 H 0.58144 0.53088 0.34437
 C229 C 0.53681 0.56852 0.33497
 H230 H 0.53821 0.58226 0.36346
 C231 C 0.53621 0.53281 0.26213
 H232 H 0.53746 0.52054 0.23298
 C233 C 0.51132 0.56199 0.27163
 H234 H 0.49340 0.57096 0.24954
 N235 N 0.56053 0.52173 0.28828
 C236 C 0.59174 0.40722 0.27172
 H237 H 0.61339 0.41003 0.29207
 C238 C 0.58013 0.37129 0.26009
 H239 H 0.59302 0.34718 0.27200
 C240 C 0.55068 0.43488 0.22971
 H241 H 0.53988 0.45949 0.21698
 C242 C 0.53849 0.39943 0.21700
 H243 H 0.51782 0.39750 0.19535
 Zn244 Zn 0.59748 0.48652 0.26959
 N245 N 0.57716 0.43828 0.25639
 C246 C 0.62403 0.46867 0.34274
 N247 N 0.63392 0.48109 0.30703
 C248 C 0.66981 0.48789 0.29688
 C249 C 0.69743 0.48170 0.32280
 C250 C 0.65077 0.46220 0.36965
 C251 C 0.62214 0.48668 0.19003
 C252 C 0.63620 0.50328 0.15656
 C253 C 0.64599 0.56051 0.19482
 C254 C 0.63132 0.54300 0.22743
 N255 N 0.61959 0.50681 0.22446
 H256 H 0.59535 0.46301 0.35002
 H257 H 0.67733 0.49716 0.26821
 H258 H 0.72566 0.48658 0.31325
 H259 H 0.64201 0.45202 0.39764
 H260 H 0.61306 0.45783 0.18835
 H261 H 0.63789 0.48689 0.12938
 H262 H 0.65459 0.58953 0.19767
 H263 H 0.62878 0.55839 0.25515
 C264 C 0.55349 0.36700 0.23198
 C265 C 0.51170 0.58067 0.30827
 C266 C 0.64810 0.54074 0.15871
 C267 C 0.68822 0.46817 0.35967
 C268 C 0.86621 0.45357 0.79559
 H269 H 0.83710 0.44714 0.79715
 C270 C 0.89189 0.42728 0.80691
 H271 H 0.88223 0.40047 0.81681
 C272 C 0.91402 0.49615 0.77985
 H273 H 0.92267 0.52282 0.76889
 C274 C 0.94052 0.47082 0.79088
 H275 H 0.96918 0.47895 0.78888
 N276 N 0.87765 0.48730 0.78256
 C277 C 0.86447 0.57914 0.71526
 H278 H 0.85083 0.56285 0.69306
 C279 C 0.88012 0.61370 0.70637
 H280 H 0.87846 0.62359 0.67726
 C281 C 0.88159 0.58718 0.78062
 H282 H 0.88173 0.57670 0.80959
 C283 C 0.89726 0.62189 0.77311
 H284 H 0.90992 0.63768 0.79644
 Zn285 Zn 0.84216 0.52207 0.76723
 N286 N 0.86557 0.56662 0.75192
 C287 C 0.81906 0.52820 0.84652
 N288 N 0.81037 0.53692 0.80997
 C289 C 0.78275 0.56157 0.80390
 C290 C 0.76229 0.57820 0.83528
 C291 C 0.79991 0.54497 0.87879
 C292 C 0.83845 0.48746 0.69405
 C293 C 0.82262 0.47258 0.66069
 C294 C 0.76245 0.48237 0.69225
 C295 C 0.77951 0.49695 0.72521
 N296 N 0.81687 0.49993 0.72518
 H297 H 0.84204 0.50971 0.85080
 H298 H 0.77753 0.56938 0.77467
 H299 H 0.74081 0.59824 0.82994
 H300 H 0.80759 0.53841 0.90772
 H301 H 0.86811 0.48984 0.69493
 H302 H 0.84049 0.46375 0.63603
 H303 H 0.73271 0.48034 0.69281
 H304 H 0.76282 0.50603 0.75059
 C305 C 0.89634 0.63569 0.73569
 C306 C 0.92967 0.43573 0.80443
 C307 C 0.78410 0.47026 0.65928
 C308 C 0.77131 0.57044 0.87324
 C309 C 0.32442 0.40578 -0.06105
 H310 H 0.34281 0.38599 -0.04901
 C311 C 0.33774 0.42800 -0.09090
 H312 H 0.36612 0.42468 -0.10150
 C313 C 0.26595 0.43535 -0.06101
 H314 H 0.23811 0.43854 -0.04910
 C315 C 0.27829 0.45848 -0.09056
 H316 H 0.25941 0.47866 -0.10147
 N317 N 0.28883 0.40924 -0.04711
 C318 C 0.23371 0.39075 0.06485
 H319 H 0.22564 0.36169 0.06078
 C320 C 0.22212 0.41134 0.09858
 H321 H 0.20541 0.39774 0.12058
 C322 C 0.26619 0.44334 0.04129
 H323 H 0.28354 0.45557 0.01894
 C324 C 0.25546 0.46486 0.07468
 H325 H 0.26441 0.49376 0.07741
 Zn326 Zn 0.27074 0.37738 -0.00742
 N327 N 0.25544 0.40694 0.03717
 C328 C 0.32294 0.34759 0.04167
 N329 N 0.30923 0.34429 0.00562
 C330 C 0.32476 0.32014 -0.02209
 C331 C 0.35589 0.29902 -0.01441
 C332 C 0.35396 0.32690 0.05065
 C333 C 0.19744 0.37117 -0.02783
 C334 C 0.16546 0.35419 -0.04085
 C335 C 0.19764 0.29467 -0.04553
 C336 C 0.22916 0.31289 -0.03246
 N337 N 0.22875 0.35068 -0.02463
 H338 H 0.31054 0.36715 0.06328
 H339 H 0.31389 0.31849 -0.05081
 H340 H 0.36803 0.28102 -0.03755
 H341 H 0.36439 0.33056 0.07943
 H342 H 0.19704 0.40077 -0.01963
 H343 H 0.14099 0.37126 -0.04300
 H344 H 0.19891 0.26477 -0.05241
 H345 H 0.25383 0.29672 -0.02874
 C346 C 0.23338 0.44879 0.10398
 C347 C 0.31452 0.45467 -0.10612
 C348 C 0.16533 0.31549 -0.05027
 C349 C 0.37134 0.30257 0.02226
 C350 C 0.81327 0.05496 1.02264
 H351 H 0.81366 0.04620 0.99233
 C352 C 0.82828 0.03127 1.04903
 H353 H 0.84006 0.00455 1.03860
 C354 C 0.79775 0.10018 1.07315
 H355 H 0.78632 0.12743 1.08214
 C356 C 0.81202 0.07709 1.10066
 H357 H 0.81170 0.08687 1.13082
 N358 N 0.79938 0.08918 1.03485
 C359 C 0.74179 0.09347 0.93713
 H360 H 0.71859 0.10601 0.95344
 C361 C 0.73566 0.07333 0.90264
 H362 H 0.70771 0.07104 0.89321
 C363 C 0.80617 0.08341 0.92835
 H364 H 0.83364 0.08768 0.93861
 C365 C 0.80128 0.06317 0.89326
 H366 H 0.82507 0.05183 0.87666
 Zn367 Zn 0.78330 0.12337 0.99839
 N368 N 0.77650 0.09740 0.94992
 C369 C 0.81967 0.18073 0.95783
 N370 N 0.81998 0.16031 0.99028
 C371 C 0.84897 0.16193 1.01391
 C372 C 0.87995 0.18317 1.00428
 C373 C 0.85037 0.20218 0.94690
 C374 C 0.71155 0.11909 1.02815
 C375 C 0.67542 0.13076 1.03707
 C376 C 0.69435 0.19498 1.02849
 C377 C 0.73018 0.18190 1.01862
 N378 N 0.73769 0.14437 1.01758
 H379 H 0.79648 0.17857 0.93923
 H380 H 0.84890 0.14547 1.03945
 H381 H 0.90284 0.18327 1.02331
 H382 H 0.85035 0.21656 0.91989
 H383 H 0.71840 0.08947 1.02743
 H384 H 0.65451 0.11003 1.04352
 H385 H 0.68812 0.22469 1.02783
 H386 H 0.75153 0.20149 1.01039
 C387 C 0.76553 0.05749 0.88037
 C388 C 0.82835 0.04257 1.08843
 C389 C 0.66639 0.16896 1.03651
 C390 C 0.88159 0.20249 0.96961
 C391 C 0.29879 0.61506 0.54924
 H392 H 0.30508 0.62269 0.51966
 C393 C 0.32497 0.59595 0.56918
 H394 H 0.35122 0.58967 0.55438
 C395 C 0.25680 0.61549 0.60377
 H396 H 0.23029 0.62351 0.61715
 C397 C 0.28230 0.59601 0.62489
 H398 H 0.27476 0.58898 0.65438
 N399 N 0.26539 0.62422 0.56646
 C400 C 0.19993 0.62966 0.46418
 H401 H 0.18985 0.65833 0.46582
 C402 C 0.19241 0.60599 0.43213
 H403 H 0.17684 0.61690 0.40902
 C404 C 0.23289 0.58097 0.49220
 H405 H 0.24806 0.57091 0.51590
 C406 C 0.22580 0.55638 0.46102
 H407 H 0.23576 0.52778 0.46153
 Zn408 Zn 0.23440 0.65063 0.53396
 N409 N 0.22112 0.61726 0.49264
 C410 C 0.27152 0.69229 0.47567
 N411 N 0.26443 0.68986 0.51457
 C412 C 0.28654 0.70708 0.54067
 C413 C 0.31936 0.72399 0.52803
 C414 C 0.30358 0.70972 0.46178
 C415 C 0.16723 0.64018 0.57265
 C416 C 0.13141 0.64876 0.58649
 C417 C 0.14319 0.71417 0.57522
 C418 C 0.17905 0.70428 0.56153
 N419 N 0.19004 0.66766 0.55996
 H420 H 0.25436 0.67785 0.45521
 H421 H 0.28079 0.70409 0.57143
 H422 H 0.33811 0.73491 0.54926
 H423 H 0.31003 0.70883 0.43081
 H424 H 0.17651 0.61123 0.57057
 H425 H 0.11385 0.62614 0.59599
 H426 H 0.13443 0.74322 0.57494
 H427 H 0.19748 0.72557 0.55061
 C428 C 0.20626 0.56904 0.42986
 C429 C 0.31698 0.58583 0.60751
 C430 C 0.11853 0.68601 0.58698
 C431 C 0.32894 0.72383 0.48817
 C432 C 0.74648 0.91227 0.44124
 H433 H 0.73183 0.92505 0.46633
 C434 C 0.76080 0.93516 0.41255
 H435 H 0.75689 0.96526 0.41616
 C436 C 0.77097 0.85796 0.40720
 H437 H 0.77511 0.82783 0.40566
 C438 C 0.78616 0.87993 0.37793
 H439 H 0.80160 0.86641 0.35362
 N440 N 0.75165 0.87440 0.43813
 C441 C 0.73710 0.88352 0.55295
 H442 H 0.76307 0.86922 0.55555
 C443 C 0.72493 0.90976 0.58199
 H444 H 0.74204 0.91517 0.60646
 C445 C 0.68393 0.89418 0.51752
 H446 H 0.66832 0.88815 0.49202
 C447 C 0.67065 0.92049 0.54593
 H448 H 0.64441 0.93387 0.54201
 Zn449 Zn 0.73471 0.84449 0.47940
 N450 N 0.71689 0.87676 0.52117
 C451 C 0.80726 0.83531 0.49838
 N452 N 0.77520 0.81615 0.49509
 C453 C 0.77272 0.77934 0.50397
 C454 C 0.80284 0.76108 0.51902
 C455 C 0.83792 0.81821 0.51300
 C456 C 0.68358 0.81431 0.42724
 C457 C 0.65156 0.79547 0.41704
 C458 C 0.64453 0.77436 0.48257
 C459 C 0.67664 0.79380 0.49159
 N460 N 0.69525 0.81348 0.46411
 H461 H 0.80862 0.86442 0.49067
 H462 H 0.74713 0.76442 0.50064
 H463 H 0.79982 0.73236 0.52762
 H464 H 0.86286 0.83442 0.51592
 H465 H 0.69839 0.83060 0.40598
 H466 H 0.64249 0.79700 0.38768
 H467 H 0.62950 0.75996 0.50524
 H468 H 0.68600 0.79437 0.52096
 C469 C 0.69145 0.92905 0.57855
 C470 C 0.78117 0.91910 0.38053
 C471 C 0.63124 0.77568 0.44505
 C472 C 0.83569 0.78094 0.52464
 C473 C -0.04507 0.23652 0.43307
 H474 H -0.03391 0.20899 0.43722
 C475 C -0.07787 0.24755 0.45301
 H476 H -0.09180 0.22775 0.47142
 C477 C -0.04022 0.29554 0.40433
 H478 H -0.02536 0.31446 0.38578
 C479 C -0.07295 0.30775 0.42372
 H480 H -0.08263 0.33600 0.41964
 N481 N -0.02737 0.26009 0.40851
 C482 C 0.07835 0.20301 0.39807
 H483 H 0.07825 0.19293 0.36804
 C484 C 0.10688 0.19264 0.42131
 H485 H 0.12878 0.17468 0.40876
 C486 C 0.05051 0.24005 0.45018
 H487 H 0.02866 0.25890 0.46104
 C488 C 0.07862 0.23058 0.47438
 H489 H 0.07777 0.24189 0.50402
 Zn490 Zn 0.01510 0.24202 0.37898
 N491 N 0.05112 0.22652 0.41272
 C492 C 0.07004 0.29260 0.35408
 N493 N 0.03516 0.28065 0.34786
 C494 C 0.01465 0.29644 0.32066
 C495 C 0.02911 0.32535 0.29851
 C496 C 0.08543 0.32158 0.33284
 C497 C -0.00847 0.16785 0.36547
 C498 C -0.02078 0.13665 0.34403
 C499 C -0.00982 0.17051 0.28552
 C500 C 0.00216 0.20112 0.30811
 N501 N 0.00173 0.19969 0.34748
 H502 H 0.08594 0.28000 0.37589
 H503 H -0.01322 0.28689 0.31652
 H504 H 0.01204 0.33794 0.27760
 H505 H 0.11319 0.33064 0.33843
 H506 H -0.00675 0.16643 0.39651
 H507 H -0.02892 0.11171 0.35903
 H508 H -0.01021 0.17282 0.25437
 H509 H 0.01148 0.22600 0.29398
 C510 C 0.10754 0.20695 0.45984
 C511 C -0.09257 0.28341 0.44800
 C512 C -0.02199 0.13793 0.30354
 C513 C 0.06486 0.33847 0.30474
 C514 C 1.08251 0.74308 0.10833
 H515 H 1.08817 0.74449 0.13873
 C516 C 1.10996 0.75363 0.08156
 H517 H 1.13688 0.76152 0.09147
 C518 C 1.04008 0.73430 0.05849
 H519 H 1.01247 0.72802 0.04978
 C520 C 1.06732 0.74345 0.03044
 H521 H 1.06082 0.74343 0.00010
 N522 N 1.04794 0.73487 0.09678
 C523 C 0.93720 0.75273 0.12534
 H524 H 0.94515 0.77800 0.14102
 C525 C 0.90029 0.74791 0.11713
 H526 H 0.88057 0.76954 0.12690
 C527 C 0.95297 0.69461 0.09297
 H528 H 0.97360 0.67359 0.08421
 C529 C 0.91605 0.68869 0.08394
 H530 H 0.90849 0.66301 0.06839
 Zn531 Zn 1.01025 0.73043 0.13673
 N532 N 0.96249 0.72537 0.11519
 C533 C 1.02860 0.80547 0.15395
 N534 N 1.01004 0.77563 0.16820
 C535 C 0.98789 0.77956 0.20101
 C536 C 0.98127 0.81527 0.21864
 C537 C 1.02420 0.84105 0.17153
 C538 C 0.99794 0.65816 0.16720
 C539 C 1.00825 0.62503 0.18415
 C540 C 1.06367 0.65563 0.20467
 C541 C 1.05227 0.68821 0.18729
 N542 N 1.02076 0.68841 0.16731
 H543 H 1.04486 0.80269 0.12712
 H544 H 0.97318 0.75546 0.21169
 H545 H 0.96192 0.81796 0.24339
 H546 H 1.03824 0.86383 0.15755
 H547 H 0.97207 0.65907 0.15319
 H548 H 0.99001 0.60111 0.18263
 H549 H 1.08975 0.65572 0.21866
 H550 H 1.06911 0.71303 0.18916
 C551 C 0.88904 0.71490 0.09765
 C552 C 1.10227 0.75436 0.04230
 C553 C 1.04219 0.62300 0.20190
 C554 C 0.99868 0.84698 0.20307
 C555 C 0.54012 0.28168 0.55250
 H556 H 0.51134 0.28979 0.55366
 C557 C 0.56536 0.30073 0.52896
 H558 H 0.55519 0.32234 0.51109
 C559 C 0.58811 0.24541 0.57676
 H560 H 0.59705 0.22514 0.59685
 C561 C 0.61437 0.26402 0.55392
 H562 H 0.64316 0.25716 0.55650
 N563 N 0.55196 0.25545 0.57661
 C564 C 0.45389 0.20573 0.62926
 H565 H 0.46262 0.20765 0.65886
 C566 C 0.41935 0.19143 0.62139
 H567 H 0.40187 0.18190 0.64520
 C568 C 0.46636 0.21630 0.56256
 H569 H 0.48479 0.22632 0.53987
 C570 C 0.43172 0.20207 0.55331
 H571 H 0.42345 0.20167 0.52352
 Zn572 Zn 0.51917 0.24228 0.61763
 N573 N 0.47606 0.21895 0.60027
 C574 C 0.47107 0.29957 0.65218
 N575 N 0.50670 0.28837 0.64499
 C576 C 0.53516 0.31153 0.65370
 C577 C 0.52837 0.34779 0.66943
 C578 C 0.46305 0.33547 0.66845
 C579 C 0.55051 0.17349 0.63690
 C580 C 0.56707 0.14811 0.66072
 C581 C 0.56525 0.19622 0.71229
 C582 C 0.54848 0.22041 0.68764
 N583 N 0.54208 0.20901 0.65052
 H584 H 0.44875 0.28121 0.64433
 H585 H 0.56323 0.30215 0.64730
 H586 H 0.55145 0.36590 0.67559
 H587 H 0.43455 0.34420 0.67308
 H588 H 0.54451 0.16496 0.60738
 H589 H 0.57403 0.12036 0.64862
 H590 H 0.56947 0.20659 0.74162
 H591 H 0.54056 0.24836 0.69830
 C592 C 0.40740 0.19063 0.58326
 C593 C 0.60328 0.29335 0.53093
 C594 C 0.57550 0.15950 0.69895
 C595 C 0.49193 0.36032 0.67653
 C596 C 0.45836 0.80919 0.91169
 H597 H 0.47867 0.82641 0.92588
 C598 C 0.42067 0.81564 0.92045
 H599 H 0.41264 0.83768 0.94174
 C600 C 0.44428 0.76132 0.86513
 H601 H 0.45304 0.74061 0.84291
 C602 C 0.40679 0.76736 0.87216
 H603 H 0.38823 0.74965 0.85605
 N604 N 0.46940 0.78186 0.88481
 C605 C 0.58337 0.74777 0.89977
 H606 H 0.59042 0.74208 0.86928
 C607 C 0.60813 0.73839 0.92753
 H608 H 0.63438 0.72574 0.91819
 C609 C 0.54037 0.77094 0.94882
 H610 H 0.51365 0.78278 0.95709
 C611 C 0.56485 0.76287 0.97763
 H612 H 0.55684 0.76883 1.00789
 Zn613 Zn 0.51954 0.77227 0.86887
 N614 N 0.55021 0.76366 0.91069
 C615 C 0.56790 0.83196 0.85221
 N616 N 0.53709 0.81373 0.84093
 C617 C 0.51733 0.82616 0.81139
 C618 C 0.52852 0.85807 0.79179
 C619 C 0.58012 0.86381 0.83339
 C620 C 0.51175 0.69591 0.85732
 C621 C 0.50508 0.66204 0.83729
 C622 C 0.51936 0.69218 0.77703
 C623 C 0.52569 0.72573 0.79834
 N624 N 0.52062 0.72715 0.83768
 H625 H 0.58292 0.82210 0.87616
 H626 H 0.49253 0.81153 0.80342
 H627 H 0.51199 0.86746 0.76874
 H628 H 0.60486 0.87737 0.84306
 H629 H 0.50791 0.69791 0.88863
 H630 H 0.49682 0.63791 0.85355
 H631 H 0.52161 0.69198 0.74563
 H632 H 0.53279 0.75091 0.78334
 C633 C 0.59902 0.74608 0.96697
 C634 C 0.39417 0.79497 0.89995
 C635 C 0.50770 0.66015 0.79657
 C636 C 0.56036 0.87751 0.80273
 N637 N 0.47614 -0.15347 0.27093
 N638 N 0.48673 -0.18302 0.28952
 C639 C 0.46102 -0.19038 0.31754
 C640 C 0.43250 -0.16454 0.31635
 C641 C 0.44325 -0.14157 0.28648
 H642 H 0.40765 -0.16222 0.33475
 H643 H 0.49111 -0.14218 0.24769
 H644 H 0.51134 -0.19775 0.28322
 N645 N 0.99353 0.40891 0.80216
 N646 N 1.01074 0.37952 0.81489
 C647 C 0.98666 0.35924 0.83609
 C648 C 0.95228 0.37648 0.83665
 C649 C 0.95784 0.40804 0.81472
 H650 H 0.92676 0.36694 0.85015
 H651 H 1.00612 0.42826 0.78402
 H652 H 1.03843 0.37298 0.80826
 N653 N 0.04566 1.19718 0.75118
 N654 N 0.03389 1.22997 0.76625
 C655 C 0.02764 1.22714 0.80486
 C656 C 0.03548 1.19069 0.81465
 C657 C 0.04700 1.17268 0.77978
 H658 H 0.03428 1.17910 0.84315
 H659 H 0.05275 1.19198 0.72177
 H660 H 0.03125 1.25391 0.75014
 N661 N 0.45855 0.62323 0.29680
 N662 N 0.44769 0.65769 0.30741
 C663 C 0.46971 0.67140 0.33494
 C664 C 0.49568 0.64441 0.34248
 C665 C 0.48809 0.61432 0.31706
 H666 H 0.51889 0.64774 0.36094
 H667 H 0.44634 0.60679 0.27517
 H668 H 0.42621 0.67189 0.29505
 N669 N 0.54746 0.29703 0.23601
 N670 N 0.53751 0.26822 0.21348
 C671 C 0.52564 0.28111 0.18000
 C672 C 0.52878 0.31996 0.18119
 C673 C 0.54262 0.32903 0.21728
 H674 H 0.52375 0.33870 0.15811
 H675 H 0.55787 0.29441 0.26350
 H676 H 0.54006 0.24017 0.22061
 N677 N -0.03455 0.90402 0.69025
 N678 N -0.04810 0.87204 0.67127
 C679 C -0.02062 0.84640 0.66681
 C680 C 0.01044 0.86099 0.68398
 C681 C 0.00092 0.89725 0.69809
 H682 H 0.03617 0.84625 0.68672
 H683 H -0.05055 0.92784 0.69757
 H684 H -0.07563 0.86839 0.66444
 N685 N 0.91324 0.70147 0.75512
 N686 N 0.92692 0.73144 0.73864
 C687 C 0.93399 0.72318 0.70043
 C688 C 0.92404 0.68608 0.69245
 C689 C 0.91108 0.67339 0.72794
 H690 H 0.92595 0.67020 0.66500
 H691 H 0.90494 0.70082 0.78446
 H692 H 0.93119 0.75683 0.75393
 N693 N 0.46189 0.10098 0.10617
 N694 N 0.47878 0.13177 0.09520
 C695 C 0.47718 0.15753 0.12501
 C696 C 0.45851 0.14224 0.15650
 C697 C 0.44910 0.10623 0.14334
 H698 H 0.45232 0.15568 0.18475
 H699 H 0.45880 0.07723 0.08785
 H700 H 0.49125 0.13456 0.06766
 N701 N 0.31473 0.51278 -0.14458
 N702 N 0.33332 0.52614 -0.17473
 C703 C 0.35863 0.50048 -0.18821
 C704 C 0.35629 0.46951 -0.16518
 C705 C 0.32804 0.47840 -0.13789
 H706 H 0.37267 0.44406 -0.16769
 H707 H 0.29384 0.52750 -0.12859
 H708 H 0.32878 0.55254 -0.18575
 N709 N 0.78542 0.97795 0.34342
 N710 N 0.80747 0.99238 0.31655
 C711 C 0.83459 0.96754 0.30626
 C712 C 0.82923 0.93554 0.32745
 C713 C 0.79784 0.94339 0.35080
 H714 H 0.84601 0.91038 0.32685
 H715 H 0.76216 0.99170 0.35609
 H716 H 0.80402 1.01897 0.30553
 N717 N 0.87824 -0.00088 1.10627
 N718 N 0.89117 -0.01420 1.13814
 C719 C 0.86877 -0.00293 1.16856
 C720 C 0.84044 0.01872 1.15571
 C721 C 0.84763 0.01959 1.11592
 H722 H 0.81886 0.03326 1.17310
 H723 H 0.89131 -0.00441 1.07876
 H724 H 0.91529 -0.03016 1.13898
 N725 N 0.37684 0.55096 0.61287
 N726 N 0.39570 0.53575 0.64010
 C727 C 0.37627 0.53972 0.67414
 C728 C 0.34347 0.55829 0.66831
 C729 C 0.34490 0.56527 0.62895
 H730 H 0.32220 0.56643 0.69001
 H731 H 0.38610 0.55099 0.58381
 H732 H 0.42125 0.52249 0.63502
 N733 N 0.22216 0.51298 0.38612
 N734 N 0.21151 0.49751 0.35311
 C735 C 0.18400 0.51824 0.33997
 C736 C 0.17669 0.54843 0.36598
 C737 C 0.20153 0.54398 0.39503
 H738 H 0.15614 0.57024 0.36428
 H739 H 0.24377 0.50251 0.40153
 H740 H 0.22310 0.47313 0.33969
 N741 N 0.78142 0.03812 0.81098
 N742 N 0.76305 0.02596 0.78065
 C743 C 0.72876 0.01608 0.79289
 C744 C 0.72558 0.02195 0.83279
 C745 C 0.75901 0.03694 0.84312
 H746 H 0.70042 0.02069 0.85070
 H747 H 0.80741 0.05054 0.80892
 H748 H 0.77272 0.02815 0.75188
 N749 N 0.64921 0.98087 0.60579
 N750 N 0.64441 1.00137 0.63847
 C751 C 0.67058 0.99209 0.66283
 C752 C 0.69304 0.96446 0.64491
 C753 C 0.67843 0.95774 0.60872
 H754 H 0.71555 0.95000 0.65748
 H755 H 0.63236 0.98293 0.58224
 H756 H 0.62332 1.02117 0.64383
 N757 N 0.24427 0.49876 0.15519
 N758 N 0.22990 0.50994 0.18958
 C759 C 0.19975 0.48924 0.19761
 C760 C 0.19461 0.46372 0.16693
 C761 C 0.22372 0.47049 0.14062
 H762 H 0.17349 0.44248 0.16477
 H763 H 0.26852 0.50961 0.14282
 H764 H 0.24092 0.53125 0.20723
 N765 N -0.14458 0.27846 0.49812
 N766 N -0.17576 0.29630 0.50810
 C767 C -0.18025 0.32453 0.48396
 C768 C -0.15034 0.32479 0.45756
 C769 C -0.12828 0.29513 0.46746
 H770 H -0.14500 0.34407 0.43466
 H771 H -0.13456 0.25586 0.51288
 H772 H -0.19336 0.28956 0.53154
 N773 N 0.33063 0.78964 0.88085
 N774 N 0.29617 0.80121 0.89588
 C775 C 0.30053 0.81973 0.93024
 C776 C 0.33808 0.82126 0.93740
 C777 C 0.35601 0.80172 0.90593
 H778 H 0.35069 0.83399 0.96250
 H779 H 0.33484 0.77590 0.85370
 H780 H 0.27140 0.79587 0.88238
 N781 N 1.14609 0.74287 -0.01420
 N782 N 1.17563 0.75912 -0.02951
 C783 C 1.17987 0.79321 -0.01151
 C784 C 1.15164 0.79869 0.01665
 C785 C 1.13116 0.76590 0.01415
 H786 H 1.14784 0.82187 0.03779
 H787 H 1.13739 0.71575 -0.02191
 H788 H 1.19231 0.74676 -0.05199
 N789 N 0.62306 0.35375 0.50184
 N790 N 0.65416 0.37131 0.49342
 C791 C 0.68262 0.34807 0.49871
 C792 C 0.66896 0.31402 0.51084
 C793 C 0.63087 0.31882 0.51295
 H794 H 0.68477 0.29018 0.51934
 H795 H 0.59722 0.36666 0.50186
 H796 H 0.65548 0.39916 0.48529
 N797 N 0.34114 0.18729 0.60322
 N798 N 0.31009 0.17535 0.58894
 C799 C 0.31689 0.16106 0.55253
 C800 C 0.35432 0.16431 0.54294
 C801 C 0.36869 0.18089 0.57630
 H802 H 0.36907 0.15505 0.51629
 H803 H 0.34302 0.19998 0.63091
 H804 H 0.28457 0.17664 0.60419
 N805 N 0.82353 0.71995 0.12188
 N806 N 0.79084 0.70804 0.11182
 C807 C 0.79456 0.68766 0.07808
 C808 C 0.83176 0.68611 0.06632
 C809 C 0.84914 0.70728 0.09493
 H810 H 0.84443 0.67212 0.04065
 H811 H 0.82805 0.73596 0.14729
 H812 H 0.76627 0.71398 0.12785
 N813 N 0.63155 0.75772 1.02882
 N814 N 0.65915 0.74261 1.04661
 C815 C 0.67049 0.71125 1.02622
 C816 C 0.64947 0.70631 0.99401
 C817 C 0.62526 0.73651 0.99651
 H818 H 0.65216 0.68456 0.97124
 H819 H 0.61822 0.78277 1.03804
 H820 H 0.67003 0.75378 1.07213
 N821 N 0.14999 0.22178 0.51354
 N822 N 0.18090 0.20840 0.52644
 C823 C 0.19035 0.17671 0.50557
 C824 C 0.16413 0.16949 0.47831
 C825 C 0.13911 0.19898 0.48403
 H826 H 0.16388 0.14671 0.45662
 H827 H 0.13756 0.24688 0.52406
 H828 H 0.19526 0.22118 0.54897
 N829 N 0.61038 0.14750 0.75603
 N830 N 0.63072 0.11785 0.76920
 C831 C 0.62689 0.08794 0.74448
 C832 C 0.60398 0.09774 0.71517
 C833 C 0.59480 0.13565 0.72285
 H834 H 0.59678 0.08006 0.69042
 H835 H 0.61054 0.17450 0.76894
 H836 H 0.64575 0.11954 0.79432
 N837 N 1.04482 0.55269 0.20102
 N838 N 1.06549 0.52625 0.21487
 C839 C 1.09013 0.54255 0.23817
 C840 C 1.08487 0.58115 0.23932
 C841 C 1.05596 0.58656 0.21501
 H842 H 1.10105 0.60222 0.25425
 H843 H 1.02458 0.54734 0.18096
 H844 H 1.06291 0.49760 0.20787
 N845 N 1.00572 0.91504 0.20329
 N846 N 0.98310 0.94586 0.21306
 C847 C 0.95228 0.93328 0.23130
 C848 C 0.95503 0.89462 0.23478
 C849 C 0.98818 0.88391 0.21526
 H850 H 0.93349 0.87636 0.24553
 H851 H 1.03122 0.91706 0.18841
 H852 H 0.98995 0.97346 0.20686
 N853 N 0.50634 0.42893 0.68187
 N854 N 0.49036 0.46031 0.69589
 C855 C 0.45787 0.45179 0.71363
 C856 C 0.45285 0.41320 0.71066
 C857 C 0.48424 0.39970 0.69011
 H858 H 0.42938 0.39737 0.72124
 H859 H 0.53151 0.42793 0.66599
 H860 H 0.50175 0.48702 0.69331
 N861 N 0.50511 0.61612 0.73779
 N862 N 0.48640 0.58587 0.72714
 C863 C 0.46415 0.57581 0.75730
 C864 C 0.46938 0.60066 0.78855
 C865 C 0.49539 0.62591 0.77502
 H866 H 0.45487 0.60158 0.81663
 H867 H 0.52386 0.62984 0.71953
 H868 H 0.48858 0.57314 0.69933
 N869 N -0.02799 0.09897 0.24204
 N870 N -0.04521 0.06822 0.23040
 C871 C -0.06455 0.05456 0.26092
 C872 C -0.05934 0.07773 0.29346
 C873 C -0.03591 0.10560 0.28026
 H874 H -0.07116 0.07486 0.32252
 H875 H -0.01090 0.11471 0.22388
 H876 H -0.04387 0.05745 0.20176
 N877 N 0.06899 0.38186 0.24905
 N878 N 0.08684 0.41287 0.24013
 C879 C 0.10958 0.42220 0.26883
 C880 C 0.10624 0.39561 0.29696
 C881 C 0.08011 0.37065 0.28353
 H882 H 0.11967 0.39529 0.32430
 H883 H 0.04934 0.36899 0.23178
 H884 H 0.08250 0.42769 0.21528
 N885 N 0.55958 0.92415 0.74956
 N886 N 0.57882 0.95369 0.73866
 C887 C 0.60501 0.96085 0.76440
 C888 C 0.60200 0.93476 0.79304
 C889 C 0.57308 0.91165 0.78256
 H890 H 0.61923 0.93245 0.81756
 H891 H 0.53838 0.91238 0.73367
 H892 H 0.57466 0.96761 0.71318
 N893 N 0.65134 0.55035 0.08714
 N894 N 0.66747 0.57352 0.06282
 C895 C 0.68871 0.59755 0.08303
 C896 C 0.68588 0.58943 0.12195
 C897 C 0.66179 0.55934 0.12339
 H898 H 0.69923 0.60362 0.14584
 H899 H 0.63294 0.52933 0.07889
 H900 H 0.66410 0.57244 0.03289
 N901 N 0.17706 1.02299 0.56412
 N902 N 0.19413 1.04263 0.53709
 C903 C 0.21873 1.06533 0.55418
 C904 C 0.21740 1.05971 0.59371
 C905 C 0.19035 1.03295 0.59906
 H906 H 0.23185 1.07534 0.61587
 H907 H 0.15612 1.00379 0.55844
 H908 H 0.18838 1.04084 0.50768
 N909 N 0.15040 0.94439 0.93376
 N910 N 0.16487 0.92042 0.95716
 C911 C 0.19488 0.90418 0.93890
 C912 C 0.19950 0.91879 0.90228
 C913 C 0.17068 0.94397 0.90000
 H914 H 0.22025 0.91150 0.87977
 H915 H 0.12628 0.95976 0.94063
 H916 H 0.15387 0.91558 0.98495
 N917 N 0.75400 0.46356 0.37964
 N918 N 0.77227 0.44701 0.40652
 C919 C 0.74793 0.43126 0.43139
 C920 C 0.71262 0.43811 0.41995
 C921 C 0.71747 0.45832 0.38652
 H922 H 0.68734 0.42699 0.43238
 H923 H 0.76688 0.47712 0.35655
 H924 H 0.80099 0.44572 0.40705
 N925 N 0.73198 0.46179 0.61393
 N926 N 0.72625 0.44418 0.58018
 C927 C 0.75737 0.42583 0.56772
 C928 C 0.78402 0.43225 0.59472
 C929 C 0.76693 0.45514 0.62364
 H930 H 0.81191 0.42139 0.59371
 H931 H 0.71220 0.47829 0.62962
 H932 H 0.70118 0.44443 0.56650
 N933 N 0.22243 -0.08729 0.10319
 N934 N 0.21244 -0.10491 0.07085
 C935 C 0.24291 -0.11692 0.04995
 C936 C 0.27364 -0.10643 0.07046
 C937 C 0.25952 -0.08742 0.10401
 H938 H 0.30232 -0.11085 0.06165
 H939 H 0.20372 -0.07567 0.12424
 H940 H 0.18495 -0.10839 0.06396
 N941 N 0.24267 0.08635 0.37303
 N942 N 0.23453 0.10122 0.40809
 C943 C 0.26436 0.09906 0.42977
 C944 C 0.29285 0.08176 0.40747
 C945 C 0.27781 0.07396 0.37159
 H946 H 0.32030 0.07526 0.41631
 H947 H 0.22398 0.08398 0.35090
 H948 H 0.20887 0.11277 0.41672
 N949 N 0.71565 0.59940 0.90741
 N950 N 0.70691 0.61699 0.94102
 C951 C 0.73719 0.61941 0.96225
 C952 C 0.76648 0.60211 0.94129
 C953 C 0.75156 0.58978 0.90666
 H954 H 0.79467 0.59927 0.94974
 H955 H 0.69712 0.59394 0.88558
 H956 H 0.68063 0.62748 0.94867
 N957 N 0.05185 0.66905 0.59553
 N958 N 0.02010 0.68551 0.60597
 C959 C 0.02609 0.72218 0.61508
 C960 C 0.06375 0.72907 0.60990
 C961 C 0.07913 0.69456 0.59760
 H962 H 0.07814 0.75529 0.61462
 H963 H 0.05430 0.64080 0.58640
 H964 H -0.00486 0.67112 0.60664
 N965 N 0.60011 0.16199 1.02343
 N966 N 0.56816 0.17645 1.03631
 C967 C 0.57421 0.20432 1.06299
 C968 C 0.61213 0.20810 1.06653
 C969 C 0.62736 0.18043 1.04117
 H970 H 0.62658 0.22643 1.08647
 H971 H 0.60305 0.13925 1.00337
 H972 H 0.54288 0.16603 1.02766
 N973 N 0.95019 0.20933 0.96751
 N974 N 0.97596 0.22662 0.94696
 C975 C 0.95973 0.24856 0.92183
 C976 C 0.92176 0.24523 0.92668
 C977 C 0.91676 0.21972 0.95591
 H978 H 0.90097 0.25828 0.91011
 H979 H 0.95588 0.18957 0.98795
 H980 H 1.00422 0.22299 0.95004
 N981 N 0.39727 0.72433 0.49365
 N982 N 0.42681 0.72934 0.47069
 C983 C 0.41597 0.74171 0.43669
 C984 C 0.37788 0.74463 0.43791
 C985 C 0.36695 0.73302 0.47453
 H986 H 0.36058 0.75197 0.41460
 H987 H 0.39795 0.71309 0.52109
 H988 H 0.45380 0.72367 0.47806
 N989 N 0.57830 0.73121 0.45523
 N990 N 0.54569 0.72496 0.44064
 C991 C 0.54106 0.74858 0.41170
 C992 C 0.57233 0.77049 0.40756
 C993 C 0.59527 0.75878 0.43574
 H994 H 0.57729 0.79282 0.38774
 H995 H 0.58844 0.71681 0.47828
 H996 H 0.52686 0.70535 0.45113
 N997 N 0.12454 0.26020 -0.06497
 N998 N 0.09268 0.25383 -0.08114
 C999 C 0.07883 0.28671 -0.09216
 C1000 C 0.10307 0.31521 -0.08233
 C1001 C 0.13176 0.29730 -0.06521
 H1002 H 0.10068 0.34477 -0.08774
 H1003 H 0.14071 0.23927 -0.05382
 H1004 H 0.08113 0.22718 -0.08462
 N1005 N 0.42222 0.25536 0.00649
 N1006 N 0.45160 0.24242 0.02294
 C1007 C 0.45468 0.26024 0.05787
 C1008 C 0.42588 0.28582 0.06379
 C1009 C 0.40563 0.28180 0.03055
 H1010 H 0.42018 0.30407 0.08921
 H1011 H 0.41385 0.24553 -0.02063
 H1012 H 0.46906 0.22167 0.01006
 N1013 N 0.87197 0.72771 0.55080
 N1014 N 0.89977 0.72408 0.57400
 C1015 C 0.91241 0.75862 0.58409
 C1016 C 0.89190 0.78504 0.56589
 C1017 C 0.86645 0.76454 0.54534
 H1018 H 0.89342 0.81529 0.56899
 H1019 H 0.85685 0.70521 0.53954
 H1020 H 0.90882 0.69825 0.58325
   
