data_POSCAR
  _audit_creation_date              2014-09-24
  _audit_creation_method            'ToBaCCo'
  _symmetry_space_group_name_H-M    'P1'
  _symmetry_Int_Tables_number       1
  _symmetry_cell_setting            triclinic
  loop_
  _symmetry_equiv_pos_as_xyz
 x,y,z
_cell_length_a 36.4040
_cell_length_b 36.3922
_cell_length_c 36.2430
_cell_angle_alpha 89.878100
_cell_angle_beta 89.892000
_cell_angle_gamma 89.886400
loop_
  _atom_site_label
  _atom_site_type_symbol
  _atom_site_fract_x
  _atom_site_fract_y
  _atom_site_fract_z
C1 C 0.16649 0.16822 0.21168
 C2 C 0.15081 0.19932 0.19505
 C3 C 0.16660 0.21434 0.16314
 C4 C 0.19813 0.19830 0.14783
 C5 C 0.21389 0.16720 0.16438
 C6 C 0.19806 0.15219 0.19632
 H7 H 0.12627 0.21171 0.20673
 H8 H 0.21017 0.20989 0.12300
 H9 H 0.21012 0.12798 0.20905
 C10 C -0.16338 0.83385 0.21709
 C11 C -0.14811 0.80232 0.20097
 C12 C -0.16468 0.78654 0.16996
 C13 C -0.19656 0.80225 0.15509
 C14 C -0.21187 0.83375 0.17116
 C15 C -0.19530 0.84953 0.20216
 H16 H -0.12330 0.79021 0.21230
 H17 H -0.20926 0.79016 0.13095
 H18 H -0.20710 0.87404 0.21443
 C19 C -0.16793 0.16498 -0.21468
 C20 C -0.19900 0.14851 -0.19885
 C21 C -0.21526 0.16388 -0.16738
 C22 C -0.20050 0.19577 -0.15175
 C23 C -0.16947 0.21228 -0.16751
 C24 C -0.15320 0.19689 -0.19898
 H25 H -0.21038 0.12370 -0.21078
 H26 H -0.21297 0.20754 -0.12726
 H27 H -0.12903 0.20962 -0.21101
 C28 C 0.16793 0.83531 -0.21415
 C29 C 0.15117 0.80382 -0.19948
 C30 C 0.16579 0.78685 -0.16801
 C31 C 0.19721 0.80133 -0.15122
 C32 C 0.21400 0.83278 -0.16583
 C33 C 0.19937 0.84975 -0.19730
 H34 H 0.12671 0.79267 -0.21230
 H35 H 0.20841 0.78832 -0.12674
 H36 H 0.21232 0.87422 -0.20843
 C37 C 0.16904 1.16625 0.78658
 C38 C 0.15296 1.19778 0.80190
 C39 C 0.16791 1.21358 0.83372
 C40 C 0.19897 1.19787 0.85023
 C41 C 0.21508 1.16637 0.83499
 C42 C 0.20014 1.15058 0.80316
 H43 H 0.12876 1.20989 0.78930
 H44 H 0.21042 1.20997 0.87499
 H45 H 0.21256 1.12605 0.79153
 C46 C 0.83466 0.83650 0.78474
 C47 C 0.80314 0.85181 0.80087
 C48 C 0.78725 0.83523 0.83193
 C49 C 0.80284 0.80329 0.84688
 C50 C 0.83436 0.78790 0.83081
 C51 C 0.85025 0.80452 0.79971
 H52 H 0.79111 0.87666 0.78948
 H53 H 0.79057 0.79064 0.87108
 H54 H 0.87477 0.79274 0.78735
 C55 C 0.16421 0.83122 1.21445
 C56 C 0.14779 0.80021 1.19865
 C57 C 0.16320 0.78410 1.16713
 C58 C 0.19507 0.79897 1.15140
 C59 C 0.21153 0.82995 1.16714
 C60 C 0.19612 0.84606 1.19867
 H61 H 0.12298 0.78875 1.21065
 H62 H 0.20688 0.78663 1.12687
 H63 H 0.20880 0.87019 1.21067
 C64 C 0.83456 1.16692 1.21433
 C65 C 0.80304 1.15027 1.19983
 C66 C 0.78606 1.16504 1.16845
 C67 C 0.80057 1.19651 1.15157
 C68 C 0.83206 1.21319 1.16600
 C69 C 0.84903 1.19841 1.19738
 H70 H 0.79185 1.12578 1.21273
 H71 H 0.78756 1.20782 1.12715
 H72 H 0.87354 1.21127 1.20838
 O73 O 0.44786 1.06442 1.06722
 O74 O 0.40774 1.02901 1.03382
 C75 C 0.41504 1.05457 1.05748
 O76 O 0.55153 1.06108 0.93578
 O77 O 0.59183 1.02780 0.97140
 C78 C 0.58440 1.05145 0.94571
 O79 O 0.44830 1.06438 0.93899
 O80 O 0.40795 1.02901 0.97246
 C81 C 0.41542 1.05451 0.94865
 O82 O 0.55112 1.06113 1.07076
 O83 O 0.59162 1.02781 1.03540
 C84 C 0.58404 1.05151 1.06092
 Zr85 Zr 0.49960 1.04363 1.04997
 O86 O 0.50356 1.10166 1.04986
 O87 O 0.49527 1.04324 1.10823
 Zr88 Zr 0.49990 1.04368 0.95660
 O89 O 0.50389 1.10171 0.95674
 O90 O 0.49596 1.04358 0.89832
 O91 O 0.46700 1.05083 1.00322
 O92 O 0.53161 1.05038 1.00331
 O93 O 0.55146 0.93332 1.07106
 O94 O 0.59178 0.96668 1.03553
 C95 C 0.58434 0.94301 1.06119
 O96 O 0.44862 0.93001 0.93916
 O97 O 0.40812 0.96529 0.97256
 C98 C 0.41570 0.93985 0.94878
 O99 O 0.55187 0.93343 0.93596
 O100 O 0.59199 0.96671 0.97150
 C101 C 0.58469 0.94311 0.94586
 O102 O 0.44819 0.92985 1.06749
 O103 O 0.40791 0.96524 1.03394
 C104 C 0.41533 0.93968 1.05772
 Zr105 Zr 0.49984 0.95067 1.05012
 O106 O 0.50413 0.89264 1.05008
 O107 O 0.49549 0.95085 1.10838
 Zr108 Zr 0.50014 0.95068 0.95677
 O109 O 0.50442 0.89265 0.95728
 O110 O 0.49622 0.95067 0.89850
 Zr111 Zr 0.44528 0.99715 1.00327
 Zr112 Zr 0.55445 0.99721 1.00342
 O113 O 0.53190 0.94400 1.00350
 O114 O 0.46726 0.94348 1.00341
 O115 O 0.53245 0.99717 1.05729
 O116 O 0.46817 0.99717 0.94991
 O117 O 0.46779 0.99713 1.05672
 O118 O 0.53277 0.99721 0.94951
 H119 H 0.54821 1.07192 1.00327
 H120 H 0.45161 0.99718 0.92825
 H121 H 0.54864 0.92250 1.00355
 H122 H 0.45104 0.99712 1.07829
 H123 H 0.51656 1.02862 0.88872
 H124 H 0.51655 0.96591 0.88884
 H125 H 0.48356 0.88306 0.97190
 H126 H 0.48373 0.88303 1.03496
 H127 H 0.51599 0.96580 1.11802
 H128 H 0.51606 1.02861 1.11791
 H129 H 0.48323 1.11127 1.03454
 H130 H 0.48315 1.11130 0.97154
 O131 O 0.06056 0.55181 -0.07078
 O132 O 0.02769 0.59203 -0.03474
 C133 C 0.05121 0.58466 -0.06054
 O134 O -0.07084 0.44884 -0.06728
 O135 O -0.03540 0.40832 -0.03403
 C136 C -0.06096 0.41590 -0.05768
 O137 O -0.06745 0.55219 -0.07049
 O138 O -0.03403 0.59229 -0.03506
 C139 C -0.05773 0.58501 -0.06060
 O140 O 0.06367 0.44858 -0.06768
 O141 O 0.02833 0.40818 -0.03424
 C142 C 0.05386 0.41567 -0.05800
 Zr143 Zr 0.04285 0.50019 -0.05019
 O144 O 0.04211 0.49631 -0.10847
 O145 O 0.10086 0.50411 -0.05061
 Zr146 Zr -0.05007 0.50040 -0.04981
 O147 O -0.05002 0.49650 -0.10808
 O148 O -0.10808 0.50464 -0.04938
 O149 O -0.00361 0.53313 -0.05715
 O150 O -0.00362 0.46840 -0.05678
 O151 O 0.06389 0.44807 0.06042
 O152 O 0.02846 0.40793 0.02705
 C153 C 0.05404 0.41524 0.05070
 O154 O -0.06711 0.55158 0.06464
 O155 O -0.03401 0.59201 0.02898
 C156 C -0.05751 0.58449 0.05477
 O157 O -0.07051 0.44831 0.06107
 O158 O -0.03527 0.40807 0.02734
 C159 C -0.06068 0.41546 0.05126
 O160 O 0.06046 0.55136 0.06403
 O161 O 0.02701 0.59192 0.02880
 C162 C 0.05075 0.58430 0.05429
 Zr163 Zr 0.04306 0.49981 0.04321
 O164 O 0.04287 0.49541 0.10147
 O165 O 0.10106 0.50385 0.04298
 Zr166 Zr -0.04982 0.49998 0.04360
 O167 O -0.04947 0.49560 0.10186
 O168 O -0.10783 0.50420 0.04371
 Zr169 Zr -0.00352 0.55472 -0.00320
 Zr170 Zr -0.00348 0.44550 -0.00341
 O171 O -0.00336 0.46795 0.05006
 O172 O -0.00337 0.53264 0.05066
 O173 O 0.05016 0.46727 -0.00358
 O174 O -0.05667 0.53209 -0.00301
 O175 O 0.04964 0.53183 -0.00343
 O176 O -0.05713 0.46747 -0.00314
 H177 H -0.00364 0.45180 -0.07840
 H178 H -0.07818 0.54882 -0.00289
 H179 H -0.00330 0.45119 0.07163
 H180 H 0.07125 0.54834 -0.00338
 H181 H -0.11764 0.48403 -0.03438
 H182 H -0.11746 0.48375 0.02866
 H183 H -0.03454 0.51612 0.11148
 H184 H 0.02820 0.51615 0.11122
 H185 H 0.11067 0.48342 0.02779
 H186 H 0.11051 0.48387 -0.03514
 H187 H 0.02789 0.51749 -0.11796
 H188 H -0.03496 0.51699 -0.11773
 O189 O 1.07065 -0.06077 0.55196
 O190 O 1.03514 -0.02751 0.59242
 C191 C 1.06072 -0.05115 0.58497
 O192 O 1.06680 0.07019 0.44771
 O193 O 1.03372 0.03459 0.40743
 C194 C 1.05724 0.06020 0.41475
 O195 O 1.07016 0.06697 0.55152
 O196 O 1.03500 0.03358 0.59221
 C197 C 1.06040 0.05730 0.58460
 O198 O 1.06723 -0.06438 0.44826
 O199 O 1.03377 -0.02919 0.40767
 C200 C 1.05746 -0.05470 0.41522
 Zr201 Zr 1.05000 -0.04336 0.50006
 O202 O 1.10801 -0.04255 0.49576
 O203 O 1.05063 -0.10137 0.50441
 Zr204 Zr 1.04944 0.04958 0.49972
 O205 O 1.10745 0.04979 0.49550
 O206 O 1.04878 0.10761 0.50364
 O207 O 1.05687 0.00317 0.53278
 O208 O 1.05643 0.00305 0.46783
 O209 O 0.93944 -0.06452 0.44870
 O210 O 0.97211 -0.02877 0.40797
 C211 C 0.94875 -0.05449 0.41562
 O212 O 0.93570 0.06685 0.55160
 O213 O 0.97168 0.03425 0.59216
 C214 C 0.94582 0.05757 0.58464
 O215 O 0.93905 0.06977 0.44792
 O216 O 0.97263 0.03450 0.40751
 C217 C 0.94876 0.05989 0.41493
 O218 O 0.93635 -0.06103 0.55228
 O219 O 0.97146 -0.02749 0.59259
 C220 C 0.94610 -0.05127 0.58524
 Zr221 Zr 0.95699 -0.04369 0.50032
 O222 O 0.89897 -0.04373 0.49636
 O223 O 0.95756 -0.10171 0.50469
 Zr224 Zr 0.95658 0.04930 0.49988
 O225 O 0.89857 0.04910 0.49587
 O226 O 0.95669 0.10735 0.50372
 Zr227 Zr 1.00322 0.00299 0.55485
 Zr228 Zr 1.00326 0.00278 0.44514
 O229 O 0.95010 0.00273 0.46812
 O230 O 0.94957 0.00286 0.53302
 O231 O 1.00350 -0.05082 0.46734
 O232 O 1.00299 0.05615 0.53182
 O233 O 1.00352 -0.05021 0.53221
 O234 O 1.00298 0.05652 0.46684
 H235 H 1.07793 0.00302 0.45102
 H236 H 1.00296 0.07775 0.54840
 H237 H 0.92849 0.00270 0.45154
 H238 H 1.00360 -0.07173 0.54900
 H239 H 1.03410 0.11711 0.48274
 H240 H 0.97129 0.11690 0.48276
 H241 H 0.88903 0.03402 0.51648
 H242 H 0.88932 -0.02871 0.51693
 H243 H 0.97221 -0.11131 0.48380
 H244 H 1.03490 -0.11110 0.48449
 H245 H 1.11750 -0.02830 0.51689
 H246 H 1.11713 0.03451 0.51589
 C247 C 1.15072 0.15325 0.24233
 C248 C 1.13660 0.13983 0.26928
 C249 C 1.11993 0.12383 0.30062
 C250 C 1.10561 0.10988 0.32717
 C251 C 1.08877 0.09310 0.35800
 C252 C 1.07437 0.07835 0.38407
 C253 C 0.85309 -0.15043 0.24685
 C254 C 0.86774 -0.13634 0.27303
 C255 C 0.88496 -0.11960 0.30352
 C256 C 0.89966 -0.10508 0.32942
 C257 C 0.91686 -0.08779 0.35960
 C258 C 0.93147 -0.07275 0.38526
 C259 C 0.84827 0.14963 0.75512
 C260 C 0.86273 0.13588 0.72855
 C261 C 0.87983 0.11958 0.69765
 C262 C 0.89462 0.10552 0.67145
 C263 C 0.91217 0.08893 0.64096
 C264 C 0.92739 0.07466 0.61513
 C265 C 1.15330 -0.14783 0.75565
 C266 C 1.14009 -0.13288 0.72908
 C267 C 1.12424 -0.11537 0.69816
 C268 C 1.11035 -0.10047 0.67193
 C269 C 1.09361 -0.08312 0.64140
 C270 C 1.07887 -0.06844 0.61552
 C271 C 0.24418 1.15125 1.14908
 C272 C 0.27083 1.13701 1.13537
 C273 C 0.30182 1.12014 1.11912
 C274 C 0.32810 1.10554 1.10513
 C275 C 0.35865 1.08814 1.08861
 C276 C 0.38453 1.07300 1.07443
 C277 C 0.24586 0.84806 0.85186
 C278 C 0.27236 0.86112 0.86676
 C279 C 0.30317 0.87679 0.88424
 C280 C 0.32930 0.89054 0.89916
 C281 C 0.35967 0.90713 0.91658
 C282 C 0.38539 0.92177 0.93135
 C283 C 0.75581 0.85030 1.15537
 C284 C 0.72895 0.86428 1.14188
 C285 C 0.69774 0.88078 1.12573
 C286 C 0.67132 0.89496 1.11159
 C287 C 0.64066 0.91164 1.09457
 C288 C 0.61477 0.92594 1.07960
 C289 C 0.75327 1.14657 0.84925
 C290 C 0.72707 1.13198 0.86338
 C291 C 0.69656 1.11485 0.88018
 C292 C 0.67064 1.10022 0.89477
 C293 C 0.64043 1.08313 0.91216
 C294 C 0.61477 1.06860 0.92730
 C295 C 0.15007 0.24588 0.14576
 C296 C 0.13603 0.27214 0.13113
 C297 C 0.11933 0.30273 0.11397
 C298 C 0.10482 0.32872 0.09933
 C299 C 0.08750 0.35902 0.08226
 C300 C 0.07241 0.38477 0.06778
 C301 C -0.15387 0.24459 -0.15096
 C302 C -0.14057 0.27146 -0.13693
 C303 C -0.12467 0.30266 -0.12035
 C304 C -0.11075 0.32906 -0.10608
 C305 C -0.09398 0.35969 -0.08928
 C306 C -0.07919 0.38554 -0.07487
 C307 C 0.14816 0.75496 -0.15255
 C308 C 0.13330 0.72843 -0.13935
 C309 C 0.11584 0.69756 -0.12357
 C310 C 0.10093 0.67137 -0.10976
 C311 C 0.08350 0.64092 -0.09315
 C312 C 0.06870 0.61510 -0.07853
 C313 C -0.14856 0.75461 0.15298
 C314 C -0.13491 0.72806 0.13856
 C315 C -0.11876 0.69719 0.12144
 C316 C -0.10486 0.67102 0.10658
 C317 C -0.08847 0.64060 0.08888
 C318 C -0.07438 0.61484 0.07348
 C319 C 1.15407 0.15048 0.75605
 C320 C 1.14060 0.13642 0.72921
 C321 C 1.12449 0.11983 0.69803
 C322 C 1.11041 0.10558 0.67162
 C323 C 1.09350 0.08881 0.64097
 C324 C 1.07864 0.07444 0.61506
 C325 C 0.85044 -0.14701 0.75489
 C326 C 0.86453 -0.13231 0.72861
 C327 C 0.88122 -0.11503 0.69800
 C328 C 0.89568 -0.10028 0.67198
 C329 C 0.91290 -0.08305 0.64163
 C330 C 0.92788 -0.06846 0.61582
 C331 C 1.14884 -0.15270 0.24469
 C332 C 1.13510 -0.13829 0.27129
 C333 C 1.11887 -0.12118 0.30221
 C334 C 1.10491 -0.10634 0.32843
 C335 C 1.08847 -0.08868 0.35892
 C336 C 1.07435 -0.07332 0.38475
 C337 C 0.85144 0.15217 0.24445
 C338 C 0.86645 0.13890 0.27096
 C339 C 0.88405 0.12305 0.30181
 C340 C 0.89905 0.10919 0.32800
 C341 C 0.91654 0.09253 0.35849
 C342 C 0.93134 0.07789 0.38436
 C343 C 0.15097 0.24551 -0.15013
 C344 C 0.13665 0.27206 -0.13638
 C345 C 0.11968 0.30294 -0.12008
 C346 C 0.10500 0.32911 -0.10601
 C347 C 0.08752 0.35953 -0.08939
 C348 C 0.07233 0.38530 -0.07510
 C349 C -0.15263 0.24509 0.14822
 C350 C -0.13953 0.27164 0.13327
 C351 C -0.12381 0.30252 0.11575
 C352 C -0.11003 0.32872 0.10082
 C353 C -0.09341 0.35919 0.08341
 C354 C -0.07875 0.38501 0.06865
 C355 C -0.15009 0.75722 -0.15422
 C356 C -0.13620 0.73025 -0.14076
 C357 C -0.11980 0.69891 -0.12468
 C358 C -0.10569 0.67238 -0.11062
 C359 C -0.08907 0.64159 -0.09372
 C360 C -0.07480 0.61557 -0.07886
 C361 C 0.14593 0.75269 0.15053
 C362 C 0.13136 0.72654 0.13643
 C363 C 0.11423 0.69610 0.11968
 C364 C 0.09959 0.67025 0.10514
 C365 C 0.08248 0.64014 0.08779
 C366 C 0.06793 0.61456 0.07268
 C367 C 0.24658 1.14987 0.85240
 C368 C 0.27279 1.13590 0.86711
 C369 C 0.30331 1.11931 0.88444
 C370 C 0.32923 1.10491 0.89925
 C371 C 0.35942 1.08774 0.91657
 C372 C 0.38508 1.07276 0.93129
 C373 C 0.24384 0.84569 1.15052
 C374 C 0.27070 0.85915 1.13651
 C375 C 0.30190 0.87529 1.11999
 C376 C 0.32832 0.88941 1.10581
 C377 C 0.35898 0.90641 1.08912
 C378 C 0.38488 0.92134 1.07481
 C379 C 0.75413 1.14753 1.15314
 C380 C 0.72757 1.13279 1.14004
 C381 C 0.69669 1.11549 1.12431
 C382 C 0.67051 1.10072 1.11050
 C383 C 0.64010 1.08348 1.09382
 C384 C 0.61435 1.06882 1.07909
 C385 C 0.75530 0.85141 0.84886
 C386 C 0.72871 0.86515 0.86317
 C387 C 0.69778 0.88143 0.88011
 C388 C 0.67155 0.89545 0.89477
 C389 C 0.64104 0.91199 0.91222
 C390 C 0.61518 0.92617 0.92740
   
