data_POSCAR
  _audit_creation_date              2014-09-24
  _audit_creation_method            'ToBaCCo'
  _symmetry_space_group_name_H-M    'P1'
  _symmetry_Int_Tables_number       1
  _symmetry_cell_setting            triclinic
  loop_
  _symmetry_equiv_pos_as_xyz
 x,y,z
_cell_length_a 28.0919
_cell_length_b 28.0853
_cell_length_c 12.1897
_cell_angle_alpha 89.819900
_cell_angle_beta 90.149800
_cell_angle_gamma 120.076500
loop_
  _atom_site_label
  _atom_site_type_symbol
  _atom_site_fract_x
  _atom_site_fract_y
  _atom_site_fract_z
C1 C 0.47471 0.94970 0.56140
 C2 C 0.47654 0.94927 0.44387
 C3 C 0.49681 1.00044 0.39012
 C4 C 0.52191 1.05263 0.44218
 C5 C 0.53327 1.05323 0.55821
 C6 C 0.50667 1.00149 0.61265
 H7 H 0.51017 1.00127 0.70045
 H8 H 0.49341 0.99922 0.30220
 C9 C 0.05023 0.52979 0.55657
 C10 C 0.05049 0.51990 0.44158
 C11 C -0.00057 0.48461 0.39129
 C12 C -0.05199 0.46913 0.43995
 C13 C -0.05206 0.47860 0.55562
 C14 C -0.00096 0.51398 0.60562
 H15 H -0.00106 0.52698 0.68911
 H16 H -0.00013 0.47136 0.30812
 C17 C 0.46647 0.51844 0.56062
 C18 C 0.47856 0.53008 0.44544
 C19 C 0.50464 0.50440 0.39284
 C20 C 0.52439 0.47292 0.44594
 C21 C 0.52500 0.47372 0.56360
 C22 C 0.49234 0.49259 0.61488
 H23 H 0.48810 0.48784 0.70243
 H24 H 0.50903 0.50802 0.30518
 O25 O 0.41522 0.65443 -0.09976
 O26 O 0.41302 0.74575 -0.13016
 C27 C 0.38775 0.77203 -0.14560
 O28 O 0.34506 0.76232 -0.09202
 O29 O 0.25350 0.66954 -0.12175
 C30 C 0.22759 0.61835 -0.14125
 O31 O 0.23769 0.58430 -0.09247
 O32 O 0.32987 0.58575 -0.12921
 C33 C 0.38085 0.61107 -0.15014
 O34 O 0.41602 0.66913 0.11821
 O35 O 0.41804 0.76204 0.08772
 C36 C 0.38511 0.77163 0.14162
 O37 O 0.33355 0.74566 0.12592
 O38 O 0.23965 0.65476 0.09552
 C39 C 0.22968 0.61065 0.14418
 O40 O 0.25559 0.58554 0.12424
 O41 O 0.34651 0.58404 0.08838
 C42 C 0.39006 0.61805 0.13906
 Cr43 Cr 0.41234 0.70620 -0.00599
 Cr44 Cr 0.29457 0.70647 0.00184
 Cr45 Cr 0.29409 0.58816 -0.00226
 O46 O 0.33362 0.66692 -0.00216
 O47 O 0.58697 0.33210 -0.12701
 O48 O 0.58475 0.23865 -0.09633
 C49 C 0.61907 0.22976 -0.14683
 O50 O 0.67003 0.25536 -0.12555
 O51 O 0.76229 0.34628 -0.08944
 C52 C 0.77223 0.39028 -0.13869
 O53 O 0.74647 0.41563 -0.11920
 O54 O 0.65508 0.41686 -0.08951
 C55 C 0.61226 0.38367 -0.14281
 O56 O 0.58239 0.34383 0.09079
 O57 O 0.58428 0.25288 0.12168
 C58 C 0.61019 0.22777 0.14260
 O59 O 0.65373 0.23740 0.09212
 O60 O 0.74480 0.33011 0.12748
 C61 C 0.77082 0.38126 0.14702
 O62 O 0.76080 0.41529 0.09809
 O63 O 0.66700 0.41227 0.12838
 C64 C 0.61546 0.38662 0.14421
 Cr65 Cr 0.58784 0.29347 -0.00268
 Cr66 Cr 0.70604 0.29386 0.00119
 Cr67 Cr 0.70571 0.41178 0.00440
 O68 O 0.66657 0.33305 0.00101
 C69 C 0.44845 0.90166 -0.36542
 C70 C 0.48920 0.88219 -0.33502
 C71 C 0.46926 0.83895 -0.26468
 C72 C 0.41016 0.81880 -0.22695
 C73 C 0.41142 0.87013 -0.18041
 C74 C 0.42971 0.91256 -0.25283
 C75 C 0.39511 0.84996 -0.40333
 C76 C 0.37610 0.80639 -0.33260
 H77 H 0.53087 0.90121 -0.36679
 H78 H 0.49409 0.82159 -0.23682
 H79 H 0.39507 0.87157 -0.10063
 H80 H 0.42606 0.94840 -0.23447
 H81 H 0.36987 0.84932 -0.47077
 H82 H 0.33703 0.76886 -0.34500
 C83 C 0.09997 0.55304 -0.36427
 C84 C 0.08605 0.52523 -0.24966
 C85 C 0.12805 0.54812 -0.17606
 C86 C 0.18139 0.59572 -0.22327
 C87 C 0.19305 0.57134 -0.32502
 C88 C 0.15025 0.54793 -0.39701
 C89 C 0.12218 0.61428 -0.33915
 C90 C 0.16493 0.63673 -0.26733
 H91 H 0.04770 0.48839 -0.22955
 H92 H 0.12445 0.53175 -0.09373
 H93 H 0.22926 0.56718 -0.33366
 H94 H 0.14999 0.52147 -0.46094
 H95 H 0.10509 0.63799 -0.37464
 H96 H 0.18408 0.67946 -0.24220
 C97 C 0.43953 0.54013 -0.36815
 C98 C 0.38979 0.54385 -0.41188
 C99 C 0.37152 0.56947 -0.34245
 C100 C 0.40205 0.58599 -0.23192
 C101 C 0.39690 0.53242 -0.18823
 C102 C 0.41496 0.50779 -0.25944
 C103 C 0.48227 0.59851 -0.33057
 C104 C 0.46294 0.62242 -0.26128
 H105 H 0.36600 0.52220 -0.48319
 H106 H 0.33474 0.57171 -0.35942
 H107 H 0.37567 0.51260 -0.11271
 H108 H 0.40577 0.46587 -0.24473
 H109 H 0.52480 0.61983 -0.35786
 H110 H 0.48906 0.66386 -0.23061
 C111 C 0.56045 0.10171 -0.36948
 C112 C 0.60997 0.15587 -0.41177
 C113 C 0.62811 0.19916 -0.34066
 C114 C 0.59786 0.18397 -0.22997
 C115 C 0.53687 0.15925 -0.25867
 C116 C 0.51759 0.11659 -0.32958
 C117 C 0.58550 0.09332 -0.26195
 C118 C 0.60350 0.13541 -0.18899
 H119 H 0.63394 0.15892 -0.48323
 H120 H 0.66480 0.23849 -0.35658
 H121 H 0.51059 0.17390 -0.22621
 H122 H 0.47494 0.09521 -0.35640
 H123 H 0.59449 0.06035 -0.24903
 H124 H 0.62476 0.13626 -0.11384
 C125 C 0.89830 0.45184 -0.36480
 C126 C 0.91254 0.43698 -0.25140
 C127 C 0.87115 0.41817 -0.17664
 C128 C 0.81792 0.41354 -0.22165
 C129 C 0.83507 0.47146 -0.26406
 C130 C 0.87724 0.49150 -0.33697
 C131 C 0.84711 0.39690 -0.39751
 C132 C 0.80490 0.37778 -0.32433
 H133 H 0.95066 0.43769 -0.23309
 H134 H 0.87506 0.40486 -0.09503
 H135 H 0.81686 0.49555 -0.23695
 H136 H 0.89476 0.53260 -0.37135
 H137 H 0.84620 0.37059 -0.46238
 H138 H 0.76818 0.33768 -0.33295
 C139 C 0.55130 0.45202 -0.36323
 C140 C 0.51069 0.39164 -0.33315
 C141 C 0.53070 0.36851 -0.26258
 C142 C 0.58973 0.40779 -0.22436
 C143 C 0.62385 0.42960 -0.32971
 C144 C 0.60476 0.45398 -0.40066
 C145 C 0.56983 0.48169 -0.25053
 C146 C 0.58821 0.45773 -0.17791
 H147 H 0.46905 0.36876 -0.36526
 H148 H 0.50597 0.32624 -0.23487
 H149 H 0.66306 0.43151 -0.34165
 H150 H 0.63016 0.47887 -0.46755
 H151 H 0.57297 0.52097 -0.23204
 H152 H 0.60429 0.47548 -0.09786
 C153 C 0.90045 0.44707 0.36600
 C154 C 0.87726 0.38548 0.34248
 C155 C 0.83377 0.36290 0.27243
 C156 C 0.81757 0.40402 0.22799
 C157 C 0.80734 0.42970 0.32939
 C158 C 0.85093 0.45344 0.39957
 C159 C 0.91347 0.47399 0.25028
 C160 C 0.87075 0.45080 0.17835
 H161 H 0.89412 0.36154 0.37795
 H162 H 0.81385 0.31991 0.24882
 H163 H 0.77169 0.43477 0.33852
 H164 H 0.85236 0.48115 0.46208
 H165 H 0.95167 0.51060 0.22827
 H166 H 0.87371 0.46663 0.09572
 C167 C 0.54249 0.10042 0.36794
 C168 C 0.60062 0.11630 0.32854
 C169 C 0.62341 0.15870 0.25653
 C170 C 0.58614 0.18205 0.22628
 C171 C 0.53248 0.13258 0.18598
 C172 C 0.50899 0.09072 0.26001
 C173 C 0.54582 0.15412 0.40830
 C174 C 0.57039 0.19715 0.33616
 H175 H 0.62256 0.09579 0.35643
 H176 H 0.66453 0.17400 0.22414
 H177 H 0.51193 0.13256 0.11037
 H178 H 0.46732 0.05702 0.24741
 H179 H 0.52458 0.15692 0.47948
 H180 H 0.57221 0.23613 0.35084
 C181 C 0.54736 0.44548 0.36820
 C182 C 0.54789 0.39316 0.40568
 C183 C 0.57200 0.37475 0.33317
 C184 C 0.59132 0.40843 0.22674
 C185 C 0.53985 0.40818 0.18324
 C186 C 0.51621 0.42605 0.25729
 C187 C 0.60686 0.48721 0.33489
 C188 C 0.62991 0.46795 0.26291
 H189 H 0.52511 0.36802 0.47465
 H190 H 0.57184 0.33636 0.34540
 H191 H 0.52129 0.39177 0.10388
 H192 H 0.47653 0.42243 0.24088
 H193 H 0.62907 0.52911 0.36555
 H194 H 0.67152 0.49356 0.23259
 C195 C 0.10071 0.54681 0.36379
 C196 C 0.15054 0.60247 0.39785
 C197 C 0.19387 0.62240 0.32724
 C198 C 0.18315 0.58660 0.22539
 C199 C 0.16679 0.52910 0.26928
 C200 C 0.12350 0.50824 0.33969
 C201 C 0.08739 0.56071 0.24864
 C202 C 0.12991 0.58036 0.17643
 H203 H 0.14965 0.62837 0.46175
 H204 H 0.22986 0.66295 0.33692
 H205 H 0.18641 0.50589 0.24503
 H206 H 0.10641 0.46733 0.37481
 H207 H 0.04901 0.55878 0.22713
 H208 H 0.12670 0.59316 0.09387
 C209 C 0.45357 0.89860 0.36638
 C210 C 0.39443 0.88142 0.33137
 C211 C 0.37131 0.83916 0.25910
 C212 C 0.40943 0.81756 0.22446
 C213 C 0.46156 0.86849 0.18206
 C214 C 0.48529 0.90994 0.25640
 C215 C 0.45201 0.84532 0.40453
 C216 C 0.42779 0.80279 0.33173
 H217 H 0.37248 0.90145 0.36123
 H218 H 0.32993 0.82357 0.22768
 H219 H 0.48053 0.87040 0.10342
 H220 H 0.52545 0.94562 0.24104
 H221 H 0.47423 0.84261 0.47418
 H222 H 0.42729 0.76426 0.34439
 C223 C 0.45710 0.55888 0.36665
 C224 C 0.39947 0.51618 0.32541
 C225 C 0.37685 0.53554 0.25243
 C226 C 0.41388 0.59646 0.22342
 C227 C 0.42840 0.62689 0.33386
 C228 C 0.45256 0.60852 0.40708
 C229 C 0.49125 0.58309 0.26005
 C230 C 0.46811 0.60146 0.18518
 H231 H 0.37786 0.47360 0.35264
 H232 H 0.33609 0.50937 0.21848
 H233 H 0.42565 0.66353 0.34871
 H234 H 0.47243 0.63196 0.47986
 H235 H 0.53299 0.59121 0.24888
 H236 H 0.48906 0.62222 0.11009
   
