data_POSCAR
  _audit_creation_date              2014-09-24
  _audit_creation_method            'ToBaCCo'
  _symmetry_space_group_name_H-M    'P1'
  _symmetry_Int_Tables_number       1
  _symmetry_cell_setting            triclinic
  loop_
  _symmetry_equiv_pos_as_xyz
 x,y,z
_cell_length_a 22.5183
_cell_length_b 22.7268
_cell_length_c 39.3686
_cell_angle_alpha 87.589100
_cell_angle_beta 91.289100
_cell_angle_gamma 87.515000
loop_
  _atom_site_label
  _atom_site_type_symbol
  _atom_site_fract_x
  _atom_site_fract_y
  _atom_site_fract_z
O1 O 0.02473 0.55704 1.03117
 O2 O 0.02632 0.44368 0.96681
 O3 O 0.02296 0.55853 0.96500
 O4 O 0.02981 0.44265 1.03304
 O5 O -0.06814 0.44176 1.03240
 O6 O -0.07493 0.56113 0.96570
 O7 O -0.07169 0.44568 0.96626
 O8 O -0.07318 0.55651 1.03164
 Cu9 Cu 0.03575 0.50036 0.99894
 Cu10 Cu -0.08181 0.50128 0.99890
 C11 C -0.02461 0.57602 1.04250
 C12 C -0.02251 0.42519 0.95557
 C13 C -0.02700 0.58053 0.95398
 C14 C -0.01784 0.42218 1.04432
 O15 O 0.45142 0.05476 0.52819
 O16 O 0.56646 0.04810 0.46424
 O17 O 0.45118 0.04424 0.46301
 O18 O 0.56790 0.05231 0.53043
 O19 O 0.57297 -0.04479 0.53540
 O20 O 0.45511 -0.05267 0.47062
 O21 O 0.57132 -0.04890 0.46926
 O22 O 0.45765 -0.04214 0.53582
 Cu23 Cu 0.50901 0.05955 0.49590
 Cu24 Cu 0.51500 -0.05683 0.50329
 C25 C 0.43436 0.00781 0.54275
 C26 C 0.58853 -0.00110 0.45543
 C27 C 0.43240 -0.00595 0.45600
 C28 C 0.59035 0.00465 0.54440
 Si29 Si 0.00105 -0.01769 0.24863
 Si30 Si 0.02095 0.01418 0.75195
 C31 C -0.08030 -0.35457 0.07938
 C32 C -0.08162 -0.31078 0.10324
 C33 C -0.02874 -0.29022 0.11660
 C34 C 0.02597 -0.31423 0.10594
 C35 C 0.02740 -0.35797 0.08197
 C36 C -0.02576 -0.37849 0.06834
 N37 N -0.03200 -0.24424 0.14034
 N38 N 0.01402 -0.22428 0.15433
 C39 C 0.01003 -0.17731 0.17744
 C40 C 0.06214 -0.15811 0.19259
 C41 C 0.05982 -0.11111 0.21441
 C42 C 0.00521 -0.08234 0.22110
 C43 C -0.04713 -0.10236 0.20647
 C44 C -0.04485 -0.14942 0.18477
 H45 H -0.12205 -0.36933 0.06939
 H46 H -0.12403 -0.29253 0.11122
 H47 H 0.06749 -0.29892 0.11589
 H48 H 0.07011 -0.37552 0.07402
 H49 H 0.10468 -0.17938 0.18728
 H50 H 0.10082 -0.09724 0.22562
 H51 H -0.08993 -0.08180 0.21187
 H52 H -0.08587 -0.16365 0.17357
 C53 C 0.03899 0.36276 0.09013
 C54 C 0.04298 0.31743 0.11525
 C55 C -0.00578 0.28302 0.12183
 C56 C -0.05944 0.29527 0.10344
 C57 C -0.06377 0.34119 0.07857
 C58 C -0.01436 0.37501 0.07142
 N59 N 0.00095 0.23535 0.14676
 N60 N -0.03827 0.19720 0.15091
 C61 C -0.03029 0.14916 0.17556
 C62 C -0.06931 0.10297 0.17491
 C63 C -0.06037 0.05375 0.19723
 C64 C -0.01232 0.05018 0.22066
 C65 C 0.02507 0.09782 0.22242
 C66 C 0.01660 0.14669 0.19982
 H67 H 0.07771 0.38825 0.08536
 H68 H 0.08451 0.30843 0.12929
 H69 H -0.09781 0.26931 0.10819
 H70 H -0.10542 0.34956 0.06455
 H71 H -0.10599 0.10458 0.15658
 H72 H -0.09083 0.01844 0.19593
 H73 H 0.06094 0.09766 0.24108
 H74 H 0.04675 0.18238 0.20125
 C75 C 0.34281 0.05855 0.56338
 C76 C 0.29548 0.06234 0.58555
 C77 C 0.29110 0.02073 0.61242
 C78 C 0.33434 -0.02568 0.61670
 C79 C 0.38105 -0.03044 0.59391
 C80 C 0.38579 0.01192 0.56717
 N81 N 0.24122 0.02567 0.63413
 N82 N 0.24085 0.00103 0.66374
 C83 C 0.18917 0.00540 0.68419
 C84 C 0.19484 -0.00531 0.71940
 C85 C 0.14483 -0.00120 0.73976
 C86 C 0.08820 0.01197 0.72501
 C87 C 0.08258 0.02232 0.68969
 C88 C 0.13268 0.01961 0.66946
 H89 H 0.34511 0.09147 0.54280
 H90 H 0.26218 0.09802 0.58190
 H91 H 0.33133 -0.05867 0.63716
 H92 H 0.41367 -0.06678 0.59732
 H93 H 0.23810 -0.01633 0.73108
 H94 H 0.15019 -0.00929 0.76698
 H95 H 0.03965 0.03234 0.67749
 H96 H 0.12714 0.02760 0.64225
 C97 C -0.34413 -0.04716 0.58914
 C98 C -0.29894 -0.04779 0.61393
 C99 C -0.27114 0.00398 0.62144
 C100 C -0.28973 0.05723 0.60412
 C101 C -0.33544 0.05804 0.57927
 C102 C -0.36275 0.00563 0.57134
 N103 N -0.22341 0.00023 0.64615
 N104 N -0.19348 0.04401 0.65414
 C105 C -0.14513 0.03704 0.67853
 C106 C -0.11131 0.08553 0.68562
 C107 C -0.06223 0.07897 0.70813
 C108 C -0.04659 0.02377 0.72387
 C109 C -0.08084 -0.02459 0.71718
 C110 C -0.12976 -0.01809 0.69472
 H111 H -0.36432 -0.08829 0.58385
 H112 H -0.28497 -0.08902 0.62712
 H113 H -0.26875 0.09785 0.60957
 H114 H -0.34882 0.09935 0.56599
 H115 H -0.12249 0.12818 0.67329
 H116 H -0.03599 0.11672 0.71287
 H117 H -0.06928 -0.06774 0.72872
 H118 H -0.15502 -0.05636 0.68968
 C119 C -0.08329 -0.34368 0.91893
 C120 C -0.08443 -0.29537 0.89563
 C121 C -0.03176 -0.27617 0.88159
 C122 C 0.02240 -0.30596 0.89105
 C123 C 0.02386 -0.35354 0.91473
 C124 C -0.02895 -0.37298 0.92919
 N125 N -0.03389 -0.22527 0.85878
 N126 N 0.01050 -0.21191 0.84102
 C127 C 0.01041 -0.15978 0.81930
 C128 C 0.05584 -0.15384 0.79594
 C129 C 0.05851 -0.10260 0.77525
 C130 C 0.01659 -0.05572 0.77832
 C131 C -0.02962 -0.06212 0.80134
 C132 C -0.03287 -0.11382 0.82166
 H133 H -0.12491 -0.35709 0.92941
 H134 H -0.12646 -0.27266 0.88859
 H135 H 0.06379 -0.29174 0.88068
 H136 H 0.06660 -0.37482 0.92177
 H137 H 0.08919 -0.18916 0.79371
 H138 H 0.09334 -0.10023 0.75692
 H139 H -0.06331 -0.02730 0.80368
 H140 H -0.06849 -0.11744 0.83954
 C141 C -0.07572 0.35444 0.91985
 C142 C -0.07542 0.30942 0.89674
 C143 C -0.02199 0.28818 0.88341
 C144 C 0.03156 0.31282 0.89333
 C145 C 0.03140 0.35773 0.91657
 C146 C -0.02225 0.37888 0.93019
 N147 N -0.02335 0.24101 0.86044
 N148 N 0.02314 0.22088 0.84634
 C149 C 0.02157 0.17295 0.82387
 C150 C 0.07366 0.15514 0.80773
 C151 C 0.07378 0.10803 0.78600
 C152 C 0.02181 0.07755 0.78047
 C153 C -0.03059 0.09584 0.79632
 C154 C -0.03082 0.14315 0.81788
 H155 H -0.11779 0.36962 0.92988
 H156 H -0.11696 0.29075 0.88932
 H157 H 0.07349 0.29706 0.88339
 H158 H 0.07332 0.37563 0.92400
 H159 H 0.11425 0.17790 0.81200
 H160 H 0.11462 0.09569 0.77377
 H161 H -0.07163 0.07408 0.79175
 H162 H -0.07180 0.15626 0.82989
 C163 C -0.35058 0.05155 0.41479
 C164 C -0.30685 0.05180 0.39031
 C165 C -0.27893 -0.00082 0.38089
 C166 C -0.29575 -0.05450 0.39602
 C167 C -0.34002 -0.05503 0.42052
 C168 C -0.36782 -0.00184 0.43041
 N169 N -0.23323 0.00228 0.35628
 N170 N -0.20262 -0.04249 0.34720
 C171 C -0.15669 -0.03653 0.32280
 C172 C -0.12076 -0.08596 0.31540
 C173 C -0.07407 -0.08058 0.29276
 C174 C -0.06314 -0.02567 0.27708
 C175 C -0.09948 0.02368 0.28411
 C176 C -0.14592 0.01839 0.30678
 H177 H -0.37073 0.09353 0.42144
 H178 H -0.29421 0.09340 0.37879
 H179 H -0.27467 -0.09582 0.38902
 H180 H -0.35198 -0.09700 0.43185
 H181 H -0.12840 -0.12847 0.32760
 H182 H -0.04608 -0.11907 0.28781
 H183 H -0.09146 0.06660 0.27258
 H184 H -0.17295 0.05735 0.31204
 C185 C 0.34461 -0.05794 0.43519
 C186 C 0.29577 -0.06215 0.41316
 C187 C 0.28473 -0.02026 0.38652
 C188 C 0.32284 0.02677 0.38230
 C189 C 0.37104 0.03193 0.40498
 C190 C 0.38244 -0.01064 0.43152
 N191 N 0.23336 -0.02558 0.36504
 N192 N 0.22766 -0.00061 0.33555
 C193 C 0.17449 -0.00553 0.31540
 C194 C 0.17578 0.00495 0.28014
 C195 C 0.12433 -0.00003 0.26007
 C196 C 0.07046 -0.01379 0.27515
 C197 C 0.06916 -0.02384 0.31051
 C198 C 0.12083 -0.02028 0.33046
 H199 H 0.35204 -0.09104 0.45563
 H200 H 0.26646 -0.09832 0.41675
 H201 H 0.31462 0.05997 0.36202
 H202 H 0.39956 0.06881 0.40167
 H203 H 0.21683 0.01634 0.26821
 H204 H 0.12638 0.00772 0.23280
 H205 H 0.02843 -0.03446 0.32293
 H206 H 0.11866 -0.02815 0.35771
   
