data_POSCAR
  _audit_creation_date              2014-09-24
  _audit_creation_method            'ToBaCCo'
  _symmetry_space_group_name_H-M    'P1'
  _symmetry_Int_Tables_number       1
  _symmetry_cell_setting            triclinic
  loop_
  _symmetry_equiv_pos_as_xyz
 x,y,z
_cell_length_a 56.5720
_cell_length_b 32.4930
_cell_length_c 18.9521
_cell_angle_alpha 89.968600
_cell_angle_beta 89.923000
_cell_angle_gamma 90.063600
loop_
  _atom_site_label
  _atom_site_type_symbol
  _atom_site_fract_x
  _atom_site_fract_y
  _atom_site_fract_z
C1 C 0.75000 0.25260 0.46770
 C2 C 0.74986 0.25230 0.53973
 C3 C 0.73084 0.27271 0.58058
 C4 C 0.76856 0.23151 0.58117
 C5 C 0.77018 0.23561 0.42635
 C6 C 0.72981 0.26979 0.42694
 C7 C 0.72728 0.31519 0.57562
 C8 C 0.70844 0.33386 0.61099
 C9 C 0.69220 0.31034 0.65163
 C10 C 0.69656 0.26745 0.65703
 C11 C 0.71573 0.24918 0.62281
 C12 C 0.78219 0.25432 0.62897
 C13 C 0.80083 0.23572 0.66512
 C14 C 0.80587 0.19381 0.65499
 C15 C 0.79166 0.17066 0.60893
 C16 C 0.77316 0.18939 0.57220
 C17 C 0.76587 0.20801 0.37092
 C18 C 0.78462 0.19094 0.33288
 C19 C 0.80817 0.20080 0.34981
 C20 C 0.81239 0.22930 0.40431
 C21 C 0.79360 0.24699 0.44130
 C22 C 0.70655 0.25690 0.44040
 C23 C 0.68762 0.27479 0.40463
 C24 C 0.69155 0.30494 0.35256
 C25 C 0.71500 0.31638 0.33693
 C26 C 0.73390 0.29911 0.37396
 H27 H 0.73885 0.33381 0.54303
 H28 H 0.70598 0.36639 0.60171
 H29 H 0.68595 0.24763 0.69021
 H30 H 0.71848 0.21632 0.62795
 H31 H 0.77879 0.28680 0.63679
 H32 H 0.81135 0.25407 0.70101
 H33 H 0.76263 0.17125 0.53602
 H34 H 0.74794 0.19926 0.35761
 H35 H 0.78060 0.17005 0.29009
 H36 H 0.83022 0.23746 0.41945
 H37 H 0.79739 0.26921 0.48230
 H38 H 0.70299 0.23332 0.47937
 H39 H 0.66988 0.26539 0.41885
 H40 H 0.71881 0.33863 0.29595
 H41 H 0.75174 0.30900 0.36185
 H42 H 0.79525 0.13834 0.60008
 C43 C 0.25211 0.75806 0.46389
 C44 C 0.25184 0.75725 0.53559
 C45 C 0.23166 0.77410 0.57593
 C46 C 0.27164 0.73956 0.57656
 C47 C 0.27126 0.73818 0.42302
 C48 C 0.23296 0.77819 0.42340
 C49 C 0.23475 0.80922 0.61768
 C50 C 0.21546 0.82694 0.65223
 C51 C 0.19277 0.80937 0.64664
 C52 C 0.18995 0.77342 0.60605
 C53 C 0.20921 0.75607 0.57079
 C54 C 0.29435 0.75668 0.57217
 C55 C 0.31312 0.73900 0.60916
 C56 C 0.30957 0.70363 0.65085
 C57 C 0.28663 0.68700 0.65577
 C58 C 0.26782 0.70504 0.61941
 C59 C 0.27508 0.69563 0.42801
 C60 C 0.29354 0.67723 0.39056
 C61 C 0.30854 0.70116 0.34787
 C62 C 0.30449 0.74371 0.34244
 C63 C 0.28586 0.76201 0.37927
 C64 C 0.21843 0.75458 0.37929
 C65 C 0.19936 0.77276 0.34448
 C66 C 0.19472 0.81499 0.35247
 C67 C 0.20974 0.83882 0.39510
 C68 C 0.22869 0.82053 0.43041
 H69 H 0.25198 0.82359 0.62177
 H70 H 0.21825 0.85495 0.68199
 H71 H 0.17288 0.75856 0.60172
 H72 H 0.20662 0.72869 0.53912
 H73 H 0.29751 0.78369 0.53997
 H74 H 0.33039 0.75318 0.60532
 H75 H 0.25038 0.69142 0.62319
 H76 H 0.26382 0.67677 0.46114
 H77 H 0.29639 0.64442 0.39591
 H78 H 0.31568 0.76272 0.30933
 H79 H 0.28305 0.79487 0.37470
 H80 H 0.22154 0.72188 0.37322
 H81 H 0.18821 0.75384 0.31126
 H82 H 0.20648 0.87137 0.40240
 H83 H 0.23987 0.83922 0.46392
 H84 H 0.28327 0.65948 0.68639
 C85 C 0.25068 0.24572 -0.53482
 C86 C 0.25065 0.24562 -0.46310
 C87 C 0.23130 0.22579 -0.42288
 C88 C 0.26973 0.26548 -0.42200
 C89 C 0.27068 0.26294 -0.57594
 C90 C 0.23062 0.22831 -0.57508
 C91 C 0.21526 0.24998 -0.38509
 C92 C 0.19597 0.23183 -0.35108
 C93 C 0.19249 0.18873 -0.35278
 C94 C 0.20930 0.16464 -0.38947
 C95 C 0.22833 0.18304 -0.42449
 C96 C 0.27405 0.30786 -0.42831
 C97 C 0.29262 0.32611 -0.39116
 C98 C 0.30724 0.30220 -0.34749
 C99 C 0.30267 0.25987 -0.34062
 C100 C 0.28392 0.24174 -0.37713
 C101 C 0.29353 0.24715 -0.56826
 C102 C 0.31243 0.26446 -0.60535
 C103 C 0.30906 0.29831 -0.65135
 C104 C 0.28570 0.31319 -0.65957
 C105 C 0.26684 0.29557 -0.62267
 C106 C 0.23391 0.19322 -0.61651
 C107 C 0.21481 0.17514 -0.65139
 C108 C 0.19180 0.19204 -0.64645
 C109 C 0.18901 0.22824 -0.60570
 C110 C 0.20814 0.24598 -0.57053
 H111 H 0.21745 0.28309 -0.38309
 H112 H 0.18429 0.25179 -0.32158
 H113 H 0.20727 0.13168 -0.39463
 H114 H 0.24058 0.16399 -0.45386
 H115 H 0.26313 0.32665 -0.46239
 H116 H 0.29587 0.35875 -0.39760
 H117 H 0.28076 0.20901 -0.37157
 H118 H 0.29671 0.22124 -0.53358
 H119 H 0.32950 0.25000 -0.59910
 H120 H 0.28180 0.33981 -0.69167
 H121 H 0.24926 0.30824 -0.62901
 H122 H 0.25120 0.17904 -0.62002
 H123 H 0.21822 0.14673 -0.67917
 H124 H 0.17227 0.24411 -0.60224
 H125 H 0.20543 0.27362 -0.53962
 H126 H 0.31356 0.24091 -0.30674
 C127 C -0.24941 0.74674 -0.46360
 C128 C -0.24955 0.74670 -0.53520
 C129 C -0.22958 0.76360 -0.57661
 C130 C -0.26947 0.72848 -0.57484
 C131 C -0.26896 0.72792 -0.42326
 C132 C -0.23008 0.76611 -0.42294
 C133 C -0.23322 0.79689 -0.62204
 C134 C -0.21427 0.81428 -0.65889
 C135 C -0.19107 0.79849 -0.65181
 C136 C -0.18792 0.76400 -0.60712
 C137 C -0.20691 0.74691 -0.57013
 C138 C -0.29113 0.74898 -0.57919
 C139 C -0.31027 0.73076 -0.61365
 C140 C -0.30823 0.69140 -0.64511
 C141 C -0.28600 0.67156 -0.64119
 C142 C -0.26692 0.68995 -0.60661
 C143 C -0.26848 0.68603 -0.40647
 C144 C -0.28748 0.66790 -0.37094
 C145 C -0.30771 0.69117 -0.35287
 C146 C -0.30784 0.73348 -0.37027
 C147 C -0.28855 0.75165 -0.40423
 C148 C -0.21499 0.74179 -0.38172
 C149 C -0.19613 0.75977 -0.34550
 C150 C -0.19233 0.80246 -0.34898
 C151 C -0.20775 0.82686 -0.38925
 C152 C -0.22642 0.80878 -0.42625
 H153 H -0.25066 0.81026 -0.62735
 H154 H -0.21796 0.84141 -0.68996
 H155 H -0.17100 0.74892 -0.60185
 H156 H -0.20392 0.72050 -0.53641
 H157 H -0.29320 0.77917 -0.55580
 H158 H -0.32634 0.74858 -0.61737
 H159 H -0.25027 0.67364 -0.60307
 H160 H -0.25354 0.66725 -0.42185
 H161 H -0.28666 0.63513 -0.36116
 H162 H -0.32242 0.75321 -0.35554
 H163 H -0.28904 0.78418 -0.41667
 H164 H -0.21754 0.70881 -0.37872
 H165 H -0.18458 0.74040 -0.31436
 H166 H -0.20507 0.85979 -0.39310
 H167 H -0.23797 0.82796 -0.45776
 H168 H -0.28333 0.64086 -0.66160
 O169 O 0.03250 0.92938 -0.13010
 O170 O 0.05820 0.96597 -0.06102
 C171 C 0.05368 0.93996 -0.11097
 O172 O -0.03441 1.07448 -0.12132
 O173 O -0.05991 1.03399 -0.05761
 C174 C -0.05555 1.06272 -0.10326
 O175 O 0.03228 1.07186 -0.12864
 O176 O 0.05833 1.03417 -0.06216
 C177 C 0.05356 1.06070 -0.11114
 O178 O -0.03376 0.92403 -0.12021
 O179 O -0.05960 0.96345 -0.05611
 C180 C -0.05501 0.93485 -0.10175
 Zr181 Zr -0.00055 0.94774 -0.08767
 O182 O -0.00320 0.94500 -0.19893
 O183 O 0.00105 0.88295 -0.07929
 Zr184 Zr -0.00095 1.05209 -0.08841
 O185 O -0.00374 1.05206 -0.19980
 O186 O 0.00142 1.11713 -0.08805
 O187 O 0.02021 1.00022 -0.10237
 O188 O -0.02121 0.99956 -0.10062
 O189 O -0.03321 0.92427 0.12407
 O190 O -0.05940 0.96348 0.06076
 C191 C -0.05455 0.93488 0.10623
 O192 O 0.03265 1.07153 0.12959
 O193 O 0.05849 1.03504 0.06057
 C194 C 0.05390 1.06115 0.11037
 O195 O -0.03389 1.07552 0.12293
 O196 O -0.05967 1.03486 0.06086
 C197 C -0.05508 1.06390 0.10563
 O198 O 0.03338 0.92936 0.12938
 O199 O 0.05885 0.96767 0.06166
 C200 C 0.05450 0.94103 0.11091
 Zr201 Zr -0.00014 0.94800 0.09033
 O202 O -0.00252 0.94794 0.20181
 O203 O 0.00240 0.88303 0.08976
 Zr204 Zr -0.00067 1.05218 0.08995
 O205 O -0.00335 1.05222 0.20138
 O206 O 0.00196 1.11717 0.08977
 Zr207 Zr 0.03449 1.00063 0.00029
 Zr208 Zr -0.03566 0.99950 0.00175
 O209 O -0.02089 0.99978 0.10357
 O210 O 0.02062 1.00046 0.10360
 O211 O -0.02142 0.93965 0.00176
 O212 O 0.01971 1.06000 0.00036
 O213 O 0.02034 0.94076 0.00086
 O214 O -0.02194 1.05986 0.00112
 H215 H -0.03191 0.99918 -0.14197
 H216 H 0.03044 1.08414 0.00010
 H217 H -0.03158 0.99970 0.14504
 H218 H 0.03125 0.91692 0.00080
 H219 H -0.01215 1.12771 -0.06055
 H220 H -0.01101 1.12786 0.06006
 H221 H 0.00984 1.03545 0.21987
 H222 H 0.01057 0.96510 0.21995
 H223 H -0.00906 0.87277 0.05449
 H224 H 0.00078 0.87233 -0.12828
 H225 H 0.00770 0.96600 -0.21818
 H226 H 0.00969 1.03594 -0.21855
 O227 O 0.53240 0.42740 -0.12871
 O228 O 0.55845 0.46545 -0.06271
 C229 C 0.55364 0.43867 -0.11129
 O230 O 0.46685 0.57487 -0.12411
 O231 O 0.44068 0.53619 -0.05955
 C232 C 0.44555 0.56443 -0.10573
 O233 O 0.53293 0.57115 -0.12953
 O234 O 0.55871 0.53421 -0.06131
 C235 C 0.55415 0.56061 -0.11068
 O236 O 0.46605 0.42436 -0.12128
 O237 O 0.44024 0.46466 -0.05854
 C238 C 0.44481 0.43575 -0.10362
 Zr239 Zr 0.49936 0.44755 -0.08839
 O240 O 0.49703 0.44567 -0.19981
 O241 O 0.50027 0.38268 -0.08072
 Zr242 Zr 0.49973 0.55164 -0.08916
 O243 O 0.49763 0.55317 -0.20064
 O244 O 0.50085 0.61653 -0.08219
 O245 O 0.52062 0.49946 -0.10275
 O246 O 0.47904 0.49971 -0.10187
 O247 O 0.46639 0.42462 0.12299
 O248 O 0.44046 0.46412 0.05948
 C249 C 0.44514 0.43548 0.10507
 O250 O 0.53272 0.57147 0.12909
 O251 O 0.55860 0.53416 0.06157
 C252 C 0.55398 0.56061 0.11084
 O253 O 0.46636 0.57605 0.12067
 O254 O 0.44037 0.53584 0.05842
 C255 C 0.44507 0.56489 0.10312
 O256 O 0.53239 0.42746 0.12861
 O257 O 0.55845 0.46534 0.06221
 C258 C 0.55363 0.43855 0.11079
 Zr259 Zr 0.49942 0.44814 0.08929
 O260 O 0.49691 0.44939 0.20077
 O261 O 0.50130 0.38310 0.08979
 Zr262 Zr 0.49956 0.55205 0.08864
 O263 O 0.49673 0.55210 0.20004
 O264 O 0.50200 0.61704 0.08781
 Zr265 Zr 0.53489 0.49973 -0.00003
 Zr266 Zr 0.46427 0.50006 -0.00000
 O267 O 0.47890 0.50021 0.10199
 O268 O 0.52062 0.50003 0.10284
 O269 O 0.47822 0.44001 0.00052
 O270 O 0.52033 0.55927 -0.00031
 O271 O 0.52009 0.44031 0.00033
 O272 O 0.47853 0.55994 -0.00049
 H273 H 0.46848 0.49963 -0.14353
 H274 H 0.53105 0.58341 -0.00031
 H275 H 0.46816 0.50037 0.14333
 H276 H 0.53072 0.41609 0.00034
 H277 H 0.50100 0.62684 -0.13141
 H278 H 0.49098 0.62711 0.05117
 H279 H 0.50978 0.53506 0.21870
 H280 H 0.51078 0.46466 0.21884
 H281 H 0.49050 0.37305 0.05257
 H282 H 0.50001 0.37222 -0.12982
 H283 H 0.50937 0.46427 -0.21860
 H284 H 0.50981 0.53417 -0.21903
 C285 C 0.36689 0.35511 0.24307
 C286 C 0.37091 0.33264 0.30503
 C287 C 0.35179 0.31391 0.33957
 C288 C 0.32847 0.31700 0.31268
 C289 C 0.32507 0.33968 0.24946
 C290 C 0.34410 0.35884 0.21497
 C291 C 0.38694 0.37532 0.20713
 C292 C 0.38289 0.39822 0.14548
 C293 C 0.40199 0.41781 0.11206
 C294 C 0.42504 0.41429 0.13965
 C295 C 0.42876 0.39084 0.20122
 C296 C 0.40976 0.37150 0.23536
 C297 C 0.34076 0.38168 0.15271
 C298 C 0.35981 0.40113 0.11868
 C299 C 0.39401 0.32964 0.33181
 C300 C 0.41311 0.34864 0.29746
 H301 H 0.32325 0.38476 0.13029
 H302 H 0.35644 0.41861 0.07104
 H303 H 0.39736 0.31242 0.37973
 H304 H 0.43063 0.34552 0.31985
 H305 H 0.35527 0.29855 0.38911
 H306 H 0.30785 0.34157 0.22500
 H307 H 0.39891 0.43559 0.06452
 H308 H 0.44636 0.38809 0.22324
 C309 C -0.13298 0.85462 0.24317
 C310 C -0.15579 0.85916 0.21553
 C311 C -0.17490 0.84022 0.24985
 C312 C -0.17157 0.81693 0.31240
 C313 C -0.14823 0.81297 0.33883
 C314 C -0.12902 0.83153 0.30448
 C315 C -0.11284 0.87466 0.20745
 C316 C -0.09000 0.87012 0.23525
 C317 C -0.07093 0.88941 0.20138
 C318 C -0.07462 0.91350 0.14052
 C319 C -0.09769 0.91763 0.11331
 C320 C -0.11684 0.89817 0.14647
 C321 C -0.10591 0.82776 0.33082
 C322 C -0.08672 0.84664 0.29669
 C323 C -0.15907 0.88259 0.15391
 C324 C -0.13993 0.90186 0.12007
 H325 H -0.10261 0.81004 0.37825
 H326 H -0.06919 0.84295 0.31876
 H327 H -0.17660 0.88629 0.13187
 H328 H -0.14325 0.91982 0.07293
 H329 H -0.19216 0.84275 0.22578
 H330 H -0.14481 0.79706 0.38790
 H331 H -0.05331 0.88617 0.22304
 H332 H -0.10076 0.93589 0.06630
 C333 C 0.63326 0.63506 0.25293
 C334 C 0.65628 0.62407 0.23315
 C335 C 0.67556 0.64272 0.26693
 C336 C 0.67215 0.67244 0.32076
 C337 C 0.64861 0.68267 0.33972
 C338 C 0.62925 0.66421 0.30607
 C339 C 0.61293 0.61578 0.21707
 C340 C 0.58987 0.62682 0.23683
 C341 C 0.57060 0.60864 0.20218
 C342 C 0.57430 0.57965 0.14794
 C343 C 0.59763 0.56891 0.12907
 C344 C 0.61698 0.58683 0.16350
 C345 C 0.60591 0.67427 0.32479
 C346 C 0.58655 0.65592 0.29073
 C347 C 0.65962 0.59483 0.17940
 C348 C 0.64030 0.57650 0.14521
 H349 H 0.60255 0.69665 0.36595
 H350 H 0.56886 0.66468 0.30661
 H351 H 0.67731 0.58605 0.16355
 H352 H 0.64365 0.55413 0.10402
 H353 H 0.69312 0.63502 0.24856
 H354 H 0.64505 0.70379 0.38253
 H355 H 0.55279 0.61717 0.21735
 H356 H 0.60081 0.54673 0.08745
 C357 C 0.13326 1.13583 0.25139
 C358 C 0.15615 1.12879 0.22583
 C359 C 0.17542 1.14757 0.25942
 C360 C 0.17216 1.17322 0.31920
 C361 C 0.14875 1.17939 0.34396
 C362 C 0.12938 1.16105 0.31020
 C363 C 0.11292 1.11650 0.21570
 C364 C 0.08997 1.12382 0.24096
 C365 C 0.07067 1.10571 0.20638
 C366 C 0.07424 1.08028 0.14708
 C367 C 0.09747 1.07308 0.12290
 C368 C 0.11684 1.09119 0.15687
 C369 C 0.10616 1.16734 0.33441
 C370 C 0.08678 1.14913 0.30027
 C371 C 0.15936 1.10325 0.16673
 C372 C 0.14005 1.08467 0.13297
 H373 H 0.10291 1.18668 0.37995
 H374 H 0.06917 1.15495 0.32045
 H375 H 0.17697 1.09753 0.14644
 H376 H 0.14330 1.06516 0.08764
 H377 H 0.19275 1.14317 0.23653
 H378 H 0.14534 1.19712 0.39116
 H379 H 0.05294 1.11136 0.22577
 H380 H 0.10053 1.05362 0.07736
 C381 C 0.63333 0.36480 -0.25059
 C382 C 0.65334 0.38879 -0.26515
 C383 C 0.67289 0.37065 -0.29844
 C384 C 0.67303 0.32815 -0.31624
 C385 C 0.65245 0.30479 -0.29996
 C386 C 0.63265 0.32297 -0.26815
 C387 C 0.61268 0.38385 -0.21601
 C388 C 0.59238 0.36005 -0.20297
 C389 C 0.57279 0.37836 -0.17010
 C390 C 0.57375 0.41979 -0.14869
 C391 C 0.59425 0.44312 -0.16194
 C392 C 0.61368 0.42544 -0.19631
 C393 C 0.61205 0.30008 -0.25412
 C394 C 0.59222 0.31835 -0.22242
 C395 C 0.65356 0.43051 -0.24539
 C396 C 0.63411 0.44847 -0.21126
 H397 H 0.61123 0.26774 -0.26783
 H398 H 0.57671 0.29960 -0.21259
 H399 H 0.66894 0.44941 -0.25609
 H400 H 0.63504 0.48064 -0.19664
 H401 H 0.68839 0.38965 -0.30618
 H402 H 0.65091 0.27287 -0.31555
 H403 H 0.55708 0.36022 -0.15954
 H404 H 0.59493 0.47511 -0.14620
 C405 C 0.13331 0.86559 -0.25056
 C406 C 0.13024 0.84699 -0.31673
 C407 C 0.14974 0.82887 -0.35027
 C408 C 0.17214 0.82869 -0.31762
 C409 C 0.17478 0.84732 -0.25088
 C410 C 0.15549 0.86607 -0.21742
 C411 C 0.11290 0.88485 -0.21519
 C412 C 0.11606 0.90385 -0.14938
 C413 C 0.09663 0.92211 -0.11597
 C414 C 0.07407 0.92098 -0.14741
 C415 C 0.07120 0.90166 -0.21338
 C416 C 0.09062 0.88377 -0.24775
 C417 C 0.15792 0.88526 -0.15140
 C418 C 0.13856 0.90399 -0.11808
 C419 C 0.10773 0.84689 -0.34803
 C420 C 0.08824 0.86482 -0.31399
 H421 H 0.17495 0.88590 -0.12534
 H422 H 0.14120 0.91853 -0.06724
 H423 H 0.10514 0.83265 -0.39912
 H424 H 0.07116 0.86388 -0.33978
 H425 H 0.14750 0.81538 -0.40210
 H426 H 0.19177 0.84687 -0.22455
 H427 H 0.09904 0.93670 -0.06503
 H428 H 0.05395 0.90087 -0.23822
 C429 C 0.36776 0.64525 -0.24359
 C430 C 0.34552 0.64616 -0.21073
 C431 C 0.32662 0.66570 -0.24495
 C432 C 0.32975 0.68375 -0.31209
 C433 C 0.35224 0.68225 -0.34424
 C434 C 0.37131 0.66333 -0.31006
 C435 C 0.38771 0.62482 -0.20786
 C436 C 0.41000 0.62431 -0.24049
 C437 C 0.42892 0.60495 -0.20631
 C438 C 0.42559 0.58560 -0.14050
 C439 C 0.40306 0.58621 -0.10865
 C440 C 0.38408 0.60607 -0.14193
 C441 C 0.39385 0.66198 -0.34118
 C442 C 0.41289 0.64294 -0.30685
 C443 C 0.34262 0.62742 -0.14440
 C444 C 0.36155 0.60757 -0.11070
 H445 H 0.39681 0.67584 -0.39246
 H446 H 0.43000 0.64266 -0.33263
 H447 H 0.32554 0.62790 -0.11847
 H448 H 0.35853 0.59334 -0.05976
 H449 H 0.30956 0.66711 -0.21905
 H450 H 0.35485 0.69524 -0.39634
 H451 H 0.44614 0.60436 -0.23149
 H452 H 0.40035 0.57162 -0.05780
 C453 C -0.13514 1.13830 -0.24072
 C454 C -0.15712 1.11815 -0.24008
 C455 C -0.17639 1.13635 -0.27457
 C456 C -0.17379 1.17459 -0.30870
 C457 C -0.15165 1.19444 -0.30852
 C458 C -0.13221 1.17631 -0.27492
 C459 C -0.11477 1.11918 -0.20505
 C460 C -0.09269 1.13898 -0.20667
 C461 C -0.07331 1.12043 -0.17331
 C462 C -0.07600 1.08260 -0.13783
 C463 C -0.09837 1.06341 -0.13624
 C464 C -0.11776 1.08141 -0.17020
 C465 C -0.10989 1.19532 -0.27506
 C466 C -0.09045 1.17691 -0.24168
 C467 C -0.15939 1.08029 -0.20487
 C468 C -0.14005 1.06228 -0.17033
 H469 H -0.10741 1.22462 -0.30138
 H470 H -0.07352 1.19253 -0.24324
 H471 H -0.17626 1.06447 -0.20391
 H472 H -0.14255 1.03309 -0.14370
 H473 H -0.19345 1.12113 -0.27413
 H474 H -0.14951 1.22365 -0.33547
 H475 H -0.05623 1.13555 -0.17456
 H476 H -0.10063 1.03418 -0.10948
 C477 C 0.63367 0.63579 -0.25078
 C478 C 0.65648 0.62069 -0.23799
 C479 C 0.67581 0.63877 -0.27255
 C480 C 0.67266 0.67261 -0.31869
 C481 C 0.64943 0.68744 -0.32996
 C482 C 0.62996 0.66891 -0.29686
 C483 C 0.61328 0.61660 -0.21505
 C484 C 0.59038 0.63112 -0.22898
 C485 C 0.57103 0.61253 -0.19523
 C486 C 0.57451 0.58009 -0.14694
 C487 C 0.59770 0.56645 -0.13288
 C488 C 0.61709 0.58424 -0.16738
 C489 C 0.60679 0.68273 -0.30930
 C490 C 0.58733 0.66403 -0.27618
 C491 C 0.65957 0.58803 -0.19025
 C492 C 0.64022 0.57030 -0.15517
 H493 H 0.60367 0.70818 -0.34505
 H494 H 0.56977 0.67558 -0.28735
 H495 H 0.67711 0.57619 -0.17963
 H496 H 0.64338 0.54536 -0.11842
 H497 H 0.69335 0.62749 -0.26059
 H498 H 0.64619 0.71224 -0.36690
 H499 H 0.55333 0.62359 -0.20609
 H500 H 0.60073 0.54192 -0.09524
 C501 C 0.13322 1.13384 -0.25271
 C502 C 0.15434 1.11155 -0.25866
 C503 C 0.17385 1.12964 -0.29240
 C504 C 0.17265 1.17030 -0.31922
 C505 C 0.15110 1.19209 -0.31197
 C506 C 0.13139 1.17393 -0.27947
 C507 C 0.11264 1.11489 -0.21747
 C508 C 0.09136 1.13694 -0.21262
 C509 C 0.07185 1.11879 -0.17895
 C510 C 0.07375 1.07928 -0.14899
 C511 C 0.09525 1.05763 -0.15428
 C512 C 0.11470 1.07516 -0.18898
 C513 C 0.10980 1.19507 -0.27357
 C514 C 0.09010 1.17683 -0.24096
 C515 C 0.15563 1.07167 -0.23012
 C516 C 0.13617 1.05384 -0.19562
 H517 H 0.10812 1.22600 -0.29434
 H518 H 0.07381 1.19421 -0.23752
 H519 H 0.17186 1.05414 -0.23418
 H520 H 0.13795 1.02310 -0.17405
 H521 H 0.19021 1.11245 -0.29459
 H522 H 0.14912 1.22259 -0.33420
 H523 H 0.05540 1.13570 -0.17467
 H524 H 0.09678 1.02702 -0.13192
 C525 C 0.36570 0.35792 -0.24055
 C526 C 0.34335 0.37662 -0.23724
 C527 C 0.32426 0.35826 -0.27239
 C528 C 0.32739 0.32128 -0.30992
 C529 C 0.34987 0.30274 -0.31213
 C530 C 0.36914 0.32110 -0.27790
 C531 C 0.38592 0.37744 -0.20463
 C532 C 0.40837 0.35921 -0.20909
 C533 C 0.42762 0.37828 -0.17581
 C534 C 0.42447 0.41513 -0.13776
 C535 C 0.40172 0.43268 -0.13325
 C536 C 0.38243 0.41411 -0.16695
 C537 C 0.39182 0.30357 -0.28066
 C538 C 0.41112 0.32236 -0.24700
 C539 C 0.34056 0.41331 -0.19896
 C540 C 0.35976 0.43169 -0.16423
 H541 H 0.39471 0.27519 -0.30938
 H542 H 0.42833 0.30794 -0.25075
 H543 H 0.32340 0.42798 -0.19586
 H544 H 0.35687 0.46001 -0.13534
 H545 H 0.30694 0.37244 -0.27007
 H546 H 0.35240 0.27449 -0.34160
 H547 H 0.44500 0.36439 -0.17937
 H548 H 0.39905 0.46114 -0.10450
 C549 C -0.13395 0.85753 -0.24064
 C550 C -0.13016 0.82249 -0.28247
 C551 C -0.14939 0.80436 -0.31729
 C552 C -0.17218 0.82142 -0.31124
 C553 C -0.17565 0.85668 -0.26936
 C554 C -0.15660 0.87473 -0.23352
 C555 C -0.11379 0.87674 -0.20393
 C556 C -0.11762 0.91156 -0.16166
 C557 C -0.09838 0.92988 -0.12729
 C558 C -0.07534 0.91406 -0.13582
 C559 C -0.07187 0.87895 -0.17826
 C560 C -0.09106 0.86008 -0.21220
 C561 C -0.15972 0.90959 -0.19070
 C562 C -0.14057 0.92760 -0.15515
 C563 C -0.10720 0.80647 -0.28895
 C564 C -0.08797 0.82502 -0.25458
 H565 H -0.17711 0.92307 -0.18459
 H566 H -0.14375 0.95443 -0.12258
 H567 H -0.10404 0.77948 -0.32115
 H568 H -0.07053 0.81181 -0.26131
 H569 H -0.14661 0.77745 -0.35006
 H570 H -0.19320 0.86968 -0.26410
 H571 H -0.10136 0.95683 -0.09483
 H572 H -0.05428 0.86634 -0.18498
 C573 C 0.36650 0.64457 0.23978
 C574 C 0.37031 0.68095 0.27809
 C575 C 0.35120 0.69964 0.31263
 C576 C 0.32851 0.68185 0.30977
 C577 C 0.32500 0.64532 0.27120
 C578 C 0.34394 0.62665 0.23576
 C579 C 0.38656 0.62465 0.20370
 C580 C 0.38273 0.58837 0.16520
 C581 C 0.40189 0.56934 0.13155
 C582 C 0.42484 0.58605 0.13692
 C583 C 0.42832 0.62258 0.17564
 C584 C 0.40922 0.64208 0.20893
 C585 C 0.34079 0.59036 0.19657
 C586 C 0.35985 0.57160 0.16172
 C587 C 0.39319 0.69770 0.28154
 C588 C 0.41233 0.67854 0.24769
 H589 H 0.32346 0.57630 0.19292
 H590 H 0.35668 0.54359 0.13219
 H591 H 0.39636 0.72574 0.31099
 H592 H 0.42971 0.69234 0.25203
 H593 H 0.35401 0.72752 0.34289
 H594 H 0.30752 0.63174 0.26836
 H595 H 0.39895 0.54116 0.10222
 H596 H 0.44585 0.63585 0.17986
 C597 C -0.13369 1.14305 0.24220
 C598 C -0.15463 1.12080 0.25358
 C599 C -0.17351 1.13978 0.28880
 C600 C -0.17178 1.18103 0.31157
 C601 C -0.15067 1.20300 0.29859
 C602 C -0.13151 1.18403 0.26467
 C603 C -0.11361 1.12296 0.20649
 C604 C -0.09244 1.14488 0.19674
 C605 C -0.07323 1.12535 0.16396
 C606 C -0.07531 1.08453 0.13985
 C607 C -0.09678 1.06320 0.14918
 C608 C -0.11591 1.08213 0.18320
 C609 C -0.11016 1.20515 0.25308
 C610 C -0.09091 1.18584 0.22003
 C611 C -0.15622 1.07991 0.22988
 C612 C -0.13723 1.06097 0.19494
 H613 H -0.10825 1.23679 0.27020
 H614 H -0.07471 1.20313 0.21261
 H615 H -0.17230 1.06242 0.23828
 H616 H -0.13920 1.02942 0.17740
 H617 H -0.18937 1.12212 0.29946
 H618 H -0.14914 1.23491 0.31447
 H619 H -0.05680 1.14201 0.15649
 H620 H -0.09843 1.03163 0.13130
 C621 C 0.63261 0.36212 0.24862
 C622 C 0.65315 0.38519 0.26141
 C623 C 0.67232 0.36643 0.29545
 C624 C 0.67128 0.32460 0.31545
 C625 C 0.65058 0.30185 0.30093
 C626 C 0.63113 0.32057 0.26840
 C627 C 0.61226 0.38185 0.21392
 C628 C 0.59151 0.35899 0.20258
 C629 C 0.57213 0.37798 0.17004
 C630 C 0.57369 0.41913 0.14735
 C631 C 0.59467 0.44153 0.15860
 C632 C 0.61394 0.42316 0.19265
 C633 C 0.61017 0.29858 0.25550
 C634 C 0.59064 0.31754 0.22353
 C635 C 0.65407 0.42662 0.24012
 C636 C 0.63484 0.44522 0.20592
 H637 H 0.60879 0.26651 0.27063
 H638 H 0.57477 0.29955 0.21484
 H639 H 0.66982 0.44476 0.24966
 H640 H 0.63631 0.47716 0.19000
 H641 H 0.68787 0.38463 0.30729
 H642 H 0.64959 0.26951 0.31451
 H643 H 0.55607 0.36056 0.16088
 H644 H 0.59585 0.47333 0.14164
 C645 C 0.13477 0.86947 0.25121
 C646 C 0.13209 0.83209 0.28759
 C647 C 0.15181 0.81436 0.32036
 C648 C 0.17402 0.83393 0.31742
 C649 C 0.17635 0.87160 0.28125
 C650 C 0.15678 0.88941 0.24767
 C651 C 0.11413 0.88800 0.21597
 C652 C 0.11688 0.92505 0.17870
 C653 C 0.09729 0.94222 0.14446
 C654 C 0.07500 0.92282 0.14789
 C655 C 0.07251 0.88593 0.18628
 C656 C 0.09208 0.86823 0.22003
 C657 C 0.15878 0.92665 0.21036
 C658 C 0.13917 0.94413 0.17632
 C659 C 0.10975 0.81322 0.29048
 C660 C 0.09007 0.83103 0.25741
 H661 H 0.17566 0.94234 0.20724
 H662 H 0.14149 0.97281 0.14792
 H663 H 0.10746 0.78442 0.31854
 H664 H 0.07316 0.81547 0.26090
 H665 H 0.14986 0.78564 0.34892
 H666 H 0.19344 0.88663 0.27839
 H667 H 0.09937 0.97081 0.11557
 H668 H 0.05549 0.87068 0.18899
   
