data_POSCAR
  _audit_creation_date              2014-09-24
  _audit_creation_method            'ToBaCCo'
  _symmetry_space_group_name_H-M    'P1'
  _symmetry_Int_Tables_number       1
  _symmetry_cell_setting            triclinic
  loop_
  _symmetry_equiv_pos_as_xyz
 x,y,z
_cell_length_a 33.2222
_cell_length_b 33.1468
_cell_length_c 33.9363
_cell_angle_alpha 92.956000
_cell_angle_beta 89.676200
_cell_angle_gamma 89.793400
loop_
  _atom_site_label
  _atom_site_type_symbol
  _atom_site_fract_x
  _atom_site_fract_y
  _atom_site_fract_z
C1 C 0.59562 0.64317 0.62581
 N2 N 0.62682 0.64477 0.59993
 C3 C 0.65837 0.61876 0.60182
 N4 N 0.65851 0.59105 0.62996
 C5 C 0.62736 0.58887 0.65596
 N6 N 0.59601 0.61515 0.65362
 C7 C 0.89823 0.34164 0.12847
 N8 N 0.89628 0.37112 0.15784
 C9 C 0.87119 0.40333 0.15500
 N10 N 0.84724 0.40561 0.12286
 C11 C 0.84795 0.37575 0.09393
 N12 N 0.87368 0.34416 0.09677
 C13 C 0.40152 0.15554 -0.12392
 N14 N 0.37377 0.15533 -0.09438
 C15 C 0.34579 0.12559 -0.09370
 N16 N 0.34558 0.09596 -0.12288
 C17 C 0.37316 0.09594 -0.15258
 N18 N 0.40110 0.12575 -0.15295
 C19 C 0.09596 0.85010 0.36778
 N20 N 0.09794 0.87829 0.34012
 C21 C 0.12875 0.90517 0.33964
 N22 N 0.15805 0.90345 0.36734
 C23 C 0.15655 0.87550 0.39521
 N24 N 0.12543 0.84905 0.39535
 N25 N 0.07256 0.18328 0.11323
 N26 N 0.05960 0.16966 0.14672
 C27 C 0.02670 0.19090 0.15879
 C28 C 0.01834 0.21863 0.13088
 C29 C 0.04789 0.21291 0.10235
 H30 H 0.00965 0.18619 0.18539
 H31 H 0.05175 0.22991 0.07624
 Cu32 Cu 0.08607 0.12386 0.16920
 Cu33 Cu 0.12224 0.16404 0.08773
 Cu34 Cu 0.17657 0.09205 0.13633
 N35 N 0.11296 0.07835 0.19178
 N36 N 0.14917 0.06703 0.17974
 C37 C 0.16170 0.03620 0.20098
 C38 C 0.13131 0.02721 0.22704
 C39 C 0.10075 0.05437 0.22034
 H40 H 0.19030 0.02077 0.19705
 H41 H 0.07207 0.05667 0.23553
 N42 N 0.19388 0.11310 0.08560
 N43 N 0.17353 0.14098 0.06755
 C44 C 0.19352 0.14995 0.03454
 C45 C 0.22759 0.12605 0.03126
 C46 C 0.22682 0.10284 0.06393
 H47 H 0.18386 0.17188 0.01402
 H48 H 0.24896 0.08061 0.07159
 H49 H 0.12354 0.10628 0.10923
 H50 H 0.14776 0.14821 0.13924
 N51 N 0.41897 0.80151 0.60412
 N52 N 0.43210 0.81672 0.63819
 C53 C 0.46266 0.79373 0.65033
 C54 C 0.46937 0.76284 0.62211
 C55 C 0.44122 0.76876 0.59308
 H56 H 0.47950 0.79945 0.67720
 H57 H 0.43697 0.75031 0.56622
 Cu58 Cu 0.40920 0.86602 0.66262
 Cu59 Cu 0.37332 0.82473 0.57731
 Cu60 Cu 0.33182 0.91265 0.62036
 N61 N 0.38676 0.91628 0.68543
 N62 N 0.35540 0.93344 0.66967
 C63 C 0.34488 0.96653 0.69209
 C64 C 0.37151 0.97066 0.72316
 C65 C 0.39781 0.93840 0.71797
 H66 H 0.32025 0.98661 0.68587
 H67 H 0.42266 0.93135 0.73691
 N68 N 0.31218 0.88700 0.57049
 N69 N 0.32702 0.85279 0.55479
 C70 C 0.30604 0.84212 0.52203
 C71 C 0.27714 0.87137 0.51658
 C72 C 0.28196 0.89941 0.54770
 H73 H 0.31160 0.81537 0.50318
 H74 H 0.26408 0.92638 0.55366
 H75 H 0.38310 0.88339 0.59866
 H76 H 0.34684 0.85272 0.62672
 N77 N 0.91250 0.70420 0.38713
 N78 N 0.92290 0.69006 0.35159
 C79 C 0.95475 0.71095 0.33900
 C80 C 0.96513 0.73917 0.36858
 C81 C 0.93777 0.73408 0.39873
 H82 H 0.96996 0.70525 0.31099
 H83 H 0.93615 0.75103 0.42681
 Cu84 Cu 0.89541 0.64405 0.32611
 Cu85 Cu 0.86588 0.68331 0.41434
 Cu86 Cu 0.85217 0.58198 0.38962
 N87 N 0.87867 0.58975 0.30963
 N88 N 0.86386 0.56491 0.33494
 C89 C 0.85835 0.52842 0.31654
 C90 C 0.86971 0.53078 0.27743
 C91 C 0.88235 0.57019 0.27405
 H92 H 0.84648 0.50231 0.33045
 H93 H 0.89462 0.58321 0.24801
 N94 N 0.82802 0.60958 0.43717
 N95 N 0.83194 0.64868 0.44552
 C96 C 0.80803 0.65967 0.47634
 C97 C 0.78801 0.62577 0.48813
 C98 C 0.80161 0.59449 0.46279
 H99 H 0.80472 0.69027 0.48861
 H100 H 0.79106 0.56362 0.46145
 H101 H 0.89138 0.63043 0.39597
 H102 H 0.84087 0.63945 0.37377
 N103 N 0.57709 0.31551 -0.10936
 N104 N 0.56196 0.32996 -0.14148
 C105 C 0.52911 0.30840 -0.15214
 C106 C 0.52311 0.27935 -0.12487
 C107 C 0.55402 0.28483 -0.09807
 H108 H 0.51068 0.31354 -0.17757
 H109 H 0.55987 0.26707 -0.07286
 Cu110 Cu 0.58680 0.37575 -0.16567
 Cu111 Cu 0.62670 0.33597 -0.08571
 Cu112 Cu 0.67208 0.41680 -0.12911
 N113 N 0.61149 0.42220 -0.18879
 N114 N 0.64597 0.43669 -0.17561
 C115 C 0.65757 0.46700 -0.19798
 C116 C 0.62843 0.47222 -0.22614
 C117 C 0.59951 0.44350 -0.21941
 H118 H 0.68469 0.48458 -0.19359
 H119 H 0.57223 0.43819 -0.23609
 N120 N 0.69366 0.39237 -0.08180
 N121 N 0.67698 0.36080 -0.06612
 C122 C 0.69919 0.35029 -0.03520
 C123 C 0.73096 0.37684 -0.03084
 C124 C 0.72649 0.40328 -0.06070
 H125 H 0.69241 0.32565 -0.01661
 H126 H 0.74606 0.42821 -0.06682
 H127 H 0.62068 0.39434 -0.10393
 H128 H 0.65101 0.35843 -0.13633
 C129 C -0.06640 0.28381 0.09652
 C130 C -0.07386 0.30972 0.13008
 C131 C -0.05171 0.30368 0.16465
 C132 C -0.02277 0.27295 0.16540
 C133 C -0.01442 0.24863 0.13132
 C134 C -0.03646 0.25419 0.09697
 H135 H -0.08261 0.28723 0.06929
 H136 H -0.05664 0.32262 0.19122
 H137 H -0.00591 0.26909 0.19219
 H138 H -0.03051 0.23552 0.07042
 C139 C 0.55059 0.68822 0.58861
 C140 C 0.56222 0.67255 0.62452
 C141 C 0.54239 0.68601 0.65943
 C142 C 0.51222 0.71543 0.65861
 C143 C 0.50057 0.73107 0.62272
 C144 C 0.51960 0.71683 0.58765
 H145 H 0.56535 0.67822 0.56127
 H146 H 0.55093 0.67453 0.68752
 H147 H 0.49780 0.72579 0.68601
 H148 H 0.51125 0.72862 0.55965
 C149 C 1.05733 0.79831 0.40030
 C150 C 1.06373 0.82266 0.36797
 C151 C 1.03698 0.81894 0.33585
 C152 C 1.00538 0.79122 0.33579
 C153 C 0.99883 0.76782 0.36840
 C154 C 1.02474 0.77179 0.40078
 H155 H 1.07696 0.80024 0.42569
 H156 H 1.04080 0.83684 0.31028
 H157 H 0.98557 0.78855 0.31055
 H158 H 1.02017 0.75378 0.42616
 C159 C 0.44626 0.20575 -0.08868
 C160 C 0.43210 0.18772 -0.12427
 C161 C 0.44762 0.20047 -0.16013
 C162 C 0.47661 0.23095 -0.16037
 C163 C 0.49134 0.24836 -0.12475
 C164 C 0.47602 0.23542 -0.08891
 H165 H 0.43487 0.19634 -0.06064
 H166 H 0.43705 0.18715 -0.18798
 H167 H 0.48815 0.24028 -0.18838
 H168 H 0.48678 0.24856 -0.06107
 C169 C 0.09623 -0.05880 0.28717
 C170 C 0.12983 -0.06527 0.31131
 C171 C 0.16424 -0.04111 0.30669
 C172 C 0.16506 -0.01171 0.27858
 C173 C 0.13109 -0.00481 0.25554
 C174 C 0.09665 -0.02840 0.26016
 H175 H 0.06908 -0.07650 0.28970
 H176 H 0.19083 -0.04513 0.32441
 H177 H 0.19191 0.00632 0.27547
 H178 H 0.07019 -0.02363 0.24246
 C179 C 0.66263 0.53736 -0.30794
 C180 C 0.62761 0.56000 -0.31503
 C181 C 0.59285 0.55306 -0.29233
 C182 C 0.59296 0.52393 -0.26399
 C183 C 0.62813 0.50221 -0.25665
 C184 C 0.66304 0.50935 -0.27853
 H185 H 0.69009 0.54174 -0.32451
 H186 H 0.56520 0.56957 -0.29684
 H187 H 0.56574 0.51889 -0.24724
 H188 H 0.69046 0.49271 -0.27332
 C189 C 0.33608 1.04804 0.80162
 C190 C 0.37273 1.06384 0.81571
 C191 C 0.40897 1.04883 0.79919
 C192 C 0.40858 1.01803 0.76947
 C193 C 0.37192 1.00269 0.75495
 C194 C 0.33566 1.01814 0.77102
 H195 H 0.30776 1.05931 0.81382
 H196 H 0.43759 1.06049 0.80971
 H197 H 0.43689 1.00667 0.75734
 H198 H 0.30705 1.00659 0.76037
 C199 C 0.86180 0.47579 0.17733
 C200 C 0.87027 0.43580 0.18644
 C201 C 0.87820 0.42718 0.22574
 C202 C 0.87728 0.45798 0.25548
 C203 C 0.86953 0.49806 0.24624
 C204 C 0.86198 0.50674 0.20691
 H205 H 0.85576 0.48324 0.14722
 H206 H 0.88468 0.39656 0.23352
 H207 H 0.88343 0.45059 0.28557
 H208 H 0.85571 0.53740 0.19911
 C209 C 0.30365 0.08917 -0.04585
 C210 C 0.31579 0.12560 -0.06156
 C211 C 0.29904 0.16211 -0.04633
 C212 C 0.27000 0.16216 -0.01640
 C213 C 0.25823 0.12581 -0.00034
 C214 C 0.27555 0.08935 -0.01499
 H215 H 0.31635 0.06067 -0.05707
 H216 H 0.30789 0.19054 -0.05811
 H217 H 0.25713 0.19065 -0.00538
 H218 H 0.26673 0.06096 -0.00312
 C219 C 0.69976 0.65640 0.55418
 C220 C 0.69222 0.62070 0.57350
 C221 C 0.71702 0.58685 0.56515
 C222 C 0.74821 0.58846 0.53742
 C223 C 0.75572 0.62419 0.51817
 C224 C 0.73141 0.65824 0.52709
 H225 H 0.68127 0.68303 0.56014
 H226 H 0.71185 0.55889 0.57951
 H227 H 0.76662 0.56184 0.53121
 H228 H 0.73622 0.68609 0.51245
 C229 C 0.80571 0.41318 0.04680
 C230 C 0.81962 0.37644 0.06063
 C231 C 0.80512 0.34000 0.04328
 C232 C 0.77637 0.34024 0.01347
 C233 C 0.76237 0.37690 -0.00029
 C234 C 0.77772 0.41339 0.01614
 H235 H 0.81653 0.44167 0.05967
 H236 H 0.81518 0.31126 0.05353
 H237 H 0.76515 0.31173 0.00105
 H238 H 0.76719 0.44203 0.00608
 C239 C 0.19959 0.83743 0.44084
 C240 C 0.18809 0.87430 0.42556
 C241 C 0.20654 0.91010 0.43995
 C242 C 0.23534 0.90915 0.46977
 C243 C 0.24702 0.87226 0.48484
 C244 C 0.22927 0.83636 0.46983
 H245 H 0.18587 0.80941 0.43010
 H246 H 0.19806 0.93892 0.42874
 H247 H 0.24880 0.93720 0.48077
 H248 H 0.23766 0.80758 0.48118
   
