data_POSCAR
  _audit_creation_date              2014-09-24
  _audit_creation_method            'ToBaCCo'
  _symmetry_space_group_name_H-M    'P1'
  _symmetry_Int_Tables_number       1
  _symmetry_cell_setting            triclinic
  loop_
  _symmetry_equiv_pos_as_xyz
 x,y,z
_cell_length_a 40.9268
_cell_length_b 41.5035
_cell_length_c 39.3680
_cell_angle_alpha 91.997000
_cell_angle_beta 90.119400
_cell_angle_gamma 94.157200
loop_
  _atom_site_label
  _atom_site_type_symbol
  _atom_site_fract_x
  _atom_site_fract_y
  _atom_site_fract_z
C1 C 0.19876 0.52477 1.03486
 H2 H 0.19897 0.54348 1.01638
 C3 C 0.17607 0.52444 1.06132
 H4 H 0.15886 0.54306 1.06334
 C5 C 0.22015 0.47698 1.05410
 H6 H 0.23679 0.45811 1.05076
 C7 C 0.19789 0.47574 1.08093
 H8 H 0.19778 0.45606 1.09834
 N9 N 0.22027 0.50133 1.03180
 C10 C 0.30024 0.54254 0.97000
 H11 H 0.30058 0.52417 0.94985
 C12 C 0.32336 0.56902 0.97045
 H13 H 0.34166 0.57102 0.95064
 C14 C 0.27677 0.56183 1.02116
 H15 H 0.25903 0.55864 1.04124
 C16 C 0.29949 0.58868 1.02258
 H17 H 0.29911 0.60608 1.04370
 Zn18 Zn 0.24814 0.50194 0.99349
 N19 N 0.27748 0.53948 0.99506
 C20 C 0.22324 0.52566 0.93237
 N21 N 0.22062 0.50140 0.95481
 C22 C 0.19646 0.47714 0.95177
 C23 C 0.17369 0.47662 0.92527
 C24 C 0.20096 0.52605 0.90549
 C25 C 0.29559 0.46331 1.01799
 C26 C 0.31491 0.43696 1.01889
 C27 C 0.28892 0.41565 0.96685
 C28 C 0.27004 0.44241 0.96692
 N29 N 0.27342 0.46539 0.99249
 H30 H 0.24203 0.54516 0.93570
 H31 H 0.19458 0.45852 0.97037
 H32 H 0.15424 0.45749 0.92331
 H33 H 0.20285 0.54570 0.88803
 H34 H 0.29809 0.48212 1.03775
 H35 H 0.33240 0.43545 1.03937
 H36 H 0.28607 0.39744 0.94646
 H37 H 0.25284 0.44481 0.94649
 C38 C 0.32304 0.59225 0.99703
 C39 C 0.17556 0.49961 1.08450
 C40 C 0.31145 0.41285 0.99316
 C41 C 0.17587 0.50141 0.90206
 C42 C 0.80144 0.52468 -0.03788
 H43 H 0.80371 0.54224 -0.01689
 C44 C 0.82348 0.52680 -0.06477
 H45 H 0.84275 0.54613 -0.06463
 C46 C 0.77409 0.47745 -0.06323
 H47 H 0.75522 0.45793 -0.06215
 C48 C 0.79572 0.47867 -0.09070
 H49 H 0.79330 0.46025 -0.11090
 N50 N 0.77727 0.50040 -0.03764
 C51 C 0.70562 0.53962 0.03135
 H52 H 0.70394 0.52159 0.05059
 C53 C 0.68628 0.56603 0.03375
 H54 H 0.66966 0.56841 0.05492
 C55 C 0.72851 0.55814 -0.02036
 H56 H 0.74440 0.55469 -0.04183
 C57 C 0.70963 0.58486 -0.01892
 H58 H 0.71129 0.60197 -0.03913
 Zn59 Zn 0.75077 0.49913 0.00157
 N60 N 0.72635 0.53626 0.00467
 C61 C 0.78200 0.52079 0.06435
 N62 N 0.77994 0.49787 0.03868
 C63 C 0.80060 0.47362 0.03716
 C64 C 0.82426 0.47145 0.06231
 C65 C 0.80543 0.51951 0.09012
 C66 C 0.69777 0.45900 -0.02464
 C67 C 0.67428 0.43280 -0.02562
 C68 C 0.69868 0.41324 0.02493
 C69 C 0.72171 0.43978 0.02497
 N70 N 0.72091 0.46198 0.00035
 H71 H 0.76589 0.54029 0.06465
 H72 H 0.79876 0.45608 0.01613
 H73 H 0.84062 0.45207 0.06082
 H74 H 0.80710 0.53784 0.11044
 H75 H 0.69734 0.47726 -0.04356
 H76 H 0.65563 0.43088 -0.04530
 H77 H 0.69915 0.39601 0.04495
 H78 H 0.73971 0.44293 0.04512
 C79 C 0.68830 0.58883 0.00833
 C80 C 0.82066 0.50356 -0.09135
 C81 C 0.67469 0.40978 -0.00052
 C82 C 0.82676 0.49462 0.08897
 C83 C -0.03344 0.28885 0.47699
 H84 H -0.05276 0.28994 0.49562
 C85 C -0.03300 0.30880 0.44916
 H86 H -0.05210 0.32529 0.44631
 C87 C 0.01556 0.26665 0.45847
 H88 H 0.03481 0.25074 0.46253
 C89 C 0.01696 0.28620 0.43027
 H90 H 0.03714 0.28500 0.41260
 N91 N -0.00954 0.26813 0.48098
 C92 C -0.05411 0.19372 0.54530
 H93 H -0.03686 0.19484 0.56624
 C94 C -0.08074 0.17063 0.54454
 H95 H -0.08400 0.15382 0.56490
 C96 C -0.07016 0.21316 0.49228
 H97 H -0.06554 0.22915 0.47151
 C98 C -0.09706 0.19048 0.49053
 H99 H -0.11309 0.18920 0.46851
 Zn100 Zn -0.01136 0.24327 0.52037
 N101 N -0.04933 0.21438 0.51938
 C102 C -0.03682 0.27226 0.58065
 N103 N -0.01185 0.27286 0.55783
 C104 C 0.01292 0.29655 0.55935
 C105 C 0.01324 0.32100 0.58455
 C106 C -0.03748 0.29639 0.60628
 C107 C 0.02897 0.19559 0.49756
 C108 C 0.05651 0.17761 0.49675
 C109 C 0.07632 0.20660 0.54791
 C110 C 0.04840 0.22406 0.54776
 N111 N 0.02573 0.21870 0.52244
 H112 H -0.05668 0.25368 0.57848
 H113 H 0.03208 0.29676 0.54046
 H114 H 0.03273 0.34014 0.58513
 H115 H -0.05778 0.29629 0.62390
 H116 H 0.01036 0.19156 0.47801
 H117 H 0.05914 0.15957 0.47658
 H118 H 0.09446 0.21122 0.56790
 H119 H 0.04504 0.24197 0.56776
 C120 C -0.10228 0.16892 0.51679
 C121 C -0.00755 0.30746 0.42561
 C122 C 0.08053 0.18341 0.52198
 C123 C -0.01230 0.32106 0.60804
 C124 C 0.98938 0.70490 0.51072
 H125 H 0.97177 0.70103 0.49018
 C126 C 0.98778 0.68457 0.53824
 H127 H 0.96891 0.66491 0.53898
 C128 C 1.03570 0.73511 0.53483
 H129 H 1.05459 0.75454 0.53322
 C130 C 1.03498 0.71532 0.56282
 H131 H 1.05316 0.71970 0.58281
 N132 N 1.01276 0.72988 0.50976
 C133 C 0.96917 0.79966 0.44660
 H134 H 0.98733 0.80284 0.42684
 C135 C 0.94135 0.81732 0.44649
 H136 H 0.93801 0.83419 0.42661
 C137 C 0.95166 0.77458 0.49733
 H138 H 0.95603 0.75854 0.51756
 C139 C 0.92357 0.79173 0.49816
 H140 H 0.90635 0.78857 0.51886
 Zn141 Zn 1.01250 0.75638 0.47169
 N142 N 0.97368 0.77862 0.47167
 C143 C 0.98972 0.72577 0.40949
 N144 N 1.01450 0.72871 0.43276
 C145 C 1.03975 0.70913 0.43108
 C146 C 1.04040 0.68496 0.40561
 C147 C 0.98941 0.70184 0.38361
 C148 C 1.04822 0.80997 0.49999
 C149 C 1.07414 0.83344 0.50434
 C150 C 1.10002 0.81092 0.45466
 C151 C 1.07353 0.78774 0.45123
 N152 N 1.04854 0.78749 0.47405
 H153 H 0.96943 0.74093 0.41180
 H154 H 1.05870 0.71151 0.45039
 H155 H 1.05996 0.66871 0.40521
 H156 H 0.96898 0.69880 0.36596
 H157 H 1.02787 0.80939 0.51750
 H158 H 1.07372 0.85116 0.52519
 H159 H 1.11988 0.81103 0.43652
 H160 H 1.07301 0.77003 0.43044
 C161 C 0.91839 0.81328 0.47256
 C162 C 1.01067 0.68998 0.56459
 C163 C 1.10034 0.83382 0.48161
 C164 C 1.01473 0.68097 0.38200
 C165 C 0.45731 -0.01619 0.30125
 H166 H 0.47481 -0.03451 0.30143
 C167 C 0.43196 -0.01666 0.32499
 H168 H 0.42978 -0.03547 0.34342
 C169 C 0.43943 0.03148 0.27792
 H170 H 0.44286 0.05064 0.26013
 C171 C 0.41375 0.03190 0.30121
 H172 H 0.39730 0.05120 0.30102
 N173 N 0.46054 0.00760 0.27830
 C174 C 0.51954 -0.02976 0.19564
 H175 H 0.53833 -0.01010 0.19455
 C176 C 0.52020 -0.05626 0.17290
 H177 H 0.53962 -0.05700 0.15426
 C178 C 0.47125 -0.05268 0.22121
 H179 H 0.45207 -0.05104 0.23985
 C180 C 0.47098 -0.07970 0.19890
 H181 H 0.45168 -0.09886 0.20064
 Zn182 Zn 0.49741 0.00838 0.24923
 N183 N 0.49558 -0.02862 0.21946
 C184 C 0.55524 -0.01555 0.27521
 N185 N 0.53496 0.00902 0.27761
 C186 C 0.53928 0.03275 0.30231
 C187 C 0.56471 0.03221 0.32603
 C188 C 0.58095 -0.01695 0.29833
 C189 C 0.47402 0.04590 0.19857
 C190 C 0.47340 0.07160 0.17670
 C191 C 0.52363 0.09504 0.20256
 C192 C 0.52331 0.06884 0.22404
 N193 N 0.49857 0.04507 0.22181
 H194 H 0.55097 -0.03467 0.25609
 H195 H 0.52240 0.05162 0.30409
 H196 H 0.56760 0.05081 0.34602
 H197 H 0.59654 -0.03696 0.29663
 H198 H 0.45493 0.02646 0.19704
 H199 H 0.45373 0.07202 0.15830
 H200 H 0.54338 0.11387 0.20440
 H201 H 0.54293 0.06741 0.24221
 C202 C 0.49580 -0.08156 0.17464
 C203 C 0.41008 0.00771 0.32505
 C204 C 0.49841 0.09640 0.17870
 C205 C 0.58555 0.00694 0.32415
 C206 C 0.54099 -0.03321 0.70482
 H207 H 0.52063 -0.05137 0.70389
 C208 C 0.56635 -0.03488 0.68137
 H209 H 0.56565 -0.05448 0.66242
 C210 C 0.56632 0.01503 0.73009
 H211 H 0.56584 0.03476 0.74867
 C212 C 0.59224 0.01428 0.70699
 H213 H 0.61187 0.03326 0.70807
 N214 N 0.54145 -0.00864 0.72866
 C215 C 0.47606 -0.04786 0.80729
 H216 H 0.45786 -0.03021 0.80843
 C217 C 0.47396 -0.07373 0.82925
 H218 H 0.45407 -0.07607 0.84730
 C219 C 0.52486 -0.06591 0.78324
 H220 H 0.54508 -0.06247 0.76586
 C221 C 0.52367 -0.09207 0.80468
 H222 H 0.54283 -0.10878 0.80349
 Zn223 Zn 0.50415 -0.00787 0.75700
 N224 N 0.50117 -0.04451 0.78476
 C225 C 0.44186 -0.03044 0.72769
 N226 N 0.46770 -0.00785 0.72730
 C227 C 0.46943 0.01580 0.70416
 C228 C 0.44424 0.01789 0.68064
 C229 C 0.41601 -0.02921 0.70450
 C230 C 0.53067 0.03454 0.80937
 C231 C 0.53202 0.06153 0.83180
 C232 C 0.48274 0.07820 0.80583
 C233 C 0.48228 0.05097 0.78395
 N234 N 0.50614 0.02987 0.78589
 H235 H 0.44126 -0.04943 0.74581
 H236 H 0.49047 0.03316 0.70414
 H237 H 0.44578 0.03699 0.66252
 H238 H 0.39539 -0.04708 0.70501
 H239 H 0.54902 0.01714 0.81080
 H240 H 0.55150 0.06499 0.85053
 H241 H 0.46349 0.09469 0.80421
 H242 H 0.46250 0.04652 0.76583
 C243 C 0.49806 -0.09600 0.82796
 C244 C 0.59215 -0.01088 0.68237
 C245 C 0.50779 0.08354 0.82999
 C246 C 0.41725 -0.00473 0.68084
 C247 C 0.23097 0.05752 0.51078
 C248 C 0.25542 0.05491 0.54005
 C249 C 0.27220 0.02766 0.53824
 C250 C 0.26321 0.00555 0.50686
 C251 C 0.25217 0.05486 0.47872
 C252 C 0.26899 0.02767 0.47654
 C253 C 0.20937 0.02596 0.51072
 C254 C 0.22592 -0.00118 0.50868
 H255 H 0.25932 0.07324 0.56015
 H256 H 0.27657 -0.01675 0.50508
 H257 H 0.25615 0.07416 0.46109
 H258 H 0.18285 0.02531 0.51103
 C259 C 0.77070 -0.05790 0.49339
 C260 C 0.75015 -0.05676 0.52600
 C261 C 0.73276 -0.03001 0.52979
 C262 C 0.73770 -0.00658 0.50037
 C263 C 0.74553 -0.05458 0.46496
 C264 C 0.72837 -0.02768 0.46836
 C265 C 0.79183 -0.02606 0.49425
 C266 C 0.77492 0.00078 0.49773
 H267 H 0.74803 -0.07626 0.54353
 H268 H 0.72373 0.01527 0.50310
 H269 H 0.74145 -0.07220 0.44420
 H270 H 0.81831 -0.02501 0.49259
 C271 C 0.44918 0.27335 0.99978
 C272 C 0.45503 0.25054 0.96922
 C273 C 0.48350 0.23548 0.97085
 C274 C 0.50365 0.24462 1.00346
 C275 C 0.45114 0.25159 1.03039
 C276 C 0.47979 0.23676 1.03303
 C277 C 0.47993 0.29636 1.00233
 C278 C 0.50838 0.28170 1.00427
 H279 H 0.43682 0.24451 0.94962
 H280 H 0.52729 0.23334 1.00455
 H281 H 0.43043 0.24667 1.04687
 H282 H 0.47911 0.32238 1.00175
 C283 C 0.54903 0.72739 0.00558
 C284 C 0.54511 0.74757 -0.02597
 C285 C 0.51662 0.76288 -0.02721
 C286 C 0.49487 0.75687 0.00441
 C287 C 0.54571 0.75181 0.03530
 C288 C 0.51738 0.76720 0.03504
 C289 C 0.51794 0.70486 0.00661
 C290 C 0.48965 0.71993 0.00618
 H291 H 0.56484 0.75189 -0.04379
 H292 H 0.47138 0.76849 0.00469
 H293 H 0.56511 0.75795 0.05363
 H294 H 0.51848 0.67882 0.00720
 C295 C 1.00288 0.44436 0.27580
 C296 C 0.97393 0.44433 0.25092
 C297 C 0.97429 0.47092 0.23152
 C298 C 1.00408 0.49506 0.23836
 C299 C 1.03315 0.44834 0.25280
 C300 C 1.03388 0.47489 0.23330
 C301 C 1.00253 0.47649 0.29601
 C302 C 1.00312 0.50300 0.27667
 H303 H 0.95465 0.42504 0.24922
 H304 H 1.00464 0.51671 0.22260
 H305 H 1.05069 0.43027 0.24935
 H306 H 1.00272 0.47798 0.32354
 C307 C -0.00064 0.55495 0.71857
 C308 C -0.02937 0.55398 0.74362
 C309 C -0.03208 0.52711 0.76270
 C310 C -0.00483 0.50395 0.75564
 C311 C 0.02934 0.55182 0.74133
 C312 C 0.02763 0.52499 0.76044
 C313 C -0.00497 0.52292 0.69814
 C314 C -0.00723 0.49626 0.71728
 H315 H -0.04521 0.57356 0.74716
 H316 H -0.00681 0.48189 0.77076
 H317 H 0.04936 0.57030 0.74353
 H318 H -0.00554 0.52162 0.67060
 C319 C 0.16055 0.13027 0.51814
 C320 C 0.17347 0.12184 0.48649
 C321 C 0.19767 0.09980 0.48411
 C322 C 0.10928 0.16545 0.52118
 C323 C 0.19679 0.09528 0.54528
 C324 C 0.17258 0.11732 0.54756
 C325 C 0.13300 0.14987 0.52004
 C326 C 0.20981 0.08618 0.51351
 H327 H 0.16386 0.13127 0.46347
 H328 H 0.20544 0.09230 0.45902
 H329 H 0.20413 0.08420 0.56829
 H330 H 0.16231 0.12323 0.57216
 C331 C 0.62727 0.66249 0.00849
 C332 C 0.61639 0.67293 -0.02268
 C333 C 0.59236 0.69517 -0.02370
 C334 C 0.66749 0.61538 0.00923
 C335 C 0.59052 0.69720 0.03781
 C336 C 0.61454 0.67492 0.03874
 C337 C 0.64955 0.63719 0.00923
 C338 C 0.57916 0.70789 0.00657
 H339 H 0.62562 0.66299 -0.04629
 H340 H 0.58318 0.70115 -0.04829
 H341 H 0.57987 0.70495 0.06159
 H342 H 0.62232 0.66656 0.06302
 C343 C 0.84054 -0.13090 0.48024
 C344 C 0.82808 -0.11637 0.45196
 C345 C 0.80431 -0.09404 0.45614
 C346 C 0.89040 -0.16770 0.47417
 C347 C 0.80494 -0.10120 0.51693
 C348 C 0.82868 -0.12353 0.51265
 C349 C 0.86734 -0.15130 0.47649
 C350 C 0.79213 -0.08623 0.48868
 H351 H 0.83757 -0.12141 0.42681
 H352 H 0.79651 -0.08188 0.43398
 H353 H 0.79797 -0.09469 0.54257
 H354 H 0.83867 -0.13416 0.53481
 C355 C 0.37088 0.33799 0.99533
 C356 C 0.38146 0.32769 1.02667
 C357 C 0.40541 0.30541 1.02805
 C358 C 0.33153 0.38577 0.99351
 C359 C 0.40773 0.30296 0.96656
 C360 C 0.38377 0.32527 0.96528
 C361 C 0.34900 0.36359 0.99415
 C362 C 0.41886 0.29251 0.99800
 H363 H 0.37213 0.33784 1.05013
 H364 H 0.41443 0.29949 1.05275
 H365 H 0.41855 0.29517 0.94291
 H366 H 0.37623 0.33354 0.94086
 C367 C 0.82992 0.09249 0.50479
 C368 C 0.83719 0.06952 0.47966
 C369 C 0.81827 0.04026 0.47643
 C370 C 0.87221 0.14327 0.51366
 C371 C 0.78357 0.05731 0.52249
 C372 C 0.80271 0.08665 0.52583
 C373 C 0.85205 0.12076 0.51008
 C374 C 0.79177 0.03353 0.49837
 H375 H 0.85812 0.07380 0.46318
 H376 H 0.82483 0.02252 0.45729
 H377 H 0.76347 0.05263 0.53980
 H378 H 0.79694 0.10427 0.54545
 C379 C 0.39880 0.66164 0.00511
 C380 C 0.40223 0.68901 -0.01485
 C381 C 0.43135 0.70906 -0.01348
 C382 C 0.34833 0.61823 -0.00065
 C383 C 0.45308 0.67480 0.02844
 C384 C 0.42406 0.65501 0.02718
 C385 C 0.37064 0.63885 0.00171
 C386 C 0.45732 0.70159 0.00757
 H387 H 0.38284 0.69432 -0.03211
 H388 H 0.43412 0.72946 -0.02991
 H389 H 0.47250 0.66880 0.04530
 H390 H 0.42168 0.63397 0.04279
 C391 C 0.16982 -0.09191 0.49746
 C392 C 0.16159 -0.06910 0.52237
 C393 C 0.18083 -0.04019 0.52706
 C394 C 0.12670 -0.14152 0.48580
 C395 C 0.21781 -0.05733 0.48305
 C396 C 0.19831 -0.08632 0.47820
 C397 C 0.14737 -0.11964 0.49054
 C398 C 0.20864 -0.03368 0.50688
 H399 H 0.13965 -0.07321 0.53745
 H400 H 0.17350 -0.02251 0.54590
 H401 H 0.23902 -0.05271 0.46706
 H402 H 0.20483 -0.10381 0.45879
 C403 C 0.59852 0.34109 1.00501
 C404 C 0.59612 0.31171 0.98616
 C405 C 0.56722 0.29142 0.98702
 C406 C 0.64910 0.38414 1.00063
 C407 C 0.54362 0.32953 1.02624
 C408 C 0.57242 0.34959 1.02549
 C409 C 0.62669 0.36372 1.00229
 C410 C 0.54044 0.30060 1.00645
 H411 H 0.61619 0.30493 0.97016
 H412 H 0.56527 0.26937 0.97138
 H413 H 0.52354 0.33694 1.04184
 H414 H 0.57402 0.37218 1.04026
 C415 C 0.49480 0.16911 1.11171
 C416 C 0.51427 0.16924 1.08259
 C417 C 0.51020 0.19177 1.05759
 C418 C 0.49816 0.12274 1.15583
 C419 C 0.46780 0.21483 1.09128
 C420 C 0.47194 0.19229 1.11624
 C421 C 0.49709 0.14421 1.13605
 C422 C 0.48619 0.21436 1.06096
 H423 H 0.53223 0.15152 1.07888
 H424 H 0.52562 0.19067 1.03555
 H425 H 0.45004 0.23249 1.09599
 H426 H 0.45692 0.19266 1.13887
 C427 C 0.00623 0.62960 0.64415
 C428 C -0.02398 0.62070 0.65888
 C429 C -0.02616 0.59750 0.68381
 C430 C 0.00935 0.66929 0.59311
 C431 C 0.03228 0.59231 0.67955
 C432 C 0.03437 0.61550 0.65464
 C433 C 0.00801 0.65152 0.61667
 C434 C 0.00206 0.58326 0.69494
 H435 H -0.04604 0.63098 0.65037
 H436 H -0.05018 0.58997 0.69330
 H437 H 0.05422 0.58070 0.68585
 H438 H 0.05778 0.62174 0.64287
 C439 C 0.50029 0.83117 -0.10492
 C440 C 0.48209 0.83158 -0.07493
 C441 C 0.48633 0.80869 -0.05033
 C442 C 0.49754 0.87798 -0.14866
 C443 C 0.52615 0.78407 -0.08622
 C444 C 0.52184 0.80696 -0.11078
 C445 C 0.49819 0.85644 -0.12889
 C446 C 0.50930 0.78520 -0.05496
 H447 H 0.46508 0.85004 -0.07021
 H448 H 0.47196 0.81024 -0.02757
 H449 H 0.54294 0.76571 -0.09190
 H450 H 0.53580 0.80611 -0.13411
 C451 C 0.99687 0.36849 0.34904
 C452 C 1.02665 0.37638 0.33295
 C453 C 1.02878 0.40011 0.30856
 C454 C 0.99392 0.32755 0.39900
 C455 C 0.97110 0.40785 0.31610
 C456 C 0.96908 0.38414 0.34045
 C457 C 0.99526 0.34586 0.37589
 C458 C 1.00090 0.41606 0.29950
 H459 H 1.04847 0.36480 0.33993
 H460 H 1.05260 0.40654 0.29804
 H461 H 0.94948 0.42044 0.31086
 H462 H 0.94600 0.37859 0.35317
 C463 C 0.50061 0.84263 0.10937
 C464 C 0.51644 0.81551 0.11877
 C465 C 0.52120 0.79060 0.09483
 C466 C 0.49649 0.89225 0.15284
 C467 C 0.49367 0.81951 0.05217
 C468 C 0.48895 0.84441 0.07611
 C469 C 0.49791 0.86939 0.13324
 C470 C 0.51026 0.79252 0.06106
 H471 H 0.52558 0.81384 0.14445
 H472 H 0.53362 0.76992 0.10272
 H473 H 0.48536 0.82208 0.02651
 H474 H 0.47684 0.86537 0.06846
 C475 C -0.01536 0.40180 0.66929
 C476 C -0.03313 0.42638 0.65675
 C477 C -0.03119 0.45686 0.67298
 C478 C -0.01380 0.34800 0.63176
 C479 C 0.00548 0.43807 0.71524
 C480 C 0.00363 0.40752 0.69882
 C481 C -0.01468 0.37188 0.64992
 C482 C -0.01139 0.46318 0.70200
 H483 H -0.04782 0.42224 0.63387
 H484 H -0.04487 0.47563 0.66257
 H485 H 0.02112 0.44240 0.73740
 H486 H 0.01769 0.38870 0.70856
 C487 C 0.50331 0.16052 0.89704
 C488 C 0.48857 0.18805 0.88693
 C489 C 0.48306 0.21292 0.91069
 C490 C 0.50761 0.11090 0.85355
 C491 C 0.50780 0.18321 0.95461
 C492 C 0.51328 0.15836 0.93085
 C493 C 0.50627 0.13367 0.87329
 C494 C 0.49211 0.21054 0.94500
 H495 H 0.48073 0.19002 0.86083
 H496 H 0.47136 0.23383 0.90228
 H497 H 0.51465 0.18028 0.98067
 H498 H 0.52452 0.13708 0.93905
 C499 C 1.00652 0.59805 0.32333
 C500 C 1.02416 0.59260 0.29348
 C501 C 1.02238 0.56179 0.27760
 C502 C 1.01246 0.65319 0.35905
 C503 C 0.98490 0.54216 0.32112
 C504 C 0.98660 0.57288 0.33681
 C505 C 1.01001 0.62866 0.34167
 C506 C 1.00318 0.53617 0.29167
 H507 H 1.03980 0.61191 0.28295
 H508 H 1.03691 0.55775 0.25511
 H509 H 0.96947 0.52302 0.33218
 H510 H 0.97284 0.57684 0.35988
 C511 C 1.10805 0.49224 0.15783
 C512 C 1.07588 0.49992 0.15162
 C513 C 1.05181 0.49481 0.17642
 C514 C 1.15275 0.49791 0.10962
 C515 C 1.09217 0.47470 0.21388
 C516 C 1.11619 0.47986 0.18909
 C517 C 1.13241 0.49575 0.13168
 C518 C 1.05966 0.48185 0.20768
 H519 H 1.06928 0.50933 0.12742
 H520 H 1.02692 0.50008 0.17066
 H521 H 1.09903 0.46508 0.23788
 H522 H 1.14101 0.47383 0.19416
 C523 C 0.66298 -0.01785 0.61011
 C524 C 0.66890 -0.04881 0.59757
 C525 C 0.69161 -0.05277 0.57160
 C526 C 0.61790 -0.01209 0.65759
 C527 C 0.70268 0.00530 0.57048
 C528 C 0.67991 0.00921 0.59652
 C529 C 0.63878 -0.01414 0.63620
 C530 C 0.70891 -0.02575 0.55776
 H531 H 0.65568 -0.06993 0.60764
 H532 H 0.69500 -0.07702 0.56193
 H533 H 0.71550 0.02660 0.56060
 H534 H 0.67542 0.03333 0.60594
 C535 C -0.11030 0.51050 0.83427
 C536 C -0.07998 0.49802 0.83974
 C537 C -0.05469 0.50304 0.81630
 C538 C -0.15592 0.50504 0.88150
 C539 C -0.09016 0.53269 0.78155
 C540 C -0.11544 0.52764 0.80501
 C541 C -0.13549 0.50712 0.85956
 C542 C -0.05926 0.52083 0.78714
 H543 H -0.07570 0.48483 0.86241
 H544 H -0.03148 0.49358 0.82162
 H545 H -0.09495 0.54579 0.75898
 H546 H -0.13886 0.53738 0.80050
 C547 C 0.33937 0.01312 0.39768
 C548 C 0.31029 0.02729 0.39036
 C549 C 0.28713 0.03157 0.41587
 C550 C 0.38484 0.00879 0.35039
 C551 C 0.32185 0.00704 0.45608
 C552 C 0.34500 0.00281 0.43053
 C553 C 0.36397 0.01038 0.37186
 C554 C 0.29279 0.02174 0.44909
 H555 H 0.30568 0.03537 0.36504
 H556 H 0.26481 0.04260 0.40961
 H557 H 0.32720 -0.00030 0.48149
 H558 H 0.36754 -0.00799 0.43654
 C559 C 0.10510 0.50726 0.82987
 C560 C 0.07285 0.49594 0.83668
 C561 C 0.04775 0.50095 0.81374
 C562 C 0.15137 0.50260 0.87599
 C563 C 0.08727 0.52797 0.77669
 C564 C 0.11233 0.52292 0.79964
 C565 C 0.13045 0.50429 0.85468
 C566 C 0.05450 0.51761 0.78377
 H567 H 0.06697 0.48381 0.86006
 H568 H 0.02308 0.49260 0.82014
 H569 H 0.09362 0.54010 0.75346
 H570 H 0.13725 0.53167 0.79403
 C571 C 0.65491 -0.00630 0.39600
 C572 C 0.65882 -0.03829 0.40430
 C573 C 0.68248 -0.04521 0.42804
 C574 C 0.61035 0.00413 0.34966
 C575 C 0.69836 0.01198 0.43571
 C576 C 0.67463 0.01887 0.41185
 C577 C 0.63081 0.00021 0.37092
 C578 C 0.70268 -0.02017 0.44385
 H579 H 0.64360 -0.05796 0.39233
 H580 H 0.68476 -0.07017 0.43420
 H581 H 0.71378 0.03173 0.44717
 H582 H 0.67185 0.04373 0.40557
 C583 C 0.89818 0.48551 0.15966
 C584 C 0.91353 0.51194 0.17792
 C585 C 0.93848 0.50724 0.20120
 C586 C 0.85154 0.49272 0.11462
 C587 C 0.93278 0.44964 0.18787
 C588 C 0.90792 0.45439 0.16463
 C589 C 0.87270 0.49002 0.13545
 C590 C 0.94828 0.47600 0.20648
 H591 H 0.90617 0.53614 0.17425
 H592 H 0.94962 0.52794 0.21550
 H593 H 0.94012 0.42537 0.19095
 H594 H 0.89634 0.43379 0.15045
 C595 C 0.34503 0.00767 0.61190
 C596 C 0.34110 0.03950 0.60300
 C597 C 0.31749 0.04600 0.57902
 C598 C 0.39102 -0.00219 0.65688
 C599 C 0.30158 -0.01128 0.57249
 C600 C 0.32527 -0.01774 0.59657
 C601 C 0.36972 0.00150 0.63646
 C602 C 0.29739 0.02069 0.56355
 H603 H 0.35641 0.05933 0.61452
 H604 H 0.31534 0.07081 0.57226
 H605 H 0.28623 -0.03124 0.56134
 H606 H 0.32811 -0.04249 0.60326
   
