data_POSCAR
  _audit_creation_date              2014-09-24
  _audit_creation_method            'ToBaCCo'
  _symmetry_space_group_name_H-M    'P1'
  _symmetry_Int_Tables_number       1
  _symmetry_cell_setting            triclinic
  loop_
  _symmetry_equiv_pos_as_xyz
 x,y,z
_cell_length_a 42.0987
_cell_length_b 40.2552
_cell_length_c 17.8649
_cell_angle_alpha 90.388100
_cell_angle_beta 90.536300
_cell_angle_gamma 117.720800
loop_
  _atom_site_label
  _atom_site_type_symbol
  _atom_site_fract_x
  _atom_site_fract_y
  _atom_site_fract_z
C1 C 0.14286 0.47579 0.47719
 C2 C 0.15887 0.47429 0.40903
 C3 C 0.19506 0.48163 0.41144
 C4 C 0.21622 0.49454 0.47737
 C5 C 0.19981 0.49819 0.54289
 C6 C 0.16296 0.48775 0.54468
 C7 C 0.25569 0.50592 0.47722
 C8 C 0.27461 0.50706 0.54403
 C9 C 0.31205 0.52122 0.54463
 C10 C 0.33055 0.53178 0.47702
 C11 C 0.31211 0.52856 0.40956
 C12 C 0.27520 0.51693 0.41023
 H13 H 0.11567 0.47187 0.47662
 H14 H 0.20650 0.47653 0.36159
 H15 H 0.21561 0.50841 0.59353
 H16 H 0.26074 0.49745 0.59628
 H17 H 0.35918 0.54095 0.47652
 H18 H 0.26228 0.51710 0.35779
 C19 C 0.61638 -0.30370 0.50126
 C20 C 0.60751 -0.29020 0.43640
 C21 C 0.60467 -0.25683 0.44292
 C22 C 0.60930 -0.23814 0.51267
 C23 C 0.61421 -0.25519 0.57751
 C24 C 0.61469 -0.28999 0.57291
 C25 C 0.60486 -0.20328 0.51752
 C26 C 0.59072 -0.19433 0.58199
 C27 C 0.58341 -0.16365 0.58173
 C28 C 0.58936 -0.14250 0.51709
 C29 C 0.60274 -0.15100 0.45247
 C30 C 0.61191 -0.18022 0.45409
 H31 H 0.62302 -0.32654 0.49625
 H32 H 0.59572 -0.24710 0.39494
 H33 H 0.61509 -0.24258 0.63139
 H34 H 0.58345 -0.21197 0.63077
 H35 H 0.58122 -0.12059 0.51612
 H36 H 0.62340 -0.18558 0.40442
 C37 C 1.34194 0.83819 0.51368
 C38 C 1.32231 0.82964 0.44576
 C39 C 1.28631 0.80123 0.44566
 C40 C 1.27022 0.78072 0.51092
 C41 C 1.29122 0.78937 0.57700
 C42 C 1.32667 0.81804 0.57870
 C43 C 1.23197 0.75011 0.50983
 C44 C 1.21157 0.73897 0.57625
 C45 C 1.17591 0.70965 0.57567
 C46 C 1.16083 0.69235 0.50649
 C47 C 1.17980 0.70366 0.43964
 C48 C 1.21554 0.73168 0.44204
 H49 H 1.36979 0.85945 0.51589
 H50 H 1.27050 0.79662 0.39506
 H51 H 1.28069 0.77341 0.62737
 H52 H 1.22283 0.75408 0.62800
 H53 H 1.13465 0.66802 0.50446
 H54 H 1.23030 0.73881 0.39051
 C55 C 0.84051 0.55412 0.47539
 C56 C 0.82853 0.56694 0.41418
 C57 C 0.79958 0.57479 0.42327
 C58 C 0.78079 0.56769 0.49184
 C59 C 0.79341 0.55444 0.55210
 C60 C 0.82315 0.54792 0.54433
 C61 C 0.74659 0.57091 0.49794
 C62 C 0.73095 0.57171 0.56818
 C63 C 0.69669 0.57015 0.57093
 C64 C 0.68202 0.57511 0.50376
 C65 C 0.69461 0.57043 0.43486
 C66 C 0.72674 0.56842 0.43206
 H67 H 0.86262 0.54767 0.46859
 H68 H 0.79169 0.58576 0.37558
 H69 H 0.77938 0.54707 0.60452
 H70 H 0.74377 0.57072 0.62003
 H71 H 0.65788 0.57839 0.50460
 H72 H 0.73453 0.56216 0.37849
 C73 C 0.39426 0.27630 0.49704
 C74 C 0.39687 0.26012 0.42938
 C75 C 0.40248 0.22844 0.43106
 C76 C 0.40831 0.21433 0.49957
 C77 C 0.40758 0.23271 0.56650
 C78 C 0.39965 0.26309 0.56634
 C79 C 0.41567 0.18108 0.50075
 C80 C 0.41117 0.15924 0.56599
 C81 C 0.41627 0.12693 0.56398
 C82 C 0.42563 0.11657 0.49574
 C83 C 0.43267 0.13910 0.43276
 C84 C 0.42798 0.17113 0.43554
 H85 H 0.39120 0.30155 0.49499
 H86 H 0.40203 0.21515 0.37808
 H87 H 0.41245 0.22302 0.61932
 H88 H 0.40210 0.16580 0.61769
 H89 H 0.43038 0.09234 0.49262
 H90 H 0.43548 0.18881 0.38687
 C91 C 0.69916 0.13988 0.47654
 C92 C 0.72199 0.15509 0.41596
 C93 C 0.75631 0.18496 0.42825
 C94 C 0.76758 0.20159 0.50018
 C95 C 0.74423 0.18554 0.56043
 C96 C 0.70997 0.15468 0.54922
 C97 C 0.80234 0.23704 0.51011
 C98 C 0.82119 0.24863 0.57978
 C99 C 0.85466 0.28152 0.58503
 C100 C 0.86872 0.30238 0.51981
 C101 C 0.84903 0.29315 0.45294
 C102 C 0.81615 0.26087 0.44847
 H103 H 0.67212 0.11779 0.46597
 H104 H 0.77371 0.19540 0.38054
 H105 H 0.75214 0.19758 0.61591
 H106 H 0.81089 0.23176 0.62916
 H107 H 0.89388 0.32813 0.52211
 H108 H 0.80071 0.25558 0.39705
 O109 O 0.94794 0.52660 -0.12822
 O110 O 1.02399 0.53959 0.15436
 O111 O 0.92022 0.50773 0.06369
 O112 O 1.04728 0.57868 -0.06868
 O113 O 0.97263 0.54789 0.10119
 O114 O 1.01105 0.54867 -0.15965
 O115 O 1.04311 0.57483 0.06194
 O116 O 0.90716 0.48242 -0.06527
 C117 C 0.91630 0.50920 -0.10954
 C118 C 1.04478 0.57070 0.13017
 C119 C 0.94005 0.53848 0.09574
 C120 C 1.03721 0.57736 -0.13453
 O121 O 1.00411 0.48183 -0.15267
 O122 O 0.96130 0.49346 0.18649
 O123 O 0.93018 0.43213 -0.02732
 O124 O 1.05004 0.50981 0.05880
 O125 O 0.99843 0.47330 0.10694
 O126 O 0.93842 0.45578 -0.13687
 O127 O 1.05268 0.51611 -0.08389
 O128 O 0.93524 0.45101 0.10069
 Co129 Co 0.97579 0.50355 -0.13188
 Co130 Co 0.98430 0.50989 0.09951
 Co131 Co 0.92888 0.47234 0.01511
 Co132 Co 1.04268 0.54118 -0.00728
 O133 O 0.98511 0.50864 -0.01242
 C134 C 1.03699 0.49365 -0.13826
 C135 C 0.93572 0.46081 0.16844
 C136 C 0.92834 0.42762 -0.09616
 C137 C 1.03089 0.48204 0.09921
 O138 O 0.43996 0.42278 -0.10388
 O139 O 0.41829 0.47383 0.08018
 O140 O 0.48572 0.41989 0.06428
 O141 O 0.44591 0.53109 -0.08632
 O142 O 0.43999 0.42502 0.10931
 O143 O 0.42159 0.47171 -0.09854
 O144 O 0.44250 0.53231 0.04956
 O145 O 0.48838 0.42035 -0.07484
 C146 C 0.45684 0.40452 -0.10044
 C147 C 0.41608 0.50349 0.07409
 C148 C 0.45704 0.40672 0.10169
 C149 C 0.41951 0.50110 -0.10724
 O150 O 0.48517 0.51987 -0.16107
 O151 O 0.50229 0.47976 0.15265
 O152 O 0.54499 0.48902 -0.07112
 O153 O 0.51530 0.56128 0.05940
 O154 O 0.47967 0.52567 0.14118
 O155 O 0.50403 0.47185 -0.15800
 O156 O 0.51806 0.55708 -0.07457
 O157 O 0.54389 0.48470 0.07326
 Co158 Co 0.46400 0.47298 -0.12040
 Co159 Co 0.46161 0.47723 0.10845
 Co160 Co 0.51253 0.45693 -0.00345
 Co161 Co 0.48018 0.54049 -0.01257
 O162 O 0.48000 0.48695 -0.00696
 C163 C 0.51304 0.54875 -0.14195
 C164 C 0.53430 0.48737 0.13821
 C165 C 0.53674 0.48698 -0.13891
 C166 C 0.50841 0.55373 0.12622
 O167 O 0.52805 0.01678 -0.16073
 O168 O 0.53146 -0.01871 0.19513
 O169 O 0.58038 0.06780 0.05246
 O170 O 0.53510 -0.05848 -0.03397
 O171 O 0.57139 0.01368 0.09005
 O172 O 0.50756 -0.05009 -0.13040
 O173 O 0.53558 -0.05270 0.10293
 O174 O 0.56878 0.06174 -0.08797
 C175 C 0.55861 0.04534 -0.15080
 C176 C 0.53840 -0.04560 0.17304
 C177 C 0.59222 0.04761 0.08325
 C178 C 0.52941 -0.06046 -0.10315
 O179 O 0.44716 -0.05011 -0.06579
 O180 O 0.53549 0.04409 0.15122
 O181 O 0.51000 0.06510 -0.07170
 O182 O 0.46458 -0.06997 0.09590
 O183 O 0.47859 -0.01447 0.13556
 O184 O 0.46680 0.01181 -0.10714
 O185 O 0.46514 -0.08877 -0.03873
 O186 O 0.51458 0.06533 0.06625
 Co187 Co 0.48929 -0.01729 -0.10637
 Co188 Co 0.52402 -0.00116 0.10854
 Co189 Co 0.54088 0.05880 -0.00798
 Co190 Co 0.50102 -0.06069 0.02925
 O191 O 0.51339 -0.00233 0.00037
 C192 C 0.44071 -0.08294 -0.06373
 C193 C 0.52159 0.06420 0.13350
 C194 C 0.48074 0.04656 -0.10538
 C195 C 0.45737 -0.04855 0.13582
 C196 C 1.15903 0.48678 0.27388
 C197 C 1.14016 0.46932 0.33940
 C198 C 1.10218 0.45017 0.33467
 C199 C 1.08385 0.45177 0.26961
 C200 C 1.10342 0.47222 0.20738
 C201 C 1.14090 0.48832 0.20910
 C202 C 1.08539 0.47842 0.14669
 C203 C 1.04799 0.46505 0.14817
 C204 C 1.02849 0.44179 0.20732
 C205 C 1.04625 0.43514 0.26739
 H206 H 1.08659 0.43454 0.38192
 H207 H 1.15637 0.50388 0.16160
 H208 H 1.10083 0.49626 0.10143
 H209 H 1.03068 0.41889 0.31415
 H210 H 1.18800 0.50228 0.27370
 H211 H 0.99967 0.43100 0.21010
 C212 C 0.59884 0.70329 0.29828
 C213 C 0.59712 0.68755 0.36957
 C214 C 0.58161 0.64801 0.37391
 C215 C 0.56658 0.62503 0.31087
 C216 C 0.56786 0.64115 0.24035
 C217 C 0.58479 0.68037 0.23443
 C218 C 0.55070 0.61771 0.17811
 C219 C 0.53093 0.57864 0.18719
 C220 C 0.53021 0.56315 0.25766
 C221 C 0.54843 0.58600 0.31856
 H222 H 0.57805 0.63435 0.42739
 H223 H 0.58626 0.69334 0.18075
 H224 H 0.55093 0.62990 0.12405
 H225 H 0.54710 0.57319 0.37240
 H226 H 0.61140 0.73338 0.29116
 H227 H 0.51491 0.53322 0.26604
 C228 C 0.33110 -0.17133 0.30970
 C229 C 0.33891 -0.15174 0.37890
 C230 C 0.36510 -0.11367 0.38035
 C231 C 0.38411 -0.09622 0.31569
 C232 C 0.37822 -0.11720 0.24863
 C233 C 0.35102 -0.15449 0.24582
 C234 C 0.40057 -0.10092 0.18681
 C235 C 0.42803 -0.06357 0.19101
 C236 C 0.43126 -0.04210 0.25586
 C237 C 0.40982 -0.05835 0.31780
 H238 H 0.37054 -0.09730 0.43169
 H239 H 0.34570 -0.17096 0.19469
 H240 H 0.39764 -0.11769 0.13699
 H241 H 0.41426 -0.04162 0.36832
 H242 H 0.31140 -0.20064 0.30581
 H243 H 0.45217 -0.01331 0.26087
 C244 C 0.82035 0.54120 0.28414
 C245 C 0.84303 0.56657 0.33887
 C246 C 0.87997 0.58719 0.32471
 C247 C 0.89436 0.58076 0.25852
 C248 C 0.87161 0.55298 0.20666
 C249 C 0.83450 0.53432 0.21877
 C250 C 0.88657 0.54235 0.14676
 C251 C 0.92408 0.55876 0.13859
 C252 C 0.94598 0.58931 0.18533
 C253 C 0.93134 0.60001 0.24519
 H254 H 0.89760 0.60685 0.36672
 H255 H 0.81659 0.51316 0.17937
 H256 H 0.86916 0.51903 0.11072
 H257 H 0.94918 0.62203 0.28320
 H258 H 0.79188 0.52494 0.29420
 H259 H 0.97474 0.60330 0.17868
 C260 C 0.37260 0.29312 0.34583
 C261 C 0.39723 0.27915 0.35789
 C262 C 0.42530 0.28825 0.30680
 C263 C 0.43043 0.31349 0.24832
 C264 C 0.40663 0.32900 0.23967
 C265 C 0.37712 0.31760 0.28706
 C266 C 0.41393 0.35733 0.18699
 C267 C 0.44525 0.37122 0.14376
 C268 C 0.46757 0.35401 0.14968
 C269 C 0.46016 0.32533 0.20125
 H270 H 0.44466 0.27794 0.31589
 H271 H 0.35844 0.32898 0.28088
 H272 H 0.39632 0.37014 0.18306
 H273 H 0.47862 0.31364 0.20669
 H274 H 0.35060 0.28624 0.38392
 H275 H 0.49181 0.36400 0.11715
 C276 C 0.70333 0.16797 0.29137
 C277 C 0.70783 0.14284 0.33902
 C278 C 0.69458 0.10519 0.31653
 C279 C 0.67502 0.09223 0.24906
 C280 C 0.66828 0.11714 0.20409
 C281 C 0.68360 0.15523 0.22452
 C282 C 0.64420 0.10306 0.14290
 C283 C 0.62635 0.06428 0.12703
 C284 C 0.63625 0.04053 0.16742
 C285 C 0.66019 0.05431 0.22812
 H286 H 0.69806 0.08575 0.35325
 H287 H 0.67897 0.17481 0.19060
 H288 H 0.63696 0.12175 0.11221
 H289 H 0.66548 0.03490 0.26115
 H290 H 0.71330 0.19708 0.30811
 H291 H 0.62333 0.01063 0.15582
 C292 C 0.40108 0.06699 -0.37615
 C293 C 0.41507 0.10632 -0.37118
 C294 C 0.43292 0.12477 -0.30424
 C295 C 0.44082 0.10493 -0.24836
 C296 C 0.42807 0.06581 -0.25664
 C297 C 0.40690 0.04694 -0.31906
 C298 C 0.43876 0.04649 -0.20542
 C299 C 0.46373 0.06592 -0.14786
 C300 C 0.47538 0.10462 -0.13830
 C301 C 0.46358 0.12382 -0.18736
 H302 H 0.44431 0.15503 -0.29935
 H303 H 0.39661 0.01691 -0.32597
 H304 H 0.42974 0.01674 -0.21406
 H305 H 0.47378 0.15381 -0.17988
 H306 H 0.38620 0.05168 -0.42555
 H307 H 0.49453 0.12028 -0.09434
 C308 C 0.68743 0.56601 -0.29055
 C309 C 0.67431 0.55831 -0.36502
 C310 C 0.63691 0.53606 -0.37604
 C311 C 0.61326 0.52346 -0.31650
 C312 C 0.62621 0.53287 -0.24234
 C313 C 0.66353 0.55398 -0.22990
 C314 C 0.60146 0.52076 -0.18291
 C315 C 0.56428 0.49907 -0.19813
 C316 C 0.55256 0.48889 -0.27260
 C317 C 0.57664 0.50121 -0.33100
 H318 H 0.62575 0.52675 -0.43167
 H319 H 0.67423 0.56123 -0.17337
 H320 H 0.61096 0.52842 -0.12568
 H321 H 0.56648 0.49346 -0.38786
 H322 H 0.71586 0.58257 -0.27891
 H323 H 0.52439 0.47179 -0.28629
 C324 C 0.91081 0.31574 -0.34432
 C325 C 0.87292 0.29669 -0.34622
 C326 C 0.85441 0.30022 -0.28356
 C327 C 0.87323 0.32726 -0.22705
 C328 C 0.91097 0.34880 -0.23086
 C329 C 0.92959 0.34121 -0.28710
 C330 C 0.92924 0.37958 -0.18229
 C331 C 0.91047 0.38986 -0.13080
 C332 C 0.87340 0.36694 -0.12314
 C333 C 0.85489 0.33568 -0.17068
 H334 H 0.82532 0.28592 -0.28351
 H335 H 0.95857 0.35692 -0.28988
 H336 H 0.95780 0.39707 -0.18757
 H337 H 0.82601 0.31955 -0.16635
 H338 H 0.92600 0.31243 -0.38979
 H339 H 0.85844 0.37464 -0.08381
 C340 C 0.53120 -0.15858 -0.36841
 C341 C 0.56566 -0.15491 -0.35579
 C342 C 0.58537 -0.13537 -0.29182
 C343 C 0.57144 -0.11779 -0.24317
 C344 C 0.53756 -0.11992 -0.25917
 C345 C 0.51726 -0.14125 -0.32063
 C346 C 0.52475 -0.10013 -0.21441
 C347 C 0.54460 -0.07919 -0.15189
 C348 C 0.57766 -0.07820 -0.13459
 C349 C 0.59122 -0.09694 -0.18043
 H350 H 0.61224 -0.13191 -0.28268
 H351 H 0.49115 -0.14339 -0.33333
 H352 H 0.49904 -0.10142 -0.22781
 H353 H 0.61715 -0.09506 -0.16694
 H354 H 0.51595 -0.17306 -0.41810
 H355 H 0.59322 -0.06248 -0.08620
 C356 C 0.36307 0.55880 -0.36765
 C357 C 0.33224 0.52496 -0.38458
 C358 C 0.32210 0.49450 -0.33581
 C359 C 0.34368 0.49723 -0.27304
 C360 C 0.37509 0.53121 -0.25764
 C361 C 0.38411 0.56204 -0.30442
 C362 C 0.39806 0.53322 -0.19831
 C363 C 0.39098 0.50123 -0.15609
 C364 C 0.35912 0.46793 -0.17015
 C365 C 0.33543 0.46608 -0.22748
 H366 H 0.29850 0.46820 -0.34883
 H367 H 0.40808 0.58828 -0.29350
 H368 H 0.42281 0.55891 -0.18878
 H369 H 0.31149 0.43980 -0.23831
 H370 H 0.37111 0.58269 -0.40410
 H371 H 0.35320 0.44290 -0.13854
 C372 C 1.17249 0.69671 -0.28847
 C373 C 1.15572 0.69604 -0.35775
 C374 C 1.11775 0.67826 -0.36055
 C375 C 1.09735 0.65781 -0.29989
 C376 C 1.11465 0.65616 -0.23309
 C377 C 1.15215 0.67689 -0.22701
 C378 C 1.09431 0.63219 -0.17549
 C379 C 1.05710 0.60903 -0.18544
 C380 C 1.04007 0.61263 -0.25058
 C381 C 1.05993 0.63713 -0.30688
 H382 H 1.10371 0.67941 -0.41081
 H383 H 1.16592 0.67626 -0.17592
 H384 H 1.10777 0.62946 -0.12567
 H385 H 1.04623 0.63834 -0.35764
 H386 H 1.20141 0.70989 -0.28278
 H387 H 1.01148 0.59529 -0.25933
 C388 C 0.83948 0.50042 -0.40396
 C389 C 0.83480 0.53240 -0.39273
 C390 C 0.84203 0.54994 -0.32186
 C391 C 0.85577 0.53686 -0.26375
 C392 C 0.86108 0.50506 -0.27625
 C393 C 0.85219 0.48661 -0.34596
 C394 C 0.87735 0.49367 -0.22054
 C395 C 0.88984 0.51456 -0.15401
 C396 C 0.88378 0.54546 -0.14069
 C397 C 0.86616 0.55615 -0.19478
 H398 H 0.83857 0.57475 -0.31319
 H399 H 0.85615 0.46225 -0.35633
 H400 H 0.88306 0.47043 -0.23138
 H401 H 0.86246 0.58066 -0.18438
 H402 H 0.83349 0.48626 -0.45797
 H403 H 0.89415 0.56226 -0.09014
 C404 C 0.37718 0.29939 -0.36062
 C405 C 0.39938 0.28190 -0.36663
 C406 C 0.42309 0.28612 -0.30650
 C407 C 0.42734 0.31056 -0.24648
 C408 C 0.40628 0.32945 -0.24407
 C409 C 0.38031 0.32249 -0.29968
 C410 C 0.41345 0.35726 -0.18967
 C411 C 0.44288 0.36816 -0.14035
 C412 C 0.46225 0.34764 -0.13975
 C413 C 0.45423 0.31869 -0.19190
 H414 H 0.44106 0.27378 -0.30954
 H415 H 0.36358 0.33636 -0.29801
 H416 H 0.39821 0.37279 -0.19060
 H417 H 0.47052 0.30432 -0.19250
 H418 H 0.35727 0.29537 -0.40339
 H419 H 0.48486 0.35534 -0.10175
 C420 C 0.68345 0.16358 -0.33159
 C421 C 0.68439 0.13946 -0.38794
 C422 C 0.65975 0.10094 -0.38547
 C423 C 0.63429 0.08694 -0.32857
 C424 C 0.63415 0.11149 -0.27189
 C425 C 0.65885 0.14966 -0.27374
 C426 C 0.60919 0.09755 -0.21438
 C427 C 0.58378 0.05946 -0.21330
 C428 C 0.58346 0.03528 -0.27062
 C429 C 0.60879 0.04887 -0.32756
 H430 H 0.66029 0.08181 -0.42778
 H431 H 0.65880 0.16889 -0.23104
 H432 H 0.60932 0.11644 -0.17066
 H433 H 0.60841 0.02966 -0.37078
 H434 H 0.70122 0.19347 -0.33282
 H435 H 0.56417 0.00577 -0.27042
 C436 C 1.16604 0.51821 -0.33272
 C437 C 1.14664 0.49059 -0.38800
 C438 C 1.11015 0.46599 -0.37491
 C439 C 1.09321 0.46979 -0.31074
 C440 C 1.11266 0.49846 -0.25763
 C441 C 1.14921 0.52209 -0.26858
 C442 C 1.09480 0.50415 -0.19661
 C443 C 1.05752 0.48203 -0.18949
 C444 C 1.03898 0.45244 -0.24090
 C445 C 1.05666 0.44612 -0.30041
 H446 H 1.09475 0.44337 -0.41416
 H447 H 1.16459 0.54439 -0.22869
 H448 H 1.10940 0.52736 -0.15800
 H449 H 1.04134 0.42382 -0.34035
 H450 H 1.19378 0.53858 -0.34041
 H451 H 1.01034 0.43529 -0.23762
 C452 C 0.61278 0.69988 -0.28942
 C453 C 0.60742 0.68615 -0.36401
 C454 C 0.58956 0.64673 -0.37507
 C455 C 0.57446 0.62230 -0.31567
 C456 C 0.57842 0.63655 -0.24199
 C457 C 0.59878 0.67530 -0.22917
 C458 C 0.56018 0.61199 -0.18355
 C459 C 0.53677 0.57391 -0.19943
 C460 C 0.53373 0.56023 -0.27295
 C461 C 0.55300 0.58397 -0.33024
 H462 H 0.58340 0.63437 -0.43063
 H463 H 0.60255 0.68678 -0.17284
 H464 H 0.56238 0.62288 -0.12702
 H465 H 0.54963 0.57265 -0.38667
 H466 H 0.62754 0.72958 -0.27688
 H467 H 0.51563 0.53119 -0.28667
 C468 C 0.38007 -0.17574 -0.34834
 C469 C 0.34810 -0.17291 -0.35125
 C470 C 0.33776 -0.15916 -0.28871
 C471 C 0.36043 -0.14589 -0.22544
 C472 C 0.39298 -0.14815 -0.22345
 C473 C 0.40208 -0.16403 -0.28440
 C474 C 0.41718 -0.13183 -0.16334
 C475 C 0.41046 -0.11090 -0.10837
 C476 C 0.37754 -0.10998 -0.10918
 C477 C 0.35231 -0.12810 -0.16638
 H478 H 0.31320 -0.15667 -0.29129
 H479 H 0.42697 -0.16584 -0.28395
 H480 H 0.44282 -0.13203 -0.16355
 H481 H 0.32756 -0.12603 -0.16705
 H482 H 0.38822 -0.18649 -0.39616
 H483 H 0.37219 -0.09355 -0.06764
 C484 C 0.58463 -0.15540 0.31748
 C485 C 0.60104 -0.13311 0.38138
 C486 C 0.60831 -0.09539 0.38225
 C487 C 0.59444 -0.08175 0.32593
 C488 C 0.57556 -0.10510 0.26432
 C489 C 0.57242 -0.14128 0.25878
 C490 C 0.55833 -0.09269 0.21216
 C491 C 0.55851 -0.05806 0.22335
 C492 C 0.57832 -0.03472 0.28358
 C493 C 0.59661 -0.04619 0.33370
 H494 H 0.62161 -0.07778 0.43063
 H495 H 0.55827 -0.15953 0.21181
 H496 H 0.54329 -0.11066 0.16549
 H497 H 0.61110 -0.02791 0.38043
 H498 H 0.57861 -0.18464 0.31547
 H499 H 0.57970 -0.00744 0.29225
 C500 C 0.36335 0.56679 0.32595
 C501 C 0.33099 0.53422 0.33783
 C502 C 0.31852 0.50492 0.28448
 C503 C 0.33965 0.50679 0.22288
 C504 C 0.37283 0.53920 0.21264
 C505 C 0.38387 0.56954 0.26308
 C506 C 0.39580 0.53948 0.15613
 C507 C 0.38712 0.50694 0.11315
 C508 C 0.35346 0.47550 0.12126
 C509 C 0.32954 0.47570 0.17478
 H510 H 0.29375 0.47952 0.29412
 H511 H 0.40927 0.59453 0.25613
 H512 H 0.42207 0.56359 0.15119
 H513 H 0.30421 0.45064 0.18189
 H514 H 0.37319 0.58963 0.36652
 H515 H 0.34647 0.45013 0.08887
 C516 C 1.17965 0.67605 0.31197
 C517 C 1.16165 0.68518 0.36805
 C518 C 1.12495 0.67431 0.35803
 C519 C 1.10574 0.65178 0.29713
 C520 C 1.12375 0.64191 0.24177
 C521 C 1.16091 0.65502 0.24877
 C522 C 1.10388 0.61748 0.18293
 C523 C 1.06631 0.60149 0.18191
 C524 C 1.04881 0.61127 0.23745
 C525 C 1.06840 0.63707 0.29345
 H526 H 1.11085 0.68200 0.39960
 H527 H 1.17517 0.64761 0.20716
 H528 H 1.11725 0.60895 0.14119
 H529 H 1.05420 0.64392 0.33616
 H530 H 1.20785 0.68382 0.31819
 H531 H 1.01985 0.59799 0.23882
 C532 C 0.43243 0.12799 0.29454
 C533 C 0.44776 0.13046 0.36581
 C534 C 0.47733 0.12368 0.37410
 C535 C 0.49046 0.11259 0.31266
 C536 C 0.47416 0.10864 0.24126
 C537 C 0.44555 0.11710 0.23251
 C538 C 0.48587 0.09491 0.18086
 C539 C 0.51300 0.08438 0.19200
 C540 C 0.52992 0.08994 0.26248
 C541 C 0.51888 0.10412 0.32225
 H542 H 0.48963 0.12631 0.42893
 H543 H 0.43280 0.11438 0.17824
 H544 H 0.47269 0.09056 0.12659
 H545 H 0.53177 0.10729 0.37651
 H546 H 0.40967 0.13339 0.28740
 H547 H 0.55116 0.08235 0.27192
 C548 C 0.68202 0.57314 0.29729
 C549 C 0.67001 0.55966 0.36929
 C550 C 0.63379 0.53387 0.37946
 C551 C 0.60954 0.52235 0.31966
 C552 C 0.62154 0.53596 0.24724
 C553 C 0.65786 0.56136 0.23650
 C554 C 0.59691 0.52388 0.18726
 C555 C 0.56059 0.49900 0.19973
 C556 C 0.54907 0.48584 0.27201
 C557 C 0.57341 0.49730 0.33156
 H558 H 0.62441 0.52218 0.43416
 H559 H 0.66753 0.57209 0.18132
 H560 H 0.60575 0.53431 0.13146
 H561 H 0.56396 0.48675 0.38698
 H562 H 0.70991 0.59283 0.28827
 H563 H 0.52117 0.46657 0.28238
 C564 C 0.86115 0.30591 0.31646
 C565 C 0.86153 0.31917 0.38953
 C566 C 0.87365 0.35761 0.40243
 C567 C 0.88654 0.38287 0.34356
 C568 C 0.88687 0.36953 0.27029
 C569 C 0.87374 0.33095 0.25712
 C570 C 0.90129 0.39510 0.21199
 C571 C 0.91616 0.43376 0.22672
 C572 C 0.91481 0.44667 0.29917
 C573 C 0.89988 0.42137 0.35718
 H574 H 0.87322 0.36786 0.45851
 H575 H 0.87377 0.32026 0.20131
 H576 H 0.90238 0.38504 0.15610
 H577 H 0.89962 0.43196 0.41298
 H578 H 0.85173 0.27627 0.30564
 H579 H 0.92596 0.47644 0.31122
   
