data_POSCAR
  _audit_creation_date              2014-09-24
  _audit_creation_method            'ToBaCCo'
  _symmetry_space_group_name_H-M    'P1'
  _symmetry_Int_Tables_number       1
  _symmetry_cell_setting            triclinic
  loop_
  _symmetry_equiv_pos_as_xyz
 x,y,z
_cell_length_a 32.0488
_cell_length_b 32.1761
_cell_length_c 7.0629
_cell_angle_alpha 88.555500
_cell_angle_beta 90.978900
_cell_angle_gamma 89.687900
loop_
  _atom_site_label
  _atom_site_type_symbol
  _atom_site_fract_x
  _atom_site_fract_y
  _atom_site_fract_z
C1 C 0.12221 0.27046 0.28194
 C2 C 0.12230 0.22805 0.29212
 C3 C 0.16295 0.21489 0.26072
 N4 N 0.18721 0.24871 0.22750
 C5 C 0.16217 0.28265 0.23592
 C6 C 0.17658 0.17288 0.23772
 C7 C 0.21782 0.16614 0.17292
 C8 C 0.22971 0.13635 0.04464
 C9 C 0.27242 0.13671 0.03901
 C10 C 0.28537 0.16799 0.15643
 N11 N 0.25206 0.18664 0.23418
 C12 C 0.32746 0.17782 0.19287
 C13 C 0.33954 0.21979 0.18094
 C14 C 0.37627 0.23424 0.10385
 C15 C 0.37533 0.27663 0.11871
 C16 C 0.33875 0.28638 0.21050
 N17 N 0.31638 0.25160 0.24294
 C18 C 0.32703 0.32619 0.27233
 C19 C 0.28401 0.33832 0.27254
 C20 C 0.26931 0.37805 0.30768
 C21 C 0.22681 0.37719 0.29025
 C22 C 0.21598 0.33755 0.23643
 N23 N 0.25096 0.31399 0.22613
 C24 C 0.17445 0.32444 0.19827
 H25 H 0.09525 0.28986 0.30563
 H26 H 0.09431 0.21017 0.31083
 H27 H 0.25204 0.28411 0.17444
 H28 H 0.20980 0.11631 -0.03747
 H29 H 0.29171 0.11685 -0.04505
 H30 H 0.40047 0.21627 0.03839
 H31 H 0.39871 0.29782 0.06532
 H32 H 0.20642 0.40327 0.31569
 H33 H 0.25299 0.20890 0.33918
 H34 H 0.28666 0.40591 0.33591
 C35 C 0.62243 0.22735 0.34295
 C36 C 0.62303 0.26934 0.36128
 C37 C 0.66387 0.28179 0.33644
 N38 N 0.68844 0.24816 0.30670
 C39 C 0.66295 0.21464 0.30558
 C40 C 0.67849 0.32305 0.35770
 C41 C 0.72165 0.33027 0.37351
 C42 C 0.74080 0.35728 0.49725
 C43 C 0.78251 0.35773 0.45362
 C44 C 0.78720 0.33136 0.30341
 N45 N 0.75037 0.31327 0.26142
 C46 C 0.82347 0.32506 0.19796
 C47 C 0.83245 0.28380 0.14502
 C48 C 0.86121 0.27110 0.01349
 C49 C 0.86084 0.22848 0.01810
 C50 C 0.83407 0.21635 0.16077
 N51 N 0.81584 0.25016 0.23388
 C52 C 0.82818 0.17550 0.23452
 C53 C 0.78766 0.16402 0.29751
 C54 C 0.77735 0.12736 0.39347
 C55 C 0.73494 0.12725 0.41193
 C56 C 0.71955 0.16257 0.31830
 N57 N 0.75192 0.18546 0.25360
 C58 C 0.67647 0.17242 0.29043
 H59 H 0.59515 0.20869 0.36931
 H60 H 0.59640 0.28764 0.40126
 H61 H 0.74933 0.21194 0.16583
 H62 H 0.72623 0.37466 0.60775
 H63 H 0.80652 0.37528 0.52495
 H64 H 0.88077 0.28962 -0.07765
 H65 H 0.87836 0.20893 -0.07462
 H66 H 0.71759 0.10336 0.48632
 H67 H 0.74443 0.29395 0.14747
 H68 H 0.79700 0.10207 0.44352
 C69 C 0.61830 0.73062 0.72093
 C70 C 0.61805 0.77296 0.72018
 C71 C 0.65917 0.78541 0.74159
 N72 N 0.68460 0.75173 0.75587
 C73 C 0.65961 0.71806 0.74218
 C74 C 0.67256 0.82722 0.75151
 C75 C 0.71273 0.83615 0.82250
 C76 C 0.72143 0.86669 0.95117
 C77 C 0.76393 0.86647 0.97863
 C78 C 0.78010 0.83621 0.86334
 N79 N 0.74834 0.81663 0.77386
 C80 C 0.82321 0.82774 0.84142
 C81 C 0.83738 0.78608 0.82162
 C82 C 0.87801 0.77235 0.85586
 C83 C 0.87848 0.73057 0.83013
 C84 C 0.83789 0.71916 0.78572
 N85 N 0.81279 0.75327 0.78011
 C86 C 0.82458 0.67810 0.74521
 C87 C 0.78356 0.67204 0.67778
 C88 C 0.77206 0.64538 0.53539
 C89 C 0.72926 0.64406 0.53332
 C90 C 0.71606 0.67042 0.67292
 N91 N 0.74927 0.68871 0.75553
 C92 C 0.67421 0.67672 0.72355
 H93 H 0.59093 0.71201 0.69595
 H94 H 0.59022 0.79191 0.70478
 H95 H 0.74867 0.70775 0.87311
 H96 H 0.69928 0.88644 1.02077
 H97 H 0.78080 0.88593 1.07598
 H98 H 0.90487 0.78972 0.90228
 H99 H 0.90613 0.71129 0.84343
 H100 H 0.71008 0.62599 0.43884
 H101 H 0.75088 0.79427 0.67009
 H102 H 0.79250 0.62815 0.44503
 C103 C 0.37396 0.77052 0.59304
 C104 C 0.37397 0.72820 0.60055
 C105 C 0.33501 0.71587 0.66253
 N106 N 0.31077 0.74990 0.68802
 C107 C 0.33460 0.78354 0.64551
 C108 C 0.32202 0.67376 0.68424
 C109 C 0.27904 0.66353 0.66760
 C110 C 0.26399 0.62785 0.58613
 C111 C 0.22174 0.62770 0.60845
 C112 C 0.21100 0.66444 0.69586
 N113 N 0.24656 0.68621 0.73035
 C114 C 0.17042 0.67538 0.76155
 C115 C 0.16502 0.71492 0.84324
 C116 C 0.14056 0.72362 0.99778
 C117 C 0.14052 0.76587 1.01510
 C118 C 0.16672 0.78151 0.87717
 N119 N 0.18232 0.75036 0.77418
 C120 C 0.17666 0.82400 0.85194
 C121 C 0.21924 0.83498 0.83648
 C122 C 0.23766 0.86827 0.92586
 C123 C 0.27904 0.86773 0.88057
 C124 C 0.28466 0.83503 0.75952
 N125 N 0.24838 0.81409 0.73913
 C126 C 0.32231 0.82575 0.66734
 H127 H 0.40091 0.78889 0.55735
 H128 H 0.39990 0.70923 0.55795
 H129 H 0.24298 0.78957 0.64828
 H130 H 0.28141 0.60394 0.51650
 H131 H 0.20253 0.60192 0.56869
 H132 H 0.12484 0.70183 1.09100
 H133 H 0.12453 0.78287 1.12255
 H134 H 0.30245 0.88871 0.93408
 H135 H 0.24918 0.71277 0.81094
 H136 H 0.22327 0.89000 1.01944
 O137 O 1.04421 -0.05177 0.17035
 O138 O 0.96294 0.02450 0.28749
 O139 O 0.96260 -0.05077 0.16070
 O140 O 1.04440 0.02492 0.28366
 O141 O 1.04320 0.04476 -0.01735
 O142 O 0.96053 -0.02846 -0.13714
 O143 O 0.96321 0.04631 -0.01124
 O144 O 1.04221 -0.03157 -0.13030
 Cu145 Cu 1.00367 -0.01606 0.25441
 Cu146 Cu 1.00231 0.01015 -0.10280
 C147 C 1.05712 -0.05489 0.00258
 C148 C 0.94965 0.04898 0.15567
 C149 C 0.94735 -0.05243 -0.00617
 C150 C 1.05730 0.04850 0.14998
 O151 O 0.54211 0.45053 0.63801
 O152 O 0.45934 0.52612 0.74078
 O153 O 0.46131 0.45004 0.61786
 O154 O 0.54142 0.52708 0.74715
 O155 O 0.54121 0.54714 0.44653
 O156 O 0.46239 0.47111 0.31836
 O157 O 0.46080 0.54596 0.44004
 O158 O 0.54386 0.47114 0.33808
 Cu159 Cu 0.50090 0.48592 0.71515
 Cu160 Cu 0.50217 0.51135 0.35713
 C161 C 0.55704 0.44761 0.47384
 C162 C 0.44584 0.54919 0.60410
 C163 C 0.44825 0.44736 0.44794
 C164 C 0.55480 0.55068 0.61445
 O165 O 0.03710 0.52759 -0.27568
 O166 O -0.04365 0.45175 -0.14202
 O167 O -0.04471 0.52854 -0.26592
 O168 O 0.03769 0.45159 -0.13666
 O169 O 0.03848 0.47124 0.16044
 O170 O -0.04210 0.54779 0.03128
 O171 O -0.04269 0.47162 0.15451
 O172 O 0.03800 0.54712 0.02148
 Cu173 Cu -0.00347 0.48726 -0.23359
 Cu174 Cu -0.00178 0.51191 0.11988
 C175 C 0.05100 0.55087 -0.14664
 C176 C -0.05711 0.44861 0.02535
 C177 C -0.05722 0.55177 -0.13478
 C178 C 0.05166 0.44781 0.03222
 O179 O 0.54200 1.02739 0.22936
 O180 O 0.45854 0.95200 0.33690
 O181 O 0.46049 1.02919 0.20642
 O182 O 0.53965 0.95189 0.36796
 O183 O 0.53693 0.97342 0.66127
 O184 O 0.45626 1.04820 0.50318
 O185 O 0.45534 0.97231 0.63231
 O186 O 0.53682 1.04798 0.52326
 Cu187 Cu 0.50032 0.98749 0.25682
 Cu188 Cu 0.49586 1.01296 0.60775
 C189 C 0.55371 1.05074 0.36255
 C190 C 0.44306 0.94884 0.50077
 C191 C 0.44518 1.05241 0.33081
 C192 C 0.55203 0.94949 0.53955
 C193 C 1.14615 0.13909 0.22975
 C194 C 1.11286 0.13732 0.38618
 C195 C 1.08269 0.10801 0.35954
 C196 C 1.08963 0.08141 0.18484
 C197 C 1.09254 0.11286 0.01811
 C198 C 1.12170 0.14239 0.04140
 C199 C 1.16330 0.09381 0.24214
 C200 C 1.13393 0.06398 0.21404
 H201 H 1.11462 0.15519 0.51445
 H202 H 1.05841 0.10203 0.46186
 H203 H 1.07299 0.11246 -0.10891
 H204 H 1.12686 0.16648 -0.06615
 H205 H 1.19475 0.08547 0.28883
 H206 H 1.14100 0.03101 0.22941
 C207 C 0.64281 0.64116 0.70342
 C208 C 0.60730 0.64080 0.84910
 C209 C 0.57775 0.61123 0.81927
 C210 C 0.58700 0.58350 0.65125
 C211 C 0.59218 0.61390 0.48116
 C212 C 0.62120 0.64350 0.50835
 C213 C 0.66016 0.59623 0.72300
 C214 C 0.63101 0.56620 0.69339
 H215 H 0.60633 0.66106 0.96958
 H216 H 0.55146 0.60673 0.91233
 H217 H 0.57456 0.61254 0.34882
 H218 H 0.62829 0.66676 0.39967
 H219 H 0.69186 0.58846 0.76781
 H220 H 0.63818 0.53326 0.70870
 C221 C -0.14617 0.36070 0.15135
 C222 C -0.13744 0.36587 -0.06153
 C223 C -0.10765 0.39439 -0.10385
 C224 C -0.08996 0.41679 0.07024
 C225 C -0.12868 0.43461 0.16437
 C226 C -0.15835 0.40561 0.20443
 C227 C -0.10330 0.35303 0.24796
 C228 C -0.07413 0.38209 0.20552
 H229 H -0.15523 0.35045 -0.17121
 H230 H -0.09981 0.40223 -0.24930
 H231 H -0.13422 0.46768 0.17945
 H232 H -0.18938 0.41551 0.24211
 H233 H -0.09660 0.32689 0.34410
 H234 H -0.04262 0.38065 0.26444
 C235 C 0.35330 0.86089 0.61678
 C236 C 0.39022 0.86137 0.75886
 C237 C 0.41983 0.89004 0.71826
 C238 C 0.41013 0.91673 0.54019
 C239 C 0.40303 0.88547 0.38135
 C240 C 0.37287 0.85701 0.41970
 C241 C 0.33682 0.90631 0.60742
 C242 C 0.36672 0.93535 0.57166
 H243 H 0.39268 0.84073 0.88261
 H244 H 0.44758 0.89368 0.80661
 H245 H 0.41859 0.88681 0.24606
 H246 H 0.36258 0.83485 0.31550
 H247 H 0.30408 0.91497 0.60532
 H248 H 0.35927 0.96806 0.54882
 C249 C -0.14651 0.64308 -0.22795
 C250 C -0.16352 0.59800 -0.23916
 C251 C -0.13374 0.56779 -0.21280
 C252 C -0.09001 0.58478 -0.17157
 C253 C -0.08082 0.61438 -0.33867
 C254 C -0.11035 0.64444 -0.36923
 C255 C -0.12595 0.64258 -0.02918
 C256 C -0.09609 0.61312 -0.00119
 H257 H -0.19624 0.58973 -0.24340
 H258 H -0.14134 0.53496 -0.20456
 H259 H -0.05380 0.61145 -0.42812
 H260 H -0.10845 0.66704 -0.48552
 H261 H -0.13521 0.66288 0.08350
 H262 H -0.07994 0.60930 0.13458
 C263 C 0.35833 1.14489 0.22197
 C264 C 0.34151 1.10573 0.32647
 C265 C 0.37027 1.07498 0.35558
 C266 C 0.41364 1.08577 0.28141
 C267 C 0.40659 1.09752 0.07077
 C268 C 0.37777 1.12853 0.03977
 C269 C 0.39589 1.15724 0.34824
 C270 C 0.42489 1.12681 0.37550
 H271 H 0.30998 1.10272 0.37877
 H272 H 0.36300 1.04595 0.42917
 H273 H 0.42289 1.08303 -0.04388
 H274 H 0.36963 1.14043 -0.10138
 H275 H 0.39890 1.18686 0.41729
 H276 H 0.45267 1.13113 0.46292
 C277 C 1.14547 -0.14426 -0.10996
 C278 C 1.14304 -0.13344 0.10036
 C279 C 1.11414 -0.10382 0.13762
 C280 C 1.08972 -0.08723 -0.03853
 C281 C 1.12338 -0.07231 -0.17605
 C282 C 1.15205 -0.10212 -0.21592
 C283 C 1.10025 -0.15552 -0.16889
 C284 C 1.07131 -0.12594 -0.12978
 H285 H 1.16270 -0.14775 0.21084
 H286 H 1.10953 -0.09291 0.28000
 H287 H 1.12375 -0.04151 -0.24238
 H288 H 1.17631 -0.09651 -0.31874
 H289 H 1.09175 -0.18370 -0.24118
 H290 H 1.03847 -0.12923 -0.16654
 C291 C 0.64709 0.35869 0.38500
 C292 C 0.61018 0.35878 0.24117
 C293 C 0.58015 0.38766 0.27315
 C294 C 0.59017 0.41539 0.44113
 C295 C 0.59780 0.38511 0.61069
 C296 C 0.62744 0.35592 0.58142
 C297 C 0.66301 0.40397 0.36602
 C298 C 0.63329 0.43346 0.39753
 H299 H 0.60859 0.33881 0.11966
 H300 H 0.55287 0.39176 0.18113
 H301 H 0.58165 0.38657 0.74424
 H302 H 0.63652 0.33291 0.68977
 H303 H 0.69367 0.41257 0.31628
 H304 H 0.63930 0.46652 0.38120
 C305 C 0.85570 -0.13782 -0.12440
 C306 C 0.84149 -0.09194 -0.15195
 C307 C 0.87163 -0.06364 -0.10945
 C308 C 0.91369 -0.08342 -0.04907
 C309 C 0.90355 -0.11294 0.11814
 C310 C 0.87343 -0.14094 0.07890
 C311 C 0.89389 -0.13945 -0.25511
 C312 C 0.92448 -0.11186 -0.21253
 H313 H 0.81184 -0.08226 -0.21540
 H314 H 0.86686 -0.03040 -0.13051
 H315 H 0.91840 -0.11186 0.25727
 H316 H 0.86274 -0.16339 0.18452
 H317 H 0.89582 -0.15927 -0.37684
 H318 H 0.95256 -0.10885 -0.29547
 C319 C 0.36110 0.35788 0.32647
 C320 C 0.40551 0.34090 0.37427
 C321 C 0.43429 0.37084 0.40946
 C322 C 0.41625 0.41509 0.40179
 C323 C 0.39561 0.42011 0.20487
 C324 C 0.36708 0.39038 0.16607
 C325 C 0.35193 0.38291 0.50525
 C326 C 0.37997 0.41347 0.54110
 H327 H 0.41294 0.30843 0.40333
 H328 H 0.46592 0.36340 0.45699
 H329 H 0.40275 0.44489 0.10356
 H330 H 0.35020 0.38982 0.03153
 H331 H 0.32685 0.37566 0.60189
 H332 H 0.37804 0.43266 0.66502
 C333 C 0.13738 0.64389 -0.22698
 C334 C 0.14885 0.61078 -0.07368
 C335 C 0.12073 0.57985 -0.05349
 C336 C 0.08262 0.58418 -0.18603
 C337 C 0.06480 0.62764 -0.15240
 C338 C 0.09278 0.65879 -0.17839
 C339 C 0.12813 0.61948 -0.40950
 C340 C 0.10035 0.58761 -0.38681
 H341 H 0.17712 0.61168 0.01329
 H342 H 0.12521 0.55445 0.04918
 H343 H 0.03176 0.63382 -0.13432
 H344 H 0.08193 0.69072 -0.19291
 H345 H 0.13970 0.62856 -0.54806
 H346 H 0.08957 0.56914 -0.50422
 C347 C 0.64539 1.13919 0.29615
 C348 C 0.65876 1.09505 0.23560
 C349 C 0.62881 1.06538 0.25988
 C350 C 0.58754 1.08252 0.33412
 C351 C 0.59965 1.10429 0.51852
 C352 C 0.62955 1.13329 0.49862
 C353 C 0.60608 1.14667 0.16883
 C354 C 0.57559 1.11769 0.19252
 H355 H 0.68756 1.08825 0.16365
 H356 H 0.63294 1.03361 0.21503
 H357 H 0.58657 1.09706 0.65618
 H358 H 0.64146 1.15042 0.61850
 H359 H 0.60332 1.17146 0.06202
 H360 H 0.54689 1.11827 0.10861
 C361 C 0.14089 0.35775 0.14738
 C362 C 0.10297 0.34291 0.02939
 C363 C 0.07298 0.37248 -0.00265
 C364 C 0.08413 0.41505 0.07735
 C365 C 0.09296 0.40660 0.28926
 C366 C 0.12236 0.37676 0.32528
 C367 C 0.15604 0.39515 0.02516
 C368 C 0.12664 0.42529 -0.00795
 H369 H 0.10106 0.31275 -0.03546
 H370 H 0.04530 0.36683 -0.08880
 H371 H 0.07725 0.42238 0.40220
 H372 H 0.13165 0.36727 0.46857
 H373 H 0.18641 0.39668 -0.04023
 H374 H 0.13241 0.45263 -0.09676
 C375 C 0.64165 0.86247 0.69713
 C376 C 0.62056 0.85527 0.50286
 C377 C 0.59062 0.88352 0.45261
 C378 C 0.58484 0.91783 0.59763
 C379 C 0.57602 0.89467 0.78518
 C380 C 0.60584 0.86631 0.83816
 C381 C 0.65854 0.90728 0.67367
 C382 C 0.62865 0.93616 0.62411
 H383 H 0.62936 0.83050 0.40958
 H384 H 0.57383 0.88221 0.31805
 H385 H 0.54886 0.90040 0.87057
 H386 H 0.60426 0.84819 0.96959
 H387 H 0.69125 0.91555 0.68017
 H388 H 0.63599 0.96857 0.59485
 C389 C 0.86326 0.14226 0.22597
 C390 C 0.85193 0.11047 0.07490
 C391 C 0.88008 0.07939 0.05735
 C392 C 0.91801 0.08234 0.19075
 C393 C 0.93583 0.12587 0.15428
 C394 C 0.90777 0.15711 0.17704
 C395 C 0.87212 0.11635 0.41016
 C396 C 0.89999 0.08442 0.39081
 H397 H 0.82368 0.11238 -0.01212
 H398 H 0.87572 0.05479 -0.04353
 H399 H 0.96892 0.13183 0.13782
 H400 H 0.91873 0.18867 0.19236
 H401 H 0.86055 0.12470 0.54775
 H402 H 0.91072 0.06508 0.51015
 C403 C 0.35514 0.63872 0.67514
 C404 C 0.39664 0.64664 0.78319
 C405 C 0.42668 0.61722 0.75791
 C406 C 0.41237 0.58142 0.63333
 C407 C 0.37281 0.56507 0.72892
 C408 C 0.34325 0.59509 0.75458
 C409 C 0.36714 0.63187 0.46908
 C410 C 0.39671 0.60241 0.44692
 H411 H 0.40129 0.67207 0.87925
 H412 H 0.45694 0.61810 0.82923
 H413 H 0.36958 0.53348 0.78421
 H414 H 0.31556 0.58886 0.83668
 H415 H 0.35300 0.64877 0.34912
 H416 H 0.40734 0.59445 0.30718
   
