data_POSCAR
  _audit_creation_date              2014-09-24
  _audit_creation_method            'ToBaCCo'
  _symmetry_space_group_name_H-M    'P1'
  _symmetry_Int_Tables_number       1
  _symmetry_cell_setting            triclinic
  loop_
  _symmetry_equiv_pos_as_xyz
 x,y,z
_cell_length_a 46.4728
_cell_length_b 42.9943
_cell_length_c 42.4383
_cell_angle_alpha 90.008000
_cell_angle_beta 89.699200
_cell_angle_gamma 89.827800
loop_
  _atom_site_label
  _atom_site_type_symbol
  _atom_site_fract_x
  _atom_site_fract_y
  _atom_site_fract_z
C1 C 0.28577 0.29841 0.23962
 H2 H 0.28254 0.30294 0.26444
 C3 C 0.30317 0.31825 0.22185
 H4 H 0.31320 0.33789 0.23333
 C5 C 0.27517 0.26848 0.19435
 H6 H 0.26405 0.24937 0.18347
 C7 C 0.29258 0.28758 0.17573
 H8 H 0.29503 0.28231 0.15092
 N9 N 0.27241 0.27385 0.22583
 C10 C 0.22579 0.26826 0.31037
 H11 H 0.23687 0.24831 0.32002
 C12 C 0.20932 0.28728 0.33015
 H13 H 0.20822 0.28201 0.35507
 C14 C 0.21378 0.29936 0.26620
 H15 H 0.21552 0.30368 0.24115
 C16 C 0.19708 0.31898 0.28511
 H17 H 0.18575 0.33824 0.27435
 Zn18 Zn 0.24909 0.24821 0.25203
 N19 N 0.22757 0.27450 0.27901
 C20 C 0.29399 0.23505 0.29438
 N21 N 0.27293 0.22183 0.27674
 C22 C 0.26859 0.19054 0.27718
 C23 C 0.28613 0.17124 0.29540
 C24 C 0.31186 0.21666 0.31308
 C25 C 0.19446 0.22841 0.23096
 C26 C 0.17502 0.21134 0.21298
 C27 C 0.21514 0.18492 0.18830
 C28 C 0.23383 0.20242 0.20686
 N29 N 0.22331 0.22399 0.22741
 H30 H 0.29686 0.25994 0.29411
 H31 H 0.25133 0.18043 0.26374
 H32 H 0.28223 0.14643 0.29561
 H33 H 0.32869 0.22762 0.32666
 H34 H 0.18637 0.24527 0.24768
 H35 H 0.15219 0.21565 0.21578
 H36 H 0.22393 0.16782 0.17215
 H37 H 0.25681 0.19873 0.20494
 C38 C 0.19454 0.31293 0.31754
 C39 C 0.30698 0.31284 0.18945
 C40 C 0.18530 0.18939 0.19116
 C41 C 0.30811 0.18429 0.31365
 C42 C 0.79673 0.79012 0.23388
 H43 H 0.79693 0.79209 0.25930
 C44 C 0.81609 0.80739 0.21576
 H45 H 0.83022 0.82318 0.22799
 C46 C 0.77678 0.76775 0.18806
 H47 H 0.76207 0.75156 0.17735
 C48 C 0.79557 0.78475 0.16896
 H49 H 0.79486 0.78060 0.14385
 N50 N 0.77738 0.77107 0.21988
 C51 C 0.71119 0.76182 0.29241
 H52 H 0.71127 0.73682 0.29534
 C53 C 0.69296 0.78020 0.31089
 H54 H 0.67950 0.76906 0.32842
 C55 C 0.72926 0.80642 0.26630
 H56 H 0.74311 0.81647 0.24851
 C57 C 0.71109 0.82569 0.28402
 H58 H 0.71115 0.85046 0.27950
 Zn59 Zn 0.75262 0.74811 0.24672
 N60 N 0.72914 0.77513 0.27097
 C61 C 0.77743 0.72905 0.30479
 N62 N 0.77640 0.72382 0.27322
 C63 C 0.79331 0.70182 0.25937
 C64 C 0.81136 0.68316 0.27757
 C65 C 0.79543 0.71116 0.32387
 C66 C 0.71014 0.73630 0.20175
 C67 C 0.69130 0.71858 0.18364
 C68 C 0.70758 0.67263 0.21109
 C69 C 0.72635 0.69120 0.22842
 N70 N 0.72764 0.72237 0.22314
 H71 H 0.76464 0.74739 0.31524
 H72 H 0.79245 0.69853 0.23411
 H73 H 0.82392 0.66517 0.26609
 H74 H 0.79622 0.71605 0.34887
 H75 H 0.71113 0.76123 0.19849
 H76 H 0.67830 0.73011 0.16605
 H77 H 0.70666 0.64795 0.21601
 H78 H 0.73954 0.68067 0.24639
 C79 C 0.69264 0.81266 0.30681
 C80 C 0.81577 0.80521 0.18254
 C81 C 0.68987 0.68621 0.18810
 C82 C 0.81258 0.68764 0.31035
 C83 C 0.78960 0.29730 0.73842
 H84 H 0.78850 0.30001 0.76375
 C85 C 0.80792 0.31616 0.72069
 H86 H 0.82041 0.33375 0.73262
 C87 C 0.77411 0.27128 0.69235
 H88 H 0.76137 0.25331 0.68147
 C89 C 0.79240 0.28939 0.67373
 H90 H 0.79346 0.28504 0.64863
 N91 N 0.77277 0.27579 0.72405
 C92 C 0.70612 0.26255 0.79568
 H93 H 0.70698 0.23757 0.79861
 C94 C 0.68747 0.28030 0.81436
 H95 H 0.67448 0.26873 0.83202
 C96 C 0.72249 0.30776 0.76936
 H97 H 0.73568 0.31836 0.75133
 C98 C 0.70392 0.32636 0.78725
 H99 H 0.70316 0.35111 0.78266
 Zn100 Zn 0.74888 0.25106 0.75013
 N101 N 0.72367 0.27652 0.77425
 C102 C 0.77287 0.22997 0.80824
 N103 N 0.77369 0.22767 0.77637
 C104 C 0.79353 0.20947 0.76174
 C105 C 0.81331 0.19220 0.77918
 C106 C 0.79207 0.21295 0.82674
 C107 C 0.70793 0.23784 0.70418
 C108 C 0.69021 0.21956 0.68533
 C109 C 0.70868 0.17384 0.71150
 C110 C 0.72634 0.19301 0.72960
 N111 N 0.72582 0.22437 0.72546
 H112 H 0.75735 0.24505 0.81955
 H113 H 0.79423 0.20872 0.73626
 H114 H 0.82927 0.17952 0.76578
 H115 H 0.78908 0.21472 0.85189
 H116 H 0.70770 0.26288 0.70165
 H117 H 0.67680 0.23083 0.66793
 H118 H 0.70908 0.14900 0.71561
 H119 H 0.74015 0.18282 0.74724
 C120 C 0.68629 0.31275 0.81042
 C121 C 0.80953 0.31238 0.68782
 C122 C 0.69034 0.18704 0.68885
 C123 C 0.81314 0.19332 0.81262
 C124 C 0.29233 0.79766 0.73843
 H125 H 0.29144 0.80024 0.76378
 C126 C 0.31099 0.81616 0.72068
 H127 H 0.32393 0.83336 0.73263
 C128 C 0.27612 0.77229 0.69232
 H129 H 0.26300 0.75468 0.68139
 C130 C 0.29472 0.79002 0.67370
 H131 H 0.29557 0.78574 0.64858
 N132 N 0.27490 0.77674 0.72404
 C133 C 0.20553 0.76342 0.79258
 H134 H 0.20514 0.73827 0.79327
 C135 C 0.18613 0.78054 0.81094
 H136 H 0.17101 0.76842 0.82602
 C137 C 0.22585 0.80974 0.77209
 H138 H 0.24086 0.82107 0.75641
 C139 C 0.20703 0.82776 0.79029
 H140 H 0.20792 0.85287 0.78859
 Zn141 Zn 0.25007 0.75259 0.74978
 N142 N 0.22509 0.77816 0.77394
 C143 C 0.27318 0.73216 0.80825
 N144 N 0.27363 0.72832 0.77645
 C145 C 0.29180 0.70761 0.76249
 C146 C 0.30986 0.68900 0.78071
 C147 C 0.29116 0.71427 0.82739
 C148 C 0.20940 0.74046 0.70300
 C149 C 0.19125 0.72259 0.68422
 C150 C 0.20746 0.67670 0.71183
 C151 C 0.22556 0.69542 0.72982
 N152 N 0.22647 0.72666 0.72486
 H153 H 0.25915 0.74936 0.81883
 H154 H 0.29197 0.70533 0.73710
 H155 H 0.32348 0.67203 0.76905
 H156 H 0.29078 0.71809 0.85260
 H157 H 0.21014 0.76544 0.69996
 H158 H 0.17852 0.73405 0.66635
 H159 H 0.20672 0.65198 0.71659
 H160 H 0.23845 0.68499 0.74811
 C161 C 0.18691 0.81315 0.81009
 C162 C 0.31232 0.81259 0.68777
 C163 C 0.19008 0.69019 0.68848
 C164 C 0.30976 0.69216 0.81369
 C165 C -0.00101 0.00354 -0.00067
 C166 C 0.00073 0.50148 0.50198
 C167 C 0.50301 -0.00053 0.49855
 C168 C 0.49728 0.50120 0.00144
 C169 C 0.12939 -0.13274 -0.13167
 C170 C 0.15871 -0.12504 -0.13403
 C171 C 0.17728 -0.14246 -0.15313
 C172 C 0.16702 -0.16817 -0.17004
 C173 C 0.13776 -0.17600 -0.16765
 C174 C 0.11909 -0.15835 -0.14880
 C175 C 0.10980 -0.11410 -0.11144
 N176 N 0.08077 -0.11713 -0.11353
 N177 N 0.06326 -0.10000 -0.09553
 C178 C 0.07408 -0.07927 -0.07456
 N179 N 0.10309 -0.07637 -0.07240
 N180 N 0.12057 -0.09337 -0.09047
 C181 C 0.05483 -0.05964 -0.05489
 C182 C 0.06605 -0.04249 -0.02970
 C183 C 0.04843 -0.02278 -0.01195
 C184 C 0.01912 -0.01849 -0.01963
 C185 C 0.00762 -0.03761 -0.04350
 C186 C 0.02525 -0.05756 -0.06114
 H187 H 0.16736 -0.10542 -0.12123
 H188 H 0.19979 -0.13611 -0.15431
 H189 H 0.12926 -0.19557 -0.18066
 H190 H 0.09664 -0.16493 -0.14748
 H191 H 0.08855 -0.04442 -0.02345
 H192 H 0.05808 -0.01126 0.00798
 H193 H -0.01509 -0.03653 -0.04898
 H194 H 0.01574 -0.07099 -0.07998
 C195 C 0.13969 0.37038 0.37575
 C196 C 0.14066 0.33797 0.38006
 C197 C 0.15862 0.31943 0.36137
 C198 C 0.17606 0.33283 0.33791
 C199 C 0.17530 0.36525 0.33375
 C200 C 0.15733 0.38382 0.35246
 C201 C 0.12007 0.38989 0.39512
 N202 N 0.11848 0.42115 0.39067
 N203 N 0.10044 0.43853 0.40774
 C204 C 0.08323 0.42539 0.43000
 N205 N 0.08491 0.39417 0.43451
 N206 N 0.10292 0.37680 0.41745
 C207 C 0.06272 0.44454 0.44863
 C208 C 0.04490 0.43067 0.47140
 C209 C 0.02508 0.44840 0.48854
 C210 C 0.02182 0.48062 0.48289
 C211 C 0.04093 0.49457 0.46112
 C212 C 0.06074 0.47679 0.44395
 H213 H 0.12733 0.32679 0.39771
 H214 H 0.15841 0.29448 0.36487
 H215 H 0.18876 0.37630 0.31614
 H216 H 0.15722 0.40871 0.34857
 H217 H 0.04635 0.40598 0.47623
 H218 H 0.01289 0.43655 0.50660
 H219 H 0.04016 0.51943 0.45711
 H220 H 0.07450 0.48839 0.42701
 C221 C 0.63622 -0.13009 0.36374
 C222 C 0.66338 -0.11906 0.35436
 C223 C 0.68167 -0.13756 0.33591
 C224 C 0.67308 -0.16738 0.32609
 C225 C 0.64568 -0.17811 0.33511
 C226 C 0.62758 -0.15979 0.35388
 C227 C 0.61705 -0.11092 0.38392
 N228 N 0.59485 -0.12417 0.39988
 N229 N 0.57761 -0.10707 0.41814
 C230 C 0.58172 -0.07595 0.42108
 N231 N 0.60387 -0.06265 0.40505
 N232 N 0.62125 -0.07980 0.38693
 C233 C 0.56228 -0.05702 0.44118
 C234 C 0.56099 -0.02458 0.43784
 C235 C 0.54196 -0.00698 0.45623
 C236 C 0.52335 -0.02123 0.47833
 C237 C 0.52609 -0.05370 0.48270
 C238 C 0.54483 -0.07130 0.46399
 H239 H 0.67073 -0.09634 0.36174
 H240 H 0.70276 -0.12869 0.32986
 H241 H 0.63803 -0.20061 0.32744
 H242 H 0.60666 -0.16884 0.36041
 H243 H 0.57442 -0.01278 0.42072
 H244 H 0.54143 0.01800 0.45296
 H245 H 0.51425 -0.06588 0.50081
 H246 H 0.54595 -0.09619 0.46779
 C247 C 0.63027 0.36935 -0.13151
 C248 C 0.65722 0.38056 -0.14135
 C249 C 0.67538 0.36219 -0.16003
 C250 C 0.66690 0.33229 -0.16967
 C251 C 0.63982 0.32120 -0.15997
 C252 C 0.62180 0.33944 -0.14098
 C253 C 0.61113 0.38870 -0.11145
 N254 N 0.58857 0.37577 -0.09582
 N255 N 0.57137 0.39313 -0.07775
 C256 C 0.57590 0.42418 -0.07467
 N257 N 0.59842 0.43713 -0.09036
 N258 N 0.61573 0.41974 -0.10830
 C259 C 0.55650 0.44346 -0.05485
 C260 C 0.55641 0.47598 -0.05750
 C261 C 0.53745 0.49397 -0.03943
 C262 C 0.51763 0.48007 -0.01838
 C263 C 0.51917 0.44742 -0.01461
 C264 C 0.53789 0.42945 -0.03297
 H265 H 0.66449 0.40341 -0.13425
 H266 H 0.69628 0.37130 -0.16652
 H267 H 0.63231 0.29856 -0.16738
 H268 H 0.60107 0.33021 -0.13402
 H269 H 0.57076 0.48759 -0.07385
 H270 H 0.53787 0.51901 -0.04219
 H271 H 0.50641 0.43531 0.00277
 H272 H 0.53806 0.40447 -0.02966
 C273 C -0.12788 0.14102 -0.13281
 C274 C -0.13220 0.13404 -0.16465
 C275 C -0.15169 0.15118 -0.18270
 C276 C -0.16761 0.17640 -0.16966
 C277 C -0.16264 0.18320 -0.13738
 C278 C -0.14331 0.16577 -0.11941
 C279 C -0.10772 0.12229 -0.11354
 N280 N -0.10777 0.12474 -0.08163
 N281 N -0.09015 0.10739 -0.06425
 C282 C -0.07161 0.08697 -0.07804
 N283 N -0.07141 0.08468 -0.10997
 N284 N -0.08913 0.10194 -0.12734
 C285 C -0.05270 0.06693 -0.05863
 C286 C -0.03016 0.04986 -0.07250
 C287 C -0.01310 0.02996 -0.05436
 C288 C -0.01881 0.02562 -0.02192
 C289 C -0.04040 0.04434 -0.00795
 C290 C -0.05722 0.06442 -0.02602
 H291 H -0.12094 0.11476 -0.17564
 H292 H -0.15484 0.14305 -0.20647
 H293 H -0.17242 0.20281 -0.12558
 H294 H -0.14018 0.17208 -0.09496
 H295 H -0.02551 0.05202 -0.09743
 H296 H 0.00467 0.01841 -0.06601
 H297 H -0.04464 0.04285 0.01712
 H298 H -0.07411 0.07760 -0.01442
 C299 C -0.13219 0.63042 0.36793
 C300 C -0.15896 0.64070 0.37947
 C301 C -0.17689 0.65913 0.36079
 C302 C -0.16833 0.66802 0.33026
 C303 C -0.14141 0.65791 0.31887
 C304 C -0.12364 0.63919 0.33740
 C305 C -0.11325 0.61071 0.38758
 N306 N -0.09096 0.59476 0.37442
 N307 N -0.07384 0.57711 0.39207
 C308 C -0.07819 0.57476 0.42365
 N309 N -0.10046 0.59074 0.43683
 N310 N -0.11768 0.60827 0.41915
 C311 C -0.05879 0.55555 0.44327
 C312 C -0.05839 0.55903 0.47613
 C313 C -0.03934 0.54163 0.49442
 C314 C -0.01971 0.52050 0.48047
 C315 C -0.02161 0.51583 0.44757
 C316 C -0.04043 0.53352 0.42926
 H317 H -0.16627 0.63416 0.40281
 H318 H -0.19767 0.66601 0.37015
 H319 H -0.13383 0.66477 0.29574
 H320 H -0.10302 0.63190 0.32792
 H321 H -0.07256 0.57551 0.48775
 H322 H -0.03953 0.54500 0.51971
 H323 H -0.00907 0.49825 0.43556
 H324 H -0.04087 0.52958 0.40407
 C325 C 0.36393 0.12675 0.36997
 C326 C 0.35270 0.15473 0.38210
 C327 C 0.33455 0.17334 0.36386
 C328 C 0.32704 0.16430 0.33317
 C329 C 0.33799 0.13619 0.32115
 C330 C 0.35631 0.11767 0.33930
 C331 C 0.38374 0.10736 0.38904
 N332 N 0.39764 0.08263 0.37603
 N333 N 0.41578 0.06551 0.39300
 C334 C 0.42074 0.07230 0.42375
 N335 N 0.40675 0.09696 0.43681
 N336 N 0.38867 0.11415 0.41981
 C337 C 0.44129 0.05351 0.44248
 C338 C 0.44381 0.05801 0.47511
 C339 C 0.46348 0.04059 0.49259
 C340 C 0.48208 0.01884 0.47794
 C341 C 0.47835 0.01348 0.44534
 C342 C 0.45852 0.03076 0.42792
 H343 H 0.35810 0.16244 0.40562
 H344 H 0.32617 0.19472 0.37387
 H345 H 0.33278 0.12878 0.29747
 H346 H 0.36453 0.09626 0.32922
 H347 H 0.43044 0.07489 0.48726
 H348 H 0.46455 0.04437 0.51779
 H349 H 0.49016 -0.00447 0.43299
 H350 H 0.45669 0.02617 0.40292
 C351 C 0.36516 0.63456 -0.12926
 C352 C 0.33779 0.64342 -0.11819
 C353 C 0.31983 0.66206 -0.13665
 C354 C 0.32895 0.67259 -0.16645
 C355 C 0.35652 0.66402 -0.17726
 C356 C 0.37431 0.64507 -0.15899
 C357 C 0.38404 0.61435 -0.11004
 N358 N 0.40672 0.59926 -0.12344
 N359 N 0.42375 0.58106 -0.10625
 C360 C 0.41891 0.57731 -0.07489
 N361 N 0.39627 0.59245 -0.06146
 N362 N 0.37913 0.61051 -0.07870
 C363 C 0.43817 0.55742 -0.05579
 C364 C 0.43844 0.55984 -0.02284
 C365 C 0.45737 0.54178 -0.00503
 C366 C 0.47694 0.52094 -0.01956
 C367 C 0.47521 0.51742 -0.05262
 C368 C 0.45654 0.53580 -0.07043
 H369 H 0.33003 0.63553 -0.09546
 H370 H 0.29858 0.66774 -0.12775
 H371 H 0.36456 0.67220 -0.19975
 H372 H 0.39540 0.63893 -0.16806
 H373 H 0.42430 0.57603 -0.01077
 H374 H 0.45713 0.54441 0.02035
 H375 H 0.48779 0.50027 -0.06519
 H376 H 0.45622 0.53271 -0.09575
 C377 C -0.12723 -0.14057 0.12577
 C378 C -0.11981 -0.14865 0.15671
 C379 C -0.13842 -0.16645 0.17534
 C380 C -0.16505 -0.17703 0.16352
 C381 C -0.17205 -0.16910 0.13215
 C382 C -0.15352 -0.15108 0.11371
 C383 C -0.10797 -0.12081 0.10634
 N384 N -0.11714 -0.10895 0.07847
 N385 N -0.10019 -0.09058 0.06132
 C386 C -0.07328 -0.08335 0.07120
 N387 N -0.06400 -0.09536 0.09898
 N388 N -0.08101 -0.11367 0.11620
 C389 C -0.05483 -0.06211 0.05246
 C390 C -0.02567 -0.05806 0.05983
 C391 C -0.00866 -0.03731 0.04257
 C392 C -0.02055 -0.01893 0.01828
 C393 C -0.04945 -0.02466 0.00989
 C394 C -0.06634 -0.04559 0.02693
 H395 H -0.09961 -0.14111 0.16671
 H396 H -0.13114 -0.17266 0.19866
 H397 H -0.19247 -0.17544 0.12191
 H398 H -0.16000 -0.14518 0.08997
 H399 H -0.01588 -0.07103 0.07886
 H400 H 0.01387 -0.03514 0.04854
 H401 H -0.05924 -0.01347 -0.01018
 H402 H -0.08854 -0.04873 0.02005
 C403 C -0.13410 0.37015 0.63190
 C404 C -0.16069 0.36037 0.61990
 C405 C -0.17900 0.34175 0.63804
 C406 C -0.17098 0.33215 0.66845
 C407 C -0.14420 0.34174 0.68027
 C408 C -0.12608 0.36067 0.66229
 C409 C -0.11479 0.39012 0.61287
 N410 N -0.09297 0.40595 0.62666
 N411 N -0.07554 0.42387 0.60958
 C412 C -0.07909 0.42658 0.57795
 N413 N -0.10089 0.41072 0.56413
 N414 N -0.11844 0.39294 0.58125
 C415 C -0.05938 0.44611 0.55895
 C416 C -0.05782 0.44269 0.52612
 C417 C -0.03855 0.46047 0.50840
 C418 C -0.01992 0.48202 0.52292
 C419 C -0.02289 0.48648 0.55578
 C420 C -0.04191 0.46839 0.57352
 H421 H -0.16758 0.36747 0.59665
 H422 H -0.19964 0.33529 0.62836
 H423 H -0.13702 0.33431 0.70330
 H424 H -0.10560 0.36755 0.67210
 H425 H -0.07124 0.42597 0.51409
 H426 H -0.03781 0.45712 0.48311
 H427 H -0.01103 0.50418 0.56816
 H428 H -0.04323 0.47221 0.59871
 C429 C 0.36896 -0.13037 0.63127
 C430 C 0.37713 -0.13997 0.66159
 C431 C 0.35891 -0.15863 0.67979
 C432 C 0.33190 -0.16782 0.66828
 C433 C 0.32371 -0.15802 0.63798
 C434 C 0.34209 -0.13969 0.61963
 C435 C 0.38835 -0.11078 0.61191
 N436 N 0.38424 -0.10782 0.58038
 N437 N 0.40180 -0.09036 0.56293
 C438 C 0.42409 -0.07495 0.57632
 N439 N 0.42814 -0.07781 0.60786
 N440 N 0.41068 -0.09542 0.62528
 C441 C 0.44374 -0.05569 0.55692
 C442 C 0.46186 -0.03379 0.57112
 C443 C 0.48067 -0.01582 0.55295
 C444 C 0.48279 -0.02006 0.51997
 C445 C 0.46354 -0.04124 0.50588
 C446 C 0.44449 -0.05888 0.52404
 H447 H 0.39780 -0.13342 0.67114
 H448 H 0.36621 -0.16618 0.70273
 H449 H 0.30288 -0.16412 0.62854
 H450 H 0.33505 -0.13247 0.59647
 H451 H 0.46119 -0.03012 0.59636
 H452 H 0.49300 0.00165 0.56511
 H453 H 0.46356 -0.04439 0.48056
 H454 H 0.43055 -0.07529 0.51227
 C455 C 0.36217 0.37180 0.13335
 C456 C 0.36920 0.36466 0.16470
 C457 C 0.35135 0.34556 0.18282
 C458 C 0.32587 0.33333 0.17015
 C459 C 0.31873 0.34070 0.13884
 C460 C 0.33673 0.35959 0.12063
 C461 C 0.38137 0.39168 0.11404
 N462 N 0.37801 0.39369 0.08232
 N463 N 0.39555 0.41124 0.06494
 C464 C 0.41711 0.42764 0.07857
 N465 N 0.42038 0.42572 0.11030
 N466 N 0.40293 0.40808 0.12765
 C467 C 0.43692 0.44684 0.05928
 C468 C 0.45551 0.46814 0.07368
 C469 C 0.47466 0.48583 0.05568
 C470 C 0.47659 0.48199 0.02265
 C471 C 0.45681 0.46153 0.00834
 C472 C 0.43748 0.44408 0.02634
 H473 H 0.38874 0.37349 0.17518
 H474 H 0.35779 0.33995 0.20663
 H475 H 0.29905 0.33216 0.12848
 H476 H 0.33057 0.36482 0.09663
 H477 H 0.45504 0.47150 0.09896
 H478 H 0.48743 0.50275 0.06808
 H479 H 0.45670 0.45875 -0.01703
 H480 H 0.42318 0.42817 0.01440
 C481 C 0.12596 0.13797 0.13345
 C482 C 0.15159 0.14988 0.12053
 C483 C 0.17090 0.16636 0.13929
 C484 C 0.16498 0.17146 0.17137
 C485 C 0.13937 0.15961 0.18432
 C486 C 0.12010 0.14300 0.16560
 C487 C 0.10562 0.12022 0.11357
 N488 N 0.08202 0.10648 0.12640
 N489 N 0.06409 0.09002 0.10860
 C490 C 0.06894 0.08669 0.07718
 N491 N 0.09244 0.10059 0.06434
 N492 N 0.11039 0.11699 0.08214
 C493 C 0.04970 0.06734 0.05751
 C494 C 0.05433 0.06491 0.02490
 C495 C 0.03751 0.04509 0.00668
 C496 C 0.01617 0.02613 0.02056
 C497 C 0.01008 0.03069 0.05289
 C498 C 0.02689 0.05063 0.07114
 H499 H 0.15681 0.14645 0.09588
 H500 H 0.19029 0.17554 0.12857
 H501 H 0.13438 0.16288 0.20905
 H502 H 0.10062 0.13411 0.17636
 H503 H 0.07121 0.07807 0.01340
 H504 H 0.04180 0.04370 -0.01839
 H505 H -0.00770 0.01913 0.06438
 H506 H 0.02210 0.05272 0.09605
 C507 C 0.13393 0.63354 0.63175
 C508 C 0.16083 0.62213 0.64142
 C509 C 0.17908 0.64053 0.65962
 C510 C 0.17073 0.67066 0.66892
 C511 C 0.14370 0.68194 0.65938
 C512 C 0.12561 0.66368 0.64086
 C513 C 0.11465 0.61417 0.61228
 N514 N 0.09236 0.62724 0.59645
 N515 N 0.07498 0.60985 0.57894
 C516 C 0.07907 0.57863 0.57666
 N517 N 0.10132 0.56554 0.59255
 N518 N 0.11880 0.58296 0.60992
 C519 C 0.05953 0.55933 0.55742
 C520 C 0.05873 0.52694 0.56121
 C521 C 0.03979 0.50893 0.54351
 C522 C 0.02072 0.52269 0.52170
 C523 C 0.02290 0.55515 0.51691
 C524 C 0.04158 0.57318 0.53492
 H525 H 0.16797 0.59909 0.63457
 H526 H 0.19993 0.63126 0.66603
 H527 H 0.13628 0.70476 0.66659
 H528 H 0.10491 0.67306 0.63403
 H529 H 0.07254 0.51547 0.57811
 H530 H 0.03972 0.48398 0.54707
 H531 H 0.01074 0.56701 0.49893
 H532 H 0.04232 0.59802 0.53078
 C533 C 0.63559 0.12984 0.63090
 C534 C 0.66282 0.11907 0.64019
 C535 C 0.68059 0.13757 0.65892
 C536 C 0.67139 0.16714 0.66913
 C537 C 0.64394 0.17765 0.66012
 C538 C 0.62636 0.15933 0.64108
 C539 C 0.61688 0.11058 0.61061
 N540 N 0.59450 0.12364 0.59493
 N541 N 0.57758 0.10642 0.57672
 C542 C 0.58223 0.07538 0.57354
 N543 N 0.60459 0.06228 0.58926
 N544 N 0.62163 0.07955 0.60733
 C545 C 0.56298 0.05627 0.55372
 C546 C 0.56227 0.02381 0.55689
 C547 C 0.54314 0.00608 0.53908
 C548 C 0.52375 0.02025 0.51786
 C549 C 0.52614 0.05272 0.51335
 C550 C 0.54499 0.07045 0.53147
 H551 H 0.67063 0.09652 0.63256
 H552 H 0.70175 0.12888 0.66492
 H553 H 0.63582 0.19995 0.66806
 H554 H 0.60536 0.16818 0.63462
 H555 H 0.57618 0.01207 0.57350
 H556 H 0.54303 -0.01891 0.54226
 H557 H 0.51391 0.06485 0.49561
 H558 H 0.54572 0.09535 0.52770
 C559 C 0.63257 0.63015 0.13206
 C560 C 0.65945 0.61843 0.14143
 C561 C 0.67803 0.63660 0.15950
 C562 C 0.67003 0.66680 0.16896
 C563 C 0.64298 0.67834 0.15982
 C564 C 0.62456 0.66031 0.14145
 C565 C 0.61303 0.61113 0.11250
 N566 N 0.59062 0.62453 0.09717
 N567 N 0.57307 0.60752 0.07948
 C568 C 0.57710 0.57635 0.07648
 N569 N 0.59948 0.56291 0.09188
 N570 N 0.61713 0.57997 0.10944
 C571 C 0.55736 0.55751 0.05700
 C572 C 0.55670 0.52500 0.05979
 C573 C 0.53744 0.50746 0.04198
 C574 C 0.51791 0.52183 0.02106
 C575 C 0.51998 0.55441 0.01720
 C576 C 0.53899 0.57194 0.03530
 H577 H 0.66636 0.59537 0.13439
 H578 H 0.69887 0.62713 0.16561
 H579 H 0.63582 0.70121 0.16716
 H580 H 0.60388 0.66992 0.13487
 H581 H 0.57084 0.51308 0.07603
 H582 H 0.53743 0.48243 0.04482
 H583 H 0.50743 0.56682 -0.00007
 H584 H 0.53958 0.59690 0.03190
   
