data_POSCAR
  _audit_creation_date              2014-09-24
  _audit_creation_method            'ToBaCCo'
  _symmetry_space_group_name_H-M    'P1'
  _symmetry_Int_Tables_number       1
  _symmetry_cell_setting            triclinic
  loop_
  _symmetry_equiv_pos_as_xyz
 x,y,z
_cell_length_a 21.3996
_cell_length_b 21.3283
_cell_length_c 21.3736
_cell_angle_alpha 66.036000
_cell_angle_beta 65.403500
_cell_angle_gamma 115.027500
loop_
  _atom_site_label
  _atom_site_type_symbol
  _atom_site_fract_x
  _atom_site_fract_y
  _atom_site_fract_z
O1 O 0.53027 0.45380 0.06619
 O2 O 0.35387 0.42536 0.05581
 O3 O 0.42595 0.35265 0.05227
 O4 O 0.45930 0.52845 0.06710
 O5 O 0.58091 0.64989 -0.09307
 O6 O 0.54689 0.47431 -0.10792
 O7 O 0.47480 0.54715 -0.10430
 O8 O 0.65139 0.57537 -0.09395
 Cu9 Cu 0.43048 0.42800 0.07646
 Cu10 Cu 0.57561 0.57371 -0.11588
 C11 C 0.62053 0.51829 -0.01196
 C12 C 0.38455 0.48264 -0.02613
 C13 C 0.48165 0.38397 -0.03069
 C14 C 0.52442 0.61881 -0.01053
 O15 O -0.07979 0.53373 0.54339
 O16 O -0.06319 0.36108 0.57001
 O17 O -0.06642 0.43252 0.64481
 O18 O -0.07804 0.46141 0.46941
 O19 O 0.08328 0.58397 0.34898
 O20 O 0.09470 0.55690 0.52426
 O21 O 0.09809 0.48403 0.45029
 O22 O 0.08132 0.65684 0.42166
 Cu23 Cu -0.08805 0.43484 0.56890
 Cu24 Cu 0.10556 0.58248 0.42442
 C25 C -0.00200 0.62461 0.47893
 C26 C 0.02048 0.39353 0.51352
 C27 C 0.01595 0.49149 0.61408
 C28 C 0.00058 0.52655 0.37959
 O29 O 0.54417 0.10418 0.51871
 O30 O 0.57282 0.09210 0.34281
 O31 O 0.47210 0.10684 0.44524
 O32 O 0.64571 0.09146 0.41499
 O33 O 0.52291 -0.06954 0.53574
 O34 O 0.34911 -0.05418 0.56535
 O35 O 0.44990 -0.06887 0.46303
 O36 O 0.42104 -0.05677 0.63882
 Cu37 Cu 0.57080 0.11480 0.41847
 Cu38 Cu 0.42350 -0.07848 0.56254
 C39 C 0.47916 0.02588 0.60841
 C40 C 0.51532 0.00943 0.37326
 C41 C 0.38142 0.02924 0.50932
 C42 C 0.61364 0.00843 0.47154
 O43 O 0.42514 -0.04789 -0.03656
 O44 O 0.44111 -0.07130 0.13536
 O45 O 0.42379 0.02593 0.03606
 O46 O 0.44362 -0.14457 0.06285
 O47 O 0.60461 -0.02016 -0.05963
 O48 O 0.58479 0.15023 -0.08684
 O49 O 0.60211 0.05327 0.01297
 O50 O 0.58610 0.07657 -0.15892
 Cu51 Cu 0.41721 -0.07191 0.06147
 Cu52 Cu 0.61058 0.07728 -0.08537
 C53 C 0.50287 0.01759 -0.12684
 C54 C 0.52441 -0.01183 0.10311
 C55 C 0.50108 0.11693 -0.02878
 C56 C 0.52767 -0.11114 0.00550
 O57 O -0.01929 0.60280 0.94452
 O58 O 0.15213 0.58736 0.92357
 O59 O 0.08116 0.58291 0.84997
 O60 O 0.05083 0.60535 1.01995
 O61 O -0.07343 0.44480 1.14369
 O62 O -0.04239 0.42226 0.97392
 O63 O 0.02830 0.42679 1.04803
 O64 O -0.14311 0.44219 1.06809
 Cu65 Cu 0.07834 0.61075 0.92232
 Cu66 Cu -0.07014 0.41787 1.07086
 C67 C -0.11001 0.52530 1.00872
 C68 C 0.11928 0.50450 0.98288
 C69 C 0.02397 0.49845 0.88332
 C70 C -0.01531 0.52897 1.11048
 O71 O 0.04515 -0.01715 0.39178
 O72 O 0.07344 0.15699 0.40767
 O73 O 0.14592 0.08442 0.40753
 O74 O -0.02690 0.05590 0.39094
 O75 O -0.15035 -0.06648 0.55086
 O76 O 0.02261 -0.03864 0.56743
 O77 O -0.05003 0.03458 0.56758
 O78 O -0.07866 -0.13967 0.55168
 Cu79 Cu 0.07158 0.08222 0.38348
 Cu80 Cu -0.07632 -0.06459 0.57548
 C81 C -0.02051 -0.10770 0.46884
 C82 C 0.01546 0.12518 0.49038
 C83 C 0.11346 0.02641 0.49022
 C84 C -0.11769 -0.00917 0.46780
 C85 C -0.30937 0.52576 0.99111
 C86 C -0.33883 0.45791 1.07285
 C87 C -0.27236 0.45476 1.07588
 C88 C -0.17579 0.53314 1.01068
 H89 H -0.41635 0.39631 1.13924
 H90 H -0.30526 0.38397 1.13443
 H91 H -0.23290 0.58421 0.92277
 H92 H -0.14273 0.60512 0.95487
 C93 C 0.32038 0.47836 0.96832
 C94 C 0.22442 0.41446 1.04738
 C95 C 0.15794 0.41768 1.04452
 C96 C 0.18824 0.50016 0.97661
 H97 H 0.19212 0.35747 1.11835
 H98 H 0.08024 0.35138 1.10608
 H99 H 0.35117 0.53142 0.89692
 H100 H 0.26509 0.56841 0.91826
 C101 C -0.00621 -0.30958 0.47197
 C102 C -0.08990 -0.33811 0.53568
 C103 C -0.09259 -0.27116 0.53865
 C104 C -0.02503 -0.17457 0.46087
 H105 H -0.15813 -0.41507 0.59492
 H106 H -0.15211 -0.30341 0.60876
 H107 H 0.06271 -0.23341 0.41651
 H108 H 0.03148 -0.14233 0.38947
 C109 C 0.02890 0.32733 0.51710
 C110 C -0.04974 0.23118 0.58072
 C111 C -0.04605 0.16489 0.57716
 C112 C 0.02300 0.19472 0.49518
 H113 H -0.12133 0.19868 0.63774
 H114 H -0.10854 0.08735 0.64274
 H115 H 0.10143 0.35985 0.46295
 H116 H 0.08235 0.27138 0.42753
 C117 C 0.47541 0.03206 -0.32775
 C118 C 0.41128 -0.04711 -0.23242
 C119 C 0.41512 -0.04390 -0.16617
 C120 C 0.49808 0.02442 -0.19582
 H121 H 0.35361 -0.11862 -0.20043
 H122 H 0.34878 -0.10587 -0.08908
 H123 H 0.52928 0.10402 -0.35830
 H124 H 0.56634 0.08320 -0.27210
 C125 C 0.52346 0.00579 0.30319
 C126 C 0.45584 -0.07677 0.33179
 C127 C 0.45323 -0.08006 0.26508
 C128 C 0.53208 -0.01447 0.16930
 H129 H 0.39387 -0.14352 0.40866
 H130 H 0.38231 -0.13886 0.29703
 H131 H 0.58227 0.07441 0.22730
 H132 H 0.60414 0.04160 0.13721
 C133 C 0.53273 -0.31115 -0.00654
 C134 C 0.46387 -0.34035 0.07498
 C135 C 0.45951 -0.27381 0.07702
 C136 C 0.53727 -0.17696 0.01063
 H137 H 0.40172 -0.41772 0.14114
 H138 H 0.38801 -0.30666 0.13477
 H139 H 0.59171 -0.23484 -0.07478
 H140 H 0.60994 -0.14371 -0.04437
 C141 C 0.47494 0.31676 -0.03899
 C142 C 0.41044 0.22086 0.03900
 C143 C 0.41317 0.15466 0.03444
 C144 C 0.49548 0.18536 -0.03535
 H145 H 0.35434 0.18896 0.11041
 H146 H 0.34743 0.07698 0.09669
 H147 H 0.52800 0.34856 -0.11122
 H148 H 0.56347 0.26227 -0.09439
 C149 C -0.31695 0.00429 0.46409
 C150 C -0.34695 -0.07760 0.53269
 C151 C -0.28056 -0.07984 0.53678
 C152 C -0.18398 -0.01416 0.45914
 H153 H -0.42462 -0.14392 0.59446
 H154 H -0.31324 -0.13730 0.60776
 H155 H -0.24023 0.07275 0.40551
 H156 H -0.15113 0.04045 0.38710
 C157 C 0.31494 0.03758 0.51448
 C158 C 0.21858 -0.04079 0.57849
 C159 C 0.15230 -0.03659 0.57604
 C160 C 0.18258 0.03331 0.49479
 H161 H 0.18602 -0.11240 0.63469
 H162 H 0.07455 -0.09922 0.64150
 H163 H 0.34754 0.11010 0.46118
 H164 H 0.25945 0.09281 0.42709
 C165 C -0.00263 0.53407 1.30967
 C166 C -0.08513 0.46622 1.33846
 C167 C -0.08737 0.46162 1.27222
 C168 C -0.02053 0.53915 1.17609
 H169 H -0.15232 0.40504 1.41531
 H170 H -0.14577 0.39014 1.30471
 H171 H 0.06640 0.59206 1.23387
 H172 H 0.03512 0.61175 1.14334
 C173 C 0.01824 0.48579 0.68390
 C174 C 0.09857 0.55745 0.65507
 C175 C 0.09833 0.56397 0.72144
 C176 C 0.03092 0.48727 0.81788
 H177 H 0.16526 0.61992 0.57813
 H178 H 0.15531 0.63616 0.68872
 H179 H -0.05077 0.42615 0.75976
 H180 H -0.02340 0.41403 0.85114
   
