data_POSCAR
  _audit_creation_date              2014-09-24
  _audit_creation_method            'ToBaCCo'
  _symmetry_space_group_name_H-M    'P1'
  _symmetry_Int_Tables_number       1
  _symmetry_cell_setting            triclinic
  loop_
  _symmetry_equiv_pos_as_xyz
 x,y,z
_cell_length_a 22.1676
_cell_length_b 23.5198
_cell_length_c 6.8751
_cell_angle_alpha 91.176300
_cell_angle_beta 87.371600
_cell_angle_gamma 90.387600
loop_
  _atom_site_label
  _atom_site_type_symbol
  _atom_site_fract_x
  _atom_site_fract_y
  _atom_site_fract_z
O1 O 0.31762 0.28813 0.46991
 O2 O 0.19584 0.18907 0.33942
 O3 O 0.31369 0.18682 0.31395
 O4 O 0.19986 0.29200 0.49170
 O5 O 0.19826 0.32705 0.19712
 O6 O 0.31104 0.22049 0.01755
 O7 O 0.19395 0.22321 0.04337
 O8 O 0.31732 0.32131 0.17202
 Cu9 Cu 0.25638 0.23532 0.43176
 Cu10 Cu 0.25470 0.27715 0.07981
 C11 C 0.33900 0.32104 0.33974
 C12 C 0.17480 0.18834 0.17088
 C13 C 0.33163 0.18546 0.13588
 C14 C 0.18030 0.32806 0.37516
 O15 O 0.69229 0.31936 0.32478
 O16 O 0.81502 0.25054 0.03204
 O17 O 0.69862 0.23483 0.07205
 O18 O 0.80854 0.33409 0.27424
 O19 O 0.82216 0.27710 0.51982
 O20 O 0.71118 0.17776 0.31827
 O21 O 0.82803 0.19051 0.26981
 O22 O 0.70671 0.26043 0.56463
 Cu23 Cu 0.75190 0.29062 0.15141
 Cu24 Cu 0.76895 0.22029 0.44199
 C25 C 0.67853 0.30138 0.49413
 C26 C 0.84258 0.20915 0.10214
 C27 C 0.68552 0.18975 0.16319
 C28 C 0.83432 0.32268 0.42953
 O29 O 0.68935 0.79483 0.57360
 O30 O 0.80074 0.68714 0.69534
 O31 O 0.68483 0.69353 0.71824
 O32 O 0.80677 0.78822 0.53603
 O33 O 0.81382 0.82755 0.82773
 O34 O 0.69450 0.72898 1.01475
 O35 O 0.81213 0.72585 0.98643
 O36 O 0.69558 0.83021 0.87183
 Cu37 Cu 0.74549 0.73734 0.60207
 Cu38 Cu 0.75492 0.78233 0.95302
 C39 C 0.67249 0.83035 0.70636
 C40 C 0.82400 0.68673 0.86069
 C41 C 0.66972 0.69427 0.89839
 C42 C 0.82988 0.82512 0.64793
 O43 O 0.30318 0.81316 0.70160
 O44 O 0.17913 0.71919 0.89066
 O45 O 0.29733 0.72756 0.92416
 O46 O 0.18615 0.82260 0.74441
 O47 O 0.18939 0.77824 0.45794
 O48 O 0.29782 0.67691 0.64956
 O49 O 0.18223 0.67516 0.60375
 O50 O 0.30783 0.76125 0.42954
 Cu51 Cu 0.24006 0.77460 0.84080
 Cu52 Cu 0.24316 0.71905 0.50806
 C53 C 0.32819 0.80076 0.53546
 C54 C 0.15948 0.68111 0.77457
 C55 C 0.31725 0.68654 0.81899
 C56 C 0.16904 0.81774 0.57207
 C57 C 1.04097 0.06074 -0.18406
 C58 C 0.97935 0.07061 -0.20962
 C59 C 0.94463 0.02941 -0.30422
 C60 C 0.97180 -0.01950 -0.38804
 C61 C 1.03537 -0.02512 -0.38661
 C62 C 1.06895 0.01418 -0.27855
 H63 H 1.11655 0.00688 -0.25942
 H64 H 0.89630 0.03519 -0.31139
 C65 C 0.52956 0.53499 0.89973
 C66 C 0.46883 0.53996 0.84811
 C67 C 0.44289 0.49696 0.73413
 C68 C 0.47550 0.44834 0.67738
 C69 C 0.53378 0.44113 0.74489
 C70 C 0.56078 0.48471 0.85265
 H71 H 0.60688 0.47998 0.89611
 H72 H 0.39749 0.50199 0.68470
 C73 C -0.03002 0.47959 0.41364
 C74 C 0.03363 0.48285 0.38430
 C75 C 0.05861 0.52482 0.26183
 C76 C 0.02158 0.56062 0.15847
 C77 C -0.04179 0.55728 0.18828
 C78 C -0.06642 0.51849 0.32143
 H79 H -0.11519 0.51410 0.33606
 H80 H 0.10709 0.52599 0.23241
 C81 C 0.47589 0.94517 0.33752
 C82 C 0.53665 0.95564 0.37782
 C83 C 0.56679 1.00179 0.29366
 C84 C 0.53651 1.03983 0.17818
 C85 C 0.47366 1.03300 0.15546
 C86 C 0.44420 0.98490 0.23282
 H87 H 0.39661 0.97813 0.20977
 H88 H 0.61385 1.00918 0.32380
 C89 C 1.12809 0.14599 0.12560
 C90 C 1.09541 0.11640 0.26656
 C91 C 1.05867 0.08082 0.16737
 C92 C 1.07209 0.09083 -0.02666
 O93 O 1.11419 0.13049 -0.05356
 H94 H 1.09803 0.12045 0.42310
 H95 H 1.02605 0.05089 0.22844
 C96 C 0.62467 0.65275 0.97207
 C97 C 0.61225 0.64143 1.16616
 C98 C 0.57373 0.59581 1.16678
 C99 C 0.56435 0.58387 0.97338
 O100 O 0.59587 0.61765 0.85513
 H101 H 0.63083 0.66237 1.29169
 H102 H 0.55562 0.57326 1.29235
 C103 C -0.12275 0.36073 0.49550
 C104 C -0.09663 0.36026 0.67356
 C105 C -0.05687 0.40506 0.67096
 C106 C -0.06156 0.42880 0.49029
 O107 O -0.10215 0.40250 0.38615
 H108 H -0.10768 0.33267 0.79370
 H109 H -0.03048 0.41990 0.79012
 C110 C 0.38391 0.82886 0.46801
 C111 C 0.43287 0.79891 0.39105
 C112 C 0.47448 0.83892 0.33896
 C113 C 0.44749 0.89032 0.38656
 O114 O 0.39213 0.88456 0.46458
 H115 H 0.43740 0.75326 0.37440
 H116 H 0.51856 0.83173 0.26880
 C117 C -0.13845 0.63776 -0.09304
 C118 C -0.14119 0.58677 -0.19519
 C119 C -0.10623 0.55049 -0.09985
 C120 C -0.08317 0.58211 0.05050
 O121 O -0.10323 0.63521 0.05780
 H122 H -0.16742 0.57673 -0.32050
 H123 H -0.09811 0.50616 -0.13543
 C124 C 0.37403 1.14482 0.07141
 C125 C 0.39283 1.13482 -0.12061
 C126 C 0.43258 1.09071 -0.11675
 C127 C 0.43631 1.07825 0.07742
 O128 O 0.40008 1.11024 0.19133
 H129 H 0.37811 1.15599 -0.24832
 H130 H 0.45490 1.06943 -0.24079
 C131 C 1.12745 -0.14335 -0.48780
 C132 C 1.10688 -0.13886 -0.67318
 C133 C 1.06865 -0.09342 -0.66229
 C134 C 1.06754 -0.07514 -0.46996
 O135 O 1.10400 -0.10466 -0.36559
 H136 H 1.11965 -0.16417 -0.80153
 H137 H 1.04684 -0.07446 -0.78213
 C138 C 0.62933 0.32811 0.61086
 C139 C 0.60241 0.30471 0.77558
 C140 C 0.56112 0.34352 0.84341
 C141 C 0.56603 0.38747 0.71462
 O142 O 0.60745 0.37861 0.57334
 H143 H 0.61230 0.26464 0.84016
 H144 H 0.53232 0.34097 0.97414
 C145 C 0.87185 -0.13572 -0.42883
 C146 C 0.88730 -0.13081 -0.62492
 C147 C 0.92562 -0.08532 -0.63761
 C148 C 0.93241 -0.06699 -0.44831
 O149 O 0.89907 -0.09679 -0.32142
 H150 H 0.87136 -0.15625 -0.74513
 H151 H 0.94509 -0.06710 -0.76935
 C152 C 0.39019 0.35870 0.38044
 C153 C 0.43013 0.37890 0.23811
 C154 C 0.47000 0.41214 0.33424
 C155 C 0.45093 0.41024 0.52763
 O156 O 0.40221 0.37812 0.55670
 H157 H 0.42955 0.37091 0.08260
 H158 H 0.50681 0.43705 0.27051
 C159 C 0.10946 0.64316 -0.16785
 C160 C 0.07668 0.61348 -0.30237
 C161 C 0.03807 0.58025 -0.19647
 C162 C 0.04954 0.59243 -0.00476
 O163 O 0.09363 0.63020 0.01387
 H164 H 0.08169 0.61490 -0.45948
 H165 H 0.00738 0.54880 -0.25270
 C166 C 0.63867 1.15134 0.09459
 C167 C 0.62081 1.14591 -0.09431
 C168 C 0.57760 1.10422 -0.08937
 C169 C 0.57181 1.08847 0.10296
 O170 O 0.60967 1.11626 0.21330
 H171 H 0.63922 1.16743 -0.22152
 H172 H 0.55639 1.08512 -0.21319
 C173 C 0.13714 0.37204 0.44792
 C174 C 0.12557 0.38551 0.64232
 C175 C 0.08558 0.42943 0.64535
 C176 C 0.07442 0.43860 0.45297
 O177 O 0.10661 0.40463 0.33248
 H178 H 0.14518 0.36659 0.76672
 H179 H 0.06781 0.45275 0.77232
 C180 C 0.62516 0.87184 0.67115
 C181 C 0.59098 0.89878 0.81806
 C182 C 0.55235 0.93271 0.72590
 C183 C 0.56629 0.92434 0.53011
 O184 O 0.61050 0.88744 0.49549
 H185 H 0.59370 0.89392 0.97367
 H186 H 0.51864 0.96089 0.79271
 C187 C 0.89331 0.18400 -0.01060
 C188 C 0.93952 0.21561 -0.09528
 C189 C 0.97779 0.17698 -0.18174
 C190 C 0.95193 0.12472 -0.14282
 O191 O 0.90050 0.12865 -0.03849
 H192 H 0.94583 0.26112 -0.08811
 H193 H 1.01981 0.18565 -0.26244
 C194 C 0.36422 0.65075 0.89341
 C195 C 0.38533 0.65576 1.07850
 C196 C 0.42866 0.61537 1.08660
 C197 C 0.43139 0.58952 0.90445
 O198 O 0.39170 0.61044 0.78783
 H199 H 0.37008 0.68460 1.19466
 H200 H 0.45303 0.60456 1.21300
   
