data_POSCAR
  _audit_creation_date              2014-09-24
  _audit_creation_method            'ToBaCCo'
  _symmetry_space_group_name_H-M    'P1'
  _symmetry_Int_Tables_number       1
  _symmetry_cell_setting            triclinic
  loop_
  _symmetry_equiv_pos_as_xyz
 x,y,z
_cell_length_a 37.2856
_cell_length_b 37.3250
_cell_length_c 37.4773
_cell_angle_alpha 90.005100
_cell_angle_beta 90.339600
_cell_angle_gamma 90.373200
loop_
  _atom_site_label
  _atom_site_type_symbol
  _atom_site_fract_x
  _atom_site_fract_y
  _atom_site_fract_z
N1 N 0.28074 0.28220 0.25700
 N2 N 0.70355 -0.29765 0.28608
 N3 N 0.78935 0.21940 0.76951
 N4 N 0.22222 -0.20671 0.76758
 N5 N 0.78015 -0.22102 0.79165
 N6 N 0.28709 0.29127 0.69812
 N7 N 0.26455 -0.28357 0.27297
 N8 N 0.71203 0.25846 0.27369
 O9 O 0.23220 0.04068 0.44456
 O10 O 0.22542 -0.02383 0.51841
 O11 O 0.23069 0.04556 0.51364
 O12 O 0.22777 -0.02914 0.44913
 O13 O 0.28677 -0.03242 0.45145
 O14 O 0.28966 0.04164 0.51595
 O15 O 0.28439 -0.02761 0.52076
 O16 O 0.29120 0.03734 0.44693
 Cu17 Cu 0.22310 0.00860 0.48111
 Cu18 Cu 0.29391 0.00428 0.48389
 C19 C 0.26284 0.05050 0.43343
 C20 C 0.25368 -0.03664 0.53238
 C21 C 0.26077 0.05641 0.52577
 C22 C 0.25686 -0.04367 0.43939
 O23 O 0.77893 0.02190 0.53109
 O24 O 0.76808 -0.05135 0.46602
 O25 O 0.76919 0.01863 0.46235
 O26 O 0.77761 -0.04741 0.53490
 O27 O 0.71902 -0.04631 0.54260
 O28 O 0.71063 0.01963 0.47010
 O29 O 0.70951 -0.05029 0.47377
 O30 O 0.72035 0.02298 0.53885
 Cu31 Cu 0.77930 -0.01470 0.49765
 Cu32 Cu 0.70898 -0.01342 0.50693
 C33 C 0.75154 0.03478 0.54636
 C34 C 0.73695 -0.06354 0.45892
 C35 C 0.73848 0.03071 0.45404
 C36 C 0.74979 -0.05786 0.55145
 O37 O 0.46417 0.23118 0.01429
 O38 O 0.53823 0.22328 -0.04962
 O39 O 0.53321 0.22468 0.01966
 O40 O 0.46888 0.23060 -0.05529
 O41 O 0.47523 0.28938 -0.05543
 O42 O 0.53954 0.28348 0.01891
 O43 O 0.54454 0.28207 -0.05019
 O44 O 0.47055 0.28997 0.01405
 Cu45 Cu 0.50043 0.22154 -0.01782
 Cu46 Cu 0.50802 0.29211 -0.01832
 C47 C 0.45502 0.26188 0.02554
 C48 C 0.55423 0.25126 -0.06070
 C49 C 0.54725 0.25318 0.03222
 C50 C 0.46111 0.26108 -0.06821
 O51 O 0.52551 0.77272 0.04093
 O52 O 0.45913 0.78449 -0.03116
 O53 O 0.45615 0.77482 0.03759
 O54 O 0.52915 0.78219 -0.02773
 O55 O 0.52731 0.72370 -0.03595
 O56 O 0.45426 0.71632 0.02939
 O57 O 0.45722 0.72600 -0.03939
 O58 O 0.52365 0.71421 0.03274
 Cu59 Cu 0.49266 0.78444 0.00555
 Cu60 Cu 0.49041 0.71422 -0.00431
 C61 C 0.53571 0.74142 0.04941
 C62 C 0.44656 0.75726 -0.04742
 C63 C 0.44297 0.74425 0.04498
 C64 C 0.54100 0.75418 -0.04275
 O65 O 0.02355 0.45526 0.22885
 O66 O -0.04914 0.52153 0.23354
 O67 O 0.02083 0.52474 0.23135
 O68 O -0.04652 0.45195 0.23136
 O69 O -0.04394 0.45010 0.29014
 O70 O 0.02302 0.52280 0.29015
 O71 O -0.04672 0.51953 0.29232
 O72 O 0.02589 0.45344 0.28763
 Cu73 Cu -0.01308 0.48853 0.22537
 Cu74 Cu -0.01021 0.48625 0.29593
 C75 C 0.03742 0.44328 0.25747
 C76 C -0.06052 0.53172 0.26376
 C77 C 0.03364 0.53605 0.26080
 C78 C -0.05697 0.43877 0.26082
 O79 O 0.04175 0.54089 0.77931
 O80 O -0.02355 0.46678 0.78015
 O81 O 0.04576 0.47170 0.77297
 O82 O -0.02732 0.53639 0.78567
 O83 O -0.03383 0.54078 0.72731
 O84 O 0.03933 0.47650 0.71463
 O85 O -0.02999 0.47108 0.72178
 O86 O 0.03531 0.54584 0.72097
 Cu87 Cu 0.00972 0.50338 0.78536
 Cu88 Cu 0.00199 0.50893 0.71532
 C89 C 0.04961 0.55623 0.75011
 C90 C -0.03784 0.45606 0.75119
 C91 C 0.05519 0.46318 0.74158
 C92 C -0.04279 0.54999 0.75863
 C93 C 0.38564 0.23639 0.09477
 C94 C 0.37713 0.26989 0.10907
 C95 C 0.39274 0.30092 0.09486
 C96 C 0.41737 0.29844 0.06698
 C97 C 0.29886 0.27917 0.22493
 C98 C 0.41026 0.23384 0.06690
 C99 C 0.35407 0.27226 0.13963
 C100 C 0.33571 0.27428 0.16592
 C101 C 0.31533 0.27679 0.19743
 C102 C 0.42679 0.26481 0.05301
 H103 H 0.37382 0.21219 0.10565
 H104 H 0.38645 0.32698 0.10582
 H105 H 0.42961 0.32279 0.05693
 H106 H 0.41691 0.20755 0.05677
 C107 C 0.59730 0.76170 0.12786
 C108 C 0.60765 0.72723 0.13818
 C109 C 0.59533 0.69747 0.11885
 C110 C 0.57238 0.70209 0.08959
 C111 C 0.68483 0.70803 0.25450
 C112 C 0.57435 0.76639 0.09861
 C113 C 0.62982 0.72229 0.16935
 C114 C 0.64777 0.71800 0.19585
 C115 C 0.66808 0.71275 0.22729
 C116 C 0.56138 0.73660 0.07932
 H117 H 0.60660 0.78491 0.14269
 H118 H 0.60311 0.67066 0.12666
 H119 H 0.56289 0.67861 0.07533
 H120 H 0.56640 0.79331 0.09142
 C121 C 0.62489 0.21054 -0.12038
 C122 C 0.64349 0.24106 -0.13188
 C123 C 0.63251 0.27501 -0.12067
 C124 C 0.60322 0.27843 -0.09779
 C125 C 0.75832 0.22479 -0.21102
 C126 C 0.59562 0.21387 -0.09752
 C127 C 0.67441 0.23735 -0.15437
 C128 C 0.70058 0.23381 -0.17274
 C129 C 0.73156 0.22917 -0.19366
 C130 C 0.58456 0.24786 -0.08580
 H131 H 0.63320 0.18412 -0.12884
 H132 H 0.64677 0.29881 -0.12935
 H133 H 0.59540 0.30496 -0.08927
 H134 H 0.58185 0.18981 -0.08881
 C135 C 0.37908 0.80074 -0.10960
 C136 C 0.36385 0.77081 -0.12648
 C137 C 0.37641 0.73650 -0.11832
 C138 C 0.40377 0.73208 -0.09303
 C139 C 0.25282 0.78820 -0.21184
 C140 C 0.40642 0.79640 -0.08431
 C141 C 0.33438 0.77525 -0.15103
 C142 C 0.30917 0.77915 -0.17091
 C143 C 0.27905 0.78393 -0.19337
 C144 C 0.41887 0.76198 -0.07550
 H145 H 0.36949 0.82742 -0.11564
 H146 H 0.36474 0.71313 -0.13115
 H147 H 0.41272 0.70523 -0.08687
 H148 H 0.41745 0.81997 -0.07132
 C149 C 0.11348 0.38255 0.28589
 C150 C 0.12829 0.37331 0.25296
 C151 C 0.11256 0.38582 0.22137
 C152 C 0.08247 0.40798 0.22273
 C153 C 0.24831 0.30005 0.25428
 C154 C 0.08346 0.40470 0.28733
 C155 C 0.16046 0.35223 0.25186
 C156 C 0.18783 0.33521 0.25175
 C157 C 0.22029 0.31596 0.25262
 C158 C 0.06781 0.41798 0.25577
 H159 H 0.12549 0.37308 0.31051
 H160 H 0.12386 0.37890 0.19573
 H161 H 0.07110 0.41777 0.19796
 H162 H 0.07286 0.41187 0.31319
 C163 C 0.11458 0.62752 0.78309
 C164 C 0.12198 0.64626 0.75164
 C165 C 0.10641 0.63507 0.71940
 C166 C 0.08320 0.60544 0.71869
 C167 C 0.20228 0.76218 0.76245
 C168 C 0.09141 0.59797 0.78247
 C169 C 0.14469 0.67759 0.75293
 C170 C 0.16329 0.70405 0.75503
 C171 C 0.18456 0.73529 0.75857
 C172 C 0.07525 0.58671 0.75031
 H173 H 0.12642 0.63599 0.80821
 H174 H 0.11190 0.64944 0.69490
 H175 H 0.07119 0.59747 0.69352
 H176 H 0.08589 0.58417 0.80727
 C177 C -0.13643 0.59341 0.23661
 C178 C -0.14943 0.60405 0.26990
 C179 C -0.13275 0.59185 0.30111
 C180 C -0.10347 0.56875 0.29911
 C181 C -0.26520 0.68290 0.28161
 C182 C -0.10712 0.57031 0.23453
 C183 C -0.18056 0.62652 0.27221
 C184 C -0.20696 0.64481 0.27465
 C185 C -0.23823 0.66562 0.27813
 C186 C -0.09048 0.55749 0.26579
 H187 H -0.14919 0.60264 0.21227
 H188 H -0.14263 0.59986 0.32703
 H189 H -0.09130 0.55940 0.32368
 H190 H -0.09780 0.56214 0.20847
 C191 C -0.10188 0.38244 0.72090
 C192 C -0.11035 0.36616 0.75346
 C193 C -0.09573 0.37973 0.78520
 C194 C -0.07248 0.40920 0.78445
 C195 C -0.19084 0.25050 0.76410
 C196 C -0.07860 0.41201 0.72008
 C197 C -0.13328 0.33501 0.75457
 C198 C -0.15195 0.30861 0.75657
 C199 C -0.17321 0.27739 0.76010
 C200 C -0.06346 0.42558 0.75186
 H201 H -0.11301 0.37212 0.69616
 H202 H -0.10206 0.36731 0.81054
 H203 H -0.06134 0.41895 0.80940
 H204 H -0.07218 0.42399 0.69457
 C205 C 0.23662 0.12153 0.36605
 C206 C 0.27021 0.13458 0.35557
 C207 C 0.30143 0.11899 0.36926
 C208 C 0.29911 0.09094 0.39390
 C209 C 0.27842 0.25031 0.27588
 C210 C 0.23422 0.09352 0.39068
 C211 C 0.27256 0.16521 0.33233
 C212 C 0.27440 0.19149 0.31372
 C213 C 0.27653 0.22293 0.29289
 C214 C 0.26545 0.07821 0.40526
 H215 H 0.21228 0.13348 0.35571
 H216 H 0.32758 0.12897 0.36142
 H217 H 0.32364 0.07978 0.40462
 H218 H 0.20790 0.08436 0.39885
 C219 C 0.79492 0.10153 0.60981
 C220 C 0.76505 0.11461 0.62799
 C221 C 0.73065 0.10252 0.61864
 C222 C 0.72615 0.07704 0.59160
 C223 C 0.78387 0.19926 0.73882
 C224 C 0.79049 0.07605 0.58277
 C225 C 0.76987 0.13912 0.65731
 C226 C 0.77410 0.15889 0.68245
 C227 C 0.77927 0.18110 0.71255
 C228 C 0.75607 0.06324 0.57359
 H229 H 0.82168 0.11062 0.61692
 H230 H 0.70736 0.11238 0.63262
 H231 H 0.69930 0.06775 0.58519
 H232 H 0.81407 0.06599 0.56945
 C233 C 0.27858 -0.09884 0.60859
 C234 C 0.24471 -0.10855 0.62144
 C235 C 0.21385 -0.09533 0.60475
 C236 C 0.21678 -0.07224 0.57555
 C237 C 0.22830 -0.18758 0.73644
 C238 C 0.28159 -0.07574 0.57934
 C239 C 0.24141 -0.13119 0.65235
 C240 C 0.23795 -0.14958 0.67856
 C241 C 0.23310 -0.17042 0.70960
 C242 C 0.25069 -0.06200 0.56263
 H243 H 0.30265 -0.10885 0.62137
 H244 H 0.18750 -0.10261 0.61452
 H245 H 0.19247 -0.06219 0.56331
 H246 H 0.30808 -0.06837 0.57006
 C247 C 0.69448 -0.13688 0.40244
 C248 C 0.72465 -0.15229 0.38677
 C249 C 0.75880 -0.13825 0.39410
 C250 C 0.76281 -0.10910 0.41726
 C251 C 0.70851 -0.26673 0.30610
 C252 C 0.69841 -0.10774 0.42562
 C253 C 0.72060 -0.18308 0.36391
 C254 C 0.71703 -0.20916 0.34523
 C255 C 0.71257 -0.24005 0.32388
 C256 C 0.73266 -0.09364 0.43346
 H257 H 0.66792 -0.14758 0.39700
 H258 H 0.78235 -0.15002 0.38216
 H259 H 0.78954 -0.09891 0.42273
 H260 H 0.67466 -0.09648 0.43762
 C261 C 0.61548 0.72882 -0.10629
 C262 C 0.63122 0.76225 -0.11309
 C263 C 0.61683 0.79312 -0.09774
 C264 C 0.58711 0.79058 -0.07531
 C265 C 0.74855 0.77448 -0.18947
 C266 C 0.58573 0.72620 -0.08386
 C267 C 0.66278 0.76487 -0.13488
 C268 C 0.68956 0.76745 -0.15258
 C269 C 0.72124 0.77098 -0.17271
 C270 C 0.57139 0.75705 -0.06788
 H271 H 0.62644 0.70474 -0.11799
 H272 H 0.62885 0.81913 -0.10279
 H273 H 0.57675 0.81483 -0.06345
 H274 H 0.57427 0.69999 -0.07868
 C275 C 0.40364 0.30026 -0.14204
 C276 C 0.38887 0.26937 -0.15750
 C277 C 0.39720 0.23568 -0.14342
 C278 C 0.42046 0.23288 -0.11411
 C279 C 0.30739 0.28537 -0.27133
 C280 C 0.42688 0.29754 -0.11281
 C281 C 0.36581 0.27247 -0.18826
 C282 C 0.34695 0.27586 -0.21425
 C283 C 0.32539 0.28066 -0.24493
 C284 C 0.43570 0.26381 -0.09860
 H285 H 0.39741 0.32647 -0.15276
 H286 H 0.38595 0.21158 -0.15523
 H287 H 0.42672 0.20653 -0.10382
 H288 H 0.43811 0.32188 -0.10151
 C289 C 0.37581 0.70411 0.10945
 C290 C 0.36458 0.73456 0.12796
 C291 C 0.37787 0.76834 0.11838
 C292 C 0.40279 0.77162 0.09083
 C293 C 0.28358 0.72053 0.24153
 C294 C 0.40074 0.70731 0.08189
 C295 C 0.34092 0.73095 0.15797
 C296 C 0.32197 0.72780 0.18373
 C297 C 0.30080 0.72396 0.21459
 C298 C 0.41483 0.74108 0.07254
 H299 H 0.36580 0.67781 0.11674
 H300 H 0.36945 0.79208 0.13263
 H301 H 0.41310 0.79799 0.08431
 H302 H 0.40944 0.68328 0.06836
 C303 C 0.61081 0.28150 0.10636
 C304 C 0.61754 0.24882 0.12329
 C305 C 0.60213 0.21725 0.10983
 C306 C 0.57969 0.21847 0.07978
 C307 C 0.69344 0.25410 0.24181
 C308 C 0.58839 0.28280 0.07642
 C309 C 0.63918 0.24820 0.15520
 C310 C 0.65681 0.24891 0.18225
 C311 C 0.67684 0.25111 0.21424
 C312 C 0.57233 0.25134 0.06294
 H313 H 0.62252 0.30611 0.11661
 H314 H 0.60710 0.19181 0.12280
 H315 H 0.56772 0.19379 0.07008
 H316 H 0.58333 0.30853 0.06409
 C317 C -0.11207 0.62111 0.73828
 C318 C -0.12029 0.63333 0.77254
 C319 C -0.10441 0.61721 0.80236
 C320 C -0.07984 0.58943 0.79793
 C321 C -0.20057 0.74758 0.78777
 C322 C -0.08751 0.59336 0.73378
 C323 C -0.14356 0.66360 0.77695
 C324 C -0.16227 0.68957 0.78046
 C325 C -0.18330 0.72059 0.78443
 C326 C -0.07078 0.57750 0.76354
 H327 H -0.12412 0.63347 0.71501
 H328 H -0.11051 0.62655 0.82901
 H329 H -0.06743 0.57782 0.82139
 H330 H -0.08113 0.58482 0.70695
 C331 C -0.12986 0.37429 0.22994
 C332 C -0.14179 0.36043 0.26251
 C333 C -0.12504 0.37107 0.29432
 C334 C -0.09690 0.39596 0.29369
 C335 C -0.25654 0.27822 0.27028
 C336 C -0.10167 0.39921 0.22923
 C337 C -0.17232 0.33666 0.26362
 C338 C -0.19841 0.31750 0.26518
 C339 C -0.22952 0.29594 0.26766
 C340 C -0.08515 0.41063 0.26117
 H341 H -0.14273 0.36632 0.20517
 H342 H -0.13413 0.36058 0.31969
 H343 H -0.08477 0.40416 0.31874
 H344 H -0.09329 0.41001 0.20377
 C345 C 0.13227 0.40000 0.76057
 C346 C 0.14292 0.39094 0.72600
 C347 C 0.12452 0.40498 0.69658
 C348 C 0.09576 0.42823 0.70164
 C349 C 0.25625 0.31080 0.70443
 C350 C 0.10350 0.42325 0.76572
 C351 C 0.17333 0.36807 0.72060
 C352 C 0.19913 0.34944 0.71576
 C353 C 0.22973 0.32828 0.70977
 C354 C 0.08504 0.43779 0.73628
 H355 H 0.14640 0.38934 0.78354
 H356 H 0.13260 0.39821 0.66969
 H357 H 0.08213 0.43892 0.67842
 H358 H 0.09591 0.43007 0.79272
 C359 C 0.10390 0.60207 0.29390
 C360 C 0.11817 0.61472 0.26181
 C361 C 0.10385 0.60274 0.22929
 C362 C 0.07576 0.57770 0.22887
 C363 C 0.23299 0.69691 0.26910
 C364 C 0.07588 0.57705 0.29356
 C365 C 0.14862 0.63860 0.26248
 C366 C 0.17471 0.65780 0.26382
 C367 C 0.20588 0.67932 0.26627
 C368 C 0.06174 0.56427 0.26103
 H369 H 0.11486 0.61109 0.31922
 H370 H 0.11479 0.61228 0.20429
 H371 H 0.06549 0.56839 0.20340
 H372 H 0.06571 0.56729 0.31878
 C373 C 0.79074 -0.11762 0.62242
 C374 C 0.76036 -0.12799 0.64169
 C375 C 0.72641 -0.11643 0.63074
 C376 C 0.72287 -0.09416 0.60096
 C377 C 0.77549 -0.20263 0.75981
 C378 C 0.78728 -0.09534 0.59262
 C379 C 0.76417 -0.14936 0.67343
 C380 C 0.76752 -0.16667 0.70038
 C381 C 0.77168 -0.18631 0.73229
 C382 C 0.75331 -0.08308 0.58175
 H383 H 0.81716 -0.12635 0.63071
 H384 H 0.70272 -0.12424 0.64552
 H385 H 0.69635 -0.08519 0.59331
 H386 H 0.81124 -0.08731 0.57845
 C387 C 0.22275 -0.11849 0.37926
 C388 C 0.25496 -0.13426 0.36871
 C389 C 0.28767 -0.11985 0.38050
 C390 C 0.28825 -0.09009 0.40308
 C391 C 0.26057 -0.25186 0.29181
 C392 C 0.22326 -0.08863 0.40187
 C393 C 0.25475 -0.16588 0.34674
 C394 C 0.25562 -0.19271 0.32888
 C395 C 0.25778 -0.22447 0.30860
 C396 C 0.25605 -0.07427 0.41424
 H397 H 0.19727 -0.12948 0.37035
 H398 H 0.31275 -0.13189 0.37255
 H399 H 0.31395 -0.07971 0.41208
 H400 H 0.19802 -0.07709 0.40999
 C401 C 0.69834 0.09980 0.39165
 C402 C 0.72904 0.11376 0.37531
 C403 C 0.76274 0.09968 0.38374
 C404 C 0.76581 0.07213 0.40884
 C405 C 0.71622 0.22705 0.29299
 C406 C 0.70132 0.07228 0.41676
 C407 C 0.72604 0.14367 0.35129
 C408 C 0.72324 0.16937 0.33202
 C409 C 0.71962 0.20015 0.31048
 C410 C 0.73514 0.05838 0.42592
 H411 H 0.67213 0.11059 0.38541
 H412 H 0.78670 0.11039 0.37134
 H413 H 0.79222 0.06204 0.41530
 H414 H 0.67720 0.06230 0.42939
 C415 C 0.29751 0.12784 0.58808
 C416 C 0.26626 0.14579 0.59783
 C417 C 0.23299 0.13410 0.58463
 C418 C 0.23103 0.10471 0.56147
 C419 C 0.28106 0.26048 0.67819
 C420 C 0.29564 0.09853 0.56496
 C421 C 0.26873 0.17678 0.62058
 C422 C 0.27176 0.20297 0.63920
 C423 C 0.27636 0.23387 0.66047
 C424 C 0.26240 0.08675 0.55121
 H425 H 0.32341 0.13671 0.59809
 H426 H 0.20862 0.14787 0.59196
 H427 H 0.20505 0.09632 0.55134
 H428 H 0.32029 0.08531 0.55763
   
