data_POSCAR
  _audit_creation_date              2014-09-24
  _audit_creation_method            'ToBaCCo'
  _symmetry_space_group_name_H-M    'P1'
  _symmetry_Int_Tables_number       1
  _symmetry_cell_setting            triclinic
  loop_
  _symmetry_equiv_pos_as_xyz
 x,y,z
_cell_length_a 36.9190
_cell_length_b 36.6097
_cell_length_c 37.0195
_cell_angle_alpha 89.737700
_cell_angle_beta 90.581900
_cell_angle_gamma 90.263400
loop_
  _atom_site_label
  _atom_site_type_symbol
  _atom_site_fract_x
  _atom_site_fract_y
  _atom_site_fract_z
N1 N 0.29151 0.23606 0.18446
 N2 N 0.27626 0.26774 0.17768
 C3 C 0.29362 0.28415 0.15021
 C4 C 0.32126 0.26147 0.13894
 C5 C 0.31900 0.23111 0.16140
 H6 H 0.28652 0.31058 0.13923
 H7 H 0.33564 0.20690 0.16079
 Cu8 Cu 0.23410 0.28361 0.20434
 Cu9 Cu 0.27331 0.20316 0.22172
 Cu10 Cu 0.21762 0.24459 0.28445
 N11 N 0.19232 0.29745 0.23265
 N12 N 0.18600 0.28213 0.26414
 C13 C 0.15648 0.29744 0.27864
 C14 C 0.14338 0.32378 0.25487
 C15 C 0.16693 0.32293 0.22594
 H16 H 0.14582 0.29020 0.30482
 H17 H 0.16579 0.33962 0.20181
 N18 N 0.24192 0.19752 0.29337
 N19 N 0.26232 0.18141 0.26918
 C20 C 0.27451 0.14963 0.28295
 C21 C 0.26101 0.14531 0.31754
 C22 C 0.24036 0.17629 0.32313
 H23 H 0.29196 0.13108 0.26873
 H24 H 0.22539 0.18306 0.34710
 H25 H 0.22229 0.22499 0.23379
 H26 H 0.26383 0.24796 0.25190
 N27 N 0.69705 -0.24349 0.19723
 N28 N 0.71675 -0.27154 0.18774
 C29 C 0.70412 -0.28478 0.15619
 C30 C 0.67445 -0.26409 0.14519
 C31 C 0.67094 -0.23802 0.17218
 H32 H 0.71552 -0.30818 0.14284
 H33 H 0.65084 -0.21676 0.17395
 Cu34 Cu 0.75586 -0.28946 0.21834
 Cu35 Cu 0.70606 -0.21742 0.24222
 Cu36 Cu 0.78970 -0.23415 0.28271
 N37 N 0.80274 -0.29844 0.24063
 N38 N 0.81608 -0.27663 0.26552
 C39 C 0.84850 -0.28938 0.27654
 C40 C 0.85611 -0.32107 0.25746
 C41 C 0.82620 -0.32573 0.23478
 H42 H 0.86496 -0.27651 0.29718
 H43 H 0.82145 -0.34740 0.21558
 N44 N 0.75845 -0.19290 0.29633
 N45 N 0.72650 -0.18686 0.28119
 C46 C 0.71153 -0.15740 0.29661
 C47 C 0.73504 -0.14424 0.32297
 C48 C 0.76451 -0.16752 0.32197
 H49 H 0.68522 -0.14663 0.28940
 H50 H 0.78863 -0.16612 0.33868
 H51 H 0.76039 -0.22554 0.23521
 H52 H 0.73891 -0.25343 0.27143
 N53 N 0.70256 0.23708 0.80919
 N54 N 0.71803 0.26885 0.81538
 C55 C 0.70358 0.28365 0.84512
 C56 C 0.67742 0.25995 0.85832
 C57 C 0.67757 0.23065 0.83470
 H58 H 0.71127 0.30996 0.85597
 H59 H 0.66075 0.20644 0.83586
 Cu60 Cu 0.75542 0.28812 0.78406
 Cu61 Cu 0.71506 0.20719 0.76772
 Cu62 Cu 0.78299 0.24056 0.71232
 N63 N 0.80134 0.29865 0.76097
 N64 N 0.81217 0.27984 0.73302
 C65 C 0.84407 0.29335 0.72172
 C66 C 0.85403 0.32243 0.74386
 C67 C 0.82600 0.32476 0.76857
 H68 H 0.85842 0.28287 0.69872
 H69 H 0.82330 0.34407 0.79035
 N70 N 0.75694 0.19441 0.70280
 N71 N 0.73152 0.18144 0.72417
 C72 C 0.71890 0.14981 0.71042
 C73 C 0.73724 0.14234 0.67880
 C74 C 0.76125 0.17133 0.67497
 H75 H 0.69761 0.13368 0.72245
 H76 H 0.78034 0.17557 0.65342
 H77 H 0.76789 0.22652 0.76359
 H78 H 0.73230 0.24887 0.73520
 N79 N 0.30285 -0.24314 0.80079
 N80 N 0.28540 -0.27345 0.80863
 C81 C 0.29875 -0.28732 0.83971
 C82 C 0.32631 -0.26456 0.85207
 C83 C 0.32808 -0.23676 0.82652
 H84 H 0.28937 -0.31243 0.85198
 H85 H 0.34639 -0.21364 0.82642
 Cu86 Cu 0.24724 -0.29233 0.77733
 Cu87 Cu 0.29252 -0.21550 0.75683
 Cu88 Cu 0.21523 -0.24083 0.70907
 N89 N 0.20013 -0.30186 0.75546
 N90 N 0.18739 -0.28141 0.72907
 C91 C 0.15473 -0.29432 0.71873
 C92 C 0.14632 -0.32470 0.73986
 C93 C 0.17601 -0.32840 0.76300
 H94 H 0.13872 -0.28251 0.69710
 H95 H 0.18021 -0.34892 0.78366
 N96 N 0.24326 -0.19615 0.69793
 N97 N 0.27269 -0.18660 0.71615
 C98 C 0.28586 -0.15532 0.70214
 C99 C 0.26378 -0.14452 0.67355
 C100 C 0.23698 -0.17116 0.67179
 H101 H 0.31006 -0.14172 0.71185
 H102 H 0.21452 -0.17234 0.65290
 H103 H 0.23836 -0.22935 0.75868
 H104 H 0.26669 -0.25443 0.72581
 N105 N 0.65758 -0.28995 0.76445
 N106 N 0.67644 -0.31929 0.77249
 C107 C 0.66546 -0.33257 0.80458
 C108 C 0.63807 -0.31039 0.81725
 C109 C 0.63379 -0.28372 0.79093
 H110 H 0.67729 -0.35596 0.81810
 H111 H 0.61623 -0.26021 0.79198
 Cu112 Cu 0.71532 -0.33554 0.74158
 Cu113 Cu 0.66835 -0.25903 0.72300
 Cu114 Cu 0.74566 -0.28029 0.67558
 N115 N 0.76174 -0.34366 0.71883
 N116 N 0.77351 -0.32185 0.69322
 C117 C 0.80720 -0.33180 0.68411
 C118 C 0.81741 -0.36159 0.70522
 C119 C 0.78748 -0.36841 0.72683
 H120 H 0.82322 -0.31756 0.66422
 H121 H 0.78495 -0.38868 0.74796
 N122 N 0.71374 -0.23934 0.66222
 N123 N 0.68436 -0.23110 0.68041
 C124 C 0.67065 -0.19965 0.66730
 C125 C 0.69247 -0.18742 0.63951
 C126 C 0.71937 -0.21346 0.63693
 H127 H 0.64744 -0.18582 0.67823
 H128 H 0.74271 -0.21232 0.61957
 H129 H 0.69465 -0.29698 0.69156
 H130 H 0.72279 -0.27161 0.72553
 N131 N 0.34421 0.28895 0.76212
 N132 N 0.32559 0.31834 0.76989
 C133 C 0.33716 0.33155 0.80190
 C134 C 0.36470 0.30926 0.81485
 C135 C 0.36845 0.28260 0.78874
 H136 H 0.32558 0.35492 0.81521
 H137 H 0.38595 0.25903 0.79001
 Cu138 Cu 0.28610 0.33460 0.73887
 Cu139 Cu 0.33264 0.25829 0.72070
 Cu140 Cu 0.25506 0.28051 0.67219
 N141 N 0.23938 0.34303 0.71591
 N142 N 0.22754 0.32200 0.68964
 C143 C 0.19373 0.33212 0.68030
 C144 C 0.18364 0.36104 0.70199
 C145 C 0.21349 0.36726 0.72423
 H146 H 0.17734 0.31852 0.66005
 H147 H 0.21570 0.38672 0.74603
 N148 N 0.28665 0.23944 0.65931
 N149 N 0.31601 0.23073 0.67801
 C150 C 0.32927 0.19918 0.66521
 C151 C 0.30718 0.18738 0.63712
 C152 C 0.28059 0.21377 0.63403
 H153 H 0.35238 0.18502 0.67654
 H154 H 0.25714 0.21298 0.61633
 H155 H 0.30627 0.29664 0.68895
 H156 H 0.27820 0.27095 0.72236
 N157 N 0.34359 -0.28435 0.23545
 N158 N 0.32480 -0.31400 0.22808
 C159 C 0.33549 -0.32739 0.19610
 C160 C 0.36265 -0.30495 0.18279
 C161 C 0.36709 -0.27800 0.20861
 H162 H 0.32374 -0.35112 0.18316
 H163 H 0.38468 -0.25438 0.20708
 Cu164 Cu 0.28657 -0.33073 0.25981
 Cu165 Cu 0.33339 -0.25363 0.27691
 Cu166 Cu 0.25800 -0.27700 0.32703
 N167 N 0.24090 -0.33986 0.28378
 N168 N 0.23009 -0.31900 0.31031
 C169 C 0.19674 -0.32955 0.32038
 C170 C 0.18584 -0.35859 0.29892
 C171 C 0.21476 -0.36444 0.27603
 H172 H 0.18115 -0.31613 0.34096
 H173 H 0.21607 -0.38384 0.25417
 N174 N 0.28974 -0.23534 0.33909
 N175 N 0.31823 -0.22613 0.31978
 C176 C 0.33162 -0.19421 0.33214
 C177 C 0.31049 -0.18269 0.36057
 C178 C 0.28436 -0.20964 0.36431
 H179 H 0.35407 -0.17962 0.32024
 H180 H 0.26157 -0.20923 0.38238
 H181 H 0.30862 -0.29232 0.30919
 H182 H 0.27901 -0.26715 0.27635
 N183 N 0.65572 0.28969 0.24251
 N184 N 0.67605 0.31770 0.23333
 C185 C 0.66677 0.32868 0.19975
 C186 C 0.63887 0.30643 0.18726
 C187 C 0.63251 0.28211 0.21533
 H188 H 0.67975 0.35088 0.18542
 H189 H 0.61348 0.25957 0.21555
 Cu190 Cu 0.71357 0.33607 0.26569
 Cu191 Cu 0.66220 0.26395 0.28821
 Cu192 Cu 0.74453 0.28059 0.33137
 N193 N 0.75975 0.34506 0.28959
 N194 N 0.77180 0.32311 0.31512
 C195 C 0.80547 0.33352 0.32487
 C196 C 0.81530 0.36355 0.30418
 C197 C 0.78538 0.37016 0.28213
 H198 H 0.82195 0.31936 0.34469
 H199 H 0.78305 0.39038 0.26088
 N200 N 0.71270 0.23918 0.34383
 N201 N 0.68149 0.23276 0.32731
 C202 C 0.66788 0.20082 0.33940
 C203 C 0.69160 0.18655 0.36494
 C204 C 0.71957 0.21173 0.36715
 H205 H 0.64321 0.18828 0.32936
 H206 H 0.74414 0.20913 0.38304
 H207 H 0.69424 0.29997 0.31848
 H208 H 0.71669 0.27226 0.28313
 C209 C 0.29463 -0.01041 0.40240
 C210 C 0.28681 0.02428 0.41618
 C211 C 0.28564 0.02905 0.45382
 C212 C 0.29385 0.00006 0.47774
 C213 C 0.30266 -0.03414 0.46305
 C214 C 0.30212 -0.03986 0.42561
 C215 C 0.29314 0.00534 0.51782
 C216 C 0.28489 -0.02400 0.54124
 C217 C 0.28516 -0.01947 0.57892
 C218 C 0.29207 0.01531 0.59323
 C219 C 0.29944 0.04512 0.57050
 C220 C 0.30076 0.03975 0.53303
 H221 H 0.29368 -0.01477 0.37348
 H222 H 0.27843 0.05554 0.46427
 H223 H 0.31037 -0.05658 0.48058
 H224 H 0.27848 -0.05063 0.53035
 H225 H 0.29064 0.01942 0.62215
 H226 H 0.30832 0.06254 0.51597
 C227 C 0.70650 -0.01508 0.59606
 C228 C 0.71364 0.01984 0.58204
 C229 C 0.71403 0.02488 0.54438
 C230 C 0.70563 -0.00410 0.52066
 C231 C 0.69775 -0.03866 0.53559
 C232 C 0.69903 -0.04455 0.57306
 C233 C 0.70504 0.00166 0.48056
 C234 C 0.71282 -0.02717 0.45674
 C235 C 0.71160 -0.02201 0.41909
 C236 C 0.70412 0.01288 0.40515
 C237 C 0.69736 0.04223 0.42830
 C238 C 0.69683 0.03617 0.46574
 H239 H 0.70789 -0.01957 0.62499
 H240 H 0.72071 0.05161 0.53379
 H241 H 0.69009 -0.06120 0.51831
 H242 H 0.71977 -0.05385 0.46726
 H243 H 0.70490 0.01749 0.37624
 H244 H 0.68964 0.05862 0.48311
 C245 C 0.40654 0.29496 -0.01380
 C246 C 0.42036 0.28710 0.02079
 C247 C 0.45806 0.28575 0.02616
 C248 C 0.48209 0.29382 -0.00220
 C249 C 0.46740 0.30253 -0.03643
 C250 C 0.42984 0.30216 -0.04267
 C251 C 0.52227 0.29283 0.00376
 C252 C 0.54579 0.28413 -0.02469
 C253 C 0.58353 0.28390 -0.01950
 C254 C 0.59787 0.29078 0.01506
 C255 C 0.57502 0.29847 0.04407
 C256 C 0.53747 0.30040 0.03798
 H257 H 0.37754 0.29417 -0.01852
 H258 H 0.46847 0.27846 0.05262
 H259 H 0.48499 0.30999 -0.05848
 H260 H 0.53494 0.27766 -0.05115
 H261 H 0.62684 0.28894 0.01959
 H262 H 0.52031 0.30829 0.06010
 C263 C 0.59635 0.70361 -0.01192
 C264 C 0.58204 0.71148 0.02212
 C265 C 0.54428 0.71211 0.02637
 C266 C 0.52066 0.70332 -0.00250
 C267 C 0.53581 0.69463 -0.03614
 C268 C 0.57341 0.69581 -0.04136
 C269 C 0.48043 0.70375 0.00228
 C270 C 0.45704 0.71198 -0.02695
 C271 C 0.41926 0.71216 -0.02273
 C272 C 0.40476 0.70557 0.01159
 C273 C 0.42749 0.69829 0.04132
 C274 C 0.46507 0.69642 0.03623
 H275 H 0.62538 0.70489 -0.01578
 H276 H 0.53350 0.71941 0.05239
 H277 H 0.51853 0.68667 -0.05854
 H278 H 0.46803 0.71825 -0.05323
 H279 H 0.37577 0.70743 0.01539
 H280 H 0.48213 0.68893 0.05898
 C281 C -0.01331 0.40586 0.28344
 C282 C 0.02110 0.42007 0.27574
 C283 C 0.02598 0.45814 0.27427
 C284 C -0.00260 0.48215 0.28226
 C285 C -0.03662 0.46703 0.29089
 C286 C -0.04244 0.42912 0.29055
 C287 C 0.00305 0.52272 0.28168
 C288 C -0.02594 0.54660 0.27405
 C289 C -0.02105 0.58470 0.27448
 C290 C 0.01373 0.59900 0.28079
 C291 C 0.04319 0.57586 0.28765
 C292 C 0.03747 0.53796 0.28892
 H293 H -0.01763 0.37658 0.28286
 H294 H 0.05230 0.46882 0.26711
 H295 H -0.05877 0.48452 0.29849
 H296 H -0.05260 0.53578 0.26804
 H297 H 0.01803 0.62827 0.27946
 H298 H 0.06001 0.52058 0.29626
 C299 C -0.01277 0.59579 0.72149
 C300 C 0.02186 0.58149 0.72801
 C301 C 0.02624 0.54340 0.72989
 C302 C -0.00312 0.51940 0.72338
 C303 C -0.03748 0.53464 0.71625
 C304 C -0.04262 0.57258 0.71614
 C305 C 0.00216 0.47876 0.72348
 C306 C -0.02676 0.45469 0.73118
 C307 C -0.02229 0.41663 0.72962
 C308 C 0.01208 0.40242 0.72247
 C309 C 0.04157 0.42568 0.71580
 C310 C 0.03614 0.46360 0.71532
 H311 H -0.01668 0.62510 0.72152
 H312 H 0.05284 0.53273 0.73606
 H313 H -0.06047 0.51732 0.70995
 H314 H -0.05309 0.46527 0.73797
 H315 H 0.01603 0.37311 0.72294
 H316 H 0.05858 0.48101 0.70779
 C317 C 0.34073 0.29639 0.08389
 C318 C 0.34686 0.26797 0.10886
 C319 C 0.37757 0.24584 0.10465
 C320 C 0.40152 0.25201 0.07618
 C321 C 0.39522 0.28036 0.05121
 C322 C 0.36458 0.30247 0.05544
 H323 H 0.31735 0.31390 0.08600
 H324 H 0.38333 0.22382 0.12339
 H325 H 0.42471 0.23428 0.07343
 H326 H 0.35923 0.32480 0.03688
 C327 C 0.65966 0.70275 0.08938
 C328 C 0.65228 0.73076 0.11427
 C329 C 0.62185 0.75309 0.10763
 C330 C 0.59930 0.74711 0.07763
 C331 C 0.60659 0.71883 0.05331
 C332 C 0.63716 0.69694 0.05937
 H333 H 0.68263 0.68486 0.09286
 H334 H 0.61494 0.77511 0.12559
 H335 H 0.57619 0.76478 0.07336
 H336 H 0.64328 0.67471 0.04125
 C337 C 0.66193 0.29261 -0.08442
 C338 C 0.65384 0.26532 -0.10990
 C339 C 0.62276 0.24358 -0.10491
 C340 C 0.60009 0.24934 -0.07546
 C341 C 0.60806 0.27686 -0.05024
 C342 C 0.63935 0.29827 -0.05493
 H343 H 0.68574 0.30968 -0.08712
 H344 H 0.61554 0.22240 -0.12398
 H345 H 0.57638 0.23213 -0.07233
 H346 H 0.64602 0.31990 -0.03612
 C347 C 0.38088 0.75177 -0.11001
 C348 C 0.34956 0.73035 -0.11531
 C349 C 0.34099 0.70357 -0.08937
 C350 C 0.36337 0.69803 -0.05920
 C351 C 0.39491 0.71909 -0.05420
 C352 C 0.40330 0.74618 -0.07983
 H353 H 0.38849 0.77262 -0.12931
 H354 H 0.31703 0.68671 -0.09225
 H355 H 0.35636 0.67673 -0.04009
 H356 H 0.42715 0.76320 -0.07648
 C357 C 0.10647 0.37868 0.23711
 C358 C 0.11173 0.34812 0.25971
 C359 C 0.08658 0.34121 0.28720
 C360 C 0.05708 0.36438 0.29210
 C361 C 0.05202 0.39507 0.26971
 C362 C 0.07699 0.40191 0.24209
 H363 H 0.12527 0.38504 0.21575
 H364 H 0.08951 0.31787 0.30498
 H365 H 0.03849 0.35860 0.31387
 H366 H 0.07360 0.42511 0.22415
 C367 C 0.11091 0.62245 0.76100
 C368 C 0.11519 0.65276 0.73771
 C369 C 0.08768 0.65965 0.71189
 C370 C 0.05739 0.63678 0.70912
 C371 C 0.05356 0.60639 0.73205
 C372 C 0.08055 0.59962 0.75816
 H373 H 0.13090 0.61592 0.78152
 H374 H 0.08937 0.68243 0.69332
 H375 H 0.03725 0.64249 0.68841
 H376 H 0.07812 0.57672 0.77661
 C377 C -0.10940 0.62486 0.23923
 C378 C -0.11319 0.65621 0.26090
 C379 C -0.08563 0.66398 0.28641
 C380 C -0.05575 0.64099 0.29046
 C381 C -0.05236 0.60962 0.26909
 C382 C -0.07942 0.60195 0.24329
 H383 H -0.12945 0.61763 0.21900
 H384 H -0.08698 0.68754 0.30381
 H385 H -0.03559 0.64742 0.31094
 H386 H -0.07732 0.57829 0.22600
 C387 C -0.08884 0.33891 0.71438
 C388 C -0.11499 0.34507 0.74116
 C389 C -0.10951 0.37477 0.76483
 C390 C -0.07936 0.39776 0.76137
 C391 C -0.05372 0.39164 0.73437
 C392 C -0.05870 0.36183 0.71110
 H393 H -0.09142 0.31657 0.69555
 H394 H -0.12850 0.38078 0.78599
 H395 H -0.07602 0.42028 0.77999
 H396 H -0.03958 0.35665 0.68974
 C397 C 0.24625 0.10994 0.37400
 C398 C 0.26751 0.11444 0.34295
 C399 C 0.29513 0.08909 0.33638
 C400 C 0.30130 0.05999 0.36016
 C401 C 0.27999 0.05540 0.39110
 C402 C 0.25240 0.08075 0.39778
 H403 H 0.22451 0.12866 0.37981
 H404 H 0.31240 0.09181 0.31310
 H405 H 0.32317 0.04129 0.35456
 H406 H 0.23518 0.07771 0.42112
 C407 C 0.70456 0.08459 0.66111
 C408 C 0.73166 0.11075 0.65413
 C409 C 0.75309 0.10650 0.62319
 C410 C 0.74741 0.07702 0.59984
 C411 C 0.72023 0.05103 0.60687
 C412 C 0.69894 0.05516 0.63780
 H413 H 0.68733 0.08675 0.68441
 H414 H 0.77434 0.12582 0.61685
 H415 H 0.76458 0.07434 0.57647
 H416 H 0.67744 0.03588 0.64371
 C417 C 0.29490 -0.08546 0.65771
 C418 C 0.26849 -0.11210 0.64965
 C419 C 0.24706 -0.10760 0.61830
 C420 C 0.25219 -0.07748 0.59547
 C421 C 0.27883 -0.05110 0.60345
 C422 C 0.30001 -0.05541 0.63491
 H423 H 0.31185 -0.08766 0.68159
 H424 H 0.22648 -0.12743 0.61106
 H425 H 0.23512 -0.07472 0.57167
 H426 H 0.32106 -0.03581 0.64162
 C427 C 0.70182 -0.08728 0.34021
 C428 C 0.72950 -0.11264 0.34733
 C429 C 0.75160 -0.10765 0.37811
 C430 C 0.74595 -0.07822 0.40132
 C431 C 0.71815 -0.05302 0.39425
 C432 C 0.69625 -0.05782 0.36335
 H433 H 0.68441 -0.08998 0.31670
 H434 H 0.77308 -0.12663 0.38463
 H435 H 0.76355 -0.07502 0.42468
 H436 H 0.67440 -0.03904 0.35736
 C437 C 0.63600 0.66970 -0.11775
 C438 C 0.62007 0.68821 -0.14718
 C439 C 0.58756 0.70716 -0.14190
 C440 C 0.57196 0.70862 -0.10777
 C441 C 0.58853 0.69124 -0.07805
 C442 C 0.62046 0.67133 -0.08347
 H443 H 0.66109 0.65492 -0.12085
 H444 H 0.57432 0.72135 -0.16404
 H445 H 0.54753 0.72446 -0.10440
 H446 H 0.63362 0.65737 -0.06111
 C447 C 0.36778 0.32957 -0.12046
 C448 C 0.38309 0.31051 -0.14940
 C449 C 0.41525 0.29091 -0.14338
 C450 C 0.43101 0.28928 -0.10898
 C451 C 0.41494 0.30713 -0.07975
 C452 C 0.38348 0.32778 -0.08596
 H453 H 0.34301 0.34488 -0.12409
 H454 H 0.42803 0.27630 -0.16513
 H455 H 0.45510 0.27292 -0.10499
 H456 H 0.37073 0.34214 -0.06399
 C457 C 0.41313 0.71225 0.14138
 C458 C 0.38055 0.69326 0.14721
 C459 C 0.36451 0.67408 0.11833
 C460 C 0.38010 0.67499 0.08405
 C461 C 0.41219 0.69479 0.07808
 C462 C 0.42881 0.71294 0.10724
 H463 H 0.42643 0.72696 0.16310
 H464 H 0.33935 0.65928 0.12186
 H465 H 0.36689 0.66048 0.06211
 H466 H 0.45338 0.72870 0.10339
 C467 C 0.63785 0.32447 0.12170
 C468 C 0.62144 0.30655 0.15100
 C469 C 0.58875 0.28757 0.14507
 C470 C 0.57332 0.28577 0.11054
 C471 C 0.59023 0.30282 0.08108
 C472 C 0.62247 0.32252 0.08708
 H473 H 0.66307 0.33926 0.12522
 H474 H 0.57513 0.27379 0.16703
 H475 H 0.54863 0.27010 0.10670
 H476 H 0.63591 0.33624 0.06493
 C477 C -0.14266 0.59019 0.72878
 C478 C -0.14865 0.62078 0.70622
 C479 C -0.11946 0.63389 0.68543
 C480 C -0.08526 0.61791 0.68822
 C481 C -0.07937 0.58808 0.71138
 C482 C -0.10851 0.57401 0.73118
 H483 H -0.16408 0.57864 0.74497
 H484 H -0.12240 0.65707 0.66749
 H485 H -0.06328 0.62899 0.67233
 H486 H -0.10461 0.55108 0.74937
 C487 C -0.11847 0.36619 0.32035
 C488 C -0.14873 0.38180 0.30291
 C489 C -0.14393 0.41426 0.28305
 C490 C -0.10959 0.43008 0.27982
 C491 C -0.07924 0.41381 0.29636
 C492 C -0.08414 0.38198 0.31707
 H493 H -0.12093 0.34126 0.33592
 H494 H -0.16656 0.42732 0.26954
 H495 H -0.10663 0.45447 0.26344
 H496 H -0.06132 0.36911 0.33053
 C497 C 0.14292 0.41089 0.72378
 C498 C 0.14764 0.37884 0.70364
 C499 C 0.11734 0.36330 0.68609
 C500 C 0.08305 0.37885 0.68943
 C501 C 0.07826 0.41038 0.71028
 C502 C 0.10864 0.42648 0.72705
 H503 H 0.16559 0.42388 0.73738
 H504 H 0.11977 0.33864 0.67036
 H505 H 0.06022 0.36610 0.67581
 H506 H 0.10575 0.45063 0.74354
 C507 C 0.12014 0.63888 0.31573
 C508 C 0.14980 0.62332 0.29796
 C509 C 0.14433 0.59100 0.27824
 C510 C 0.10989 0.57516 0.27560
 C511 C 0.08013 0.59131 0.29256
 C512 C 0.08572 0.62309 0.31299
 H513 H 0.12316 0.66374 0.33113
 H514 H 0.16652 0.57802 0.26451
 H515 H 0.10636 0.55079 0.25944
 H516 H 0.06337 0.63588 0.32673
 C517 C 0.71035 -0.14616 0.58850
 C518 C 0.69101 -0.15171 0.62058
 C519 C 0.67214 -0.12220 0.63549
 C520 C 0.67387 -0.08759 0.61953
 C521 C 0.69426 -0.08181 0.58818
 C522 C 0.71190 -0.11161 0.57244
 H523 H 0.72484 -0.16837 0.57607
 H524 H 0.65706 -0.12541 0.66021
 H525 H 0.65968 -0.06517 0.63199
 H526 H 0.72801 -0.10791 0.54840
 C527 C 0.29248 -0.14178 0.41130
 C528 C 0.31163 -0.14690 0.37911
 C529 C 0.32989 -0.11693 0.36373
 C530 C 0.32771 -0.08232 0.37935
 C531 C 0.30743 -0.07701 0.41078
 C532 C 0.29042 -0.10725 0.42695
 H533 H 0.27849 -0.16431 0.42414
 H534 H 0.34484 -0.11978 0.33894
 H535 H 0.34148 -0.05959 0.36656
 H536 H 0.27437 -0.10397 0.45104
 C537 C 0.71048 0.14383 0.41442
 C538 C 0.69022 0.15030 0.38274
 C539 C 0.67042 0.12134 0.36727
 C540 C 0.67202 0.08630 0.38243
 C541 C 0.69311 0.07970 0.41357
 C542 C 0.71183 0.10896 0.42971
 H543 H 0.72572 0.16563 0.42721
 H544 H 0.65467 0.12539 0.34277
 H545 H 0.65710 0.06427 0.36963
 H546 H 0.72854 0.10461 0.45355
 C547 C 0.32684 0.12198 0.63355
 C548 C 0.30816 0.15177 0.61830
 C549 C 0.28861 0.14664 0.58594
 C550 C 0.28676 0.11224 0.56985
 C551 C 0.30427 0.08218 0.58586
 C552 C 0.32480 0.08751 0.61757
 H553 H 0.34206 0.12485 0.65851
 H554 H 0.27426 0.16907 0.57326
 H555 H 0.27055 0.10888 0.54553
 H556 H 0.33891 0.06489 0.63024
   
