data_POSCAR
  _audit_creation_date              2014-09-24
  _audit_creation_method            'ToBaCCo'
  _symmetry_space_group_name_H-M    'P1'
  _symmetry_Int_Tables_number       1
  _symmetry_cell_setting            triclinic
  loop_
  _symmetry_equiv_pos_as_xyz
 x,y,z
_cell_length_a 35.4924
_cell_length_b 37.2974
_cell_length_c 35.5150
_cell_angle_alpha 90.017800
_cell_angle_beta 90.007200
_cell_angle_gamma 90.015000
loop_
  _atom_site_label
  _atom_site_type_symbol
  _atom_site_fract_x
  _atom_site_fract_y
  _atom_site_fract_z
C1 C 0.25024 0.25001 0.24995
 C2 C 0.75021 0.75010 0.25012
 C3 C 0.74985 0.25002 0.75002
 C4 C 0.24983 0.74993 0.75004
 C5 C 0.05288 0.05409 0.01314
 H6 H 0.05367 0.05557 -0.01727
 C7 C 0.07501 0.07732 0.03465
 H8 H 0.09305 0.09671 0.02083
 C9 C 0.02810 0.02733 0.06844
 H10 H 0.00938 0.00824 0.08154
 C11 C 0.04975 0.05008 0.09099
 H12 H 0.04793 0.04816 0.12138
 N13 N 0.03039 0.02942 0.03023
 C14 C 0.01493 -0.05544 -0.05302
 H15 H -0.01551 -0.05694 -0.05375
 C16 C 0.03641 -0.07863 -0.07522
 H17 H 0.02254 -0.09799 -0.09325
 C18 C 0.07031 -0.02868 -0.02833
 H19 H 0.08346 -0.00959 -0.00963
 C20 C 0.09284 -0.05138 -0.05006
 H21 H 0.12324 -0.04943 -0.04831
 Zn22 Zn 0.00087 -0.00070 -0.00100
 N23 N 0.03208 -0.03079 -0.03054
 C24 C -0.02659 0.02732 -0.07036
 N25 N -0.02868 0.02943 -0.03214
 C26 C -0.05109 0.05409 -0.01493
 C27 C -0.07334 0.07730 -0.03633
 C28 C -0.04837 0.05004 -0.09280
 C29 C -0.01322 -0.05543 0.05100
 C30 C -0.03470 -0.07851 0.07332
 C31 C -0.09112 -0.05122 0.04822
 C32 C -0.06859 -0.02863 0.02638
 N33 N -0.03035 -0.03080 0.02852
 H34 H -0.00795 0.00821 -0.08355
 H35 H -0.05173 0.05558 0.01548
 H36 H -0.09132 0.09666 -0.02241
 H37 H -0.04673 0.04809 -0.12319
 H38 H 0.01722 -0.05697 0.05169
 H39 H -0.02084 -0.09783 0.09139
 H40 H -0.12153 -0.04920 0.04656
 H41 H -0.08173 -0.00955 0.00768
 C42 C 0.07571 -0.07647 -0.07380
 C43 C 0.07350 0.07520 0.07393
 C44 C -0.07400 -0.07625 0.07201
 C45 C -0.07205 0.07514 -0.07561
 C46 C 0.05293 0.55535 0.51497
 H47 H 0.05372 0.55682 0.48456
 C48 C 0.07511 0.57853 0.53649
 H49 H 0.09320 0.59788 0.52266
 C50 C 0.02810 0.52864 0.57028
 H51 H 0.00935 0.50956 0.58337
 C52 C 0.04981 0.55134 0.59283
 H53 H 0.04800 0.54941 0.62321
 N54 N 0.03038 0.53072 0.53207
 C55 C 0.01490 0.44575 0.44897
 H56 H -0.01553 0.44426 0.44828
 C57 C 0.03634 0.42254 0.42676
 H58 H 0.02244 0.40316 0.40877
 C59 C 0.07033 0.47255 0.47353
 H60 H 0.08350 0.49168 0.49216
 C61 C 0.09282 0.44983 0.45179
 H62 H 0.12322 0.45179 0.45347
 Zn63 Zn 0.00087 0.50060 0.50082
 N64 N 0.03209 0.47044 0.47138
 C65 C -0.02634 0.52847 0.43133
 N66 N -0.02858 0.53068 0.46953
 C67 C -0.05110 0.55536 0.48658
 C68 C -0.07334 0.57844 0.46502
 C69 C -0.04812 0.55105 0.40873
 C70 C -0.01338 0.44587 0.55279
 C71 C -0.03495 0.42267 0.57488
 C72 C -0.09128 0.44994 0.54955
 C73 C -0.06867 0.47265 0.52794
 N74 N -0.03044 0.47054 0.53027
 H75 H -0.00762 0.50936 0.41827
 H76 H -0.05186 0.55694 0.51699
 H77 H -0.09143 0.59780 0.47881
 H78 H -0.04637 0.54899 0.37835
 H79 H 0.01705 0.44437 0.55362
 H80 H -0.02116 0.40329 0.59293
 H81 H -0.12168 0.45189 0.54770
 H82 H -0.08174 0.49174 0.50921
 C83 C 0.07565 0.42471 0.42810
 C84 C 0.07362 0.57640 0.57576
 C85 C -0.07425 0.42483 0.57332
 C86 C -0.07193 0.57613 0.42575
 C87 C 0.55078 0.05394 0.51493
 H88 H 0.55147 0.05538 0.48451
 C89 C 0.57298 0.07720 0.53634
 H90 H 0.59096 0.09657 0.52243
 C91 C 0.52623 0.02719 0.57034
 H92 H 0.50760 0.00807 0.58352
 C93 C 0.54796 0.04997 0.59280
 H94 H 0.54628 0.04805 0.62319
 N95 N 0.52838 0.02925 0.53212
 C96 C 0.51328 -0.05580 0.44907
 H97 H 0.48285 -0.05741 0.44829
 C98 C 0.53488 -0.07888 0.42686
 H99 H 0.52111 -0.09828 0.40878
 C100 C 0.56853 -0.02883 0.47381
 H101 H 0.58157 -0.00968 0.49252
 C102 C 0.59117 -0.05141 0.45208
 H103 H 0.62156 -0.04932 0.45384
 Zn104 Zn 0.49895 -0.00099 0.50095
 N105 N 0.53030 -0.03108 0.47156
 C106 C 0.47182 0.02685 0.43141
 N107 N 0.46946 0.02901 0.46961
 C108 C 0.44692 0.05369 0.48662
 C109 C 0.42482 0.07687 0.46503
 C110 C 0.45020 0.04953 0.40878
 C111 C 0.48485 -0.05566 0.55301
 C112 C 0.46335 -0.07883 0.57522
 C113 C 0.40694 -0.05170 0.54992
 C114 C 0.42949 -0.02902 0.52819
 N115 N 0.46772 -0.03108 0.53046
 H116 H 0.49057 0.00775 0.41837
 H117 H 0.44608 0.05524 0.51703
 H118 H 0.40675 0.09627 0.47878
 H119 H 0.45208 0.04755 0.37840
 H120 H 0.51529 -0.05712 0.55380
 H121 H 0.47721 -0.09814 0.59331
 H122 H 0.37654 -0.04979 0.54811
 H123 H 0.41636 -0.00998 0.50944
 C124 C 0.57417 -0.07654 0.42829
 C125 C 0.57164 0.07508 0.57562
 C126 C 0.42405 -0.07672 0.57373
 C127 C 0.42641 0.07466 0.42576
 C128 C 0.55107 0.55588 0.01321
 H129 H 0.55179 0.55742 -0.01720
 C130 C 0.57333 0.57901 0.03472
 H131 H 0.59139 0.59838 0.02090
 C132 C 0.52640 0.52904 0.06851
 H133 H 0.50771 0.50993 0.08162
 C134 C 0.54819 0.55168 0.09106
 H135 H 0.54648 0.54966 0.12145
 N136 N 0.52859 0.53120 0.03031
 C137 C 0.51336 0.44626 -0.05286
 H138 H 0.48293 0.44472 -0.05364
 C139 C 0.53491 0.42305 -0.07495
 H140 H 0.52110 0.40362 -0.09296
 C141 C 0.56866 0.47315 -0.02812
 H142 H 0.58174 0.49229 -0.00944
 C143 C 0.59125 0.45043 -0.04975
 H144 H 0.62165 0.45241 -0.04793
 Zn145 Zn 0.49912 0.50103 -0.00091
 N146 N 0.53043 0.47098 -0.03040
 C147 C 0.47175 0.52894 -0.07033
 N148 N 0.46951 0.53105 -0.03212
 C149 C 0.44694 0.55564 -0.01500
 C150 C 0.42469 0.57877 -0.03649
 C151 C 0.44997 0.55159 -0.09286
 C152 C 0.48532 0.44621 0.05100
 C153 C 0.46398 0.42297 0.07326
 C154 C 0.40739 0.45008 0.04834
 C155 C 0.42978 0.47285 0.02655
 N156 N 0.46802 0.47084 0.02861
 H157 H 0.49051 0.50990 -0.08345
 H158 H 0.44619 0.55714 0.01541
 H159 H 0.40660 0.59810 -0.02264
 H160 H 0.45175 0.54964 -0.12324
 H161 H 0.51576 0.44480 0.05162
 H162 H 0.47796 0.40364 0.09123
 H163 H 0.37697 0.45197 0.04672
 H164 H 0.41652 0.49193 0.00793
 C165 C 0.57421 0.42526 -0.07345
 C166 C 0.57196 0.57676 0.07399
 C167 C 0.42467 0.42504 0.07200
 C168 C 0.42615 0.57662 -0.07577
 C169 C 0.22747 -0.22853 -0.22718
 C170 C 0.20810 -0.20970 -0.20744
 C171 C 0.18511 -0.18711 -0.18399
 C172 C 0.14592 -0.18666 -0.18869
 C173 C 0.12361 -0.16443 -0.16613
 C174 C 0.14041 -0.14256 -0.13878
 C175 C 0.17960 -0.14307 -0.13403
 C176 C 0.20190 -0.16531 -0.15659
 C177 C 0.11752 -0.11942 -0.11580
 C178 C 0.09842 -0.09990 -0.09662
 H179 H 0.13265 -0.20340 -0.20982
 H180 H 0.09334 -0.16421 -0.17006
 H181 H 0.19288 -0.12625 -0.11299
 H182 H 0.23219 -0.16543 -0.15274
 C183 C 0.22670 0.27271 0.27404
 C184 C 0.20742 0.29152 0.29384
 C185 C 0.18455 0.31411 0.31741
 C186 C 0.20150 0.33601 0.34463
 C187 C 0.17932 0.35823 0.36731
 C188 C 0.14009 0.35864 0.36287
 C189 C 0.12313 0.33668 0.33570
 C190 C 0.14532 0.31445 0.31302
 C191 C 0.11732 0.38178 0.38596
 C192 C 0.09830 0.40129 0.40522
 H193 H 0.23181 0.33596 0.34824
 H194 H 0.19272 0.37513 0.38821
 H195 H 0.09283 0.33681 0.33201
 H196 H 0.13193 0.29764 0.29203
 C197 C 0.72662 -0.22725 0.27421
 C198 C 0.70724 -0.20853 0.29399
 C199 C 0.68418 -0.18609 0.31753
 C200 C 0.64486 -0.18930 0.31647
 C201 C 0.62245 -0.16728 0.33916
 C202 C 0.63927 -0.14198 0.36300
 C203 C 0.67859 -0.13882 0.36412
 C204 C 0.70100 -0.16083 0.34143
 C205 C 0.61623 -0.11909 0.38610
 C206 C 0.59701 -0.09978 0.40538
 H207 H 0.63157 -0.20873 0.29807
 H208 H 0.59207 -0.16992 0.33806
 H209 H 0.69189 -0.11933 0.38243
 H210 H 0.73138 -0.15812 0.34245
 C211 C 0.72631 0.27276 -0.22593
 C212 C 0.70696 0.29162 -0.20625
 C213 C 0.68394 0.31427 -0.18290
 C214 C 0.70080 0.33760 -0.15697
 C215 C 0.67844 0.35991 -0.13455
 C216 C 0.63913 0.35898 -0.13798
 C217 C 0.62225 0.33559 -0.16385
 C218 C 0.64462 0.31328 -0.18627
 C219 C 0.61616 0.38219 -0.11516
 C220 C 0.59700 0.40176 -0.09612
 H221 H 0.73118 0.33860 -0.15416
 H222 H 0.69178 0.37791 -0.11465
 H223 H 0.59188 0.33467 -0.16674
 H224 H 0.63129 0.29536 -0.20626
 C225 C -0.22608 0.22731 -0.22644
 C226 C -0.20630 0.20848 -0.20718
 C227 C -0.18275 0.18586 -0.18432
 C228 C -0.15441 0.16517 -0.20109
 C229 C -0.13174 0.14291 -0.17894
 C230 C -0.13732 0.14126 -0.13992
 C231 C -0.16561 0.16202 -0.12314
 C232 C -0.18829 0.18428 -0.14529
 C233 C -0.11422 0.11810 -0.11720
 C234 C -0.09495 0.09858 -0.09821
 H235 H -0.14991 0.16618 -0.23125
 H236 H -0.10996 0.12696 -0.19221
 H237 H -0.17018 0.16093 -0.09300
 H238 H -0.21014 0.20016 -0.13205
 C239 C -0.22581 0.72731 0.27365
 C240 C -0.20610 0.70847 0.29299
 C241 C -0.18263 0.68591 0.31599
 C242 C -0.15992 0.65967 0.29922
 C243 C -0.13727 0.63759 0.32157
 C244 C -0.13724 0.64165 0.36079
 C245 C -0.15991 0.66793 0.37757
 C246 C -0.18257 0.69002 0.35521
 C247 C -0.11414 0.61872 0.38378
 C248 C -0.09486 0.59939 0.40296
 H249 H -0.15977 0.65626 0.26892
 H250 H -0.11986 0.61733 0.30832
 H251 H -0.16012 0.67128 0.40787
 H252 H -0.20004 0.71022 0.36846
 C253 C 0.27422 0.22721 0.27349
 C254 C 0.29384 0.20830 0.29282
 C255 C 0.31712 0.18558 0.31584
 C256 C 0.31792 0.19028 0.35497
 C257 C 0.34029 0.16795 0.37736
 C258 C 0.36195 0.14084 0.36069
 C259 C 0.36120 0.13620 0.32155
 C260 C 0.33883 0.15853 0.29917
 C261 C 0.38473 0.11766 0.38372
 C262 C 0.40376 0.09812 0.40293
 H263 H 0.30121 0.21110 0.36815
 H264 H 0.34064 0.17175 0.40760
 H265 H 0.37782 0.11531 0.30837
 H266 H 0.33840 0.15465 0.26893
 C267 C 0.27263 0.72842 -0.22761
 C268 C 0.29238 0.70962 -0.20823
 C269 C 0.31584 0.68706 -0.18522
 C270 C 0.34380 0.66583 -0.20189
 C271 C 0.36637 0.64363 -0.17957
 C272 C 0.36108 0.64258 -0.14049
 C273 C 0.33318 0.66388 -0.12381
 C274 C 0.31060 0.68608 -0.14613
 C275 C 0.38409 0.61948 -0.11759
 C276 C 0.40329 0.60000 -0.09848
 H277 H 0.34806 0.66637 -0.23209
 H278 H 0.38785 0.62725 -0.19277
 H279 H 0.32883 0.66326 -0.09362
 H280 H 0.28904 0.70238 -0.13296
 C281 C -0.22612 -0.22717 0.22620
 C282 C -0.20666 -0.20838 0.20656
 C283 C -0.18348 -0.18586 0.18322
 C284 C -0.15980 -0.16022 0.19972
 C285 C -0.13742 -0.13817 0.17704
 C286 C -0.13863 -0.14167 0.13778
 C287 C -0.16226 -0.16735 0.12128
 C288 C -0.18464 -0.18941 0.14396
 C289 C -0.11579 -0.11879 0.11448
 C290 C -0.09671 -0.09948 0.09506
 H291 H -0.15871 -0.15725 0.23004
 H292 H -0.11927 -0.11839 0.19009
 H293 H -0.16342 -0.17027 0.09095
 H294 H -0.20287 -0.20914 0.13092
 C295 C -0.22657 0.27270 0.72596
 C296 C -0.20719 0.29150 0.70626
 C297 C -0.18412 0.31409 0.68289
 C298 C -0.20093 0.33705 0.65658
 C299 C -0.17853 0.35930 0.63414
 C300 C -0.13924 0.35867 0.63790
 C301 C -0.12242 0.33563 0.66414
 C302 C -0.14482 0.31338 0.68659
 C303 C -0.11624 0.38183 0.61506
 C304 C -0.09706 0.40137 0.59600
 H305 H -0.23129 0.33783 0.65352
 H306 H -0.19182 0.37703 0.61396
 H307 H -0.09207 0.33495 0.66730
 H308 H -0.13154 0.29574 0.70686
 C309 C 0.27220 -0.22856 0.72724
 C310 C 0.29158 -0.20976 0.70748
 C311 C 0.31458 -0.18720 0.68402
 C312 C 0.29780 -0.16541 0.65662
 C313 C 0.32012 -0.14321 0.63403
 C314 C 0.35931 -0.14272 0.63876
 C315 C 0.37610 -0.16457 0.66610
 C316 C 0.35378 -0.18677 0.68869
 C317 C 0.38221 -0.11961 0.61576
 C318 C 0.40132 -0.10013 0.59656
 H319 H 0.26751 -0.16552 0.65279
 H320 H 0.30684 -0.12640 0.61300
 H321 H 0.40638 -0.16438 0.67001
 H322 H 0.36704 -0.20350 0.70981
 C323 C 0.27388 0.27273 0.22598
 C324 C 0.29325 0.29156 0.20629
 C325 C 0.31624 0.31417 0.18287
 C326 C 0.30631 0.32002 0.14518
 C327 C 0.32846 0.34230 0.12252
 C328 C 0.36062 0.35882 0.13746
 C329 C 0.37060 0.35290 0.17513
 C330 C 0.34845 0.33062 0.19778
 C331 C 0.38322 0.38202 0.11427
 C332 C 0.40213 0.40157 0.09495
 H333 H 0.28145 0.30745 0.13338
 H334 H 0.32048 0.34672 0.09345
 H335 H 0.39539 0.36555 0.18697
 H336 H 0.35636 0.32630 0.22690
 C337 C 0.22617 0.22740 0.22629
 C338 C 0.20647 0.20863 0.20685
 C339 C 0.18310 0.18607 0.18373
 C340 C 0.18873 0.18482 0.14471
 C341 C 0.16628 0.16257 0.12229
 C342 C 0.13812 0.14147 0.13882
 C343 C 0.13242 0.14279 0.17784
 C344 C 0.15486 0.16504 0.20025
 C345 C 0.11528 0.11827 0.11584
 C346 C 0.09621 0.09871 0.09668
 H347 H 0.21051 0.20095 0.13166
 H348 H 0.17094 0.16173 0.09216
 H349 H 0.11074 0.12656 0.19091
 H350 H 0.15030 0.16578 0.23040
 C351 C 0.22702 0.72841 0.72769
 C352 C 0.20726 0.70959 0.70831
 C353 C 0.18381 0.68701 0.68528
 C354 C 0.15553 0.66610 0.70189
 C355 C 0.13297 0.64388 0.67956
 C356 C 0.13858 0.64248 0.64053
 C357 C 0.16680 0.66346 0.62392
 C358 C 0.18937 0.68568 0.64625
 C359 C 0.11561 0.61934 0.61762
 C360 C 0.09643 0.59983 0.59850
 H361 H 0.15102 0.66691 0.73205
 H362 H 0.11125 0.62775 0.69270
 H363 H 0.17140 0.66256 0.59377
 H364 H 0.21117 0.70172 0.63313
 C365 C 0.72572 0.22732 0.72650
 C366 C 0.70591 0.20850 0.70724
 C367 C 0.68234 0.18589 0.68437
 C368 C 0.65357 0.16566 0.70105
 C369 C 0.63089 0.14340 0.67889
 C370 C 0.63687 0.14129 0.63996
 C371 C 0.66557 0.16160 0.62326
 C372 C 0.68826 0.18386 0.64542
 C373 C 0.61377 0.11810 0.61723
 C374 C 0.59451 0.09855 0.59824
 H375 H 0.64877 0.16702 0.73115
 H376 H 0.60879 0.12779 0.69210
 H377 H 0.67046 0.16015 0.59319
 H378 H 0.71045 0.19938 0.63225
 C379 C 0.72615 0.72751 0.22642
 C380 C 0.70637 0.70884 0.20696
 C381 C 0.68284 0.68645 0.18382
 C382 C 0.65339 0.66682 0.20011
 C383 C 0.63069 0.64481 0.17768
 C384 C 0.63735 0.64235 0.13888
 C385 C 0.66675 0.66204 0.12258
 C386 C 0.68945 0.68405 0.14501
 C387 C 0.61423 0.61941 0.11590
 C388 C 0.59492 0.60005 0.09674
 H389 H 0.64805 0.66847 0.23009
 H390 H 0.60806 0.62968 0.19058
 H391 H 0.67216 0.66030 0.09261
 H392 H 0.71216 0.69910 0.13214
   
