data_POSCAR
  _audit_creation_date              2014-09-24
  _audit_creation_method            'ToBaCCo'
  _symmetry_space_group_name_H-M    'P1'
  _symmetry_Int_Tables_number       1
  _symmetry_cell_setting            triclinic
  loop_
  _symmetry_equiv_pos_as_xyz
 x,y,z
_cell_length_a 47.7951
_cell_length_b 48.0037
_cell_length_c 17.0816
_cell_angle_alpha 89.887900
_cell_angle_beta 89.994900
_cell_angle_gamma 121.322100
loop_
  _atom_site_label
  _atom_site_type_symbol
  _atom_site_fract_x
  _atom_site_fract_y
  _atom_site_fract_z
C1 C 0.18948 0.49346 0.43145
 C2 C 0.18119 0.50161 0.50316
 C3 C 0.19128 0.49543 0.57504
 C4 C 0.21503 0.48609 0.57498
 C5 C 0.22587 0.48030 0.50285
 C6 C 0.21282 0.48356 0.43093
 C7 C 0.22539 0.47933 0.36033
 C8 C 0.24854 0.47007 0.36013
 C9 C 0.26085 0.46561 0.43047
 C10 C 0.25003 0.47141 0.50263
 C11 C 0.22992 0.48467 0.64477
 C12 C 0.25306 0.47544 0.64471
 C13 C 0.26361 0.46870 0.57442
 C14 C 0.28615 0.45784 0.57378
 C15 C 0.29460 0.45021 0.50172
 C16 C 0.28361 0.45531 0.43063
 H17 H 0.21800 0.48377 0.30417
 H18 H 0.25666 0.46636 0.30408
 H19 H 0.22426 0.49121 0.70054
 H20 H 0.26224 0.47332 0.70083
 H21 H 0.16292 0.50859 0.50338
 H22 H 0.31301 0.44343 0.50000
 C23 C 0.45699 -0.32655 0.58079
 C24 C 0.45380 -0.34309 0.51120
 C25 C 0.45729 -0.32871 0.43736
 C26 C 0.46419 -0.29604 0.43359
 C27 C 0.46794 -0.27870 0.50452
 C28 C 0.46401 -0.29416 0.57810
 C29 C 0.46857 -0.27647 0.64726
 C30 C 0.47842 -0.24361 0.64483
 C31 C 0.48399 -0.22715 0.57306
 C32 C 0.47838 -0.24500 0.50210
 C33 C 0.47081 -0.27904 0.36207
 C34 C 0.48053 -0.24629 0.35971
 C35 C 0.48505 -0.22875 0.42874
 C36 C 0.49790 -0.19490 0.42657
 C37 C 0.50437 -0.17767 0.49623
 C38 C 0.49773 -0.19285 0.56965
 H39 H 0.46533 -0.28778 0.70415
 H40 H 0.48287 -0.23099 0.70001
 H41 H 0.46992 -0.29020 0.30676
 H42 H 0.48587 -0.23442 0.30307
 H43 H 0.44978 -0.36751 0.51490
 H44 H 0.51359 -0.15170 0.49272
 C45 C 1.21338 0.70171 0.43106
 C46 C 1.20566 0.68482 0.50213
 C47 C 1.21237 0.70122 0.57412
 C48 C 1.23065 0.73589 0.57441
 C49 C 1.24089 0.75330 0.50248
 C50 C 1.23166 0.73610 0.43070
 C51 C 1.24066 0.75363 0.36004
 C52 C 1.25872 0.78749 0.35963
 C53 C 1.26925 0.80530 0.42987
 C54 C 1.25964 0.78802 0.50217
 C55 C 1.24004 0.75360 0.64477
 C56 C 1.25824 0.78747 0.64460
 C57 C 1.26891 0.80526 0.57415
 C58 C 1.28732 0.83985 0.57386
 C59 C 1.29419 0.85627 0.50173
 C60 C 1.28765 0.83993 0.42970
 H61 H 1.23385 0.74126 0.30412
 H62 H 1.26360 0.79950 0.30335
 H63 H 1.23380 0.74149 0.70108
 H64 H 1.26326 0.79954 0.70070
 H65 H 1.19025 0.65843 0.50072
 H66 H 1.31011 0.88252 0.50179
 C67 C 0.67571 0.47330 0.42652
 C68 C 0.66384 0.47772 0.49714
 C69 C 0.67659 0.47598 0.56976
 C70 C 0.70399 0.47179 0.57101
 C71 C 0.71717 0.46849 0.49920
 C72 C 0.70252 0.46863 0.42687
 C73 C 0.71631 0.46620 0.35650
 C74 C 0.74499 0.46548 0.35641
 C75 C 0.76097 0.46711 0.42670
 C76 C 0.74656 0.46765 0.49914
 C77 C 0.72095 0.47473 0.64075
 C78 C 0.74961 0.47398 0.64071
 C79 C 0.76292 0.47021 0.57094
 C80 C 0.79403 0.47292 0.56944
 C81 C 0.80812 0.47369 0.49680
 C82 C 0.79206 0.47038 0.42620
 H83 H 0.70575 0.46612 0.30042
 H84 H 0.75515 0.46479 0.30034
 H85 H 0.71353 0.47970 0.69611
 H86 H 0.76209 0.47840 0.69608
 H87 H 0.64342 0.48163 0.49534
 H88 H 0.83229 0.47677 0.49485
 C89 C 0.47924 0.29813 0.41732
 C90 C 0.47532 0.31111 0.48657
 C91 C 0.47986 0.30115 0.55989
 C92 C 0.48839 0.27708 0.56468
 C93 C 0.49165 0.26299 0.49484
 C94 C 0.48731 0.27375 0.42074
 C95 C 0.49045 0.25942 0.35238
 C96 C 0.49755 0.23478 0.35655
 C97 C 0.50195 0.22376 0.42921
 C98 C 0.49897 0.23790 0.49910
 C99 C 0.49326 0.26641 0.63714
 C100 C 0.50066 0.24196 0.64123
 C101 C 0.50254 0.22650 0.57315
 C102 C 0.50960 0.20114 0.57661
 C103 C 0.51432 0.18895 0.50638
 C104 C 0.50902 0.19874 0.43361
 H105 H 0.48715 0.26698 0.29511
 H106 H 0.49978 0.22453 0.30217
 H107 H 0.49136 0.27684 0.69153
 H108 H 0.50531 0.23561 0.69852
 H109 H 0.46941 0.33008 0.48326
 H110 H 0.51857 0.16883 0.50810
 C111 C 0.72750 0.17016 0.42682
 C112 C 0.71592 0.15397 0.49836
 C113 C 0.72644 0.17021 0.56997
 C114 C 0.74998 0.20400 0.57060
 C115 C 0.76264 0.22083 0.49862
 C116 C 0.75135 0.20386 0.42642
 C117 C 0.76444 0.22095 0.35600
 C118 C 0.78764 0.25420 0.35618
 C119 C 0.79861 0.27158 0.42679
 C120 C 0.78633 0.25480 0.49879
 C121 C 0.76118 0.22140 0.64104
 C122 C 0.78410 0.25469 0.64109
 C123 C 0.79786 0.27183 0.57086
 C124 C 0.82139 0.30590 0.57023
 C125 C 0.83117 0.32226 0.49802
 C126 C 0.82145 0.30542 0.42715
 H127 H 0.75700 0.20870 0.30002
 H128 H 0.79667 0.26633 0.30030
 H129 H 0.75232 0.20949 0.69710
 H130 H 0.79038 0.26692 0.69707
 H131 H 0.69657 0.12846 0.49819
 H132 H 0.84966 0.34809 0.49651
 O133 O 0.95861 0.44305 0.13706
 O134 O 0.92338 0.45116 0.06273
 C135 C 0.92948 0.43607 0.11704
 O136 O 1.05182 0.58961 0.13847
 O137 O 1.08874 0.58132 0.07245
 C138 C 1.08143 0.59694 0.12221
 O139 O 0.96047 0.54020 0.14236
 O140 O 0.92420 0.49728 0.06560
 C141 C 0.93100 0.51789 0.12222
 O142 O 1.04977 0.48694 0.13945
 O143 O 1.08741 0.53327 0.07355
 C144 C 1.07951 0.51040 0.12501
 Zr145 Zr 1.00503 0.47973 0.09536
 O146 O 1.00582 0.47697 0.21891
 O147 O 1.00334 0.43514 0.08171
 Zr148 Zr 1.00618 0.55103 0.09778
 O149 O 1.00851 0.55338 0.22148
 O150 O 1.00267 0.59322 0.09408
 O151 O 0.97643 0.50056 0.11030
 O152 O 1.03356 0.52947 0.11361
 O153 O 1.05326 0.49001 -0.13779
 O154 O 1.08925 0.53490 -0.06547
 C155 C 1.08254 0.51308 -0.11890
 O156 O 0.96475 0.54283 -0.14970
 O157 O 0.92616 0.49901 -0.07856
 C158 C 0.93473 0.52028 -0.13473
 O159 O 1.05556 0.59274 -0.13136
 O160 O 1.09045 0.58281 -0.06110
 C161 C 1.08461 0.59946 -0.11128
 O162 O 0.96233 0.44629 -0.14946
 O163 O 0.92542 0.45324 -0.07909
 C164 C 0.93289 0.43952 -0.13383
 Zr165 Zr 1.00754 0.48194 -0.09977
 O166 O 1.01228 0.48363 -0.22322
 O167 O 1.00368 0.43595 -0.09556
 Zr168 Zr 1.00894 0.55342 -0.09715
 O169 O 1.01448 0.55968 -0.21991
 O170 O 1.00507 0.59533 -0.08868
 Zr171 Zr 0.95757 0.49175 -0.00462
 Zr172 Zr 1.05604 0.54128 0.00261
 O173 O 1.03655 0.53208 -0.11143
 O174 O 0.97959 0.50332 -0.11644
 O175 O 1.03603 0.49048 -0.00016
 O176 O 0.97847 0.54258 -0.00183
 O177 O 0.97705 0.46122 -0.00443
 O178 O 1.03730 0.57257 0.00269
 H179 H 1.04711 0.53634 0.16167
 H180 H 0.96338 0.55094 -0.00270
 H181 H 1.05132 0.54003 -0.15749
 H182 H 0.96170 0.43730 -0.00627
 H183 H 1.02297 0.61100 0.06987
 H184 H 1.02556 0.61302 -0.06514
 H185 H 1.00227 0.53770 -0.24336
 H186 H 0.99561 0.48777 -0.24509
 H187 H 1.02226 0.43849 -0.06414
 H188 H 1.00211 0.42664 0.13531
 H189 H 0.99095 0.48378 0.23943
 H190 H 0.99246 0.53138 0.24152
 O191 O 0.42643 0.46886 0.14132
 O192 O 0.43231 0.51312 0.07433
 C193 C 0.41795 0.48996 0.12571
 O194 O 0.57373 0.53267 0.13745
 O195 O 0.56743 0.49045 0.06141
 C196 C 0.58203 0.51205 0.11612
 O197 O 0.52071 0.56729 0.15776
 O198 O 0.47763 0.56091 0.08429
 C199 C 0.49762 0.57313 0.14343
 O200 O 0.47359 0.42663 0.12462
 O201 O 0.52046 0.44066 0.05580
 C202 C 0.49724 0.42224 0.10466
 Zr203 Zr 0.46471 0.46401 0.09395
 O204 O 0.46482 0.45910 0.21716
 O205 O 0.42049 0.41864 0.08217
 Zr206 Zr 0.53481 0.53812 0.09955
 O207 O 0.54083 0.53937 0.22236
 O208 O 0.57591 0.58623 0.09283
 O209 O 0.48414 0.51331 0.11556
 O210 O 0.51484 0.48832 0.10884
 O211 O 0.47412 0.43194 -0.14356
 O212 O 0.52064 0.44323 -0.07709
 C213 C 0.49760 0.42670 -0.12761
 O214 O 0.52277 0.57593 -0.13715
 O215 O 0.47831 0.56444 -0.06135
 C216 C 0.49952 0.58074 -0.11608
 O217 O 0.57324 0.53763 -0.14217
 O218 O 0.56742 0.49314 -0.07674
 C219 C 0.58142 0.51615 -0.12887
 O220 O 0.42717 0.47445 -0.14082
 O221 O 0.43244 0.51602 -0.06356
 C222 C 0.41826 0.49452 -0.11874
 Zr223 Zr 0.46521 0.46812 -0.10129
 O224 O 0.46688 0.46902 -0.22519
 O225 O 0.42005 0.42313 -0.10390
 Zr226 Zr 0.53508 0.54235 -0.09470
 O227 O 0.54038 0.54907 -0.21724
 O228 O 0.57694 0.58945 -0.07872
 Zr229 Zr 0.47328 0.52471 0.00459
 Zr230 Zr 0.52636 0.48155 -0.00572
 O231 O 0.51522 0.49307 -0.11593
 O232 O 0.48445 0.51819 -0.11101
 O233 O 0.47555 0.44751 -0.00711
 O234 O 0.52406 0.55835 0.00631
 O235 O 0.44448 0.47348 -0.00112
 O236 O 0.55644 0.53281 -0.00042
 H237 H 0.52216 0.48085 0.15419
 H238 H 0.53132 0.58177 0.01013
 H239 H 0.52233 0.48720 -0.16442
 H240 H 0.42028 0.46256 -0.00104
 H241 H 0.59486 0.58487 0.07485
 H242 H 0.59562 0.58681 -0.06583
 H243 H 0.52169 0.52948 -0.24092
 H244 H 0.46774 0.48910 -0.24275
 H245 H 0.42179 0.40820 -0.06692
 H246 H 0.41344 0.41009 0.13600
 H247 H 0.46729 0.47913 0.24041
 H248 H 0.52095 0.52001 0.24333
 O249 O 0.52294 -0.04854 0.14081
 O250 O 0.47680 -0.08035 0.06728
 C251 C 0.49777 -0.07651 0.12077
 O252 O 0.48855 0.05690 0.13594
 O253 O 0.53599 0.08899 0.06697
 C254 C 0.51398 0.08492 0.11785
 O255 O 0.43334 -0.03342 0.14158
 O256 O 0.43431 -0.07291 0.06839
 C257 C 0.42169 -0.06356 0.12189
 O258 O 0.58270 0.04210 0.13462
 O259 O 0.58023 0.08195 0.06595
 C260 C 0.59398 0.07239 0.11593
 Zr261 Zr 0.53936 -0.00090 0.09844
 O262 O 0.54181 0.00184 0.22218
 O263 O 0.57884 -0.00885 0.09207
 Zr264 Zr 0.47464 0.00957 0.09850
 O265 O 0.47731 0.01259 0.22220
 O266 O 0.43212 0.01281 0.09921
 O267 O 0.48872 -0.02459 0.11388
 O268 O 0.52474 0.03238 0.11307
 O269 O 0.58307 0.04250 -0.13343
 O270 O 0.58035 0.08222 -0.06524
 C271 C 0.59422 0.07275 -0.11496
 O272 O 0.43370 -0.03349 -0.14158
 O273 O 0.43450 -0.07323 -0.06820
 C274 C 0.42203 -0.06372 -0.12177
 O275 O 0.48936 0.05764 -0.13692
 O276 O 0.53680 0.08927 -0.06737
 C277 C 0.51521 0.08541 -0.11917
 O278 O 0.52321 -0.04794 -0.14139
 O279 O 0.47699 -0.08021 -0.06832
 C280 C 0.49808 -0.07607 -0.12189
 Zr281 Zr 0.53945 -0.00056 -0.09855
 O282 O 0.54152 0.00321 -0.22222
 O283 O 0.57809 -0.00993 -0.09946
 Zr284 Zr 0.47472 0.00991 -0.09870
 O285 O 0.47662 0.01322 -0.22238
 O286 O 0.43220 0.01316 -0.09753
 Zr287 Zr 0.47653 -0.04379 -0.00035
 Zr288 Zr 0.53748 0.05276 0.00007
 O289 O 0.52484 0.03268 -0.11310
 O290 O 0.48887 -0.02417 -0.11443
 O291 O 0.56259 0.02743 0.00010
 O292 O 0.45223 -0.01769 -0.00021
 O293 O 0.52622 -0.02973 -0.00017
 O294 O 0.48798 0.03961 -0.00000
 H295 H 0.53395 0.04680 0.15931
 H296 H 0.42798 -0.02974 -0.00021
 H297 H 0.53422 0.04712 -0.15940
 H298 H 0.53214 -0.04668 -0.00036
 H299 H 0.43662 0.03158 0.06592
 H300 H 0.43743 0.03295 -0.06781
 H301 H 0.47619 -0.00630 -0.24252
 H302 H 0.51998 -0.01393 -0.24266
 H303 H 0.59299 0.00273 -0.05604
 H304 H 0.58512 -0.00978 0.14687
 H305 H 0.51973 -0.01412 0.24241
 H306 H 0.47541 -0.00769 0.24211
 C307 C 1.14731 0.51731 0.29303
 C308 C 1.13118 0.48968 0.24489
 N309 N 1.13625 0.46465 0.25642
 C310 C 1.15656 0.46590 0.31408
 C311 C 1.17199 0.49316 0.36441
 N312 N 1.16648 0.51801 0.35252
 N313 N 1.14291 0.54269 0.28087
 C314 C 1.12274 0.54154 0.22329
 C315 C 1.10538 0.51342 0.17720
 N316 N 1.10990 0.48794 0.18923
 H317 H 1.15906 0.44499 0.32339
 H318 H 1.11884 0.56163 0.21631
 C319 C 0.48481 0.62643 0.32238
 C320 C 0.46763 0.62057 0.25179
 N321 N 0.44675 0.63168 0.24346
 C322 C 0.44267 0.64861 0.30212
 C323 C 0.46014 0.65455 0.37291
 N324 N 0.48029 0.64262 0.38075
 N325 N 0.50605 0.61614 0.33177
 C326 C 0.51099 0.59999 0.27392
 C327 C 0.49350 0.59320 0.20293
 N328 N 0.47199 0.60367 0.19351
 H329 H 0.42537 0.65652 0.29443
 H330 H 0.52804 0.59197 0.28447
 C331 C 0.34167 -0.13202 0.25909
 C332 C 0.35035 -0.09932 0.25515
 N333 N 0.33470 -0.08869 0.30106
 C334 C 0.31176 -0.10890 0.35367
 C335 C 0.30462 -0.14124 0.36285
 N336 N 0.31935 -0.15206 0.31318
 N337 N 0.35751 -0.14251 0.21289
 C338 C 0.38228 -0.12148 0.16454
 C339 C 0.39229 -0.08826 0.16419
 N340 N 0.37556 -0.07824 0.20873
 H341 H 0.29993 -0.09943 0.38962
 H342 H 0.39475 -0.13038 0.12916
 C343 C 0.85919 0.50886 0.28103
 C344 C 0.85293 0.48236 0.23360
 N345 N 0.82535 0.45281 0.24624
 C346 C 0.80412 0.44849 0.30500
 C347 C 0.81099 0.47483 0.35387
 N348 N 0.83835 0.50440 0.34017
 N349 N 0.88700 0.53818 0.27034
 C350 C 0.90941 0.54212 0.21575
 C351 C 0.90410 0.51541 0.17017
 N352 N 0.87559 0.48616 0.17944
 H353 H 0.78281 0.42456 0.31544
 H354 H 0.93173 0.56568 0.20997
 C355 C 0.50081 0.35164 0.24375
 C356 C 0.47115 0.35032 0.23064
 N357 N 0.44400 0.32883 0.27141
 C358 C 0.44538 0.30931 0.32691
 C359 C 0.47541 0.31188 0.34362
 N360 N 0.50242 0.33272 0.30076
 N361 N 0.52809 0.37384 0.20408
 C362 C 0.52726 0.39544 0.15366
 C363 C 0.49802 0.39543 0.14435
 N364 N 0.47059 0.37241 0.18232
 H365 H 0.42373 0.29333 0.36105
 H366 H 0.54960 0.41359 0.12488
 C367 C 0.67294 0.14148 0.25372
 C368 C 0.66614 0.10940 0.24691
 N369 N 0.68290 0.09951 0.29139
 C370 C 0.70536 0.11989 0.34455
 C371 C 0.71069 0.15135 0.35544
 N372 N 0.69463 0.16153 0.30858
 N373 N 0.65590 0.15121 0.20959
 C374 C 0.63172 0.13004 0.16059
 C375 C 0.62347 0.09733 0.15737
 N376 N 0.64135 0.08803 0.19993
 H377 H 0.71756 0.11102 0.38128
 H378 H 0.61811 0.13831 0.12742
 C379 C 0.53000 0.15739 -0.28216
 C380 C 0.50263 0.14389 -0.23242
 N381 N 0.47960 0.15204 -0.24264
 C382 C 0.48242 0.17270 -0.30105
 C383 C 0.50902 0.18500 -0.35378
 N384 N 0.53203 0.17672 -0.34261
 N385 N 0.55334 0.14972 -0.27156
 C386 C 0.55021 0.12857 -0.21440
 C387 C 0.52195 0.11350 -0.16752
 N388 N 0.49872 0.12154 -0.17758
 H389 H 0.46287 0.17751 -0.30954
 H390 H 0.56855 0.12191 -0.20904
 C391 C 0.64084 0.51000 -0.30220
 C392 C 0.62993 0.48840 -0.23845
 N393 N 0.63603 0.46371 -0.23743
 C394 C 0.65241 0.45962 -0.29745
 C395 C 0.66255 0.48078 -0.36272
 N396 N 0.65609 0.50527 -0.36296
 N397 N 0.63528 0.53491 -0.30357
 C398 C 0.61847 0.53883 -0.24501
 C399 C 0.60567 0.51619 -0.18282
 N400 N 0.61210 0.49159 -0.18072
 H401 H 0.65600 0.43915 -0.29595
 H402 H 0.61390 0.55863 -0.24922
 C403 C 0.86398 0.37520 -0.29743
 C404 C 0.87852 0.36404 -0.24465
 N405 N 0.87195 0.33302 -0.25065
 C406 C 0.85172 0.31268 -0.30749
 C407 C 0.83790 0.32409 -0.36251
 N408 N 0.84479 0.35536 -0.35580
 N409 N 0.87031 0.40614 -0.29146
 C410 C 0.89098 0.42663 -0.23565
 C411 C 0.90667 0.41602 -0.18494
 N412 N 0.90010 0.38488 -0.19059
 H413 H 0.84836 0.28866 -0.31271
 H414 H 0.89643 0.45147 -0.23346
 C415 C 0.48608 -0.15523 -0.25764
 C416 C 0.51520 -0.12462 -0.25953
 N417 N 0.53919 -0.11900 -0.31065
 C418 C 0.53500 -0.14215 -0.36250
 C419 C 0.50517 -0.17246 -0.36452
 N420 N 0.48160 -0.17851 -0.31033
 N421 N 0.46186 -0.16016 -0.20728
 C422 C 0.46524 -0.13567 -0.16011
 C423 C 0.49396 -0.10463 -0.16457
 N424 N 0.51831 -0.10024 -0.21363
 H425 H 0.55439 -0.13653 -0.40401
 H426 H 0.44537 -0.14010 -0.12154
 C427 C 0.34057 0.48539 -0.25644
 C428 C 0.34723 0.46027 -0.25077
 N429 N 0.33084 0.43347 -0.29628
 C430 C 0.30881 0.43104 -0.34984
 C431 C 0.30298 0.45680 -0.35941
 N432 N 0.31866 0.48319 -0.31083
 N433 N 0.35802 0.51260 -0.21173
 C434 C 0.38229 0.51600 -0.16308
 C435 C 0.38982 0.49132 -0.16046
 N436 N 0.37160 0.46394 -0.20372
 H437 H 0.29658 0.40951 -0.38632
 H438 H 0.39633 0.53817 -0.12955
 C439 C 1.15797 0.67084 -0.25661
 C440 C 1.15605 0.64112 -0.24236
 N441 N 1.17442 0.63283 -0.28558
 C442 C 1.19420 0.65262 -0.34376
 C443 C 1.19627 0.68253 -0.35879
 N444 N 1.17820 0.69092 -0.31373
 N445 N 1.13746 0.67778 -0.21800
 C446 C 1.11460 0.65596 -0.16706
 C447 C 1.11245 0.62605 -0.15343
 N448 N 1.13364 0.61968 -0.19064
 H449 H 1.20805 0.64499 -0.37830
 H450 H 1.09772 0.66149 -0.13913
 C451 C 0.86659 0.50898 -0.30762
 C452 C 0.85575 0.48889 -0.24107
 N453 N 0.82386 0.46428 -0.23677
 C454 C 0.80249 0.45889 -0.29612
 C455 C 0.81367 0.47866 -0.36385
 N456 N 0.84566 0.50302 -0.36728
 N457 N 0.89809 0.53374 -0.31273
 C458 C 0.91972 0.53901 -0.25507
 C459 C 0.90970 0.51800 -0.18964
 N460 N 0.87763 0.49351 -0.18377
 H461 H 0.77752 0.43852 -0.29203
 H462 H 0.94486 0.55872 -0.26221
 C463 C 0.50103 0.35714 -0.27138
 C464 C 0.47205 0.35763 -0.26311
 N465 N 0.44549 0.33739 -0.30696
 C466 C 0.44676 0.31714 -0.36024
 C467 C 0.47608 0.31747 -0.37115
 N468 N 0.50253 0.33734 -0.32578
 N469 N 0.52772 0.37786 -0.22816
 C470 C 0.52695 0.39951 -0.17817
 C471 C 0.49837 0.40101 -0.17255
 N472 N 0.47152 0.37968 -0.21473
 H473 H 0.42555 0.30194 -0.39632
 H474 H 0.54884 0.41626 -0.14588
 C475 C 0.67203 0.14154 -0.25598
 C476 C 0.66556 0.10960 -0.24823
 N477 N 0.68217 0.09967 -0.29303
 C478 C 0.70421 0.11989 -0.34729
 C479 C 0.70922 0.15120 -0.35897
 N480 N 0.69323 0.16140 -0.31202
 N481 N 0.65531 0.15138 -0.21108
 C482 C 0.63167 0.13038 -0.16051
 C483 C 0.62359 0.09772 -0.15672
 N484 N 0.64124 0.08837 -0.19991
 H485 H 0.71647 0.11107 -0.38386
 H486 H 0.61824 0.13868 -0.12675
 C487 C 1.14967 0.52012 -0.28762
 C488 C 1.13650 0.49430 -0.23346
 N489 N 1.14325 0.47027 -0.24120
 C490 C 1.16244 0.47078 -0.30075
 C491 C 1.17504 0.49623 -0.35668
 N492 N 1.16784 0.52006 -0.34848
 N493 N 1.14295 0.54416 -0.28045
 C494 C 1.12331 0.54335 -0.22201
 C495 C 1.10914 0.51708 -0.16935
 N496 N 1.11586 0.49289 -0.17655
 H497 H 1.16613 0.45048 -0.30689
 H498 H 1.11689 0.56179 -0.21991
 C499 C 0.49174 0.64689 -0.26357
 C500 C 0.46351 0.62016 -0.23098
 N501 N 0.43354 0.61330 -0.25562
 C502 C 0.43055 0.63154 -0.31249
 C503 C 0.45880 0.65777 -0.34642
 N504 N 0.48873 0.66488 -0.32056
 N505 N 0.52171 0.65289 -0.24223
 C506 C 0.52482 0.63294 -0.19117
 C507 C 0.49669 0.60556 -0.16010
 N508 N 0.46659 0.60008 -0.17999
 H509 H 0.40647 0.62488 -0.33331
 H510 H 0.54902 0.63785 -0.17673
 C511 C 0.34191 -0.13217 -0.25749
 C512 C 0.35020 -0.09961 -0.25278
 N513 N 0.33413 -0.08908 -0.29761
 C514 C 0.31112 -0.10926 -0.34988
 C515 C 0.30426 -0.14146 -0.35951
 N516 N 0.31943 -0.15219 -0.31098
 N517 N 0.35838 -0.14249 -0.21302
 C518 C 0.38334 -0.12144 -0.16545
 C519 C 0.39275 -0.08838 -0.16390
 N520 N 0.37550 -0.07850 -0.20692
 H521 H 0.29903 -0.09989 -0.38534
 H522 H 0.39647 -0.13014 -0.13180
 C523 C 0.48387 -0.15636 0.25604
 C524 C 0.51507 -0.12827 0.24738
 N525 N 0.54067 -0.12533 0.28875
 C526 C 0.53626 -0.14865 0.34085
 C527 C 0.50467 -0.17573 0.35387
 N528 N 0.47922 -0.17922 0.31006
 N529 N 0.45828 -0.15900 0.21493
 C530 C 0.46232 -0.13442 0.16719
 C531 C 0.49312 -0.10545 0.16241
 N532 N 0.51884 -0.10341 0.20186
 H533 H 0.55676 -0.14505 0.37588
 H534 H 0.44144 -0.13694 0.13604
 C535 C 0.34155 0.48315 0.26452
 C536 C 0.34486 0.45602 0.25359
 N537 N 0.32489 0.42792 0.29294
 C538 C 0.30243 0.42603 0.34487
 C539 C 0.30031 0.45370 0.35943
 N540 N 0.31971 0.48154 0.31792
 N541 N 0.36191 0.51138 0.22592
 C542 C 0.38588 0.51392 0.17799
 C543 C 0.39020 0.48722 0.16982
 N544 N 0.36924 0.45879 0.20736
 H545 H 0.28771 0.40378 0.37799
 H546 H 0.40216 0.53692 0.14909
 C547 C 1.15207 0.66786 0.27253
 C548 C 1.15583 0.64264 0.24357
 N549 N 1.17981 0.63845 0.27301
 C550 C 1.19988 0.65803 0.33109
 C551 C 1.19579 0.68295 0.36077
 N552 N 1.17207 0.68734 0.33022
 N553 N 1.12704 0.67102 0.24663
 C554 C 1.10496 0.64953 0.19444
 C555 C 1.10803 0.62368 0.16689
 N556 N 1.13382 0.62123 0.19115
 H557 H 1.21825 0.65373 0.35524
 H558 H 1.08465 0.65204 0.17642
 C559 C 0.52668 0.16074 0.26634
 C560 C 0.49562 0.13290 0.25410
 N561 N 0.46960 0.12855 0.29629
 C562 C 0.47332 0.15052 0.35144
 C563 C 0.50452 0.17774 0.36610
 N564 N 0.53061 0.18242 0.32289
 N565 N 0.55261 0.16476 0.22394
 C566 C 0.54900 0.14181 0.17128
 C567 C 0.51822 0.11314 0.16211
 N568 N 0.49226 0.10974 0.20336
 H569 H 0.45235 0.14625 0.38559
 H570 H 0.57020 0.14521 0.13985
 C571 C 0.64693 0.50832 0.27601
 C572 C 0.62590 0.48083 0.23075
 N573 N 0.62333 0.45185 0.24691
 C574 C 0.64042 0.44901 0.30709
 C575 C 0.66065 0.47629 0.35385
 N576 N 0.66348 0.50533 0.33672
 N577 N 0.64898 0.53709 0.26162
 C578 C 0.63018 0.53950 0.20564
 C579 C 0.60782 0.51172 0.16266
 N580 N 0.60664 0.48306 0.17549
 H581 H 0.63740 0.42553 0.32018
 H582 H 0.63163 0.56258 0.19718
 C583 C 0.85575 0.36520 0.26378
 C584 C 0.88397 0.36433 0.24604
 N585 N 0.88920 0.34221 0.28189
 C586 C 0.86783 0.32133 0.33624
 C587 C 0.84044 0.32318 0.35712
 N588 N 0.83487 0.34503 0.32014
 N589 N 0.85065 0.38736 0.22718
 C590 C 0.87291 0.40918 0.17513
 C591 C 0.90210 0.40957 0.16108
 N592 N 0.90662 0.38679 0.19645
 H593 H 0.87297 0.30451 0.36580
 H594 H 0.86860 0.42698 0.14797
   
