data_POSCAR
  _audit_creation_date              2014-09-24
  _audit_creation_method            'ToBaCCo'
  _symmetry_space_group_name_H-M    'P1'
  _symmetry_Int_Tables_number       1
  _symmetry_cell_setting            triclinic
  loop_
  _symmetry_equiv_pos_as_xyz
 x,y,z
_cell_length_a 23.1288
_cell_length_b 23.3038
_cell_length_c 23.2052
_cell_angle_alpha 96.676600
_cell_angle_beta 87.818300
_cell_angle_gamma 80.658400
loop_
  _atom_site_label
  _atom_site_type_symbol
  _atom_site_fract_x
  _atom_site_fract_y
  _atom_site_fract_z
O1 O 0.58560 0.48716 0.04279
 O2 O 0.42305 0.51976 0.05230
 O3 O 0.50276 0.42620 0.05104
 O4 O 0.50630 0.58231 0.04824
 O5 O 0.50107 0.57122 -0.04725
 O6 O 0.50399 0.41263 -0.04491
 O7 O 0.42388 0.50220 -0.04325
 O8 O 0.58472 0.47901 -0.05291
 Cu9 Cu 0.50461 0.50534 0.05819
 Cu10 Cu 0.50401 0.49020 -0.05681
 C11 C 0.61271 0.47751 -0.00697
 C12 C 0.39569 0.51508 0.00582
 C13 C 0.50264 0.39286 0.00381
 C14 C 0.50274 0.60359 0.00043
 O15 O -0.04386 0.59276 0.51866
 O16 O -0.05320 0.43494 0.50273
 O17 O -0.04373 0.51557 0.58921
 O18 O -0.05397 0.51437 0.43167
 O19 O 0.04183 0.48441 0.41868
 O20 O 0.05298 0.49911 0.57749
 O21 O 0.04360 0.41420 0.49735
 O22 O 0.05164 0.57066 0.49813
 Cu23 Cu -0.05848 0.51631 0.51167
 Cu24 Cu 0.05726 0.49005 0.49676
 C25 C 0.00549 0.60872 0.51026
 C26 C -0.00606 0.39768 0.49825
 C27 C 0.00636 0.50933 0.61043
 C28 C -0.00804 0.49791 0.39835
 O29 O 0.47453 0.04426 0.59982
 O30 O 0.48708 0.05917 0.44459
 O31 O 0.40992 0.04316 0.51581
 O32 O 0.56439 0.05791 0.52761
 O33 O 0.59100 -0.03821 0.51193
 O34 O 0.43606 -0.05251 0.49301
 O35 O 0.52284 -0.03532 0.42489
 O36 O 0.50514 -0.05105 0.58086
 Cu37 Cu 0.48395 0.06074 0.52433
 Cu38 Cu 0.51638 -0.05408 0.50064
 C39 C 0.48654 -0.00589 0.61707
 C40 C 0.50640 0.01455 0.40826
 C41 C 0.39659 -0.00704 0.50127
 C42 C 0.60389 0.01266 0.52241
 C43 C 0.53311 0.12388 -0.09336
 C44 C 0.52989 0.07849 -0.13575
 C45 C 0.50527 0.03729 -0.10896
 N46 N 0.49368 0.05576 -0.05172
 C47 C 0.51038 0.10878 -0.04218
 C48 C 0.48872 -0.01374 -0.13792
 C49 C 0.47772 -0.06083 -0.10791
 C50 C 0.45306 -0.10813 -0.13131
 C51 C 0.45449 -0.14598 -0.08994
 C52 C 0.47853 -0.12016 -0.04169
 N53 N 0.49305 -0.06859 -0.05322
 C54 C 0.49003 -0.14601 0.00979
 C55 C 0.50043 -0.11423 0.06312
 C56 C 0.51251 -0.13875 0.11394
 C57 C 0.51525 -0.09340 0.15635
 C58 C 0.50492 -0.04244 0.13025
 N59 N 0.49503 -0.05525 0.07345
 C60 C 0.49983 0.01488 0.15988
 C61 C 0.48939 0.06566 0.13119
 C62 C 0.46877 0.12201 0.15812
 C63 C 0.46752 0.15868 0.11583
 C64 C 0.48896 0.12419 0.06432
 N65 N 0.50189 0.06750 0.07401
 C66 C 0.50011 0.14571 0.01107
 H67 H 0.54975 0.16366 -0.09958
 H68 H 0.54363 0.07627 -0.18117
 H69 H 0.52453 0.03325 0.04483
 H70 H 0.43624 -0.11527 -0.17393
 H71 H 0.43941 -0.18772 -0.09519
 H72 H 0.51711 -0.18442 0.12058
 H73 H 0.52224 -0.09771 0.20157
 H74 H 0.45298 0.20559 0.12275
 H75 H 0.51801 -0.04353 -0.02767
 H76 H 0.45583 0.13601 0.20344
 C77 C -0.06656 0.44498 0.84908
 C78 C -0.10869 0.43354 0.88745
 C79 C -0.09888 0.46135 0.94149
 N80 N -0.05169 0.48829 0.93758
 C81 C -0.03209 0.47856 0.88125
 C82 C -0.13607 0.46763 0.99234
 C83 C -0.11617 0.48675 1.04718
 C84 C -0.15168 0.50938 1.09671
 C85 C -0.11509 0.51637 1.14137
 C86 C -0.05795 0.49944 1.11772
 N87 N -0.05909 0.48164 1.06025
 C88 C -0.00670 0.49451 1.14952
 C89 C 0.04982 0.49198 1.12290
 C90 C 0.10261 0.47789 1.14856
 C91 C 0.14620 0.48460 1.10924
 C92 C 0.11856 0.50453 1.06166
 N93 N 0.05974 0.50865 1.07007
 C94 C 0.14609 0.52249 1.01287
 C95 C 0.11429 0.53467 0.96357
 C96 C 0.12912 0.56952 0.92263
 C97 C 0.09154 0.56419 0.87852
 C98 C 0.05479 0.52633 0.89385
 N99 N 0.06850 0.50904 0.94600
 C100 C 0.01280 0.50496 0.85837
 H101 H -0.06207 0.43073 0.80280
 H102 H -0.14307 0.40845 0.87653
 H103 H 0.05247 0.47590 0.96494
 H104 H -0.19909 0.51939 1.10076
 H105 H -0.12966 0.53169 1.18610
 H106 H 0.10950 0.46438 1.19112
 H107 H 0.19272 0.47596 1.11555
 H108 H 0.09181 0.58525 0.83936
 H109 H -0.02314 0.46038 1.03317
 H110 H 0.16391 0.59552 0.92403
 C111 C 0.15328 -0.10708 0.52665
 C112 C 0.11385 -0.14429 0.53418
 C113 C 0.06263 -0.12118 0.50991
 N114 N 0.06939 -0.07119 0.48828
 C115 C 0.12459 -0.06251 0.49838
 C116 C 0.01123 -0.14654 0.50470
 C117 C -0.04201 -0.11254 0.49151
 C118 C -0.08952 -0.13445 0.46823
 C119 C -0.13485 -0.08779 0.47053
 C120 C -0.11359 -0.03867 0.49479
 N121 N -0.05667 -0.05389 0.50628
 C122 C -0.14774 0.01723 0.51188
 C123 C -0.12182 0.06830 0.51770
 C124 C -0.14822 0.12343 0.54371
 C125 C -0.10894 0.16071 0.53586
 C126 C -0.06005 0.12695 0.50540
 N127 N -0.06805 0.07066 0.49450
 C128 C -0.00970 0.14737 0.48534
 C129 C 0.04187 0.10747 0.46536
 C130 C 0.08719 0.11951 0.43030
 C131 C 0.13230 0.07285 0.42854
 C132 C 0.11311 0.03357 0.46236
 N133 N 0.05758 0.05441 0.48369
 C134 C 0.14897 -0.01564 0.47991
 H135 H 0.19759 -0.11198 0.54099
 H136 H 0.12198 -0.18330 0.55573
 H137 H 0.03537 0.03757 0.51605
 H138 H -0.09177 -0.17956 0.45248
 H139 H -0.17881 -0.08997 0.45705
 H140 H -0.19103 0.13560 0.56629
 H141 H -0.11551 0.20706 0.55127
 H142 H 0.17509 0.06911 0.40650
 H143 H -0.03193 -0.02718 0.53042
 H144 H 0.08833 0.15858 0.40953
 C145 C -0.29136 0.48007 0.94132
 C146 C -0.32263 0.46450 0.98812
 C147 C -0.28989 0.43658 1.03012
 C148 C -0.22819 0.43238 1.02879
 C149 C -0.19852 0.45871 0.98720
 C150 C -0.23133 0.47862 0.94177
 C151 C -0.23411 0.53346 0.91397
 C152 C -0.30007 0.53498 0.91313
 H153 H -0.31206 0.42038 1.06526
 H154 H -0.20445 0.41258 1.06278
 H155 H -0.21177 0.52549 0.86982
 H156 H -0.22166 0.57010 0.94338
 H157 H -0.31567 0.52784 0.86857
 H158 H -0.32584 0.57234 0.94191
 C159 C 0.30507 0.50773 0.95810
 C160 C 0.33419 0.52396 1.00769
 C161 C 0.29882 0.54966 1.05813
 C162 C 0.23709 0.55311 1.05936
 C163 C 0.20977 0.52800 1.01141
 C164 C 0.24515 0.50869 0.96040
 C165 C 0.24974 0.45392 0.91921
 C166 C 0.31578 0.45241 0.91658
 H167 H 0.31867 0.56604 1.09686
 H168 H 0.21129 0.57284 1.09867
 H169 H 0.22960 0.46205 0.87754
 H170 H 0.23590 0.41728 0.94000
 H171 H 0.33367 0.45935 0.87327
 H172 H 0.34035 0.41475 0.93570
 C173 C 0.05981 -0.31197 0.49549
 C174 C 0.00923 -0.33146 0.51528
 C175 C -0.03723 -0.28820 0.54161
 C176 C -0.03476 -0.22809 0.54206
 C177 C 0.01264 -0.20948 0.51342
 C178 C 0.06074 -0.25288 0.49341
 C179 C 0.09631 -0.26385 0.43716
 C180 C 0.09560 -0.32875 0.43923
 H181 H -0.07607 -0.30056 0.56087
 H182 H -0.07155 -0.19632 0.56202
 H183 H 0.14067 -0.25195 0.44179
 H184 H 0.07169 -0.24595 0.40115
 H185 H 0.13958 -0.35409 0.44504
 H186 H 0.07101 -0.34861 0.40416
 C187 C 0.04009 0.29529 0.50723
 C188 C -0.00803 0.33433 0.49274
 C189 C -0.05533 0.31039 0.46864
 C190 C -0.05573 0.24942 0.46441
 C191 C -0.00951 0.21147 0.48552
 C192 C 0.03899 0.23586 0.50435
 C193 C 0.07120 0.23028 0.55836
 C194 C 0.07224 0.29568 0.56187
 H195 H -0.09215 0.33870 0.45376
 H196 H -0.09278 0.23227 0.44621
 H197 H 0.11541 0.20304 0.54944
 H198 H 0.04404 0.21831 0.59424
 H199 H 0.11711 0.30604 0.55541
 H200 H 0.04553 0.32178 0.59976
 C201 C 0.50324 -0.06248 -0.30088
 C202 C 0.47895 -0.01134 -0.32373
 C203 C 0.44726 0.03487 -0.28429
 C204 C 0.44649 0.03200 -0.22401
 C205 C 0.47938 -0.01594 -0.20142
 C206 C 0.50423 -0.06421 -0.24129
 C207 C 0.56405 -0.10006 -0.24575
 C208 C 0.56337 -0.09828 -0.31105
 H209 H 0.42483 0.07426 -0.29962
 H210 H 0.42366 0.06915 -0.19491
 H211 H 0.56357 -0.14456 -0.23314
 H212 H 0.59702 -0.07605 -0.22470
 H213 H 0.56281 -0.14186 -0.33602
 H214 H 0.59615 -0.07340 -0.32796
 C215 C 0.45805 0.04771 0.32146
 C216 C 0.50798 0.02086 0.34612
 C217 C 0.55899 0.00041 0.30964
 C218 C 0.55745 0.00194 0.24910
 C219 C 0.50441 0.02206 0.22404
 C220 C 0.45606 0.04726 0.26180
 C221 C 0.39408 0.03715 0.26182
 C222 C 0.39603 0.03763 0.32736
 H223 H 0.59922 -0.01849 0.32762
 H224 H 0.59653 -0.01608 0.22153
 H225 H 0.38972 -0.00627 0.23851
 H226 H 0.36389 0.07510 0.24898
 H227 H 0.39254 -0.00545 0.34219
 H228 H 0.36685 0.07580 0.35222
 C229 C 0.54831 -0.30680 0.01103
 C230 C 0.49887 -0.33308 0.00137
 C231 C 0.44389 -0.29650 0.00237
 C232 C 0.44019 -0.23516 0.00627
 C233 C 0.49159 -0.20996 0.00829
 C234 C 0.54473 -0.24664 0.01352
 C235 C 0.60216 -0.25151 -0.01934
 C236 C 0.60630 -0.31755 -0.02242
 H237 H 0.40412 -0.31537 -0.00063
 H238 H 0.39773 -0.20771 0.00580
 H239 H 0.63539 -0.23404 0.00792
 H240 H 0.59766 -0.23511 -0.06236
 H241 H 0.64218 -0.33788 0.00298
 H242 H 0.60433 -0.33949 -0.06733
 C243 C 0.52788 0.30130 0.04915
 C244 C 0.49968 0.33086 0.00631
 C245 C 0.46476 0.30082 -0.03086
 C246 C 0.46306 0.24105 -0.02806
 C247 C 0.49768 0.20992 0.01072
 C248 C 0.52767 0.24212 0.05058
 C249 C 0.58993 0.23074 0.06648
 C250 C 0.59042 0.29574 0.06489
 H251 H 0.43949 0.32325 -0.06242
 H252 H 0.43648 0.21867 -0.05759
 H253 H 0.61911 0.20203 0.03182
 H254 H 0.59390 0.21741 0.11081
 H255 H 0.62003 0.30488 0.02942
 H256 H 0.59489 0.31980 0.10831
 C257 C -0.31203 0.06401 0.50449
 C258 C -0.33465 0.01944 0.52851
 C259 C -0.29628 -0.01952 0.55729
 C260 C -0.23572 -0.01757 0.55562
 C261 C -0.21227 0.02200 0.52340
 C262 C -0.25219 0.06468 0.50129
 C263 C -0.25348 0.08446 0.44246
 C264 C -0.31917 0.08375 0.44580
 H265 H -0.31268 -0.05298 0.57880
 H266 H -0.20684 -0.04950 0.57618
 H267 H -0.22875 0.05098 0.40844
 H268 H -0.24259 0.12925 0.44302
 H269 H -0.33268 0.04995 0.41358
 H270 H -0.34608 0.12814 0.44815
 C271 C 0.29142 0.03767 0.51140
 C272 C 0.33449 -0.01099 0.49290
 C273 C 0.31637 -0.06067 0.46282
 C274 C 0.25603 -0.06252 0.45698
 C275 C 0.21306 -0.01502 0.48177
 C276 C 0.23258 0.03548 0.50639
 C277 C 0.21543 0.07185 0.56348
 C278 C 0.28027 0.07431 0.56925
 H279 H 0.34849 -0.09826 0.44494
 H280 H 0.24298 -0.10143 0.43471
 H281 H 0.19691 0.04714 0.59588
 H282 H 0.18885 0.11497 0.55849
 H283 H 0.29951 0.05109 0.60509
 H284 H 0.29093 0.11897 0.56779
 C285 C -0.04258 0.54131 1.31040
 C286 C -0.01306 0.49409 1.33541
 C287 C 0.01057 0.44258 1.29855
 C288 C 0.00965 0.44136 1.23773
 C289 C -0.01280 0.49233 1.21307
 C290 C -0.04136 0.54075 1.25063
 C291 C -0.03570 0.60378 1.25396
 C292 C -0.03693 0.60464 1.31967
 H293 H 0.03124 0.40410 1.31666
 H294 H 0.02962 0.40193 1.21005
 H295 H -0.07503 0.63069 1.23880
 H296 H 0.00712 0.61039 1.23466
 H297 H -0.07683 0.63229 1.34237
 H298 H 0.00514 0.61186 1.33847
 C299 C 0.06244 0.49601 0.69960
 C300 C 0.01011 0.51532 0.67402
 C301 C -0.03903 0.54150 0.71133
 C302 C -0.03724 0.54107 0.77179
 C303 C 0.01347 0.51386 0.79605
 C304 C 0.06396 0.49507 0.75920
 C305 C 0.10572 0.43853 0.75267
 C306 C 0.10407 0.43934 0.68728
 H307 H -0.07966 0.55989 0.69374
 H308 H -0.07646 0.55894 0.79922
 H309 H 0.08599 0.40235 0.76843
 H310 H 0.14908 0.44391 0.76963
 H311 H 0.08343 0.40359 0.66504
 H312 H 0.14658 0.44495 0.66656
   
