data_POSCAR
  _audit_creation_date              2014-09-24
  _audit_creation_method            'ToBaCCo'
  _symmetry_space_group_name_H-M    'P1'
  _symmetry_Int_Tables_number       1
  _symmetry_cell_setting            triclinic
  loop_
  _symmetry_equiv_pos_as_xyz
 x,y,z
_cell_length_a 22.6962
_cell_length_b 22.7786
_cell_length_c 27.2012
_cell_angle_alpha 89.854500
_cell_angle_beta 90.290000
_cell_angle_gamma 83.639900
loop_
  _atom_site_label
  _atom_site_type_symbol
  _atom_site_fract_x
  _atom_site_fract_y
  _atom_site_fract_z
C1 C 1.21303 0.20527 0.20665
 C2 C 1.24631 0.24639 0.17555
 C3 C 1.27857 0.28217 0.20191
 C4 C 1.27480 0.27337 0.25816
 C5 C 1.26020 0.17158 0.23971
 C6 C 1.29191 0.20680 0.26726
 C7 C 1.17607 0.24585 0.24228
 C8 C 1.20790 0.28125 0.26954
 H9 H 1.24381 0.24760 0.13575
 H10 H 1.30115 0.30231 0.28009
 H11 H 1.26198 0.12472 0.24691
 H12 H 1.12933 0.24299 0.24836
 C13 C 0.71084 -0.27651 0.19129
 C14 C 0.75205 -0.23793 0.16606
 C15 C 0.78845 -0.21271 0.19727
 C16 C 0.77917 -0.22723 0.25216
 C17 C 0.75130 -0.32032 0.22266
 C18 C 0.78669 -0.29541 0.25567
 C19 C 0.67734 -0.23453 0.22777
 C20 C 0.71230 -0.21101 0.26161
 H21 H 0.75081 -0.22890 0.12697
 H22 H 0.80811 -0.20409 0.27622
 H23 H 0.75008 -0.36731 0.21866
 H24 H 0.62972 -0.22465 0.22723
 C25 C 0.71394 0.22777 -0.30296
 C26 C 0.75777 0.26000 -0.32617
 C27 C 0.79147 0.29097 -0.29248
 C28 C 0.77519 0.28276 -0.24051
 C29 C 0.74654 0.18897 -0.26728
 C30 C 0.78225 0.21790 -0.23308
 C31 C 0.67850 0.27237 -0.27456
 C32 C 0.71045 0.30024 -0.23739
 H33 H 0.76172 0.26466 -0.36564
 H34 H 0.80189 0.30727 -0.21527
 H35 H 0.74115 0.14243 -0.26593
 H36 H 0.63423 0.29023 -0.28546
 C37 C 1.20593 -0.28636 -0.29955
 C38 C 1.24996 -0.25709 -0.33084
 C39 C 1.28472 -0.22352 -0.30483
 C40 C 1.27197 -0.22165 -0.24921
 C41 C 1.24346 -0.32035 -0.25936
 C42 C 1.27751 -0.28662 -0.23280
 C43 C 1.17104 -0.23568 -0.27200
 C44 C 1.20511 -0.20253 -0.24471
 H45 H 1.25117 -0.26032 -0.37053
 H46 H 1.30006 -0.19376 -0.22788
 H47 H 1.24024 -0.36569 -0.24997
 H48 H 1.12341 -0.23330 -0.26729
 C49 C 0.21930 0.22090 0.79810
 C50 C 0.26255 0.25361 0.82176
 C51 C 0.29801 0.28278 0.78871
 C52 C 0.28302 0.27488 0.73700
 C53 C 0.18306 0.26631 0.76568
 C54 C 0.21531 0.29507 0.73317
 C55 C 0.25418 0.17949 0.76202
 C56 C 0.28892 0.20634 0.72982
 H57 H 0.26357 0.26088 0.86111
 H58 H 0.31026 0.29885 0.71192
 H59 H 0.13547 0.27258 0.76698
 H60 H 0.25064 0.13269 0.76324
 C61 C 0.70853 0.69783 0.79276
 C62 C 0.74684 0.72649 0.82533
 C63 C 0.78323 0.76559 0.80172
 C64 C 0.77575 0.76613 0.74745
 C65 C 0.67594 0.74544 0.76492
 C66 C 0.71190 0.78250 0.73833
 C67 C 0.74845 0.66700 0.75720
 C68 C 0.78453 0.70416 0.73091
 H69 H 0.75224 0.71404 0.86358
 H70 H 0.80467 0.79478 0.72822
 H71 H 0.62797 0.75124 0.76312
 H72 H 0.74721 0.62176 0.74633
 C73 C 0.71962 0.20620 0.29254
 C74 C 0.76118 0.24178 0.32166
 C75 C 0.78881 0.28004 0.29404
 C76 C 0.77442 0.27801 0.23877
 C77 C 0.67845 0.25217 0.26388
 C78 C 0.70670 0.28905 0.23530
 C79 C 0.75955 0.17502 0.25278
 C80 C 0.78739 0.21259 0.22440
 H81 H 0.76936 0.23645 0.36069
 H82 H 0.79787 0.30847 0.21591
 H83 H 0.63101 0.25028 0.26136
 H84 H 0.76445 0.12820 0.24577
 C85 C 0.21025 0.72567 0.30301
 C86 C 0.25730 0.75777 0.32823
 C87 C 0.29244 0.78425 0.29674
 C88 C 0.27628 0.77692 0.24165
 C89 C 0.17635 0.77405 0.27175
 C90 C 0.20925 0.79914 0.23743
 C91 C 0.24423 0.68380 0.26646
 C92 C 0.27849 0.70960 0.23360
 H93 H 0.25897 0.76459 0.36746
 H94 H 0.30527 0.79949 0.21733
 H95 H 0.13117 0.79064 0.27933
 H96 H 0.24047 0.63699 0.26764
 O97 O 1.09868 0.02003 0.06013
 O98 O 0.89782 -0.02499 0.05529
 O99 O 0.96293 0.10017 0.05445
 O100 O 1.03814 -0.10442 0.05604
 O101 O 0.88267 0.07611 0.02523
 O102 O 1.11713 -0.07899 0.02763
 O103 O 0.93886 -0.10827 0.03004
 O104 O 1.06130 0.10406 0.03368
 C105 C 1.08791 0.07373 0.06689
 C106 C 0.91023 -0.07878 0.06256
 C107 C 0.90902 0.10112 0.05819
 C108 C 1.09107 -0.09907 0.06267
 O109 O 1.10514 -0.03457 -0.06392
 O110 O 0.89855 0.03499 -0.06847
 O111 O 1.03209 0.09524 -0.06445
 O112 O 0.97270 -0.10046 -0.06677
 O113 O 0.89019 -0.06353 -0.03827
 O114 O 1.11299 0.06108 -0.03146
 O115 O 1.07348 -0.11505 -0.04124
 O116 O 0.93035 0.11339 -0.04220
 Co117 Co 1.09777 -0.00748 -0.00207
 Co118 Co 0.90316 0.00508 -0.00643
 Co119 Co 0.99709 0.09328 -0.00492
 Co120 Co 1.00557 -0.09731 -0.00539
 O121 O 1.00077 -0.00163 -0.00472
 C122 C 1.09914 -0.08669 -0.07249
 C123 C 0.90666 0.08710 -0.07586
 C124 C 1.08666 0.08943 -0.06549
 C125 C 0.91817 -0.09325 -0.07086
 O126 O 1.08953 0.52711 0.56017
 O127 O 0.89265 0.47330 0.56220
 O128 O 0.95217 0.60534 0.55413
 O129 O 1.03191 0.40060 0.56293
 O130 O 0.87347 0.57259 0.52905
 O131 O 1.11077 0.42605 0.53310
 O132 O 0.93304 0.39109 0.53644
 O133 O 1.05070 0.60867 0.52976
 C134 C 1.07778 0.58127 0.56421
 C135 C 0.90724 0.42011 0.57044
 C136 C 0.89900 0.60159 0.55995
 C137 C 1.08548 0.40377 0.56762
 O138 O 1.09572 0.46306 0.43888
 O139 O 0.88694 0.52891 0.43632
 O140 O 1.01914 0.59442 0.43377
 O141 O 0.96857 0.39606 0.44101
 O142 O 0.88445 0.43160 0.46731
 O143 O 1.10114 0.56115 0.46598
 O144 O 1.06833 0.38340 0.46690
 O145 O 0.91697 0.60964 0.45853
 Co146 Co 1.08841 0.49465 0.49953
 Co147 Co 0.89475 0.50122 0.49890
 Co148 Co 0.98544 0.59441 0.49422
 Co149 Co 0.99980 0.40270 0.50175
 O150 O 0.99195 0.49829 0.49853
 C151 C 1.09294 0.40973 0.43378
 C152 C 0.89517 0.58022 0.42594
 C153 C 1.07378 0.58794 0.43160
 C154 C 0.91456 0.40512 0.43414
 O155 O 0.61897 0.05874 0.52957
 O156 O 0.39862 -0.07247 0.53055
 O157 O 0.43506 0.10463 0.53730
 O158 O 0.58315 -0.11908 0.53977
 O159 O 0.40606 0.02480 0.56253
 O160 O 0.61579 -0.03811 0.56072
 O161 O 0.48102 -0.10791 0.56085
 O162 O 0.53627 0.08913 0.56102
 C163 C 0.59070 0.08597 0.56307
 C164 C 0.42658 -0.10065 0.56410
 C165 C 0.41352 0.07670 0.57095
 C166 C 0.60997 -0.09011 0.57024
 O167 O 0.62930 -0.08184 0.46982
 O168 O 0.38954 0.06810 0.46875
 O169 O 0.56649 0.10010 0.46400
 O170 O 0.45075 -0.11525 0.46292
 O171 O 0.40802 -0.03190 0.43811
 O172 O 0.60614 0.01784 0.43650
 O173 O 0.55030 -0.11002 0.44207
 O174 O 0.46935 0.09364 0.44092
 Co175 Co 0.60632 -0.01043 0.49896
 Co176 Co 0.41150 -0.00307 0.50013
 Co177 Co 0.50236 0.08715 0.50102
 Co178 Co 0.51574 -0.10326 0.50134
 O179 O 0.50891 -0.00760 0.50048
 C180 C 0.60388 -0.10841 0.43765
 C181 C 0.41575 0.09323 0.43594
 C182 C 0.59356 0.07163 0.43040
 C183 C 0.42144 -0.08542 0.43037
 O184 O 0.60213 0.55937 0.02577
 O185 O 0.38076 0.43092 0.02665
 O186 O 0.41933 0.60866 0.03490
 O187 O 0.56366 0.38249 0.03665
 O188 O 0.38623 0.52912 0.05784
 O189 O 0.59496 0.46323 0.05934
 O190 O 0.46206 0.39623 0.05864
 O191 O 0.52071 0.59153 0.05798
 C192 C 0.57519 0.58716 0.05944
 C193 C 0.40765 0.40602 0.06238
 C194 C 0.39321 0.58122 0.06636
 C195 C 0.58936 0.41090 0.06797
 O196 O 0.61060 0.41836 -0.03145
 O197 O 0.37254 0.57204 -0.03444
 O198 O 0.55014 0.60069 -0.04026
 O199 O 0.43212 0.38830 -0.03981
 O200 O 0.39094 0.47130 -0.06630
 O201 O 0.58975 0.51715 -0.06556
 O202 O 0.53210 0.39225 -0.06135
 O203 O 0.45264 0.59693 -0.06200
 Co204 Co 0.58819 0.49006 -0.00300
 Co205 Co 0.39336 0.50030 -0.00399
 Co206 Co 0.48617 0.58962 -0.00211
 Co207 Co 0.49698 0.39936 -0.00154
 O208 O 0.49103 0.49479 -0.00256
 C209 C 0.58575 0.39498 -0.06572
 C210 C 0.39887 0.59812 -0.06647
 C211 C 0.57687 0.57061 -0.07323
 C212 C 0.40590 0.41796 -0.07390
 C213 C 1.18946 0.10676 0.17057
 C214 C 1.17542 0.16793 0.17637
 C215 C 1.12438 0.19480 0.15198
 C216 C 1.09273 0.16260 0.11920
 C217 C 1.11177 0.10286 0.10944
 C218 C 1.15820 0.07492 0.13787
 C219 C 1.21292 0.03784 0.12168
 C220 C 1.24720 0.07258 0.15717
 H221 H 1.11093 0.24164 0.15608
 H222 H 1.05604 0.18567 0.09883
 H223 H 1.22386 0.04516 0.08249
 H224 H 1.21291 -0.00902 0.13276
 H225 H 1.27788 0.10032 0.13865
 H226 H 1.26702 0.04511 0.18815
 C227 C 1.16695 0.61711 0.67490
 C228 C 1.16584 0.67864 0.67080
 C229 C 1.12526 0.70821 0.63723
 C230 C 1.09292 0.67639 0.60477
 C231 C 1.10073 0.61422 0.60493
 C232 C 1.13521 0.58575 0.64232
 C233 C 1.18409 0.53707 0.63819
 C234 C 1.21870 0.57032 0.67420
 H235 H 1.12133 0.75589 0.63402
 H236 H 1.06538 0.70053 0.57720
 H237 H 1.20405 0.53545 0.60095
 H238 H 1.17108 0.49498 0.65317
 H239 H 1.25912 0.58604 0.65809
 H240 H 1.22565 0.54682 0.70999
 C241 C 0.70932 0.15995 0.62636
 C242 C 0.68088 0.19456 0.66351
 C243 C 0.61930 0.18817 0.66919
 C244 C 0.58955 0.15255 0.63685
 C245 C 0.62060 0.12013 0.59910
 C246 C 0.68094 0.12479 0.59629
 C247 C 0.73547 0.10316 0.56876
 C248 C 0.76808 0.14250 0.60313
 H249 H 0.59361 0.20934 0.69885
 H250 H 0.54253 0.15018 0.64171
 H251 H 0.73351 0.11832 0.52984
 H252 H 0.74845 0.05512 0.57441
 H253 H 0.78569 0.17971 0.58363
 H254 H 0.79967 0.11717 0.62880
 C255 C 0.69602 0.66467 0.11451
 C256 C 0.67256 0.69153 0.15713
 C257 C 0.61391 0.67976 0.16909
 C258 C 0.58132 0.64564 0.13756
 C259 C 0.60726 0.62051 0.09437
 C260 C 0.66538 0.63071 0.08531
 C261 C 0.71521 0.61685 0.05044
 C262 C 0.75042 0.65506 0.08371
 H263 H 0.59318 0.69519 0.20301
 H264 H 0.53669 0.63795 0.14753
 H265 H 0.70514 0.63630 0.01340
 H266 H 0.73243 0.56924 0.05099
 H267 H 0.76105 0.69610 0.06521
 H268 H 0.78791 0.62953 0.10349
 C269 C 0.88014 -0.20098 0.15018
 C270 C 0.83218 -0.17551 0.17782
 C271 C 0.81872 -0.11358 0.17474
 C272 C 0.84695 -0.08043 0.13942
 C273 C 0.88797 -0.10907 0.10591
 C274 C 0.90624 -0.16890 0.11479
 C275 C 0.91741 -0.22075 0.08137
 C276 C 0.88961 -0.25646 0.12058
 H277 H 0.78241 -0.09178 0.19593
 H278 H 0.83292 -0.03367 0.13566
 H279 H 0.96536 -0.23487 0.07614
 H280 H 0.89069 -0.21546 0.04696
 H281 H 0.92199 -0.29021 0.13841
 H282 H 0.84809 -0.27310 0.10796
 C283 C 0.83168 0.38494 0.69113
 C284 C 0.83647 0.32290 0.68961
 C285 C 0.87737 0.29500 0.65574
 C286 C 0.90469 0.32764 0.62019
 C287 C 0.89036 0.38931 0.61594
 C288 C 0.85755 0.41734 0.65471
 C289 C 0.80629 0.46426 0.65373
 C290 C 0.77787 0.42912 0.69301
 H291 H 0.88379 0.24720 0.65360
 H292 H 0.93228 0.30357 0.59295
 H293 H 0.78195 0.46643 0.61807
 H294 H 0.81869 0.50717 0.66740
 H295 H 0.73708 0.41082 0.68011
 H296 H 0.77364 0.45216 0.72899
 C297 C 0.37906 -0.21783 0.64908
 C298 C 0.32773 -0.18953 0.67076
 C299 C 0.31381 -0.12863 0.66205
 C300 C 0.34684 -0.09903 0.62798
 C301 C 0.39562 -0.12929 0.60346
 C302 C 0.41249 -0.18824 0.61645
 C303 C 0.42317 -0.24122 0.58391
 C304 C 0.38802 -0.27383 0.62026
 H305 H 0.27451 -0.10522 0.67823
 H306 H 0.33230 -0.05350 0.61883
 H307 H 0.47036 -0.25987 0.58204
 H308 H 0.40092 -0.23425 0.54750
 H309 H 0.41569 -0.30931 0.64060
 H310 H 0.34674 -0.28739 0.60394
 C311 C 0.37211 0.32617 0.18010
 C312 C 0.31045 0.32709 0.17702
 C313 C 0.28063 0.36560 0.14203
 C314 C 0.31245 0.39476 0.10684
 C315 C 0.37496 0.38540 0.10525
 C316 C 0.40363 0.35453 0.14500
 C317 C 0.45385 0.30637 0.14602
 C318 C 0.41929 0.27531 0.18410
 H319 H 0.23274 0.36917 0.13921
 H320 H 0.28787 0.42066 0.07853
 H321 H 0.49482 0.32185 0.16135
 H322 H 0.45939 0.28221 0.11057
 H323 H 0.44082 0.27273 0.22094
 H324 H 0.40436 0.23328 0.17070
 C325 C 0.85227 0.21291 -0.16174
 C326 C 0.82051 0.18558 -0.19817
 C327 C 0.83026 0.12260 -0.19885
 C328 C 0.86072 0.09018 -0.16048
 C329 C 0.88395 0.11927 -0.12060
 C330 C 0.88320 0.18054 -0.12440
 C331 C 0.86863 0.22688 -0.08674
 C332 C 0.83413 0.26217 -0.12681
 H333 H 0.81330 0.09690 -0.22783
 H334 H 0.86349 0.04240 -0.16098
 H335 H 0.90855 0.24697 -0.07423
 H336 H 0.84012 0.21246 -0.05688
 H337 H 0.85431 0.30287 -0.13633
 H338 H 0.78579 0.26741 -0.11972
 C339 C 0.86471 0.69316 0.32411
 C340 C 0.82253 0.66913 0.29435
 C341 C 0.81446 0.60912 0.30396
 C342 C 0.84078 0.57874 0.34514
 C343 C 0.87598 0.60719 0.37819
 C344 C 0.89107 0.66270 0.36430
 C345 C 0.89462 0.71714 0.39367
 C346 C 0.86456 0.75076 0.35060
 H347 H 0.78453 0.58593 0.28236
 H348 H 0.83007 0.53449 0.35283
 H349 H 0.94116 0.72655 0.39945
 H350 H 0.86677 0.71882 0.42727
 H351 H 0.89325 0.78093 0.33263
 H352 H 0.81925 0.77053 0.36004
 C353 C 0.29609 0.14923 0.34580
 C354 C 0.32344 0.18312 0.31178
 C355 C 0.38338 0.19052 0.32137
 C356 C 0.41371 0.16181 0.36227
 C357 C 0.38438 0.12589 0.39495
 C358 C 0.32473 0.12265 0.38528
 C359 C 0.27264 0.09316 0.40107
 C360 C 0.24002 0.12325 0.35634
 H361 H 0.40722 0.21653 0.29656
 H362 H 0.46013 0.16705 0.36776
 H363 H 0.25486 0.11000 0.43697
 H364 H 0.28051 0.04432 0.39790
 H365 H 0.20332 0.15738 0.36644
 H366 H 0.22905 0.09146 0.32768
 C367 C 0.27651 0.66944 -0.14805
 C368 C 0.30754 0.69182 -0.18712
 C369 C 0.36887 0.69357 -0.18087
 C370 C 0.39876 0.66484 -0.14038
 C371 C 0.36742 0.63491 -0.10506
 C372 C 0.30566 0.64259 -0.10785
 C373 C 0.26031 0.60094 -0.10051
 C374 C 0.22792 0.63017 -0.14489
 H375 H 0.39422 0.71322 -0.20893
 H376 H 0.44658 0.66330 -0.13832
 H377 H 0.23573 0.60935 -0.06553
 H378 H 0.27815 0.55415 -0.10693
 H379 H 0.18459 0.65500 -0.13534
 H380 H 0.22664 0.59893 -0.17597
 C381 C 1.18817 -0.11594 -0.18789
 C382 C 1.17978 -0.17341 -0.20051
 C383 C 1.14485 -0.20375 -0.16813
 C384 C 1.11870 -0.17564 -0.12620
 C385 C 1.12674 -0.11637 -0.11554
 C386 C 1.16241 -0.08859 -0.14783
 C387 C 1.18559 -0.03140 -0.15916
 C388 C 1.21455 -0.06248 -0.20476
 H389 H 1.13756 -0.24913 -0.17530
 H390 H 1.09191 -0.20017 -0.10256
 H391 H 1.21807 -0.01957 -0.13116
 H392 H 1.14956 0.00412 -0.16835
 H393 H 1.26380 -0.06858 -0.20319
 H394 H 1.19497 -0.04497 -0.24011
 C395 C 1.19189 0.36995 0.32486
 C396 C 1.18151 0.31271 0.31278
 C397 C 1.14177 0.28621 0.34373
 C398 C 1.11336 0.31756 0.38344
 C399 C 1.12318 0.37667 0.39307
 C400 C 1.16350 0.40060 0.36242
 C401 C 1.18955 0.45606 0.35040
 C402 C 1.22125 0.42146 0.30760
 H403 H 1.13222 0.24138 0.33716
 H404 H 1.08300 0.29579 0.40591
 H405 H 1.22014 0.46857 0.37965
 H406 H 1.15542 0.49191 0.33803
 H407 H 1.27023 0.41421 0.31197
 H408 H 1.20503 0.43725 0.27074
 C409 C 0.71988 -0.15863 0.34296
 C410 C 0.68737 -0.18870 0.30929
 C411 C 0.63166 -0.20359 0.32543
 C412 C 0.60603 -0.17966 0.36862
 C413 C 0.63604 -0.14182 0.39808
 C414 C 0.69554 -0.13704 0.38693
 C415 C 0.73081 -0.08563 0.38654
 C416 C 0.75585 -0.10804 0.33729
 H417 H 0.60627 -0.23224 0.30439
 H418 H 0.56147 -0.18866 0.37754
 H419 H 0.76460 -0.08878 0.41643
 H420 H 0.70287 -0.04283 0.38452
 H421 H 0.80431 -0.12192 0.33876
 H422 H 0.74069 -0.07885 0.30582
 C423 C 0.70959 0.35002 -0.15651
 C424 C 0.67995 0.32638 -0.19592
 C425 C 0.61870 0.32090 -0.18849
 C426 C 0.58913 0.34151 -0.14573
 C427 C 0.61915 0.36800 -0.10804
 C428 C 0.68071 0.36821 -0.11303
 C429 C 0.71860 0.41680 -0.10542
 C430 C 0.74669 0.40036 -0.15480
 H431 H 0.59230 0.30007 -0.21498
 H432 H 0.54209 0.33791 -0.14290
 H433 H 0.74976 0.40718 -0.07402
 H434 H 0.69349 0.46110 -0.10421
 H435 H 0.79488 0.38647 -0.15197
 H436 H 0.73398 0.43380 -0.18392
 C437 C 1.12168 0.19028 -0.16859
 C438 C 1.18383 0.18798 -0.16604
 C439 C 1.21326 0.15341 -0.12838
 C440 C 1.18159 0.12143 -0.09565
 C441 C 1.11969 0.12220 -0.10025
 C442 C 1.09036 0.15841 -0.13611
 C443 C 1.04905 0.14161 -0.17506
 C444 C 1.08321 0.17582 -0.21084
 H445 H 1.26105 0.15034 -0.12479
 H446 H 1.20586 0.09510 -0.06742
 H447 H 1.00291 0.16210 -0.16909
 H448 H 1.05362 0.09326 -0.18220
 H449 H 1.05594 0.21540 -0.22590
 H450 H 1.10794 0.14744 -0.23879
 C451 C 1.20056 0.64852 0.36835
 C452 C 1.17269 0.69107 0.33612
 C453 C 1.11102 0.68891 0.32789
 C454 C 1.07830 0.65326 0.35730
 C455 C 1.10680 0.61715 0.39422
 C456 C 1.16873 0.61251 0.39617
 C457 C 1.21108 0.61143 0.43839
 C458 C 1.24589 0.65167 0.40806
 H459 H 1.08709 0.71479 0.29943
 H460 H 1.03071 0.65574 0.35236
 H461 H 1.23529 0.56682 0.44438
 H462 H 1.19086 0.63308 0.47183
 H463 H 1.29033 0.63046 0.39710
 H464 H 1.24527 0.69617 0.42474
 C465 C 0.64279 0.19667 0.35780
 C466 C 0.68333 0.16879 0.32422
 C467 C 0.68169 0.10712 0.31801
 C468 C 0.64824 0.07506 0.35002
 C469 C 0.61640 0.10372 0.38901
 C470 C 0.61004 0.16536 0.38866
 C471 C 0.60909 0.21055 0.42835
 C472 C 0.64535 0.24538 0.39424
 H473 H 0.70703 0.08247 0.29003
 H474 H 0.64908 0.02799 0.34525
 H475 H 0.63386 0.19379 0.46186
 H476 H 0.56372 0.23276 0.43492
 H477 H 0.69027 0.24890 0.40933
 H478 H 0.62086 0.28760 0.38131
 C479 C 0.62235 0.69151 -0.15260
 C480 C 0.66865 0.66303 -0.18107
 C481 C 0.67143 0.60018 -0.18246
 C482 C 0.63594 0.56954 -0.15120
 C483 C 0.59904 0.60019 -0.11626
 C484 C 0.58863 0.66132 -0.12166
 C485 C 0.57989 0.71122 -0.08607
 C486 C 0.61683 0.74490 -0.12049
 H487 H 0.70270 0.57305 -0.20462
 H488 H 0.64034 0.52195 -0.15242
 H489 H 0.60191 0.70064 -0.05000
 H490 H 0.53278 0.73051 -0.08416
 H491 H 0.65931 0.75364 -0.10352
 H492 H 0.59105 0.78354 -0.13841
 C493 C 0.80403 -0.18489 -0.12073
 C494 C 0.81825 -0.19874 -0.16985
 C495 C 0.86980 -0.17473 -0.18729
 C496 C 0.90422 -0.14106 -0.15557
 C497 C 0.88612 -0.12757 -0.10653
 C498 C 0.83486 -0.15017 -0.09197
 C499 C 0.79363 -0.14933 -0.04983
 C500 C 0.75766 -0.18777 -0.08198
 H501 H 0.88508 -0.18353 -0.22441
 H502 H 0.94402 -0.12500 -0.16963
 H503 H 0.77065 -0.10449 -0.04285
 H504 H 0.81440 -0.17273 -0.01713
 H505 H 0.71409 -0.16457 -0.09347
 H506 H 0.75661 -0.23272 -0.06628
 C507 C 0.79911 0.37310 0.33984
 C508 C 0.82554 0.32188 0.31705
 C509 C 0.88648 0.30596 0.32567
 C510 C 0.91706 0.33591 0.36156
 C511 C 0.88669 0.38129 0.39019
 C512 C 0.82882 0.40188 0.37557
 C513 C 0.77364 0.41750 0.40450
 C514 C 0.74097 0.38608 0.36521
 H515 H 0.90899 0.26723 0.30807
 H516 H 0.96279 0.32000 0.36981
 H517 H 0.76047 0.46596 0.40533
 H518 H 0.77479 0.39502 0.44088
 H519 H 0.70920 0.41650 0.34339
 H520 H 0.72303 0.34579 0.37908
 C521 C 0.38730 -0.20569 0.34200
 C522 C 0.33762 -0.17951 0.31607
 C523 C 0.32502 -0.11759 0.31984
 C524 C 0.35555 -0.08541 0.35447
 C525 C 0.39873 -0.11476 0.38638
 C526 C 0.41695 -0.17424 0.37600
 C527 C 0.43020 -0.22684 0.40870
 C528 C 0.39811 -0.26151 0.37125
 H529 H 0.28761 -0.09509 0.29998
 H530 H 0.34158 -0.03880 0.35916
 H531 H 0.40691 -0.22174 0.44457
 H532 H 0.47845 -0.24161 0.41117
 H533 H 0.35717 -0.27719 0.38613
 H534 H 0.42814 -0.29573 0.35196
 C535 C 0.38666 0.29627 -0.16424
 C536 C 0.33860 0.31954 -0.19342
 C537 C 0.32307 0.38137 -0.19105
 C538 C 0.34802 0.41546 -0.15425
 C539 C 0.38907 0.38817 -0.11956
 C540 C 0.41154 0.32961 -0.12908
 C541 C 0.42770 0.27720 -0.09667
 C542 C 0.40080 0.24028 -0.13570
 H543 H 0.28660 0.40201 -0.21314
 H544 H 0.33108 0.46151 -0.15022
 H545 H 0.40258 0.27953 -0.06160
 H546 H 0.47649 0.26652 -0.09284
 H547 H 0.36131 0.22047 -0.12234
 H548 H 0.43434 0.20898 -0.15451
 C549 C 1.11834 -0.15011 0.19367
 C550 C 1.18047 -0.16308 0.19685
 C551 C 1.21322 -0.14335 0.15708
 C552 C 1.18440 -0.12051 0.11374
 C553 C 1.12209 -0.11588 0.10936
 C554 C 1.09039 -0.12649 0.15153
 C555 C 1.03811 -0.15948 0.15775
 C556 C 1.06834 -0.18648 0.20342
 H557 H 1.26097 -0.14866 0.15749
 H558 H 1.21108 -0.10952 0.08286
 H559 H 1.03406 -0.19211 0.12802
 H560 H 0.99756 -0.12931 0.16603
 H561 H 1.08173 -0.23476 0.19987
 H562 H 1.04367 -0.17288 0.23749
 C563 C 1.21314 0.34018 0.64902
 C564 C 1.18540 0.33422 0.69429
 C565 C 1.12394 0.35340 0.69712
 C566 C 1.09122 0.37352 0.65549
 C567 C 1.11909 0.37736 0.60998
 C568 C 1.18016 0.35911 0.60706
 C569 C 1.22641 0.39456 0.58846
 C570 C 1.25841 0.38133 0.63658
 H571 H 1.10024 0.35270 0.73142
 H572 H 1.04434 0.38792 0.65931
 H573 H 1.21052 0.44141 0.58258
 H574 H 1.25006 0.37301 0.55643
 H575 H 1.25608 0.41999 0.66167
 H576 H 1.30389 0.36031 0.63119
 C577 C 0.63038 -0.18895 0.68126
 C578 C 0.68667 -0.18037 0.70005
 C579 C 0.71527 -0.13487 0.67790
 C580 C 0.68950 -0.10310 0.63669
 C581 C 0.63613 -0.11801 0.61551
 C582 C 0.60656 -0.15930 0.64012
 C583 C 0.58065 -0.21167 0.62070
 C584 C 0.60672 -0.24492 0.66536
 H585 H 0.75738 -0.12381 0.69179
 H586 H 0.71284 -0.06929 0.61992
 H587 H 0.60078 -0.22819 0.58548
 H588 H 0.53179 -0.20425 0.62132
 H589 H 0.64250 -0.28059 0.65625
 H590 H 0.57204 -0.25832 0.69045
 C591 C 0.68354 0.37848 0.18150
 C592 C 0.67582 0.32060 0.19383
 C593 C 0.63760 0.29195 0.16291
 C594 C 0.60934 0.32139 0.12193
 C595 C 0.61765 0.38067 0.11112
 C596 C 0.65532 0.40726 0.14267
 C597 C 0.68294 0.46261 0.15178
 C598 C 0.71467 0.43001 0.19595
 H599 H 0.63040 0.24645 0.16975
 H600 H 0.58116 0.29761 0.09880
 H601 H 0.64978 0.49994 0.16250
 H602 H 0.71347 0.47247 0.12178
 H603 H 0.69965 0.44834 0.23217
 H604 H 0.76349 0.42124 0.19144
 C605 C 0.78659 0.17326 0.13864
 C606 C 0.81779 0.19305 0.17880
 C607 C 0.87949 0.19237 0.17438
 C608 C 0.90923 0.16414 0.13402
 C609 C 0.87755 0.13673 0.09719
 C610 C 0.81571 0.14628 0.09870
 C611 C 0.76937 0.10562 0.09099
 C612 C 0.73718 0.13523 0.13493
 H613 H 0.90501 0.20974 0.20365
 H614 H 0.95716 0.16084 0.13325
 H615 H 0.78625 0.05859 0.09765
 H616 H 0.74508 0.11455 0.05570
 H617 H 0.73508 0.10471 0.16660
 H618 H 0.69441 0.16108 0.12479
 C619 C 0.85820 0.70849 0.66505
 C620 C 0.80804 0.68648 0.68456
 C621 C 0.78141 0.64497 0.65529
 C622 C 0.80937 0.62019 0.61306
 C623 C 0.86540 0.63496 0.59927
 C624 C 0.88689 0.68235 0.62409
 C625 C 0.94676 0.68932 0.64450
 C626 C 0.91561 0.71774 0.68930
 H627 H 0.73926 0.63036 0.66515
 H628 H 0.78884 0.58653 0.59328
 H629 H 0.96982 0.72090 0.62252
 H630 H 0.97319 0.64631 0.65272
 H631 H 0.92124 0.76538 0.69302
 H632 H 0.92385 0.69123 0.72353
 C633 C 0.36586 0.19827 0.66125
 C634 C 0.32969 0.17140 0.69428
 C635 C 0.33503 0.10855 0.69274
 C636 C 0.36569 0.07682 0.65447
 C637 C 0.39247 0.10659 0.61681
 C638 C 0.39640 0.16670 0.62381
 C639 C 0.38777 0.21661 0.58835
 C640 C 0.35387 0.25101 0.62874
 H641 H 0.31355 0.08281 0.71910
 H642 H 0.36541 0.02947 0.65304
 H643 H 0.35950 0.20741 0.55637
 H644 H 0.43023 0.23400 0.57908
 H645 H 0.30598 0.26059 0.61993
 H646 H 0.37722 0.28829 0.64214
 C647 C 0.35020 0.69918 0.16140
 C648 C 0.30948 0.67572 0.19223
 C649 C 0.29788 0.61704 0.18022
 C650 C 0.32589 0.58576 0.14013
 C651 C 0.36604 0.61189 0.10979
 C652 C 0.37676 0.66891 0.12264
 C653 C 0.41028 0.71813 0.10710
 C654 C 0.38088 0.75253 0.15073
 H655 H 0.26621 0.59468 0.20042
 H656 H 0.31494 0.54161 0.13239
 H657 H 0.39527 0.73654 0.07069
 H658 H 0.45892 0.70726 0.11139
 H659 H 0.34988 0.79107 0.13874
 H660 H 0.41261 0.76152 0.18032
   
