data_POSCAR
  _audit_creation_date              2014-09-24
  _audit_creation_method            'ToBaCCo'
  _symmetry_space_group_name_H-M    'P1'
  _symmetry_Int_Tables_number       1
  _symmetry_cell_setting            triclinic
  loop_
  _symmetry_equiv_pos_as_xyz
 x,y,z
_cell_length_a 48.4558
_cell_length_b 40.7172
_cell_length_c 35.1002
_cell_angle_alpha 90.112600
_cell_angle_beta 90.191700
_cell_angle_gamma 86.481500
loop_
  _atom_site_label
  _atom_site_type_symbol
  _atom_site_fract_x
  _atom_site_fract_y
  _atom_site_fract_z
C1 C 1.23483 0.23039 0.20391
 C2 C 1.24651 0.26070 0.18548
 C3 C 1.25794 0.28159 0.21080
 C4 C 1.25606 0.27025 0.25282
 C5 C 1.25927 0.21490 0.22668
 C6 C 1.27007 0.23530 0.25273
 C7 C 1.21450 0.24426 0.23378
 C8 C 1.22530 0.26478 0.25954
 H9 H 1.24923 0.26306 0.15507
 H10 H 1.26496 0.28704 0.27390
 H11 H 1.26654 0.18932 0.22374
 H12 H 1.19301 0.23827 0.23424
 C13 C 0.74161 -0.27885 0.20306
 C14 C 0.75369 -0.25150 0.17922
 C15 C 0.76634 -0.22851 0.20030
 C16 C 0.76566 -0.23495 0.24350
 C17 C 0.76648 -0.29281 0.22648
 C18 C 0.77893 -0.26997 0.24789
 C19 C 0.72268 -0.26070 0.23193
 C20 C 0.73502 -0.23772 0.25300
 H21 H 0.75472 -0.25217 0.14843
 H22 H 0.77570 -0.21634 0.26101
 H23 H 0.77392 -0.31840 0.22565
 H24 H 0.70082 -0.26465 0.23393
 C25 C 0.72958 0.22759 -0.30433
 C26 C 0.75028 0.24561 -0.32418
 C27 C 0.76753 0.26386 -0.29929
 C28 C 0.75955 0.26115 -0.25884
 C29 C 0.74475 0.20775 -0.27597
 C30 C 0.76175 0.22566 -0.25083
 C31 C 0.71393 0.25304 -0.28319
 C32 C 0.72979 0.27101 -0.25679
 H33 H 0.75309 0.24424 -0.35464
 H34 H 0.77187 0.27586 -0.23974
 H35 H 0.74168 0.18179 -0.27279
 H36 H 0.69295 0.26113 -0.29096
 C37 C 1.22312 -0.26695 -0.29895
 C38 C 1.24038 -0.24244 -0.32012
 C39 C 1.25848 -0.22697 -0.29749
 C40 C 1.25804 -0.23790 -0.25546
 C41 C 1.24488 -0.29066 -0.27992
 C42 C 1.26289 -0.27569 -0.25658
 C43 C 1.20976 -0.24724 -0.26607
 C44 C 1.22779 -0.23210 -0.24338
 H45 H 1.23986 -0.23918 -0.35069
 H46 H 1.27261 -0.22527 -0.23682
 H47 H 1.24501 -0.31711 -0.28308
 H48 H 1.18758 -0.24470 -0.26187
 C49 C 0.23928 0.22245 0.79723
 C50 C 0.25268 0.24898 0.81597
 C51 C 0.26345 0.27267 0.79044
 C52 C 0.25832 0.26490 0.75008
 C53 C 0.21721 0.23935 0.77166
 C54 C 0.22691 0.26119 0.74661
 C55 C 0.26116 0.20760 0.76968
 C56 C 0.27061 0.22945 0.74435
 H57 H 0.25858 0.24752 0.84567
 H58 H 0.26572 0.28247 0.72894
 H59 H 0.19567 0.23363 0.77265
 H60 H 0.26761 0.18166 0.76880
 C61 C 0.73859 0.72108 0.79468
 C62 C 0.75522 0.74270 0.81725
 C63 C 0.76817 0.76743 0.79538
 C64 C 0.76222 0.76462 0.75425
 C65 C 0.71932 0.74289 0.77358
 C66 C 0.73194 0.76705 0.75103
 C67 C 0.75793 0.70697 0.76655
 C68 C 0.77094 0.73064 0.74354
 H69 H 0.76085 0.73728 0.84649
 H70 H 0.77146 0.78329 0.73678
 H71 H 0.69737 0.73919 0.77266
 H72 H 0.76519 0.68128 0.76731
 C73 C 0.73136 0.22839 0.30060
 C74 C 0.75521 0.24315 0.32246
 C75 C 0.77206 0.26070 0.30023
 C76 C 0.76327 0.26225 0.25793
 C77 C 0.71645 0.25815 0.28135
 C78 C 0.73280 0.27569 0.25866
 C79 C 0.74538 0.20877 0.26812
 C80 C 0.76242 0.22593 0.24606
 H81 H 0.75874 0.24008 0.35265
 H82 H 0.77662 0.27702 0.23996
 H83 H 0.69449 0.26418 0.28449
 H84 H 0.74229 0.18291 0.26377
 C85 C 0.22297 0.72697 0.30075
 C86 C 0.24130 0.75066 0.32162
 C87 C 0.25825 0.76708 0.29838
 C88 C 0.25581 0.75751 0.25593
 C89 C 0.20808 0.74784 0.27000
 C90 C 0.22500 0.76379 0.24662
 C91 C 0.24369 0.70398 0.27893
 C92 C 0.26049 0.71964 0.25474
 H93 H 0.24159 0.75328 0.35230
 H94 H 0.26926 0.77073 0.23644
 H95 H 0.18574 0.75056 0.26781
 H96 H 0.24516 0.67756 0.28264
 O97 O 1.03778 0.05964 0.06668
 O98 O 1.06861 0.02624 0.03275
 C99 C 1.06278 0.04952 0.05718
 O100 O 0.96033 -0.05413 0.06356
 O101 O 0.93005 -0.02065 0.02868
 C102 C 0.93551 -0.04415 0.05304
 O103 O 1.03742 -0.05619 0.07049
 O104 O 1.06845 -0.02945 0.03454
 C105 C 1.06250 -0.05001 0.06098
 O106 O 0.96094 0.06930 0.05922
 O107 O 0.93032 0.03867 0.02685
 C108 C 0.93606 0.06285 0.04914
 Zr109 Zr 0.99929 0.04479 0.04622
 O110 O 0.99717 0.03961 0.10599
 O111 O 1.00042 0.09635 0.05238
 Zr112 Zr 0.99901 -0.03706 0.04826
 O113 O 0.99692 -0.02963 0.10780
 O114 O 0.99984 -0.08861 0.05580
 O115 O 1.02406 0.00213 0.05547
 O116 O 0.97432 0.00596 0.05319
 O117 O 0.96281 0.06558 -0.06872
 O118 O 0.93130 0.03723 -0.03553
 C119 C 0.93768 0.05995 -0.05927
 O120 O 1.03970 -0.05824 -0.06806
 O121 O 1.06956 -0.03035 -0.03103
 C122 C 1.06445 -0.05161 -0.05723
 O123 O 0.96235 -0.05589 -0.06698
 O124 O 0.93105 -0.02189 -0.03457
 C125 C 0.93725 -0.04592 -0.05803
 O126 O 1.04003 0.05612 -0.06977
 O127 O 1.06964 0.02471 -0.03163
 C128 C 1.06467 0.04651 -0.05798
 Zr129 Zr 1.00086 0.04286 -0.05042
 O130 O 1.00050 0.03716 -0.11025
 O131 O 1.00338 0.09440 -0.05517
 Zr132 Zr 1.00056 -0.03936 -0.04829
 O133 O 0.99876 -0.03956 -0.10856
 O134 O 1.00324 -0.09145 -0.04748
 Zr135 Zr 1.04108 -0.00030 0.00030
 Zr136 Zr 0.95836 0.00603 -0.00261
 O137 O 0.97634 0.00357 -0.05710
 O138 O 1.02569 -0.00025 -0.05589
 O139 O 0.97577 0.05227 -0.00315
 O140 O 1.02367 -0.04631 0.00093
 O141 O 1.02381 0.04832 -0.00146
 O142 O 0.97530 -0.04294 -0.00073
 H143 H 0.96098 0.00758 0.07457
 H144 H 1.03605 -0.06659 0.00162
 H145 H 0.96396 0.00424 -0.07966
 H146 H 1.03588 0.06707 -0.00172
 H147 H 1.00325 -0.09863 0.03048
 H148 H 0.98819 -0.09852 -0.03097
 H149 H 1.01331 -0.02557 -0.11783
 H150 H 1.00076 0.05965 -0.12090
 H151 H 0.99126 0.10467 -0.03527
 H152 H 1.00376 0.10524 0.02676
 H153 H 0.99640 0.06225 0.11646
 H154 H 0.99619 -0.05179 0.11921
 O155 O 0.95070 0.44905 0.43439
 O156 O 0.97578 0.41192 0.47201
 C157 C 0.95822 0.41926 0.44471
 O158 O 1.04425 0.53913 0.43799
 O159 O 1.01719 0.57687 0.47200
 C160 C 1.03666 0.56905 0.44763
 O161 O 1.04534 0.44847 0.43457
 O162 O 1.02375 0.41156 0.47186
 C163 C 1.04081 0.41879 0.44496
 O164 O 0.94264 0.54028 0.43924
 O165 O 0.96744 0.57746 0.47200
 C166 C 0.94802 0.57013 0.44836
 Zr167 Zr 0.96114 0.49467 0.45689
 O168 O 0.95990 0.49751 0.39670
 O169 O 0.91771 0.49291 0.46044
 Zr170 Zr 1.03008 0.49400 0.45632
 O171 O 1.02632 0.49527 0.39631
 O172 O 1.07380 0.49017 0.45364
 O173 O 0.99697 0.46453 0.44956
 O174 O 0.99429 0.52341 0.44926
 O175 O 0.94344 0.54159 0.56990
 O176 O 0.96769 0.57800 0.53541
 C177 C 0.94886 0.57121 0.55995
 O178 O 1.04613 0.44969 0.57470
 O179 O 1.02394 0.41213 0.53878
 C180 C 1.04133 0.41983 0.56523
 O181 O 1.04475 0.54031 0.56957
 O182 O 1.01741 0.57752 0.53518
 C183 C 1.03713 0.57009 0.55950
 O184 O 0.95019 0.45038 0.57495
 O185 O 0.97595 0.41255 0.53915
 C186 C 0.95785 0.42041 0.56550
 Zr187 Zr 0.96153 0.49555 0.55258
 O188 O 0.96208 0.50002 0.61271
 O189 O 0.91804 0.49298 0.55266
 Zr190 Zr 1.03055 0.49488 0.55239
 O191 O 1.02967 0.49957 0.61251
 O192 O 1.07432 0.49065 0.55325
 Zr193 Zr 0.99824 0.44490 0.50512
 Zr194 Zr 0.99379 0.54443 0.50399
 O195 O 0.99479 0.52433 0.55918
 O196 O 0.99743 0.46553 0.56036
 O197 O 0.95462 0.52461 0.50441
 O198 O 1.03691 0.46574 0.50463
 O199 O 0.95754 0.46621 0.50498
 O200 O 1.03470 0.52365 0.50402
 H201 H 0.99345 0.53818 0.42682
 H202 H 1.05404 0.45114 0.50464
 H203 H 0.99424 0.53952 0.58129
 H204 H 0.94187 0.45167 0.50504
 H205 H 1.08069 0.50613 0.47210
 H206 H 1.08093 0.50789 0.53635
 H207 H 1.02043 0.48054 0.62288
 H208 H 0.97348 0.48107 0.62298
 H209 H 0.91058 0.50756 0.53207
 H210 H 0.91078 0.49269 0.43384
 H211 H 0.97545 0.48298 0.38702
 H212 H 1.04540 0.49522 0.38621
 O213 O 0.53884 0.04807 0.56548
 O214 O 0.56850 0.01527 0.52910
 C215 C 0.56350 0.03765 0.55486
 O216 O 0.45885 -0.06031 0.56461
 O217 O 0.42839 -0.02622 0.53069
 C218 C 0.43398 -0.04950 0.55536
 O219 O 0.53578 -0.06489 0.56792
 O220 O 0.56693 -0.03965 0.53065
 C221 C 0.56088 -0.05949 0.55783
 O222 O 0.46188 0.05973 0.56233
 O223 O 0.42980 0.03203 0.52891
 C224 C 0.43664 0.05477 0.55261
 Zr225 Zr 0.49956 0.03603 0.54494
 O226 O 0.49728 0.03676 0.60518
 O227 O 0.50211 0.08764 0.54241
 Zr228 Zr 0.49750 -0.04657 0.54485
 O229 O 0.49664 -0.05131 0.60479
 O230 O 0.49717 -0.09811 0.53781
 O231 O 0.52319 -0.00782 0.55249
 O232 O 0.47437 -0.00255 0.55218
 O233 O 0.46129 0.06007 0.43321
 O234 O 0.42944 0.03217 0.46636
 C235 C 0.43612 0.05525 0.44315
 O236 O 0.53512 -0.06598 0.42671
 O237 O 0.56652 -0.04004 0.46330
 C238 C 0.56028 -0.06039 0.43660
 O239 O 0.45813 -0.06117 0.43078
 O240 O 0.42805 -0.02664 0.46468
 C241 C 0.43336 -0.05026 0.44025
 O242 O 0.53772 0.04758 0.42768
 O243 O 0.56801 0.01518 0.46385
 C244 C 0.56254 0.03733 0.43792
 Zr245 Zr 0.49899 0.03551 0.44905
 O246 O 0.49697 0.03149 0.38908
 O247 O 0.50236 0.08699 0.44603
 Zr248 Zr 0.49698 -0.04675 0.44940
 O249 O 0.49457 -0.04868 0.38927
 O250 O 0.49691 -0.09844 0.45468
 Zr251 Zr 0.53965 -0.00963 0.49694
 Zr252 Zr 0.45657 -0.00084 0.49741
 O253 O 0.47357 -0.00288 0.44234
 O254 O 0.52272 -0.00819 0.44159
 O255 O 0.47485 0.04479 0.49718
 O256 O 0.52156 -0.05523 0.49705
 O257 O 0.52342 0.03942 0.49683
 O258 O 0.47211 -0.05035 0.49732
 H259 H 0.46208 -0.00078 0.57469
 H260 H 0.53383 -0.07562 0.49713
 H261 H 0.46091 -0.00120 0.42011
 H262 H 0.53601 0.05770 0.49658
 H263 H 0.49809 -0.10751 0.56382
 H264 H 0.49718 -0.10727 0.42835
 H265 H 0.50547 -0.03076 0.37948
 H266 H 0.49729 0.05422 0.37913
 H267 H 0.49477 0.09631 0.47013
 H268 H 0.50268 0.09547 0.56915
 H269 H 0.51293 0.02241 0.61498
 H270 H 0.49572 -0.02876 0.61529
 O271 O 0.53851 0.55258 0.06929
 O272 O 0.56933 0.52096 0.03332
 C273 C 0.56352 0.54295 0.05931
 O274 O 0.46185 0.43990 0.06479
 O275 O 0.43093 0.47345 0.03099
 C276 C 0.43681 0.45009 0.05547
 O277 O 0.53891 0.43862 0.06990
 O278 O 0.56943 0.46604 0.03393
 C279 C 0.56383 0.44555 0.06066
 O280 O 0.46125 0.56047 0.06488
 O281 O 0.43054 0.53143 0.03052
 C282 C 0.43631 0.55406 0.05504
 Zr283 Zr 0.49986 0.53893 0.04767
 O284 O 0.49678 0.53900 0.10786
 O285 O 0.50076 0.59074 0.04557
 Zr286 Zr 0.50032 0.45601 0.04666
 O287 O 0.49741 0.45334 0.10668
 O288 O 0.50214 0.40423 0.04112
 O289 O 0.52471 0.49591 0.05514
 O290 O 0.47591 0.49901 0.05386
 O291 O 0.46188 0.56155 -0.06560
 O292 O 0.43084 0.53178 -0.03320
 C293 C 0.43684 0.55487 -0.05683
 O294 O 0.54026 0.43959 -0.07069
 O295 O 0.57035 0.46656 -0.03292
 C296 C 0.56511 0.44630 -0.06021
 O297 O 0.46281 0.44042 -0.06850
 O298 O 0.43143 0.47353 -0.03497
 C299 C 0.43765 0.45035 -0.05964
 O300 O 0.53889 0.55346 -0.06857
 O301 O 0.56951 0.52163 -0.03230
 C302 C 0.56384 0.54386 -0.05808
 Zr303 Zr 0.50029 0.53932 -0.04824
 O304 O 0.49935 0.53599 -0.10831
 O305 O 0.50190 0.59110 -0.04983
 Zr306 Zr 0.50100 0.45672 -0.04919
 O307 O 0.49880 0.45732 -0.10942
 O308 O 0.50417 0.40465 -0.04921
 Zr309 Zr 0.54168 0.49527 -0.00007
 Zr310 Zr 0.45872 0.50037 -0.00128
 O311 O 0.47636 0.49965 -0.05602
 O312 O 0.52546 0.49663 -0.05582
 O313 O 0.47531 0.54701 -0.00052
 O314 O 0.52498 0.44881 -0.00088
 O315 O 0.52408 0.54374 0.00013
 O316 O 0.47581 0.45150 -0.00169
 H317 H 0.46346 0.49984 0.07621
 H318 H 0.53781 0.42890 -0.00086
 H319 H 0.46398 0.50078 -0.07857
 H320 H 0.53614 0.56253 0.00044
 H321 H 0.50233 0.39540 0.06741
 H322 H 0.49039 0.39727 -0.03085
 H323 H 0.51174 0.47351 -0.11839
 H324 H 0.49915 0.55890 -0.11782
 H325 H 0.49231 0.59979 -0.02675
 H326 H 0.50068 0.59843 0.07239
 H327 H 0.51297 0.52578 0.11800
 H328 H 0.50905 0.47032 0.11723
 C329 C 1.18813 0.16245 0.13896
 C330 C 1.19457 0.19218 0.12219
 C331 C 1.21088 0.21385 0.14192
 C332 C 1.22101 0.20583 0.17866
 C333 C 1.21458 0.17552 0.19471
 C334 C 1.19854 0.15398 0.17493
 C335 C 1.16840 0.14209 0.12179
 C336 C 1.15094 0.12501 0.10979
 C337 C 1.12919 0.10507 0.09750
 C338 C 1.13466 0.07885 0.07232
 C339 C 1.11319 0.05990 0.06023
 C340 C 1.08599 0.06705 0.07320
 C341 C 1.08091 0.09301 0.09923
 C342 C 1.10240 0.11185 0.11127
 H343 H 1.18609 0.19920 0.09458
 H344 H 1.21423 0.23733 0.12903
 H345 H 1.22100 0.16905 0.22345
 H346 H 1.19323 0.13132 0.18846
 H347 H 1.15540 0.07330 0.06172
 H348 H 1.11782 0.04017 0.04008
 H349 H 1.06025 0.09923 0.10972
 H350 H 1.09805 0.13198 0.13103
 C351 C 1.15441 0.69081 0.64354
 C352 C 1.16578 0.71853 0.62806
 C353 C 1.18872 0.73163 0.64546
 C354 C 1.20098 0.71671 0.67820
 C355 C 1.18902 0.68898 0.69350
 C356 C 1.16617 0.67603 0.67614
 C357 C 1.13066 0.67700 0.62670
 C358 C 1.11139 0.66273 0.61469
 C359 C 1.09004 0.64188 0.60301
 C360 C 1.09017 0.61060 0.61913
 C361 C 1.07189 0.58807 0.60615
 C362 C 1.05303 0.59636 0.57659
 C363 C 1.05179 0.62860 0.56201
 C364 C 1.07045 0.65125 0.57496
 H365 H 1.15661 0.73037 0.60305
 H366 H 1.19598 0.75410 0.63392
 H367 H 1.19677 0.67787 0.71973
 H368 H 1.15732 0.65474 0.68862
 H369 H 1.10510 0.60317 0.64102
 H370 H 1.07325 0.56369 0.61857
 H371 H 1.03712 0.63589 0.53986
 H372 H 1.07006 0.67560 0.56253
 C373 C 0.68197 0.15876 0.63640
 C374 C 0.70772 0.16617 0.62202
 C375 C 0.72306 0.18973 0.64026
 C376 C 0.71253 0.20692 0.67277
 C377 C 0.68664 0.19821 0.68703
 C378 C 0.67149 0.17492 0.66874
 C379 C 0.66601 0.13400 0.61948
 C380 C 0.65060 0.11416 0.60786
 C381 C 0.62996 0.09227 0.59652
 C382 C 0.63503 0.06878 0.56786
 C383 C 0.61373 0.04959 0.55550
 C384 C 0.58713 0.05397 0.57156
 C385 C 0.58271 0.07671 0.60143
 C386 C 0.60397 0.09569 0.61376
 H387 H 0.71625 0.15317 0.59737
 H388 H 0.74357 0.19330 0.62962
 H389 H 0.67833 0.20845 0.71339
 H390 H 0.65181 0.16884 0.68058
 H391 H 0.65514 0.06588 0.55447
 H392 H 0.61781 0.03223 0.53250
 H393 H 0.56259 0.08058 0.61458
 H394 H 0.59991 0.11373 0.63610
 C395 C 0.68987 0.65208 0.14758
 C396 C 0.70484 0.64280 0.18032
 C397 C 0.72244 0.66455 0.19726
 C398 C 0.72589 0.69580 0.18125
 C399 C 0.71059 0.70482 0.14826
 C400 C 0.69291 0.68303 0.13145
 C401 C 0.66968 0.63100 0.13251
 C402 C 0.65207 0.61394 0.12061
 C403 C 0.63030 0.59448 0.10689
 C404 C 0.63572 0.57000 0.07942
 C405 C 0.61413 0.55242 0.06477
 C406 C 0.58679 0.55923 0.07736
 C407 C 0.58172 0.58334 0.10568
 C408 C 0.60333 0.60082 0.12029
 H409 H 0.70215 0.61917 0.19352
 H410 H 0.73245 0.65731 0.22380
 H411 H 0.71133 0.72920 0.13626
 H412 H 0.68087 0.69075 0.10661
 H413 H 0.65652 0.56487 0.06886
 H414 H 0.61879 0.53408 0.04297
 H415 H 0.56098 0.58923 0.11606
 H416 H 0.59891 0.61970 0.14158
 C417 C 0.81393 -0.15486 0.14890
 C418 C 0.78942 -0.16371 0.13153
 C419 C 0.77359 -0.18730 0.14849
 C420 C 0.78217 -0.20233 0.18300
 C421 C 0.80663 -0.19290 0.20042
 C422 C 0.82236 -0.16935 0.18347
 C423 C 0.83158 -0.13256 0.13055
 C424 C 0.84787 -0.11509 0.11625
 C425 C 0.86917 -0.09596 0.10076
 C426 C 0.86346 -0.07245 0.07225
 C427 C 0.88490 -0.05503 0.05694
 C428 C 0.91228 -0.06115 0.06990
 C429 C 0.91759 -0.08458 0.09886
 C430 C 0.89622 -0.10177 0.11409
 H431 H 0.78275 -0.15275 0.10468
 H432 H 0.75472 -0.19386 0.13458
 H433 H 0.81419 -0.20445 0.22649
 H434 H 0.84146 -0.16296 0.19696
 H435 H 0.84256 -0.06778 0.06168
 H436 H 0.88012 -0.03716 0.03470
 H437 H 0.93833 -0.08989 0.10969
 H438 H 0.90089 -0.11989 0.13613
 C439 C 0.83984 0.30615 0.65928
 C440 C 0.81775 0.30101 0.63479
 C441 C 0.79382 0.28769 0.64856
 C442 C 0.79131 0.27914 0.68740
 C443 C 0.81375 0.28504 0.71189
 C444 C 0.83771 0.29831 0.69788
 C445 C 0.86414 0.32072 0.64489
 C446 C 0.88383 0.33410 0.63262
 C447 C 0.90624 0.35219 0.61816
 C448 C 0.91835 0.34441 0.58275
 C449 C 0.93712 0.36528 0.56656
 C450 C 0.94352 0.39436 0.58540
 C451 C 0.93247 0.40084 0.62186
 C452 C 0.91403 0.37991 0.63809
 H453 H 0.81891 0.30754 0.60494
 H454 H 0.77711 0.28509 0.62853
 H455 H 0.81378 0.27814 0.74158
 H456 H 0.85468 0.30224 0.71720
 H457 H 0.91240 0.32308 0.56695
 H458 H 0.94521 0.35979 0.53844
 H459 H 0.93715 0.42295 0.63718
 H460 H 0.90486 0.38622 0.66546
 C461 C 0.31240 -0.15698 0.65693
 C462 C 0.28549 -0.15840 0.64277
 C463 C 0.26784 -0.18088 0.65794
 C464 C 0.27690 -0.20231 0.68749
 C465 C 0.30379 -0.20031 0.70203
 C466 C 0.32145 -0.17783 0.68674
 C467 C 0.33116 -0.13521 0.63987
 C468 C 0.34761 -0.11791 0.62559
 C469 C 0.36851 -0.09874 0.60906
 C470 C 0.36239 -0.07721 0.57864
 C471 C 0.38349 -0.06037 0.56151
 C472 C 0.41094 -0.06512 0.57455
 C473 C 0.41663 -0.08632 0.60564
 C474 C 0.39561 -0.10294 0.62267
 H475 H 0.27825 -0.14238 0.61974
 H476 H 0.24708 -0.18145 0.64656
 H477 H 0.31147 -0.21672 0.72441
 H478 H 0.34232 -0.17708 0.69777
 H479 H 0.34145 -0.07385 0.56779
 H480 H 0.37844 -0.04431 0.53760
 H481 H 0.43746 -0.09046 0.61664
 H482 H 0.40061 -0.11954 0.64613
 C483 C 0.31174 0.35221 0.16582
 C484 C 0.28632 0.34753 0.14820
 C485 C 0.26816 0.32585 0.16394
 C486 C 0.27516 0.30836 0.19755
 C487 C 0.30018 0.31430 0.21601
 C488 C 0.31837 0.33599 0.20016
 C489 C 0.33181 0.37161 0.14725
 C490 C 0.34915 0.38671 0.13133
 C491 C 0.37078 0.40341 0.11245
 C492 C 0.36457 0.42740 0.08457
 C493 C 0.38591 0.44272 0.06589
 C494 C 0.41380 0.43415 0.07480
 C495 C 0.41970 0.41003 0.10292
 C496 C 0.39842 0.39487 0.12149
 H497 H 0.28089 0.35988 0.12167
 H498 H 0.24892 0.32209 0.14924
 H499 H 0.30639 0.30095 0.24158
 H500 H 0.33802 0.33924 0.21403
 H501 H 0.34326 0.43417 0.07716
 H502 H 0.38058 0.46114 0.04445
 H503 H 0.44084 0.40277 0.11070
 H504 H 0.40357 0.37631 0.14287
 C505 C 0.81528 0.17705 -0.16993
 C506 C 0.80870 0.21083 -0.16626
 C507 C 0.79085 0.22712 -0.19255
 C508 C 0.77935 0.20980 -0.22315
 C509 C 0.78636 0.17561 -0.22596
 C510 C 0.80397 0.15959 -0.19968
 C511 C 0.83496 0.15999 -0.14514
 C512 C 0.85204 0.14407 -0.12685
 C513 C 0.87327 0.12400 -0.10789
 C514 C 0.86654 0.09982 -0.08176
 C515 C 0.88740 0.07872 -0.06590
 C516 C 0.91520 0.08152 -0.07625
 C517 C 0.92164 0.10609 -0.10239
 C518 C 0.90083 0.12708 -0.11806
 H519 H 0.81748 0.22463 -0.14325
 H520 H 0.78582 0.25301 -0.18787
 H521 H 0.77950 0.16089 -0.24937
 H522 H 0.80931 0.13351 -0.20316
 H523 H 0.84518 0.09704 -0.07402
 H524 H 0.88176 0.06025 -0.04567
 H525 H 0.94278 0.10909 -0.11095
 H526 H 0.90623 0.14548 -0.13856
 C527 C 0.84654 0.70063 0.32182
 C528 C 0.84517 0.68756 0.28501
 C529 C 0.82369 0.69797 0.26049
 C530 C 0.80320 0.72163 0.27247
 C531 C 0.80539 0.73586 0.30881
 C532 C 0.82688 0.72522 0.33350
 C533 C 0.86589 0.68526 0.34848
 C534 C 0.88110 0.66904 0.36931
 C535 C 0.89758 0.64568 0.39178
 C536 C 0.89028 0.61305 0.39148
 C537 C 0.90652 0.58890 0.41041
 C538 C 0.93053 0.59686 0.43019
 C539 C 0.93748 0.62994 0.43133
 C540 C 0.92109 0.65428 0.41199
 H541 H 0.86012 0.66832 0.27576
 H542 H 0.82280 0.68704 0.23240
 H543 H 0.78977 0.75399 0.31880
 H544 H 0.82755 0.73520 0.36210
 H545 H 0.87215 0.60610 0.37594
 H546 H 0.90030 0.56382 0.40916
 H547 H 0.95580 0.63684 0.44639
 H548 H 0.92696 0.67952 0.41233
 C549 C 0.32409 0.18664 0.33352
 C550 C 0.32952 0.18365 0.29453
 C551 C 0.31302 0.20142 0.26826
 C552 C 0.29085 0.22254 0.28064
 C553 C 0.28641 0.22702 0.31990
 C554 C 0.30293 0.20894 0.34633
 C555 C 0.33997 0.16560 0.35943
 C556 C 0.35469 0.14696 0.37823
 C557 C 0.37439 0.12460 0.39707
 C558 C 0.40239 0.12768 0.38983
 C559 C 0.42215 0.10499 0.40473
 C560 C 0.41433 0.07859 0.42736
 C561 C 0.38607 0.07577 0.43505
 C562 C 0.36615 0.09864 0.41978
 H563 H 0.34598 0.16668 0.28433
 H564 H 0.31685 0.19769 0.23812
 H565 H 0.26921 0.24290 0.32999
 H566 H 0.29865 0.21155 0.37648
 H567 H 0.40900 0.14746 0.37205
 H568 H 0.44365 0.10826 0.39831
 H569 H 0.37939 0.05587 0.45251
 H570 H 0.34444 0.09587 0.42528
 C571 C 0.31768 0.66710 -0.18213
 C572 C 0.31298 0.65635 -0.21936
 C573 C 0.29568 0.67528 -0.24388
 C574 C 0.28282 0.70535 -0.23154
 C575 C 0.28798 0.71623 -0.19426
 C576 C 0.30528 0.69721 -0.16973
 C577 C 0.33588 0.64761 -0.15723
 C578 C 0.35191 0.63144 -0.13736
 C579 C 0.37248 0.61277 -0.11516
 C580 C 0.40002 0.62084 -0.11755
 C581 C 0.42064 0.60228 -0.09806
 C582 C 0.41418 0.57511 -0.07568
 C583 C 0.38633 0.56744 -0.07273
 C584 C 0.36559 0.58615 -0.09248
 H585 H 0.32269 0.63329 -0.22946
 H586 H 0.29240 0.66640 -0.27253
 H587 H 0.27805 0.73896 -0.18366
 H588 H 0.30885 0.70588 -0.14104
 H589 H 0.40564 0.64133 -0.13496
 H590 H 0.44177 0.60916 -0.10091
 H591 H 0.38064 0.54673 -0.05577
 H592 H 0.34431 0.57964 -0.09044
 C593 C 1.19104 -0.16719 -0.16029
 C594 C 1.21265 -0.15669 -0.18279
 C595 C 1.22636 -0.17870 -0.20812
 C596 C 1.21811 -0.21104 -0.21141
 C597 C 1.19765 -0.22185 -0.18703
 C598 C 1.18423 -0.20004 -0.16157
 C599 C 1.17298 -0.14393 -0.14018
 C600 C 1.15577 -0.12585 -0.12498
 C601 C 1.13332 -0.10602 -0.10857
 C602 C 1.13786 -0.08384 -0.07907
 C603 C 1.11548 -0.06575 -0.06261
 C604 C 1.08829 -0.06978 -0.07544
 C605 C 1.08408 -0.09190 -0.10541
 C606 C 1.10644 -0.10984 -0.12181
 H607 H 1.21788 -0.13121 -0.18224
 H608 H 1.24196 -0.16990 -0.22694
 H609 H 1.19114 -0.24678 -0.18903
 H610 H 1.16746 -0.20837 -0.14445
 H611 H 1.15860 -0.08078 -0.06857
 H612 H 1.11946 -0.04895 -0.03956
 H613 H 1.06349 -0.09555 -0.11606
 H614 H 1.10273 -0.12700 -0.14464
 C615 C 1.16850 0.30715 0.34156
 C616 C 1.18810 0.32666 0.32494
 C617 C 1.20808 0.31254 0.30001
 C618 C 1.20830 0.27890 0.29120
 C619 C 1.18964 0.25923 0.30985
 C620 C 1.16986 0.27328 0.33477
 C621 C 1.14520 0.32218 0.36190
 C622 C 1.12503 0.33526 0.37695
 C623 C 1.10082 0.35257 0.39262
 C624 C 1.08803 0.37848 0.37178
 C625 C 1.06671 0.39833 0.38795
 C626 C 1.05777 0.39258 0.42530
 C627 C 1.06925 0.36506 0.44512
 C628 C 1.09088 0.34522 0.42892
 H629 H 1.18716 0.35298 0.32989
 H630 H 1.22215 0.32818 0.28588
 H631 H 1.18965 0.23311 0.30393
 H632 H 1.15487 0.25793 0.34740
 H633 H 1.09534 0.38426 0.34357
 H634 H 1.05815 0.41928 0.37191
 H635 H 1.06280 0.36020 0.47387
 H636 H 1.10052 0.32505 0.44524
 C637 C 0.68554 -0.17371 0.32586
 C638 C 0.70733 -0.16134 0.30531
 C639 C 0.72429 -0.18246 0.28272
 C640 C 0.71940 -0.21607 0.28027
 C641 C 0.69811 -0.22843 0.30213
 C642 C 0.68129 -0.20736 0.32473
 C643 C 0.66612 -0.15192 0.34586
 C644 C 0.64871 -0.13460 0.36180
 C645 C 0.62680 -0.11506 0.37998
 C646 C 0.63257 -0.09291 0.40903
 C647 C 0.61096 -0.07481 0.42723
 C648 C 0.58328 -0.07872 0.41660
 C649 C 0.57779 -0.10086 0.38710
 C650 C 0.59941 -0.11887 0.36897
 H651 H 0.71067 -0.13528 0.30583
 H652 H 0.74036 -0.17225 0.26587
 H653 H 0.69415 -0.25430 0.30119
 H654 H 0.66447 -0.21718 0.34050
 H655 H 0.65372 -0.08984 0.41781
 H656 H 0.61594 -0.05801 0.44985
 H657 H 0.55678 -0.10449 0.37816
 H658 H 0.59474 -0.13601 0.34654
 C659 C 0.68835 0.33875 -0.18060
 C660 C 0.71673 0.34090 -0.18707
 C661 C 0.73093 0.31836 -0.21168
 C662 C 0.71674 0.29369 -0.23063
 C663 C 0.68829 0.29173 -0.22262
 C664 C 0.67444 0.31390 -0.19816
 C665 C 0.67231 0.36175 -0.15696
 C666 C 0.65591 0.37895 -0.13886
 C667 C 0.63367 0.39711 -0.11934
 C668 C 0.63862 0.41806 -0.08871
 C669 C 0.61637 0.43430 -0.06952
 C670 C 0.58888 0.42965 -0.08067
 C671 C 0.58426 0.40872 -0.11167
 C672 C 0.60645 0.39265 -0.13076
 H673 H 0.72777 0.36014 -0.17357
 H674 H 0.75260 0.32144 -0.21676
 H675 H 0.67640 0.27242 -0.23422
 H676 H 0.65259 0.31162 -0.19300
 H677 H 0.65958 0.42163 -0.07949
 H678 H 0.62071 0.45026 -0.04581
 H679 H 0.56347 0.40459 -0.12119
 H680 H 0.60233 0.37642 -0.15435
 C681 C 1.19329 0.15368 -0.13882
 C682 C 1.20287 0.14580 -0.17531
 C683 C 1.21892 0.16737 -0.19480
 C684 C 1.22630 0.19706 -0.17787
 C685 C 1.21688 0.20446 -0.14064
 C686 C 1.20058 0.18279 -0.12123
 C687 C 1.17320 0.13379 -0.12204
 C688 C 1.15530 0.11737 -0.11028
 C689 C 1.13297 0.09841 -0.09818
 C690 C 1.13741 0.07337 -0.07130
 C691 C 1.11533 0.05559 -0.05917
 C692 C 1.08851 0.06278 -0.07380
 C693 C 1.08447 0.08750 -0.10152
 C694 C 1.10659 0.10517 -0.11361
 H695 H 1.19677 0.12371 -0.18952
 H696 H 1.22431 0.16151 -0.22403
 H697 H 1.22071 0.22765 -0.12719
 H698 H 1.19264 0.18944 -0.09326
 H699 H 1.15783 0.06787 -0.05939
 H700 H 1.11917 0.03674 -0.03775
 H701 H 1.06414 0.09368 -0.11332
 H702 H 1.10303 0.12442 -0.13466
 C703 C 1.15620 0.68437 0.36133
 C704 C 1.16879 0.66782 0.33045
 C705 C 1.19119 0.68075 0.31215
 C706 C 1.20194 0.71022 0.32493
 C707 C 1.18894 0.72676 0.35609
 C708 C 1.16641 0.71375 0.37435
 C709 C 1.13230 0.67117 0.37829
 C710 C 1.11266 0.65781 0.39045
 C711 C 1.09036 0.63862 0.40254
 C712 C 1.08609 0.60950 0.38288
 C713 C 1.06725 0.58792 0.39646
 C714 C 1.05228 0.59511 0.43002
 C715 C 1.05526 0.62545 0.44832
 C716 C 1.07447 0.64705 0.43480
 H717 H 1.16076 0.64529 0.31977
 H718 H 1.19927 0.66822 0.28700
 H719 H 1.19538 0.75042 0.36550
 H720 H 1.15655 0.72702 0.39791
 H721 H 1.09818 0.60280 0.35781
 H722 H 1.06519 0.56495 0.38140
 H723 H 1.04385 0.63166 0.47400
 H724 H 1.07758 0.66962 0.45018
 C725 C 0.67907 0.16017 0.35528
 C726 C 0.67140 0.17480 0.32060
 C727 C 0.68789 0.19770 0.30415
 C728 C 0.71225 0.20686 0.32233
 C729 C 0.71971 0.19196 0.35747
 C730 C 0.70309 0.16893 0.37390
 C731 C 0.66229 0.13567 0.37080
 C732 C 0.64702 0.11565 0.38211
 C733 C 0.62716 0.09307 0.39394
 C734 C 0.63286 0.07105 0.42393
 C735 C 0.61225 0.05133 0.43707
 C736 C 0.58571 0.05376 0.42049
 C737 C 0.58068 0.07497 0.38932
 C738 C 0.60127 0.09445 0.37619
 H739 H 0.65293 0.16798 0.30581
 H740 H 0.68202 0.20755 0.27645
 H741 H 0.73875 0.19680 0.37185
 H742 H 0.70929 0.15744 0.40066
 H743 H 0.65291 0.06980 0.43779
 H744 H 0.61673 0.03529 0.46114
 H745 H 0.56053 0.07734 0.37578
 H746 H 0.59672 0.11135 0.35286
 C747 C 0.68890 0.65320 -0.14810
 C748 C 0.69776 0.64710 -0.18536
 C749 C 0.71467 0.66874 -0.20345
 C750 C 0.72385 0.69680 -0.18436
 C751 C 0.71429 0.70275 -0.14673
 C752 C 0.69726 0.68097 -0.12876
 C753 C 0.66926 0.63247 -0.13128
 C754 C 0.65196 0.61555 -0.11847
 C755 C 0.63035 0.59617 -0.10435
 C756 C 0.63576 0.57260 -0.07588
 C757 C 0.61429 0.55480 -0.06150
 C758 C 0.58710 0.56048 -0.07539
 C759 C 0.58206 0.58378 -0.10455
 C760 C 0.60353 0.60145 -0.11888
 H761 H 0.69083 0.62613 -0.20098
 H762 H 0.71978 0.66395 -0.23303
 H763 H 0.71897 0.72483 -0.13144
 H764 H 0.68987 0.68641 -0.10020
 H765 H 0.65646 0.56829 -0.06446
 H766 H 0.61888 0.53716 -0.03896
 H767 H 0.56144 0.58879 -0.11594
 H768 H 0.59913 0.61958 -0.14098
 C769 C 0.81778 -0.16161 -0.15323
 C770 C 0.81847 -0.16643 -0.19260
 C771 C 0.80218 -0.18952 -0.20970
 C772 C 0.78473 -0.20865 -0.18772
 C773 C 0.78412 -0.20297 -0.14786
 C774 C 0.80049 -0.17982 -0.13093
 C775 C 0.83590 -0.13915 -0.13579
 C776 C 0.85207 -0.12109 -0.12201
 C777 C 0.87276 -0.10077 -0.10671
 C778 C 0.89986 -0.10514 -0.12010
 C779 C 0.92059 -0.08680 -0.10474
 C780 C 0.91458 -0.06364 -0.07563
 C781 C 0.88713 -0.05888 -0.06276
 C782 C 0.86634 -0.07745 -0.07818
 H783 H 0.83201 -0.15265 -0.21016
 H784 H 0.80445 -0.19255 -0.24000
 H785 H 0.77059 -0.21564 -0.12930
 H786 H 0.79972 -0.17625 -0.10034
 H787 H 0.90507 -0.12307 -0.14219
 H788 H 0.94143 -0.09106 -0.11549
 H789 H 0.88182 -0.04134 -0.04034
 H790 H 0.84540 -0.07389 -0.06757
 C791 C 0.84522 0.30104 0.34580
 C792 C 0.82118 0.30097 0.36773
 C793 C 0.79731 0.28824 0.35276
 C794 C 0.79711 0.27537 0.31553
 C795 C 0.82131 0.27570 0.29354
 C796 C 0.84523 0.28849 0.30861
 C797 C 0.86925 0.31570 0.36101
 C798 C 0.88847 0.32955 0.37404
 C799 C 0.91003 0.34856 0.38942
 C800 C 0.92189 0.34116 0.42514
 C801 C 0.93944 0.36304 0.44236
 C802 C 0.94478 0.39273 0.42425
 C803 C 0.93405 0.39888 0.38747
 C804 C 0.91686 0.37695 0.37022
 H805 H 0.82080 0.31102 0.39634
 H806 H 0.77891 0.28884 0.37022
 H807 H 0.82193 0.26554 0.26501
 H808 H 0.86367 0.28865 0.29126
 H809 H 0.91665 0.31929 0.44035
 H810 H 0.94747 0.35769 0.47060
 H811 H 0.93804 0.42139 0.37261
 H812 H 0.90783 0.38296 0.34262
 C813 C 0.31138 -0.16072 0.34244
 C814 C 0.28568 -0.16473 0.35923
 C815 C 0.26829 -0.18788 0.34459
 C816 C 0.27640 -0.20753 0.31296
 C817 C 0.30201 -0.20283 0.29580
 C818 C 0.31941 -0.17966 0.31053
 C819 C 0.33006 -0.13833 0.35887
 C820 C 0.34649 -0.12053 0.37259
 C821 C 0.36741 -0.10075 0.38841
 C822 C 0.36172 -0.07953 0.41930
 C823 C 0.38294 -0.06223 0.43578
 C824 C 0.41010 -0.06623 0.42165
 C825 C 0.41533 -0.08710 0.39010
 C826 C 0.39418 -0.10413 0.37368
 H827 H 0.27919 -0.15021 0.38387
 H828 H 0.24844 -0.19029 0.35801
 H829 H 0.30899 -0.21758 0.27167
 H830 H 0.33933 -0.17689 0.29739
 H831 H 0.34106 -0.07680 0.43104
 H832 H 0.37825 -0.04646 0.46008
 H833 H 0.43591 -0.09065 0.37827
 H834 H 0.39886 -0.12046 0.34984
 C835 C 0.31488 0.34537 -0.16633
 C836 C 0.29531 0.33176 -0.14302
 C837 C 0.27787 0.30870 -0.15765
 C838 C 0.27962 0.29836 -0.19615
 C839 C 0.29869 0.31349 -0.21980
 C840 C 0.31626 0.33654 -0.20490
 C841 C 0.33458 0.36662 -0.14980
 C842 C 0.35154 0.38321 -0.13504
 C843 C 0.37267 0.40154 -0.11703
 C844 C 0.36604 0.42466 -0.08830
 C845 C 0.38702 0.44091 -0.06971
 C846 C 0.41496 0.43410 -0.07954
 C847 C 0.42125 0.41104 -0.10874
 C848 C 0.40033 0.39497 -0.12723
 H849 H 0.29381 0.33855 -0.11320
 H850 H 0.26283 0.29934 -0.13844
 H851 H 0.30147 0.30644 -0.24929
 H852 H 0.33145 0.34677 -0.22327
 H853 H 0.34471 0.42987 -0.07997
 H854 H 0.38141 0.45846 -0.04741
 H855 H 0.44244 0.40517 -0.11727
 H856 H 0.40580 0.37709 -0.14926
 C857 C 1.18571 -0.16849 0.16809
 C858 C 1.17760 -0.20080 0.17006
 C859 C 1.19154 -0.22343 0.19409
 C860 C 1.21382 -0.21402 0.21645
 C861 C 1.22303 -0.18215 0.21267
 C862 C 1.20884 -0.15932 0.18872
 C863 C 1.16809 -0.14446 0.14835
 C864 C 1.15136 -0.12575 0.13303
 C865 C 1.12956 -0.10517 0.11602
 C866 C 1.10238 -0.10800 0.12833
 C867 C 1.08060 -0.08967 0.11088
 C868 C 1.08573 -0.06817 0.08077
 C869 C 1.11322 -0.06504 0.06899
 C870 C 1.13501 -0.08350 0.08650
 H871 H 1.15968 -0.20811 0.15436
 H872 H 1.18426 -0.24798 0.19634
 H873 H 1.24003 -0.17438 0.22992
 H874 H 1.21513 -0.13427 0.18760
 H875 H 1.09797 -0.12480 0.15113
 H876 H 1.05975 -0.09267 0.12072
 H877 H 1.11790 -0.04876 0.04584
 H878 H 1.15597 -0.08121 0.07669
 C879 C 1.16815 0.30598 0.66837
 C880 C 1.16919 0.27204 0.67443
 C881 C 1.18936 0.25732 0.69835
 C882 C 1.20871 0.27637 0.71676
 C883 C 1.20866 0.31013 0.70885
 C884 C 1.18830 0.32493 0.68490
 C885 C 1.14486 0.32158 0.64851
 C886 C 1.12478 0.33515 0.63370
 C887 C 1.10082 0.35313 0.61822
 C888 C 1.08918 0.34450 0.58322
 C889 C 1.06777 0.36472 0.56701
 C890 C 1.05830 0.39392 0.58542
 C891 C 1.06891 0.40103 0.62167
 C892 C 1.08996 0.38080 0.63790
 H893 H 1.15377 0.25714 0.66184
 H894 H 1.18930 0.23109 0.70346
 H895 H 1.22334 0.32525 0.72275
 H896 H 1.18760 0.35129 0.68047
 H897 H 1.09729 0.32293 0.56789
 H898 H 1.05982 0.35861 0.53927
 H899 H 1.06181 0.42318 0.63677
 H900 H 1.09856 0.38753 0.66516
 C901 C 0.68328 -0.16649 0.68167
 C902 C 0.67206 -0.18024 0.71405
 C903 C 0.68823 -0.20170 0.73699
 C904 C 0.71622 -0.20998 0.72815
 C905 C 0.72750 -0.19520 0.69574
 C906 C 0.71107 -0.17379 0.67262
 C907 C 0.66548 -0.14603 0.65750
 C908 C 0.64884 -0.12984 0.63872
 C909 C 0.62719 -0.11174 0.61814
 C910 C 0.59969 -0.11575 0.62815
 C911 C 0.57820 -0.09870 0.60860
 C912 C 0.58388 -0.07727 0.57862
 C913 C 0.61164 -0.07326 0.56878
 C914 C 0.63318 -0.09044 0.58845
 H915 H 0.65061 -0.17452 0.72153
 H916 H 0.67866 -0.21099 0.76224
 H917 H 0.74848 -0.20127 0.68665
 H918 H 0.71990 -0.16347 0.64733
 H919 H 0.59483 -0.13217 0.65110
 H920 H 0.55714 -0.10238 0.61703
 H921 H 0.61674 -0.05694 0.54586
 H922 H 0.65441 -0.08716 0.58048
 C923 C 0.69023 0.34792 0.18810
 C924 C 0.68566 0.34793 0.22743
 C925 C 0.70091 0.32579 0.25083
 C926 C 0.72097 0.30329 0.23520
 C927 C 0.72667 0.30475 0.19605
 C928 C 0.71123 0.32685 0.17254
 C929 C 0.67118 0.36678 0.16380
 C930 C 0.65376 0.38150 0.14469
 C931 C 0.63150 0.39786 0.12328
 C932 C 0.60420 0.39115 0.13166
 C933 C 0.58226 0.40658 0.11128
 C934 C 0.58726 0.42906 0.08206
 C935 C 0.61481 0.43573 0.07383
 C936 C 0.63678 0.42020 0.09432
 H937 H 0.66943 0.36400 0.23982
 H938 H 0.69624 0.32529 0.28097
 H939 H 0.74169 0.28742 0.18325
 H940 H 0.71481 0.32641 0.14209
 H941 H 0.59986 0.37392 0.15403
 H942 H 0.56138 0.40088 0.11851
 H943 H 0.61943 0.45295 0.05161
 H944 H 0.65782 0.42562 0.08758
 C945 C 0.81441 0.17759 0.16142
 C946 C 0.80661 0.16062 0.19376
 C947 C 0.78990 0.17646 0.22116
 C948 C 0.78043 0.20963 0.21659
 C949 C 0.78865 0.22671 0.18415
 C950 C 0.80555 0.21072 0.15663
 C951 C 0.83299 0.16097 0.13494
 C952 C 0.84951 0.14567 0.11523
 C953 C 0.87055 0.12657 0.09488
 C954 C 0.89807 0.13413 0.09950
 C955 C 0.91923 0.11358 0.08413
 C956 C 0.91319 0.08500 0.06386
 C957 C 0.88537 0.07805 0.05830
 C958 C 0.86414 0.09869 0.07395
 H959 H 0.81383 0.13518 0.19812
 H960 H 0.78494 0.16274 0.24634
 H961 H 0.78197 0.25223 0.17981
 H962 H 0.81185 0.22420 0.13189
 H963 H 0.90325 0.15548 0.11592
 H964 H 0.94037 0.11993 0.08866
 H965 H 0.88005 0.05635 0.04267
 H966 H 0.84285 0.09247 0.07056
 C967 C 0.83301 0.69862 0.66439
 C968 C 0.81257 0.67787 0.67521
 C969 C 0.79176 0.68887 0.70023
 C970 C 0.79083 0.72110 0.71537
 C971 C 0.81073 0.74248 0.70238
 C972 C 0.83183 0.73115 0.67745
 C973 C 0.85616 0.68470 0.64296
 C974 C 0.87488 0.66937 0.62711
 C975 C 0.89592 0.64700 0.61114
 C976 C 0.90178 0.61708 0.62979
 C977 C 0.91966 0.59300 0.61349
 C978 C 0.93219 0.59845 0.57821
 C979 C 0.92714 0.62907 0.56012
 C980 C 0.90887 0.65322 0.57644
 H981 H 0.81312 0.65268 0.66505
 H982 H 0.77632 0.67182 0.70729
 H983 H 0.81136 0.76731 0.71286
 H984 H 0.84767 0.74743 0.66938
 H985 H 0.89184 0.61195 0.65657
 H986 H 0.92331 0.56981 0.62828
 H987 H 0.93642 0.63381 0.53279
 H988 H 0.90433 0.67624 0.56162
 C989 C 0.32033 0.18602 0.65560
 C990 C 0.29346 0.17642 0.66125
 C991 C 0.27669 0.19219 0.68872
 C992 C 0.28658 0.21778 0.71085
 C993 C 0.31283 0.22890 0.70343
 C994 C 0.32978 0.21284 0.67599
 C995 C 0.33910 0.16541 0.63303
 C996 C 0.35511 0.14671 0.61639
 C997 C 0.37513 0.12369 0.59935
 C998 C 0.36769 0.10194 0.57060
 C999 C 0.38747 0.07886 0.55561
 C1000 C 0.41483 0.07738 0.56939
 C1001 C 0.42184 0.09922 0.59854
 C1002 C 0.40217 0.12210 0.61333
 H1003 H 0.28598 0.15564 0.64585
 H1004 H 0.25638 0.18342 0.69398
 H1005 H 0.32079 0.24847 0.72039
 H1006 H 0.35068 0.22025 0.67205
 H1007 H 0.34668 0.10278 0.55984
 H1008 H 0.38146 0.06255 0.53306
 H1009 H 0.44264 0.09880 0.60998
 H1010 H 0.40807 0.13853 0.63586
 C1011 C 0.31506 0.66586 0.17679
 C1012 C 0.29000 0.65330 0.18736
 C1013 C 0.27227 0.67090 0.21245
 C1014 C 0.27936 0.70137 0.22761
 C1015 C 0.30437 0.71409 0.21628
 C1016 C 0.32214 0.69638 0.19115
 C1017 C 0.33398 0.64677 0.15255
 C1018 C 0.35043 0.63070 0.13329
 C1019 C 0.37134 0.61194 0.11187
 C1020 C 0.36462 0.58600 0.08784
 C1021 C 0.38558 0.56722 0.06871
 C1022 C 0.41349 0.57415 0.07362
 C1023 C 0.41980 0.60059 0.09744
 C1024 C 0.39895 0.61921 0.11633
 H1025 H 0.28423 0.62978 0.17642
 H1026 H 0.25287 0.66068 0.21970
 H1027 H 0.31054 0.73731 0.22739
 H1028 H 0.34156 0.70631 0.18330
 H1029 H 0.34328 0.58009 0.08420
 H1030 H 0.38000 0.54710 0.05059
 H1031 H 0.44096 0.60689 0.10184
 H1032 H 0.40445 0.63915 0.13483
   
