data_POSCAR
  _audit_creation_date              2014-09-24
  _audit_creation_method            'ToBaCCo'
  _symmetry_space_group_name_H-M    'P1'
  _symmetry_Int_Tables_number       1
  _symmetry_cell_setting            triclinic
  loop_
  _symmetry_equiv_pos_as_xyz
 x,y,z
_cell_length_a 40.4182
_cell_length_b 40.3221
_cell_length_c 23.5306
_cell_angle_alpha 89.925300
_cell_angle_beta 90.074200
_cell_angle_gamma 120.071300
loop_
  _atom_site_label
  _atom_site_type_symbol
  _atom_site_fract_x
  _atom_site_fract_y
  _atom_site_fract_z
C1 C 0.46010 0.91954 0.55249
 C2 C 0.45036 0.89995 0.50070
 C3 C 0.46023 0.91974 0.44911
 C4 C 0.48038 0.96023 0.44866
 C5 C 0.49046 0.98051 0.50091
 C6 C 0.48029 0.96011 0.55312
 C7 C 0.49060 0.98083 0.60441
 C8 C 0.51045 1.02071 0.60444
 C9 C 0.52082 1.04153 0.55317
 C10 C 0.51073 1.02124 0.50092
 C11 C 0.49070 0.98095 0.39740
 C12 C 0.51054 1.02083 0.39738
 C13 C 0.52086 1.04159 0.44866
 C14 C 0.54104 1.08216 0.44919
 C15 C 0.55082 1.10182 0.50092
 C16 C 0.54101 1.08210 0.55264
 H17 H 0.48337 0.96632 0.64511
 H18 H 0.51762 1.03514 0.64516
 H19 H 0.48350 0.96646 0.35673
 H20 H 0.51775 1.03530 0.35666
 H21 H 0.43487 0.86881 0.50042
 H22 H 0.56633 1.13297 0.50092
 C23 C 0.08020 0.53990 0.55044
 C24 C 0.09980 0.54970 0.49876
 C25 C 0.08012 0.53989 0.44709
 C26 C 0.03972 0.51970 0.44656
 C27 C 0.01948 0.50958 0.49879
 C28 C 0.03979 0.51972 0.55101
 C29 C 0.01920 0.50943 0.60230
 C30 C -0.02061 0.48956 0.60234
 C31 C -0.04132 0.47922 0.55108
 C32 C -0.02112 0.48930 0.49881
 C33 C 0.01905 0.50938 0.39529
 C34 C -0.02076 0.48949 0.39529
 C35 C -0.04146 0.47914 0.44659
 C36 C -0.08193 0.45892 0.44724
 C37 C -0.10147 0.44918 0.49904
 C38 C -0.08172 0.45906 0.55064
 H39 H 0.03371 0.51668 0.64295
 H40 H -0.03504 0.48236 0.64303
 H41 H 0.03351 0.51661 0.35463
 H42 H -0.03522 0.48226 0.35459
 H43 H 0.13084 0.56521 0.49874
 H44 H -0.13252 0.43367 0.49933
 C45 C 0.54035 0.45930 0.45034
 C46 C 0.55016 0.44938 0.50198
 C47 C 0.54040 0.45921 0.55373
 C48 C 0.52026 0.47955 0.55428
 C49 C 0.51016 0.48975 0.50201
 C50 C 0.52024 0.47958 0.44980
 C51 C 0.50995 0.48995 0.39848
 C52 C 0.49013 0.50993 0.39839
 C53 C 0.47985 0.52031 0.44961
 C54 C 0.48994 0.51016 0.50192
 C55 C 0.50996 0.48997 0.60551
 C56 C 0.49016 0.50997 0.60542
 C57 C 0.47984 0.52037 0.55409
 C58 C 0.45970 0.54071 0.55337
 C59 C 0.44993 0.55051 0.50153
 C60 C 0.45973 0.54059 0.44997
 H61 H 0.51715 0.48269 0.35783
 H62 H 0.48292 0.51719 0.35768
 H63 H 0.51716 0.48272 0.64625
 H64 H 0.48298 0.51723 0.64609
 H65 H 0.56562 0.43379 0.50178
 H66 H 0.43447 0.56611 0.50119
 O67 O 0.39003 0.66872 -0.06575
 O68 O 0.39179 0.73338 -0.04906
 C69 C 0.36778 0.73838 -0.07712
 O70 O 0.33242 0.72148 -0.06604
 O71 O 0.26786 0.65848 -0.04932
 C72 C 0.26284 0.62938 -0.07723
 O73 O 0.27967 0.61085 -0.06601
 O74 O 0.34246 0.60917 -0.04893
 C75 C 0.37151 0.63328 -0.07687
 O76 O 0.39160 0.65843 0.04762
 O77 O 0.39004 0.72142 0.06430
 C78 C 0.37157 0.73830 0.07539
 O79 O 0.34258 0.73335 0.04731
 O80 O 0.27967 0.66869 0.06403
 C81 C 0.26274 0.63324 0.07515
 O82 O 0.26770 0.60915 0.04725
 O83 O 0.33215 0.61081 0.06435
 C84 C 0.36749 0.62935 0.07561
 Cr85 Cr 0.38874 0.69442 -0.00073
 Cr86 Cr 0.30669 0.69444 -0.00100
 Cr87 Cr 0.30656 0.61212 -0.00084
 O88 O 0.33400 0.66700 -0.00085
 O89 O 0.61010 0.33125 -0.06450
 O90 O 0.60836 0.26659 -0.04763
 C91 C 0.63239 0.26165 -0.07561
 O92 O 0.66774 0.27851 -0.06439
 O93 O 0.73228 0.34149 -0.04763
 C94 C 0.73725 0.37057 -0.07567
 O95 O 0.72045 0.38912 -0.06453
 O96 O 0.65767 0.39079 -0.04771
 C97 C 0.62862 0.36669 -0.07568
 O98 O 0.60853 0.34149 0.04882
 O99 O 0.61010 0.27850 0.06572
 C100 C 0.62860 0.26165 0.07698
 O101 O 0.65757 0.26659 0.04898
 O102 O 0.72046 0.33124 0.06572
 C103 C 0.73737 0.36668 0.07683
 O104 O 0.73242 0.39079 0.04880
 O105 O 0.66797 0.38911 0.06562
 C106 C 0.63262 0.37056 0.07680
 Cr107 Cr 0.61139 0.30552 0.00060
 Cr108 Cr 0.69345 0.30552 0.00067
 Cr109 Cr 0.69357 0.38783 0.00055
 O110 O 0.66614 0.33295 0.00061
 C111 C 0.37819 0.81184 -0.25933
 C112 C 0.40151 0.85622 -0.25866
 C113 C 0.42769 0.85510 -0.30498
 C114 C 0.40455 0.81111 -0.30638
 C115 C 0.40532 0.81105 -0.21423
 C116 C 0.43150 0.80996 -0.26057
 C117 C 0.42846 0.85505 -0.21275
 C118 C 0.45484 0.85434 -0.25992
 C119 C 0.43980 0.87907 -0.35608
 C120 C 0.44946 0.89828 -0.39866
 C121 C 0.39244 0.78589 -0.16438
 C122 C 0.38142 0.76455 -0.12411
 H123 H 0.34653 0.79410 -0.25854
 H124 H 0.38933 0.87552 -0.25847
 H125 H 0.39485 0.79330 -0.34544
 H126 H 0.44369 0.79066 -0.26081
 H127 H 0.43814 0.87283 -0.17367
 H128 H 0.48650 0.87210 -0.26076
 C129 C 0.19376 0.62079 -0.26335
 C130 C 0.18945 0.58960 -0.30590
 C131 C 0.14588 0.57242 -0.30449
 C132 C 0.14980 0.60343 -0.26269
 C133 C 0.19008 0.59414 -0.21404
 C134 C 0.14651 0.57696 -0.21256
 C135 C 0.18614 0.56313 -0.25587
 C136 C 0.14218 0.54575 -0.25521
 C137 C 0.12183 0.56056 -0.35546
 C138 C 0.10260 0.55103 -0.39796
 C139 C 0.21531 0.60645 -0.16434
 C140 C 0.23668 0.61681 -0.12416
 H141 H 0.21524 0.65178 -0.26615
 H142 H 0.20685 0.59467 -0.34483
 H143 H 0.13458 0.61986 -0.26609
 H144 H 0.12914 0.57190 -0.17360
 H145 H 0.20136 0.54669 -0.25252
 H146 H 0.12069 0.51476 -0.25246
 C147 C 0.43156 0.62255 -0.26147
 C148 C 0.45561 0.60237 -0.26072
 C149 C 0.42802 0.57328 -0.30428
 C150 C 0.40416 0.59327 -0.30577
 C151 C 0.40650 0.59573 -0.21371
 C152 C 0.37892 0.56664 -0.25729
 C153 C 0.43036 0.57573 -0.21214
 C154 C 0.40295 0.54643 -0.25655
 C155 C 0.43977 0.56111 -0.35530
 C156 C 0.44922 0.55141 -0.39783
 C157 C 0.39429 0.60864 -0.16395
 C158 C 0.38401 0.61966 -0.12377
 H159 H 0.44320 0.65400 -0.26295
 H160 H 0.48728 0.61692 -0.26272
 H161 H 0.39352 0.60036 -0.34482
 H162 H 0.34725 0.55208 -0.25533
 H163 H 0.44099 0.56867 -0.17306
 H164 H 0.39134 0.51498 -0.25513
 C165 C 0.56495 0.18695 -0.25557
 C166 C 0.59141 0.18982 -0.30517
 C167 C 0.57307 0.14599 -0.30441
 C168 C 0.54641 0.14273 -0.25556
 C169 C 0.59514 0.18954 -0.21324
 C170 C 0.57680 0.14571 -0.21240
 C171 C 0.62177 0.19277 -0.26212
 C172 C 0.60325 0.14857 -0.26210
 C173 C 0.56111 0.12227 -0.35572
 C174 C 0.55156 0.10322 -0.39843
 C175 C 0.60787 0.21445 -0.16315
 C176 C 0.61880 0.23562 -0.12273
 H177 H 0.54934 0.20299 -0.25232
 H178 H 0.59729 0.20769 -0.34387
 H179 H 0.51528 0.12187 -0.25348
 H180 H 0.57094 0.12786 -0.17368
 H181 H 0.65290 0.21362 -0.26427
 H182 H 0.61886 0.13252 -0.26539
 C183 C 0.81239 0.43560 -0.25585
 C184 C 0.85646 0.45394 -0.25548
 C185 C 0.85318 0.42689 -0.30384
 C186 C 0.80948 0.40874 -0.30496
 C187 C 0.80946 0.40548 -0.21296
 C188 C 0.80620 0.37845 -0.26135
 C189 C 0.85316 0.42362 -0.21177
 C190 C 0.85027 0.39676 -0.26098
 C191 C 0.87697 0.43859 -0.35502
 C192 C 0.89603 0.44802 -0.39765
 C193 C 0.78448 0.39331 -0.16303
 C194 C 0.76327 0.38306 -0.12271
 H195 H 0.79654 0.45144 -0.25319
 H196 H 0.87741 0.48511 -0.25367
 H197 H 0.79178 0.40275 -0.34383
 H198 H 0.78526 0.34727 -0.26322
 H199 H 0.87083 0.42960 -0.17287
 H200 H 0.86613 0.38094 -0.26369
 C201 C 0.58943 0.38703 -0.27241
 C202 C 0.55073 0.38582 -0.27925
 C203 C 0.57210 0.42666 -0.30362
 C204 C 0.61062 0.42804 -0.29753
 C205 C 0.59362 0.40424 -0.21282
 C206 C 0.61500 0.44509 -0.23719
 C207 C 0.55509 0.40285 -0.21887
 C208 C 0.57627 0.44391 -0.24406
 C209 C 0.56034 0.43881 -0.35476
 C210 C 0.55089 0.44851 -0.39737
 C211 C 0.60584 0.39135 -0.16295
 C212 C 0.61612 0.38032 -0.12268
 H213 H 0.59497 0.36350 -0.28354
 H214 H 0.52418 0.36159 -0.29712
 H215 H 0.63332 0.43853 -0.33043
 H216 H 0.64156 0.46931 -0.21932
 H217 H 0.53240 0.39235 -0.18595
 H218 H 0.57071 0.46744 -0.23304
 C219 C 0.80151 0.38044 0.26865
 C220 C 0.84379 0.39031 0.27025
 C221 C 0.85380 0.42649 0.30470
 C222 C 0.81188 0.41679 0.30384
 C223 C 0.80988 0.40416 0.21394
 C224 C 0.81989 0.44034 0.24840
 C225 C 0.85180 0.41385 0.21472
 C226 C 0.86221 0.45025 0.25002
 C227 C 0.87770 0.43860 0.35581
 C228 C 0.89687 0.44826 0.39839
 C229 C 0.78478 0.39131 0.16408
 C230 C 0.76349 0.38030 0.12381
 H231 H 0.77627 0.35159 0.27578
 H232 H 0.85389 0.36988 0.27981
 H233 H 0.79572 0.41813 0.34105
 H234 H 0.80978 0.46077 0.23885
 H235 H 0.86793 0.41250 0.17750
 H236 H 0.88746 0.47910 0.24297
 C237 C 0.57197 0.14560 0.21393
 C238 C 0.59937 0.14570 0.26018
 C239 C 0.57263 0.14611 0.30616
 C240 C 0.54503 0.14561 0.26076
 C241 C 0.59393 0.18962 0.21485
 C242 C 0.56718 0.19001 0.26087
 C243 C 0.62151 0.19010 0.26028
 C244 C 0.59458 0.19013 0.30701
 C245 C 0.56096 0.12239 0.35753
 C246 C 0.55154 0.10333 0.40026
 C247 C 0.60601 0.21450 0.16469
 C248 C 0.61620 0.23565 0.12419
 H249 H 0.56281 0.12758 0.17508
 H250 H 0.61247 0.12720 0.26050
 H251 H 0.51345 0.12704 0.26157
 H252 H 0.55407 0.20849 0.26060
 H253 H 0.65309 0.20867 0.25952
 H254 H 0.60376 0.20818 0.34584
 C255 C 0.55970 0.40974 0.21670
 C256 C 0.54912 0.38840 0.27450
 C257 C 0.57315 0.42694 0.30494
 C258 C 0.58354 0.44849 0.24798
 C259 C 0.59538 0.40549 0.21406
 C260 C 0.61940 0.44403 0.24451
 C261 C 0.58498 0.38397 0.27105
 C262 C 0.60881 0.42268 0.30223
 C263 C 0.56112 0.43870 0.35609
 C264 C 0.55152 0.44818 0.39869
 C265 C 0.60816 0.39331 0.16414
 C266 C 0.61910 0.38305 0.12383
 H267 H 0.53966 0.40428 0.18096
 H268 H 0.52008 0.36565 0.28742
 H269 H 0.58280 0.47516 0.23911
 H270 H 0.64845 0.46678 0.23161
 H271 H 0.58571 0.35730 0.28000
 H272 H 0.62888 0.42813 0.33795
 C273 C 0.14612 0.57049 0.20995
 C274 C 0.14819 0.54580 0.25888
 C275 C 0.14568 0.57300 0.30205
 C276 C 0.14321 0.59749 0.25397
 C277 C 0.18989 0.59555 0.21169
 C278 C 0.18736 0.62273 0.25490
 C279 C 0.19234 0.57107 0.25980
 C280 C 0.18944 0.59806 0.30372
 C281 C 0.12166 0.56081 0.35298
 C282 C 0.10245 0.55112 0.39547
 C283 C 0.21513 0.60851 0.16206
 C284 C 0.23653 0.61958 0.12197
 H285 H 0.12860 0.55930 0.17081
 H286 H 0.13180 0.51403 0.26111
 H287 H 0.12272 0.60820 0.25217
 H288 H 0.20374 0.65450 0.25272
 H289 H 0.21281 0.56034 0.26165
 H290 H 0.20700 0.60926 0.34282
 C291 C 0.43087 0.85461 0.21149
 C292 C 0.40344 0.85671 0.25545
 C293 C 0.42797 0.85448 0.30359
 C294 C 0.45559 0.85277 0.26047
 C295 C 0.40649 0.81067 0.21268
 C296 C 0.43103 0.80847 0.26085
 C297 C 0.37889 0.81239 0.25582
 C298 C 0.40360 0.81055 0.30471
 C299 C 0.43971 0.87831 0.35478
 C300 C 0.44916 0.89742 0.39740
 C301 C 0.39430 0.78564 0.16275
 C302 C 0.38405 0.76439 0.12242
 H303 H 0.44194 0.87243 0.17258
 H304 H 0.39224 0.87683 0.25384
 H305 H 0.48727 0.86966 0.26298
 H306 H 0.44224 0.78836 0.26253
 H307 H 0.34721 0.79551 0.25336
 H308 H 0.39252 0.79269 0.34359
 C309 C 0.37746 0.56507 0.25685
 C310 C 0.40227 0.54571 0.25659
 C311 C 0.42692 0.57292 0.30427
 C312 C 0.40229 0.59209 0.30527
 C313 C 0.40470 0.59440 0.21320
 C314 C 0.42936 0.62159 0.26090
 C315 C 0.42934 0.57523 0.21212
 C316 C 0.45419 0.60225 0.26065
 C317 C 0.43895 0.56117 0.35554
 C318 C 0.44855 0.55170 0.39822
 C319 C 0.39193 0.60659 0.16316
 C320 C 0.38101 0.61685 0.12275
 H321 H 0.34576 0.54992 0.25473
 H322 H 0.39127 0.51437 0.25542
 H323 H 0.39130 0.59890 0.34412
 H324 H 0.44036 0.65293 0.26212
 H325 H 0.44031 0.56843 0.17324
 H326 H 0.48588 0.61739 0.26281
   
