data_POSCAR
  _audit_creation_date              2014-09-24
  _audit_creation_method            'ToBaCCo'
  _symmetry_space_group_name_H-M    'P1'
  _symmetry_Int_Tables_number       1
  _symmetry_cell_setting            triclinic
  loop_
  _symmetry_equiv_pos_as_xyz
 x,y,z
_cell_length_a 63.9076
_cell_length_b 63.9067
_cell_length_c 42.1535
_cell_angle_alpha 89.971100
_cell_angle_beta 89.970900
_cell_angle_gamma 90.196600
loop_
  _atom_site_label
  _atom_site_type_symbol
  _atom_site_fract_x
  _atom_site_fract_y
  _atom_site_fract_z
O1 O -0.01992 0.27975 0.03018
 O2 O 0.02149 0.27912 -0.03115
 O3 O -0.01969 0.27953 -0.03151
 O4 O 0.02121 0.27946 0.03046
 O5 O 0.02057 0.24489 0.03071
 O6 O -0.01987 0.24496 -0.03102
 O7 O 0.02061 0.24457 -0.03093
 O8 O -0.01994 0.24518 0.03062
 Cu9 Cu 0.00080 0.28297 -0.00056
 Cu10 Cu 0.00030 0.24146 -0.00012
 C11 C -0.02697 0.26248 0.04074
 C12 C 0.02815 0.26165 -0.04136
 C13 C -0.02679 0.26218 -0.04165
 C14 C 0.02789 0.26208 0.04097
 O15 O 0.52118 0.77912 0.46988
 O16 O 0.48013 0.77915 0.53170
 O17 O 0.52128 0.77912 0.53153
 O18 O 0.48005 0.77915 0.47004
 O19 O 0.48021 0.74457 0.47008
 O20 O 0.52084 0.74455 0.53156
 O21 O 0.48030 0.74458 0.53173
 O22 O 0.52074 0.74455 0.46992
 Cu23 Cu 0.50067 0.78264 0.50079
 Cu24 Cu 0.50051 0.74112 0.50083
 C25 C 0.52797 0.76175 0.45952
 C26 C 0.47319 0.76179 0.54208
 C27 C 0.52812 0.76176 0.54184
 C28 C 0.47309 0.76179 0.45974
 O29 O 0.97981 0.72180 -0.03174
 O30 O 1.02105 0.72126 0.02978
 O31 O 0.97992 0.72131 0.02988
 O32 O 1.02104 0.72173 -0.03186
 O33 O 1.02084 0.75628 -0.03135
 O34 O 0.98038 0.75588 0.03041
 O35 O 1.02092 0.75583 0.03031
 O36 O 0.98036 0.75635 -0.03123
 Cu37 Cu 1.00044 0.71802 -0.00107
 Cu38 Cu 1.00064 0.75952 -0.00041
 C39 C 0.97298 0.73925 -0.04180
 C40 C 1.02803 0.73854 0.04037
 C41 C 0.97312 0.73861 0.04050
 C42 C 1.02803 0.73915 -0.04196
 O43 O 0.47964 0.21878 0.46949
 O44 O 0.52069 0.21880 0.53123
 O45 O 0.47954 0.21877 0.53114
 O46 O 0.52077 0.21887 0.46956
 O47 O 0.52052 0.25344 0.46960
 O48 O 0.47993 0.25334 0.53116
 O49 O 0.52045 0.25337 0.53125
 O50 O 0.48000 0.25335 0.46953
 Cu51 Cu 0.50015 0.21530 0.50035
 Cu52 Cu 0.50023 0.25682 0.50039
 C53 C 0.47280 0.23614 0.45915
 C54 C 0.52759 0.23617 0.54159
 C55 C 0.47268 0.23612 0.54147
 C56 C 0.52768 0.23626 0.45925
 O57 O 0.72076 -0.02051 0.03019
 O58 O 0.72130 0.02089 -0.03115
 O59 O 0.72097 -0.02029 -0.03149
 O60 O 0.72098 0.02062 0.03047
 O61 O 0.75555 0.02029 0.03065
 O62 O 0.75554 -0.02016 -0.03108
 O63 O 0.75585 0.02033 -0.03100
 O64 O 0.75533 -0.02023 0.03057
 Cu65 Cu 0.71750 0.00018 -0.00054
 Cu66 Cu 0.75901 0.00004 -0.00018
 C67 C 0.73804 -0.02741 0.04070
 C68 C 0.73876 0.02772 -0.04139
 C69 C 0.73833 -0.02723 -0.04166
 C70 C 0.73834 0.02746 0.04093
 O71 O 0.22030 0.51996 0.46891
 O72 O 0.22020 0.47890 0.53073
 O73 O 0.22014 0.52006 0.53058
 O74 O 0.22037 0.47882 0.46909
 O75 O 0.25494 0.47929 0.46928
 O76 O 0.25471 0.51992 0.53076
 O77 O 0.25478 0.47938 0.53091
 O78 O 0.25487 0.51982 0.46910
 Cu79 Cu 0.21675 0.49942 0.49981
 Cu80 Cu 0.25827 0.49962 0.50003
 C81 C 0.23768 0.52691 0.45863
 C82 C 0.23755 0.47211 0.54117
 C83 C 0.23747 0.52704 0.54098
 C84 C 0.23777 0.47199 0.45889
 O85 O 0.27878 1.02113 0.03073
 O86 O 0.27939 0.97990 -0.03080
 O87 O 0.27872 1.02108 -0.03084
 O88 O 0.27946 0.97996 0.03090
 O89 O 0.24489 0.97959 0.03098
 O90 O 0.24418 1.02004 -0.03077
 O91 O 0.24482 0.97954 -0.03067
 O92 O 0.24424 1.02009 0.03088
 Cu93 Cu 0.28259 1.00057 -0.00002
 Cu94 Cu 0.24110 0.99974 0.00011
 C95 C 0.26132 1.02771 0.04112
 C96 C 0.26212 0.97268 -0.04107
 C97 C 0.26124 1.02764 -0.04116
 C98 C 0.26222 0.97276 0.04132
 O99 O 0.78052 0.47939 0.46937
 O100 O 0.78077 0.52043 0.53112
 O101 O 0.78062 0.47929 0.53103
 O102 O 0.78061 0.52052 0.46946
 O103 O 0.74604 0.52017 0.46966
 O104 O 0.74605 0.47958 0.53121
 O105 O 0.74619 0.52010 0.53131
 O106 O 0.74595 0.47966 0.46958
 Cu107 Cu 0.78414 0.49991 0.50023
 Cu108 Cu 0.74261 0.49988 0.50046
 C109 C 0.76312 0.47251 0.45911
 C110 C 0.76344 0.52728 0.54158
 C111 C 0.76325 0.47239 0.54144
 C112 C 0.76324 0.52738 0.45922
 C113 C 0.23617 0.20831 0.21687
 C114 C 0.21605 0.21530 0.20941
 C115 C 0.20931 0.23549 0.21688
 C116 C 0.22290 0.24914 0.23356
 C117 C 0.24326 0.24221 0.24206
 C118 C 0.24997 0.22176 0.23357
 C119 C 0.27008 0.21524 0.24260
 C120 C 0.28357 0.22861 0.25876
 C121 C 0.27728 0.24881 0.26771
 C122 C 0.25691 0.25573 0.25922
 C123 C 0.21660 0.26933 0.24254
 C124 C 0.23008 0.28268 0.25874
 C125 C 0.25020 0.27616 0.26774
 C126 C 0.26399 0.28961 0.28443
 C127 C 0.28413 0.28267 0.29182
 C128 C 0.29088 0.26248 0.28434
 H129 H 0.27566 0.19967 0.23753
 H130 H 0.29907 0.22285 0.26392
 H131 H 0.20110 0.27509 0.23738
 H132 H 0.22449 0.29824 0.26386
 H133 H 0.20567 0.20508 0.19613
 H134 H 0.29449 0.29293 0.30506
 C135 C 0.76381 0.79050 0.21560
 C136 C 0.78400 0.78373 0.20815
 C137 C 0.79092 0.76358 0.21557
 C138 C 0.77743 0.74979 0.23225
 C139 C 0.75701 0.75653 0.24077
 C140 C 0.75012 0.77691 0.23228
 C141 C 0.72994 0.78324 0.24126
 C142 C 0.71656 0.76977 0.25749
 C143 C 0.72305 0.74964 0.26650
 C144 C 0.74347 0.74289 0.25796
 C145 C 0.78391 0.72965 0.24122
 C146 C 0.77054 0.71618 0.25744
 C147 C 0.75036 0.72252 0.26647
 C148 C 0.73669 0.70894 0.28320
 C149 C 0.71650 0.71573 0.29069
 C150 C 0.70958 0.73587 0.28325
 H151 H 0.72420 0.79875 0.23610
 H152 H 0.70101 0.77538 0.26264
 H153 H 0.79946 0.72403 0.23605
 H154 H 0.77626 0.70066 0.26258
 H155 H 0.79427 0.79409 0.19490
 H156 H 0.70625 0.70539 0.30400
 C157 C 0.70955 0.26347 0.28365
 C158 C 0.71637 0.28370 0.29102
 C159 C 0.73653 0.29070 0.28355
 C160 C 0.75028 0.27727 0.26689
 C161 C 0.74350 0.25680 0.25849
 C162 C 0.72311 0.24982 0.26703
 C163 C 0.71674 0.22959 0.25814
 C164 C 0.73019 0.21626 0.24202
 C165 C 0.75035 0.22282 0.23301
 C166 C 0.75712 0.24329 0.24140
 C167 C 0.77042 0.28385 0.25783
 C168 C 0.78387 0.27051 0.24171
 C169 C 0.77751 0.25027 0.23287
 C170 C 0.79108 0.23662 0.21630
 C171 C 0.78428 0.21638 0.20896
 C172 C 0.76411 0.20938 0.21640
 H173 H 0.70121 0.22380 0.26331
 H174 H 0.72455 0.20066 0.23696
 H175 H 0.77605 0.29945 0.26286
 H176 H 0.79939 0.27631 0.23650
 H177 H 0.70605 0.29393 0.30426
 H178 H 0.79462 0.20613 0.19577
 C179 C 0.29141 0.73593 0.28335
 C180 C 0.28446 0.71572 0.29064
 C181 C 0.26428 0.70884 0.28310
 C182 C 0.25063 0.72239 0.26647
 C183 C 0.25754 0.74283 0.25813
 C184 C 0.27796 0.74968 0.26672
 C185 C 0.28446 0.76988 0.25788
 C186 C 0.27111 0.78333 0.24176
 C187 C 0.25092 0.77690 0.23273
 C188 C 0.24402 0.75645 0.24106
 C189 C 0.23045 0.71595 0.25739
 C190 C 0.21710 0.72940 0.24127
 C191 C 0.22359 0.74961 0.23248
 C192 C 0.21012 0.76338 0.21593
 C193 C 0.21706 0.78360 0.20868
 C194 C 0.23725 0.79047 0.21619
 H195 H 0.30002 0.77557 0.26308
 H196 H 0.27685 0.79889 0.23671
 H197 H 0.22472 0.70038 0.26240
 H198 H 0.20155 0.72370 0.23603
 H199 H 0.29470 0.70540 0.30386
 H200 H 0.20679 0.79394 0.19553
 C201 C 0.79136 0.23577 0.78310
 C202 C 0.78454 0.21555 0.79051
 C203 C 0.76437 0.20854 0.78309
 C204 C 0.75061 0.22200 0.76650
 C205 C 0.75740 0.24248 0.75808
 C206 C 0.77780 0.24943 0.76653
 C207 C 0.78418 0.26966 0.75762
 C208 C 0.77073 0.28302 0.74153
 C209 C 0.75057 0.27648 0.73259
 C210 C 0.74377 0.25601 0.74104
 C211 C 0.73046 0.21545 0.75751
 C212 C 0.71699 0.22883 0.74147
 C213 C 0.72337 0.24907 0.73259
 C214 C 0.70980 0.26275 0.71607
 C215 C 0.71663 0.28298 0.70866
 C216 C 0.73681 0.28994 0.71601
 H217 H 0.79972 0.27544 0.76273
 H218 H 0.77639 0.29861 0.73646
 H219 H 0.72481 0.19985 0.76252
 H220 H 0.70146 0.22304 0.73634
 H221 H 0.79488 0.20531 0.80370
 H222 H 0.70630 0.29325 0.69550
 C223 C 0.29070 0.73600 0.71662
 C224 C 0.28367 0.71587 0.70910
 C225 C 0.26339 0.70910 0.71632
 C226 C 0.24971 0.72269 0.73282
 C227 C 0.25672 0.74305 0.74145
 C228 C 0.27725 0.74977 0.73320
 C229 C 0.28386 0.76987 0.74233
 C230 C 0.27052 0.78334 0.75841
 C231 C 0.25023 0.77704 0.76711
 C232 C 0.24320 0.75669 0.75847
 C233 C 0.22941 0.71640 0.74148
 C234 C 0.21605 0.72988 0.75751
 C235 C 0.22266 0.74998 0.76668
 C236 C 0.20921 0.76377 0.78325
 C237 C 0.21629 0.78388 0.79083
 C238 C 0.23657 0.79063 0.78362
 H239 H 0.29950 0.77546 0.73741
 H240 H 0.27636 0.79883 0.76370
 H241 H 0.22357 0.70091 0.73618
 H242 H 0.20040 0.72430 0.76237
 H243 H 0.29393 0.70552 0.69595
 H244 H 0.20605 0.79425 0.80398
 C245 C 0.23564 0.20828 0.78319
 C246 C 0.21551 0.21522 0.79069
 C247 C 0.20870 0.23539 0.78315
 C248 C 0.22226 0.24905 0.76637
 C249 C 0.24264 0.24217 0.75787
 C250 C 0.24940 0.22175 0.76641
 C251 C 0.26952 0.21526 0.75735
 C252 C 0.28298 0.22864 0.74113
 C253 C 0.27664 0.24882 0.73215
 C254 C 0.25627 0.25570 0.74065
 C255 C 0.21590 0.26921 0.75729
 C256 C 0.22937 0.28258 0.74106
 C257 C 0.24951 0.27612 0.73211
 C258 C 0.26329 0.28961 0.71541
 C259 C 0.28344 0.28270 0.70799
 C260 C 0.29023 0.26251 0.71546
 H261 H 0.27513 0.19970 0.76245
 H262 H 0.29849 0.22291 0.73595
 H263 H 0.20037 0.27493 0.76237
 H264 H 0.22373 0.29813 0.73587
 H265 H 0.20519 0.20497 0.80404
 H266 H 0.29380 0.29298 0.69474
 C267 C 0.73770 0.70925 0.71637
 C268 C 0.71749 0.71598 0.70895
 C269 C 0.71055 0.73613 0.71627
 C270 C 0.72404 0.74996 0.73284
 C271 C 0.74449 0.74327 0.74130
 C272 C 0.75140 0.72289 0.73287
 C273 C 0.77162 0.71663 0.74173
 C274 C 0.78501 0.73016 0.75777
 C275 C 0.77850 0.75028 0.76676
 C276 C 0.75803 0.75696 0.75834
 C277 C 0.71753 0.77009 0.74177
 C278 C 0.73090 0.78361 0.75785
 C279 C 0.75111 0.77733 0.76679
 C280 C 0.76478 0.79096 0.78336
 C281 C 0.78499 0.78424 0.79077
 C282 C 0.79198 0.76412 0.78335
 H283 H 0.77738 0.70112 0.73660
 H284 H 0.80060 0.72459 0.76277
 H285 H 0.70195 0.77567 0.73668
 H286 H 0.72515 0.79912 0.76296
 H287 H 0.70721 0.70558 0.69580
 H288 H 0.79523 0.79464 0.80396
 C289 C 0.25870 0.07614 0.10497
 N290 N 0.27740 0.06984 0.09304
 N291 N 0.27838 0.05382 0.07280
 C292 C 0.26067 0.04370 0.06352
 N293 N 0.24203 0.04997 0.07563
 N294 N 0.24108 0.06582 0.09604
 C295 C 0.25717 0.09441 0.12593
 N296 N 0.23887 0.09864 0.14091
 N297 N 0.23679 0.11589 0.15827
 C298 C 0.25287 0.12967 0.16116
 N299 N 0.27127 0.12540 0.14638
 N300 N 0.27340 0.10803 0.12916
 C301 C 0.24972 0.14947 0.17817
 N302 N 0.26391 0.16527 0.17609
 N303 N 0.26002 0.18381 0.18934
 C304 C 0.24192 0.18714 0.20548
 N305 N 0.22782 0.17125 0.20761
 N306 N 0.23165 0.15279 0.19427
 C307 C 0.76137 0.57657 0.60658
 N308 N 0.77963 0.57157 0.59195
 N309 N 0.78050 0.55552 0.57178
 C310 C 0.76309 0.54403 0.56536
 N311 N 0.74490 0.54897 0.58012
 N312 N 0.74408 0.56489 0.60043
 C313 C 0.75982 0.59498 0.62726
 N314 N 0.74197 0.59856 0.64379
 N315 N 0.73977 0.61595 0.66082
 C316 C 0.75529 0.63047 0.66184
 N317 N 0.77326 0.62683 0.64555
 N318 N 0.77551 0.60935 0.62862
 C319 C 0.75191 0.65037 0.67847
 N320 N 0.76568 0.66648 0.67545
 N321 N 0.76159 0.68504 0.68842
 C322 C 0.74368 0.68812 0.70517
 N323 N 0.72999 0.67195 0.70821
 N324 N 0.73404 0.65344 0.69517
 C325 C 0.74002 0.92317 0.10556
 N326 N 0.75730 0.93490 0.09954
 N327 N 0.75649 0.95085 0.07928
 C328 C 0.73834 0.95578 0.06443
 N329 N 0.72094 0.94423 0.07071
 N330 N 0.72179 0.92814 0.09085
 C331 C 0.74157 0.90473 0.12622
 N332 N 0.72592 0.89031 0.12755
 N333 N 0.72819 0.87283 0.14448
 C334 C 0.74614 0.86922 0.16081
 N335 N 0.76163 0.88378 0.15982
 N336 N 0.75940 0.90117 0.14279
 C337 C 0.74955 0.84933 0.17747
 N338 N 0.76745 0.84628 0.19411
 N339 N 0.77152 0.82778 0.20720
 C340 C 0.75782 0.81161 0.20430
 N341 N 0.73989 0.81466 0.18762
 N342 N 0.73578 0.83321 0.17458
 C343 C 0.23982 0.42257 0.60580
 N344 N 0.25709 0.43430 0.59963
 N345 N 0.25620 0.45030 0.57947
 C346 C 0.23797 0.45529 0.56487
 N347 N 0.22059 0.44375 0.57132
 N348 N 0.22151 0.42762 0.59135
 C349 C 0.24143 0.40407 0.62632
 N350 N 0.22570 0.38974 0.62780
 N351 N 0.22798 0.37221 0.64462
 C352 C 0.24601 0.36845 0.66067
 N353 N 0.26157 0.38293 0.65952
 N354 N 0.25935 0.40037 0.64260
 C355 C 0.24937 0.34853 0.67724
 N356 N 0.26729 0.34535 0.69376
 N357 N 0.27127 0.32683 0.70684
 C358 C 0.25745 0.31075 0.70405
 N359 N 0.23950 0.31393 0.68748
 N360 N 0.23548 0.33250 0.67445
 C361 C 0.92369 0.26058 0.10576
 N362 N 0.93531 0.24330 0.09979
 N363 N 0.95124 0.24408 0.07947
 C364 C 0.95625 0.26222 0.06450
 N365 N 0.94481 0.27962 0.07074
 N366 N 0.92875 0.27879 0.09093
 C367 C 0.90529 0.25904 0.12652
 N368 N 0.89094 0.27466 0.12777
 N369 N 0.87347 0.27238 0.14479
 C370 C 0.86981 0.25447 0.16128
 N371 N 0.88432 0.23902 0.16036
 N372 N 0.90169 0.24125 0.14325
 C373 C 0.84993 0.25104 0.17802
 N374 N 0.84685 0.23318 0.19482
 N375 N 0.82835 0.22907 0.20797
 C376 C 0.81221 0.24268 0.20496
 N377 N 0.81529 0.26057 0.18813
 N378 N 0.83385 0.26473 0.17504
 C379 C 0.42376 0.75949 0.60692
 N380 N 0.42894 0.77782 0.59252
 N381 N 0.44504 0.77875 0.57241
 C382 C 0.45640 0.76136 0.56583
 N383 N 0.45127 0.74310 0.58037
 N384 N 0.43530 0.74221 0.60062
 C385 C 0.40529 0.75789 0.62753
 N386 N 0.40146 0.73994 0.64377
 N387 N 0.38403 0.73772 0.66076
 C388 C 0.36970 0.75332 0.66203
 N389 N 0.37359 0.77138 0.64603
 N390 N 0.39111 0.77365 0.62914
 C391 C 0.34976 0.74996 0.67864
 N392 N 0.33386 0.76389 0.67592
 N393 N 0.31524 0.75986 0.68891
 C394 C 0.31191 0.74186 0.70538
 N395 N 0.32787 0.72801 0.70812
 N396 N 0.34643 0.73200 0.69507
 C397 C 0.07745 0.74036 0.10520
 N398 N 0.06589 0.75768 0.09919
 N399 N 0.04994 0.75693 0.07894
 C400 C 0.04483 0.73880 0.06408
 N401 N 0.05622 0.72136 0.07034
 N402 N 0.07230 0.72215 0.09047
 C403 C 0.09588 0.74182 0.12590
 N404 N 0.11011 0.72610 0.12724
 N405 N 0.12757 0.72825 0.14426
 C406 C 0.13135 0.74616 0.16066
 N407 N 0.11698 0.76172 0.15965
 N408 N 0.09960 0.75961 0.14253
 C409 C 0.15123 0.74944 0.17745
 N410 N 0.15443 0.76726 0.19425
 N411 N 0.17293 0.77122 0.20747
 C412 C 0.18897 0.75748 0.20454
 N413 N 0.18577 0.73961 0.18771
 N414 N 0.16721 0.73561 0.17455
 C415 C 0.57696 0.23854 0.60644
 N416 N 0.56532 0.25578 0.60023
 N417 N 0.54938 0.25486 0.57998
 C418 C 0.54436 0.23662 0.56534
 N419 N 0.55581 0.21927 0.57182
 N420 N 0.57189 0.22024 0.59194
 C421 C 0.59541 0.24020 0.62705
 N422 N 0.60972 0.22456 0.62848
 N423 N 0.62722 0.22690 0.64536
 C424 C 0.63095 0.24491 0.66153
 N425 N 0.61649 0.26039 0.66044
 N426 N 0.59908 0.25810 0.64346
 C427 C 0.65087 0.24838 0.67812
 N428 N 0.65402 0.26628 0.69475
 N429 N 0.67254 0.27038 0.70779
 C430 C 0.68865 0.25672 0.70482
 N431 N 0.68550 0.23879 0.68814
 N432 N 0.66692 0.23464 0.67517
 C433 C 0.74140 0.07614 0.89467
 N434 N 0.72268 0.06967 0.90649
 N435 N 0.72169 0.05365 0.92677
 C436 C 0.73941 0.04371 0.93620
 N437 N 0.75806 0.05017 0.92420
 N438 N 0.75902 0.06601 0.90375
 C439 C 0.74295 0.09442 0.87368
 N440 N 0.76126 0.09874 0.85870
 N441 N 0.76339 0.11602 0.84135
 C442 C 0.74734 0.12973 0.83849
 N443 N 0.72893 0.12537 0.85326
 N444 N 0.72675 0.10797 0.87047
 C445 C 0.75056 0.14957 0.82154
 N446 N 0.73646 0.16535 0.82375
 N447 N 0.74043 0.18392 0.81059
 C448 C 0.75853 0.18733 0.79441
 N449 N 0.77254 0.17147 0.79216
 N450 N 0.76863 0.15297 0.80541
 C451 C 0.24013 0.57620 0.39354
 N452 N 0.25739 0.56464 0.39995
 N453 N 0.25644 0.54873 0.42028
 C454 C 0.23817 0.54366 0.43482
 N455 N 0.22080 0.55504 0.42815
 N456 N 0.22178 0.57109 0.40795
 C457 C 0.24178 0.59460 0.37280
 N458 N 0.22609 0.60885 0.37113
 N459 N 0.22842 0.62630 0.35411
 C460 C 0.24648 0.63006 0.33803
 N461 N 0.26201 0.61566 0.33936
 N462 N 0.25973 0.59829 0.35648
 C463 C 0.24992 0.64994 0.32128
 N464 N 0.26788 0.65311 0.30478
 N465 N 0.27198 0.67162 0.29164
 C466 C 0.25825 0.68768 0.29436
 N467 N 0.24025 0.68450 0.31090
 N468 N 0.23611 0.66594 0.32398
 C469 C 0.26028 0.92328 0.89406
 N470 N 0.24295 0.93481 0.90016
 N471 N 0.24371 0.95075 0.92043
 C472 C 0.26187 0.95589 0.93519
 N473 N 0.27931 0.94455 0.92882
 N474 N 0.27851 0.92846 0.90869
 C475 C 0.25878 0.90485 0.87337
 N476 N 0.27443 0.89054 0.87211
 N477 N 0.27220 0.87307 0.85512
 C478 C 0.25430 0.86936 0.83867
 N479 N 0.23881 0.88382 0.83960
 N480 N 0.24099 0.90120 0.85668
 C481 C 0.25092 0.84948 0.82192
 N482 N 0.23312 0.84640 0.80503
 N483 N 0.22904 0.82791 0.79187
 C484 C 0.24263 0.81176 0.79496
 N485 N 0.26048 0.81484 0.81188
 N486 N 0.26460 0.83339 0.82499
 C487 C 0.76055 0.42327 0.39406
 N488 N 0.77891 0.42836 0.40838
 N489 N 0.77993 0.44439 0.42857
 C490 C 0.76258 0.45577 0.43532
 N491 N 0.74428 0.45073 0.42086
 N492 N 0.74331 0.43484 0.40054
 C493 C 0.75886 0.40488 0.37334
 N494 N 0.74088 0.40117 0.35715
 N495 N 0.73858 0.38381 0.34006
 C496 C 0.75413 0.36943 0.33863
 N497 N 0.77222 0.37321 0.35458
 N498 N 0.77456 0.39066 0.37157
 C499 C 0.75069 0.34956 0.32191
 N500 N 0.76455 0.33360 0.32452
 N501 N 0.76045 0.31505 0.31142
 C502 C 0.74245 0.31184 0.29494
 N503 N 0.72866 0.32787 0.29232
 N504 N 0.73271 0.34636 0.30549
 C505 C 0.07656 0.25887 0.89473
 N506 N 0.06626 0.24127 0.90384
 N507 N 0.05043 0.24228 0.92428
 C508 C 0.04415 0.26096 0.93624
 N509 N 0.05426 0.27864 0.92678
 N510 N 0.07027 0.27760 0.90651
 C511 C 0.09483 0.25726 0.87374
 N512 N 0.10854 0.27341 0.87050
 N513 N 0.12592 0.27116 0.85330
 C514 C 0.13009 0.25274 0.83855
 N515 N 0.11621 0.23674 0.84144
 N516 N 0.09895 0.23894 0.85878
 C517 C 0.14989 0.24944 0.82160
 N518 N 0.15309 0.23136 0.80552
 N519 N 0.17155 0.22737 0.79226
 C520 C 0.18755 0.24132 0.79447
 N521 N 0.18435 0.25944 0.81059
 N522 N 0.16582 0.26349 0.82376
 C523 C 0.57723 0.75940 0.39441
 N524 N 0.57223 0.77773 0.40881
 N525 N 0.55619 0.77868 0.42903
 C526 C 0.54472 0.76129 0.43571
 N527 N 0.54968 0.74303 0.42118
 N528 N 0.56558 0.74212 0.40083
 C529 C 0.59561 0.75779 0.37364
 N530 N 0.59923 0.73984 0.35737
 N531 N 0.61656 0.73762 0.34021
 C532 C 0.63100 0.75321 0.33877
 N533 N 0.62732 0.77126 0.35481
 N534 N 0.60990 0.77353 0.37187
 C535 C 0.65084 0.74985 0.32194
 N536 N 0.66686 0.76376 0.32448
 N537 N 0.68538 0.75972 0.31127
 C538 C 0.68848 0.74174 0.29474
 N539 N 0.67240 0.72791 0.29218
 N540 N 0.65394 0.73190 0.30546
 C541 C 0.92447 0.74179 0.89449
 N542 N 0.93460 0.75945 0.90369
 N543 N 0.95048 0.75852 0.92405
 C544 C 0.95697 0.73987 0.93583
 N545 N 0.94703 0.72212 0.92628
 N546 N 0.93098 0.72308 0.90610
 C547 C 0.90615 0.74329 0.87361
 N548 N 0.89261 0.72700 0.87033
 N549 N 0.87518 0.72911 0.85321
 C550 C 0.87079 0.74753 0.83861
 N551 N 0.88450 0.76367 0.84154
 N552 N 0.90180 0.76162 0.85880
 C553 C 0.85094 0.75065 0.82172
 N554 N 0.84754 0.76872 0.80566
 N555 N 0.82904 0.77252 0.79243
 C556 C 0.81319 0.75840 0.79465
 N557 N 0.81659 0.74030 0.81075
 N558 N 0.83516 0.73643 0.82389
 C559 C 0.42350 0.23846 0.39420
 N560 N 0.43520 0.25573 0.40047
 N561 N 0.45112 0.25483 0.42076
 C562 C 0.45605 0.23658 0.43538
 N563 N 0.44454 0.21921 0.42884
 N564 N 0.42848 0.22015 0.40869
 C565 C 0.40509 0.24009 0.37354
 N566 N 0.39071 0.22442 0.37205
 N567 N 0.37324 0.22673 0.35513
 C568 C 0.36960 0.24475 0.33897
 N569 N 0.38413 0.26026 0.34013
 N570 N 0.40151 0.25800 0.35715
 C571 C 0.34972 0.24819 0.32235
 N572 N 0.34666 0.26611 0.30575
 N573 N 0.32816 0.27019 0.29270
 C574 C 0.31200 0.25648 0.29559
 N575 N 0.31505 0.23853 0.31223
 N576 N 0.33361 0.23440 0.32523
 C577 C 0.74066 0.92354 0.89328
 N578 N 0.75795 0.93518 0.89967
 N579 N 0.75704 0.95108 0.91999
 C580 C 0.73878 0.95605 0.93452
 N581 N 0.72138 0.94460 0.92786
 N582 N 0.72233 0.92856 0.90767
 C583 C 0.74230 0.90514 0.87259
 N584 N 0.72662 0.89076 0.87106
 N585 N 0.72894 0.87330 0.85413
 C586 C 0.74698 0.86966 0.83800
 N587 N 0.76249 0.88419 0.83920
 N588 N 0.76022 0.90156 0.85623
 C589 C 0.75042 0.84978 0.82137
 N590 N 0.76834 0.84675 0.80476
 N591 N 0.77244 0.82825 0.79170
 C592 C 0.75876 0.81207 0.79462
 N593 N 0.74081 0.81511 0.81127
 N594 N 0.73666 0.83365 0.82427
 C595 C 0.24034 0.42238 0.39447
 N596 N 0.22196 0.42746 0.40869
 N597 N 0.22095 0.44361 0.42867
 C598 C 0.23831 0.45513 0.43529
 N599 N 0.25661 0.45010 0.42093
 N600 N 0.25759 0.43408 0.40082
 C601 C 0.24203 0.40389 0.37396
 N602 N 0.26002 0.40018 0.35784
 N603 N 0.26229 0.38277 0.34089
 C604 C 0.24669 0.36834 0.33953
 N605 N 0.22859 0.37210 0.35542
 N606 N 0.22628 0.38960 0.37227
 C607 C 0.25007 0.34845 0.32287
 N608 N 0.23613 0.33245 0.32548
 N609 N 0.24016 0.31390 0.31237
 C610 C 0.25815 0.31074 0.29588
 N611 N 0.27202 0.32680 0.29327
 N612 N 0.26804 0.34529 0.30645
 C613 C 0.25850 0.07603 0.89489
 N614 N 0.24089 0.06571 0.90393
 N615 N 0.24189 0.04987 0.92437
 C616 C 0.26055 0.04361 0.93639
 N617 N 0.27824 0.05374 0.92699
 N618 N 0.27722 0.06975 0.90673
 C619 C 0.25692 0.09432 0.87393
 N620 N 0.27313 0.10796 0.87066
 N621 N 0.27095 0.12535 0.85347
 C622 C 0.25253 0.12961 0.83876
 N623 N 0.23647 0.11580 0.84168
 N624 N 0.23860 0.09853 0.85901
 C625 C 0.24933 0.14942 0.82179
 N626 N 0.23125 0.15272 0.80573
 N627 N 0.22738 0.17119 0.79243
 C628 C 0.24143 0.18711 0.79457
 N629 N 0.25955 0.18380 0.81068
 N630 N 0.26348 0.16526 0.82389
 C631 C 0.76082 0.57666 0.39415
 N632 N 0.74356 0.56497 0.40056
 N633 N 0.74450 0.54907 0.42090
 C634 C 0.76276 0.54415 0.43544
 N635 N 0.78013 0.55565 0.42877
 N636 N 0.77916 0.57169 0.40856
 C637 C 0.75916 0.59503 0.37337
 N638 N 0.77484 0.60939 0.37168
 N639 N 0.77251 0.62681 0.35461
 C640 C 0.75446 0.63041 0.33851
 N641 N 0.73895 0.61589 0.33988
 N642 N 0.74123 0.59856 0.35704
 C643 C 0.75101 0.65023 0.32170
 N644 N 0.73306 0.65324 0.30518
 N645 N 0.72897 0.67169 0.29196
 C646 C 0.74270 0.68786 0.29461
 N647 N 0.76068 0.68485 0.31117
 N648 N 0.76482 0.66634 0.32433
 C649 C 0.07643 0.74153 0.89403
 N650 N 0.06976 0.72284 0.90569
 N651 N 0.05374 0.72194 0.92597
 C652 C 0.04399 0.73972 0.93557
 N653 N 0.05064 0.75835 0.92372
 N654 N 0.06648 0.75923 0.90327
 C655 C 0.09473 0.74298 0.87307
 N656 N 0.09922 0.76128 0.85820
 N657 N 0.11654 0.76330 0.84091
 C658 C 0.13013 0.74715 0.83801
 N659 N 0.12558 0.72874 0.85266
 N660 N 0.10814 0.72667 0.86980
 C661 C 0.15002 0.75025 0.82116
 N662 N 0.16570 0.73603 0.82340
 N663 N 0.18434 0.73990 0.81038
 C664 C 0.18792 0.75802 0.79433
 N665 N 0.17216 0.77214 0.79203
 N666 N 0.15359 0.76832 0.80514
 C667 C 0.57705 0.23883 0.39432
 N668 N 0.57203 0.22049 0.40880
 N669 N 0.55596 0.21946 0.42896
 C670 C 0.54447 0.23678 0.43550
 N671 N 0.54945 0.25505 0.42088
 N672 N 0.56538 0.25603 0.40059
 C673 C 0.59546 0.24055 0.37361
 N674 N 0.59906 0.25848 0.35720
 N675 N 0.61642 0.26083 0.34010
 C676 C 0.63091 0.24539 0.33887
 N677 N 0.62726 0.22735 0.35505
 N678 N 0.60981 0.22495 0.37205
 C679 C 0.65077 0.24892 0.32212
 N680 N 0.66686 0.23520 0.32487
 N681 N 0.68538 0.23941 0.31173
 C682 C 0.68845 0.25738 0.29507
 N683 N 0.67231 0.27102 0.29230
 N684 N 0.65383 0.26686 0.30550
 C685 C 0.92401 0.25991 0.89322
 N686 N 0.92915 0.27823 0.90761
 N687 N 0.94518 0.27916 0.92783
 C688 C 0.95650 0.26176 0.93452
 N689 N 0.95141 0.24351 0.91998
 N690 N 0.93552 0.24262 0.89963
 C691 C 0.90561 0.25829 0.87249
 N692 N 0.90194 0.24039 0.85610
 N693 N 0.88457 0.23812 0.83903
 C694 C 0.87014 0.25363 0.83783
 N695 N 0.87387 0.27164 0.85398
 N696 N 0.89134 0.27396 0.87095
 C697 C 0.85025 0.25018 0.82116
 N698 N 0.83420 0.26391 0.82406
 N699 N 0.81563 0.25976 0.81104
 C700 C 0.81250 0.24182 0.79437
 N701 N 0.82861 0.22816 0.79145
 N702 N 0.84712 0.23227 0.80453
 C703 C 0.42374 0.75950 0.39481
 N704 N 0.43528 0.74221 0.40115
 N705 N 0.45120 0.74310 0.42145
 C706 C 0.45629 0.76134 0.43602
 N707 N 0.44493 0.77874 0.42942
 N708 N 0.42887 0.77781 0.40925
 C709 C 0.40536 0.75790 0.37403
 N710 N 0.39115 0.77363 0.37236
 N711 N 0.37373 0.77137 0.35525
 C712 C 0.36999 0.75337 0.33907
 N713 N 0.38435 0.73780 0.34042
 N714 N 0.40167 0.74001 0.35762
 C715 C 0.35017 0.75001 0.32217
 N716 N 0.34703 0.73212 0.30551
 N717 N 0.32857 0.72811 0.29218
 C718 C 0.31252 0.74187 0.29486
 N719 N 0.31567 0.75980 0.31155
 N720 N 0.33418 0.76385 0.32482
 C721 C 0.26054 0.92345 0.10641
 N722 N 0.27876 0.92867 0.09172
 N723 N 0.27951 0.94474 0.07153
 C724 C 0.26202 0.95601 0.06514
 N725 N 0.24388 0.95083 0.07996
 N726 N 0.24318 0.93491 0.10030
 C727 C 0.25911 0.90501 0.12713
 N728 N 0.24130 0.90125 0.14375
 N729 N 0.23918 0.88385 0.16081
 C730 C 0.25473 0.86947 0.16178
 N731 N 0.27266 0.87329 0.14540
 N732 N 0.27483 0.89079 0.12844
 C733 C 0.25141 0.84953 0.17842
 N734 N 0.26522 0.83354 0.17542
 N735 N 0.26115 0.81492 0.18837
 C736 C 0.24323 0.81167 0.20508
 N737 N 0.22951 0.82772 0.20812
 N738 N 0.23354 0.84628 0.19511
 C739 C 0.76083 0.42287 0.60612
 N740 N 0.74360 0.43452 0.59995
 N741 N 0.74454 0.45051 0.57975
 C742 C 0.76279 0.45556 0.56512
 N743 N 0.78013 0.44408 0.57157
 N744 N 0.77915 0.42796 0.59163
 C745 C 0.75915 0.40438 0.62669
 N746 N 0.77482 0.39010 0.62818
 N747 N 0.77247 0.37259 0.64505
 C748 C 0.75443 0.36880 0.66115
 N749 N 0.73892 0.38323 0.65999
 N750 N 0.74122 0.40066 0.64302
 C751 C 0.75099 0.34888 0.67777
 N752 N 0.73305 0.34567 0.69431
 N753 N 0.72899 0.32714 0.70742
 C754 C 0.74274 0.31110 0.70463
 N755 N 0.76071 0.31431 0.68803
 N756 N 0.76481 0.33289 0.67498
 C757 C 0.74061 0.07670 0.10602
 N758 N 0.72231 0.07160 0.09153
 N759 N 0.72139 0.05557 0.07132
 C760 C 0.73877 0.04419 0.06474
 N761 N 0.75701 0.04924 0.07937
 N762 N 0.75789 0.06514 0.09971
 C763 C 0.74220 0.09509 0.12675
 N764 N 0.76011 0.09883 0.14309
 N765 N 0.76232 0.11620 0.16019
 C766 C 0.74674 0.13056 0.16147
 N767 N 0.72872 0.12675 0.14537
 N768 N 0.72647 0.10929 0.12837
 C769 C 0.75010 0.15044 0.17818
 N770 N 0.73622 0.16639 0.17544
 N771 N 0.74026 0.18496 0.18851
 C772 C 0.75822 0.18821 0.20509
 N773 N 0.77202 0.17220 0.20785
 N774 N 0.76802 0.15368 0.19471
 C775 C 0.23959 0.57651 0.60572
 N776 N 0.25686 0.56489 0.59964
 N777 N 0.25602 0.54893 0.57941
 C778 C 0.23783 0.54386 0.56466
 N779 N 0.22045 0.55530 0.57101
 N780 N 0.22133 0.57140 0.59110
 C781 C 0.24115 0.59494 0.62640
 N782 N 0.22550 0.60925 0.62773
 N783 N 0.22776 0.62671 0.64473
 C784 C 0.24569 0.63041 0.66113
 N785 N 0.26117 0.61595 0.66012
 N786 N 0.25897 0.59858 0.64302
 C787 C 0.24907 0.65028 0.67791
 N788 N 0.26689 0.65335 0.69477
 N789 N 0.27096 0.67184 0.70798
 C790 C 0.25734 0.68797 0.70496
 N791 N 0.23948 0.68489 0.68807
 N792 N 0.23537 0.66635 0.67492
 C793 C 0.92370 0.74056 0.10536
 N794 N 0.92873 0.72232 0.09071
 N795 N 0.94482 0.72150 0.07059
 C796 C 0.95633 0.73892 0.06425
 N797 N 0.95135 0.75708 0.07904
 N798 N 0.93539 0.75787 0.09929
 C799 C 0.90525 0.74206 0.12600
 N800 N 0.90157 0.75992 0.14246
 N801 N 0.88417 0.76206 0.15950
 C802 C 0.86972 0.74647 0.16061
 N803 N 0.87345 0.72850 0.14438
 N804 N 0.89094 0.72631 0.12744
 C805 C 0.84982 0.74976 0.17729
 N806 N 0.83381 0.73585 0.17450
 N807 N 0.81524 0.73983 0.18758
 C808 C 0.81206 0.75775 0.20422
 N809 N 0.82813 0.77158 0.20703
 N810 N 0.84664 0.76765 0.19389
 C811 C 0.42312 0.23846 0.60605
 N812 N 0.42813 0.22015 0.59159
 N813 N 0.44427 0.21919 0.57157
 C814 C 0.45585 0.23655 0.56513
 N815 N 0.45089 0.25479 0.57973
 N816 N 0.43489 0.25571 0.59989
 C817 C 0.40463 0.24011 0.62657
 N818 N 0.40101 0.25803 0.64291
 N819 N 0.38358 0.26031 0.65982
 C820 C 0.36903 0.24482 0.66091
 N821 N 0.37270 0.22679 0.64481
 N822 N 0.39023 0.22445 0.62800
 C823 C 0.34911 0.24826 0.67746
 N824 N 0.33301 0.23447 0.67461
 N825 N 0.31444 0.23859 0.68758
 C826 C 0.31135 0.25654 0.70418
 N827 N 0.32750 0.27027 0.70704
 N828 N 0.34602 0.26619 0.69400
 C829 C 0.07704 0.25968 0.10617
 N830 N 0.07217 0.27798 0.09157
 N831 N 0.05616 0.27895 0.07133
 C832 C 0.04460 0.26160 0.06480
 N833 N 0.04943 0.24337 0.07953
 N834 N 0.06529 0.24244 0.09991
 C835 C 0.09539 0.25803 0.12695
 N836 N 0.09889 0.24013 0.14341
 N837 N 0.11621 0.23785 0.16056
 C838 C 0.13076 0.25333 0.16178
 N839 N 0.12721 0.27135 0.14555
 N840 N 0.10980 0.27368 0.12850
 C841 C 0.15059 0.24988 0.17854
 N842 N 0.16673 0.26364 0.17576
 N843 N 0.18524 0.25949 0.18887
 C844 C 0.18823 0.24153 0.20553
 N845 N 0.17203 0.22785 0.20833
 N846 N 0.15358 0.23195 0.19516
 C847 C 0.57772 0.75942 0.60630
 N848 N 0.56604 0.74213 0.60006
 N849 N 0.55003 0.74304 0.57993
 C850 C 0.54498 0.76130 0.56545
 N851 N 0.55648 0.77869 0.57197
 N852 N 0.57263 0.77775 0.59196
 C853 C 0.59621 0.75781 0.62683
 N854 N 0.61049 0.77357 0.62840
 N855 N 0.62799 0.77132 0.64527
 C856 C 0.63177 0.75327 0.66127
 N857 N 0.61735 0.73766 0.66002
 N858 N 0.59993 0.73986 0.64306
 C859 C 0.65167 0.74994 0.67792
 N860 N 0.65486 0.73201 0.69445
 N861 N 0.67336 0.72808 0.70760
 C862 C 0.68941 0.74194 0.70487
 N863 N 0.68622 0.75990 0.68829
 N864 N 0.66767 0.76388 0.67520
   
