data_POSCAR
  _audit_creation_date              2014-09-24
  _audit_creation_method            'ToBaCCo'
  _symmetry_space_group_name_H-M    'P1'
  _symmetry_Int_Tables_number       1
  _symmetry_cell_setting            triclinic
  loop_
  _symmetry_equiv_pos_as_xyz
 x,y,z
_cell_length_a 32.6538
_cell_length_b 32.6397
_cell_length_c 32.6420
_cell_angle_alpha 90.205500
_cell_angle_beta 90.231600
_cell_angle_gamma 89.796300
loop_
  _atom_site_label
  _atom_site_type_symbol
  _atom_site_fract_x
  _atom_site_fract_y
  _atom_site_fract_z
N1 N 0.16051 0.16192 0.16076
 N2 N -0.15802 0.84025 0.16138
 N3 N -0.16407 0.15859 -0.16051
 N4 N 0.16020 0.83774 -0.16017
 N5 N 0.16215 1.16043 0.84125
 N6 N 0.83813 0.83987 0.83592
 N7 N 0.16085 0.83657 1.16175
 N8 N 0.83842 1.16212 1.16148
 O9 O 0.44191 1.07241 1.07406
 O10 O 0.39713 1.03269 1.03689
 C11 C 0.40531 1.06123 1.06328
 O12 O 0.55601 1.06855 0.92739
 O13 O 0.60127 1.03144 0.96668
 C14 C 0.59275 1.05778 0.93832
 O15 O 0.44083 1.07198 0.93145
 O16 O 0.39660 1.03254 0.96891
 C17 C 0.40437 1.06089 0.94245
 O18 O 0.55718 1.06906 1.07735
 O19 O 0.60182 1.03166 1.03775
 C20 C 0.59376 1.05823 1.06615
 Zr21 Zr 0.49950 1.04930 1.05446
 O22 O 0.50368 1.11401 1.05440
 O23 O 0.49541 1.04904 1.11918
 Zr24 Zr 0.49871 1.04902 0.95071
 O25 O 0.50291 1.11374 0.95100
 O26 O 0.49365 1.04858 0.88602
 O27 O 0.46259 1.05707 1.00271
 O28 O 0.53457 1.05670 1.00246
 O29 O 0.55801 0.92633 1.07730
 O30 O 0.60221 0.96366 1.03768
 C31 C 0.59445 0.93730 1.06611
 O32 O 0.44174 0.92198 0.93133
 O33 O 0.39705 0.96145 0.96885
 C34 C 0.40516 0.93300 0.94234
 O35 O 0.55692 0.92599 0.92719
 O36 O 0.60171 0.96350 0.96658
 C37 C 0.59353 0.93702 0.93811
 O38 O 0.44272 0.92233 1.07399
 O39 O 0.39752 0.96160 1.03681
 C40 C 0.40598 0.93327 1.06320
 Zr41 Zr 0.50010 0.94556 1.05437
 O42 O 0.50506 0.88087 1.05402
 O43 O 0.49599 0.94596 1.11908
 Zr44 Zr 0.49935 0.94526 0.95063
 O45 O 0.50435 0.88057 0.95097
 O46 O 0.49428 0.94517 0.88596
 Zr47 Zr 0.43865 0.99716 1.00274
 Zr48 Zr 0.56018 0.99744 1.00232
 O49 O 0.53530 0.93805 1.00237
 O50 O 0.46329 0.93735 1.00261
 O51 O 0.53634 0.99754 1.06227
 O52 O 0.46346 0.99704 0.94334
 O53 O 0.46433 0.99737 1.06197
 O54 O 0.53543 0.99721 0.94256
 H55 H 0.55301 1.08074 1.00241
 H56 H 0.44469 0.99694 0.91941
 H57 H 0.55406 0.91413 1.00227
 H58 H 0.44589 0.99739 1.08601
 H59 H 0.51667 1.03204 0.87525
 H60 H 0.51687 0.96205 0.87519
 H61 H 0.48141 0.86989 0.96744
 H62 H 0.48202 0.87009 1.03749
 H63 H 0.51889 0.96273 1.12969
 H64 H 0.51876 1.03279 1.12974
 H65 H 0.48070 1.12460 1.03764
 H66 H 0.47998 1.12441 0.96765
 O67 O 0.07213 0.44079 -0.07444
 O68 O 0.03262 0.39649 -0.03711
 C69 C 0.06106 0.40430 -0.06345
 O70 O 0.06898 0.55696 0.07152
 O71 O 0.03166 0.60172 0.03193
 C72 C 0.05815 0.59358 0.06040
 O73 O 0.07236 0.44171 0.06814
 O74 O 0.03274 0.39694 0.03085
 C75 C 0.06119 0.40511 0.05734
 O76 O 0.06866 0.55609 -0.07843
 O77 O 0.03149 0.60127 -0.03914
 C78 C 0.05789 0.59282 -0.06744
 Zr79 Zr 0.04904 0.49869 -0.05530
 O80 O 0.11372 0.50289 -0.05528
 O81 O 0.04829 0.49371 -0.11999
 Zr82 Zr 0.04937 0.49932 0.04845
 O83 O 0.11405 0.50353 0.04815
 O84 O 0.04939 0.49514 0.11316
 O85 O 0.05711 0.46248 -0.00332
 O86 O 0.05673 0.53449 -0.00349
 O87 O -0.07407 0.55696 -0.07866
 O88 O -0.03649 0.60169 -0.03926
 C89 C -0.06305 0.59358 -0.06767
 O90 O -0.07744 0.44250 0.06805
 O91 O -0.03827 0.39732 0.03076
 C92 C -0.06650 0.40576 0.05725
 O93 O -0.07347 0.55777 0.07144
 O94 O -0.03625 0.60209 0.03184
 C95 C -0.06251 0.59425 0.06032
 O96 O -0.07803 0.44167 -0.07463
 O97 O -0.03848 0.39693 -0.03721
 C98 C -0.06701 0.40507 -0.06363
 Zr99 Zr -0.05465 0.49931 -0.05540
 O100 O -0.11931 0.50427 -0.05537
 O101 O -0.05446 0.49433 -0.12009
 Zr102 Zr -0.05437 0.49990 0.04833
 O103 O -0.11903 0.50487 0.04770
 O104 O -0.05423 0.49571 0.11304
 Zr105 Zr -0.00277 0.43852 -0.00332
 Zr106 Zr -0.00251 0.56010 -0.00359
 O107 O -0.06187 0.53519 -0.00361
 O108 O -0.06256 0.46315 -0.00345
 O109 O -0.00274 0.53547 -0.06340
 O110 O -0.00255 0.46414 0.05593
 O111 O -0.00290 0.46340 -0.06271
 O112 O -0.00240 0.53612 0.05631
 H113 H 0.08076 0.55294 -0.00348
 H114 H -0.00252 0.44572 0.07999
 H115 H -0.08578 0.55396 -0.00366
 H116 H -0.00300 0.44460 -0.08661
 H117 H 0.03280 0.51821 0.12379
 H118 H -0.03711 0.51832 0.12372
 H119 H -0.12979 0.48148 0.03165
 H120 H -0.12999 0.48168 -0.03841
 H121 H -0.03797 0.51726 -0.13078
 H122 H 0.03212 0.51703 -0.13071
 H123 H 0.12442 0.48033 -0.03812
 H124 H 0.12463 0.48021 0.03186
 O125 O 0.93197 0.07833 0.44277
 O126 O 0.96974 0.03909 0.39808
 C127 C 0.94304 0.06736 0.40617
 O128 O 1.07800 0.07452 0.55931
 O129 O 1.03851 0.03707 0.60351
 C130 C 1.06686 0.06352 0.59578
 O131 O 1.07465 0.07842 0.44394
 O132 O 1.03772 0.03899 0.39862
 C133 C 1.06398 0.06740 0.40716
 O134 O 0.92785 0.07435 0.55805
 O135 O 0.96741 0.03709 0.60294
 C136 C 0.93881 0.06338 0.59469
 Zr137 Zr 0.95145 0.05527 0.50048
 O138 O 0.95191 0.11996 0.50546
 O139 O 0.88680 0.05551 0.49541
 Zr140 Zr 1.05505 0.05524 0.50137
 O141 O 1.05439 0.11993 0.50632
 O142 O 1.11974 0.05522 0.49733
 O143 O 1.00337 0.06329 0.46443
 O144 O 1.00308 0.06261 0.53655
 O145 O 0.92854 -0.06810 0.55734
 O146 O 0.96763 -0.03081 0.60259
 C147 C 0.93938 -0.05726 0.59409
 O148 O 1.07506 -0.07162 0.44303
 O149 O 1.03783 -0.03203 0.39818
 C150 C 1.06424 -0.06054 0.40638
 O151 O 1.07832 -0.06824 0.55839
 O152 O 1.03862 -0.03095 0.60307
 C153 C 1.06705 -0.05747 0.59498
 O154 O 0.93223 -0.07180 0.44252
 O155 O 0.96925 -0.03209 0.39826
 C156 C 0.94302 -0.06061 0.40608
 Zr157 Zr 0.95178 -0.04849 0.50001
 O158 O 0.95228 -0.11320 0.50429
 O159 O 0.88712 -0.04800 0.49498
 Zr160 Zr 1.05549 -0.04851 0.50070
 O161 O 1.05571 -0.11322 0.50488
 O162 O 1.12018 -0.04800 0.49662
 Zr163 Zr 1.00370 0.00348 0.43975
 Zr164 Zr 1.00321 0.00322 0.56143
 O165 O 1.00354 -0.05604 0.53582
 O166 O 1.00378 -0.05641 0.46379
 O167 O 0.94348 0.00332 0.53665
 O168 O 1.06287 0.00344 0.46554
 O169 O 0.94433 0.00345 0.46465
 O170 O 1.06313 0.00327 0.53759
 H171 H 1.00292 0.08652 0.55534
 H172 H 1.08691 0.00345 0.44713
 H173 H 1.00351 -0.08008 0.55426
 H174 H 0.92035 0.00351 0.44597
 H175 H 1.13039 0.03815 0.51999
 H176 H 1.13069 -0.03190 0.52011
 H177 H 1.03899 -0.12389 0.48190
 H178 H 0.96915 -0.12385 0.48149
 H179 H 0.87632 -0.03178 0.51823
 H180 H 0.87605 0.03815 0.51765
 H181 H 0.96787 0.13065 0.48216
 H182 H 1.03800 0.13063 0.48314
 C183 C 1.14986 0.15234 0.20067
 C184 C 1.13966 0.14305 0.23485
 C185 C 1.12630 0.13058 0.27391
 C186 C 1.11370 0.11849 0.30632
 C187 C 1.09763 0.10256 0.34300
 C188 C 1.08282 0.08739 0.37308
 C189 C 0.85392 -0.14885 0.20073
 C190 C 0.86513 -0.13853 0.23444
 C191 C 0.87948 -0.12505 0.27299
 C192 C 0.89272 -0.11229 0.30506
 C193 C 0.90929 -0.09585 0.34151
 C194 C 0.92428 -0.08049 0.37162
 C195 C 0.84722 0.14781 0.79999
 C196 C 0.85796 0.13760 0.76615
 C197 C 0.87201 0.12436 0.72748
 C198 C 0.88530 0.11197 0.69535
 C199 C 0.90240 0.09623 0.65891
 C200 C 0.91831 0.08177 0.62890
 C201 C 1.15049 -0.14987 0.80037
 C202 C 1.14120 -0.13820 0.76658
 C203 C 1.12888 -0.12324 0.72794
 C204 C 1.11701 -0.10945 0.69582
 C205 C 1.10143 -0.09223 0.65935
 C206 C 1.08660 -0.07673 0.62929
 C207 C 0.20000 1.15062 1.14996
 C208 C 0.23382 1.14002 1.13961
 C209 C 0.27248 1.12629 1.12602
 C210 C 0.30460 1.11337 1.11324
 C211 C 0.34104 1.09678 1.09698
 C212 C 0.37107 1.08129 1.08210
 C213 C 0.19968 0.84741 0.85220
 C214 C 0.23350 0.85682 0.86371
 C215 C 0.27217 0.86946 0.87832
 C216 C 0.30432 0.88171 0.89172
 C217 C 0.34081 0.89778 0.90843
 C218 C 0.37087 0.91303 0.92350
 C219 C 0.80211 0.85123 1.15142
 C220 C 0.76793 0.86166 1.14186
 C221 C 0.72883 0.87521 1.12917
 C222 C 0.69631 0.88789 1.11697
 C223 C 0.65941 0.90396 1.10102
 C224 C 0.62903 0.91867 1.08592
 C225 C 0.79663 1.14686 0.85013
 C226 C 0.76299 1.13579 0.86028
 C227 C 0.72458 1.12153 0.87363
 C228 C 0.69269 1.10831 0.88634
 C229 C 0.65652 1.09170 0.90281
 C230 C 0.62673 1.07664 0.91825
 C231 C 0.14943 0.20109 0.14861
 C232 C 0.13901 0.23462 0.13715
 C233 C 0.12550 0.27294 0.12241
 C234 C 0.11276 0.30480 0.10880
 C235 C 0.09637 0.34100 0.09177
 C236 C 0.08105 0.37089 0.07643
 C237 C -0.15407 0.19838 -0.14943
 C238 C -0.14438 0.23247 -0.13896
 C239 C -0.13143 0.27145 -0.12545
 C240 C -0.11894 0.30383 -0.11284
 C241 C -0.10261 0.34055 -0.09686
 C242 C -0.08718 0.37074 -0.08221
 C243 C 0.14820 0.79815 -0.15088
 C244 C 0.13691 0.76425 -0.14184
 C245 C 0.12240 0.72551 -0.12966
 C246 C 0.10899 0.69335 -0.11780
 C247 C 0.09217 0.65689 -0.10214
 C248 C 0.07694 0.62691 -0.08718
 C249 C -0.14731 0.80065 0.15014
 C250 C -0.13710 0.76671 0.13952
 C251 C -0.12379 0.72790 0.12572
 C252 C -0.11132 0.69563 0.11271
 C253 C -0.09547 0.65897 0.09599
 C254 C -0.08094 0.62875 0.08042
 C255 C 1.15269 0.15003 0.80346
 C256 C 1.14306 0.13955 0.76924
 C257 C 1.13021 0.12590 0.73015
 C258 C 1.11788 0.11313 0.69768
 C259 C 1.10181 0.09696 0.66079
 C260 C 1.08667 0.08220 0.63041
 C261 C 0.84928 -0.14796 0.79686
 C262 C 0.85991 -0.13649 0.76347
 C263 C 0.87380 -0.12179 0.72537
 C264 C 0.88690 -0.10826 0.69373
 C265 C 0.90370 -0.09139 0.65778
 C266 C 0.91929 -0.07619 0.62809
 C267 C 1.15011 -0.15198 0.20126
 C268 C 1.13981 -0.14110 0.23505
 C269 C 1.12634 -0.12693 0.27365
 C270 C 1.11370 -0.11361 0.30571
 C271 C 1.09765 -0.09657 0.34211
 C272 C 1.08293 -0.08081 0.37212
 C273 C 0.85089 0.15237 0.20095
 C274 C 0.86263 0.14291 0.23472
 C275 C 0.87763 0.13027 0.27330
 C276 C 0.89141 0.11809 0.30536
 C277 C 0.90855 0.10217 0.34179
 C278 C 0.92393 0.08712 0.37184
 C279 C 0.15151 0.19796 -0.14858
 C280 C 0.14083 0.23193 -0.13833
 C281 C 0.12686 0.27071 -0.12493
 C282 C 0.11370 0.30293 -0.11238
 C283 C 0.09684 0.33954 -0.09646
 C284 C 0.08119 0.36975 -0.08189
 C285 C -0.15175 0.20149 0.14910
 C286 C -0.14223 0.23516 0.13745
 C287 C -0.12952 0.27361 0.12254
 C288 C -0.11729 0.30554 0.10884
 C289 C -0.10133 0.34179 0.09175
 C290 C -0.08625 0.37166 0.07638
 C291 C -0.15067 0.80009 -0.15408
 C292 C -0.13999 0.76603 -0.14440
 C293 C -0.12609 0.72712 -0.13149
 C294 C -0.11314 0.69480 -0.11910
 C295 C -0.09678 0.65813 -0.10292
 C296 C -0.08187 0.62795 -0.08766
 C297 C 0.14876 0.79740 0.15052
 C298 C 0.13734 0.76390 0.13984
 C299 C 0.12268 0.72565 0.12591
 C300 C 0.10917 0.69386 0.11279
 C301 C 0.09230 0.65771 0.09600
 C302 C 0.07710 0.62784 0.08043
 C303 C 0.19937 1.15001 0.85263
 C304 C 0.23305 1.13954 0.86396
 C305 C 0.27149 1.12582 0.87850
 C306 C 0.30345 1.11287 0.89191
 C307 C 0.33980 1.09624 0.90864
 C308 C 0.36987 1.08080 0.92370
 C309 C 0.20052 0.84664 1.15063
 C310 C 0.23447 0.85638 1.14002
 C311 C 0.27323 0.86935 1.12620
 C312 C 0.30540 0.88179 1.11330
 C313 C 0.34188 0.89800 1.09697
 C314 C 0.37187 0.91328 1.08206
 C315 C 0.79896 1.14985 1.15156
 C316 C 0.76519 1.13828 1.14197
 C317 C 0.72661 1.12345 1.12919
 C318 C 0.69456 1.10979 1.11692
 C319 C 0.65814 1.09273 1.10094
 C320 C 0.62810 1.07738 1.08587
 C321 C 0.79863 0.85081 0.84715
 C322 C 0.76484 0.86126 0.85786
 C323 C 0.72624 0.87488 0.87186
 C324 C 0.69419 0.88761 0.88508
 C325 C 0.65779 0.90371 0.90204
 C326 C 0.62779 0.91842 0.91779
   
