data_POSCAR
  _audit_creation_date              2014-09-24
  _audit_creation_method            'ToBaCCo'
  _symmetry_space_group_name_H-M    'P1'
  _symmetry_Int_Tables_number       1
  _symmetry_cell_setting            triclinic
  loop_
  _symmetry_equiv_pos_as_xyz
 x,y,z
_cell_length_a 30.8382
_cell_length_b 30.9760
_cell_length_c 78.0831
_cell_angle_alpha 87.329600
_cell_angle_beta 91.875300
_cell_angle_gamma 120.980100
loop_
  _atom_site_label
  _atom_site_type_symbol
  _atom_site_fract_x
  _atom_site_fract_y
  _atom_site_fract_z
C1 C 0.01127 0.09880 0.52419
 H2 H 0.04786 0.10190 0.52433
 C3 C 0.00361 0.13073 0.53396
 H4 H 0.03439 0.15793 0.54180
 C5 C -0.07329 0.05901 0.51384
 H6 H -0.10284 0.03153 0.50576
 C7 C -0.08275 0.09012 0.52355
 H8 H -0.11972 0.08622 0.52291
 N9 N -0.02693 0.06363 0.51448
 C10 C 0.01371 -0.05064 0.50944
 H11 H 0.01797 -0.04971 0.49571
 C12 C 0.01719 -0.08679 0.51980
 H13 H 0.02423 -0.11357 0.51394
 C14 C -0.00401 -0.01893 0.53360
 H15 H -0.01359 0.00663 0.53891
 C16 C -0.00096 -0.05445 0.54441
 H17 H -0.00708 -0.05496 0.55801
 Zn18 Zn -0.00968 0.02452 0.50157
 N19 N 0.00295 -0.01787 0.51644
 C20 C 0.09223 0.07052 0.48949
 N21 N 0.04819 0.07073 0.48886
 C22 C 0.04377 0.10618 0.47936
 C23 C 0.08449 0.14328 0.46989
 C24 C 0.13397 0.10684 0.48005
 C25 C -0.10748 -0.05412 0.49304
 C26 C -0.14488 -0.09015 0.48247
 C27 C -0.08852 -0.05116 0.45851
 C28 C -0.05266 -0.01565 0.46952
 N29 N -0.06238 -0.01800 0.48646
 H30 H 0.09519 0.04249 0.49735
 H31 H 0.00837 0.10558 0.47919
 H32 H 0.07997 0.17084 0.46227
 H33 H 0.16890 0.10646 0.48069
 H34 H -0.11376 -0.05608 0.50668
 H35 H -0.17875 -0.11941 0.48870
 H36 H -0.07892 -0.04614 0.44510
 H37 H -0.01638 0.01301 0.46451
 C38 C 0.00892 -0.08954 0.53751
 C39 C -0.04386 0.12668 0.53373
 C40 C -0.13574 -0.09048 0.46480
 C41 C 0.13037 0.14400 0.47018
 C42 C 1.09957 0.04101 0.14141
 H43 H 1.09845 0.07489 0.14311
 C44 C 1.13515 0.04219 0.13056
 H45 H 1.16048 0.07704 0.12365
 C46 C 1.06715 -0.04547 0.14837
 H47 H 1.04107 -0.07924 0.15561
 C48 C 1.10265 -0.04585 0.13776
 H49 H 1.10357 -0.08016 0.13697
 N50 N 1.06633 -0.00237 0.14996
 C51 C 0.94264 0.02055 0.16202
 H52 H 0.94159 0.01553 0.17584
 C53 C 0.90526 0.02602 0.15336
 H54 H 0.87593 0.02604 0.16061
 C55 C 0.98080 0.02426 0.13571
 H56 H 1.00897 0.02155 0.12878
 C57 C 0.94450 0.03022 0.12657
 H58 H 0.94554 0.03238 0.11269
 Zn59 Zn 1.02303 0.00263 0.16526
 N60 N 0.97918 0.01935 0.15312
 C61 C 1.06148 0.09290 0.18423
 N62 N 1.06551 0.05240 0.18086
 C63 C 1.10173 0.04545 0.18855
 C64 C 1.13476 0.07897 0.20058
 C65 C 1.09398 0.12760 0.19623
 C66 C 0.94497 -0.09876 0.16866
 C67 C 0.90854 -0.14219 0.17749
 C68 C 0.94892 -0.10369 0.20414
 C69 C 0.98423 -0.06099 0.19484
 N70 N 0.98139 -0.05901 0.17742
 H71 H 1.03287 0.09808 0.17776
 H72 H 1.10451 0.01331 0.18542
 H73 H 1.16333 0.07263 0.20652
 H74 H 1.08971 0.15908 0.19908
 H75 H 0.94307 -0.09590 0.15482
 H76 H 0.87908 -0.17307 0.17036
 H77 H 0.95071 -0.10358 0.21801
 H78 H 1.01245 -0.02867 0.20164
 C79 C 0.90560 0.03033 0.13537
 C80 C 1.13753 -0.00145 0.12874
 C81 C 0.90983 -0.14463 0.19550
 C82 C 1.13081 0.12040 0.20472
 C83 C 0.04501 0.95528 0.85518
 H84 H 0.01011 0.91917 0.85512
 C85 C 0.08576 0.96130 0.86526
 H86 H 0.08169 0.92971 0.87311
 C87 C 0.09206 1.04041 0.84512
 H88 H 0.09445 1.07088 0.83707
 C89 C 0.13383 1.04821 0.85512
 H90 H 0.16821 1.08482 0.85470
 N91 N 0.04864 0.99457 0.84548
 C92 C -0.10800 0.95705 0.84010
 H93 H -0.11404 0.95301 0.82640
 C94 C -0.14591 0.95360 0.85044
 H95 H -0.18040 0.94743 0.84423
 C96 C -0.05335 0.97460 0.86410
 H97 H -0.01693 0.98369 0.86938
 C98 C -0.08981 0.97207 0.87488
 H99 H -0.08084 0.97700 0.88841
 Zn100 Zn -0.00954 0.98024 0.83232
 N101 N -0.06274 0.96759 0.84703
 C102 C -0.07171 0.88054 0.81960
 N103 N -0.02566 0.92376 0.81930
 C104 C 0.01282 0.92834 0.80985
 C105 C 0.00574 0.88882 0.80000
 C106 C -0.08057 0.83999 0.80981
 C107 C 0.01209 1.07878 0.82463
 C108 C 0.01525 1.11834 0.81428
 C109 C -0.00184 1.06771 0.78953
 C110 C -0.00455 1.02924 0.80032
 N111 N 0.00210 1.03525 0.81754
 H112 H -0.10150 0.87729 0.82746
 H113 H 0.04914 0.96303 0.80996
 H114 H 0.03671 0.89363 0.79236
 H115 H -0.11732 0.80574 0.81018
 H116 H 0.01608 1.08214 0.83840
 H117 H 0.02177 1.15215 0.82019
 H118 H -0.00765 1.06203 0.77588
 H119 H -0.01357 0.99404 0.79494
 C120 C -0.13696 0.96236 0.86817
 C121 C 0.13091 1.00824 0.86534
 C122 C 0.00741 1.11270 0.79650
 C123 C -0.04142 0.84389 0.79988
 C124 C 0.36668 -0.02759 -0.01246
 C125 C 0.36524 -0.02900 0.00510
 C126 C 0.41366 -0.01451 0.01094
 N127 N 0.44463 -0.00391 -0.00248
 C128 C 0.41592 -0.01219 -0.01679
 C129 C 0.42937 -0.00743 0.02831
 C130 C 0.47865 0.00581 0.03390
 C131 C 0.49920 0.02442 0.04985
 C132 C 0.54670 0.03061 0.05047
 C133 C 0.55358 0.01478 0.03500
 N134 N 0.51182 -0.00048 0.02502
 C135 C 0.59636 0.01188 0.03091
 C136 C 0.60522 0.00167 0.01435
 C137 C 0.64054 -0.01139 0.01061
 C138 C 0.63955 -0.01504 -0.00685
 C139 C 0.60399 -0.00361 -0.01321
 N140 N 0.58304 0.00656 -0.00022
 C141 C 0.59409 0.00094 -0.03079
 C142 C 0.55392 0.00742 -0.03669
 C143 C 0.54983 0.02416 -0.05310
 C144 C 0.50475 0.02324 -0.05388
 C145 C 0.48245 0.00579 -0.03794
 N146 N 0.51260 -0.00396 -0.02756
 C147 C 0.43415 -0.00324 -0.03373
 H148 H 0.33513 -0.03648 -0.02106
 H149 H 0.33245 -0.03873 0.01266
 H150 H 0.50303 -0.02257 -0.01563
 H151 H 0.48190 0.03263 0.06005
 H152 H 0.57281 0.04448 0.06122
 H153 H 0.66450 -0.01767 0.01954
 H154 H 0.66273 -0.02457 -0.01402
 H155 H 0.48997 0.03395 -0.06497
 H156 H 0.50409 -0.01930 0.01364
 H157 H 0.57657 0.03589 -0.06344
 C158 C -0.01458 0.37052 0.65423
 C159 C -0.01348 0.36593 0.67176
 C160 C -0.02755 0.39806 0.67803
 N161 N -0.03727 0.42204 0.66492
 C162 C -0.02916 0.40540 0.65035
 C163 C -0.03420 0.40246 0.69555
 C164 C -0.04255 0.43981 0.70164
 C165 C -0.05982 0.43911 0.71789
 C166 C -0.06032 0.48301 0.71908
 C167 C -0.04327 0.50937 0.70354
 N168 N -0.03233 0.48286 0.69301
 C169 C -0.03544 0.55797 0.69984
 C170 C -0.02729 0.58002 0.68312
 C171 C -0.01228 0.62992 0.67931
 C172 C -0.01153 0.63544 0.66178
 C173 C -0.02626 0.58869 0.65546
 N174 N -0.03602 0.55483 0.66853
 C175 C -0.03349 0.57725 0.63791
 C176 C -0.04275 0.53099 0.63178
 C177 C -0.06062 0.51392 0.61547
 C178 C -0.06190 0.46912 0.61427
 C179 C -0.04471 0.46009 0.62988
 N180 N -0.03293 0.49809 0.64046
 C181 C -0.03743 0.41914 0.63360
 H182 H -0.00571 0.35042 0.64535
 H183 H -0.00367 0.34152 0.67905
 H184 H -0.01391 0.50412 0.65214
 H185 H -0.07074 0.41007 0.72789
 H186 H -0.07161 0.49439 0.73019
 H187 H -0.00292 0.65929 0.68823
 H188 H -0.00154 0.66990 0.65453
 H189 H -0.07379 0.44602 0.60312
 H190 H -0.01358 0.49594 0.68140
 H191 H -0.07143 0.53197 0.60543
 C192 C 0.37423 0.38656 0.34464
 C193 C 0.37208 0.38645 0.32707
 C194 C 0.42101 0.41879 0.32140
 N195 N 0.45283 0.43895 0.33490
 C196 C 0.42426 0.41946 0.34911
 C197 C 0.43635 0.42634 0.30413
 C198 C 0.48598 0.46239 0.29890
 C199 C 0.50721 0.46206 0.28357
 C200 C 0.55500 0.50408 0.28311
 C201 C 0.56139 0.52923 0.29809
 N202 N 0.51907 0.50355 0.30763
 C203 C 0.60425 0.57626 0.30211
 C204 C 0.61290 0.59684 0.31849
 C205 C 0.64786 0.64646 0.32211
 C206 C 0.64679 0.65029 0.33950
 C207 C 0.61165 0.60269 0.34595
 N208 N 0.59093 0.57011 0.33307
 C209 C 0.60204 0.58900 0.36355
 C210 C 0.56248 0.54130 0.36939
 C211 C 0.55923 0.52078 0.38579
 C212 C 0.51453 0.47513 0.38644
 C213 C 0.49157 0.46921 0.37045
 N214 N 0.52099 0.50982 0.36015
 C215 C 0.44325 0.42851 0.36608
 H216 H 0.34260 0.36489 0.35316
 H217 H 0.33841 0.36450 0.31938
 H218 H 0.51089 0.51820 0.34817
 H219 H 0.49013 0.43430 0.27377
 H220 H 0.58174 0.51506 0.27282
 H221 H 0.67164 0.67673 0.31315
 H222 H 0.66973 0.68415 0.34658
 H223 H 0.50038 0.44945 0.39749
 H224 H 0.51101 0.51612 0.31852
 H225 H 0.58633 0.53694 0.39619
 C226 C -0.09641 0.14129 0.55396
 C227 C -0.10210 0.17248 0.56493
 C228 C -0.06411 0.22315 0.56624
 C229 C -0.02075 0.24276 0.55609
 C230 C -0.01493 0.21165 0.54520
 C231 C -0.05229 0.16039 0.54421
 N232 N -0.06912 0.25320 0.57854
 N233 N -0.03575 0.29946 0.58024
 C234 C -0.03890 0.32936 0.59303
 C235 C -0.00099 0.38022 0.59383
 C236 C -0.00106 0.40975 0.60681
 C237 C -0.03909 0.38860 0.61922
 C238 C -0.07768 0.33788 0.61826
 C239 C -0.07765 0.30839 0.60525
 H240 H -0.12564 0.10188 0.55355
 H241 H -0.13565 0.15688 0.57271
 H242 H 0.00911 0.28184 0.55681
 H243 H 0.01911 0.22757 0.53764
 H244 H 0.02913 0.39673 0.58453
 H245 H 0.02902 0.44880 0.60741
 H246 H -0.10731 0.32107 0.62775
 H247 H -0.10727 0.26913 0.60493
 C248 C 0.81782 0.79323 0.20056
 C249 C 0.77885 0.75736 0.21106
 C250 C 0.78998 0.74008 0.22649
 C251 C 0.84074 0.75766 0.23102
 C252 C 0.87971 0.79358 0.22056
 C253 C 0.86869 0.81253 0.20539
 N254 N 0.74948 0.70729 0.23779
 N255 N 0.75750 0.69124 0.25214
 C256 C 0.71784 0.66059 0.26399
 C257 C 0.72978 0.64296 0.27917
 C258 C 0.69270 0.61509 0.29144
 C259 C 0.64305 0.60468 0.28873
 C260 C 0.63085 0.62197 0.27344
 C261 C 0.66797 0.64968 0.26111
 H262 H 0.80814 0.80754 0.18907
 H263 H 0.73991 0.74419 0.20744
 H264 H 0.85036 0.74473 0.24285
 H265 H 0.91853 0.80734 0.22451
 H266 H 0.76809 0.65130 0.28155
 H267 H 0.70275 0.60193 0.30314
 H268 H 0.59276 0.61441 0.27117
 H269 H 0.65792 0.66317 0.24950
 C270 C 0.20196 0.05837 -0.11401
 C271 C 0.24021 0.06285 -0.10276
 C272 C 0.25152 0.02448 -0.10113
 C273 C 0.22486 -0.01811 -0.11121
 C274 C 0.18655 -0.02272 -0.12240
 C275 C 0.17419 0.01513 -0.12375
 N276 N 0.28853 0.02857 -0.08869
 N277 N 0.30044 -0.00507 -0.08669
 C278 C 0.33584 -0.00243 -0.07384
 C279 C 0.34794 -0.04029 -0.07277
 C280 C 0.38048 -0.04022 -0.05987
 C281 C 0.40116 -0.00226 -0.04782
 C282 C 0.38963 0.03610 -0.04899
 C283 C 0.35719 0.03609 -0.06192
 H284 H 0.19299 0.08793 -0.11468
 H285 H 0.26042 0.09581 -0.09503
 H286 H 0.23296 -0.04824 -0.11023
 H287 H 0.16631 -0.05610 -0.12993
 H288 H 0.33162 -0.07021 -0.08185
 H289 H 0.38903 -0.07008 -0.05912
 H290 H 0.40542 0.06570 -0.03978
 H291 H 0.34831 0.06568 -0.06245
 C292 C 0.04352 0.85487 0.54658
 C293 C 0.04196 0.81616 0.55704
 C294 C 0.00483 0.79157 0.56961
 C295 C -0.03090 0.80617 0.57162
 C296 C -0.02930 0.84486 0.56123
 C297 C 0.00797 0.86975 0.54861
 N298 N 0.00431 0.75233 0.58025
 N299 N -0.02937 0.72820 0.59159
 C300 C -0.03041 0.68937 0.60258
 C301 C -0.06880 0.66516 0.61474
 C302 C -0.07027 0.62818 0.62606
 C303 C -0.03312 0.61501 0.62538
 C304 C 0.00500 0.63868 0.61303
 C305 C 0.00643 0.67571 0.60169
 H306 H 0.07285 0.87356 0.53704
 H307 H 0.06978 0.80533 0.55538
 H308 H -0.06010 0.78770 0.58120
 H309 H -0.05777 0.85482 0.56290
 H310 H -0.09737 0.67538 0.61554
 H311 H -0.10002 0.61015 0.63548
 H312 H 0.03393 0.62891 0.61236
 H313 H 0.03648 0.69392 0.59239
 C314 C 0.17663 0.13601 0.23292
 C315 C 0.21060 0.16845 0.24506
 C316 C 0.23339 0.22060 0.24257
 C317 C 0.22110 0.24020 0.22785
 C318 C 0.18698 0.20770 0.21565
 C319 C 0.16485 0.15524 0.21797
 N320 N 0.26948 0.25244 0.25504
 N321 N 0.29201 0.30028 0.25385
 C322 C 0.32850 0.33117 0.26643
 C323 C 0.34980 0.38346 0.26511
 C324 C 0.38510 0.41445 0.27731
 C325 C 0.39962 0.39342 0.29099
 C326 C 0.37895 0.34108 0.29217
 C327 C 0.34348 0.31012 0.28003
 H328 H 0.15954 0.09577 0.23522
 H329 H 0.21957 0.15292 0.25639
 H330 H 0.23830 0.28048 0.22567
 H331 H 0.17892 0.22360 0.20421
 H332 H 0.33874 0.40016 0.25467
 H333 H 0.40083 0.45479 0.27618
 H334 H 0.39011 0.32427 0.30255
 H335 H 0.32783 0.26983 0.28129
 C336 C 0.77454 -0.06402 -0.12530
 C337 C 0.73933 -0.06246 -0.11487
 C338 C 0.75521 -0.03325 -0.10032
 C339 C 0.80689 -0.00598 -0.09614
 C340 C 0.84209 -0.00791 -0.10636
 C341 C 0.82680 -0.03685 -0.12123
 N342 N 0.71842 -0.03219 -0.08988
 N343 N 0.73156 -0.00144 -0.07781
 C344 C 0.69589 -0.00038 -0.06682
 C345 C 0.71367 0.03745 -0.05483
 C346 C 0.68045 0.03855 -0.04336
 C347 C 0.62890 0.00130 -0.04361
 C348 C 0.61082 -0.03619 -0.05583
 C349 C 0.64407 -0.03704 -0.06740
 H350 H 0.76010 -0.08817 -0.13616
 H351 H 0.69948 -0.08409 -0.11815
 H352 H 0.82022 0.01704 -0.08496
 H353 H 0.88154 0.01541 -0.10284
 H354 H 0.75349 0.06591 -0.05428
 H355 H 0.69500 0.06798 -0.03411
 H356 H 0.57115 -0.06518 -0.05621
 H357 H 0.62950 -0.06671 -0.07655
 C358 C 0.22521 0.04349 0.11662
 C359 C 0.26149 0.04596 0.10573
 C360 C 0.25053 0.00494 0.09590
 C361 C 0.20263 -0.03911 0.09712
 C362 C 0.16598 -0.04148 0.10788
 C363 C 0.17672 -0.00002 0.11768
 N364 N 0.28824 0.00968 0.08447
 N365 N 0.28375 -0.02749 0.07660
 C366 C 0.32127 -0.02159 0.06483
 C367 C 0.31857 -0.06458 0.05861
 C368 C 0.35430 -0.05995 0.04695
 C369 C 0.39280 -0.01213 0.04120
 C370 C 0.39539 0.03101 0.04730
 C371 C 0.36009 0.02638 0.05914
 H372 H 0.23531 0.07572 0.12425
 H373 H 0.29835 0.08003 0.10495
 H374 H 0.19321 -0.07123 0.08953
 H375 H 0.12892 -0.07533 0.10822
 H376 H 0.28876 -0.10170 0.06284
 H377 H 0.35167 -0.09356 0.04224
 H378 H 0.42467 0.06814 0.04285
 H379 H 0.36273 0.06018 0.06365
 C380 C 0.77788 0.84208 0.45870
 C381 C 0.74335 0.80359 0.44817
 C382 C 0.75933 0.79319 0.43321
 C383 C 0.81031 0.82251 0.42865
 C384 C 0.84486 0.86149 0.43894
 C385 C 0.82983 0.87228 0.45439
 N386 N 0.72330 0.75308 0.42278
 N387 N 0.73728 0.73708 0.41064
 C388 C 0.70226 0.69813 0.39968
 C389 C 0.72107 0.67934 0.38786
 C390 C 0.68840 0.64295 0.37641
 C391 C 0.63638 0.62537 0.37645
 C392 C 0.61731 0.64346 0.38852
 C393 C 0.65000 0.67955 0.40010
 H394 H 0.76249 0.84903 0.46976
 H395 H 0.70389 0.78165 0.45172
 H396 H 0.82368 0.81517 0.41712
 H397 H 0.88386 0.88065 0.43499
 H398 H 0.76124 0.69330 0.38744
 H399 H 0.70374 0.62907 0.36731
 H400 H 0.57726 0.63024 0.38875
 H401 H 0.63462 0.69358 0.40911
 C402 C 0.04172 0.20366 0.78768
 C403 C 0.04022 0.24069 0.77714
 C404 C 0.00331 0.22715 0.76423
 C405 C -0.03223 0.17592 0.76194
 C406 C -0.03065 0.13894 0.77240
 C407 C 0.00638 0.15235 0.78537
 N408 N 0.00284 0.26579 0.75354
 N409 N -0.03079 0.25543 0.74195
 C410 C -0.03166 0.29324 0.73092
 C411 C -0.07020 0.27829 0.71856
 C412 C -0.07150 0.31385 0.70722
 C413 C -0.03401 0.36498 0.70808
 C414 C 0.00427 0.38018 0.72063
 C415 C 0.00552 0.34455 0.73199
 H416 H 0.07088 0.21510 0.79749
 H417 H 0.06791 0.28003 0.77901
 H418 H -0.06121 0.16441 0.75208
 H419 H -0.05893 0.09980 0.77049
 H420 H -0.09905 0.23889 0.71763
 H421 H -0.10139 0.30154 0.69765
 H422 H 0.03347 0.41951 0.72144
 H423 H 0.03570 0.35699 0.74144
 C424 C 0.81333 -0.00167 0.13031
 C425 C 0.77392 -0.00442 0.12010
 C426 C 0.78439 0.02599 0.10519
 C427 C 0.83499 0.06045 0.10082
 C428 C 0.87440 0.06307 0.11096
 C429 C 0.86400 0.03146 0.12567
 N430 N 0.74333 0.01927 0.09422
 N431 N 0.75067 0.04624 0.08059
 C432 C 0.71052 0.03845 0.06900
 C433 C 0.72187 0.07116 0.05466
 C434 C 0.68447 0.06301 0.04249
 C435 C 0.63508 0.02174 0.04445
 C436 C 0.62335 -0.01070 0.05896
 C437 C 0.66082 -0.00240 0.07119
 H438 H 0.80414 -0.02690 0.14145
 H439 H 0.73511 -0.03124 0.12358
 H440 H 0.84412 0.08445 0.08936
 H441 H 0.91306 0.08931 0.10717
 H442 H 0.76002 0.10263 0.05281
 H443 H 0.69414 0.08844 0.03138
 H444 H 0.58546 -0.04280 0.06063
 H445 H 0.65122 -0.02833 0.08214
 C446 C 0.18542 0.23359 0.45977
 C447 C 0.22401 0.27015 0.44936
 C448 C 0.25142 0.25719 0.43900
 C449 C 0.24092 0.20726 0.43958
 C450 C 0.20251 0.17065 0.45010
 C451 C 0.17380 0.18331 0.46008
 N452 N 0.28799 0.29487 0.42752
 N453 N 0.31125 0.28483 0.41670
 C454 C 0.34640 0.32221 0.40481
 C455 C 0.36774 0.30756 0.39247
 C456 C 0.39986 0.34235 0.38004
 C457 C 0.41124 0.39245 0.37985
 C458 C 0.39074 0.40754 0.39241
 C459 C 0.35841 0.37263 0.40481
 H460 H 0.16436 0.24454 0.46750
 H461 H 0.23187 0.30852 0.44906
 H462 H 0.26171 0.19635 0.43170
 H463 H 0.19414 0.13215 0.45002
 H464 H 0.35870 0.26885 0.39231
 H465 H 0.41542 0.33017 0.37042
 H466 H 0.39908 0.44605 0.39240
 H467 H 0.34235 0.38486 0.41422
 C468 C -0.09360 0.77546 0.77926
 C469 C -0.09907 0.73861 0.76823
 C470 C -0.06075 0.72737 0.76705
 C471 C -0.01722 0.75256 0.77741
 C472 C -0.01161 0.78949 0.78838
 C473 C -0.04939 0.80189 0.78924
 N474 N -0.06574 0.69220 0.75472
 N475 N -0.03225 0.68033 0.75316
 C476 C -0.03564 0.64709 0.74034
 C477 C 0.00218 0.63496 0.73972
 C478 C 0.00172 0.60509 0.72675
 C479 C -0.03660 0.58715 0.71419
 C480 C -0.07506 0.59851 0.71495
 C481 C -0.07465 0.62827 0.72794
 H482 H -0.12313 0.78449 0.77956
 H483 H -0.13276 0.71953 0.76029
 H484 H 0.01290 0.74446 0.77679
 H485 H 0.02252 0.80870 0.79610
 H486 H 0.03251 0.64939 0.74915
 H487 H 0.03171 0.59673 0.72630
 H488 H -0.10490 0.58490 0.70534
 H489 H -0.10420 0.63729 0.72812
   
