data_POSCAR
  _audit_creation_date              2014-09-24
  _audit_creation_method            'ToBaCCo'
  _symmetry_space_group_name_H-M    'P1'
  _symmetry_Int_Tables_number       1
  _symmetry_cell_setting            triclinic
  loop_
  _symmetry_equiv_pos_as_xyz
 x,y,z
_cell_length_a 29.7771
_cell_length_b 29.7788
_cell_length_c 23.0447
_cell_angle_alpha 89.944900
_cell_angle_beta 89.935400
_cell_angle_gamma 89.974100
loop_
  _atom_site_label
  _atom_site_type_symbol
  _atom_site_fract_x
  _atom_site_fract_y
  _atom_site_fract_z
O1 O 0.04353 0.28832 -0.07240
 O2 O -0.04545 0.29633 0.04037
 O3 O 0.04367 0.29704 0.03994
 O4 O -0.04543 0.28791 -0.07201
 O5 O -0.04405 0.21402 -0.06233
 O6 O 0.04326 0.22304 0.04803
 O7 O -0.04394 0.22236 0.04850
 O8 O 0.04304 0.21442 -0.06274
 Cu9 Cu -0.00098 0.30001 -0.01701
 Cu10 Cu -0.00037 0.21116 -0.00618
 C11 C 0.05879 0.24977 -0.08550
 C12 C -0.06021 0.26012 0.06252
 C13 C 0.05902 0.26103 0.06189
 C14 C -0.06028 0.24920 -0.08495
 O15 O 0.45555 0.79765 0.53977
 O16 O 0.54476 0.78876 0.42749
 O17 O 0.45569 0.78905 0.42737
 O18 O 0.54468 0.79724 0.53988
 O19 O 0.54350 0.72325 0.54798
 O20 O 0.45636 0.71516 0.43700
 O21 O 0.54359 0.71487 0.43710
 O22 O 0.45623 0.72365 0.54788
 Cu23 Cu 0.50020 0.80076 0.48262
 Cu24 Cu 0.49989 0.71195 0.49341
 C25 C 0.44034 0.76160 0.56182
 C26 C 0.55977 0.75010 0.41450
 C27 C 0.44047 0.75049 0.41432
 C28 C 0.55962 0.76108 0.56197
 O29 O 0.95540 0.71226 -0.07536
 O30 O 1.04484 0.70325 0.03646
 O31 O 0.95576 0.70304 0.03697
 O32 O 1.04458 0.71286 -0.07580
 O33 O 1.04323 0.78666 -0.06547
 O34 O 0.95645 0.77697 0.04583
 O35 O 1.04366 0.77717 0.04527
 O36 O 0.95596 0.78607 -0.06495
 Cu37 Cu 1.00018 0.70028 -0.02056
 Cu38 Cu 0.99979 0.78899 -0.00887
 C39 C 0.93998 0.75089 -0.08782
 C40 C 1.05982 0.73923 0.05883
 C41 C 0.94066 0.73893 0.05954
 C42 C 1.05949 0.75165 -0.08846
 O43 O 0.54448 0.20226 0.53881
 O44 O 0.45592 0.21151 0.42609
 O45 O 0.54491 0.21141 0.42650
 O46 O 0.45542 0.20252 0.53841
 O47 O 0.45643 0.27648 0.54686
 O48 O 0.54406 0.28526 0.43651
 O49 O 0.45693 0.28536 0.43608
 O50 O 0.54361 0.27623 0.54728
 Cu51 Cu 0.50018 0.19933 0.48140
 Cu52 Cu 0.50027 0.28813 0.49264
 C53 C 0.55947 0.23824 0.56115
 C54 C 0.44095 0.25021 0.41319
 C55 C 0.56010 0.25006 0.41374
 C56 C 0.44034 0.23856 0.56059
 O57 O 0.70265 0.04338 -0.03627
 O58 O 0.71245 -0.04590 0.07578
 O59 O 0.71244 0.04319 0.07595
 O60 O 0.70309 -0.04565 -0.03645
 O61 O 0.77702 -0.04448 -0.04565
 O62 O 0.78625 0.04237 0.06525
 O63 O 0.78625 -0.04481 0.06504
 O64 O 0.77658 0.04266 -0.04542
 Cu65 Cu 0.70007 -0.00125 0.02091
 Cu66 Cu 0.78881 -0.00104 0.00880
 C67 C 0.73852 0.05855 -0.05886
 C68 C 0.75121 -0.06101 0.08812
 C69 C 0.75115 0.05832 0.08839
 C70 C 0.73906 -0.06052 -0.05911
 O71 O 0.20268 0.54500 0.46075
 O72 O 0.21135 0.45592 0.57319
 O73 O 0.21104 0.54500 0.57317
 O74 O 0.20286 0.45593 0.46081
 O75 O 0.27687 0.45698 0.45287
 O76 O 0.28494 0.54426 0.56366
 O77 O 0.28525 0.45703 0.56373
 O78 O 0.27669 0.54421 0.45277
 Cu79 Cu 0.19939 0.50045 0.51799
 Cu80 Cu 0.28823 0.50064 0.50736
 C81 C 0.23878 0.56011 0.43869
 C82 C 0.24999 0.44089 0.58627
 C83 C 0.24959 0.56021 0.58623
 C84 C 0.23903 0.44093 0.43881
 O85 O 0.29546 0.95580 -0.04287
 O86 O 0.28850 1.04493 0.06967
 O87 O 0.28834 0.95589 0.06967
 O88 O 0.29583 1.04498 -0.04290
 O89 O 0.22176 1.04426 -0.04937
 O90 O 0.21434 0.95706 0.06168
 O91 O 0.21450 1.04422 0.06165
 O92 O 0.22139 0.95700 -0.04933
 Cu93 Cu 0.29963 1.00038 0.01421
 Cu94 Cu 0.21070 1.00067 0.00538
 C95 C 0.25905 0.94083 -0.06411
 C96 C 0.25006 1.06013 0.08355
 C97 C 0.24984 0.94090 0.08354
 C98 C 0.25952 1.06018 -0.06416
 O99 O 0.79801 0.45523 0.46169
 O100 O 0.78893 0.54392 0.57430
 O101 O 0.78875 0.45490 0.57401
 O102 O 0.79780 0.54430 0.46195
 O103 O 0.72384 0.54339 0.45350
 O104 O 0.71489 0.45591 0.56402
 O105 O 0.71507 0.54307 0.56430
 O106 O 0.72404 0.45620 0.45325
 Cu107 Cu 0.80097 0.49958 0.51904
 Cu108 Cu 0.71217 0.49964 0.50781
 C109 C 0.76201 0.44026 0.43939
 C110 C 0.75026 0.55900 0.58716
 C111 C 0.75006 0.43981 0.58680
 C112 C 0.76178 0.55940 0.43974
 C113 C 0.18463 0.19510 0.14096
 C114 C 0.22203 0.17593 0.16720
 C115 C 0.24472 0.19916 0.21094
 C116 C 0.23162 0.24340 0.22671
 C117 C 0.19386 0.26248 0.19826
 C118 C 0.17010 0.23784 0.15663
 C119 C 0.25742 0.26929 0.27182
 C120 C 0.23814 0.30676 0.30083
 C121 C 0.26287 0.33062 0.34236
 C122 C 0.30587 0.31642 0.35731
 C123 C 0.32516 0.27931 0.33051
 C124 C 0.30185 0.25659 0.28693
 H125 H 0.16682 0.17666 0.10749
 H126 H 0.27225 0.18214 0.23202
 H127 H 0.18289 0.29635 0.20720
 H128 H 0.20410 0.31741 0.29240
 H129 H 0.32439 0.33419 0.39074
 H130 H 0.31898 0.22930 0.26547
 C131 C 0.81647 0.80526 0.14154
 C132 C 0.77949 0.82469 0.16853
 C133 C 0.75682 0.80143 0.21236
 C134 C 0.76951 0.75697 0.22755
 C135 C 0.80684 0.73760 0.19839
 C136 C 0.83061 0.76223 0.15658
 C137 C 0.74368 0.73118 0.27283
 C138 C 0.76294 0.69371 0.30182
 C139 C 0.73827 0.66996 0.34362
 C140 C 0.69532 0.68425 0.35882
 C141 C 0.67600 0.72136 0.33199
 C142 C 0.69929 0.74400 0.28817
 H143 H 0.83422 0.82371 0.10794
 H144 H 0.72959 0.81859 0.23398
 H145 H 0.81744 0.70354 0.20697
 H146 H 0.79694 0.68298 0.29311
 H147 H 0.67683 0.66650 0.39240
 H148 H 0.68221 0.77132 0.26666
 C149 C 0.81745 0.19363 0.14303
 C150 C 0.83162 0.23673 0.15756
 C151 C 0.80775 0.26169 0.19891
 C152 C 0.77028 0.24258 0.22809
 C153 C 0.75762 0.19806 0.21349
 C154 C 0.78035 0.17448 0.17010
 C155 C 0.74424 0.26869 0.27277
 C156 C 0.69975 0.25603 0.28781
 C157 C 0.67631 0.27883 0.33130
 C158 C 0.69555 0.31597 0.35799
 C159 C 0.73860 0.33011 0.34299
 C160 C 0.76342 0.30619 0.30158
 H161 H 0.83524 0.17492 0.10971
 H162 H 0.81833 0.29579 0.20709
 H163 H 0.73032 0.18110 0.23522
 H164 H 0.68273 0.22869 0.26638
 H165 H 0.67697 0.33383 0.39135
 H166 H 0.79750 0.31677 0.29306
 C167 C 0.18476 0.80537 0.13950
 C168 C 0.17041 0.76249 0.15486
 C169 C 0.19409 0.73791 0.19679
 C170 C 0.23153 0.75721 0.22575
 C171 C 0.24436 0.80154 0.21022
 C172 C 0.22180 0.82472 0.16629
 C173 C 0.25724 0.73155 0.27128
 C174 C 0.30151 0.74453 0.28695
 C175 C 0.32461 0.72204 0.33106
 C176 C 0.30523 0.68495 0.35785
 C177 C 0.26245 0.67050 0.34234
 C178 C 0.23796 0.69408 0.30026
 H179 H 0.16706 0.82381 0.10586
 H180 H 0.18331 0.70396 0.20564
 H181 H 0.27160 0.81871 0.23167
 H182 H 0.31866 0.77182 0.26549
 H183 H 0.32356 0.66730 0.39163
 H184 H 0.20406 0.68321 0.29136
 C185 C 0.68387 0.30450 0.64252
 C186 C 0.66949 0.26159 0.65776
 C187 C 0.69306 0.23690 0.69962
 C188 C 0.73044 0.25610 0.72867
 C189 C 0.74333 0.30048 0.71339
 C190 C 0.72090 0.32377 0.66945
 C191 C 0.75615 0.23019 0.77386
 C192 C 0.80055 0.24287 0.78900
 C193 C 0.82378 0.22022 0.83275
 C194 C 0.80444 0.18318 0.85970
 C195 C 0.76148 0.16897 0.84464
 C196 C 0.73682 0.19276 0.80291
 H197 H 0.66627 0.32298 0.60884
 H198 H 0.68228 0.20292 0.70831
 H199 H 0.77056 0.31755 0.73499
 H200 H 0.81771 0.27011 0.76739
 H201 H 0.82292 0.16544 0.89325
 H202 H 0.70281 0.18211 0.79431
 C203 C 0.31525 0.69543 0.64257
 C204 C 0.32949 0.73839 0.65761
 C205 C 0.30542 0.76328 0.69884
 C206 C 0.26765 0.74426 0.72747
 C207 C 0.25487 0.69984 0.71228
 C208 C 0.27786 0.67633 0.66897
 C209 C 0.24147 0.77039 0.77214
 C210 C 0.19704 0.75756 0.78732
 C211 C 0.17344 0.78047 0.83059
 C212 C 0.19245 0.81787 0.85696
 C213 C 0.23543 0.83218 0.84194
 C214 C 0.26042 0.80816 0.80074
 H215 H 0.33324 0.67680 0.60937
 H216 H 0.31615 0.79729 0.70733
 H217 H 0.22733 0.68288 0.73346
 H218 H 0.18016 0.73000 0.76619
 H219 H 0.17374 0.83578 0.89016
 H220 H 0.29444 0.81891 0.79226
 C221 C 0.31566 0.30524 0.64170
 C222 C 0.27854 0.32456 0.66851
 C223 C 0.25571 0.30116 0.71206
 C224 C 0.26831 0.25664 0.72708
 C225 C 0.30579 0.23740 0.69811
 C226 C 0.32976 0.26218 0.65663
 C227 C 0.24224 0.23068 0.77199
 C228 C 0.26119 0.19285 0.80057
 C229 C 0.23629 0.16899 0.84203
 C230 C 0.19345 0.18351 0.85735
 C231 C 0.17446 0.22097 0.83097
 C232 C 0.19793 0.24372 0.78743
 H233 H 0.33355 0.32381 0.60832
 H234 H 0.22841 0.31827 0.73355
 H235 H 0.31638 0.20331 0.70653
 H236 H 0.29512 0.18194 0.79185
 H237 H 0.17482 0.16570 0.89074
 H238 H 0.18103 0.27130 0.76626
 C239 C 0.68424 0.69419 0.64320
 C240 C 0.72144 0.67492 0.66983
 C241 C 0.74429 0.69826 0.71328
 C242 C 0.73156 0.74266 0.72847
 C243 C 0.69400 0.76192 0.69966
 C244 C 0.67005 0.73719 0.65821
 C245 C 0.75751 0.76846 0.77348
 C246 C 0.73816 0.80573 0.80266
 C247 C 0.76282 0.82950 0.84426
 C248 C 0.80590 0.81544 0.85911
 C249 C 0.82536 0.77849 0.83214
 C250 C 0.80203 0.75579 0.78848
 H251 H 0.66638 0.67565 0.60986
 H252 H 0.77170 0.68121 0.73461
 H253 H 0.68338 0.79596 0.70822
 H254 H 0.70407 0.81629 0.79427
 H255 H 0.82437 0.83324 0.89257
 H256 H 0.81916 0.72856 0.76684
 C257 C 0.24568 0.09869 0.12037
 C258 C 0.23720 0.13322 0.14538
 C259 C 0.74526 0.59753 0.62378
 C260 C 0.73654 0.63210 0.64846
 C261 C 0.75605 0.90225 0.12240
 C262 C 0.76453 0.86761 0.14718
 C263 C 0.25488 0.40218 0.62273
 C264 C 0.26354 0.36749 0.64728
 C265 C 0.90391 0.26012 0.09892
 C266 C 0.87089 0.25343 0.12803
 C267 C 0.40230 0.76192 0.60011
 C268 C 0.36905 0.75507 0.62871
 C269 C 0.09783 0.73889 0.09710
 C270 C 0.13100 0.74573 0.12580
 C271 C 0.59723 0.23787 0.59969
 C272 C 0.63025 0.24478 0.62854
 C273 C 0.73792 0.09648 0.90271
 C274 C 0.74468 0.12962 0.87387
 C275 C 0.23858 0.59802 0.40022
 C276 C 0.24558 0.63113 0.37145
 C277 C 0.25879 0.90484 0.89972
 C278 C 0.25204 0.87168 0.87096
 C279 C 0.76235 0.40245 0.40091
 C280 C 0.75543 0.36940 0.37212
 C281 C 0.09728 0.24504 0.87761
 C282 C 0.13178 0.23631 0.85265
 C283 C 0.59847 0.74514 0.37800
 C284 C 0.63313 0.73645 0.35337
 C285 C 0.90314 0.75544 0.87802
 C286 C 0.86840 0.76369 0.85333
 C287 C 0.40247 0.25530 0.37653
 C288 C 0.36794 0.26413 0.35184
 C289 C 0.73875 0.90166 0.90243
 C290 C 0.74580 0.86866 0.87357
 C291 C 0.23897 0.40302 0.40038
 C292 C 0.24600 0.36994 0.37158
 C293 C 0.25946 0.09618 0.89966
 C294 C 0.25283 0.12940 0.87093
 C295 C 0.76207 0.59742 0.40144
 C296 C 0.75512 0.63058 0.37273
 C297 C 0.09612 0.75659 0.87707
 C298 C 0.13066 0.76526 0.85213
 C299 C 0.59880 0.25502 0.37727
 C300 C 0.63344 0.26374 0.35265
 C301 C 0.90114 0.24413 0.87859
 C302 C 0.86657 0.23534 0.85403
 C303 C 0.40191 0.74576 0.37759
 C304 C 0.36736 0.73717 0.35271
 C305 C 0.24531 0.90223 0.12013
 C306 C 0.23681 0.86758 0.14485
 C307 C 0.74500 0.40115 0.62334
 C308 C 0.73616 0.36656 0.64802
 C309 C 0.75628 0.09695 0.12479
 C310 C 0.76515 0.13160 0.14916
 C311 C 0.25428 0.59886 0.62282
 C312 C 0.26282 0.63348 0.64753
 C313 C 0.90286 0.73840 0.09820
 C314 C 0.86984 0.74530 0.12720
 C315 C 0.40229 0.23833 0.59884
 C316 C 0.36912 0.24531 0.62752
 C317 C 0.09712 0.26141 0.09988
 C318 C 0.13045 0.25454 0.12815
 C319 C 0.59756 0.76111 0.60037
 C320 C 0.63067 0.75407 0.62910
   
