data_POSCAR
  _audit_creation_date              2014-09-24
  _audit_creation_method            'ToBaCCo'
  _symmetry_space_group_name_H-M    'P1'
  _symmetry_Int_Tables_number       1
  _symmetry_cell_setting            triclinic
  loop_
  _symmetry_equiv_pos_as_xyz
 x,y,z
_cell_length_a 61.7950
_cell_length_b 63.2462
_cell_length_c 57.0073
_cell_angle_alpha 87.934600
_cell_angle_beta 89.590100
_cell_angle_gamma 87.782000
loop_
  _atom_site_label
  _atom_site_type_symbol
  _atom_site_fract_x
  _atom_site_fract_y
  _atom_site_fract_z
N1 N 0.60213 0.66207 0.61376
 N2 N 0.58897 0.64907 0.62466
 C3 C 0.57040 0.65972 0.62997
 C4 C 0.57212 0.68052 0.62212
 C5 C 0.59245 0.68150 0.61196
 H6 H 0.55675 0.65292 0.63903
 H7 H 0.59946 0.69521 0.60349
 Cu8 Cu 0.59730 0.61960 0.63165
 Cu9 Cu 0.63010 0.65243 0.60127
 Cu10 Cu 0.64831 0.60241 0.61976
 N11 N 0.60993 0.59394 0.64660
 N12 N 0.63005 0.58763 0.64234
 C13 C 0.63507 0.57032 0.65589
 C14 C 0.61709 0.56547 0.66932
 C15 C 0.60135 0.58072 0.66292
 H16 H 0.65070 0.56200 0.65614
 H17 H 0.58514 0.58245 0.67007
 N18 N 0.66433 0.62002 0.59705
 N19 N 0.65775 0.63941 0.59045
 C20 C 0.67188 0.64717 0.57451
 C21 C 0.68794 0.63179 0.57085
 C22 C 0.68266 0.61482 0.58538
 H23 H 0.67019 0.66249 0.56553
 H24 H 0.69134 0.59966 0.58695
 H25 H 0.62480 0.62044 0.60092
 H26 H 0.63413 0.63121 0.62927
 N27 N 0.89608 0.34137 0.12212
 N28 N 0.90829 0.35388 0.13381
 C29 C 0.92740 0.34368 0.13858
 C30 C 0.92696 0.32367 0.12961
 C31 C 0.90684 0.32271 0.11933
 H32 H 0.94049 0.35012 0.14820
 H33 H 0.90064 0.30955 0.11018
 Cu34 Cu 0.89735 0.38164 0.14305
 Cu35 Cu 0.86775 0.35062 0.11000
 Cu36 Cu 0.84855 0.40060 0.12486
 N37 N 0.88597 0.40935 0.15202
 N38 N 0.86659 0.41636 0.14533
 C39 C 0.86182 0.43488 0.15542
 C40 C 0.87915 0.43978 0.16909
 C41 C 0.89425 0.42331 0.16651
 H42 H 0.84667 0.44389 0.15342
 H43 H 0.90967 0.42128 0.17532
 N44 N 0.83265 0.38230 0.10436
 N45 N 0.83963 0.36302 0.09920
 C46 C 0.82552 0.35486 0.08436
 C47 C 0.80905 0.36981 0.07989
 C48 C 0.81404 0.38697 0.09283
 H49 H 0.82752 0.33957 0.07656
 H50 H 0.80502 0.40195 0.09327
 H51 H 0.87319 0.38262 0.10941
 H52 H 0.86039 0.37108 0.13650
 N53 N 0.40044 0.16282 -0.11808
 N54 N 0.41262 0.15127 -0.13211
 C55 C 0.43089 0.16152 -0.13721
 C56 C 0.42989 0.18053 -0.12597
 C57 C 0.41037 0.18089 -0.11405
 H58 H 0.44379 0.15582 -0.14853
 H59 H 0.40405 0.19323 -0.10296
 Cu60 Cu 0.40270 0.12464 -0.14345
 Cu61 Cu 0.37326 0.15312 -0.10486
 Cu62 Cu 0.35601 0.10508 -0.12346
 N63 N 0.39230 0.09806 -0.15444
 N64 N 0.37376 0.09084 -0.14681
 C65 C 0.36935 0.07335 -0.15831
 C66 C 0.38601 0.06931 -0.17396
 C67 C 0.40039 0.08523 -0.17105
 H68 H 0.35483 0.06449 -0.15592
 H69 H 0.41512 0.08770 -0.18095
 N70 N 0.34020 0.12178 -0.09997
 N71 N 0.34638 0.14039 -0.09333
 C72 C 0.33237 0.14764 -0.07697
 C73 C 0.31680 0.13279 -0.07310
 C74 C 0.32222 0.11664 -0.08793
 H75 H 0.33373 0.16228 -0.06796
 H76 H 0.31382 0.10209 -0.08952
 H77 H 0.38051 0.12126 -0.10811
 H78 H 0.36561 0.13520 -0.13291
 N79 N 0.11015 0.82457 0.37967
 N80 N 0.10389 0.83246 0.35907
 C81 C 0.08756 0.82115 0.35124
 C82 C 0.08329 0.80546 0.36802
 C83 C 0.09798 0.80805 0.38580
 H84 H 0.07907 0.82447 0.33491
 H85 H 0.09964 0.79872 0.40202
 Cu86 Cu 0.11669 0.85756 0.34505
 Cu87 Cu 0.13391 0.83621 0.39656
 Cu88 Cu 0.14230 0.88882 0.38178
 N89 N 0.12144 0.88707 0.33701
 N90 N 0.13008 0.89954 0.35205
 C91 C 0.13040 0.91930 0.34250
 C92 C 0.12168 0.91910 0.32026
 C93 C 0.11619 0.89840 0.31728
 H94 H 0.13703 0.93271 0.35081
 H95 H 0.10870 0.89212 0.30205
 N96 N 0.15387 0.87448 0.41064
 N97 N 0.15140 0.85418 0.41570
 C98 C 0.16301 0.84847 0.43495
 C99 C 0.17328 0.86604 0.44233
 C100 C 0.16710 0.88226 0.42663
 H101 H 0.16435 0.83260 0.44266
 H102 H 0.17272 0.89825 0.42624
 H103 H 0.12047 0.86503 0.38630
 H104 H 0.14715 0.85810 0.37242
 C105 C 0.10091 0.12748 0.14702
 C106 C 0.08587 0.14453 0.14869
 C107 C 0.08772 0.16281 0.13417
 C108 C 0.10502 0.16408 0.11811
 C109 C 0.11990 0.14693 0.11583
 C110 C 0.11773 0.12848 0.13020
 C111 C 0.09937 0.10940 0.16185
 C112 C 0.11410 0.09208 0.15970
 C113 C 0.13031 0.09285 0.14231
 C114 C 0.13234 0.11100 0.12769
 C115 C 0.14881 0.11197 0.11069
 C116 C 0.15115 0.13033 0.09636
 C117 C 0.13671 0.14781 0.09918
 H118 H 0.07271 0.14362 0.16133
 H119 H 0.10648 0.17814 0.10684
 H120 H 0.08662 0.10877 0.17499
 H121 H 0.14172 0.07953 0.14055
 H122 H 0.15996 0.09848 0.10880
 H123 H 0.13828 0.16197 0.08810
 C124 C 0.39837 0.87744 0.64525
 C125 C 0.41477 0.86149 0.64446
 C126 C 0.41233 0.84368 0.63078
 C127 C 0.39341 0.84211 0.61749
 C128 C 0.37710 0.85813 0.61768
 C129 C 0.37951 0.87581 0.63171
 C130 C 0.40036 0.89483 0.65962
 C131 C 0.38359 0.91043 0.66091
 C132 C 0.36507 0.90889 0.64696
 C133 C 0.36299 0.89179 0.63228
 C134 C 0.34455 0.89038 0.61830
 C135 C 0.34218 0.87298 0.60398
 C136 C 0.35844 0.85678 0.60402
 H137 H 0.42924 0.86271 0.65490
 H138 H 0.39150 0.82852 0.60675
 H139 H 0.41469 0.89588 0.67031
 H140 H 0.35219 0.92099 0.64757
 H141 H 0.33199 0.90281 0.61867
 H142 H 0.35678 0.84328 0.59308
 C143 C 0.90155 0.63116 0.34811
 C144 C 0.91793 0.64591 0.34812
 C145 C 0.91853 0.66093 0.36567
 C146 C 0.90239 0.66126 0.38317
 C147 C 0.88567 0.64687 0.38315
 C148 C 0.88530 0.63169 0.36563
 C149 C 0.90121 0.61584 0.33093
 C150 C 0.88465 0.60122 0.33079
 C151 C 0.86839 0.60199 0.34815
 C152 C 0.86871 0.61700 0.36565
 C153 C 0.85272 0.61748 0.38322
 C154 C 0.85288 0.63265 0.40064
 C155 C 0.86936 0.64737 0.40042
 H156 H 0.93042 0.64548 0.33468
 H157 H 0.90269 0.67290 0.39667
 H158 H 0.91374 0.61543 0.31752
 H159 H 0.85564 0.59068 0.34827
 H160 H 0.83999 0.60615 0.38318
 H161 H 0.86969 0.65902 0.41388
 C162 C 0.59697 0.37145 -0.14112
 C163 C 0.58164 0.35567 -0.14126
 C164 C 0.58345 0.33798 -0.12564
 C165 C 0.60060 0.33630 -0.10953
 C166 C 0.61572 0.35224 -0.10872
 C167 C 0.61399 0.36981 -0.12469
 C168 C 0.59571 0.38873 -0.15731
 C169 C 0.61145 0.40421 -0.15751
 C170 C 0.62806 0.40268 -0.14075
 C171 C 0.62930 0.38573 -0.12424
 C172 C 0.64567 0.38446 -0.10730
 C173 C 0.64723 0.36728 -0.09098
 C174 C 0.63242 0.35102 -0.09207
 H175 H 0.56854 0.35692 -0.15384
 H176 H 0.60192 0.32279 -0.09731
 H177 H 0.58282 0.38980 -0.17015
 H178 H 0.64006 0.41473 -0.14052
 H179 H 0.65724 0.39689 -0.10688
 H180 H 0.63353 0.33767 -0.07961
 C181 C -0.02516 0.27679 0.13278
 N182 N -0.02143 0.29638 0.14046
 N183 N -0.03699 0.31157 0.13957
 C184 C -0.05677 0.30780 0.13070
 N185 N -0.06041 0.28822 0.12289
 N186 N -0.04494 0.27297 0.12404
 C187 C -0.00813 0.25997 0.13384
 N188 N -0.01329 0.23938 0.13259
 N189 N 0.00211 0.22405 0.13343
 C190 C 0.02326 0.22876 0.13527
 N191 N 0.02845 0.24937 0.13643
 N192 N 0.01301 0.26469 0.13587
 C193 C 0.04017 0.21182 0.13566
 N194 N 0.06106 0.21610 0.13044
 N195 N 0.07623 0.20056 0.13007
 C196 C 0.07113 0.18020 0.13520
 N197 N 0.05026 0.17599 0.14065
 N198 N 0.03505 0.19149 0.14075
 C199 C 0.52499 0.72951 0.62634
 N200 N 0.51980 0.70907 0.63073
 N201 N 0.53486 0.69349 0.62957
 C202 C 0.55562 0.69776 0.62376
 N203 N 0.56081 0.71819 0.61930
 N204 N 0.54578 0.73379 0.62067
 C205 C 0.50831 0.74662 0.62744
 N206 N 0.51388 0.76717 0.62770
 N207 N 0.49868 0.78266 0.62859
 C208 C 0.47737 0.77817 0.62904
 N209 N 0.47181 0.75763 0.62871
 N210 N 0.48701 0.74213 0.62803
 C211 C 0.46056 0.79520 0.62964
 N212 N 0.43965 0.79116 0.62499
 N213 N 0.42437 0.80659 0.62529
 C214 C 0.42937 0.82662 0.63045
 N215 N 0.45031 0.83061 0.63523
 N216 N 0.46563 0.81521 0.63472
 C217 C 1.03549 0.76218 0.36676
 N218 N 1.04809 0.76352 0.38601
 N219 N 1.06374 0.77742 0.38632
 C220 C 1.06723 0.79064 0.36748
 N221 N 1.05458 0.78930 0.34823
 N222 N 1.03906 0.77527 0.34784
 C223 C 1.01814 0.74698 0.36651
 N224 N 1.00860 0.74232 0.34605
 N225 N 0.99282 0.72855 0.34587
 C226 C 0.98588 0.71910 0.36617
 N227 N 0.99537 0.72382 0.38664
 N228 N 1.01128 0.73744 0.38679
 C229 C 0.96839 0.70405 0.36602
 N230 N 0.95819 0.69823 0.38627
 N231 N 0.94226 0.68463 0.38613
 C232 C 0.93606 0.67618 0.36578
 N233 N 0.94636 0.68196 0.34554
 N234 N 0.96215 0.69572 0.34564
 C235 C 0.47591 0.22731 -0.12710
 N236 N 0.45519 0.23180 -0.12031
 N237 N 0.44057 0.21686 -0.11989
 C238 C 0.44607 0.19695 -0.12650
 N239 N 0.46675 0.19248 -0.13344
 N240 N 0.48144 0.20737 -0.13361
 C241 C 0.49203 0.24375 -0.12727
 N242 N 0.51354 0.23847 -0.12761
 N243 N 0.52814 0.25343 -0.12740
 C244 C 0.52176 0.27420 -0.12712
 N245 N 0.50026 0.27948 -0.12694
 N246 N 0.48566 0.26452 -0.12688
 C247 C 0.53781 0.29070 -0.12687
 N248 N 0.53205 0.31112 -0.13275
 N249 N 0.54659 0.32612 -0.13251
 C250 C 0.56738 0.32131 -0.12611
 N251 N 0.57310 0.30088 -0.12013
 N252 N 0.55862 0.28583 -0.12062
 C253 C 0.11562 -0.02984 0.27181
 N254 N 0.11897 -0.02654 0.29488
 N255 N 0.12089 -0.04282 0.31031
 C256 C 0.11930 -0.06297 0.30326
 N257 N 0.11578 -0.06627 0.28022
 N258 N 0.11409 -0.04999 0.26475
 C259 C 0.11411 -0.01189 0.25477
 N260 N 0.11642 -0.01499 0.23143
 N261 N 0.11569 0.00139 0.21604
 C262 C 0.11239 0.02144 0.22343
 N263 N 0.10988 0.02451 0.24676
 N264 N 0.11083 0.00816 0.26215
 C265 C 0.11212 0.03956 0.20660
 N266 N 0.10443 0.05890 0.21307
 N267 N 0.10473 0.07549 0.19802
 C268 C 0.11292 0.07344 0.17600
 N269 N 0.12060 0.05407 0.16956
 N270 N 0.12011 0.03742 0.18454
 C271 C 0.61339 0.51762 -0.28031
 N272 N 0.59560 0.53004 -0.28585
 N273 N 0.59673 0.54556 -0.30223
 C274 C 0.61564 0.54911 -0.31377
 N275 N 0.63334 0.53655 -0.30832
 N276 N 0.63226 0.52117 -0.29184
 C277 C 0.61253 0.50082 -0.26191
 N278 N 0.63114 0.49155 -0.25334
 N279 N 0.63060 0.47640 -0.23654
 C280 C 0.61142 0.46982 -0.22780
 N281 N 0.59276 0.47901 -0.23643
 N282 N 0.59330 0.49431 -0.25312
 C283 C 0.61109 0.45304 -0.20934
 N284 N 0.59254 0.44321 -0.20358
 N285 N 0.59257 0.42771 -0.18708
 C286 C 0.61111 0.42162 -0.17558
 N287 N 0.62959 0.43159 -0.18132
 N288 N 0.62960 0.44693 -0.19791
 C289 C 0.38774 1.02223 0.77634
 N290 N 0.36957 1.02636 0.78913
 N291 N 0.36919 1.04121 0.80509
 C292 C 0.38692 1.05261 0.80877
 N293 N 0.40515 1.04853 0.79598
 N294 N 0.40558 1.03353 0.78010
 C295 C 0.38776 1.00595 0.75861
 N296 N 0.40648 0.99876 0.74849
 N297 N 0.40621 0.98382 0.73257
 C298 C 0.38721 0.97570 0.72609
 N299 N 0.36854 0.98299 0.73613
 N300 N 0.36882 0.99777 0.75215
 C301 C 0.38662 0.95918 0.70869
 N302 N 0.36739 0.95379 0.69975
 N303 N 0.36655 0.93852 0.68436
 C304 C 0.38487 0.92791 0.67739
 N305 N 0.40414 0.93332 0.68636
 N306 N 0.40501 0.94872 0.70165
 C307 C 0.88196 0.49015 0.21437
 N308 N 0.90000 0.47799 0.20982
 N309 N 0.89918 0.46201 0.19527
 C310 C 0.88034 0.45773 0.18461
 N311 N 0.86237 0.47001 0.18902
 N312 N 0.86315 0.48588 0.20369
 C313 C 0.88258 0.50731 0.23100
 N314 N 0.86388 0.51661 0.23891
 N315 N 0.86430 0.53182 0.25444
 C316 C 0.88343 0.53843 0.26248
 N317 N 0.90215 0.52924 0.25445
 N318 N 0.90173 0.51389 0.23905
 C319 C 0.88378 0.55495 0.27990
 N320 N 0.90254 0.56415 0.28519
 N321 N 0.90279 0.57899 0.30120
 C322 C 0.88434 0.58506 0.31266
 N323 N 0.86561 0.57579 0.30734
 N324 N 0.86532 0.56109 0.29121
 C325 C 0.26657 0.13351 -0.02355
 N326 N 0.27155 0.11583 -0.03559
 N327 N 0.28742 0.11572 -0.05152
 C328 C 0.29899 0.13325 -0.05590
 N329 N 0.29404 0.15095 -0.04386
 N330 N 0.27806 0.15110 -0.02802
 C331 C 0.24925 0.13337 -0.00580
 N332 N 0.24206 0.15156 0.00413
 N333 N 0.22637 0.15127 0.02031
 C334 C 0.21743 0.13276 0.02723
 N335 N 0.22466 0.11460 0.01733
 N336 N 0.24023 0.11490 0.00107
 C337 C 0.20028 0.13227 0.04519
 N338 N 0.19376 0.11349 0.05447
 N339 N 0.17823 0.11292 0.07077
 C340 C 0.16852 0.13108 0.07835
 N341 N 0.17503 0.14987 0.06898
 N342 N 0.19067 0.15046 0.05276
 C343 C 0.73853 0.63329 0.52178
 N344 N 0.73337 0.61487 0.53302
 N345 N 0.71741 0.61450 0.54883
 C346 C 0.70591 0.63250 0.55386
 N347 N 0.71104 0.65095 0.54263
 N348 N 0.72713 0.65135 0.52693
 C349 C 0.75589 0.63348 0.50405
 N350 N 0.76378 0.65199 0.49555
 N351 N 0.77944 0.65201 0.47934
 C352 C 0.78762 0.63351 0.47092
 N353 N 0.77967 0.61503 0.47939
 N354 N 0.76416 0.61501 0.49572
 C355 C 0.80462 0.63340 0.45278
 N356 N 0.80965 0.61545 0.44125
 N357 N 0.82493 0.61526 0.42466
 C358 C 0.83591 0.63296 0.41908
 N359 N 0.83093 0.65090 0.43074
 N360 N 0.81551 0.65114 0.44721
 C361 C 0.75891 0.36713 0.03135
 N362 N 0.76304 0.38552 0.04171
 N363 N 0.77881 0.38625 0.05742
 C364 C 0.79113 0.36865 0.06325
 N365 N 0.78699 0.35022 0.05294
 N366 N 0.77110 0.34946 0.03731
 C367 C 0.74191 0.36666 0.01353
 N368 N 0.73551 0.34804 0.00523
 N369 N 0.72028 0.34783 -0.01121
 C370 C 0.71105 0.36623 -0.02005
 N371 N 0.71749 0.38482 -0.01176
 N372 N 0.73258 0.38502 0.00477
 C373 C 0.69456 0.36625 -0.03847
 N374 N 0.68828 0.38464 -0.04986
 N375 N 0.67338 0.38487 -0.06661
 C376 C 0.66404 0.36674 -0.07257
 N377 N 0.67028 0.34832 -0.06108
 N378 N 0.68533 0.34807 -0.04441
 C379 C 0.21985 0.86798 0.49498
 N380 N 0.21192 0.84925 0.48884
 N381 N 0.19680 0.84867 0.47235
 C382 C 0.18914 0.86679 0.46133
 N383 N 0.19700 0.88553 0.46753
 N384 N 0.21204 0.88612 0.48411
 C385 C 0.23711 0.86855 0.51249
 N386 N 0.24357 0.88730 0.52033
 N387 N 0.25971 0.88785 0.53565
 C388 C 0.27006 0.86969 0.54357
 N389 N 0.26357 0.85093 0.53577
 N390 N 0.24735 0.85037 0.52055
 C391 C 0.28836 0.87037 0.55979
 N392 N 0.30082 0.85269 0.56491
 N393 N 0.31782 0.85348 0.57905
 C394 C 0.32296 0.87195 0.58872
 N395 N 0.31035 0.88958 0.58369
 N396 N 0.29343 0.88883 0.56945
   
