data_POSCAR
  _audit_creation_date              2014-09-24
  _audit_creation_method            'ToBaCCo'
  _symmetry_space_group_name_H-M    'P1'
  _symmetry_Int_Tables_number       1
  _symmetry_cell_setting            triclinic
  loop_
  _symmetry_equiv_pos_as_xyz
 x,y,z
_cell_length_a 31.6309
_cell_length_b 31.6072
_cell_length_c 14.9984
_cell_angle_alpha 89.822200
_cell_angle_beta 90.107000
_cell_angle_gamma 119.953900
loop_
  _atom_site_label
  _atom_site_type_symbol
  _atom_site_fract_x
  _atom_site_fract_y
  _atom_site_fract_z
C1 C 0.50019 0.99905 0.45639
 C2 C 0.49872 0.99881 0.54700
 C3 C 0.47493 0.95269 0.59919
 C4 C 0.52104 1.04467 0.59956
 C5 C 0.52347 1.04509 0.40403
 C6 C 0.47841 0.95328 0.40369
 C7 C 0.43760 0.94439 0.65930
 C8 C 0.41606 0.90236 0.71211
 C9 C 0.43179 0.86815 0.70590
 C10 C 0.46898 0.87609 0.64570
 C11 C 0.49054 0.91825 0.59270
 C12 C 0.50595 1.07937 0.58903
 C13 C 0.52638 1.12144 0.64192
 C14 C 0.56181 1.12896 0.70589
 C15 C 0.57691 1.09450 0.71637
 C16 C 0.55656 1.05256 0.66376
 C17 C 0.57323 1.07969 0.41390
 C18 C 0.59481 1.12155 0.36009
 C19 C 0.56685 1.12895 0.29593
 C20 C 0.51727 1.09469 0.28640
 C21 C 0.49574 1.05296 0.33990
 C22 C 0.50786 0.94572 0.34337
 C23 C 0.48777 0.90437 0.28922
 C24 C 0.43793 0.87021 0.29432
 C25 C 0.40829 0.87727 0.35475
 C26 C 0.42841 0.91873 0.40917
 H27 H 0.42532 0.97068 0.66556
 H28 H 0.38763 0.89704 0.75873
 H29 H 0.48196 0.85026 0.64065
 H30 H 0.51989 0.92445 0.54785
 H31 H 0.47797 1.07351 0.54095
 H32 H 0.51410 1.14766 0.63385
 H33 H 0.56844 1.02609 0.67318
 H34 H 0.59539 1.07382 0.46194
 H35 H 0.63332 1.14765 0.36746
 H36 H 0.49538 1.09989 0.23663
 H37 H 0.45742 1.02654 0.33098
 H38 H 0.54640 0.97213 0.33781
 H39 H 0.51095 0.89945 0.24228
 H40 H 0.36957 0.85127 0.35861
 H41 H 0.40495 0.92438 0.45413
 H42 H 0.60403 1.09977 0.76605
 C43 C -0.00050 0.50068 0.45164
 C44 C -0.00037 0.49953 0.54228
 C45 C 0.04562 0.52205 0.59456
 C46 C -0.04622 0.47587 0.59490
 C47 C -0.04650 0.47842 0.39939
 C48 C 0.04535 0.52409 0.39900
 C49 C 0.08018 0.50680 0.58461
 C50 C 0.12217 0.52709 0.63785
 C51 C 0.12975 0.56255 0.70155
 C52 C 0.09549 0.57790 0.71130
 C53 C 0.05363 0.55769 0.65836
 C54 C -0.05412 0.43883 0.65584
 C55 C -0.09578 0.41759 0.70930
 C56 C -0.12993 0.43330 0.70290
 C57 C -0.12246 0.47012 0.64199
 C58 C -0.08070 0.49143 0.58827
 C59 C -0.05461 0.50746 0.33857
 C60 C -0.09643 0.48698 0.28545
 C61 C -0.13056 0.43710 0.29207
 C62 C -0.12284 0.40785 0.35294
 C63 C -0.08091 0.42841 0.40628
 C64 C 0.07994 0.57389 0.40879
 C65 C 0.12181 0.59550 0.35533
 C66 C 0.12925 0.56756 0.29155
 C67 C 0.09495 0.51797 0.28191
 C68 C 0.05320 0.49640 0.33509
 H69 H 0.07422 0.47873 0.53683
 H70 H 0.14825 0.51463 0.63033
 H71 H 0.10081 0.60505 0.76076
 H72 H 0.02726 0.56968 0.66734
 H73 H -0.02779 0.42659 0.66228
 H74 H -0.10099 0.38942 0.75664
 H75 H -0.07480 0.52056 0.54282
 H76 H -0.02833 0.54601 0.33196
 H77 H -0.10170 0.51000 0.23826
 H78 H -0.14871 0.36910 0.35817
 H79 H -0.07484 0.40525 0.45167
 H80 H 0.07409 0.59604 0.45664
 H81 H 0.14793 0.63402 0.36276
 H82 H 0.10017 0.49609 0.23241
 H83 H 0.02681 0.45806 0.32622
 H84 H -0.14843 0.48289 0.63716
 C85 C 0.49961 0.49957 0.45810
 C86 C 0.50074 0.50073 0.54873
 C87 C 0.47876 0.52474 0.60083
 C88 C 0.52389 0.47798 0.60157
 C89 C 0.52234 0.47633 0.40588
 C90 C 0.47573 0.52165 0.40542
 C91 C 0.50805 0.56197 0.66092
 C92 C 0.48787 0.58359 0.71392
 C93 C 0.43804 0.56805 0.70790
 C94 C 0.40854 0.53102 0.64775
 C95 C 0.42879 0.50936 0.59453
 C96 C 0.57365 0.49306 0.59220
 C97 C 0.59508 0.47266 0.64617
 C98 C 0.56694 0.43723 0.71012
 C99 C 0.51732 0.42202 0.71921
 C100 C 0.49599 0.44237 0.66548
 C101 C 0.50728 0.42654 0.41579
 C102 C 0.52775 0.40509 0.36247
 C103 C 0.56319 0.43321 0.29874
 C104 C 0.57838 0.48282 0.28909
 C105 C 0.55799 0.50422 0.34211
 C106 C 0.43853 0.49240 0.34518
 C107 C 0.41701 0.51270 0.29177
 C108 C 0.43259 0.56254 0.29754
 C109 C 0.46956 0.59200 0.35775
 C110 C 0.49116 0.57167 0.41141
 H111 H 0.54657 0.57407 0.66705
 H112 H 0.51106 0.61191 0.76056
 H113 H 0.36982 0.51830 0.64301
 H114 H 0.40546 0.48009 0.54971
 H115 H 0.59595 0.52111 0.54433
 H116 H 0.63362 0.48508 0.63893
 H117 H 0.45766 0.43053 0.67400
 H118 H 0.47921 0.40424 0.46355
 H119 H 0.51540 0.36654 0.36990
 H120 H 0.60551 0.50483 0.23960
 H121 H 0.56983 0.54257 0.33315
 H122 H 0.42639 0.45385 0.33925
 H123 H 0.38874 0.48966 0.24493
 H124 H 0.48226 0.63073 0.36205
 H125 H 0.52040 0.59499 0.45633
 H126 H 0.49516 0.39489 0.76870
 O127 O 0.40564 0.66869 -0.10377
 O128 O 0.40794 0.75169 -0.07818
 C129 C 0.37780 0.75900 -0.12198
 O130 O 0.33232 0.73624 -0.10756
 O131 O 0.24965 0.65577 -0.07951
 C132 C 0.24216 0.61760 -0.12070
 O133 O 0.26465 0.59477 -0.10380
 O134 O 0.34526 0.59302 -0.07449
 C135 C 0.38283 0.62314 -0.11793
 O136 O 0.40756 0.65612 0.07356
 O137 O 0.40539 0.73681 0.09908
 C138 C 0.38250 0.75947 0.11342
 O139 O 0.34514 0.75231 0.06951
 O140 O 0.26437 0.67009 0.09749
 C141 C 0.24175 0.62478 0.11411
 O142 O 0.24926 0.59411 0.07293
 O143 O 0.33178 0.59618 0.10231
 C144 C 0.37721 0.61882 0.11735
 Cr145 Cr 0.40387 0.70196 -0.00237
 Cr146 Cr 0.29925 0.70222 -0.00497
 Cr147 Cr 0.29913 0.59729 -0.00082
 O148 O 0.33406 0.66715 -0.00276
 O149 O 0.59313 0.34534 -0.07251
 O150 O 0.59491 0.26476 -0.10200
 C151 C 0.61742 0.24192 -0.11786
 O152 O 0.65529 0.24914 -0.07574
 O153 O 0.73565 0.33205 -0.10364
 C154 C 0.75846 0.37763 -0.11772
 O155 O 0.75147 0.40774 -0.07332
 O156 O 0.66889 0.40601 -0.09970
 C157 C 0.62348 0.38331 -0.11495
 O158 O 0.59533 0.33077 0.10431
 O159 O 0.59359 0.24848 0.07484
 C160 C 0.62418 0.24109 0.11704
 O161 O 0.66953 0.26379 0.10117
 O162 O 0.75195 0.34453 0.07329
 C163 C 0.75911 0.38171 0.11758
 O164 O 0.73614 0.40437 0.10393
 O165 O 0.65558 0.40674 0.07751
 C166 C 0.61794 0.37611 0.12015
 Cr167 Cr 0.59699 0.29872 0.00113
 Cr168 Cr 0.70173 0.29875 -0.00119
 Cr169 Cr 0.70165 0.40347 0.00207
 O170 O 0.66677 0.33364 0.00066
 C171 C 0.41344 0.83046 -0.24038
 C172 C 0.39679 0.79694 -0.18808
 C173 C 0.17120 0.58181 -0.23962
 C174 C 0.20447 0.59817 -0.18703
 C175 C 0.41825 0.58730 -0.23602
 C176 C 0.40166 0.60404 -0.18365
 C177 C 0.58135 0.17062 -0.23587
 C178 C 0.59788 0.20407 -0.18376
 C179 C 0.82900 0.41327 -0.23739
 C180 C 0.79597 0.39671 -0.18433
 C181 C 0.58774 0.41893 -0.23358
 C182 C 0.60479 0.40261 -0.18095
 C183 C 0.83036 0.41706 0.23596
 C184 C 0.79702 0.40038 0.18350
 C185 C 0.58893 0.17020 0.23646
 C186 C 0.60582 0.20337 0.18349
 C187 C 0.58251 0.41123 0.23964
 C188 C 0.59879 0.39441 0.18680
 C189 C 0.17066 0.58965 0.23267
 C190 C 0.20395 0.60652 0.18017
 C191 C 0.41721 0.82955 0.23377
 C192 C 0.40093 0.79682 0.18022
 C193 C 0.41240 0.58351 0.23765
 C194 C 0.39590 0.60006 0.18437
   
