data_POSCAR
  _audit_creation_date              2014-09-24
  _audit_creation_method            'ToBaCCo'
  _symmetry_space_group_name_H-M    'P1'
  _symmetry_Int_Tables_number       1
  _symmetry_cell_setting            triclinic
  loop_
  _symmetry_equiv_pos_as_xyz
 x,y,z
_cell_length_a 56.5482
_cell_length_b 57.2752
_cell_length_c 56.8303
_cell_angle_alpha 90.006500
_cell_angle_beta 90.156300
_cell_angle_gamma 89.894900
loop_
  _atom_site_label
  _atom_site_type_symbol
  _atom_site_fract_x
  _atom_site_fract_y
  _atom_site_fract_z
N1 N 0.27185 0.22978 0.20624
 N2 N 0.26048 0.24753 0.19680
 C3 C 0.27321 0.25592 0.17866
 C4 C 0.29345 0.24265 0.17675
 C5 C 0.29215 0.22624 0.19442
 H6 H 0.26832 0.27071 0.16785
 H7 H 0.30511 0.21293 0.19852
 Cu8 Cu 0.23054 0.25859 0.20944
 Cu9 Cu 0.25982 0.21302 0.23345
 Cu10 Cu 0.20759 0.23319 0.25779
 N11 N 0.20187 0.27022 0.22426
 N12 N 0.19297 0.26027 0.24311
 C13 C 0.17384 0.27241 0.25017
 C14 C 0.17070 0.29084 0.23489
 C15 C 0.18871 0.28908 0.21871
 H16 H 0.16340 0.26853 0.26560
 H17 H 0.19231 0.30102 0.20442
 N18 N 0.22492 0.20600 0.27021
 N19 N 0.24489 0.19833 0.26098
 C20 C 0.25275 0.18004 0.27374
 C21 C 0.23694 0.17615 0.29170
 C22 C 0.21955 0.19281 0.28908
 H23 H 0.26894 0.17050 0.27050
 H24 H 0.20438 0.19534 0.30035
 H25 H 0.22452 0.22068 0.22812
 H26 H 0.24162 0.24130 0.24712
 N27 N 0.72684 -0.23055 0.20528
 N28 N 0.73998 -0.24635 0.19471
 C29 C 0.72796 -0.25517 0.17623
 C30 C 0.70625 -0.24420 0.17535
 C31 C 0.70601 -0.22872 0.19391
 H32 H 0.73447 -0.26856 0.16447
 H33 H 0.69175 -0.21709 0.19882
 Cu34 Cu 0.77142 -0.25402 0.20618
 Cu35 Cu 0.73766 -0.21369 0.23306
 Cu36 Cu 0.79022 -0.23249 0.25808
 N37 N 0.79835 -0.26737 0.22264
 N38 N 0.80571 -0.25889 0.24289
 C39 C 0.82407 -0.27178 0.25070
 C40 C 0.82829 -0.28911 0.23440
 C41 C 0.81171 -0.28598 0.21685
 H42 H 0.83326 -0.26909 0.26719
 H43 H 0.80920 -0.29670 0.20137
 N44 N 0.77177 -0.20606 0.27065
 N45 N 0.75167 -0.19892 0.26114
 C46 C 0.74304 -0.18104 0.27395
 C47 C 0.75848 -0.17686 0.29225
 C48 C 0.77646 -0.19291 0.28976
 H49 H 0.72663 -0.17194 0.27046
 H50 H 0.79161 -0.19503 0.30122
 H51 H 0.77380 -0.21799 0.22898
 H52 H 0.75760 -0.24179 0.24467
 N53 N 0.72534 0.23263 0.78940
 N54 N 0.73612 0.25160 0.79684
 C55 C 0.72421 0.26037 0.81538
 C56 C 0.70512 0.24607 0.81962
 C57 C 0.70626 0.22867 0.80292
 H58 H 0.72885 0.27605 0.82491
 H59 H 0.69398 0.21439 0.80064
 Cu60 Cu 0.76428 0.26320 0.78116
 Cu61 Cu 0.73645 0.21482 0.76239
 Cu62 Cu 0.78672 0.23519 0.73425
 N63 N 0.79243 0.27447 0.76521
 N64 N 0.80117 0.26342 0.74687
 C65 C 0.82017 0.27511 0.73887
 C66 C 0.82336 0.29439 0.75302
 C67 C 0.80557 0.29361 0.76951
 H68 H 0.83060 0.27018 0.72373
 H69 H 0.80229 0.30620 0.78331
 N70 N 0.76959 0.20697 0.72412
 N71 N 0.75041 0.19923 0.73480
 C72 C 0.74242 0.18019 0.72332
 C73 C 0.75733 0.17587 0.70470
 C74 C 0.77430 0.19306 0.70559
 H75 H 0.72672 0.17045 0.72784
 H76 H 0.78870 0.19547 0.69335
 H77 H 0.77155 0.22426 0.76541
 H78 H 0.75271 0.24241 0.74550
 N79 N 0.27334 -0.23316 0.78879
 N80 N 0.26270 -0.25208 0.79649
 C81 C 0.27492 -0.26071 0.81495
 C82 C 0.29409 -0.24639 0.81887
 C83 C 0.29266 -0.22911 0.80206
 H84 H 0.27043 -0.27631 0.82467
 H85 H 0.30489 -0.21483 0.79953
 Cu86 Cu 0.23427 -0.26372 0.78117
 Cu87 Cu 0.26169 -0.21548 0.76183
 Cu88 Cu 0.21078 -0.23599 0.73458
 N89 N 0.20566 -0.27503 0.76593
 N90 N 0.19656 -0.26408 0.74765
 C91 C 0.17734 -0.27576 0.74006
 C92 C 0.17438 -0.29491 0.75441
 C93 C 0.19253 -0.29407 0.77060
 H94 H 0.16662 -0.27093 0.72503
 H95 H 0.19610 -0.30659 0.78442
 N96 N 0.22774 -0.20787 0.72399
 N97 N 0.24714 -0.20006 0.73433
 C98 C 0.25477 -0.18100 0.72271
 C99 C 0.23941 -0.17676 0.70435
 C100 C 0.22254 -0.19400 0.70554
 H101 H 0.27049 -0.17114 0.72700
 H102 H 0.20782 -0.19642 0.69361
 H103 H 0.22663 -0.22486 0.76538
 H104 H 0.24503 -0.24307 0.74525
 N105 N 0.73094 -0.22452 0.79929
 N106 N 0.74089 -0.24364 0.80754
 C107 C 0.72868 -0.25101 0.82646
 C108 C 0.71028 -0.23563 0.83014
 C109 C 0.71211 -0.21907 0.81266
 H110 H 0.73244 -0.26665 0.83646
 H111 H 0.70027 -0.20454 0.80956
 Cu112 Cu 0.76807 -0.25751 0.79191
 Cu113 Cu 0.74234 -0.20882 0.77110
 Cu114 Cu 0.79094 -0.23340 0.74322
 N115 N 0.79541 -0.27113 0.77634
 N116 N 0.80426 -0.26157 0.75724
 C117 C 0.82259 -0.27456 0.74965
 C118 C 0.82524 -0.29312 0.76485
 C119 C 0.80781 -0.29058 0.78155
 H120 H 0.83295 -0.27097 0.73409
 H121 H 0.80427 -0.30219 0.79613
 N122 N 0.77498 -0.20494 0.73178
 N123 N 0.75649 -0.19556 0.74239
 C124 C 0.74926 -0.17676 0.73001
 C125 C 0.76394 -0.17433 0.71087
 C126 C 0.77999 -0.19236 0.71239
 H127 H 0.73422 -0.16591 0.73429
 H128 H 0.79397 -0.19623 0.70003
 H129 H 0.75684 -0.23805 0.75539
 H130 H 0.77699 -0.21993 0.77392
 N131 N 0.27085 0.22611 0.79772
 N132 N 0.26232 0.24649 0.80423
 C133 C 0.27449 0.25416 0.82312
 C134 C 0.29138 0.23766 0.82860
 C135 C 0.28873 0.22013 0.81221
 H136 H 0.27169 0.27072 0.83184
 H137 H 0.29945 0.20456 0.81055
 Cu138 Cu 0.23709 0.26183 0.78681
 Cu139 Cu 0.25917 0.20969 0.77011
 Cu140 Cu 0.21038 0.23342 0.74206
 N141 N 0.20773 0.27298 0.77294
 N142 N 0.19732 0.26189 0.75550
 C143 C 0.17786 0.27384 0.74892
 C144 C 0.17610 0.29331 0.76307
 C145 C 0.19524 0.29234 0.77809
 H146 H 0.16614 0.26900 0.73466
 H147 H 0.19989 0.30497 0.79147
 N148 N 0.22620 0.20475 0.73114
 N149 N 0.24483 0.19568 0.74187
 C150 C 0.25224 0.17685 0.72971
 C151 C 0.23753 0.17405 0.71058
 C152 C 0.22126 0.19192 0.71188
 H153 H 0.26756 0.16635 0.73402
 H154 H 0.20733 0.19565 0.69935
 H155 H 0.24526 0.23801 0.75210
 H156 H 0.22535 0.22315 0.77366
 N157 N 0.26791 -0.22391 0.20418
 N158 N 0.25664 -0.24218 0.19579
 C159 C 0.26787 -0.24981 0.17635
 C160 C 0.28699 -0.23544 0.17247
 C161 C 0.28662 -0.21924 0.19037
 H162 H 0.26296 -0.26503 0.16619
 H163 H 0.29941 -0.20556 0.19350
 Cu164 Cu 0.22923 -0.25521 0.21170
 Cu165 Cu 0.25841 -0.20841 0.23306
 Cu166 Cu 0.21132 -0.23227 0.26340
 N167 N 0.20354 -0.26885 0.22977
 N168 N 0.19667 -0.25992 0.24996
 C169 C 0.17911 -0.27308 0.25885
 C170 C 0.17488 -0.29111 0.24336
 C171 C 0.19060 -0.28804 0.22515
 H172 H 0.17029 -0.26996 0.27542
 H173 H 0.19263 -0.29915 0.20989
 N174 N 0.22834 -0.20428 0.27421
 N175 N 0.24628 -0.19513 0.26259
 C176 C 0.25441 -0.17646 0.27454
 C177 C 0.24091 -0.17387 0.29449
 C178 C 0.22458 -0.19167 0.29387
 H179 H 0.26919 -0.16571 0.26933
 H180 H 0.21118 -0.19526 0.30690
 H181 H 0.24402 -0.23807 0.24814
 H182 H 0.22322 -0.21817 0.23216
 N183 N 0.73497 0.22343 0.20492
 N184 N 0.74525 0.24241 0.19690
 C185 C 0.73332 0.25004 0.17781
 C186 C 0.71479 0.23495 0.17378
 C187 C 0.71623 0.21832 0.19122
 H188 H 0.73737 0.26569 0.16799
 H189 H 0.70415 0.20398 0.19411
 Cu190 Cu 0.77241 0.25611 0.21280
 Cu191 Cu 0.74576 0.20759 0.23326
 Cu192 Cu 0.79283 0.23238 0.26322
 N193 N 0.79826 0.27013 0.23049
 N194 N 0.80614 0.26083 0.25017
 C195 C 0.82361 0.27426 0.25893
 C196 C 0.82671 0.29286 0.24390
 C197 C 0.81043 0.28985 0.22608
 H198 H 0.83314 0.27090 0.27511
 H199 H 0.80754 0.30130 0.21122
 N200 N 0.77709 0.20358 0.27369
 N201 N 0.75916 0.19408 0.26224
 C202 C 0.75193 0.17497 0.27402
 C203 C 0.76603 0.17245 0.29365
 C204 C 0.78175 0.19076 0.29304
 H205 H 0.73728 0.16393 0.26897
 H206 H 0.79527 0.19462 0.30594
 H207 H 0.75943 0.23725 0.24898
 H208 H 0.78048 0.21871 0.23185
 C209 C 0.25494 -0.00937 0.50076
 C210 C 0.25447 0.01439 0.50032
 C211 C 0.25338 0.02770 0.47791
 C212 C 0.25411 0.02850 0.52225
 C213 C 0.25425 -0.02271 0.52315
 C214 C 0.25523 -0.02353 0.47887
 C215 C 0.27037 0.04496 0.47341
 C216 C 0.26891 0.05858 0.45308
 C217 C 0.25036 0.05521 0.43709
 C218 C 0.23336 0.03799 0.44142
 C219 C 0.23480 0.02434 0.46178
 C220 C 0.27182 0.02614 0.53951
 C221 C 0.27114 0.03981 0.55992
 C222 C 0.25289 0.05606 0.56313
 C223 C 0.23535 0.05860 0.54590
 C224 C 0.23599 0.04497 0.52557
 C225 C 0.23535 -0.02014 0.53896
 C226 C 0.23422 -0.03399 0.55921
 C227 C 0.25188 -0.05060 0.56372
 C228 C 0.27078 -0.05312 0.54808
 C229 C 0.27193 -0.03931 0.52787
 C230 C 0.23775 -0.04058 0.47545
 C231 C 0.23789 -0.05452 0.45532
 C232 C 0.25556 -0.05169 0.43840
 C233 C 0.27317 -0.03481 0.44168
 C234 C 0.27306 -0.02081 0.46189
 H235 H 0.28469 0.04795 0.48574
 H236 H 0.28207 0.07195 0.44998
 H237 H 0.21881 0.03538 0.42925
 H238 H 0.22123 0.01146 0.46519
 H239 H 0.28618 0.01384 0.53709
 H240 H 0.28488 0.03781 0.57309
 H241 H 0.22223 0.04713 0.51244
 H242 H 0.22127 -0.00779 0.53537
 H243 H 0.21940 -0.03205 0.57109
 H244 H 0.28445 -0.06602 0.55132
 H245 H 0.28650 -0.04168 0.51577
 H246 H 0.22393 -0.04303 0.48837
 H247 H 0.22424 -0.06758 0.45300
 H248 H 0.28701 -0.03258 0.42874
 H249 H 0.28694 -0.00804 0.46440
 H250 H 0.22121 0.07119 0.54817
 C251 C 0.74481 0.00902 0.50014
 C252 C 0.74481 -0.01473 0.50083
 C253 C 0.74599 -0.02777 0.52338
 C254 C 0.74461 -0.02907 0.47904
 C255 C 0.74602 0.02209 0.47762
 C256 C 0.74469 0.02336 0.52192
 C257 C 0.76495 -0.02457 0.53909
 C258 C 0.76648 -0.03794 0.55964
 C259 C 0.74918 -0.05470 0.56456
 C260 C 0.73023 -0.05789 0.54900
 C261 C 0.72869 -0.04455 0.52847
 C262 C 0.76244 -0.04580 0.47558
 C263 C 0.76246 -0.05973 0.45543
 C264 C 0.74458 -0.05723 0.43855
 C265 C 0.72663 -0.04068 0.44191
 C266 C 0.72659 -0.02668 0.46211
 C267 C 0.72875 0.03899 0.47248
 C268 C 0.73048 0.05257 0.45215
 C269 C 0.74958 0.04952 0.43682
 C270 C 0.76680 0.03259 0.44175
 C271 C 0.76507 0.01896 0.46210
 C272 C 0.72666 0.02113 0.53876
 C273 C 0.72674 0.03518 0.55894
 C274 C 0.74476 0.05161 0.56235
 C275 C 0.76267 0.05392 0.54558
 C276 C 0.76260 0.03995 0.52546
 H277 H 0.77873 -0.01206 0.53522
 H278 H 0.78133 -0.03548 0.57146
 H279 H 0.71683 -0.07090 0.55257
 H280 H 0.71406 -0.04739 0.51647
 H281 H 0.77644 -0.04797 0.48845
 H282 H 0.77641 -0.07251 0.45305
 H283 H 0.71247 -0.01414 0.46465
 H284 H 0.71406 0.04178 0.48434
 H285 H 0.71714 0.06570 0.44857
 H286 H 0.78176 0.03024 0.43012
 H287 H 0.77883 0.00636 0.46602
 H288 H 0.71248 0.00871 0.53616
 H289 H 0.71271 0.03336 0.57174
 H290 H 0.77664 0.06662 0.54799
 H291 H 0.77661 0.04199 0.51266
 H292 H 0.71263 -0.03870 0.42901
 C293 C 0.50185 0.25769 -0.00996
 C294 C 0.50307 0.25761 0.01397
 C295 C 0.52602 0.25625 0.02669
 C296 C 0.48148 0.25789 0.02883
 C297 C 0.47892 0.25642 -0.02269
 C298 C 0.52340 0.25815 -0.02487
 C299 C 0.54178 0.23765 0.02277
 C300 C 0.56264 0.23585 0.03593
 C301 C 0.56785 0.25252 0.05321
 C302 C 0.55224 0.27111 0.05711
 C303 C 0.53141 0.27293 0.04398
 C304 C 0.47840 0.24048 0.04593
 C305 C 0.45835 0.24046 0.06020
 C306 C 0.44119 0.25791 0.05766
 C307 C 0.44420 0.27549 0.04079
 C308 C 0.46432 0.27555 0.02649
 C309 C 0.47343 0.27330 -0.03976
 C310 C 0.45265 0.27157 -0.05297
 C311 C 0.43720 0.25286 -0.04936
 C312 C 0.44248 0.23599 -0.03229
 C313 C 0.46329 0.23770 -0.01905
 C314 C 0.54039 0.27591 -0.02253
 C315 C 0.56024 0.27626 -0.03720
 C316 C 0.56315 0.25897 -0.05441
 C317 C 0.54622 0.24136 -0.05686
 C318 C 0.52645 0.24097 -0.04224
 H319 H 0.53769 0.22431 0.00988
 H320 H 0.57449 0.22127 0.03293
 H321 H 0.55602 0.28402 0.07055
 H322 H 0.51937 0.28726 0.04740
 H323 H 0.49145 0.22678 0.04809
 H324 H 0.45623 0.22682 0.07323
 H325 H 0.46656 0.28937 0.01368
 H326 H 0.48537 0.28772 -0.04297
 H327 H 0.44882 0.28462 -0.06625
 H328 H 0.43074 0.22132 -0.02952
 H329 H 0.46746 0.22423 -0.00633
 H330 H 0.53815 0.28955 -0.00952
 H331 H 0.57318 0.29005 -0.03525
 H332 H 0.54826 0.22794 -0.07015
 H333 H 0.51351 0.22721 -0.04441
 H334 H 0.43108 0.28915 0.03877
 C335 C 0.49753 0.74022 0.01278
 C336 C 0.49881 0.74050 -0.01114
 C337 C 0.52178 0.74207 -0.02366
 C338 C 0.47728 0.74027 -0.02621
 C339 C 0.47456 0.74157 0.02533
 C340 C 0.51910 0.73965 0.02779
 C341 C 0.53734 0.76075 -0.01952
 C342 C 0.55817 0.76281 -0.03256
 C343 C 0.56355 0.74631 -0.04995
 C344 C 0.54818 0.72761 -0.05405
 C345 C 0.52737 0.72554 -0.04104
 C346 C 0.47424 0.75771 -0.04333
 C347 C 0.45440 0.75764 -0.05797
 C348 C 0.43738 0.74008 -0.05580
 C349 C 0.44030 0.72252 -0.03887
 C350 C 0.46022 0.72256 -0.02417
 C351 C 0.46899 0.72473 0.04237
 C352 C 0.44811 0.72654 0.05534
 C353 C 0.43265 0.74527 0.05151
 C354 C 0.43803 0.76210 0.03447
 C355 C 0.45893 0.76031 0.02149
 C356 C 0.53625 0.72202 0.02525
 C357 C 0.55643 0.72189 0.03959
 C358 C 0.55953 0.73927 0.05667
 C359 C 0.54236 0.75667 0.05943
 C360 C 0.52224 0.75683 0.04515
 H361 H 0.53309 0.77396 -0.00656
 H362 H 0.56985 0.77745 -0.02939
 H363 H 0.55210 0.71484 -0.06756
 H364 H 0.51550 0.71115 -0.04463
 H365 H 0.48722 0.77147 -0.04525
 H366 H 0.45236 0.77127 -0.07105
 H367 H 0.46243 0.70872 -0.01136
 H368 H 0.48092 0.71029 0.04574
 H369 H 0.44421 0.71352 0.06860
 H370 H 0.42630 0.77679 0.03154
 H371 H 0.46315 0.77377 0.00880
 H372 H 0.53396 0.70838 0.01225
 H373 H 0.56955 0.70827 0.03738
 H374 H 0.54455 0.77016 0.07263
 H375 H 0.50921 0.77051 0.04746
 H376 H 0.42730 0.70877 -0.03714
 C377 C -0.01238 0.50229 0.25497
 C378 C 0.01168 0.50128 0.25489
 C379 C 0.02462 0.47873 0.25348
 C380 C 0.02645 0.52271 0.25534
 C381 C -0.02535 0.52482 0.25355
 C382 C -0.02713 0.48085 0.25559
 C383 C 0.04200 0.47342 0.27035
 C384 C 0.05516 0.45283 0.26862
 C385 C 0.05120 0.43740 0.24992
 C386 C 0.03388 0.44255 0.23303
 C387 C 0.02069 0.46316 0.23474
 C388 C 0.02396 0.53947 0.27326
 C389 C 0.03822 0.55943 0.27342
 C390 C 0.05516 0.56269 0.25579
 C391 C 0.05784 0.54595 0.23807
 C392 C 0.04364 0.52605 0.23788
 C393 C -0.02167 0.54029 0.23471
 C394 C -0.03502 0.56081 0.23291
 C395 C -0.05224 0.56594 0.24980
 C396 C -0.05591 0.55063 0.26863
 C397 C -0.04260 0.53014 0.27045
 C398 C -0.04450 0.47744 0.23822
 C399 C -0.05866 0.45751 0.23854
 C400 C -0.05575 0.44081 0.25628
 C401 C -0.03863 0.44417 0.27382
 C402 C -0.02443 0.46416 0.27354
 H403 H 0.04542 0.48529 0.28479
 H404 H 0.06862 0.44908 0.28169
 H405 H 0.03082 0.43083 0.21838
 H406 H 0.00773 0.46718 0.22128
 H407 H 0.01111 0.53702 0.28712
 H408 H 0.03609 0.57223 0.28729
 H409 H 0.04591 0.51330 0.22398
 H410 H -0.00881 0.53626 0.22122
 H411 H -0.03218 0.57244 0.21816
 H412 H -0.06929 0.55437 0.28172
 H413 H -0.04582 0.51833 0.28497
 H414 H -0.04694 0.49014 0.22430
 H415 H -0.07189 0.45512 0.22492
 H416 H -0.03632 0.43140 0.28770
 H417 H -0.01142 0.46667 0.28732
 H418 H 0.07094 0.54827 0.22439
 C419 C 0.01099 0.49956 0.74544
 C420 C -0.01308 0.49976 0.74536
 C421 C -0.02710 0.47787 0.74469
 C422 C -0.02678 0.52186 0.74672
 C423 C 0.02501 0.52146 0.74514
 C424 C 0.02471 0.47747 0.74666
 C425 C -0.02424 0.46149 0.72648
 C426 C -0.03810 0.44127 0.72591
 C427 C -0.05498 0.43733 0.74346
 C428 C -0.05790 0.45362 0.76158
 C429 C -0.04411 0.47379 0.76216
 C430 C -0.04402 0.52674 0.72958
 C431 C -0.05789 0.54688 0.73124
 C432 C -0.05479 0.56227 0.75013
 C433 C -0.03761 0.55753 0.76729
 C434 C -0.02371 0.53737 0.76564
 C435 C 0.04203 0.52531 0.76275
 C436 C 0.05579 0.54551 0.76252
 C437 C 0.05283 0.56204 0.74463
 C438 C 0.03595 0.55833 0.72694
 C439 C 0.02213 0.53808 0.72714
 C440 C 0.02169 0.46180 0.76544
 C441 C 0.03577 0.44176 0.76708
 C442 C 0.05305 0.43728 0.75005
 C443 C 0.05606 0.45280 0.73127
 C444 C 0.04203 0.47282 0.72963
 H445 H -0.01148 0.46451 0.71263
 H446 H -0.03580 0.42884 0.71173
 H447 H -0.07095 0.45078 0.77521
 H448 H -0.04664 0.48623 0.77629
 H449 H -0.04677 0.51489 0.71498
 H450 H -0.07121 0.55032 0.71794
 H451 H -0.01085 0.53366 0.77930
 H452 H 0.04459 0.51268 0.77671
 H453 H 0.06886 0.54817 0.77625
 H454 H 0.03363 0.57095 0.71292
 H455 H 0.00938 0.53523 0.71319
 H456 H 0.00877 0.46534 0.77903
 H457 H 0.03343 0.42996 0.78179
 H458 H 0.06946 0.44956 0.71807
 H459 H 0.04474 0.48480 0.71514
 H460 H -0.03521 0.56922 0.78209
 C461 C 0.34836 0.25056 0.13026
 C462 C 0.34874 0.23190 0.11087
 C463 C 0.36729 0.23404 0.09578
 C464 C 0.38365 0.25463 0.10153
 C465 C 0.39114 0.25084 0.12723
 C466 C 0.37261 0.24870 0.14232
 C467 C 0.34884 0.27399 0.11713
 C468 C 0.36742 0.27613 0.10201
 C469 C 0.32851 0.24806 0.14662
 C470 C 0.31241 0.24570 0.16028
 C471 C 0.40378 0.25663 0.08543
 C472 C 0.42066 0.25761 0.07255
 H473 H 0.33557 0.21823 0.10913
 H474 H 0.37000 0.22220 0.08110
 H475 H 0.40942 0.24995 0.13308
 H476 H 0.37500 0.24599 0.16109
 H477 H 0.33576 0.28768 0.11949
 H478 H 0.37025 0.29165 0.09143
 C479 C 0.65275 0.74675 0.12924
 C480 C 0.65954 0.74987 0.10329
 C481 C 0.64093 0.74763 0.08815
 C482 C 0.61737 0.74249 0.10046
 C483 C 0.61432 0.76230 0.11840
 C484 C 0.63289 0.76453 0.13350
 C485 C 0.64066 0.72280 0.13044
 C486 C 0.62205 0.72056 0.11530
 C487 C 0.67260 0.74945 0.14569
 C488 C 0.68858 0.75221 0.15951
 C489 C 0.59716 0.74042 0.08435
 C490 C 0.58019 0.73947 0.07150
 H491 H 0.67739 0.75348 0.09733
 H492 H 0.64284 0.74931 0.06922
 H493 H 0.59890 0.77359 0.11916
 H494 H 0.63337 0.77774 0.14720
 H495 H 0.64626 0.70882 0.14210
 H496 H 0.61170 0.70466 0.11399
 C497 C 0.65287 0.25348 -0.13087
 C498 C 0.64428 0.22987 -0.12146
 C499 C 0.62649 0.23172 -0.10547
 C500 C 0.61898 0.25699 -0.10044
 C501 C 0.61280 0.26733 -0.12461
 C502 C 0.63061 0.26548 -0.14061
 C503 C 0.65962 0.26761 -0.10889
 C504 C 0.64178 0.26946 -0.09287
 C505 C 0.67188 0.25126 -0.14824
 C506 C 0.68720 0.24905 -0.16278
 C507 C 0.59960 0.25864 -0.08342
 C508 C 0.58322 0.25922 -0.06991
 H509 H 0.65157 0.21316 -0.12685
 H510 H 0.61853 0.21658 -0.09717
 H511 H 0.59595 0.27547 -0.12878
 H512 H 0.62900 0.27201 -0.15848
 H513 H 0.67686 0.27548 -0.10616
 H514 H 0.64372 0.27893 -0.07643
 C515 C 0.34699 0.74635 -0.13197
 C516 C 0.33922 0.75045 -0.10643
 C517 C 0.35721 0.74853 -0.09051
 C518 C 0.38118 0.74271 -0.10171
 C519 C 0.38511 0.76184 -0.12020
 C520 C 0.36716 0.76375 -0.13609
 C521 C 0.35891 0.72223 -0.13186
 C522 C 0.37689 0.72032 -0.11594
 C523 C 0.32779 0.74860 -0.14924
 C524 C 0.31228 0.75077 -0.16368
 C525 C 0.40073 0.74093 -0.08477
 C526 C 0.41722 0.74015 -0.07129
 H527 H 0.32119 0.75446 -0.10130
 H528 H 0.35459 0.75090 -0.07175
 H529 H 0.40066 0.77292 -0.12076
 H530 H 0.36733 0.77647 -0.15025
 H531 H 0.35366 0.70792 -0.14324
 H532 H 0.38705 0.70437 -0.11369
 C533 C 0.12312 0.34482 0.24027
 C534 C 0.11573 0.35019 0.26568
 C535 C 0.10059 0.36864 0.26754
 C536 C 0.09433 0.37991 0.24382
 C537 C 0.08466 0.35987 0.22865
 C538 C 0.09981 0.34141 0.22679
 C539 C 0.13331 0.36781 0.23087
 C540 C 0.11819 0.38623 0.23274
 C541 C 0.13963 0.32515 0.23828
 C542 C 0.15361 0.30932 0.23670
 C543 C 0.07828 0.39995 0.24587
 C544 C 0.06564 0.41682 0.24765
 H545 H 0.12182 0.34035 0.28086
 H546 H 0.09371 0.37459 0.28432
 H547 H 0.06744 0.36015 0.22017
 H548 H 0.09557 0.32587 0.21670
 H549 H 0.15088 0.36946 0.22339
 H550 H 0.12280 0.40367 0.22685
 C551 C 0.12657 0.65329 0.74884
 C552 C 0.11969 0.64316 0.77286
 C553 C 0.10417 0.62507 0.77143
 C554 C 0.09701 0.61886 0.74612
 C555 C 0.12042 0.61432 0.73327
 C556 C 0.13594 0.63242 0.73470
 C557 C 0.10301 0.65982 0.73700
 C558 C 0.08745 0.64169 0.73557
 C559 C 0.14351 0.67258 0.75056
 C560 C 0.15785 0.68803 0.75227
 C561 C 0.08055 0.59914 0.74484
 C562 C 0.06759 0.58247 0.74440
 H563 H 0.12640 0.64966 0.78953
 H564 H 0.09758 0.61607 0.78689
 H565 H 0.12442 0.59832 0.72384
 H566 H 0.15325 0.63192 0.72649
 H567 H 0.09893 0.67713 0.73034
 H568 H 0.07004 0.64346 0.72768
 C569 C -0.12505 0.65785 0.23975
 C570 C -0.12307 0.64804 0.26481
 C571 C -0.10778 0.62972 0.26674
 C572 C -0.09595 0.62300 0.24341
 C573 C -0.08427 0.64554 0.23461
 C574 C -0.09958 0.66387 0.23268
 C575 C -0.13177 0.63685 0.22435
 C576 C -0.11649 0.61855 0.22628
 C577 C -0.14169 0.67743 0.23772
 C578 C -0.15567 0.69327 0.23612
 C579 C -0.07972 0.60310 0.24554
 C580 C -0.06690 0.58637 0.24741
 H581 H -0.13279 0.65490 0.27975
 H582 H -0.10441 0.62090 0.28332
 H583 H -0.06565 0.64697 0.23028
 H584 H -0.09407 0.68102 0.22671
 H585 H -0.14718 0.63642 0.21292
 H586 H -0.11880 0.60243 0.21649
 C587 C -0.12886 0.34616 0.74700
 C588 C -0.13035 0.35969 0.72372
 C589 C -0.11479 0.37779 0.72232
 C590 C -0.09927 0.38057 0.74434
 C591 C -0.08730 0.35672 0.74773
 C592 C -0.10287 0.33861 0.74913
 C593 C -0.13228 0.36465 0.76624
 C594 C -0.11674 0.38271 0.76484
 C595 C -0.14581 0.32689 0.74875
 C596 C -0.16013 0.31144 0.75060
 C597 C -0.08277 0.40027 0.74315
 C598 C -0.06977 0.41693 0.74289
 H599 H -0.14253 0.35540 0.70956
 H600 H -0.11365 0.38901 0.70697
 H601 H -0.06829 0.35427 0.74889
 H602 H -0.09720 0.32064 0.75148
 H603 H -0.14574 0.36364 0.77979
 H604 H -0.11691 0.39718 0.77719
 C605 C 0.24211 0.12855 0.34555
 C606 C 0.23165 0.13791 0.36860
 C607 C 0.23325 0.12259 0.38686
 C608 C 0.24515 0.09938 0.38031
 C609 C 0.26921 0.10626 0.36998
 C610 C 0.26762 0.12159 0.35171
 C611 C 0.22923 0.10539 0.34106
 C612 C 0.23083 0.09005 0.35934
 C613 C 0.24036 0.14521 0.32601
 C614 C 0.23884 0.15918 0.31021
 C615 C 0.24688 0.08306 0.40013
 C616 C 0.24839 0.07009 0.41678
 H617 H 0.22370 0.15508 0.37042
 H618 H 0.22666 0.12664 0.40432
 H619 H 0.28602 0.09965 0.37645
 H620 H 0.28306 0.12813 0.34253
 H621 H 0.21972 0.10139 0.32495
 H622 H 0.22269 0.07290 0.35889
 C623 C 0.75080 0.12643 0.65272
 C624 C 0.75678 0.13659 0.62848
 C625 C 0.75498 0.12084 0.61064
 C626 C 0.74735 0.09643 0.61873
 C627 C 0.72410 0.10030 0.63205
 C628 C 0.72591 0.11608 0.64994
 C629 C 0.76723 0.10525 0.65557
 C630 C 0.76543 0.08948 0.63770
 C631 C 0.75289 0.14363 0.67175
 C632 C 0.75483 0.15816 0.68698
 C633 C 0.74566 0.07972 0.59923
 C634 C 0.74487 0.06657 0.58268
 H635 H 0.76200 0.15460 0.62559
 H636 H 0.75864 0.12537 0.59246
 H637 H 0.70769 0.09140 0.62785
 H638 H 0.71104 0.12070 0.66107
 H639 H 0.77920 0.10284 0.67035
 H640 H 0.77584 0.07354 0.63716
 C641 C 0.24437 -0.12680 0.65278
 C642 C 0.22791 -0.10571 0.65610
 C643 C 0.22939 -0.08967 0.63843
 C644 C 0.24717 -0.09632 0.61920
 C645 C 0.23950 -0.12064 0.61082
 C646 C 0.23802 -0.13665 0.62846
 C647 C 0.26917 -0.11635 0.64990
 C648 C 0.27065 -0.10032 0.63224
 C649 C 0.24273 -0.14423 0.67160
 C650 C 0.24128 -0.15891 0.68672
 C651 C 0.24876 -0.07932 0.59997
 C652 C 0.25012 -0.06590 0.58370
 H653 H 0.21617 -0.10354 0.67103
 H654 H 0.21891 -0.07377 0.63822
 H655 H 0.23557 -0.12492 0.59262
 H656 H 0.23284 -0.15463 0.62536
 H657 H 0.28424 -0.12110 0.66078
 H658 H 0.28698 -0.09134 0.62799
 C659 C 0.75136 -0.12976 0.34632
 C660 C 0.76690 -0.13620 0.36753
 C661 C 0.76489 -0.12106 0.38589
 C662 C 0.74754 -0.10092 0.38127
 C663 C 0.72415 -0.11278 0.37456
 C664 C 0.72616 -0.12795 0.35617
 C665 C 0.75829 -0.10460 0.34012
 C666 C 0.75628 -0.08943 0.35850
 C667 C 0.75368 -0.14624 0.32669
 C668 C 0.75580 -0.16007 0.31084
 C669 C 0.74566 -0.08478 0.40124
 C670 C 0.74477 -0.07196 0.41804
 H671 H 0.77846 -0.15134 0.36810
 H672 H 0.77474 -0.12324 0.40217
 H673 H 0.70749 -0.10953 0.38343
 H674 H 0.71122 -0.13770 0.34929
 H675 H 0.76421 -0.09917 0.32281
 H676 H 0.76047 -0.07101 0.35694
 C677 C 0.65622 0.75813 -0.12215
 C678 C 0.65053 0.73268 -0.11591
 C679 C 0.63210 0.73039 -0.10070
 C680 C 0.62116 0.75377 -0.09321
 C681 C 0.61449 0.76602 -0.11632
 C682 C 0.63291 0.76831 -0.13152
 C683 C 0.66029 0.77030 -0.09841
 C684 C 0.64184 0.76801 -0.08318
 C685 C 0.67591 0.76053 -0.13874
 C686 C 0.69176 0.76236 -0.15275
 C687 C 0.60111 0.75125 -0.07708
 C688 C 0.58422 0.74905 -0.06439
 H689 H 0.66016 0.71777 -0.12281
 H690 H 0.62594 0.71352 -0.09457
 H691 H 0.59684 0.77237 -0.12038
 H692 H 0.63104 0.77662 -0.14860
 H693 H 0.67625 0.77986 -0.09395
 H694 H 0.64198 0.77560 -0.06567
 C695 C 0.34484 0.24306 -0.12269
 C696 C 0.33707 0.24892 -0.09750
 C697 C 0.35544 0.25080 -0.08201
 C698 C 0.37974 0.24663 -0.09327
 C699 C 0.38099 0.26403 -0.11376
 C700 C 0.36266 0.26216 -0.12922
 C701 C 0.35959 0.22066 -0.12041
 C702 C 0.37794 0.22253 -0.10494
 C703 C 0.32529 0.24106 -0.13957
 C704 C 0.30961 0.23947 -0.15388
 C705 C 0.39970 0.24870 -0.07688
 C706 C 0.41656 0.25052 -0.06400
 H707 H 0.31878 0.25139 -0.09229
 H708 H 0.35289 0.25487 -0.06353
 H709 H 0.39504 0.27674 -0.11592
 H710 H 0.36100 0.27326 -0.14462
 H711 H 0.35594 0.20470 -0.13007
 H712 H 0.39000 0.20819 -0.10135
 C713 C 0.34013 0.75705 0.12394
 C714 C 0.33743 0.73621 0.10715
 C715 C 0.35580 0.73379 0.09183
 C716 C 0.37503 0.75246 0.09483
 C717 C 0.38245 0.75095 0.12078
 C718 C 0.36412 0.75336 0.13606
 C719 C 0.34364 0.77830 0.10787
 C720 C 0.36200 0.77589 0.09256
 C721 C 0.32060 0.75966 0.14067
 C722 C 0.30502 0.76187 0.15493
 C723 C 0.39503 0.74988 0.07864
 C724 C 0.41194 0.74778 0.06594
 H725 H 0.32242 0.72442 0.10725
 H726 H 0.35652 0.71994 0.07881
 H727 H 0.40053 0.74821 0.12664
 H728 H 0.36651 0.75269 0.15502
 H729 H 0.33264 0.79385 0.10844
 H730 H 0.36673 0.78937 0.08000
 C731 C 0.66087 0.24159 0.12566
 C732 C 0.66845 0.24688 0.10028
 C733 C 0.64992 0.24906 0.08500
 C734 C 0.62568 0.24574 0.09663
 C735 C 0.62514 0.26345 0.11689
 C736 C 0.64363 0.26128 0.13214
 C737 C 0.64553 0.21958 0.12388
 C738 C 0.62703 0.22176 0.10862
 C739 C 0.68059 0.23924 0.14232
 C740 C 0.69640 0.23729 0.15646
 C741 C 0.60555 0.24809 0.08046
 C742 C 0.58858 0.25008 0.06773
 H743 H 0.68672 0.24874 0.09480
 H744 H 0.65232 0.25279 0.06643
 H745 H 0.61145 0.27659 0.11904
 H746 H 0.64578 0.27255 0.14735
 H747 H 0.64892 0.20367 0.13371
 H748 H 0.61458 0.20771 0.10539
 C749 C -0.12844 0.65357 0.75946
 C750 C -0.12369 0.64108 0.78290
 C751 C -0.10835 0.62280 0.78106
 C752 C -0.09925 0.61880 0.75595
 C753 C -0.08857 0.64227 0.74848
 C754 C -0.10393 0.66056 0.75032
 C755 C -0.13694 0.63434 0.74265
 C756 C -0.12159 0.61607 0.74080
 C757 C -0.14507 0.67315 0.76145
 C758 C -0.15894 0.68908 0.76307
 C759 C -0.08290 0.59900 0.75396
 C760 C -0.06985 0.58242 0.75226
 H761 H -0.13168 0.64614 0.79949
 H762 H -0.10318 0.61222 0.79607
 H763 H -0.07056 0.64435 0.74227
 H764 H -0.09907 0.67830 0.74569
 H765 H -0.15353 0.63502 0.73301
 H766 H -0.12505 0.60110 0.72959
 C767 C -0.12741 0.34798 0.25071
 C768 C -0.12765 0.36384 0.22895
 C769 C -0.11277 0.38242 0.23070
 C770 C -0.09908 0.38336 0.25404
 C771 C -0.08647 0.35966 0.25586
 C772 C -0.10138 0.34105 0.25410
 C773 C -0.13304 0.36420 0.27146
 C774 C -0.11814 0.38281 0.27322
 C775 C -0.14355 0.32806 0.24862
 C776 C -0.15703 0.31190 0.24659
 C777 C -0.08320 0.40351 0.25564
 C778 C -0.07048 0.42037 0.25631
 H779 H -0.13855 0.36074 0.21351
 H780 H -0.11094 0.39524 0.21676
 H781 H -0.06753 0.35768 0.25834
 H782 H -0.09520 0.32311 0.25508
 H783 H -0.14743 0.36131 0.28373
 H784 H -0.11977 0.39586 0.28698
 C785 C 0.12777 0.34674 0.75853
 C786 C 0.11781 0.35450 0.78240
 C787 C 0.10223 0.37263 0.78083
 C788 C 0.09815 0.38121 0.75555
 C789 C 0.09039 0.35947 0.74176
 C790 C 0.10597 0.34133 0.74333
 C791 C 0.13845 0.36889 0.74775
 C792 C 0.12289 0.38700 0.74619
 C793 C 0.14466 0.32735 0.76019
 C794 C 0.15885 0.31167 0.76152
 C795 C 0.08155 0.40084 0.75379
 C796 C 0.06831 0.41728 0.75217
 H797 H 0.12258 0.34647 0.79906
 H798 H 0.09366 0.38013 0.79614
 H799 H 0.07410 0.35840 0.73167
 H800 H 0.10303 0.32474 0.73458
 H801 H 0.15665 0.37024 0.74188
 H802 H 0.12776 0.40387 0.73897
 C803 C 0.12796 0.65464 0.25010
 C804 C 0.12348 0.64682 0.27555
 C805 C 0.10829 0.62844 0.27731
 C806 C 0.09909 0.61970 0.25345
 C807 C 0.12137 0.61426 0.23907
 C808 C 0.13653 0.63261 0.23732
 C809 C 0.10332 0.65964 0.23985
 C810 C 0.08814 0.64126 0.24160
 C811 C 0.14443 0.67428 0.24803
 C812 C 0.15821 0.69019 0.24602
 C813 C 0.08293 0.59977 0.25506
 C814 C 0.07004 0.58304 0.25576
 H815 H 0.13149 0.65502 0.29083
 H816 H 0.10329 0.62089 0.29409
 H817 H 0.12493 0.59745 0.23098
 H818 H 0.15307 0.63152 0.22772
 H819 H 0.09824 0.67616 0.23194
 H820 H 0.07005 0.64205 0.23520
 C821 C 0.75840 -0.12708 0.65676
 C822 C 0.74034 -0.10745 0.66080
 C823 C 0.73851 -0.09228 0.64240
 C824 C 0.75494 -0.09824 0.62177
 C825 C 0.74893 -0.12355 0.61525
 C826 C 0.75075 -0.13871 0.63363
 C827 C 0.78165 -0.11456 0.65096
 C828 C 0.77983 -0.09939 0.63257
 C829 C 0.76037 -0.14358 0.67641
 C830 C 0.76199 -0.15745 0.69228
 C831 C 0.75296 -0.08212 0.60181
 C832 C 0.75128 -0.06934 0.58503
 H833 H 0.72990 -0.10564 0.67670
 H834 H 0.72652 -0.07745 0.64253
 H835 H 0.74369 -0.12909 0.59773
 H836 H 0.74707 -0.15722 0.63185
 H837 H 0.79809 -0.11734 0.66048
 H838 H 0.79470 -0.08917 0.62633
 C839 C 0.24858 -0.12568 0.34746
 C840 C 0.26571 -0.13367 0.36687
 C841 C 0.26786 -0.11812 0.38489
 C842 C 0.25268 -0.09610 0.38174
 C843 C 0.22737 -0.10511 0.37818
 C844 C 0.22522 -0.12065 0.36017
 C845 C 0.25775 -0.10166 0.33972
 C846 C 0.25990 -0.08609 0.35776
 C847 C 0.24609 -0.14258 0.32823
 C848 C 0.24380 -0.15674 0.31271
 C849 C 0.25467 -0.07958 0.40136
 C850 C 0.25554 -0.06654 0.41799
 H851 H 0.27534 -0.15009 0.36647
 H852 H 0.27934 -0.12121 0.39992
 H853 H 0.21243 -0.09973 0.38886
 H854 H 0.20844 -0.12858 0.35543
 H855 H 0.26216 -0.09728 0.32167
 H856 H 0.26617 -0.06837 0.35519
 C857 C 0.75995 0.12396 0.34652
 C858 C 0.74809 0.13412 0.36852
 C859 C 0.74606 0.11853 0.38649
 C860 C 0.75608 0.09428 0.38072
 C861 C 0.78173 0.09868 0.37317
 C862 C 0.78376 0.11429 0.35519
 C863 C 0.74524 0.10234 0.34017
 C864 C 0.74320 0.08672 0.35816
 C865 C 0.76213 0.14092 0.32731
 C866 C 0.76391 0.15516 0.31181
 C867 C 0.75386 0.07769 0.40024
 C868 C 0.75196 0.06455 0.41670
 H869 H 0.74182 0.15200 0.36987
 H870 H 0.73805 0.12305 0.40322
 H871 H 0.79695 0.09027 0.38122
 H872 H 0.80073 0.11925 0.34784
 H873 H 0.73714 0.09954 0.32305
 H874 H 0.73337 0.07054 0.35646
 C875 C 0.24445 0.12732 0.65620
 C876 C 0.25183 0.13935 0.63324
 C877 C 0.25404 0.12443 0.61472
 C878 C 0.24864 0.09891 0.62094
 C879 C 0.22373 0.09938 0.63160
 C880 C 0.22152 0.11431 0.65013
 C881 C 0.26299 0.10807 0.66015
 C882 C 0.26519 0.09312 0.64160
 C883 C 0.24201 0.14358 0.67599
 C884 C 0.23994 0.15730 0.69193
 C885 C 0.25082 0.08305 0.60080
 C886 C 0.25209 0.07048 0.58384
 H887 H 0.25507 0.15796 0.63167
 H888 H 0.25916 0.13026 0.59729
 H889 H 0.20910 0.08888 0.62517
 H890 H 0.20502 0.11660 0.65958
 H891 H 0.27343 0.10632 0.67612
 H892 H 0.27752 0.07857 0.64165
   
