data_POSCAR
  _audit_creation_date              2014-09-24
  _audit_creation_method            'ToBaCCo'
  _symmetry_space_group_name_H-M    'P1'
  _symmetry_Int_Tables_number       1
  _symmetry_cell_setting            triclinic
  loop_
  _symmetry_equiv_pos_as_xyz
 x,y,z
_cell_length_a 16.9264
_cell_length_b 16.9900
_cell_length_c 17.0507
_cell_angle_alpha 97.200100
_cell_angle_beta 106.154600
_cell_angle_gamma 106.670400
loop_
  _atom_site_label
  _atom_site_type_symbol
  _atom_site_fract_x
  _atom_site_fract_y
  _atom_site_fract_z
C1 C 0.58423 0.55540 -0.00777
 C2 C 0.53289 0.60791 -0.00101
 C3 C 0.44436 0.56972 -0.00933
 C4 C 0.40840 0.48300 -0.01321
 C5 C 0.46535 0.43487 -0.00327
 C6 C 0.55061 0.47078 -0.00392
 H7 H 0.59123 0.43143 -0.00176
 H8 H 0.40357 0.60873 -0.00973
 C9 C 0.01471 0.42797 0.51063
 C10 C -0.02322 0.47519 0.55342
 C11 C -0.03713 0.54662 0.52794
 C12 C -0.02183 0.56778 0.45530
 C13 C 0.01603 0.52019 0.41191
 C14 C 0.03280 0.45025 0.43945
 H15 H 0.06420 0.41568 0.40790
 H16 H -0.06710 0.58165 0.56102
 C17 C 0.46624 0.01144 0.43155
 C18 C 0.40914 -0.00186 0.47946
 C19 C 0.44336 -0.00079 0.56492
 C20 C 0.53195 0.00922 0.60287
 C21 C 0.58400 0.00539 0.55039
 C22 C 0.55181 0.01248 0.46716
 H23 H 0.59297 0.01622 0.42812
 H24 H 0.40112 -0.00394 0.60286
 O25 O 0.47136 -0.00498 -0.11382
 O26 O 0.40986 -0.01725 0.07666
 O27 O 0.41178 0.08266 -0.02132
 O28 O 0.47245 -0.10848 -0.00955
 O29 O 0.60754 -0.02934 0.06713
 O30 O 0.54756 0.16078 0.05554
 O31 O 0.54592 0.05836 0.15480
 O32 O 0.60621 0.07311 -0.03546
 Cu33 Cu 0.42803 -0.02100 -0.02579
 Cu34 Cu 0.59063 0.07308 0.06781
 C35 C 0.54901 0.03756 -0.10699
 C36 C 0.46692 0.02075 0.14765
 C37 C 0.46914 0.15380 0.01757
 C38 C 0.55021 -0.10127 0.03185
 O39 O -0.06744 0.60718 0.97359
 O40 O 0.12630 0.54551 0.98828
 O41 O -0.00422 0.54450 0.86717
 O42 O 0.05944 0.59566 1.09753
 O43 O -0.01466 0.46431 1.09421
 O44 O -0.08561 0.41595 0.86478
 O45 O 0.04802 0.41377 0.97919
 O46 O -0.14305 0.47836 0.97623
 Cu47 Cu 0.03582 0.58674 0.98257
 Cu48 Cu -0.05643 0.43027 0.97913
 C49 C -0.13793 0.55381 0.97250
 C50 C 0.11889 0.46844 0.98213
 C51 C -0.05447 0.47059 0.82715
 C52 C 0.03356 0.53824 1.13498
 O53 O -0.08790 -0.12309 0.40279
 O54 O -0.01880 0.10757 0.45563
 O55 O 0.04641 -0.00631 0.40515
 O56 O -0.14638 -0.01406 0.46903
 O57 O -0.07271 -0.01961 0.59622
 O58 O 0.12292 0.00291 0.53632
 O59 O 0.05164 0.10879 0.58623
 O60 O -0.00845 -0.12307 0.52999
 Cu61 Cu -0.05911 -0.00805 0.42055
 Cu62 Cu 0.03050 -0.00705 0.57542
 C63 C -0.05665 -0.16196 0.45550
 C64 C 0.02664 0.14750 0.53005
 C65 C 0.11661 -0.00314 0.45988
 C66 C -0.14238 -0.01987 0.54355
 C67 C -0.33511 0.58139 0.97695
 C68 C -0.30565 0.64875 0.94193
 C69 C -0.22656 0.64860 0.93746
 C70 C -0.21449 0.57978 0.96713
 O71 O -0.28030 0.53830 0.98983
 H72 H -0.33857 0.69155 0.91949
 H73 H -0.18401 0.69189 0.91310
 C74 C 0.31802 0.44872 0.97453
 C75 C 0.26541 0.36522 0.94036
 C76 C 0.18439 0.36086 0.94219
 C77 C 0.19225 0.44205 0.97478
 O78 O 0.27226 0.49567 0.99273
 H79 H 0.28252 0.31366 0.91422
 H80 H 0.12579 0.30583 0.91924
 C81 C -0.04819 -0.36675 0.42645
 C82 C -0.08350 -0.36571 0.34316
 C83 C -0.09780 -0.29094 0.34381
 C84 C -0.06990 -0.25140 0.42717
 O85 O -0.04122 -0.29771 0.47759
 H86 H -0.09814 -0.41389 0.28827
 H87 H -0.12157 -0.26631 0.28981
 C88 C 0.04152 0.35947 0.54324
 C89 C 0.09064 0.36752 0.62530
 C90 C 0.09435 0.28926 0.63082
 C91 C 0.04738 0.23931 0.55171
 O92 O 0.01559 0.28180 0.49823
 H93 H 0.11832 0.42340 0.67550
 H94 H 0.12522 0.27028 0.68636
 C95 C 0.56664 0.03146 -0.30871
 C96 C 0.65163 0.08228 -0.26261
 C97 C 0.65623 0.09065 -0.18093
 C98 C 0.57366 0.04586 -0.18254
 O99 O 0.51870 0.01125 -0.25974
 H100 H 0.70369 0.11191 -0.28562
 H101 H 0.71273 0.12611 -0.12665
 C102 C 0.44100 0.02458 0.34476
 C103 C 0.38354 0.06551 0.31294
 C104 C 0.38145 0.06408 0.23236
 C105 C 0.44039 0.02576 0.22209
 O106 O 0.47769 0.00295 0.29014
 H107 H 0.34860 0.09457 0.34490
 H108 H 0.34484 0.09146 0.18779
 C109 C 0.56794 -0.30332 0.02259
 C110 C 0.65255 -0.25701 0.07396
 C111 C 0.65716 -0.17495 0.08364
 C112 C 0.57490 -0.17681 0.03907
 O113 O 0.52020 -0.25435 0.00337
 H114 H 0.70423 -0.28016 0.10309
 H115 H 0.71341 -0.12031 0.11984
 C116 C 0.44326 0.35030 0.01605
 C117 C 0.39802 0.32587 0.07003
 C118 C 0.39688 0.24588 0.07297
 C119 C 0.44389 0.22878 0.02300
 O120 O 0.47359 0.29218 -0.01036
 H121 H 0.37059 0.36258 0.10427
 H122 H 0.36907 0.20636 0.11029
 C123 C -0.33702 -0.01226 0.57437
 C124 C -0.30997 -0.05062 0.63915
 C125 C -0.23228 -0.05736 0.63710
 C126 C -0.21883 -0.02557 0.56976
 O127 O -0.28225 0.00066 0.53106
 H128 H -0.34363 -0.07381 0.68139
 H129 H -0.19147 -0.08427 0.67829
 C130 C 0.31431 -0.01652 0.44374
 C131 C 0.26035 -0.06497 0.36535
 C132 C 0.17957 -0.06091 0.35861
 C133 C 0.18961 -0.01280 0.43432
 O134 O 0.27071 0.01299 0.48656
 H135 H 0.27767 -0.09979 0.31903
 H136 H 0.11963 -0.09306 0.30674
 C137 C 0.04980 0.54938 1.34569
 C138 C 0.10803 0.62881 1.35588
 C139 C 0.11247 0.63442 1.27810
 C140 C 0.05683 0.55789 1.22649
 O141 O 0.01901 0.50592 1.26735
 H142 H 0.14011 0.67789 1.41260
 H143 H 0.14918 0.68875 1.26054
 C144 C -0.05587 0.44703 0.62025
 C145 C -0.11140 0.36700 0.61249
 C146 C -0.12202 0.36642 0.68867
 C147 C -0.07234 0.44624 0.73686
 O148 O -0.03249 0.49556 0.69539
 H149 H -0.13905 0.31498 0.55830
 H150 H -0.15876 0.31333 0.70782
   
