data_POSCAR
  _audit_creation_date              2014-09-24
  _audit_creation_method            'ToBaCCo'
  _symmetry_space_group_name_H-M    'P1'
  _symmetry_Int_Tables_number       1
  _symmetry_cell_setting            triclinic
  loop_
  _symmetry_equiv_pos_as_xyz
 x,y,z
_cell_length_a 50.7979
_cell_length_b 51.0246
_cell_length_c 51.1279
_cell_angle_alpha 89.996000
_cell_angle_beta 90.005800
_cell_angle_gamma 90.009500
loop_
  _atom_site_label
  _atom_site_type_symbol
  _atom_site_fract_x
  _atom_site_fract_y
  _atom_site_fract_z
N1 N 0.29202 0.23937 0.21918
 N2 N 0.28147 0.26066 0.20913
 C3 C 0.29543 0.26790 0.18791
 C4 C 0.31566 0.25020 0.18467
 C5 C 0.31304 0.23235 0.20473
 H6 H 0.29127 0.28472 0.17571
 H7 H 0.32547 0.21557 0.20851
 Cu8 Cu 0.25054 0.27680 0.22480
 Cu9 Cu 0.27777 0.22237 0.25021
 Cu10 Cu 0.22210 0.25017 0.27795
 N11 N 0.21897 0.29188 0.24028
 N12 N 0.20796 0.28137 0.26107
 C13 C 0.18660 0.29551 0.26773
 C14 C 0.18422 0.31584 0.25016
 C15 C 0.20495 0.31309 0.23299
 H16 H 0.17377 0.29134 0.28409
 H17 H 0.20941 0.32560 0.21650
 N18 N 0.23928 0.21861 0.29220
 N19 N 0.26050 0.20802 0.28162
 C20 C 0.26751 0.18683 0.29575
 C21 C 0.24987 0.18412 0.31602
 C22 C 0.23225 0.20444 0.31332
 H23 H 0.28418 0.17430 0.29168
 H24 H 0.21561 0.20855 0.32585
 H25 H 0.23943 0.23481 0.24473
 H26 H 0.26070 0.25541 0.26629
 N27 N 0.70762 -0.23923 0.21853
 N28 N 0.71847 -0.26024 0.20819
 C29 C 0.70453 -0.26748 0.18694
 C30 C 0.68403 -0.25003 0.18401
 C31 C 0.68643 -0.23236 0.20425
 H32 H 0.70890 -0.28410 0.17455
 H33 H 0.67376 -0.21581 0.20828
 Cu34 Cu 0.74973 -0.27600 0.22360
 Cu35 Cu 0.72174 -0.22235 0.24970
 Cu36 Cu 0.77747 -0.25018 0.27743
 N37 N 0.78100 -0.29146 0.23930
 N38 N 0.79175 -0.28123 0.26039
 C39 C 0.81295 -0.29552 0.26721
 C40 C 0.81548 -0.31566 0.24943
 C41 C 0.79502 -0.31266 0.23197
 H42 H 0.82555 -0.29158 0.28382
 H43 H 0.79074 -0.32496 0.21528
 N44 N 0.76015 -0.21874 0.29181
 N45 N 0.73893 -0.20814 0.28125
 C46 C 0.73186 -0.18703 0.29545
 C47 C 0.74947 -0.18436 0.31576
 C48 C 0.76713 -0.20464 0.31300
 H49 H 0.71519 -0.17449 0.29139
 H50 H 0.78379 -0.20875 0.32551
 H51 H 0.76025 -0.23428 0.24441
 H52 H 0.73901 -0.25551 0.26535
 N53 N 0.70880 0.23954 0.78101
 N54 N 0.71983 0.26036 0.79152
 C55 C 0.70583 0.26763 0.81271
 C56 C 0.68510 0.25042 0.81546
 C57 C 0.68745 0.23284 0.79513
 H58 H 0.71031 0.28414 0.82521
 H59 H 0.67462 0.21645 0.79096
 Cu60 Cu 0.75138 0.27589 0.77645
 Cu61 Cu 0.72290 0.22267 0.74984
 Cu62 Cu 0.77856 0.25051 0.72207
 N63 N 0.78231 0.29162 0.76034
 N64 N 0.79285 0.28158 0.73906
 C65 C 0.81387 0.29606 0.73204
 C66 C 0.81648 0.31612 0.74989
 C67 C 0.79627 0.31288 0.76759
 H68 H 0.82628 0.29228 0.71527
 H69 H 0.79212 0.32507 0.78440
 N70 N 0.76126 0.21904 0.70773
 N71 N 0.74005 0.20844 0.71831
 C72 C 0.73299 0.18729 0.70416
 C73 C 0.75058 0.18460 0.68385
 C74 C 0.76824 0.20491 0.68656
 H75 H 0.71634 0.17474 0.70827
 H76 H 0.78489 0.20900 0.67404
 H77 H 0.76152 0.23435 0.75504
 H78 H 0.74024 0.25598 0.73453
 N79 N 0.29190 -0.23978 0.78137
 N80 N 0.28104 -0.26079 0.79170
 C81 C 0.29504 -0.26807 0.81290
 C82 C 0.31559 -0.25068 0.81582
 C83 C 0.31313 -0.23298 0.79561
 H84 H 0.29068 -0.28469 0.82528
 H85 H 0.32582 -0.21644 0.79159
 Cu86 Cu 0.24969 -0.27646 0.77636
 Cu87 Cu 0.27772 -0.22281 0.75028
 Cu88 Cu 0.22185 -0.25046 0.72266
 N89 N 0.21834 -0.29182 0.76071
 N90 N 0.20756 -0.28153 0.73968
 C91 C 0.18630 -0.29576 0.73288
 C92 C 0.18378 -0.31593 0.75063
 C93 C 0.20429 -0.31301 0.76804
 H94 H 0.17367 -0.29176 0.71632
 H95 H 0.20860 -0.32537 0.78469
 N96 N 0.23920 -0.21902 0.70830
 N97 N 0.26048 -0.20849 0.71882
 C98 C 0.26755 -0.18736 0.70463
 C99 C 0.24989 -0.18462 0.68439
 C100 C 0.23219 -0.20486 0.68715
 H101 H 0.28426 -0.17487 0.70868
 H102 H 0.21548 -0.20891 0.67468
 H103 H 0.23920 -0.23468 0.75566
 H104 H 0.26033 -0.25590 0.73461
 N105 N 0.70814 -0.23981 0.78079
 N106 N 0.71864 -0.26116 0.79076
 C107 C 0.70467 -0.26843 0.81196
 C108 C 0.68451 -0.25069 0.81524
 C109 C 0.68716 -0.23278 0.79526
 H110 H 0.70880 -0.28529 0.82411
 H111 H 0.67477 -0.21595 0.79155
 Cu112 Cu 0.74952 -0.27732 0.77510
 Cu113 Cu 0.72242 -0.22272 0.74987
 Cu114 Cu 0.77813 -0.25044 0.72216
 N115 N 0.78114 -0.29225 0.75968
 N116 N 0.79223 -0.28164 0.73897
 C117 C 0.81364 -0.29569 0.73234
 C118 C 0.81593 -0.31606 0.74986
 C119 C 0.79515 -0.31346 0.76697
 H120 H 0.82653 -0.29143 0.71604
 H121 H 0.79063 -0.32604 0.78340
 N122 N 0.76098 -0.21888 0.70799
 N123 N 0.73974 -0.20832 0.71855
 C124 C 0.73273 -0.18711 0.70446
 C125 C 0.75040 -0.18437 0.68424
 C126 C 0.76803 -0.20467 0.68691
 H127 H 0.71605 -0.17461 0.70853
 H128 H 0.78469 -0.20875 0.67439
 H129 H 0.73950 -0.25573 0.73370
 H130 H 0.76073 -0.23525 0.75544
 N131 N 0.29163 0.23910 0.78110
 N132 N 0.28049 0.25981 0.79170
 C133 C 0.29448 0.26711 0.81287
 C134 C 0.31532 0.25003 0.81549
 C135 C 0.31305 0.23250 0.79514
 H136 H 0.28994 0.28355 0.82544
 H137 H 0.32598 0.21621 0.79089
 Cu138 Cu 0.24883 0.27520 0.77681
 Cu139 Cu 0.27757 0.22225 0.74995
 Cu140 Cu 0.22180 0.24990 0.72230
 N141 N 0.21792 0.29083 0.76068
 N142 N 0.20745 0.28084 0.73936
 C143 C 0.18644 0.29530 0.73235
 C144 C 0.18375 0.31530 0.75023
 C145 C 0.20392 0.31204 0.76795
 H146 H 0.17406 0.29158 0.71554
 H147 H 0.20801 0.32421 0.78478
 N148 N 0.23918 0.21857 0.70790
 N149 N 0.26044 0.20803 0.71844
 C150 C 0.26755 0.18693 0.70426
 C151 C 0.24992 0.18423 0.68399
 C152 C 0.23221 0.20445 0.68674
 H153 H 0.28423 0.17442 0.70833
 H154 H 0.21551 0.20849 0.67426
 H155 H 0.26009 0.25556 0.73482
 H156 H 0.23891 0.23371 0.75523
 N157 N 0.29267 -0.23927 0.21936
 N158 N 0.28213 -0.26056 0.20932
 C159 C 0.29612 -0.26783 0.18814
 C160 C 0.31636 -0.25014 0.18495
 C161 C 0.31373 -0.23228 0.20497
 H162 H 0.29197 -0.28465 0.17594
 H163 H 0.32617 -0.21549 0.20875
 Cu164 Cu 0.25115 -0.27666 0.22485
 Cu165 Cu 0.27837 -0.22222 0.25029
 Cu166 Cu 0.22248 -0.24981 0.27776
 N167 N 0.21943 -0.29152 0.24014
 N168 N 0.20832 -0.28092 0.26084
 C169 C 0.18685 -0.29494 0.26738
 C170 C 0.18451 -0.31527 0.24982
 C171 C 0.20536 -0.31267 0.23279
 H172 H 0.17393 -0.29069 0.28365
 H173 H 0.20987 -0.32523 0.21636
 N174 N 0.23971 -0.21835 0.29206
 N175 N 0.26101 -0.20783 0.28159
 C176 C 0.26805 -0.18669 0.29575
 C177 C 0.25033 -0.18393 0.31592
 C178 C 0.23263 -0.20417 0.31315
 H179 H 0.28479 -0.17422 0.29176
 H180 H 0.21592 -0.20823 0.32560
 H181 H 0.26113 -0.25520 0.26632
 H182 H 0.24004 -0.23461 0.24457
 N183 N 0.70801 0.23841 0.21880
 N184 N 0.71914 0.25912 0.20819
 C185 C 0.70519 0.26636 0.18697
 C186 C 0.68440 0.24923 0.18431
 C187 C 0.68665 0.23174 0.20471
 H188 H 0.70973 0.28280 0.17439
 H189 H 0.67373 0.21544 0.20895
 Cu190 Cu 0.75071 0.27463 0.22314
 Cu191 Cu 0.72201 0.22165 0.25003
 Cu192 Cu 0.77762 0.24952 0.27781
 N193 N 0.78151 0.29039 0.23935
 N194 N 0.79194 0.28047 0.26073
 C195 C 0.81289 0.29501 0.26778
 C196 C 0.81559 0.31498 0.24986
 C197 C 0.79549 0.31162 0.23208
 H198 H 0.82522 0.29136 0.28464
 H199 H 0.79142 0.32374 0.21520
 N200 N 0.76026 0.21817 0.29221
 N201 N 0.73907 0.20755 0.28162
 C202 C 0.73197 0.18645 0.29582
 C203 C 0.74954 0.18384 0.31615
 C204 C 0.76721 0.20411 0.31342
 H205 H 0.71534 0.17388 0.29172
 H206 H 0.78385 0.20822 0.32595
 H207 H 0.73935 0.25505 0.26514
 H208 H 0.76065 0.23322 0.24486
 O209 O 0.22832 0.02534 0.47478
 O210 O 0.22834 -0.02574 0.52573
 O211 O 0.22830 0.02531 0.52572
 O212 O 0.22838 -0.02569 0.47479
 O213 O 0.27192 -0.02564 0.47482
 O214 O 0.27184 0.02535 0.52575
 O215 O 0.27188 -0.02569 0.52577
 O216 O 0.27186 0.02539 0.47481
 Cu217 Cu 0.22394 -0.00020 0.50025
 Cu218 Cu 0.27627 -0.00014 0.50029
 C219 C 0.25009 0.03399 0.46619
 C220 C 0.25011 -0.03434 0.53435
 C221 C 0.25005 0.03394 0.53432
 C222 C 0.25016 -0.03426 0.46620
 O223 O 0.72820 0.02530 0.52573
 O224 O 0.72798 -0.02581 0.47480
 O225 O 0.72817 -0.02575 0.52575
 O226 O 0.72799 0.02523 0.47480
 O227 O 0.77153 0.02522 0.47464
 O228 O 0.77171 -0.02576 0.52559
 O229 O 0.77151 -0.02582 0.47464
 O230 O 0.77173 0.02529 0.52557
 Cu231 Cu 0.72369 -0.00026 0.50029
 Cu232 Cu 0.77601 -0.00027 0.50009
 C233 C 0.75000 0.03393 0.53424
 C234 C 0.74971 -0.03443 0.46612
 C235 C 0.74997 -0.03436 0.53427
 C236 C 0.74973 0.03383 0.46612
 O237 O 0.47435 0.22931 0.02512
 O238 O 0.52569 0.22944 -0.02579
 O239 O 0.52561 0.22927 0.02515
 O240 O 0.47443 0.22946 -0.02582
 O241 O 0.47446 0.27281 -0.02569
 O242 O 0.52565 0.27261 0.02528
 O243 O 0.52573 0.27278 -0.02566
 O244 O 0.47439 0.27266 0.02525
 Cu245 Cu 0.50002 0.22500 -0.00035
 Cu246 Cu 0.50006 0.27709 -0.00019
 C247 C 0.46571 0.25096 0.03379
 C248 C 0.53438 0.25113 -0.03432
 C249 C 0.53426 0.25090 0.03382
 C250 C 0.46581 0.25116 -0.03436
 O251 O 0.52624 0.72728 0.02576
 O252 O 0.47491 0.72712 -0.02518
 O253 O 0.52618 0.72716 -0.02519
 O254 O 0.47498 0.72726 0.02577
 O255 O 0.47496 0.77060 0.02565
 O256 O 0.52616 0.77050 -0.02530
 O257 O 0.47489 0.77046 -0.02529
 O258 O 0.52622 0.77062 0.02564
 Cu259 Cu 0.50058 0.72283 0.00030
 Cu260 Cu 0.50056 0.77492 0.00016
 C261 C 0.53489 0.74898 0.03431
 C262 C 0.46623 0.74876 -0.03383
 C263 C 0.53480 0.74881 -0.03385
 C264 C 0.46633 0.74895 0.03431
 O265 O 0.02494 0.47502 0.22714
 O266 O -0.02638 0.52606 0.22703
 O267 O 0.02490 0.52607 0.22701
 O268 O -0.02632 0.47501 0.22717
 O269 O -0.02629 0.47513 0.27043
 O270 O 0.02492 0.52617 0.27026
 O271 O -0.02635 0.52617 0.27028
 O272 O 0.02496 0.47514 0.27040
 Cu273 Cu -0.00072 0.50053 0.22272
 Cu274 Cu -0.00069 0.50067 0.27471
 C275 C 0.03361 0.46646 0.24879
 C276 C -0.03503 0.53473 0.24864
 C277 C 0.03355 0.53473 0.24861
 C278 C -0.03493 0.46644 0.24883
 O279 O 0.02539 0.52610 0.72953
 O280 O -0.02593 0.47505 0.72932
 O281 O -0.02588 0.52610 0.72944
 O282 O 0.02533 0.47506 0.72940
 O283 O 0.02526 0.47495 0.77266
 O284 O -0.02596 0.52600 0.77270
 O285 O -0.02600 0.47494 0.77257
 O286 O 0.02532 0.52600 0.77279
 Cu287 Cu -0.00027 0.50059 0.72506
 Cu288 Cu -0.00035 0.50046 0.77705
 C289 C 0.03402 0.53466 0.75119
 C290 C -0.03462 0.46637 0.75091
 C291 C -0.03456 0.53466 0.75107
 C292 C 0.03393 0.46639 0.75102
 C293 C 0.37899 0.24916 0.08545
 C294 C 0.37651 0.22841 0.10744
 C295 C 0.37232 0.25058 0.12735
 C296 C 0.37449 0.27133 0.10567
 C297 C 0.40873 0.25076 0.09074
 C298 C 0.40454 0.27293 0.11065
 C299 C 0.40655 0.23001 0.11242
 C300 C 0.40205 0.25218 0.13264
 C301 C 0.35207 0.25046 0.14777
 C302 C 0.33544 0.25035 0.16459
 C303 C 0.42904 0.25085 0.07038
 C304 C 0.44577 0.25091 0.05366
 H305 H 0.36973 0.24792 0.06582
 H306 H 0.36476 0.21009 0.10634
 H307 H 0.36109 0.28832 0.10312
 H308 H 0.41629 0.29124 0.11175
 H309 H 0.41995 0.21302 0.11497
 H310 H 0.41132 0.25342 0.15226
 C311 C 0.62149 0.75256 0.08607
 C312 C 0.62299 0.77234 0.10902
 C313 C 0.62831 0.74948 0.12786
 C314 C 0.62713 0.72970 0.10522
 C315 C 0.59188 0.74924 0.09127
 C316 C 0.59721 0.72638 0.11011
 C317 C 0.59307 0.76901 0.11390
 C318 C 0.59871 0.74616 0.13305
 C319 C 0.64859 0.74963 0.14826
 C320 C 0.66525 0.74978 0.16505
 C321 C 0.57157 0.74913 0.07091
 C322 C 0.55483 0.74905 0.05418
 H323 H 0.63064 0.75519 0.06653
 H324 H 0.63381 0.79124 0.10880
 H325 H 0.64136 0.71354 0.10188
 H326 H 0.58639 0.70748 0.11033
 H327 H 0.57884 0.78518 0.11725
 H328 H 0.58956 0.74353 0.15259
 C329 C 0.58816 0.26305 -0.11852
 C330 C 0.61570 0.27586 -0.11594
 C331 C 0.62810 0.25098 -0.12756
 C332 C 0.60088 0.23817 -0.13046
 C333 C 0.59153 0.25113 -0.09112
 C334 C 0.60393 0.22626 -0.10275
 C335 C 0.61875 0.26394 -0.08822
 C336 C 0.63146 0.23907 -0.10016
 C337 C 0.64846 0.25085 -0.14787
 C338 C 0.66518 0.25068 -0.16460
 C339 C 0.57114 0.25117 -0.07083
 C340 C 0.55436 0.25117 -0.05416
 H341 H 0.57014 0.27291 -0.12585
 H342 H 0.62076 0.29625 -0.12158
 H343 H 0.59374 0.22758 -0.14804
 H344 H 0.59886 0.20586 -0.09711
 H345 H 0.62588 0.27454 -0.07063
 H346 H 0.64949 0.22921 -0.09283
 C347 C 0.40348 0.72567 -0.10918
 C348 C 0.37361 0.72933 -0.10424
 C349 C 0.37254 0.74883 -0.12711
 C350 C 0.40209 0.74517 -0.13237
 C351 C 0.40909 0.74872 -0.09065
 C352 C 0.40801 0.76822 -0.11353
 C353 C 0.37954 0.75237 -0.08540
 C354 C 0.37815 0.77187 -0.10859
 C355 C 0.35219 0.74894 -0.14745
 C356 C 0.33548 0.74908 -0.16419
 C357 C 0.42948 0.74869 -0.07035
 C358 C 0.44625 0.74871 -0.05367
 H359 H 0.41412 0.70667 -0.10920
 H360 H 0.35924 0.71334 -0.10064
 H361 H 0.41115 0.74221 -0.15191
 H362 H 0.42238 0.78421 -0.11714
 H363 H 0.37049 0.75533 -0.06586
 H364 H 0.36751 0.79087 -0.10856
 C365 C 0.10030 0.39475 0.22467
 C366 C 0.12908 0.39868 0.23392
 C367 C 0.12722 0.37294 0.24941
 C368 C 0.09875 0.36870 0.24016
 C369 C 0.09069 0.40949 0.24908
 C370 C 0.08883 0.38374 0.26456
 C371 C 0.11915 0.41373 0.25833
 C372 C 0.11760 0.38767 0.27381
 C373 C 0.14756 0.35257 0.24963
 C374 C 0.16429 0.33582 0.24985
 C375 C 0.07033 0.42984 0.24893
 C376 C 0.05357 0.44657 0.24885
 H377 H 0.09296 0.39789 0.20446
 H378 H 0.14585 0.40461 0.22133
 H379 H 0.09059 0.34996 0.23269
 H380 H 0.07206 0.37781 0.27716
 H381 H 0.12732 0.43247 0.26580
 H382 H 0.12494 0.38453 0.29402
 C383 C 0.08861 0.61819 0.73747
 C384 C 0.09992 0.63174 0.76216
 C385 C 0.12782 0.62805 0.75115
 C386 C 0.11682 0.61481 0.72646
 C387 C 0.09121 0.59156 0.75127
 C388 C 0.11911 0.58787 0.74026
 C389 C 0.10220 0.60479 0.77595
 C390 C 0.13042 0.60142 0.76494
 C391 C 0.14819 0.64839 0.75103
 C392 C 0.16493 0.66515 0.75087
 C393 C 0.07080 0.57124 0.75129
 C394 C 0.05401 0.55454 0.75126
 H395 H 0.07120 0.62487 0.72617
 H396 H 0.09224 0.65000 0.77116
 H397 H 0.12305 0.61915 0.70611
 H398 H 0.12678 0.56961 0.73125
 H399 H 0.09597 0.60046 0.79631
 H400 H 0.14783 0.59474 0.77624
 C401 C -0.10505 0.60280 0.27349
 C402 C -0.10172 0.63082 0.26229
 C403 C -0.12867 0.62824 0.24887
 C404 C -0.13231 0.60053 0.26007
 C405 C -0.09213 0.59169 0.24868
 C406 C -0.11907 0.58911 0.23527
 C407 C -0.08849 0.61940 0.23748
 C408 C -0.11575 0.61713 0.22406
 C409 C -0.14900 0.64861 0.24902
 C410 C -0.16571 0.66540 0.24919
 C411 C -0.07176 0.57134 0.24862
 C412 C -0.05500 0.55462 0.24861
 H413 H -0.10044 0.59669 0.29382
 H414 H -0.09481 0.64819 0.27340
 H415 H -0.15055 0.59299 0.26937
 H416 H -0.12599 0.57173 0.22415
 H417 H -0.07025 0.62694 0.22819
 H418 H -0.12037 0.62324 0.20374
 C419 C -0.11718 0.41056 0.73468
 C420 C -0.11283 0.38180 0.72600
 C421 C -0.12793 0.37251 0.75034
 C422 C -0.13259 0.40096 0.75902
 C423 C -0.09156 0.40923 0.75060
 C424 C -0.10666 0.39994 0.77494
 C425 C -0.08690 0.38078 0.74192
 C426 C -0.10231 0.37118 0.76625
 C427 C -0.14817 0.35203 0.75019
 C428 C -0.16480 0.33517 0.75005
 C429 C -0.07127 0.42966 0.75073
 C430 C -0.05455 0.44643 0.75082
 H431 H -0.12308 0.42698 0.72170
 H432 H -0.11559 0.37411 0.70588
 H433 H -0.15161 0.40905 0.76605
 H434 H -0.10390 0.40763 0.79506
 H435 H -0.06789 0.37269 0.73489
 H436 H -0.09641 0.35476 0.77923
 C437 C 0.27356 0.09715 0.39156
 C438 C 0.25469 0.09797 0.36777
 C439 C 0.24995 0.12726 0.37291
 C440 C 0.26883 0.12675 0.39639
 C441 C 0.25002 0.09085 0.40936
 C442 C 0.24529 0.12014 0.41450
 C443 C 0.23115 0.09135 0.38588
 C444 C 0.22641 0.12096 0.39070
 C445 C 0.24991 0.14754 0.35261
 C446 C 0.24989 0.16423 0.33592
 C447 C 0.25006 0.07056 0.42965
 C448 C 0.25008 0.05387 0.44634
 H449 H 0.29296 0.08714 0.39214
 H450 H 0.25855 0.08907 0.34834
 H451 H 0.28433 0.14153 0.40049
 H452 H 0.24143 0.12904 0.43393
 H453 H 0.21565 0.07657 0.38177
 H454 H 0.20702 0.13097 0.39013
 C455 C 0.75900 0.11947 0.58635
 C456 C 0.73447 0.12900 0.60164
 C457 C 0.75043 0.12758 0.62714
 C458 C 0.77496 0.11836 0.61216
 C459 C 0.75026 0.09099 0.59087
 C460 C 0.76622 0.08957 0.61636
 C461 C 0.72573 0.10021 0.60585
 C462 C 0.74169 0.09910 0.63165
 C463 C 0.75051 0.14794 0.64735
 C464 C 0.75056 0.16468 0.66399
 C465 C 0.75016 0.07061 0.57066
 C466 C 0.75009 0.05386 0.55404
 H467 H 0.76612 0.12763 0.56751
 H468 H 0.72141 0.14543 0.59581
 H469 H 0.79521 0.12605 0.61497
 H470 H 0.77928 0.07314 0.62219
 H471 H 0.70548 0.09252 0.60303
 H472 H 0.73458 0.09094 0.65049
 C473 C 0.25294 -0.12075 0.58577
 C474 C 0.27292 -0.12264 0.60859
 C475 C 0.25000 -0.12771 0.62753
 C476 C 0.23002 -0.12613 0.60503
 C477 C 0.25007 -0.09126 0.59114
 C478 C 0.22715 -0.09633 0.61008
 C479 C 0.27006 -0.09284 0.61364
 C480 C 0.24714 -0.09822 0.63290
 C481 C 0.24995 -0.14802 0.64781
 C482 C 0.24992 -0.16472 0.66450
 C483 C 0.25010 -0.07094 0.57086
 C484 C 0.25011 -0.05423 0.55419
 H485 H 0.25533 -0.12979 0.56617
 H486 H 0.29175 -0.13368 0.60819
 H487 H 0.21355 -0.14004 0.60170
 H488 H 0.20833 -0.08529 0.61048
 H489 H 0.28652 -0.07893 0.61697
 H490 H 0.24475 -0.08918 0.65250
 C491 C 0.73434 -0.08927 0.38332
 C492 C 0.75905 -0.09934 0.36866
 C493 C 0.74945 -0.12761 0.37275
 C494 C 0.72475 -0.11785 0.38709
 C495 C 0.74952 -0.09125 0.40924
 C496 C 0.73993 -0.11951 0.41332
 C497 C 0.77423 -0.10100 0.39490
 C498 C 0.76463 -0.12958 0.39867
 C499 C 0.74944 -0.14786 0.35241
 C500 C 0.74944 -0.16451 0.33569
 C501 C 0.74957 -0.07098 0.42956
 C502 C 0.74963 -0.05430 0.44626
 H503 H 0.72188 -0.07247 0.37722
 H504 H 0.76691 -0.09126 0.35008
 H505 H 0.70440 -0.12500 0.38365
 H506 H 0.73207 -0.12759 0.43191
 H507 H 0.79458 -0.09386 0.39833
 H508 H 0.77709 -0.14638 0.40476
 C509 C 0.58807 0.76085 -0.11814
 C510 C 0.61557 0.77375 -0.11565
 C511 C 0.62798 0.74897 -0.12743
 C512 C 0.60080 0.73606 -0.13023
 C513 C 0.59165 0.74884 -0.09081
 C514 C 0.60406 0.72405 -0.10259
 C515 C 0.61883 0.76174 -0.08801
 C516 C 0.63156 0.73696 -0.10011
 C517 C 0.64818 0.74906 -0.14785
 C518 C 0.66477 0.74916 -0.16468
 C519 C 0.57139 0.74879 -0.07045
 C520 C 0.55470 0.74879 -0.05372
 H521 H 0.56996 0.77067 -0.12531
 H522 H 0.62053 0.79418 -0.12125
 H523 H 0.59362 0.72551 -0.14783
 H524 H 0.59910 0.70362 -0.09699
 H525 H 0.62601 0.77229 -0.07041
 H526 H 0.64968 0.72714 -0.09293
 C527 C 0.40335 0.22793 -0.10957
 C528 C 0.37347 0.23145 -0.10465
 C529 C 0.37230 0.25082 -0.12763
 C530 C 0.40186 0.24729 -0.13286
 C531 C 0.40882 0.25110 -0.09118
 C532 C 0.40765 0.27047 -0.11415
 C533 C 0.37925 0.25463 -0.08594
 C534 C 0.37776 0.27399 -0.10923
 C535 C 0.35197 0.25060 -0.14792
 C536 C 0.33524 0.25037 -0.16461
 C537 C 0.42915 0.25120 -0.07089
 C538 C 0.44589 0.25122 -0.05420
 H539 H 0.41410 0.20899 -0.10948
 H540 H 0.35918 0.21540 -0.10098
 H541 H 0.41093 0.24428 -0.15239
 H542 H 0.42194 0.28652 -0.11783
 H543 H 0.37019 0.25764 -0.06642
 H544 H 0.36701 0.29293 -0.10933
 C545 C 0.37970 0.74771 0.08590
 C546 C 0.37709 0.72710 0.10800
 C547 C 0.37303 0.74941 0.12777
 C548 C 0.37532 0.77002 0.10598
 C549 C 0.40943 0.74918 0.09121
 C550 C 0.40537 0.77149 0.11098
 C551 C 0.40713 0.72856 0.11299
 C552 C 0.40276 0.75087 0.13308
 C553 C 0.35279 0.74955 0.14814
 C554 C 0.33615 0.74968 0.16493
 C555 C 0.42972 0.74907 0.07088
 C556 C 0.44643 0.74900 0.05417
 H557 H 0.37045 0.74641 0.06627
 H558 H 0.36522 0.70885 0.10701
 H559 H 0.36201 0.78707 0.10334
 H560 H 0.41723 0.78973 0.11197
 H561 H 0.42045 0.71152 0.11564
 H562 H 0.41201 0.75218 0.15270
 C563 C 0.62076 0.25357 0.08557
 C564 C 0.62244 0.27312 0.10869
 C565 C 0.62755 0.25004 0.12730
 C566 C 0.62619 0.23049 0.10450
 C567 C 0.59114 0.25048 0.09076
 C568 C 0.59625 0.22739 0.10937
 C569 C 0.59250 0.27003 0.11356
 C570 C 0.59793 0.24694 0.13249
 C571 C 0.64783 0.24977 0.14765
 C572 C 0.66451 0.24954 0.16438
 C573 C 0.57085 0.25068 0.07042
 C574 C 0.55415 0.25081 0.05370
 H575 H 0.62992 0.25630 0.06604
 H576 H 0.63345 0.29192 0.10865
 H577 H 0.64027 0.21423 0.10101
 H578 H 0.58525 0.20859 0.10942
 H579 H 0.57842 0.28629 0.11706
 H580 H 0.58877 0.24422 0.15202
 C581 C -0.10466 0.60281 0.77555
 C582 C -0.10128 0.63076 0.76418
 C583 C -0.12812 0.62805 0.75060
 C584 C -0.13183 0.60042 0.76197
 C585 C -0.09158 0.59156 0.75090
 C586 C -0.11842 0.58885 0.73732
 C587 C -0.08788 0.61919 0.73954
 C588 C -0.11503 0.61680 0.72596
 C589 C -0.14846 0.64837 0.75039
 C590 C -0.16520 0.66508 0.75016
 C591 C -0.07123 0.57124 0.75102
 C592 C -0.05449 0.55454 0.75107
 H593 H -0.10017 0.59683 0.79594
 H594 H -0.09446 0.64822 0.77522
 H595 H -0.15013 0.59294 0.77119
 H596 H -0.12524 0.57139 0.72628
 H597 H -0.06957 0.62667 0.73032
 H598 H -0.11953 0.62278 0.70556
 C599 C -0.11743 0.41044 0.23340
 C600 C -0.11307 0.38163 0.22490
 C601 C -0.12796 0.37250 0.24941
 C602 C -0.13263 0.40099 0.25792
 C603 C -0.09169 0.40927 0.24913
 C604 C -0.10658 0.40014 0.27365
 C605 C -0.08702 0.38077 0.24063
 C606 C -0.10222 0.37133 0.26515
 C607 C -0.14812 0.35200 0.24958
 C608 C -0.16469 0.33512 0.24971
 C609 C -0.07148 0.42972 0.24900
 C610 C -0.05481 0.44650 0.24890
 H611 H -0.12345 0.42676 0.22034
 H612 H -0.11598 0.37378 0.20485
 H613 H -0.15162 0.40907 0.26503
 H614 H -0.10368 0.40799 0.29370
 H615 H -0.06804 0.37269 0.23352
 H616 H -0.09620 0.35501 0.27820
 C617 C 0.10015 0.39475 0.72627
 C618 C 0.12901 0.39851 0.73534
 C619 C 0.12715 0.37266 0.75065
 C620 C 0.09861 0.36859 0.74157
 C621 C 0.09079 0.40933 0.75086
 C622 C 0.08893 0.38349 0.76616
 C623 C 0.11933 0.41340 0.75993
 C624 C 0.11778 0.38724 0.77524
 C625 C 0.14736 0.35222 0.75052
 C626 C 0.16398 0.33539 0.75039
 C627 C 0.07052 0.42973 0.75095
 C628 C 0.05382 0.44648 0.75100
 H629 H 0.09267 0.39808 0.70614
 H630 H 0.14572 0.40444 0.72267
 H631 H 0.09032 0.34994 0.73403
 H632 H 0.07221 0.37755 0.77883
 H633 H 0.12762 0.43206 0.76748
 H634 H 0.12527 0.38391 0.79536
 C635 C 0.08821 0.61823 0.23502
 C636 C 0.09940 0.63161 0.25984
 C637 C 0.12734 0.62792 0.24897
 C638 C 0.11647 0.61485 0.22414
 C639 C 0.09069 0.59153 0.24868
 C640 C 0.11864 0.58783 0.23781
 C641 C 0.10156 0.60460 0.27350
 C642 C 0.12982 0.60122 0.26263
 C643 C 0.14774 0.64818 0.24919
 C644 C 0.16452 0.66485 0.24944
 C645 C 0.07029 0.57126 0.24859
 C646 C 0.05351 0.55458 0.24857
 H647 H 0.07086 0.62498 0.22366
 H648 H 0.09172 0.64984 0.26890
 H649 H 0.12284 0.61930 0.20385
 H650 H 0.12631 0.56960 0.22875
 H651 H 0.09520 0.60015 0.29379
 H652 H 0.14717 0.59446 0.27399
 C653 C 0.75311 -0.12062 0.58569
 C654 C 0.77315 -0.12243 0.60846
 C655 C 0.75029 -0.12753 0.62746
 C656 C 0.73025 -0.12604 0.60501
 C657 C 0.75017 -0.09114 0.59105
 C658 C 0.72731 -0.09624 0.61005
 C659 C 0.77022 -0.09263 0.61350
 C660 C 0.74736 -0.09805 0.63282
 C661 C 0.75035 -0.14780 0.64773
 C662 C 0.75038 -0.16448 0.66439
 C663 C 0.75010 -0.07087 0.57078
 C664 C 0.75003 -0.05420 0.55410
 H665 H 0.75546 -0.12966 0.56609
 H666 H 0.79200 -0.13343 0.60804
 H667 H 0.71381 -0.14000 0.60175
 H668 H 0.70847 -0.08524 0.61047
 H669 H 0.78666 -0.07867 0.61676
 H670 H 0.74500 -0.08900 0.65242
 C671 C 0.23511 -0.08895 0.38339
 C672 C 0.25986 -0.09896 0.36877
 C673 C 0.25031 -0.12724 0.37283
 C674 C 0.22556 -0.11754 0.38713
 C675 C 0.25026 -0.09094 0.40933
 C676 C 0.24070 -0.11922 0.41338
 C677 C 0.27501 -0.10063 0.39503
 C678 C 0.26545 -0.12923 0.39876
 C679 C 0.25033 -0.14745 0.35251
 C680 C 0.25033 -0.16409 0.33581
 C681 C 0.25022 -0.07072 0.42964
 C682 C 0.25020 -0.05408 0.44634
 H683 H 0.22264 -0.07216 0.37731
 H684 H 0.26774 -0.09087 0.35020
 H685 H 0.20523 -0.12473 0.38365
 H686 H 0.23282 -0.12731 0.43195
 H687 H 0.29533 -0.09345 0.39851
 H688 H 0.27792 -0.14601 0.40485
 C689 C 0.77314 0.09695 0.39160
 C690 C 0.75426 0.09778 0.36781
 C691 C 0.74953 0.12706 0.37298
 C692 C 0.76841 0.12654 0.39646
 C693 C 0.74959 0.09064 0.40937
 C694 C 0.74486 0.11993 0.41454
 C695 C 0.73071 0.09116 0.38590
 C696 C 0.72598 0.12076 0.39075
 C697 C 0.74952 0.14732 0.35272
 C698 C 0.74952 0.16399 0.33604
 C699 C 0.74962 0.07037 0.42963
 C700 C 0.74967 0.05368 0.44629
 H701 H 0.79252 0.08692 0.39218
 H702 H 0.75813 0.08890 0.34836
 H703 H 0.78390 0.14132 0.40056
 H704 H 0.74099 0.12880 0.43399
 H705 H 0.71522 0.07638 0.38179
 H706 H 0.70660 0.13078 0.39017
 C707 C 0.25867 0.11934 0.58653
 C708 C 0.23407 0.12877 0.60176
 C709 C 0.24997 0.12733 0.62728
 C710 C 0.27457 0.11822 0.61236
 C711 C 0.24999 0.09084 0.59098
 C712 C 0.26589 0.08940 0.61650
 C713 C 0.22540 0.09995 0.60590
 C714 C 0.24130 0.09883 0.63174
 C715 C 0.24996 0.14764 0.64750
 C716 C 0.24994 0.16434 0.66415
 C717 C 0.25000 0.07052 0.57076
 C718 C 0.25002 0.05381 0.55413
 H719 H 0.26581 0.12753 0.56771
 H720 H 0.22099 0.14519 0.59594
 H721 H 0.29479 0.12596 0.61525
 H722 H 0.27898 0.07298 0.62232
 H723 H 0.20518 0.09221 0.60301
 H724 H 0.23415 0.09064 0.65055
   
