data_POSCAR
  _audit_creation_date              2014-09-24
  _audit_creation_method            'ToBaCCo'
  _symmetry_space_group_name_H-M    'P1'
  _symmetry_Int_Tables_number       1
  _symmetry_cell_setting            triclinic
  loop_
  _symmetry_equiv_pos_as_xyz
 x,y,z
_cell_length_a 27.7821
_cell_length_b 28.6618
_cell_length_c 25.2618
_cell_angle_alpha 88.210400
_cell_angle_beta 92.140400
_cell_angle_gamma 82.672400
loop_
  _atom_site_label
  _atom_site_type_symbol
  _atom_site_fract_x
  _atom_site_fract_y
  _atom_site_fract_z
C1 C 0.34565 0.32258 0.27485
 H2 H 0.33404 0.34152 0.30925
 C3 C 0.38244 0.33786 0.24518
 H4 H 0.39821 0.36884 0.25673
 C5 C 0.33885 0.26005 0.21703
 H6 H 0.32198 0.22963 0.20613
 C7 C 0.37555 0.27411 0.18630
 H8 H 0.38607 0.25509 0.15131
 N9 N 0.32336 0.28532 0.25933
 C10 C 0.17805 0.33125 0.27526
 H11 H 0.16793 0.30483 0.24909
 C12 C 0.14434 0.37067 0.28365
 H13 H 0.10887 0.37422 0.26360
 C14 C 0.23468 0.35774 0.33611
 H15 H 0.26880 0.35148 0.35867
 C16 C 0.20231 0.39773 0.34523
 H17 H 0.21208 0.42259 0.37390
 Zn18 Zn 0.26771 0.27024 0.29478
 N19 N 0.22245 0.32555 0.30124
 C20 C 0.24881 0.24206 0.39723
 N21 N 0.28557 0.24602 0.36404
 C22 C 0.33291 0.23631 0.38125
 C23 C 0.34467 0.22284 0.43436
 C24 C 0.25897 0.22891 0.45044
 C25 C 0.22356 0.23676 0.20438
 C26 C 0.19991 0.20585 0.17443
 C27 C 0.20651 0.15171 0.25039
 C28 C 0.23027 0.18363 0.27895
 N29 N 0.23774 0.22550 0.25583
 H30 H 0.21154 0.25067 0.38260
 H31 H 0.36150 0.24040 0.35425
 H32 H 0.38234 0.21758 0.44829
 H33 H 0.22949 0.22760 0.47708
 H34 H 0.23029 0.27010 0.18679
 H35 H 0.18827 0.21529 0.13369
 H36 H 0.20027 0.11876 0.26939
 H37 H 0.24234 0.17504 0.31964
 C38 C 0.15655 0.40424 0.31929
 C39 C 0.39666 0.31413 0.19944
 C40 C 0.19082 0.16313 0.19757
 C41 C 0.30719 0.21908 0.46943
 C42 C 0.71788 0.90066 0.21573
 H43 H 0.68276 0.91516 0.22879
 C44 C 0.75137 0.93110 0.20339
 H45 H 0.74134 0.96873 0.20611
 C46 C 0.77501 0.83448 0.19939
 H47 H 0.78414 0.79667 0.19886
 C48 C 0.81000 0.86396 0.18687
 H49 H 0.84596 0.84875 0.17655
 N50 N 0.72969 0.85328 0.21282
 C51 C 0.59451 0.85125 0.28481
 H52 H 0.60783 0.82802 0.31806
 C53 C 0.54838 0.87748 0.28626
 H54 H 0.52664 0.87354 0.32035
 C55 C 0.60324 0.87955 0.19705
 H56 H 0.62414 0.87907 0.16174
 C57 C 0.55795 0.90672 0.19723
 H58 H 0.54385 0.92697 0.16184
 Zn59 Zn 0.68167 0.81462 0.23216
 N60 N 0.62105 0.85294 0.24061
 C61 C 0.70310 0.80261 0.34238
 N62 N 0.70283 0.78005 0.29583
 C63 C 0.71441 0.73250 0.29454
 C64 C 0.72300 0.70538 0.34163
 C65 C 0.71016 0.77668 0.39043
 C66 C 0.69436 0.76173 0.13570
 C67 C 0.68130 0.72773 0.10092
 C68 C 0.61455 0.71597 0.15630
 C69 C 0.62924 0.74927 0.19023
 N70 N 0.66852 0.77133 0.17973
 H71 H 0.69444 0.84050 0.34231
 H72 H 0.71481 0.71527 0.25708
 H73 H 0.72852 0.66738 0.34014
 H74 H 0.70618 0.79452 0.42747
 H75 H 0.72524 0.77988 0.12776
 H76 H 0.70236 0.71955 0.06644
 H77 H 0.58344 0.69861 0.16596
 H78 H 0.60942 0.75744 0.22552
 C79 C 0.53010 0.90624 0.24213
 C80 C 0.79777 0.91285 0.18873
 C81 C 0.64088 0.70460 0.11112
 C82 C 0.71932 0.72753 0.39024
 C83 C 0.88161 0.25916 0.66262
 H84 H 0.91045 0.23161 0.67498
 C85 C 0.89217 0.29853 0.63316
 H86 H 0.92921 0.30101 0.62269
 C87 C 0.79833 0.29057 0.66212
 H88 H 0.76184 0.28724 0.67386
 C89 C 0.80737 0.33052 0.63341
 H90 H 0.77786 0.35809 0.62284
 N91 N 0.83516 0.25592 0.67613
 C92 C 0.73265 0.23486 0.77642
 H93 H 0.71433 0.21295 0.75043
 C94 C 0.70584 0.26364 0.81127
 H95 H 0.66701 0.26306 0.81242
 C96 C 0.80477 0.26508 0.80402
 H97 H 0.84309 0.26665 0.79940
 C98 C 0.77949 0.29376 0.84011
 H99 H 0.79833 0.31721 0.86370
 Zn100 Zn 0.81630 0.20640 0.71832
 N101 N 0.78111 0.23657 0.77297
 C102 C 0.87747 0.15976 0.80069
 N103 N 0.87014 0.16526 0.74714
 C104 C 0.89964 0.14000 0.71363
 C105 C 0.93898 0.10834 0.73378
 C106 C 0.91655 0.12889 0.82243
 C107 C 0.76795 0.18300 0.62426
 C108 C 0.73807 0.15820 0.59322
 C109 C 0.72855 0.10799 0.66969
 C110 C 0.75855 0.13390 0.69945
 N111 N 0.77685 0.17114 0.67662
 H112 H 0.85291 0.17896 0.82679
 H113 H 0.89245 0.14440 0.67126
 H114 H 0.96251 0.08851 0.70690
 H115 H 0.92249 0.12546 0.86508
 H116 H 0.78366 0.21195 0.60642
 H117 H 0.73023 0.16860 0.55190
 H118 H 0.71328 0.07916 0.68864
 H119 H 0.76670 0.12484 0.74100
 C120 C 0.72935 0.29413 0.84286
 C121 C 0.85452 0.33475 0.61864
 C122 C 0.71773 0.12063 0.61597
 C123 C 0.94748 0.10284 0.78872
 C124 C 0.35912 0.72395 0.71117
 H125 H 0.37261 0.68713 0.71795
 C126 C 0.38812 0.75368 0.68612
 H127 H 0.42379 0.73971 0.67362
 C128 C 0.29599 0.78721 0.71757
 H129 H 0.25973 0.79987 0.72932
 C130 C 0.32389 0.81817 0.69311
 H131 H 0.30881 0.85467 0.68619
 N132 N 0.31354 0.74089 0.72530
 C133 C 0.20325 0.70274 0.83146
 H134 H 0.19108 0.67387 0.81071
 C135 C 0.17705 0.72093 0.87374
 H136 H 0.14447 0.70654 0.88469
 C137 C 0.25915 0.75804 0.84183
 H138 H 0.29092 0.77264 0.82889
 C139 C 0.23430 0.77689 0.88505
 H140 H 0.24664 0.80654 0.90462
 Zn141 Zn 0.27147 0.69955 0.75244
 N142 N 0.24261 0.72230 0.81521
 C143 C 0.30851 0.61992 0.81696
 N144 N 0.30485 0.63869 0.76663
 C145 C 0.31783 0.61211 0.72458
 C146 C 0.33286 0.56398 0.73207
 C147 C 0.32336 0.57188 0.82616
 C148 C 0.20728 0.72546 0.66096
 C149 C 0.16867 0.71932 0.62568
 C150 C 0.15938 0.64712 0.67383
 C151 C 0.19820 0.65430 0.70759
 N152 N 0.22082 0.69337 0.70145
 H153 H 0.29710 0.64157 0.84963
 H154 H 0.31342 0.62776 0.68488
 H155 H 0.34037 0.54249 0.69811
 H156 H 0.32232 0.55687 0.86585
 H157 H 0.22605 0.75591 0.65594
 H158 H 0.15792 0.74495 0.59366
 H159 H 0.14192 0.61579 0.67977
 H160 H 0.21036 0.62847 0.73893
 C161 C 0.19203 0.75877 0.90036
 C162 C 0.37028 0.80113 0.67627
 C163 C 0.14397 0.68011 0.63249
 C164 C 0.33510 0.54335 0.78311
 C165 C 0.08785 0.04734 0.07079
 H166 H 0.07684 0.05723 0.03013
 C167 C 0.11365 0.07688 0.10032
 H168 H 0.12260 0.10907 0.08183
 C169 C 0.08853 -0.00579 0.14478
 H170 H 0.07829 -0.03805 0.16170
 C171 C 0.11449 0.02280 0.17579
 H172 H 0.12437 0.01266 0.21679
 N173 N 0.07624 0.00667 0.09315
 C174 C 0.05979 -0.12276 0.01359
 H175 H 0.02171 -0.11714 0.00134
 C176 C 0.09062 -0.15862 -0.00846
 H177 H 0.07567 -0.18108 -0.03672
 C178 C 0.12660 -0.09627 0.05961
 H179 H 0.14099 -0.07023 0.08342
 C180 C 0.15874 -0.13128 0.03791
 H181 H 0.19744 -0.13248 0.04593
 Zn182 Zn 0.04075 -0.03271 0.05260
 N183 N 0.07842 -0.09152 0.04540
 C184 C 0.07010 -0.00792 -0.04668
 N185 N 0.02997 -0.00657 -0.01722
 C186 C -0.01474 0.01130 -0.03793
 C187 C -0.01994 0.02996 -0.09001
 C188 C 0.06645 0.00993 -0.09882
 C189 C -0.03613 -0.07737 0.09949
 C190 C -0.07923 -0.07624 0.12703
 C191 C -0.08432 0.00852 0.12703
 C192 C -0.04202 0.00591 0.09890
 N193 N -0.01862 -0.03649 0.08599
 H194 H 0.10514 -0.02276 -0.02941
 H195 H -0.04629 0.01116 -0.01420
 H196 H -0.05568 0.04386 -0.10613
 H197 H 0.09868 0.00898 -0.12178
 H198 H -0.01649 -0.11078 0.08967
 H199 H -0.09268 -0.10879 0.13811
 H200 H -0.10213 0.04250 0.13793
 H201 H -0.02707 0.03779 0.08817
 C202 C 0.14101 -0.16150 0.00179
 C203 C 0.12732 0.06451 0.15348
 C204 C -0.10333 -0.03265 0.14139
 C205 C 0.02130 0.02966 -0.12073
 C206 C -0.00304 0.63312 0.48687
 H207 H -0.00903 0.64769 0.44680
 C208 C 0.02986 0.65116 0.52160
 H209 H 0.04868 0.67993 0.50835
 C210 C -0.01713 0.57559 0.55197
 H211 H -0.03449 0.54555 0.56376
 C212 C 0.01491 0.59273 0.58783
 H213 H 0.02205 0.57580 0.62676
 N214 N -0.02443 0.59483 0.50193
 C215 C -0.03774 0.51406 0.35904
 H216 H -0.07597 0.51017 0.35703
 C217 C -0.00538 0.48548 0.32884
 H218 H -0.01891 0.46022 0.30299
 C219 C 0.02762 0.54688 0.40013
 H220 H 0.04121 0.56821 0.43017
 C221 C 0.06095 0.51918 0.37081
 H222 H 0.09934 0.52096 0.37787
 Zn223 Zn -0.06013 0.56220 0.45253
 N224 N -0.02055 0.54246 0.39556
 C225 C -0.15824 0.57544 0.41805
 N226 N -0.12005 0.59902 0.43060
 C227 C -0.12707 0.64597 0.43959
 C228 C -0.17413 0.66994 0.44071
 C229 C -0.20583 0.59766 0.42090
 C230 C -0.04076 0.46677 0.48558
 C231 C -0.04805 0.42521 0.51261
 C232 C -0.12275 0.46521 0.54430
 C233 C -0.11376 0.50621 0.51723
 N234 N -0.07370 0.50609 0.48782
 H235 H -0.15196 0.53807 0.41164
 H236 H -0.09661 0.66411 0.45025
 H237 H -0.17940 0.70621 0.45235
 H238 H -0.23595 0.57734 0.41673
 H239 H -0.00838 0.46776 0.46339
 H240 H -0.02167 0.39412 0.51068
 H241 H -0.15487 0.46583 0.56738
 H242 H -0.13849 0.53827 0.52018
 C243 C 0.04467 0.48623 0.33676
 C244 C 0.03982 0.62977 0.57224
 C245 C -0.08952 0.42410 0.54194
 C246 C -0.21393 0.64495 0.43406
 C247 C 0.56873 0.04888 0.49836
 H248 H 0.55234 0.06698 0.46265
 C249 C 0.61021 0.06354 0.52202
 H250 H 0.62611 0.09219 0.50353
 C251 C 0.56491 -0.00697 0.56884
 H252 H 0.54596 -0.03292 0.58822
 C253 C 0.60638 0.00662 0.59379
 H254 H 0.61952 -0.00934 0.63189
 N255 N 0.54617 0.01519 0.52276
 C256 C 0.43694 -0.03094 0.41480
 H257 H 0.40863 -0.03161 0.44296
 C258 C 0.42967 -0.04644 0.36375
 H259 H 0.39537 -0.05823 0.35236
 C260 C 0.51533 -0.01323 0.39454
 H261 H 0.54853 0.00012 0.40656
 C262 C 0.50925 -0.02805 0.34256
 H263 H 0.53718 -0.02445 0.31455
 Zn264 Zn 0.48189 0.00856 0.49903
 N265 N 0.47887 -0.01401 0.42909
 C266 C 0.39943 0.07846 0.47779
 N267 N 0.44400 0.06862 0.50292
 C268 C 0.45973 0.09833 0.53884
 C269 C 0.42995 0.13888 0.55174
 C270 C 0.36828 0.11877 0.48987
 C271 C 0.47151 -0.08068 0.54635
 C272 C 0.44989 -0.11216 0.57845
 C273 C 0.39497 -0.04668 0.60764
 C274 C 0.41769 -0.01652 0.57545
 N275 N 0.45496 -0.03384 0.54524
 H276 H 0.38684 0.05377 0.45072
 H277 H 0.49422 0.08919 0.56017
 H278 H 0.44197 0.16090 0.58235
 H279 H 0.33176 0.12430 0.47242
 H280 H 0.50101 -0.09359 0.52173
 H281 H 0.46283 -0.14942 0.57844
 H282 H 0.36480 -0.03264 0.63083
 H283 H 0.40499 0.02070 0.57430
 C284 C 0.46588 -0.04516 0.32701
 C285 C 0.62837 0.04330 0.57130
 C286 C 0.41080 -0.09492 0.60915
 C287 C 0.38362 0.14927 0.52768
 C288 C 0.58977 0.54514 0.00097
 H289 H 0.61525 0.52126 -0.01959
 C290 C 0.60492 0.58566 0.02244
 H291 H 0.64213 0.59239 0.01878
 C292 C 0.51069 0.56532 0.03215
 H293 H 0.47417 0.55680 0.03645
 C294 C 0.52434 0.60583 0.05436
 H295 H 0.49834 0.62852 0.07591
 N296 N 0.54374 0.53499 0.00783
 C297 C 0.55057 0.41890 -0.09439
 H298 H 0.51305 0.42729 -0.10751
 C299 C 0.58011 0.38618 -0.12206
 H300 H 0.56556 0.37095 -0.15695
 C301 C 0.61452 0.42485 -0.03120
 H302 H 0.62708 0.43873 0.00541
 C303 C 0.64573 0.39239 -0.05836
 H304 H 0.68262 0.38208 -0.04315
 Zn305 Zn 0.52225 0.47719 -0.01155
 N306 N 0.56804 0.43806 -0.05009
 C307 C 0.46562 0.51266 -0.10261
 N308 N 0.46405 0.49000 -0.05463
 C309 C 0.42478 0.46877 -0.04160
 C310 C 0.38838 0.46415 -0.07982
 C311 C 0.42950 0.50933 -0.14194
 C312 C 0.50680 0.45997 0.09856
 C313 C 0.48866 0.43524 0.14032
 C314 C 0.48057 0.37129 0.08193
 C315 C 0.49886 0.39713 0.04138
 N316 N 0.50941 0.44147 0.04961
 H317 H 0.49736 0.52905 -0.11212
 H318 H 0.42331 0.45207 -0.00295
 H319 H 0.35948 0.44360 -0.07054
 H320 H 0.43349 0.52345 -0.18154
 H321 H 0.51648 0.49470 0.10485
 H322 H 0.48390 0.45126 0.17834
 H323 H 0.46960 0.33725 0.07372
 H324 H 0.50171 0.38304 0.00223
 C325 C 0.62802 0.37272 -0.10428
 C326 C 0.57207 0.61575 0.05070
 C327 C 0.47368 0.39126 0.13155
 C328 C 0.39146 0.48310 -0.13096
 N329 N 0.16071 -0.21844 -0.06201
 N330 N 0.17459 -0.18884 -0.03024
 N331 N 0.12223 0.44280 0.33378
 N332 N 0.07809 0.44929 0.31670
 N333 N 0.48068 -0.07161 0.23704
 N334 N 0.45344 -0.05356 0.27276
 N335 N 0.70254 0.32795 -0.12531
 N336 N 0.65701 0.33864 -0.13360
 N337 N -0.01684 0.07541 -0.19236
 N338 N 0.01869 0.04902 -0.17392
 N339 N -0.28647 0.70079 0.43792
 N340 N -0.25976 0.66319 0.45439
 N341 N 0.31656 0.21309 0.52559
 N342 N 0.35058 0.18543 0.54984
 N343 N 0.34027 0.49301 -0.21133
 N344 N 0.36164 0.46766 -0.17279
 N345 N -0.17206 -0.05909 0.17959
 N346 N -0.14570 -0.02818 0.17234
 N347 N -0.13707 0.37662 0.59011
 N348 N -0.09685 0.38131 0.56946
 N349 N 0.39861 -0.16926 0.64714
 N350 N 0.38493 -0.12535 0.64012
 N351 N 0.42831 0.33255 0.16301
 N352 N 0.44655 0.37040 0.17094
 N353 N 0.16513 0.13259 0.16671
 N354 N 0.15353 0.09401 0.18538
 N355 N 0.10451 0.67319 0.59663
 N356 N 0.07778 0.64149 0.60709
 N357 N 0.68395 0.09823 0.58461
 N358 N 0.66513 0.06272 0.60167
 N359 N 0.62791 0.66859 0.07701
 N360 N 0.58666 0.65393 0.08004
   
