data_POSCAR
  _audit_creation_date              2014-09-24
  _audit_creation_method            'ToBaCCo'
  _symmetry_space_group_name_H-M    'P1'
  _symmetry_Int_Tables_number       1
  _symmetry_cell_setting            triclinic
  loop_
  _symmetry_equiv_pos_as_xyz
 x,y,z
_cell_length_a 23.0630
_cell_length_b 23.0715
_cell_length_c 23.0314
_cell_angle_alpha 89.974300
_cell_angle_beta 89.972800
_cell_angle_gamma 89.852500
loop_
  _atom_site_label
  _atom_site_type_symbol
  _atom_site_fract_x
  _atom_site_fract_y
  _atom_site_fract_z
C1 C 0.15605 0.19641 0.24157
 C2 C 0.15567 0.23963 0.19870
 C3 C 0.19798 0.23992 0.15605
 C4 C 0.24120 0.19709 0.15565
 C5 C 0.24165 0.15440 0.19786
 C6 C 0.19877 0.15409 0.24116
 C7 C 0.12109 0.18609 0.28897
 N8 N 0.14170 0.13866 0.31727
 C9 C 0.18911 0.11875 0.28833
 C10 C 0.28907 0.11944 0.18723
 N11 N 0.31723 0.14015 0.13972
 C12 C 0.28822 0.18757 0.12009
 C13 C 0.18765 0.28717 0.12105
 N14 N 0.14023 0.31544 0.14151
 C15 C 0.12026 0.28679 0.18892
 H16 H 0.08377 0.21148 0.30211
 H17 H 0.21497 0.08155 0.30089
 H18 H 0.30231 0.08205 0.21245
 H19 H 0.30060 0.21351 0.08291
 H20 H 0.21296 0.30028 0.08369
 H21 H 0.08299 0.29957 0.21455
 C22 C -0.15623 0.80403 0.24080
 C23 C -0.15628 0.76082 0.19802
 C24 C -0.19879 0.76064 0.15574
 C25 C -0.24181 0.80361 0.15568
 C26 C -0.24197 0.84635 0.19793
 C27 C -0.19874 0.84658 0.24094
 C28 C -0.12071 0.81402 0.28759
 N29 N -0.14051 0.86150 0.31633
 C30 C -0.18821 0.88187 0.28817
 C31 C -0.28945 0.88132 0.18741
 N32 N -0.31773 0.86057 0.13999
 C33 C -0.28884 0.81315 0.12033
 C34 C -0.18888 0.71329 0.12073
 N35 N -0.14146 0.68484 0.14093
 C36 C -0.12110 0.71352 0.18812
 H37 H -0.08337 0.78829 0.30003
 H38 H -0.21355 0.91924 0.30122
 H39 H -0.30259 0.91877 0.21257
 H40 H -0.30133 0.78720 0.08321
 H41 H -0.21450 0.70021 0.08361
 H42 H -0.08376 0.70063 0.21355
 C43 C -0.15448 0.19648 -0.24045
 C44 C -0.15482 0.23948 -0.19743
 C45 C -0.19739 0.23943 -0.15503
 C46 C -0.24020 0.19634 -0.15512
 C47 C -0.23984 0.15395 -0.19769
 C48 C -0.19670 0.15398 -0.24065
 C49 C -0.11911 0.18663 -0.28753
 N50 N -0.13889 0.13924 -0.31632
 C51 C -0.18632 0.11886 -0.28796
 C52 C -0.28693 0.11881 -0.18792
 N53 N -0.31580 0.13886 -0.14054
 C54 C -0.28754 0.18621 -0.12006
 C55 C -0.18768 0.28673 -0.11993
 N56 N -0.14042 0.31529 -0.14016
 C57 C -0.11995 0.28678 -0.18746
 H58 H -0.08195 0.21236 -0.30015
 H59 H -0.21163 0.08159 -0.30099
 H60 H -0.29948 0.08164 -0.21369
 H61 H -0.30069 0.21169 -0.08281
 H62 H -0.21333 0.29972 -0.08273
 H63 H -0.08272 0.29978 -0.21294
 C64 C 0.15446 0.80323 -0.23942
 C65 C 0.15477 0.76039 -0.19634
 C66 C 0.19724 0.76050 -0.15387
 C67 C 0.24005 0.80367 -0.15403
 C68 C 0.23960 0.84602 -0.19668
 C69 C 0.19656 0.84581 -0.23962
 C70 C 0.11933 0.81268 -0.28670
 N71 N 0.13920 0.85994 -0.31559
 C72 C 0.18636 0.88065 -0.28711
 C73 C 0.28662 0.88126 -0.18719
 N74 N 0.31564 0.86134 -0.13990
 C75 C 0.28750 0.81395 -0.11919
 C76 C 0.18738 0.71315 -0.11880
 N77 N 0.14014 0.68467 -0.13919
 C78 C 0.11986 0.71318 -0.18651
 H79 H 0.08238 0.78673 -0.29944
 H80 H 0.21171 0.91787 -0.30028
 H81 H 0.29907 0.91837 -0.21314
 H82 H 0.30082 0.78853 -0.08194
 H83 H 0.21286 0.70010 -0.08152
 H84 H 0.08272 0.70022 -0.21210
 C85 C 0.19632 1.15562 0.76001
 C86 C 0.23941 1.15592 0.80281
 C87 C 0.23941 1.19849 0.84501
 C88 C 0.19622 1.24131 0.84491
 C89 C 0.15358 1.24122 0.80255
 C90 C 0.15366 1.19796 0.75967
 C91 C 0.18675 1.12008 0.71321
 N92 N 0.13939 1.13980 0.68428
 C93 C 0.11869 1.18740 0.71231
 C94 C 0.11837 1.28855 0.81271
 N95 N 0.13886 1.31702 0.86007
 C96 C 0.18635 1.28841 0.88002
 C97 C 0.28694 1.18884 0.87991
 N98 N 0.31553 1.14153 0.85962
 C99 C 0.28683 1.12101 0.81257
 H100 H 0.21270 1.08289 0.70083
 H101 H 0.08133 1.21267 0.69902
 H102 H 0.08096 1.30146 0.78735
 H103 H 0.21215 1.30115 0.91716
 H104 H 0.30006 1.21455 0.91694
 H105 H 0.29984 1.08375 0.78708
 C106 C 0.80332 0.84465 0.75831
 C107 C 0.76009 0.84465 0.80116
 C108 C 0.75995 0.80218 0.84362
 C109 C 0.80297 0.75918 0.84384
 C110 C 0.84566 0.75900 0.80161
 C111 C 0.84578 0.80207 0.75851
 C112 C 0.81352 0.87990 0.71110
 N113 N 0.86100 0.85956 0.68270
 C114 C 0.88106 0.81207 0.71138
 C115 C 0.88076 0.71162 0.81206
 N116 N 0.86013 0.68332 0.85952
 C117 C 0.81263 0.71214 0.87924
 C118 C 0.71258 0.81206 0.87860
 N119 N 0.68409 0.85938 0.85828
 C120 C 0.71273 0.87973 0.81102
 H121 H 0.78800 0.91719 0.69814
 H122 H 0.91835 0.78639 0.69869
 H123 H 0.91820 0.69855 0.78681
 H124 H 0.78671 0.69961 0.91639
 H125 H 0.69951 0.78651 0.91580
 H126 H 0.69977 0.91699 0.78550
 C127 C 0.19616 0.84609 1.23959
 C128 C 0.23894 0.84594 1.19645
 C129 C 0.23883 0.80350 1.15404
 C130 C 0.19585 0.76063 1.15434
 C131 C 0.15351 0.76085 1.19699
 C132 C 0.15364 0.80390 1.23988
 C133 C 0.18680 0.88108 1.28693
 N134 N 0.13964 0.86107 1.31588
 C135 C 0.11888 0.81395 1.28743
 C136 C 0.11857 0.71356 1.18753
 N137 N 0.13883 0.68483 1.14031
 C138 C 0.18597 0.71320 1.11960
 C139 C 0.28605 0.81330 1.11884
 N140 N 0.31453 0.86055 1.13909
 C141 C 0.28612 0.88088 1.18647
 H142 H 0.21274 0.91803 1.29966
 H143 H 0.08177 0.78850 1.30071
 H144 H 0.08153 0.70064 1.21335
 H145 H 0.21145 0.69993 1.08239
 H146 H 0.29905 0.78775 1.08159
 H147 H 0.29914 0.91804 1.21199
 C148 C 0.80345 1.15382 1.24127
 C149 C 0.76036 1.15375 1.19827
 C150 C 0.76018 1.19624 1.15576
 C151 C 0.80288 1.23930 1.15567
 C152 C 0.84536 1.23936 1.19803
 C153 C 0.84567 1.19638 1.24101
 C154 C 0.81389 1.11882 1.28866
 N155 N 0.86132 1.13934 1.31688
 C156 C 0.88107 1.18667 1.28801
 C157 C 0.88015 1.28669 1.18810
 N158 N 0.85963 1.31519 1.14083
 C159 C 0.81247 1.28661 1.12057
 C160 C 0.71312 1.18631 1.12057
 N161 N 0.68480 1.13896 1.14073
 C162 C 0.71324 1.11862 1.18817
 H163 H 0.78865 1.08153 1.30181
 H164 H 0.91819 1.21247 1.30053
 H165 H 0.91731 1.29976 1.21361
 H166 H 0.78681 1.29960 1.08339
 H167 H 0.70014 1.21185 1.08330
 H168 H 0.70033 1.08132 1.21359
 N169 N 0.43798 0.89824 0.93614
 N170 N 0.39295 0.86356 0.92942
 N171 N 0.56040 0.93752 0.89597
 N172 N 0.60507 0.93084 0.86074
 N173 N 0.56024 0.89718 0.93624
 N174 N 0.60484 0.86179 0.92962
 N175 N 0.43851 0.93867 0.89605
 N176 N 0.39118 0.93187 0.85917
 C177 C 0.36489 0.88471 0.88215
 C178 C 0.63210 0.88343 0.88232
 N179 N 0.56218 1.10215 0.93633
 N180 N 0.60730 1.13670 0.92940
 N181 N 0.43941 1.06333 0.89636
 N182 N 0.39451 1.07008 0.86149
 N183 N 0.43991 1.10370 0.93657
 N184 N 0.39529 1.13913 0.93031
 N185 N 0.56124 1.06196 0.89604
 N186 N 0.60840 1.06869 0.85889
 Mn187 Mn 0.49986 1.00038 0.89547
 C188 C 0.63501 1.11562 0.88184
 C189 C 0.36769 1.11754 0.88325
 N190 N 0.55989 0.89693 1.06138
 N191 N 0.60709 0.85987 1.06874
 N192 N 0.43815 0.93822 1.10145
 N193 N 0.39356 0.93166 1.13678
 N194 N 0.43804 0.89805 1.06103
 N195 N 0.39343 0.86295 1.06760
 N196 N 0.56032 0.93703 1.10181
 N197 N 0.60511 0.93014 1.13694
 Mn198 Mn 0.49907 0.89688 0.99869
 C199 C 0.63316 0.88275 1.11616
 C200 C 0.36635 0.88455 1.11500
 N201 N 0.43994 1.10358 1.06151
 N202 N 0.39283 1.14082 1.06876
 N203 N 0.56122 1.06176 1.10202
 N204 N 0.60552 1.06808 1.13773
 N205 N 0.56187 1.10193 1.06156
 N206 N 0.60655 1.13684 1.06856
 N207 N 0.43903 1.06322 1.10171
 N208 N 0.39408 1.07019 1.13667
 Mn209 Mn 0.50102 1.10357 0.99899
 Mn210 Mn 0.49964 1.00005 1.10249
 Cl211 Cl 0.49990 1.00023 0.99894
 C212 C 0.36636 1.11784 1.11595
 C213 C 0.63312 1.11508 1.11621
 N214 N -0.10327 0.43899 0.06295
 N215 N -0.13831 0.39430 0.06948
 N216 N -0.06337 0.56102 0.10332
 N217 N -0.07007 0.60565 0.13858
 N218 N -0.10359 0.56106 0.06294
 N219 N -0.13889 0.60573 0.06951
 N220 N -0.06309 0.43904 0.10336
 N221 N -0.06953 0.39440 0.13860
 C222 C -0.11663 0.36718 0.11685
 C223 C -0.11736 0.63287 0.11688
 N224 N 0.10170 0.56079 0.06318
 N225 N 0.13675 0.60544 0.06953
 N226 N 0.06162 0.43886 0.10352
 N227 N 0.06844 0.39435 0.13895
 N228 N 0.10187 0.43883 0.06315
 N229 N 0.13732 0.39432 0.06988
 N230 N 0.06139 0.56091 0.10348
 N231 N 0.06779 0.60570 0.13853
 Mn232 Mn -0.00088 0.49997 0.10413
 C233 C 0.11501 0.63275 0.11671
 C234 C 0.11584 0.36723 0.11733
 N235 N -0.10349 0.56085 -0.06207
 N236 N -0.14055 0.60803 -0.06939
 N237 N -0.06286 0.43908 -0.10248
 N238 N -0.06935 0.39448 -0.13778
 N239 N -0.10310 0.43895 -0.06206
 N240 N -0.13820 0.39432 -0.06868
 N241 N -0.06322 0.56136 -0.10237
 N242 N -0.07007 0.60622 -0.13748
 Mn243 Mn -0.10406 0.49996 0.00044
 C244 C -0.11757 0.63422 -0.11671
 C245 C -0.11653 0.36724 -0.11609
 N246 N 0.10216 0.43933 -0.06175
 N247 N 0.13923 0.39218 -0.06893
 N248 N 0.06186 0.56118 -0.10206
 N249 N 0.06870 0.60584 -0.13724
 N250 N 0.10196 0.56103 -0.06155
 N251 N 0.13730 0.60550 -0.06794
 N252 N 0.06212 0.43895 -0.10224
 N253 N 0.06909 0.39412 -0.13732
 Mn254 Mn 0.10257 0.49997 0.00076
 Mn255 Mn -0.00053 0.50016 -0.10307
 Cl256 Cl -0.00074 0.50001 0.00054
 C257 C 0.11646 0.36610 -0.11633
 C258 C 0.11594 0.63279 -0.11532
 N259 N 1.06377 0.10172 0.56199
 N260 N 1.07039 0.13699 0.60670
 N261 N 1.10491 0.06134 0.44030
 N262 N 1.14208 0.06811 0.39312
 N263 N 1.06475 0.10173 0.43939
 N264 N 1.07179 0.13645 0.39426
 N265 N 1.10359 0.06101 0.56216
 N266 N 1.14027 0.06827 0.60957
 C267 C 1.11738 0.11592 0.63523
 C268 C 1.11930 0.11529 0.36652
 N269 N 1.06371 -0.10265 0.43853
 N270 N 1.07018 -0.13684 0.39299
 N271 N 1.10297 -0.06374 0.56193
 N272 N 1.13725 -0.07055 0.60736
 N273 N 1.06287 -0.10396 0.56062
 N274 N 1.06936 -0.14094 0.60800
 N275 N 1.10429 -0.06293 0.43991
 N276 N 1.14113 -0.06951 0.39247
 Mn277 Mn 1.10457 -0.00110 0.50116
 C278 C 1.11773 -0.11596 0.36542
 C279 C 1.11612 -0.11794 0.63497
 N280 N 0.93961 0.10256 0.43925
 N281 N 0.93252 0.13955 0.39199
 N282 N 0.89876 0.06248 0.56159
 N283 N 0.86376 0.06950 0.60656
 N284 N 0.93915 0.10250 0.56104
 N285 N 0.93203 0.13950 0.60826
 N286 N 0.89888 0.06289 0.43903
 N287 N 0.86385 0.06995 0.39417
 Mn288 Mn 1.00182 0.10283 0.50034
 C289 C 0.88499 0.11704 0.36599
 C290 C 0.88473 0.11681 0.63454
 N291 N 0.93847 -0.10340 0.55993
 N292 N 0.93149 -0.14069 0.60692
 N293 N 0.89827 -0.06207 0.43820
 N294 N 0.86279 -0.06886 0.39360
 N295 N 0.93883 -0.10210 0.43809
 N296 N 0.93120 -0.13902 0.39094
 N297 N 0.89827 -0.06302 0.56094
 N298 N 0.86346 -0.07010 0.60602
 Mn299 Mn 1.00096 -0.10366 0.49921
 Mn300 Mn 0.89770 0.00009 0.50002
 Cl301 Cl 1.00119 -0.00043 0.50018
 C302 C 0.88440 -0.11783 0.63357
 C303 C 0.88356 -0.11614 0.36524
   
