data_POSCAR
  _audit_creation_date              2014-09-24
  _audit_creation_method            'ToBaCCo'
  _symmetry_space_group_name_H-M    'P1'
  _symmetry_Int_Tables_number       1
  _symmetry_cell_setting            triclinic
  loop_
  _symmetry_equiv_pos_as_xyz
 x,y,z
_cell_length_a 26.6713
_cell_length_b 16.1175
_cell_length_c 16.6545
_cell_angle_alpha 89.704200
_cell_angle_beta 89.363300
_cell_angle_gamma 91.690800
loop_
  _atom_site_label
  _atom_site_type_symbol
  _atom_site_fract_x
  _atom_site_fract_y
  _atom_site_fract_z
O1 O 0.03740 0.12034 0.19249
 O2 O 0.10639 0.06511 0.13193
 C3 C 0.08528 0.10772 0.18814
 O4 O -0.08382 -0.18323 0.08086
 O5 O -0.12944 -0.09508 0.00344
 C6 C -0.12507 -0.16137 0.04698
 O7 O 0.04887 -0.16076 0.15311
 O8 O 0.11283 -0.07287 0.11089
 C9 C 0.09549 -0.13474 0.15423
 O10 O -0.09758 0.11437 0.12801
 O11 O -0.13499 0.04381 0.02437
 C12 C -0.13664 0.09178 0.08644
 Zr13 Zr -0.02115 0.08242 0.11429
 O14 O -0.04733 0.05808 0.23283
 O15 O -0.02166 0.21185 0.13538
 Zr16 Zr -0.01210 -0.12320 0.08306
 O17 O -0.03930 -0.15007 0.20047
 O18 O 0.00032 -0.25105 0.06548
 O19 O 0.02388 -0.01932 0.13277
 O20 O -0.06099 -0.02712 0.09445
 O21 O -0.04996 0.16698 -0.13718
 O22 O -0.11240 0.07182 -0.10407
 C23 C -0.09588 0.13865 -0.14073
 O24 O 0.09825 -0.10956 -0.13065
 O25 O 0.13547 -0.04576 -0.02296
 C26 C 0.13733 -0.08810 -0.08889
 O27 O -0.03728 -0.13206 -0.18287
 O28 O -0.10581 -0.07265 -0.12520
 C29 C -0.08507 -0.11931 -0.17859
 O30 O 0.08529 0.17455 -0.08515
 O31 O 0.12981 0.09040 -0.00210
 C32 C 0.12623 0.15335 -0.05022
 Zr33 Zr 0.01270 0.11908 -0.07874
 O34 O 0.03238 0.13229 -0.20150
 O35 O 0.01220 0.24922 -0.06261
 Zr36 Zr 0.02154 -0.08633 -0.10955
 O37 O 0.03795 -0.06321 -0.23241
 O38 O 0.03246 -0.21492 -0.12493
 Zr39 Zr 0.07249 0.00459 0.03398
 Zr40 Zr -0.07193 -0.00839 -0.02929
 O41 O -0.02269 0.01536 -0.12672
 O42 O 0.06286 0.02340 -0.09008
 O43 O -0.04803 0.11313 0.00126
 O44 O 0.04754 -0.11601 0.00306
 O45 O 0.03710 0.11954 0.03839
 O46 O -0.03779 -0.12470 -0.03451
 H47 H -0.09044 -0.03824 0.13009
 H48 H 0.07155 -0.16170 0.00561
 H49 H -0.03671 0.02197 -0.18115
 H50 H 0.05645 0.16990 0.05490
 H51 H -0.02118 -0.27001 0.02078
 H52 H 0.00067 -0.24459 -0.11017
 H53 H 0.06205 -0.01537 -0.23505
 H54 H 0.03319 0.19269 -0.21297
 H55 H -0.01808 0.26138 -0.03050
 H56 H -0.04549 0.23613 0.09739
 H57 H -0.02143 0.02629 0.26058
 H58 H -0.02095 -0.11272 0.23759
 O59 O 0.59730 0.65653 0.58442
 O60 O 0.63418 0.56639 0.49739
 C61 C 0.63627 0.62702 0.54824
 O62 O 0.44972 0.38141 0.68555
 O63 O 0.38844 0.45761 0.62672
 C64 C 0.40426 0.40812 0.68174
 O65 O 0.58781 0.37503 0.63188
 O66 O 0.62951 0.43111 0.52229
 C67 C 0.62833 0.38963 0.58916
 O68 O 0.46097 0.68085 0.63494
 O69 O 0.39302 0.59789 0.60201
 C70 C 0.41337 0.66136 0.63810
 Zr71 Zr 0.52062 0.62028 0.57676
 O72 O 0.53923 0.63103 0.69939
 O73 O 0.53081 0.74947 0.55675
 Zr74 Zr 0.51325 0.41360 0.61178
 O75 O 0.53244 0.44326 0.73124
 O76 O 0.51405 0.28442 0.63480
 O77 O 0.56240 0.51415 0.58983
 O78 O 0.47732 0.52455 0.62654
 O79 O 0.41304 0.63647 0.36885
 O80 O 0.37128 0.57607 0.47607
 C81 C 0.37267 0.62166 0.41194
 O82 O 0.53743 0.32954 0.35011
 O83 O 0.60596 0.40731 0.38991
 C84 C 0.58518 0.34811 0.34842
 O85 O 0.40305 0.33998 0.41777
 O86 O 0.36558 0.43479 0.49915
 C87 C 0.36396 0.37018 0.45303
 O88 O 0.54871 0.61217 0.30403
 O89 O 0.61071 0.54050 0.36627
 C90 C 0.59425 0.58571 0.30835
 Zr91 Zr 0.48657 0.58938 0.38365
 O92 O 0.46327 0.56387 0.26523
 O93 O 0.49569 0.71811 0.35970
 Zr94 Zr 0.47910 0.38190 0.41882
 O95 O 0.45388 0.35968 0.30071
 O96 O 0.48029 0.25261 0.44176
 Zr97 Zr 0.57118 0.49229 0.46612
 Zr98 Zr 0.42840 0.51010 0.52929
 O99 O 0.43866 0.48849 0.40583
 O100 O 0.52297 0.47786 0.36765
 O101 O 0.46122 0.62611 0.49660
 O102 O 0.53753 0.37747 0.49925
 O103 O 0.54601 0.61450 0.45924
 O104 O 0.45253 0.38700 0.53692
 H105 H 0.46332 0.53497 0.68079
 H106 H 0.55806 0.32724 0.49758
 H107 H 0.40914 0.48369 0.37036
 H108 H 0.56974 0.65960 0.44156
 H109 H 0.48278 0.25988 0.61259
 H110 H 0.45462 0.23945 0.48361
 H111 H 0.47035 0.40255 0.26589
 H112 H 0.46236 0.61830 0.23742
 H113 H 0.47440 0.74740 0.39871
 H114 H 0.50106 0.76811 0.52755
 H115 H 0.54464 0.69116 0.70941
 H116 H 0.53376 0.38959 0.76032
 C117 C 0.20112 0.18407 0.29727
 C118 C 0.18019 0.23156 0.35648
 C119 C 0.12860 0.23857 0.36597
 C120 C 0.09742 0.19560 0.31173
 C121 C 0.11816 0.14705 0.24925
 C122 C 0.17094 0.14066 0.24304
 O123 O 0.25085 0.18884 0.29575
 C124 C 0.26163 0.24066 0.35514
 C125 C 0.21980 0.26868 0.39434
 C126 C 0.22265 0.32691 0.45564
 C127 C 0.27047 0.35814 0.47665
 C128 C 0.31423 0.33098 0.43626
 C129 C 0.30942 0.27029 0.37537
 H130 H 0.11293 0.27708 0.41242
 H131 H 0.05723 0.20170 0.31754
 H132 H 0.18829 0.10521 0.19577
 H133 H 0.18921 0.34894 0.48501
 H134 H 0.27320 0.40471 0.52315
 H135 H 0.34170 0.24900 0.34224
 C136 C 0.74680 0.76012 0.11437
 C137 C 0.75245 0.67603 0.10555
 C138 C 0.79572 0.64224 0.07386
 C139 C 0.83518 0.69720 0.05151
 C140 C 0.83051 0.78400 0.06031
 C141 C 0.78527 0.81616 0.09051
 O142 O 0.70522 0.77852 0.15448
 C143 C 0.68431 0.70451 0.17154
 C144 C 0.71176 0.63988 0.14252
 C145 C 0.69995 0.55722 0.16026
 C146 C 0.65887 0.54041 0.21145
 C147 C 0.63048 0.60571 0.24348
 C148 C 0.64253 0.68895 0.22169
 H149 H 0.79980 0.57577 0.06980
 H150 H 0.86994 0.67221 0.02941
 H151 H 0.78165 0.88207 0.10058
 H152 H 0.72286 0.50762 0.13842
 H153 H 0.65022 0.47666 0.22872
 H154 H 0.62258 0.73989 0.24795
 C155 C 0.78675 0.22153 0.76425
 C156 C 0.80838 0.27615 0.70949
 C157 C 0.85981 0.28865 0.70093
 C158 C 0.89055 0.24295 0.75094
 C159 C 0.86970 0.18546 0.80805
 C160 C 0.81680 0.17442 0.81453
 O161 O 0.73684 0.22072 0.76284
 C162 C 0.72705 0.27593 0.70579
 C163 C 0.76973 0.31108 0.67136
 C164 C 0.76887 0.37011 0.61059
 C165 C 0.72199 0.39425 0.58382
 C166 C 0.67692 0.35989 0.61826
 C167 C 0.67962 0.29972 0.68049
 H168 H 0.87576 0.33233 0.65742
 H169 H 0.93077 0.25218 0.74450
 H170 H 0.79969 0.13152 0.85771
 H171 H 0.80312 0.39685 0.58476
 H172 H 0.72102 0.44075 0.53677
 H173 H 0.64608 0.27235 0.70810
 C174 C 0.23849 0.80584 0.79280
 C175 C 0.28086 0.84225 0.82520
 C176 C 0.27902 0.90067 0.88622
 C177 C 0.23154 0.92265 0.91480
 C178 C 0.18713 0.88677 0.88161
 C179 C 0.19095 0.82738 0.81962
 O180 O 0.24840 0.75061 0.73642
 C181 C 0.29815 0.75235 0.73299
 C182 C 0.31983 0.80766 0.78578
 C183 C 0.37147 0.81950 0.79195
 C184 C 0.40201 0.77201 0.74200
 C185 C 0.38060 0.71356 0.68767
 C186 C 0.32774 0.70407 0.68321
 H187 H 0.31291 0.92813 0.91113
 H188 H 0.22949 0.96814 0.96225
 H189 H 0.15798 0.79831 0.79323
 H190 H 0.38768 0.86346 0.83394
 H191 H 0.44232 0.78001 0.74666
 H192 H 0.31006 0.66026 0.64250
 C193 C 0.25284 0.22972 0.87476
 C194 C 0.24873 0.31351 0.88792
 C195 C 0.20711 0.34745 0.92478
 C196 C 0.16766 0.29295 0.94793
 C197 C 0.17080 0.20657 0.93468
 C198 C 0.21437 0.17408 0.89910
 O199 O 0.29297 0.21166 0.83086
 C200 C 0.31447 0.28564 0.81577
 C201 C 0.28880 0.34983 0.84969
 C202 C 0.30131 0.43284 0.83515
 C203 C 0.34135 0.45062 0.78227
 C204 C 0.36804 0.38584 0.74566
 C205 C 0.35526 0.30207 0.76392
 H206 H 0.20422 0.41379 0.93240
 H207 H 0.13403 0.31805 0.97421
 H208 H 0.21660 0.10862 0.88575
 H209 H 0.27972 0.48212 0.86090
 H210 H 0.35066 0.51489 0.76766
 H211 H 0.37400 0.25177 0.73431
 C212 C 0.79918 0.80158 0.71445
 C213 C 0.82019 0.75601 0.65384
 C214 C 0.87177 0.74980 0.64378
 C215 C 0.90286 0.79200 0.69861
 C216 C 0.88201 0.83913 0.76201
 C217 C 0.82925 0.84412 0.76930
 O218 O 0.74948 0.79722 0.71551
 C219 C 0.73881 0.74772 0.65432
 C220 C 0.78066 0.72076 0.61444
 C221 C 0.77783 0.66594 0.55030
 C222 C 0.72996 0.63712 0.52702
 C223 C 0.68620 0.66320 0.56812
 C224 C 0.69102 0.72028 0.63210
 H225 H 0.88751 0.71302 0.59604
 H226 H 0.94308 0.78720 0.69193
 H227 H 0.81189 0.87860 0.81724
 H228 H 0.81128 0.64500 0.52013
 H229 H 0.72715 0.59346 0.47797
 H230 H 0.65870 0.74079 0.66563
 C231 C 0.21102 0.79535 0.24937
 C232 C 0.19060 0.73633 0.30069
 C233 C 0.13960 0.71810 0.30635
 C234 C 0.10789 0.76212 0.25655
 C235 C 0.12718 0.82481 0.20271
 C236 C 0.18000 0.84198 0.20036
 O237 O 0.26098 0.79933 0.25113
 C238 C 0.27202 0.74157 0.30507
 C239 C 0.23000 0.70209 0.33731
 C240 C 0.23196 0.63914 0.39397
 C241 C 0.27927 0.61524 0.41856
 C242 C 0.32383 0.65345 0.38589
 C243 C 0.32005 0.71792 0.32806
 H244 H 0.12473 0.67052 0.34688
 H245 H 0.06809 0.74704 0.26088
 H246 H 0.19680 0.88808 0.15997
 H247 H 0.19821 0.60897 0.41803
 H248 H 0.28089 0.56532 0.46214
 H249 H 0.35315 0.74806 0.30169
 C250 C 0.76131 0.20535 0.19594
 C251 C 0.71925 0.17053 0.16103
 C252 C 0.72166 0.11106 0.10114
 C253 C 0.76937 0.08626 0.07642
 C254 C 0.81350 0.12066 0.11199
 C255 C 0.80912 0.18135 0.17263
 O256 O 0.75078 0.26055 0.25202
 C257 C 0.70102 0.26038 0.25263
 C258 C 0.67985 0.20628 0.19826
 C259 C 0.62825 0.19532 0.19002
 C260 C 0.59720 0.24212 0.23988
 C261 C 0.61812 0.29877 0.29630
 C262 C 0.67096 0.30778 0.30236
 H263 H 0.68804 0.08447 0.07459
 H264 H 0.77172 0.03951 0.03018
 H265 H 0.84183 0.20896 0.20109
 H266 H 0.61246 0.15204 0.14701
 H267 H 0.55694 0.23432 0.23420
 H268 H 0.68834 0.34992 0.34494
   
