data_POSCAR
  _audit_creation_date              2014-09-24
  _audit_creation_method            'ToBaCCo'
  _symmetry_space_group_name_H-M    'P1'
  _symmetry_Int_Tables_number       1
  _symmetry_cell_setting            triclinic
  loop_
  _symmetry_equiv_pos_as_xyz
 x,y,z
_cell_length_a 21.4789
_cell_length_b 20.7233
_cell_length_c 36.7413
_cell_angle_alpha 81.974300
_cell_angle_beta 94.076700
_cell_angle_gamma 93.026000
loop_
  _atom_site_label
  _atom_site_type_symbol
  _atom_site_fract_x
  _atom_site_fract_y
  _atom_site_fract_z
O1 O -0.02173 0.54962 1.03909
 O2 O 0.02071 0.45913 0.96757
 O3 O -0.00630 0.57966 0.96870
 O4 O -0.01695 0.42591 1.03386
 O5 O -0.11535 0.41218 1.01364
 O6 O -0.10449 0.56203 0.94950
 O7 O -0.07807 0.44383 0.94875
 O8 O -0.12149 0.53948 1.02123
 Cu9 Cu 0.00350 0.50493 1.00416
 Cu10 Cu -0.11449 0.48899 0.98264
 C11 C -0.07809 0.56112 1.04244
 C12 C -0.02018 0.43597 0.94583
 C13 C -0.05412 0.59668 0.94753
 C14 C -0.06851 0.39238 1.03425
 O15 O 0.59592 -0.02052 0.54248
 O16 O 0.47307 -0.06790 0.47538
 O17 O 0.59190 -0.03776 0.47351
 O18 O 0.47643 -0.04739 0.54342
 O19 O 0.45919 0.05710 0.52755
 O20 O 0.57086 0.06511 0.45507
 O21 O 0.45128 0.03539 0.45916
 O22 O 0.57918 0.08321 0.52389
 Cu23 Cu 0.53636 -0.05368 0.51044
 Cu24 Cu 0.51317 0.07063 0.48967
 C25 C 0.60942 0.03937 0.54445
 C26 C 0.44047 -0.02464 0.45617
 C27 C 0.60104 0.01517 0.45217
 C28 C 0.44806 0.00312 0.54751
 C29 C -0.00782 -0.12695 0.23694
 C30 C -0.06093 -0.13460 0.26297
 C31 C -0.06574 -0.08325 0.28176
 C32 C -0.01661 -0.02773 0.27267
 C33 C -0.01849 -0.06233 0.21205
 C34 C -0.02271 -0.01032 0.23045
 C35 C 0.05113 -0.11184 0.26142
 C36 C 0.04649 -0.06079 0.28085
 H37 H -0.09155 -0.17794 0.26655
 H38 H -0.02217 0.01427 0.28757
 H39 H -0.01720 -0.05731 0.18236
 H40 H 0.09470 -0.13510 0.26100
 C41 C 0.10890 0.07621 0.72111
 C42 C 0.11709 0.02047 0.75314
 C43 C 0.06593 0.00584 0.77299
 C44 C 0.01088 0.04938 0.75948
 C45 C 0.04969 0.05677 0.69870
 C46 C -0.00113 0.04280 0.71865
 C47 C 0.08977 0.13348 0.73993
 C48 C 0.03823 0.11944 0.75992
 H49 H 0.15971 -0.00578 0.75909
 H50 H -0.03097 0.03778 0.77563
 H51 H 0.04782 0.05601 0.66921
 H52 H 0.11517 0.18003 0.73872
 C53 C -0.04671 -0.39290 0.10021
 C54 C -0.05172 -0.34657 0.12400
 C55 C -0.10261 -0.30504 0.11878
 C56 C -0.14912 -0.31287 0.09062
 C57 C -0.14347 -0.35917 0.06674
 C58 C -0.09125 -0.39816 0.07074
 C59 C -0.10495 -0.25538 0.14106
 C60 C -0.05666 -0.24668 0.16813
 C61 C -0.00709 -0.28986 0.17393
 C62 C -0.00510 -0.33967 0.15201
 C63 C 0.04036 -0.28211 0.20127
 C64 C 0.04014 -0.23077 0.22207
 C65 C -0.00708 -0.18503 0.21556
 C66 C -0.05642 -0.19488 0.18910
 H67 H -0.00655 -0.42331 0.10381
 H68 H -0.18874 -0.28181 0.08633
 H69 H -0.17828 -0.36233 0.04417
 H70 H -0.14335 -0.22264 0.13673
 H71 H 0.03364 -0.37202 0.15611
 H72 H 0.07797 -0.31572 0.20652
 H73 H 0.07709 -0.22827 0.24333
 H74 H -0.09424 -0.16145 0.18452
 C75 C -0.03634 0.31548 0.09077
 C76 C -0.04372 0.25541 0.11349
 C77 C -0.08891 0.20808 0.10300
 C78 C -0.12678 0.22202 0.07053
 C79 C -0.11997 0.28213 0.04853
 C80 C -0.07457 0.32920 0.05822
 C81 C -0.09540 0.14743 0.12495
 C82 C -0.05757 0.13339 0.15747
 C83 C -0.01354 0.18119 0.16858
 C84 C -0.00676 0.24183 0.14648
 C85 C 0.02384 0.16693 0.20128
 C86 C 0.01896 0.10534 0.22217
 C87 C -0.02338 0.05705 0.21086
 C88 C -0.06217 0.07172 0.17867
 H89 H -0.00164 0.35177 0.09863
 H90 H -0.16173 0.18644 0.06214
 H91 H -0.14987 0.29152 0.02353
 H92 H -0.12949 0.11096 0.11656
 H93 H 0.02756 0.27815 0.15479
 H94 H 0.05794 0.20282 0.21023
 H95 H 0.05052 0.09460 0.24616
 H96 H -0.09501 0.03459 0.16979
 C97 C 0.37817 0.05455 0.58629
 C98 C 0.33183 0.04925 0.61185
 C99 C 0.30743 -0.01318 0.62612
 C100 C 0.33060 -0.06906 0.61542
 C101 C 0.37704 -0.06341 0.59038
 C102 C 0.40084 -0.00176 0.57527
 C103 C 0.25990 -0.01891 0.65068
 C104 C 0.23670 0.03688 0.66151
 C105 C 0.26182 0.09928 0.64811
 C106 C 0.30917 0.10518 0.62319
 C107 C 0.23833 0.15463 0.65946
 C108 C 0.19010 0.14825 0.68364
 C109 C 0.16459 0.08618 0.69712
 C110 C 0.18811 0.03095 0.68531
 H111 H 0.39649 0.10234 0.57501
 H112 H 0.31253 -0.11721 0.62624
 H113 H 0.39355 -0.10751 0.58233
 H114 H 0.24078 -0.06683 0.66124
 H115 H 0.32802 0.15311 0.61249
 H116 H 0.25669 0.20298 0.64927
 H117 H 0.17216 0.19226 0.69068
 H118 H 0.16773 -0.01709 0.69436
 C119 C -0.31014 0.00883 0.59349
 C120 C -0.25861 0.02576 0.61645
 C121 C -0.23718 0.09171 0.61472
 C122 C -0.26919 0.13986 0.59118
 C123 C -0.32094 0.12278 0.56872
 C124 C -0.34133 0.05697 0.56895
 C125 C -0.18352 0.10835 0.63606
 C126 C -0.15117 0.05984 0.65920
 C127 C -0.17404 -0.00586 0.66207
 C128 C -0.22759 -0.02247 0.64063
 C129 C -0.14204 -0.05406 0.68573
 C130 C -0.08671 -0.03767 0.70540
 C131 C -0.06273 0.02688 0.70149
 C132 C -0.09542 0.07569 0.67888
 H133 H -0.32541 -0.04209 0.59458
 H134 H -0.25370 0.19071 0.58976
 H135 H -0.34389 0.16122 0.55045
 H136 H -0.16635 0.15881 0.63419
 H137 H -0.24443 -0.07301 0.64228
 H138 H -0.15906 -0.10455 0.68842
 H139 H -0.06147 -0.07566 0.72268
 H140 H -0.07657 0.12561 0.67605
 C141 C 0.00290 -0.30632 0.91795
 C142 C 0.00433 -0.25040 0.89140
 C143 C -0.04978 -0.23425 0.86836
 C144 C -0.10437 -0.27365 0.87233
 C145 C -0.10549 -0.32902 0.89859
 C146 C -0.05197 -0.34651 0.92167
 C147 C -0.04850 -0.17931 0.84143
 C148 C 0.00637 -0.14029 0.83694
 C149 C 0.06049 -0.15592 0.86005
 C150 C 0.05909 -0.21071 0.88725
 C151 C 0.11534 -0.11684 0.85521
 C152 C 0.11687 -0.06363 0.82731
 C153 C 0.06350 -0.04831 0.80385
 C154 C 0.00815 -0.08650 0.80920
 H155 H 0.04462 -0.31861 0.93540
 H156 H -0.14624 -0.26188 0.85493
 H157 H -0.14871 -0.35834 0.90056
 H158 H -0.09003 -0.16734 0.82369
 H159 H 0.10071 -0.22284 0.90485
 H160 H 0.15722 -0.12777 0.87275
 H161 H 0.15988 -0.03433 0.82415
 H162 H -0.03307 -0.07576 0.79105
 C163 C -0.04061 0.36217 0.89670
 C164 C -0.01812 0.32511 0.87145
 C165 C 0.04678 0.32634 0.86666
 C166 C 0.08789 0.36497 0.88656
 C167 C 0.06541 0.40102 0.91167
 C168 C 0.00120 0.39963 0.91738
 C169 C 0.06994 0.28815 0.84252
 C170 C 0.02929 0.24796 0.82325
 C171 C -0.03569 0.24704 0.82751
 C172 C -0.05907 0.28590 0.85144
 C173 C -0.07596 0.20635 0.80818
 C174 C -0.05194 0.16595 0.78559
 C175 C 0.01271 0.16565 0.78180
 C176 C 0.05296 0.20756 0.80039
 H177 H -0.09016 0.36065 0.90083
 H178 H 0.13767 0.36664 0.88310
 H179 H 0.09875 0.42979 0.92691
 H180 H 0.11979 0.28889 0.83922
 H181 H -0.10885 0.28476 0.85495
 H182 H -0.12593 0.20520 0.81086
 H183 H -0.08409 0.13495 0.77103
 H184 H 0.10298 0.20714 0.79816
 C185 C -0.31964 -0.03708 0.42043
 C186 C -0.27517 -0.03455 0.39405
 C187 C -0.26298 0.02433 0.37072
 C188 C -0.29574 0.07970 0.37423
 C189 C -0.34009 0.07675 0.40058
 C190 C -0.35247 0.01841 0.42396
 C191 C -0.21843 0.02678 0.34428
 C192 C -0.18622 -0.02909 0.34081
 C193 C -0.19874 -0.08791 0.36420
 C194 C -0.24288 -0.09019 0.39069
 C195 C -0.16711 -0.14382 0.36065
 C196 C -0.12385 -0.14188 0.33394
 C197 C -0.11113 -0.08396 0.31033
 C198 C -0.14207 -0.02741 0.31414
 H199 H -0.32862 -0.08243 0.43823
 H200 H -0.28708 0.12528 0.35660
 H201 H -0.36462 0.12027 0.40271
 H202 H -0.20907 0.07193 0.32636
 H203 H -0.25232 -0.13538 0.40858
 H204 H -0.17596 -0.18917 0.37845
 H205 H -0.09977 -0.18576 0.33200
 H206 H -0.13289 0.01733 0.29587
 C207 C 0.34347 -0.00091 0.41523
 C208 C 0.29356 -0.02105 0.39199
 C209 C 0.28974 -0.08572 0.38351
 C210 C 0.33561 -0.12914 0.39851
 C211 C 0.38465 -0.10897 0.42190
 C212 C 0.38915 -0.04481 0.43052
 C213 C 0.24004 -0.10607 0.36033
 C214 C 0.19386 -0.06270 0.34557
 C215 C 0.19729 0.00168 0.35430
 C216 C 0.24718 0.02222 0.37735
 C217 C 0.15050 0.04436 0.33994
 C218 C 0.10128 0.02393 0.31669
 C219 C 0.09795 -0.03949 0.30678
 C220 C 0.14427 -0.08288 0.32220
 H221 H 0.34615 0.04856 0.42186
 H222 H 0.33338 -0.17886 0.39232
 H223 H 0.41922 -0.14375 0.43324
 H224 H 0.23734 -0.15564 0.35378
 H225 H 0.24979 0.07174 0.38397
 H226 H 0.15199 0.09375 0.34663
 H227 H 0.06652 0.05874 0.30647
 H228 H 0.14178 -0.13284 0.31652
   
