data_POSCAR
  _audit_creation_date              2014-09-24
  _audit_creation_method            'ToBaCCo'
  _symmetry_space_group_name_H-M    'P1'
  _symmetry_Int_Tables_number       1
  _symmetry_cell_setting            triclinic
  loop_
  _symmetry_equiv_pos_as_xyz
 x,y,z
_cell_length_a 16.5140
_cell_length_b 16.8926
_cell_length_c 12.8423
_cell_angle_alpha 90.494200
_cell_angle_beta 90.015000
_cell_angle_gamma 90.089100
loop_
  _atom_site_label
  _atom_site_type_symbol
  _atom_site_fract_x
  _atom_site_fract_y
  _atom_site_fract_z
O1 O 0.19488 0.32300 0.13415
 O2 O 0.34843 0.17196 0.19230
 O3 O 0.19600 0.16875 0.13383
 O4 O 0.34698 0.32268 0.20012
 O5 O 0.30655 0.32148 0.36399
 O6 O 0.15006 0.17571 0.29484
 O7 O 0.30440 0.16782 0.35453
 O8 O 0.15626 0.32459 0.29887
 Cu9 Cu 0.27523 0.24700 0.14858
 Cu10 Cu 0.22582 0.24675 0.34473
 C11 C 0.14744 0.34715 0.20549
 C12 C 0.35462 0.14650 0.28459
 C13 C 0.14360 0.15000 0.20198
 C14 C 0.35504 0.34527 0.29429
 O15 O 0.84738 0.32392 0.30264
 O16 O 0.69646 0.17000 0.36452
 O17 O 0.84850 0.17288 0.30461
 O18 O 0.69505 0.32380 0.36658
 O19 O 0.65619 0.32573 0.20195
 O20 O 0.80454 0.16916 0.14224
 O21 O 0.65040 0.17721 0.20372
 O22 O 0.80695 0.32340 0.13872
 Cu23 Cu 0.77564 0.24797 0.35104
 Cu24 Cu 0.72621 0.24820 0.15482
 C25 C 0.85536 0.34700 0.20924
 C26 C 0.64393 0.15149 0.29603
 C27 C 0.85458 0.14745 0.21171
 C28 C 0.64735 0.34790 0.29598
 O29 O 0.84581 0.67224 0.70287
 O30 O 0.69710 0.82555 0.63307
 O31 O 0.85151 0.82212 0.69543
 O32 O 0.69494 0.67272 0.63856
 O33 O 0.65451 0.67799 0.80241
 O34 O 0.80433 0.83526 0.85520
 O35 O 0.65314 0.82749 0.79552
 O36 O 0.80682 0.68053 0.86713
 Cu37 Cu 0.77622 0.74792 0.65094
 Cu38 Cu 0.72639 0.75566 0.84675
 C39 C 0.85421 0.65326 0.79775
 C40 C 0.64645 0.84877 0.70140
 C41 C 0.85678 0.85210 0.78625
 C42 C 0.64617 0.65210 0.70984
 O43 O 0.34652 0.82937 0.80007
 O44 O 0.19378 0.68000 0.86799
 O45 O 0.34536 0.67894 0.80131
 O46 O 0.19445 0.83395 0.85859
 O47 O 0.14811 0.82296 0.69810
 O48 O 0.30484 0.67519 0.63746
 O49 O 0.15432 0.67360 0.70373
 O50 O 0.30251 0.82872 0.63760
 Cu51 Cu 0.27366 0.75579 0.84848
 Cu52 Cu 0.22375 0.75004 0.65259
 C53 C 0.35285 0.85192 0.70646
 C54 C 0.14603 0.65365 0.79830
 C55 C 0.35351 0.65378 0.70833
 C56 C 0.14204 0.85117 0.78976
 C57 C 1.00130 0.12226 0.22590
 C58 C 1.07397 0.10746 0.17263
 C59 C 1.07184 0.06115 0.08114
 C60 C 0.99861 0.02709 0.04400
 C61 C 0.92586 0.05199 0.09282
 C62 C 0.92702 0.10155 0.18087
 C63 C 0.99831 -0.02853 -0.04923
 C64 C 0.92537 -0.05587 -0.09513
 C65 C 0.92558 -0.10352 -0.18544
 C66 C 0.99968 -0.11953 -0.23493
 C67 C 1.07280 -0.10544 -0.18178
 C68 C 1.07137 -0.06006 -0.08945
 H69 H 1.00146 0.16168 0.29302
 H70 H 1.12786 0.05354 0.03913
 H71 H 0.86719 0.03671 0.06215
 H72 H 0.86731 -0.04263 -0.06123
 H73 H 1.00009 -0.15693 -0.30402
 H74 H 1.12783 -0.05180 -0.04853
 C75 C 0.49958 0.62867 0.72675
 C76 C 0.57305 0.60643 0.68155
 C77 C 0.57302 0.55495 0.59534
 C78 C 0.49979 0.52637 0.55083
 C79 C 0.42646 0.55671 0.59278
 C80 C 0.42625 0.60776 0.67971
 C81 C 0.50014 0.47068 0.45727
 C82 C 0.42707 0.44069 0.41370
 C83 C 0.42749 0.39101 0.32540
 C84 C 0.50111 0.37108 0.27883
 C85 C 0.57424 0.39265 0.32570
 C86 C 0.57370 0.44251 0.41345
 H87 H 0.49965 0.67165 0.78998
 H88 H 0.63124 0.54136 0.56227
 H89 H 0.36873 0.54458 0.55702
 H90 H 0.36907 0.45219 0.44895
 H91 H 0.50157 0.32919 0.21433
 H92 H 0.63170 0.45549 0.44775
 C93 C 0.00158 0.37144 0.22436
 C94 C -0.07214 0.39285 0.17975
 C95 C -0.07274 0.44414 0.09428
 C96 C 0.00037 0.47355 0.05077
 C97 C 0.07395 0.44338 0.09166
 C98 C 0.07460 0.39265 0.17749
 C99 C 0.00004 0.52996 -0.04073
 C100 C 0.07338 0.55965 -0.08328
 C101 C 0.07341 0.60877 -0.17074
 C102 C 0.00008 0.62899 -0.21723
 C103 C -0.07330 0.60849 -0.17088
 C104 C -0.07339 0.55896 -0.08368
 H105 H 0.00201 0.32873 0.28697
 H106 H -0.13099 0.45736 0.06113
 H107 H 0.13162 0.45548 0.05614
 H108 H 0.13133 0.54818 -0.04818
 H109 H 0.00010 0.67036 -0.28140
 H110 H -0.13142 0.54640 -0.04935
 C111 C 0.50000 0.87269 0.71788
 C112 C 0.42613 0.89576 0.67491
 C113 C 0.42561 0.94742 0.59017
 C114 C 0.49887 0.97352 0.54369
 C115 C 0.57229 0.94136 0.58228
 C116 C 0.57312 0.89234 0.66978
 C117 C 0.49905 1.02900 0.45172
 C118 C 0.57207 1.06356 0.41576
 C119 C 0.57429 1.10905 0.32457
 C120 C 0.50173 1.12297 0.27090
 C121 C 0.42744 1.10134 0.31468
 C122 C 0.42638 1.05193 0.40168
 H123 H 0.50022 0.83073 0.78134
 H124 H 0.36710 0.96429 0.56101
 H125 H 0.62933 0.95121 0.54363
 H126 H 0.62787 1.05680 0.45842
 H127 H 0.50178 1.16217 0.20444
 H128 H 0.36772 1.03488 0.43029
   
