data_POSCAR
  _audit_creation_date              2014-09-24
  _audit_creation_method            'ToBaCCo'
  _symmetry_space_group_name_H-M    'P1'
  _symmetry_Int_Tables_number       1
  _symmetry_cell_setting            triclinic
  loop_
  _symmetry_equiv_pos_as_xyz
 x,y,z
_cell_length_a 57.5368
_cell_length_b 56.7051
_cell_length_c 57.5428
_cell_angle_alpha 89.904500
_cell_angle_beta 89.994400
_cell_angle_gamma 90.011500
loop_
  _atom_site_label
  _atom_site_type_symbol
  _atom_site_fract_x
  _atom_site_fract_y
  _atom_site_fract_z
N1 N 0.59896 0.66274 0.61466
 N2 N 0.59014 0.65338 0.63360
 C3 C 0.57124 0.66582 0.63994
 C4 C 0.56803 0.68402 0.62414
 C5 C 0.58603 0.68145 0.60833
 H6 H 0.56072 0.66200 0.65504
 H7 H 0.58942 0.69222 0.59320
 Cu8 Cu 0.60418 0.62585 0.64816
 Cu9 Cu 0.62648 0.64997 0.59956
 Cu10 Cu 0.65124 0.60024 0.62439
 N11 N 0.61800 0.59759 0.66154
 N12 N 0.63636 0.58769 0.65217
 C13 C 0.64230 0.56858 0.66473
 C14 C 0.62679 0.56623 0.68312
 C15 C 0.61159 0.58509 0.68040
 H16 H 0.65687 0.55734 0.66062
 H17 H 0.59691 0.58950 0.69124
 N18 N 0.66376 0.61553 0.59627
 N19 N 0.65436 0.63448 0.58685
 C20 C 0.66685 0.64071 0.56802
 C21 C 0.68503 0.62491 0.56539
 C22 C 0.68246 0.60919 0.58366
 H23 H 0.66288 0.65556 0.55693
 H24 H 0.69352 0.59434 0.58765
 H25 H 0.62160 0.61570 0.61088
 H26 H 0.64092 0.63483 0.62888
 N27 N 0.90213 0.33803 0.11358
 N28 N 0.91152 0.34794 0.13192
 C29 C 0.93037 0.33545 0.13833
 C30 C 0.93306 0.31659 0.12315
 C31 C 0.91466 0.31894 0.10765
 H32 H 0.94122 0.33985 0.15300
 H33 H 0.91053 0.30769 0.09310
 Cu34 Cu 0.89817 0.37617 0.14573
 Cu35 Cu 0.87435 0.35056 0.09872
 Cu36 Cu 0.84955 0.40024 0.12346
 N37 N 0.88362 0.40366 0.15977
 N38 N 0.86467 0.41299 0.15097
 C39 C 0.85835 0.43167 0.16390
 C40 C 0.87417 0.43426 0.18188
 C41 C 0.88997 0.41609 0.17866
 H42 H 0.84322 0.44242 0.16051
 H43 H 0.90508 0.41229 0.18917
 N44 N 0.83682 0.38476 0.09559
 N45 N 0.84623 0.36583 0.08620
 C46 C 0.83362 0.35950 0.06751
 C47 C 0.81535 0.37520 0.06494
 C48 C 0.81799 0.39098 0.08311
 H49 H 0.83760 0.34466 0.05645
 H50 H 0.80692 0.40581 0.08708
 H51 H 0.87887 0.38515 0.10901
 H52 H 0.86087 0.36597 0.12835
 N53 N 0.40168 0.16193 -0.11368
 N54 N 0.41103 0.15203 -0.13206
 C55 C 0.42990 0.16452 -0.13847
 C56 C 0.43257 0.18326 -0.12326
 C57 C 0.41427 0.18099 -0.10774
 H58 H 0.44094 0.16016 -0.15302
 H59 H 0.41023 0.19243 -0.09330
 Cu60 Cu 0.39766 0.12381 -0.14585
 Cu61 Cu 0.37385 0.14946 -0.09884
 Cu62 Cu 0.34902 0.09979 -0.12358
 N63 N 0.38311 0.09631 -0.15987
 N64 N 0.36415 0.08699 -0.15106
 C65 C 0.35783 0.06829 -0.16396
 C66 C 0.37366 0.06568 -0.18193
 C67 C 0.38947 0.08385 -0.17874
 H68 H 0.34269 0.05754 -0.16057
 H69 H 0.40458 0.08764 -0.18924
 N70 N 0.33627 0.11531 -0.09574
 N71 N 0.34570 0.13424 -0.08635
 C72 C 0.33307 0.14060 -0.06768
 C73 C 0.31477 0.12492 -0.06512
 C74 C 0.31741 0.10913 -0.08327
 H75 H 0.33706 0.15544 -0.05663
 H76 H 0.30632 0.09430 -0.08725
 H77 H 0.37834 0.11486 -0.10913
 H78 H 0.36037 0.13405 -0.12847
 N79 N 0.09843 0.83664 0.38557
 N80 N 0.08964 0.84596 0.36661
 C81 C 0.07078 0.83349 0.36023
 C82 C 0.06748 0.81522 0.37604
 C83 C 0.08551 0.81791 0.39190
 H84 H 0.06031 0.83754 0.34518
 H85 H 0.08913 0.80717 0.40698
 Cu86 Cu 0.10365 0.87355 0.35211
 Cu87 Cu 0.12594 0.84943 0.40069
 Cu88 Cu 0.15067 0.89923 0.37593
 N89 N 0.11742 0.90187 0.33880
 N90 N 0.13580 0.91178 0.34816
 C91 C 0.14172 0.93090 0.33562
 C92 C 0.12619 0.93321 0.31734
 C93 C 0.11099 0.91442 0.31998
 H94 H 0.15616 0.94236 0.33968
 H95 H 0.09643 0.91007 0.30893
 N96 N 0.16319 0.88392 0.40404
 N97 N 0.15380 0.86495 0.41344
 C98 C 0.16629 0.85871 0.43226
 C99 C 0.18445 0.87453 0.43491
 C100 C 0.18188 0.89027 0.41665
 H101 H 0.16232 0.84385 0.44333
 H102 H 0.19293 0.90514 0.41268
 H103 H 0.12104 0.88372 0.38940
 H104 H 0.14038 0.86462 0.37139
 C105 C 0.10672 0.12533 0.14262
 C106 C 0.08942 0.14275 0.14236
 C107 C 0.08912 0.16018 0.12494
 C108 C 0.10644 0.16002 0.10769
 C109 C 0.12388 0.14274 0.10774
 C110 C 0.12403 0.12531 0.12526
 C111 C 0.10698 0.10792 0.15997
 C112 C 0.12435 0.09048 0.16026
 C113 C 0.14156 0.09060 0.14290
 C114 C 0.14151 0.10786 0.12542
 C115 C 0.15865 0.10795 0.10809
 C116 C 0.15863 0.12528 0.09057
 C117 C 0.14116 0.14263 0.09055
 H118 H 0.07597 0.14255 0.15555
 H119 H 0.10652 0.17357 0.09438
 H120 H 0.09382 0.10815 0.17345
 H121 H 0.15484 0.07704 0.14282
 H122 H 0.17222 0.09470 0.10842
 H123 H 0.14084 0.15587 0.07695
 C124 C 0.39236 0.87481 0.64275
 C125 C 0.40974 0.85748 0.64245
 C126 C 0.41003 0.84005 0.62509
 C127 C 0.39263 0.84013 0.60792
 C128 C 0.37513 0.85735 0.60799
 C129 C 0.37500 0.87479 0.62545
 C130 C 0.39207 0.89216 0.66009
 C131 C 0.37466 0.90957 0.66039
 C132 C 0.35744 0.90946 0.64304
 C133 C 0.35750 0.89221 0.62559
 C134 C 0.34029 0.89207 0.60833
 C135 C 0.34030 0.87475 0.59086
 C136 C 0.35782 0.85745 0.59083
 H137 H 0.42290 0.85736 0.65593
 H138 H 0.39288 0.82694 0.59431
 H139 H 0.40559 0.89231 0.67321
 H140 H 0.34379 0.92263 0.64330
 H141 H 0.32668 0.90529 0.60867
 H142 H 0.35814 0.84423 0.57726
 C143 C 0.89283 0.62494 0.35740
 C144 C 0.91019 0.64230 0.35769
 C145 C 0.91047 0.65972 0.37507
 C146 C 0.89309 0.65959 0.39226
 C147 C 0.87561 0.64234 0.39219
 C148 C 0.87548 0.62492 0.37473
 C149 C 0.89254 0.60761 0.34004
 C150 C 0.87515 0.59017 0.33975
 C151 C 0.85795 0.59024 0.35712
 C152 C 0.85801 0.60746 0.37459
 C153 C 0.84081 0.60756 0.39186
 C154 C 0.84082 0.62487 0.40935
 C155 C 0.85832 0.64219 0.40937
 H156 H 0.92333 0.64246 0.34419
 H157 H 0.89334 0.67277 0.40588
 H158 H 0.90605 0.60750 0.32691
 H159 H 0.84432 0.57704 0.35686
 H160 H 0.82722 0.59433 0.39153
 H161 H 0.85864 0.65541 0.42296
 C162 C 0.60738 0.37504 -0.14283
 C163 C 0.59005 0.35764 -0.14256
 C164 C 0.58974 0.34021 -0.12514
 C165 C 0.60707 0.34035 -0.10790
 C166 C 0.62454 0.35761 -0.10797
 C167 C 0.62470 0.37504 -0.12549
 C168 C 0.60764 0.39244 -0.16018
 C169 C 0.62504 0.40987 -0.16050
 C170 C 0.64226 0.40973 -0.14315
 C171 C 0.64220 0.39247 -0.12567
 C172 C 0.65935 0.39237 -0.10835
 C173 C 0.65933 0.37504 -0.09083
 C174 C 0.64183 0.35771 -0.09080
 H175 H 0.57659 0.35785 -0.15573
 H176 H 0.60715 0.32680 -0.09459
 H177 H 0.59448 0.39223 -0.17365
 H178 H 0.65556 0.42328 -0.14308
 H179 H 0.67294 0.40561 -0.10869
 H180 H 0.64150 0.34447 -0.07719
 C181 C -0.01459 0.26399 0.12387
 C182 C -0.03191 0.26361 0.10686
 C183 C -0.04920 0.28093 0.10658
 C184 C -0.04950 0.29905 0.12340
 C185 C -0.03185 0.29913 0.14047
 C186 C -0.01461 0.28177 0.14066
 C187 C 0.00320 0.24616 0.12409
 C188 C 0.01810 0.23122 0.12426
 C189 C 0.03590 0.21339 0.12444
 C190 C 0.04627 0.20662 0.14541
 C191 C 0.06356 0.18931 0.14560
 C192 C 0.07073 0.17855 0.12477
 C193 C 0.06019 0.18549 0.10378
 C194 C 0.04288 0.20279 0.10364
 H195 H -0.03206 0.24991 0.09376
 H196 H -0.06221 0.27991 0.09309
 H197 H -0.03113 0.31251 0.15379
 H198 H -0.00125 0.28222 0.15393
 H199 H 0.04103 0.21477 0.16160
 H200 H 0.07155 0.18456 0.16198
 H201 H 0.06512 0.17732 0.08752
 H202 H 0.03492 0.20786 0.08731
 C203 C 0.51432 0.73683 0.62427
 C204 C 0.51267 0.71726 0.63901
 C205 C 0.53010 0.70008 0.63898
 C206 C 0.54947 0.70223 0.62417
 C207 C 0.55093 0.72201 0.60940
 C208 C 0.53347 0.73916 0.60948
 C209 C 0.49640 0.75452 0.62437
 C210 C 0.48139 0.76936 0.62446
 C211 C 0.46350 0.78708 0.62459
 C212 C 0.46911 0.81057 0.62948
 C213 C 0.45174 0.82781 0.62965
 C214 C 0.42850 0.82176 0.62490
 C215 C 0.42304 0.79809 0.61998
 C216 C 0.44044 0.78088 0.61984
 H217 H 0.49789 0.71525 0.65051
 H218 H 0.52821 0.68508 0.65045
 H219 H 0.56559 0.72443 0.59789
 H220 H 0.53495 0.75428 0.59803
 H221 H 0.48691 0.81557 0.63312
 H222 H 0.45652 0.84591 0.63320
 H223 H 0.40528 0.79284 0.61655
 H224 H 0.43590 0.76274 0.61609
 C225 C 1.01463 0.76312 0.37587
 C226 C 1.01524 0.78032 0.35847
 C227 C 1.03264 0.79754 0.35849
 C228 C 1.04985 0.79787 0.37600
 C229 C 1.04893 0.78034 0.39345
 C230 C 1.03149 0.76317 0.39334
 C231 C 0.99673 0.74539 0.37577
 C232 C 0.98175 0.73053 0.37568
 C233 C 0.96387 0.71278 0.37555
 C234 C 0.94082 0.71893 0.38034
 C235 C 0.92344 0.70169 0.38021
 C236 C 0.92892 0.67804 0.37525
 C237 C 0.95216 0.67204 0.37046
 C238 C 0.96951 0.68930 0.37063
 H239 H 1.00225 0.78044 0.34484
 H240 H 1.03240 0.81046 0.34467
 H241 H 1.06159 0.77966 0.40730
 H242 H 1.03118 0.74991 0.40691
 H243 H 0.93626 0.73706 0.38411
 H244 H 0.90567 0.70691 0.38367
 H245 H 0.95696 0.65394 0.36688
 H246 H 0.98731 0.68434 0.36696
 C247 C 0.48583 0.23655 -0.12398
 C248 C 0.47104 0.23438 -0.10480
 C249 C 0.45372 0.21708 -0.10455
 C250 C 0.45095 0.20167 -0.12352
 C251 C 0.46595 0.20404 -0.14272
 C252 C 0.48325 0.22136 -0.14293
 C253 C 0.50366 0.25436 -0.12420
 C254 C 0.51859 0.26927 -0.12438
 C255 C 0.53642 0.28707 -0.12457
 C256 C 0.54679 0.29383 -0.14555
 C257 C 0.56412 0.31111 -0.14576
 C258 C 0.57132 0.32186 -0.12495
 C259 C 0.56079 0.31493 -0.10394
 C260 C 0.54345 0.29765 -0.10378
 H261 H 0.47292 0.24603 -0.09002
 H262 H 0.44269 0.21575 -0.08939
 H263 H 0.46430 0.19269 -0.15771
 H264 H 0.49459 0.22292 -0.15789
 H265 H 0.54152 0.28569 -0.16175
 H266 H 0.57210 0.31585 -0.16216
 H267 H 0.56575 0.32309 -0.08768
 H268 H 0.53550 0.29260 -0.08745
 C269 C 0.12544 -0.01332 0.26418
 C270 C 0.14462 -0.01551 0.27895
 C271 C 0.14488 -0.03286 0.29624
 C272 C 0.12592 -0.04831 0.29900
 C273 C 0.10670 -0.04593 0.28402
 C274 C 0.10649 -0.02855 0.26676
 C275 C 0.12521 0.00453 0.24637
 C276 C 0.12504 0.01947 0.23144
 C277 C 0.12486 0.03729 0.21362
 C278 C 0.14567 0.04787 0.20654
 C279 C 0.14553 0.06516 0.18920
 C280 C 0.12452 0.07212 0.17870
 C281 C 0.10369 0.06139 0.18596
 C282 C 0.10388 0.04408 0.20329
 H283 H 0.15941 -0.00382 0.27708
 H284 H 0.16005 -0.03420 0.30725
 H285 H 0.09171 -0.05731 0.28567
 H286 H 0.09152 -0.02699 0.25543
 H287 H 0.16201 0.04279 0.21447
 H288 H 0.16180 0.07331 0.18420
 H289 H 0.08729 0.06615 0.17800
 H290 H 0.08767 0.03596 0.20860
 C291 C 0.62610 0.51362 -0.26446
 C292 C 0.64313 0.51324 -0.28176
 C293 C 0.64339 0.53056 -0.29908
 C294 C 0.62655 0.54868 -0.29942
 C295 C 0.60946 0.54876 -0.28178
 C296 C 0.60929 0.53140 -0.26451
 C297 C 0.62589 0.49579 -0.24663
 C298 C 0.62573 0.48086 -0.23169
 C299 C 0.62555 0.46305 -0.21386
 C300 C 0.64636 0.45245 -0.20681
 C301 C 0.64622 0.43516 -0.18946
 C302 C 0.62521 0.42823 -0.17893
 C303 C 0.60438 0.43898 -0.18616
 C304 C 0.60458 0.45628 -0.20350
 H305 H 0.65625 0.49953 -0.28188
 H306 H 0.65689 0.52953 -0.31209
 H307 H 0.59612 0.56214 -0.28109
 H308 H 0.59600 0.53185 -0.25116
 H309 H 0.66269 0.45752 -0.21476
 H310 H 0.66249 0.42700 -0.18448
 H311 H 0.58799 0.43423 -0.17818
 H312 H 0.58838 0.46442 -0.20878
 C313 C 0.37383 1.01286 0.76445
 C314 C 0.35900 1.01057 0.78358
 C315 C 0.35891 1.02773 0.80100
 C316 C 0.37370 1.04746 0.79954
 C317 C 0.38855 1.04958 0.78019
 C318 C 0.38859 1.03239 0.76279
 C319 C 0.37394 0.99516 0.74656
 C320 C 0.37404 0.98032 0.73159
 C321 C 0.37417 0.96258 0.71373
 C322 C 0.36935 0.96876 0.69068
 C323 C 0.36948 0.95153 0.67332
 C324 C 0.37448 0.92788 0.67881
 C325 C 0.37931 0.92185 0.70205
 C326 C 0.37915 0.93910 0.71938
 H327 H 0.34753 0.99549 0.78506
 H328 H 0.34737 1.02534 0.81565
 H329 H 0.40005 1.06454 0.77830
 H330 H 0.40012 1.03436 0.74803
 H331 H 0.36554 0.98689 0.68611
 H332 H 0.36599 0.95677 0.65555
 H333 H 0.38293 0.90376 0.70686
 H334 H 0.38284 0.93412 0.73718
 C335 C 0.87433 0.48700 0.23556
 C336 C 0.85947 0.48929 0.21646
 C337 C 0.85938 0.47216 0.19902
 C338 C 0.87421 0.45245 0.20043
 C339 C 0.88908 0.45034 0.21975
 C340 C 0.88912 0.46750 0.23718
 C341 C 0.87443 0.50468 0.25348
 C342 C 0.87453 0.51951 0.26847
 C343 C 0.87466 0.53722 0.28635
 C344 C 0.86987 0.53101 0.30940
 C345 C 0.87000 0.54821 0.32678
 C346 C 0.87497 0.57188 0.32131
 C347 C 0.87977 0.57794 0.29807
 C348 C 0.87961 0.56071 0.28072
 H349 H 0.84797 0.50435 0.21502
 H350 H 0.84782 0.47455 0.18439
 H351 H 0.90061 0.43539 0.22161
 H352 H 0.90068 0.46553 0.25192
 H353 H 0.86608 0.51286 0.31395
 H354 H 0.86653 0.54296 0.34454
 H355 H 0.88336 0.59605 0.29327
 H356 H 0.88328 0.56572 0.26292
 C357 C 0.26170 0.12512 -0.01241
 C358 C 0.26440 0.10553 -0.02689
 C359 C 0.28162 0.10544 -0.04404
 C360 C 0.29644 0.12500 -0.04694
 C361 C 0.29355 0.14462 -0.03225
 C362 C 0.27630 0.14466 -0.01513
 C363 C 0.24399 0.12517 0.00524
 C364 C 0.22915 0.12520 0.02003
 C365 C 0.21145 0.12523 0.03770
 C366 C 0.20131 0.10399 0.04487
 C367 C 0.18413 0.10399 0.06206
 C368 C 0.17686 0.12526 0.07230
 C369 C 0.18716 0.14652 0.06496
 C370 C 0.20434 0.14648 0.04778
 H371 H 0.25322 0.09028 -0.02491
 H372 H 0.28338 0.08995 -0.05482
 H373 H 0.30442 0.16007 -0.03402
 H374 H 0.27433 0.15995 -0.00404
 H375 H 0.20663 0.08745 0.03713
 H376 H 0.17633 0.08738 0.06713
 H377 H 0.18215 0.16314 0.07272
 H378 H 0.21213 0.16301 0.04240
 C379 C 0.73780 0.62481 0.51239
 C380 C 0.73508 0.60524 0.52696
 C381 C 0.71794 0.60524 0.54418
 C382 C 0.70323 0.62487 0.54708
 C383 C 0.70614 0.64447 0.53230
 C384 C 0.72331 0.64442 0.51510
 C385 C 0.75547 0.62480 0.49469
 C386 C 0.77028 0.62480 0.47986
 C387 C 0.78796 0.62481 0.46217
 C388 C 0.79806 0.60357 0.45505
 C389 C 0.81524 0.60356 0.43787
 C390 C 0.82256 0.62484 0.42759
 C391 C 0.81229 0.64611 0.43488
 C392 C 0.79510 0.64606 0.45206
 H393 H 0.74618 0.58994 0.52498
 H394 H 0.71616 0.58977 0.55504
 H395 H 0.69535 0.65997 0.53406
 H396 H 0.72530 0.65969 0.50393
 H397 H 0.79270 0.58702 0.46282
 H398 H 0.82302 0.58695 0.43283
 H399 H 0.81735 0.66273 0.42710
 H400 H 0.78735 0.66260 0.45740
 C401 C 0.76236 0.37509 0.01217
 C402 C 0.77692 0.35554 0.01489
 C403 C 0.79415 0.35555 0.03203
 C404 C 0.79705 0.37516 0.04674
 C405 C 0.78226 0.39473 0.04383
 C406 C 0.76506 0.39467 0.02667
 C407 C 0.74466 0.37507 -0.00549
 C408 C 0.72983 0.37506 -0.02030
 C409 C 0.71215 0.37505 -0.03798
 C410 C 0.70204 0.39629 -0.04514
 C411 C 0.68487 0.39631 -0.06233
 C412 C 0.67757 0.37504 -0.07257
 C413 C 0.68783 0.35378 -0.06523
 C414 C 0.70502 0.35380 -0.04805
 H415 H 0.77495 0.34026 0.00378
 H416 H 0.80501 0.34009 0.03380
 H417 H 0.78402 0.41022 0.05463
 H418 H 0.75390 0.40993 0.02469
 H419 H 0.70739 0.41284 -0.03741
 H420 H 0.67708 0.41293 -0.06741
 H421 H 0.68280 0.33716 -0.07299
 H422 H 0.71278 0.33726 -0.04267
 C423 C 0.23722 0.87464 0.48790
 C424 C 0.22274 0.85502 0.48518
 C425 C 0.20557 0.85497 0.46799
 C426 C 0.20266 0.87457 0.45322
 C427 C 0.21735 0.89422 0.45613
 C428 C 0.23449 0.89422 0.47335
 C429 C 0.25489 0.87466 0.50560
 C430 C 0.26971 0.87468 0.52041
 C431 C 0.28740 0.87470 0.53809
 C432 C 0.29457 0.85346 0.54822
 C433 C 0.31177 0.85345 0.56537
 C434 C 0.32203 0.87473 0.57264
 C435 C 0.31468 0.89600 0.56235
 C436 C 0.29749 0.89596 0.54519
 H437 H 0.22474 0.83974 0.49634
 H438 H 0.19479 0.83946 0.46621
 H439 H 0.21556 0.90970 0.44529
 H440 H 0.24558 0.90953 0.47534
 H441 H 0.28683 0.83691 0.54289
 H442 H 0.31685 0.83684 0.57317
 H443 H 0.32245 0.91262 0.56737
 H444 H 0.29211 0.91249 0.53741
   
