data_POSCAR
  _audit_creation_date              2014-09-24
  _audit_creation_method            'ToBaCCo'
  _symmetry_space_group_name_H-M    'P1'
  _symmetry_Int_Tables_number       1
  _symmetry_cell_setting            triclinic
  loop_
  _symmetry_equiv_pos_as_xyz
 x,y,z
_cell_length_a 44.7419
_cell_length_b 46.1055
_cell_length_c 8.8207
_cell_angle_alpha 89.998300
_cell_angle_beta 89.999500
_cell_angle_gamma 90.072800
loop_
  _atom_site_label
  _atom_site_type_symbol
  _atom_site_fract_x
  _atom_site_fract_y
  _atom_site_fract_z
C1 C 0.18777 0.22288 0.18991
 C2 C 0.17277 0.24932 0.17583
 C3 C 0.18794 0.27566 0.19007
 C4 C 0.21899 0.27590 0.21928
 C5 C 0.23452 0.24922 0.23393
 C6 C 0.21888 0.22256 0.21926
 C7 C 0.23477 0.19639 0.23424
 C8 C 0.26536 0.19639 0.26303
 C9 C 0.28132 0.22256 0.27791
 C10 C 0.26575 0.24922 0.26317
 C11 C 0.23491 0.30206 0.23411
 C12 C 0.26550 0.30206 0.26286
 C13 C 0.28134 0.27590 0.27779
 C14 C 0.31239 0.27566 0.30711
 C15 C 0.32750 0.24932 0.32138
 C16 C 0.31243 0.22288 0.30725
 H17 H 0.22363 0.17562 0.22376
 H18 H 0.27643 0.17563 0.27354
 H19 H 0.22381 0.32282 0.22355
 H20 H 0.27665 0.32281 0.27328
 H21 H 0.14890 0.24946 0.15326
 H22 H 0.35136 0.24946 0.34407
 C23 C 0.81287 0.27654 0.18948
 C24 C 0.82785 0.25009 0.17536
 C25 C 0.81265 0.22375 0.18962
 C26 C 0.78159 0.22355 0.21882
 C27 C 0.76610 0.25024 0.23347
 C28 C 0.78177 0.27689 0.21879
 C29 C 0.76589 0.30308 0.23379
 C30 C 0.73530 0.30310 0.26259
 C31 C 0.71937 0.27695 0.27745
 C32 C 0.73489 0.25028 0.26275
 C33 C 0.76564 0.19741 0.23365
 C34 C 0.73504 0.19745 0.26244
 C35 C 0.71924 0.22363 0.27741
 C36 C 0.68819 0.22395 0.30674
 C37 C 0.67317 0.25034 0.32097
 C38 C 0.68832 0.27670 0.30674
 H39 H 0.77704 0.32384 0.22338
 H40 H 0.72421 0.32386 0.27315
 H41 H 0.77670 0.17664 0.22310
 H42 H 0.72384 0.17671 0.27285
 H43 H 0.85171 0.24993 0.15273
 H44 H 0.64932 0.25037 0.34368
 C45 C 0.81307 0.77714 0.81032
 C46 C 0.82804 0.75068 0.82451
 C47 C 0.81283 0.72436 0.81026
 C48 C 0.78178 0.72416 0.78099
 C49 C 0.76629 0.75085 0.76636
 C50 C 0.78196 0.77750 0.78102
 C51 C 0.76608 0.80369 0.76605
 C52 C 0.73548 0.80371 0.73726
 C53 C 0.71956 0.77756 0.72240
 C54 C 0.73508 0.75089 0.73708
 C55 C 0.76583 0.69802 0.76606
 C56 C 0.73523 0.69806 0.73727
 C57 C 0.71943 0.72425 0.72239
 C58 C 0.68838 0.72455 0.69308
 C59 C 0.67336 0.75094 0.67890
 C60 C 0.68850 0.77731 0.69311
 H61 H 0.77723 0.82445 0.77649
 H62 H 0.72439 0.82447 0.72673
 H63 H 0.77689 0.67725 0.77653
 H64 H 0.72404 0.67732 0.72675
 H65 H 0.85190 0.75052 0.84716
 H66 H 0.64951 0.75096 0.65624
 C67 C 0.18636 0.72327 0.81073
 C68 C 0.17130 0.74968 0.82493
 C69 C 0.18643 0.77608 0.81077
 C70 C 0.21753 0.77635 0.78144
 C71 C 0.23307 0.74967 0.76677
 C72 C 0.21746 0.72299 0.78142
 C73 C 0.23338 0.69683 0.76648
 C74 C 0.26398 0.69685 0.73771
 C75 C 0.27986 0.72302 0.72284
 C76 C 0.26430 0.74967 0.73753
 C77 C 0.23353 0.80252 0.76645
 C78 C 0.26412 0.80250 0.73767
 C79 C 0.27993 0.77633 0.72285
 C80 C 0.31098 0.77605 0.69355
 C81 C 0.32604 0.74968 0.67936
 C82 C 0.31091 0.72330 0.69353
 H83 H 0.22228 0.67605 0.77697
 H84 H 0.27510 0.67611 0.72723
 H85 H 0.22247 0.82330 0.77686
 H86 H 0.27529 0.82324 0.72709
 H87 H 0.14742 0.74968 0.84757
 H88 H 0.34988 0.74968 0.65670
 O89 O 1.02981 0.03192 -0.09495
 O90 O 0.97167 -0.02362 -0.15143
 O91 O 0.97172 0.03191 -0.09491
 O92 O 1.02973 -0.02365 -0.15108
 O93 O 1.02970 -0.03236 0.09472
 O94 O 0.97169 0.02319 0.15088
 O95 O 0.97162 -0.03234 0.09437
 O96 O 1.02977 0.02321 0.15084
 Cu97 Cu 1.00074 0.00508 -0.14737
 Cu98 Cu 1.00070 -0.00551 0.14698
 C99 C 1.03961 0.03724 0.03733
 C100 C 0.96181 -0.03765 -0.03791
 C101 C 0.96188 0.03720 0.03731
 C102 C 1.03950 -0.03770 -0.03752
 O103 O 0.52924 0.46831 0.59419
 O104 O 0.47093 0.52352 0.65144
 O105 O 0.47116 0.46801 0.59448
 O106 O 0.52903 0.52381 0.65156
 O107 O 0.52899 0.53267 0.40590
 O108 O 0.47112 0.47688 0.34883
 O109 O 0.47089 0.53239 0.40579
 O110 O 0.52918 0.47717 0.34853
 Cu111 Cu 0.50010 0.49497 0.64723
 Cu112 Cu 0.50004 0.50573 0.35299
 C113 C 0.53906 0.46312 0.46183
 C114 C 0.46103 0.53755 0.53811
 C115 C 0.46135 0.46274 0.46216
 C116 C 0.53881 0.53793 0.53822
 O117 O -0.02914 0.53173 0.09498
 O118 O 0.02901 0.47631 0.15116
 O119 O 0.02893 0.53187 0.09501
 O120 O -0.02908 0.47618 0.15135
 O121 O -0.02908 0.46748 -0.09446
 O122 O 0.02892 0.52317 -0.15079
 O123 O 0.02901 0.46761 -0.09464
 O124 O -0.02913 0.52303 -0.15083
 Cu125 Cu -0.00007 0.50495 0.14742
 Cu126 Cu -0.00007 0.49439 -0.14695
 C127 C -0.03895 0.53704 -0.03727
 C128 C 0.03884 0.46232 0.03757
 C129 C 0.03872 0.53722 -0.03724
 C130 C -0.03889 0.46214 0.03779
 O131 O 0.47021 1.03236 0.59410
 O132 O 0.52837 0.97701 0.65138
 O133 O 0.52829 1.03249 0.59404
 O134 O 0.47028 0.97683 0.65132
 O135 O 0.47029 0.96796 0.40569
 O136 O 0.52830 1.02360 0.34841
 O137 O 0.52839 0.96813 0.40575
 O138 O 0.47022 1.02348 0.34847
 Cu139 Cu 0.49928 1.00562 0.64699
 Cu140 Cu 0.49929 0.99484 0.35279
 C141 C 0.46039 1.03756 0.46176
 C142 C 0.53824 0.96296 0.53807
 C143 C 0.53812 1.03771 0.46171
 C144 C 0.46048 0.96271 0.53803
 C145 C 1.09264 0.09036 0.22632
 C146 C 1.10308 0.10613 0.10142
 C147 C 1.09350 0.09879 -0.04462
 C148 C 1.07324 0.07604 -0.06573
 C149 C 1.17145 0.19796 0.17382
 C150 C 1.07238 0.06758 0.20551
 C151 C 1.12267 0.13056 0.12314
 C152 C 1.13856 0.15144 0.14015
 C153 C 1.15657 0.17633 0.15881
 C154 C 1.06224 0.06034 0.05926
 H155 H 1.09985 0.09593 0.33993
 H156 H 1.10137 0.11089 -0.14207
 H157 H 1.06590 0.07103 -0.17976
 H158 H 1.06433 0.05594 0.30407
 C159 C 0.59193 0.59089 0.72770
 C160 C 0.60237 0.60671 0.60298
 C161 C 0.59271 0.59949 0.45691
 C162 C 0.57240 0.57680 0.43557
 C163 C 0.67111 0.69824 0.67609
 C164 C 0.57161 0.56817 0.70668
 C165 C 0.62207 0.63105 0.62496
 C166 C 0.63805 0.65185 0.64215
 C167 C 0.65615 0.67667 0.66099
 C168 C 0.56142 0.56103 0.56038
 H169 H 0.59920 0.59636 0.84134
 H170 H 0.60059 0.61163 0.35960
 H171 H 0.56502 0.57187 0.32151
 H172 H 0.56359 0.55647 0.80508
 C173 C -0.09276 0.40060 -0.04443
 C174 C -0.10234 0.39324 0.10158
 C175 C -0.09191 0.40898 0.22654
 C176 C -0.07164 0.43177 0.20582
 C177 C -0.17078 0.30144 0.17352
 C178 C -0.07249 0.42334 -0.06545
 C179 C -0.12195 0.36882 0.12321
 C180 C -0.13785 0.34795 0.14012
 C181 C -0.15587 0.32306 0.15864
 C182 C -0.06150 0.43903 0.05960
 H183 H -0.10064 0.38851 -0.14193
 H184 H -0.09912 0.40340 0.34013
 H185 H -0.06360 0.44339 0.30442
 H186 H -0.06516 0.42838 -0.17947
 C187 C 0.40657 0.90115 0.45690
 C188 C 0.39691 0.89395 0.60300
 C189 C 0.40733 0.90978 0.72767
 C190 C 0.42765 0.93251 0.70659
 C191 C 0.32823 0.80238 0.67651
 C192 C 0.42688 0.92384 0.43551
 C193 C 0.37722 0.86960 0.62505
 C194 C 0.36126 0.84878 0.64235
 C195 C 0.34317 0.82396 0.66132
 C196 C 0.43785 0.93963 0.56027
 H197 H 0.39870 0.88899 0.35962
 H198 H 0.40007 0.90432 0.84132
 H199 H 0.43568 0.94421 0.80497
 H200 H 0.43426 0.92876 0.32145
 C201 C -0.09271 0.59854 0.04489
 C202 C -0.10222 0.60595 -0.10115
 C203 C -0.09181 0.59021 -0.22611
 C204 C -0.07164 0.56740 -0.20537
 C205 C -0.17008 0.69797 -0.17297
 C206 C -0.07253 0.57578 0.06594
 C207 C -0.12168 0.63042 -0.12280
 C208 C -0.13745 0.65135 -0.13967
 C209 C -0.15532 0.67630 -0.15814
 C210 C -0.06155 0.56011 -0.05911
 H211 H -0.10056 0.61062 0.14239
 H212 H -0.09897 0.59582 -0.33973
 H213 H -0.06360 0.55579 -0.30397
 H214 H -0.06524 0.57072 0.17997
 C215 C 0.40648 1.09899 0.54280
 C216 C 0.39690 1.10623 0.39665
 C217 C 0.40733 1.09041 0.27200
 C218 C 0.42759 1.06770 0.29315
 C219 C 0.32869 1.19797 0.32335
 C220 C 0.42674 1.07631 0.56426
 C221 C 0.37733 1.13061 0.37452
 C222 C 0.36147 1.15147 0.35725
 C223 C 0.34352 1.17635 0.33841
 C224 C 0.43774 1.06057 0.43950
 H225 H 0.39861 1.11113 0.64007
 H226 H 0.40011 1.09589 0.15831
 H227 H 0.43564 1.05602 0.19477
 H228 H 0.43409 1.07138 0.67836
 C229 C 1.09303 -0.09939 0.04463
 C230 C 1.10253 -0.10680 -0.10140
 C231 C 1.09221 -0.09101 -0.22634
 C232 C 1.07211 -0.06814 -0.20559
 C233 C 1.17023 -0.19896 -0.17327
 C234 C 1.07293 -0.07656 0.06569
 C235 C 1.12193 -0.13134 -0.12307
 C236 C 1.13766 -0.15230 -0.13996
 C237 C 1.15548 -0.17728 -0.15843
 C238 C 1.06202 -0.06084 -0.05935
 H239 H 1.10083 -0.11151 0.14212
 H240 H 1.09937 -0.09662 -0.33995
 H241 H 1.06413 -0.05649 -0.30418
 H242 H 1.06564 -0.07150 0.17972
 C243 C 0.59317 0.40187 0.54285
 C244 C 0.60276 0.39464 0.39669
 C245 C 0.59226 0.41040 0.27202
 C246 C 0.57192 0.43306 0.29317
 C247 C 0.67117 0.30305 0.32364
 C248 C 0.57284 0.42448 0.56431
 C249 C 0.62240 0.37031 0.37463
 C250 C 0.63831 0.34950 0.35744
 C251 C 0.65632 0.32465 0.33867
 C252 C 0.56177 0.44018 0.43955
 H253 H 0.60110 0.38976 0.64012
 H254 H 0.59947 0.40493 0.15831
 H255 H 0.56382 0.44470 0.19479
 H256 H 0.56550 0.42941 0.67843
 C257 C 0.90775 -0.09904 0.04412
 C258 C 0.89813 -0.10635 -0.10191
 C259 C 0.90862 -0.09062 -0.22682
 C260 C 0.92897 -0.06791 -0.20605
 C261 C 0.82944 -0.19796 -0.17382
 C262 C 0.92809 -0.07636 0.06521
 C263 C 0.87844 -0.13070 -0.12360
 C264 C 0.86246 -0.15152 -0.14052
 C265 C 0.84438 -0.17636 -0.15901
 C266 C 0.93913 -0.06069 -0.05980
 H267 H 0.89983 -0.11111 0.14159
 H268 H 0.90139 -0.09616 -0.34042
 H269 H 0.93705 -0.05629 -0.30461
 H270 H 0.93544 -0.07137 0.17923
 C271 C 0.40837 0.40966 0.27256
 C272 C 0.39799 0.39380 0.39723
 C273 C 0.40762 0.40104 0.54333
 C274 C 0.42786 0.42379 0.56472
 C275 C 0.32959 0.30203 0.32408
 C276 C 0.42862 0.43245 0.29364
 C277 C 0.37839 0.36939 0.37519
 C278 C 0.36249 0.34852 0.35797
 C279 C 0.34447 0.32364 0.33916
 C280 C 0.43879 0.43960 0.43995
 H281 H 0.40112 0.40418 0.15890
 H282 H 0.39979 0.38885 0.64061
 H283 H 0.43523 0.42873 0.67878
 H284 H 0.43661 0.44418 0.19525
 C285 C 0.09158 0.59051 -0.22610
 C286 C 0.10196 0.60630 -0.10117
 C287 C 0.09241 0.59891 0.04486
 C288 C 0.07223 0.57611 0.06592
 C289 C 0.17008 0.69832 -0.17329
 C290 C 0.07140 0.56767 -0.20535
 C291 C 0.12148 0.63079 -0.12285
 C292 C 0.13731 0.65171 -0.13981
 C293 C 0.15525 0.67666 -0.15838
 C294 C 0.06128 0.56038 -0.05911
 H295 H 0.09878 0.59611 -0.33969
 H296 H 0.10025 0.61104 0.14234
 H297 H 0.06490 0.57106 0.17993
 H298 H 0.06339 0.55601 -0.30393
 C299 C 0.59146 1.09046 0.27204
 C300 C 0.60191 1.10628 0.39667
 C301 C 0.59219 1.09915 0.54276
 C302 C 0.57180 1.07653 0.56419
 C303 C 0.67090 1.19764 0.32363
 C304 C 0.57106 1.06780 0.29317
 C305 C 0.62169 1.13056 0.37462
 C306 C 0.63774 1.15132 0.35743
 C307 C 0.65591 1.17610 0.33866
 C308 C 0.56080 1.06075 0.43947
 H309 H 0.59878 1.09586 0.15839
 H310 H 0.60008 1.11131 0.63999
 H311 H 0.56437 1.07166 0.67825
 H312 H 0.56302 1.05609 0.19483
 C313 C 0.09282 0.40101 -0.04477
 C314 C 0.10244 0.39369 0.10121
 C315 C 0.09201 0.40941 0.22618
 C316 C 0.07170 0.43211 0.20552
 C317 C 0.17080 0.30202 0.17329
 C318 C 0.07251 0.42367 -0.06574
 C319 C 0.12206 0.36933 0.12284
 C320 C 0.13796 0.34850 0.13980
 C321 C 0.15595 0.32363 0.15838
 C322 C 0.06151 0.43932 0.05933
 H323 H 0.10070 0.38894 -0.14229
 H324 H 0.09925 0.40387 0.33974
 H325 H 0.06365 0.44371 0.30413
 H326 H 0.06515 0.42866 -0.17972
 C327 C 0.59175 0.91051 0.72769
 C328 C 0.60230 0.89479 0.60301
 C329 C 0.59259 0.90191 0.45691
 C330 C 0.57211 0.92439 0.43552
 C331 C 0.67133 0.80364 0.67618
 C332 C 0.57126 0.93304 0.70661
 C333 C 0.62215 0.87061 0.62503
 C334 C 0.63822 0.84991 0.64224
 C335 C 0.65638 0.82518 0.66108
 C336 C 0.56101 0.94007 0.56029
 H337 H 0.59905 0.90511 0.84135
 H338 H 0.60056 0.88982 0.35963
 H339 H 0.56470 0.92925 0.32145
 H340 H 0.56314 0.94466 0.80500
 C341 C 0.90790 0.09850 -0.04503
 C342 C 0.89825 0.10580 0.10094
 C343 C 0.90870 0.09010 0.22592
 C344 C 0.92904 0.06742 0.20527
 C345 C 0.82977 0.19738 0.17287
 C346 C 0.92822 0.07587 -0.06599
 C347 C 0.87858 0.13013 0.12252
 C348 C 0.86265 0.15094 0.13944
 C349 C 0.84462 0.17578 0.15799
 C350 C 0.93923 0.06022 0.05909
 H351 H 0.90001 0.11056 -0.14255
 H352 H 0.90145 0.09562 0.33948
 H353 H 0.93708 0.05582 0.30389
 H354 H 0.93560 0.07088 -0.17997
 C355 C 0.40669 0.59862 0.45697
 C356 C 0.39699 0.60573 0.60308
 C357 C 0.40751 0.58998 0.72772
 C358 C 0.42798 0.56743 0.70662
 C359 C 0.32810 0.69698 0.67653
 C360 C 0.42716 0.57611 0.43556
 C361 C 0.37719 0.62995 0.62518
 C362 C 0.36116 0.65067 0.64247
 C363 C 0.34303 0.67543 0.66139
 C364 C 0.43824 0.56042 0.56032
 H365 H 0.39875 0.61072 0.35971
 H366 H 0.40020 0.59537 0.84138
 H367 H 0.43608 0.55579 0.80499
 H368 H 0.43458 0.57127 0.32149
   
