data_POSCAR
  _audit_creation_date              2014-09-24
  _audit_creation_method            'ToBaCCo'
  _symmetry_space_group_name_H-M    'P1'
  _symmetry_Int_Tables_number       1
  _symmetry_cell_setting            triclinic
  loop_
  _symmetry_equiv_pos_as_xyz
 x,y,z
_cell_length_a 20.0582
_cell_length_b 19.7774
_cell_length_c 19.4689
_cell_angle_alpha 91.798000
_cell_angle_beta 95.034600
_cell_angle_gamma 84.093000
loop_
  _atom_site_label
  _atom_site_type_symbol
  _atom_site_fract_x
  _atom_site_fract_y
  _atom_site_fract_z
C1 C -0.09057 0.44023 0.14301
 H2 H -0.13086 0.47949 0.15162
 C3 C -0.10412 0.38194 0.10348
 H4 H -0.15479 0.37777 0.08065
 C5 C 0.02285 0.39551 0.16731
 H6 H 0.07162 0.39882 0.19451
 C7 C 0.01160 0.33676 0.12892
 H8 H 0.05348 0.29814 0.12561
 N9 N -0.02825 0.44499 0.17548
 C10 C -0.01176 0.64454 0.27419
 H11 H 0.00485 0.62536 0.32493
 C12 C -0.01063 0.71316 0.26148
 H13 H 0.00703 0.74675 0.30263
 C14 C -0.05099 0.62268 0.15790
 H15 H -0.06460 0.58660 0.11751
 C16 C -0.05159 0.69168 0.14307
 H17 H -0.06529 0.70830 0.09080
 Zn18 Zn -0.01572 0.50897 0.24874
 N19 N -0.03023 0.60068 0.22251
 C20 C 0.09849 0.47496 0.34990
 N21 N 0.07502 0.49689 0.28581
 C22 C 0.11731 0.51488 0.24039
 C23 C 0.18616 0.51001 0.25760
 C24 C 0.16791 0.46980 0.36975
 C25 C -0.13001 0.54114 0.32016
 C26 C -0.18593 0.52533 0.35163
 C27 C -0.13309 0.41066 0.36668
 C28 C -0.07806 0.42866 0.33458
 N29 N -0.07813 0.49269 0.31114
 H30 H 0.06366 0.46182 0.38551
 H31 H 0.09712 0.53269 0.19006
 H32 H 0.21836 0.52457 0.21993
 H33 H 0.18616 0.45271 0.42089
 H34 H -0.13004 0.59117 0.29950
 H35 H -0.22702 0.56453 0.35706
 H36 H -0.13325 0.35899 0.38343
 H37 H -0.03697 0.39066 0.32490
 C38 C -0.02943 0.73722 0.19510
 C39 C -0.05330 0.32773 0.09876
 C40 C -0.18869 0.45888 0.37364
 C41 C 0.21255 0.48742 0.32290
 C42 C 0.07232 0.56080 0.87913
 H43 H 0.07879 0.51104 0.90154
 C44 C 0.08162 0.61848 0.92109
 H45 H 0.09355 0.61241 0.97602
 C46 C 0.04853 0.62975 0.78101
 H47 H 0.03453 0.63396 0.72632
 C48 C 0.05766 0.68850 0.82081
 H49 H 0.04978 0.73733 0.79623
 N50 N 0.05386 0.56769 0.81066
 C51 C 0.05757 0.35448 0.74046
 H52 H 0.07431 0.36474 0.69092
 C53 C 0.05113 0.28751 0.75693
 H54 H 0.06505 0.24690 0.72071
 C55 C 0.01327 0.39522 0.84449
 H56 H -0.00516 0.43752 0.87645
 C57 C 0.00672 0.32859 0.86349
 H58 H -0.01518 0.32044 0.91105
 Zn59 Zn 0.03472 0.49548 0.74725
 N60 N 0.03934 0.40689 0.78421
 C61 C 0.16130 0.46590 0.70434
 N62 N 0.09938 0.49648 0.68337
 C63 C 0.08959 0.53779 0.62808
 C64 C 0.14441 0.55148 0.59291
 C65 C 0.21677 0.47633 0.66949
 C66 C -0.09652 0.55899 0.73946
 C67 C -0.16521 0.56518 0.71998
 C68 C -0.14627 0.47697 0.63302
 C69 C -0.07746 0.47270 0.65430
 N70 N -0.05423 0.51299 0.70708
 H71 H 0.16818 0.43604 0.75048
 H72 H 0.04019 0.56338 0.61411
 H73 H 0.13697 0.58664 0.55073
 H74 H 0.26600 0.45315 0.68832
 H75 H -0.07768 0.58881 0.78293
 H76 H -0.19729 0.60163 0.74806
 H77 H -0.16310 0.44336 0.59164
 H78 H -0.04286 0.43544 0.63045
 C79 C 0.02499 0.27383 0.81880
 C80 C 0.07272 0.68355 0.89215
 C81 C -0.19170 0.52294 0.66701
 C82 C 0.20887 0.52122 0.61453
 C83 C 0.14242 0.09182 0.44086
 H84 H 0.15704 0.13318 0.47461
 C85 C 0.09925 0.10573 0.38159
 H86 H 0.08047 0.15780 0.37004
 C87 C 0.15311 -0.02594 0.41182
 H88 H 0.17522 -0.07696 0.42320
 C89 C 0.11097 -0.01426 0.35181
 H90 H 0.10035 -0.05680 0.31764
 N91 N 0.17025 0.02715 0.45325
 C92 C 0.26551 0.00027 0.66218
 H93 H 0.31696 0.00625 0.65293
 C94 C 0.24926 -0.01008 0.72901
 H95 H 0.28849 -0.01121 0.77100
 C96 C 0.15222 -0.00528 0.61815
 H97 H 0.11477 -0.00375 0.57458
 C98 C 0.13367 -0.01566 0.68438
 H99 H 0.08157 -0.02141 0.69085
 Zn100 Zn 0.24508 0.01344 0.51844
 N101 N 0.21730 0.00228 0.60829
 C102 C 0.27830 0.13829 0.57182
 N103 N 0.29087 0.09355 0.51899
 C104 C 0.32721 0.11012 0.46696
 C105 C 0.35515 0.17272 0.46903
 C106 C 0.30531 0.20025 0.57612
 C107 C 0.30913 -0.11862 0.53983
 C108 C 0.33827 -0.18288 0.52189
 C109 C 0.34488 -0.14426 0.40664
 C110 C 0.31658 -0.07964 0.42732
 N111 N 0.29841 -0.06822 0.49292
 H112 H 0.24617 0.12665 0.61054
 H113 H 0.33474 0.07496 0.42407
 H114 H 0.38604 0.18457 0.42899
 H115 H 0.29573 0.23412 0.61978
 H116 H 0.29273 -0.11054 0.59085
 H117 H 0.34445 -0.22204 0.56020
 H118 H 0.35769 -0.15316 0.35401
 H119 H 0.30600 -0.03974 0.39004
 C120 C 0.18264 -0.01817 0.74094
 C121 C 0.08599 0.05258 0.33483
 C122 C 0.35570 -0.19682 0.45440
 C123 C 0.34488 0.21791 0.52501
 C124 C 0.85310 0.00379 0.57239
 H125 H 0.85368 0.05048 0.54504
 C126 C 0.88884 -0.00450 0.63710
 H127 H 0.91897 0.03477 0.65842
 C128 C 0.80785 -0.10146 0.58174
 H129 H 0.77320 -0.13731 0.56265
 C130 C 0.84437 -0.11280 0.64500
 H131 H 0.83887 -0.15834 0.67262
 N132 N 0.81065 -0.04268 0.54816
 C133 C 0.83143 -0.01912 0.38009
 H134 H 0.86022 -0.05626 0.41336
 C135 C 0.85212 -0.00865 0.31504
 H136 H 0.89724 -0.03801 0.30012
 C137 C 0.73787 0.06298 0.36033
 H138 H 0.69295 0.09053 0.37707
 C139 C 0.75716 0.07582 0.29518
 H140 H 0.72645 0.11320 0.26353
 Zn141 Zn 0.73957 -0.01774 0.48052
 N142 N 0.77365 0.01441 0.40047
 C143 C 0.62711 0.08185 0.48511
 N144 N 0.68150 0.05058 0.52214
 C145 C 0.70131 0.07418 0.58644
 C146 C 0.67595 0.13824 0.60923
 C147 C 0.59966 0.14606 0.50610
 C148 C 0.73539 -0.14671 0.42419
 C149 C 0.71682 -0.21246 0.41942
 C150 C 0.61453 -0.17259 0.47162
 C151 C 0.63573 -0.10716 0.47648
 N152 N 0.69657 -0.09637 0.45525
 H153 H 0.60890 0.05984 0.43636
 H154 H 0.74018 0.04601 0.61860
 H155 H 0.69700 0.15908 0.65752
 H156 H 0.56071 0.17287 0.47240
 H157 H 0.78379 -0.13741 0.40860
 H158 H 0.75080 -0.25297 0.39931
 H159 H 0.56845 -0.18209 0.49312
 H160 H 0.60618 -0.06651 0.50180
 C161 C 0.81351 0.03789 0.27045
 C162 C 0.88242 -0.06239 0.67485
 C163 C 0.65725 -0.22631 0.44579
 C164 C 0.62818 0.17693 0.56634
 C165 C 0.57679 0.21176 0.89820
 H166 H 0.55411 0.25626 0.87113
 C167 C 0.63980 0.18237 0.88131
 H168 H 0.66424 0.20491 0.84150
 C169 C 0.57383 0.13023 0.98389
 H170 H 0.54868 0.11111 1.02511
 C171 C 0.63740 0.09959 0.96910
 H172 H 0.65983 0.05666 0.99893
 N173 N 0.54648 0.18765 0.95110
 C174 C 0.35247 0.17618 0.93515
 H175 H 0.36806 0.17747 0.88356
 C176 C 0.28852 0.15645 0.94498
 H177 H 0.25549 0.14362 0.90055
 C178 C 0.37709 0.18795 1.05551
 H179 H 0.41184 0.19717 1.09928
 C180 C 0.31427 0.17018 1.06762
 H181 H 0.30262 0.16755 1.12071
 Zn182 Zn 0.47190 0.24364 0.98577
 N183 N 0.39359 0.19577 0.99023
 C184 C 0.41070 0.32236 0.87017
 N185 N 0.45353 0.32139 0.92864
 C186 C 0.49758 0.36912 0.94060
 C187 C 0.50514 0.41510 0.88969
 C188 C 0.41663 0.36761 0.81766
 C189 C 0.55278 0.24614 1.11516
 C190 C 0.56237 0.25787 1.18633
 C191 C 0.45902 0.33231 1.18039
 C192 C 0.45143 0.31925 1.10916
 N193 N 0.49666 0.27470 1.07834
 H194 H 0.37566 0.28479 0.86114
 H195 H 0.53172 0.36709 0.98685
 H196 H 0.54460 0.44871 0.89794
 H197 H 0.38658 0.36328 0.76903
 H198 H 0.58930 0.21233 1.09026
 H199 H 0.60671 0.23330 1.21466
 H200 H 0.42140 0.36654 1.20369
 H201 H 0.40719 0.34151 1.07899
 C202 C 0.26762 0.15658 1.01219
 C203 C 0.67245 0.12746 0.91900
 C204 C 0.51434 0.30002 1.22029
 C205 C 0.46733 0.41166 0.82572
 C206 C 0.37170 0.79551 0.99194
 H207 H 0.37437 0.75207 0.95691
 C208 C 0.30889 0.82541 1.00820
 H209 H 0.26449 0.80514 0.98367
 C210 C 0.42716 0.87099 1.06856
 H211 H 0.47318 0.88668 1.09420
 C212 C 0.36521 0.90253 1.08650
 H213 H 0.36490 0.94395 1.12425
 N214 N 0.42928 0.81845 1.02183
 C215 C 0.64156 0.74970 1.00013
 H216 H 0.63019 0.69774 0.99101
 C217 C 0.70664 0.76592 0.99487
 H218 H 0.74518 0.72610 0.98229
 C219 C 0.60378 0.86491 1.02392
 H220 H 0.56312 0.90361 1.03241
 C221 C 0.66917 0.88330 1.02042
 H222 H 0.67841 0.93613 1.02713
 Zn223 Zn 0.50808 0.76078 1.00521
 N224 N 0.59140 0.79882 1.01318
 C225 C 0.51451 0.77529 0.86752
 N226 N 0.49750 0.72971 0.91217
 C227 C 0.47453 0.66998 0.88908
 C228 C 0.47205 0.65270 0.81865
 C229 C 0.51313 0.76007 0.79724
 C230 C 0.53190 0.62531 1.06158
 C231 C 0.54056 0.58128 1.11724
 C232 C 0.52232 0.67813 1.19450
 C233 C 0.51408 0.71996 1.13773
 N234 N 0.51754 0.69327 1.07278
 H235 H 0.53059 0.82335 0.88686
 H236 H 0.45792 0.63588 0.92479
 H237 H 0.45583 0.60401 0.80144
 H238 H 0.52900 0.79635 0.76305
 H239 H 0.53834 0.60521 1.01016
 H240 H 0.55129 0.52719 1.10761
 H241 H 0.51867 0.70113 1.24532
 H242 H 0.50542 0.77428 1.14566
 C243 C 0.72098 0.83341 1.00411
 C244 C 0.30476 0.87950 1.05657
 C245 C 0.53520 0.60774 1.18467
 C246 C 0.49293 0.69769 0.77211
 B247 B 0.96636 1.08265 0.02053
 B248 B 1.01052 1.03143 0.08048
 B249 B 0.93087 1.01807 0.05348
 B250 B 0.91823 1.03411 -0.03256
 B251 B 0.99190 1.05781 -0.05799
 B252 B 1.04853 1.05577 0.01175
 B253 B 1.01599 0.92531 -0.01426
 B254 B 0.97012 0.97677 -0.07435
 B255 B 1.05116 0.99002 -0.04745
 B256 B 1.06372 0.97459 0.03839
 B257 B 0.99090 0.95083 0.06435
 B258 B 0.93326 0.95249 -0.00491
 B259 B 0.58495 0.46993 0.47189
 B260 B 0.52129 0.50850 0.42051
 B261 B 0.51688 0.42813 0.44758
 B262 B 0.55233 0.42431 0.53028
 B263 B 0.57814 0.50154 0.55267
 B264 B 0.55806 0.55337 0.48576
 B265 B 0.44018 0.51571 0.52854
 B266 B 0.50592 0.47829 0.58031
 B267 B 0.50845 0.55775 0.55237
 B268 B 0.47294 0.56294 0.47020
 B269 B 0.44762 0.48552 0.44645
 B270 B 0.46776 0.43237 0.51445
 N271 N 0.88028 1.18654 0.01493
 N272 N 0.87364 1.25173 0.03408
 C273 C 0.93256 1.26486 0.06811
 C274 C 0.97460 1.20512 0.06970
 N275 N 0.94073 1.15718 0.03603
 H276 H 1.02447 1.19727 0.09439
 N277 N 1.04106 0.89112 0.17220
 N278 N 1.03665 0.83652 0.20832
 C279 C 0.98339 0.80687 0.17935
 C280 C 0.95470 0.84610 0.12521
 N281 N 0.99245 0.89857 0.12175
 H282 H 0.91471 0.83286 0.08858
 N283 N 1.00373 1.09657 -0.17926
 N284 N 1.01389 1.15147 -0.21260
 C285 C 1.01402 1.20312 -0.16590
 C286 C 1.00368 1.17763 -0.10322
 N287 N 0.99654 1.11083 -0.11330
 H288 H 1.00590 1.20488 -0.05468
 N289 N 1.04450 0.80549 0.02629
 N290 N 1.06100 0.74249 0.00500
 C291 C 1.06976 0.74509 -0.06235
 C292 C 1.05991 0.81304 -0.08073
 N293 N 1.04091 0.84915 -0.02437
 H294 H 1.06550 0.83350 -0.13042
 N295 N 0.98800 1.11102 0.18248
 N296 N 1.00478 1.11791 0.24959
 C297 C 1.05243 1.06672 0.26580
 C298 C 1.06514 1.02999 0.20674
 N299 N 1.02401 1.05852 0.15507
 H300 H 1.10115 0.98627 0.20363
 N301 N 1.17272 0.97709 -0.07685
 N302 N 1.20854 0.97529 -0.13102
 C303 C 1.16477 0.97425 -0.18756
 C304 C 1.10132 0.97408 -0.16571
 N305 N 1.10775 0.97734 -0.09624
 H306 H 1.05491 0.97500 -0.19783
 N307 N 0.82900 1.08447 0.10064
 N308 N 0.79813 1.09205 0.15828
 C309 C 0.82952 1.04551 0.20246
 C310 C 0.87962 1.00872 0.16911
 N311 N 0.87765 1.03378 0.10536
 H312 H 0.91640 0.97025 0.19095
 N313 N 0.95196 0.88168 -0.16057
 N314 N 0.93072 0.86903 -0.22532
 C315 C 0.91235 0.92965 -0.25394
 C316 C 0.92140 0.97968 -0.20387
 N317 N 0.94826 0.94769 -0.14615
 H318 H 0.90706 1.03334 -0.20917
 N319 N 1.12457 1.12234 0.08868
 N320 N 1.18337 1.14677 0.09121
 C321 C 1.20317 1.14244 0.02682
 C322 C 1.15224 1.11670 -0.01608
 N323 N 1.10466 1.10297 0.02516
 H324 H 1.15174 1.10531 -0.07075
 N325 N 0.84495 1.10740 -0.11935
 N326 N 0.78156 1.13244 -0.13392
 C327 C 0.74431 1.10446 -0.09015
 C328 C 0.78761 1.06105 -0.04885
 N329 N 0.85026 1.06429 -0.06795
 H330 H 0.77442 1.03417 -0.00604
 N331 N 1.17127 0.98839 0.11201
 N332 N 1.23581 0.96598 0.11641
 C333 C 1.24232 0.91131 0.07388
 C334 C 1.17841 0.89988 0.04536
 N335 N 1.13514 0.94995 0.06963
 H336 H 1.16602 0.86393 0.00464
 N337 N 0.88349 0.84691 -0.05217
 N338 N 0.82936 0.81420 -0.05052
 C339 C 0.78841 0.85100 -0.00899
 C340 C 0.81975 0.90677 0.01535
 N341 N 0.87868 0.90333 -0.01375
 H342 H 0.80246 0.94364 0.05343
 N343 N 0.68934 0.38780 0.46438
 N344 N 0.74916 0.38325 0.43980
 C345 C 0.75109 0.43997 0.40383
 C346 C 0.68975 0.47826 0.40559
 N347 N 0.65323 0.44522 0.44568
 H348 H 0.67360 0.52617 0.38110
 N349 N 0.38824 0.50321 0.32933
 N350 N 0.32802 0.50490 0.29588
 C351 C 0.28607 0.48552 0.34017
 C352 C 0.32338 0.47097 0.40220
 N353 N 0.38710 0.48287 0.39329
 H354 H 0.30551 0.45540 0.44931
 N355 N 0.63658 0.56280 0.65186
 N356 N 0.69682 0.57104 0.68205
 C357 C 0.74109 0.52709 0.65097
 C358 C 0.70483 0.49072 0.60120
 N359 N 0.63949 0.51477 0.60295
 H360 H 0.72457 0.45214 0.56653
 N361 N 0.33827 0.59950 0.54336
 N362 N 0.27623 0.60238 0.56237
 C363 C 0.26863 0.54003 0.58420
 C364 C 0.32770 0.49943 0.57826
 N365 N 0.37056 0.53820 0.55285
 H366 H 0.33640 0.44598 0.58850
 N367 N 0.54902 0.47031 0.30057
 N368 N 0.55366 0.49397 0.23859
 C369 C 0.54098 0.56193 0.24378
 C370 C 0.52935 0.57883 0.31145
 N371 N 0.53283 0.52005 0.34504
 H372 H 0.51932 0.62893 0.33373
 N373 N 0.54230 0.67005 0.60141
 N374 N 0.53899 0.70790 0.65851
 C375 C 0.49954 0.67844 0.69895
 C376 C 0.47764 0.62222 0.66391
 N377 N 0.50621 0.61784 0.60370
 H378 H 0.44623 0.58650 0.68178
 N379 N 0.58172 0.32795 0.39286
 N380 N 0.58356 0.29437 0.33312
 C381 C 0.52519 0.31287 0.29589
 C382 C 0.48648 0.35682 0.33676
 N383 N 0.52435 0.36710 0.39635
 H384 H 0.43879 0.38404 0.32101
 N385 N 0.56547 0.46250 0.69805
 N386 N 0.55745 0.44874 0.76241
 C387 C 0.49200 0.44159 0.76539
 C388 C 0.46008 0.45222 0.69985
 N389 N 0.50812 0.46469 0.65850
 H390 H 0.40766 0.44905 0.68453
 N391 N 0.66976 0.60037 0.49011
 N392 N 0.69756 0.65627 0.47913
 C393 C 0.64719 0.70263 0.45686
 C394 C 0.58766 0.67334 0.45447
 N395 N 0.60382 0.60879 0.47496
 H396 H 0.53812 0.69750 0.43992
 N397 N 0.63703 0.35257 0.60910
 N398 N 0.65609 0.28763 0.62173
 C399 C 0.61612 0.25081 0.57921
 C400 C 0.57248 0.29519 0.54054
 N401 N 0.58733 0.35808 0.55958
 H402 H 0.53442 0.28273 0.50089
 N403 N 0.40774 0.64050 0.37922
 N404 N 0.37788 0.70343 0.37259
 C405 C 0.38443 0.73382 0.43537
 C406 C 0.41886 0.68751 0.47988
 N407 N 0.43378 0.62974 0.44341
 H408 H 0.42992 0.69585 0.53418
 N409 N 0.43385 0.35211 0.59741
 N410 N 0.40378 0.29662 0.60217
 C411 C 0.38091 0.27901 0.53795
 C412 C 0.39801 0.32668 0.49301
 N413 N 0.43033 0.37247 0.53305
 H414 H 0.38881 0.32742 0.43744
   
