data_POSCAR
  _audit_creation_date              2014-09-24
  _audit_creation_method            'ToBaCCo'
  _symmetry_space_group_name_H-M    'P1'
  _symmetry_Int_Tables_number       1
  _symmetry_cell_setting            triclinic
  loop_
  _symmetry_equiv_pos_as_xyz
 x,y,z
_cell_length_a 25.9905
_cell_length_b 32.3085
_cell_length_c 28.5817
_cell_angle_alpha 77.117100
_cell_angle_beta 84.867000
_cell_angle_gamma 93.917300
loop_
  _atom_site_label
  _atom_site_type_symbol
  _atom_site_fract_x
  _atom_site_fract_y
  _atom_site_fract_z
N1 N 0.57449 0.70296 0.59569
 N2 N 0.54254 0.69652 0.63552
 C3 C 0.51428 0.73021 0.63356
 C4 C 0.52907 0.75885 0.58991
 C5 C 0.56734 0.74062 0.56680
 H6 H 0.48411 0.73306 0.66099
 H7 H 0.58809 0.75352 0.53143
 Cu8 Cu 0.54029 0.64381 0.68483
 Cu9 Cu 0.62282 0.66181 0.58440
 Cu10 Cu 0.58009 0.55901 0.64696
 N11 N 0.53657 0.58796 0.72874
 N12 N 0.55221 0.55482 0.71364
 C13 C 0.54920 0.52107 0.75144
 C14 C 0.53136 0.53391 0.79247
 C15 C 0.52319 0.57648 0.77677
 H16 H 0.56167 0.49016 0.74951
 H17 H 0.51119 0.59801 0.79884
 N18 N 0.62999 0.57192 0.58844
 N19 N 0.64897 0.61115 0.56680
 C20 C 0.68697 0.60963 0.53223
 C21 C 0.69181 0.56744 0.53188
 C22 C 0.65502 0.54428 0.56778
 H23 H 0.70985 0.63716 0.50939
 H24 H 0.64901 0.50995 0.57982
 H25 H 0.56155 0.61922 0.61117
 H26 H 0.61580 0.61585 0.65008
 N27 N 0.94135 0.30435 0.13592
 N28 N 0.96927 0.31324 0.16918
 C29 C 1.00499 0.28511 0.17767
 C30 C 1.00002 0.25759 0.14725
 C31 C 0.95959 0.27092 0.12082
 H32 H 1.03307 0.28529 0.20337
 H33 H 0.94350 0.25656 0.09393
 Cu34 Cu 0.95907 0.36251 0.19591
 Cu35 Cu 0.88162 0.33585 0.11794
 Cu36 Cu 0.83698 0.38693 0.20683
 N37 N 0.93993 0.40651 0.22866
 N38 N 0.89143 0.41524 0.23427
 C39 C 0.88820 0.44534 0.26001
 C40 C 0.93756 0.45649 0.27015
 C41 C 0.96950 0.43123 0.24981
 H42 H 0.85279 0.45856 0.26988
 H43 H 1.01093 0.43055 0.25079
 N44 N 0.79384 0.37244 0.15851
 N45 N 0.81115 0.35482 0.12335
 C46 C 0.77382 0.35332 0.09375
 C47 C 0.73130 0.37109 0.11113
 C48 C 0.74530 0.38273 0.15221
 H49 H 0.77785 0.34143 0.06123
 H50 H 0.72285 0.39942 0.17455
 H51 H 0.88940 0.38914 0.14886
 H52 H 0.87110 0.33502 0.18859
 N53 N 0.45022 0.21260 -0.16880
 N54 N 0.48525 0.18559 -0.17208
 C55 C 0.52984 0.20019 -0.15824
 C56 C 0.52225 0.23854 -0.14587
 C57 C 0.47151 0.24567 -0.15343
 H58 H 0.56461 0.18360 -0.15600
 H59 H 0.45079 0.27179 -0.14588
 Cu60 Cu 0.46851 0.13329 -0.19267
 Cu61 Cu 0.37848 0.20043 -0.18034
 Cu62 Cu 0.34400 0.09512 -0.18071
 N63 N 0.44630 0.08752 -0.22256
 N64 N 0.39719 0.07309 -0.21893
 C65 C 0.39268 0.04225 -0.24362
 C66 C 0.44169 0.03702 -0.26333
 C67 C 0.47480 0.06614 -0.24917
 H68 H 0.35660 0.02469 -0.24654
 H69 H 0.51639 0.07177 -0.25813
 N70 N 0.29367 0.13333 -0.16325
 N71 N 0.30606 0.17445 -0.16769
 C72 C 0.26453 0.19185 -0.15129
 C73 C 0.22464 0.15998 -0.13476
 C74 C 0.24442 0.12322 -0.14266
 H75 H 0.26519 0.22412 -0.14636
 H76 H 0.22544 0.09120 -0.13171
 H77 H 0.38535 0.13818 -0.14879
 H78 H 0.38265 0.15056 -0.21548
 N79 N 0.10807 0.78748 0.40892
 N80 N 0.09137 0.79014 0.36637
 C81 C 0.05745 0.75613 0.36853
 C82 C 0.05203 0.73148 0.41529
 C83 C 0.08483 0.75225 0.43992
 H84 H 0.03681 0.75067 0.33891
 H85 H 0.09142 0.74266 0.47749
 Cu86 Cu 0.11293 0.83956 0.31348
 Cu87 Cu 0.15917 0.82987 0.42027
 Cu88 Cu 0.14709 0.92948 0.34941
 N89 N 0.12088 0.89517 0.26893
 N90 N 0.13221 0.93025 0.28351
 C91 C 0.13146 0.96413 0.24645
 C92 C 0.11974 0.94943 0.20647
 C93 C 0.11330 0.90550 0.22190
 H94 H 0.13905 0.99702 0.24840
 H95 H 0.10249 0.88290 0.20091
 N96 N 0.18115 0.92066 0.40971
 N97 N 0.18792 0.88231 0.43501
 C98 C 0.21725 0.88594 0.47047
 C99 C 0.22932 0.92865 0.46777
 C100 C 0.20579 0.94999 0.42895
 H101 H 0.22978 0.85940 0.49584
 H102 H 0.20891 0.98404 0.41419
 H103 H 0.11188 0.86979 0.38457
 H104 H 0.17845 0.87338 0.35234
 C105 C 0.07341 0.14357 0.08925
 C106 C 0.08046 0.10105 0.10982
 C107 C 0.09773 0.07389 0.08092
 C108 C 0.10983 0.09022 0.03094
 C109 C 0.10404 0.13313 0.00991
 C110 C 0.08409 0.15923 0.03929
 H111 H 0.07229 0.08912 0.14854
 H112 H 0.12566 0.07010 0.00865
 H113 H 0.08066 0.19264 0.02427
 C114 C 0.43727 0.88659 0.58094
 C115 C 0.45422 0.90661 0.61619
 C116 C 0.42979 0.94153 0.62677
 C117 C 0.38667 0.95504 0.60295
 C118 C 0.36890 0.93457 0.56810
 C119 C 0.39459 0.90052 0.55730
 H120 H 0.48736 0.89568 0.63423
 H121 H 0.36755 0.98176 0.61106
 H122 H 0.38175 0.88500 0.52990
 C123 C 0.93304 0.60947 0.42265
 C124 C 0.88304 0.59610 0.44595
 C125 C 0.85305 0.56286 0.43418
 C126 C 0.87400 0.54261 0.39906
 C127 C 0.92440 0.55546 0.37578
 C128 C 0.95322 0.58969 0.38706
 H129 H 0.86773 0.61138 0.47368
 H130 H 0.85138 0.51659 0.39016
 H131 H 0.99198 0.60030 0.36942
 C132 C 0.58660 0.35034 -0.07129
 C133 C 0.60980 0.35135 -0.02891
 C134 C 0.60708 0.38679 -0.00834
 C135 C 0.58249 0.42193 -0.03125
 C136 C 0.56116 0.42214 -0.07468
 C137 C 0.56274 0.38598 -0.09414
 H138 H 0.62820 0.32401 -0.01084
 H139 H 0.58236 0.44998 -0.01643
 H140 H 0.54582 0.38575 -0.12741
 C141 C 0.02921 0.22342 0.14446
 C142 C 0.06343 0.20785 0.17699
 C143 C 0.08290 0.17459 0.16157
 C144 C 0.05987 0.17277 0.12037
 O145 O 0.02719 0.20232 0.10984
 H146 H 0.07284 0.21908 0.20841
 H147 H 0.11168 0.15482 0.17753
 C148 C 0.50635 0.79867 0.57047
 C149 C 0.50686 0.81645 0.52186
 C150 C 0.48006 0.85149 0.51936
 C151 C 0.46591 0.85279 0.56665
 O152 O 0.48175 0.82072 0.59787
 H153 H 0.52391 0.80480 0.49188
 H154 H 0.47229 0.87381 0.48701
 C155 C 1.01894 0.69455 0.43394
 C156 C 1.00871 0.67519 0.48245
 C157 C 0.97346 0.64142 0.48474
 C158 C 0.96561 0.64226 0.43750
 O159 O 0.99306 0.67443 0.40653
 H160 H 1.02439 0.68480 0.51262
 H161 H 0.95646 0.61828 0.51682
 C162 C 0.55787 0.26408 -0.12390
 C163 C 0.60447 0.25185 -0.10845
 C164 C 0.62225 0.28284 -0.08682
 C165 C 0.58529 0.31181 -0.09107
 O166 O 0.54627 0.30048 -0.11362
 H167 H 0.62264 0.22326 -0.11144
 H168 H 0.65772 0.28403 -0.06984
 C169 C 0.11374 -0.02439 0.15850
 C170 C 0.11085 -0.03942 0.11721
 C171 C 0.10539 -0.00442 0.08168
 C172 C 0.10497 0.02926 0.10417
 O173 O 0.11009 0.01708 0.15073
 H174 H 0.11250 -0.07191 0.11347
 H175 H 0.10112 -0.00381 0.04424
 C176 C 0.52853 0.51001 -0.16017
 C177 C 0.51355 0.52458 -0.11961
 C178 C 0.52174 0.49276 -0.08152
 C179 C 0.54096 0.46109 -0.10167
 O180 O 0.54463 0.47141 -0.14937
 H181 H 0.49987 0.55515 -0.11788
 H182 H 0.51555 0.49313 -0.04368
 C183 C 0.45594 1.00699 0.70695
 C184 C 0.50536 0.99503 0.69979
 C185 C 0.50199 0.96778 0.66986
 C186 C 0.45072 0.96535 0.66061
 O187 O 0.42267 0.98921 0.68316
 H188 H 0.53979 1.00513 0.71445
 H189 H 0.53363 0.95267 0.65537
 C190 C 0.95266 0.48841 0.29695
 C191 C 1.00306 0.50357 0.29895
 C192 C 0.99953 0.53181 0.32782
 C193 C 0.94709 0.53166 0.34149
 O194 O 0.91866 0.50525 0.32269
 H195 H 1.03818 0.49488 0.28172
 H196 H 1.03165 0.54929 0.33856
 C197 C 0.17768 0.16298 -0.10358
 C198 C 0.15080 0.19869 -0.10825
 C199 C 0.11636 0.19121 -0.06778
 C200 C 0.12535 0.15161 -0.04095
 O201 O 0.16231 0.13436 -0.06304
 H202 H 0.15718 0.22745 -0.13673
 H203 H 0.08976 0.21305 -0.05824
 C204 C 0.73142 0.55122 0.50254
 C205 C 0.72985 0.51039 0.49535
 C206 C 0.77480 0.50921 0.46721
 C207 C 0.80058 0.54936 0.45985
 O208 O 0.77416 0.57480 0.48123
 H209 H 0.69979 0.48458 0.50923
 H210 H 0.78781 0.48193 0.45496
 C211 C 0.68372 0.38043 0.08803
 C212 C 0.64562 0.40275 0.10496
 C213 C 0.61122 0.40757 0.07139
 C214 C 0.63068 0.38762 0.03655
 O215 O 0.67465 0.37094 0.04663
 H216 H 0.64372 0.41499 0.13729
 H217 H 0.57632 0.42398 0.07202
 C218 C 0.26502 0.94606 0.49703
 C219 C 0.26990 0.98756 0.50204
 C220 C 0.30852 0.98901 0.53137
 C221 C 0.32453 0.94834 0.54142
 O222 O 0.29799 0.92241 0.52070
 H223 H 0.24830 1.01357 0.48598
 H224 H 0.32429 1.01672 0.54249
   
