data_POSCAR
  _audit_creation_date              2014-09-24
  _audit_creation_method            'ToBaCCo'
  _symmetry_space_group_name_H-M    'P1'
  _symmetry_Int_Tables_number       1
  _symmetry_cell_setting            triclinic
  loop_
  _symmetry_equiv_pos_as_xyz
 x,y,z
_cell_length_a 28.3180
_cell_length_b 27.7143
_cell_length_c 23.6152
_cell_angle_alpha 89.962000
_cell_angle_beta 90.128500
_cell_angle_gamma 90.172500
loop_
  _atom_site_label
  _atom_site_type_symbol
  _atom_site_fract_x
  _atom_site_fract_y
  _atom_site_fract_z
C1 C 0.16537 0.24926 0.13634
 C2 C 0.18603 0.20498 0.15189
 C3 C 0.22099 0.20501 0.19436
 C4 C 0.23341 0.24757 0.22386
 C5 C 0.20990 0.29066 0.20919
 C6 C 0.17749 0.29211 0.16443
 C7 C 0.27004 0.24719 0.27019
 C8 C 0.29400 0.28997 0.28552
 C9 C 0.32622 0.29079 0.33052
 C10 C 0.33762 0.24760 0.35823
 C11 C 0.31644 0.20362 0.34207
 C12 C 0.28183 0.20425 0.29922
 H13 H 0.13716 0.25058 0.10559
 H14 H 0.23848 0.17135 0.20380
 H15 H 0.21613 0.32358 0.23259
 H16 H 0.28824 0.32316 0.26250
 H17 H 0.36571 0.24838 0.38918
 H18 H 0.26398 0.17079 0.28928
 C19 C 0.83882 0.24561 0.14392
 C20 C 0.82630 0.28941 0.16938
 C21 C 0.79263 0.28945 0.21280
 C22 C 0.76843 0.24683 0.22846
 C23 C 0.78084 0.20348 0.20076
 C24 C 0.81677 0.20235 0.16002
 C25 C 0.73146 0.24752 0.27423
 C26 C 0.71888 0.20503 0.30380
 C27 C 0.68391 0.20508 0.34601
 C28 C 0.66329 0.24938 0.36129
 C29 C 0.67561 0.29224 0.33328
 C30 C 0.70810 0.29071 0.28872
 H31 H 0.86783 0.24493 0.11421
 H32 H 0.78612 0.32311 0.23446
 H33 H 0.76313 0.16994 0.21047
 H34 H 0.73636 0.17132 0.29479
 H35 H 0.63504 0.25071 0.39184
 H36 H 0.71457 0.32365 0.26544
 C37 C 0.66112 0.75382 0.64387
 C38 C 0.67343 0.71019 0.66998
 C39 C 0.70682 0.71039 0.71384
 C40 C 0.73106 0.75305 0.72930
 C41 C 0.71877 0.79628 0.70116
 C42 C 0.68308 0.79719 0.65988
 C43 C 0.76800 0.75237 0.77527
 C44 C 0.78057 0.79477 0.80502
 C45 C 0.81541 0.79450 0.84761
 C46 C 0.83589 0.75009 0.86295
 C47 C 0.82368 0.70741 0.83456
 C48 C 0.79136 0.70916 0.78970
 H49 H 0.63232 0.75427 0.61371
 H50 H 0.71314 0.67686 0.73594
 H51 H 0.73643 0.82985 0.71095
 H52 H 0.76319 0.82854 0.79580
 H53 H 0.86399 0.74853 0.89384
 H54 H 0.78502 0.67634 0.76616
 C55 C 0.33656 0.75090 0.63985
 C56 C 0.31487 0.79444 0.65494
 C57 C 0.27898 0.79399 0.69571
 C58 C 0.26648 0.75122 0.72478
 C59 C 0.29029 0.70828 0.71008
 C60 C 0.32376 0.70754 0.66643
 C61 C 0.22998 0.75166 0.77113
 C62 C 0.20644 0.70889 0.78770
 C63 C 0.17436 0.70837 0.83312
 C64 C 0.16234 0.75251 0.85880
 C65 C 0.18329 0.79590 0.84120
 C66 C 0.21803 0.79491 0.79916
 H67 H 0.36553 0.75100 0.61007
 H68 H 0.26146 0.82771 0.70451
 H69 H 0.28369 0.67502 0.73264
 H70 H 0.21291 0.67542 0.76562
 H71 H 0.13398 0.75397 0.88921
 H72 H 0.23520 0.82859 0.78875
 O73 O 1.04780 -0.05443 0.03355
 O74 O 0.95443 0.03520 0.05894
 O75 O 0.95669 -0.05693 0.03461
 O76 O 1.04659 0.03756 0.05733
 O77 O 1.04429 0.05580 -0.03371
 O78 O 0.95436 -0.03854 -0.05638
 O79 O 0.95320 0.05339 -0.03213
 O80 O 1.04648 -0.03635 -0.05754
 Cu81 Cu 1.00149 -0.01127 0.05531
 Cu82 Cu 0.99945 0.01020 -0.05413
 C83 C 1.06265 -0.06103 -0.01647
 C84 C 0.93832 0.05995 0.01791
 C85 C 0.94064 -0.06418 -0.01488
 C86 C 1.06034 0.06311 0.01576
 O87 O 0.45504 0.46691 0.43792
 O88 O 0.54553 0.55817 0.47190
 O89 O 0.54648 0.46805 0.43844
 O90 O 0.45414 0.55699 0.47122
 O91 O 0.45409 0.53321 0.56051
 O92 O 0.54644 0.44433 0.52775
 O93 O 0.54537 0.53438 0.56118
 O94 O 0.45492 0.44317 0.52721
 Cu95 Cu 0.50031 0.51493 0.44590
 Cu96 Cu 0.50022 0.48632 0.55310
 C97 C 0.44009 0.43901 0.47669
 C98 C 0.56022 0.56241 0.52248
 C99 C 0.56163 0.44049 0.47743
 C100 C 0.43898 0.56083 0.52156
 O101 O -0.04461 0.44117 -0.02808
 O102 O 0.04405 0.53441 -0.06191
 O103 O 0.04687 0.44410 -0.02932
 O104 O -0.04725 0.53145 -0.06089
 O105 O -0.04732 0.55444 0.02865
 O106 O 0.04707 0.46732 0.06012
 O107 O 0.04385 0.55776 0.02750
 O108 O -0.04430 0.46439 0.06137
 Cu109 Cu -0.00025 0.48538 -0.05402
 Cu110 Cu -0.00008 0.51329 0.05340
 C111 C -0.05902 0.43644 0.02251
 C112 C 0.05827 0.56263 -0.02304
 C113 C 0.06243 0.44025 0.02091
 C114 C -0.06273 0.55842 -0.02164
 O115 O 0.54555 1.03741 0.44192
 O116 O 0.45449 0.94417 0.46496
 O117 O 0.45348 1.03634 0.44075
 O118 O 0.54585 0.94535 0.46642
 O119 O 0.54545 0.96378 0.55738
 O120 O 0.45326 1.05459 0.53180
 O121 O 0.45325 0.96254 0.55593
 O122 O 0.54408 1.05576 0.53291
 Cu123 Cu 0.49993 0.98910 0.44434
 Cu124 Cu 0.49892 1.01071 0.55372
 C125 C 0.55976 1.06294 0.48333
 C126 C 0.43868 0.93721 0.51453
 C127 C 0.43822 1.06148 0.48182
 C128 C 0.56107 0.93881 0.51641
 C129 C 1.17015 0.16032 0.13012
 C130 C 1.14176 0.15537 0.08491
 C131 C 1.11766 0.10934 0.07280
 C132 C 1.09321 0.10358 0.02479
 H133 H 1.13410 0.18557 0.05741
 H134 H 1.11702 0.08148 0.10504
 H135 H 1.18044 0.12775 0.15248
 H136 H 1.09528 0.13094 -0.00796
 C137 C 0.64932 0.66450 0.65482
 C138 C 0.63472 0.65495 0.60209
 C139 C 0.60756 0.61096 0.58904
 C140 C 0.59328 0.60180 0.53611
 H141 H 0.64199 0.68031 0.56822
 H142 H 0.59714 0.58728 0.62340
 H143 H 0.64424 0.63768 0.68773
 H144 H 0.60377 0.62581 0.50208
 C145 C -0.14946 0.33501 0.15410
 C146 C -0.13398 0.34403 0.10164
 C147 C -0.10670 0.38794 0.08864
 C148 C -0.09172 0.39670 0.03594
 H149 H -0.14067 0.31833 0.06797
 H150 H -0.09694 0.41204 0.12290
 H151 H -0.14494 0.36219 0.18670
 H152 H -0.10167 0.37238 0.00197
 C153 C 0.33306 0.84150 0.63437
 C154 C 0.35595 0.84701 0.58529
 C155 C 0.38242 0.89165 0.57323
 C156 C 0.40476 0.89768 0.52394
 H157 H 0.35769 0.81755 0.55525
 H158 H 0.38631 0.91836 0.60646
 H159 H 0.32960 0.87232 0.66232
 H160 H 0.39996 0.87142 0.49039
 C161 C -0.15289 0.66117 -0.15156
 C162 C -0.13953 0.64990 -0.09883
 C163 C -0.11167 0.60629 -0.08698
 C164 C -0.09728 0.59649 -0.03426
 H165 H -0.14785 0.67393 -0.06408
 H166 H -0.10038 0.58387 -0.12200
 H167 H -0.14674 0.63570 -0.18557
 H168 H -0.10848 0.61940 0.00037
 C169 C 0.33150 1.15871 0.36375
 C170 C 0.35868 1.15339 0.40993
 C171 C 0.38234 1.10734 0.42254
 C172 C 0.40498 1.10125 0.47172
 H173 H 0.36565 1.18338 0.43803
 H174 H 0.38439 1.07998 0.38985
 H175 H 0.32147 1.12636 0.34075
 H176 H 0.40146 1.12818 0.50472
 C177 C 1.16535 -0.15678 -0.13914
 C178 C 1.14468 -0.15029 -0.08887
 C179 C 1.11785 -0.10604 -0.07689
 C180 C 1.09730 -0.09953 -0.02662
 H181 H 1.14487 -0.17890 -0.05759
 H182 H 1.11203 -0.08029 -0.11078
 H183 H 1.16702 -0.12678 -0.16860
 H184 H 1.10395 -0.12494 0.00739
 C185 C 0.65211 0.33841 0.34727
 C186 C 0.63821 0.34919 0.39988
 C187 C 0.61039 0.39278 0.41188
 C188 C 0.59569 0.40206 0.46453
 H189 H 0.64616 0.32480 0.43449
 H190 H 0.59956 0.41574 0.37703
 H191 H 0.64635 0.36425 0.31348
 H192 H 0.60650 0.37863 0.49896
 C193 C 0.83128 -0.16099 -0.13019
 C194 C 0.85953 -0.15630 -0.08480
 C195 C 0.88352 -0.11030 -0.07224
 C196 C 0.90783 -0.10468 -0.02411
 H197 H 0.86715 -0.18665 -0.05752
 H198 H 0.88419 -0.08229 -0.10432
 H199 H 0.82107 -0.12829 -0.15232
 H200 H 0.90576 -0.13216 0.00850
 C201 C 0.35032 0.33665 0.34521
 C202 C 0.36434 0.34696 0.39799
 C203 C 0.39208 0.39068 0.41051
 C204 C 0.40662 0.39992 0.46332
 H205 H 0.35632 0.32231 0.43231
 H206 H 0.40276 0.41399 0.37592
 H207 H 0.35620 0.36281 0.31178
 H208 H 0.39592 0.37621 0.49754
 C209 C 0.15358 0.66415 -0.15055
 C210 C 0.13130 0.65712 -0.10109
 C211 C 0.10681 0.61146 -0.08825
 C212 C 0.08988 0.60329 -0.03629
 H213 H 0.13096 0.68489 -0.06892
 H214 H 0.10055 0.58571 -0.12199
 H215 H 0.15712 0.63346 -0.17872
 H216 H 0.09705 0.62904 -0.00279
 C217 C 0.66811 1.16045 0.36789
 C218 C 0.64000 1.15551 0.41318
 C219 C 0.61623 1.10937 0.42557
 C220 C 0.59261 1.10336 0.47398
 H221 H 0.63242 1.18574 0.44058
 H222 H 0.61511 1.08164 0.39322
 H223 H 0.67837 1.12786 0.34566
 H224 H 0.59517 1.13060 0.50680
 C225 C 0.15375 0.33819 0.15051
 C226 C 0.13993 0.34919 0.09787
 C227 C 0.11182 0.39266 0.08609
 C228 C 0.09707 0.40224 0.03346
 H229 H 0.14807 0.32507 0.06316
 H230 H 0.10071 0.41519 0.12111
 H231 H 0.14775 0.36378 0.18443
 H232 H 0.10812 0.37924 -0.00115
 C233 C 0.66536 0.84436 0.63934
 C234 C 0.64364 0.85006 0.58942
 C235 C 0.61698 0.89433 0.57676
 C236 C 0.59552 0.90010 0.52677
 H237 H 0.64283 0.82080 0.55902
 H238 H 0.61207 0.92077 0.61004
 H239 H 0.66804 0.87491 0.66785
 H240 H 0.60133 0.87406 0.49327
 C241 C 0.83462 0.15507 0.14021
 C242 C 0.85617 0.14903 0.09039
 C243 C 0.88284 0.10470 0.07824
 C244 C 0.90374 0.09850 0.02811
 H245 H 0.85679 0.17806 0.05965
 H246 H 0.88823 0.07864 0.11189
 H247 H 0.83207 0.12475 0.16910
 H248 H 0.89743 0.12419 -0.00570
 C249 C 0.34768 0.66172 0.65208
 C250 C 0.36247 0.65185 0.59959
 C251 C 0.39018 0.60828 0.58724
 C252 C 0.40508 0.59936 0.53459
 H253 H 0.35519 0.67688 0.56540
 H254 H 0.40067 0.58493 0.62188
 H255 H 0.35274 0.63527 0.68538
 H256 H 0.39451 0.62308 0.50033
   
