data_POSCAR
  _audit_creation_date              2014-09-24
  _audit_creation_method            'ToBaCCo'
  _symmetry_space_group_name_H-M    'P1'
  _symmetry_Int_Tables_number       1
  _symmetry_cell_setting            triclinic
  loop_
  _symmetry_equiv_pos_as_xyz
 x,y,z
_cell_length_a 48.3691
_cell_length_b 48.3912
_cell_length_c 13.9412
_cell_angle_alpha 90.043300
_cell_angle_beta 89.997100
_cell_angle_gamma 119.925200
loop_
  _atom_site_label
  _atom_site_type_symbol
  _atom_site_fract_x
  _atom_site_fract_y
  _atom_site_fract_z
C1 C 0.22229 0.49650 0.44935
 C2 C 0.22148 0.49466 0.55188
 C3 C 0.24648 0.49345 0.60019
 C4 C 0.27227 0.49409 0.55143
 C5 C 0.27306 0.49632 0.44978
 C6 C 0.24853 0.49787 0.40106
 H7 H 0.24945 0.49883 0.32334
 H8 H 0.24602 0.49225 0.67784
 C9 C 0.50226 -0.27422 0.44771
 C10 C 0.49885 -0.27545 0.54926
 C11 C 0.49781 -0.25060 0.59805
 C12 C 0.50158 -0.22338 0.54979
 C13 C 0.50482 -0.22224 0.44821
 C14 C 0.50572 -0.24714 0.39944
 H15 H 0.50689 -0.24626 0.32175
 H16 H 0.49663 -0.25149 0.67573
 C17 C 1.27545 0.77702 0.44594
 C18 C 1.27559 0.77633 0.54814
 C19 C 1.25019 0.75118 0.59727
 C20 C 1.22428 0.72667 0.54817
 C21 C 1.22370 0.72738 0.44684
 C22 C 1.24904 0.75247 0.39739
 H23 H 1.24844 0.75215 0.31964
 H24 H 1.25037 0.75095 0.67507
 C25 C 0.77626 0.50238 0.44962
 C26 C 0.77644 0.50186 0.55163
 C27 C 0.75166 0.50314 0.60107
 C28 C 0.72693 0.50492 0.55292
 C29 C 0.72714 0.50519 0.45079
 C30 C 0.75167 0.50387 0.40134
 H31 H 0.75171 0.50417 0.32352
 H32 H 0.75173 0.50291 0.67878
 C33 C 0.49358 0.27237 0.45089
 C34 C 0.49358 0.27257 0.55297
 C35 C 0.49465 0.24756 0.60153
 C36 C 0.49558 0.22251 0.55267
 C37 C 0.49555 0.22277 0.45059
 C38 C 0.49460 0.24760 0.40190
 H39 H 0.49458 0.24761 0.32407
 H40 H 0.49467 0.24755 0.67924
 C41 C 0.72867 0.22216 0.45033
 C42 C 0.72755 0.22362 0.55147
 C43 C 0.75208 0.24968 0.60034
 C44 C 0.77863 0.27397 0.55154
 C45 C 0.77935 0.27245 0.44953
 C46 C 0.75460 0.24650 0.40095
 H47 H 0.75491 0.24587 0.32319
 H48 H 0.75139 0.24972 0.67807
 O49 O 0.95586 0.43080 0.17632
 O50 O 0.92064 0.43753 0.08252
 C51 C 0.92727 0.42345 0.15014
 O52 O 1.04456 0.57363 0.16587
 O53 O 1.08016 0.56492 0.08046
 C54 C 1.07325 0.58059 0.14215
 O55 O 0.95528 0.52666 0.17243
 O56 O 0.92030 0.48384 0.08105
 C57 C 0.92677 0.50507 0.14704
 O58 O 1.04493 0.47281 0.16836
 O59 O 1.08018 0.51684 0.08193
 C60 C 1.07354 0.49446 0.14408
 Zr61 Zr 1.00046 0.46609 0.12064
 O62 O 1.00336 0.46645 0.27216
 O63 O 0.99923 0.42190 0.11058
 Zr64 Zr 1.00001 0.53571 0.11884
 O65 O 1.00318 0.53780 0.27043
 O66 O 0.99635 0.57752 0.11571
 O67 O 0.97173 0.48661 0.13826
 O68 O 1.02790 0.51486 0.13798
 O69 O 1.04571 0.47257 -0.16617
 O70 O 1.08052 0.51700 -0.08012
 C71 C 1.07419 0.49462 -0.14188
 O72 O 0.95574 0.52558 -0.17989
 O73 O 0.92061 0.48342 -0.08695
 C74 C 0.92716 0.50408 -0.15456
 O75 O 1.04505 0.57283 -0.17076
 O76 O 1.08026 0.56466 -0.08156
 C77 C 1.07366 0.57993 -0.14543
 O78 O 0.95644 0.42973 -0.17543
 O79 O 0.92087 0.43713 -0.08534
 C80 C 0.92775 0.42257 -0.15099
 Zr81 Zr 1.00087 0.46564 -0.12067
 O82 O 1.00445 0.46688 -0.27216
 O83 O 0.99839 0.42072 -0.11681
 Zr84 Zr 1.00036 0.53525 -0.12296
 O85 O 1.00398 0.53730 -0.27440
 O86 O 0.99658 0.57700 -0.12062
 Zr87 Zr 0.95263 0.47661 -0.00172
 Zr88 Zr 1.04811 0.52478 -0.00013
 O89 O 1.02831 0.51434 -0.13896
 O90 O 0.97217 0.48604 -0.14119
 O91 O 1.02934 0.47504 0.00070
 O92 O 0.97230 0.52645 -0.00267
 O93 O 0.97273 0.44679 -0.00018
 O94 O 1.02875 0.55534 -0.00179
 H95 H 1.04204 0.52203 0.19493
 H96 H 0.95777 0.53536 -0.00355
 H97 H 1.04257 0.52133 -0.19561
 H98 H 0.95844 0.42335 0.00024
 H99 H 1.01461 0.59373 0.07819
 H100 H 1.01552 0.59375 -0.08667
 H101 H 0.98742 0.51642 -0.29955
 H102 H 0.98663 0.46915 -0.29790
 H103 H 1.01446 0.42232 -0.06981
 H104 H 0.99898 0.41481 0.17740
 H105 H 0.98757 0.47194 0.29709
 H106 H 0.98539 0.51765 0.29565
 O107 O 0.43022 0.47540 0.17615
 O108 O 0.43698 0.51750 0.08284
 C109 C 0.42299 0.49683 0.15055
 O110 O 0.57269 0.52826 0.16625
 O111 O 0.56394 0.48427 0.07926
 C112 C 0.57955 0.50650 0.14184
 O113 O 0.52570 0.57072 0.17448
 O114 O 0.48305 0.56319 0.08278
 C115 C 0.50407 0.57768 0.14938
 O116 O 0.47239 0.42784 0.16774
 O117 O 0.51633 0.43673 0.08023
 C118 C 0.49421 0.42109 0.14308
 Zr119 Zr 0.46525 0.46542 0.12040
 O120 O 0.46547 0.46255 0.27187
 O121 O 0.42104 0.42259 0.11067
 Zr122 Zr 0.53501 0.53538 0.11892
 O123 O 0.53774 0.53469 0.27038
 O124 O 0.57681 0.58077 0.11415
 O125 O 0.48588 0.51456 0.13875
 O126 O 0.51406 0.48668 0.13716
 O127 O 0.47114 0.42687 -0.16686
 O128 O 0.51571 0.43622 -0.08204
 C129 C 0.49303 0.42017 -0.14310
 O130 O 0.52511 0.57031 -0.17783
 O131 O 0.48275 0.56295 -0.08500
 C132 C 0.50362 0.57735 -0.15194
 O133 O 0.57235 0.52809 -0.16940
 O134 O 0.56391 0.48420 -0.08243
 C135 C 0.57948 0.50654 -0.14477
 O136 O 0.42878 0.47347 -0.17514
 O137 O 0.43620 0.51626 -0.08433
 C138 C 0.42159 0.49492 -0.15020
 Zr139 Zr 0.46477 0.46500 -0.12108
 O140 O 0.46639 0.46321 -0.27264
 O141 O 0.41978 0.42273 -0.11848
 Zr142 Zr 0.53440 0.53492 -0.12305
 O143 O 0.53574 0.53277 -0.27456
 O144 O 0.57617 0.58034 -0.12299
 Zr145 Zr 0.47581 0.52387 -0.00091
 Zr146 Zr 0.52394 0.47657 -0.00144
 O147 O 0.51352 0.48614 -0.13989
 O148 O 0.48516 0.51407 -0.14084
 O149 O 0.47418 0.44570 -0.00024
 O150 O 0.52567 0.55398 -0.00196
 O151 O 0.44592 0.47404 0.00005
 O152 O 0.55455 0.52642 -0.00230
 H153 H 0.52120 0.47969 0.19412
 H154 H 0.53459 0.57739 -0.00210
 H155 H 0.52059 0.47885 -0.19640
 H156 H 0.42248 0.46501 0.00075
 H157 H 0.59347 0.57829 0.08057
 H158 H 0.59240 0.57870 -0.08415
 H159 H 0.51544 0.53024 -0.29929
 H160 H 0.46839 0.48323 -0.29780
 H161 H 0.42094 0.40851 -0.06966
 H162 H 0.41397 0.41589 0.17758
 H163 H 0.47081 0.48372 0.29728
 H164 H 0.51707 0.53088 0.29610
 O165 O 0.52602 -0.04442 0.17455
 O166 O 0.48386 -0.07940 0.08104
 C167 C 0.50466 -0.07292 0.14829
 O168 O 0.47217 0.04481 0.16696
 O169 O 0.51636 0.08031 0.08133
 C170 C 0.49384 0.07348 0.14311
 O171 O 0.43002 -0.04455 0.17417
 O172 O 0.43746 -0.07943 0.08089
 C173 C 0.42305 -0.07305 0.14817
 O174 O 0.57298 0.04491 0.16774
 O175 O 0.56405 0.08030 0.08213
 C176 C 0.57974 0.07355 0.14421
 Zr177 Zr 0.53539 0.00030 0.11980
 O178 O 0.53829 0.00295 0.27131
 O179 O 0.57829 -0.00103 0.10879
 Zr180 Zr 0.46540 0.00019 0.11973
 O181 O 0.46664 0.00339 0.27130
 O182 O 0.41994 -0.00343 0.11736
 O183 O 0.48620 -0.02824 0.13789
 O184 O 0.51412 0.02782 0.13834
 O185 O 0.57377 0.04546 -0.16674
 O186 O 0.56452 0.08038 -0.07972
 C187 C 0.58045 0.07396 -0.14186
 O188 O 0.43045 -0.04356 -0.17819
 O189 O 0.43765 -0.07901 -0.08702
 C190 C 0.42328 -0.07220 -0.15338
 O191 O 0.47310 0.04572 -0.16883
 O192 O 0.51680 0.08061 -0.08031
 C193 C 0.49480 0.07422 -0.14354
 O194 O 0.52702 -0.04362 -0.17721
 O195 O 0.48424 -0.07902 -0.08673
 C196 C 0.50548 -0.07227 -0.15278
 Zr197 Zr 0.53573 0.00084 -0.12163
 O198 O 0.53763 0.00461 -0.27309
 O199 O 0.57800 -0.00201 -0.11944
 Zr200 Zr 0.46584 0.00087 -0.12216
 O201 O 0.46735 0.00454 -0.27360
 O202 O 0.42049 -0.00247 -0.11946
 Zr203 Zr 0.47675 -0.04722 -0.00232
 Zr204 Zr 0.52423 0.04811 0.00037
 O205 O 0.51463 0.02854 -0.13874
 O206 O 0.48661 -0.02759 -0.14160
 O207 O 0.55512 0.02918 -0.00003
 O208 O 0.44672 -0.02731 -0.00195
 O209 O 0.52662 -0.02737 -0.00146
 O210 O 0.47439 0.02908 -0.00048
 H211 H 0.52111 0.04190 0.19543
 H212 H 0.42330 -0.04173 -0.00219
 H213 H 0.52192 0.04291 -0.19512
 H214 H 0.53570 -0.04175 -0.00161
 H215 H 0.42194 0.01494 0.08050
 H216 H 0.42275 0.01630 -0.08425
 H217 H 0.47082 -0.01257 -0.29903
 H218 H 0.51754 -0.01321 -0.29863
 H219 H 0.59245 0.01361 -0.07147
 H220 H 0.58532 -0.00114 0.17548
 H221 H 0.51703 -0.01272 0.29644
 H222 H 0.46957 -0.01409 0.29633
 C223 C 1.14679 0.49289 0.28436
 C224 C 1.13998 0.47236 0.36246
 C225 C 1.16476 0.47300 0.41585
 C226 C 1.19693 0.49463 0.39305
 C227 C 1.20336 0.51425 0.31156
 C228 C 1.17851 0.51354 0.25837
 C229 C 1.12123 0.49335 0.23271
 C230 C 1.09962 0.49388 0.19119
 H231 H 1.11548 0.45597 0.38253
 H232 H 1.15867 0.45634 0.47463
 H233 H 1.22764 0.53132 0.29146
 H234 H 1.18407 0.52953 0.19793
 C235 C 0.50173 0.65044 0.29000
 C236 C 0.48054 0.64358 0.36626
 C237 C 0.48021 0.66830 0.41709
 C238 C 0.50146 0.70051 0.39356
 C239 C 0.52182 0.70694 0.31387
 C240 C 0.52210 0.68212 0.26321
 C241 C 0.50269 0.62491 0.23986
 C242 C 0.50342 0.60340 0.19849
 H243 H 0.46423 0.61909 0.38652
 H244 H 0.46273 0.66205 0.47353
 H245 H 0.53869 0.73121 0.29319
 H246 H 0.53853 0.68769 0.20392
 C247 C 0.35076 -0.14844 0.28832
 C248 C 0.35765 -0.16182 0.36710
 C249 C 0.33298 -0.18688 0.41785
 C250 C 0.30079 -0.19875 0.39166
 C251 C 0.29437 -0.18585 0.30940
 C252 C 0.31913 -0.16077 0.25884
 C253 C 0.37614 -0.12185 0.23842
 C254 C 0.39749 -0.09950 0.19717
 H255 H 0.38212 -0.15286 0.38949
 H256 H 0.33926 -0.19731 0.47653
 H257 H 0.27010 -0.19399 0.28663
 H258 H 0.31354 -0.15066 0.19760
 C259 C 0.85278 0.50530 0.28614
 C260 C 0.85907 0.52947 0.35256
 C261 C 0.83409 0.52901 0.40424
 C262 C 0.80261 0.50415 0.39062
 C263 C 0.79633 0.48049 0.32190
 C264 C 0.82134 0.48099 0.27020
 C265 C 0.87866 0.50509 0.23602
 C266 C 0.90052 0.50496 0.19501
 H267 H 0.88330 0.54844 0.36518
 H268 H 0.83932 0.54765 0.45615
 H269 H 0.77219 0.46120 0.31028
 H270 H 0.81623 0.46222 0.21884
 C271 C 0.49545 0.34801 0.28489
 C272 C 0.51961 0.35482 0.35194
 C273 C 0.51940 0.33020 0.40501
 C274 C 0.49482 0.29855 0.39213
 C275 C 0.47109 0.29180 0.32315
 C276 C 0.47135 0.31642 0.27010
 C277 C 0.49495 0.37348 0.23309
 C278 C 0.49448 0.39501 0.19108
 H279 H 0.53842 0.37918 0.36381
 H280 H 0.53812 0.33583 0.45701
 H281 H 0.45200 0.26754 0.31201
 H282 H 0.45256 0.31088 0.21840
 C283 C 0.65307 0.14704 0.28773
 C284 C 0.68463 0.15408 0.27471
 C285 C 0.70925 0.17864 0.32733
 C286 C 0.70252 0.19630 0.39396
 C287 C 0.67084 0.18936 0.40575
 C288 C 0.64625 0.16479 0.35317
 C289 C 0.62760 0.12132 0.23520
 C290 C 0.60595 0.09961 0.19265
 H291 H 0.69018 0.14049 0.22431
 H292 H 0.73352 0.18364 0.31707
 H293 H 0.66517 0.20299 0.45561
 H294 H 0.62192 0.15959 0.36367
 C295 C 0.49668 0.14870 -0.28601
 C296 C 0.51632 0.16121 -0.36649
 C297 C 0.51644 0.18585 -0.41908
 C298 C 0.49652 0.19820 -0.39286
 C299 C 0.47761 0.18595 -0.30955
 C300 C 0.47756 0.16131 -0.25718
 C301 C 0.49583 0.12262 -0.23392
 C302 C 0.49517 0.10058 -0.19165
 H303 H 0.53161 0.15193 -0.38862
 H304 H 0.53277 0.19570 -0.47885
 H305 H 0.46166 0.19435 -0.28695
 H306 H 0.46226 0.15181 -0.19490
 C307 C 0.65424 0.50803 -0.28490
 C308 C 0.66608 0.48821 -0.25653
 C309 C 0.69043 0.48764 -0.30899
 C310 C 0.70309 0.50658 -0.39203
 C311 C 0.69160 0.52726 -0.41756
 C312 C 0.66727 0.52778 -0.36488
 C313 C 0.62825 0.50763 -0.23339
 C314 C 0.60614 0.50715 -0.19188
 H315 H 0.65616 0.47281 -0.19465
 H316 H 0.69822 0.47117 -0.28682
 H317 H 0.70186 0.54367 -0.47695
 H318 H 0.65860 0.54359 -0.38670
 C319 C 0.85430 0.34814 -0.29075
 C320 C 0.82268 0.33657 -0.26228
 C321 C 0.79773 0.31168 -0.31306
 C322 C 0.80399 0.29829 -0.39449
 C323 C 0.83613 0.30950 -0.41976
 C324 C 0.86096 0.33433 -0.36887
 C325 C 0.87998 0.37435 -0.24052
 C326 C 0.90173 0.39638 -0.19942
 H327 H 0.81727 0.34705 -0.20155
 H328 H 0.77349 0.30400 -0.29102
 H329 H 0.84225 0.29863 -0.47765
 H330 H 0.88540 0.34272 -0.39048
 C331 C 0.50508 -0.14658 -0.29256
 C332 C 0.48407 -0.17807 -0.26512
 C333 C 0.48333 -0.20341 -0.31575
 C334 C 0.50328 -0.19769 -0.39606
 C335 C 0.52519 -0.16570 -0.42018
 C336 C 0.52586 -0.14048 -0.36945
 C337 C 0.50522 -0.12045 -0.24262
 C338 C 0.50536 -0.09844 -0.20159
 H339 H 0.46793 -0.18306 -0.20535
 H340 H 0.46604 -0.22749 -0.29453
 H341 H 0.54242 -0.16002 -0.47706
 H342 H 0.54265 -0.11618 -0.39028
 C343 C 0.34662 0.49293 -0.29043
 C344 C 0.33334 0.51117 -0.25865
 C345 C 0.30833 0.51095 -0.30960
 C346 C 0.29646 0.49281 -0.39446
 C347 C 0.30930 0.47355 -0.42323
 C348 C 0.33429 0.47383 -0.37210
 C349 C 0.37305 0.49394 -0.23984
 C350 C 0.39526 0.49462 -0.19843
 H351 H 0.34262 0.52596 -0.19522
 H352 H 0.29940 0.52625 -0.28488
 H353 H 0.29968 0.45773 -0.48427
 H354 H 0.34402 0.45915 -0.39640
 C355 C 1.14807 0.65214 -0.28952
 C356 C 1.15717 0.68409 -0.27255
 C357 C 1.18217 0.70831 -0.32491
 C358 C 1.19823 0.70083 -0.39521
 C359 C 1.18929 0.66875 -0.41097
 C360 C 1.16426 0.64454 -0.35862
 C361 C 1.12192 0.62712 -0.23698
 C362 C 1.09991 0.60585 -0.19424
 H363 H 1.14484 0.69026 -0.21929
 H364 H 1.18871 0.73289 -0.31164
 H365 H 1.20163 0.66249 -0.46390
 H366 H 1.15748 0.61991 -0.37219
 C367 C 0.85151 0.50082 -0.29416
 C368 C 0.83899 0.51978 -0.26282
 C369 C 0.81367 0.51945 -0.31214
 C370 C 0.80069 0.50045 -0.39493
 C371 C 0.81272 0.48041 -0.42295
 C372 C 0.83804 0.48081 -0.37347
 C373 C 0.87832 0.50207 -0.24531
 C374 C 0.90076 0.50314 -0.20427
 H375 H 0.84915 0.53526 -0.20111
 H376 H 0.80543 0.53540 -0.28809
 H377 H 0.80226 0.46397 -0.48228
 H378 H 0.84716 0.46556 -0.39727
 C379 C 0.49137 0.34557 -0.28425
 C380 C 0.51086 0.33335 -0.25586
 C381 C 0.51122 0.30899 -0.30878
 C382 C 0.49235 0.29666 -0.39221
 C383 C 0.47210 0.30864 -0.41804
 C384 C 0.47181 0.33299 -0.36491
 C385 C 0.49192 0.37148 -0.23200
 C386 C 0.49246 0.39354 -0.19007
 H387 H 0.52615 0.34296 -0.19354
 H388 H 0.52741 0.30086 -0.28651
 H389 H 0.45580 0.29869 -0.47791
 H390 H 0.45629 0.34201 -0.38680
 C391 C 0.65381 0.14771 -0.28376
 C392 C 0.66012 0.17905 -0.27149
 C393 C 0.68423 0.20382 -0.32483
 C394 C 0.70211 0.19740 -0.39146
 C395 C 0.69592 0.16595 -0.40245
 C396 C 0.67181 0.14123 -0.34917
 C397 C 0.62838 0.12203 -0.23120
 C398 C 0.60674 0.10022 -0.18910
 H399 H 0.64627 0.18431 -0.22122
 H400 H 0.68869 0.22791 -0.31515
 H401 H 0.70977 0.16057 -0.45230
 H402 H 0.66714 0.11707 -0.35921
 C403 C 1.14896 0.49672 -0.28298
 C404 C 1.16261 0.51767 -0.36017
 C405 C 1.18700 0.51758 -0.41364
 C406 C 1.19784 0.49611 -0.39163
 C407 C 1.18467 0.47605 -0.31105
 C408 C 1.16029 0.47621 -0.25781
 C409 C 1.12278 0.49574 -0.23119
 C410 C 1.10062 0.49498 -0.18940
 H411 H 1.15427 0.53396 -0.37948
 H412 H 1.19748 0.53446 -0.47194
 H413 H 1.19207 0.45902 -0.29179
 H414 H 1.14989 0.45993 -0.19802
 C415 C 0.50246 0.65101 -0.28939
 C416 C 0.47690 0.65656 -0.27686
 C417 C 0.47607 0.68105 -0.32759
 C418 C 0.50066 0.69997 -0.39195
 C419 C 0.52670 0.69489 -0.40189
 C420 C 0.52750 0.67042 -0.35122
 C421 C 0.50280 0.62507 -0.24036
 C422 C 0.50316 0.60326 -0.20000
 H423 H 0.45746 0.64171 -0.22894
 H424 H 0.45587 0.68471 -0.31878
 H425 H 0.54610 0.70952 -0.45021
 H426 H 0.54745 0.66641 -0.36105
 C427 C 0.34924 -0.14637 -0.29159
 C428 C 0.33057 -0.14058 -0.35623
 C429 C 0.30600 -0.16585 -0.40666
 C430 C 0.30011 -0.19712 -0.39355
 C431 C 0.31830 -0.20290 -0.32650
 C432 C 0.34286 -0.17760 -0.27605
 C433 C 0.37531 -0.12022 -0.24260
 C434 C 0.39725 -0.09827 -0.20196
 H435 H 0.33524 -0.11652 -0.36844
 H436 H 0.29196 -0.16101 -0.45729
 H437 H 0.31403 -0.22687 -0.31534
 H438 H 0.35714 -0.18231 -0.22597
 C439 C 0.50317 -0.14777 0.28641
 C440 C 0.52801 -0.15435 0.27318
 C441 C 0.52816 -0.17913 0.32413
 C442 C 0.50359 -0.19735 0.38937
 C443 C 0.47823 -0.19125 0.40004
 C444 C 0.47812 -0.16646 0.34914
 C445 C 0.50369 -0.12144 0.23720
 C446 C 0.50416 -0.09926 0.19659
 H447 H 0.54745 -0.14005 0.22457
 H448 H 0.54785 -0.18356 0.31478
 H449 H 0.45885 -0.20533 0.44907
 H450 H 0.45872 -0.16163 0.35953
 C451 C 0.35018 0.49916 0.29017
 C452 C 0.35639 0.52315 0.35722
 C453 C 0.33123 0.52292 0.40738
 C454 C 0.29969 0.49847 0.39146
 C455 C 0.29357 0.47509 0.32189
 C456 C 0.31871 0.47538 0.27178
 C457 C 0.37602 0.49850 0.24138
 C458 C 0.39751 0.49768 0.20027
 H459 H 0.38066 0.54175 0.37162
 H460 H 0.33635 0.54130 0.46013
 H461 H 0.26940 0.45610 0.30860
 H462 H 0.31366 0.45678 0.21981
 C463 C 1.14669 0.65421 0.28411
 C464 C 1.17804 0.66107 0.26800
 C465 C 1.20310 0.68508 0.32061
 C466 C 1.19701 0.70236 0.39026
 C467 C 1.16555 0.69569 0.40518
 C468 C 1.14049 0.67162 0.35255
 C469 C 1.12085 0.62874 0.23223
 C470 C 1.09917 0.60699 0.19006
 H471 H 1.18308 0.64768 0.21538
 H472 H 1.22721 0.68990 0.30810
 H473 H 1.16044 0.70903 0.45772
 H474 H 1.11630 0.66648 0.36555
 C475 C 0.49253 0.14672 0.28383
 C476 C 0.46845 0.14019 0.35081
 C477 C 0.46905 0.16497 0.40412
 C478 C 0.49395 0.19648 0.39156
 C479 C 0.51761 0.20295 0.32263
 C480 C 0.51696 0.17817 0.26933
 C481 C 0.49274 0.12106 0.23221
 C482 C 0.49317 0.09945 0.19052
 H483 H 0.44942 0.11594 0.36251
 H484 H 0.45038 0.15958 0.45608
 H485 H 0.53693 0.22711 0.31173
 H486 H 0.53572 0.18347 0.21775
 C487 C 0.65221 0.50483 0.28486
 C488 C 0.64501 0.48046 0.35134
 C489 C 0.66939 0.48021 0.40452
 C490 C 0.70119 0.50454 0.39228
 C491 C 0.70832 0.52850 0.32391
 C492 C 0.68393 0.52870 0.27077
 C493 C 0.62700 0.50568 0.23263
 C494 C 0.60559 0.50629 0.19023
 H495 H 0.62054 0.46182 0.36256
 H496 H 0.66349 0.46130 0.45595
 H497 H 0.73271 0.54737 0.31320
 H498 H 0.68976 0.54763 0.21944
 C499 C 0.85281 0.34961 0.28817
 C500 C 0.84661 0.31840 0.27347
 C501 C 0.82210 0.29314 0.32414
 C502 C 0.80376 0.29893 0.39062
 C503 C 0.80943 0.33018 0.40274
 C504 C 0.83396 0.35541 0.35210
 C505 C 0.87896 0.37573 0.23927
 C506 C 0.90103 0.39757 0.19869
 H507 H 0.86102 0.31366 0.22396
 H508 H 0.81803 0.26921 0.31368
 H509 H 0.79527 0.33506 0.45281
 H510 H 0.83848 0.37946 0.36367
   
