data_POSCAR
  _audit_creation_date              2014-09-24
  _audit_creation_method            'ToBaCCo'
  _symmetry_space_group_name_H-M    'P1'
  _symmetry_Int_Tables_number       1
  _symmetry_cell_setting            triclinic
  loop_
  _symmetry_equiv_pos_as_xyz
 x,y,z
_cell_length_a 49.3904
_cell_length_b 27.3219
_cell_length_c 20.2495
_cell_angle_alpha 90.052100
_cell_angle_beta 89.889600
_cell_angle_gamma 90.049900
loop_
  _atom_site_label
  _atom_site_type_symbol
  _atom_site_fract_x
  _atom_site_fract_y
  _atom_site_fract_z
O1 O 0.71495 0.23336 0.43688
 O2 O 0.76166 0.18876 0.56503
 O3 O 0.71491 0.23353 0.56532
 O4 O 0.76169 0.18866 0.43706
 O5 O 0.78261 0.26027 0.43696
 O6 O 0.73584 0.30511 0.56519
 O7 O 0.78258 0.26036 0.56490
 O8 O 0.73588 0.30494 0.43679
 Cu9 Cu 0.73614 0.20389 0.50110
 Cu10 Cu 0.76131 0.28992 0.50097
 C11 C 0.71743 0.27677 0.41548
 C12 C 0.78022 0.21685 0.58599
 C13 C 0.71735 0.27699 0.58659
 C14 C 0.78025 0.21673 0.41594
 O15 O 0.23591 0.80509 0.56497
 O16 O 0.28264 0.75967 0.43688
 O17 O 0.23605 0.80479 0.43658
 O18 O 0.28257 0.76002 0.56484
 O19 O 0.26148 0.68857 0.56510
 O20 O 0.21494 0.73338 0.43680
 O21 O 0.26153 0.68824 0.43710
 O22 O 0.21481 0.73368 0.56522
 Cu23 Cu 0.26139 0.78962 0.50082
 Cu24 Cu 0.23602 0.70380 0.50111
 C25 C 0.21734 0.77716 0.58639
 C26 C 0.28016 0.71613 0.41589
 C27 C 0.21754 0.77672 0.41531
 C28 C 0.28010 0.71656 0.58601
 O29 O 0.26198 0.31201 -0.56767
 O30 O 0.21526 0.26728 -0.43917
 O31 O 0.26199 0.31212 -0.43970
 O32 O 0.21520 0.26710 -0.56761
 O33 O 0.23612 0.19558 -0.56768
 O34 O 0.28290 0.24056 -0.43980
 O35 O 0.23619 0.19575 -0.43928
 O36 O 0.28289 0.24046 -0.56773
 Cu37 Cu 0.23645 0.29680 -0.50357
 Cu38 Cu 0.26160 0.21084 -0.50367
 C39 C 0.28055 0.28398 -0.58875
 C40 C 0.21775 0.22389 -0.41779
 C41 C 0.28054 0.28409 -0.41870
 C42 C 0.21763 0.22363 -0.58890
 O43 O -0.23839 0.81166 -0.56252
 O44 O -0.28528 0.76645 -0.43463
 O45 O -0.23856 0.81146 -0.43458
 O46 O -0.28509 0.76663 -0.56307
 O47 O -0.26409 0.69517 -0.56325
 O48 O -0.21758 0.73997 -0.43479
 O49 O -0.26429 0.69500 -0.43484
 O50 O -0.21740 0.74018 -0.56270
 Cu51 Cu -0.26400 0.79622 -0.49868
 Cu52 Cu -0.23876 0.71034 -0.49891
 C53 C -0.21977 0.78372 -0.58360
 C54 C -0.28281 0.72300 -0.41343
 C55 C -0.22001 0.78345 -0.41361
 C56 C -0.28255 0.72324 -0.58455
 O57 O -0.03696 0.91695 0.12328
 O58 O -0.06701 0.95959 0.05886
 C59 C -0.06127 0.92945 0.10610
 O60 O 0.03872 1.08866 0.11635
 O61 O 0.06858 1.04246 0.05554
 C62 C 0.06299 1.07553 0.09935
 O63 O -0.03705 1.08453 0.12248
 O64 O -0.06703 1.04095 0.05879
 C65 C -0.06133 1.07158 0.10556
 O66 O 0.03863 0.91181 0.11557
 O67 O 0.06855 0.95827 0.05519
 C68 C 0.06291 0.92507 0.09875
 Zr69 Zr 0.00071 0.93797 0.08200
 O70 O 0.00169 0.92977 0.18578
 O71 O -0.00038 0.86121 0.06961
 Zr72 Zr 0.00074 1.06208 0.08326
 O73 O 0.00333 1.06338 0.18759
 O74 O -0.00218 1.13938 0.08047
 O75 O -0.02323 0.99998 0.09593
 O76 O 0.02411 1.00003 0.09493
 O77 O 0.03864 0.91191 -0.11668
 O78 O 0.06855 0.95857 -0.05672
 C79 C 0.06292 0.92530 -0.10022
 O80 O -0.03709 1.08468 -0.12205
 O81 O -0.06705 1.04112 -0.05814
 C82 C -0.06137 1.07176 -0.10489
 O83 O 0.03863 1.08924 -0.11615
 O84 O 0.06851 1.04278 -0.05619
 C85 C 0.06289 1.07600 -0.09961
 O86 O -0.03712 0.91616 -0.12259
 O87 O -0.06706 0.95966 -0.05850
 C88 C -0.06139 0.92907 -0.10537
 Zr89 Zr 0.00067 0.93856 -0.08354
 O90 O 0.00357 0.93666 -0.18781
 O91 O -0.00204 0.86125 -0.08032
 Zr92 Zr 0.00069 1.06262 -0.08273
 O93 O 0.00361 1.06582 -0.18690
 O94 O -0.00239 1.13987 -0.07780
 Zr95 Zr -0.03991 1.00031 0.00004
 Zr96 Zr 0.04113 1.00044 -0.00039
 O97 O 0.02404 1.00065 -0.09558
 O98 O -0.02336 1.00060 -0.09613
 O99 O 0.02511 0.92889 -0.00087
 O100 O -0.02309 1.07113 0.00044
 O101 O -0.02326 0.92943 -0.00053
 O102 O 0.02508 1.07195 0.00018
 H103 H 0.03613 1.00003 0.13403
 H104 H -0.03551 1.09960 0.00059
 H105 H 0.03598 1.00073 -0.13494
 H106 H -0.03577 0.90105 -0.00044
 H107 H 0.01410 1.15196 0.05757
 H108 H 0.01432 1.15242 -0.05687
 H109 H -0.00937 1.04173 -0.20491
 H110 H -0.01020 0.95940 -0.20541
 H111 H 0.01333 0.84923 -0.05357
 H112 H -0.00087 0.84721 0.11470
 H113 H 0.00462 0.96269 0.20457
 H114 H -0.01071 1.04088 0.20485
 O115 O 0.46272 0.41564 0.12203
 O116 O 0.43277 0.45861 0.05773
 C117 C 0.43844 0.42827 0.10479
 O118 O 0.53825 0.58777 0.11596
 O119 O 0.56820 0.54155 0.05538
 C120 C 0.56253 0.57461 0.09915
 O121 O 0.46209 0.58305 0.12082
 O122 O 0.43218 0.53939 0.05678
 C123 C 0.43781 0.57005 0.10361
 O124 O 0.53829 0.41049 0.11450
 O125 O 0.56822 0.45733 0.05474
 C126 C 0.56257 0.42395 0.09804
 Zr127 Zr 0.50041 0.43703 0.08125
 O128 O 0.50253 0.43014 0.18507
 O129 O 0.49910 0.36021 0.06973
 Zr130 Zr 0.50031 0.56117 0.08273
 O131 O 0.50307 0.56268 0.18706
 O132 O 0.49730 0.63846 0.08053
 O133 O 0.47639 0.49902 0.09524
 O134 O 0.52370 0.49910 0.09441
 O135 O 0.53849 0.41109 -0.11716
 O136 O 0.56834 0.45782 -0.05703
 C137 C 0.56275 0.42452 -0.10053
 O138 O 0.46281 0.58405 -0.12275
 O139 O 0.43283 0.54039 -0.05905
 C140 C 0.43853 0.57111 -0.10568
 O141 O 0.53853 0.58846 -0.11647
 O142 O 0.56833 0.54193 -0.05638
 C143 C 0.56277 0.57520 -0.09978
 O144 O 0.46275 0.41543 -0.12394
 O145 O 0.43284 0.45882 -0.05975
 C146 C 0.43849 0.42835 -0.10679
 Zr147 Zr 0.50045 0.43773 -0.08445
 O148 O 0.50349 0.43598 -0.18870
 O149 O 0.49773 0.36042 -0.08125
 Zr150 Zr 0.50053 0.56183 -0.08336
 O151 O 0.50355 0.56503 -0.18753
 O152 O 0.49747 0.63907 -0.07839
 Zr153 Zr 0.45991 0.49947 -0.00083
 Zr154 Zr 0.54084 0.49961 -0.00085
 O155 O 0.52387 0.49984 -0.09619
 O156 O 0.47647 0.49983 -0.09697
 O157 O 0.52484 0.42806 -0.00161
 O158 O 0.47667 0.57032 -0.00029
 O159 O 0.47651 0.42857 -0.00149
 O160 O 0.52477 0.57110 -0.00021
 H161 H 0.53557 0.49891 0.13380
 H162 H 0.46423 0.59876 -0.00015
 H163 H 0.53586 0.49996 -0.13547
 H164 H 0.46400 0.40020 -0.00154
 H165 H 0.51349 0.65112 0.05728
 H166 H 0.51412 0.65156 -0.05715
 H167 H 0.49044 0.54120 -0.20563
 H168 H 0.48983 0.45890 -0.20633
 H169 H 0.51295 0.34844 -0.05395
 H170 H 0.49884 0.34649 0.11500
 H171 H 0.49552 0.46106 0.20368
 H172 H 0.48823 0.54218 0.20477
 C173 C 0.33739 0.33683 0.28765
 C174 C 0.33562 0.32050 0.21521
 C175 C 0.35589 0.33877 0.17654
 C176 C 0.37589 0.37152 0.21420
 C177 C 0.38605 0.33993 0.27162
 C178 C 0.36583 0.32171 0.31020
 C179 C 0.33809 0.39298 0.28521
 C180 C 0.35833 0.41122 0.24660
 C181 C 0.31590 0.31726 0.33018
 C182 C 0.29891 0.30142 0.36727
 C183 C 0.39788 0.39124 0.17340
 C184 C 0.41629 0.40784 0.14133
 H185 H 0.31984 0.29680 0.19598
 H186 H 0.35748 0.33071 0.12417
 H187 H 0.40728 0.33249 0.28114
 H188 H 0.36974 0.29865 0.35277
 H189 H 0.32389 0.41635 0.31139
 H190 H 0.36148 0.45022 0.23971
 C191 C -0.16197 0.83788 0.29019
 C192 C -0.13343 0.82668 0.31591
 C193 C -0.11329 0.84497 0.27713
 C194 C -0.12361 0.87271 0.21636
 C195 C -0.14269 0.91209 0.24398
 C196 C -0.16286 0.89378 0.28280
 C197 C -0.16235 0.81798 0.21926
 C198 C -0.14216 0.83631 0.18040
 C199 C -0.18340 0.81822 0.33288
 C200 C -0.20038 0.80228 0.36992
 C201 C -0.10170 0.89249 0.17529
 C202 C -0.08336 0.90909 0.14297
 H203 H -0.12939 0.80614 0.36070
 H204 H -0.09200 0.84009 0.28870
 H205 H -0.14058 0.95093 0.23384
 H206 H -0.17803 0.91693 0.30589
 H207 H -0.17718 0.79190 0.20114
 H208 H -0.13969 0.82591 0.12899
 C209 C 0.66130 0.66956 0.28496
 C210 C 0.66235 0.68998 0.21434
 C211 C 0.64275 0.67144 0.17401
 C212 C 0.62408 0.63435 0.20836
 C213 C 0.61286 0.66141 0.26893
 C214 C 0.63241 0.67990 0.30915
 C215 C 0.66270 0.61376 0.27679
 C216 C 0.64313 0.59524 0.23653
 C217 C 0.68207 0.68930 0.32930
 C218 C 0.69854 0.70507 0.36769
 C219 C 0.60272 0.61413 0.16617
 C220 C 0.58461 0.59664 0.13407
 H221 H 0.67718 0.71654 0.19751
 H222 H 0.64078 0.68211 0.12261
 H223 H 0.59142 0.66572 0.27930
 H224 H 0.62770 0.70004 0.35397
 H225 H 0.67778 0.59082 0.30041
 H226 H 0.64144 0.55643 0.22568
 C227 C 0.16214 1.17071 0.28405
 C228 C 0.16275 1.19165 0.21369
 C229 C 0.14307 1.17305 0.17362
 C230 C 0.12474 1.13540 0.20796
 C231 C 0.11366 1.16183 0.26919
 C232 C 0.13330 1.18037 0.30913
 C233 C 0.16378 1.11500 0.27509
 C234 C 0.14413 1.09643 0.23510
 C235 C 0.18302 1.19051 0.32812
 C236 C 0.19958 1.20633 0.36629
 C237 C 0.10329 1.11511 0.16603
 C238 C 0.08512 1.09758 0.13412
 H239 H 0.17737 1.21860 0.19682
 H240 H 0.14081 1.18406 0.12243
 H241 H 0.09225 1.16569 0.28019
 H242 H 0.12868 1.20009 0.35434
 H243 H 0.17908 1.09214 0.29803
 H244 H 0.14261 1.05767 0.22377
 C245 C 0.66193 0.32968 -0.28581
 C246 C 0.66278 0.38564 -0.27937
 C247 C 0.64312 0.40413 -0.23922
 C248 C 0.62453 0.36484 -0.20941
 C249 C 0.64365 0.32901 -0.17439
 C250 C 0.66334 0.31050 -0.21462
 C251 C 0.63309 0.31792 -0.30899
 C252 C 0.61345 0.33637 -0.26887
 C253 C 0.68280 0.30997 -0.33006
 C254 C 0.69934 0.29423 -0.36840
 C255 C 0.60308 0.38504 -0.16734
 C256 C 0.58490 0.40250 -0.13534
 H257 H 0.67757 0.40872 -0.30404
 H258 H 0.64107 0.44305 -0.22952
 H259 H 0.64190 0.31914 -0.12264
 H260 H 0.67848 0.28477 -0.19733
 H261 H 0.62848 0.29689 -0.35310
 H262 H 0.59203 0.33113 -0.27861
 C263 C 0.16196 0.83025 -0.28607
 C264 C 0.16348 0.81131 -0.21477
 C265 C 0.14382 0.82988 -0.17449
 C266 C 0.12461 0.86553 -0.20954
 C267 C 0.11349 0.83683 -0.26875
 C268 C 0.13309 0.81830 -0.30893
 C269 C 0.16275 0.88624 -0.27996
 C270 C 0.14312 0.90478 -0.23974
 C271 C 0.18281 0.81045 -0.33036
 C272 C 0.19934 0.79458 -0.36867
 C273 C 0.10319 0.88578 -0.16735
 C274 C 0.08504 0.90327 -0.13521
 H275 H 0.17867 0.78567 -0.19746
 H276 H 0.14216 0.82018 -0.12266
 H277 H 0.09206 0.83149 -0.27829
 H278 H 0.12845 0.79710 -0.35286
 H279 H 0.17747 0.90929 -0.30489
 H280 H 0.14104 0.94373 -0.23027
 C281 C 0.33775 0.66278 -0.28794
 C282 C 0.33899 0.60664 -0.28734
 C283 C 0.35917 0.58841 -0.24875
 C284 C 0.37613 0.62811 -0.21454
 C285 C 0.35557 0.65945 -0.17639
 C286 C 0.33536 0.67771 -0.21504
 C287 C 0.36617 0.67931 -0.30915
 C288 C 0.38633 0.66110 -0.27059
 C289 C 0.31633 0.68233 -0.33043
 C290 C 0.29939 0.69815 -0.36744
 C291 C 0.39805 0.60837 -0.17380
 C292 C 0.41641 0.59170 -0.14189
 H293 H 0.32520 0.58326 -0.31468
 H294 H 0.36267 0.54942 -0.24308
 H295 H 0.35675 0.66661 -0.12373
 H296 H 0.31923 0.70049 -0.19549
 H297 H 0.37012 0.70328 -0.35082
 H298 H 0.40753 0.66948 -0.27923
 C299 C -0.16208 1.16320 -0.28780
 C300 C -0.16261 1.18293 -0.21678
 C301 C -0.14244 1.16471 -0.17801
 C302 C -0.12376 1.12859 -0.21414
 C303 C -0.11340 1.15659 -0.27480
 C304 C -0.13353 1.17476 -0.31349
 C305 C -0.16286 1.10728 -0.28066
 C306 C -0.14271 1.08908 -0.24193
 C307 C -0.18349 1.18272 -0.33043
 C308 C -0.20044 1.19851 -0.36748
 C309 C -0.10186 1.10889 -0.17324
 C310 C -0.08350 1.09226 -0.14120
 H311 H -0.17752 1.20882 -0.19854
 H312 H -0.14006 1.17501 -0.12655
 H313 H -0.09211 1.16171 -0.28637
 H314 H -0.12947 1.19544 -0.35819
 H315 H -0.17794 1.08403 -0.30384
 H316 H -0.14052 1.05024 -0.23197
 C317 C 0.66182 0.67017 -0.28564
 C318 C 0.66209 0.61410 -0.28099
 C319 C 0.64248 0.59561 -0.24069
 C320 C 0.62450 0.63499 -0.20894
 C321 C 0.61338 0.66478 -0.26707
 C322 C 0.63297 0.68324 -0.30734
 C323 C 0.66388 0.68813 -0.21392
 C324 C 0.64423 0.66961 -0.17354
 C325 C 0.68265 0.68990 -0.33004
 C326 C 0.69918 0.70569 -0.36844
 C327 C 0.60309 0.61477 -0.16668
 C328 C 0.58493 0.59727 -0.13459
 H329 H 0.67647 0.59095 -0.30692
 H330 H 0.64006 0.55662 -0.23212
 H331 H 0.59196 0.67090 -0.27582
 H332 H 0.62833 0.70515 -0.35057
 H333 H 0.67941 0.71307 -0.19639
 H334 H 0.64292 0.67869 -0.12143
 C335 C 0.16164 1.17058 -0.28653
 C336 C 0.16487 1.18616 -0.21406
 C337 C 0.14529 1.16775 -0.17340
 C338 C 0.12446 1.13562 -0.20931
 C339 C 0.14122 1.09606 -0.24441
 C340 C 0.16076 1.11443 -0.28499
 C341 C 0.13286 1.18627 -0.30551
 C342 C 0.11334 1.16791 -0.26496
 C343 C 0.18238 1.19017 -0.33122
 C344 C 0.19884 1.20582 -0.36984
 C345 C 0.10312 1.11551 -0.16680
 C346 C 0.08500 1.09806 -0.13456
 H347 H 0.18110 1.20947 -0.19626
 H348 H 0.14473 1.17529 -0.12078
 H349 H 0.13809 1.05702 -0.23779
 H350 H 0.17435 1.09114 -0.31314
 H351 H 0.12822 1.20980 -0.34716
 H352 H 0.09198 1.17574 -0.27187
 C353 C 0.33803 0.33764 -0.29162
 C354 C 0.33651 0.31954 -0.21993
 C355 C 0.35660 0.33763 -0.18070
 C356 C 0.37620 0.37199 -0.21709
 C357 C 0.35817 0.41177 -0.24744
 C358 C 0.33810 0.39371 -0.28662
 C359 C 0.36661 0.32411 -0.31521
 C360 C 0.38666 0.34216 -0.27606
 C361 C 0.31671 0.31823 -0.33468
 C362 C 0.29982 0.30248 -0.37200
 C363 C 0.39803 0.39154 -0.17572
 C364 C 0.41635 0.40802 -0.14337
 H365 H 0.32103 0.29480 -0.20160
 H366 H 0.35833 0.32838 -0.12875
 H367 H 0.36090 0.45069 -0.23882
 H368 H 0.32363 0.41716 -0.31154
 H369 H 0.37075 0.30224 -0.35886
 H370 H 0.40796 0.33574 -0.28619
 C371 C -0.16231 0.83734 -0.28753
 C372 C -0.13381 0.82643 -0.31398
 C373 C -0.11363 0.84467 -0.27544
 C374 C -0.12389 0.87207 -0.21417
 C375 C -0.14230 0.83539 -0.17819
 C376 C -0.16252 0.81710 -0.21682
 C377 C -0.16330 0.89319 -0.27954
 C378 C -0.14309 0.91146 -0.24096
 C379 C -0.18376 0.81775 -0.33000
 C380 C -0.20071 0.80189 -0.36702
 C381 C -0.10194 0.89183 -0.17347
 C382 C -0.08354 0.90850 -0.14159
 H383 H -0.12981 0.80613 -0.35908
 H384 H -0.09235 0.83999 -0.28751
 H385 H -0.13969 0.82477 -0.12695
 H386 H -0.17726 0.79083 -0.19867
 H387 H -0.17855 0.91634 -0.30209
 H388 H -0.14103 0.95026 -0.23048
 C389 C 0.33749 0.66194 0.28844
 C390 C 0.33675 0.68150 0.21740
 C391 C 0.35678 0.66315 0.17809
 C392 C 0.37555 0.62707 0.21376
 C393 C 0.35666 0.58767 0.24215
 C394 C 0.33664 0.60600 0.28141
 C395 C 0.36612 0.67348 0.31331
 C396 C 0.38611 0.65517 0.27409
 C397 C 0.31623 0.68162 0.33162
 C398 C 0.29940 0.69756 0.36905
 C399 C 0.39733 0.60724 0.17234
 C400 C 0.41564 0.59055 0.14004
 H401 H 0.32180 0.70740 0.19954
 H402 H 0.35901 0.67333 0.12655
 H403 H 0.35878 0.54880 0.23218
 H404 H 0.32162 0.58284 0.30507
 H405 H 0.37034 0.69426 0.35786
 H406 H 0.40744 0.66028 0.28505
 C407 C -0.16206 1.16302 0.28927
 C408 C -0.16098 1.18621 0.22027
 C409 C -0.14079 1.16800 0.18132
 C410 C -0.12371 1.12843 0.21528
 C411 C -0.14416 1.08954 0.23794
 C412 C -0.16433 1.10773 0.27685
 C413 C -0.13362 1.17050 0.31799
 C414 C -0.11348 1.15233 0.27912
 C415 C -0.18347 1.18253 0.33206
 C416 C -0.20042 1.19833 0.36926
 C417 C -0.10181 1.10875 0.17422
 C418 C -0.08344 1.09211 0.14205
 H419 H -0.17484 1.21435 0.20347
 H420 H -0.13734 1.18056 0.13115
 H421 H -0.14294 1.05112 0.22453
 H422 H -0.18039 1.08489 0.29676
 H423 H -0.12964 1.18850 0.36481
 H424 H -0.09226 1.15479 0.29264
 C425 C 0.66126 0.32993 0.28473
 C426 C 0.66113 0.30668 0.21563
 C427 C 0.64156 0.32498 0.17510
 C428 C 0.62408 0.36470 0.20774
 C429 C 0.64427 0.40347 0.23204
 C430 C 0.66382 0.38519 0.27249
 C431 C 0.63240 0.32267 0.31118
 C432 C 0.61288 0.34092 0.27077
 C433 C 0.68201 0.31042 0.32927
 C434 C 0.69849 0.29481 0.36773
 C435 C 0.60275 0.38470 0.16529
 C436 C 0.58466 0.40203 0.13303
 H437 H 0.67518 0.27843 0.19991
 H438 H 0.63884 0.31242 0.12467
 H439 H 0.64333 0.44189 0.21856
 H440 H 0.67962 0.40794 0.29361
 H441 H 0.62770 0.30472 0.35763
 H442 H 0.59147 0.33861 0.28263
 C443 C 0.16154 0.83030 0.28464
 C444 C 0.16302 0.81070 0.21359
 C445 C 0.14347 0.82922 0.17318
 C446 C 0.12441 0.86546 0.20788
 C447 C 0.14309 0.90470 0.23742
 C448 C 0.16260 0.88622 0.27776
 C449 C 0.13261 0.81900 0.30784
 C450 C 0.11312 0.83746 0.26754
 C451 C 0.18225 0.81060 0.32907
 C452 C 0.19868 0.79486 0.36752
 C453 C 0.10310 0.88565 0.16563
 C454 C 0.08500 0.90310 0.13356
 H455 H 0.17810 0.78469 0.19654
 H456 H 0.14178 0.81908 0.12150
 H457 H 0.14120 0.94359 0.22739
 H458 H 0.17742 0.90926 0.30229
 H459 H 0.12785 0.79825 0.35208
 H460 H 0.09166 0.83249 0.27725
   
