data_POSCAR
  _audit_creation_date              2014-09-24
  _audit_creation_method            'ToBaCCo'
  _symmetry_space_group_name_H-M    'P1'
  _symmetry_Int_Tables_number       1
  _symmetry_cell_setting            triclinic
  loop_
  _symmetry_equiv_pos_as_xyz
 x,y,z
_cell_length_a 21.3190
_cell_length_b 20.8603
_cell_length_c 20.9686
_cell_angle_alpha 90.002400
_cell_angle_beta 90.140600
_cell_angle_gamma 89.865200
loop_
  _atom_site_label
  _atom_site_type_symbol
  _atom_site_fract_x
  _atom_site_fract_y
  _atom_site_fract_z
C1 C 0.44370 1.00003 -0.53532
 C2 C 0.44365 0.99973 -0.46791
 C3 C 0.50113 0.99990 -0.43513
 C4 C 0.55882 1.00010 -0.46742
 C5 C 0.55891 0.99985 -0.53496
 C6 C 0.50131 0.99995 -0.56771
 H7 H 0.50132 0.99997 -0.61958
 H8 H 0.50084 0.99988 -0.38330
 C9 C -0.55850 1.46760 0.00001
 C10 C -0.55844 1.53520 -0.00027
 C11 C -0.50106 1.56786 -0.00015
 C12 C -0.44387 1.53470 -0.00005
 C13 C -0.44397 1.46722 -0.00039
 C14 C -0.50126 1.43453 -0.00021
 H15 H -0.50128 1.38247 -0.00023
 H16 H -0.50076 1.61996 -0.00012
 C17 C 0.00027 0.53359 0.56026
 C18 C -0.00015 0.46614 0.56023
 C19 C 0.00018 0.43320 0.50222
 C20 C 0.00052 0.46632 0.44443
 C21 C 0.00018 0.53351 0.44446
 C22 C 0.00024 0.56658 0.50229
 H23 H 0.00026 0.61869 0.50202
 H24 H 0.00015 0.38109 0.50191
 O25 O -0.16207 1.00199 -0.08820
 O26 O 0.16190 0.99779 -0.08783
 O27 O -0.00266 1.08724 -0.16381
 O28 O 0.00224 0.91245 -0.16374
 O29 O 0.00234 0.83547 -0.08477
 O30 O -0.00259 1.16427 -0.08488
 O31 O 0.08411 0.99797 -0.16491
 O32 O -0.08447 1.00173 -0.16510
 Zr33 Zr -0.00013 0.99986 -0.11248
 O34 O 0.05740 0.94211 -0.05795
 O35 O -0.05751 1.05765 -0.05810
 C36 C -0.14254 1.00271 -0.14704
 C37 C 0.14223 0.99702 -0.14671
 C38 C -0.00372 1.14602 -0.14364
 C39 C 0.00332 0.85368 -0.14354
 H40 H 0.08336 1.08483 -0.08486
 O41 O 0.05696 1.05720 -0.05768
 H42 H -0.08356 0.91493 -0.08497
 O43 O -0.05707 0.94257 -0.05775
 O44 O 0.16217 1.00167 0.08786
 O45 O -0.16181 0.99819 0.08762
 O46 O 0.08366 1.16442 0.00194
 O47 O 0.08405 0.83519 -0.00201
 O48 O -0.08367 0.83542 0.00190
 O49 O -0.08405 1.16459 -0.00225
 O50 O 0.00257 1.08726 0.16353
 O51 O -0.00195 0.91267 0.16359
 O52 O 0.00225 1.16430 0.08462
 O53 O -0.00193 0.83557 0.08472
 O54 O 0.16186 1.08760 0.00205
 O55 O -0.16204 1.08792 -0.00235
 O56 O -0.16183 0.91228 0.00180
 O57 O 0.16206 0.91184 -0.00203
 O58 O 0.08462 1.00166 0.16480
 O59 O -0.08399 0.99826 0.16468
 Zr60 Zr 0.11180 0.99978 -0.00003
 Zr61 Zr -0.11174 1.00004 -0.00023
 Zr62 Zr -0.00012 1.11135 -0.00014
 Zr63 Zr 0.00015 0.88845 -0.00007
 Zr64 Zr 0.00022 0.99994 0.11222
 O65 O -0.05721 0.94230 0.05775
 O66 O 0.05745 1.05756 0.05781
 C67 C 0.14268 1.00249 0.14669
 C68 C -0.14211 0.99741 0.14650
 C69 C 0.14178 1.14647 0.00292
 C70 C 0.14212 0.85301 -0.00292
 C71 C -0.14178 0.85341 0.00276
 C72 C -0.14212 1.14675 -0.00324
 C73 C 0.00349 1.14603 0.14338
 C74 C -0.00294 0.85389 0.14348
 H75 H -0.08351 1.08507 0.08460
 O76 O -0.05705 1.05737 0.05741
 H77 H 0.08384 0.91479 0.08478
 O78 O 0.05728 0.94247 0.05754
 C79 C 0.39035 1.00060 0.42795
 C80 C 0.34788 1.00125 0.38948
 C81 C 0.30271 1.00205 0.33956
 C82 C 0.26652 1.00264 0.29496
 C83 C 0.22502 1.00309 0.24181
 C84 C 0.18877 1.00310 0.19726
 C85 C -0.38780 0.99929 0.42839
 C86 C -0.34557 0.99865 0.38986
 C87 C -0.30079 0.99785 0.33977
 C88 C -0.26498 0.99727 0.29502
 C89 C -0.22393 0.99683 0.24171
 C90 C -0.18798 0.99681 0.19706
 C91 C -0.38802 1.00074 -0.43034
 C92 C -0.34589 1.00144 -0.39148
 C93 C -0.30124 1.00229 -0.34107
 C94 C -0.26550 1.00290 -0.29607
 C95 C -0.22450 1.00335 -0.24252
 C96 C -0.18853 1.00336 -0.19771
 C97 C 0.38745 0.99904 -0.42899
 C98 C 0.34558 0.99831 -0.39008
 C99 C 0.30102 0.99745 -0.33982
 C100 C 0.26525 0.99682 -0.29505
 C101 C 0.22415 0.99636 -0.24179
 C102 C 0.18813 0.99636 -0.19721
 C103 C 0.38536 1.42904 0.00079
 C104 C 0.34332 1.39049 0.00162
 C105 C 0.29878 1.34047 0.00261
 C106 C 0.26323 1.29559 0.00331
 C107 C 0.22267 1.24212 0.00378
 C108 C 0.18710 1.19723 0.00372
 C109 C 0.38827 0.57163 -0.00093
 C110 C 0.34562 0.60972 -0.00168
 C111 C 0.30044 0.65935 -0.00261
 C112 C 0.26441 0.70401 -0.00327
 C113 C 0.22343 0.75734 -0.00372
 C114 C 0.18761 0.80218 -0.00368
 C115 C -0.38756 0.57289 0.00067
 C116 C -0.34517 0.61105 0.00146
 C117 C -0.30011 0.66056 0.00241
 C118 C -0.26408 0.70504 0.00309
 C119 C -0.22304 0.75811 0.00356
 C120 C -0.18720 0.80275 0.00352
 C121 C -0.38779 1.42857 -0.00118
 C122 C -0.34550 1.39010 -0.00201
 C123 C -0.30053 1.34028 -0.00299
 C124 C -0.26456 1.29559 -0.00368
 C125 C -0.22353 1.24231 -0.00413
 C126 C -0.18765 1.19753 -0.00406
 C127 C 0.00155 1.42854 0.38743
 C128 C 0.00260 1.39043 0.34465
 C129 C 0.00379 1.34052 0.29994
 C130 C 0.00455 1.29530 0.26465
 C131 C 0.00492 1.24143 0.22469
 C132 C 0.00464 1.19633 0.18923
 C133 C -0.00124 1.43005 -0.38590
 C134 C -0.00240 1.39193 -0.34311
 C135 C -0.00373 1.34171 -0.29874
 C136 C -0.00460 1.29613 -0.26390
 C137 C -0.00508 1.24182 -0.22451
 C138 C -0.00487 1.19644 -0.18939
 C139 C 0.00108 0.56963 -0.38583
 C140 C 0.00205 0.60773 -0.34300
 C141 C 0.00322 0.65793 -0.29859
 C142 C 0.00402 0.70351 -0.26374
 C143 C 0.00450 0.75783 -0.22435
 C144 C 0.00434 0.80322 -0.18925
 C145 C -0.00065 0.57135 0.38749
 C146 C -0.00160 0.60949 0.34473
 C147 C -0.00276 0.65942 0.30005
 C148 C -0.00356 0.70465 0.26477
 C149 C -0.00404 0.75852 0.22482
 C150 C -0.00391 0.80361 0.18935
   
