data_POSCAR
  _audit_creation_date              2014-09-24
  _audit_creation_method            'ToBaCCo'
  _symmetry_space_group_name_H-M    'P1'
  _symmetry_Int_Tables_number       1
  _symmetry_cell_setting            triclinic
  loop_
  _symmetry_equiv_pos_as_xyz
 x,y,z
_cell_length_a 36.6398
_cell_length_b 34.3261
_cell_length_c 32.4346
_cell_angle_alpha 89.640100
_cell_angle_beta 89.931900
_cell_angle_gamma 89.194600
loop_
  _atom_site_label
  _atom_site_type_symbol
  _atom_site_fract_x
  _atom_site_fract_y
  _atom_site_fract_z
C1 C 0.20727 0.21529 0.27307
 C2 C 0.20391 0.23855 0.23726
 C3 C 0.22859 0.23365 0.20530
 C4 C 0.25678 0.20596 0.20852
 C5 C 0.26069 0.18403 0.24399
 C6 C 0.23563 0.18856 0.27635
 C7 C 0.18450 0.20895 0.30628
 N8 N 0.19799 0.17859 0.32956
 C9 C 0.22975 0.16666 0.31118
 C10 C 0.28816 0.15716 0.23698
 N11 N 0.30057 0.16164 0.19762
 C12 C 0.28135 0.19171 0.18017
 C13 C 0.21736 0.25697 0.17313
 N14 N 0.18646 0.27630 0.18449
 C15 C 0.17792 0.26520 0.22368
 H16 H 0.15889 0.22424 0.31103
 H17 H 0.24641 0.14177 0.31990
 H18 H 0.29629 0.13412 0.25812
 H19 H 0.28449 0.20247 0.14896
 H20 H 0.23059 0.25935 0.14337
 H21 H 0.15390 0.27473 0.24050
 C22 C -0.15551 0.80903 0.20080
 C23 C -0.16759 0.77596 0.17961
 C24 C -0.19882 0.77837 0.15544
 C25 C -0.21875 0.81343 0.15291
 C26 C -0.20598 0.84599 0.17241
 C27 C -0.17418 0.84392 0.19586
 C28 C -0.12619 0.81629 0.22637
 N29 N -0.12646 0.85499 0.23570
 C30 C -0.15572 0.87187 0.21671
 C31 C -0.22944 0.87625 0.16381
 N32 N -0.25707 0.86292 0.14001
 C33 C -0.25051 0.82431 0.13302
 C34 C -0.20101 0.74437 0.13352
 N35 N -0.17190 0.72143 0.14358
 C36 C -0.15165 0.74017 0.17221
 H37 H -0.10581 0.79521 0.23654
 H38 H -0.16417 0.90210 0.21942
 H39 H -0.22721 0.90541 0.17593
 H40 H -0.26707 0.80551 0.11427
 H41 H -0.22062 0.73807 0.10960
 H42 H -0.12534 0.73016 0.18353
 C43 C -0.19904 0.22674 -0.25173
 C44 C -0.19437 0.25023 -0.21698
 C45 C -0.21725 0.24630 -0.18333
 C46 C -0.24473 0.21834 -0.18388
 C47 C -0.24962 0.19540 -0.21830
 C48 C -0.22627 0.19939 -0.25243
 C49 C -0.17741 0.22053 -0.28568
 N50 N -0.19013 0.18949 -0.30719
 C51 C -0.22040 0.17670 -0.28681
 C52 C -0.27529 0.16800 -0.20814
 N53 N -0.28542 0.17303 -0.16804
 C54 C -0.26673 0.20398 -0.15323
 C55 C -0.20346 0.26889 -0.15215
 N56 N -0.17261 0.28594 -0.16608
 C57 C -0.16673 0.27462 -0.20556
 H58 H -0.15219 0.23560 -0.29150
 H59 H -0.23643 0.15168 -0.29484
 H60 H -0.28342 0.14414 -0.22760
 H61 H -0.26830 0.21515 -0.12216
 H62 H -0.21349 0.27051 -0.12079
 H63 H -0.14297 0.28191 -0.22378
 C64 C 0.17596 0.79051 -0.22005
 C65 C 0.18109 0.75629 -0.19634
 C66 C 0.21316 0.75077 -0.17423
 C67 C 0.24069 0.77874 -0.17604
 C68 C 0.23561 0.81206 -0.19920
 C69 C 0.20289 0.81832 -0.22059
 C70 C 0.14687 0.80576 -0.24238
 N71 N 0.15528 0.84252 -0.25524
 C72 C 0.18962 0.85009 -0.24184
 C73 C 0.26552 0.83507 -0.19340
 N74 N 0.28909 0.81678 -0.16682
 C75 C 0.27365 0.78211 -0.15612
 C76 C 0.20912 0.71794 -0.15022
 N77 N 0.17552 0.70316 -0.15711
 C78 C 0.15824 0.72622 -0.18549
 H79 H 0.12084 0.79186 -0.24680
 H80 H 0.20444 0.87665 -0.24750
 H81 H 0.26844 0.86400 -0.20620
 H82 H 0.28504 0.76047 -0.13531
 H83 H 0.22859 0.70661 -0.12794
 H84 H 0.13023 0.72290 -0.19532
 C85 C 0.22498 1.19666 0.74703
 C86 C 0.25009 1.19588 0.77954
 C87 C 0.24929 1.22487 0.80898
 C88 C 0.22297 1.25495 0.80617
 C89 C 0.19790 1.25543 0.77437
 C90 C 0.19892 1.22594 0.74448
 C91 C 0.21747 1.17009 0.71691
 N92 N 0.18706 1.18193 0.69577
 C93 C 0.17572 1.21640 0.71276
 C94 C 0.17335 1.28528 0.78217
 N95 N 0.18269 1.30326 0.81805
 C96 C 0.21329 1.28449 0.83255
 C97 C 0.27373 1.21393 0.83949
 N98 N 0.28892 1.17905 0.82908
 C99 C 0.27458 1.16776 0.79263
 H100 H 0.23201 1.14273 0.71317
 H101 H 0.15193 1.23336 0.70380
 H102 H 0.15003 1.29233 0.76305
 H103 H 0.22675 1.28979 0.86156
 H104 H 0.27815 1.22869 0.86841
 H105 H 0.27995 1.13995 0.77809
 C106 C 0.77277 0.81501 0.76308
 C107 C 0.74116 0.80753 0.78596
 C108 C 0.74018 0.77634 0.81337
 C109 C 0.77117 0.75171 0.81759
 C110 C 0.80185 0.75906 0.79415
 C111 C 0.80257 0.79049 0.76667
 C112 C 0.78297 0.84568 0.73822
 N113 N 0.81836 0.84005 0.72622
 C114 C 0.83024 0.80592 0.74348
 C115 C 0.82886 0.73382 0.80645
 N116 N 0.81611 0.71068 0.83733
 C117 C 0.78040 0.72116 0.84390
 C118 C 0.70703 0.77893 0.83378
 N119 N 0.68807 0.81042 0.81885
 C120 C 0.70896 0.82797 0.78978
 H121 H 0.76566 0.87027 0.72989
 H122 H 0.85781 0.79431 0.74207
 H123 H 0.85597 0.73283 0.79328
 H124 H 0.76294 0.70939 0.86769
 H125 H 0.69780 0.75988 0.85826
 H126 H 0.70201 0.85492 0.77393
 C127 C 0.21371 0.81518 1.24074
 C128 C 0.24191 0.80769 1.21249
 C129 C 0.24221 0.77360 1.18997
 C130 C 0.21465 0.74621 1.19600
 C131 C 0.18748 0.75308 1.22491
 C132 C 0.18695 0.78794 1.24724
 C133 C 0.20400 0.84785 1.26271
 N134 N 0.17184 0.84133 1.28270
 C135 C 0.16158 0.80433 1.27344
 C136 C 0.16269 0.72351 1.22156
 N137 N 0.17397 0.69931 1.19107
 C138 C 0.20560 0.71294 1.17512
 C139 C 0.27069 0.77577 1.16234
 N140 N 0.28791 0.81013 1.16794
 C141 C 0.27038 0.82986 1.19847
 H142 H 0.21946 0.87443 1.26346
 H143 H 0.13625 0.79088 1.28247
 H144 H 0.13705 0.72125 1.23797
 H145 H 0.21988 0.70062 1.14892
 H146 H 0.27801 0.75419 1.13946
 H147 H 0.27691 0.85895 1.20854
 C148 C 0.77492 1.17650 1.23148
 C149 C 0.74803 1.17508 1.20045
 C150 C 0.74991 1.19983 1.16647
 C151 C 0.77873 1.22628 1.16289
 C152 C 0.80434 1.22798 1.19396
 C153 C 0.80232 1.20331 1.22812
 C154 C 0.78205 1.15502 1.26700
 N155 N 0.81307 1.16865 1.28513
 C156 C 0.82515 1.19844 1.26103
 C157 C 0.82956 1.25509 1.18302
 N158 N 0.82034 1.27015 1.14573
 C159 C 0.78929 1.25267 1.13282
 C160 C 0.72032 1.19221 1.14180
 N161 N 0.70032 1.16362 1.15980
 C162 C 0.71739 1.15285 1.19551
 H163 H 0.76573 1.13121 1.27831
 H164 H 0.85018 1.21426 1.26508
 H165 H 0.85363 1.26257 1.20046
 H166 H 0.77564 1.25856 1.10381
 H167 H 0.71353 1.20714 1.11329
 H168 H 0.70843 1.13029 1.21649
 O169 O 0.52552 0.95821 0.91704
 O170 O 0.46176 0.95880 1.07732
 O171 O 0.57029 0.98528 1.03462
 O172 O 0.44889 0.93852 0.95332
 O173 O 0.52864 0.95465 1.06652
 O174 O 0.45968 0.97750 0.90587
 O175 O 0.43680 0.93422 1.02374
 O176 O 0.55183 0.94661 0.97493
 C177 C 0.54522 0.93622 0.93920
 C178 C 0.44142 0.93425 1.06151
 C179 C 0.56160 0.95933 1.05946
 C180 C 0.44661 0.94602 0.91665
 O181 O 0.47246 1.04747 0.93312
 O182 O 0.52905 1.03413 1.06485
 O183 O 0.58606 1.00846 0.95975
 O184 O 0.41755 1.00981 1.02878
 O185 O 0.46039 1.03276 1.07006
 O186 O 0.53847 1.03540 0.92988
 O187 O 0.42420 1.01628 0.95343
 O188 O 0.54365 1.04883 1.00240
 Co189 Co 0.49868 1.00278 0.92889
 Co190 Co 0.49532 0.99489 1.06277
 Co191 Co 0.54529 0.99715 0.98788
 Co192 Co 0.43672 0.97620 0.98953
 O193 O 0.49162 0.99158 0.99579
 C194 C 0.43858 1.04645 0.93814
 C195 C 0.54391 1.05715 1.03979
 C196 C 0.57280 1.02920 0.92921
 C197 C 0.42780 1.03218 1.05755
 O198 O 0.03631 0.45466 0.09021
 O199 O 0.02514 0.52422 -0.07466
 O200 O 0.05004 0.44118 -0.03532
 O201 O 0.01832 0.57282 0.04434
 O202 O 0.01007 0.45436 -0.07963
 O203 O 0.04343 0.52583 0.07878
 O204 O 0.04625 0.54975 -0.02014
 O205 O 0.05807 0.42964 0.03517
 C206 C 0.05915 0.43327 0.07302
 C207 C 0.04955 0.54353 -0.05754
 C208 C 0.04110 0.44134 -0.07168
 C209 C 0.04254 0.56093 0.06862
 O210 O -0.02909 0.53279 0.08283
 O211 O -0.05424 0.46852 -0.04444
 O212 O -0.01355 0.41197 0.04560
 O213 O -0.01244 0.58951 -0.02917
 O214 O -0.04417 0.53931 -0.04969
 O215 O -0.03264 0.45914 0.08740
 O216 O -0.04623 0.55038 0.02216
 O217 O -0.02180 0.41710 -0.02921
 Co218 Co 0.00432 0.49340 0.07756
 Co219 Co -0.01368 0.49608 -0.05524
 Co220 Co 0.01689 0.43018 0.00398
 Co221 Co 0.00029 0.54691 0.00031
 O222 O 0.00360 0.48942 0.00994
 C223 C -0.05180 0.54967 0.06000
 C224 C -0.05157 0.43236 -0.04095
 C225 C -0.03420 0.42456 0.07444
 C226 C -0.03691 0.57538 -0.05431
 O227 O 1.07158 0.03232 0.47823
 O228 O 0.91655 0.01320 0.54043
 O229 O 0.95907 0.05561 0.43870
 O230 O 1.01864 0.06594 0.55730
 O231 O 0.92041 0.01355 0.46380
 O232 O 1.06565 0.02928 0.55218
 O233 O 0.95299 0.05880 0.55824
 O234 O 1.02554 0.06719 0.45745
 C235 C 1.05887 0.06422 0.46427
 C236 C 0.92136 0.04710 0.55373
 C237 C 0.92711 0.04370 0.44276
 C238 C 1.05213 0.06198 0.56041
 O239 O 1.04209 -0.04563 0.54753
 O240 O 0.94991 -0.05631 0.46254
 O241 O 1.04179 -0.00315 0.42695
 O242 O 0.95988 -0.01293 0.59028
 O243 O 0.95123 -0.05616 0.54292
 O244 O 1.05054 -0.04458 0.47463
 O245 O 1.02587 -0.00560 0.59423
 O246 O 0.97629 -0.01636 0.41867
 Co247 Co 1.05251 -0.00596 0.51259
 Co248 Co 0.94058 -0.01905 0.50334
 Co249 Co 1.00059 0.02425 0.44232
 Co250 Co 0.99021 0.02483 0.56934
 O251 O 0.99559 0.00629 0.50672
 C252 C 1.03774 -0.03865 0.58456
 C253 C 0.96062 -0.04815 0.42675
 C254 C 1.05156 -0.03661 0.43758
 C255 C 0.95099 -0.04682 0.57992
 C256 C 1.19747 0.12767 0.38221
 C257 C 1.18083 0.15999 0.36192
 C258 C 1.14504 0.17075 0.37432
 C259 C 1.12533 0.14755 0.40214
 C260 C 1.14160 0.11358 0.41917
 C261 C 1.17808 0.10479 0.41021
 C262 C 1.12058 0.08789 0.44300
 C263 C 1.08313 0.09531 0.44900
 C264 C 1.06790 0.13064 0.43442
 C265 C 1.08883 0.15659 0.41139
 H266 H 1.13131 0.19585 0.36103
 H267 H 1.19133 0.07934 0.42372
 H268 H 1.13272 0.06086 0.45420
 H269 H 1.07593 0.18277 0.39907
 H270 H 1.22532 0.11887 0.37616
 H271 H 1.03921 0.13734 0.43901
 C272 C 0.90275 -0.08582 0.25532
 C273 C 0.89642 -0.12583 0.26156
 C274 C 0.91079 -0.14423 0.29712
 C275 C 0.92715 -0.12186 0.32810
 C276 C 0.93207 -0.08149 0.32166
 C277 C 0.92107 -0.06412 0.28459
 C278 C 0.94567 -0.05846 0.35334
 C279 C 0.95240 -0.07454 0.39246
 C280 C 0.94817 -0.11474 0.39875
 C281 C 0.93629 -0.13841 0.36652
 H282 H 0.90583 -0.17485 0.30273
 H283 H 0.92488 -0.03326 0.27912
 H284 H 0.94844 -0.02735 0.34837
 H285 H 0.93261 -0.16924 0.37221
 H286 H 0.89325 -0.07110 0.22765
 H287 H 0.95347 -0.12768 0.42873
 C288 C 0.85637 0.19063 0.63962
 C289 C 0.82734 0.17188 0.66011
 C290 C 0.81868 0.13360 0.64766
 C291 C 0.84084 0.11345 0.61919
 C292 C 0.87138 0.13201 0.60179
 C293 C 0.87806 0.17096 0.61099
 C294 C 0.89596 0.11077 0.57728
 C295 C 0.89093 0.07084 0.57050
 C296 C 0.85917 0.05313 0.58545
 C297 C 0.83425 0.07431 0.60959
 H298 H 0.79646 0.11809 0.66188
 H299 H 0.90092 0.18588 0.59711
 H300 H 0.92023 0.12479 0.56552
 H301 H 0.81081 0.05957 0.62237
 H302 H 0.86303 0.22057 0.64585
 H303 H 0.85473 0.02236 0.58065
 C304 C 1.13854 -0.09145 0.72598
 C305 C 1.13345 -0.13203 0.72289
 C306 C 1.10646 -0.14554 0.69563
 C307 C 1.08705 -0.11923 0.67003
 C308 C 1.09261 -0.07872 0.67384
 C309 C 1.11788 -0.06519 0.70244
 C310 C 1.07413 -0.05244 0.64764
 C311 C 1.05198 -0.06617 0.61582
 C312 C 1.04690 -0.10641 0.61169
 C313 C 1.06354 -0.13271 0.63924
 H314 H 1.10245 -0.17653 0.69201
 H315 H 1.12249 -0.03424 0.70575
 H316 H 1.07887 -0.02142 0.65024
 H317 H 1.05921 -0.16364 0.63541
 H318 H 1.15801 -0.07967 0.74744
 H319 H 1.03041 -0.11746 0.58681
 C320 C 0.35176 1.11669 1.20159
 C321 C 0.32596 1.13839 1.17840
 C322 C 0.32636 1.13481 1.13501
 C323 C 0.35122 1.10952 1.11551
 C324 C 0.37730 1.08876 1.13932
 C325 C 0.37745 1.09266 1.18222
 C326 C 0.40254 1.06401 1.11987
 C327 C 0.40118 1.05853 1.07709
 C328 C 0.37456 1.07828 1.05362
 C329 C 0.35003 1.10406 1.07264
 H330 H 0.30623 1.15002 1.11631
 H331 H 0.39726 1.07682 1.20089
 H332 H 0.42279 1.04828 1.13810
 H333 H 0.32999 1.11948 1.05392
 H334 H 0.35300 1.11910 1.23478
 H335 H 0.37326 1.07432 1.02054
 C336 C 0.33861 0.81476 0.88286
 C337 C 0.32104 0.83176 0.84825
 C338 C 0.33665 0.86555 0.83058
 C339 C 0.36707 0.88315 0.84858
 C340 C 0.38276 0.86669 0.88443
 C341 C 0.36895 0.83206 0.90069
 C342 C 0.41094 0.88603 0.90460
 C343 C 0.42329 0.92217 0.88992
 C344 C 0.40907 0.93729 0.85287
 C345 C 0.38122 0.91784 0.83225
 H346 H 0.32522 0.87874 0.80306
 H347 H 0.38089 0.81896 0.92810
 H348 H 0.42189 0.87396 0.93307
 H349 H 0.36972 0.93077 0.80453
 H350 H 0.32829 0.78900 0.89783
 H351 H 0.41811 0.96511 0.84102
 C352 C 0.71585 0.92552 1.12390
 C353 C 0.71359 0.88459 1.12678
 C354 C 0.68027 0.86679 1.11681
 C355 C 0.64983 0.88948 1.10510
 C356 C 0.65310 0.93031 1.10162
 C357 C 0.68610 0.94801 1.11104
 C358 C 0.62347 0.95290 1.08817
 C359 C 0.59022 0.93545 1.07881
 C360 C 0.58632 0.89515 1.08400
 C361 C 0.61611 0.87217 1.09680
 H362 H 0.67738 0.83555 1.11976
 H363 H 0.68896 0.97932 1.10839
 H364 H 0.62636 0.98414 1.08435
 H365 H 0.61296 0.84093 1.09961
 H366 H 0.74104 0.94040 1.13013
 H367 H 0.56081 0.88133 1.07643
 C368 C 0.69529 1.14659 0.89756
 C369 C 0.69206 1.14932 0.85426
 C370 C 0.66546 1.12664 0.83452
 C371 C 0.64253 1.10225 0.85749
 C372 C 0.64733 1.09883 0.90057
 C373 C 0.67367 1.12113 0.92027
 C374 C 0.62532 1.07361 0.92340
 C375 C 0.59703 1.05354 0.90420
 C376 C 0.59146 1.05793 0.86167
 C377 C 0.61452 1.08158 0.83828
 H378 H 0.66150 1.12902 0.80152
 H379 H 0.67745 1.11905 0.95336
 H380 H 0.62950 1.07045 0.95634
 H381 H 0.61015 1.08411 0.80533
 H382 H 0.71571 1.16270 0.91407
 H383 H 0.56967 1.04261 0.84650
 C384 C 0.16434 0.29650 0.11563
 C385 C 0.16586 0.30265 0.15843
 C386 C 0.14753 0.33509 0.17522
 C387 C 0.12780 0.36094 0.14962
 C388 C 0.12615 0.35419 0.10668
 C389 C 0.14466 0.32197 0.09001
 C390 C 0.10529 0.37917 0.08129
 C391 C 0.08554 0.41056 0.09835
 C392 C 0.08826 0.41764 0.14093
 C393 C 0.10927 0.39315 0.16629
 H394 H 0.14891 0.34033 0.20809
 H395 H 0.14364 0.31624 0.05722
 H396 H 0.10328 0.37324 0.04858
 H397 H 0.11037 0.39894 0.19906
 H398 H 0.17793 0.27151 0.10200
 H399 H 0.07336 0.44163 0.15489
 C400 C -0.11077 0.29457 -0.13933
 C401 C -0.14732 0.30704 -0.14138
 C402 C -0.15866 0.34043 -0.11978
 C403 C -0.13315 0.36217 -0.09756
 C404 C -0.09637 0.34923 -0.09567
 C405 C -0.08556 0.31518 -0.11622
 C406 C -0.07060 0.37130 -0.07468
 C407 C -0.08049 0.40723 -0.05712
 C408 C -0.11705 0.41997 -0.05890
 C409 C -0.14333 0.39728 -0.07841
 H410 H -0.18689 0.35011 -0.12167
 H411 H -0.05744 0.30499 -0.11519
 H412 H -0.04232 0.36153 -0.07408
 H413 H -0.17134 0.40776 -0.07965
 H414 H -0.10187 0.26868 -0.15562
 H415 H -0.12514 0.44765 -0.04564
 C416 C 0.16435 0.66946 -0.09102
 C417 C 0.15919 0.67202 -0.13390
 C418 C 0.13688 0.64476 -0.15340
 C419 C 0.11906 0.61597 -0.13016
 C420 C 0.12319 0.61477 -0.08681
 C421 C 0.14639 0.64124 -0.06765
 C422 C 0.10275 0.58840 -0.06320
 C423 C 0.07781 0.56349 -0.08229
 C424 C 0.07579 0.56316 -0.12561
 C425 C 0.09619 0.58917 -0.14932
 H426 H 0.13311 0.64638 -0.18651
 H427 H 0.14995 0.64074 -0.03448
 H428 H 0.10471 0.58890 -0.02987
 H429 H 0.09297 0.58934 -0.18252
 H430 H 0.18129 0.69029 -0.07538
 H431 H 0.05684 0.54431 -0.14116
 C432 C -0.15869 0.68842 0.07795
 C433 C -0.15964 0.68777 0.12127
 C434 C -0.14463 0.65582 0.14261
 C435 C -0.12663 0.62594 0.12114
 C436 C -0.12350 0.62804 0.07767
 C437 C -0.14068 0.65878 0.05626
 C438 C -0.10134 0.60082 0.05680
 C439 C -0.08195 0.57208 0.07914
 C440 C -0.08776 0.56852 0.12189
 C441 C -0.10989 0.59520 0.14270
 H442 H -0.14558 0.65529 0.17601
 H443 H -0.13883 0.66080 0.02296
 H444 H -0.09719 0.60374 0.02382
 H445 H -0.11247 0.59285 0.17591
 H446 H -0.17004 0.71304 0.06106
 H447 H -0.07359 0.54623 0.13973
 C448 C 1.18684 0.12808 0.64762
 C449 C 1.16969 0.16099 0.66569
 C450 C 1.13361 0.17042 0.65321
 C451 C 1.11447 0.14601 0.62642
 C452 C 1.13165 0.11216 0.61070
 C453 C 1.16809 0.10410 0.62057
 C454 C 1.11172 0.08604 0.58678
 C455 C 1.07442 0.09281 0.57910
 C456 C 1.05796 0.12751 0.59317
 C457 C 1.07784 0.15395 0.61649
 H458 H 1.11927 0.19533 0.66587
 H459 H 1.18191 0.07861 0.60819
 H460 H 1.12481 0.05950 0.57590
 H461 H 1.06419 0.17990 0.62801
 H462 H 1.21491 0.12033 0.65415
 H463 H 1.02930 0.13355 0.58748
 C464 C 0.82951 -0.09525 0.69934
 C465 C 0.83912 -0.13507 0.70311
 C466 C 0.87100 -0.14862 0.68289
 C467 C 0.89237 -0.12331 0.65926
 C468 C 0.88280 -0.08337 0.65690
 C469 C 0.85143 -0.06964 0.67708
 C470 C 0.90404 -0.05808 0.63314
 C471 C 0.93346 -0.07262 0.60988
 C472 C 0.94244 -0.11240 0.61162
 C473 C 0.92254 -0.13748 0.63691
 H474 H 0.87850 -0.17922 0.68380
 H475 H 0.84358 -0.03912 0.67528
 H476 H 0.89641 -0.02750 0.63076
 H477 H 0.93001 -0.16813 0.63796
 H478 H 0.80579 -0.08325 0.71481
 H479 H 0.96450 -0.12409 0.59302
 C480 C 1.15952 -0.09202 0.30355
 C481 C 1.15245 -0.13234 0.30612
 C482 C 1.12475 -0.14477 0.33337
 C483 C 1.10526 -0.11794 0.35771
 C484 C 1.11252 -0.07775 0.35420
 C485 C 1.13953 -0.06513 0.32691
 C486 C 1.09336 -0.05097 0.37891
 C487 C 1.06825 -0.06412 0.40836
 C488 C 1.06124 -0.10407 0.41185
 C489 C 1.07921 -0.13076 0.38630
 H490 H 1.11915 -0.17543 0.33721
 H491 H 1.14549 -0.03441 0.32388
 H492 H 1.09922 -0.02014 0.37665
 H493 H 1.07334 -0.16148 0.38955
 H494 H 1.17973 -0.08065 0.28259
 H495 H 1.04190 -0.11458 0.43450
 C496 C 0.85936 0.17553 0.33769
 C497 C 0.83120 0.15399 0.31910
 C498 C 0.82409 0.11636 0.33501
 C499 C 0.84687 0.09957 0.36552
 C500 C 0.87652 0.12084 0.38106
 C501 C 0.88172 0.15914 0.36798
 C502 C 0.90145 0.10307 0.40824
 C503 C 0.89737 0.06405 0.42021
 C504 C 0.86666 0.04364 0.40666
 C505 C 0.84163 0.06123 0.37945
 H506 H 0.80257 0.09898 0.32212
 H507 H 0.90376 0.17620 0.38041
 H508 H 0.92486 0.11918 0.41886
 H509 H 0.81896 0.04440 0.36819
 H510 H 0.86467 0.20531 0.32890
 H511 H 0.86299 0.01345 0.41544
 C512 C 0.17844 0.35107 -0.12726
 C513 C 0.16369 0.33274 -0.16232
 C514 C 0.12836 0.34488 -0.17548
 C515 C 0.10774 0.37218 -0.15266
 C516 C 0.12262 0.38830 -0.11662
 C517 C 0.15820 0.37830 -0.10481
 C518 C 0.10127 0.41303 -0.09197
 C519 C 0.06476 0.42154 -0.10228
 C520 C 0.05056 0.40706 -0.13925
 C521 C 0.07192 0.38258 -0.16430
 H522 H 0.11580 0.33214 -0.20220
 H523 H 0.17020 0.39096 -0.07756
 H524 H 0.11263 0.42429 -0.06365
 H525 H 0.06000 0.37072 -0.19200
 H526 H 0.20575 0.34465 -0.11654
 H527 H 0.02247 0.41316 -0.14778
 C528 C -0.15000 0.29447 0.08224
 C529 C -0.15826 0.29858 0.12428
 C530 C -0.14184 0.32833 0.14682
 C531 C -0.11594 0.35241 0.12851
 C532 C -0.10631 0.34709 0.08668
 C533 C -0.12411 0.31857 0.06353
 C534 C -0.07889 0.37017 0.06908
 C535 C -0.06170 0.39881 0.09276
 C536 C -0.07221 0.40427 0.13398
 C537 C -0.09891 0.38112 0.15179
 H538 H -0.14853 0.33187 0.17916
 H539 H -0.11736 0.31428 0.03132
 H540 H -0.07136 0.36633 0.03700
 H541 H -0.10613 0.38555 0.18385
 H542 H -0.16226 0.27149 0.06450
 H543 H -0.05943 0.42632 0.15262
 C544 C -0.17988 0.65371 -0.11785
 C545 C -0.16341 0.68345 -0.14133
 C546 C -0.12487 0.68463 -0.14234
 C547 C -0.10346 0.65701 -0.12127
 C548 C -0.12029 0.62669 -0.09902
 C549 C -0.15854 0.62541 -0.09737
 C550 C -0.09845 0.59880 -0.07827
 C551 C -0.06022 0.60207 -0.07849
 C552 C -0.04394 0.63274 -0.10002
 C553 C -0.06532 0.65973 -0.12171
 H554 H -0.11098 0.70795 -0.15815
 H555 H -0.17197 0.60256 -0.08015
 H556 H -0.11108 0.57552 -0.06086
 H557 H -0.05204 0.68303 -0.13840
 H558 H -0.20924 0.65136 -0.11627
 H559 H -0.01452 0.63570 -0.10016
 C560 C 0.14025 0.63832 0.19913
 C561 C 0.15262 0.66877 0.17399
 C562 C 0.14214 0.67062 0.13248
 C563 C 0.11853 0.64283 0.11633
 C564 C 0.10644 0.61183 0.14163
 C565 C 0.11776 0.60963 0.18291
 C566 C 0.08247 0.58425 0.12550
 C567 C 0.06926 0.58836 0.08506
 C568 C 0.08108 0.61950 0.06040
 C569 C 0.10596 0.64619 0.07567
 H570 H 0.15123 0.69464 0.11338
 H571 H 0.10858 0.58628 0.20284
 H572 H 0.07308 0.56047 0.14476
 H573 H 0.11480 0.66986 0.05596
 H574 H 0.14807 0.63689 0.23129
 H575 H 0.07121 0.62303 0.02912
 C576 C 0.29568 1.12034 0.87169
 C577 C 0.31073 1.15441 0.85530
 C578 C 0.34769 1.16241 0.86207
 C579 C 0.36994 1.13550 0.88369
 C580 C 0.35458 1.10092 0.89959
 C581 C 0.31730 1.09398 0.89407
 C582 C 0.37696 1.07306 0.91925
 C583 C 0.41484 1.07848 0.92224
 C584 C 0.42978 1.11330 0.90718
 C585 C 0.40748 1.14171 0.88837
 H586 H 0.35927 1.18860 0.84894
 H587 H 0.30511 1.06762 0.90598
 H588 H 0.36500 1.04633 0.93059
 H589 H 0.41976 1.16801 0.87643
 H590 H 0.26720 1.11398 0.86645
 H591 H 0.45885 1.11826 0.90922
 C592 C 0.31959 0.81754 1.10121
 C593 C 0.31770 0.82481 1.14374
 C594 C 0.34414 0.84839 1.16202
 C595 C 0.37113 0.86601 1.13785
 C596 C 0.37178 0.85995 1.09480
 C597 C 0.34637 0.83500 1.07690
 C598 C 0.39670 0.88028 1.07016
 C599 C 0.42069 0.90707 1.08795
 C600 C 0.42114 0.91119 1.13105
 C601 C 0.39661 0.89080 1.15579
 H602 H 0.34317 0.85364 1.19491
 H603 H 0.34655 0.82991 1.04396
 H604 H 0.39610 0.87671 1.03698
 H605 H 0.39668 0.89553 1.18880
 H606 H 0.29942 0.79959 1.08648
 H607 H 0.43932 0.93157 1.14557
 C608 C 0.64205 1.12948 1.17111
 C609 C 0.66676 1.14763 1.14413
 C610 C 0.65840 1.14918 1.10166
 C611 C 0.62688 1.13132 1.08635
 C612 C 0.60327 1.11188 1.11381
 C613 C 0.61071 1.11181 1.15614
 C614 C 0.57367 1.09102 1.09838
 C615 C 0.56780 1.08820 1.05563
 C616 C 0.58990 1.10982 1.02870
 C617 C 0.61921 1.13122 1.04392
 H618 H 0.67704 1.16284 1.08026
 H619 H 0.59269 1.09730 1.17765
 H620 H 0.55682 1.07467 1.11964
 H621 H 0.63673 1.14632 1.02235
 H622 H 0.64697 1.12870 1.20397
 H623 H 0.58568 1.10858 0.99573
 C624 C 0.63061 0.84688 0.80661
 C625 C 0.65382 0.82612 0.83370
 C626 C 0.64520 0.82506 0.87593
 C627 C 0.61582 0.84745 0.89132
 C628 C 0.59417 0.87027 0.86400
 C629 C 0.60097 0.86857 0.82156
 C630 C 0.56794 0.89652 0.87974
 C631 C 0.56402 0.90125 0.92252
 C632 C 0.58385 0.87642 0.94929
 C633 C 0.60933 0.84959 0.93383
 H634 H 0.66297 0.80934 0.89712
 H635 H 0.58448 0.88551 0.80009
 H636 H 0.55294 0.91556 0.85880
 H637 H 0.62539 0.83214 0.95525
 H638 H 0.63628 0.84746 0.77386
 H639 H 0.58119 0.87930 0.98241
   
