data_POSCAR
  _audit_creation_date              2014-09-24
  _audit_creation_method            'ToBaCCo'
  _symmetry_space_group_name_H-M    'P1'
  _symmetry_Int_Tables_number       1
  _symmetry_cell_setting            triclinic
  loop_
  _symmetry_equiv_pos_as_xyz
 x,y,z
_cell_length_a 18.5728
_cell_length_b 18.5592
_cell_length_c 18.5102
_cell_angle_alpha 89.948800
_cell_angle_beta 89.948900
_cell_angle_gamma 89.913300
loop_
  _atom_site_label
  _atom_site_type_symbol
  _atom_site_fract_x
  _atom_site_fract_y
  _atom_site_fract_z
C1 C 0.17821 0.17605 0.27132
 C2 C 0.14707 0.23789 0.24022
 C3 C 0.17721 0.26962 0.17832
 C4 C 0.23895 0.23895 0.14718
 C5 C 0.27109 0.17714 0.17717
 C6 C 0.24014 0.14600 0.23914
 H7 H 0.09942 0.26169 0.26425
 H8 H 0.26208 0.26362 0.09943
 H9 H 0.26457 0.09835 0.26259
 C10 C -0.17766 0.82312 0.27200
 C11 C -0.14755 0.76108 0.24022
 C12 C -0.17862 0.72977 0.17879
 C13 C -0.24037 0.76111 0.14854
 C14 C -0.27132 0.82297 0.17928
 C15 C -0.23971 0.85376 0.24093
 H16 H -0.09979 0.73671 0.26337
 H17 H -0.26455 0.73713 0.10107
 H18 H -0.26360 0.90152 0.26465
 C19 C -0.17651 0.17733 -0.27206
 C20 C -0.23840 0.14672 -0.24073
 C21 C -0.27003 0.17755 -0.17903
 C22 C -0.23925 0.23939 -0.14841
 C23 C -0.17763 0.27074 -0.17885
 C24 C -0.14652 0.23942 -0.24042
 H25 H -0.26221 0.09896 -0.26433
 H26 H -0.26348 0.26336 -0.10089
 H27 H -0.09888 0.26378 -0.26377
 C28 C 0.17743 0.82242 -0.27135
 C29 C 0.14715 0.76075 -0.23936
 C30 C 0.17784 0.72974 -0.17753
 C31 C 0.23955 0.76100 -0.14718
 C32 C 0.27063 0.82264 -0.17826
 C33 C 0.23921 0.85317 -0.24016
 H34 H 0.09953 0.73643 -0.26268
 H35 H 0.26350 0.73720 -0.09943
 H36 H 0.26320 0.90071 -0.26416
 C37 C 0.17750 1.17744 0.72816
 C38 C 0.14662 1.23944 0.75916
 C39 C 0.17711 1.27111 0.82090
 C40 C 0.23898 1.24030 0.85176
 C41 C 0.27052 1.17859 0.82152
 C42 C 0.23943 1.14744 0.76005
 H43 H 0.09889 1.26322 0.73533
 H44 H 0.26279 1.26450 0.89930
 H45 H 0.26394 1.09972 0.73689
 C46 C 0.82367 0.82237 0.72842
 C47 C 0.76179 0.85330 0.75959
 C48 C 0.73014 0.82287 0.82142
 C49 C 0.76094 0.76114 0.85244
 C50 C 0.82277 0.72916 0.82243
 C51 C 0.85381 0.76032 0.76048
 H52 H 0.73791 0.90098 0.73568
 H53 H 0.73632 0.73786 0.90014
 H54 H 0.90148 0.73599 0.73701
 C55 C 0.17731 0.82233 1.27131
 C56 C 0.14651 0.76059 1.24009
 C57 C 0.17700 0.72912 1.17821
 C58 C 0.23866 0.76013 1.14714
 C59 C 0.26998 0.82182 1.17749
 C60 C 0.23903 0.85254 1.23935
 H61 H 0.09895 0.73665 1.26406
 H62 H 0.26242 0.73613 1.09939
 H63 H 0.26340 0.90015 1.26269
 C64 C 0.82282 1.17677 1.27207
 C65 C 0.76072 1.14623 1.24108
 C66 C 0.72907 1.17702 1.17931
 C67 C 0.76003 1.23874 1.14841
 C68 C 0.82176 1.26993 1.17856
 C69 C 0.85288 1.23864 1.24008
 H70 H 0.73683 1.09858 1.26496
 H71 H 0.73586 1.26275 1.10087
 H72 H 0.90063 1.26292 1.26316
 N73 N 0.42459 0.87294 0.92180
 N74 N 0.36993 0.82851 0.91286
 N75 N 0.57592 0.92302 0.87179
 N76 N 0.63068 0.91404 0.82717
 N77 N 0.57613 0.87317 0.92213
 N78 N 0.63101 0.82884 0.91305
 N79 N 0.42438 0.92308 0.87176
 N80 N 0.36959 0.91406 0.82732
 C81 C 0.33606 0.85477 0.85363
 C82 C 0.66462 0.85499 0.85355
 N83 N 0.57627 1.12765 0.92204
 N84 N 0.63110 1.17186 0.91282
 N85 N 0.42456 1.07837 0.87179
 N86 N 0.36972 1.08741 0.82744
 N87 N 0.42474 1.12852 0.92175
 N88 N 0.36994 1.17301 0.91278
 N89 N 0.57599 1.07782 0.87177
 N90 N 0.63064 1.08670 0.82704
 Mn91 Mn 0.50014 1.00058 0.87090
 C92 C 0.66459 1.14564 0.85329
 C93 C 0.33608 1.14672 0.85362
 N94 N 0.57526 0.87312 1.07799
 N95 N 0.63012 0.82885 1.08734
 N96 N 0.42315 0.92300 1.12709
 N97 N 0.36834 0.91363 1.17147
 N98 N 0.42380 0.87285 1.07713
 N99 N 0.36938 0.82805 1.08611
 N100 N 0.57461 0.92291 1.12831
 N101 N 0.62908 0.91393 1.17320
 Mn102 Mn 0.50002 0.87213 0.99976
 C103 C 0.66326 0.85494 1.14700
 C104 C 0.33521 0.85416 1.14525
 N105 N 0.42419 1.12852 1.07705
 N106 N 0.36629 1.17529 1.08668
 N107 N 0.57477 1.07782 1.12835
 N108 N 0.62924 1.08651 1.17328
 N109 N 0.57559 1.12758 1.07792
 N110 N 0.63055 1.17156 1.08726
 N111 N 0.42307 1.07852 1.12714
 N112 N 0.36780 1.08795 1.17115
 Mn113 Mn 0.50027 1.12895 0.99969
 Mn114 Mn 0.49881 1.00056 1.12863
 Cl115 Cl 0.49982 1.00055 0.99976
 C116 C 0.33333 1.14748 1.14584
 C117 C 0.66359 1.14531 1.14702
 N118 N -0.07848 0.42519 -0.12820
 N119 N -0.08720 0.37054 -0.17290
 N120 N -0.12865 0.57615 -0.07713
 N121 N -0.17532 0.63409 -0.08691
 N122 N -0.07874 0.57704 -0.12728
 N123 N -0.08812 0.63226 -0.17145
 N124 N -0.12830 0.42464 -0.07786
 N125 N -0.17234 0.36965 -0.08702
 C126 C -0.14607 0.33634 -0.14661
 C127 C -0.14755 0.66690 -0.14619
 N128 N -0.07860 0.57553 0.12828
 N129 N -0.08756 0.63033 0.17277
 N130 N -0.12837 0.42396 0.07782
 N131 N -0.17267 0.36914 0.08689
 N132 N -0.07848 0.42397 0.12800
 N133 N -0.08742 0.36916 0.17252
 N134 N -0.12865 0.57559 0.07826
 N135 N -0.17302 0.63047 0.08735
 Mn136 Mn -0.12937 0.50004 0.00027
 C137 C -0.14675 0.66417 0.14661
 C138 C -0.14644 0.33539 0.14625
 N139 N 0.07662 0.57655 -0.12719
 N140 N 0.08606 0.63138 -0.17158
 N141 N 0.12630 0.42445 -0.07792
 N142 N 0.17074 0.36971 -0.08726
 N143 N 0.07651 0.42494 -0.12821
 N144 N 0.08571 0.37045 -0.17311
 N145 N 0.12666 0.57595 -0.07715
 N146 N 0.17147 0.63038 -0.08611
 Mn147 Mn -0.00102 0.50099 -0.12865
 C148 C 0.14546 0.66453 -0.14531
 C149 C 0.14480 0.33644 -0.14689
 N150 N 0.07641 0.42362 0.12804
 N151 N 0.08560 0.36883 0.17266
 N152 N 0.12657 0.57516 0.07815
 N153 N 0.17099 0.62984 0.08707
 N154 N 0.07654 0.57532 0.12828
 N155 N 0.08562 0.63013 0.17273
 N156 N 0.12626 0.42358 0.07773
 N157 N 0.17075 0.36882 0.08679
 Mn158 Mn -0.00104 0.49965 0.12904
 Mn159 Mn 0.12731 0.49974 0.00021
 Cl160 Cl -0.00103 0.50009 0.00021
 C161 C 0.14476 0.33506 0.14626
 C162 C 0.14484 0.66369 0.14635
 N163 N 1.07912 0.12661 0.57631
 N164 N 1.08863 0.17122 0.63110
 N165 N 1.12944 0.07624 0.42477
 N166 N 1.17611 0.08572 0.36666
 N167 N 1.07969 0.12642 0.42386
 N168 N 1.08916 0.17036 0.36843
 N169 N 1.12848 0.07605 0.57634
 N170 N 1.17508 0.08608 0.63423
 C171 C 1.14770 0.14583 0.66622
 C172 C 1.14850 0.14490 0.33374
 N173 N 1.07877 -0.12789 0.42347
 N174 N 1.08806 -0.17173 0.36803
 N175 N 1.12798 -0.07895 0.57646
 N176 N 1.17179 -0.08842 0.63185
 N177 N 1.07806 -0.12878 0.57534
 N178 N 1.08751 -0.17551 0.63337
 N179 N 1.12888 -0.07826 0.42469
 N180 N 1.17557 -0.08789 0.36670
 Mn181 Mn 1.12949 -0.00123 0.50064
 C182 C 1.14762 -0.14664 0.33361
 C183 C 1.14644 -0.14783 0.66636
 N184 N 0.92431 0.12704 0.42401
 N185 N 0.91419 0.17386 0.36612
 N186 N 0.87392 0.07765 0.57635
 N187 N 0.82959 0.08760 0.63139
 N188 N 0.92419 0.12724 0.57559
 N189 N 0.91430 0.17423 0.63330
 N190 N 0.87376 0.07773 0.42391
 N191 N 0.82919 0.08754 0.36912
 Mn192 Mn 1.00180 0.12773 0.49988
 C193 C 0.85449 0.14670 0.33405
 C194 C 0.85490 0.14703 0.66594
 N195 N 0.92354 -0.12834 0.57518
 N196 N 0.91390 -0.17522 0.63310
 N197 N 0.87334 -0.07784 0.42359
 N198 N 0.82870 -0.08747 0.36884
 N199 N 0.92375 -0.12740 0.42364
 N200 N 0.91357 -0.17418 0.36591
 N201 N 0.87352 -0.07839 0.57617
 N202 N 0.82953 -0.08800 0.63155
 Mn203 Mn 1.00100 -0.12891 0.49933
 Mn204 Mn 0.87257 -0.00020 0.50008
 Cl205 Cl 1.00113 -0.00061 0.49998
 C206 C 0.85482 -0.14761 0.66609
 C207 C 0.85393 -0.14678 0.33386
   
