data_POSCAR
  _audit_creation_date              2014-09-24
  _audit_creation_method            'ToBaCCo'
  _symmetry_space_group_name_H-M    'P1'
  _symmetry_Int_Tables_number       1
  _symmetry_cell_setting            triclinic
  loop_
  _symmetry_equiv_pos_as_xyz
 x,y,z
_cell_length_a 44.1784
_cell_length_b 10.1419
_cell_length_c 17.4175
_cell_angle_alpha 87.251300
_cell_angle_beta 89.884900
_cell_angle_gamma 76.002700
loop_
  _atom_site_label
  _atom_site_type_symbol
  _atom_site_fract_x
  _atom_site_fract_y
  _atom_site_fract_z
C1 C 0.67576 0.18128 0.43839
 C2 C 0.68549 0.23748 0.50423
 C3 C 0.71407 0.27708 0.49880
 C4 C 0.73302 0.25402 0.43339
 C5 C 0.72362 0.18826 0.37229
 C6 C 0.69442 0.15671 0.37240
 C7 C 0.76324 0.29490 0.42997
 C8 C 0.77425 0.34275 0.36062
 C9 C 0.80400 0.37158 0.35661
 C10 C 0.82220 0.35209 0.42465
 C11 C 0.81153 0.30553 0.49450
 C12 C 0.78175 0.28033 0.49631
 H13 H 0.65244 0.16704 0.43496
 H14 H 0.72233 0.32541 0.54519
 H15 H 0.73897 0.16369 0.32382
 H16 H 0.75915 0.35979 0.31047
 H17 H 0.84611 0.35944 0.42162
 H18 H 0.77313 0.24473 0.54935
 C19 C 0.18565 0.55017 0.57808
 C20 C 0.20022 0.56958 0.64750
 C21 C 0.22699 0.62397 0.64096
 C22 C 0.23650 0.67134 0.56940
 C23 C 0.21962 0.65977 0.50324
 C24 C 0.19456 0.59822 0.50658
 C25 C 0.26293 0.73994 0.56301
 C26 C 0.28128 0.72992 0.49631
 C27 C 0.30454 0.80222 0.48693
 C28 C 0.31052 0.87891 0.54786
 C29 C 0.29542 0.87718 0.61944
 C30 C 0.26979 0.81625 0.62304
 H31 H 0.16568 0.50692 0.57834
 H32 H 0.24102 0.62793 0.69101
 H33 H 0.22497 0.70534 0.44903
 H34 H 0.27787 0.66323 0.45220
 H35 H 0.32840 0.93334 0.53961
 H36 H 0.25464 0.82916 0.67217
 C37 C 0.32287 0.32561 -0.49399
 C38 C 0.31383 0.27216 -0.56030
 C39 C 0.28434 0.24501 -0.56473
 C40 C 0.26414 0.26803 -0.50190
 C41 C 0.27346 0.32308 -0.43554
 C42 C 0.30277 0.35254 -0.43134
 C43 C 0.23438 0.22545 -0.50277
 C44 C 0.22528 0.16355 -0.43587
 C45 C 0.19722 0.12246 -0.43298
 C46 C 0.17834 0.14267 -0.49975
 C47 C 0.18682 0.20593 -0.56704
 C48 C 0.21518 0.24512 -0.56887
 H49 H 0.34595 0.34464 -0.49110
 H50 H 0.27779 0.20084 -0.61570
 H51 H 0.25796 0.34281 -0.38698
 H52 H 0.24082 0.14279 -0.38641
 H53 H 0.15592 0.11691 -0.49869
 H54 H 0.22166 0.29491 -0.62055
 C55 C -0.17705 0.85311 -0.49323
 C56 C -0.19559 0.87676 -0.56052
 C57 C -0.22381 0.83675 -0.55908
 C58 C -0.23299 0.76971 -0.49383
 C59 C -0.21368 0.74474 -0.42748
 C60 C -0.18535 0.78493 -0.42755
 C61 C -0.26278 0.72640 -0.49735
 C62 C -0.28367 0.74665 -0.43540
 C63 C -0.31344 0.72209 -0.44293
 C64 C -0.32170 0.67262 -0.51157
 C65 C -0.30146 0.65260 -0.57411
 C66 C -0.27185 0.67783 -0.56638
 H67 H -0.15460 0.87824 -0.49282
 H68 H -0.23934 0.86138 -0.60848
 H69 H -0.21999 0.68983 -0.37750
 H70 H -0.27755 0.78896 -0.38335
 H71 H -0.34479 0.65485 -0.51740
 H72 H -0.25612 0.66168 -0.61469
 O73 O -0.05075 0.95043 0.17318
 O74 O -0.08014 1.04393 0.06677
 C75 C -0.07705 1.00706 0.13917
 O76 O 0.04796 1.22020 0.09421
 O77 O 0.08104 1.01867 0.06348
 C78 C 0.07545 1.13699 0.09307
 O79 O -0.03931 1.32852 0.07931
 O80 O -0.07374 1.23251 0.01735
 C81 C -0.06757 1.32323 0.06063
 O82 O 0.03401 0.79569 0.19476
 O83 O 0.07465 0.81675 0.11673
 C84 C 0.06349 0.77898 0.18110
 Zr85 Zr -0.00526 0.89669 0.12933
 O86 O -0.00669 0.96159 0.24318
 O87 O -0.01403 0.70938 0.16899
 Zr88 Zr 0.00449 1.19757 0.05109
 O89 O 0.00319 1.31923 0.14670
 O90 O 0.00956 1.36228 -0.02210
 O91 O -0.02756 1.09477 0.09548
 O92 O 0.02550 1.01919 0.11284
 O93 O 0.04456 0.62475 -0.06027
 O94 O 0.07882 0.73154 -0.00612
 C95 C 0.07281 0.63464 -0.04450
 O96 O -0.02918 1.15329 -0.19206
 O97 O -0.06908 1.14170 -0.10948
 C98 C -0.05848 1.17073 -0.17598
 O99 O 0.05656 1.03844 -0.16143
 O100 O 0.08539 0.92889 -0.05720
 C101 C 0.08266 0.97750 -0.12767
 O102 O -0.04182 0.75378 -0.09512
 O103 O -0.07560 0.94918 -0.05816
 C104 C -0.06955 0.83503 -0.09224
 Zr105 Zr 0.00086 0.76823 -0.04353
 O106 O 0.00474 0.64971 -0.14114
 O107 O -0.00864 0.60518 0.02422
 Zr108 Zr 0.01030 1.07065 -0.12193
 O109 O 0.01626 0.99693 -0.23390
 O110 O 0.01326 1.26532 -0.16622
 Zr111 Zr -0.04366 1.04816 -0.01132
 Zr112 Zr 0.04889 0.91772 0.01932
 O113 O 0.03214 0.87350 -0.08766
 O114 O -0.02088 0.94705 -0.10592
 O115 O 0.02541 0.77003 0.05798
 O116 O -0.01979 1.19463 -0.04941
 O117 O -0.03063 0.85040 0.03951
 O118 O 0.03647 1.11633 -0.03200
 H119 H 0.03694 1.02942 0.16017
 H120 H -0.03271 1.28265 -0.07079
 H121 H 0.04598 0.82646 -0.12780
 H122 H -0.04777 0.80583 0.05253
 H123 H 0.03180 1.36516 -0.02048
 H124 H 0.03412 1.27748 -0.15255
 H125 H 0.00385 0.92817 -0.23698
 H126 H 0.00850 0.70910 -0.18505
 H127 H 0.01065 0.56170 0.05361
 H128 H -0.01718 0.71570 0.22515
 H129 H -0.01201 1.06225 0.23937
 H130 H 0.00177 1.25949 0.19254
 O131 O 0.45341 0.31028 0.11849
 O132 O 0.41944 0.49787 0.06337
 C133 C 0.42561 0.38842 0.10767
 O134 O 0.55009 0.62284 0.14920
 O135 O 0.57962 0.49955 0.05647
 C136 C 0.57657 0.56040 0.12071
 O137 O 0.46350 0.71819 0.17421
 O138 O 0.42428 0.69308 0.09473
 C139 C 0.43427 0.72786 0.15900
 O140 O 0.54003 0.18212 0.09403
 O141 O 0.57411 0.28804 0.03168
 C142 C 0.56807 0.19127 0.07592
 Zr143 Zr 0.49676 0.32420 0.07011
 O144 O 0.50275 0.24758 0.18564
 O145 O 0.48947 0.13967 0.03524
 Zr146 Zr 0.50383 0.64119 0.10951
 O147 O 0.51086 0.60364 0.22931
 O148 O 0.50460 0.84580 0.12481
 O149 O 0.47374 0.51121 0.11040
 O150 O 0.52714 0.44042 0.09883
 O151 O 0.53235 0.31729 -0.17570
 O152 O 0.57098 0.35438 -0.09791
 C153 C 0.56147 0.30921 -0.15957
 O154 O 0.45332 0.85653 -0.11328
 O155 O 0.41981 0.76368 -0.04010
 C156 C 0.42537 0.85029 -0.09200
 O157 O 0.54175 0.75445 -0.11882
 O158 O 0.57538 0.56023 -0.06891
 C159 C 0.56947 0.67444 -0.10902
 O160 O 0.44588 0.45595 -0.16566
 O161 O 0.41563 0.56426 -0.06931
 C162 C 0.41918 0.51393 -0.13663
 Zr163 Zr 0.49124 0.41389 -0.11753
 O164 O 0.48912 0.43738 -0.23871
 O165 O 0.48387 0.21691 -0.12815
 Zr166 Zr 0.49775 0.73183 -0.07815
 O167 O 0.49723 0.80399 -0.19414
 O168 O 0.49917 0.92699 -0.04543
 Zr169 Zr 0.45125 0.58934 0.00551
 Zr170 Zr 0.54344 0.46630 -0.01322
 O171 O 0.52046 0.54509 -0.11753
 O172 O 0.46708 0.61575 -0.10736
 O173 O 0.52167 0.30697 -0.03230
 O174 O 0.47369 0.74610 0.02434
 O175 O 0.46592 0.38364 -0.02133
 O176 O 0.52935 0.67300 0.01305
 H177 H 0.54163 0.40068 0.14177
 H178 H 0.46027 0.83595 0.03647
 H179 H 0.53210 0.55102 -0.16577
 H180 H 0.44952 0.33334 -0.02797
 H181 H 0.52546 0.85686 0.10940
 H182 H 0.52069 0.92179 -0.02744
 H183 H 0.48564 0.75054 -0.22341
 H184 H 0.48964 0.53267 -0.25171
 H185 H 0.50461 0.15212 -0.12594
 H186 H 0.48576 0.08944 0.08299
 H187 H 0.49262 0.32289 0.21804
 H188 H 0.50253 0.52380 0.24333
 C189 C 0.36544 0.16262 0.38626
 C190 C 0.33551 0.24806 0.37510
 C191 C 0.32801 0.32618 0.30623
 C192 C 0.35110 0.32777 0.25123
 C193 C 0.38167 0.24628 0.26432
 C194 C 0.38833 0.16062 0.33079
 C195 C 0.40555 0.25876 0.21356
 C196 C 0.39953 0.35533 0.15143
 C197 C 0.36872 0.43061 0.13671
 C198 C 0.34467 0.41626 0.18595
 H199 H 0.30496 0.39351 0.29833
 H200 H 0.41161 0.09764 0.34171
 H201 H 0.42917 0.19983 0.22548
 H202 H 0.32136 0.47896 0.17493
 H203 H 0.37139 0.10186 0.43941
 H204 H 0.36336 0.50458 0.08865
 C205 C -0.19090 0.88187 0.29836
 C206 C -0.18439 0.92731 0.37065
 C207 C -0.16342 1.01173 0.37340
 C208 C -0.14619 1.03431 0.30897
 C209 C -0.15054 0.97620 0.23890
 C210 C -0.17402 0.90581 0.23327
 C211 C -0.12965 0.97984 0.17830
 C212 C -0.10421 1.03713 0.18911
 C213 C -0.10176 1.10475 0.25632
 C214 C -0.12277 1.10443 0.31569
 H215 H -0.15925 1.05517 0.42678
 H216 H -0.17794 0.86152 0.17991
 H217 H -0.13142 0.92745 0.12627
 H218 H -0.11931 1.15058 0.36876
 H219 H -0.20672 0.81636 0.29271
 H220 H -0.08238 1.15097 0.26460
 C221 C 0.68842 0.69911 0.28387
 C222 C 0.68653 0.61971 0.35134
 C223 C 0.66790 0.52571 0.35093
 C224 C 0.64869 0.52140 0.28790
 C225 C 0.64855 0.60994 0.22251
 C226 C 0.66961 0.69405 0.21973
 C227 C 0.62603 0.61847 0.16396
 C228 C 0.60391 0.53973 0.17147
 C229 C 0.60563 0.44665 0.23435
 C230 C 0.62783 0.43729 0.29206
 H231 H 0.66628 0.46418 0.40252
 H232 H 0.67016 0.76172 0.16993
 H233 H 0.62456 0.69084 0.11545
 H234 H 0.62769 0.36877 0.34162
 H235 H 0.70262 0.77246 0.28275
 H236 H 0.58881 0.38477 0.24035
 C237 C 0.13422 1.31366 0.37746
 C238 C 0.16475 1.23604 0.36688
 C239 C 0.17270 1.17529 0.29646
 C240 C 0.14966 1.18326 0.23945
 C241 C 0.11871 1.25799 0.25187
 C242 C 0.11153 1.32667 0.32000
 C243 C 0.09499 1.25429 0.19889
 C244 C 0.10143 1.17118 0.13554
 C245 C 0.13253 1.10290 0.12169
 C246 C 0.15648 1.11035 0.17259
 H247 H 0.19615 1.11403 0.28844
 H248 H 0.08800 1.38475 0.33052
 H249 H 0.07111 1.30650 0.21078
 H250 H 0.18004 1.05291 0.16183
 H251 H 0.12772 1.36118 0.43142
 H252 H 0.13816 1.03880 0.07313
 C253 C 0.67233 0.34056 -0.36878
 C254 C 0.66676 0.25689 -0.42769
 C255 C 0.64188 0.19198 -0.41580
 C256 C 0.62310 0.21318 -0.35019
 C257 C 0.63002 0.29307 -0.29191
 C258 C 0.65478 0.35535 -0.30161
 C259 C 0.61121 0.31447 -0.22642
 C260 C 0.58464 0.26129 -0.21981
 C261 C 0.57789 0.18192 -0.27838
 C262 C 0.59696 0.15811 -0.34286
 H263 H 0.63693 0.12186 -0.45589
 H264 H 0.66013 0.41883 -0.25791
 H265 H 0.61616 0.37963 -0.18301
 H266 H 0.59050 0.10171 -0.38872
 H267 H 0.68953 0.39968 -0.37341
 H268 H 0.55725 0.14205 -0.27556
 C269 C 0.19308 0.61583 -0.21409
 C270 C 0.18630 0.54949 -0.27941
 C271 C 0.16254 0.47660 -0.27106
 C272 C 0.14372 0.48615 -0.20511
 C273 C 0.14984 0.56118 -0.14365
 C274 C 0.17538 0.62010 -0.14730
 C275 C 0.12874 0.58731 -0.08270
 C276 C 0.09989 0.55050 -0.08550
 C277 C 0.09532 0.46507 -0.14345
 C278 C 0.11739 0.43091 -0.20195
 H279 H 0.15748 0.41560 -0.31619
 H280 H 0.18031 0.67867 -0.10048
 H281 H 0.13315 0.65163 -0.03818
 H282 H 0.11249 0.37093 -0.24810
 H283 H 0.21028 0.67546 -0.21507
 H284 H 0.07360 0.43405 -0.14729
 C285 C 0.30137 0.86771 -0.23898
 C286 C 0.30823 0.91822 -0.31265
 C287 C 0.33192 0.99148 -0.31629
 C288 C 0.35177 0.98958 -0.25311
 C289 C 0.34624 0.92558 -0.18282
 C290 C 0.31992 0.87289 -0.17508
 C291 C 0.36871 0.90209 -0.12400
 C292 C 0.39800 0.93089 -0.13690
 C293 C 0.40203 1.00757 -0.20393
 C294 C 0.37877 1.03899 -0.26110
 H295 H 0.33651 1.04419 -0.36871
 H296 H 0.31524 0.82423 -0.12109
 H297 H 0.36483 0.84515 -0.07218
 H298 H 0.38318 1.09084 -0.31427
 H299 H 0.28376 0.81123 -0.23010
 H300 H 0.42408 1.03325 -0.21517
 C301 C -0.17169 1.17374 -0.37968
 C302 C -0.16766 1.27265 -0.43611
 C303 C -0.14288 1.33599 -0.42666
 C304 C -0.12222 1.29823 -0.36415
 C305 C -0.12783 1.20494 -0.30636
 C306 C -0.15273 1.14423 -0.31440
 C307 C -0.10773 1.16970 -0.24289
 C308 C -0.08111 1.22112 -0.23838
 C309 C -0.07500 1.31039 -0.29714
 C310 C -0.09557 1.34943 -0.35939
 H311 H -0.13927 1.41405 -0.46775
 H312 H -0.15700 1.07079 -0.27127
 H313 H -0.11200 1.09736 -0.19883
 H314 H -0.09020 1.41664 -0.40477
 H315 H -0.18910 1.11613 -0.38561
 H316 H -0.05426 1.34932 -0.29502
 C317 C 0.63182 0.81886 -0.40353
 C318 C 0.66273 0.75435 -0.38224
 C319 C 0.66960 0.70874 -0.30532
 C320 C 0.64534 0.71831 -0.25180
 C321 C 0.61417 0.77677 -0.27545
 C322 C 0.60776 0.82836 -0.35096
 C323 C 0.58961 0.77474 -0.22496
 C324 C 0.59553 0.70808 -0.15226
 C325 C 0.62657 0.65476 -0.12768
 C326 C 0.65134 0.66194 -0.17663
 H327 H 0.69331 0.65775 -0.28860
 H328 H 0.58398 0.87232 -0.37009
 H329 H 0.56575 0.81470 -0.24487
 H330 H 0.67502 0.61640 -0.15726
 H331 H 0.62607 0.85773 -0.46206
 H332 H 0.63160 0.60277 -0.07170
 C333 C 0.19251 1.12630 -0.29262
 C334 C 0.18683 1.07290 -0.36320
 C335 C 0.16786 0.97977 -0.36332
 C336 C 0.15143 0.95580 -0.29759
 C337 C 0.15430 1.02371 -0.22984
 C338 C 0.17610 1.10301 -0.22680
 C339 C 0.13358 1.01992 -0.16902
 C340 C 0.10998 0.95099 -0.17688
 C341 C 0.10928 0.87312 -0.24097
 C342 C 0.13012 0.87428 -0.30079
 H343 H 0.16473 0.93026 -0.41555
 H344 H 0.17898 1.15422 -0.17509
 H345 H 0.13397 1.08003 -0.11933
 H346 H 0.12813 0.81900 -0.35154
 H347 H 0.20709 1.19768 -0.28937
 H348 H 0.09133 0.81781 -0.24668
 C349 C 0.31106 0.33805 -0.28839
 C350 C 0.31391 0.40201 -0.36050
 C351 C 0.33151 0.50012 -0.36644
 C352 C 0.34908 0.52236 -0.30383
 C353 C 0.34849 0.44800 -0.23321
 C354 C 0.32829 0.36072 -0.22510
 C355 C 0.36980 0.45454 -0.17446
 C356 C 0.39191 0.53166 -0.18713
 C357 C 0.39081 0.61226 -0.25521
 C358 C 0.36927 0.60906 -0.31290
 H359 H 0.33345 0.55159 -0.42153
 H360 H 0.32723 0.30387 -0.17128
 H361 H 0.37086 0.39176 -0.12191
 H362 H 0.36967 0.66810 -0.36627
 H363 H 0.29731 0.26319 -0.28224
 H364 H 0.40765 0.67308 -0.26509
 C365 C -0.13125 0.68443 -0.38014
 C366 C -0.16228 0.74860 -0.36319
 C367 C -0.16938 0.79575 -0.28904
 C368 C -0.14521 0.78790 -0.23467
 C369 C -0.11392 0.72865 -0.25424
 C370 C -0.10736 0.67421 -0.32633
 C371 C -0.08943 0.73314 -0.20380
 C372 C -0.09553 0.80224 -0.13538
 C373 C -0.12675 0.85636 -0.11481
 C374 C -0.15137 0.84733 -0.16337
 H375 H -0.19313 0.84762 -0.27589
 H376 H -0.08353 0.62935 -0.34248
 H377 H -0.06549 0.69239 -0.22081
 H378 H -0.17511 0.89357 -0.14708
 H379 H -0.12527 0.64766 -0.43691
 H380 H -0.13207 0.90999 -0.06227
 C381 C 0.31189 0.77134 0.34365
 C382 C 0.32405 0.79161 0.41576
 C383 C 0.35530 0.80137 0.41964
 C384 C 0.37359 0.79523 0.35353
 C385 C 0.36136 0.77240 0.28192
 C386 C 0.33043 0.76033 0.27768
 C387 C 0.38058 0.75849 0.21661
 C388 C 0.41183 0.76801 0.22238
 C389 C 0.42297 0.79777 0.29360
 C390 C 0.40420 0.80983 0.35847
 H391 H 0.36594 0.81100 0.47432
 H392 H 0.32052 0.74282 0.22333
 H393 H 0.37157 0.73518 0.16239
 H394 H 0.41382 0.82898 0.41287
 H395 H 0.28793 0.76489 0.33779
 H396 H 0.44676 0.80651 0.30022
 C397 C -0.19097 1.35382 0.21607
 C398 C -0.18276 1.40357 0.28549
 C399 C -0.15815 1.47126 0.28337
 C400 C -0.13916 1.46841 0.21843
 C401 C -0.14592 1.40526 0.15249
 C402 C -0.17281 1.35525 0.15040
 C403 C -0.12413 1.38025 0.09304
 C404 C -0.09448 1.40747 0.10146
 C405 C -0.08944 1.48402 0.16332
 C406 C -0.11186 1.51605 0.22088
 H407 H -0.15248 1.51979 0.33366
 H408 H -0.17841 1.30705 0.09990
 H409 H -0.12880 1.32344 0.04512
 H410 H -0.10654 1.56705 0.27057
 H411 H -0.20941 1.30084 0.21348
 H412 H -0.06711 1.50836 0.17102
 C413 C 0.68907 0.17025 0.22852
 C414 C 0.68147 0.11687 0.30024
 C415 C 0.65808 0.04343 0.30269
 C416 C 0.63952 0.04237 0.23747
 C417 C 0.64611 0.10556 0.16758
 C418 C 0.67201 0.16184 0.16261
 C419 C 0.62463 0.12736 0.10673
 C420 C 0.59503 0.10121 0.11782
 C421 C 0.59019 0.02323 0.18366
 C422 C 0.61261 -0.00800 0.24275
 H423 H 0.65258 -0.00316 0.35652
 H424 H 0.67731 0.21091 0.10932
 H425 H 0.62913 0.18415 0.05539
 H426 H 0.60743 -0.05924 0.29538
 H427 H 0.70654 0.22864 0.22362
 H428 H 0.56788 -0.00115 0.19318
 C429 C 0.18828 0.58762 0.36311
 C430 C 0.17499 0.60258 0.43674
 C431 C 0.14242 0.63511 0.44310
 C432 C 0.12339 0.65675 0.37762
 C433 C 0.13677 0.64874 0.30366
 C434 C 0.16933 0.61097 0.29709
 C435 C 0.11731 0.68317 0.23817
 C436 C 0.08474 0.72344 0.24658
 C437 C 0.07196 0.72244 0.32073
 C438 C 0.09105 0.69047 0.38543
 H439 H 0.13161 0.65064 0.49891
 H440 H 0.18013 0.60226 0.24107
 H441 H 0.12745 0.68242 0.18143
 H442 H 0.08047 0.69543 0.44176
 H443 H 0.21337 0.56060 0.35653
 H444 H 0.04701 0.75245 0.32952
   
