data_POSCAR
  _audit_creation_date              2014-09-24
  _audit_creation_method            'ToBaCCo'
  _symmetry_space_group_name_H-M    'P1'
  _symmetry_Int_Tables_number       1
  _symmetry_cell_setting            triclinic
  loop_
  _symmetry_equiv_pos_as_xyz
 x,y,z
_cell_length_a 22.9779
_cell_length_b 22.7749
_cell_length_c 30.0981
_cell_angle_alpha 89.886800
_cell_angle_beta 90.179000
_cell_angle_gamma 119.863300
loop_
  _atom_site_label
  _atom_site_type_symbol
  _atom_site_fract_x
  _atom_site_fract_y
  _atom_site_fract_z
C1 C -0.03775 0.47663 1.20963
 C2 C 0.03348 0.51843 1.20956
 C3 C 0.06710 0.53578 1.25072
 C4 C 0.03433 0.51573 1.29210
 C5 C -0.03735 0.48050 1.29227
 C6 C -0.07078 0.45991 1.25103
 H7 H -0.12452 0.43001 1.25127
 H8 H 0.12083 0.56586 1.25049
 C9 C 0.52044 0.48334 1.20979
 C10 C 0.48436 0.51899 1.20985
 C11 C 0.46962 0.53758 1.25096
 C12 C 0.48415 0.51819 1.29204
 C13 C 0.52080 0.48288 1.29211
 C14 C 0.53509 0.46394 1.25082
 H15 H 0.55687 0.43164 1.25047
 H16 H 0.44734 0.56941 1.25100
 C17 C 0.48292 0.96707 1.29064
 C18 C 0.51688 1.03918 1.29088
 C19 C 0.53664 1.07291 1.24967
 C20 C 0.52116 1.03933 1.20833
 C21 C 0.48047 0.96742 1.20828
 C22 C 0.46407 0.93363 1.24942
 H23 H 0.43572 0.87932 1.24936
 H24 H 0.56503 1.12721 1.24981
 C25 C 0.96560 0.47912 0.70905
 C26 C 1.03677 0.51930 0.70886
 C27 C 1.07081 0.53548 0.74986
 C28 C 1.03796 0.51632 0.79124
 C29 C 0.96643 0.48248 0.79132
 C30 C 0.93259 0.46313 0.75028
 H31 H 0.87873 0.43486 0.75044
 H32 H 1.12466 0.56393 0.74947
 C33 C 0.52017 0.48442 0.70982
 C34 C 0.48151 0.51745 0.70977
 C35 C 0.46570 0.53533 0.75083
 C36 C 0.48206 0.51794 0.79199
 C37 C 0.52051 0.48470 0.79204
 C38 C 0.53650 0.46699 0.75097
 H39 H 0.56080 0.43707 0.75102
 H40 H 0.44142 0.56527 0.75074
 C41 C 0.47871 -0.03816 0.79129
 C42 C 0.51552 0.03401 0.79137
 C43 C 0.53033 0.06801 0.75030
 C44 C 0.51551 0.03462 0.70912
 C45 C 0.47931 -0.03729 0.70894
 C46 C 0.46436 -0.07144 0.74992
 H47 H 0.44238 -0.12561 0.74948
 H48 H 0.55284 0.12222 0.75040
 O49 O 0.42919 0.66846 0.95000
 O50 O 0.43147 0.78267 0.96156
 C51 C 0.38898 0.79074 0.93921
 O52 O 0.32701 0.76088 0.94799
 O53 O 0.21454 0.64981 0.96110
 C54 C 0.20646 0.59805 0.93996
 O55 O 0.23559 0.56521 0.95015
 O56 O 0.34613 0.56337 0.96376
 C57 C 0.39655 0.60578 0.94143
 O58 O 0.43261 0.65225 1.03882
 O59 O 0.42856 0.76335 1.05047
 C60 C 0.39501 0.79225 1.05906
 O61 O 0.34433 0.78327 1.03659
 O62 O 0.23470 0.66963 1.04977
 C63 C 0.20607 0.60754 1.05979
 O64 O 0.21512 0.56436 1.03884
 O65 O 0.32866 0.56807 1.05223
 C66 C 0.39073 0.60099 1.06093
 Cr67 Cr 0.42675 0.71481 1.00022
 Cr68 Cr 0.28203 0.71402 0.99890
 Cr69 Cr 0.28318 0.56901 1.00122
 O70 O 0.33064 0.66594 1.00014
 O71 O 0.57239 0.33312 0.95010
 O72 O 0.56835 0.21812 0.96252
 C73 C 0.61026 0.20953 0.94009
 O74 O 0.67236 0.23911 0.94860
 O75 O 0.78579 0.34903 0.96227
 C76 C 0.79441 0.40086 0.94087
 O77 O 0.76570 0.43417 0.95056
 O78 O 0.65621 0.43785 0.96400
 C79 C 0.60558 0.39579 0.94157
 O80 O 0.56962 0.35038 1.03866
 O81 O 0.57222 0.23876 1.05121
 C82 C 0.60477 0.20874 1.05976
 O83 O 0.65446 0.21617 1.03701
 O84 O 0.76491 0.32890 1.05073
 C85 C 0.79446 0.39107 1.06058
 O86 O 0.78663 0.43485 1.03922
 O87 O 0.67418 0.43310 1.05246
 C88 C 0.61209 0.40114 1.06091
 Cr89 Cr 0.57428 0.28687 1.00062
 Cr90 Cr 0.71759 0.28520 0.99967
 Cr91 Cr 0.71886 0.43130 1.00153
 O92 O 0.67026 0.33450 1.00060
 O93 O 0.67308 0.43397 0.55128
 O94 O 0.78465 0.43399 0.53808
 C95 C 0.79262 0.39012 0.55922
 O96 O 0.76264 0.32785 0.54942
 O97 O 0.65077 0.21551 0.53650
 C98 C 0.60131 0.20863 0.55935
 O99 O 0.56948 0.23942 0.55093
 O100 O 0.56817 0.35159 0.53826
 C101 C 0.61115 0.40233 0.56024
 O102 O 0.65510 0.43801 0.46255
 O103 O 0.76402 0.43316 0.44942
 C104 C 0.79209 0.39927 0.43962
 O105 O 0.78230 0.34676 0.46073
 O106 O 0.66767 0.23747 0.44779
 C107 C 0.60555 0.20902 0.43936
 O108 O 0.56436 0.21810 0.46225
 O109 O 0.56988 0.33362 0.44965
 C110 C 0.60401 0.39600 0.44043
 Cr111 Cr 0.71729 0.43104 0.50033
 Cr112 Cr 0.71406 0.28382 0.49865
 Cr113 Cr 0.57167 0.28747 0.50026
 O114 O 0.66775 0.33418 0.49976
 O115 O 0.32658 0.56618 0.55115
 O116 O 0.21445 0.56473 0.53696
 C117 C 0.20651 0.60841 0.55820
 O118 O 0.23615 0.67070 0.54847
 O119 O 0.34717 0.78358 0.53525
 C120 C 0.39627 0.79041 0.55870
 O121 O 0.42837 0.75982 0.55083
 O122 O 0.43126 0.64859 0.53787
 C123 C 0.38858 0.59800 0.56003
 O124 O 0.34543 0.56229 0.46270
 O125 O 0.23584 0.56578 0.44855
 C126 C 0.20682 0.59884 0.43878
 O127 O 0.21582 0.65095 0.45993
 O128 O 0.32982 0.76073 0.44669
 C129 C 0.39212 0.79038 0.43894
 O130 O 0.43359 0.78218 0.46234
 O131 O 0.42932 0.66728 0.44943
 C132 C 0.39611 0.60474 0.44055
 Cr133 Cr 0.28242 0.56841 0.49982
 Cr134 Cr 0.28401 0.71463 0.49763
 Cr135 Cr 0.42701 0.71269 0.50008
 O136 O 0.33106 0.66516 0.49916
 C137 C 0.44950 0.62155 0.35987
 C138 C 0.50418 0.60092 0.36143
 C139 C 0.45928 0.53768 0.33334
 C140 C 0.40433 0.55843 0.33161
 C141 C 0.42679 0.49582 0.37563
 C142 C 0.47221 0.55918 0.40426
 C143 C 0.41820 0.57979 0.40210
 C144 C 0.37258 0.51712 0.37419
 H145 H 0.45840 0.67343 0.35351
 H146 H 0.55837 0.63658 0.35588
 H147 H 0.37337 0.55762 0.30299
 H148 H 0.41279 0.44284 0.38289
 H149 H 0.49986 0.55980 0.43473
 H150 H 0.31803 0.48296 0.37962
 C151 C 0.48043 0.85346 0.37328
 C152 C 0.44048 0.84551 0.33028
 C153 C 0.46252 0.92201 0.33191
 C154 C 0.50297 0.92974 0.37464
 C155 C 0.39967 0.90529 0.35942
 C156 C 0.37777 0.82921 0.35793
 C157 C 0.41811 0.83796 0.40056
 C158 C 0.44000 0.91338 0.40267
 H159 H 0.51334 0.83140 0.37913
 H160 H 0.44103 0.81457 0.30203
 H161 H 0.55558 0.96779 0.38228
 H162 H 0.36523 0.92549 0.35343
 H163 H 0.32611 0.78737 0.35110
 H164 H 0.43942 0.94068 0.43303
 C165 C 0.16989 0.61715 0.35815
 C166 C 0.15181 0.55381 0.32984
 C167 C 0.07655 0.53406 0.33133
 C168 C 0.09505 0.59753 0.35944
 C169 C 0.06724 0.49195 0.37364
 C170 C 0.14220 0.51224 0.37239
 C171 C 0.15955 0.57518 0.40032
 C172 C 0.08542 0.55551 0.40232
 H173 H 0.21266 0.66875 0.35194
 H174 H 0.18215 0.55246 0.30166
 H175 H 0.07682 0.63386 0.35387
 H176 H 0.02870 0.43918 0.38108
 H177 H 0.16217 0.47730 0.37776
 H178 H 0.05883 0.55662 0.43276
 C179 C 0.55215 0.37962 0.35902
 C180 C 0.49768 0.40065 0.35948
 C181 C 0.54346 0.46382 0.33162
 C182 C 0.59822 0.44271 0.33098
 C183 C 0.57520 0.50559 0.37411
 C184 C 0.52900 0.44225 0.40253
 C185 C 0.58276 0.42125 0.40143
 C186 C 0.62916 0.48390 0.37377
 H187 H 0.54310 0.32765 0.35293
 H188 H 0.44349 0.36540 0.35340
 H189 H 0.62994 0.44337 0.30304
 H190 H 0.58930 0.55857 0.38133
 H191 H 0.50103 0.44169 0.43267
 H192 H 0.68362 0.51785 0.37982
 C193 C 0.55761 0.08681 0.40148
 C194 C 0.49485 0.07135 0.37319
 C195 C 0.53572 0.08067 0.33056
 C196 C 0.59829 0.09631 0.35831
 C197 C 0.55774 0.15726 0.33010
 C198 C 0.51744 0.14771 0.37300
 C199 C 0.57953 0.16229 0.40048
 C200 C 0.62022 0.17248 0.35795
 H201 H 0.55796 0.05868 0.43154
 H202 H 0.44220 0.03330 0.38050
 H203 H 0.63256 0.07601 0.35213
 H204 H 0.55740 0.18952 0.30254
 H205 H 0.48445 0.16953 0.37919
 H206 H 0.67193 0.21452 0.35170
 C207 C 0.91315 0.44188 0.40284
 C208 C 0.90279 0.39944 0.36013
 C209 C 0.92104 0.46269 0.33171
 C210 C 0.93107 0.50521 0.37386
 C211 C 0.84580 0.44311 0.33043
 C212 C 0.82796 0.38001 0.35903
 C213 C 0.83902 0.42238 0.40104
 C214 C 0.85615 0.48510 0.37280
 H215 H 0.94020 0.44098 0.43323
 H216 H 0.92079 0.36294 0.35472
 H217 H 0.96971 0.55804 0.38108
 H218 H 0.81506 0.44431 0.30230
 H219 H 0.78506 0.32840 0.35304
 H220 H 0.83642 0.52023 0.37801
 C221 C 0.63241 0.48636 1.12788
 C222 C 0.57789 0.50722 1.12648
 C223 C 0.54494 0.46415 1.16825
 C224 C 0.60008 0.44370 1.16985
 C225 C 0.50069 0.40165 1.13935
 C226 C 0.53334 0.44464 1.09702
 C227 C 0.58766 0.42431 1.09915
 C228 C 0.55565 0.38131 1.14076
 H229 H 0.68701 0.52109 1.12313
 H230 H 0.59090 0.56008 1.11975
 H231 H 0.63069 0.44381 1.19847
 H232 H 0.44644 0.36570 1.14437
 H233 H 0.50611 0.44467 1.06650
 H234 H 0.54688 0.32938 1.14649
 C235 C 0.82929 0.44498 1.14152
 C236 C 0.84510 0.39842 1.17027
 C237 C 0.92077 0.45326 1.17006
 C238 C 0.90452 0.49960 1.14150
 C239 C 0.93110 0.42103 1.12797
 C240 C 0.85577 0.36693 1.12798
 C241 C 0.84059 0.41378 1.09963
 C242 C 0.91507 0.46768 1.09886
 H243 H 0.78691 0.45452 1.14687
 H244 H 0.81255 0.36595 1.19755
 H245 H 0.92324 0.55422 1.14742
 H246 H 0.96941 0.40642 1.12125
 H247 H 0.83518 0.31191 1.12236
 H248 H 0.94276 0.49578 1.06875
 C249 C 0.55328 0.17361 1.14098
 C250 C 0.49874 0.09792 1.14071
 C251 C 0.54462 0.08092 1.16878
 C252 C 0.59949 0.15706 1.16916
 C253 C 0.57589 0.07041 1.12637
 C254 C 0.52964 0.08723 1.09776
 C255 C 0.58347 0.16220 1.09869
 C256 C 0.62998 0.14632 1.12648
 H257 H 0.54424 0.21647 1.14694
 H258 H 0.44465 0.07903 1.14679
 H259 H 0.63202 0.18926 1.19660
 H260 H 0.58982 0.03140 1.11938
 H261 H 0.50145 0.05955 1.06762
 H262 H 0.68438 0.16693 1.12044
 C263 C 0.47015 0.55787 1.09707
 C264 C 0.50338 0.60094 1.13931
 C265 C 0.45951 0.53851 1.16836
 C266 C 0.42598 0.49536 1.12668
 C267 C 0.40443 0.55903 1.17006
 C268 C 0.44846 0.62134 1.14081
 C269 C 0.41587 0.57824 1.09929
 C270 C 0.37152 0.51627 1.12819
 H271 H 0.49698 0.55773 1.06650
 H272 H 0.55770 0.63690 1.14417
 H273 H 0.41287 0.44249 1.11999
 H274 H 0.37421 0.55906 1.19874
 H275 H 0.45735 0.67331 1.14648
 H276 H 0.31685 0.48151 1.12361
 C277 C 0.08505 0.52970 1.09695
 C278 C 0.09522 0.49787 1.13988
 C279 C 0.07767 0.54349 1.16801
 C280 C 0.06793 0.57576 1.12557
 C281 C 0.15312 0.59879 1.16903
 C282 C 0.17022 0.55298 1.14071
 C283 C 0.15937 0.58415 1.09848
 C284 C 0.14304 0.63037 1.12642
 H285 H 0.05773 0.50135 1.06676
 H286 H 0.07719 0.44338 1.14581
 H287 H 0.02943 0.58999 1.11826
 H288 H 0.18455 0.63090 1.19686
 H289 H 0.21280 0.54391 1.14676
 H290 H 0.16324 0.68536 1.12088
 C291 C 0.37023 0.85671 1.12450
 C292 C 0.40038 0.84686 1.16784
 C293 C 0.45569 0.92276 1.16679
 C294 C 0.42482 0.93238 1.12370
 C295 C 0.50116 0.90428 1.13972
 C296 C 0.44612 0.82883 1.14063
 C297 C 0.41642 0.83951 1.09766
 C298 C 0.47081 0.91431 1.09614
 H299 H 0.31592 0.83644 1.11811
 H300 H 0.36804 0.81608 1.19573
 H301 H 0.41123 0.97145 1.11585
 H302 H 0.55506 0.92258 1.14628
 H303 H 0.45460 0.78578 1.14755
 H304 H 0.49960 0.94145 1.06608
 C305 C 0.63221 0.48781 0.62749
 C306 C 0.57745 0.50837 0.62640
 C307 C 0.54496 0.46532 0.66827
 C308 C 0.60034 0.44515 0.66957
 C309 C 0.50070 0.40271 0.63944
 C310 C 0.53283 0.44568 0.59704
 C311 C 0.58741 0.42569 0.59883
 C312 C 0.55588 0.38269 0.64054
 H313 H 0.68673 0.52271 0.62253
 H314 H 0.59031 0.56118 0.61964
 H315 H 0.63129 0.44530 0.69798
 H316 H 0.44660 0.36639 0.64469
 H317 H 0.50526 0.44547 0.56664
 H318 H 0.54739 0.33085 0.64620
 C319 C 0.54625 0.17095 0.63980
 C320 C 0.49342 0.09472 0.63863
 C321 C 0.53942 0.07906 0.66763
 C322 C 0.59246 0.15564 0.66897
 C323 C 0.57339 0.07069 0.62587
 C324 C 0.52699 0.08606 0.59635
 C325 C 0.57922 0.16161 0.59814
 C326 C 0.62579 0.14708 0.62695
 H327 H 0.53535 0.21264 0.64548
 H328 H 0.43889 0.07442 0.64377
 H329 H 0.62245 0.18712 0.69746
 H330 H 0.58859 0.03253 0.61927
 H331 H 0.50029 0.05809 0.56589
 H332 H 0.68064 0.16928 0.62200
 C333 C 0.82904 0.44487 0.63986
 C334 C 0.84597 0.39912 0.66860
 C335 C 0.92140 0.45420 0.66754
 C336 C 0.90411 0.49977 0.63900
 C337 C 0.93094 0.42146 0.62542
 C338 C 0.85575 0.36698 0.62627
 C339 C 0.83954 0.41311 0.59792
 C340 C 0.91394 0.46740 0.59638
 H341 H 0.78660 0.45417 0.64561
 H342 H 0.81494 0.36769 0.69673
 H343 H 0.92266 0.55442 0.64461
 H344 H 0.96978 0.40762 0.61852
 H345 H 0.83532 0.31191 0.62098
 H346 H 0.94118 0.49530 0.56609
 C347 C 0.44485 0.61840 0.64013
 C348 C 0.40077 0.55620 0.66944
 C349 C 0.45614 0.53606 0.66819
 C350 C 0.50003 0.59840 0.63909
 C351 C 0.42312 0.49260 0.62654
 C352 C 0.36836 0.51315 0.62757
 C353 C 0.41279 0.57500 0.59865
 C354 C 0.46735 0.55502 0.59690
 H355 H 0.45339 0.67029 0.64555
 H356 H 0.37015 0.55628 0.69784
 H357 H 0.55420 0.63474 0.64418
 H358 H 0.41017 0.43974 0.62003
 H359 H 0.31377 0.47821 0.62276
 H360 H 0.49449 0.55498 0.56647
 C361 C 0.37050 0.85156 0.62553
 C362 C 0.40275 0.84243 0.66807
 C363 C 0.45602 0.91894 0.66722
 C364 C 0.42311 0.92789 0.62493
 C365 C 0.50253 0.90336 0.63900
 C366 C 0.44948 0.82720 0.63969
 C367 C 0.41759 0.83711 0.59752
 C368 C 0.47003 0.91261 0.59619
 H369 H 0.31579 0.82956 0.61981
 H370 H 0.37202 0.81081 0.69624
 H371 H 0.40810 0.96614 0.61793
 H372 H 0.55691 0.92352 0.64488
 H373 H 0.46005 0.78532 0.64571
 H374 H 0.49747 0.94080 0.56603
 C375 C 0.08582 0.53088 0.59585
 C376 C 0.09665 0.49862 0.63831
 C377 C 0.07994 0.54420 0.66708
 C378 C 0.06939 0.57681 0.62513
 C379 C 0.15536 0.59936 0.66770
 C380 C 0.17170 0.55359 0.63875
 C381 C 0.16021 0.58523 0.59699
 C382 C 0.14456 0.63136 0.62555
 H383 H 0.05798 0.50293 0.56568
 H384 H 0.07825 0.44399 0.64394
 H385 H 0.03041 0.59064 0.61855
 H386 H 0.18707 0.63096 0.69561
 H387 H 0.21433 0.54439 0.64414
 H388 H 0.16480 0.68641 0.62023
 C389 C 0.44977 0.62230 0.86065
 C390 C 0.50387 0.60081 0.86169
 C391 C 0.45811 0.53790 0.83356
 C392 C 0.40379 0.55949 0.83239
 C393 C 0.42591 0.49607 0.87592
 C394 C 0.47205 0.55915 0.90458
 C395 C 0.41857 0.58058 0.90291
 C396 C 0.37223 0.51814 0.87500
 H397 H 0.45934 0.67440 0.85441
 H398 H 0.55812 0.63591 0.85592
 H399 H 0.37254 0.55933 0.80416
 H400 H 0.41209 0.44306 0.88299
 H401 H 0.49983 0.55935 0.93487
 H402 H 0.31766 0.48437 0.88063
 C403 C 0.17150 0.61767 0.85901
 C404 C 0.15509 0.55530 0.83011
 C405 C 0.07957 0.53454 0.83072
 C406 C 0.09637 0.59707 0.85939
 C407 C 0.06947 0.49154 0.87270
 C408 C 0.14470 0.51277 0.87233
 C409 C 0.16039 0.57474 0.90084
 C410 C 0.08599 0.55415 0.90192
 H411 H 0.21403 0.66970 0.85360
 H412 H 0.18664 0.55534 0.80226
 H413 H 0.07776 0.63307 0.85376
 H414 H 0.03107 0.43847 0.87945
 H415 H 0.16513 0.47822 0.87772
 H416 H 0.05847 0.55423 0.93214
 C417 C 0.44484 0.82656 0.85884
 C418 C 0.40015 0.84399 0.82961
 C419 C 0.45535 0.91995 0.83072
 C420 C 0.49983 0.90217 0.85972
 C421 C 0.42264 0.93026 0.87243
 C422 C 0.36818 0.85458 0.87155
 C423 C 0.41316 0.83780 0.90041
 C424 C 0.46744 0.91271 0.90201
 H425 H 0.45358 0.78339 0.85340
 H426 H 0.36901 0.81275 0.80138
 H427 H 0.55402 0.92054 0.85458
 H428 H 0.40903 0.96957 0.87910
 H429 H 0.31362 0.83448 0.87644
 H430 H 0.49479 0.94020 0.93243
 C431 C 0.55299 0.38017 0.86055
 C432 C 0.49874 0.40142 0.86141
 C433 C 0.54454 0.46472 0.83365
 C434 C 0.59902 0.44337 0.83267
 C435 C 0.57641 0.50608 0.87624
 C436 C 0.53023 0.44261 0.90452
 C437 C 0.58386 0.42141 0.90303
 C438 C 0.63025 0.48424 0.87551
 H439 H 0.54365 0.32820 0.85416
 H440 H 0.44453 0.36634 0.85531
 H441 H 0.63048 0.44404 0.80456
 H442 H 0.59016 0.55898 0.88352
 H443 H 0.50223 0.44193 0.93469
 H444 H 0.68476 0.51804 0.88148
 C445 C 0.91503 0.44380 0.90398
 C446 C 0.90477 0.40088 0.86159
 C447 C 0.92248 0.46363 0.83278
 C448 C 0.93229 0.50656 0.87465
 C449 C 0.84716 0.44341 0.83140
 C450 C 0.82985 0.38087 0.86044
 C451 C 0.84080 0.42380 0.90215
 C452 C 0.85727 0.48593 0.87349
 H453 H 0.94231 0.44346 0.93440
 H454 H 0.92280 0.36439 0.85633
 H455 H 0.97092 0.55955 0.88150
 H456 H 0.81641 0.44372 0.80301
 H457 H 0.78712 0.32899 0.85482
 H458 H 0.83715 0.52079 0.87845
 C459 C 0.55283 0.17276 0.86012
 C460 C 0.59650 0.15425 0.83095
 C461 C 0.54100 0.07851 0.83278
 C462 C 0.49751 0.09738 0.86172
 C463 C 0.57439 0.06876 0.87452
 C464 C 0.62919 0.14423 0.87290
 C465 C 0.58512 0.16196 0.90170
 C466 C 0.53048 0.08724 0.90401
 H467 H 0.54436 0.21608 0.85435
 H468 H 0.62691 0.18456 0.80227
 H469 H 0.44335 0.07952 0.85680
 H470 H 0.58774 0.02927 0.88142
 H471 H 0.68380 0.16406 0.87751
 H472 H 0.50348 0.06024 0.93459
   
