data_POSCAR
  _audit_creation_date              2014-09-24
  _audit_creation_method            'ToBaCCo'
  _symmetry_space_group_name_H-M    'P1'
  _symmetry_Int_Tables_number       1
  _symmetry_cell_setting            triclinic
  loop_
  _symmetry_equiv_pos_as_xyz
 x,y,z
_cell_length_a 52.9370
_cell_length_b 52.9152
_cell_length_c 37.0634
_cell_angle_alpha 90.094400
_cell_angle_beta 89.969700
_cell_angle_gamma 90.006100
loop_
  _atom_site_label
  _atom_site_type_symbol
  _atom_site_fract_x
  _atom_site_fract_y
  _atom_site_fract_z
O1 O 0.02436 0.29729 -0.02260
 O2 O -0.02571 0.29425 0.04687
 O3 O 0.02393 0.29473 0.04724
 O4 O -0.02560 0.29697 -0.02291
 O5 O -0.02491 0.25534 -0.02614
 O6 O 0.02396 0.25311 0.04369
 O7 O -0.02502 0.25268 0.04333
 O8 O 0.02424 0.25566 -0.02587
 Cu9 Cu -0.00078 0.30003 0.01239
 Cu10 Cu -0.00039 0.25007 0.00835
 C11 C 0.03317 0.27685 -0.03557
 C12 C -0.03419 0.27282 0.05665
 C13 C 0.03258 0.27343 0.05713
 C14 C -0.03408 0.27640 -0.03592
 O15 O 0.47532 0.78612 0.49649
 O16 O 0.52502 0.77868 0.42714
 O17 O 0.47549 0.77878 0.42706
 O18 O 0.52507 0.78600 0.49658
 O19 O 0.52467 0.74477 0.50513
 O20 O 0.47563 0.73757 0.43589
 O21 O 0.52468 0.73747 0.43599
 O22 O 0.47549 0.74488 0.50504
 Cu23 Cu 0.50023 0.78656 0.46099
 Cu24 Cu 0.50011 0.73709 0.47143
 C25 C 0.46671 0.76663 0.51233
 C26 C 0.53346 0.75675 0.41992
 C27 C 0.46698 0.75688 0.41980
 C28 C 0.53354 0.76648 0.51245
 O29 O 1.02602 0.71175 -0.00375
 O30 O 0.97620 0.71848 -0.07301
 O31 O 1.02567 0.71902 -0.07316
 O32 O 0.97624 0.71121 -0.00352
 O33 O 0.97614 0.75245 0.00516
 O34 O 1.02499 0.76019 -0.06421
 O35 O 0.97603 0.75969 -0.06400
 O36 O 1.02532 0.75295 0.00486
 Cu37 Cu 1.00106 0.71095 -0.03917
 Cu38 Cu 1.00056 0.76039 -0.02859
 C39 C 1.03448 0.73135 0.01210
 C40 C 0.96755 0.74031 -0.08021
 C41 C 1.03393 0.74101 -0.08047
 C42 C 0.96755 0.73064 0.01245
 O43 O 0.47500 0.21625 0.47576
 O44 O 0.52426 0.21754 0.54633
 O45 O 0.47500 0.21758 0.54608
 O46 O 0.52466 0.21621 0.47601
 O47 O 0.52444 0.25787 0.47458
 O48 O 0.47527 0.25925 0.54433
 O49 O 0.52408 0.25921 0.54458
 O50 O 0.47532 0.25791 0.47431
 Cu51 Cu 0.49973 0.21268 0.51107
 Cu52 Cu 0.49978 0.26270 0.50918
 C53 C 0.46658 0.23695 0.46322
 C54 C 0.53252 0.23869 0.55758
 C55 C 0.46672 0.23875 0.55725
 C56 C 0.53320 0.23689 0.46357
 O57 O 0.71684 0.02360 -0.01916
 O58 O 0.71989 -0.02839 0.04742
 O59 O 0.71971 0.02114 0.05104
 O60 O 0.71569 -0.02590 -0.02235
 O61 O 0.75727 -0.02613 -0.02630
 O62 O 0.76125 0.02093 0.04650
 O63 O 0.76140 -0.02808 0.04323
 O64 O 0.75839 0.02287 -0.02338
 Cu65 Cu 0.71384 -0.00232 0.01469
 Cu66 Cu 0.76370 -0.00259 0.00960
 C67 C 0.73725 0.03212 -0.03260
 C68 C 0.74130 -0.03732 0.05646
 C69 C 0.74118 0.02919 0.06118
 C70 C 0.73586 -0.03426 -0.03662
 O71 O 0.20721 0.52391 0.47591
 O72 O 0.20964 0.47630 0.54856
 O73 O 0.21118 0.52593 0.54596
 O74 O 0.20675 0.47419 0.47893
 O75 O 0.24832 0.47388 0.47472
 O76 O 0.25272 0.52452 0.54187
 O77 O 0.25119 0.47545 0.54415
 O78 O 0.24878 0.52294 0.47217
 Cu79 Cu 0.20449 0.50026 0.51274
 Cu80 Cu 0.25437 0.49917 0.50782
 C81 C 0.22766 0.53172 0.46183
 C82 C 0.23086 0.46739 0.55826
 C83 C 0.23283 0.53413 0.55519
 C84 C 0.22696 0.46495 0.46583
 O85 O 0.27989 1.02332 0.04898
 O86 O 0.28387 0.97604 -0.02414
 O87 O 0.28199 1.02558 -0.02123
 O88 O 0.28051 0.97380 0.04579
 O89 O 0.23891 0.97342 0.04255
 O90 O 0.24046 1.02420 -0.02448
 O91 O 0.24227 0.97516 -0.02713
 O92 O 0.23835 1.02243 0.04542
 Cu93 Cu 0.28575 0.99980 0.01268
 Cu94 Cu 0.23588 0.99873 0.00875
 C95 C 0.25842 1.03115 0.05960
 C96 C 0.26368 0.96732 -0.03789
 C97 C 0.26134 1.03386 -0.03422
 C98 C 0.25932 0.96467 0.05540
 O99 O 0.78904 0.52510 0.54712
 O100 O 0.79379 0.47358 0.47983
 O101 O 0.79328 0.52330 0.47708
 O102 O 0.79056 0.47547 0.54944
 O103 O 0.74903 0.47461 0.54470
 O104 O 0.75173 0.52230 0.47304
 O105 O 0.75224 0.47325 0.47530
 O106 O 0.74751 0.52367 0.54271
 Cu107 Cu 0.79587 0.49954 0.51380
 Cu108 Cu 0.74601 0.49843 0.50850
 C109 C 0.76734 0.53325 0.55624
 C110 C 0.77365 0.46437 0.46652
 C111 C 0.77288 0.53112 0.46289
 C112 C 0.76929 0.46653 0.55893
 C113 C 0.20996 0.21096 0.20171
 C114 C 0.23057 0.19950 0.21846
 C115 C 0.24398 0.21247 0.24533
 C116 C 0.23757 0.23766 0.25455
 C117 C 0.21705 0.24907 0.23632
 C118 C 0.20302 0.23555 0.21083
 C119 C 0.25212 0.25202 0.28271
 C120 C 0.24107 0.27279 0.30097
 C121 C 0.25498 0.28694 0.32591
 C122 C 0.27960 0.27982 0.33455
 C123 C 0.29068 0.25897 0.31776
 C124 C 0.27731 0.24545 0.29143
 H125 H 0.19932 0.20071 0.18138
 H126 H 0.25919 0.20268 0.25882
 H127 H 0.21183 0.26850 0.24138
 H128 H 0.22169 0.27823 0.29615
 H129 H 0.29023 0.29064 0.35427
 H130 H 0.28687 0.23014 0.27775
 C131 C 0.79155 0.77257 0.16924
 C132 C 0.77091 0.78323 0.18702
 C133 C 0.75746 0.76907 0.21241
 C134 C 0.76385 0.74357 0.21925
 C135 C 0.78464 0.73300 0.20052
 C136 C 0.79863 0.74764 0.17616
 C137 C 0.74889 0.72826 0.24572
 C138 C 0.76003 0.70789 0.26458
 C139 C 0.74589 0.69379 0.28940
 C140 C 0.72085 0.70034 0.29661
 C141 C 0.70960 0.72058 0.27872
 C142 C 0.72328 0.73411 0.25285
 H143 H 0.80216 0.78373 0.14992
 H144 H 0.74219 0.77820 0.22679
 H145 H 0.78996 0.71346 0.20440
 H146 H 0.77970 0.70306 0.26061
 H147 H 0.71012 0.68975 0.31644
 H148 H 0.71376 0.74913 0.23851
 C149 C 0.79029 0.21038 0.20276
 C150 C 0.79714 0.23506 0.21162
 C151 C 0.78315 0.24859 0.23717
 C152 C 0.76278 0.23712 0.25569
 C153 C 0.75646 0.21187 0.24673
 C154 C 0.76983 0.19888 0.21983
 C155 C 0.74828 0.25148 0.28388
 C156 C 0.72309 0.24493 0.29268
 C157 C 0.70976 0.25847 0.31904
 C158 C 0.72088 0.27931 0.33579
 C159 C 0.74551 0.28639 0.32707
 C160 C 0.75937 0.27223 0.30208
 H161 H 0.80088 0.20012 0.18238
 H162 H 0.78828 0.26807 0.24206
 H163 H 0.74135 0.20206 0.26046
 H164 H 0.71351 0.22963 0.27901
 H165 H 0.71028 0.29015 0.35553
 H166 H 0.77876 0.27764 0.29715
 C167 C 0.20947 0.77327 0.16816
 C168 C 0.20236 0.74833 0.17499
 C169 C 0.21631 0.73364 0.19931
 C170 C 0.23709 0.74417 0.21809
 C171 C 0.24351 0.76968 0.21135
 C172 C 0.23010 0.78389 0.18599
 C173 C 0.25202 0.72880 0.24453
 C174 C 0.27761 0.73466 0.25175
 C175 C 0.29125 0.72109 0.27760
 C176 C 0.27997 0.70081 0.29538
 C177 C 0.25496 0.69426 0.28809
 C178 C 0.24085 0.70838 0.26329
 H179 H 0.19890 0.78448 0.14887
 H180 H 0.21097 0.71409 0.20312
 H181 H 0.25876 0.77878 0.22578
 H182 H 0.28715 0.74971 0.23749
 H183 H 0.29067 0.69020 0.31520
 H184 H 0.22119 0.70354 0.25926
 C185 C 0.71092 0.28778 0.70381
 C186 C 0.69997 0.26678 0.72021
 C187 C 0.71304 0.25370 0.74721
 C188 C 0.73797 0.26074 0.75685
 C189 C 0.74892 0.28168 0.73889
 C190 C 0.73518 0.29544 0.71337
 C191 C 0.75247 0.24644 0.78516
 C192 C 0.77349 0.25754 0.80271
 C193 C 0.78770 0.24387 0.82778
 C194 C 0.78036 0.21951 0.83747
 C195 C 0.75924 0.20840 0.82150
 C196 C 0.74574 0.22144 0.79488
 H197 H 0.70053 0.29817 0.68340
 H198 H 0.70346 0.23824 0.76040
 H199 H 0.76813 0.28750 0.74410
 H200 H 0.77914 0.27678 0.79730
 H201 H 0.79121 0.20911 0.85735
 H202 H 0.73029 0.21170 0.78185
 C203 C 0.28977 0.72485 0.66778
 C204 C 0.29693 0.74980 0.67460
 C205 C 0.28278 0.76469 0.69856
 C206 C 0.26176 0.75437 0.71699
 C207 C 0.25536 0.72882 0.71034
 C208 C 0.26893 0.71442 0.68530
 C209 C 0.24649 0.76996 0.74287
 C210 C 0.22087 0.76398 0.74973
 C211 C 0.20691 0.77764 0.77519
 C212 C 0.21784 0.79818 0.79284
 C213 C 0.24285 0.80492 0.78585
 C214 C 0.25732 0.79068 0.76149
 H215 H 0.30045 0.71351 0.64870
 H216 H 0.28815 0.78425 0.70230
 H217 H 0.23995 0.71983 0.72454
 H218 H 0.21154 0.74874 0.73556
 H219 H 0.20689 0.80884 0.81241
 H220 H 0.27696 0.79565 0.75774
 C221 C 0.28814 0.28837 0.70316
 C222 C 0.26393 0.29618 0.71280
 C223 C 0.25012 0.28249 0.73834
 C224 C 0.26093 0.26146 0.75623
 C225 C 0.28580 0.25425 0.74650
 C226 C 0.29895 0.26727 0.71950
 C227 C 0.24636 0.24723 0.78456
 C228 C 0.25288 0.22215 0.79413
 C229 C 0.23931 0.20918 0.82078
 C230 C 0.21834 0.22046 0.83693
 C231 C 0.21121 0.24492 0.82740
 C232 C 0.22549 0.25850 0.80228
 H233 H 0.29858 0.29870 0.68275
 H234 H 0.23095 0.28843 0.74364
 H235 H 0.29528 0.23871 0.75964
 H236 H 0.26821 0.21231 0.78097
 H237 H 0.20744 0.21013 0.85685
 H238 H 0.22001 0.27779 0.79697
 C239 C 0.70995 0.72390 0.66850
 C240 C 0.73073 0.71341 0.68608
 C241 C 0.74434 0.72780 0.71107
 C242 C 0.73805 0.75337 0.71763
 C243 C 0.71710 0.76377 0.69915
 C244 C 0.70291 0.74890 0.67523
 C245 C 0.75336 0.76891 0.74349
 C246 C 0.74256 0.78961 0.76216
 C247 C 0.75704 0.80378 0.78655
 C248 C 0.78204 0.79701 0.79350
 C249 C 0.79294 0.77649 0.77578
 C250 C 0.77897 0.76288 0.75030
 H251 H 0.69925 0.71258 0.64945
 H252 H 0.75970 0.71877 0.72531
 H253 H 0.71182 0.78335 0.70284
 H254 H 0.72292 0.79461 0.75844
 H255 H 0.79300 0.80763 0.81309
 H256 H 0.78827 0.74764 0.73607
 C257 C 0.27680 0.08071 0.12633
 C258 C 0.25307 0.08979 0.13678
 C259 C 0.23121 0.07854 0.12297
 C260 C 0.23297 0.05875 0.09813
 C261 C 0.25674 0.04985 0.08651
 C262 C 0.27867 0.06082 0.10151
 C263 C 0.25085 0.11194 0.15916
 C264 C 0.24792 0.13116 0.17618
 C265 C 0.24321 0.15436 0.19378
 C266 C 0.23807 0.17471 0.20649
 H267 H 0.29386 0.08939 0.13669
 H268 H 0.21273 0.08551 0.13072
 H269 H 0.21563 0.05083 0.08750
 H270 H 0.29731 0.05452 0.09343
 C271 C 0.78293 0.59105 0.61269
 C272 C 0.75879 0.59841 0.62410
 C273 C 0.73786 0.58347 0.61548
 C274 C 0.74084 0.56174 0.59452
 C275 C 0.76486 0.55463 0.58180
 C276 C 0.78599 0.56919 0.59176
 C277 C 0.75489 0.62238 0.64165
 C278 C 0.75054 0.64282 0.65462
 C279 C 0.74440 0.66709 0.66774
 C280 C 0.73845 0.68808 0.67712
 H281 H 0.79925 0.60259 0.61901
 H282 H 0.71908 0.58905 0.62400
 H283 H 0.72420 0.55090 0.58746
 H284 H 0.80470 0.56424 0.58231
 C285 C 0.72305 0.90820 0.11475
 C286 C 0.74684 0.89832 0.12322
 C287 C 0.76863 0.91069 0.11136
 C288 C 0.76676 0.93237 0.09018
 C289 C 0.74294 0.94213 0.08035
 C290 C 0.72107 0.93005 0.09362
 C291 C 0.74931 0.87443 0.14138
 C292 C 0.75266 0.85397 0.15481
 C293 C 0.75792 0.82964 0.16838
 C294 C 0.76339 0.80859 0.17800
 H295 H 0.70604 0.89868 0.12367
 H296 H 0.78715 0.90315 0.11764
 H297 H 0.78408 0.94109 0.08084
 H298 H 0.70241 0.93696 0.08681
 C299 C 0.21166 0.41264 0.61827
 C300 C 0.23529 0.40392 0.62976
 C301 C 0.25719 0.41700 0.61990
 C302 C 0.25562 0.43823 0.59773
 C303 C 0.23207 0.44672 0.58505
 C304 C 0.21003 0.43399 0.59611
 C305 C 0.23763 0.38071 0.64964
 C306 C 0.24114 0.36109 0.66531
 C307 C 0.24712 0.33814 0.68263
 C308 C 0.25386 0.31877 0.69671
 H309 H 0.19460 0.40258 0.62565
 H310 H 0.27557 0.41039 0.62859
 H311 H 0.27293 0.44761 0.58979
 H312 H 0.19164 0.44001 0.58669
 C313 C 0.91511 0.24543 0.11384
 C314 C 0.90277 0.26718 0.12593
 C315 C 0.91221 0.29103 0.11673
 C316 C 0.93363 0.29306 0.09469
 C317 C 0.94572 0.27118 0.08134
 C318 C 0.93636 0.24734 0.09181
 C319 C 0.87977 0.26448 0.14622
 C320 C 0.86042 0.26037 0.16230
 C321 C 0.83793 0.25351 0.18016
 C322 C 0.81906 0.24597 0.19477
 H323 H 0.90796 0.22687 0.12083
 H324 H 0.90275 0.30801 0.12597
 H325 H 0.94024 0.31173 0.08736
 H326 H 0.94509 0.23002 0.08240
 C327 C 0.41124 0.79301 0.56552
 C328 C 0.40328 0.77150 0.58434
 C329 C 0.41692 0.74896 0.58110
 C330 C 0.43797 0.74766 0.55849
 C331 C 0.44578 0.76893 0.53870
 C332 C 0.43244 0.79178 0.54290
 C333 C 0.38032 0.77160 0.60525
 C334 C 0.36096 0.76976 0.62220
 C335 C 0.33831 0.76529 0.64133
 C336 C 0.31920 0.75941 0.65695
 H337 H 0.40076 0.81053 0.56770
 H338 H 0.41090 0.73217 0.59543
 H339 H 0.44782 0.72980 0.55598
 H340 H 0.43794 0.80846 0.52795
 C341 C 0.08742 0.70481 0.06686
 C342 C 0.09681 0.72680 0.08308
 C343 C 0.08473 0.74990 0.07708
 C344 C 0.06379 0.75126 0.05435
 C345 C 0.05445 0.72943 0.03701
 C346 C 0.06631 0.70606 0.04409
 C347 C 0.11956 0.72645 0.10439
 C348 C 0.13879 0.72818 0.12167
 C349 C 0.16128 0.73263 0.14116
 C350 C 0.18026 0.73857 0.15705
 H351 H 0.09666 0.68681 0.07126
 H352 H 0.09185 0.76705 0.08946
 H353 H 0.05525 0.76959 0.04990
 H354 H 0.05973 0.68883 0.03139
 C355 C 0.58420 0.21887 0.62265
 C356 C 0.59191 0.24234 0.63623
 C357 C 0.57952 0.26436 0.62523
 C358 C 0.55989 0.26306 0.60019
 C359 C 0.55233 0.23965 0.58571
 C360 C 0.56444 0.21750 0.59761
 C361 C 0.61381 0.24443 0.65900
 C362 C 0.63276 0.24756 0.67644
 C363 C 0.65559 0.25277 0.69457
 C364 C 0.67560 0.25850 0.70773
 H365 H 0.59382 0.20172 0.63077
 H366 H 0.58545 0.28264 0.63536
 H367 H 0.55091 0.28045 0.59173
 H368 H 0.55906 0.19921 0.58696
 C369 C 0.71485 0.08852 0.91279
 C370 C 0.73743 0.09613 0.89633
 C371 C 0.75944 0.08200 0.90158
 C372 C 0.75913 0.06080 0.92391
 C373 C 0.73675 0.05335 0.94141
 C374 C 0.71447 0.06717 0.93512
 C375 C 0.73890 0.11947 0.87652
 C376 C 0.74160 0.13939 0.86126
 C377 C 0.74634 0.16309 0.84518
 C378 C 0.75161 0.18361 0.83326
 H379 H 0.69773 0.09943 0.90912
 H380 H 0.77705 0.08777 0.88916
 H381 H 0.77659 0.05054 0.92803
 H382 H 0.69696 0.06194 0.94825
 C383 C 0.24983 0.57880 0.39194
 C384 C 0.22763 0.59220 0.38474
 C385 C 0.20500 0.58500 0.40139
 C386 C 0.20473 0.56478 0.42576
 C387 C 0.22717 0.55167 0.43387
 C388 C 0.24964 0.55872 0.41628
 C389 C 0.22888 0.61417 0.36196
 C390 C 0.23180 0.63274 0.34362
 C391 C 0.23747 0.65447 0.32312
 C392 C 0.24431 0.67283 0.30656
 H393 H 0.26747 0.58424 0.37930
 H394 H 0.18771 0.59532 0.39614
 H395 H 0.18715 0.55984 0.43892
 H396 H 0.26722 0.54901 0.42181
 C397 C 0.28862 0.91574 0.90018
 C398 C 0.26622 0.90720 0.88419
 C399 C 0.24333 0.91908 0.89244
 C400 C 0.24264 0.93901 0.91713
 C401 C 0.26490 0.94742 0.93400
 C402 C 0.28799 0.93581 0.92489
 C403 C 0.26604 0.88540 0.86089
 C404 C 0.26401 0.86687 0.84214
 C405 C 0.25928 0.84506 0.82121
 C406 C 0.25305 0.82656 0.80440
 H407 H 0.30644 0.90661 0.89411
 H408 H 0.22587 0.91258 0.88032
 H409 H 0.22457 0.94755 0.92344
 H410 H 0.30545 0.94181 0.93747
 C411 C 0.75255 0.41236 0.40350
 C412 C 0.77409 0.39710 0.40202
 C413 C 0.79630 0.40489 0.41929
 C414 C 0.79666 0.42752 0.43899
 C415 C 0.77470 0.44240 0.44183
 C416 C 0.75282 0.43482 0.42324
 C417 C 0.77232 0.37272 0.38496
 C418 C 0.76890 0.35234 0.37125
 C419 C 0.76275 0.32878 0.35571
 C420 C 0.75578 0.30911 0.34265
 H421 H 0.73525 0.40650 0.39029
 H422 H 0.81306 0.39315 0.41842
 H423 H 0.81375 0.43282 0.45316
 H424 H 0.73564 0.44588 0.42477
 C425 C 0.08445 0.25416 0.90142
 C426 C 0.10007 0.27542 0.89948
 C427 C 0.09264 0.29801 0.91614
 C428 C 0.07005 0.29900 0.93582
 C429 C 0.05485 0.27730 0.93926
 C430 C 0.06203 0.25505 0.92116
 C431 C 0.12451 0.27300 0.88282
 C432 C 0.14495 0.26913 0.86961
 C433 C 0.16860 0.26257 0.85476
 C434 C 0.18836 0.25535 0.84231
 H435 H 0.09004 0.23657 0.88869
 H436 H 0.10465 0.31456 0.91491
 H437 H 0.06507 0.31635 0.94963
 H438 H 0.05072 0.23806 0.92318
 C439 C 0.58336 0.72582 0.36149
 C440 C 0.59642 0.74683 0.34823
 C441 C 0.58797 0.77122 0.35665
 C442 C 0.56690 0.77456 0.37904
 C443 C 0.55418 0.75350 0.39345
 C444 C 0.56240 0.72910 0.38390
 C445 C 0.61965 0.74310 0.32871
 C446 C 0.63962 0.73909 0.31413
 C447 C 0.66353 0.73346 0.29926
 C448 C 0.68434 0.72794 0.28865
 H449 H 0.58982 0.70687 0.35533
 H450 H 0.59805 0.78762 0.34674
 H451 H 0.56107 0.79357 0.38593
 H452 H 0.55301 0.71249 0.39443
 C453 C 0.91369 0.72537 0.85561
 C454 C 0.90529 0.74969 0.84687
 C455 C 0.91812 0.77080 0.86034
 C456 C 0.93881 0.76768 0.88323
 C457 C 0.94700 0.74335 0.89305
 C458 C 0.93450 0.72219 0.87848
 C459 C 0.88230 0.75332 0.82680
 C460 C 0.86251 0.75734 0.81179
 C461 C 0.83878 0.76310 0.79655
 C462 C 0.81808 0.76882 0.78575
 H463 H 0.90377 0.70889 0.84555
 H464 H 0.91169 0.78971 0.85394
 H465 H 0.94805 0.78437 0.89385
 H466 H 0.94033 0.70322 0.88556
 C467 C 0.41185 0.21511 0.40486
 C468 C 0.40378 0.23807 0.39007
 C469 C 0.41721 0.26025 0.39742
 C470 C 0.43813 0.25969 0.42031
 C471 C 0.44595 0.23689 0.43626
 C472 C 0.43290 0.21449 0.42773
 C473 C 0.38048 0.23959 0.37019
 C474 C 0.36046 0.24216 0.35516
 C475 C 0.33653 0.24662 0.33967
 C476 C 0.31576 0.25162 0.32846
 H477 H 0.40147 0.19786 0.39957
 H478 H 0.41104 0.27815 0.38632
 H479 H 0.44780 0.27726 0.42620
 H480 H 0.43843 0.19665 0.43962
 C481 C 0.75618 0.91813 0.89282
 C482 C 0.73338 0.90590 0.88509
 C483 C 0.71105 0.91400 0.90171
 C484 C 0.71164 0.93399 0.92654
 C485 C 0.73464 0.94595 0.93513
 C486 C 0.75683 0.93799 0.91762
 C487 C 0.73366 0.88412 0.86175
 C488 C 0.73576 0.86563 0.84297
 C489 C 0.74057 0.84386 0.82201
 C490 C 0.74684 0.82539 0.80516
 H491 H 0.77360 0.91196 0.88021
 H492 H 0.69332 0.90458 0.89605
 H493 H 0.69424 0.93965 0.93962
 H494 H 0.77483 0.94681 0.92354
 C495 C 0.20440 0.40553 0.41832
 C496 C 0.22672 0.39760 0.40144
 C497 C 0.24834 0.41271 0.40333
 C498 C 0.24803 0.43517 0.42306
 C499 C 0.22602 0.44292 0.44123
 C500 C 0.20400 0.42817 0.43801
 C501 C 0.22845 0.37325 0.38425
 C502 C 0.23181 0.35289 0.37043
 C503 C 0.23787 0.32934 0.35474
 C504 C 0.24477 0.30967 0.34158
 H505 H 0.18756 0.39392 0.41712
 H506 H 0.26573 0.40675 0.39042
 H507 H 0.26527 0.44612 0.42489
 H508 H 0.18681 0.43359 0.45185
 C509 C 0.23785 0.08426 0.90449
 C510 C 0.26025 0.09683 0.89578
 C511 C 0.28332 0.08773 0.90887
 C512 C 0.28390 0.06643 0.93129
 C513 C 0.26131 0.05409 0.94119
 C514 C 0.23832 0.06312 0.92692
 C515 C 0.25893 0.12008 0.87574
 C516 C 0.25637 0.13999 0.86038
 C517 C 0.25183 0.16372 0.84429
 C518 C 0.24673 0.18430 0.83242
 H519 H 0.21987 0.09120 0.89465
 H520 H 0.30078 0.09741 0.90243
 H521 H 0.30197 0.06009 0.94156
 H522 H 0.22050 0.05419 0.93358
 C523 C 0.79570 0.58460 0.40289
 C524 C 0.77314 0.59174 0.38605
 C525 C 0.75094 0.57825 0.39298
 C526 C 0.75107 0.55813 0.41725
 C527 C 0.77346 0.55114 0.43503
 C528 C 0.79590 0.56433 0.42719
 C529 C 0.77193 0.61375 0.36333
 C530 C 0.76902 0.63233 0.34502
 C531 C 0.76335 0.65406 0.32452
 C532 C 0.75651 0.67240 0.30794
 H533 H 0.81297 0.59500 0.39785
 H534 H 0.73335 0.58365 0.38019
 H535 H 0.73349 0.54834 0.42257
 H536 H 0.81343 0.55944 0.44051
 C537 C 0.08547 0.72668 0.85391
 C538 C 0.09484 0.75096 0.84725
 C539 C 0.08312 0.77190 0.86304
 C540 C 0.06258 0.76865 0.88619
 C541 C 0.05337 0.74425 0.89409
 C542 C 0.06480 0.72331 0.87703
 C543 C 0.11769 0.75456 0.82683
 C544 C 0.13741 0.75856 0.81160
 C545 C 0.16110 0.76430 0.79617
 C546 C 0.18177 0.77000 0.78525
 H547 H 0.09451 0.71031 0.84198
 H548 H 0.09030 0.79078 0.85821
 H549 H 0.05432 0.78530 0.89849
 H550 H 0.05828 0.70426 0.88224
 C551 C 0.58818 0.21494 0.40570
 C552 C 0.59641 0.23789 0.39102
 C553 C 0.58302 0.26010 0.39830
 C554 C 0.56197 0.25959 0.42100
 C555 C 0.55399 0.23680 0.43682
 C556 C 0.56702 0.21436 0.42837
 C557 C 0.61978 0.23935 0.37128
 C558 C 0.63986 0.24186 0.35635
 C559 C 0.66384 0.24625 0.34093
 C560 C 0.68464 0.25119 0.32975
 H561 H 0.59853 0.19766 0.40046
 H562 H 0.58930 0.27799 0.38728
 H563 H 0.55233 0.27718 0.42683
 H564 H 0.56136 0.19653 0.44018
 C565 C 0.91480 0.25307 0.90133
 C566 C 0.89913 0.27428 0.89905
 C567 C 0.90651 0.29701 0.91532
 C568 C 0.92907 0.29821 0.93499
 C569 C 0.94431 0.27659 0.93881
 C570 C 0.93720 0.25418 0.92106
 C571 C 0.87470 0.27169 0.88248
 C572 C 0.85423 0.26778 0.86941
 C573 C 0.83052 0.26126 0.85476
 C574 C 0.81068 0.25414 0.84249
 H575 H 0.90926 0.23537 0.88890
 H576 H 0.89445 0.31352 0.91382
 H577 H 0.93398 0.31569 0.94852
 H578 H 0.94854 0.23722 0.92338
 C579 C 0.41715 0.72614 0.36109
 C580 C 0.40421 0.74719 0.34778
 C581 C 0.41271 0.77155 0.35628
 C582 C 0.43371 0.77481 0.37878
 C583 C 0.44632 0.75371 0.39323
 C584 C 0.43805 0.72934 0.38362
 C585 C 0.38104 0.74353 0.32811
 C586 C 0.36112 0.73957 0.31340
 C587 C 0.33726 0.73398 0.29838
 C588 C 0.31647 0.72846 0.28765
 H589 H 0.41066 0.70721 0.35488
 H590 H 0.40272 0.78799 0.34633
 H591 H 0.43959 0.79381 0.38571
 H592 H 0.44735 0.71270 0.39417
 C593 C 0.23292 0.91327 0.11533
 C594 C 0.25460 0.89927 0.12332
 C595 C 0.27822 0.90762 0.11114
 C596 C 0.28002 0.92953 0.09013
 C597 C 0.25814 0.94317 0.08085
 C598 C 0.23465 0.93504 0.09428
 C599 C 0.25197 0.87524 0.14107
 C600 C 0.24851 0.85472 0.15425
 C601 C 0.24316 0.83034 0.16759
 C602 C 0.23765 0.80927 0.17709
 H603 H 0.21453 0.90691 0.12443
 H604 H 0.29511 0.89681 0.11696
 H605 H 0.29836 0.93528 0.08013
 H606 H 0.21746 0.94514 0.08777
 C607 C 0.74267 0.41611 0.62028
 C608 C 0.76450 0.40297 0.63023
 C609 C 0.78818 0.41166 0.61889
 C610 C 0.78993 0.43303 0.59679
 C611 C 0.76796 0.44581 0.58563
 C612 C 0.74435 0.43735 0.59816
 C613 C 0.76204 0.37977 0.65011
 C614 C 0.75841 0.36017 0.66577
 C615 C 0.75228 0.33727 0.68311
 C616 C 0.74540 0.31795 0.69722
 H617 H 0.72423 0.40952 0.62886
 H618 H 0.80520 0.40157 0.62635
 H619 H 0.80837 0.43903 0.58748
 H620 H 0.72708 0.44676 0.59014
 C621 C 0.76864 0.07666 0.12689
 C622 C 0.74686 0.08875 0.13957
 C623 C 0.72307 0.08046 0.12809
 C624 C 0.72110 0.06053 0.10336
 C625 C 0.74296 0.04879 0.08964
 C626 C 0.76673 0.05683 0.10214
 C627 C 0.74931 0.11101 0.16168
 C628 C 0.75239 0.13031 0.17843
 C629 C 0.75720 0.15360 0.19572
 C630 C 0.76238 0.17401 0.20816
 H631 H 0.78716 0.08303 0.13539
 H632 H 0.70609 0.08982 0.13751
 H633 H 0.70252 0.05480 0.09425
 H634 H 0.78392 0.04817 0.09222
 C635 C 0.26201 0.58459 0.61433
 C636 C 0.24102 0.59948 0.62283
 C637 C 0.21693 0.59204 0.61133
 C638 C 0.21399 0.57014 0.59045
 C639 C 0.23518 0.55560 0.58064
 C640 C 0.25915 0.56282 0.59342
 C641 C 0.24480 0.62346 0.64043
 C642 C 0.24908 0.64389 0.65349
 C643 C 0.25518 0.66815 0.66674
 C644 C 0.26113 0.68912 0.67624
 H645 H 0.28075 0.59023 0.62292
 H646 H 0.20057 0.60354 0.61755
 H647 H 0.19532 0.56511 0.58095
 H648 H 0.27583 0.55201 0.58648
 C649 C 0.91232 0.70404 0.06582
 C650 C 0.90446 0.72548 0.08498
 C651 C 0.91810 0.74802 0.08191
 C652 C 0.93904 0.74941 0.05913
 C653 C 0.94675 0.72822 0.03899
 C654 C 0.93343 0.70535 0.04302
 C655 C 0.88158 0.72534 0.10605
 C656 C 0.86229 0.72722 0.12316
 C657 C 0.83974 0.73180 0.14250
 C658 C 0.82075 0.73782 0.15830
 H659 H 0.90184 0.68651 0.06785
 H660 H 0.91216 0.76476 0.09651
 H661 H 0.94889 0.76727 0.05676
 H662 H 0.93885 0.68873 0.02780
 C663 C 0.41943 0.26450 0.62450
 C664 C 0.40700 0.24250 0.63549
 C665 C 0.41474 0.21901 0.62200
 C666 C 0.43459 0.21761 0.59708
 C667 C 0.44676 0.23975 0.58521
 C668 C 0.43915 0.26317 0.59957
 C669 C 0.38506 0.24462 0.65820
 C670 C 0.36609 0.24779 0.67563
 C671 C 0.34327 0.25307 0.69377
 C672 C 0.32328 0.25888 0.70696
 H673 H 0.41348 0.28280 0.63457
 H674 H 0.40510 0.20188 0.63011
 H675 H 0.44002 0.19931 0.58651
 H676 H 0.44817 0.28056 0.59114
 C677 C 0.08243 0.24647 0.11898
 C678 C 0.09655 0.26799 0.12753
 C679 C 0.08879 0.29171 0.11503
 C680 C 0.06730 0.29375 0.09318
 C681 C 0.05353 0.27203 0.08344
 C682 C 0.06110 0.24844 0.09711
 C683 C 0.11977 0.26503 0.14719
 C684 C 0.13927 0.26081 0.16278
 C685 C 0.16193 0.25391 0.18013
 C686 C 0.18094 0.24639 0.19437
 H687 H 0.08830 0.22802 0.12846
 H688 H 0.09966 0.30848 0.12141
 H689 H 0.06199 0.31215 0.08296
 H690 H 0.05088 0.23137 0.09023
 C691 C 0.58310 0.74858 0.58137
 C692 C 0.59684 0.77104 0.58464
 C693 C 0.58903 0.79259 0.56580
 C694 C 0.56787 0.79146 0.54312
 C695 C 0.55443 0.76868 0.53888
 C696 C 0.56209 0.74737 0.55870
 C697 C 0.61975 0.77103 0.60561
 C698 C 0.63908 0.76911 0.62262
 C699 C 0.66166 0.76455 0.64183
 C700 C 0.68071 0.75859 0.65751
 H701 H 0.58899 0.73176 0.59572
 H702 H 0.59960 0.81006 0.56799
 H703 H 0.56249 0.80817 0.52814
 H704 H 0.55215 0.72957 0.55617
   
