data_POSCAR
  _audit_creation_date              2014-09-24
  _audit_creation_method            'ToBaCCo'
  _symmetry_space_group_name_H-M    'P1'
  _symmetry_Int_Tables_number       1
  _symmetry_cell_setting            triclinic
  loop_
  _symmetry_equiv_pos_as_xyz
 x,y,z
_cell_length_a 14.4689
_cell_length_b 14.4689
_cell_length_c 29.4656
_cell_angle_alpha 90.000000
_cell_angle_beta 90.000000
_cell_angle_gamma 120.000100
loop_
  _atom_site_label
  _atom_site_type_symbol
  _atom_site_fract_x
  _atom_site_fract_y
  _atom_site_fract_z
Zn1 Zn 0.88634 0.02419 1.01628
 Zn2 Zn 1.12161 0.10952 1.01628
 Zn3 Zn 0.97167 -0.12574 1.01628
 Zn4 Zn 0.99321 0.00266 0.93334
 O5 O 0.99321 0.00266 0.99549
 O6 O 0.93451 0.14124 1.05076
 O7 O 1.19049 0.06136 1.05076
 O8 O 0.85462 -0.19463 1.05076
 O9 O 1.10870 0.20305 1.05145
 O10 O 0.79281 -0.08224 1.05145
 O11 O 1.07811 -0.11284 1.05145
 O12 O 0.96581 -0.12337 0.90993
 O13 O 1.21130 0.18468 0.97148
 O14 O 0.95714 -0.21544 0.97148
 O15 O 1.11923 0.10128 0.90993
 O16 O 0.89458 0.03006 0.90993
 O17 O 0.81118 0.03872 0.97148
 C18 C 1.02780 0.20868 1.06392
 C19 C 1.16463 -0.03194 1.06392
 C20 C 0.78719 -0.16877 1.06392
 C21 C 0.95373 -0.20771 0.92871
 C22 C 1.20358 0.17355 0.92871
 C23 C 0.82231 0.04213 0.92871
 Zn24 Zn 0.10007 0.98112 0.51628
 Zn25 Zn -0.13519 0.89579 0.51628
 Zn26 Zn 0.01474 1.13105 0.51628
 Zn27 Zn -0.00679 1.00266 0.43334
 O28 O -0.00679 1.00266 0.49549
 O29 O 0.05191 0.86407 0.55076
 O30 O -0.20408 0.94396 0.55076
 O31 O 0.13179 1.19994 0.55076
 O32 O -0.12229 0.80226 0.55145
 O33 O 0.19360 1.08756 0.55145
 O34 O -0.09169 1.11815 0.55145
 O35 O 0.02061 1.12868 0.40993
 O36 O -0.22489 0.82063 0.47148
 O37 O 0.02927 1.22075 0.47148
 O38 O -0.13282 0.90403 0.40993
 O39 O 0.09183 0.97525 0.40993
 O40 O 0.17523 0.96659 0.47148
 C41 C -0.04139 0.79663 0.56392
 C42 C -0.17822 1.03725 0.56392
 C43 C 0.19923 1.17408 0.56392
 C44 C 0.03268 1.21303 0.42871
 C45 C -0.21716 0.83176 0.42871
 C46 C 0.16410 0.96318 0.42871
 O47 O 0.15295 0.57350 0.29963
 O48 O 0.23192 0.77657 0.28350
 C49 C 0.31384 0.83303 0.30779
 O50 O 0.40431 0.84292 0.29963
 O51 O 0.52841 0.76394 0.28350
 C52 C 0.50295 0.68202 0.30779
 O53 O 0.42236 0.59155 0.29963
 O54 O 0.21929 0.46746 0.28350
 C55 C 0.16283 0.49291 0.30779
 O56 O 0.13003 0.53123 0.20949
 O57 O 0.21948 0.73582 0.19367
 C58 C 0.29977 0.82693 0.18607
 O59 O 0.38496 0.86583 0.20949
 O60 O 0.50009 0.77638 0.19367
 C61 C 0.51091 0.69609 0.18607
 O62 O 0.46463 0.61090 0.20949
 O63 O 0.26004 0.49577 0.19367
 C64 C 0.16894 0.48495 0.18607
 Cr65 Cr 0.18841 0.65467 0.24652
 Cr66 Cr 0.45001 0.80745 0.24652
 Cr67 Cr 0.34119 0.54585 0.24652
 O68 O 0.32654 0.66932 0.24629
 O69 O 0.83347 0.43181 0.79963
 O70 O 0.75449 0.22874 0.78350
 C71 C 0.67257 0.17228 0.80779
 O72 O 0.58210 0.16240 0.79963
 O73 O 0.45801 0.24137 0.78350
 C74 C 0.48346 0.32329 0.80779
 O75 O 0.56405 0.41376 0.79963
 O76 O 0.76712 0.53786 0.78350
 C77 C 0.82359 0.51240 0.80779
 O78 O 0.85638 0.47408 0.70949
 O79 O 0.76693 0.26949 0.69367
 C80 C 0.68664 0.17839 0.68607
 O81 O 0.60145 0.13948 0.70949
 O82 O 0.48632 0.22893 0.69367
 C83 C 0.47550 0.30922 0.68607
 O84 O 0.52178 0.39441 0.70949
 O85 O 0.72637 0.50954 0.69367
 C86 C 0.81748 0.52036 0.68607
 Cr87 Cr 0.79800 0.35064 0.74652
 Cr88 Cr 0.53640 0.19786 0.74652
 Cr89 Cr 0.64522 0.45946 0.74652
 O90 O 0.65987 0.33599 0.74629
 N91 N 0.00204 0.38647 0.14053
 N92 N -0.03531 0.31356 0.10812
 C93 C 0.04220 0.29294 0.09571
 C94 C 0.13280 0.35531 0.12122
 C95 C 0.10367 0.41284 0.14949
 H96 H 0.20741 0.35491 0.12088
 H97 H -0.04256 0.41512 0.15699
 H98 H -0.11329 0.27693 0.09565
 N99 N 0.60939 0.62768 0.14053
 N100 N 0.68231 0.66324 0.10812
 C101 C 0.70292 0.76136 0.09571
 C102 C 0.64055 0.78959 0.12122
 C103 C 0.58302 0.70294 0.14949
 H104 H 0.64096 0.86461 0.12088
 H105 H 0.58074 0.55442 0.15700
 H106 H 0.71893 0.62188 0.09565
 N107 N 0.36819 0.99382 0.14053
 N108 N 0.33262 1.03117 0.10812
 C109 C 0.23450 0.95366 0.09571
 C110 C 0.20627 0.86306 0.12122
 C111 C 0.29292 0.89219 0.14949
 H112 H 0.13125 0.78845 0.12088
 H113 H 0.44144 1.03842 0.15700
 H114 H 0.37398 1.10915 0.09565
 N115 N 0.98437 0.61884 0.64053
 N116 N 1.02172 0.69176 0.60812
 C117 C 0.94421 0.71237 0.59571
 C118 C 0.85361 0.65000 0.62122
 C119 C 0.88274 0.59247 0.64949
 H120 H 0.77900 0.65041 0.62088
 H121 H 1.02897 0.59019 0.65699
 H122 H 1.09970 0.72838 0.59565
 N123 N 0.37703 0.37764 0.64053
 N124 N 0.30411 0.34207 0.60812
 C125 C 0.28349 0.24395 0.59571
 C126 C 0.34586 0.21572 0.62122
 C127 C 0.40339 0.30237 0.64949
 H128 H 0.34546 0.14070 0.62088
 H129 H 0.40568 0.45089 0.65699
 H130 H 0.26748 0.38343 0.59565
 N131 N 0.61823 0.01149 0.64053
 N132 N 0.65379 -0.02586 0.60812
 C133 C 0.75192 0.05165 0.59571
 C134 C 0.78014 0.14225 0.62122
 C135 C 0.69349 0.11312 0.64949
 H136 H 0.85516 0.21686 0.62088
 H137 H 0.54498 -0.03311 0.65700
 H138 H 0.61243 -0.10384 0.59565
 N139 N 0.44742 0.38232 0.88181
 N140 N 0.37439 0.34189 0.91412
 C141 C 0.29528 0.24571 0.90050
 C142 C 0.31894 0.22356 0.85776
 C143 C 0.41661 0.31200 0.84729
 H144 H 0.27424 0.15119 0.83814
 H145 H 0.51882 0.45496 0.88427
 H146 H 0.37987 0.37897 0.94522
 N147 N 0.91866 0.54844 0.88182
 N148 N 0.95126 0.62148 0.91412
 C149 C 0.93419 0.70058 0.90050
 C150 C 0.88837 0.67692 0.85776
 C151 C 0.87915 0.57925 0.84729
 H152 H 0.86071 0.72162 0.83814
 H153 H 0.91989 0.47704 0.88427
 H154 H 0.98285 0.61599 0.94522
 N155 N 0.61354 0.07720 0.88181
 N156 N 0.65397 0.04460 0.91412
 C157 C 0.75015 0.06167 0.90050
 C158 C 0.77230 0.10749 0.85776
 C159 C 0.68386 0.11672 0.84729
 H160 H 0.84467 0.13515 0.83814
 H161 H 0.54091 0.07597 0.88427
 H162 H 0.61689 0.01301 0.94522
 N163 N 0.53899 0.62299 0.38181
 N164 N 0.61203 0.66342 0.41412
 C165 C 0.69113 0.75960 0.40050
 C166 C 0.66747 0.78175 0.35776
 C167 C 0.56980 0.69331 0.34729
 H168 H 0.71217 0.85412 0.33814
 H169 H 0.46759 0.55036 0.38426
 H170 H 0.60654 0.62634 0.44522
 N171 N 0.06775 0.45687 0.38182
 N172 N 0.03515 0.38383 0.41412
 C173 C 0.05222 0.30473 0.40050
 C174 C 0.09804 0.32839 0.35776
 C175 C 0.10727 0.42606 0.34729
 H176 H 0.12570 0.28369 0.33814
 H177 H 0.06652 0.52827 0.38427
 H178 H 0.00356 0.38932 0.44522
 N179 N 0.37287 0.92811 0.38181
 N180 N 0.33244 0.96072 0.41412
 C181 C 0.23626 0.94364 0.40050
 C182 C 0.21411 0.89782 0.35776
 C183 C 0.30255 0.88859 0.34729
 H184 H 0.14174 0.87016 0.33814
 H185 H 0.44551 0.92935 0.38426
 H186 H 0.36952 0.99230 0.44522
   
