data_POSCAR
  _audit_creation_date              2014-09-24
  _audit_creation_method            'ToBaCCo'
  _symmetry_space_group_name_H-M    'P1'
  _symmetry_Int_Tables_number       1
  _symmetry_cell_setting            triclinic
  loop_
  _symmetry_equiv_pos_as_xyz
 x,y,z
_cell_length_a 30.0926
_cell_length_b 30.1429
_cell_length_c 30.1954
_cell_angle_alpha 107.739300
_cell_angle_beta 82.146200
_cell_angle_gamma 79.290700
loop_
  _atom_site_label
  _atom_site_type_symbol
  _atom_site_fract_x
  _atom_site_fract_y
  _atom_site_fract_z
C1 C 0.53702 0.49888 0.00586
 C2 C 0.50174 0.53431 0.00543
 C3 C 0.45401 0.52765 0.00509
 C4 C 0.50842 0.58199 0.00511
 C5 C 0.58554 0.50394 0.00270
 C6 C 0.52937 0.45262 0.00952
 C7 C 0.44492 0.48974 -0.03000
 C8 C 0.39943 0.48641 -0.03204
 C9 C 0.36123 0.52172 0.00048
 C10 C 0.37152 0.55920 0.03620
 C11 C 0.41695 0.56200 0.03828
 C12 C 0.49175 0.60076 -0.02833
 C13 C 0.49457 0.64674 -0.02735
 C14 C 0.51430 0.67495 0.00703
 C15 C 0.53163 0.65600 0.04014
 C16 C 0.52827 0.61011 0.03951
 C17 C 0.61075 0.49283 0.03537
 C18 C 0.65706 0.49460 0.03160
 C19 C 0.67913 0.50775 -0.00480
 C20 C 0.65391 0.51933 -0.03730
 C21 C 0.60764 0.51687 -0.03394
 C22 C 0.49828 0.45122 0.04802
 C23 C 0.49468 0.40717 0.05285
 C24 C 0.52247 0.36386 0.01956
 C25 C 0.55279 0.36551 -0.01938
 C26 C 0.55629 0.40937 -0.02422
 H27 H 0.47304 0.46347 -0.05686
 H28 H 0.39503 0.45770 -0.06158
 H29 H 0.34497 0.58591 0.06433
 H30 H 0.42324 0.59137 0.06600
 H31 H 0.47614 0.57984 -0.05507
 H32 H 0.48132 0.66030 -0.05352
 H33 H 0.54035 0.59692 0.06639
 H34 H 0.59453 0.48255 0.06377
 H35 H 0.67567 0.48587 0.05730
 H36 H 0.67037 0.52901 -0.06601
 H37 H 0.58932 0.52436 -0.06031
 H38 H 0.47779 0.48422 0.07493
 H39 H 0.47132 0.40704 0.08343
 H40 H 0.57406 0.33277 -0.04606
 H41 H 0.58049 0.40964 -0.05413
 H42 H 0.54649 0.67727 0.06736
 C43 C 0.01126 0.49580 0.49693
 C44 C 0.01039 0.45774 0.45893
 C45 C 0.00812 0.41052 0.46350
 C46 C 0.01125 0.46057 0.41049
 C47 C 0.01101 0.54406 0.49372
 C48 C 0.01254 0.49159 0.54451
 C49 C 0.04136 0.36933 0.43366
 C50 C 0.03737 0.32403 0.43371
 C51 C -0.00014 0.31897 0.46343
 C52 C -0.03283 0.36035 0.49429
 C53 C -0.02887 0.40581 0.49413
 C54 C 0.04560 0.47726 0.38838
 C55 C 0.04723 0.47663 0.34163
 C56 C 0.01531 0.45814 0.31595
 C57 C -0.01899 0.44160 0.33811
 C58 C -0.02109 0.44298 0.38492
 C59 C -0.02323 0.56769 0.47583
 C60 C -0.02433 0.61436 0.47605
 C61 C 0.00811 0.63842 0.49517
 C62 C 0.04235 0.61468 0.51285
 C63 C 0.04384 0.56794 0.51201
 C64 C -0.02106 0.52314 0.58388
 C65 C -0.01818 0.52312 0.62955
 C66 C 0.01861 0.49173 0.63688
 C67 C 0.05171 0.45927 0.59729
 C68 C 0.04882 0.45936 0.55145
 H69 H 0.07006 0.37230 0.40972
 H70 H 0.06346 0.29282 0.41013
 H71 H -0.06230 0.35742 0.51723
 H72 H -0.05536 0.43716 0.51677
 H73 H 0.07164 0.48985 0.40691
 H74 H 0.07426 0.48912 0.32500
 H75 H -0.04778 0.42977 0.40114
 H76 H -0.04958 0.55042 0.46262
 H77 H -0.05135 0.63223 0.46271
 H78 H 0.06791 0.63241 0.52743
 H79 H 0.07044 0.55047 0.52615
 H80 H -0.04926 0.54831 0.57921
 H81 H -0.04461 0.54796 0.65927
 H82 H 0.08068 0.43503 0.60192
 H83 H 0.07557 0.43534 0.52157
 H84 H -0.04415 0.42752 0.31908
 C85 C 0.48846 0.01374 0.50796
 C86 C 0.45536 0.01335 0.54343
 C87 C 0.46454 0.01449 0.59103
 C88 C 0.40784 0.01086 0.53635
 C89 C 0.47727 0.01824 0.46274
 C90 C 0.53769 0.01032 0.51211
 C91 C 0.44960 -0.01754 0.61150
 C92 C 0.45596 -0.01595 0.65681
 C93 C 0.47803 0.01752 0.68310
 C94 C 0.49341 0.04936 0.66197
 C95 C 0.48597 0.04840 0.61698
 C96 C 0.40031 -0.02723 0.49996
 C97 C 0.35532 -0.03144 0.49636
 C98 C 0.31710 0.00219 0.52929
 C99 C 0.32486 0.04076 0.56506
 C100 C 0.36975 0.04489 0.56866
 C101 C 0.44299 0.05692 0.46279
 C102 C 0.43615 0.06331 0.41999
 C103 C 0.46397 0.03155 0.37652
 C104 C 0.49762 -0.00757 0.37658
 C105 C 0.50419 -0.01412 0.41923
 C106 C 0.56117 0.04174 0.49868
 C107 C 0.60794 0.03760 0.49951
 C108 C 0.63272 0.00221 0.51456
 C109 C 0.60862 -0.02883 0.52878
 C110 C 0.56202 -0.02540 0.52663
 H111 H 0.43309 -0.04417 0.59218
 H112 H 0.44497 -0.04248 0.67019
 H113 H 0.50906 0.07693 0.68096
 H114 H 0.49647 0.07459 0.60269
 H115 H 0.42930 -0.05439 0.47522
 H116 H 0.35048 -0.06184 0.46877
 H117 H 0.37488 0.07446 0.59702
 H118 H 0.42251 0.08295 0.49599
 H119 H 0.41025 0.09398 0.42097
 H120 H 0.51908 -0.03299 0.34356
 H121 H 0.53091 -0.04409 0.41839
 H122 H 0.54317 0.06971 0.48745
 H123 H 0.62399 0.06359 0.48994
 H124 H 0.62612 -0.05766 0.53912
 H125 H 0.54514 -0.05115 0.53567
 H126 H 0.29616 0.06769 0.59047
 O127 O 0.43460 0.03331 -0.02032
 O128 O 0.44317 0.05187 0.10420
 O129 O 0.43934 0.10643 0.05051
 O130 O 0.43951 -0.02036 0.03250
 O131 O 0.51562 -0.04013 0.01132
 O132 O 0.51542 0.08638 0.02978
 O133 O 0.51922 0.03188 0.08282
 O134 O 0.51072 0.01474 -0.04159
 Cu135 Cu 0.43154 0.04504 0.04401
 Cu136 Cu 0.52284 0.02132 0.01851
 C137 C 0.47112 0.02124 -0.05213
 C138 C 0.48269 0.04383 0.11465
 C139 C 0.47743 0.11794 0.04237
 C140 C 0.47765 -0.05184 0.01923
 O141 O -0.03708 0.51150 0.98828
 O142 O 0.08586 0.51237 0.97987
 O143 O 0.02924 0.50676 0.92112
 O144 O 0.01976 0.51733 1.04681
 O145 O 0.03865 0.43837 1.02586
 O146 O 0.04715 0.42784 0.90006
 O147 O 0.10474 0.43336 0.95801
 O148 O -0.01856 0.43263 0.96840
 Cu149 Cu 0.02261 0.51988 0.98598
 Cu150 Cu 0.04491 0.42511 0.96088
 C151 C -0.04887 0.47189 0.97990
 C152 C 0.11629 0.47316 0.96806
 C153 C 0.03927 0.46563 0.88911
 C154 C 0.02795 0.47960 1.05783
 O155 O -0.00327 -0.09077 0.43602
 O156 O -0.01347 0.03574 0.44732
 O157 O 0.05386 -0.03429 0.44138
 O158 O -0.07063 -0.01944 0.44230
 O159 O -0.08518 -0.00148 0.52022
 O160 O 0.03868 -0.01230 0.51960
 O161 O -0.02992 0.05668 0.52544
 O162 O -0.01613 -0.07046 0.51410
 Cu163 Cu -0.00690 -0.02945 0.43387
 Cu164 Cu -0.02468 -0.00492 0.52768
 C165 C -0.00793 -0.10228 0.47320
 C166 C -0.02314 0.06785 0.48818
 C167 C 0.06745 -0.02466 0.48052
 C168 C -0.09908 -0.00830 0.48137
 C169 C -0.25620 0.54776 0.98454
 C170 C -0.27137 0.50832 0.99079
 C171 C -0.23913 0.46939 0.99330
 C172 C -0.19227 0.46985 0.98981
 C173 C -0.17742 0.51007 0.98441
 C174 C -0.20964 0.54878 0.98168
 C175 C -0.13061 0.51079 0.98167
 C176 C -0.09827 0.47140 0.98335
 C177 C -0.11338 0.43134 0.98800
 C178 C -0.16000 0.43068 0.99152
 H179 H -0.25050 0.43853 0.99745
 H180 H -0.19886 0.57984 0.97736
 H181 H -0.11929 0.54170 0.97762
 H182 H -0.17078 0.39950 0.99548
 H183 H -0.28057 0.57819 0.98275
 H184 H -0.08916 0.40061 0.98945
 C185 C 0.27984 0.56237 1.01765
 C186 C 0.31638 0.52031 0.99729
 C187 C 0.30443 0.47709 0.97335
 C188 C 0.25833 0.47600 0.97070
 C189 C 0.22307 0.51856 0.99138
 C190 C 0.23422 0.56143 1.01453
 C191 C 0.17701 0.51755 0.98920
 C192 C 0.16536 0.47418 0.96741
 C193 C 0.20067 0.43183 0.94694
 C194 C 0.24677 0.43277 0.94834
 H195 H 0.33003 0.44326 0.95891
 H196 H 0.20756 0.59456 1.03019
 H197 H 0.15012 0.55044 1.00556
 H198 H 0.27331 0.39961 0.93234
 H199 H 0.28596 0.59730 1.03408
 H200 H 0.19264 0.39791 0.92996
 C201 C 0.00750 -0.27724 0.54136
 C202 C 0.00549 -0.31122 0.49836
 C203 C 0.00133 -0.29697 0.45865
 C204 C -0.00038 -0.24923 0.46178
 C205 C 0.00127 -0.21524 0.50537
 C206 C 0.00518 -0.22959 0.54493
 C207 C -0.00101 -0.16743 0.50876
 C208 C -0.00440 -0.15303 0.46900
 C209 C -0.00532 -0.18723 0.42561
 C210 C -0.00353 -0.23488 0.42208
 H211 H 0.00019 -0.32318 0.42526
 H212 H 0.00651 -0.20401 0.57859
 H213 H -0.00000 -0.14149 0.54236
 H214 H -0.00468 -0.26046 0.38834
 H215 H 0.01034 -0.28752 0.57244
 H216 H -0.00805 -0.17701 0.39449
 C217 C 0.00228 0.23431 0.41611
 C218 C -0.00574 0.27046 0.46067
 C219 C -0.01847 0.25976 0.50212
 C220 C -0.02188 0.21312 0.49906
 C221 C -0.01295 0.17697 0.45401
 C222 C -0.00135 0.18803 0.41279
 C223 C -0.01487 0.13006 0.45082
 C224 C -0.02504 0.11833 0.49208
 C225 C -0.03464 0.15467 0.53675
 C226 C -0.03319 0.20170 0.54021
 H227 H -0.02447 0.28733 0.53666
 H228 H 0.00536 0.16078 0.37798
 H229 H -0.00736 0.10248 0.41611
 H230 H -0.04021 0.22893 0.57505
 H231 H 0.01127 0.24192 0.38367
 H232 H -0.04260 0.14661 0.56910
 C233 C 0.52149 0.03486 -0.25251
 C234 C 0.48398 0.01940 -0.27055
 C235 C 0.45220 0.00617 -0.24089
 C236 C 0.45740 0.00879 -0.19476
 C237 C 0.49560 0.02352 -0.17782
 C238 C 0.52746 0.03635 -0.20701
 C239 C 0.50078 0.02603 -0.13164
 C240 C 0.46729 0.01563 -0.10164
 C241 C 0.42908 0.00167 -0.11861
 C242 C 0.42443 -0.00225 -0.16495
 H243 H 0.42184 -0.00385 -0.25242
 H244 H 0.55699 0.04775 -0.19459
 H245 H 0.53001 0.03755 -0.11853
 H246 H 0.39474 -0.01335 -0.17725
 H247 H 0.54761 0.04407 -0.27408
 H248 H 0.40289 -0.00649 -0.09604
 C249 C 0.41518 0.05157 0.32084
 C250 C 0.45905 0.03965 0.33119
 C251 C 0.49860 0.03464 0.29761
 C252 C 0.49455 0.04007 0.25374
 C253 C 0.45035 0.05083 0.24312
 C254 C 0.41086 0.05704 0.27714
 C255 C 0.44650 0.05404 0.19829
 C256 C 0.48633 0.04616 0.16372
 C257 C 0.53001 0.03688 0.17534
 C258 C 0.53407 0.03397 0.21994
 H259 H 0.53257 0.02629 0.30560
 H260 H 0.37667 0.06538 0.26967
 H261 H 0.41258 0.06119 0.18988
 H262 H 0.56821 0.02594 0.22761
 H263 H 0.38426 0.05549 0.34613
 H264 H 0.56125 0.03076 0.14954
 C265 C 0.55583 -0.25908 0.01421
 C266 C 0.51546 -0.27551 0.00902
 C267 C 0.47592 -0.24434 0.00586
 C268 C 0.47653 -0.19727 0.00812
 C269 C 0.51745 -0.18121 0.01287
 C270 C 0.55692 -0.21243 0.01581
 C271 C 0.51797 -0.13404 0.01523
 C272 C 0.47780 -0.10232 0.01401
 C273 C 0.43729 -0.11867 0.00953
 C274 C 0.43675 -0.16580 0.00626
 H275 H 0.44442 -0.25648 0.00254
 H276 H 0.58855 -0.20071 0.01959
 H277 H 0.54930 -0.12170 0.01921
 H278 H 0.40506 -0.17749 0.00274
 H279 H 0.58674 -0.28260 0.01642
 H280 H 0.40594 -0.09497 0.00847
 C281 C 0.56278 0.28218 0.01658
 C282 C 0.52129 0.31700 0.02578
 C283 C 0.47914 0.30632 0.03995
 C284 C 0.47846 0.26091 0.04333
 C285 C 0.52043 0.22600 0.03296
 C286 C 0.56238 0.23720 0.02017
 C287 C 0.51984 0.18007 0.03447
 C288 C 0.47776 0.16800 0.04565
 C289 C 0.43621 0.20328 0.05693
 C290 C 0.43656 0.24934 0.05589
 H291 H 0.44690 0.33275 0.04691
 H292 H 0.59489 0.21096 0.01238
 H293 H 0.55220 0.15334 0.02565
 H294 H 0.40401 0.27562 0.06407
 H295 H 0.59574 0.28979 0.00658
 H296 H 0.40330 0.19503 0.06566
 C297 C -0.29935 -0.01915 0.54798
 C298 C -0.31955 -0.00222 0.51481
 C299 C -0.29080 0.01008 0.48161
 C300 C -0.24356 0.00555 0.48148
 C301 C -0.22438 -0.01019 0.51578
 C302 C -0.25254 -0.02249 0.54879
 C303 C -0.17725 -0.01384 0.51614
 C304 C -0.14877 -0.00347 0.48159
 C305 C -0.16793 0.01103 0.44691
 C306 C -0.21504 0.01601 0.44715
 H307 H -0.30440 0.02110 0.45419
 H308 H -0.23837 -0.03473 0.57532
 H309 H -0.16253 -0.02573 0.54261
 H310 H -0.22911 0.02780 0.42034
 H311 H -0.31996 -0.02790 0.57494
 H312 H -0.14654 0.01921 0.42000
 C313 C 0.23735 0.00599 0.56973
 C314 C 0.26932 -0.00345 0.52744
 C315 C 0.25524 -0.01793 0.48375
 C316 C 0.20960 -0.02186 0.48246
 C317 C 0.17769 -0.01147 0.52533
 C318 C 0.19202 0.00203 0.56870
 C319 C 0.13176 -0.01391 0.52428
 C320 C 0.11689 -0.02620 0.48091
 C321 C 0.14911 -0.03735 0.43837
 C322 C 0.19506 -0.03527 0.43913
 H323 H 0.27942 -0.02498 0.45091
 H324 H 0.16807 0.00986 0.60188
 H325 H 0.10738 -0.00520 0.55740
 H326 H 0.21904 -0.04347 0.40588
 H327 H 0.24751 0.01623 0.60376
 H328 H 0.13864 -0.04690 0.40446
 C329 C 0.01783 0.41100 1.23151
 C330 C 0.01839 0.45453 1.26564
 C331 C 0.02112 0.49446 1.25163
 C332 C 0.02261 0.49111 1.20401
 C333 C 0.02237 0.44700 1.16988
 C334 C 0.02011 0.40715 1.18398
 C335 C 0.02419 0.44347 1.12224
 C336 C 0.02551 0.48366 1.10820
 C337 C 0.02513 0.52752 1.14251
 C338 C 0.02395 0.53116 1.18994
 H339 H 0.02111 0.52826 1.27795
 H340 H 0.01984 0.37310 1.15831
 H341 H 0.02418 0.40952 1.09620
 H342 H 0.02399 0.56529 1.21561
 H343 H 0.01604 0.37976 1.24165
 H344 H 0.02630 0.55897 1.13257
 C345 C 0.01417 0.53924 0.72192
 C346 C 0.02299 0.49432 0.68590
 C347 C 0.03553 0.45232 0.69713
 C348 C 0.03818 0.45523 0.74399
 C349 C 0.02856 0.50066 0.77994
 C350 C 0.01695 0.54240 0.76846
 C351 C 0.03004 0.50372 0.82694
 C352 C 0.04064 0.46194 0.83888
 C353 C 0.05076 0.41688 0.80277
 C354 C 0.04962 0.41356 0.75574
 H355 H 0.04211 0.41749 0.66972
 H356 H 0.00971 0.57751 0.79554
 H357 H 0.02214 0.53873 0.85433
 H358 H 0.05715 0.37841 0.72868
 H359 H 0.00532 0.57211 0.71401
 H360 H 0.05906 0.38412 0.81095
   
