data_POSCAR
  _audit_creation_date              2014-09-24
  _audit_creation_method            'ToBaCCo'
  _symmetry_space_group_name_H-M    'P1'
  _symmetry_Int_Tables_number       1
  _symmetry_cell_setting            triclinic
  loop_
  _symmetry_equiv_pos_as_xyz
 x,y,z
_cell_length_a 36.0455
_cell_length_b 33.8776
_cell_length_c 31.5653
_cell_angle_alpha 90.444800
_cell_angle_beta 89.622200
_cell_angle_gamma 89.894400
loop_
  _atom_site_label
  _atom_site_type_symbol
  _atom_site_fract_x
  _atom_site_fract_y
  _atom_site_fract_z
C1 C 1.25351 0.24784 0.25014
 C2 C 0.75508 -0.24927 0.24889
 C3 C 0.74956 0.24615 -0.25530
 C4 C 1.24725 -0.25074 -0.24433
 C5 C 0.24908 0.25040 0.74948
 C6 C 0.74965 0.75063 0.74957
 C7 C 0.74666 0.25339 0.25384
 C8 C 0.24591 0.75269 0.24772
 O9 O 1.06303 -0.05337 0.07517
 O10 O 1.03113 -0.09658 0.03257
 C11 C 1.05471 -0.08878 0.06242
 O12 O 0.92909 0.05529 0.07443
 O13 O 0.96439 0.10085 0.03901
 C14 C 0.93800 0.09133 0.06510
 O15 O 0.93444 -0.05477 0.07373
 O16 O 0.96866 -0.09736 0.03215
 C17 C 0.94386 -0.08997 0.06117
 O18 O 1.06521 0.05639 0.07626
 O19 O 1.02966 0.10145 0.04066
 C20 C 1.05556 0.09227 0.06725
 Zr21 Zr 1.04547 0.00207 0.05256
 O22 O 1.05032 0.00053 0.11927
 O23 O 1.10377 0.00198 0.04489
 Zr24 Zr 0.95195 0.00124 0.05268
 O25 O 0.95101 0.00273 0.11976
 O26 O 0.89343 -0.00134 0.04944
 O27 O 0.99902 -0.03383 0.05953
 O28 O 0.99818 0.03591 0.06212
 O29 O 1.06705 0.06124 -0.07063
 O30 O 1.03106 0.10391 -0.03121
 C31 C 1.05744 0.09645 -0.05833
 O32 O 0.93475 -0.05003 -0.07929
 O33 O 0.96842 -0.09491 -0.04125
 C34 C 0.94419 -0.08587 -0.06981
 O35 O 0.93005 0.05952 -0.07047
 O36 O 0.96557 0.10311 -0.03236
 C37 C 0.93929 0.09501 -0.05899
 O38 O 1.06348 -0.04782 -0.08142
 O39 O 1.03138 -0.09399 -0.04307
 C40 C 1.05475 -0.08395 -0.07261
 Zr41 Zr 1.04609 0.00565 -0.05328
 O42 O 1.04944 0.01196 -0.11982
 O43 O 1.10447 0.00405 -0.04747
 Zr44 Zr 0.95270 0.00448 -0.05375
 O45 O 0.95478 0.01103 -0.12042
 O46 O 0.89416 0.00050 -0.05518
 Zr47 Zr 0.99972 -0.05598 -0.00314
 Zr48 Zr 0.99821 0.06273 0.00225
 O49 O 0.99903 0.03985 -0.05988
 O50 O 0.99983 -0.02997 -0.06362
 O51 O 1.05249 0.03948 0.00134
 O52 O 0.94593 -0.03167 -0.00201
 O53 O 1.05299 -0.03103 -0.00202
 O54 O 0.94463 0.03806 0.00103
 H55 H 0.99741 0.05297 0.08775
 H56 H 0.92404 -0.04931 -0.00273
 H57 H 0.99909 0.05844 -0.08397
 H58 H 1.07480 -0.04889 -0.00300
 H59 H 0.88429 -0.00234 0.07910
 H60 H 0.88464 0.01501 -0.03003
 H61 H 0.96650 -0.01297 -0.13262
 H62 H 1.02939 -0.00428 -0.13209
 H63 H 1.11454 0.00404 -0.07676
 H64 H 1.11416 -0.00006 0.07377
 H65 H 1.02584 0.00778 0.13123
 H66 H 0.96719 -0.01892 0.12963
 O67 O 1.05669 0.57069 0.57231
 O68 O 1.09637 0.53277 0.53200
 C69 C 1.08968 0.55932 0.56088
 O70 O 0.95045 0.43279 0.57860
 O71 O 0.90926 0.46993 0.54064
 C72 C 0.91700 0.44330 0.56847
 O73 O 1.05433 0.43509 0.57904
 O74 O 1.09507 0.46681 0.53477
 C75 C 1.08763 0.44350 0.56602
 O76 O 0.95385 0.57726 0.57184
 O77 O 0.91050 0.53949 0.53747
 C78 C 0.91988 0.56763 0.56342
 Zr79 Zr 1.00428 0.55270 0.55027
 O80 O 1.00273 0.55661 0.61720
 O81 O 1.00911 0.61482 0.54586
 Zr82 Zr 1.00224 0.45371 0.55589
 O83 O 1.00195 0.46165 0.62237
 O84 O 1.00507 0.39159 0.56178
 O85 O 1.03665 0.50272 0.55998
 O86 O 0.97093 0.50446 0.56219
 O87 O 0.94982 0.57076 0.42521
 O88 O 0.90887 0.53583 0.46634
 C89 C 0.91646 0.56180 0.43764
 O90 O 1.05035 0.42609 0.42455
 O91 O 1.09322 0.46227 0.46169
 C92 C 1.08423 0.43529 0.43433
 O93 O 0.94683 0.42548 0.43287
 O94 O 0.90731 0.46624 0.47015
 C95 C 0.91389 0.43692 0.44453
 O96 O 1.05325 0.56451 0.41757
 O97 O 1.09458 0.52919 0.45739
 C98 C 1.08673 0.55399 0.42763
 Zr99 Zr 1.00158 0.54691 0.44356
 O100 O 0.99864 0.53680 0.37752
 O101 O 1.00296 0.60868 0.43432
 Zr102 Zr 0.99952 0.44809 0.44905
 O103 O 0.99418 0.44608 0.38230
 O104 O 1.00217 0.38570 0.45098
 Zr105 Zr 1.05748 0.49892 0.49758
 Zr106 Zr 0.94624 0.50193 0.50206
 O107 O 0.96765 0.49802 0.43996
 O108 O 1.03375 0.49620 0.43677
 O109 O 0.97005 0.55860 0.49787
 O110 O 1.03293 0.44270 0.50165
 O111 O 1.03545 0.55634 0.49538
 O112 O 0.96770 0.44397 0.50419
 H113 H 0.95482 0.50604 0.58771
 H114 H 1.04889 0.41888 0.50249
 H115 H 0.95009 0.49713 0.41595
 H116 H 1.05283 0.57892 0.49396
 H117 H 0.98639 0.38024 0.54244
 H118 H 0.98299 0.37673 0.47125
 H119 H 1.01450 0.46212 0.37016
 H120 H 0.99832 0.56323 0.36429
 H121 H 1.01308 0.62071 0.46038
 H122 H 0.98832 0.62429 0.52827
 H123 H 1.01877 0.53528 0.62808
 H124 H 1.00192 0.43482 0.63463
 O125 O 0.54827 0.06234 0.58060
 O126 O 0.59021 0.02901 0.53851
 C127 C 0.58191 0.05308 0.56942
 O128 O 0.44502 -0.07786 0.56812
 O129 O 0.40399 -0.03793 0.53315
 C130 C 0.41162 -0.06682 0.55851
 O131 O 0.54855 -0.07485 0.57239
 O132 O 0.59002 -0.03749 0.53452
 C133 C 0.58207 -0.06436 0.56209
 O134 O 0.44522 0.06644 0.57618
 O135 O 0.40380 0.03159 0.53564
 C136 C 0.41175 0.05733 0.56492
 Zr137 Zr 0.49694 0.04493 0.55481
 O138 O 0.49259 0.04231 0.62165
 O139 O 0.50117 0.10727 0.55754
 Zr140 Zr 0.49682 -0.05394 0.55008
 O141 O 0.49515 -0.04999 0.61691
 O142 O 0.49672 -0.11635 0.55270
 O143 O 0.53017 -0.00498 0.56084
 O144 O 0.46412 -0.00471 0.55986
 O145 O 0.44700 0.07414 0.43077
 O146 O 0.40476 0.03468 0.46484
 C147 C 0.41330 0.06412 0.44048
 O148 O 0.54977 -0.06989 0.41946
 O149 O 0.59070 -0.03454 0.46026
 C150 C 0.58309 -0.05991 0.43057
 O151 O 0.44659 -0.07198 0.42166
 O152 O 0.40454 -0.03617 0.46109
 C153 C 0.41293 -0.06246 0.43238
 O154 O 0.55028 0.06919 0.42614
 O155 O 0.59094 0.03164 0.46439
 C156 C 0.58358 0.05850 0.43667
 Zr157 Zr 0.49814 0.04896 0.44821
 O158 O 0.49434 0.04889 0.38126
 O159 O 0.50252 0.11124 0.44892
 Zr160 Zr 0.49789 -0.05023 0.44323
 O161 O 0.49488 -0.04633 0.37640
 O162 O 0.50087 -0.11259 0.43958
 Zr163 Zr 0.55309 -0.00276 0.49928
 Zr164 Zr 0.44154 -0.00238 0.49858
 O165 O 0.46546 -0.00014 0.43768
 O166 O 0.53141 -0.00049 0.43750
 O167 O 0.46440 0.05489 0.50176
 O168 O 0.52967 -0.05954 0.49644
 O169 O 0.52986 0.05421 0.50214
 O170 O 0.46423 -0.05982 0.49604
 H171 H 0.44718 -0.00559 0.58468
 H172 H 0.54637 -0.08276 0.49526
 H173 H 0.44871 0.00106 0.41295
 H174 H 0.54649 0.07743 0.50358
 H175 H 0.50749 -0.12633 0.52583
 H176 H 0.48176 -0.12314 0.45908
 H177 H 0.51707 -0.03187 0.36648
 H178 H 0.51709 0.03630 0.36976
 H179 H 0.48566 0.12120 0.47141
 H180 H 0.47951 0.11840 0.54266
 H181 H 0.51091 0.02263 0.63137
 H182 H 0.49462 -0.07752 0.62725
 O183 O 0.55265 0.56934 0.07796
 O184 O 0.59361 0.53264 0.03786
 C185 C 0.58604 0.55841 0.06727
 O186 O 0.44717 0.42996 0.07108
 O187 O 0.40704 0.46820 0.03285
 C188 C 0.41406 0.44045 0.05983
 O189 O 0.55043 0.43169 0.07687
 O190 O 0.59264 0.46593 0.03680
 C191 C 0.58415 0.44057 0.06576
 O192 O 0.44845 0.57492 0.07202
 O193 O 0.40763 0.53783 0.03286
 C194 C 0.41506 0.56528 0.06035
 Zr195 Zr 0.50087 0.55156 0.05278
 O196 O 0.49605 0.55179 0.11966
 O197 O 0.50604 0.61382 0.05249
 Zr198 Zr 0.49937 0.45239 0.05277
 O199 O 0.49665 0.45855 0.11941
 O200 O 0.50136 0.39014 0.05680
 O201 O 0.53333 0.50124 0.06135
 O202 O 0.46735 0.50261 0.05992
 O203 O 0.45248 0.57418 -0.07529
 O204 O 0.40942 0.53834 -0.03814
 C205 C 0.41858 0.56505 -0.06563
 O206 O 0.55326 0.43111 -0.07730
 O207 O 0.59428 0.46595 -0.03618
 C208 C 0.58667 0.44040 -0.06566
 O209 O 0.44914 0.42985 -0.07562
 O210 O 0.40827 0.46877 -0.03808
 C211 C 0.41579 0.44088 -0.06509
 O212 O 0.55564 0.56822 -0.07691
 O213 O 0.59550 0.53176 -0.03641
 C214 C 0.58867 0.55742 -0.06561
 Zr215 Zr 0.50302 0.55069 -0.05407
 O216 O 0.50022 0.55009 -0.12106
 O217 O 0.50831 0.61294 -0.05397
 Zr218 Zr 0.50104 0.45126 -0.05442
 O219 O 0.49812 0.45145 -0.12139
 O220 O 0.50405 0.38882 -0.05439
 Zr221 Zr 0.55648 0.50010 -0.00016
 Zr222 Zr 0.44548 0.50269 -0.00173
 O223 O 0.46980 0.50171 -0.06252
 O224 O 0.53533 0.50015 -0.06223
 O225 O 0.46891 0.55971 -0.00125
 O226 O 0.53217 0.44368 -0.00039
 O227 O 0.53441 0.55763 -0.00015
 O228 O 0.46703 0.44476 -0.00130
 H229 H 0.44998 0.50294 0.08437
 H230 H 0.54818 0.41990 -0.00021
 H231 H 0.45354 0.50192 -0.08770
 H232 H 0.55166 0.58038 0.00010
 H233 H 0.48717 0.37973 0.03251
 H234 H 0.48208 0.37893 -0.03886
 H235 H 0.51998 0.46598 -0.13213
 H236 H 0.52093 0.53356 -0.13178
 H237 H 0.48796 0.62386 -0.03626
 H238 H 0.48509 0.62450 0.03604
 H239 H 0.51426 0.53251 0.13051
 H240 H 0.49588 0.43139 0.13078
 C241 C 1.23139 0.22381 0.21823
 C242 C 1.19296 0.22658 0.21240
 C243 C 1.17200 0.19913 0.18489
 C244 C 1.13711 0.21061 0.16967
 C245 C 1.11571 0.18450 0.14551
 C246 C 1.12884 0.14622 0.13643
 C247 C 1.16364 0.13480 0.15182
 C248 C 1.18499 0.16084 0.17581
 C249 C 1.10678 0.11645 0.11320
 C250 C 1.07544 0.12451 0.08885
 H251 H 1.17725 0.24948 0.22849
 H252 H 1.12624 0.23975 0.17686
 H253 H 1.08867 0.19414 0.13512
 H254 H 1.17419 0.10531 0.14577
 H255 H 1.21102 0.15026 0.18826
 H256 H 1.11648 0.08619 0.11474
 H257 H 1.24703 0.20273 0.19927
 H258 H 1.06604 0.15448 0.08425
 C259 C 1.22383 0.72666 0.72364
 C260 C 1.22570 0.68608 0.71525
 C261 C 1.19811 0.66625 0.68802
 C262 C 1.20801 0.63212 0.66509
 C263 C 1.18185 0.61258 0.63992
 C264 C 1.14520 0.62680 0.63774
 C265 C 1.13534 0.66053 0.66128
 C266 C 1.16137 0.68001 0.68616
 C267 C 1.11571 0.60681 0.61339
 C268 C 1.12146 0.57777 0.58235
 H269 H 1.24773 0.66832 0.72828
 H270 H 1.23602 0.62058 0.66671
 H271 H 1.19030 0.58607 0.62316
 H272 H 1.10715 0.67170 0.66081
 H273 H 1.15230 0.70523 0.70478
 H274 H 1.08750 0.61619 0.62008
 H275 H 1.20363 0.74365 0.70625
 H276 H 1.14915 0.56847 0.57343
 C277 C 0.73039 0.21677 0.71536
 C278 C 0.70204 0.19212 0.73016
 C279 C 0.67933 0.16551 0.70338
 C280 C 0.64569 0.15186 0.72025
 C281 C 0.62238 0.12785 0.69629
 C282 C 0.63228 0.11630 0.65498
 C283 C 0.66642 0.12906 0.63812
 C284 C 0.68981 0.15347 0.66217
 C285 C 0.60487 0.09341 0.63021
 C286 C 0.61242 0.07182 0.59317
 H287 H 0.69422 0.19463 0.76329
 H288 H 0.63698 0.16045 0.75193
 H289 H 0.59622 0.11856 0.71003
 H290 H 0.67474 0.12116 0.60618
 H291 H 0.71586 0.16272 0.64833
 H292 H 0.57666 0.09345 0.64235
 H293 H 0.73752 0.21648 0.68199
 H294 H 0.64057 0.06848 0.58158
 C295 C 0.72719 0.72913 0.22120
 C296 C 0.73020 0.68973 0.20788
 C297 C 0.70019 0.66883 0.18491
 C298 C 0.70878 0.63480 0.16114
 C299 C 0.68096 0.61388 0.13989
 C300 C 0.64376 0.62659 0.14216
 C301 C 0.63516 0.66016 0.16667
 C302 C 0.66292 0.68102 0.18785
 C303 C 0.61296 0.60568 0.12047
 C304 C 0.61774 0.57666 0.08919
 H305 H 0.75561 0.67367 0.21372
 H306 H 0.73715 0.62431 0.15901
 H307 H 0.68886 0.58760 0.12244
 H308 H 0.60672 0.67028 0.16965
 H309 H 0.65480 0.70610 0.20720
 H310 H 0.58494 0.61475 0.12853
 H311 H 0.70365 0.74626 0.21065
 H312 H 0.64522 0.56773 0.07911
 C313 C 0.77617 -0.21962 0.22221
 C314 C 0.79641 -0.23036 0.18596
 C315 C 0.82029 -0.20176 0.16351
 C316 C 0.85266 -0.21484 0.14274
 C317 C 0.87676 -0.18778 0.12356
 C318 C 0.86850 -0.14716 0.12459
 C319 C 0.83547 -0.13446 0.14420
 C320 C 0.81153 -0.16137 0.16319
 C321 C 0.89324 -0.11660 0.10674
 C322 C 0.92380 -0.12348 0.08010
 H323 H 0.79709 -0.26107 0.17615
 H324 H 0.85983 -0.24591 0.14239
 H325 H 0.90195 -0.19880 0.10893
 H326 H 0.82815 -0.10342 0.14502
 H327 H 0.78615 -0.15039 0.17756
 H328 H 0.88582 -0.08625 0.11394
 H329 H 0.77995 -0.19015 0.23500
 H330 H 0.93167 -0.15311 0.07077
 C331 C 0.77777 0.26890 0.71835
 C332 C 0.77439 0.30856 0.70689
 C333 C 0.80410 0.33000 0.68413
 C334 C 0.79479 0.36271 0.65938
 C335 C 0.82232 0.38409 0.63817
 C336 C 0.85994 0.37322 0.64160
 C337 C 0.86917 0.34089 0.66705
 C338 C 0.84166 0.31951 0.68811
 C339 C 0.89048 0.39472 0.62007
 C340 C 0.88545 0.42395 0.58964
 H341 H 0.74885 0.32430 0.71362
 H342 H 0.76607 0.37166 0.65629
 H343 H 0.81376 0.40916 0.61971
 H344 H 0.89789 0.33217 0.67080
 H345 H 0.85004 0.29536 0.70815
 H346 H 0.91861 0.38633 0.62798
 H347 H 0.80163 0.25238 0.70693
 H348 H 0.85795 0.43265 0.58001
 C349 C 0.27386 -0.22167 0.73479
 C350 C 0.27492 -0.21320 0.69137
 C351 C 0.30286 -0.18675 0.67192
 C352 C 0.29474 -0.16830 0.63336
 C353 C 0.32113 -0.14453 0.61314
 C354 C 0.35641 -0.13905 0.63104
 C355 C 0.36456 -0.15781 0.66941
 C356 C 0.33816 -0.18133 0.68969
 C357 C 0.38612 -0.11599 0.60996
 C358 C 0.38032 -0.08824 0.57804
 H359 H 0.25412 -0.22555 0.67063
 H360 H 0.26794 -0.17252 0.61867
 H361 H 0.31404 -0.13152 0.58309
 H362 H 0.39169 -0.15460 0.68358
 H363 H 0.34597 -0.19615 0.71853
 H364 H 0.41417 -0.12047 0.62115
 H365 H 0.29287 -0.20639 0.75566
 H366 H 0.35252 -0.08103 0.56797
 C367 C 0.28407 0.26919 0.22621
 C368 C 0.27652 0.29688 0.19466
 C369 C 0.30538 0.32095 0.17344
 C370 C 0.29661 0.34034 0.13561
 C371 C 0.32298 0.36371 0.11487
 C372 C 0.35868 0.36835 0.13192
 C373 C 0.36727 0.34928 0.16993
 C374 C 0.34093 0.32614 0.19069
 C375 C 0.38824 0.39146 0.11085
 C376 C 0.38250 0.41935 0.07907
 H377 H 0.24800 0.30092 0.18495
 H378 H 0.26932 0.33710 0.12185
 H379 H 0.31542 0.37734 0.08530
 H380 H 0.39450 0.35249 0.18385
 H381 H 0.34857 0.31305 0.22049
 H382 H 0.41628 0.38685 0.12201
 H383 H 0.31261 0.26234 0.23361
 H384 H 0.35480 0.42648 0.06861
 C385 C 0.76872 0.22285 -0.22052
 C386 C 0.80468 0.23015 -0.20579
 C387 C 0.82447 0.20276 -0.17731
 C388 C 0.85517 0.21631 -0.15422
 C389 C 0.87579 0.19038 -0.12917
 C390 C 0.86608 0.15021 -0.12705
 C391 C 0.83528 0.13688 -0.15002
 C392 C 0.81483 0.16265 -0.17497
 C393 C 0.88765 0.12049 -0.10332
 C394 C 0.91859 0.12802 -0.07795
 H395 H 0.81911 0.25656 -0.21568
 H396 H 0.86343 0.24700 -0.15590
 H397 H 0.89948 0.20189 -0.11236
 H398 H 0.82736 0.10604 -0.14941
 H399 H 0.79231 0.15055 -0.19339
 H400 H 0.87868 0.09012 -0.10677
 H401 H 0.75298 0.19955 -0.20566
 H402 H 0.92793 0.15781 -0.07188
 C403 C 0.78359 0.72379 0.26920
 C404 C 0.77449 0.69322 0.29684
 C405 C 0.80333 0.66933 0.31791
 C406 C 0.79603 0.65335 0.35795
 C407 C 0.82359 0.63260 0.37957
 C408 C 0.85889 0.62697 0.36108
 C409 C 0.86572 0.64200 0.32049
 C410 C 0.83823 0.66267 0.29897
 C411 C 0.88965 0.60680 0.38314
 C412 C 0.88488 0.58191 0.41778
 H413 H 0.74565 0.68845 0.30518
 H414 H 0.76925 0.65784 0.37304
 H415 H 0.81729 0.62202 0.41101
 H416 H 0.89249 0.63774 0.30531
 H417 H 0.84441 0.67316 0.26742
 H418 H 0.91739 0.61066 0.37038
 H419 H 0.81268 0.73031 0.26399
 H420 H 0.85741 0.57546 0.42975
 C421 C 0.27104 0.21884 0.28087
 C422 C 0.29578 0.23091 0.31234
 C423 C 0.31768 0.20322 0.33845
 C424 C 0.35090 0.21681 0.35612
 C425 C 0.37379 0.19133 0.37866
 C426 C 0.36380 0.15173 0.38474
 C427 C 0.32986 0.13826 0.36842
 C428 C 0.30695 0.16381 0.34552
 C429 C 0.39089 0.12541 0.40558
 C430 C 0.38309 0.08828 0.42268
 H431 H 0.30169 0.26218 0.31527
 H432 H 0.35975 0.24702 0.35143
 H433 H 0.39978 0.20253 0.39088
 H434 H 0.32138 0.10787 0.37214
 H435 H 0.28105 0.15248 0.33339
 H436 H 0.41902 0.13644 0.40799
 H437 H 0.26622 0.18759 0.27611
 H438 H 0.35494 0.07737 0.42421
 C439 C 0.26911 0.72126 -0.21630
 C440 C 0.30320 0.70494 -0.22855
 C441 C 0.32587 0.67963 -0.20075
 C442 C 0.36413 0.67764 -0.20839
 C443 C 0.38697 0.65532 -0.18235
 C444 C 0.37213 0.63404 -0.14822
 C445 C 0.33361 0.63516 -0.14097
 C446 C 0.31066 0.65771 -0.16709
 C447 C 0.39833 0.61200 -0.12124
 C448 C 0.38898 0.58605 -0.08850
 H449 H 0.31495 0.71324 -0.25888
 H450 H 0.37654 0.69399 -0.23420
 H451 H 0.41653 0.65490 -0.18883
 H452 H 0.32104 0.61911 -0.11516
 H453 H 0.28113 0.65750 -0.16094
 H454 H 0.42747 0.61619 -0.12846
 H455 H 0.25713 0.71280 -0.18621
 H456 H 0.36037 0.57993 -0.08050
 C457 C 1.22085 -0.22712 -0.21621
 C458 C 1.19675 -0.19881 -0.23267
 C459 C 1.16911 -0.17675 -0.20691
 C460 C 1.15473 -0.14157 -0.22313
 C461 C 1.12919 -0.11930 -0.19969
 C462 C 1.11704 -0.13190 -0.15968
 C463 C 1.13055 -0.16777 -0.14380
 C464 C 1.15623 -0.19010 -0.16731
 C465 C 1.09263 -0.10520 -0.13481
 C466 C 1.07333 -0.11512 -0.09777
 H467 H 1.19898 -0.19173 -0.26601
 H468 H 1.16381 -0.13088 -0.25375
 H469 H 1.11924 -0.09176 -0.21268
 H470 H 1.12212 -0.17830 -0.11297
 H471 H 1.16570 -0.21775 -0.15434
 H472 H 1.09034 -0.07520 -0.14621
 H473 H 1.22090 -0.23195 -0.18237
 H474 H 1.07212 -0.14529 -0.08690
 C475 C 1.22930 0.27860 0.27254
 C476 C 1.21564 0.27582 0.31392
 C477 C 1.18873 0.30481 0.33093
 C478 C 1.19074 0.31665 0.37349
 C479 C 1.16518 0.34383 0.39016
 C480 C 1.13677 0.35896 0.36457
 C481 C 1.13430 0.34636 0.32230
 C482 C 1.16020 0.31979 0.30547
 C483 C 1.10797 0.38575 0.38172
 C484 C 1.11453 0.41255 0.41451
 H485 H 1.22494 0.25261 0.33466
 H486 H 1.21222 0.30500 0.39374
 H487 H 1.16710 0.35210 0.42327
 H488 H 1.11225 0.35712 0.30226
 H489 H 1.15731 0.31029 0.27284
 H490 H 1.08075 0.38478 0.36737
 H491 H 1.22019 0.30345 0.25386
 H492 H 1.14235 0.41642 0.42660
 C493 C 0.73329 -0.22773 0.28356
 C494 C 0.71272 -0.19351 0.27563
 C495 C 0.68898 -0.17408 0.30784
 C496 C 0.68612 -0.13278 0.30821
 C497 C 0.66179 -0.11363 0.33631
 C498 C 0.63923 -0.13565 0.36378
 C499 C 0.64209 -0.17698 0.36338
 C500 C 0.66709 -0.19608 0.33601
 C501 C 0.61033 -0.11653 0.39023
 C502 C 0.61424 -0.07897 0.40809
 H503 H 0.71484 -0.17963 0.24492
 H504 H 0.70252 -0.11535 0.28642
 H505 H 0.65957 -0.08178 0.33526
 H506 H 0.62460 -0.19452 0.38395
 H507 H 0.66817 -0.22803 0.33571
 H508 H 0.58521 -0.13306 0.39660
 H509 H 0.73144 -0.24065 0.31479
 H510 H 0.64070 -0.06395 0.40669
 C511 C 0.72023 0.27294 -0.23547
 C512 C 0.72723 0.29807 -0.20111
 C513 C 0.69784 0.32223 -0.18041
 C514 C 0.70773 0.35595 -0.15699
 C515 C 0.68057 0.37899 -0.13659
 C516 C 0.64288 0.36837 -0.13883
 C517 C 0.63312 0.33453 -0.16211
 C518 C 0.66019 0.31157 -0.18242
 C519 C 0.61277 0.39147 -0.11799
 C520 C 0.61818 0.42029 -0.08669
 H521 H 0.75535 0.30049 -0.18946
 H522 H 0.73655 0.36472 -0.15480
 H523 H 0.68935 0.40518 -0.11972
 H524 H 0.60437 0.32550 -0.16425
 H525 H 0.65144 0.28510 -0.19890
 H526 H 0.58455 0.38417 -0.12669
 H527 H 0.69330 0.27420 -0.25041
 H528 H 0.64579 0.42755 -0.07606
 C529 C 1.22986 0.22659 -0.21601
 C530 C 1.19467 0.23506 -0.19912
 C531 C 1.17414 0.20683 -0.17219
 C532 C 1.14485 0.22036 -0.14632
 C533 C 1.12363 0.19378 -0.12253
 C534 C 1.13130 0.15305 -0.12460
 C535 C 1.16067 0.13974 -0.15039
 C536 C 1.18168 0.16614 -0.17407
 C537 C 1.10940 0.12288 -0.10184
 C538 C 1.07792 0.12988 -0.07672
 H539 H 1.18133 0.26283 -0.20643
 H540 H 1.13826 0.25155 -0.14469
 H541 H 1.10129 0.20535 -0.10310
 H542 H 1.16702 0.10853 -0.15293
 H543 H 1.20300 0.15419 -0.19477
 H544 H 1.11848 0.09258 -0.10606
 H545 H 1.24478 0.20167 -0.20329
 H546 H 1.06805 0.15949 -0.07042
 C547 C 1.21959 0.72876 0.27119
 C548 C 1.22615 0.69050 0.28628
 C549 C 1.19715 0.66737 0.30842
 C550 C 1.20761 0.63805 0.33716
 C551 C 1.18074 0.61589 0.35863
 C552 C 1.14268 0.62239 0.35133
 C553 C 1.13242 0.65115 0.32179
 C554 C 1.15923 0.67328 0.30047
 C555 C 1.11266 0.60067 0.37368
 C556 C 1.11812 0.57199 0.40467
 H557 H 1.25352 0.67752 0.28312
 H558 H 1.23668 0.63264 0.34344
 H559 H 1.19018 0.59404 0.38082
 H560 H 1.10341 0.65661 0.31515
 H561 H 1.15008 0.69457 0.27737
 H562 H 1.08438 0.60852 0.36586
 H563 H 1.19377 0.74283 0.28080
 H564 H 1.14573 0.56300 0.41358
 C565 C 0.71714 0.23278 0.27987
 C566 C 0.72474 0.19973 0.30459
 C567 C 0.69529 0.17655 0.32574
 C568 C 0.65868 0.17603 0.31061
 C569 C 0.63155 0.15362 0.33088
 C570 C 0.64029 0.13081 0.36633
 C571 C 0.67701 0.13094 0.38129
 C572 C 0.70425 0.15343 0.36092
 C573 C 0.60997 0.10850 0.38702
 C574 C 0.61522 0.07855 0.41653
 H575 H 0.75335 0.19062 0.30844
 H576 H 0.65087 0.19228 0.28269
 H577 H 0.60355 0.15392 0.31859
 H578 H 0.68486 0.11441 0.40897
 H579 H 0.73231 0.15319 0.37300
 H580 H 0.58186 0.11571 0.37783
 H581 H 0.68895 0.24388 0.27872
 H582 H 0.64283 0.06928 0.42523
 C583 C 0.73093 0.72719 -0.21540
 C584 C 0.72313 0.68681 -0.21757
 C585 C 0.69725 0.66782 -0.18763
 C586 C 0.70182 0.62782 -0.17770
 C587 C 0.67610 0.60871 -0.15156
 C588 C 0.64508 0.62934 -0.13558
 C589 C 0.64054 0.66925 -0.14570
 C590 C 0.66637 0.68840 -0.17131
 C591 C 0.61538 0.60981 -0.11123
 C592 C 0.62036 0.57580 -0.08726
 H593 H 0.73526 0.66860 -0.24234
 H594 H 0.72511 0.61128 -0.19054
 H595 H 0.67984 0.57761 -0.14527
 H596 H 0.61652 0.68555 -0.13431
 H597 H 0.66127 0.71887 -0.17957
 H598 H 0.58828 0.62372 -0.11135
 H599 H 0.71984 0.74413 -0.18892
 H600 H 0.64771 0.56323 -0.08318
 C601 C 0.77587 -0.21873 -0.23182
 C602 C 0.79586 -0.22447 -0.19445
 C603 C 0.82250 -0.19540 -0.17713
 C604 C 0.84891 -0.20807 -0.14769
 C605 C 0.87393 -0.18137 -0.12968
 C606 C 0.87287 -0.14120 -0.14070
 C607 C 0.84639 -0.12862 -0.17013
 C608 C 0.82140 -0.15526 -0.18804
 C609 C 0.89723 -0.11095 -0.12126
 C610 C 0.92509 -0.11845 -0.09174
 H611 H 0.79287 -0.25212 -0.17780
 H612 H 0.85011 -0.23878 -0.13847
 H613 H 0.89346 -0.19248 -0.10686
 H614 H 0.84460 -0.09780 -0.17885
 H615 H 0.80078 -0.14392 -0.20950
 H616 H 0.89192 -0.08053 -0.12976
 H617 H 0.78175 -0.19291 -0.25061
 H618 H 0.93224 -0.14825 -0.08299
 C619 C 0.77653 0.26933 0.28301
 C620 C 0.77002 0.29897 0.31324
 C621 C 0.80027 0.31917 0.33633
 C622 C 0.79178 0.34124 0.37298
 C623 C 0.81950 0.36221 0.39431
 C624 C 0.85625 0.36167 0.37902
 C625 C 0.86470 0.33941 0.34260
 C626 C 0.83708 0.31872 0.32123
 C627 C 0.88675 0.38335 0.39982
 C628 C 0.88182 0.41541 0.42735
 H629 H 0.74175 0.30834 0.31949
 H630 H 0.76361 0.34226 0.38511
 H631 H 0.81202 0.37836 0.42280
 H632 H 0.89276 0.33866 0.33008
 H633 H 0.84476 0.30339 0.29232
 H634 H 0.91478 0.37482 0.39103
 H635 H 0.80398 0.25647 0.28081
 H636 H 0.85430 0.42575 0.43567
 C637 C 0.26383 -0.22083 0.27776
 C638 C 0.29248 -0.19514 0.26544
 C639 C 0.31560 -0.17147 0.29473
 C640 C 0.35070 -0.15975 0.28030
 C641 C 0.37428 -0.13819 0.30640
 C642 C 0.36321 -0.12706 0.34745
 C643 C 0.32771 -0.13797 0.36199
 C644 C 0.30405 -0.16013 0.33580
 C645 C 0.39063 -0.10612 0.37404
 C646 C 0.38258 -0.08267 0.40963
 H647 H 0.30079 -0.19522 0.23235
 H648 H 0.36029 -0.16794 0.24882
 H649 H 0.40150 -0.13027 0.29443
 H650 H 0.31851 -0.13025 0.39369
 H651 H 0.27688 -0.16804 0.34770
 H652 H 0.41925 -0.10803 0.36344
 H653 H 0.25677 -0.22226 0.31119
 H654 H 0.35419 -0.07782 0.41976
 C655 C 0.27904 0.27581 -0.23062
 C656 C 0.27227 0.30155 -0.19666
 C657 C 0.30222 0.32428 -0.17586
 C658 C 0.29345 0.35924 -0.15389
 C659 C 0.32120 0.38119 -0.13378
 C660 C 0.35834 0.36815 -0.13480
 C661 C 0.36693 0.33297 -0.15647
 C662 C 0.33926 0.31113 -0.17655
 C663 C 0.38904 0.39020 -0.11443
 C664 C 0.38412 0.42076 -0.08499
 H665 H 0.24401 0.30565 -0.18558
 H666 H 0.26510 0.36989 -0.15272
 H667 H 0.31330 0.40842 -0.11814
 H668 H 0.39521 0.32208 -0.15759
 H669 H 0.34699 0.28363 -0.19188
 H670 H 0.41710 0.38099 -0.12217
 H671 H 0.30645 0.27532 -0.24490
 H672 H 0.35661 0.42984 -0.07516
 C673 C 1.22694 -0.22325 0.21650
 C674 C 1.19181 -0.23128 0.19922
 C675 C 1.17043 -0.20184 0.17471
 C676 C 1.14100 -0.21449 0.14900
 C677 C 1.11881 -0.18710 0.12768
 C678 C 1.12555 -0.14634 0.13202
 C679 C 1.15494 -0.13387 0.15780
 C680 C 1.17702 -0.16112 0.17898
 C681 C 1.10279 -0.11549 0.11134
 C682 C 1.07405 -0.12217 0.08252
 H683 H 1.17893 -0.25967 0.20473
 H684 H 1.13500 -0.24567 0.14563
 H685 H 1.09633 -0.19812 0.10850
 H686 H 1.16064 -0.10270 0.16210
 H687 H 1.19843 -0.14991 0.19964
 H688 H 1.10978 -0.08515 0.11888
 H689 H 1.24107 -0.19734 0.20469
 H690 H 1.06645 -0.15178 0.07310
 C691 C 1.22114 0.27477 0.72504
 C692 C 1.22786 0.31255 0.70932
 C693 C 1.19888 0.33532 0.68732
 C694 C 1.20920 0.36320 0.65686
 C695 C 1.18220 0.38481 0.63534
 C696 C 1.14424 0.37907 0.64431
 C697 C 1.13416 0.35189 0.67565
 C698 C 1.16109 0.33030 0.69699
 C699 C 1.11414 0.40039 0.62227
 C700 C 1.11926 0.42512 0.58755
 H701 H 1.25533 0.32521 0.71169
 H702 H 1.23821 0.36790 0.64931
 H703 H 1.19145 0.40582 0.61203
 H704 H 1.10523 0.34722 0.68366
 H705 H 1.15219 0.31012 0.72143
 H706 H 1.08606 0.39539 0.63345
 H707 H 1.19520 0.26050 0.71708
 H708 H 1.14664 0.43090 0.57500
 C709 C 0.71878 -0.22798 0.72661
 C710 C 0.72509 -0.20413 0.69137
 C711 C 0.69512 -0.18174 0.67060
 C712 C 0.70389 -0.14676 0.64936
 C713 C 0.67612 -0.12452 0.63000
 C714 C 0.63897 -0.13733 0.63093
 C715 C 0.63037 -0.17259 0.65183
 C716 C 0.65810 -0.19470 0.67128
 C717 C 0.60833 -0.11493 0.61117
 C718 C 0.61348 -0.08455 0.58211
 H719 H 0.75329 -0.20007 0.68015
 H720 H 0.73225 -0.13623 0.64840
 H721 H 0.68404 -0.09719 0.61509
 H722 H 0.60207 -0.18327 0.65287
 H723 H 0.65043 -0.22216 0.68624
 H724 H 0.58022 -0.12384 0.61881
 H725 H 0.69095 -0.22919 0.73976
 H726 H 0.64105 -0.07591 0.57229
 C727 C 0.72803 0.28750 0.23115
 C728 C 0.71783 0.28732 0.18851
 C729 C 0.69141 0.31657 0.17170
 C730 C 0.69448 0.32861 0.12944
 C731 C 0.66852 0.35471 0.11241
 C732 C 0.63864 0.36864 0.13731
 C733 C 0.63535 0.35612 0.17938
 C734 C 0.66155 0.33052 0.19654
 C735 C 0.60914 0.39381 0.11957
 C736 C 0.61498 0.41953 0.08593
 H737 H 0.72837 0.26492 0.16696
 H738 H 0.71685 0.31757 0.10953
 H739 H 0.67125 0.36281 0.07946
 H740 H 0.61225 0.36594 0.19894
 H741 H 0.65762 0.32063 0.22879
 H742 H 0.58177 0.39226 0.13388
 H743 H 0.71827 0.31185 0.25068
 H744 H 0.64271 0.42396 0.07346
 C745 C 0.76397 0.22374 0.22301
 C746 C 0.79554 0.23248 0.19883
 C747 C 0.81702 0.20234 0.17476
 C748 C 0.81426 0.16185 0.18377
 C749 C 0.83651 0.13443 0.16225
 C750 C 0.86236 0.14665 0.13164
 C751 C 0.86499 0.18713 0.12235
 C752 C 0.84265 0.21463 0.14392
 C753 C 0.88551 0.11604 0.11041
 C754 C 0.91664 0.12364 0.08513
 H755 H 0.80569 0.26258 0.19895
 H756 H 0.79581 0.15111 0.20820
 H757 H 0.83392 0.10348 0.17014
 H758 H 0.88397 0.19790 0.09850
 H759 H 0.84549 0.24567 0.13658
 H760 H 0.87793 0.08553 0.11584
 H761 H 0.75123 0.19498 0.21976
 H762 H 0.92571 0.15353 0.07944
 C763 C 0.77104 0.72454 0.71853
 C764 C 0.80174 0.70249 0.73108
 C765 C 0.82528 0.67958 0.70134
 C766 C 0.86247 0.67344 0.71198
 C767 C 0.88607 0.65275 0.68461
 C768 C 0.87286 0.63703 0.64632
 C769 C 0.83538 0.64254 0.63577
 C770 C 0.81174 0.66367 0.66313
 C771 C 0.89960 0.61629 0.61832
 C772 C 0.89036 0.58947 0.58617
 H773 H 0.81036 0.70418 0.76382
 H774 H 0.87349 0.68529 0.74129
 H775 H 0.91485 0.64899 0.69344
 H776 H 0.82438 0.63126 0.60629
 H777 H 0.78295 0.66712 0.65443
 H778 H 0.92867 0.62088 0.62530
 H779 H 0.76305 0.72418 0.68553
 H780 H 0.86171 0.58257 0.57940
 C781 C 0.26718 0.22154 0.71843
 C782 C 0.29481 0.19537 0.73156
 C783 C 0.31647 0.16884 0.70327
 C784 C 0.34939 0.15287 0.71918
 C785 C 0.37191 0.12893 0.69383
 C786 C 0.36192 0.11984 0.65204
 C787 C 0.32841 0.13479 0.63612
 C788 C 0.30578 0.15913 0.66160
 C789 C 0.38880 0.09715 0.62599
 C790 C 0.38124 0.07735 0.58797
 H791 H 0.30289 0.19645 0.76456
 H792 H 0.35820 0.15962 0.75118
 H793 H 0.39761 0.11785 0.70687
 H794 H 0.32010 0.12868 0.60386
 H795 H 0.28021 0.17020 0.64848
 H796 H 0.41673 0.09540 0.63840
 H797 H 0.25990 0.22283 0.68525
 H798 H 0.35327 0.07545 0.57592
 C799 C 0.27417 0.72873 0.22694
 C800 C 0.26812 0.70493 0.19113
 C801 C 0.29857 0.68231 0.17022
 C802 C 0.33570 0.69486 0.17232
 C803 C 0.36391 0.67309 0.15243
 C804 C 0.35584 0.63853 0.12951
 C805 C 0.31859 0.62611 0.12707
 C806 C 0.29030 0.64801 0.14698
 C807 C 0.38718 0.61636 0.10959
 C808 C 0.38309 0.58630 0.07942
 H809 H 0.24029 0.70208 0.17875
 H810 H 0.34312 0.72183 0.18874
 H811 H 0.39223 0.68350 0.15479
 H812 H 0.31098 0.59932 0.11053
 H813 H 0.26191 0.63779 0.14479
 H814 H 0.41504 0.62491 0.11847
 H815 H 0.30110 0.72632 0.24189
 H816 H 0.35581 0.57797 0.06860
   
