data_POSCAR
  _audit_creation_date              2014-09-24
  _audit_creation_method            'ToBaCCo'
  _symmetry_space_group_name_H-M    'P1'
  _symmetry_Int_Tables_number       1
  _symmetry_cell_setting            triclinic
  loop_
  _symmetry_equiv_pos_as_xyz
 x,y,z
_cell_length_a 31.4843
_cell_length_b 31.5513
_cell_length_c 31.5795
_cell_angle_alpha 108.242800
_cell_angle_beta 71.772700
_cell_angle_gamma 71.991000
loop_
  _atom_site_label
  _atom_site_type_symbol
  _atom_site_fract_x
  _atom_site_fract_y
  _atom_site_fract_z
O1 O 0.52883 0.51983 0.05165
 O2 O 0.41341 0.53401 0.03894
 O3 O 0.47538 0.47040 0.05411
 O4 O 0.46510 0.58361 0.03968
 O5 O 0.51108 0.53805 -0.04198
 O6 O 0.51939 0.42438 -0.02787
 O7 O 0.45812 0.48809 -0.04267
 O8 O 0.57350 0.47192 -0.02991
 Cu9 Cu 0.46620 0.53135 0.05433
 Cu10 Cu 0.52001 0.47605 -0.04387
 C11 C 0.57090 0.49351 0.01279
 C12 C 0.41585 0.51357 -0.00402
 C13 C 0.49867 0.42830 0.01564
 C14 C 0.48662 0.58034 -0.00335
 O15 O -0.03454 0.57943 0.52379
 O16 O -0.04589 0.46391 0.51021
 O17 O -0.03389 0.52853 0.57394
 O18 O -0.04605 0.51566 0.45899
 O19 O 0.03596 0.47016 0.41422
 O20 O 0.04816 0.48435 0.52949
 O21 O 0.03616 0.41977 0.46490
 O22 O 0.04728 0.53575 0.47800
 Cu23 Cu -0.04836 0.52615 0.52111
 Cu24 Cu 0.05016 0.47320 0.46735
 C25 C 0.00810 0.57759 0.50291
 C26 C -0.00678 0.42215 0.48548
 C27 C 0.00915 0.50864 0.57144
 C28 C -0.00707 0.49089 0.41703
 O29 O 0.46802 0.03858 0.59078
 O30 O 0.47871 0.05084 0.47641
 O31 O 0.41548 0.03949 0.54209
 O32 O 0.53261 0.04924 0.52528
 O33 O 0.57621 -0.03262 0.47913
 O34 O 0.45892 -0.04244 0.49760
 O35 O 0.52305 -0.03114 0.43165
 O36 O 0.51307 -0.04309 0.54639
 Cu37 Cu 0.46947 0.05277 0.53806
 Cu38 Cu 0.52194 -0.04563 0.48440
 C39 C 0.48895 -0.00416 0.58840
 C40 C 0.50267 0.01192 0.43454
 C41 C 0.41720 -0.00320 0.52247
 C42 C 0.57434 0.01004 0.49916
 C43 C 0.53854 0.08252 -0.07015
 C44 C 0.53479 0.04739 -0.10548
 C45 C 0.51682 0.02113 -0.08288
 N46 N 0.51003 0.03866 -0.03516
 C47 C 0.52327 0.07620 -0.02734
 C48 C 0.50208 -0.01465 -0.10454
 C49 C 0.49165 -0.04616 -0.08383
 C50 C 0.46797 -0.07471 -0.09730
 C51 C 0.46674 -0.10113 -0.06991
 C52 C 0.48959 -0.08785 -0.04040
 N53 N 0.50503 -0.05469 -0.04941
 C54 C 0.49741 -0.10784 -0.00770
 C55 C 0.51031 -0.08619 0.02985
 C56 C 0.52331 -0.10781 0.05879
 C57 C 0.52826 -0.07350 0.09363
 C58 C 0.51887 -0.03210 0.08454
 N59 N 0.50751 -0.03985 0.04570
 C60 C 0.51646 0.01342 0.11472
 C61 C 0.51101 0.05340 0.10215
 C62 C 0.49861 0.10169 0.13453
 C63 C 0.49824 0.12862 0.10766
 C64 C 0.51112 0.09588 0.05942
 N65 N 0.51950 0.05001 0.05622
 C66 C 0.51682 0.10824 0.01936
 H67 H 0.55046 0.11008 -0.07511
 H68 H 0.54336 0.04242 -0.14319
 H69 H 0.53477 0.01724 0.02354
 H70 H 0.45306 -0.07636 -0.12403
 H71 H 0.45061 -0.12695 -0.07135
 H72 H 0.52785 -0.14421 0.05583
 H73 H 0.53694 -0.07850 0.12279
 H74 H 0.48982 0.16775 0.12197
 H75 H 0.52780 -0.04252 -0.03659
 H76 H 0.49072 0.11620 0.17348
 C77 C -0.05064 0.47587 0.88289
 C78 C -0.08436 0.46891 0.91622
 C79 C -0.07477 0.47742 0.95732
 N80 N -0.03689 0.49036 0.95045
 C81 C -0.02206 0.48943 0.90495
 C82 C -0.10351 0.47719 1.00177
 C83 C -0.08988 0.48052 1.04100
 C84 C -0.12043 0.48715 1.08750
 C85 C -0.09310 0.48647 1.11397
 C86 C -0.04650 0.47951 1.08305
 N87 N -0.04459 0.47495 1.03832
 C88 C -0.00652 0.47506 1.09576
 C89 C 0.03785 0.47541 1.06683
 C90 C 0.07982 0.46565 1.07513
 C91 C 0.11251 0.47378 1.04213
 C92 C 0.08922 0.48933 1.01532
 N93 N 0.04363 0.49020 1.03041
 C94 C 0.10861 0.50616 0.98059
 C95 C 0.08783 0.51520 0.94872
 C96 C 0.10035 0.53930 0.92040
 C97 C 0.07387 0.53853 0.89303
 C98 C 0.04573 0.51419 0.90557
 N99 N 0.05480 0.49973 0.93916
 C100 C 0.01422 0.50435 0.88452
 H101 H -0.04822 0.47228 0.84688
 H102 H -0.11300 0.45932 0.91072
 H103 H 0.04322 0.47611 0.95078
 H104 H -0.15835 0.49144 1.10101
 H105 H -0.10611 0.49017 1.15156
 H106 H 0.08639 0.45444 1.10242
 H107 H 0.14904 0.46942 1.03885
 H108 H 0.07520 0.55412 0.86688
 H109 H -0.01272 0.46378 1.00631
 H110 H 0.12603 0.55560 0.91937
 C111 C 0.09941 -0.07347 0.54172
 C112 C 0.07420 -0.10205 0.53861
 C113 C 0.04604 -0.08830 0.51483
 N114 N 0.05338 -0.05263 0.50313
 C115 C 0.08576 -0.04329 0.51971
 C116 C 0.01613 -0.11021 0.50204
 C117 C -0.01591 -0.09168 0.48227
 C118 C -0.03799 -0.11742 0.46031
 C119 C -0.07038 -0.08530 0.45114
 C120 C -0.06697 -0.04075 0.46718
 N121 N -0.03351 -0.04508 0.48598
 C122 C -0.09807 0.00396 0.46914
 C123 C -0.08626 0.04439 0.47393
 C124 C -0.11597 0.08916 0.47697
 C125 C -0.08998 0.11697 0.47854
 C126 C -0.04528 0.08831 0.47657
 N127 N -0.04284 0.04371 0.47294
 C128 C -0.00643 0.10215 0.47511
 C129 C 0.03693 0.07381 0.47736
 C130 C 0.07934 0.08152 0.46754
 C131 C 0.11076 0.04984 0.47791
 C132 C 0.08665 0.02394 0.49456
 N133 N 0.04169 0.03874 0.49403
 C134 C 0.10526 -0.00991 0.51262
 H135 H 0.12504 -0.07498 0.55805
 H136 H 0.07658 -0.12991 0.55204
 H137 H 0.01343 0.03013 0.51010
 H138 H -0.03252 -0.15507 0.45291
 H139 H -0.09400 -0.09415 0.43502
 H140 H -0.15204 0.10018 0.47685
 H141 H -0.10238 0.15375 0.48017
 H142 H 0.14693 0.04704 0.47442
 H143 H -0.02855 -0.01584 0.50666
 H144 H 0.08697 0.10779 0.45507
 C145 C -0.29226 0.48274 1.01735
 C146 C -0.29279 0.44059 0.98535
 C147 C -0.33806 0.44403 0.98479
 C148 C -0.38263 0.48883 1.01670
 C149 C -0.38187 0.53019 1.04987
 C150 C -0.33651 0.52764 1.04968
 C151 C -0.24421 0.48029 1.01575
 C152 C -0.24324 0.52335 1.04546
 C153 C -0.19708 0.52169 1.04149
 C154 C -0.15243 0.47714 1.00893
 C155 C -0.15416 0.43377 0.98082
 C156 C -0.19996 0.43541 0.98335
 C157 C -0.33420 0.56946 1.07998
 C158 C -0.28829 0.56744 1.07763
 C159 C -0.24786 0.39624 0.95380
 C160 C -0.20227 0.39358 0.95308
 H161 H -0.36802 0.60432 1.10499
 H162 H -0.28799 0.60079 1.10090
 H163 H -0.24788 0.36343 0.92914
 H164 H -0.16842 0.35879 0.92790
 H165 H -0.33866 0.41209 0.95933
 H166 H -0.41609 0.56491 1.07405
 H167 H -0.19556 0.55509 1.06291
 H168 H -0.11961 0.39960 0.95554
 C169 C 0.28383 0.52304 0.98423
 C170 C 0.28040 0.55284 1.02995
 C171 C 0.32436 0.55021 1.03345
 C172 C 0.37174 0.51845 0.99142
 C173 C 0.37412 0.49037 0.94522
 C174 C 0.33038 0.49185 0.94170
 C175 C 0.23798 0.52285 0.98144
 C176 C 0.24173 0.49044 0.93665
 C177 C 0.19862 0.48703 0.93560
 C178 C 0.15227 0.51591 0.97891
 C179 C 0.14861 0.55050 1.02251
 C180 C 0.19156 0.55333 1.02434
 C181 C 0.33239 0.46152 0.89695
 C182 C 0.28885 0.46061 0.89455
 C183 C 0.23313 0.58377 1.07168
 C184 C 0.18941 0.58422 1.06885
 H185 H 0.36808 0.43733 0.86381
 H186 H 0.29222 0.43569 0.85970
 H187 H 0.22998 0.60719 1.10708
 H188 H 0.15378 0.60792 1.10215
 H189 H 0.32151 0.57258 1.06913
 H190 H 0.41005 0.46575 0.91243
 H191 H 0.20135 0.46047 0.90203
 H192 H 0.11277 0.57286 1.05575
 C193 C 0.01559 -0.28913 0.51102
 C194 C 0.05927 -0.33482 0.48076
 C195 C 0.05719 -0.37910 0.47929
 C196 C 0.01141 -0.37799 0.50681
 C197 C -0.03185 -0.33144 0.53725
 C198 C -0.02992 -0.28706 0.53962
 C199 C 0.01712 -0.24266 0.51172
 C200 C -0.02688 -0.19715 0.54150
 C201 C -0.02591 -0.15345 0.54042
 C202 C 0.01821 -0.15524 0.50882
 C203 C 0.06239 -0.20083 0.48000
 C204 C 0.06206 -0.24483 0.48136
 C205 C -0.07296 -0.24072 0.56942
 C206 C -0.07143 -0.19650 0.57043
 C207 C 0.10384 -0.33539 0.45176
 C208 C 0.10517 -0.29120 0.45191
 H209 H -0.10829 -0.23864 0.59179
 H210 H -0.10561 -0.16163 0.59335
 H211 H 0.13781 -0.37039 0.42812
 H212 H 0.14011 -0.29352 0.42830
 H213 H 0.09085 -0.41439 0.45557
 H214 H -0.06734 -0.32954 0.55897
 H215 H -0.05994 -0.11833 0.56232
 H216 H 0.09621 -0.20215 0.45535
 C217 C -0.01512 0.28707 0.47603
 C218 C -0.04878 0.33217 0.51972
 C219 C -0.04719 0.37670 0.52183
 C220 C -0.01106 0.37592 0.48137
 C221 C 0.02232 0.33046 0.43780
 C222 C 0.02002 0.28591 0.43466
 C223 C -0.01557 0.23992 0.47419
 C224 C 0.01804 0.19479 0.43052
 C225 C 0.01876 0.14986 0.42978
 C226 C -0.01201 0.14990 0.47313
 C227 C -0.04610 0.19544 0.51620
 C228 C -0.04843 0.24070 0.51679
 C229 C 0.05265 0.24013 0.39140
 C230 C 0.05139 0.19539 0.38923
 C231 C -0.08239 0.33160 0.56086
 C232 C -0.08193 0.28658 0.55956
 H233 H 0.07967 0.23880 0.35911
 H234 H 0.07752 0.16087 0.35535
 H235 H -0.10858 0.36611 0.59471
 H236 H -0.10767 0.28763 0.59249
 H237 H -0.07260 0.41157 0.55561
 H238 H 0.04998 0.32989 0.40653
 H239 H 0.04490 0.11466 0.39658
 H240 H -0.06985 0.19530 0.54945
 C241 C 0.48480 -0.01292 -0.28002
 C242 C 0.45506 0.03256 -0.27691
 C243 C 0.45600 0.03493 -0.32070
 C244 C 0.48600 -0.00790 -0.36765
 C245 C 0.51416 -0.05378 -0.36967
 C246 C 0.51429 -0.05624 -0.32605
 C247 C 0.48634 -0.01476 -0.23439
 C248 C 0.51819 -0.05954 -0.23779
 C249 C 0.52205 -0.06007 -0.19480
 C250 C 0.49401 -0.01627 -0.14889
 C251 C 0.46048 0.02755 -0.14573
 C252 C 0.45718 0.02880 -0.18852
 C253 C 0.54435 -0.10082 -0.32769
 C254 C 0.54651 -0.10237 -0.28437
 C255 C 0.42575 0.07512 -0.23016
 C256 C 0.42659 0.07320 -0.18665
 H257 H 0.56718 -0.13459 -0.36293
 H258 H 0.57097 -0.13723 -0.28749
 H259 H 0.40239 0.11038 -0.22725
 H260 H 0.40393 0.10702 -0.15142
 H261 H 0.43367 0.07043 -0.31811
 H262 H 0.53746 -0.08717 -0.40526
 H263 H 0.54780 -0.09384 -0.19719
 H264 H 0.43864 0.06116 -0.11025
 C265 C 0.51158 0.02159 0.30051
 C266 C 0.46616 0.05119 0.34469
 C267 C 0.46403 0.04924 0.38903
 C268 C 0.50633 0.01654 0.38876
 C269 C 0.55152 -0.01313 0.34420
 C270 C 0.55456 -0.01022 0.30000
 C271 C 0.51376 0.02275 0.25358
 C272 C 0.55921 -0.00673 0.20943
 C273 C 0.56059 -0.00687 0.16457
 C274 C 0.51648 0.02027 0.16343
 C275 C 0.47138 0.05013 0.20803
 C276 C 0.46993 0.05195 0.25341
 C277 C 0.59942 -0.03890 0.25516
 C278 C 0.60181 -0.03684 0.21073
 C279 C 0.42352 0.08116 0.34334
 C280 C 0.42527 0.08121 0.29839
 H281 H 0.63288 -0.06346 0.25429
 H282 H 0.63702 -0.05983 0.17688
 H283 H 0.38826 0.10396 0.37713
 H284 H 0.39128 0.10403 0.29876
 H285 H 0.42909 0.07166 0.42329
 H286 H 0.58418 -0.03815 0.34414
 H287 H 0.59518 -0.03006 0.13005
 H288 H 0.43738 0.07086 0.20701
 C289 C 0.48276 -0.28588 -0.01177
 C290 C 0.51822 -0.33244 -0.05283
 C291 C 0.51824 -0.37631 -0.05085
 C292 C 0.48376 -0.37367 -0.00777
 C293 C 0.44797 -0.32654 0.03267
 C294 C 0.44728 -0.28256 0.03087
 C295 C 0.48390 -0.23978 -0.01267
 C296 C 0.44919 -0.19337 0.02899
 C297 C 0.45208 -0.14994 0.02910
 C298 C 0.49008 -0.15293 -0.01148
 C299 C 0.52365 -0.19940 -0.05364
 C300 C 0.52082 -0.24314 -0.05437
 C301 C 0.41254 -0.23538 0.07138
 C302 C 0.41342 -0.19151 0.07040
 C303 C 0.55374 -0.33420 -0.09441
 C304 C 0.55510 -0.29032 -0.09513
 H305 H 0.38490 -0.23239 0.10441
 H306 H 0.38648 -0.15592 0.10272
 H307 H 0.58129 -0.36986 -0.12633
 H308 H 0.58368 -0.29344 -0.12756
 H309 H 0.54612 -0.41239 -0.08198
 H310 H 0.42114 -0.32408 0.06591
 H311 H 0.42628 -0.11401 0.06149
 H312 H 0.55293 -0.20152 -0.08480
 C313 C 0.50217 0.29707 0.02833
 C314 C 0.46213 0.32741 0.02384
 C315 C 0.46119 0.37079 0.02031
 C316 C 0.49977 0.38375 0.02128
 C317 C 0.53934 0.35365 0.02650
 C318 C 0.54080 0.30992 0.02992
 C319 C 0.50429 0.25035 0.03008
 C320 C 0.54507 0.21907 0.03297
 C321 C 0.54822 0.17324 0.03174
 C322 C 0.51102 0.15903 0.02741
 C323 C 0.46961 0.19156 0.02633
 C324 C 0.46620 0.23713 0.02727
 C325 C 0.58033 0.27835 0.03410
 C326 C 0.58246 0.23367 0.03554
 C327 C 0.42425 0.31340 0.02222
 C328 C 0.42624 0.26899 0.02394
 H329 H 0.61019 0.28795 0.03568
 H330 H 0.61394 0.21007 0.03808
 H331 H 0.39307 0.33669 0.01907
 H332 H 0.39661 0.25916 0.02192
 H333 H 0.43091 0.39418 0.01610
 H334 H 0.56900 0.36399 0.02724
 H335 H 0.58016 0.14794 0.03237
 H336 H 0.44106 0.18037 0.02297
 C337 C -0.28801 0.01600 0.48217
 C338 C -0.28967 -0.01650 0.44121
 C339 C -0.33510 -0.01796 0.44684
 C340 C -0.37878 0.01377 0.49257
 C341 C -0.37693 0.04735 0.53274
 C342 C -0.33134 0.04792 0.52804
 C343 C -0.23972 0.01544 0.47741
 C344 C -0.23755 0.04556 0.51937
 C345 C -0.19107 0.04239 0.51568
 C346 C -0.14720 0.01006 0.47029
 C347 C -0.15023 -0.01795 0.42779
 C348 C -0.19637 -0.01635 0.43150
 C349 C -0.32790 0.07875 0.56865
 C350 C -0.28171 0.07730 0.56450
 C351 C -0.24569 -0.04736 0.39574
 C352 C -0.19991 -0.04697 0.39084
 H353 H -0.36099 0.10337 0.60425
 H354 H -0.28051 0.10097 0.59700
 H355 H -0.24653 -0.07237 0.36375
 H356 H -0.16680 -0.07162 0.35525
 H357 H -0.33661 -0.04371 0.41585
 H358 H -0.41051 0.07147 0.56816
 H359 H -0.18864 0.06423 0.54824
 H360 H -0.11643 -0.04240 0.39270
 C361 C 0.28186 -0.01087 0.52989
 C362 C 0.32795 -0.05390 0.49832
 C363 C 0.37203 -0.05186 0.49766
 C364 C 0.37028 -0.00686 0.52745
 C365 C 0.32352 0.03557 0.55985
 C366 C 0.27921 0.03378 0.56115
 C367 C 0.23572 -0.01203 0.52880
 C368 C 0.18982 0.03142 0.55943
 C369 C 0.14655 0.03095 0.55619
 C370 C 0.14937 -0.01210 0.52160
 C371 C 0.19535 -0.05574 0.49214
 C372 C 0.23873 -0.05594 0.49564
 C373 C 0.23245 0.07617 0.59201
 C374 C 0.18849 0.07497 0.59127
 C375 C 0.32920 -0.09763 0.46687
 C376 C 0.28536 -0.09858 0.46542
 H377 H 0.22994 0.11080 0.61636
 H378 H 0.15331 0.10874 0.61505
 H379 H 0.36452 -0.13112 0.44243
 H380 H 0.28812 -0.13273 0.43986
 H381 H 0.40777 -0.08471 0.47264
 H382 H 0.32164 0.07030 0.58324
 H383 H 0.11110 0.06459 0.57877
 H384 H 0.19752 -0.08877 0.46532
 C385 C -0.01529 0.48063 1.28203
 C386 C -0.04695 0.52549 1.32646
 C387 C -0.04553 0.52803 1.37113
 C388 C -0.01142 0.48673 1.37098
 C389 C 0.02022 0.44215 1.32616
 C390 C 0.01792 0.43865 1.28163
 C391 C -0.01593 0.47798 1.23479
 C392 C 0.01551 0.43302 1.19042
 C393 C 0.01597 0.43121 1.14531
 C394 C -0.01295 0.47458 1.14426
 C395 C -0.04478 0.51912 1.18909
 C396 C -0.04683 0.52090 1.23464
 C397 C 0.04857 0.39425 1.23660
 C398 C 0.04708 0.39136 1.19183
 C399 C -0.07848 0.56717 1.32505
 C400 C -0.07811 0.56504 1.27983
 H401 H 0.07412 0.36156 1.23592
 H402 H 0.07155 0.35651 1.15787
 H403 H -0.10298 0.60202 1.35902
 H404 H -0.10227 0.59832 1.28021
 H405 H -0.06949 0.56260 1.40555
 H406 H 0.04642 0.41030 1.32610
 H407 H 0.04065 0.39704 1.11064
 H408 H -0.06689 0.55253 1.18813
 C409 C 0.01785 0.51692 0.70615
 C410 C -0.02566 0.55048 0.70902
 C411 C -0.02769 0.54837 0.66476
 C412 C 0.01339 0.51311 0.61784
 C413 C 0.05735 0.48074 0.61568
 C414 C 0.05958 0.48215 0.65979
 C415 C 0.01895 0.51688 0.75248
 C416 C 0.06144 0.48158 0.74952
 C417 C 0.06074 0.47924 0.79337
 C418 C 0.01786 0.51174 0.83957
 C419 C -0.02341 0.54851 0.84227
 C420 C -0.02337 0.55078 0.79868
 C421 C 0.10208 0.44857 0.65847
 C422 C 0.10294 0.44820 0.70257
 C423 C -0.06675 0.58465 0.75603
 C424 C -0.06556 0.58490 0.80014
 H425 H 0.13458 0.42167 0.62298
 H426 H 0.13604 0.42100 0.69983
 H427 H -0.10042 0.61088 0.75869
 H428 H -0.09834 0.61128 0.83558
 H429 H -0.06155 0.57365 0.66683
 H430 H 0.08908 0.45336 0.57976
 H431 H 0.09248 0.45100 0.79150
 H432 H -0.05630 0.57357 0.87802
   
