data_POSCAR
  _audit_creation_date              2014-09-24
  _audit_creation_method            'ToBaCCo'
  _symmetry_space_group_name_H-M    'P1'
  _symmetry_Int_Tables_number       1
  _symmetry_cell_setting            triclinic
  loop_
  _symmetry_equiv_pos_as_xyz
 x,y,z
_cell_length_a 63.3159
_cell_length_b 63.3753
_cell_length_c 23.1717
_cell_angle_alpha 89.982000
_cell_angle_beta 90.049600
_cell_angle_gamma 120.020300
loop_
  _atom_site_label
  _atom_site_type_symbol
  _atom_site_fract_x
  _atom_site_fract_y
  _atom_site_fract_z
C1 C 0.20205 0.49426 0.55432
 C2 C 0.18985 0.49077 0.50150
 C3 C 0.20133 0.49334 0.44808
 C4 C 0.22547 0.49720 0.44750
 C5 C 0.23794 0.49975 0.50047
 C6 C 0.22641 0.49869 0.55391
 C7 C 0.23904 0.50055 0.60539
 C8 C 0.26271 0.50457 0.60475
 C9 C 0.27431 0.50495 0.55276
 C10 C 0.26188 0.50285 0.49998
 C11 C 0.23683 0.49680 0.39563
 C12 C 0.26041 0.50063 0.39509
 C13 C 0.27328 0.50373 0.44662
 C14 C 0.29731 0.50776 0.44609
 C15 C 0.30964 0.51077 0.49808
 C16 C 0.29842 0.50853 0.55175
 H17 H 0.23077 0.49860 0.64722
 H18 H 0.27175 0.50747 0.64594
 H19 H 0.22749 0.49304 0.35464
 H20 H 0.26836 0.50092 0.35359
 H21 H 0.17174 0.48862 0.50198
 H22 H 0.32775 0.51292 0.49635
 C23 C 0.49895 -0.20572 0.55226
 C24 C 0.49857 -0.19519 0.49959
 C25 C 0.49875 -0.20588 0.44704
 C26 C 0.49918 -0.22798 0.44670
 C27 C 0.49933 -0.23912 0.49975
 C28 C 0.49945 -0.22780 0.55274
 C29 C 0.50139 -0.23809 0.60462
 C30 C 0.50297 -0.25918 0.60477
 C31 C 0.50198 -0.27137 0.55312
 C32 C 0.50057 -0.26096 0.49980
 C33 C 0.50077 -0.23848 0.39481
 C34 C 0.50229 -0.25960 0.39475
 C35 C 0.50165 -0.27158 0.44650
 C36 C 0.50431 -0.29256 0.44670
 C37 C 0.50650 -0.30190 0.49986
 C38 C 0.50462 -0.29236 0.55299
 H39 H 0.50252 -0.22950 0.64573
 H40 H 0.50592 -0.26522 0.64605
 H41 H 0.50160 -0.23006 0.35361
 H42 H 0.50495 -0.26581 0.35344
 H43 H 0.49839 -0.17815 0.49949
 H44 H 0.50746 -0.31852 0.49992
 C45 C 1.20539 0.70389 0.55222
 C46 C 1.19440 0.69435 0.49857
 C47 C 1.20506 0.70588 0.44670
 C48 C 1.22763 0.72783 0.44719
 C49 C 1.23930 0.73808 0.50051
 C50 C 1.22836 0.72595 0.55321
 C51 C 1.24183 0.73497 0.60449
 C52 C 1.26440 0.75620 0.60492
 C53 C 1.27477 0.76955 0.55409
 C54 C 1.26247 0.75993 0.50088
 C55 C 1.23906 0.73943 0.39554
 C56 C 1.26185 0.76033 0.39581
 C57 C 1.27377 0.77137 0.44783
 C58 C 1.29754 0.79226 0.44824
 C59 C 1.30937 0.80105 0.50136
 C60 C 1.29822 0.79086 0.55437
 H61 H 1.23565 0.72521 0.64480
 H62 H 1.27410 0.76139 0.64553
 H63 H 1.23078 0.73209 0.35405
 H64 H 1.27024 0.76714 0.35429
 H65 H 1.17676 0.67777 0.49683
 H66 H 1.32690 0.81777 0.50154
 C67 C 0.70096 0.49338 0.55361
 C68 C 0.68953 0.49117 0.50015
 C69 C 0.70129 0.49316 0.44784
 C70 C 0.72492 0.49614 0.44784
 C71 C 0.73664 0.49744 0.50106
 C72 C 0.72480 0.49627 0.55413
 C73 C 0.73665 0.49671 0.60591
 C74 C 0.75999 0.49982 0.60595
 C75 C 0.77201 0.50075 0.55417
 C76 C 0.76024 0.49979 0.50108
 C77 C 0.73692 0.49740 0.39588
 C78 C 0.76014 0.50025 0.39590
 C79 C 0.77207 0.50136 0.44787
 C80 C 0.79575 0.50449 0.44794
 C81 C 0.80747 0.50640 0.50030
 C82 C 0.79595 0.50394 0.55366
 H83 H 0.72801 0.49444 0.64739
 H84 H 0.76850 0.50172 0.64750
 H85 H 0.72844 0.49612 0.35448
 H86 H 0.76868 0.50168 0.35455
 H87 H 0.67168 0.48966 0.49882
 H88 H 0.82542 0.50817 0.49906
 C89 C 0.50118 0.29570 0.44863
 C90 C 0.50168 0.30657 0.50144
 C91 C 0.50214 0.29590 0.55387
 C92 C 0.50239 0.27371 0.55391
 C93 C 0.50173 0.26230 0.50073
 C94 C 0.50111 0.27334 0.44783
 C95 C 0.50139 0.26225 0.39561
 C96 C 0.50233 0.24080 0.39514
 C97 C 0.50302 0.22958 0.44688
 C98 C 0.50258 0.24028 0.50035
 C99 C 0.50447 0.26327 0.60550
 C100 C 0.50556 0.24189 0.60515
 C101 C 0.50396 0.22958 0.55328
 C102 C 0.50578 0.20805 0.55225
 C103 C 0.50681 0.19833 0.49853
 C104 C 0.50515 0.20847 0.44649
 H105 H 0.50138 0.27029 0.35443
 H106 H 0.50303 0.23338 0.35361
 H107 H 0.50599 0.27193 0.64674
 H108 H 0.50855 0.23569 0.64614
 H109 H 0.50161 0.32365 0.50174
 H110 H 0.50768 0.18167 0.49682
 C111 C 0.70237 0.20803 0.55390
 C112 C 0.69066 0.19811 0.50148
 C113 C 0.70175 0.20816 0.44862
 C114 C 0.72509 0.22935 0.44782
 C115 C 0.73712 0.23993 0.50071
 C116 C 0.72585 0.22905 0.55392
 C117 C 0.73832 0.23946 0.60561
 C118 C 0.76145 0.26006 0.60523
 C119 C 0.77270 0.27189 0.55329
 C120 C 0.76054 0.26131 0.50033
 C121 C 0.73658 0.24034 0.39561
 C122 C 0.75963 0.26100 0.39514
 C123 C 0.77190 0.27178 0.44689
 C124 C 0.79550 0.29243 0.44652
 C125 C 0.80747 0.30229 0.49862
 C126 C 0.79642 0.29296 0.55232
 H127 H 0.73044 0.23162 0.64705
 H128 H 0.77053 0.26622 0.64637
 H129 H 0.72788 0.23305 0.35447
 H130 H 0.76782 0.26833 0.35361
 H131 H 0.67284 0.18174 0.50181
 H132 H 0.82529 0.31864 0.49692
 O133 O 0.96643 0.44742 0.10677
 O134 O 0.93919 0.45250 0.05180
 C135 C 0.94438 0.44176 0.09250
 O136 O 1.03447 0.55602 0.10050
 O137 O 1.06148 0.54969 0.04807
 C138 C 1.05647 0.56159 0.08601
 O139 O 0.96647 0.51954 0.10779
 O140 O 0.93918 0.48764 0.05184
 C141 C 0.94440 0.50334 0.09315
 O142 O 1.03450 0.47976 0.10144
 O143 O 1.06146 0.51330 0.04943
 C144 C 1.05648 0.49635 0.08735
 Zr145 Zr 1.00038 0.47428 0.07309
 O146 O 1.00309 0.47540 0.16426
 O147 O 0.99778 0.43965 0.07202
 Zr148 Zr 1.00026 0.52762 0.07147
 O149 O 1.00240 0.53212 0.16199
 O150 O 0.99724 0.55933 0.06372
 O151 O 0.97870 0.49011 0.08413
 O152 O 1.02142 0.51157 0.08307
 O153 O 1.03438 0.47964 -0.10124
 O154 O 1.06143 0.51304 -0.04897
 C155 C 1.05639 0.49615 -0.08702
 O156 O 0.96587 0.51960 -0.10638
 O157 O 0.93894 0.48736 -0.05088
 C158 C 0.94390 0.50314 -0.09179
 O159 O 1.03402 0.55576 -0.10165
 O160 O 1.06121 0.54951 -0.04950
 C161 C 1.05608 0.56135 -0.08744
 O162 O 0.96626 0.44780 -0.10728
 O163 O 0.93909 0.45236 -0.05082
 C164 C 0.94421 0.44188 -0.09228
 Zr165 Zr 1.00020 0.47364 -0.07147
 O166 O 1.00180 0.47087 -0.16205
 O167 O 0.99743 0.43902 -0.06335
 Zr168 Zr 1.00000 0.52697 -0.07305
 O169 O 1.00241 0.52840 -0.16426
 O170 O 0.99717 0.55888 -0.07196
 Zr171 Zr 0.96357 0.48225 0.00031
 Zr172 Zr 1.03675 0.51897 -0.00025
 O173 O 1.02119 0.51089 -0.08335
 O174 O 0.97846 0.48942 -0.08371
 O175 O 1.02234 0.48090 0.00072
 O176 O 0.97857 0.52030 -0.00061
 O177 O 0.97877 0.45935 0.00092
 O178 O 1.02213 0.54246 -0.00099
 H179 H 1.03223 0.51706 0.11736
 H180 H 0.96726 0.52685 -0.00055
 H181 H 1.03194 0.51629 -0.11769
 H182 H 0.96753 0.44149 0.00103
 H183 H 1.01314 0.57280 0.05032
 H184 H 1.01132 0.57148 -0.05019
 H185 H 0.98890 0.51290 -0.17942
 H186 H 1.00022 0.48438 -0.17855
 H187 H 1.01348 0.44163 -0.05059
 H188 H 1.01194 0.44127 0.05022
 H189 H 0.98948 0.47713 0.17973
 H190 H 0.99916 0.51643 0.17856
 O191 O 0.44559 0.47986 0.10514
 O192 O 0.45101 0.51222 0.05009
 C193 C 0.44006 0.49629 0.09062
 O194 O 0.55440 0.52076 0.10197
 O195 O 0.54826 0.48761 0.04901
 C196 C 0.56000 0.50437 0.08744
 O197 O 0.51773 0.55212 0.10806
 O198 O 0.48615 0.54749 0.05086
 C199 C 0.50157 0.55793 0.09270
 O200 O 0.47822 0.44435 0.10057
 O201 O 0.51191 0.45109 0.04898
 C202 C 0.49489 0.43905 0.08667
 Zr203 Zr 0.47270 0.47295 0.07207
 O204 O 0.47337 0.47113 0.16327
 O205 O 0.43806 0.44085 0.06992
 Zr206 Zr 0.52608 0.52657 0.07204
 O207 O 0.53008 0.52884 0.16270
 O208 O 0.55783 0.56133 0.06500
 O209 O 0.48846 0.51045 0.08349
 O210 O 0.50997 0.48929 0.08307
 O211 O 0.47825 0.44427 -0.10096
 O212 O 0.51182 0.45098 -0.04869
 C213 C 0.49487 0.43894 -0.08655
 O214 O 0.51812 0.55230 -0.10834
 O215 O 0.48624 0.54749 -0.05216
 C216 C 0.50186 0.55805 -0.09352
 O217 O 0.55471 0.52092 -0.10147
 O218 O 0.54838 0.48762 -0.04887
 C219 C 0.56026 0.50450 -0.08697
 O220 O 0.44575 0.48026 -0.10567
 O221 O 0.45107 0.51270 -0.05075
 C222 C 0.44015 0.49669 -0.09124
 Zr223 Zr 0.47279 0.47299 -0.07304
 O224 O 0.47376 0.47127 -0.16420
 O225 O 0.43812 0.44093 -0.07209
 Zr226 Zr 0.52619 0.52650 -0.07243
 O227 O 0.52995 0.52791 -0.16317
 O228 O 0.55795 0.56131 -0.06632
 Zr229 Zr 0.48099 0.51779 -0.00062
 Zr230 Zr 0.51771 0.48156 -0.00011
 O231 O 0.51009 0.48925 -0.08346
 O232 O 0.48860 0.51046 -0.08454
 O233 O 0.47961 0.45793 -0.00037
 O234 O 0.51905 0.54105 -0.00033
 O235 O 0.45816 0.47969 -0.00061
 O236 O 0.54130 0.51967 -0.00001
 H237 H 0.51532 0.48388 0.11744
 H238 H 0.52541 0.55887 -0.00035
 H239 H 0.51551 0.48385 -0.11767
 H240 H 0.44024 0.47281 -0.00068
 H241 H 0.57128 0.55892 0.05136
 H242 H 0.57118 0.55905 -0.05035
 H243 H 0.51340 0.51773 -0.17919
 H244 H 0.47475 0.48627 -0.17980
 H245 H 0.43970 0.42843 -0.05001
 H246 H 0.43989 0.42823 0.04914
 H247 H 0.47510 0.48648 0.17870
 H248 H 0.51471 0.51558 0.17877
 O249 O 0.47991 0.03322 0.10791
 O250 O 0.51161 0.06020 0.05105
 C251 C 0.49610 0.05520 0.09265
 O252 O 0.51971 -0.03497 0.10077
 O253 O 0.48609 -0.06192 0.04891
 C254 C 0.50310 -0.05694 0.08665
 O255 O 0.55222 0.03318 0.10558
 O256 O 0.54677 0.06016 0.05068
 C257 C 0.55773 0.05515 0.09121
 O258 O 0.44336 -0.03481 0.10171
 O259 O 0.44969 -0.06185 0.04946
 C260 C 0.43782 -0.05680 0.08744
 Zr261 Zr 0.47173 -0.00073 0.07217
 O262 O 0.46785 -0.00276 0.16288
 O263 O 0.43995 0.00224 0.06562
 Zr264 Zr 0.52514 -0.00085 0.07248
 O265 O 0.52437 -0.00347 0.16365
 O266 O 0.55983 0.00180 0.07057
 O267 O 0.50933 0.02085 0.08386
 O268 O 0.48787 -0.02186 0.08331
 O269 O 0.44306 -0.03498 -0.10139
 O270 O 0.44948 -0.06187 -0.04862
 C271 C 0.43755 -0.05693 -0.08676
 O272 O 0.55212 0.03298 -0.10586
 O273 O 0.54674 0.06005 -0.05114
 C274 C 0.55769 0.05497 -0.09151
 O275 O 0.51942 -0.03521 -0.10046
 O276 O 0.48585 -0.06215 -0.04843
 C277 C 0.50281 -0.05719 -0.08623
 O278 O 0.47955 0.03304 -0.10796
 O279 O 0.51148 0.06011 -0.05168
 C280 C 0.49579 0.05504 -0.09300
 Zr281 Zr 0.47162 -0.00085 -0.07229
 O282 O 0.46795 -0.00323 -0.16306
 O283 O 0.43983 0.00214 -0.06649
 Zr284 Zr 0.52503 -0.00098 -0.07253
 O285 O 0.52411 -0.00377 -0.16366
 O286 O 0.55968 0.00160 -0.07081
 Zr287 Zr 0.51680 0.03570 -0.00021
 Zr288 Zr 0.48013 -0.03731 0.00009
 O289 O 0.48774 -0.02200 -0.08323
 O290 O 0.50922 0.02073 -0.08412
 O291 O 0.45652 -0.02282 0.00006
 O292 O 0.53965 0.02044 -0.00011
 O293 O 0.47872 0.02077 -0.00013
 O294 O 0.51824 -0.02281 0.00005
 H295 H 0.48254 -0.03259 0.11771
 H296 H 0.55757 0.03147 -0.00017
 H297 H 0.48231 -0.03282 -0.11746
 H298 H 0.47228 0.03216 -0.00018
 H299 H 0.55810 -0.01255 0.04946
 H300 H 0.55798 -0.01274 -0.04972
 H301 H 0.52279 0.01003 -0.17945
 H302 H 0.48457 0.00373 -0.17902
 H303 H 0.42661 -0.01332 -0.05043
 H304 H 0.42656 -0.01345 0.05097
 H305 H 0.48406 0.00192 0.17890
 H306 H 0.52297 0.01031 0.17921
 C307 C 1.16128 0.49559 0.30380
 C308 C 1.15009 0.47720 0.34516
 C309 C 1.16348 0.47610 0.39174
 C310 C 1.18852 0.49325 0.39769
 C311 C 1.19966 0.51162 0.35529
 C312 C 1.18613 0.51272 0.30867
 C313 C 1.14656 0.49731 0.25869
 C314 C 1.13274 0.49775 0.22351
 C315 C 1.11446 0.49692 0.18508
 C316 C 1.09060 0.47742 0.18964
 C317 C 1.07199 0.47701 0.15662
 C318 C 1.07689 0.49615 0.11828
 C319 C 1.10110 0.51546 0.11270
 C320 C 1.11979 0.51584 0.14608
 H321 H 1.13083 0.46391 0.34199
 H322 H 1.15420 0.46165 0.42311
 H323 H 1.21853 0.52586 0.35962
 H324 H 1.19490 0.52728 0.27737
 H325 H 1.08621 0.46275 0.21988
 H326 H 1.05364 0.46184 0.16210
 H327 H 1.10549 0.53050 0.08367
 H328 H 1.13822 0.53107 0.14240
 C329 C 0.50115 0.66437 0.30376
 C330 C 0.51973 0.67175 0.34472
 C331 C 0.52120 0.68663 0.39059
 C332 C 0.50423 0.69476 0.39624
 C333 C 0.48584 0.68761 0.35390
 C334 C 0.48433 0.67251 0.30798
 C335 C 0.49891 0.64717 0.26023
 C336 C 0.49829 0.63228 0.22686
 C337 C 0.49915 0.61422 0.19089
 C338 C 0.51738 0.60836 0.20110
 C339 C 0.51822 0.59025 0.16881
 C340 C 0.50078 0.57759 0.12555
 C341 C 0.48257 0.58372 0.11507
 C342 C 0.48175 0.60193 0.14770
 H343 H 0.53281 0.66551 0.34200
 H344 H 0.53569 0.69181 0.42193
 H345 H 0.47184 0.69258 0.35795
 H346 H 0.46967 0.66662 0.27687
 H347 H 0.53087 0.61767 0.23459
 H348 H 0.53250 0.58608 0.17813
 H349 H 0.46883 0.57430 0.08219
 H350 H 0.46747 0.60624 0.13963
 C351 C 0.33660 -0.16515 0.30373
 C352 C 0.34796 -0.17273 0.34375
 C353 C 0.33487 -0.18719 0.39058
 C354 C 0.30997 -0.19472 0.39794
 C355 C 0.29868 -0.18702 0.35708
 C356 C 0.31191 -0.17242 0.31023
 C357 C 0.35101 -0.14845 0.25884
 C358 C 0.36408 -0.13368 0.22362
 C359 C 0.38072 -0.11509 0.18470
 C360 C 0.38523 -0.09125 0.19095
 C361 C 0.40329 -0.07245 0.15800
 C362 C 0.41721 -0.07720 0.11827
 C363 C 0.41205 -0.10138 0.11096
 C364 C 0.39394 -0.12020 0.14416
 H365 H 0.36712 -0.16701 0.33945
 H366 H 0.34423 -0.19267 0.42102
 H367 H 0.27995 -0.19137 0.36272
 H368 H 0.30306 -0.16624 0.28009
 H369 H 0.37523 -0.08704 0.22248
 H370 H 0.40670 -0.05409 0.16470
 H371 H 0.42243 -0.10568 0.08084
 H372 H 0.39070 -0.13859 0.13928
 C373 C 0.83703 0.50310 0.30323
 C374 C 0.81418 0.48281 0.31516
 C375 C 0.80011 0.48361 0.36074
 C376 C 0.80878 0.50475 0.39459
 C377 C 0.83141 0.52522 0.38144
 C378 C 0.84542 0.52441 0.33591
 C379 C 0.85295 0.50165 0.26113
 C380 C 0.86750 0.50120 0.22834
 C381 C 0.88630 0.50182 0.19231
 C382 C 0.88088 0.48428 0.14934
 C383 C 0.89970 0.48479 0.11643
 C384 C 0.92415 0.50284 0.12634
 C385 C 0.92926 0.52042 0.16941
 C386 C 0.91050 0.51988 0.20201
 H387 H 0.80763 0.46615 0.29053
 H388 H 0.78289 0.46752 0.37098
 H389 H 0.83850 0.54154 0.40758
 H390 H 0.86317 0.54013 0.32742
 H391 H 0.86219 0.47013 0.14165
 H392 H 0.89513 0.47095 0.08372
 H393 H 0.94781 0.53459 0.17832
 H394 H 0.91492 0.53347 0.23530
 C395 C 0.50071 0.33641 0.30144
 C396 C 0.52135 0.34553 0.33693
 C397 C 0.52172 0.33185 0.38379
 C398 C 0.50150 0.30886 0.39552
 C399 C 0.48101 0.29953 0.35919
 C400 C 0.48064 0.31327 0.31227
 C401 C 0.49943 0.35174 0.25735
 C402 C 0.49823 0.36530 0.22266
 C403 C 0.49648 0.38220 0.18421
 C404 C 0.51494 0.39564 0.14408
 C405 C 0.51411 0.41367 0.11080
 C406 C 0.49485 0.41854 0.11757
 C407 C 0.47608 0.40442 0.15694
 C408 C 0.47693 0.38644 0.18997
 H409 H 0.53687 0.36350 0.32935
 H410 H 0.53757 0.33939 0.41174
 H411 H 0.46514 0.28196 0.36813
 H412 H 0.46448 0.30615 0.28547
 H413 H 0.53023 0.39259 0.13950
 H414 H 0.52887 0.42421 0.08099
 H415 H 0.46096 0.40760 0.16327
 H416 H 0.46261 0.37625 0.22110
 C417 C 0.66017 0.16565 0.30376
 C418 C 0.68335 0.16878 0.31452
 C419 C 0.69743 0.18352 0.36031
 C420 C 0.68845 0.19528 0.39560
 C421 C 0.66544 0.19249 0.38379
 C422 C 0.65140 0.17780 0.33803
 C423 C 0.64447 0.14834 0.26118
 C424 C 0.63068 0.13308 0.22768
 C425 C 0.61359 0.11398 0.19032
 C426 C 0.60853 0.09007 0.19918
 C427 C 0.59070 0.07104 0.16620
 C428 C 0.57760 0.07563 0.12371
 C429 C 0.58315 0.09983 0.11424
 C430 C 0.60102 0.11887 0.14746
 H431 H 0.69020 0.15925 0.28871
 H432 H 0.71495 0.18511 0.36947
 H433 H 0.65811 0.20118 0.41103
 H434 H 0.63340 0.17531 0.33048
 H435 H 0.61807 0.08606 0.23238
 H436 H 0.58697 0.05268 0.17468
 H437 H 0.57341 0.10401 0.08197
 H438 H 0.60472 0.13731 0.14041
 C439 C 0.50424 0.16554 -0.30510
 C440 C 0.48787 0.17429 -0.30737
 C441 C 0.48883 0.18913 -0.35331
 C442 C 0.50624 0.19544 -0.39768
 C443 C 0.52275 0.18665 -0.39414
 C444 C 0.52182 0.17200 -0.34821
 C445 C 0.50202 0.14831 -0.26166
 C446 C 0.50037 0.13305 -0.22798
 C447 C 0.49841 0.11392 -0.19093
 C448 C 0.47996 0.08991 -0.20100
 C449 C 0.47894 0.07085 -0.16861
 C450 C 0.49644 0.07550 -0.12554
 C451 C 0.51473 0.09978 -0.11498
 C452 C 0.51571 0.11885 -0.14763
 H453 H 0.47389 0.16902 -0.27470
 H454 H 0.47511 0.19455 -0.35569
 H455 H 0.53649 0.19116 -0.42711
 H456 H 0.53449 0.16521 -0.34712
 H457 H 0.46659 0.08586 -0.23470
 H458 H 0.46460 0.05243 -0.17790
 H459 H 0.52850 0.10402 -0.08224
 H460 H 0.53020 0.13736 -0.13979
 C461 C 0.66137 0.49655 -0.30251
 C462 C 0.64997 0.47809 -0.34362
 C463 C 0.66323 0.47672 -0.39010
 C464 C 0.68834 0.49364 -0.39611
 C465 C 0.69966 0.51213 -0.35410
 C466 C 0.68627 0.51350 -0.30760
 C467 C 0.64688 0.49897 -0.25798
 C468 C 0.63380 0.50081 -0.22300
 C469 C 0.61720 0.50293 -0.18421
 C470 C 0.60412 0.48482 -0.14307
 C471 C 0.58610 0.48568 -0.10986
 C472 C 0.58087 0.50463 -0.11771
 C473 C 0.59467 0.52311 -0.15800
 C474 C 0.61265 0.52222 -0.19099
 H475 H 0.63065 0.46500 -0.34042
 H476 H 0.65381 0.46226 -0.42140
 H477 H 0.71856 0.52626 -0.35867
 H478 H 0.69518 0.52818 -0.27661
 H479 H 0.60739 0.46972 -0.13771
 H480 H 0.57582 0.47116 -0.07930
 H481 H 0.59121 0.53801 -0.16516
 H482 H 0.62255 0.53625 -0.22294
 C483 C 0.83741 0.33598 -0.30547
 C484 C 0.81238 0.32771 -0.30855
 C485 C 0.79847 0.31270 -0.35432
 C486 C 0.80944 0.30571 -0.39763
 C487 C 0.83463 0.31405 -0.39328
 C488 C 0.84837 0.32887 -0.34756
 C489 C 0.85259 0.35297 -0.26174
 C490 C 0.86691 0.36769 -0.22804
 C491 C 0.88575 0.38558 -0.19146
 C492 C 0.88051 0.39782 -0.14849
 C493 C 0.89945 0.41597 -0.11544
 C494 C 0.92383 0.42212 -0.12527
 C495 C 0.92875 0.40947 -0.16822
 C496 C 0.90987 0.39139 -0.20094
 H497 H 0.80377 0.33341 -0.27660
 H498 H 0.77944 0.30766 -0.35742
 H499 H 0.84376 0.30903 -0.42540
 H500 H 0.86775 0.33522 -0.34575
 H501 H 0.86190 0.39353 -0.14096
 H502 H 0.89503 0.42538 -0.08281
 H503 H 0.94724 0.41364 -0.17705
 H504 H 0.91415 0.38212 -0.23425
 C505 C 0.50026 -0.16417 -0.30055
 C506 C 0.48035 -0.18764 -0.30911
 C507 C 0.48018 -0.20166 -0.35603
 C508 C 0.49993 -0.19228 -0.39458
 C509 C 0.52001 -0.16896 -0.38502
 C510 C 0.52019 -0.15502 -0.33822
 C511 C 0.49978 -0.14852 -0.25617
 C512 C 0.50015 -0.13416 -0.22147
 C513 C 0.50152 -0.11558 -0.18336
 C514 C 0.48293 -0.12065 -0.14356
 C515 C 0.48364 -0.10180 -0.11042
 C516 C 0.50290 -0.07765 -0.11706
 C517 C 0.52173 -0.07296 -0.15624
 C518 C 0.52100 -0.09176 -0.18908
 H519 H 0.46474 -0.19481 -0.28052
 H520 H 0.46443 -0.21951 -0.36322
 H521 H 0.53530 -0.16139 -0.41460
 H522 H 0.53559 -0.13681 -0.33233
 H523 H 0.46769 -0.13902 -0.13896
 H524 H 0.46882 -0.10604 -0.08078
 H525 H 0.53685 -0.05465 -0.16251
 H526 H 0.53543 -0.08760 -0.21993
 C527 C 0.33925 0.50604 -0.30618
 C528 C 0.35018 0.52460 -0.34719
 C529 C 0.33649 0.52584 -0.39293
 C530 C 0.31142 0.50866 -0.39827
 C531 C 0.30055 0.49015 -0.35618
 C532 C 0.31437 0.48892 -0.31044
 C533 C 0.35418 0.50366 -0.26271
 C534 C 0.36753 0.50179 -0.22857
 C535 C 0.38431 0.49957 -0.19060
 C536 C 0.39685 0.51704 -0.14778
 C537 C 0.41467 0.51587 -0.11439
 C538 C 0.42024 0.49723 -0.12369
 C539 C 0.40713 0.47948 -0.16606
 C540 C 0.38934 0.48068 -0.19922
 H541 H 0.36948 0.53783 -0.34461
 H542 H 0.34556 0.54033 -0.42429
 H543 H 0.28169 0.47584 -0.36023
 H544 H 0.30582 0.47418 -0.27951
 H545 H 0.39319 0.53183 -0.14099
 H546 H 0.42442 0.52984 -0.08221
 H547 H 0.41088 0.46486 -0.17438
 H548 H 0.37985 0.46714 -0.23246
 C549 C 1.16405 0.66355 -0.30297
 C550 C 1.17475 0.68896 -0.30328
 C551 C 1.18903 0.70253 -0.35025
 C552 C 1.19282 0.69083 -0.39764
 C553 C 1.18195 0.66521 -0.39631
 C554 C 1.16788 0.65179 -0.34935
 C555 C 1.14765 0.64905 -0.25764
 C556 C 1.13299 0.63582 -0.22240
 C557 C 1.11439 0.61897 -0.18374
 C558 C 1.09045 0.61424 -0.19027
 C559 C 1.07164 0.59600 -0.15766
 C560 C 1.07647 0.58210 -0.11800
 C561 C 1.10074 0.58748 -0.11039
 C562 C 1.11956 0.60576 -0.14325
 H563 H 1.17152 0.69820 -0.26800
 H564 H 1.19613 0.72203 -0.35066
 H565 H 1.18453 0.65551 -0.43157
 H566 H 1.15958 0.63212 -0.34978
 H567 H 1.08618 0.62420 -0.22179
 H568 H 1.05322 0.59243 -0.16463
 H569 H 1.10510 0.57712 -0.08033
 H570 H 1.13801 0.60913 -0.13816
 C571 C 0.83662 0.50161 -0.30394
 C572 C 0.84737 0.52042 -0.34438
 C573 C 0.83369 0.52155 -0.39018
 C574 C 0.80877 0.50401 -0.39616
 C575 C 0.79801 0.48526 -0.35459
 C576 C 0.81187 0.48412 -0.30875
 C577 C 0.85182 0.49982 -0.26030
 C578 C 0.86619 0.49950 -0.22665
 C579 C 0.88511 0.50061 -0.19016
 C580 C 0.90914 0.51915 -0.19947
 C581 C 0.92812 0.52010 -0.16694
 C582 C 0.92340 0.50245 -0.12436
 C583 C 0.89910 0.48397 -0.11464
 C584 C 0.88006 0.48305 -0.14750
 H585 H 0.86656 0.53399 -0.34127
 H586 H 0.84263 0.53624 -0.42112
 H587 H 0.77926 0.47077 -0.35916
 H588 H 0.80346 0.46924 -0.27814
 H589 H 0.91327 0.53277 -0.23255
 H590 H 0.94654 0.53457 -0.17567
 H591 H 0.89484 0.47007 -0.08230
 H592 H 0.86151 0.46854 -0.14012
 C593 C 0.50180 0.33629 -0.29839
 C594 C 0.48229 0.31267 -0.30780
 C595 C 0.48275 0.29903 -0.35476
 C596 C 0.50274 0.30895 -0.39261
 C597 C 0.52248 0.33239 -0.38215
 C598 C 0.52203 0.34597 -0.33521
 C599 C 0.50019 0.35151 -0.25459
 C600 C 0.49873 0.36502 -0.22030
 C601 C 0.49675 0.38193 -0.18241
 C602 C 0.47733 0.38630 -0.18948
 C603 C 0.47636 0.40435 -0.15703
 C604 C 0.49486 0.41837 -0.11696
 C605 C 0.51397 0.41335 -0.10885
 C606 C 0.51491 0.39526 -0.14154
 H607 H 0.46643 0.30513 -0.27996
 H608 H 0.46724 0.28110 -0.36272
 H609 H 0.53794 0.34036 -0.41125
 H610 H 0.53711 0.36430 -0.32868
 H611 H 0.46326 0.37619 -0.22124
 H612 H 0.46137 0.40766 -0.16439
 H613 H 0.52853 0.42381 -0.07848
 H614 H 0.53011 0.39212 -0.13598
 C615 C 0.66126 0.16571 -0.30089
 C616 C 0.65290 0.17864 -0.33360
 C617 C 0.66688 0.19332 -0.37937
 C618 C 0.68941 0.19529 -0.39275
 C619 C 0.69803 0.18277 -0.35896
 C620 C 0.68402 0.16807 -0.31311
 C621 C 0.64545 0.14833 -0.25869
 C622 C 0.63149 0.13301 -0.22563
 C623 C 0.61416 0.11386 -0.18890
 C624 C 0.60149 0.11875 -0.14637
 C625 C 0.58338 0.09967 -0.11380
 C626 C 0.57767 0.07544 -0.12362
 C627 C 0.59084 0.07085 -0.16583
 C628 C 0.60892 0.08992 -0.19817
 H629 H 0.63521 0.17673 -0.32495
 H630 H 0.65982 0.20259 -0.40552
 H631 H 0.71517 0.18374 -0.36937
 H632 H 0.69053 0.15792 -0.28849
 H633 H 0.60533 0.13722 -0.13908
 H634 H 0.57360 0.10388 -0.08172
 H635 H 0.58698 0.05247 -0.17451
 H636 H 0.61852 0.08592 -0.23117
 C637 C 1.16212 0.49621 -0.30122
 C638 C 1.15148 0.47694 -0.34054
 C639 C 1.16491 0.47600 -0.38712
 C640 C 1.18949 0.49419 -0.39500
 C641 C 1.20011 0.51347 -0.35469
 C642 C 1.18651 0.51441 -0.30807
 C643 C 1.14715 0.49777 -0.25659
 C644 C 1.13309 0.49801 -0.22189
 C645 C 1.11459 0.49700 -0.18406
 C646 C 1.09067 0.47772 -0.19006
 C647 C 1.07192 0.47716 -0.15734
 C648 C 1.07678 0.49599 -0.11800
 C649 C 1.10102 0.51505 -0.11107
 C650 C 1.11981 0.51556 -0.14411
 H651 H 1.13255 0.46284 -0.33591
 H652 H 1.15606 0.46091 -0.41712
 H653 H 1.21852 0.52846 -0.36074
 H654 H 1.19480 0.52965 -0.27841
 H655 H 1.08641 0.46333 -0.22105
 H656 H 1.05354 0.46218 -0.16384
 H657 H 1.10536 0.52983 -0.08125
 H658 H 1.13826 0.53063 -0.13928
 C659 C 0.50200 0.66495 -0.30379
 C660 C 0.48524 0.67317 -0.30771
 C661 C 0.48659 0.68816 -0.35372
 C662 C 0.50477 0.69512 -0.39645
 C663 C 0.52171 0.68696 -0.39108
 C664 C 0.52039 0.67217 -0.34512
 C665 C 0.49981 0.64777 -0.26029
 C666 C 0.49917 0.63285 -0.22701
 C667 C 0.49993 0.61470 -0.19117
 C668 C 0.48243 0.60237 -0.14829
 C669 C 0.48308 0.58402 -0.11587
 C670 C 0.50123 0.57781 -0.12626
 C671 C 0.51878 0.59051 -0.16921
 C672 C 0.51810 0.60877 -0.20129
 H673 H 0.47071 0.66740 -0.27631
 H674 H 0.47261 0.69318 -0.35752
 H675 H 0.53605 0.69200 -0.42273
 H676 H 0.53343 0.66586 -0.34261
 H677 H 0.46820 0.60674 -0.14032
 H678 H 0.46927 0.57457 -0.08322
 H679 H 0.53300 0.58627 -0.17845
 H680 H 0.53166 0.61811 -0.23458
 C681 C 0.33697 -0.16729 -0.29990
 C682 C 0.34901 -0.17275 -0.34271
 C683 C 0.33607 -0.18724 -0.38967
 C684 C 0.31066 -0.19682 -0.39458
 C685 C 0.29863 -0.19158 -0.35037
 C686 C 0.31172 -0.17692 -0.30343
 C687 C 0.35108 -0.15021 -0.25528
 C688 C 0.36400 -0.13504 -0.22057
 C689 C 0.38053 -0.11604 -0.18233
 C690 C 0.38516 -0.09223 -0.19047
 C691 C 0.40320 -0.07312 -0.15809
 C692 C 0.41695 -0.07754 -0.11709
 C693 C 0.41158 -0.10169 -0.10775
 C694 C 0.39351 -0.12080 -0.14033
 H695 H 0.36858 -0.16529 -0.34057
 H696 H 0.34600 -0.19097 -0.42233
 H697 H 0.27935 -0.19766 -0.35360
 H698 H 0.30229 -0.17245 -0.27095
 H699 H 0.37534 -0.08832 -0.22311
 H700 H 0.40679 -0.05479 -0.16632
 H701 H 0.42180 -0.10575 -0.07656
 H702 H 0.39018 -0.13915 -0.13397
 C703 C 0.50027 -0.16438 0.29961
 C704 C 0.52048 -0.15560 0.33639
 C705 C 0.52021 -0.16956 0.38328
 C706 C 0.49975 -0.19251 0.39377
 C707 C 0.47970 -0.20156 0.35609
 C708 C 0.47996 -0.18751 0.30911
 C709 C 0.49992 -0.14863 0.25536
 C710 C 0.50037 -0.13416 0.22087
 C711 C 0.50181 -0.11547 0.18304
 C712 C 0.52121 -0.09164 0.18937
 C713 C 0.52195 -0.07276 0.15682
 C714 C 0.50322 -0.07742 0.11730
 C715 C 0.48408 -0.10158 0.10998
 C716 C 0.48337 -0.12049 0.14281
 H717 H 0.53620 -0.13766 0.32974
 H718 H 0.53573 -0.16226 0.41222
 H719 H 0.46368 -0.21913 0.36405
 H720 H 0.46414 -0.19439 0.28121
 H721 H 0.53552 -0.08754 0.22057
 H722 H 0.53699 -0.05444 0.16359
 H723 H 0.46936 -0.10578 0.08000
 H724 H 0.46820 -0.13887 0.13772
 C725 C 0.33772 0.50526 0.30083
 C726 C 0.31551 0.48467 0.31559
 C727 C 0.30171 0.48577 0.36138
 C728 C 0.30998 0.50751 0.39259
 C729 C 0.33197 0.52824 0.37667
 C730 C 0.34574 0.52713 0.33092
 C731 C 0.35338 0.50339 0.25869
 C732 C 0.36714 0.50171 0.22557
 C733 C 0.38421 0.49953 0.18865
 C734 C 0.38934 0.48078 0.19829
 C735 C 0.40718 0.47946 0.16565
 C736 C 0.42020 0.49696 0.12280
 C737 C 0.41456 0.51551 0.11260
 C738 C 0.39670 0.51679 0.14545
 H739 H 0.30928 0.46759 0.29303
 H740 H 0.28503 0.46948 0.37382
 H741 H 0.33878 0.54504 0.40084
 H742 H 0.36303 0.54308 0.32027
 H743 H 0.37986 0.46739 0.23180
 H744 H 0.41099 0.46493 0.17466
 H745 H 0.42424 0.52929 0.08003
 H746 H 0.39294 0.53146 0.13783
 C747 C 1.16374 0.66675 0.29835
 C748 C 1.18631 0.66849 0.30948
 C749 C 1.20033 0.68207 0.35667
 C750 C 1.19185 0.69400 0.39291
 C751 C 1.16949 0.69262 0.38080
 C752 C 1.15553 0.67910 0.33365
 C753 C 1.14789 0.65067 0.25419
 C754 C 1.13345 0.63660 0.21973
 C755 C 1.11483 0.61923 0.18197
 C756 C 1.11998 0.60585 0.14198
 C757 C 1.10113 0.58750 0.10927
 C758 C 1.07690 0.58229 0.11651
 C759 C 1.07211 0.59632 0.15579
 C760 C 1.09093 0.61460 0.18822
 H761 H 1.19270 0.65880 0.28279
 H762 H 1.21742 0.68272 0.36596
 H763 H 1.16261 0.70153 0.40872
 H764 H 1.13799 0.67768 0.32576
 H765 H 1.13841 0.60921 0.13701
 H766 H 1.10543 0.57702 0.07950
 H767 H 1.05373 0.59288 0.16244
 H768 H 1.08673 0.62477 0.21923
 C769 C 0.50424 0.16661 0.30080
 C770 C 0.48385 0.16902 0.31273
 C771 C 0.48447 0.18365 0.35864
 C772 C 0.50553 0.19600 0.39283
 C773 C 0.52612 0.19407 0.37961
 C774 C 0.52549 0.17948 0.33374
 C775 C 0.50265 0.14913 0.25894
 C776 C 0.50123 0.13367 0.22630
 C777 C 0.49931 0.11435 0.19017
 C778 C 0.51639 0.11914 0.14650
 C779 C 0.51522 0.09995 0.11407
 C780 C 0.49697 0.07573 0.12520
 C781 C 0.47974 0.07122 0.16877
 C782 C 0.48093 0.09040 0.20097
 H783 H 0.46722 0.15891 0.28791
 H784 H 0.46830 0.18463 0.36890
 H785 H 0.54239 0.20325 0.40604
 H786 H 0.54127 0.17755 0.32529
 H787 H 0.53080 0.13762 0.13806
 H788 H 0.52880 0.10407 0.08093
 H789 H 0.46544 0.05284 0.17850
 H790 H 0.46771 0.08648 0.23492
 C791 C 0.66162 0.49592 0.30093
 C792 C 0.65253 0.47448 0.33340
 C793 C 0.66591 0.47326 0.37997
 C794 C 0.68858 0.49345 0.39435
 C795 C 0.69787 0.51475 0.36093
 C796 C 0.68446 0.51595 0.31433
 C797 C 0.64655 0.49801 0.25743
 C798 C 0.63323 0.49985 0.22315
 C799 C 0.61655 0.50212 0.18494
 C800 C 0.60370 0.48438 0.14287
 C801 C 0.58579 0.48547 0.10971
 C802 C 0.58044 0.50430 0.11849
 C803 C 0.59400 0.52242 0.15975
 C804 C 0.61189 0.52129 0.19271
 H805 H 0.63477 0.45896 0.32377
 H806 H 0.65836 0.45681 0.40575
 H807 H 0.71513 0.53064 0.37207
 H808 H 0.69154 0.53272 0.28991
 H809 H 0.60710 0.46939 0.13669
 H810 H 0.57571 0.47123 0.07836
 H811 H 0.59044 0.53720 0.16759
 H812 H 0.62165 0.53506 0.22533
 C813 C 0.83655 0.33450 0.30104
 C814 C 0.81396 0.33246 0.31363
 C815 C 0.79991 0.31777 0.35948
 C816 C 0.80837 0.30500 0.39292
 C817 C 0.83070 0.30663 0.37908
 C818 C 0.84468 0.32125 0.33330
 C819 C 0.85254 0.35175 0.25888
 C820 C 0.86718 0.36666 0.22613
 C821 C 0.88606 0.38480 0.19023
 C822 C 0.88077 0.39724 0.14783
 C823 C 0.89967 0.41563 0.11529
 C824 C 0.92406 0.42179 0.12504
 C825 C 0.92904 0.40896 0.16745
 C826 C 0.91019 0.39065 0.19969
 H827 H 0.80762 0.34283 0.28932
 H828 H 0.78292 0.31704 0.37027
 H829 H 0.83762 0.29716 0.40494
 H830 H 0.86223 0.32289 0.32430
 H831 H 0.86214 0.39292 0.14037
 H832 H 0.89521 0.42518 0.08311
 H833 H 0.94755 0.41317 0.17620
 H834 H 0.91450 0.38123 0.23260
   
